drugbank_target|Q8IE67 Phosphoribosylpyrophosphate synthetase (DB11638)
 OpenBabel12092121203D

  0  0  0     0  0            999 V3000
M  V30 BEGIN CTAB
M  V30 COUNTS 6993 7057 0 0 0
M  V30 BEGIN ATOM
M  V30 1 H -0.908 1.98254 -0.117106 0
M  V30 2 N 0 1.576 0 0
M  V30 3 C 0.933 2.03868 1.02534 0
M  V30 4 C 1.911 0.928543 1.3348 0
M  V30 5 O 3.095 1.19667 1.45644 0
M  V30 6 C 0.222 2.43627 2.35294 0
M  V30 7 C -0.732 3.65373 2.2001 0
M  V30 8 S 0.101 5.13292 1.52614 0
M  V30 9 C 1.257 5.56322 2.86805 0
M  V30 10 H 1.49 2.90518 0.631377 0
M  V30 11 H -0.977 1.52953 0.210867 0
M  V30 12 H 0.981 2.67203 3.11629 0
M  V30 13 H -0.358 1.57376 2.7183 0
M  V30 14 H -1.165 3.90944 3.18086 0
M  V30 15 H -1.563 3.418 1.51819 0
M  V30 16 H 0.729 5.58782 3.83104 0
M  V30 17 H 1.672 6.56266 2.65933 0
M  V30 18 H 2.08 4.83886 2.90714 0
M  V30 19 N 1.4781 -0.272755 1.55222 0
M  V30 20 C 2.7031 -1.02683 1.80197 0
M  V30 21 C 3.1281 -1.79142 0.573551 0
M  V30 22 O 2.4861 -1.74917 -0.476849 0
M  V30 23 C 2.5341 -1.9609 3.02624 0
M  V30 24 O 1.6381 -3.04863 2.77727 0
M  V30 25 H 0.9791 -0.293557 0.595584 0
M  V30 26 H 3.5091 -0.30159 2.02365 0
M  V30 27 H 3.5191 -2.38039 3.31363 0
M  V30 28 H 2.1941 -1.39851 3.91682 0
M  V30 29 H 0.7711 -2.67228 2.60084 0
M  V30 30 N 2.9562 -1.48159 -0.537278 0
M  V30 31 C 4.2032 -1.55804 -1.29349 0
M  V30 32 C 4.5312 -0.228802 -1.9315 0
M  V30 33 O 3.7862 0.780242 -1.79473 0
M  V30 34 C 4.0852 -2.63956 -2.40961 0
M  V30 35 C 3.7512 -4.0662 -1.94861 0
M  V30 36 C 2.4132 -4.45452 -1.82006 0
M  V30 37 C 4.7652 -4.96055 -1.59933 0
M  V30 38 C 2.0932 -5.71531 -1.32547 0
M  V30 39 C 4.4452 -6.22617 -1.11939 0
M  V30 40 C 3.1092 -6.60312 -0.976951 0
M  V30 41 H 2.3792 -0.570129 -0.473322 0
M  V30 42 H 5.0262 -1.81845 -0.600372 0
M  V30 43 H 3.3312 -2.31747 -3.15912 0
M  V30 44 H 5.0282 -2.67089 -2.99107 0
M  V30 45 H 1.6182 -3.75949 -2.05815 0
M  V30 46 H 5.8022 -4.66738 -1.68728 0
M  V30 47 H 1.0582 -5.99468 -1.202 0
M  V30 48 H 5.2322 -6.91318 -0.839811 0
M  V30 49 H 2.8592 -7.57895 -0.591501 0
M  V30 50 N 4.4343 0.785586 -1.36625 0
M  V30 51 C 5.6813 1.54362 -1.31067 0
M  V30 52 C 6.0093 1.94195 0.10893 0
M  V30 53 O 5.2643 1.63262 1.07908 0
M  V30 54 C 5.5633 2.83007 -2.1827 0
M  V30 55 C 5.2293 2.62294 -3.6676 0
M  V30 56 C 3.8913 2.56353 -4.0723 0
M  V30 57 C 6.2433 2.43371 -4.6089 0
M  V30 58 C 3.5713 2.29461 -5.39967 0
M  V30 59 C 5.9233 2.18005 -5.93849 0
M  V30 60 C 4.5873 2.105 -6.3344 0
M  V30 61 H 3.8573 0.564851 -0.479609 0
M  V30 62 H 6.5043 0.906028 -1.68711 0
M  V30 63 H 4.8093 3.51253 -1.73576 0
M  V30 64 H 6.5063 3.40817 -2.11292 0
M  V30 65 H 3.0963 2.67774 -3.34656 0
M  V30 66 H 7.2803 2.46959 -4.30494 0
M  V30 67 H 2.5363 2.22135 -5.69619 0
M  V30 68 H 6.7103 2.02359 -6.66351 0
M  V30 69 H 4.3373 1.89425 -7.36222 0
M  V30 70 N 5.9124 1.20967 1.01018 0
M  V30 71 C 7.1584 1.02526 1.74975 0
M  V30 72 C 7.4914 -0.4408 1.89131 0
M  V30 73 O 6.7664 -1.32718 1.42184 0
M  V30 74 C 7.0494 1.71699 3.1653 0
M  V30 75 C 6.9024 3.25791 3.10129 0
M  V30 76 C 8.2214 1.45531 4.15342 0
M  V30 77 H 5.3404 0.373863 0.635134 0
M  V30 78 H 7.9824 1.49071 1.17805 0
M  V30 79 H 6.1324 1.32128 3.65341 0
M  V30 80 H 7.8044 3.74697 2.69072 0
M  V30 81 H 6.0474 3.56363 2.47362 0
M  V30 82 H 6.7184 3.69353 4.10222 0
M  V30 83 H 9.1944 1.79872 3.75213 0
M  V30 84 H 8.0704 1.96453 5.1254 0
M  V30 85 H 8.3314 0.384237 4.40427 0
M  V30 86 N 7.3905 -1.2043 1.01659 0
M  V30 87 C 8.6155 -1.94318 0.724942 0
M  V30 88 C 9.0405 -1.74266 -0.708034 0
M  V30 89 O 8.3985 -1.03694 -1.48719 0
M  V30 90 C 8.4465 -3.44486 1.06591 0
M  V30 91 O 7.5505 -4.12017 0.177599 0
M  V30 92 H 6.8915 -0.60708 0.26898 0
M  V30 93 H 9.4215 -1.52861 1.35995 0
M  V30 94 H 9.4315 -3.95106 1.01762 0
M  V30 95 H 8.1065 -3.58404 2.10997 0
M  V30 96 H 6.6835 -3.71821 0.283421 0
M  V30 97 N 8.8686 -0.792821 -1.36206 0
M  V30 98 C 9.8156 -0.191653 -2.30003 0
M  V30 99 C 10.7856 0.666453 -1.52143 0
M  V30 100 O 11.9706 0.61442 -1.80636 0
M  V30 101 C 9.1106 0.664848 -3.38635 0
M  V30 102 C 8.2236 -0.212175 -4.31479 0
M  V30 103 C 7.3586 0.651022 -5.27196 0
M  V30 104 C 6.3976 -0.227247 -6.11678 0
M  V30 105 N 5.5346 0.595127 -6.99573 0
M  V30 106 H 10.3746 -0.996978 -2.80828 0
M  V30 107 H 7.9116 -0.503206 -1.38225 0
M  V30 108 H 9.8696 1.17645 -4.00269 0
M  V30 109 H 8.4996 1.43557 -2.89122 0
M  V30 110 H 7.5516 -0.841777 -3.70969 0
M  V30 111 H 8.8636 -0.888751 -4.90818 0
M  V30 112 H 8.0176 1.2283 -5.94136 0
M  V30 113 H 6.7566 1.36121 -4.68319 0
M  V30 114 H 5.7616 -0.816904 -5.43697 0
M  V30 115 H 6.9866 -0.93509 -6.72631 0
M  V30 116 H 4.9326 1.28955 -6.432 0
M  V30 117 H 4.8496 -0.0236952 -7.55996 0
M  V30 118 H 6.1176 1.15613 -7.70879 0
M  V30 119 N 10.3467 1.47872 -0.545128 0
M  V30 120 C 11.2937 2.29849 0.2093 0
M  V30 121 C 12.2637 1.38313 0.919707 0
M  V30 122 O 13.4487 1.67277 0.917772 0
M  V30 123 C 10.5887 3.22019 1.24088 0
M  V30 124 C 9.7017 4.2864 0.537778 0
M  V30 125 C 8.8367 5.07973 1.5536 0
M  V30 126 C 7.8757 6.06381 0.8348 0
M  V30 127 N 7.0127 6.78717 1.79688 0
M  V30 128 H 11.8527 2.93845 -0.49591 0
M  V30 129 H 9.3897 1.44848 -0.256389 0
M  V30 130 H 11.3477 3.73868 1.85144 0
M  V30 131 H 9.9777 2.59914 1.91428 0
M  V30 132 H 9.0297 3.7994 -0.187046 0
M  V30 133 H 10.3417 4.98793 -0.0258907 0
M  V30 134 H 9.4957 5.63912 2.23803 0
M  V30 135 H 8.2347 4.37693 2.15118 0
M  V30 136 H 7.2397 5.49631 0.136388 0
M  V30 137 H 8.4647 6.78665 0.24313 0
M  V30 138 H 6.4107 6.11177 2.38326 0
M  V30 139 H 6.3277 7.44998 1.28505 0
M  V30 140 H 7.5957 7.39237 2.47282 0
M  V30 141 N 11.8248 0.280983 1.55075 0
M  V30 142 C 13.0648 -0.335234 2.01632 0
M  V30 143 C 13.4288 -1.5261 1.16508 0
M  V30 144 O 14.6298 -2.21235 1.52672 0
M  V30 145 C 12.9008 -0.702172 3.50434 0
M  V30 146 S 14.4598 -1.30409 4.18974 0
M  V30 147 H 11.2778 -0.103967 0.703358 0
M  V30 148 H 13.8798 0.404187 1.91276 0
M  V30 149 H 12.5838 0.17333 4.10034 0
M  V30 150 H 12.1148 -1.4729 3.64786 0
M  V30 151 H 14.1298 -2.59253 4.23087 0
M  V30 152 N 13.3029 -1.57598 0.00835791 0
M  V30 153 C 14.5519 -1.90107 -0.673968 0
M  V30 154 C 14.8649 -0.884275 -1.7447 0
M  V30 155 O 16.0709 -1.09987 -2.48224 0
M  V30 156 C 14.5269 -3.37497 -1.24995 0
M  V30 157 C 14.1349 -4.47491 -0.2136 0
M  V30 158 C 15.8789 -3.79104 -1.90999 0
M  V30 159 C 13.7859 -5.85963 -0.80005 0
M  V30 160 H 12.7159 -0.709393 -0.255495 0
M  V30 161 H 15.3669 -1.83365 0.0702693 0
M  V30 162 H 13.7489 -3.39102 -2.04513 0
M  V30 163 H 14.9229 -4.57414 0.557596 0
M  V30 164 H 13.2379 -4.14956 0.346474 0
M  V30 165 H 15.8349 -4.79901 -2.35795 0
M  V30 166 H 16.1779 -3.1306 -2.74407 0
M  V30 167 H 16.7109 -3.79833 -1.18203 0
M  V30 168 H 13.4499 -6.555 -0.00456708 0
M  V30 169 H 12.9699 -5.79687 -1.54021 0
M  V30 170 H 14.6489 -6.33884 -1.29615 0
M  V30 171 N 14.781 0.264519 -1.55364 0
M  V30 172 C 16.006 1.01726 -1.80739 0
M  V30 173 C 16.431 1.78836 -0.583044 0
M  V30 174 O 15.789 1.75167 0.467566 0
M  V30 175 C 15.837 1.94482 -3.03659 0
M  V30 176 O 14.941 3.03386 -2.7934 0
M  V30 177 H 14.282 0.290395 -0.597132 0
M  V30 178 H 16.812 0.290854 -2.02522 0
M  V30 179 H 16.822 2.36278 -3.32621 0
M  V30 180 H 15.497 1.37772 -3.92418 0
M  V30 181 H 14.074 2.65844 -2.61498 0
M  V30 182 N 16.2591 1.48442 0.529413 0
M  V30 183 C 17.2071 1.63452 1.65487 0
M  V30 184 C 18.2011 0.500955 1.61823 0
M  V30 185 O 19.4071 0.679695 1.66674 0
M  V30 186 H 15.7821 0.514905 0.548066 0
M  V30 187 H 17.7531 2.57975 1.49971 0
M  V30 188 C 16.5021 1.69196 3.03756 0
M  V30 189 H 15.8251 2.55784 3.07269 0
M  V30 190 H 17.2651 1.83743 3.82119 0
M  V30 191 C 15.7241 0.430765 3.34135 0
M  V30 192 O 16.2541 -0.4561 3.99102 0
M  V30 193 N 14.4601 0.302293 2.89023 0
M  V30 194 H 14.0071 1.02496 2.36331 0
M  V30 195 H 13.9651 -0.540546 3.09718 0
M  V30 196 N 17.7372 -0.778329 1.37039 0
M  V30 197 C 18.9832 -1.53817 1.33086 0
M  V30 198 C 19.3382 -1.92208 -0.0860346 0
M  V30 199 O 18.6312 -1.60713 -1.04316 0
M  V30 200 C 18.8252 -2.81845 2.19768 0
M  V30 201 C 18.6542 -2.55967 3.69744 0
M  V30 202 C 17.4242 -2.50428 4.38878 0
M  V30 203 C 19.6222 -2.2441 4.62758 0
M  V30 204 N 17.6042 -2.16564 5.74433 0
M  V30 205 C 18.9752 -2.0063 5.86641 0
M  V30 206 C 21.0302 -2.1051 4.5121 0
M  V30 207 C 19.7332 -1.64354 7.00272 0
M  V30 208 C 21.7592 -1.75634 5.64718 0
M  V30 209 C 21.1212 -1.52709 6.87648 0
M  V30 210 H 17.2202 -0.563434 0.542279 0
M  V30 211 H 19.8042 -0.908617 1.72198 0
M  V30 212 H 17.9752 -3.42649 1.82883 0
M  V30 213 H 19.7072 -3.47682 2.07122 0
M  V30 214 H 16.4622 -2.66056 3.91805 0
M  V30 215 H 16.8862 -2.02348 6.46053 0
M  V30 216 H 21.5282 -2.26919 3.56746 0
M  V30 217 H 19.2462 -1.46683 7.94676 0
M  V30 218 H 22.8322 -1.65546 5.57751 0
M  V30 219 H 21.7122 -1.2612 7.73992 0
M  V30 220 N 19.2153 -1.21501 -1.00376 0
M  V30 221 C 20.4453 -1.05746 -1.77486 0
M  V30 222 C 20.8533 0.395655 -1.85017 0
M  V30 223 O 20.1963 1.28626 -1.31152 0
M  V30 224 C 20.2583 -1.58092 -3.22873 0
M  V30 225 C 19.9223 -3.06568 -3.38917 0
M  V30 226 C 20.9193 -4.04106 -3.271 0
M  V30 227 C 18.6043 -3.45799 -3.64319 0
M  V30 228 C 20.5983 -5.38862 -3.40451 0
M  V30 229 C 18.2853 -4.80707 -3.77311 0
M  V30 230 C 19.2833 -5.77047 -3.65384 0
M  V30 231 O 18.9713 -7.09507 -3.77961 0
M  V30 232 H 18.7033 -0.371778 -0.564586 0
M  V30 233 H 21.2573 -1.61319 -1.27143 0
M  V30 234 H 19.4873 -0.969163 -3.74358 0
M  V30 235 H 21.1763 -1.38162 -3.81662 0
M  V30 236 H 21.9423 -3.75141 -3.07399 0
M  V30 237 H 17.8213 -2.71344 -3.72684 0
M  V30 238 H 21.3653 -6.14041 -3.31058 0
M  V30 239 H 17.2623 -5.09357 -3.96517 0
M  V30 240 H 18.0303 -7.16935 -3.94901 0
M  V30 241 N 20.6934 1.19889 -1.02296 0
M  V30 242 C 21.6404 2.22901 -0.598651 0
M  V30 243 C 22.6104 1.61588 0.384521 0
M  V30 244 O 23.7954 1.88697 0.282522 0
M  V30 245 C 20.9354 3.45063 0.0504476 0
M  V30 246 C 20.0484 4.20783 -0.978053 0
M  V30 247 C 19.1834 5.30356 -0.299338 0
M  V30 248 C 18.2224 5.97826 -1.31416 0
M  V30 249 N 17.3594 6.98975 -0.661667 0
M  V30 250 H 22.1994 2.58554 -1.48169 0
M  V30 251 H 19.7364 1.27039 -0.741584 0
M  V30 252 H 21.6944 4.14831 0.443971 0
M  V30 253 H 20.3244 3.10084 0.897097 0
M  V30 254 H 19.3764 3.50018 -1.48969 0
M  V30 255 H 20.6884 4.67109 -1.74958 0
M  V30 256 H 19.8424 6.06516 0.149347 0
M  V30 257 H 18.5814 4.85084 0.504445 0
M  V30 258 H 17.5864 5.20422 -1.77317 0
M  V30 259 H 18.8114 6.45183 -2.11933 0
M  V30 260 H 16.7574 6.55886 0.122132 0
M  V30 261 H 16.6744 7.43461 -1.37117 0
M  V30 262 H 17.9424 7.7914 -0.236785 0
M  V30 263 N 22.1715 0.800033 1.35784 0
M  V30 264 C 23.1185 0.203848 2.29898 0
M  V30 265 C 24.0885 -0.658375 1.52495 0
M  V30 266 O 25.2735 -0.604832 1.8096 0
M  V30 267 C 22.4135 -0.64688 3.38983 0
M  V30 268 C 21.5265 0.235054 4.3136 0
M  V30 269 C 20.6615 -0.623054 5.27533 0
M  V30 270 C 19.7005 0.259682 6.11549 0
M  V30 271 N 18.8375 -0.558019 6.99879 0
M  V30 272 H 23.6775 1.01186 2.80295 0
M  V30 273 H 21.2145 0.51053 1.37957 0
M  V30 274 H 23.1725 -1.15521 4.00887 0
M  V30 275 H 21.8025 -1.42021 2.89879 0
M  V30 276 H 20.8545 0.861438 3.70518 0
M  V30 277 H 22.1665 0.914768 4.9034 0
M  V30 278 H 21.3205 -1.19678 5.94779 0
M  V30 279 H 20.0595 -1.33636 4.69034 0
M  V30 280 H 19.0645 0.845726 5.43256 0
M  V30 281 H 20.2895 0.970748 6.72126 0
M  V30 282 H 18.2355 -1.25542 6.43875 0
M  V30 283 H 18.1525 0.0637872 7.55973 0
M  V30 284 H 19.4205 -1.11523 7.71481 0
M  V30 285 N 23.6496 -1.47581 0.552962 0
M  V30 286 C 24.5966 -2.29957 -0.197108 0
M  V30 287 C 25.5666 -1.38799 -0.912359 0
M  V30 288 O 26.7516 -1.67761 -0.908888 0
M  V30 289 C 23.8916 -3.22672 -1.22379 0
M  V30 290 C 23.0046 -4.28919 -0.515038 0
M  V30 291 C 22.1396 -5.0879 -1.52664 0
M  V30 292 C 21.1786 -6.06815 -0.802631 0
M  V30 293 N 20.3156 -6.7966 -1.76086 0
M  V30 294 H 25.1556 -2.93578 0.511486 0
M  V30 295 H 22.6926 -1.4471 0.264067 0
M  V30 296 H 24.6506 -3.74845 -1.83159 0
M  V30 297 H 23.2806 -2.60925 -1.90047 0
M  V30 298 H 22.3326 -3.79835 0.207192 0
M  V30 299 H 23.6446 -4.98773 0.0523425 0
M  V30 300 H 22.7986 -5.65091 -2.20809 0
M  V30 301 H 21.5376 -4.38828 -2.12794 0
M  V30 302 H 20.5426 -5.49695 -0.107238 0
M  V30 303 H 21.7676 -6.78784 -0.207135 0
M  V30 304 H 19.7136 -6.12432 -2.35081 0
M  V30 305 H 19.6306 -7.45669 -1.24552 0
M  V30 306 H 20.8986 -7.40538 -2.43359 0
M  V30 307 N 25.1277 -0.289203 -1.54924 0
M  V30 308 C 26.3527 0.329299 -2.04769 0
M  V30 309 C 26.7777 1.4763 -1.16564 0
M  V30 310 O 26.1357 1.80527 -0.167186 0
M  V30 311 C 26.1837 0.774438 -3.52186 0
M  V30 312 O 25.2877 1.88038 -3.67036 0
M  V30 313 H 24.6287 0.0659259 -0.660719 0
M  V30 314 H 27.1587 -0.42761 -2.00082 0
M  V30 315 H 27.1687 1.06642 -3.93816 0
M  V30 316 H 25.8437 -0.0646707 -4.1585 0
M  V30 317 H 24.4207 1.58985 -3.3731 0
M  V30 318 N 26.6058 1.57591 -0.0167156 0
M  V30 319 C 27.5538 2.10604 0.987353 0
M  V30 320 C 28.5478 1.02977 1.34507 0
M  V30 321 O 29.7538 1.21425 1.32875 0
M  V30 322 H 26.1288 0.672695 0.336134 0
M  V30 323 H 28.0998 2.93925 0.514817 0
M  V30 324 C 26.8488 2.6382 2.26483 0
M  V30 325 H 26.1718 3.46278 1.99829 0
M  V30 326 H 27.6118 3.04573 2.94977 0
M  V30 327 C 26.0708 1.55992 2.9861 0
M  V30 328 O 26.6008 0.952521 3.90243 0
M  V30 329 N 24.8068 1.28335 2.60727 0
M  V30 330 H 24.3538 1.77914 1.86291 0
M  V30 331 H 24.3118 0.564115 3.09298 0
M  V30 332 N 28.0839 -0.256276 1.55502 0
M  V30 333 C 29.0319 -1.33694 1.90338 0
M  V30 334 C 30.0259 -1.50299 0.781441 0
M  V30 335 O 31.2319 -1.51885 0.965966 0
M  V30 336 H 27.6069 -0.447483 0.60437 0
M  V30 337 H 29.5779 -1.01574 2.8058 0
M  V30 338 C 28.3269 -2.68724 2.20642 0
M  V30 339 H 27.6499 -2.56743 3.06469 0
M  V30 340 H 29.0899 -3.43237 2.48926 0
M  V30 341 C 27.5489 -3.21101 1.01959 0
M  V30 342 O 28.0789 -4.0084 0.262762 0
M  V30 343 N 26.2849 -2.79003 0.812746 0
M  V30 344 H 25.8319 -2.14271 1.42989 0
M  V30 345 H 25.7899 -3.14393 0.0203076 0
M  V30 346 N 29.562 -1.4872 -0.521534 0
M  V30 347 C 30.809 -1.57168 -1.27689 0
M  V30 348 C 31.137 -0.249275 -1.92896 0
M  V30 349 O 30.392 0.761162 -1.80291 0
M  V30 350 C 30.691 -2.66497 -2.38148 0
M  V30 351 C 30.357 -4.08664 -1.90538 0
M  V30 352 C 29.019 -4.47357 -1.77271 0
M  V30 353 C 31.371 -4.97724 -1.54663 0
M  V30 354 C 28.699 -5.72905 -1.26478 0
M  V30 355 C 31.051 -6.2377 -1.05329 0
M  V30 356 C 29.715 -6.61311 -0.906861 0
M  V30 357 H 28.985 -0.575117 -0.467249 0
M  V30 358 H 31.632 -1.82472 -0.581051 0
M  V30 359 H 29.937 -2.35085 -3.13437 0
M  V30 360 H 31.634 -2.70246 -2.96257 0
M  V30 361 H 28.224 -3.78111 -2.01816 0
M  V30 362 H 32.408 -4.68501 -1.63768 0
M  V30 363 H 27.664 -6.00709 -1.13835 0
M  V30 364 H 31.838 -6.9217 -0.76644 0
M  V30 365 H 29.465 -7.5848 -0.511083 0
M  V30 366 N 31.0401 0.771051 -1.3745 0
M  V30 367 C 32.2871 1.52963 -1.32697 0
M  V30 368 C 32.6151 1.94299 0.0883274 0
M  V30 369 O 31.8701 1.64397 1.0617 0
M  V30 370 C 32.1691 2.80676 -2.2126 0
M  V30 371 C 31.8351 2.58389 -3.69521 0
M  V30 372 C 30.4971 2.52019 -4.09927 0
M  V30 373 C 32.8491 2.38469 -4.63446 0
M  V30 374 C 30.1771 2.23721 -5.42371 0
M  V30 375 C 32.5291 2.11694 -5.96128 0
M  V30 376 C 31.1931 2.03769 -6.35637 0
M  V30 377 H 30.4631 0.559732 -0.485573 0
M  V30 378 H 33.1101 0.888083 -1.69662 0
M  V30 379 H 31.4151 3.49392 -1.77291 0
M  V30 380 H 33.1121 3.38557 -2.14895 0
M  V30 381 H 29.7021 2.6421 -3.37478 0
M  V30 382 H 33.8861 2.4238 -4.33089 0
M  V30 383 H 29.1421 2.16081 -5.71943 0
M  V30 384 H 33.3161 1.9528 -6.6846 0
M  V30 385 H 30.9431 1.81606 -7.38189 0
M  V30 386 N 32.5182 1.22032 0.997298 0
M  V30 387 C 33.7482 1.06686 1.76923 0
M  V30 388 C 34.1562 -0.385838 1.85224 0
M  V30 389 O 33.4992 -1.27929 1.31833 0
M  V30 390 C 33.5612 1.59802 3.22031 0
M  V30 391 C 33.2252 3.08362 3.37286 0
M  V30 392 C 34.2222 4.05835 3.24952 0
M  V30 393 C 31.9072 3.47727 3.6248 0
M  V30 394 C 33.9012 5.4066 3.37588 0
M  V30 395 C 31.5882 4.82701 3.74757 0
M  V30 396 C 32.5862 5.78977 3.62319 0
M  V30 397 O 32.2742 7.11502 3.74193 0
M  V30 398 H 32.0062 0.374767 0.562606 0
M  V30 399 H 34.5602 1.61991 1.26286 0
M  V30 400 H 32.7902 0.989003 3.73839 0
M  V30 401 H 34.4792 1.40184 3.80924 0
M  V30 402 H 35.2452 3.76766 3.05405 0
M  V30 403 H 31.1242 2.73317 3.7124 0
M  V30 404 H 34.6682 6.15788 3.27796 0
M  V30 405 H 30.5652 5.11453 3.9381 0
M  V30 406 H 31.3332 7.19019 3.91093 0
M  V30 407 N 33.9963 -1.19345 1.0293 0
M  V30 408 C 35.2733 -1.84811 0.640642 0
M  V30 409 C 35.6533 -1.91855 -0.88062 0
M  V30 410 O 35.0013 -1.43587 -1.7775 0
M  V30 411 C 35.2113 -3.23755 1.30321 0
M  V30 412 C 36.5593 -3.99912 1.42673 0
M  V30 413 O 37.5833 -3.33155 1.26041 0
M  V30 414 O 36.4423 -5.19494 1.6967 0
M  V30 415 H 33.5363 -0.796443 0.222726 0
M  V30 416 H 36.0823 -1.26831 1.12748 0
M  V30 417 H 34.8543 -3.13466 2.34211 0
M  V30 418 H 34.4773 -3.89381 0.804261 0
M  V30 419 N 35.4744 -0.807222 -1.35358 0
M  V30 420 C 36.4214 -0.216037 -2.29787 0
M  V30 421 C 37.3914 0.650278 -1.52842 0
M  V30 422 O 38.5764 0.595227 -1.81278 0
M  V30 423 C 35.7164 0.628893 -3.39321 0
M  V30 424 C 34.8294 -0.257927 -4.31229 0
M  V30 425 C 33.9644 0.595069 -5.27856 0
M  V30 426 C 33.0034 -0.292111 -6.11403 0
M  V30 427 N 32.1404 0.520895 -7.00165 0
M  V30 428 H 36.9804 -1.02671 -2.79755 0
M  V30 429 H 34.5174 -0.517839 -1.37684 0
M  V30 430 H 36.4754 1.13393 -4.01494 0
M  V30 431 H 35.1054 1.40482 -2.90628 0
M  V30 432 H 34.1574 -0.881076 -3.70056 0
M  V30 433 H 35.4694 -0.940759 -4.89848 0
M  V30 434 H 34.6234 1.16522 -5.95405 0
M  V30 435 H 33.3624 1.31146 -4.69736 0
M  V30 436 H 32.3674 -0.874525 -5.428 0
M  V30 437 H 33.5924 -1.00638 -6.71602 0
M  V30 438 H 31.5384 1.22125 -6.44532 0
M  V30 439 H 31.4554 -0.103877 -7.55929 0
M  V30 440 H 32.7234 1.0743 -7.72062 0
M  V30 441 N 36.9525 1.47285 -0.560781 0
M  V30 442 C 37.8625 2.33846 0.187954 0
M  V30 443 C 38.8785 1.48412 0.908293 0
M  V30 444 O 40.0545 1.81332 0.876388 0
M  V30 445 C 37.1195 3.25178 1.2025 0
M  V30 446 C 36.1805 4.26504 0.489208 0
M  V30 447 C 35.4135 5.13472 1.45542 0
M  V30 448 O 35.6365 5.02959 2.6905 0
M  V30 449 O 34.5705 5.93902 0.977963 0
M  V30 450 H 38.3965 2.99177 -0.522177 0
M  V30 451 H 35.9815 1.45903 -0.321364 0
M  V30 452 H 37.8635 3.81584 1.78805 0
M  V30 453 H 36.5385 2.6247 1.89449 0
M  V30 454 H 35.4455 3.73847 -0.137627 0
M  V30 455 H 36.7785 4.91935 -0.161399 0
M  V30 456 N 38.4306 0.297415 1.54768 0
M  V30 457 C 39.6786 -0.312295 1.99673 0
M  V30 458 C 39.9996 -1.54686 1.18732 0
M  V30 459 O 39.2696 -1.93854 0.282382 0
M  V30 460 H 37.8496 -0.118381 0.73756 0
M  V30 461 H 40.5116 0.407915 1.90583 0
M  V30 462 H 39.6076 -0.586813 3.06534 0
M  V30 463 N 39.9087 -1.5758 0.0250728 0
M  V30 464 C 41.1547 -1.92746 -0.649648 0
M  V30 465 C 41.5097 -0.901588 -1.69968 0
M  V30 466 O 40.8027 0.0829251 -1.9142 0
M  V30 467 C 40.9967 -3.32421 -1.31268 0
M  V30 468 C 40.8257 -4.48499 -0.328394 0
M  V30 469 C 39.5957 -5.05251 0.070284 0
M  V30 470 C 41.7937 -5.12618 0.415665 0
M  V30 471 N 39.7757 -6.04851 1.05016 0
M  V30 472 C 41.1467 -6.0728 1.24943 0
M  V30 473 C 43.2017 -4.95612 0.476803 0
M  V30 474 C 41.9047 -6.86766 2.1388 0
M  V30 475 C 43.9307 -5.75703 1.3535 0
M  V30 476 C 43.2927 -6.69978 2.17504 0
M  V30 477 H 39.3917 -0.753231 -0.210159 0
M  V30 478 H 41.9757 -1.94486 0.0912999 0
M  V30 479 H 40.1467 -3.31508 -2.02379 0
M  V30 480 H 41.8787 -3.54946 -1.94411 0
M  V30 481 H 38.6337 -4.72628 -0.303323 0
M  V30 482 H 39.0577 -6.5934 1.53622 0
M  V30 483 H 43.6997 -4.22554 -0.144105 0
M  V30 484 H 41.4177 -7.59132 2.77027 0
M  V30 485 H 45.0037 -5.64579 1.40504 0
M  V30 486 H 43.8837 -7.30873 2.84244 0
M  V30 487 N 41.3868 0.248026 -1.55636 0
M  V30 488 C 42.6168 0.992367 -1.81206 0
M  V30 489 C 43.0248 1.7949 -0.598324 0
M  V30 490 O 42.3678 1.78292 0.442434 0
M  V30 491 C 42.4298 1.97926 -3.00109 0
M  V30 492 C 42.0938 1.36377 -4.36177 0
M  V30 493 C 43.0908 0.76682 -5.14214 0
M  V30 494 C 40.7758 1.38347 -4.82872 0
M  V30 495 C 42.7698 0.197778 -6.37093 0
M  V30 496 C 40.4568 0.810574 -6.057 0
M  V30 497 C 41.4548 0.218754 -6.8265 0
M  V30 498 O 41.1428 -0.345298 -8.03158 0
M  V30 499 H 40.8748 0.297704 -0.606917 0
M  V30 500 H 43.4288 0.276517 -2.0353 0
M  V30 501 H 41.6588 2.73339 -2.73538 0
M  V30 502 H 43.3478 2.58694 -3.12781 0
M  V30 503 H 44.1138 0.744114 -4.79258 0
M  V30 504 H 39.9928 1.8335 -4.2297 0
M  V30 505 H 43.5368 -0.264788 -6.97097 0
M  V30 506 H 39.4338 0.830604 -6.40134 0
M  V30 507 H 40.2018 -0.237055 -8.18157 0
M  V30 508 N 42.8649 1.48995 0.513639 0
M  V30 509 C 44.1129 1.57531 1.26604 0
M  V30 510 C 44.4339 0.258236 1.93283 0
M  V30 511 O 43.7039 -0.721502 1.8213 0
M  V30 512 H 42.2839 0.580387 0.470276 0
M  V30 513 H 44.9459 1.85552 0.596373 0
M  V30 514 H 44.0419 2.36486 2.03669 0
M  V30 515 N 44.343 -0.763751 1.37857 0
M  V30 516 C 45.583 -1.53551 1.34913 0
M  V30 517 C 45.947 -1.91895 -0.0635882 0
M  V30 518 O 47.148 -2.67916 -0.217825 0
M  V30 519 C 45.419 -2.76126 2.26912 0
M  V30 520 S 46.978 -3.66105 2.41893 0
M  V30 521 H 43.796 -0.52559 0.478828 0
M  V30 522 H 46.398 -0.897435 1.73685 0
M  V30 523 H 45.102 -2.4605 3.28463 0
M  V30 524 H 44.633 -3.44887 1.89253 0
M  V30 525 H 46.648 -4.68473 1.63545 0
M  V30 526 N 45.8211 -1.22559 -0.990812 0
M  V30 527 C 46.7681 -0.997519 -2.0813 0
M  V30 528 C 47.7381 0.0814702 -1.659 0
M  V30 529 O 48.9231 -0.0685424 -1.90677 0
M  V30 530 C 46.0631 -0.583615 -3.40129 0
M  V30 531 C 45.1761 -1.7336 -3.9569 0
M  V30 532 C 44.3111 -1.26748 -5.15857 0
M  V30 533 C 43.3501 -2.38888 -5.63559 0
M  V30 534 N 42.4871 -1.93308 -6.74964 0
M  V30 535 H 47.3271 -1.93099 -2.26973 0
M  V30 536 H 44.8641 -0.962114 -1.11273 0
M  V30 537 H 46.8221 -0.324801 -4.15934 0
M  V30 538 H 45.4521 0.312845 -3.2128 0
M  V30 539 H 44.5041 -2.10669 -3.16738 0
M  V30 540 H 45.8161 -2.57704 -4.27071 0
M  V30 541 H 44.9701 -0.966173 -5.98957 0
M  V30 542 H 43.7091 -0.394272 -4.86104 0
M  V30 543 H 42.7141 -2.69805 -4.79046 0
M  V30 544 H 43.9391 -3.26728 -5.95336 0
M  V30 545 H 41.8851 -1.08352 -6.4699 0
M  V30 546 H 41.8021 -2.71217 -7.05675 0
M  V30 547 H 43.0701 -1.66252 -7.61564 0
M  V30 548 N 47.2992 1.18797 -1.03562 0
M  V30 549 C 48.5452 1.8893 -0.737113 0
M  V30 550 C 48.8782 1.79837 0.732956 0
M  V30 551 O 48.1532 1.19525 1.5344 0
M  V30 552 C 48.4362 3.39607 -1.19745 0
M  V30 553 C 48.2892 3.57537 -2.72924 0
M  V30 554 C 49.6082 4.33069 -0.783526 0
M  V30 555 H 46.7272 0.686057 -0.269249 0
M  V30 556 H 49.3692 1.39797 -1.28673 0
M  V30 557 H 47.5192 3.81583 -0.729855 0
M  V30 558 H 49.1912 3.24688 -3.27682 0
M  V30 559 H 47.4342 3.00363 -3.12993 0
M  V30 560 H 48.1052 4.63238 -3.00191 0
M  V30 561 H 50.5812 3.98846 -1.18581 0
M  V30 562 H 49.4572 5.3707 -1.13343 0
M  V30 563 H 49.7182 4.40986 0.313681 0
M  V30 564 N 48.7773 0.814389 1.34928 0
M  V30 565 C 49.7403 0.235759 2.27984 0
M  V30 566 C 50.7403 -0.581412 1.49921 0
M  V30 567 O 51.9303 -0.398758 1.69575 0
M  V30 568 C 49.0623 -0.670433 3.34242 0
M  V30 569 H 50.2553 1.05659 2.80671 0
M  V30 570 H 47.8083 0.585614 1.44915 0
M  V30 571 H 48.5433 -1.51466 2.86755 0
M  V30 572 H 48.3283 -0.0860822 3.92005 0
M  V30 573 H 49.8183 -1.06935 4.03676 0
M  V30 574 N 50.2554 -1.46986 0.568584 0
M  V30 575 C 51.1884 -2.27129 -0.220779 0
M  V30 576 C 52.1664 -1.34757 -0.909905 0
M  V30 577 O 53.3504 -1.64152 -0.926622 0
M  V30 578 C 50.4774 -3.12108 -1.31553 0
M  V30 579 C 49.5234 -4.20141 -0.733748 0
M  V30 580 S 50.3564 -5.33783 0.428479 0
M  V30 581 C 51.5124 -6.22327 -0.667811 0
M  V30 582 H 51.7454 -2.93731 0.459267 0
M  V30 583 H 49.2784 -1.5026 0.355154 0
M  V30 584 H 51.2364 -3.61636 -1.94241 0
M  V30 585 H 49.8974 -2.44847 -1.96746 0
M  V30 586 H 49.0904 -4.79373 -1.5562 0
M  V30 587 H 48.6924 -3.73553 -0.182812 0
M  V30 588 H 50.9844 -6.59364 -1.55708 0
M  V30 589 H 51.9274 -7.0801 -0.11258 0
M  V30 590 H 52.3354 -5.5618 -0.965601 0
M  V30 591 N 51.7335 -0.305618 -1.54608 0
M  V30 592 C 52.6635 0.561482 -2.26649 0
M  V30 593 C 53.6445 1.13415 -1.26772 0
M  V30 594 O 54.8295 1.16262 -1.55553 0
M  V30 595 C 51.9595 1.73122 -3.01075 0
M  V30 596 C 50.9135 1.2887 -4.08138 0
M  V30 597 C 50.2395 2.54396 -4.70305 0
M  V30 598 C 51.5395 0.416578 -5.20636 0
M  V30 599 H 53.2335 -0.0393902 -2.99374 0
M  V30 600 H 50.7795 -0.020385 -1.43986 0
M  V30 601 H 52.7325 2.34396 -3.50195 0
M  V30 602 H 51.4565 2.3584 -2.25936 0
M  V30 603 H 50.1155 0.698991 -3.59875 0
M  V30 604 H 49.7635 3.15439 -3.918 0
M  V30 605 H 49.4635 2.25486 -5.42614 0
M  V30 606 H 50.9875 3.16464 -5.2219 0
M  V30 607 H 52.4015 0.935116 -5.65622 0
M  V30 608 H 50.7985 0.221046 -5.99693 0
M  V30 609 H 51.8685 -0.557162 -4.81688 0
M  V30 610 N 53.2116 1.57565 -0.0334293 0
M  V30 611 C 54.4576 1.92262 0.645226 0
M  V30 612 C 54.7906 0.910543 1.71531 0
M  V30 613 O 54.0656 -0.066099 1.94388 0
M  V30 614 C 54.3486 3.37422 1.2577 0
M  V30 615 C 54.2016 4.49369 0.196891 0
M  V30 616 C 55.5206 3.82628 2.17449 0
M  V30 617 H 52.6396 0.699171 0.233085 0
M  V30 618 H 55.2816 1.89779 -0.0915694 0
M  V30 619 H 53.4316 3.39669 1.88566 0
M  V30 620 H 55.1036 4.59254 -0.433962 0
M  V30 621 H 53.3466 4.31168 -0.477137 0
M  V30 622 H 54.0176 5.47978 0.665124 0
M  V30 623 H 56.4936 3.82145 1.64634 0
M  V30 624 H 55.3696 4.84883 2.57254 0
M  V30 625 H 55.6306 3.18376 3.0674 0
M  V30 626 N 54.6897 -0.239769 1.55765 0
M  V30 627 C 55.9147 -0.988373 1.82335 0
M  V30 628 C 56.3397 -1.77886 0.611421 0
M  V30 629 O 55.6977 -1.75889 -0.439639 0
M  V30 630 C 55.7457 -1.89627 3.06715 0
M  V30 631 O 54.8497 -2.98904 2.84131 0
M  V30 632 H 54.1907 -0.280858 0.601677 0
M  V30 633 H 56.7207 -0.258597 2.02959 0
M  V30 634 H 56.7307 -2.30957 3.36338 0
M  V30 635 H 55.4057 -1.31511 3.9456 0
M  V30 636 H 53.9827 -2.61651 2.65694 0
M  V30 637 N 56.1678 -1.49265 -0.50573 0
M  V30 638 C 57.3958 -1.62215 -1.28429 0
M  V30 639 C 57.8108 -0.291697 -1.86533 0
M  V30 640 O 57.1678 0.722233 -1.67601 0
M  V30 641 C 57.2188 -2.68735 -2.41793 0
M  V30 642 O 56.9398 -3.96619 -1.86078 0
M  V30 643 C 58.4408 -2.92346 -3.3324 0
M  V30 644 H 55.6608 -0.546239 -0.389697 0
M  V30 645 H 58.2048 -1.95265 -0.607609 0
M  V30 646 H 56.3598 -2.38476 -3.053 0
M  V30 647 H 56.7738 -4.55256 -2.60465 0
M  V30 648 H 58.2478 -3.70623 -4.09075 0
M  V30 649 H 58.7248 -2.02081 -3.89948 0
M  V30 650 H 59.3308 -3.24003 -2.75503 0
M  V30 651 N 57.6459 0.756429 -1.3826 0
M  V30 652 C 58.8939 1.51248 -1.34047 0
M  V30 653 C 59.2149 1.94875 0.0698372 0
M  V30 654 O 58.4849 1.67436 1.01696 0
M  V30 655 H 57.0649 0.561018 -0.493222 0
M  V30 656 H 59.7269 0.899347 -1.7291 0
M  V30 657 H 58.8229 2.40472 -1.98947 0
M  V30 658 N 59.124 1.23083 0.984299 0
M  V30 659 C 60.373 1.05466 1.71929 0
M  V30 660 C 60.686 -0.409211 1.91272 0
M  V30 661 O 61.892 -0.705226 2.62181 0
M  V30 662 C 60.348 1.83874 3.09384 0
M  V30 663 C 59.956 3.34566 2.97943 0
M  V30 664 C 61.7 1.74734 3.8687 0
M  V30 665 C 59.607 4.05381 4.30605 0
M  V30 666 H 58.537 0.391039 0.644674 0
M  V30 667 H 61.188 1.47013 1.09815 0
M  V30 668 H 59.57 1.35131 3.72231 0
M  V30 669 H 60.744 3.90767 2.44209 0
M  V30 670 H 59.059 3.44476 2.33934 0
M  V30 671 H 61.656 2.24957 4.85076 0
M  V30 672 H 61.999 0.709372 4.10212 0
M  V30 673 H 62.532 2.21067 3.30717 0
M  V30 674 H 59.271 5.09467 4.1246 0
M  V30 675 H 58.791 3.53967 4.84218 0
M  V30 676 H 60.47 4.11458 4.99311 0
M  V30 677 N 60.6021 -1.18246 1.0419 0
M  V30 678 C 61.8511 -1.87588 0.741194 0
M  V30 679 C 62.1641 -1.81303 -0.734066 0
M  V30 680 O 63.3701 -2.46019 -1.14834 0
M  V30 681 C 61.8261 -3.36538 1.27555 0
M  V30 682 C 61.4341 -3.51349 2.77953 0
M  V30 683 C 63.1781 -4.11273 1.05143 0
M  V30 684 C 61.0851 -4.94265 3.2474 0
M  V30 685 H 60.0151 -0.702622 0.273565 0
M  V30 686 H 62.6661 -1.33601 1.25789 0
M  V30 687 H 61.0481 -3.9 0.686703 0
M  V30 688 H 62.2221 -3.08153 3.42605 0
M  V30 689 H 60.5371 -2.90022 2.98791 0
M  V30 690 H 63.1341 -5.16689 1.37611 0
M  V30 691 H 63.4771 -4.16298 -0.0112774 0
M  V30 692 H 64.0101 -3.63987 1.60495 0
M  V30 693 H 60.7491 -4.94408 4.30396 0
M  V30 694 H 60.2691 -5.38172 2.64823 0
M  V30 695 H 61.9481 -5.62987 3.18834 0
M  V30 696 N 62.0802 -0.821533 -1.34494 0
M  V30 697 C 63.3282 -0.408139 -1.97936 0
M  V30 698 C 63.6492 1.03193 -1.65457 0
M  V30 699 O 62.9192 1.71622 -0.944595 0
M  V30 700 H 61.4992 -0.147928 -0.732206 0
M  V30 701 H 64.1612 -1.05067 -1.64155 0
M  V30 702 H 63.2572 -0.52601 -3.07635 0
M  V30 703 N 63.5583 1.46682 -0.576371 0
M  V30 704 C 64.8063 2.02013 -0.0594163 0
M  V30 705 C 65.1273 1.45101 1.30271 0
M  V30 706 O 64.3973 0.633317 1.8538 0
M  V30 707 H 62.9773 0.746759 -0.0189745 0
M  V30 708 H 65.6393 1.79862 -0.750717 0
M  V30 709 H 64.7353 3.12097 0.014345 0
M  V30 710 N 65.0364 0.313813 1.54444 0
M  V30 711 C 66.2664 -0.293491 2.04505 0
M  V30 712 C 66.6744 -1.47086 1.19005 0
M  V30 713 O 66.0174 -1.82481 0.211257 0
M  V30 714 C 66.0794 -0.800455 3.50475 0
M  V30 715 C 65.7434 0.253322 4.56297 0
M  V30 716 C 66.7404 1.08612 5.08428 0
M  V30 717 C 64.4254 0.398708 5.00715 0
M  V30 718 C 66.4194 2.05013 6.0353 0
M  V30 719 C 64.1064 1.36614 5.95634 0
M  V30 720 C 65.1044 2.19033 6.46926 0
M  V30 721 O 64.7924 3.14134 7.39983 0
M  V30 722 H 64.5244 -0.0658325 0.672787 0
M  V30 723 H 67.0784 0.455177 2.00293 0
M  V30 724 H 65.3084 -1.59987 3.52053 0
M  V30 725 H 66.9974 -1.32504 3.83663 0
M  V30 726 H 67.7634 0.984736 4.74898 0
M  V30 727 H 63.6424 -0.23289 4.60411 0
M  V30 728 H 67.1864 2.69382 6.4349 0
M  V30 729 H 63.0834 1.4682 6.28581 0
M  V30 730 H 63.8514 3.0926 7.57826 0
M  V30 731 N 66.5145 -1.57545 0.0417849 0
M  V30 732 C 67.7445 -1.96339 -0.642995 0
M  V30 733 C 68.1525 -0.917536 -1.65463 0
M  V30 734 O 67.4955 0.107747 -1.83384 0
M  V30 735 C 67.5575 -3.31333 -1.39494 0
M  V30 736 C 67.2215 -4.53796 -0.540204 0
M  V30 737 C 68.2185 -5.19553 0.189806 0
M  V30 738 C 65.9035 -5.0006 -0.473886 0
M  V30 739 C 67.8975 -6.29904 0.974674 0
M  V30 740 C 65.5845 -6.10289 0.314677 0
M  V30 741 C 66.5825 -6.75072 1.03765 0
M  V30 742 O 66.2705 -7.83183 1.81327 0
M  V30 743 H 66.0025 -0.651241 -0.181277 0
M  V30 744 H 68.5565 -2.05148 0.101665 0
M  V30 745 H 66.7865 -3.19052 -2.18502 0
M  V30 746 H 68.4755 -3.54942 -1.96904 0
M  V30 747 H 69.2415 -4.84774 0.147981 0
M  V30 748 H 65.1205 -4.49433 -1.0262 0
M  V30 749 H 68.6645 -6.80401 1.5395 0
M  V30 750 H 64.5615 -6.44506 0.358174 0
M  V30 751 H 65.3295 -7.99913 1.73438 0
M  V30 752 N 67.9926 0.231505 -1.5589 0
M  V30 753 C 69.2416 0.955346 -1.7764 0
M  V30 754 C 69.5546 1.85893 -0.608546 0
M  V30 755 O 70.7606 2.62067 -0.70943 0
M  V30 756 C 69.2166 1.74886 -3.14552 0
M  V30 757 C 68.8246 0.891915 -4.39032 0
M  V30 758 C 70.5686 2.46452 -3.45633 0
M  V30 759 C 68.4756 1.68221 -5.66971 0
M  V30 760 H 67.4056 0.360446 -0.662265 0
M  V30 761 H 70.0566 0.209516 -1.823 0
M  V30 762 H 68.4386 2.53723 -3.04041 0
M  V30 763 H 69.6126 0.144793 -4.60572 0
M  V30 764 H 67.9276 0.288863 -4.15397 0
M  V30 765 H 70.5246 3.06061 -4.38441 0
M  V30 766 H 70.8676 3.18841 -2.67668 0
M  V30 767 H 71.4006 1.74613 -3.57428 0
M  V30 768 H 68.1396 1.00178 -6.478 0
M  V30 769 H 67.6596 2.4042 -5.49507 0
M  V30 770 H 69.3386 2.24544 -6.06786 0
M  V30 771 N 69.4707 1.49531 0.497807 0
M  V30 772 C 70.6957 1.63159 1.28039 0
M  V30 773 C 71.1207 0.30418 1.85624 0
M  V30 774 O 70.4787 -0.728618 1.66015 0
M  V30 775 C 70.5267 2.70537 2.38416 0
M  V30 776 O 69.6307 2.29931 3.42353 0
M  V30 777 H 68.9717 0.546001 0.377861 0
M  V30 778 H 71.5017 1.9574 0.59558 0
M  V30 779 H 71.5117 2.92802 2.84132 0
M  V30 780 H 70.1867 3.6689 1.95869 0
M  V30 781 H 68.7637 2.18009 3.02533 0
M  V30 782 N 70.9488 -0.749086 1.3866 0
M  V30 783 C 71.8958 -1.86291 1.36251 0
M  V30 784 C 72.8658 -1.64578 0.224347 0
M  V30 785 O 74.0508 -1.86181 0.417279 0
M  V30 786 C 71.1908 -3.23644 1.19786 0
M  V30 787 C 70.3038 -3.57158 2.43027 0
M  V30 788 C 69.4388 -4.83838 2.19258 0
M  V30 789 C 68.4778 -5.10152 3.38247 0
M  V30 790 N 67.6148 -6.28029 3.13884 0
M  V30 791 H 72.4548 -1.87685 2.3147 0
M  V30 792 H 69.9918 -0.917287 1.14997 0
M  V30 793 H 71.9498 -4.0291 1.08254 0
M  V30 794 H 70.5798 -3.21566 0.282031 0
M  V30 795 H 69.6318 -2.72701 2.65214 0
M  V30 796 H 70.9438 -3.7253 3.31697 0
M  V30 797 H 70.0978 -5.71057 2.04888 0
M  V30 798 H 68.8368 -4.70614 1.2796 0
M  V30 799 H 67.8418 -4.21401 3.53131 0
M  V30 800 H 69.0668 -5.25271 4.30427 0
M  V30 801 H 67.0128 -6.1612 2.25238 0
M  V30 802 H 66.9298 -6.43922 3.96106 0
M  V30 803 H 68.1978 -7.18124 3.03179 0
M  V30 804 N 72.4269 -1.23603 -0.977757 0
M  V30 805 C 73.3369 -1.03632 -2.1047 0
M  V30 806 C 74.3529 0.0199435 -1.73989 0
M  V30 807 O 75.5289 -0.176076 -2.00629 0
M  V30 808 C 72.5939 -0.63276 -3.40877 0
M  V30 809 C 71.6549 -1.76437 -3.91367 0
M  V30 810 C 70.8879 -1.37997 -5.15551 0
M  V30 811 O 71.1109 -0.265357 -5.69782 0
M  V30 812 O 70.0449 -2.20201 -5.60174 0
M  V30 813 H 73.8709 -1.98086 -2.30208 0
M  V30 814 H 71.4559 -1.02332 -1.08851 0
M  V30 815 H 73.3379 -0.418761 -4.19314 0
M  V30 816 H 72.0129 0.282754 -3.22463 0
M  V30 817 H 70.9199 -2.03304 -3.14036 0
M  V30 818 H 72.2529 -2.6583 -4.14241 0
M  V30 819 N 73.905 1.17692 -1.04816 0
M  V30 820 C 74.815 2.25229 -0.65643 0
M  V30 821 C 75.831 1.71018 0.320761 0
M  V30 822 O 77.007 2.00649 0.173805 0
M  V30 823 C 74.072 3.46684 -0.0332629 0
M  V30 824 C 73.133 4.15997 -1.06042 0
M  V30 825 C 72.366 5.31654 -0.466893 0
M  V30 826 O 72.589 5.65777 0.724758 0
M  V30 827 O 71.523 5.89831 -1.1993 0
M  V30 828 H 75.349 2.61016 -1.55255 0
M  V30 829 H 72.934 1.24919 -0.81949 0
M  V30 830 H 74.816 4.20234 0.313256 0
M  V30 831 H 73.491 3.12703 0.836566 0
M  V30 832 H 72.398 3.44482 -1.45886 0
M  V30 833 H 73.731 4.53996 -1.90127 0
M  V30 834 N 75.3831 0.828654 1.34056 0
M  V30 835 C 76.3311 0.242973 2.31327 0
M  V30 836 C 77.3251 -0.61944 1.57668 0
M  V30 837 O 78.5311 -0.51014 1.7262 0
M  V30 838 H 74.9061 0.059834 0.749616 0
M  V30 839 H 76.8771 1.07809 2.78244 0
M  V30 840 C 75.6261 -0.575733 3.429 0
M  V30 841 H 74.9491 0.0785582 3.99723 0
M  V30 842 H 76.3891 -0.951547 4.13185 0
M  V30 843 C 74.8481 -1.75044 2.87856 0
M  V30 844 O 75.3781 -2.84882 2.83205 0
M  V30 845 N 73.5841 -1.56903 2.44602 0
M  V30 846 H 73.1311 -0.675547 2.48584 0
M  V30 847 H 73.0891 -2.35652 2.08124 0
M  V30 848 N 76.8612 -1.46375 0.584142 0
M  V30 849 C 78.2772 -1.57694 0.245929 0
M  V30 850 C 78.4772 -1.57903 -1.25175 0
M  V30 851 O 77.5332 -1.49676 -2.03355 0
M  V30 852 C 78.8462 -2.87028 0.896402 0
M  V30 853 C 80.3942 -3.00662 0.870127 0
M  V30 854 C 80.8692 -4.32734 1.50017 0
M  V30 855 N 82.3602 -4.39436 1.46458 0
M  V30 856 C 83.0952 -5.40248 1.92144 0
M  V30 857 N 82.5912 -6.47726 2.4581 0
M  V30 858 N 84.3842 -5.31459 1.83052 0
M  V30 859 H 76.5352 -1.44483 1.55687 0
M  V30 860 H 78.7982 -0.689291 0.650831 0
M  V30 861 H 78.5042 -2.9269 1.95002 0
M  V30 862 H 78.3782 -3.75014 0.405486 0
M  V30 863 H 80.7652 -2.94581 -0.174871 0
M  V30 864 H 80.8462 -2.14148 1.39908 0
M  V30 865 H 80.4902 -4.39573 2.54437 0
M  V30 866 H 80.4202 -5.18025 0.946432 0
M  V30 867 H 82.9112 -3.62367 1.07231 0
M  V30 868 H 83.2242 -7.20863 2.78525 0
M  V30 869 H 81.5692 -6.48542 2.49836 0
M  V30 870 H 84.7602 -4.46396 1.40883 0
M  V30 871 H 84.9332 -6.09881 2.18973 0
M  V30 872 N 78.3393 -0.321999 -1.54275 0
M  V30 873 C 79.2863 0.544664 -2.24281 0
M  V30 874 C 80.2563 1.1129 -1.23303 0
M  V30 875 O 81.4413 1.15354 -1.51981 0
M  V30 876 C 78.5813 1.70045 -3.00298 0
M  V30 877 C 77.6943 1.16159 -4.1609 0
M  V30 878 C 76.8293 2.28293 -4.79641 0
M  V30 879 C 75.8683 1.71648 -5.8754 0
M  V30 880 N 75.0053 2.77438 -6.44959 0
M  V30 881 H 79.8453 -0.0588907 -2.97942 0
M  V30 882 H 77.3823 -0.0408345 -1.47043 0
M  V30 883 H 79.3403 2.38054 -3.42616 0
M  V30 884 H 77.9703 2.27531 -2.28975 0
M  V30 885 H 77.0223 0.373092 -3.78566 0
M  V30 886 H 78.3343 0.707087 -4.93763 0
M  V30 887 H 77.4883 3.0421 -5.2492 0
M  V30 888 H 76.2273 2.77079 -4.01346 0
M  V30 889 H 75.2323 0.942282 -5.41665 0
M  V30 890 H 76.4573 1.23741 -6.67731 0
M  V30 891 H 74.4033 3.25519 -5.69538 0
M  V30 892 H 74.3203 2.36547 -7.1804 0
M  V30 893 H 75.5883 3.53189 -6.94894 0
M  V30 894 N 79.8174 1.5752 -0.0501392 0
M  V30 895 C 81.0944 1.83996 0.663685 0
M  V30 896 C 81.4744 0.938339 1.89099 0
M  V30 897 O 80.8224 -0.00087759 2.285 0
M  V30 898 C 81.0324 3.33702 1.02196 0
M  V30 899 C 82.3804 4.00691 1.40469 0
M  V30 900 O 83.4044 3.38321 1.11433 0
M  V30 901 O 82.2634 5.10658 1.94654 0
M  V30 902 H 79.3574 0.759385 0.32751 0
M  V30 903 H 81.9034 1.69514 -0.0794238 0
M  V30 904 H 80.6754 3.91015 0.149364 0
M  V30 905 H 80.2984 3.53368 1.82255 0
M  V30 906 N 81.2955 -0.223234 1.56011 0
M  V30 907 C 82.5425 -0.947875 1.78946 0
M  V30 908 C 82.8705 -1.844 0.618608 0
M  V30 909 O 82.1255 -1.91629 -0.397093 0
M  V30 910 C 82.4245 -1.81948 3.0762 0
M  V30 911 C 82.0905 -1.07672 4.37856 0
M  V30 912 C 80.7525 -0.871544 4.73242 0
M  V30 913 C 83.1045 -0.552081 5.18268 0
M  V30 914 C 80.4325 -0.129791 5.86556 0
M  V30 915 C 82.7845 0.17632 6.32354 0
M  V30 916 C 81.4485 0.39277 6.66343 0
M  V30 917 H 80.7185 -0.346852 0.654809 0
M  V30 918 H 83.3655 -0.216171 1.90276 0
M  V30 919 H 81.6705 -2.61899 2.91404 0
M  V30 920 H 83.3675 -2.38227 3.22566 0
M  V30 921 H 79.9575 -1.24662 4.1007 0
M  V30 922 H 84.1415 -0.698076 4.91366 0
M  V30 923 H 79.3975 0.048153 6.11381 0
M  V30 924 H 83.5715 0.590367 6.93893 0
M  V30 925 H 81.1985 0.969466 7.53993 0
M  V30 926 N 82.7736 -1.49793 -0.48987 0
M  V30 927 C 84.1896 -1.36803 -0.822022 0
M  V30 928 C 84.3896 -0.409652 -1.97292 0
M  V30 929 O 83.4456 0.154614 -2.52026 0
M  V30 930 C 84.7586 -2.77768 -1.15175 0
M  V30 931 C 86.3066 -2.86549 -1.25931 0
M  V30 932 C 86.7816 -4.28306 -1.62228 0
M  V30 933 N 88.2726 -4.31169 -1.69256 0
M  V30 934 C 89.0076 -5.37832 -1.98807 0
M  V30 935 N 88.5036 -6.54726 -2.26507 0
M  V30 936 N 90.2966 -5.25258 -2.00152 0
M  V30 937 H 82.4476 -2.10691 0.268881 0
M  V30 938 H 84.7106 -0.946241 0.057728 0
M  V30 939 H 84.4166 -3.49648 -0.379335 0
M  V30 940 H 84.2906 -3.13836 -2.09253 0
M  V30 941 H 86.6776 -2.14899 -2.02243 0
M  V30 942 H 86.7586 -2.54049 -0.298776 0
M  V30 943 H 86.4026 -5.00486 -0.864622 0
M  V30 944 H 86.3326 -4.58279 -2.594 0
M  V30 945 H 88.8236 -3.4687 -1.49965 0
M  V30 946 H 89.1366 -7.31833 -2.48276 0
M  V30 947 H 87.4816 -6.57933 -2.23939 0
M  V30 948 H 90.6726 -4.32938 -1.77996 0
M  V30 949 H 90.8456 -6.08476 -2.22848 0
M  V30 950 N 84.2517 0.741722 -1.39055 0
M  V30 951 C 85.1987 1.85566 -1.37237 0
M  V30 952 C 86.1687 1.64457 -0.233072 0
M  V30 953 O 87.3537 1.85957 -0.427147 0
M  V30 954 C 84.4937 3.23004 -1.215 0
M  V30 955 C 83.6067 3.55864 -2.44918 0
M  V30 956 C 82.7417 4.82669 -2.21821 0
M  V30 957 C 81.7807 5.08351 -3.40948 0
M  V30 958 N 80.9177 6.26356 -3.17211 0
M  V30 959 H 85.7577 1.86455 -2.32462 0
M  V30 960 H 83.2947 0.911176 -1.15482 0
M  V30 961 H 85.2527 4.02331 -1.10389 0
M  V30 962 H 83.8827 3.21411 -0.29908 0
M  V30 963 H 82.9347 2.7129 -2.66657 0
M  V30 964 H 84.2467 3.70765 -3.33668 0
M  V30 965 H 83.4007 5.69962 -2.07914 0
M  V30 966 H 82.1397 4.69929 -1.30454 0
M  V30 967 H 81.1447 4.19522 -3.55361 0
M  V30 968 H 82.3697 5.22981 -4.33207 0
M  V30 969 H 80.3157 6.14917 -2.28502 0
M  V30 970 H 80.2327 6.41813 -3.99515 0
M  V30 971 H 81.5007 7.16506 -3.06984 0
M  V30 972 N 85.7298 1.2412 0.971189 0
M  V30 973 C 86.9758 1.08041 1.71625 0
M  V30 974 C 87.3088 -0.380407 1.90438 0
M  V30 975 O 86.5838 -1.28127 1.46334 0
M  V30 976 C 86.8668 1.81682 3.10908 0
M  V30 977 C 86.7198 3.35493 2.99608 0
M  V30 978 C 88.0388 1.58671 4.10501 0
M  V30 979 H 85.1578 0.39388 0.622919 0
M  V30 980 H 87.7998 1.52743 1.13003 0
M  V30 981 H 85.9498 1.43684 3.60953 0
M  V30 982 H 87.6218 3.83068 2.57015 0
M  V30 983 H 85.8648 3.64052 2.35899 0
M  V30 984 H 86.5358 3.82217 3.98264 0
M  V30 985 H 89.0118 1.91719 3.69301 0
M  V30 986 H 87.8878 2.1266 5.06031 0
M  V30 987 H 88.1488 0.524161 4.38982 0
M  V30 988 N 87.2079 -1.17134 1.05439 0
M  V30 989 C 88.4479 -1.89137 0.77502 0
M  V30 990 C 88.8119 -1.79345 -0.685526 0
M  V30 991 O 90.0129 -2.46188 -1.0791 0
M  V30 992 C 88.2839 -3.35003 1.2453 0
M  V30 993 S 89.8429 -4.24952 1.09367 0
M  V30 994 H 86.6609 -0.652949 0.281387 0
M  V30 995 H 89.2629 -1.4145 1.34953 0
M  V30 996 H 87.9669 -3.39666 2.30338 0
M  V30 997 H 87.4979 -3.87736 0.665166 0
M  V30 998 H 89.5129 -4.96196 0.0193397 0
M  V30 999 N 88.686 -0.835752 -1.33615 0
M  V30 1000 C 89.616 -0.281739 -2.31794 0
M  V30 1001 C 90.597 0.608833 -1.58831 0
M  V30 1002 O 91.782 0.533035 -1.86741 0
M  V30 1003 C 88.912 0.546612 -3.42971 0
M  V30 1004 C 87.866 -0.247904 -4.27281 0
M  V30 1005 C 87.192 0.704001 -5.30045 0
M  V30 1006 C 88.492 -1.46324 -5.01385 0
M  V30 1007 H 90.186 -1.10206 -2.78379 0
M  V30 1008 H 87.732 -0.531388 -1.33837 0
M  V30 1009 H 89.685 0.944467 -4.1068 0
M  V30 1010 H 88.409 1.40011 -2.95067 0
M  V30 1011 H 87.068 -0.627281 -3.61194 0
M  V30 1012 H 86.716 1.55381 -4.78399 0
M  V30 1013 H 86.416 0.176524 -5.87335 0
M  V30 1014 H 87.94 1.09944 -6.0062 0
M  V30 1015 H 89.354 -1.13871 -5.61877 0
M  V30 1016 H 87.751 -1.92728 -5.6831 0
M  V30 1017 H 88.821 -2.23467 -4.30338 0
M  V30 1018 N 90.1641 1.46063 -0.591896 0
M  V30 1019 C 91.1141 2.27458 0.157172 0
M  V30 1020 C 92.0981 1.3641 0.853301 0
M  V30 1021 O 93.2901 1.60517 0.74588 0
M  V30 1022 C 90.4191 3.22956 1.16423 0
M  V30 1023 C 89.5051 4.2149 0.469742 0
M  V30 1024 N 89.8961 5.03519 -0.479839 0
M  V30 1025 C 88.1941 4.40161 0.719319 0
M  V30 1026 C 88.8951 5.74904 -0.886591 0
M  V30 1027 N 87.8711 5.43097 -0.233731 0
M  V30 1028 H 91.6731 2.88272 -0.572392 0
M  V30 1029 H 89.1871 1.57024 -0.414375 0
M  V30 1030 H 91.1841 3.79986 1.71513 0
M  V30 1031 H 89.8441 2.63701 1.89451 0
M  V30 1032 H 90.8551 5.1078 -0.855823 0
M  V30 1033 H 87.5321 3.92046 1.43548 0
M  V30 1034 H 88.9221 6.50844 -1.66888 0
M  V30 1035 N 91.6422 0.330177 1.54103 0
M  V30 1036 C 92.5752 -0.575477 2.20825 0
M  V30 1037 C 93.5532 -1.11064 1.18758 0
M  V30 1038 O 94.7372 -1.17341 1.47524 0
M  V30 1039 C 91.8642 -1.79032 2.87516 0
M  V30 1040 C 90.9102 -1.38581 4.03358 0
M  V30 1041 S 91.7432 -0.416911 5.33875 0
M  V30 1042 C 92.8992 -1.63889 6.04062 0
M  V30 1043 H 93.1322 -0.00872114 2.97299 0
M  V30 1044 H 90.6652 0.114254 1.53977 0
M  V30 1045 H 92.6232 -2.48734 3.2656 0
M  V30 1046 H 91.2842 -2.32827 2.10832 0
M  V30 1047 H 90.4772 -2.29123 4.48908 0
M  V30 1048 H 90.0792 -0.768419 3.66021 0
M  V30 1049 H 92.3712 -2.57536 6.26643 0
M  V30 1050 H 93.3142 -1.22542 6.97416 0
M  V30 1051 H 93.7222 -1.82887 5.34053 0
M  V30 1052 N 93.1203 -1.57491 0.0584922 0
M  V30 1053 C 94.5363 -1.56792 -0.298091 0
M  V30 1054 C 94.7363 -1.06679 -1.70944 0
M  V30 1055 O 93.7923 -0.726672 -2.41818 0
M  V30 1056 C 95.1053 -3.00461 -0.119879 0
M  V30 1057 C 96.6533 -3.1242 -0.190428 0
M  V30 1058 C 97.1283 -4.57982 -0.0406567 0
M  V30 1059 N 98.6193 -4.63099 -0.0966958 0
M  V30 1060 C 99.3543 -5.734 -0.00502943 0
M  V30 1061 N 98.8503 -6.9266 0.139402 0
M  V30 1062 N 100.643 -5.62067 -0.0611391 0
M  V30 1063 H 92.7943 -1.88386 0.98105 0
M  V30 1064 H 95.0573 -0.867865 0.381463 0
M  V30 1065 H 94.7633 -3.41187 0.85349 0
M  V30 1066 H 94.6373 -3.66843 -0.877833 0
M  V30 1067 H 97.0243 -2.71589 -1.15427 0
M  V30 1068 H 97.1053 -2.48702 0.598405 0
M  V30 1069 H 96.7493 -4.995 0.919897 0
M  V30 1070 H 96.6793 -5.19715 -0.848727 0
M  V30 1071 H 99.1703 -3.77331 -0.207277 0
M  V30 1072 H 99.4833 -7.72536 0.201855 0
M  V30 1073 H 97.8283 -6.94781 0.174586 0
M  V30 1074 H 101.019 -4.67782 -0.172583 0
M  V30 1075 H 101.192 -6.47999 0.0137562 0
M  V30 1076 N 94.5984 0.214957 -1.56127 0
M  V30 1077 C 95.5464 1.28601 -1.93816 0
M  V30 1078 C 96.5404 1.48175 -0.821016 0
M  V30 1079 O 97.7464 1.49271 -1.0059 0
M  V30 1080 H 94.1214 0.431302 -0.616022 0
M  V30 1081 H 96.0924 0.940991 -2.83175 0
M  V30 1082 C 94.8414 2.62779 -2.27689 0
M  V30 1083 H 94.1644 2.48527 -3.13168 0
M  V30 1084 H 95.6044 3.36517 -2.57939 0
M  V30 1085 C 94.0634 3.18285 -1.10436 0
M  V30 1086 O 94.5934 4.00002 -0.368945 0
M  V30 1087 N 92.7994 2.7675 -0.886433 0
M  V30 1088 H 92.3464 2.10404 -1.48619 0
M  V30 1089 H 92.3044 3.14229 -0.103656 0
M  V30 1090 N 96.0765 1.50051 0.48192 0
M  V30 1091 C 97.3245 1.60181 1.23234 0
M  V30 1092 C 97.6455 0.299176 1.92691 0
M  V30 1093 O 96.9155 -0.682708 1.83619 0
M  V30 1094 H 95.4955 0.590232 0.457859 0
M  V30 1095 H 98.1575 1.86775 0.556881 0
M  V30 1096 H 97.2535 2.40753 1.98607 0
M  V30 1097 N 97.5546 -0.734337 1.39446 0
M  V30 1098 C 98.4846 -1.86155 1.40955 0
M  V30 1099 C 99.4656 -1.67898 0.272827 0
M  V30 1100 O 100.651 -1.88207 0.478743 0
M  V30 1101 C 97.7806 -3.23912 1.25294 0
M  V30 1102 C 96.7346 -3.56808 2.36373 0
M  V30 1103 C 96.0606 -4.93508 2.058 0
M  V30 1104 C 97.3606 -3.59713 3.78687 0
M  V30 1105 H 99.0546 -1.8515 2.35287 0
M  V30 1106 H 96.6006 -0.889367 1.13253 0
M  V30 1107 H 98.5536 -4.02443 1.2497 0
M  V30 1108 H 97.2776 -3.25446 0.274308 0
M  V30 1109 H 95.9366 -2.80606 2.35914 0
M  V30 1110 H 95.5846 -4.91623 1.06374 0
M  V30 1111 H 95.2846 -5.16486 2.80208 0
M  V30 1112 H 96.8086 -5.74396 2.07128 0
M  V30 1113 H 98.2226 -4.2832 3.81071 0
M  V30 1114 H 96.6196 -3.94209 4.52459 0
M  V30 1115 H 97.6896 -2.59504 4.09617 0
M  V30 1116 N 99.0327 -1.24633 -0.964593 0
M  V30 1117 C 99.9797 -1.04144 -2.05968 0
M  V30 1118 C 100.95 0.046262 -1.66036 0
M  V30 1119 O 102.135 -0.108972 -1.90489 0
M  V30 1120 C 99.2747 -0.65563 -3.38815 0
M  V30 1121 C 98.3877 -1.81714 -3.91923 0
M  V30 1122 C 97.5227 -1.37662 -5.13052 0
M  V30 1123 C 96.5617 -2.50788 -5.58365 0
M  V30 1124 N 95.6987 -2.07582 -6.70712 0
M  V30 1125 H 100.539 -1.9787 -2.22827 0
M  V30 1126 H 98.0757 -0.9855 -1.09208 0
M  V30 1127 H 100.034 -0.412954 -4.15151 0
M  V30 1128 H 98.6637 0.244627 -3.21872 0
M  V30 1129 H 97.7157 -2.1734 -3.12198 0
M  V30 1130 H 99.0277 -2.66705 -4.21509 0
M  V30 1131 H 98.1817 -1.093 -5.96773 0
M  V30 1132 H 96.9207 -0.497293 -4.85158 0
M  V30 1133 H 95.9257 -2.79906 -4.73215 0
M  V30 1134 H 97.1507 -3.39283 -5.88272 0
M  V30 1135 H 95.0967 -1.22051 -6.44546 0
M  V30 1136 H 95.0137 -2.86125 -6.99763 0
M  V30 1137 H 96.2817 -1.82369 -7.57867 0
M  V30 1138 N 100.511 1.16574 -1.06058 0
M  V30 1139 C 101.459 2.22941 -0.663343 0
M  V30 1140 C 102.453 1.66358 0.319593 0
M  V30 1141 O 103.659 1.7905 0.184713 0
M  V30 1142 H 100.034 0.725907 -0.196376 0
M  V30 1143 H 102.005 2.53736 -1.57037 0
M  V30 1144 C 100.754 3.47642 -0.0632808 0
M  V30 1145 H 100.077 3.91493 -0.810733 0
M  V30 1146 H 101.517 4.2363 0.177177 0
M  V30 1147 C 99.9758 3.1509 1.19248 0
M  V30 1148 O 100.506 3.30673 2.28075 0
M  V30 1149 N 98.7118 2.6924 1.09353 0
M  V30 1150 H 98.2588 2.5676 0.207912 0
M  V30 1151 H 98.2168 2.47833 1.93458 0
M  V30 1152 N 101.989 0.842826 1.3317 0
M  V30 1153 C 102.937 0.267495 2.31057 0
M  V30 1154 C 103.931 -0.602682 1.58316 0
M  V30 1155 O 105.137 -0.491803 1.73151 0
M  V30 1156 H 101.512 0.0677813 0.748939 0
M  V30 1157 H 103.483 1.10754 2.77085 0
M  V30 1158 C 102.232 -0.539331 3.43492 0
M  V30 1159 H 101.555 0.12095 3.99617 0
M  V30 1160 H 102.995 -0.90767 4.14171 0
M  V30 1161 C 101.454 -1.71981 2.89697 0
M  V30 1162 O 101.984 -2.81862 2.86211 0
M  V30 1163 N 100.19 -1.54299 2.46252 0
M  V30 1164 H 99.7369 -0.649143 2.49287 0
M  V30 1165 H 99.6949 -2.33431 2.10612 0
M  V30 1166 N 103.467 -1.45747 0.599634 0
M  V30 1167 C 104.883 -1.57424 0.26264 0
M  V30 1168 C 105.083 -1.59222 -1.23493 0
M  V30 1169 O 104.139 -1.51825 -2.01756 0
M  V30 1170 C 105.452 -2.86061 0.926795 0
M  V30 1171 C 107 -2.99722 0.901967 0
M  V30 1172 C 107.475 -4.31119 1.54598 0
M  V30 1173 N 108.966 -4.37858 1.5111 0
M  V30 1174 C 109.701 -5.3818 1.97863 0
M  V30 1175 N 109.197 -6.45083 2.52666 0
M  V30 1176 N 110.99 -5.29487 1.88679 0
M  V30 1177 H 103.141 -1.42823 1.57211 0
M  V30 1178 H 105.404 -0.68235 0.658105 0
M  V30 1179 H 105.11 -2.90605 1.98095 0
M  V30 1180 H 104.984 -3.74563 0.445238 0
M  V30 1181 H 107.371 -2.9475 -0.143617 0
M  V30 1182 H 107.452 -2.12652 1.42171 0
M  V30 1183 H 107.096 -4.36849 2.59085 0
M  V30 1184 H 107.026 -5.16992 1.00132 0
M  V30 1185 H 109.517 -3.61209 1.11068 0
M  V30 1186 H 109.83 -7.17869 2.86155 0
M  V30 1187 H 108.175 -6.45856 2.56701 0
M  V30 1188 H 111.366 -4.44877 1.4561 0
M  V30 1189 H 111.539 -6.07524 2.25429 0
M  V30 1190 N 104.945 -0.338344 -1.53925 0
M  V30 1191 C 106.192 0.259758 -2.00827 0
M  V30 1192 C 106.52 1.50973 -1.22628 0
M  V30 1193 O 105.775 1.93379 -0.300509 0
M  V30 1194 C 106.074 0.62448 -3.51902 0
M  V30 1195 C 105.74 -0.528006 -4.47798 0
M  V30 1196 C 104.402 -0.844298 -4.73735 0
M  V30 1197 C 106.754 -1.30143 -5.0469 0
M  V30 1198 C 104.082 -1.93648 -5.53821 0
M  V30 1199 C 106.434 -2.38382 -5.85967 0
M  V30 1200 C 105.098 -2.70576 -6.10201 0
M  V30 1201 H 104.368 0.0950523 -0.734878 0
M  V30 1202 H 107.015 -0.465182 -1.85764 0
M  V30 1203 H 105.32 1.43006 -3.64769 0
M  V30 1204 H 107.017 1.09905 -3.85645 0
M  V30 1205 H 103.607 -0.271421 -4.2774 0
M  V30 1206 H 107.791 -1.07033 -4.84621 0
M  V30 1207 H 103.047 -2.19021 -5.70824 0
M  V30 1208 H 107.221 -2.98746 -6.29066 0
M  V30 1209 H 104.848 -3.55333 -6.72044 0
M  V30 1210 N 106.423 1.57458 -0.0668435 0
M  V30 1211 C 107.67 1.93301 0.603406 0
M  V30 1212 C 107.998 0.946486 1.69917 0
M  V30 1213 O 107.253 -0.0387021 1.95662 0
M  V30 1214 C 107.552 3.35784 1.22409 0
M  V30 1215 C 107.218 4.50179 0.254955 0
M  V30 1216 C 105.88 4.81199 -0.0116746 0
M  V30 1217 C 108.232 5.19598 -0.408338 0
M  V30 1218 C 105.56 5.78978 -0.94877 0
M  V30 1219 C 107.912 6.18381 -1.33372 0
M  V30 1220 C 106.576 6.47821 -1.60887 0
M  V30 1221 H 105.846 0.707338 0.220802 0
M  V30 1222 H 108.493 1.91012 -0.136665 0
M  V30 1223 H 106.798 3.34515 2.03978 0
M  V30 1224 H 108.495 3.60804 1.74989 0
M  V30 1225 H 105.085 4.25983 0.472954 0
M  V30 1226 H 109.269 4.95832 -0.215456 0
M  V30 1227 H 104.525 6.00115 -1.16925 0
M  V30 1228 H 108.699 6.71277 -1.85367 0
M  V30 1229 H 106.326 7.23399 -2.33661 0
M  V30 1230 N 107.901 -0.206675 1.56239 0
M  V30 1231 C 109.178 -0.954051 1.70755 0
M  V30 1232 C 109.558 -2.01841 0.618353 0
M  V30 1233 O 108.906 -2.25444 -0.372434 0
M  V30 1234 C 109.116 -1.551 3.12642 0
M  V30 1235 C 110.464 -2.03757 3.72516 0
M  V30 1236 O 111.488 -1.64965 3.15698 0
M  V30 1237 O 110.347 -2.75103 4.72208 0
M  V30 1238 H 107.441 -0.446636 0.696021 0
M  V30 1239 H 109.987 -0.197283 1.68549 0
M  V30 1240 H 108.759 -0.783212 3.83382 0
M  V30 1241 H 108.382 -2.37291 3.19028 0
M  V30 1242 N 109.379 -1.50304 -0.473955 0
M  V30 1243 C 110.327 -1.69482 -1.59307 0
M  V30 1244 C 111.321 -0.560669 -1.59853 0
M  V30 1245 O 112.527 -0.741087 -1.64036 0
M  V30 1246 H 108.902 -0.534892 -0.528578 0
M  V30 1247 H 110.873 -2.63364 -1.40293 0
M  V30 1248 C 109.622 -1.80354 -2.97267 0
M  V30 1249 H 108.945 -2.67012 -2.97564 0
M  V30 1250 H 110.385 -1.97798 -3.75036 0
M  V30 1251 C 108.844 -0.55448 -3.32306 0
M  V30 1252 O 109.374 0.307661 -4.0052 0
M  V30 1253 N 107.58 -0.409354 -2.87702 0
M  V30 1254 H 107.127 -1.11196 -2.32364 0
M  V30 1255 H 107.085 0.425223 -3.11511 0
M  V30 1256 N 110.857 0.726932 -1.39834 0
M  V30 1257 C 111.805 1.86235 -1.39353 0
M  V30 1258 C 112.799 1.67144 -0.275555 0
M  V30 1259 O 114.005 1.74387 -0.44601 0
M  V30 1260 H 110.38 0.613174 -0.43534 0
M  V30 1261 H 112.351 1.83756 -2.35109 0
M  V30 1262 C 111.1 3.23995 -1.26185 0
M  V30 1263 H 110.423 3.39285 -2.11484 0
M  V30 1264 H 111.863 4.03609 -1.29907 0
M  V30 1265 C 110.322 3.36888 0.0290018 0
M  V30 1266 O 110.852 3.89152 0.99619 0
M  V30 1267 N 109.058 2.90446 0.0947437 0
M  V30 1268 H 108.605 2.48102 -0.693035 0
M  V30 1269 H 108.563 2.99451 0.957932 0
M  V30 1270 N 112.336 1.25143 0.95797 0
M  V30 1271 C 113.269 0.995565 2.05338 0
M  V30 1272 C 114.247 -0.0740423 1.62431 0
M  V30 1273 O 115.431 0.0649212 1.88388 0
M  V30 1274 C 112.558 0.504298 3.34925 0
M  V30 1275 C 111.604 1.56393 3.96792 0
M  V30 1276 S 112.437 3.14815 4.33188 0
M  V30 1277 C 113.593 2.67415 5.65898 0
M  V30 1278 H 113.826 1.92309 2.26726 0
M  V30 1279 H 111.359 1.08635 1.09716 0
M  V30 1280 H 113.317 0.227497 4.09869 0
M  V30 1281 H 111.978 -0.402671 3.11508 0
M  V30 1282 H 111.171 1.17082 4.90212 0
M  V30 1283 H 110.773 1.79124 3.28315 0
M  V30 1284 H 113.065 2.10833 6.4386 0
M  V30 1285 H 114.008 3.59463 6.10076 0
M  V30 1286 H 114.416 2.07521 5.24972 0
M  V30 1287 N 113.814 -1.1601 1.06675 0
M  V30 1288 C 114.744 -2.22688 0.702307 0
M  V30 1289 C 115.725 -1.67306 -0.307032 0
M  V30 1290 O 116.91 -1.93352 -0.181305 0
M  V30 1291 C 114.04 -3.47178 0.092038 0
M  V30 1292 C 112.994 -4.15477 1.02777 0
M  V30 1293 C 112.32 -5.33963 0.28061 0
M  V30 1294 C 113.62 -4.66019 2.35846 0
M  V30 1295 H 115.314 -2.53429 1.59419 0
M  V30 1296 H 112.86 -1.21813 0.767961 0
M  V30 1297 H 114.813 -4.21037 -0.174814 0
M  V30 1298 H 113.537 -3.15749 -0.834877 0
M  V30 1299 H 112.196 -3.43549 1.27944 0
M  V30 1300 H 111.844 -4.98788 -0.649545 0
M  V30 1301 H 111.544 -5.806 0.904258 0
M  V30 1302 H 113.068 -6.10596 0.021396 0
M  V30 1303 H 114.482 -5.3144 2.15045 0
M  V30 1304 H 112.879 -5.23293 2.93743 0
M  V30 1305 H 113.949 -3.82023 2.98641 0
M  V30 1306 N 115.292 -0.849877 -1.32721 0
M  V30 1307 C 116.539 -0.450923 -1.97416 0
M  V30 1308 C 116.867 0.992376 -1.67279 0
M  V30 1309 O 116.122 1.71048 -0.950845 0
M  V30 1310 C 116.421 -0.631272 -3.51781 0
M  V30 1311 C 116.087 -2.04432 -4.01894 0
M  V30 1312 C 114.749 -2.4308 -4.1529 0
M  V30 1313 C 117.101 -2.96679 -4.28522 0
M  V30 1314 C 114.429 -3.73257 -4.52654 0
M  V30 1315 C 116.781 -4.26349 -4.67343 0
M  V30 1316 C 115.445 -4.64939 -4.78945 0
M  V30 1317 H 114.715 -0.165004 -0.722395 0
M  V30 1318 H 117.362 -1.07901 -1.58207 0
M  V30 1319 H 115.667 0.0800767 -3.91718 0
M  V30 1320 H 117.364 -0.302709 -3.99856 0
M  V30 1321 H 113.954 -1.73419 -3.91949 0
M  V30 1322 H 118.138 -2.68054 -4.17685 0
M  V30 1323 H 113.394 -4.02946 -4.59831 0
M  V30 1324 H 117.568 -4.97895 -4.86902 0
M  V30 1325 H 115.195 -5.65855 -5.07654 0
M  V30 1326 N 116.77 1.45427 -0.607355 0
M  V30 1327 C 117.7 2.3329 0.0989352 0
M  V30 1328 C 118.681 1.46816 0.859007 0
M  V30 1329 O 119.866 1.75588 0.829604 0
M  V30 1330 C 116.996 3.29518 1.09705 0
M  V30 1331 C 115.95 4.25626 0.450206 0
M  V30 1332 C 115.276 5.11542 1.55655 0
M  V30 1333 C 116.576 5.18505 -0.628455 0
M  V30 1334 H 118.27 2.92595 -0.634716 0
M  V30 1335 H 115.816 1.40696 -0.306681 0
M  V30 1336 H 117.769 3.89855 1.59971 0
M  V30 1337 H 116.493 2.68372 1.86129 0
M  V30 1338 H 115.152 3.66586 -0.0315886 0
M  V30 1339 H 114.8 4.46765 2.31107 0
M  V30 1340 H 114.5 5.76647 1.12925 0
M  V30 1341 H 116.024 5.74748 2.06148 0
M  V30 1342 H 117.438 5.72916 -0.209877 0
M  V30 1343 H 115.835 5.92085 -0.977489 0
M  V30 1344 H 116.905 4.60948 -1.50514 0
M  V30 1345 N 118.248 0.346503 1.53744 0
M  V30 1346 C 119.196 -0.52422 2.26616 0
M  V30 1347 C 120.19 -1.09948 1.28871 0
M  V30 1348 O 121.396 -1.04488 1.46568 0
M  V30 1349 H 117.771 -0.187743 0.728187 0
M  V30 1350 H 119.742 0.11239 2.98188 0
M  V30 1351 C 118.491 -1.66186 3.05414 0
M  V30 1352 H 117.814 -1.22848 3.80458 0
M  V30 1353 H 119.254 -2.24622 3.59612 0
M  V30 1354 C 117.713 -2.59302 2.1509 0
M  V30 1355 O 118.243 -3.61628 1.74895 0
M  V30 1356 N 116.449 -2.28055 1.8011 0
M  V30 1357 H 115.996 -1.44883 2.12994 0
M  V30 1358 H 115.954 -2.90615 1.19958 0
M  V30 1359 N 119.726 -1.57421 0.075193 0
M  V30 1360 C 120.674 -2.14124 -0.908508 0
M  V30 1361 C 121.668 -1.07898 -1.30592 0
M  V30 1362 O 122.874 -1.26273 -1.28277 0
M  V30 1363 H 119.249 -0.684707 -0.310935 0
M  V30 1364 H 121.22 -2.95634 -0.405374 0
M  V30 1365 C 119.969 -2.72044 -2.16535 0
M  V30 1366 H 119.292 -3.53456 -1.86839 0
M  V30 1367 H 120.732 -3.15311 -2.83469 0
M  V30 1368 C 119.191 -1.66968 -2.92615 0
M  V30 1369 O 119.721 -1.0967 -3.86439 0
M  V30 1370 N 117.927 -1.37923 -2.55784 0
M  V30 1371 H 117.474 -1.84706 -1.79559 0
M  V30 1372 H 117.432 -0.67852 -3.06991 0
M  V30 1373 N 121.204 0.198386 -1.56346 0
M  V30 1374 C 122.152 1.26538 -1.95169 0
M  V30 1375 C 123.146 1.47295 -0.836685 0
M  V30 1376 O 124.352 1.48195 -1.02167 0
M  V30 1377 H 120.727 0.424744 -0.620561 0
M  V30 1378 H 122.698 0.910904 -2.84157 0
M  V30 1379 C 121.447 2.6035 -2.30463 0
M  V30 1380 H 120.77 2.45192 -3.15786 0
M  V30 1381 H 122.21 3.33762 -2.61494 0
M  V30 1382 C 120.669 3.17096 -1.13806 0
M  V30 1383 O 121.199 3.99588 -0.41135 0
M  V30 1384 N 119.405 2.75795 -0.915736 0
M  V30 1385 H 118.952 2.08816 -1.50843 0
M  V30 1386 H 118.91 3.14101 -0.136979 0
M  V30 1387 N 122.682 1.50554 0.465978 0
M  V30 1388 C 123.63 1.70324 1.58406 0
M  V30 1389 C 124.624 0.569139 1.59553 0
M  V30 1390 O 125.83 0.749776 1.63641 0
M  V30 1391 H 122.205 0.537688 0.525734 0
M  V30 1392 H 124.176 2.64104 1.38894 0
M  V30 1393 C 122.925 1.81928 2.96307 0
M  V30 1394 H 122.248 2.68586 2.96144 0
M  V30 1395 H 123.688 1.99784 3.73982 0
M  V30 1396 C 122.147 0.572095 3.32007 0
M  V30 1397 O 122.677 -0.286416 4.00678 0
M  V30 1398 N 120.883 0.424606 2.87481 0
M  V30 1399 H 120.43 1.12427 2.31771 0
M  V30 1400 H 120.388 -0.408697 3.11732 0
M  V30 1401 N 124.16 -0.719506 1.40217 0
M  V30 1402 C 125.406 -1.48152 1.38488 0
M  V30 1403 C 125.739 -1.94195 -0.0141867 0
M  V30 1404 O 125.014 -1.67884 -0.982096 0
M  V30 1405 C 125.297 -2.71035 2.37091 0
M  V30 1406 C 125.15 -2.30912 3.86005 0
M  V30 1407 C 126.469 -3.73182 2.33288 0
M  V30 1408 H 123.588 -0.537395 0.504357 0
M  V30 1409 H 126.23 -0.821472 1.71324 0
M  V30 1410 H 124.38 -3.27352 2.0922 0
M  V30 1411 H 126.052 -1.80107 4.24687 0
M  V30 1412 H 124.295 -1.62958 4.02029 0
M  V30 1413 H 124.966 -3.18978 4.50508 0
M  V30 1414 H 127.442 -3.26485 2.57966 0
M  V30 1415 H 126.318 -4.56806 3.04334 0
M  V30 1416 H 126.579 -4.21202 1.34317 0
M  V30 1417 N 125.638 -1.25649 -0.95132 0
M  V30 1418 C 126.885 -1.10594 -1.69633 0
M  V30 1419 C 127.213 0.352515 -1.91279 0
M  V30 1420 O 126.468 1.27601 -1.4838 0
M  V30 1421 C 126.767 -1.80909 -3.08231 0
M  V30 1422 C 126.433 -3.30825 -3.06375 0
M  V30 1423 C 125.095 -3.71722 -3.05576 0
M  V30 1424 C 127.447 -4.26589 -2.99452 0
M  V30 1425 C 124.775 -5.06788 -2.95606 0
M  V30 1426 C 127.127 -5.61683 -2.91024 0
M  V30 1427 C 125.791 -6.01904 -2.88562 0
M  V30 1428 H 125.061 -0.404691 -0.620731 0
M  V30 1429 H 127.708 -1.55964 -1.11119 0
M  V30 1430 H 126.013 -1.27979 -3.70309 0
M  V30 1431 H 127.71 -1.6671 -3.64704 0
M  V30 1432 H 124.3 -2.98287 -3.07771 0
M  V30 1433 H 128.484 -3.95982 -2.99185 0
M  V30 1434 H 123.74 -5.37126 -2.92071 0
M  V30 1435 H 127.914 -6.35578 -2.84629 0
M  V30 1436 H 125.541 -7.06521 -2.80593 0
M  V30 1437 N 127.117 1.15442 -1.07289 0
M  V30 1438 C 128.357 1.8788 -0.805012 0
M  V30 1439 C 128.721 1.80413 0.656907 0
M  V30 1440 O 129.922 2.47874 1.0398 0
M  V30 1441 C 128.193 3.3298 -1.29843 0
M  V30 1442 S 129.752 4.23158 -1.16114 0
M  V30 1443 H 126.57 0.64839 -0.291739 0
M  V30 1444 H 129.172 1.39285 -1.37186 0
M  V30 1445 H 127.876 3.35958 -2.35712 0
M  V30 1446 H 127.407 3.86629 -0.726767 0
M  V30 1447 H 129.422 4.96103 -0.0982778 0
M  V30 1448 N 128.595 0.856903 1.32268 0
M  V30 1449 C 129.872 0.382583 1.91822 0
M  V30 1450 C 130.252 -1.13407 1.78051 0
M  V30 1451 O 129.6 -1.95673 1.18001 0
M  V30 1452 C 129.81 0.849446 3.38505 0
M  V30 1453 C 131.158 0.867936 4.15634 0
M  V30 1454 O 132.182 0.794232 3.47232 0
M  V30 1455 O 131.041 0.972286 5.37781 0
M  V30 1456 H 128.135 0.112014 0.819379 0
M  V30 1457 H 130.681 0.943952 1.41024 0
M  V30 1458 H 129.453 1.89267 3.42482 0
M  V30 1459 H 129.076 0.265652 3.96712 0
M  V30 1460 N 130.073 -1.45103 0.615059 0
M  V30 1461 C 131.322 -2.01396 0.110718 0
M  V30 1462 C 131.635 -1.48834 -1.26916 0
M  V30 1463 O 132.841 -1.97152 -1.86664 0
M  V30 1464 C 131.297 -3.59599 0.14723 0
M  V30 1465 C 130.905 -4.21158 1.52743 0
M  V30 1466 C 132.649 -4.23428 -0.30148 0
M  V30 1467 C 130.556 -5.71535 1.51992 0
M  V30 1468 H 129.486 -0.753061 0.0376241 0
M  V30 1469 H 132.137 -1.66494 0.77149 0
M  V30 1470 H 130.519 -3.91724 -0.580339 0
M  V30 1471 H 131.693 -4.00594 2.2773 0
M  V30 1472 H 130.008 -3.69552 1.91886 0
M  V30 1473 H 132.605 -5.33703 -0.326392 0
M  V30 1474 H 132.948 -3.94629 -1.32565 0
M  V30 1475 H 133.481 -3.96047 0.373065 0
M  V30 1476 H 130.22 -6.05044 2.52193 0
M  V30 1477 H 129.74 -5.94268 0.81274 0
M  V30 1478 H 131.419 -6.34873 1.24681 0
M  V30 1479 N 131.551 -0.354651 -1.53558 0
M  V30 1480 C 132.799 0.237972 -2.00694 0
M  V30 1481 C 133.12 1.50173 -1.24391 0
M  V30 1482 O 132.39 1.92673 -0.354135 0
M  V30 1483 H 130.97 0.0909256 -0.741446 0
M  V30 1484 H 133.632 -0.478368 -1.88938 0
M  V30 1485 H 132.728 0.47264 -3.085 0
M  V30 1486 N 133.029 1.57378 -0.0835403 0
M  V30 1487 C 133.977 2.14602 0.89714 0
M  V30 1488 C 134.971 1.08589 1.30018 0
M  V30 1489 O 136.177 1.26952 1.27606 0
M  V30 1490 H 132.552 0.686346 0.3073 0
M  V30 1491 H 134.523 2.95845 0.38969 0
M  V30 1492 C 133.272 2.73188 2.15089 0
M  V30 1493 H 132.595 3.54442 1.84962 0
M  V30 1494 H 134.035 3.1681 2.81793 0
M  V30 1495 C 132.494 1.68517 2.91725 0
M  V30 1496 O 133.024 1.11718 3.85852 0
M  V30 1497 N 131.23 1.39277 2.55049 0
M  V30 1498 H 130.777 1.85655 1.78577 0
M  V30 1499 H 130.735 0.694791 3.06627 0
M  V30 1500 N 134.507 -0.190092 1.56449 0
M  V30 1501 C 135.454 -1.23557 1.94942 0
M  V30 1502 C 136.424 -1.44972 0.810696 0
M  V30 1503 O 137.609 -1.58023 1.06927 0
M  V30 1504 C 134.749 -2.57416 2.2985 0
M  V30 1505 C 133.862 -2.43537 3.5681 0
M  V30 1506 C 132.997 -3.70134 3.81017 0
M  V30 1507 C 132.036 -3.51109 5.01387 0
M  V30 1508 N 131.173 -4.6973 5.21822 0
M  V30 1509 H 136.013 -0.900304 2.84075 0
M  V30 1510 H 133.55 -0.43318 1.40577 0
M  V30 1511 H 135.508 -3.35409 2.48106 0
M  V30 1512 H 134.138 -2.88975 1.43852 0
M  V30 1513 H 133.19 -1.56816 3.46573 0
M  V30 1514 H 134.502 -2.25415 4.4496 0
M  V30 1515 H 133.656 -4.56566 3.9954 0
M  V30 1516 H 132.395 -3.91215 2.91207 0
M  V30 1517 H 131.4 -2.63063 4.82782 0
M  V30 1518 H 132.625 -3.31468 5.9271 0
M  V30 1519 H 130.571 -4.91065 4.34961 0
M  V30 1520 H 130.488 -4.54452 6.0416 0
M  V30 1521 H 131.756 -5.57499 5.44808 0
M  V30 1522 N 135.985 -1.50799 -0.457987 0
M  V30 1523 C 136.933 -1.71162 -1.575 0
M  V30 1524 C 137.927 -0.577592 -1.59249 0
M  V30 1525 O 139.133 -0.758443 -1.63241 0
M  V30 1526 H 135.508 -0.540468 -0.522875 0
M  V30 1527 H 137.479 -2.64837 -1.37492 0
M  V30 1528 C 136.228 -1.83496 -2.95338 0
M  V30 1529 H 135.551 -2.70153 -2.94716 0
M  V30 1530 H 136.991 -2.01765 -3.72917 0
M  V30 1531 C 135.45 -0.589694 -3.31699 0
M  V30 1532 O 135.98 0.265163 -4.00824 0
M  V30 1533 N 134.186 -0.439845 -2.87252 0
M  V30 1534 H 133.733 -1.13655 -2.31172 0
M  V30 1535 H 133.691 0.392159 -3.11945 0
M  V30 1536 N 137.463 0.71206 -1.40597 0
M  V30 1537 C 138.41 1.82613 -1.41142 0
M  V30 1538 C 139.38 1.63925 -0.267903 0
M  V30 1539 O 140.565 1.85009 -0.466495 0
M  V30 1540 C 137.705 3.20354 -1.28324 0
M  V30 1541 C 136.818 3.50589 -2.52411 0
M  V30 1542 C 135.953 4.77855 -2.32009 0
M  V30 1543 C 134.992 5.01005 -3.51654 0
M  V30 1544 N 134.129 6.19487 -3.30425 0
M  V30 1545 H 138.969 1.81482 -2.36365 0
M  V30 1546 H 136.506 0.886475 -1.17388 0
M  V30 1547 H 138.464 3.99899 -1.18899 0
M  V30 1548 H 137.094 3.20705 -0.367189 0
M  V30 1549 H 136.146 2.65573 -2.72351 0
M  V30 1550 H 137.458 3.63604 -3.41458 0
M  V30 1551 H 136.612 5.65424 -2.19956 0
M  V30 1552 H 135.351 4.67056 -1.40392 0
M  V30 1553 H 134.356 4.1189 -3.64179 0
M  V30 1554 H 135.581 5.13674 -4.44202 0
M  V30 1555 H 133.527 6.09932 -2.41494 0
M  V30 1556 H 133.444 6.33194 -4.13039 0
M  V30 1557 H 134.712 7.09834 -3.22113 0
M  V30 1558 N 138.941 1.26152 0.944643 0
M  V30 1559 C 139.889 1.07215 2.06417 0
M  V30 1560 C 140.883 9.2007e-05 1.694 0
M  V30 1561 O 142.089 0.1565 1.79318 0
M  V30 1562 H 138.464 0.329837 0.675805 0
M  V30 1563 H 140.435 2.02099 2.19541 0
M  V30 1564 C 139.184 0.718197 3.40202 0
M  V30 1565 H 138.507 1.53497 3.69159 0
M  V30 1566 H 139.947 0.625459 4.19361 0
M  V30 1567 C 138.406 -0.576435 3.31932 0
M  V30 1568 O 138.936 -1.61574 3.67773 0
M  V30 1569 N 137.142 -0.565781 2.85039 0
M  V30 1570 H 136.689 0.280367 2.5607 0
M  V30 1571 H 136.647 -1.43213 2.79888 0
M  V30 1572 N 140.419 -1.14872 1.07899 0
M  V30 1573 C 141.367 -2.21857 0.698727 0
M  V30 1574 C 142.361 -1.66845 -0.293086 0
M  V30 1575 O 143.567 -1.79321 -0.156204 0
M  V30 1576 H 139.942 -0.722691 0.207899 0
M  V30 1577 H 141.913 -2.51205 1.61054 0
M  V30 1578 C 140.662 -3.47498 0.11858 0
M  V30 1579 H 139.985 -3.90154 0.872914 0
M  V30 1580 H 141.425 -4.23858 -0.109759 0
M  V30 1581 C 139.884 -3.16947 -1.1422 0
M  V30 1582 O 140.414 -3.3426 -2.22785 0
M  V30 1583 N 138.62 -2.70946 -1.05055 0
M  V30 1584 H 138.167 -2.57058 -0.167038 0
M  V30 1585 H 138.125 -2.50879 -1.89491 0
M  V30 1586 N 141.898 -0.863906 -1.31812 0
M  V30 1587 C 142.846 -0.30422 -2.30602 0
M  V30 1588 C 143.84 0.577419 -1.59255 0
M  V30 1589 O 145.046 0.464194 -1.73912 0
M  V30 1590 H 141.421 -0.0796877 -0.747766 0
M  V30 1591 H 143.392 -1.15148 -2.75288 0
M  V30 1592 C 142.141 0.484617 -3.44306 0
M  V30 1593 H 141.464 -0.18451 -3.99374 0
M  V30 1594 H 142.904 0.841664 -4.15562 0
M  V30 1595 C 141.363 1.6735 -2.92396 0
M  V30 1596 O 141.893 2.77273 -2.90659 0
M  V30 1597 N 140.099 1.50362 -2.48676 0
M  V30 1598 H 139.646 0.609402 -2.50288 0
M  V30 1599 H 139.604 2.30051 -2.14299 0
M  V30 1600 N 143.376 1.44774 -0.622745 0
M  V30 1601 C 144.606 2.06187 -0.130532 0
M  V30 1602 C 145.014 1.46547 1.19669 0
M  V30 1603 O 144.357 0.579636 1.74316 0
M  V30 1604 C 144.419 3.59437 0.0674983 0
M  V30 1605 C 144.083 4.41496 -1.18026 0
M  V30 1606 C 145.08 4.75512 -2.102 0
M  V30 1607 C 142.765 4.82007 -1.41333 0
M  V30 1608 C 144.759 5.48912 -3.23998 0
M  V30 1609 C 142.446 5.55157 -2.55429 0
M  V30 1610 C 143.444 5.88528 -3.46589 0
M  V30 1611 O 143.132 6.60191 -4.58697 0
M  V30 1612 H 142.864 0.672045 -0.0730162 0
M  V30 1613 H 145.418 1.86768 -0.854802 0
M  V30 1614 H 143.648 3.77314 0.846825 0
M  V30 1615 H 145.337 4.02642 0.513209 0
M  V30 1616 H 146.103 4.4476 -1.93425 0
M  V30 1617 H 141.982 4.55457 -0.712709 0
M  V30 1618 H 145.526 5.74877 -3.95174 0
M  V30 1619 H 141.423 5.85324 -2.72151 0
M  V30 1620 H 142.191 6.78654 -4.57571 0
M  V30 1621 N 144.854 0.36279 1.53368 0
M  V30 1622 C 145.804 -0.501391 2.22419 0
M  V30 1623 C 146.788 -1.0509 1.2184 0
M  V30 1624 O 147.98 -0.981404 1.47301 0
M  V30 1625 C 145.109 -1.64201 3.01484 0
M  V30 1626 C 144.195 -1.10552 4.09438 0
M  V30 1627 N 144.586 -0.291788 5.04958 0
M  V30 1628 C 142.884 -1.3806 4.24094 0
M  V30 1629 C 143.585 0.00162655 5.817 0
M  V30 1630 N 142.561 -0.595244 5.40331 0
M  V30 1631 H 146.363 0.127159 2.93625 0
M  V30 1632 H 143.877 0.170658 1.61501 0
M  V30 1633 H 145.874 -2.27326 3.49469 0
M  V30 1634 H 144.534 -2.27365 2.31809 0
M  V30 1635 H 145.545 0.0687731 5.17854 0
M  V30 1636 H 142.222 -2.01522 3.65644 0
M  V30 1637 H 143.612 0.659278 6.68658 0
M  V30 1638 N 146.332 -1.57332 0.0918853 0
M  V30 1639 C 147.282 -2.10385 -0.87876 0
M  V30 1640 C 148.266 -1.01814 -1.24591 0
M  V30 1641 O 149.458 -1.28093 -1.22152 0
M  V30 1642 C 146.587 -2.68517 -2.13901 0
M  V30 1643 C 145.673 -3.84126 -1.79744 0
M  V30 1644 N 146.064 -4.92288 -1.1613 0
M  V30 1645 C 144.362 -3.93801 -2.09373 0
M  V30 1646 C 145.063 -5.7295 -1.00513 0
M  V30 1647 N 144.039 -5.21876 -1.5214 0
M  V30 1648 H 147.841 -2.91395 -0.38293 0
M  V30 1649 H 145.355 -1.62017 -0.111423 0
M  V30 1650 H 147.352 -3.04852 -2.84378 0
M  V30 1651 H 146.012 -1.88961 -2.64053 0
M  V30 1652 H 147.023 -5.1123 -0.828504 0
M  V30 1653 H 143.7 -3.25249 -2.61762 0
M  V30 1654 H 145.09 -6.69978 -0.507902 0
M  V30 1655 N 147.81 0.181792 -1.56548 0
M  V30 1656 C 149.221 0.745244 -1.71181 0
M  V30 1657 C 149.572 1.83262 -0.70068 0
M  V30 1658 O 148.697 2.15946 0.140154 0
M  V30 1659 C 149.292 1.35859 -3.10367 0
M  V30 1660 C 147.851 1.86898 -3.2672 0
M  V30 1661 C 146.998 0.743942 -2.67134 0
M  V30 1662 H 149.949 -0.0434661 -1.5864 0
M  V30 1663 H 149.97 2.22817 -3.08436 0
M  V30 1664 H 149.482 0.566948 -3.83937 0
M  V30 1665 H 147.583 2.68738 -2.5809 0
M  V30 1666 H 147.696 2.02162 -4.34359 0
M  V30 1667 H 146.06 1.16169 -2.26665 0
M  V30 1668 H 146.843 -0.035676 -3.43281 0
M  V30 1669 N 149.288 1.51039 0.449983 0
M  V30 1670 C 150.218 1.74379 1.55288 0
M  V30 1671 C 151.199 0.593236 1.5942 0
M  V30 1672 O 152.384 0.834625 1.7535 0
M  V30 1673 C 149.514 1.85728 2.93466 0
M  V30 1674 C 148.468 3.01078 3.04197 0
M  V30 1675 C 147.794 2.97595 4.44231 0
M  V30 1676 C 149.094 4.41254 2.7945 0
M  V30 1677 H 150.788 2.66725 1.36008 0
M  V30 1678 H 148.334 1.2835 0.652864 0
M  V30 1679 H 150.287 2.0064 3.70569 0
M  V30 1680 H 149.011 0.900207 3.13949 0
M  V30 1681 H 147.67 2.85851 2.29531 0
M  V30 1682 H 147.318 1.99691 4.61663 0
M  V30 1683 H 147.018 3.75046 4.52343 0
M  V30 1684 H 148.542 3.14583 5.23326 0
M  V30 1685 H 149.956 4.56897 3.46292 0
M  V30 1686 H 148.353 5.20315 2.98985 0
M  V30 1687 H 149.423 4.52164 1.75144 0
M  V30 1688 N 150.766 -0.704594 1.40972 0
M  V30 1689 C 152.012 -1.46546 1.41053 0
M  V30 1690 C 152.367 -1.92393 0.0159714 0
M  V30 1691 O 151.66 -1.66017 -0.956506 0
M  V30 1692 C 151.854 -2.698 2.34399 0
M  V30 1693 C 151.683 -2.36008 3.82793 0
M  V30 1694 C 150.453 -2.26812 4.51536 0
M  V30 1695 C 152.651 -1.99565 4.74003 0
M  V30 1696 N 150.633 -1.8581 5.85105 0
M  V30 1697 C 152.004 -1.69251 5.96451 0
M  V30 1698 C 154.059 -1.86296 4.61734 0
M  V30 1699 C 152.762 -1.27003 7.07999 0
M  V30 1700 C 154.788 -1.45452 5.73234 0
M  V30 1701 C 154.15 -1.16043 6.94776 0
M  V30 1702 H 150.249 -0.533896 0.571383 0
M  V30 1703 H 152.833 -0.816061 1.76773 0
M  V30 1704 H 151.004 -3.32473 2.00789 0
M  V30 1705 H 152.736 -3.36214 2.25261 0
M  V30 1706 H 149.491 -2.44913 4.05357 0
M  V30 1707 H 149.915 -1.67817 6.55871 0
M  V30 1708 H 154.557 -2.0769 3.68273 0
M  V30 1709 H 152.275 -1.04353 8.01334 0
M  V30 1710 H 155.861 -1.35748 5.65742 0
M  V30 1711 H 154.741 -0.84915 7.79589 0
M  V30 1712 N 152.244 -1.26651 -0.937939 0
M  V30 1713 C 153.66 -1.03834 -1.21205 0
M  V30 1714 C 153.86 0.234502 -2.00131 0
M  V30 1715 O 152.916 0.942767 -2.3424 0
M  V30 1716 C 154.229 -2.27167 -1.97017 0
M  V30 1717 C 155.777 -2.32101 -2.09996 0
M  V30 1718 C 156.252 -3.55136 -2.8921 0
M  V30 1719 N 157.743 -3.55632 -2.96783 0
M  V30 1720 C 158.478 -4.475 -3.58512 0
M  V30 1721 N 157.974 -5.4966 -4.21717 0
M  V30 1722 N 159.767 -4.35145 -3.55816 0
M  V30 1723 H 151.918 -2.08398 -0.410391 0
M  V30 1724 H 154.181 -0.916031 -0.244114 0
M  V30 1725 H 153.887 -3.19765 -1.46434 0
M  V30 1726 H 153.761 -2.31672 -2.97671 0
M  V30 1727 H 156.148 -1.40015 -2.59769 0
M  V30 1728 H 156.229 -2.31605 -1.08594 0
M  V30 1729 H 155.873 -4.47553 -2.40123 0
M  V30 1730 H 155.803 -3.5288 -3.90875 0
M  V30 1731 H 158.294 -2.81743 -2.51852 0
M  V30 1732 H 158.607 -6.15943 -4.66727 0
M  V30 1733 H 156.952 -5.53514 -4.20294 0
M  V30 1734 H 160.143 -3.5455 -3.05634 0
M  V30 1735 H 160.316 -5.06934 -4.03636 0
M  V30 1736 N 153.722 1.14298 -1.08507 0
M  V30 1737 C 154.947 1.8976 -0.837001 0
M  V30 1738 C 155.372 1.78097 0.605228 0
M  V30 1739 O 154.73 1.12188 1.4242 0
M  V30 1740 C 154.778 3.37685 -1.26495 0
M  V30 1741 O 153.882 4.10281 -0.417514 0
M  V30 1742 H 153.223 0.590365 -0.303917 0
M  V30 1743 H 155.753 1.44672 -1.44676 0
M  V30 1744 H 155.763 3.88501 -1.24625 0
M  V30 1745 H 154.438 3.45492 -2.31534 0
M  V30 1746 H 153.015 3.69536 -0.499722 0
M  V30 1747 N 155.201 0.870884 1.31352 0
M  V30 1748 C 156.111 0.330783 2.32256 0
M  V30 1749 C 157.127 -0.559767 1.6475 0
M  V30 1750 O 158.303 -0.456263 1.96164 0
M  V30 1751 C 155.368 -0.458137 3.4366 0
M  V30 1752 C 154.429 0.460482 4.26823 0
M  V30 1753 C 153.662 -0.290881 5.32907 0
M  V30 1754 O 153.885 -1.51885 5.49806 0
M  V30 1755 O 152.819 0.351732 6.00871 0
M  V30 1756 H 156.645 1.16718 2.80376 0
M  V30 1757 H 154.23 0.634285 1.35267 0
M  V30 1758 H 156.112 -0.905343 4.1156 0
M  V30 1759 H 154.787 -1.27106 2.97701 0
M  V30 1760 H 153.694 0.956207 3.61673 0
M  V30 1761 H 155.027 1.23903 4.7635 0
M  V30 1762 N 156.679 -1.44442 0.630414 0
M  V30 1763 C 157.589 -2.34476 -0.0761693 0
M  V30 1764 C 158.605 -1.52576 -0.836449 0
M  V30 1765 O 159.781 -1.85307 -0.788874 0
M  V30 1766 C 156.846 -3.30545 -1.04599 0
M  V30 1767 C 155.907 -4.28352 -0.28516 0
M  V30 1768 C 155.14 -5.19831 -1.20878 0
M  V30 1769 O 155.363 -5.15223 -2.44747 0
M  V30 1770 O 154.297 -5.97892 -0.693491 0
M  V30 1771 H 158.123 -2.96345 0.664324 0
M  V30 1772 H 155.708 -1.44203 0.39061 0
M  V30 1773 H 157.59 -3.89681 -1.60396 0
M  V30 1774 H 156.265 -2.7121 -1.76711 0
M  V30 1775 H 155.172 -3.72764 0.315837 0
M  V30 1776 H 156.505 -4.90605 0.395924 0
M  V30 1777 N 158.157 -0.370918 -1.53173 0
M  V30 1778 C 159.104 0.473035 -2.259 0
M  V30 1779 C 160.074 1.07311 -1.26781 0
M  V30 1780 O 161.259 1.1046 -1.55574 0
M  V30 1781 C 158.399 1.60405 -3.05556 0
M  V30 1782 C 157.512 1.02863 -4.19575 0
M  V30 1783 C 156.647 2.12918 -4.86661 0
M  V30 1784 C 155.686 1.52869 -5.92704 0
M  V30 1785 N 154.823 2.56779 -6.53459 0
M  V30 1786 H 159.663 -0.153649 -2.97604 0
M  V30 1787 H 157.2 -0.0875946 -1.46839 0
M  V30 1788 H 159.158 2.27034 -3.50016 0
M  V30 1789 H 157.788 2.20131 -2.36097 0
M  V30 1790 H 156.84 0.252465 -3.79561 0
M  V30 1791 H 158.152 0.549642 -4.95762 0
M  V30 1792 H 157.306 2.87356 -5.34333 0
M  V30 1793 H 156.045 2.6417 -4.09958 0
M  V30 1794 H 155.05 0.769479 -5.44389 0
M  V30 1795 H 156.275 1.02435 -6.7133 0
M  V30 1796 H 154.221 3.07235 -5.79606 0
M  V30 1797 H 154.138 2.13583 -7.25202 0
M  V30 1798 H 155.406 3.30903 -7.05779 0
M  V30 1799 N 159.635 1.57281 -0.100228 0
M  V30 1800 C 161.051 1.57527 0.256416 0
M  V30 1801 C 161.251 1.11173 1.68056 0
M  V30 1802 O 160.307 0.79053 2.39806 0
M  V30 1803 C 161.62 3.00673 0.0401747 0
M  V30 1804 C 163.168 3.12815 0.107528 0
M  V30 1805 C 163.643 4.57929 -0.0807834 0
M  V30 1806 N 165.134 4.63193 -0.0261207 0
M  V30 1807 C 165.869 5.73212 -0.146999 0
M  V30 1808 N 165.365 6.92047 -0.322999 0
M  V30 1809 N 167.158 5.62031 -0.0879044 0
M  V30 1810 H 159.309 1.85718 -1.03065 0
M  V30 1811 H 161.572 0.857446 -0.404339 0
M  V30 1812 H 161.278 3.38804 -0.943649 0
M  V30 1813 H 161.152 3.69042 0.780262 0
M  V30 1814 H 163.539 2.74554 1.08186 0
M  V30 1815 H 163.62 2.47028 -0.664134 0
M  V30 1816 H 163.264 4.96886 -1.05201 0
M  V30 1817 H 163.194 5.21783 0.710635 0
M  V30 1818 H 165.685 3.77748 0.107161 0
M  V30 1819 H 165.998 7.7173 -0.406608 0
M  V30 1820 H 164.343 6.94074 -0.358733 0
M  V30 1821 H 167.534 4.68075 0.048498 0
M  V30 1822 H 167.707 6.47734 -0.185557 0
M  V30 1823 N 161.113 -0.173488 1.56642 0
M  V30 1824 C 162.524 -0.736155 1.71574 0
M  V30 1825 C 162.875 -1.82888 0.710389 0
M  V30 1826 O 162 -2.16017 -0.1287 0
M  V30 1827 C 162.595 -1.34211 3.11083 0
M  V30 1828 C 161.154 -1.85162 3.27707 0
M  V30 1829 C 160.301 -0.729765 2.67525 0
M  V30 1830 H 163.252 0.0518786 1.58615 0
M  V30 1831 H 163.273 -2.21178 3.09613 0
M  V30 1832 H 162.785 -0.546579 3.84232 0
M  V30 1833 H 160.886 -2.67366 2.59512 0
M  V30 1834 H 160.999 -1.99855 4.35425 0
M  V30 1835 H 159.363 -1.14965 2.27278 0
M  V30 1836 H 160.146 0.0538806 3.43258 0
M  V30 1837 N 162.591 -1.51276 -0.441967 0
M  V30 1838 C 163.838 -1.63715 -1.19179 0
M  V30 1839 C 164.166 -0.351175 -1.91303 0
M  V30 1840 O 163.421 0.664524 -1.84072 0
M  V30 1841 C 163.72 -2.78746 -2.23686 0
M  V30 1842 C 163.386 -4.18189 -1.68607 0
M  V30 1843 C 162.048 -4.56125 -1.53308 0
M  V30 1844 C 164.4 -5.05222 -1.28062 0
M  V30 1845 C 161.728 -5.78804 -0.959317 0
M  V30 1846 C 164.08 -6.28476 -0.721162 0
M  V30 1847 C 162.744 -6.65188 -0.55504 0
M  V30 1848 H 162.014 -0.599076 -0.436106 0
M  V30 1849 H 164.661 -1.85296 -0.48351 0
M  V30 1850 H 162.966 -2.51369 -3.00535 0
M  V30 1851 H 164.663 -2.8557 -2.81515 0
M  V30 1852 H 161.253 -3.88277 -1.8149 0
M  V30 1853 H 165.437 -4.76524 -1.38704 0
M  V30 1854 H 160.693 -6.05899 -0.81833 0
M  V30 1855 H 164.867 -6.95259 -0.398458 0
M  V30 1856 H 162.494 -7.60123 -0.108311 0
M  V30 1857 N 164.069 0.697108 -1.41344 0
M  V30 1858 C 164.979 1.84088 -1.45427 0
M  V30 1859 C 165.995 1.70545 -0.34501 0
M  V30 1860 O 167.171 1.92488 -0.592492 0
M  V30 1861 C 164.236 3.20056 -1.33286 0
M  V30 1862 C 163.297 3.45718 -2.54514 0
M  V30 1863 C 162.53 4.75199 -2.42944 0
M  V30 1864 O 162.753 5.51579 -1.45318 0
M  V30 1865 O 161.687 5.0161 -3.32672 0
M  V30 1866 H 165.513 1.836 -2.41919 0
M  V30 1867 H 163.098 0.849966 -1.22866 0
M  V30 1868 H 164.98 4.01236 -1.28794 0
M  V30 1869 H 163.655 3.2123 -0.39909 0
M  V30 1870 H 162.562 2.64474 -2.64583 0
M  V30 1871 H 163.895 3.49356 -3.46715 0
M  V30 1872 N 165.547 1.27147 0.931209 0
M  V30 1873 C 166.494 1.09568 2.03134 0
M  V30 1874 C 167.464 -0.00222433 1.661 0
M  V30 1875 O 168.649 0.159439 1.90133 0
M  V30 1876 C 165.789 0.745231 3.36957 0
M  V30 1877 C 164.902 1.92041 3.86968 0
M  V30 1878 C 164.037 1.51216 5.09222 0
M  V30 1879 C 163.076 2.65504 5.5152 0
M  V30 1880 N 162.213 2.25291 6.64972 0
M  V30 1881 H 167.053 2.03708 2.17502 0
M  V30 1882 H 164.59 1.01411 1.06556 0
M  V30 1883 H 166.548 0.522878 4.1391 0
M  V30 1884 H 165.178 -0.159202 3.22407 0
M  V30 1885 H 164.23 2.25541 3.06326 0
M  V30 1886 H 165.542 2.77787 4.1429 0
M  V30 1887 H 164.696 1.25084 5.93666 0
M  V30 1888 H 163.435 0.625749 4.83669 0
M  V30 1889 H 162.44 2.92354 4.65628 0
M  V30 1890 H 163.665 3.54761 5.7907 0
M  V30 1891 H 161.611 1.39098 6.41083 0
M  V30 1892 H 161.528 3.04577 6.91931 0
M  V30 1893 H 162.796 2.02398 7.52765 0
M  V30 1894 N 167.025 -1.13721 1.09112 0
M  V30 1895 C 167.972 -2.19031 0.727591 0
M  V30 1896 C 168.942 -1.63555 -0.289656 0
M  V30 1897 O 170.127 -1.90023 -0.172026 0
M  V30 1898 C 167.267 -3.4477 0.15082 0
M  V30 1899 C 166.38 -4.14365 1.22172 0
M  V30 1900 C 165.515 -5.27709 0.608042 0
M  V30 1901 C 164.554 -5.89147 1.66047 0
M  V30 1902 N 163.691 -6.93929 1.06806 0
M  V30 1903 H 168.531 -2.49475 1.62991 0
M  V30 1904 H 166.068 -1.22499 0.81439 0
M  V30 1905 H 168.026 -4.16714 -0.201358 0
M  V30 1906 H 166.656 -3.14787 -0.714783 0
M  V30 1907 H 165.708 -3.40737 1.69122 0
M  V30 1908 H 167.02 -4.56114 2.01895 0
M  V30 1909 H 166.174 -6.06355 0.204523 0
M  V30 1910 H 164.913 -4.872 -0.220769 0
M  V30 1911 H 163.918 -5.09198 2.07357 0
M  V30 1912 H 165.143 -6.31729 2.49189 0
M  V30 1913 H 163.089 -6.55483 0.260476 0
M  V30 1914 H 163.006 -7.34202 1.8023 0
M  V30 1915 H 164.274 -7.76434 0.690644 0
M  V30 1916 N 168.503 -0.877838 -1.30888 0
M  V30 1917 C 169.436 -0.283995 -2.26426 0
M  V30 1918 C 170.414 0.591361 -1.51465 0
M  V30 1919 O 171.598 0.54304 -1.80509 0
M  V30 1920 C 168.725 0.597129 -3.33395 0
M  V30 1921 C 167.771 -0.207937 -4.25993 0
M  V30 1922 S 168.604 -1.59158 -5.11301 0
M  V30 1923 C 169.76 -0.716791 -6.21782 0
M  V30 1924 H 169.993 -1.09383 -2.76446 0
M  V30 1925 H 167.526 -0.676828 -1.38775 0
M  V30 1926 H 169.484 1.09978 -3.95493 0
M  V30 1927 H 168.145 1.38099 -2.82113 0
M  V30 1928 H 167.338 0.464163 -5.01858 0
M  V30 1929 H 166.94 -0.642963 -3.68432 0
M  V30 1930 H 169.232 0.0692833 -6.77465 0
M  V30 1931 H 170.175 -1.44682 -6.93161 0
M  V30 1932 H 170.583 -0.280855 -5.63801 0
M  V30 1933 N 169.982 1.44106 -0.638065 0
M  V30 1934 C 170.892 2.34513 0.0637334 0
M  V30 1935 C 171.908 1.53018 0.828346 0
M  V30 1936 O 173.084 1.85723 0.779036 0
M  V30 1937 C 170.149 3.31095 1.02844 0
M  V30 1938 C 169.21 4.28497 0.26244 0
M  V30 1939 C 168.443 5.20465 1.1812 0
M  V30 1940 O 168.666 5.16514 2.42011 0
M  V30 1941 O 167.6 5.98251 0.661774 0
M  V30 1942 H 171.426 2.95989 -0.68003 0
M  V30 1943 H 169.011 1.43994 -0.398252 0
M  V30 1944 H 170.893 3.90526 1.58327 0
M  V30 1945 H 169.568 2.72144 1.7527 0
M  V30 1946 H 168.475 3.72592 -0.335602 0
M  V30 1947 H 169.808 4.90388 -0.421936 0
M  V30 1948 N 171.46 0.379036 1.52974 0
M  V30 1949 C 172.408 -0.476033 2.27677 0
M  V30 1950 C 173.402 -1.0719 1.31174 0
M  V30 1951 O 174.608 -1.01355 1.48752 0
M  V30 1952 H 170.983 -0.172255 0.732006 0
M  V30 1953 H 172.954 0.175615 2.97883 0
M  V30 1954 C 171.703 -1.5967 3.0887 0
M  V30 1955 H 171.026 -1.1475 3.82978 0
M  V30 1956 H 172.466 -2.16943 3.64296 0
M  V30 1957 C 170.925 -2.54682 2.20542 0
M  V30 1958 O 171.455 -3.57836 1.82527 0
M  V30 1959 N 169.661 -2.24183 1.84907 0
M  V30 1960 H 169.208 -1.40333 2.1602 0
M  V30 1961 H 169.166 -2.88006 1.26096 0
M  V30 1962 N 172.938 -1.57226 0.108567 0
M  V30 1963 C 173.901 -2.13602 -0.831082 0
M  V30 1964 C 174.901 -1.06841 -1.20173 0
M  V30 1965 O 176.091 -1.32666 -1.12895 0
M  V30 1966 C 173.223 -2.66769 -2.12243 0
M  V30 1967 H 174.416 -2.97951 -0.341317 0
M  V30 1968 H 171.969 -1.55667 -0.14057 0
M  V30 1969 H 172.704 -1.85977 -2.65675 0
M  V30 1970 H 172.489 -3.44839 -1.86625 0
M  V30 1971 H 173.979 -3.10332 -2.79435 0
M  V30 1972 N 174.416 0.165178 -1.56732 0
M  V30 1973 C 175.665 0.879143 -1.81532 0
M  V30 1974 C 175.978 1.83144 -0.686842 0
M  V30 1975 O 177.184 2.58823 -0.819944 0
M  V30 1976 C 175.64 1.61388 -3.21686 0
M  V30 1977 C 175.248 0.704904 -4.4242 0
M  V30 1978 C 176.992 2.3157 -3.55774 0
M  V30 1979 C 174.899 1.44022 -5.73595 0
M  V30 1980 H 173.829 0.332033 -0.676957 0
M  V30 1981 H 176.48 0.132008 -1.83025 0
M  V30 1982 H 174.862 2.40599 -3.14529 0
M  V30 1983 H 176.036 -0.0506815 -4.60772 0
M  V30 1984 H 174.351 0.112419 -4.16248 0
M  V30 1985 H 176.948 2.8719 -4.51028 0
M  V30 1986 H 177.291 3.07201 -2.8095 0
M  V30 1987 H 177.824 1.59297 -3.64513 0
M  V30 1988 H 174.563 0.72612 -6.51466 0
M  V30 1989 H 174.083 2.16898 -5.5921 0
M  V30 1990 H 175.762 1.98606 -6.15764 0
M  V30 1991 N 175.894 1.51508 0.433938 0
M  V30 1992 C 176.824 1.76016 1.53429 0
M  V30 1993 C 177.805 0.610112 1.58782 0
M  V30 1994 O 178.99 0.853177 1.74455 0
M  V30 1995 C 176.12 1.88831 2.9148 0
M  V30 1996 C 175.074 3.04288 3.00987 0
M  V30 1997 C 174.4 3.0229 4.4105 0
M  V30 1998 C 175.7 4.44193 2.74754 0
M  V30 1999 H 177.394 2.68152 1.33171 0
M  V30 2000 H 174.94 1.29035 0.639214 0
M  V30 2001 H 176.893 2.04559 3.6842 0
M  V30 2002 H 175.617 0.933455 3.12976 0
M  V30 2003 H 174.276 2.8827 2.26486 0
M  V30 2004 H 173.924 2.04576 4.59519 0
M  V30 2005 H 173.624 3.79822 4.4834 0
M  V30 2006 H 175.148 3.20116 5.1996 0
M  V30 2007 H 176.562 4.60544 3.41426 0
M  V30 2008 H 174.959 5.23457 2.9345 0
M  V30 2009 H 176.029 4.53996 1.70339 0
M  V30 2010 N 177.372 -0.689602 1.41712 0
M  V30 2011 C 178.619 -1.44966 1.4139 0
M  V30 2012 C 178.947 -1.94484 0.025105 0
M  V30 2013 O 178.202 -1.70307 -0.964048 0
M  V30 2014 C 178.501 -2.67298 2.37247 0
M  V30 2015 C 178.167 -2.36405 3.83958 0
M  V30 2016 C 176.829 -2.27691 4.23923 0
M  V30 2017 C 179.181 -2.11043 4.76561 0
M  V30 2018 C 176.509 -1.91719 5.54492 0
M  V30 2019 C 178.861 -1.76578 6.07456 0
M  V30 2020 C 177.525 -1.66363 6.46436 0
M  V30 2021 H 176.795 -0.53047 0.517381 0
M  V30 2022 H 179.442 -0.787655 1.74552 0
M  V30 2023 H 177.747 -3.38461 1.9736 0
M  V30 2024 H 179.444 -3.25452 2.34269 0
M  V30 2025 H 176.034 -2.44085 3.52308 0
M  V30 2026 H 180.218 -2.16717 4.46483 0
M  V30 2027 H 175.474 -1.82367 5.83568 0
M  V30 2028 H 179.648 -1.55974 6.78708 0
M  V30 2029 H 177.275 -1.38258 7.47522 0
M  V30 2030 N 178.85 -1.27639 -0.924453 0
M  V30 2031 C 180.075 -1.17101 -1.71179 0
M  V30 2032 C 180.5 0.268134 -1.86179 0
M  V30 2033 O 179.858 1.19415 -1.36418 0
M  V30 2034 C 179.906 -1.86313 -3.08739 0
M  V30 2035 O 179.01 -1.16331 -3.95652 0
M  V30 2036 H 178.351 -0.407091 -0.524569 0
M  V30 2037 H 180.881 -1.68767 -1.15666 0
M  V30 2038 H 180.891 -1.938 -3.59034 0
M  V30 2039 H 179.566 -2.91001 -2.97138 0
M  V30 2040 H 178.143 -1.16935 -3.54091 0
M  V30 2041 N 180.328 1.1314 -1.09713 0
M  V30 2042 C 181.576 1.84119 -0.833338 0
M  V30 2043 C 181.897 1.84097 0.642904 0
M  V30 2044 O 181.167 1.29881 1.46655 0
M  V30 2045 H 179.747 0.681766 -0.305293 0
M  V30 2046 H 182.409 1.37038 -1.38588 0
M  V30 2047 H 181.505 2.88543 -1.18951 0
M  V30 2048 N 181.806 0.884767 1.30421 0
M  V30 2049 C 183.034 0.518044 2.0031 0
M  V30 2050 C 183.449 -0.893408 1.66324 0
M  V30 2051 O 182.806 -1.5875 0.900262 0
M  V30 2052 C 182.857 0.682997 3.54989 0
M  V30 2053 O 182.578 2.03888 3.87764 0
M  V30 2054 C 184.079 0.31924 4.42149 0
M  V30 2055 H 181.299 0.200265 0.640418 0
M  V30 2056 H 183.843 1.19001 1.6631 0
M  V30 2057 H 181.998 0.0584052 3.87356 0
M  V30 2058 H 182.412 2.05735 4.82466 0
M  V30 2059 H 183.886 0.485555 5.4986 0
M  V30 2060 H 184.363 -0.742717 4.32875 0
M  V30 2061 H 184.969 0.920147 4.15227 0
M  V30 2062 N 183.284 -1.43765 0.645699 0
M  V30 2063 C 184.509 -2.06767 0.161883 0
M  V30 2064 C 184.934 -1.48034 -1.16049 0
M  V30 2065 O 184.292 -0.587369 -1.71522 0
M  V30 2066 C 184.34 -3.60519 0.0762003 0
M  V30 2067 O 183.444 -4.00982 -0.963721 0
M  V30 2068 H 182.785 -0.657675 0.091429 0
M  V30 2069 H 185.315 -1.84397 0.886499 0
M  V30 2070 H 185.325 -4.07853 -0.109604 0
M  V30 2071 H 184 -4.02646 1.04157 0
M  V30 2072 H 182.577 -3.65253 -0.751312 0
M  V30 2073 N 184.763 -0.387143 -1.52771 0
M  V30 2074 C 185.711 0.463953 -2.27926 0
M  V30 2075 C 186.705 1.06493 -1.31741 0
M  V30 2076 O 187.911 1.00565 -1.49287 0
M  V30 2077 H 184.286 0.16837 -0.732909 0
M  V30 2078 H 186.257 -0.19141 -2.97785 0
M  V30 2079 C 185.006 1.5803 -3.09713 0
M  V30 2080 H 184.329 1.12718 -3.83581 0
M  V30 2081 H 185.769 2.15008 -3.65442 0
M  V30 2082 C 184.228 2.53509 -2.2189 0
M  V30 2083 O 184.758 3.56863 -1.84422 0
M  V30 2084 N 182.964 2.23199 -1.86093 0
M  V30 2085 H 182.511 1.39185 -2.16761 0
M  V30 2086 H 182.469 2.87333 -1.27621 0
M  V30 2087 N 186.241 1.57166 -0.116904 0
M  V30 2088 C 187.652 1.82169 0.408809 0
M  V30 2089 C 188.003 1.03393 1.66746 0
M  V30 2090 O 187.128 0.269886 2.1471 0
M  V30 2091 C 187.723 3.30429 0.748466 0
M  V30 2092 C 186.282 3.5612 1.21882 0
M  V30 2093 C 185.429 2.76374 0.226452 0
M  V30 2094 H 188.38 1.5497 -0.342063 0
M  V30 2095 H 188.401 3.44943 1.60607 0
M  V30 2096 H 187.913 3.87737 -0.167784 0
M  V30 2097 H 186.014 3.04168 2.15204 0
M  V30 2098 H 186.127 4.64705 1.16559 0
M  V30 2099 H 184.491 2.44515 0.713063 0
M  V30 2100 H 185.274 3.3644 -0.682859 0
M  V30 2101 N 187.719 -0.156864 1.56817 0
M  V30 2102 C 188.649 -1.19589 2.00551 0
M  V30 2103 C 189.63 -1.4536 0.883426 0
M  V30 2104 O 190.815 -1.56449 1.15054 0
M  V30 2105 C 187.945 -2.53143 2.37773 0
M  V30 2106 C 186.899 -2.41913 3.53075 0
M  V30 2107 C 186.225 -3.80088 3.76081 0
M  V30 2108 C 187.525 -1.91157 4.86062 0
M  V30 2109 H 189.219 -0.832293 2.87599 0
M  V30 2110 H 186.765 -0.398918 1.38364 0
M  V30 2111 H 188.718 -3.26047 2.66967 0
M  V30 2112 H 187.442 -2.91319 1.4765 0
M  V30 2113 H 186.101 -1.71462 3.24031 0
M  V30 2114 H 185.749 -4.15683 2.83225 0
M  V30 2115 H 185.449 -3.73439 4.53671 0
M  V30 2116 H 186.973 -4.54556 4.0769 0
M  V30 2117 H 188.387 -2.53846 5.14038 0
M  V30 2118 H 186.784 -1.95422 5.67389 0
M  V30 2119 H 187.854 -0.866673 4.77092 0
M  V30 2120 N 189.197 -1.51736 -0.425897 0
M  V30 2121 C 190.127 -1.76827 -1.52494 0
M  V30 2122 C 191.108 -0.618524 -1.58456 0
M  V30 2123 O 192.293 -0.862416 -1.74 0
M  V30 2124 C 189.423 -1.90374 -2.90474 0
M  V30 2125 C 188.377 -3.0588 -2.99369 0
M  V30 2126 C 187.703 -3.04625 -4.3944 0
M  V30 2127 C 189.003 -4.45644 -2.72394 0
M  V30 2128 H 190.697 -2.68855 -1.31748 0
M  V30 2129 H 188.243 -1.29372 -0.632362 0
M  V30 2130 H 190.196 -2.0651 -3.6733 0
M  V30 2131 H 188.92 -0.95004 -3.12477 0
M  V30 2132 H 187.579 -2.89467 -2.24954 0
M  V30 2133 H 187.227 -2.0701 -4.58428 0
M  V30 2134 H 186.927 -3.82195 -4.46319 0
M  V30 2135 H 188.451 -3.22869 -5.18255 0
M  V30 2136 H 189.865 -4.62348 -3.38979 0
M  V30 2137 H 188.262 -5.25006 -2.9067 0
M  V30 2138 H 189.332 -4.54893 -1.67929 0
M  V30 2139 N 190.675 0.682077 -1.42076 0
M  V30 2140 C 191.9 1.47558 -1.45744 0
M  V30 2141 C 192.325 1.87977 -0.0680981 0
M  V30 2142 O 191.683 1.55522 0.9318 0
M  V30 2143 C 191.731 2.70575 -2.38373 0
M  V30 2144 O 190.835 3.68573 -1.85007 0
M  V30 2145 H 190.176 0.443585 -0.494093 0
M  V30 2146 H 192.706 0.837238 -1.86686 0
M  V30 2147 H 192.716 3.18729 -2.54707 0
M  V30 2148 H 191.391 2.40495 -3.39315 0
M  V30 2149 H 189.968 3.2757 -1.78192 0
M  V30 2150 N 192.153 1.28127 0.917671 0
M  V30 2151 C 193.1 1.11717 2.0196 0
M  V30 2152 C 194.07 0.0153929 1.66093 0
M  V30 2153 O 195.255 0.179596 1.89953 0
M  V30 2154 C 192.395 0.780927 3.36148 0
M  V30 2155 C 191.508 1.96135 3.84909 0
M  V30 2156 C 190.643 1.56609 5.0759 0
M  V30 2157 C 189.682 2.71339 5.48673 0
M  V30 2158 N 188.819 2.32332 6.62545 0
M  V30 2159 H 193.659 2.06003 2.15329 0
M  V30 2160 H 191.196 1.02535 1.05475 0
M  V30 2161 H 193.154 0.56675 4.13333 0
M  V30 2162 H 191.784 -0.124998 3.22558 0
M  V30 2163 H 190.836 2.28777 3.03916 0
M  V30 2164 H 192.148 2.82165 4.1132 0
M  V30 2165 H 191.302 1.31374 5.92305 0
M  V30 2166 H 190.041 0.677014 4.82978 0
M  V30 2167 H 189.046 2.97276 4.62501 0
M  V30 2168 H 190.271 3.60882 5.75274 0
M  V30 2169 H 188.217 1.45889 6.39572 0
M  V30 2170 H 188.134 3.11899 6.88662 0
M  V30 2171 H 189.402 2.10371 7.50576 0
M  V30 2172 N 193.631 -1.12557 1.10312 0
M  V30 2173 C 194.579 -2.20325 0.745629 0
M  V30 2174 C 195.573 -1.67429 -0.25763 0
M  V30 2175 O 196.779 -1.79612 -0.118132 0
M  V30 2176 H 193.154 -0.718118 0.223182 0
M  V30 2177 H 195.125 -2.47733 1.66346 0
M  V30 2178 C 193.874 -3.47168 0.192262 0
M  V30 2179 H 193.197 -3.88215 0.955475 0
M  V30 2180 H 194.637 -4.23995 -0.0198274 0
M  V30 2181 C 193.096 -3.19298 -1.07472 0
M  V30 2182 O 193.626 -3.3891 -2.15645 0
M  V30 2183 N 191.832 -2.73113 -0.992847 0
M  V30 2184 H 191.379 -2.57354 -0.112474 0
M  V30 2185 H 191.337 -2.54842 -1.84127 0
M  V30 2186 N 195.109 -0.891671 -1.2995 0
M  V30 2187 C 196.355 -0.514261 -1.96171 0
M  V30 2188 C 196.688 0.935506 -1.70182 0
M  V30 2189 O 195.963 1.66204 -1.01028 0
M  V30 2190 C 196.246 -0.797719 -3.51153 0
M  V30 2191 C 196.099 -2.2986 -3.86632 0
M  V30 2192 C 197.418 -0.278749 -4.39216 0
M  V30 2193 H 194.537 -0.188314 -0.712535 0
M  V30 2194 H 197.179 -1.11689 -1.53706 0
M  V30 2195 H 195.329 -0.284826 -3.87455 0
M  V30 2196 H 197.001 -2.88042 -3.60319 0
M  V30 2197 H 195.244 -2.76257 -3.34462 0
M  V30 2198 H 195.915 -2.44753 -4.94773 0
M  V30 2199 H 198.391 -0.717825 -4.09862 0
M  V30 2200 H 197.267 -0.506353 -5.46559 0
M  V30 2201 H 197.528 0.820266 -4.34424 0
M  V30 2202 N 196.587 1.43421 -0.653314 0
M  V30 2203 C 197.55 2.29182 0.0287951 0
M  V30 2204 C 198.55 1.42213 0.750465 0
M  V30 2205 O 199.74 1.63843 0.591701 0
M  V30 2206 C 196.872 3.24278 1.05151 0
M  V30 2207 H 198.065 2.90985 -0.725786 0
M  V30 2208 H 195.618 1.50702 -0.414545 0
M  V30 2209 H 196.353 2.6737 1.83532 0
M  V30 2210 H 196.138 3.88396 0.537687 0
M  V30 2211 H 197.628 3.88647 1.52786 0
M  V30 2212 N 198.065 0.39524 1.52563 0
M  V30 2213 C 199.342 -0.242908 1.94086 0
M  V30 2214 C 199.722 -1.63841 1.33114 0
M  V30 2215 O 199.07 -2.22928 0.501529 0
M  V30 2216 C 199.28 -0.26327 3.48006 0
M  V30 2217 C 200.628 -0.489354 4.21771 0
M  V30 2218 O 201.652 -0.343226 3.54543 0
M  V30 2219 O 200.511 -0.776169 5.4096 0
M  V30 2220 H 197.605 -0.152536 0.812811 0
M  V30 2221 H 200.151 0.450178 1.6362 0
M  V30 2222 H 198.923 0.713985 3.84731 0
M  V30 2223 H 198.546 -1.00103 3.84792 0
M  V30 2224 N 199.544 -1.57102 0.125237 0
M  V30 2225 C 200.494 -2.12202 -0.833936 0
M  V30 2226 C 201.478 -1.04433 -1.22403 0
M  V30 2227 O 202.67 -1.30655 -1.19408 0
M  V30 2228 C 199.799 -2.72994 -2.08157 0
M  V30 2229 C 198.885 -3.87852 -1.71556 0
M  V30 2230 N 199.276 -4.9464 -1.05662 0
M  V30 2231 C 197.574 -3.98153 -2.00973 0
M  V30 2232 C 198.275 -5.74953 -0.883376 0
M  V30 2233 N 197.251 -5.24985 -1.41036 0
M  V30 2234 H 201.053 -2.92141 -0.321035 0
M  V30 2235 H 198.567 -1.62217 -0.0770315 0
M  V30 2236 H 200.564 -3.10816 -2.77847 0
M  V30 2237 H 199.224 -1.9452 -2.59985 0
M  V30 2238 H 200.235 -5.12872 -0.719878 0
M  V30 2239 H 196.912 -3.30728 -2.54804 0
M  V30 2240 H 198.302 -6.70904 -0.365675 0
M  V30 2241 N 201.022 0.148545 -1.56898 0
M  V30 2242 C 201.952 1.18524 -2.01182 0
M  V30 2243 C 202.933 1.4489 -0.891123 0
M  V30 2244 O 204.118 1.55836 -1.15882 0
M  V30 2245 C 201.248 2.51879 -2.39112 0
M  V30 2246 C 200.202 2.40038 -3.54353 0
M  V30 2247 C 199.528 3.78089 -3.78091 0
M  V30 2248 C 200.828 1.88577 -4.87069 0
M  V30 2249 H 202.522 0.817029 -2.88036 0
M  V30 2250 H 200.068 0.391575 -1.38574 0
M  V30 2251 H 202.021 3.24627 -2.68692 0
M  V30 2252 H 200.745 2.90532 -1.49193 0
M  V30 2253 H 199.404 1.69742 -3.24936 0
M  V30 2254 H 199.052 4.14175 -2.85426 0
M  V30 2255 H 198.752 3.71028 -4.55645 0
M  V30 2256 H 200.276 4.52387 -4.10095 0
M  V30 2257 H 201.69 2.51117 -5.15377 0
M  V30 2258 H 200.087 1.9241 -5.68417 0
M  V30 2259 H 201.157 0.84136 -4.77545 0
M  V30 2260 N 202.5 1.5196 0.417844 0
M  V30 2261 C 203.748 1.65263 1.16329 0
M  V30 2262 C 204.069 0.380634 1.91249 0
M  V30 2263 O 203.339 -0.604214 1.86349 0
M  V30 2264 H 201.919 0.60912 0.432414 0
M  V30 2265 H 204.581 1.88969 0.477162 0
M  V30 2266 H 203.677 2.4896 1.88217 0
M  V30 2267 N 203.978 -0.674533 1.42435 0
M  V30 2268 C 205.206 -1.46283 1.46317 0
M  V30 2269 C 205.621 -1.88653 0.0745836 0
M  V30 2270 O 204.978 -1.58151 -0.91074 0
M  V30 2271 C 205.029 -2.71178 2.3905 0
M  V30 2272 O 204.75 -2.30586 3.72507 0
M  V30 2273 C 206.251 -3.64738 2.51955 0
M  V30 2274 H 203.471 -0.450104 0.497642 0
M  V30 2275 H 206.015 -0.828792 1.86953 0
M  V30 2276 H 204.17 -3.3077 2.01667 0
M  V30 2277 H 204.584 -3.11241 4.22172 0
M  V30 2278 H 206.058 -4.49096 3.20962 0
M  V30 2279 H 206.535 -4.10656 1.55752 0
M  V30 2280 H 207.141 -3.11038 2.90061 0
M  V30 2281 N 205.456 -1.28612 -0.910864 0
M  V30 2282 C 206.681 -1.1891 -1.69927 0
M  V30 2283 C 207.106 0.248372 -1.86453 0
M  V30 2284 O 206.464 1.17961 -1.37676 0
M  V30 2285 C 206.512 -1.89578 -3.06745 0
M  V30 2286 O 205.616 -1.20521 -3.94396 0
M  V30 2287 H 204.957 -0.412632 -0.520222 0
M  V30 2288 H 207.487 -1.69985 -1.1387 0
M  V30 2289 H 207.497 -1.97597 -3.56958 0
M  V30 2290 H 206.172 -2.94136 -2.94035 0
M  V30 2291 H 204.749 -1.20684 -3.52831 0
M  V30 2292 N 206.934 1.1197 -1.10907 0
M  V30 2293 C 207.864 2.19928 -0.784473 0
M  V30 2294 C 208.845 1.6833 0.244726 0
M  V30 2295 O 210.03 1.93892 0.109418 0
M  V30 2296 C 207.16 3.46597 -0.220827 0
M  V30 2297 C 206.114 4.11376 -1.18127 0
M  V30 2298 C 205.44 5.32554 -0.478594 0
M  V30 2299 C 206.74 4.56945 -2.52979 0
M  V30 2300 H 208.434 2.47337 -1.68715 0
M  V30 2301 H 205.98 1.18879 -0.812642 0
M  V30 2302 H 207.933 4.21396 0.0184278 0
M  V30 2303 H 206.657 3.1863 0.717113 0
M  V30 2304 H 205.316 3.38564 -1.40606 0
M  V30 2305 H 204.964 5.00856 0.463976 0
M  V30 2306 H 204.664 5.76844 -1.11912 0
M  V30 2307 H 206.188 6.10096 -0.248 0
M  V30 2308 H 207.602 5.23093 -2.3462 0
M  V30 2309 H 205.999 5.1203 -3.12962 0
M  V30 2310 H 207.069 3.70676 -3.12614 0
M  V30 2311 N 208.412 0.89855 1.29475 0
M  V30 2312 C 209.66 0.522847 1.9522 0
M  V30 2313 C 209.981 -0.93371 1.71192 0
M  V30 2314 O 209.251 -1.65823 1.04305 0
M  V30 2315 H 207.831 0.190366 0.722336 0
M  V30 2316 H 210.493 1.14459 1.5775 0
M  V30 2317 H 209.589 0.704476 3.04045 0
M  V30 2318 N 209.89 -1.43072 0.660911 0
M  V30 2319 C 211.306 -1.56169 0.329173 0
M  V30 2320 C 211.506 -1.64317 -1.16629 0
M  V30 2321 O 210.562 -1.60245 -1.95135 0
M  V30 2322 C 211.875 -2.81873 1.04729 0
M  V30 2323 C 213.423 -2.95627 1.02828 0
M  V30 2324 C 213.898 -4.24174 1.72744 0
M  V30 2325 N 215.389 -4.31055 1.69545 0
M  V30 2326 C 216.124 -5.29304 2.20511 0
M  V30 2327 N 215.62 -6.33786 2.79799 0
M  V30 2328 N 217.413 -5.21008 2.10966 0
M  V30 2329 H 209.564 -1.36027 1.63127 0
M  V30 2330 H 211.827 -0.653823 0.686454 0
M  V30 2331 H 211.533 -2.81942 2.10242 0
M  V30 2332 H 211.407 -3.72338 0.603702 0
M  V30 2333 H 213.794 -2.95094 -0.0184742 0
M  V30 2334 H 213.875 -2.06431 1.51063 0
M  V30 2335 H 213.519 -4.25467 2.7738 0
M  V30 2336 H 213.449 -5.1228 1.2197 0
M  V30 2337 H 215.94 -3.56174 1.26288 0
M  V30 2338 H 216.253 -7.05086 3.16344 0
M  V30 2339 H 214.598 -6.34387 2.83863 0
M  V30 2340 H 217.789 -4.38301 1.64347 0
M  V30 2341 H 217.962 -5.97416 2.50993 0
M  V30 2342 N 211.368 -0.403325 -1.52352 0
M  V30 2343 C 212.614 0.174605 -2.02047 0
M  V30 2344 C 212.947 1.45282 -1.28867 0
M  V30 2345 O 212.222 1.90483 -0.393257 0
M  V30 2346 C 212.505 0.428238 -3.57545 0
M  V30 2347 C 212.358 -0.866248 -4.4138 0
M  V30 2348 C 213.677 1.21287 -4.23057 0
M  V30 2349 H 210.796 0.0619851 -0.734389 0
M  V30 2350 H 213.438 -0.53565 -1.82293 0
M  V30 2351 H 211.588 1.03327 -3.74507 0
M  V30 2352 H 213.26 -1.50265 -4.3614 0
M  V30 2353 H 211.503 -1.47851 -4.07827 0
M  V30 2354 H 212.174 -0.643249 -5.48239 0
M  V30 2355 H 214.65 0.700703 -4.10158 0
M  V30 2356 H 213.526 1.35909 -5.31808 0
M  V30 2357 H 213.787 2.23193 -3.81625 0
M  V30 2358 N 212.846 1.57033 -0.133567 0
M  V30 2359 C 213.794 2.17348 0.828412 0
M  V30 2360 C 214.788 1.12671 1.26498 0
M  V30 2361 O 215.994 1.30947 1.23502 0
M  V30 2362 H 212.369 0.695775 0.285309 0
M  V30 2363 H 214.34 2.96935 0.295372 0
M  V30 2364 C 213.089 2.79893 2.06289 0
M  V30 2365 H 212.412 3.60147 1.73592 0
M  V30 2366 H 213.852 3.25615 2.71572 0
M  V30 2367 C 212.311 1.77713 2.86216 0
M  V30 2368 O 212.841 1.23937 3.82103 0
M  V30 2369 N 211.047 1.47321 2.50489 0
M  V30 2370 H 210.594 1.91243 1.7258 0
M  V30 2371 H 210.552 0.79199 3.04261 0
M  V30 2372 N 214.325 -0.140222 1.56975 0
M  V30 2373 C 215.255 -1.17456 2.01808 0
M  V30 2374 C 216.236 -1.44415 0.898794 0
M  V30 2375 O 217.421 -1.5522 1.16707 0
M  V30 2376 C 214.551 -2.50607 2.40444 0
M  V30 2377 C 213.505 -2.38155 3.55621 0
M  V30 2378 C 212.831 -3.76078 3.80091 0
M  V30 2379 C 214.131 -1.85991 4.88062 0
M  V30 2380 H 215.825 -0.801743 2.88466 0
M  V30 2381 H 213.371 -0.38422 1.38779 0
M  V30 2382 H 215.324 -3.23197 2.7041 0
M  V30 2383 H 214.048 -2.89737 1.50732 0
M  V30 2384 H 212.707 -1.68016 3.25832 0
M  V30 2385 H 212.355 -4.12656 2.87618 0
M  V30 2386 H 212.055 -3.68606 4.57606 0
M  V30 2387 H 213.579 -4.50206 4.12488 0
M  V30 2388 H 214.993 -2.4838 5.16701 0
M  V30 2389 H 213.39 -1.89393 5.6943 0
M  V30 2390 H 214.46 -0.816023 4.77984 0
M  V30 2391 N 215.803 -1.52179 -0.40978 0
M  V30 2392 C 216.75 -1.75475 -1.49924 0
M  V30 2393 C 217.72 -0.597175 -1.54994 0
M  V30 2394 O 218.905 -0.834655 -1.71575 0
M  V30 2395 C 216.045 -1.9107 -2.87378 0
M  V30 2396 C 215.158 -3.18717 -2.91622 0
M  V30 2397 C 214.293 -3.24747 -4.20372 0
M  V30 2398 C 213.332 -4.46598 -4.18588 0
M  V30 2399 N 212.469 -4.50025 -5.38908 0
M  V30 2400 H 217.309 -2.68458 -1.29361 0
M  V30 2401 H 214.846 -1.33024 -0.627934 0
M  V30 2402 H 216.804 -1.98096 -3.6717 0
M  V30 2403 H 215.434 -1.01469 -3.06437 0
M  V30 2404 H 214.486 -3.20866 -2.04326 0
M  V30 2405 H 215.798 -4.08544 -2.86169 0
M  V30 2406 H 214.952 -3.30841 -5.08556 0
M  V30 2407 H 213.691 -2.32857 -4.28519 0
M  V30 2408 H 212.696 -4.40652 -3.28794 0
M  V30 2409 H 213.921 -5.39783 -4.12081 0
M  V30 2410 H 211.867 -3.61017 -5.47725 0
M  V30 2411 H 211.784 -5.33697 -5.35447 0
M  V30 2412 H 213.052 -4.60347 -6.29048 0
M  V30 2413 N 217.281 0.66697 -1.42791 0
M  V30 2414 C 218.697 0.981027 -1.25889 0
M  V30 2415 C 218.897 2.00793 -0.168695 0
M  V30 2416 O 217.953 2.48321 0.45747 0
M  V30 2417 C 219.266 1.47838 -2.61848 0
M  V30 2418 C 220.814 1.59575 -2.69267 0
M  V30 2419 C 221.289 2.12704 -4.05612 0
M  V30 2420 N 222.78 2.20026 -4.07606 0
M  V30 2421 C 223.515 2.62227 -5.09926 0
M  V30 2422 N 223.011 3.03824 -6.22626 0
M  V30 2423 N 224.804 2.62045 -4.97281 0
M  V30 2424 H 216.955 -0.0127891 -2.12396 0
M  V30 2425 H 219.218 0.0568258 -0.946295 0
M  V30 2426 H 218.924 0.798299 -3.4252 0
M  V30 2427 H 218.798 2.45579 -2.86305 0
M  V30 2428 H 221.185 2.26687 -1.88936 0
M  V30 2429 H 221.266 0.60302 -2.48591 0
M  V30 2430 H 220.91 1.46198 -4.86404 0
M  V30 2431 H 220.84 3.12782 -4.23645 0
M  V30 2432 H 223.331 1.90708 -3.2625 0
M  V30 2433 H 223.644 3.34734 -6.96544 0
M  V30 2434 H 221.989 3.01662 -6.26119 0
M  V30 2435 H 225.18 2.28916 -4.08308 0
M  V30 2436 H 225.353 2.94613 -5.77154 0
M  V30 2437 N 218.759 1.29093 0.90403 0
M  V30 2438 C 220.006 1.16813 1.65411 0
M  V30 2439 C 220.334 -0.28128 1.92455 0
M  V30 2440 O 219.589 -1.22006 1.53013 0
M  V30 2441 C 219.888 1.92224 3.01305 0
M  V30 2442 C 219.554 3.41968 2.93885 0
M  V30 2443 C 218.216 3.82807 2.91569 0
M  V30 2444 C 220.568 4.37409 2.83413 0
M  V30 2445 C 217.896 5.1741 2.76594 0
M  V30 2446 C 220.248 5.72097 2.69977 0
M  V30 2447 C 218.912 6.12199 2.66024 0
M  V30 2448 H 218.182 0.42745 0.605283 0
M  V30 2449 H 220.829 1.59981 1.05254 0
M  V30 2450 H 219.134 1.41635 3.65304 0
M  V30 2451 H 220.831 1.80131 3.58265 0
M  V30 2452 H 217.421 3.09504 2.96488 0
M  V30 2453 H 221.605 4.06813 2.84283 0
M  V30 2454 H 216.861 5.47596 2.71935 0
M  V30 2455 H 221.035 6.45704 2.60844 0
M  V30 2456 H 218.662 7.16448 2.54178 0
M  V30 2457 N 220.237 -1.11381 1.11499 0
M  V30 2458 C 221.2 -2.15622 0.777153 0
M  V30 2459 C 222.2 -1.59504 -0.203779 0
M  V30 2460 O 223.39 -1.74188 0.020782 0
M  V30 2461 C 220.522 -3.40556 0.153116 0
M  V30 2462 H 221.715 -2.47021 1.70061 0
M  V30 2463 H 219.268 -1.26577 0.916952 0
M  V30 2464 H 220.003 -3.14767 -0.780536 0
M  V30 2465 H 219.788 -3.8257 0.859238 0
M  V30 2466 H 221.278 -4.17546 -0.0671044 0
M  V30 2467 N 221.715 -0.905404 -1.28997 0
M  V30 2468 C 222.992 -0.453513 -1.9027 0
M  V30 2469 C 223.372 1.06721 -1.82137 0
M  V30 2470 O 222.72 1.91159 -1.25182 0
M  V30 2471 C 222.93 -0.974494 -3.35119 0
M  V30 2472 C 224.278 -1.0216 -4.12127 0
M  V30 2473 O 225.302 -0.922557 -3.44046 0
M  V30 2474 O 224.161 -1.17121 -5.33802 0
M  V30 2475 H 221.255 -0.142347 -0.814657 0
M  V30 2476 H 223.801 -0.995642 -1.37423 0
M  V30 2477 H 222.573 -2.01848 -3.35221 0
M  V30 2478 H 222.196 -0.412706 -3.95452 0
M  V30 2479 N 223.193 1.4272 -0.668489 0
M  V30 2480 C 224.441 2.01226 -0.187769 0
M  V30 2481 C 224.762 1.53092 1.2078 0
M  V30 2482 O 224.032 0.74993 1.80977 0
M  V30 2483 H 222.612 0.744041 -0.0664272 0
M  V30 2484 H 225.274 1.74723 -0.863583 0
M  V30 2485 H 224.37 3.11556 -0.184166 0
M  V30 2486 N 224.671 0.411399 1.52136 0
M  V30 2487 C 225.581 -0.419774 2.30814 0
M  V30 2488 C 226.597 -1.0515 1.38634 0
M  V30 2489 O 227.773 -1.05252 1.71709 0
M  V30 2490 C 224.838 -1.52019 3.11594 0
M  V30 2491 C 223.899 -0.91129 4.19516 0
M  V30 2492 C 223.132 -1.95927 4.96436 0
M  V30 2493 O 223.355 -3.17775 4.73683 0
M  V30 2494 O 222.289 -1.56423 5.81219 0
M  V30 2495 H 226.115 0.221805 3.02889 0
M  V30 2496 H 223.7 0.174547 1.48377 0
M  V30 2497 H 225.582 -2.15898 3.61892 0
M  V30 2498 H 224.257 -2.14633 2.42311 0
M  V30 2499 H 223.164 -0.235157 3.7336 0
M  V30 2500 H 224.497 -0.32904 4.91099 0
M  V30 2501 N 226.149 -1.5696 0.141893 0
M  V30 2502 C 227.395 -1.9625 -0.511248 0
M  V30 2503 C 227.728 -1.02654 -1.64851 0
M  V30 2504 O 227.003 -0.0679676 -1.94381 0
M  V30 2505 C 227.286 -3.45285 -1.02227 0
M  V30 2506 C 227.139 -4.49658 0.113138 0
M  V30 2507 C 228.458 -3.96698 -1.90574 0
M  V30 2508 H 225.577 -0.713567 -0.184367 0
M  V30 2509 H 228.219 -1.88698 0.222087 0
M  V30 2510 H 226.369 -3.51852 -1.64719 0
M  V30 2511 H 228.041 -4.55174 0.749302 0
M  V30 2512 H 226.284 -4.26857 0.773026 0
M  V30 2513 H 226.955 -5.51258 -0.286053 0
M  V30 2514 H 229.431 -3.92578 -1.37918 0
M  V30 2515 H 228.307 -5.01453 -2.2324 0
M  V30 2516 H 228.568 -3.3875 -2.84079 0
M  V30 2517 N 227.627 0.131896 -1.57047 0
M  V30 2518 C 228.852 0.860418 -1.8871 0
M  V30 2519 C 229.277 1.73251 -0.73251 0
M  V30 2520 O 228.635 1.785 0.317429 0
M  V30 2521 C 228.683 1.68047 -3.19049 0
M  V30 2522 O 227.787 2.7862 -3.04047 0
M  V30 2523 H 227.128 0.238743 -0.619595 0
M  V30 2524 H 229.658 0.118169 -2.04258 0
M  V30 2525 H 229.668 2.07238 -3.51449 0
M  V30 2526 H 228.343 1.04018 -4.02682 0
M  V30 2527 H 226.92 2.42726 -2.83088 0
M  V30 2528 N 229.106 1.52395 0.401703 0
M  V30 2529 C 230.039 1.70999 1.51111 0
M  V30 2530 C 231.017 0.55765 1.52738 0
M  V30 2531 O 232.201 0.785912 1.71335 0
M  V30 2532 C 229.328 1.75607 2.8962 0
M  V30 2533 C 228.374 2.97227 3.05873 0
M  V30 2534 S 229.207 4.57439 2.78405 0
M  V30 2535 C 230.363 4.64844 4.19131 0
M  V30 2536 H 230.596 2.6483 1.35102 0
M  V30 2537 H 228.129 1.42527 0.593762 0
M  V30 2538 H 230.087 1.78947 3.69443 0
M  V30 2539 H 228.748 0.828914 3.02965 0
M  V30 2540 H 227.941 2.96955 4.07227 0
M  V30 2541 H 227.543 2.91813 2.33925 0
M  V30 2542 H 229.835 4.42677 5.12877 0
M  V30 2543 H 230.778 5.66807 4.24424 0
M  V30 2544 H 231.186 3.93804 4.04448 0
M  V30 2545 N 230.584 -0.659388 1.43143 0
M  V30 2546 C 231.516 -1.7849 1.43784 0
M  V30 2547 C 232.529 -1.5932 0.334787 0
M  V30 2548 O 233.718 -1.68155 0.598842 0
M  V30 2549 C 230.818 -3.15828 1.22906 0
M  V30 2550 C 229.991 -3.61711 2.45934 0
M  V30 2551 C 229.05 -4.77831 2.20371 0
M  V30 2552 O 228.076 -4.87586 2.93681 0
M  V30 2553 N 229.278 -5.67611 1.21647 0
M  V30 2554 H 232.043 -1.7842 2.40803 0
M  V30 2555 H 229.604 -0.84302 1.3822 0
M  V30 2556 H 231.596 -3.91189 1.03697 0
M  V30 2557 H 230.166 -3.10707 0.343542 0
M  V30 2558 H 229.386 -2.76861 2.80609 0
M  V30 2559 H 230.674 -3.89112 3.27825 0
M  V30 2560 H 230.072 -5.62397 0.610449 0
M  V30 2561 H 228.629 -6.42719 1.08423 0
M  V30 2562 N 232.062 -1.29571 -0.897171 0
M  V30 2563 C 233.309 -1.17689 -1.6479 0
M  V30 2564 C 233.637 0.27107 -1.92602 0
M  V30 2565 O 232.892 1.21193 -1.53658 0
M  V30 2566 C 233.191 -1.9382 -3.00281 0
M  V30 2567 C 232.857 -3.43522 -2.92068 0
M  V30 2568 C 231.519 -3.84348 -2.89535 0
M  V30 2569 C 233.871 -4.38906 -2.81089 0
M  V30 2570 C 231.199 -5.18869 -2.73846 0
M  V30 2571 C 233.551 -5.73521 -2.66939 0
M  V30 2572 C 232.215 -6.13601 -2.62774 0
M  V30 2573 H 231.485 -0.430654 -0.603008 0
M  V30 2574 H 234.132 -1.60536 -1.04404 0
M  V30 2575 H 232.437 -1.4357 -3.64547 0
M  V30 2576 H 234.134 -1.82028 -3.57305 0
M  V30 2577 H 230.724 -3.11072 -2.94842 0
M  V30 2578 H 234.908 -4.08315 -2.82121 0
M  V30 2579 H 230.164 -5.4903 -2.69027 0
M  V30 2580 H 234.338 -6.47078 -2.57416 0
M  V30 2581 H 231.965 -7.17786 -2.50375 0
M  V30 2582 N 233.54 1.10788 -1.12088 0
M  V30 2583 C 234.47 2.19083 -0.807755 0
M  V30 2584 C 235.451 1.6858 0.226859 0
M  V30 2585 O 236.636 1.93997 0.0888475 0
M  V30 2586 C 233.766 3.46344 -0.257576 0
M  V30 2587 C 232.72 4.101 -1.22483 0
M  V30 2588 C 232.046 5.32016 -0.535052 0
M  V30 2589 C 233.346 4.54236 -2.57811 0
M  V30 2590 H 235.04 2.45534 -1.71328 0
M  V30 2591 H 232.586 1.1801 -0.825205 0
M  V30 2592 H 234.539 4.21392 -0.0262679 0
M  V30 2593 H 233.263 3.19373 0.683278 0
M  V30 2594 H 231.922 3.37054 -1.44189 0
M  V30 2595 H 231.57 5.01319 0.410827 0
M  V30 2596 H 231.27 5.75625 -1.18024 0
M  V30 2597 H 232.794 6.09799 -0.312695 0
M  V30 2598 H 234.208 5.20575 -2.40155 0
M  V30 2599 H 232.605 5.08682 -3.18375 0
M  V30 2600 H 233.675 3.6734 -3.16528 0
M  V30 2601 N 235.018 0.912232 1.28515 0
M  V30 2602 C 235.928 0.404506 2.31086 0
M  V30 2603 C 236.944 -0.50707 1.66448 0
M  V30 2604 O 238.12 -0.393624 1.97516 0
M  V30 2605 C 235.185 -0.348572 3.44943 0
M  V30 2606 C 234.246 0.59604 4.25142 0
M  V30 2607 C 233.479 -0.121194 5.33562 0
M  V30 2608 O 233.702 -1.34317 5.5436 0
M  V30 2609 O 232.636 0.542716 5.99448 0
M  V30 2610 H 236.462 1.25579 2.76521 0
M  V30 2611 H 234.047 0.676998 1.33181 0
M  V30 2612 H 235.929 -0.77395 4.14232 0
M  V30 2613 H 234.604 -1.17571 3.01594 0
M  V30 2614 H 233.511 1.07079 3.58448 0
M  V30 2615 H 234.844 1.38995 4.72167 0
M  V30 2616 N 236.496 -1.42363 0.676048 0
M  V30 2617 C 237.721 -2.06377 0.205705 0
M  V30 2618 C 238.146 -1.50463 -1.12883 0
M  V30 2619 O 237.504 -0.623619 -1.70237 0
M  V30 2620 C 237.552 -3.60277 0.152655 0
M  V30 2621 O 236.656 -4.02935 -0.87845 0
M  V30 2622 H 235.997 -0.655588 0.105359 0
M  V30 2623 H 238.527 -1.82475 0.925412 0
M  V30 2624 H 238.537 -4.07993 -0.0230675 0
M  V30 2625 H 237.212 -4.00346 1.12675 0
M  V30 2626 H 235.789 -3.66764 -0.673668 0
M  V30 2627 N 237.974 -0.419461 -1.51915 0
M  V30 2628 C 239.223 0.154346 -2.01109 0
M  V30 2629 C 239.536 1.45338 -1.30905 0
M  V30 2630 O 240.742 2.10906 -1.7097 0
M  V30 2631 C 239.198 0.325615 -3.58424 0
M  V30 2632 C 238.806 -0.961934 -4.37551 0
M  V30 2633 C 240.55 0.854155 -4.15818 0
M  V30 2634 C 238.457 -0.757287 -5.86531 0
M  V30 2635 H 237.387 0.0614563 -0.751491 0
M  V30 2636 H 240.038 -0.54649 -1.75173 0
M  V30 2637 H 238.42 1.08903 -3.80731 0
M  V30 2638 H 239.594 -1.7323 -4.26999 0
M  V30 2639 H 237.909 -1.41766 -3.91524 0
M  V30 2640 H 240.506 1.02346 -5.24814 0
M  V30 2641 H 240.849 1.83172 -3.73837 0
M  V30 2642 H 241.382 0.149528 -3.97519 0
M  V30 2643 H 238.121 -1.70671 -6.32892 0
M  V30 2644 H 237.641 -0.0264061 -5.99794 0
M  V30 2645 H 239.32 -0.403482 -6.45741 0
M  V30 2646 N 239.452 1.56882 -0.150215 0
M  V30 2647 C 240.868 1.58263 0.20617 0
M  V30 2648 C 241.068 1.16464 1.64434 0
M  V30 2649 O 240.124 0.866422 2.3717 0
M  V30 2650 C 241.437 3.00649 -0.0555025 0
M  V30 2651 C 242.985 3.12999 0.00795388 0
M  V30 2652 C 243.46 4.5744 -0.226429 0
M  V30 2653 N 244.951 4.62875 -0.173469 0
M  V30 2654 C 245.686 5.72454 -0.329288 0
M  V30 2655 N 245.182 6.90669 -0.543005 0
M  V30 2656 N 246.975 5.61467 -0.266666 0
M  V30 2657 H 239.126 1.82345 -1.08922 0
M  V30 2658 H 241.389 0.844149 -0.431413 0
M  V30 2659 H 241.095 3.3563 -1.05096 0
M  V30 2660 H 240.969 3.71337 0.66246 0
M  V30 2661 H 243.356 2.77857 0.993966 0
M  V30 2662 H 243.437 2.4479 -0.742388 0
M  V30 2663 H 243.081 4.93287 -1.20956 0
M  V30 2664 H 243.011 5.2378 0.544274 0
M  V30 2665 H 245.502 3.77898 -0.0130709 0
M  V30 2666 H 245.815 7.70045 -0.651922 0
M  V30 2667 H 244.16 6.92581 -0.579366 0
M  V30 2668 H 247.351 4.67992 -0.100441 0
M  V30 2669 H 247.524 6.46816 -0.391535 0
M  V30 2670 N 240.93 -0.123565 1.57115 0
M  V30 2671 C 242.178 -0.83051 1.84247 0
M  V30 2672 C 242.499 -1.80629 0.73471 0
M  V30 2673 O 241.769 -1.94403 -0.241688 0
M  V30 2674 H 240.349 -0.309694 0.679778 0
M  V30 2675 H 243.011 -0.111976 1.94578 0
M  V30 2676 H 242.107 -1.37852 2.80006 0
M  V30 2677 N 242.408 -1.52605 -0.393616 0
M  V30 2678 C 243.355 -1.77055 -1.48054 0
M  V30 2679 C 244.325 -0.61358 -1.54352 0
M  V30 2680 O 245.51 -0.852806 -1.70681 0
M  V30 2681 C 242.65 -1.94108 -2.85335 0
M  V30 2682 C 241.763 -3.21792 -2.88226 0
M  V30 2683 C 240.898 -3.29188 -4.16904 0
M  V30 2684 C 239.937 -4.51013 -4.13828 0
M  V30 2685 N 239.074 -4.55716 -5.34105 0
M  V30 2686 H 243.914 -2.69815 -1.26506 0
M  V30 2687 H 241.451 -1.33683 -0.61379 0
M  V30 2688 H 243.409 -2.01979 -3.65049 0
M  V30 2689 H 242.039 -1.04713 -3.05344 0
M  V30 2690 H 241.091 -3.23015 -2.00911 0
M  V30 2691 H 242.403 -4.11557 -2.8182 0
M  V30 2692 H 241.557 -3.36216 -5.05018 0
M  V30 2693 H 240.296 -2.37389 -4.26026 0
M  V30 2694 H 239.301 -4.44115 -3.24102 0
M  V30 2695 H 240.526 -5.44123 -4.06333 0
M  V30 2696 H 238.472 -3.66807 -5.43865 0
M  V30 2697 H 238.389 -5.39346 -5.29756 0
M  V30 2698 H 239.657 -4.66993 -6.2413 0
M  V30 2699 N 243.887 0.651787 -1.4349 0
M  V30 2700 C 245.164 1.40909 -1.35661 0
M  V30 2701 C 245.544 2.11099 -0.00511733 0
M  V30 2702 O 244.892 2.04892 1.0115 0
M  V30 2703 C 245.102 2.3926 -2.54078 0
M  V30 2704 C 246.45 3.03217 -2.97228 0
M  V30 2705 O 247.474 2.49588 -2.54135 0
M  V30 2706 O 246.333 4.00455 -3.71885 0
M  V30 2707 H 243.427 0.629625 -0.536191 0
M  V30 2708 H 245.973 0.678575 -1.55542 0
M  V30 2709 H 244.745 1.86352 -3.44076 0
M  V30 2710 H 244.368 3.1976 -2.36303 0
M  V30 2711 N 245.365 1.30045 0.890287 0
M  V30 2712 C 246.611 1.18737 1.64406 0
M  V30 2713 C 246.944 -0.258525 1.92472 0
M  V30 2714 O 246.219 -1.18562 1.54186 0
M  V30 2715 C 246.502 2.01087 2.98724 0
M  V30 2716 C 246.355 3.53867 2.77665 0
M  V30 2717 C 247.674 1.84457 3.9958 0
M  V30 2718 H 244.793 0.432698 0.596608 0
M  V30 2719 H 247.435 1.5962 1.0306 0
M  V30 2720 H 245.585 1.66349 3.51084 0
M  V30 2721 H 247.257 3.98637 2.32133 0
M  V30 2722 H 245.5 3.78318 2.12269 0
M  V30 2723 H 246.171 4.06772 3.7315 0
M  V30 2724 H 248.647 2.14817 3.56361 0
M  V30 2725 H 247.523 2.44411 4.91482 0
M  V30 2726 H 247.784 0.802276 4.3476 0
M  V30 2727 N 246.843 -1.10192 1.12674 0
M  V30 2728 C 248.073 -1.85713 0.905213 0
M  V30 2729 C 248.481 -1.81056 -0.549108 0
M  V30 2730 O 247.824 -1.19927 -1.39151 0
M  V30 2731 C 247.886 -3.34972 1.30516 0
M  V30 2732 C 247.55 -3.63385 2.77129 0
M  V30 2733 C 248.547 -3.59772 3.75313 0
M  V30 2734 C 246.232 -3.91981 3.14096 0
M  V30 2735 C 248.226 -3.84354 5.08479 0
M  V30 2736 C 245.913 -4.16218 4.47443 0
M  V30 2737 C 246.911 -4.12395 5.44444 0
M  V30 2738 O 246.599 -4.36014 6.75387 0
M  V30 2739 H 246.331 -0.593719 0.323223 0
M  V30 2740 H 248.885 -1.40198 1.50112 0
M  V30 2741 H 247.115 -3.81156 0.652463 0
M  V30 2742 H 248.804 -3.91886 1.05736 0
M  V30 2743 H 249.57 -3.37716 3.48099 0
M  V30 2744 H 245.449 -3.94085 2.39202 0
M  V30 2745 H 248.993 -3.81285 5.84181 0
M  V30 2746 H 244.89 -4.37754 4.74386 0
M  V30 2747 H 245.658 -4.53516 6.8137 0
M  V30 2748 N 248.321 -0.919034 -1.28029 0
M  V30 2749 C 249.57 -0.550802 -1.94034 0
M  V30 2750 C 249.883 0.910877 -1.73096 0
M  V30 2751 O 251.089 1.3875 -2.33368 0
M  V30 2752 C 249.545 -0.934249 -3.47563 0
M  V30 2753 C 249.153 -2.41602 -3.7727 0
M  V30 2754 C 250.897 -0.636854 -4.19696 0
M  V30 2755 C 248.804 -2.73932 -5.24133 0
M  V30 2756 H 247.734 -0.202273 -0.726362 0
M  V30 2757 H 250.385 -1.11867 -1.45458 0
M  V30 2758 H 248.767 -0.295115 -3.94899 0
M  V30 2759 H 249.941 -3.10233 -3.40723 0
M  V30 2760 H 248.256 -2.68441 -3.18321 0
M  V30 2761 H 250.853 -0.855005 -5.2782 0
M  V30 2762 H 251.196 0.425575 -4.14119 0
M  V30 2763 H 251.729 -1.23469 -3.78154 0
M  V30 2764 H 248.468 -3.79049 -5.34792 0
M  V30 2765 H 247.988 -2.09942 -5.61858 0
M  V30 2766 H 249.667 -2.61215 -5.91925 0
M  V30 2767 N 249.799 1.42003 -0.683588 0
M  V30 2768 C 251.048 2.00638 -0.206681 0
M  V30 2769 C 251.361 1.5472 1.19671 0
M  V30 2770 O 252.567 2.05833 1.77045 0
M  V30 2771 C 251.023 3.58487 -0.318632 0
M  V30 2772 C 250.631 4.1339 -1.72663 0
M  V30 2773 C 252.375 4.24384 0.0991141 0
M  V30 2774 C 250.282 5.63633 -1.79087 0
M  V30 2775 H 249.212 0.750408 -0.0735107 0
M  V30 2776 H 251.863 1.62624 -0.850048 0
M  V30 2777 H 250.245 3.94047 0.392781 0
M  V30 2778 H 251.419 3.89273 -2.46583 0
M  V30 2779 H 249.734 3.59976 -2.09299 0
M  V30 2780 H 252.331 5.34652 0.0713833 0
M  V30 2781 H 252.674 4.00505 1.13586 0
M  V30 2782 H 253.207 3.93816 -0.561599 0
M  V30 2783 H 249.946 5.92323 -2.80774 0
M  V30 2784 H 249.466 5.89714 -1.09535 0
M  V30 2785 H 251.145 6.28201 -1.5483 0
M  V30 2786 N 251.277 0.427512 1.51691 0
M  V30 2787 C 252.209 -0.424521 2.25234 0
M  V30 2788 C 253.222 -0.994671 1.2888 0
M  V30 2789 O 254.411 -0.890483 1.54702 0
M  V30 2790 C 251.511 -1.60479 2.98496 0
M  V30 2791 C 250.684 -1.15527 4.21868 0
M  V30 2792 C 249.743 -2.20454 4.77793 0
M  V30 2793 O 248.769 -1.8029 5.39893 0
M  V30 2794 N 249.971 -3.52831 4.60967 0
M  V30 2795 H 252.736 0.205749 2.98993 0
M  V30 2796 H 250.297 0.255867 1.59865 0
M  V30 2797 H 252.289 -2.30276 3.32799 0
M  V30 2798 H 250.859 -2.14061 2.27809 0
M  V30 2799 H 250.079 -0.284736 3.9317 0
M  V30 2800 H 251.367 -0.832173 5.01949 0
M  V30 2801 H 250.765 -3.88201 4.11481 0
M  V30 2802 H 249.322 -4.18551 4.99658 0
M  V30 2803 N 252.755 -1.56801 0.158532 0
M  V30 2804 C 254.166 -1.83189 -0.360366 0
M  V30 2805 C 254.517 -1.07778 -1.63946 0
M  V30 2806 O 253.642 -0.326718 -2.13919 0
M  V30 2807 C 254.237 -3.32297 -0.660595 0
M  V30 2808 C 252.796 -3.59227 -1.12398 0
M  V30 2809 C 251.943 -2.76877 -0.153097 0
M  V30 2810 H 254.894 -1.54008 0.383031 0
M  V30 2811 H 254.915 -3.4908 -1.51405 0
M  V30 2812 H 254.427 -3.87156 0.270527 0
M  V30 2813 H 252.528 -3.09766 -2.07064 0
M  V30 2814 H 252.641 -4.67632 -1.04197 0
M  V30 2815 H 251.005 -2.46319 -0.647983 0
M  V30 2816 H 251.788 -3.34511 0.77182 0
M  V30 2817 N 254.233 0.115231 -1.57178 0
M  V30 2818 C 255.461 0.836437 -1.89239 0
M  V30 2819 C 255.876 1.73256 -0.750175 0
M  V30 2820 O 255.233 1.80357 0.278832 0
M  V30 2821 C 255.284 1.66671 -3.20785 0
M  V30 2822 O 255.005 0.806652 -4.3061 0
M  V30 2823 C 256.506 2.49274 -3.66575 0
M  V30 2824 H 253.726 0.240253 -0.626514 0
M  V30 2825 H 256.27 0.0984932 -2.04263 0
M  V30 2826 H 254.425 2.35737 -3.0742 0
M  V30 2827 H 254.839 1.37969 -5.06028 0
M  V30 2828 H 256.313 3.03055 -4.6137 0
M  V30 2829 H 256.79 3.26807 -2.93417 0
M  V30 2830 H 257.396 1.85443 -3.82741 0
M  V30 2831 N 255.711 1.52812 0.385517 0
M  V30 2832 C 256.951 1.69716 1.13911 0
M  V30 2833 C 257.315 0.42962 1.87132 0
M  V30 2834 O 258.516 0.475071 2.64569 0
M  V30 2835 C 256.787 2.90021 2.0886 0
M  V30 2836 S 258.346 3.27531 2.92009 0
M  V30 2837 H 255.164 0.59739 0.385547 0
M  V30 2838 H 257.766 1.90868 0.423061 0
M  V30 2839 H 256.47 3.80493 1.53797 0
M  V30 2840 H 256.001 2.71213 2.84969 0
M  V30 2841 H 258.016 2.77989 4.11019 0
M  V30 2842 N 257.189 -0.644168 1.43834 0
M  V30 2843 C 258.6 -1.22554 1.40845 0
M  V30 2844 C 258.951 -1.9585 0.117115 0
M  V30 2845 O 258.076 -2.01734 -0.783086 0
M  V30 2846 C 258.671 -2.22907 2.55143 0
M  V30 2847 C 257.23 -2.76501 2.5539 0
M  V30 2848 C 256.377 -1.51287 2.32396 0
M  V30 2849 H 259.328 -0.43563 1.52604 0
M  V30 2850 H 259.349 -3.05259 2.2715 0
M  V30 2851 H 258.861 -1.69533 3.49114 0
M  V30 2852 H 256.962 -3.33914 1.65324 0
M  V30 2853 H 257.075 -3.23429 3.53455 0
M  V30 2854 H 255.439 -1.78957 1.81236 0
M  V30 2855 H 256.222 -0.998336 3.28463 0
M  V30 2856 N 258.668 -1.30515 -0.883378 0
M  V30 2857 C 260.079 -1.17509 -1.45081 0
M  V30 2858 C 260.43 0.223605 -1.94922 0
M  V30 2859 O 259.555 1.12041 -1.85137 0
M  V30 2860 C 260.15 -2.12715 -2.63701 0
M  V30 2861 C 258.709 -2.03682 -3.16529 0
M  V30 2862 C 257.856 -2.02706 -1.89224 0
M  V30 2863 H 260.807 -1.42762 -0.693165 0
M  V30 2864 H 260.828 -1.70891 -3.39965 0
M  V30 2865 H 260.34 -3.14505 -2.27395 0
M  V30 2866 H 258.441 -1.05039 -3.57488 0
M  V30 2867 H 258.554 -2.92146 -3.7972 0
M  V30 2868 H 256.918 -1.4753 -2.07622 0
M  V30 2869 H 257.701 -3.06229 -1.55174 0
M  V30 2870 N 260.146 1.09593 -1.13257 0
M  V30 2871 C 261.392 1.82003 -0.89458 0
M  V30 2872 C 261.725 1.85402 0.577906 0
M  V30 2873 O 261 1.32099 1.42759 0
M  V30 2874 C 261.283 3.28237 -1.48096 0
M  V30 2875 C 261.136 3.3312 -3.02244 0
M  V30 2876 C 262.455 4.24871 -1.14774 0
M  V30 2877 H 259.574 0.66077 -0.326424 0
M  V30 2878 H 262.216 1.28389 -1.40058 0
M  V30 2879 H 260.366 3.74024 -1.05062 0
M  V30 2880 H 262.038 2.95748 -3.54021 0
M  V30 2881 H 260.281 2.72756 -3.37323 0
M  V30 2882 H 260.952 4.3613 -3.38371 0
M  V30 2883 H 263.428 3.87361 -1.51957 0
M  V30 2884 H 262.304 5.25532 -1.58452 0
M  V30 2885 H 262.565 4.42058 -0.0611849 0
M  V30 2886 N 261.624 0.925811 1.2754 0
M  V30 2887 C 262.572 0.413897 2.28888 0
M  V30 2888 C 263.566 -0.500779 1.61829 0
M  V30 2889 O 264.772 -0.38069 1.75928 0
M  V30 2890 H 261.147 0.115274 0.743112 0
M  V30 2891 H 263.118 1.28151 2.69481 0
M  V30 2892 C 261.867 -0.319792 3.46226 0
M  V30 2893 H 261.19 0.374846 3.98039 0
M  V30 2894 H 262.63 -0.642435 4.19105 0
M  V30 2895 C 261.089 -1.53209 3.00048 0
M  V30 2896 O 261.619 -2.6309 3.03557 0
M  V30 2897 N 259.825 -1.38326 2.55566 0
M  V30 2898 H 259.372 -0.489292 2.5291 0
M  V30 2899 H 259.33 -2.19564 2.25031 0
M  V30 2900 N 263.102 -1.41638 0.69111 0
M  V30 2901 C 264.012 -2.34588 0.0233487 0
M  V30 2902 C 265.028 -1.55987 -0.770984 0
M  V30 2903 O 266.204 -1.88486 -0.709569 0
M  V30 2904 C 263.269 -3.34684 -0.904851 0
M  V30 2905 C 262.33 -4.29176 -0.103225 0
M  V30 2906 C 261.563 -5.2449 -0.987216 0
M  V30 2907 O 261.786 -5.2514 -2.22674 0
M  V30 2908 O 260.72 -6.00295 -0.439281 0
M  V30 2909 H 264.546 -2.93261 0.789416 0
M  V30 2910 H 262.131 -1.42417 0.45142 0
M  V30 2911 H 264.013 -3.96133 -1.43724 0
M  V30 2912 H 262.688 -2.78461 -1.65049 0
M  V30 2913 H 261.595 -3.71089 0.473655 0
M  V30 2914 H 262.928 -4.88484 0.60365 0
M  V30 2915 N 264.58 -0.43555 -1.51462 0
M  V30 2916 C 265.528 0.391205 -2.29287 0
M  V30 2917 C 266.522 1.02247 -1.35062 0
M  V30 2918 O 267.728 0.957646 -1.52411 0
M  V30 2919 H 264.103 0.144968 -0.737895 0
M  V30 2920 H 266.074 -0.286051 -2.97026 0
M  V30 2921 C 264.823 1.48096 -3.14583 0
M  V30 2922 H 264.146 1.00457 -3.86973 0
M  V30 2923 H 265.586 2.03273 -3.72097 0
M  V30 2924 C 264.045 2.46321 -2.29843 0
M  V30 2925 O 264.575 3.50815 -1.95682 0
M  V30 2926 N 262.781 2.17166 -1.931 0
M  V30 2927 H 262.328 1.32218 -2.21079 0
M  V30 2928 H 262.286 2.83127 -1.36698 0
M  V30 2929 N 266.058 1.56714 -0.166846 0
M  V30 2930 C 266.988 2.20754 0.760913 0
M  V30 2931 C 267.969 1.16178 1.24244 0
M  V30 2932 O 269.154 1.44592 1.29641 0
M  V30 2933 C 266.284 2.84478 1.99223 0
M  V30 2934 C 265.238 3.95053 1.64672 0
M  V30 2935 C 264.564 4.45805 2.95232 0
M  V30 2936 C 265.864 5.14865 0.878155 0
M  V30 2937 H 267.558 2.98537 0.22713 0
M  V30 2938 H 265.104 1.43596 0.107805 0
M  V30 2939 H 267.057 3.27951 2.64624 0
M  V30 2940 H 265.781 2.04056 2.55007 0
M  V30 2941 H 264.44 3.52228 1.01641 0
M  V30 2942 H 264.088 3.62181 3.49047 0
M  V30 2943 H 263.788 5.204 2.7287 0
M  V30 2944 H 265.312 4.91962 3.6167 0
M  V30 2945 H 266.726 5.55059 1.43466 0
M  V30 2946 H 265.123 5.95348 0.753738 0
M  V30 2947 H 266.193 4.84735 -0.126377 0
M  V30 2948 N 267.536 -0.106894 1.57237 0
M  V30 2949 C 268.785 -0.811163 1.8467 0
M  V30 2950 C 269.098 -1.80469 0.754342 0
M  V30 2951 O 270.304 -2.55601 0.915439 0
M  V30 2952 C 268.76 -1.49337 3.27454 0
M  V30 2953 C 268.368 -0.540217 4.44731 0
M  V30 2954 C 270.112 -2.18206 3.64124 0
M  V30 2955 C 268.019 -1.22634 5.78545 0
M  V30 2956 H 266.949 -0.306679 0.688813 0
M  V30 2957 H 269.6 -0.0639887 1.83388 0
M  V30 2958 H 267.982 -2.2876 3.23241 0
M  V30 2959 H 269.156 0.221659 4.60267 0
M  V30 2960 H 267.471 0.042146 4.16379 0
M  V30 2961 H 270.068 -2.70253 4.61376 0
M  V30 2962 H 270.411 -2.96562 2.92158 0
M  V30 2963 H 270.944 -1.45658 3.70174 0
M  V30 2964 H 267.683 -0.483832 6.53712 0
M  V30 2965 H 267.203 -1.95993 5.66874 0
M  V30 2966 H 268.882 -1.75615 6.2271 0
M  V30 2967 N 269.014 -1.53014 -0.377408 0
M  V30 2968 C 269.924 -1.81557 -1.48574 0
M  V30 2969 C 270.94 -0.703102 -1.59162 0
M  V30 2970 O 272.116 -0.99192 -1.75279 0
M  V30 2971 C 269.181 -1.9889 -2.83978 0
M  V30 2972 C 268.242 -3.22801 -2.83016 0
M  V30 2973 C 267.475 -3.39298 -4.11962 0
M  V30 2974 O 267.698 -2.60345 -5.0752 0
M  V30 2975 O 266.632 -4.32604 -4.18494 0
M  V30 2976 H 270.458 -2.75695 -1.27382 0
M  V30 2977 H 268.043 -1.38248 -0.566373 0
M  V30 2978 H 269.925 -2.11931 -3.6423 0
M  V30 2979 H 268.6 -1.07942 -3.05172 0
M  V30 2980 H 267.507 -3.15193 -2.01505 0
M  V30 2981 H 268.84 -4.13632 -2.66775 0
M  V30 2982 N 270.492 0.636531 -1.44174 0
M  V30 2983 C 271.422 1.76003 -1.53444 0
M  V30 2984 C 272.403 1.65619 -0.387841 0
M  V30 2985 O 273.588 1.84461 -0.607257 0
M  V30 2986 C 270.718 3.14511 -1.4731 0
M  V30 2987 C 269.672 3.39677 -2.60391 0
M  V30 2988 C 268.998 4.78159 -2.39308 0
M  V30 2989 C 270.298 3.32772 -4.02567 0
M  V30 2990 H 271.992 1.68501 -2.47483 0
M  V30 2991 H 269.538 0.809237 -1.19111 0
M  V30 2992 H 271.491 3.92878 -1.52397 0
M  V30 2993 H 270.215 3.22783 -0.49785 0
M  V30 2994 H 268.874 2.63688 -2.54684 0
M  V30 2995 H 268.522 4.83128 -1.39988 0
M  V30 2996 H 268.222 4.95956 -3.15122 0
M  V30 2997 H 269.746 5.58762 -2.46205 0
M  V30 2998 H 271.16 4.01051 -4.09672 0
M  V30 2999 H 269.557 3.62104 -4.7854 0
M  V30 3000 H 270.627 2.30669 -4.2652 0
M  V30 3001 N 271.97 1.30982 0.876444 0
M  V30 3002 C 272.9 1.20668 1.99903 0
M  V30 3003 C 273.881 0.095354 1.69833 0
M  V30 3004 O 275.066 0.27885 1.92188 0
M  V30 3005 C 272.196 0.90655 3.3526 0
M  V30 3006 C 271.15 1.97675 3.79617 0
M  V30 3007 C 270.476 1.52943 5.1236 0
M  V30 3008 C 271.776 3.389 3.97422 0
M  V30 3009 H 273.47 2.14586 2.0879 0
M  V30 3010 H 271.016 1.03308 1.00317 0
M  V30 3011 H 272.969 0.821025 4.13324 0
M  V30 3012 H 271.693 -0.0682969 3.26529 0
M  V30 3013 H 270.352 2.05205 3.03787 0
M  V30 3014 H 270 0.54262 5.00065 0
M  V30 3015 H 269.7 2.24532 5.43009 0
M  V30 3016 H 271.224 1.45786 5.92941 0
M  V30 3017 H 272.638 3.34081 4.659 0
M  V30 3018 H 271.035 4.0865 4.3946 0
M  V30 3019 H 272.105 3.80163 3.01006 0
M  V30 3020 N 273.449 -1.08991 1.13837 0
M  V30 3021 C 274.379 -2.17771 0.842507 0
M  V30 3022 C 275.36 -1.6892 -0.20001 0
M  V30 3023 O 276.545 -1.94113 -0.0579731 0
M  V30 3024 C 273.675 -3.4589 0.312644 0
M  V30 3025 C 272.629 -4.08099 1.28992 0
M  V30 3026 C 271.955 -5.31098 0.619623 0
M  V30 3027 C 273.255 -4.50077 2.65005 0
M  V30 3028 H 274.949 -2.42777 1.75213 0
M  V30 3029 H 272.495 -1.16682 0.843875 0
M  V30 3030 H 274.448 -4.21297 0.0933043 0
M  V30 3031 H 273.172 -3.20419 -0.632382 0
M  V30 3032 H 271.831 -3.34717 1.49533 0
M  V30 3033 H 271.479 -5.0191 -0.33102 0
M  V30 3034 H 271.179 -5.73674 1.27167 0
M  V30 3035 H 272.703 -6.09224 0.409669 0
M  V30 3036 H 274.117 -5.16688 2.48407 0
M  V30 3037 H 272.514 -5.03553 3.26427 0
M  V30 3038 H 273.584 -3.62257 3.22332 0
M  V30 3039 N 274.927 -0.932562 -1.27047 0
M  V30 3040 C 275.86 -0.379774 -2.25018 0
M  V30 3041 C 276.838 0.526587 -1.53837 0
M  V30 3042 O 278.022 0.465992 -1.82649 0
M  V30 3043 C 275.149 0.455187 -3.35627 0
M  V30 3044 C 274.195 -0.388428 -4.24728 0
M  V30 3045 S 275.028 -1.80701 -5.04091 0
M  V30 3046 C 276.184 -0.979865 -6.18182 0
M  V30 3047 H 276.417 -1.2101 -2.71558 0
M  V30 3048 H 273.95 -0.735078 -1.35779 0
M  V30 3049 H 275.908 0.931052 -3.99802 0
M  V30 3050 H 274.569 1.26009 -2.87716 0
M  V30 3051 H 273.762 0.25089 -5.03375 0
M  V30 3052 H 273.364 -0.798649 -3.65373 0
M  V30 3053 H 275.656 -0.218115 -6.77149 0
M  V30 3054 H 276.599 -1.73951 -6.86401 0
M  V30 3055 H 277.007 -0.51973 -5.62102 0
M  V30 3056 N 276.405 1.4127 -0.698611 0
M  V30 3057 C 277.654 2.00408 -0.227949 0
M  V30 3058 C 277.967 1.55981 1.18023 0
M  V30 3059 O 279.173 2.07699 1.74852 0
M  V30 3060 C 277.629 3.58129 -0.356636 0
M  V30 3061 C 277.237 4.11536 -1.77037 0
M  V30 3062 C 278.981 4.24466 0.0540969 0
M  V30 3063 C 276.888 5.61701 -1.85055 0
M  V30 3064 H 275.818 0.749586 -0.0814657 0
M  V30 3065 H 278.469 1.61713 -0.867249 0
M  V30 3066 H 276.851 3.94442 0.350965 0
M  V30 3067 H 278.025 3.86636 -2.50698 0
M  V30 3068 H 276.34 3.57736 -2.13105 0
M  V30 3069 H 278.937 5.34698 0.0146723 0
M  V30 3070 H 279.28 4.01687 1.09332 0
M  V30 3071 H 279.813 3.93198 -0.603337 0
M  V30 3072 H 276.552 5.89312 -2.8704 0
M  V30 3073 H 276.072 5.88519 -1.15783 0
M  V30 3074 H 277.751 6.26524 -1.61484 0
M  V30 3075 N 277.883 0.443576 1.51229 0
M  V30 3076 C 279.108 -0.121648 2.07043 0
M  V30 3077 C 279.533 -1.35156 1.30823 0
M  V30 3078 O 278.891 -1.7793 0.347934 0
M  V30 3079 C 278.939 -0.41624 3.5819 0
M  V30 3080 O 278.043 -1.50163 3.8409 0
M  V30 3081 H 277.384 0.000871367 0.663999 0
M  V30 3082 H 279.914 0.626706 1.94765 0
M  V30 3083 H 279.924 -0.664867 4.02546 0
M  V30 3084 H 278.599 0.482653 4.1309 0
M  V30 3085 H 277.176 -1.24248 3.51592 0
M  V30 3086 N 279.361 -1.56624 0.175154 0
M  V30 3087 C 280.589 -2.01374 -0.474971 0
M  V30 3088 C 281.004 -1.05537 -1.56548 0
M  V30 3089 O 280.361 -0.0568668 -1.82411 0
M  V30 3090 C 280.412 -3.45923 -1.04975 0
M  V30 3091 O 280.133 -4.381 -0.00276605 0
M  V30 3092 C 281.634 -4.06093 -1.77773 0
M  V30 3093 H 278.854 -0.659962 -0.121206 0
M  V30 3094 H 281.398 -2.02601 0.27801 0
M  V30 3095 H 279.553 -3.45458 -1.75321 0
M  V30 3096 H 279.967 -5.22753 -0.427681 0
M  V30 3097 H 281.441 -5.09147 -2.13245 0
M  V30 3098 H 281.918 -3.48405 -2.67414 0
M  V30 3099 H 282.524 -4.10272 -1.12059 0
M  V30 3100 N 280.839 0.0985539 -1.57292 0
M  V30 3101 C 282.079 0.808332 -1.87737 0
M  V30 3102 C 282.443 1.7607 -0.76572 0
M  V30 3103 O 283.644 2.51358 -0.952499 0
M  V30 3104 C 281.915 1.52093 -3.23423 0
M  V30 3105 S 283.474 2.26947 -3.75554 0
M  V30 3106 H 280.292 0.269377 -0.657995 0
M  V30 3107 H 282.894 0.0656269 -1.9539 0
M  V30 3108 H 281.598 0.81363 -4.02254 0
M  V30 3109 H 281.129 2.30361 -3.189 0
M  V30 3110 H 283.144 3.53027 -3.48692 0
M  V30 3111 N 282.317 1.53212 0.369288 0
M  V30 3112 C 283.733 1.42902 0.710712 0
M  V30 3113 C 283.933 0.565135 1.93413 0
M  V30 3114 O 282.989 0.0461484 2.52458 0
M  V30 3115 C 284.302 2.86042 0.927382 0
M  V30 3116 C 285.85 2.9565 1.02762 0
M  V30 3117 C 286.325 4.39843 1.27679 0
M  V30 3118 N 287.816 4.43256 1.34457 0
M  V30 3119 C 288.551 5.51929 1.55439 0
M  V30 3120 N 288.047 6.70655 1.73762 0
M  V30 3121 N 289.84 5.39502 1.57779 0
M  V30 3122 H 281.991 2.07888 -0.435457 0
M  V30 3123 H 284.254 0.938661 -0.132739 0
M  V30 3124 H 283.96 3.51557 0.100287 0
M  V30 3125 H 283.834 3.29472 1.83653 0
M  V30 3126 H 286.221 2.30291 1.84527 0
M  V30 3127 H 286.302 2.5562 0.0959504 0
M  V30 3128 H 285.946 5.05774 0.464175 0
M  V30 3129 H 285.876 4.77443 2.22162 0
M  V30 3130 H 288.367 3.5769 1.21926 0
M  V30 3131 H 288.68 7.49248 1.89335 0
M  V30 3132 H 287.025 6.73648 1.70948 0
M  V30 3133 H 290.216 4.45713 1.43029 0
M  V30 3134 H 290.389 6.2426 1.7379 0
M  V30 3135 N 283.795 -0.628877 1.44509 0
M  V30 3136 C 285.211 -0.947305 1.28446 0
M  V30 3137 C 285.411 -2.00275 0.221872 0
M  V30 3138 O 284.467 -2.49447 -0.391471 0
M  V30 3139 C 285.78 -1.40843 2.65676 0
M  V30 3140 C 287.328 -1.52379 2.73404 0
M  V30 3141 C 287.803 -2.01875 4.11109 0
M  V30 3142 N 289.294 -2.09142 4.13296 0
M  V30 3143 C 290.029 -2.48615 5.16699 0
M  V30 3144 N 289.525 -2.87209 6.30462 0
M  V30 3145 N 291.318 -2.48768 5.04054 0
M  V30 3146 H 283.469 0.0690977 2.12288 0
M  V30 3147 H 285.732 -0.0317164 0.947469 0
M  V30 3148 H 285.438 -0.707206 3.44516 0
M  V30 3149 H 285.312 -2.37902 2.92716 0
M  V30 3150 H 287.699 -2.21598 1.9488 0
M  V30 3151 H 287.78 -0.536898 2.50102 0
M  V30 3152 H 287.424 -1.3325 4.90109 0
M  V30 3153 H 287.354 -3.0144 4.31789 0
M  V30 3154 H 289.845 -1.81991 3.31191 0
M  V30 3155 H 290.158 -3.16149 7.05174 0
M  V30 3156 H 288.503 -2.84955 6.33897 0
M  V30 3157 H 291.694 -2.18009 4.14234 0
M  V30 3158 H 291.867 -2.79207 5.84763 0
M  V30 3159 N 285.273 -1.31445 -0.869486 0
M  V30 3160 C 286.236 -1.19094 -1.9583 0
M  V30 3161 C 287.236 -0.117906 -1.60367 0
M  V30 3162 O 288.426 -0.367208 -1.70286 0
M  V30 3163 C 285.558 -0.828165 -3.30688 0
M  V30 3164 H 286.751 -2.15842 -2.08212 0
M  V30 3165 H 284.304 -1.15063 -1.05784 0
M  V30 3166 H 285.039 0.138142 -3.24006 0
M  V30 3167 H 284.824 -1.6038 -3.578 0
M  V30 3168 H 286.314 -0.765658 -4.10521 0
M  V30 3169 N 286.751 1.08385 -1.14413 0
M  V30 3170 C 287.976 1.85057 -0.936413 0
M  V30 3171 C 288.401 1.81055 0.509971 0
M  V30 3172 O 287.759 1.1958 1.36273 0
M  V30 3173 C 287.807 3.30505 -1.44217 0
M  V30 3174 O 286.911 4.07491 -0.634409 0
M  V30 3175 H 286.252 0.573425 -0.334784 0
M  V30 3176 H 288.782 1.36799 -1.52142 0
M  V30 3177 H 288.792 3.81348 -1.45043 0
M  V30 3178 H 287.467 3.32734 -2.49522 0
M  V30 3179 H 286.044 3.66368 -0.694902 0
M  V30 3180 N 288.23 0.939286 1.26551 0
M  V30 3181 C 289.193 0.451987 2.24699 0
M  V30 3182 C 290.193 -0.435869 1.5478 0
M  V30 3183 O 291.383 -0.235314 1.72603 0
M  V30 3184 C 288.515 -0.348801 3.39111 0
M  V30 3185 H 289.708 1.3193 2.69322 0
M  V30 3186 H 287.261 0.721072 1.38673 0
M  V30 3187 H 287.996 -1.23444 2.99887 0
M  V30 3188 H 287.781 0.287945 3.91041 0
M  V30 3189 H 289.271 -0.679726 4.12031 0
M  V30 3190 N 289.708 -1.40897 0.706093 0
M  V30 3191 C 290.655 -2.30751 0.0474474 0
M  V30 3192 C 291.625 -1.47678 -0.76029 0
M  V30 3193 O 292.81 -1.76441 -0.726177 0
M  V30 3194 C 289.95 -3.33815 -0.875309 0
M  V30 3195 C 289.063 -4.31961 -0.0580623 0
M  V30 3196 C 288.198 -5.22093 -0.979425 0
M  V30 3197 C 287.237 -6.11902 -0.155706 0
M  V30 3198 N 286.374 -6.94482 -1.03144 0
M  V30 3199 H 291.214 -2.86513 0.819413 0
M  V30 3200 H 288.751 -1.41102 0.415783 0
M  V30 3201 H 290.709 -3.92129 -1.42446 0
M  V30 3202 H 289.339 -2.79579 -1.61356 0
M  V30 3203 H 288.391 -3.75507 0.608147 0
M  V30 3204 H 289.703 -4.95415 0.580082 0
M  V30 3205 H 288.857 -5.85292 -1.59744 0
M  V30 3206 H 287.596 -4.5889 -1.65141 0
M  V30 3207 H 286.601 -5.47742 0.475309 0
M  V30 3208 H 287.826 -6.77162 0.512635 0
M  V30 3209 H 285.772 -6.33877 -1.68924 0
M  V30 3210 H 285.689 -7.54665 -0.449108 0
M  V30 3211 H 286.957 -7.6214 -1.63593 0
M  V30 3212 N 291.186 -0.45159 -1.50991 0
M  V30 3213 C 292.133 0.352625 -2.2809 0
M  V30 3214 C 293.103 1.0044 -1.32291 0
M  V30 3215 O 294.288 1.02058 -1.6121 0
M  V30 3216 C 291.428 1.43983 -3.13629 0
M  V30 3217 C 290.541 0.804772 -4.24438 0
M  V30 3218 C 289.676 1.86822 -4.97263 0
M  V30 3219 C 288.715 1.21236 -5.99973 0
M  V30 3220 N 287.852 2.2178 -6.66152 0
M  V30 3221 H 292.692 -0.311186 -2.96371 0
M  V30 3222 H 290.229 -0.165308 -1.46168 0
M  V30 3223 H 292.187 2.08161 -3.61559 0
M  V30 3224 H 290.817 2.07307 -2.47434 0
M  V30 3225 H 289.869 0.0509129 -3.80366 0
M  V30 3226 H 291.181 0.286076 -4.97979 0
M  V30 3227 H 290.335 2.58628 -5.48813 0
M  V30 3228 H 289.074 2.42068 -4.23385 0
M  V30 3229 H 288.079 0.479828 -5.47702 0
M  V30 3230 H 289.304 0.667051 -6.75816 0
M  V30 3231 H 287.25 2.76079 -5.95077 0
M  V30 3232 H 287.167 1.74841 -7.35504 0
M  V30 3233 H 288.435 2.93026 -7.22327 0
M  V30 3234 N 292.664 1.56529 -0.183458 0
M  V30 3235 C 293.913 1.96419 0.458511 0
M  V30 3236 C 294.226 1.0727 1.63562 0
M  V30 3237 O 295.432 1.36893 2.34462 0
M  V30 3238 C 293.888 3.49298 0.867122 0
M  V30 3239 C 293.496 4.47092 -0.285057 0
M  V30 3240 C 295.24 3.97983 1.47683 0
M  V30 3241 C 293.147 5.91225 0.143862 0
M  V30 3242 H 292.077 0.733394 0.175071 0
M  V30 3243 H 294.728 1.81448 -0.273624 0
M  V30 3244 H 293.11 3.59731 1.65559 0
M  V30 3245 H 294.284 4.48383 -1.0625 0
M  V30 3246 H 292.599 4.08535 -0.805503 0
M  V30 3247 H 295.196 5.03134 1.80999 0
M  V30 3248 H 295.539 3.41618 2.37914 0
M  V30 3249 H 296.072 3.90617 0.752562 0
M  V30 3250 H 292.811 6.5149 -0.723974 0
M  V30 3251 H 292.331 5.93214 0.886413 0
M  V30 3252 H 294.01 6.44362 0.583628 0
M  V30 3253 N 294.142 -0.090211 1.57342 0
M  V30 3254 C 295.37 -0.806224 1.90546 0
M  V30 3255 C 295.785 -1.72041 0.777644 0
M  V30 3256 O 295.142 -1.80778 -0.250103 0
M  V30 3257 C 295.193 -1.61546 3.23396 0
M  V30 3258 O 294.914 -0.738043 4.31839 0
M  V30 3259 C 296.415 -2.4341 3.70495 0
M  V30 3260 H 293.635 -0.230256 0.630257 0
M  V30 3261 H 296.179 -0.0659843 2.04394 0
M  V30 3262 H 294.334 -2.30816 3.11131 0
M  V30 3263 H 294.748 -1.29901 5.08159 0
M  V30 3264 H 296.222 -2.95676 4.66133 0
M  V30 3265 H 296.699 -3.22098 2.98579 0
M  V30 3266 H 297.305 -1.79331 3.85643 0
M  V30 3267 N 295.62 -1.53406 -0.361157 0
M  V30 3268 C 296.583 -1.79479 -1.42548 0
M  V30 3269 C 297.583 -0.665327 -1.4639 0
M  V30 3270 O 298.773 -0.933549 -1.47073 0
M  V30 3271 C 295.905 -1.92087 -2.8163 0
M  V30 3272 H 297.098 -2.74538 -1.20701 0
M  V30 3273 H 294.651 -1.4455 -0.594546 0
M  V30 3274 H 295.386 -0.991099 -3.08784 0
M  V30 3275 H 295.171 -2.74241 -2.80239 0
M  V30 3276 H 296.661 -2.13836 -3.58697 0
M  V30 3277 N 297.098 0.621204 -1.44841 0
M  V30 3278 C 298.344 1.3826 -1.48365 0
M  V30 3279 C 298.677 1.93831 -0.119624 0
M  V30 3280 O 297.952 1.74251 0.864111 0
M  V30 3281 C 298.235 2.54058 -2.55199 0
M  V30 3282 C 298.088 2.03772 -4.00995 0
M  V30 3283 C 299.407 3.56225 -2.58442 0
M  V30 3284 H 296.526 0.501374 -0.540179 0
M  V30 3285 H 299.168 0.7015 -1.76576 0
M  V30 3286 H 297.318 3.12162 -2.31274 0
M  V30 3287 H 298.99 1.50423 -4.36086 0
M  V30 3288 H 297.233 1.34876 -4.12299 0
M  V30 3289 H 297.904 2.87185 -4.71411 0
M  V30 3290 H 300.38 3.07939 -2.79844 0
M  V30 3291 H 299.256 4.34756 -3.3508 0
M  V30 3292 H 299.517 4.10949 -1.63013 0
M  V30 3293 N 298.576 1.31904 0.862503 0
M  V30 3294 C 299.825 1.21373 1.61094 0
M  V30 3295 C 300.138 -0.22504 1.94301 0
M  V30 3296 O 301.344 -0.452121 2.67709 0
M  V30 3297 C 299.8 2.12525 2.9045 0
M  V30 3298 C 299.408 3.61441 2.64697 0
M  V30 3299 C 301.152 2.10813 3.68454 0
M  V30 3300 C 299.059 4.44578 3.90006 0
M  V30 3301 H 297.989 0.450705 0.604468 0
M  V30 3302 H 300.64 1.56811 0.953027 0
M  V30 3303 H 299.022 1.69994 3.57656 0
M  V30 3304 H 300.196 4.12264 2.05851 0
M  V30 3305 H 298.511 3.65205 2.00036 0
M  V30 3306 H 301.108 2.70167 4.61426 0
M  V30 3307 H 301.451 1.09713 4.01583 0
M  V30 3308 H 301.984 2.51583 3.08141 0
M  V30 3309 H 298.723 5.46461 3.62023 0
M  V30 3310 H 298.243 3.98508 4.48276 0
M  V30 3311 H 299.922 4.57176 4.5782 0
M  V30 3312 N 300.054 -1.07777 1.14986 0
M  V30 3313 C 301.465 -1.61766 0.932127 0
M  V30 3314 C 301.816 -1.88974 -0.527581 0
M  V30 3315 O 300.941 -1.65198 -1.39781 0
M  V30 3316 C 301.536 -2.93891 1.68563 0
M  V30 3317 C 300.095 -3.44639 1.5133 0
M  V30 3318 C 299.242 -2.18767 1.704 0
M  V30 3319 H 302.193 -0.909201 1.30074 0
M  V30 3320 H 302.214 -3.62623 1.15259 0
M  V30 3321 H 301.726 -2.74057 2.74799 0
M  V30 3322 H 299.827 -3.69564 0.474702 0
M  V30 3323 H 299.94 -4.20966 2.28746 0
M  V30 3324 H 298.304 -2.28253 1.13016 0
M  V30 3325 H 299.087 -2.01433 2.77992 0
M  V30 3326 N 301.532 -0.945985 -1.26051 0
M  V30 3327 C 302.762 -0.612136 -1.97323 0
M  V30 3328 C 303.17 0.818171 -1.70595 0
M  V30 3329 O 302.513 1.55777 -0.973613 0
M  V30 3330 C 302.575 -0.780347 -3.50929 0
M  V30 3331 C 302.239 -2.18619 -4.01317 0
M  V30 3332 C 303.236 -3.16209 -4.12683 0
M  V30 3333 C 300.921 -2.50805 -4.35203 0
M  V30 3334 C 302.915 -4.44085 -4.57238 0
M  V30 3335 C 300.602 -3.78912 -4.79446 0
M  V30 3336 C 301.6 -4.75365 -4.90425 0
M  V30 3337 O 301.288 -6.01191 -5.3369 0
M  V30 3338 H 301.02 -0.229134 -0.635982 0
M  V30 3339 H 303.574 -1.27036 -1.61404 0
M  V30 3340 H 301.804 -0.0649864 -3.86645 0
M  V30 3341 H 303.493 -0.448842 -4.03411 0
M  V30 3342 H 304.259 -2.92668 -3.86744 0
M  V30 3343 H 300.138 -1.76463 -4.2589 0
M  V30 3344 H 303.682 -5.19373 -4.65723 0
M  V30 3345 H 299.579 -4.02265 -5.0483 0
M  V30 3346 H 300.347 -6.04442 -5.51899 0
M  V30 3347 N 303.011 1.40521 -0.713556 0
M  V30 3348 C 304.241 2.0494 -0.261395 0
M  V30 3349 C 304.649 1.53861 1.10107 0
M  V30 3350 O 303.992 0.689321 1.70276 0
M  V30 3351 C 304.054 3.59138 -0.161227 0
M  V30 3352 C 303.718 4.33096 -1.45865 0
M  V30 3353 C 304.715 4.61182 -2.40016 0
M  V30 3354 C 302.4 4.72043 -1.71701 0
M  V30 3355 C 304.394 5.27196 -3.58251 0
M  V30 3356 C 302.081 5.37789 -2.90218 0
M  V30 3357 C 303.079 5.65295 -3.83315 0
M  V30 3358 O 302.767 6.29683 -4.99754 0
M  V30 3359 H 302.499 0.666041 -0.115608 0
M  V30 3360 H 305.053 1.80954 -0.971849 0
M  V30 3361 H 303.283 3.81936 0.605153 0
M  V30 3362 H 304.972 4.05091 0.256105 0
M  V30 3363 H 305.738 4.31559 -2.21318 0
M  V30 3364 H 301.617 4.50003 -1.00092 0
M  V30 3365 H 305.161 5.48582 -4.30934 0
M  V30 3366 H 301.058 5.66831 -3.08825 0
M  V30 3367 H 301.826 6.4818 -4.99805 0
M  V30 3368 N 304.489 0.459591 1.5075 0
M  V30 3369 C 305.737 -0.0991532 2.01857 0
M  V30 3370 C 306.058 -1.41247 1.34441 0
M  V30 3371 O 305.328 -1.89775 0.486022 0
M  V30 3372 H 303.908 -0.039633 0.745948 0
M  V30 3373 H 306.57 0.607387 1.85194 0
M  V30 3374 H 305.666 -0.258998 3.11023 0
M  V30 3375 N 305.967 -1.56429 0.191757 0
M  V30 3376 C 307.197 -2.01574 -0.452928 0
M  V30 3377 C 307.605 -1.07107 -1.55964 0
M  V30 3378 O 306.948 -0.067534 -1.83576 0
M  V30 3379 C 307.01 -3.43121 -1.07278 0
M  V30 3380 C 306.674 -4.56879 -0.105214 0
M  V30 3381 C 307.671 -5.15379 0.684149 0
M  V30 3382 C 305.356 -5.023 0.00489824 0
M  V30 3383 C 307.35 -6.17746 1.57062 0
M  V30 3384 C 305.037 -6.04511 0.894935 0
M  V30 3385 C 306.035 -6.62108 1.67637 0
M  V30 3386 O 305.723 -7.62335 2.55149 0
M  V30 3387 H 305.455 -0.665554 -0.118379 0
M  V30 3388 H 308.009 -2.03245 0.296737 0
M  V30 3389 H 306.239 -3.38425 -1.87097 0
M  V30 3390 H 307.928 -3.72093 -1.62177 0
M  V30 3391 H 308.694 -4.81157 0.609365 0
M  V30 3392 H 304.573 -4.57168 -0.593156 0
M  V30 3393 H 308.117 -6.6263 2.181 0
M  V30 3394 H 304.014 -6.38157 0.970847 0
M  V30 3395 H 304.782 -7.79741 2.48892 0
M  V30 3396 N 307.445 0.0818655 -1.57387 0
M  V30 3397 C 308.408 1.08265 -2.02018 0
M  V30 3398 C 309.408 1.32183 -0.915664 0
M  V30 3399 O 310.598 1.28073 -1.18081 0
M  V30 3400 C 307.73 2.42871 -2.39221 0
M  V30 3401 H 308.923 0.698204 -2.91659 0
M  V30 3402 H 306.476 0.327303 -1.52835 0
M  V30 3403 H 307.211 2.86167 -1.52575 0
M  V30 3404 H 306.996 2.26855 -3.19811 0
M  V30 3405 H 308.486 3.14826 -2.74362 0
M  V30 3406 N 308.923 1.53595 0.353017 0
M  V30 3407 C 310.339 1.43648 0.695516 0
M  V30 3408 C 310.539 0.585617 1.92802 0
M  V30 3409 O 309.595 0.0729223 2.52395 0
M  V30 3410 C 310.908 2.8701 0.896991 0
M  V30 3411 C 312.456 2.96723 0.996209 0
M  V30 3412 C 312.931 4.41173 1.23007 0
M  V30 3413 N 314.422 4.44657 1.29749 0
M  V30 3414 C 315.157 5.53547 1.49577 0
M  V30 3415 N 314.653 6.72461 1.66639 0
M  V30 3416 N 316.446 5.41145 1.52048 0
M  V30 3417 H 308.597 2.07415 -0.457481 0
M  V30 3418 H 310.86 0.9372 -0.142687 0
M  V30 3419 H 310.566 3.51644 0.0629938 0
M  V30 3420 H 310.44 3.31401 1.80148 0
M  V30 3421 H 312.827 2.32235 1.82074 0
M  V30 3422 H 312.908 2.55707 0.0688331 0
M  V30 3423 H 312.552 5.06238 0.410505 0
M  V30 3424 H 312.482 4.79772 2.17086 0
M  V30 3425 H 314.973 3.58963 1.18126 0
M  V30 3426 H 315.286 7.51214 1.81378 0
M  V30 3427 H 313.631 6.75423 1.63794 0
M  V30 3428 H 316.822 4.47205 1.38294 0
M  V30 3429 H 316.995 6.26068 1.67159 0
M  V30 3430 N 310.401 -0.613514 1.45168 0
M  V30 3431 C 311.333 -1.73825 1.4939 0
M  V30 3432 C 312.346 -1.58175 0.385304 0
M  V30 3433 O 313.535 -1.66165 0.652036 0
M  V30 3434 C 310.635 -3.11758 1.32891 0
M  V30 3435 C 309.808 -3.53704 2.57317 0
M  V30 3436 C 308.867 -4.70579 2.35462 0
M  V30 3437 O 307.893 -4.77996 3.09044 0
M  V30 3438 N 309.095 -5.63454 1.39644 0
M  V30 3439 H 311.86 -1.70669 2.46358 0
M  V30 3440 H 309.421 -0.79862 1.40832 0
M  V30 3441 H 311.413 -3.87692 1.1609 0
M  V30 3442 H 309.983 -3.09456 0.442218 0
M  V30 3443 H 309.203 -2.67794 2.89275 0
M  V30 3444 H 310.491 -3.78486 3.40038 0
M  V30 3445 H 309.889 -5.6017 0.789062 0
M  V30 3446 H 308.446 -6.38944 1.28816 0
M  V30 3447 N 311.879 -1.3236 -0.855495 0
M  V30 3448 C 313.156 -1.13491 -1.59309 0
M  V30 3449 C 313.536 0.30503 -2.08885 0
M  V30 3450 O 312.884 1.30151 -1.87811 0
M  V30 3451 C 313.094 -2.16176 -2.73987 0
M  V30 3452 C 314.442 -2.49463 -3.43589 0
M  V30 3453 O 315.466 -2.14715 -2.84211 0
M  V30 3454 O 314.325 -3.09027 -4.50738 0
M  V30 3455 H 311.419 -0.437887 -0.701559 0
M  V30 3456 H 313.965 -1.43887 -0.899696 0
M  V30 3457 H 312.737 -3.1297 -2.34873 0
M  V30 3458 H 312.36 -1.86769 -3.51003 0
M  V30 3459 N 313.357 1.07166 -1.15556 0
M  V30 3460 C 314.773 1.31899 -0.898603 0
M  V30 3461 C 314.973 1.96333 0.453383 0
M  V30 3462 O 314.029 2.22438 1.19489 0
M  V30 3463 C 315.342 2.20826 -2.04099 0
M  V30 3464 C 316.89 2.34269 -2.07574 0
M  V30 3465 C 317.365 3.26546 -3.21141 0
M  V30 3466 N 318.856 3.34127 -3.20801 0
M  V30 3467 C 319.591 4.05595 -4.05315 0
M  V30 3468 N 319.087 4.79661 -4.99897 0
M  V30 3469 N 320.88 4.01555 -3.93332 0
M  V30 3470 H 313.031 0.637302 -2.02613 0
M  V30 3471 H 315.294 0.343468 -0.883591 0
M  V30 3472 H 315 1.80744 -3.01703 0
M  V30 3473 H 314.874 3.21364 -1.97496 0
M  V30 3474 H 317.261 2.73603 -1.10568 0
M  V30 3475 H 317.342 1.33429 -2.18244 0
M  V30 3476 H 316.986 2.87931 -4.184 0
M  V30 3477 H 316.916 4.27345 -3.07708 0
M  V30 3478 H 319.407 2.81336 -2.52306 0
M  V30 3479 H 319.72 5.31694 -5.60822 0
M  V30 3480 H 318.065 4.78671 -5.03884 0
M  V30 3481 H 321.256 3.42806 -3.18751 0
M  V30 3482 H 321.429 4.56987 -4.5942 0
M  V30 3483 N 314.835 0.952656 1.25548 0
M  V30 3484 C 315.782 0.47008 2.25962 0
M  V30 3485 C 316.752 -0.476384 1.59122 0
M  V30 3486 O 317.937 -0.39007 1.8677 0
M  V30 3487 C 315.077 -0.247881 3.44209 0
M  V30 3488 C 314.19 0.735591 4.25691 0
M  V30 3489 C 313.325 -0.0047306 5.312 0
M  V30 3490 C 312.364 0.969805 6.04368 0
M  V30 3491 N 311.501 0.260486 7.01617 0
M  V30 3492 H 316.341 1.33126 2.66611 0
M  V30 3493 H 313.878 0.66765 1.31076 0
M  V30 3494 H 315.836 -0.680695 4.1161 0
M  V30 3495 H 314.466 -1.07312 3.0444 0
M  V30 3496 H 313.518 1.28689 3.57971 0
M  V30 3497 H 314.83 1.47934 4.76358 0
M  V30 3498 H 313.984 -0.496275 6.04667 0
M  V30 3499 H 312.723 -0.781282 4.81401 0
M  V30 3500 H 311.728 1.47237 5.29718 0
M  V30 3501 H 312.953 1.74655 6.56256 0
M  V30 3502 H 310.899 -0.497364 6.54112 0
M  V30 3503 H 310.816 0.943362 7.50091 0
M  V30 3504 H 312.084 -0.209587 7.79218 0
M  V30 3505 N 316.313 -1.40141 0.720998 0
M  V30 3506 C 317.243 -2.33339 0.0867621 0
M  V30 3507 C 318.224 -1.53178 -0.739622 0
M  V30 3508 O 319.409 -1.81625 -0.687449 0
M  V30 3509 C 316.539 -3.37194 -0.831728 0
M  V30 3510 C 315.493 -4.27857 -0.110558 0
M  V30 3511 C 314.819 -5.22294 -1.14513 0
M  V30 3512 C 316.119 -5.11872 1.0385 0
M  V30 3513 H 317.813 -2.86626 0.865219 0
M  V30 3514 H 315.359 -1.37814 0.417516 0
M  V30 3515 H 317.312 -4.01335 -1.28485 0
M  V30 3516 H 316.036 -2.82314 -1.64214 0
M  V30 3517 H 314.695 -3.65176 0.322797 0
M  V30 3518 H 314.343 -4.63717 -1.94874 0
M  V30 3519 H 314.043 -5.83797 -0.667446 0
M  V30 3520 H 315.567 -5.89312 -1.59824 0
M  V30 3521 H 316.981 -5.69436 0.664482 0
M  V30 3522 H 315.378 -5.82445 1.4449 0
M  V30 3523 H 316.448 -4.4753 1.86668 0
M  V30 3524 N 317.792 -0.46758 -1.50504 0
M  V30 3525 C 319.017 0.0886943 -2.0721 0
M  V30 3526 C 319.442 1.33057 -1.32956 0
M  V30 3527 O 318.8 1.77354 -0.376197 0
M  V30 3528 C 318.848 0.359202 -3.58806 0
M  V30 3529 O 317.952 1.44034 -3.8643 0
M  V30 3530 H 317.293 -0.0114349 -0.663902 0
M  V30 3531 H 319.823 -0.657613 -1.93744 0
M  V30 3532 H 319.833 0.600742 -4.03553 0
M  V30 3533 H 318.508 -0.548311 -4.1227 0
M  V30 3534 H 317.085 1.18638 -3.53524 0
M  V30 3535 N 319.27 1.56325 -0.20005 0
M  V30 3536 C 320.495 2.02548 0.44597 0
M  V30 3537 C 320.92 1.07922 1.5406 0
M  V30 3538 O 320.278 0.0635775 1.81188 0
M  V30 3539 C 320.326 3.47175 0.974761 0
M  V30 3540 O 319.43 3.55671 2.08739 0
M  V30 3541 H 318.771 0.655862 0.103638 0
M  V30 3542 H 321.301 2.02201 -0.312381 0
M  V30 3543 H 321.311 3.87067 1.2901 0
M  V30 3544 H 319.986 4.15538 0.17347 0
M  V30 3545 H 318.563 3.27657 1.78032 0
M  V30 3546 N 320.748 -0.0735177 1.57428 0
M  V30 3547 C 322.164 -0.428264 1.53747 0
M  V30 3548 C 322.364 -1.79272 0.91998 0
M  V30 3549 O 321.42 -2.47051 0.521745 0
M  V30 3550 C 322.733 -0.370914 2.98404 0
M  V30 3551 C 324.281 -0.451224 3.0973 0
M  V30 3552 C 324.756 -0.4238 4.56035 0
M  V30 3553 N 326.247 -0.483925 4.60665 0
M  V30 3554 C 326.982 -0.484891 5.71346 0
M  V30 3555 N 326.478 -0.440775 6.91396 0
M  V30 3556 N 328.271 -0.531319 5.59583 0
M  V30 3557 H 320.422 0.819949 1.95935 0
M  V30 3558 H 322.685 0.307493 0.896745 0
M  V30 3559 H 322.391 0.564956 3.47133 0
M  V30 3560 H 322.265 -1.18176 3.5821 0
M  V30 3561 H 324.652 -1.37752 2.60976 0
M  V30 3562 H 324.733 0.388167 2.52838 0
M  V30 3563 H 324.377 0.498638 5.05446 0
M  V30 3564 H 324.307 -1.2807 5.10789 0
M  V30 3565 H 326.798 -0.522338 3.74273 0
M  V30 3566 H 327.111 -0.44539 7.71515 0
M  V30 3567 H 325.456 -0.40749 6.93804 0
M  V30 3568 H 328.647 -0.563464 4.64696 0
M  V30 3569 H 328.82 -0.528603 6.4584 0
M  V30 3570 N 322.226 -1.5378 -0.344866 0
M  V30 3571 C 323.472 -1.71216 -1.08687 0
M  V30 3572 C 323.805 -0.473281 -1.88345 0
M  V30 3573 O 323.08 0.52968 -1.87149 0
M  V30 3574 C 323.363 -2.97486 -2.02914 0
M  V30 3575 C 323.216 -4.31579 -1.26727 0
M  V30 3576 C 324.535 -3.19422 -3.0275 0
M  V30 3577 H 321.654 -0.62301 -0.393735 0
M  V30 3578 H 324.296 -1.8645 -0.365563 0
M  V30 3579 H 322.446 -2.84629 -2.64421 0
M  V30 3580 H 324.118 -4.56284 -0.67845 0
M  V30 3581 H 322.361 -4.30049 -0.569273 0
M  V30 3582 H 323.032 -5.16106 -1.95803 0
M  V30 3583 H 325.508 -3.316 -2.51357 0
M  V30 3584 H 324.384 -4.09169 -3.65885 0
M  V30 3585 H 324.645 -2.35656 -3.74057 0
M  V30 3586 N 323.704 0.605807 -1.45491 0
M  V30 3587 C 325.115 1.18777 -1.44045 0
M  V30 3588 C 325.466 1.95471 -0.169001 0
M  V30 3589 O 324.591 2.0374 0.729324 0
M  V30 3590 C 325.186 2.16064 -2.60963 0
M  V30 3591 C 323.745 2.69633 -2.62631 0
M  V30 3592 C 322.892 1.45072 -2.36325 0
M  V30 3593 H 325.843 0.395017 -1.53705 0
M  V30 3594 H 325.864 2.9913 -2.35163 0
M  V30 3595 H 325.376 1.60217 -3.53486 0
M  V30 3596 H 323.477 3.29414 -1.74119 0
M  V30 3597 H 323.59 3.13944 -3.61906 0
M  V30 3598 H 321.954 1.74089 -1.85917 0
M  V30 3599 H 322.737 0.910899 -3.30995 0
M  V30 3600 N 325.182 1.32811 0.848464 0
M  V30 3601 C 326.431 1.23075 1.59798 0
M  V30 3602 C 326.744 -0.204419 1.94529 0
M  V30 3603 O 327.95 -0.423701 2.68173 0
M  V30 3604 C 326.406 2.15594 2.88179 0
M  V30 3605 C 326.014 3.64228 2.60849 0
M  V30 3606 C 327.758 2.14709 3.66197 0
M  V30 3607 C 325.665 4.48689 3.85269 0
M  V30 3608 H 324.595 0.457091 0.599653 0
M  V30 3609 H 327.246 1.57813 0.936342 0
M  V30 3610 H 325.628 1.73778 3.55833 0
M  V30 3611 H 326.802 4.14424 2.01467 0
M  V30 3612 H 325.117 3.67306 1.96151 0
M  V30 3613 H 327.714 2.75046 4.58534 0
M  V30 3614 H 328.057 1.13966 4.00397 0
M  V30 3615 H 328.59 2.54837 3.05455 0
M  V30 3616 H 325.329 5.5027 3.56207 0
M  V30 3617 H 324.849 4.03241 4.44024 0
M  V30 3618 H 326.528 4.62006 4.52946 0
M  V30 3619 N 326.66 -1.06551 1.16123 0
M  V30 3620 C 327.885 -1.83544 0.965735 0
M  V30 3621 C 328.31 -1.81843 -0.481102 0
M  V30 3622 O 327.668 -1.21732 -1.34354 0
M  V30 3623 C 327.716 -3.28169 1.49457 0
M  V30 3624 O 326.82 -4.0643 0.699157 0
M  V30 3625 H 326.161 -0.568026 0.343864 0
M  V30 3626 H 328.691 -1.34362 1.54299 0
M  V30 3627 H 328.701 -3.78992 1.51092 0
M  V30 3628 H 327.376 -3.28722 2.54784 0
M  V30 3629 H 325.953 -3.65216 0.7531 0
M  V30 3630 N 328.138 -0.959301 -1.25041 0
M  V30 3631 C 329.101 -0.487677 -2.23952 0
M  V30 3632 C 330.101 0.41119 -1.55454 0
M  V30 3633 O 331.291 0.207825 -1.72956 0
M  V30 3634 C 328.423 0.294807 -3.39623 0
M  V30 3635 H 329.616 -1.36198 -2.67189 0
M  V30 3636 H 327.169 -0.743042 -1.37508 0
M  V30 3637 H 327.904 1.18658 -3.01813 0
M  V30 3638 H 327.689 -0.35012 -3.90534 0
M  V30 3639 H 329.179 0.614089 -4.1306 0
M  V30 3640 N 329.616 1.39756 -0.72842 0
M  V30 3641 C 330.579 2.29012 -0.0927297 0
M  V30 3642 C 331.579 1.45992 0.674025 0
M  V30 3643 O 332.769 1.66749 0.50402 0
M  V30 3644 C 329.901 3.29396 0.878137 0
M  V30 3645 H 331.094 2.86729 -0.879011 0
M  V30 3646 H 328.647 1.48293 -0.493847 0
M  V30 3647 H 329.382 2.76722 1.69101 0
M  V30 3648 H 329.167 3.907 0.331051 0
M  V30 3649 H 330.657 3.96199 1.3197 0
M  V30 3650 N 331.094 0.475555 1.50254 0
M  V30 3651 C 332.371 -0.139685 1.95101 0
M  V30 3652 C 332.751 -1.56555 1.41611 0
M  V30 3653 O 332.099 -2.19956 0.618993 0
M  V30 3654 C 332.309 -0.0784298 3.48912 0
M  V30 3655 C 333.657 -0.265095 4.23772 0
M  V30 3656 O 334.681 -0.154808 3.55863 0
M  V30 3657 O 333.54 -0.488327 5.44314 0
M  V30 3658 H 330.634 -0.109236 0.819754 0
M  V30 3659 H 333.18 0.536276 1.61004 0
M  V30 3660 H 331.952 0.916918 3.80405 0
M  V30 3661 H 331.575 -0.795655 3.89558 0
M  V30 3662 N 332.573 -1.56217 0.208337 0
M  V30 3663 C 333.819 -1.98242 -0.427552 0
M  V30 3664 C 334.152 -1.09554 -1.60348 0
M  V30 3665 O 333.427 -0.15035 -1.93918 0
M  V30 3666 C 333.71 -3.4931 -0.874907 0
M  V30 3667 C 333.563 -4.48773 0.303751 0
M  V30 3668 C 334.882 -4.04424 -1.73577 0
M  V30 3669 H 332.001 -0.720744 -0.153936 0
M  V30 3670 H 334.643 -1.87586 0.30192 0
M  V30 3671 H 332.793 -3.58522 -1.49648 0
M  V30 3672 H 334.465 -4.51586 0.941682 0
M  V30 3673 H 332.708 -4.23194 0.953375 0
M  V30 3674 H 333.379 -5.51976 -0.0519883 0
M  V30 3675 H 335.855 -3.98075 -1.21143 0
M  V30 3676 H 334.731 -5.1047 -2.01771 0
M  V30 3677 H 334.992 -3.50494 -2.69456 0
M  V30 3678 N 334.051 0.0651679 -1.57465 0
M  V30 3679 C 335.014 1.06117 -2.03155 0
M  V30 3680 C 336.014 1.31204 -0.929632 0
M  V30 3681 O 337.204 1.26813 -1.19432 0
M  V30 3682 C 334.336 2.4032 -2.41783 0
M  V30 3683 H 335.529 0.667231 -2.92383 0
M  V30 3684 H 333.082 0.311075 -1.53173 0
M  V30 3685 H 333.817 2.84532 -1.55601 0
M  V30 3686 H 333.602 2.23451 -3.22199 0
M  V30 3687 H 335.092 3.11898 -2.77685 0
M  V30 3688 N 335.529 1.53961 0.336706 0
M  V30 3689 C 336.945 1.44378 0.680241 0
M  V30 3690 C 337.145 0.606034 1.9217 0
M  V30 3691 O 336.201 0.099688 2.52303 0
M  V30 3692 C 337.514 2.87945 0.8665 0
M  V30 3693 C 339.062 2.97763 0.964682 0
M  V30 3694 C 339.537 4.42453 1.18321 0
M  V30 3695 N 341.028 4.46008 1.25025 0
M  V30 3696 C 341.763 5.55102 1.43697 0
M  V30 3697 N 341.259 6.7419 1.59498 0
M  V30 3698 N 343.052 5.42727 1.463 0
M  V30 3699 H 335.203 2.06918 -0.479455 0
M  V30 3700 H 337.466 0.935634 -0.152619 0
M  V30 3701 H 337.172 3.51691 0.0256937 0
M  V30 3702 H 337.046 3.33293 1.76623 0
M  V30 3703 H 339.433 2.34153 1.796 0
M  V30 3704 H 339.514 2.55766 0.041708 0
M  V30 3705 H 339.158 5.06645 0.356788 0
M  V30 3706 H 339.088 4.82048 2.11985 0
M  V30 3707 H 341.579 3.60196 1.14312 0
M  V30 3708 H 341.892 7.53095 1.734 0
M  V30 3709 H 340.237 6.77123 1.56621 0
M  V30 3710 H 343.428 4.48647 1.33543 0
M  V30 3711 H 343.601 6.27806 1.6051 0
M  V30 3712 N 337.007 -0.598083 1.45811 0
M  V30 3713 C 337.94 -1.7223 1.49706 0
M  V30 3714 C 338.918 -1.58732 0.352535 0
M  V30 3715 O 340.102 -1.80162 0.554438 0
M  V30 3716 C 337.229 -3.10148 1.3611 0
M  V30 3717 C 336.275 -3.42209 2.54549 0
M  V30 3718 S 337.108 -3.35989 4.16979 0
M  V30 3719 C 338.264 -4.76471 4.05865 0
M  V30 3720 H 338.497 -1.68665 2.44826 0
M  V30 3721 H 336.03 -0.775541 1.33509 0
M  V30 3722 H 337.988 -3.8972 1.28953 0
M  V30 3723 H 336.649 -3.11219 0.424451 0
M  V30 3724 H 335.842 -4.42652 2.40988 0
M  V30 3725 H 335.444 -2.70173 2.58617 0
M  V30 3726 H 337.736 -5.665 3.71596 0
M  V30 3727 H 338.679 -4.95089 5.06253 0
M  V30 3728 H 339.087 -4.52599 3.37364 0
M  V30 3729 N 338.485 -1.33259 -0.841409 0
M  V30 3730 C 339.734 -1.23921 -1.59143 0
M  V30 3731 C 340.047 0.1941 -1.94635 0
M  V30 3732 O 341.253 0.409474 -2.68394 0
M  V30 3733 C 339.709 -2.17119 -2.87032 0
M  V30 3734 C 339.317 -3.65606 -2.58914 0
M  V30 3735 C 341.061 -2.16648 -3.65053 0
M  V30 3736 C 338.968 -4.50726 -3.82884 0
M  V30 3737 H 337.898 -0.460264 -0.597221 0
M  V30 3738 H 340.549 -1.58307 -0.927959 0
M  V30 3739 H 338.931 -1.75663 -3.54906 0
M  V30 3740 H 340.105 -4.15487 -1.99267 0
M  V30 3741 H 338.42 -3.68341 -1.942 0
M  V30 3742 H 341.017 -2.77474 -4.57069 0
M  V30 3743 H 341.36 -1.16088 -3.99787 0
M  V30 3744 H 341.893 -2.56453 -3.041 0
M  V30 3745 H 338.632 -5.52151 -3.53283 0
M  V30 3746 H 338.152 -4.0559 -4.41879 0
M  V30 3747 H 339.831 -4.64401 -4.50489 0
M  V30 3748 N 339.963 1.05934 -1.16686 0
M  V30 3749 C 340.873 2.17014 -0.891183 0
M  V30 3750 C 341.889 1.73453 0.137907 0
M  V30 3751 O 343.065 2.01361 -0.039592 0
M  V30 3752 C 340.13 3.44384 -0.400099 0
M  V30 3753 C 339.191 4.02433 -1.49486 0
M  V30 3754 C 338.424 5.23723 -1.02711 0
M  V30 3755 O 338.647 5.7027 0.121716 0
M  V30 3756 O 337.581 5.7382 -1.81699 0
M  V30 3757 H 341.407 2.43113 -1.82015 0
M  V30 3758 H 338.992 1.15541 -0.947132 0
M  V30 3759 H 340.874 4.21189 -0.133392 0
M  V30 3760 H 339.549 3.19802 0.500817 0
M  V30 3761 H 338.456 3.27102 -1.81535 0
M  V30 3762 H 339.789 4.31317 -2.37121 0
M  V30 3763 N 341.441 0.965919 1.2453 0
M  V30 3764 C 342.404 0.499547 2.2369 0
M  V30 3765 C 343.404 -0.40294 1.5567 0
M  V30 3766 O 344.594 -0.19865 1.73064 0
M  V30 3767 C 341.726 -0.276792 3.39774 0
M  V30 3768 H 342.919 1.37613 2.66463 0
M  V30 3769 H 340.472 0.750324 1.37112 0
M  V30 3770 H 341.207 -1.17055 3.02438 0
M  V30 3771 H 340.992 0.370826 3.90343 0
M  V30 3772 H 342.482 -0.592175 4.1338 0
M  V30 3773 N 342.919 -1.39368 0.735821 0
M  V30 3774 C 343.852 -2.28155 0.0451175 0
M  V30 3775 C 344.83 -1.44433 -0.746852 0
M  V30 3776 O 346.014 -1.73823 -0.729237 0
M  V30 3777 C 343.141 -3.253 -0.943266 0
M  V30 3778 C 342.187 -4.25826 -0.239685 0
M  V30 3779 S 343.02 -5.25166 1.04693 0
M  V30 3780 C 344.176 -6.2587 0.0611639 0
M  V30 3781 H 344.409 -2.86388 0.79807 0
M  V30 3782 H 341.942 -1.45104 0.527653 0
M  V30 3783 H 343.9 -3.81789 -1.50824 0
M  V30 3784 H 342.561 -2.66085 -1.66906 0
M  V30 3785 H 341.754 -4.94229 -0.987596 0
M  V30 3786 H 341.356 -3.73141 0.253274 0
M  V30 3787 H 343.648 -6.73007 -0.778941 0
M  V30 3788 H 344.591 -7.04508 0.712362 0
M  V30 3789 H 344.999 -5.63639 -0.311602 0
M  V30 3790 N 344.397 -0.483516 -1.5 0
M  V30 3791 C 345.645 0.067027 -2.01989 0
M  V30 3792 C 345.966 1.3909 -1.36671 0
M  V30 3793 O 345.236 1.88978 -0.516152 0
M  V30 3794 H 343.816 0.0277606 -0.746484 0
M  V30 3795 H 346.478 -0.636773 -1.84204 0
M  V30 3796 H 345.574 0.209484 -3.11396 0
M  V30 3797 N 345.875 1.56104 -0.216619 0
M  V30 3798 C 347.121 1.98466 0.417033 0
M  V30 3799 C 347.454 1.10403 1.59765 0
M  V30 3800 O 346.729 0.160632 1.93836 0
M  V30 3801 C 347.012 3.49769 0.85637 0
M  V30 3802 C 346.865 4.48606 -0.327546 0
M  V30 3803 C 348.184 4.05339 1.7143 0
M  V30 3804 H 345.303 0.721551 0.150112 0
M  V30 3805 H 347.945 1.87423 -0.311864 0
M  V30 3806 H 346.095 3.5931 1.47745 0
M  V30 3807 H 347.767 4.5108 -0.965618 0
M  V30 3808 H 346.01 4.22682 -0.975805 0
M  V30 3809 H 346.681 5.51995 0.0227149 0
M  V30 3810 H 349.157 3.98712 1.19031 0
M  V30 3811 H 348.033 5.11533 1.99061 0
M  V30 3812 H 348.294 3.51918 2.67593 0
M  V30 3813 N 347.353 -0.0568162 1.57498 0
M  V30 3814 C 348.63 -0.786954 1.79071 0
M  V30 3815 C 349.01 -1.95028 0.80792 0
M  V30 3816 O 348.358 -2.27968 -0.155858 0
M  V30 3817 C 348.568 -1.24594 3.26002 0
M  V30 3818 C 349.916 -1.67323 3.90241 0
M  V30 3819 O 350.94 -1.34124 3.29984 0
M  V30 3820 O 349.799 -2.28842 4.9628 0
M  V30 3821 H 346.893 -0.378262 0.735423 0
M  V30 3822 H 349.439 -0.035734 1.69662 0
M  V30 3823 H 348.211 -0.41423 3.89101 0
M  V30 3824 H 347.834 -2.05803 3.40192 0
M  V30 3825 N 348.832 -1.54138 -0.328536 0
M  V30 3826 C 350.248 -1.44736 -0.672574 0
M  V30 3827 C 350.448 -0.616217 -1.91846 0
M  V30 3828 O 349.504 -0.113067 -2.52247 0
M  V30 3829 C 350.817 -2.884 -0.851217 0
M  V30 3830 C 352.365 -2.98271 -0.948877 0
M  V30 3831 C 352.84 -4.43074 -1.15973 0
M  V30 3832 N 354.331 -4.46665 -1.22658 0
M  V30 3833 C 355.066 -5.55857 -1.40751 0
M  V30 3834 N 354.562 -6.75026 -1.5592 0
M  V30 3835 N 356.355 -5.43495 -1.4342 0
M  V30 3836 H 348.506 -2.06661 0.490421 0
M  V30 3837 H 350.769 -0.934812 0.157579 0
M  V30 3838 H 350.475 -3.51699 -0.00704236 0
M  V30 3839 H 350.349 -3.34225 -1.74853 0
M  V30 3840 H 352.736 -2.35102 -1.78356 0
M  V30 3841 H 352.817 -2.55785 -0.0281435 0
M  V30 3842 H 352.461 -5.06827 -0.329915 0
M  V30 3843 H 352.391 -4.83165 -2.09426 0
M  V30 3844 H 354.882 -3.60797 -1.124 0
M  V30 3845 H 355.195 -7.54004 -1.69404 0
M  V30 3846 H 353.54 -6.77944 -1.53027 0
M  V30 3847 H 356.731 -4.49349 -1.31162 0
M  V30 3848 H 356.904 -6.28649 -1.57178 0
M  V30 3849 N 350.31 0.590341 -1.46126 0
M  V30 3850 C 351.556 1.35082 -1.51264 0
M  V30 3851 C 351.889 1.93534 -0.160711 0
M  V30 3852 O 351.164 1.76045 0.826956 0
M  V30 3853 C 351.447 2.48588 -2.6053 0
M  V30 3854 C 351.3 1.95221 -4.05227 0
M  V30 3855 C 352.619 3.50662 -2.6594 0
M  V30 3856 H 349.738 0.489803 -0.550692 0
M  V30 3857 H 352.38 0.663887 -1.78024 0
M  V30 3858 H 350.53 3.07186 -2.37843 0
M  V30 3859 H 352.202 1.41139 -4.39178 0
M  V30 3860 H 350.445 1.26101 -4.15068 0
M  V30 3861 H 351.116 2.77121 -4.77397 0
M  V30 3862 H 353.592 3.01934 -2.86313 0
M  V30 3863 H 352.468 4.27551 -3.44226 0
M  V30 3864 H 352.729 4.07399 -1.71694 0
M  V30 3865 N 351.788 1.33704 0.83433 0
M  V30 3866 C 353.034 1.25603 1.59222 0
M  V30 3867 C 353.367 -0.176659 1.93395 0
M  V30 3868 O 352.642 -1.11915 1.59076 0
M  V30 3869 C 352.925 2.13576 2.89926 0
M  V30 3870 C 352.778 3.65326 2.62406 0
M  V30 3871 C 354.097 2.01238 3.91397 0
M  V30 3872 H 351.216 0.457613 0.577719 0
M  V30 3873 H 353.858 1.63848 0.961972 0
M  V30 3874 H 352.008 1.8109 3.43713 0
M  V30 3875 H 353.68 4.08124 2.15017 0
M  V30 3876 H 351.923 3.8698 1.96033 0
M  V30 3877 H 352.594 4.22232 3.55562 0
M  V30 3878 H 355.07 2.29738 3.46929 0
M  V30 3879 H 353.946 2.65036 4.80673 0
M  V30 3880 H 354.207 0.985951 4.30966 0
M  V30 3881 N 353.266 -1.05314 1.17247 0
M  V30 3882 C 354.229 -2.112 0.890357 0
M  V30 3883 C 355.229 -1.60359 -0.118943 0
M  V30 3884 O 356.419 -1.73833 0.113086 0
M  V30 3885 C 353.551 -3.39266 0.333422 0
M  V30 3886 H 354.744 -2.37659 1.82916 0
M  V30 3887 H 352.297 -1.21538 0.982758 0
M  V30 3888 H 353.032 -3.18462 -0.612587 0
M  V30 3889 H 352.817 -3.77477 1.06082 0
M  V30 3890 H 354.307 -4.17315 0.154322 0
M  V30 3891 N 354.744 -0.972509 -1.24016 0
M  V30 3892 C 355.993 -0.632603 -1.91523 0
M  V30 3893 C 356.306 0.836641 -1.76804 0
M  V30 3894 O 357.512 1.28728 -2.39043 0
M  V30 3895 C 355.968 -1.08082 -3.43287 0
M  V30 3896 C 355.576 -2.57386 -3.66683 0
M  V30 3897 C 357.32 -0.814288 -4.16617 0
M  V30 3898 C 355.227 -2.95915 -5.12043 0
M  V30 3899 H 354.157 -0.232898 -0.717129 0
M  V30 3900 H 356.808 -1.17936 -1.40582 0
M  V30 3901 H 355.19 -0.462339 -3.93292 0
M  V30 3902 H 356.364 -3.24405 -3.27258 0
M  V30 3903 H 354.679 -2.81701 -3.06649 0
M  V30 3904 H 357.276 -1.0781 -5.23718 0
M  V30 3905 H 357.619 0.24955 -4.15551 0
M  V30 3906 H 358.152 -1.39397 -3.72577 0
M  V30 3907 H 354.891 -4.0139 -5.18234 0
M  V30 3908 H 354.411 -2.33584 -5.52448 0
M  V30 3909 H 356.09 -2.86086 -5.80314 0
M  V30 3910 N 356.222 1.38976 -0.743202 0
M  V30 3911 C 357.499 1.94351 -0.220705 0
M  V30 3912 C 357.879 1.67935 1.2791 0
M  V30 3913 O 357.227 1.01211 2.04862 0
M  V30 3914 C 357.437 3.44426 -0.563171 0
M  V30 3915 C 358.785 4.2144 -0.517046 0
M  V30 3916 O 359.809 3.52661 -0.500846 0
M  V30 3917 O 358.668 5.44032 -0.518806 0
M  V30 3918 H 355.762 0.825879 -0.043047 0
M  V30 3919 H 358.308 1.48429 -0.822618 0
M  V30 3920 H 357.08 3.5712 -1.59941 0
M  V30 3921 H 356.703 3.97543 0.0672883 0
M  V30 3922 N 357.7 0.491464 1.49741 0
M  V30 3923 C 358.63 -0.28154 2.31796 0
M  V30 3924 C 359.611 -0.971473 1.3963 0
M  V30 3925 O 360.796 -0.964719 1.68543 0
M  V30 3926 C 357.926 -1.35203 3.19902 0
M  V30 3927 C 356.88 -0.782529 4.20786 0
M  V30 3928 C 356.206 -1.95283 4.97764 0
M  V30 3929 C 357.506 0.21999 5.21837 0
M  V30 3930 H 359.2 0.403355 2.96671 0
M  V30 3931 H 356.746 0.195425 1.42668 0
M  V30 3932 H 358.699 -1.90045 3.76113 0
M  V30 3933 H 357.423 -2.06598 2.52953 0
M  V30 3934 H 356.082 -0.255928 3.65706 0
M  V30 3935 H 355.73 -2.65423 4.2727 0
M  V30 3936 H 355.43 -1.57789 5.66018 0
M  V30 3937 H 356.954 -2.50577 5.56816 0
M  V30 3938 H 358.368 -0.23996 5.72798 0
M  V30 3939 H 356.765 0.51026 5.97927 0
M  V30 3940 H 357.835 1.13911 4.7133 0
M  V30 3941 N 359.178 -1.55987 0.224894 0
M  V30 3942 C 360.128 -2.17076 -0.697296 0
M  V30 3943 C 361.112 -1.12006 -1.15514 0
M  V30 3944 O 362.304 -1.37985 -1.10857 0
M  V30 3945 C 359.433 -2.85679 -1.90374 0
M  V30 3946 C 358.519 -3.97977 -1.46543 0
M  V30 3947 N 358.91 -5.00359 -0.739909 0
M  V30 3948 C 357.208 -4.10128 -1.75245 0
M  V30 3949 C 357.909 -5.79407 -0.515939 0
M  V30 3950 N 356.885 -5.32892 -1.07364 0
M  V30 3951 H 360.687 -2.93592 -0.134594 0
M  V30 3952 H 358.201 -1.62379 0.0262885 0
M  V30 3953 H 360.198 -3.27857 -2.57518 0
M  V30 3954 H 358.858 -2.1066 -2.47088 0
M  V30 3955 H 359.869 -5.16412 -0.392253 0
M  V30 3956 H 356.546 -3.46263 -2.33255 0
M  V30 3957 H 357.936 -6.71872 0.0617349 0
M  V30 3958 N 360.656 0.0484629 -1.57525 0
M  V30 3959 C 361.881 0.759177 -1.93006 0
M  V30 3960 C 362.306 1.69125 -0.823317 0
M  V30 3961 O 361.664 1.79931 0.222364 0
M  V30 3962 C 361.712 1.50899 -3.27509 0
M  V30 3963 O 360.816 2.62112 -3.18388 0
M  V30 3964 H 360.157 0.205564 -0.631379 0
M  V30 3965 H 362.687 0.00972959 -2.04598 0
M  V30 3966 H 362.697 1.88317 -3.6194 0
M  V30 3967 H 361.372 0.825269 -4.0763 0
M  V30 3968 H 359.949 2.27379 -2.95556 0
M  V30 3969 N 362.134 1.5431 0.320358 0
M  V30 3970 C 363.382 1.72327 1.05583 0
M  V30 3971 C 363.703 0.50149 1.88441 0
M  V30 3972 O 362.973 -0.48448 1.89815 0
M  V30 3973 H 361.553 0.635387 0.3928 0
M  V30 3974 H 364.215 1.91621 0.356019 0
M  V30 3975 H 363.311 2.60426 1.72003 0
M  V30 3976 N 363.613 -0.582584 1.46437 0
M  V30 3977 C 364.545 -1.70618 1.53043 0
M  V30 3978 C 365.558 -1.57322 0.418769 0
M  V30 3979 O 366.747 -1.64744 0.687136 0
M  V30 3980 C 363.847 -3.08869 1.39474 0
M  V30 3981 C 363.02 -3.48166 2.64762 0
M  V30 3982 C 362.079 -4.65478 2.4539 0
M  V30 3983 O 361.105 -4.71333 3.19114 0
M  V30 3984 N 362.307 -5.60365 1.51564 0
M  V30 3985 H 365.072 -1.65405 2.49923 0
M  V30 3986 H 362.633 -0.768567 1.42494 0
M  V30 3987 H 364.625 -3.85143 1.24287 0
M  V30 3988 H 363.195 -3.08449 0.507758 0
M  V30 3989 H 362.415 -2.61598 2.9489 0
M  V30 3990 H 363.703 -3.71188 3.4799 0
M  V30 3991 H 363.101 -5.5837 0.907705 0
M  V30 3992 H 361.658 -6.36068 1.4234 0
M  V30 3993 N 365.091 -1.34144 -0.827227 0
M  V30 3994 C 366.34 -1.25602 -1.5782 0
M  V30 3995 C 366.653 0.173445 -1.94829 0
M  V30 3996 O 367.859 0.380984 -2.68814 0
M  V30 3997 C 366.315 -2.20151 -2.84713 0
M  V30 3998 C 365.923 -3.68331 -2.55021 0
M  V30 3999 C 367.667 -2.20508 -3.62735 0
M  V30 4000 C 365.574 -4.54762 -3.78082 0
M  V30 4001 H 364.504 -0.466573 -0.592306 0
M  V30 4002 H 367.155 -1.59283 -0.911116 0
M  V30 4003 H 365.537 -1.79417 -3.53023 0
M  V30 4004 H 366.711 -4.17577 -1.94849 0
M  V30 4005 H 365.026 -3.7038 -1.90283 0
M  V30 4006 H 367.623 -2.82306 -4.54101 0
M  V30 4007 H 367.966 -1.20322 -3.98533 0
M  V30 4008 H 368.499 -2.59664 -3.01362 0
M  V30 4009 H 365.238 -5.55867 -3.47407 0
M  V30 4010 H 364.758 -4.10254 -4.37552 0
M  V30 4011 H 366.437 -4.69153 -4.45538 0
M  V30 4012 N 366.569 1.04691 -1.17803 0
M  V30 4013 C 367.501 2.12571 -0.857097 0
M  V30 4014 C 368.514 1.62174 0.142647 0
M  V30 4015 O 369.703 1.78301 -0.0843387 0
M  V30 4016 C 366.803 3.37915 -0.258216 0
M  V30 4017 C 365.976 4.1757 -1.30207 0
M  V30 4018 C 365.035 5.2125 -0.720029 0
M  V30 4019 O 364.061 5.51888 -1.39314 0
M  V30 4020 N 365.263 5.78466 0.485507 0
M  V30 4021 H 368.028 2.40698 -1.78562 0
M  V30 4022 H 365.589 1.20831 -1.07757 0
M  V30 4023 H 367.581 4.04442 0.144584 0
M  V30 4024 H 366.151 3.07281 0.574199 0
M  V30 4025 H 365.371 3.46458 -1.88043 0
M  V30 4026 H 366.659 4.67586 -2.00601 0
M  V30 4027 H 366.057 5.55866 1.05022 0
M  V30 4028 H 364.614 6.4649 0.830307 0
M  V30 4029 N 368.047 0.979072 1.23499 0
M  V30 4030 C 369.295 0.645941 1.91499 0
M  V30 4031 C 369.616 -0.822948 1.76784 0
M  V30 4032 O 368.886 -1.58854 1.14639 0
M  V30 4033 H 367.466 0.235919 0.708767 0
M  V30 4034 H 370.128 1.2426 1.50152 0
M  V30 4035 H 369.224 0.896411 2.9895 0
M  V30 4036 N 369.525 -1.3858 0.750561 0
M  V30 4037 C 370.772 -2.00184 0.305373 0
M  V30 4038 C 371.1 -1.59575 -1.11203 0
M  V30 4039 O 370.355 -0.823236 -1.77542 0
M  V30 4040 C 370.654 -3.55455 0.372373 0
M  V30 4041 C 370.32 -4.15765 1.745 0
M  V30 4042 C 368.982 -4.31951 2.12065 0
M  V30 4043 C 371.334 -4.49067 2.64553 0
M  V30 4044 C 368.662 -4.78734 3.39162 0
M  V30 4045 C 371.014 -4.97265 3.91038 0
M  V30 4046 C 369.678 -5.11658 4.28676 0
M  V30 4047 H 368.948 -0.732526 0.111744 0
M  V30 4048 H 371.595 -1.65673 0.960451 0
M  V30 4049 H 369.9 -3.90084 -0.366272 0
M  V30 4050 H 371.597 -4.00999 0.00953918 0
M  V30 4051 H 368.187 -4.03579 1.44297 0
M  V30 4052 H 372.371 -4.36166 2.36796 0
M  V30 4053 H 367.627 -4.88062 3.68246 0
M  V30 4054 H 371.801 -5.22003 4.60962 0
M  V30 4055 H 369.428 -5.47668 5.27222 0
M  V30 4056 N 371.003 -0.499398 -1.49478 0
M  V30 4057 C 372.25 0.0456899 -2.02448 0
M  V30 4058 C 372.578 1.37142 -1.37921 0
M  V30 4059 O 371.833 1.89111 -0.503544 0
M  V30 4060 C 372.132 0.248424 -3.56536 0
M  V30 4061 C 371.798 -0.999107 -4.39692 0
M  V30 4062 C 370.46 -1.34108 -4.62135 0
M  V30 4063 C 372.812 -1.82842 -4.88076 0
M  V30 4064 C 370.14 -2.51191 -5.30208 0
M  V30 4065 C 372.492 -2.99076 -5.57437 0
M  V30 4066 C 371.156 -3.33655 -5.78127 0
M  V30 4067 H 370.426 0.0167191 -0.740811 0
M  V30 4068 H 373.073 -0.65923 -1.79795 0
M  V30 4069 H 371.378 1.03586 -3.77859 0
M  V30 4070 H 373.075 0.684605 -3.95113 0
M  V30 4071 H 369.665 -0.722729 -4.22463 0
M  V30 4072 H 373.849 -1.57737 -4.70566 0
M  V30 4073 H 369.105 -2.78221 -5.44429 0
M  V30 4074 H 373.279 -3.63664 -5.93904 0
M  V30 4075 H 370.906 -4.24483 -6.30649 0
M  V30 4076 N 372.481 1.55866 -0.233164 0
M  V30 4077 C 373.729 1.9821 0.394593 0
M  V30 4078 C 374.05 1.12234 1.59463 0
M  V30 4079 O 373.32 0.201981 1.94856 0
M  V30 4080 H 371.9 0.732034 0.148778 0
M  V30 4081 H 374.562 1.92107 -0.32876 0
M  V30 4082 H 373.658 3.03845 0.713063 0
M  V30 4083 N 373.959 -0.0401083 1.57549 0
M  V30 4084 C 375.37 -0.588097 1.77196 0
M  V30 4085 C 375.721 -1.76209 0.862832 0
M  V30 4086 O 374.846 -2.16331 0.0548389 0
M  V30 4087 C 375.441 -1.07363 3.21339 0
M  V30 4088 C 374 -1.56723 3.42221 0
M  V30 4089 C 373.147 -0.50041 2.72747 0
M  V30 4090 H 376.098 0.186119 1.57605 0
M  V30 4091 H 376.119 -1.94143 3.27244 0
M  V30 4092 H 375.631 -0.218975 3.87482 0
M  V30 4093 H 373.732 -2.4441 2.81237 0
M  V30 4094 H 373.845 -1.62234 4.50796 0
M  V30 4095 H 372.209 -0.952894 2.36203 0
M  V30 4096 H 372.992 0.344599 3.41566 0
M  V30 4097 N 375.437 -1.54477 -0.31217 0
M  V30 4098 C 376.853 -1.45442 -0.657185 0
M  V30 4099 C 377.053 -0.63653 -1.91182 0
M  V30 4100 O 376.109 -0.139815 -2.52113 0
M  V30 4101 C 377.422 -2.89287 -0.82058 0
M  V30 4102 C 378.97 -2.9926 -0.917188 0
M  V30 4103 C 379.445 -4.44279 -1.11267 0
M  V30 4104 N 380.936 -4.4794 -1.17914 0
M  V30 4105 C 381.671 -5.57318 -1.34848 0
M  V30 4106 N 381.167 -6.76642 -1.48752 0
M  V30 4107 N 382.96 -5.44986 -1.37647 0
M  V30 4108 H 375.111 -2.06129 0.512313 0
M  V30 4109 H 377.374 -0.933088 0.167485 0
M  V30 4110 H 377.08 -3.51687 0.0302604 0
M  V30 4111 H 376.954 -3.36061 -1.71298 0
M  V30 4112 H 379.341 -2.36981 -1.75852 0
M  V30 4113 H 379.422 -2.558 -0.00101257 0
M  V30 4114 H 379.066 -5.07149 -0.27614 0
M  V30 4115 H 378.996 -4.85359 -2.04289 0
M  V30 4116 H 381.487 -3.61969 -1.08567 0
M  V30 4117 H 381.8 -7.55758 -1.61397 0
M  V30 4118 H 380.145 -6.79529 -1.45828 0
M  V30 4119 H 383.336 -4.50715 -1.26388 0
M  V30 4120 H 383.509 -6.3028 -1.50501 0
M  V30 4121 N 376.915 0.57481 -1.46744 0
M  V30 4122 C 378.161 1.3347 -1.52688 0
M  V30 4123 C 378.494 1.93353 -0.181229 0
M  V30 4124 O 377.769 1.76912 0.808237 0
M  V30 4125 C 378.052 2.45811 -2.63152 0
M  V30 4126 C 377.905 1.90912 -4.07275 0
M  V30 4127 C 379.224 3.47822 -2.69644 0
M  V30 4128 H 376.343 0.483935 -0.555856 0
M  V30 4129 H 378.985 0.644968 -1.78718 0
M  V30 4130 H 377.135 3.04646 -2.41088 0
M  V30 4131 H 378.807 1.36473 -4.4065 0
M  V30 4132 H 377.05 1.21691 -4.16382 0
M  V30 4133 H 377.721 2.72042 -4.80309 0
M  V30 4134 H 380.197 2.9888 -2.895 0
M  V30 4135 H 379.073 4.23876 -3.48742 0
M  V30 4136 H 379.334 4.05555 -1.76005 0
M  V30 4137 N 378.394 1.34581 0.820102 0
M  V30 4138 C 379.805 1.24298 1.39309 0
M  V30 4139 C 380.156 -0.130351 1.95767 0
M  V30 4140 O 379.281 -1.0308 1.90272 0
M  V30 4141 C 379.876 2.25054 2.53251 0
M  V30 4142 C 378.435 2.18552 3.0645 0
M  V30 4143 C 377.582 2.11503 1.79337 0
M  V30 4144 H 380.533 1.45906 0.624262 0
M  V30 4145 H 380.554 1.86917 3.31425 0
M  V30 4146 H 380.066 3.24996 2.1213 0
M  V30 4147 H 378.167 1.21976 3.52069 0
M  V30 4148 H 378.28 3.0993 3.65349 0
M  V30 4149 H 376.644 1.57268 2.00347 0
M  V30 4150 H 377.427 3.13284 1.40386 0
M  V30 4151 N 379.872 -1.04064 1.18357 0
M  V30 4152 C 381.118 -1.77528 0.980397 0
M  V30 4153 C 381.451 -1.87948 -0.48879 0
M  V30 4154 O 380.726 -1.3876 -1.36293 0
M  V30 4155 C 381.009 -3.20797 1.63588 0
M  V30 4156 C 380.862 -3.1832 3.17793 0
M  V30 4157 C 382.181 -4.18911 1.34914 0
M  V30 4158 H 379.3 -0.644443 0.357578 0
M  V30 4159 H 381.942 -1.2156 1.46024 0
M  V30 4160 H 380.092 -3.68586 1.22788 0
M  V30 4161 H 381.764 -2.78521 3.67728 0
M  V30 4162 H 380.007 -2.56351 3.49952 0
M  V30 4163 H 380.678 -4.19489 3.58794 0
M  V30 4164 H 383.154 -3.7967 1.70265 0
M  V30 4165 H 382.03 -5.17374 1.83346 0
M  V30 4166 H 382.291 -4.41262 0.272027 0
M  V30 4167 N 381.35 -0.985608 -1.22978 0
M  V30 4168 C 382.627 -0.573599 -1.87001 0
M  V30 4169 C 383.007 0.949213 -1.88555 0
M  V30 4170 O 382.355 1.82811 -1.37086 0
M  V30 4171 C 382.565 -1.18564 -3.28243 0
M  V30 4172 C 383.913 -1.28163 -4.04796 0
M  V30 4173 O 384.937 -1.13949 -3.37482 0
M  V30 4174 O 383.796 -1.50832 -5.25273 0
M  V30 4175 H 380.89 -0.193868 -0.803955 0
M  V30 4176 H 383.436 -1.08102 -1.30813 0
M  V30 4177 H 382.208 -2.22758 -3.21706 0
M  V30 4178 H 381.831 -0.663363 -3.92027 0
M  V30 4179 N 382.828 1.3818 -0.7579 0
M  V30 4180 C 383.776 2.32277 -0.122482 0
M  V30 4181 C 384.77 1.54238 0.700505 0
M  V30 4182 O 385.976 1.69737 0.599119 0
M  V30 4183 H 382.351 0.751712 -0.0208143 0
M  V30 4184 H 384.322 2.83469 -0.932099 0
M  V30 4185 C 383.071 3.39447 0.753076 0
M  V30 4186 H 382.394 3.99591 0.129184 0
M  V30 4187 H 383.834 4.07684 1.16489 0
M  V30 4188 C 382.293 2.78375 1.8976 0
M  V30 4189 O 382.823 2.68025 2.99208 0
M  V30 4190 N 381.029 2.36121 1.69397 0
M  V30 4191 H 380.576 2.4474 0.803762 0
M  V30 4192 H 380.534 1.95602 2.46145 0
M  V30 4193 N 384.306 0.507319 1.49211 0
M  V30 4194 C 385.236 -0.256939 2.32082 0
M  V30 4195 C 386.217 -0.956609 1.40652 0
M  V30 4196 O 387.402 -0.946788 1.69557 0
M  V30 4197 C 384.532 -1.31802 3.21318 0
M  V30 4198 C 383.486 -0.737855 4.21592 0
M  V30 4199 C 382.812 -1.89992 4.99807 0
M  V30 4200 C 384.112 0.275325 5.21574 0
M  V30 4201 H 385.806 0.434798 2.96226 0
M  V30 4202 H 383.352 0.210546 1.42452 0
M  V30 4203 H 385.305 -1.86045 3.78107 0
M  V30 4204 H 384.029 -2.03903 2.5513 0
M  V30 4205 H 382.688 -0.217126 3.65956 0
M  V30 4206 H 382.336 -2.60877 4.30061 0
M  V30 4207 H 382.036 -1.51777 5.6766 0
M  V30 4208 H 383.56 -2.44657 5.59442 0
M  V30 4209 H 384.974 -0.179193 5.7302 0
M  V30 4210 H 383.371 0.573649 5.97352 0
M  V30 4211 H 384.441 1.18903 4.70096 0
M  V30 4212 N 385.784 -1.5574 0.241426 0
M  V30 4213 C 386.694 -2.2479 -0.671305 0
M  V30 4214 C 387.71 -1.26217 -1.19772 0
M  V30 4215 O 388.886 -1.59079 -1.23514 0
M  V30 4216 C 385.951 -2.92966 -1.85396 0
M  V30 4217 C 385.012 -4.06935 -1.36756 0
M  V30 4218 C 384.245 -4.71851 -2.49384 0
M  V30 4219 O 384.468 -4.35823 -3.67987 0
M  V30 4220 O 383.402 -5.60467 -2.19454 0
M  V30 4221 H 387.228 -3.0349 -0.112966 0
M  V30 4222 H 384.813 -1.49397 0.0101513 0
M  V30 4223 H 386.695 -3.35927 -2.54423 0
M  V30 4224 H 385.37 -2.17211 -2.40002 0
M  V30 4225 H 384.277 -3.68503 -0.644726 0
M  V30 4226 H 385.61 -4.84492 -0.867647 0
M  V30 4227 N 387.262 0.0317525 -1.57568 0
M  V30 4228 C 388.225 1.01783 -2.0536 0
M  V30 4229 C 389.225 1.29203 -0.957253 0
M  V30 4230 O 390.415 1.24251 -1.22095 0
M  V30 4231 C 387.547 2.35137 -2.46827 0
M  V30 4232 H 388.74 0.605062 -2.93733 0
M  V30 4233 H 386.293 0.278514 -1.53799 0
M  V30 4234 H 387.028 2.81168 -1.61602 0
M  V30 4235 H 386.813 2.16566 -3.26866 0
M  V30 4236 H 388.303 3.05938 -2.84239 0
M  V30 4237 N 388.74 1.54641 0.303973 0
M  V30 4238 C 389.672 1.81754 1.39636 0
M  V30 4239 C 390.685 0.70035 1.46966 0
M  V30 4240 O 391.874 0.97778 1.49338 0
M  V30 4241 C 388.974 1.93785 2.7803 0
M  V30 4242 C 388.147 3.24156 2.93669 0
M  V30 4243 C 387.206 3.26641 4.12544 0
M  V30 4244 O 386.232 4.00187 4.04771 0
M  V30 4245 N 387.434 2.5182 5.23036 0
M  V30 4246 H 390.199 2.76031 1.16734 0
M  V30 4247 H 387.76 1.54178 0.494033 0
M  V30 4248 H 389.752 1.92852 3.55795 0
M  V30 4249 H 388.322 1.06515 2.93893 0
M  V30 4250 H 387.542 3.37887 2.03042 0
M  V30 4251 H 388.83 4.10195 3.01027 0
M  V30 4252 H 388.228 1.91692 5.32232 0
M  V30 4253 H 386.785 2.56644 5.99147 0
M  V30 4254 N 390.218 -0.567019 1.47046 0
M  V30 4255 C 391.148 -1.68482 1.61667 0
M  V30 4256 C 392.129 -1.6358 0.466418 0
M  V30 4257 O 393.314 -1.81354 0.694574 0
M  V30 4258 C 390.444 -3.07124 1.62148 0
M  V30 4259 C 389.398 -3.26867 2.76301 0
M  V30 4260 C 388.724 -4.66196 2.61849 0
M  V30 4261 C 390.024 -3.13186 4.17986 0
M  V30 4262 H 391.718 -1.56502 2.5524 0
M  V30 4263 H 389.264 -0.751486 1.22836 0
M  V30 4264 H 391.217 -3.8516 1.70968 0
M  V30 4265 H 389.941 -3.2004 0.651287 0
M  V30 4266 H 388.6 -2.51237 2.66975 0
M  V30 4267 H 388.248 -4.75898 1.62879 0
M  V30 4268 H 387.948 -4.80356 3.38425 0
M  V30 4269 H 389.472 -5.46379 2.72584 0
M  V30 4270 H 390.886 -3.81049 4.2834 0
M  V30 4271 H 389.283 -3.3886 4.95272 0
M  V30 4272 H 390.353 -2.10057 4.3704 0
M  V30 4273 N 391.696 -1.35014 -0.812953 0
M  V30 4274 C 392.945 -1.27269 -1.56479 0
M  V30 4275 C 393.258 0.152771 -1.95002 0
M  V30 4276 O 394.464 0.352451 -2.69203 0
M  V30 4277 C 392.92 -2.23159 -2.82362 0
M  V30 4278 C 392.528 -3.71016 -2.511 0
M  V30 4279 C 394.272 -2.24342 -3.60376 0
M  V30 4280 C 392.179 -4.58746 -3.73237 0
M  V30 4281 H 391.109 -0.472829 -0.587324 0
M  V30 4282 H 393.76 -1.6024 -0.894171 0
M  V30 4283 H 392.142 -1.83151 -3.51101 0
M  V30 4284 H 393.316 -4.1962 -1.90409 0
M  V30 4285 H 391.631 -3.72378 -1.86343 0
M  V30 4286 H 394.228 -2.87107 -4.51081 0
M  V30 4287 H 394.571 -1.24542 -3.97234 0
M  V30 4288 H 395.104 -2.62846 -2.98591 0
M  V30 4289 H 391.843 -5.59521 -3.41492 0
M  V30 4290 H 391.363 -4.14871 -4.33176 0
M  V30 4291 H 393.042 -4.73852 -4.40537 0
M  V30 4292 N 393.175 1.03435 -1.18907 0
M  V30 4293 C 394.423 1.76394 -0.986382 0
M  V30 4294 C 394.744 1.88883 0.484567 0
M  V30 4295 O 394.014 1.41843 1.3512 0
M  V30 4296 H 392.594 0.65344 -0.361975 0
M  V30 4297 H 395.256 1.248 -1.49703 0
M  V30 4298 H 394.352 2.77424 -1.42978 0
M  V30 4299 N 394.653 0.992116 1.22453 0
M  V30 4300 C 395.583 0.561677 2.26644 0
M  V30 4301 C 396.564 -0.411055 1.65059 0
M  V30 4302 O 397.749 -0.301861 1.9184 0
M  V30 4303 C 394.879 -0.125247 3.47074 0
M  V30 4304 C 393.833 0.765948 4.21091 0
M  V30 4305 C 393.159 -0.0538484 5.34673 0
M  V30 4306 C 394.459 2.06242 4.79856 0
M  V30 4307 H 396.153 1.43259 2.62902 0
M  V30 4308 H 393.699 0.690283 1.26377 0
M  V30 4309 H 395.652 -0.437764 4.1912 0
M  V30 4310 H 394.376 -1.03069 3.0991 0
M  V30 4311 H 393.035 1.0621 3.50878 0
M  V30 4312 H 392.683 -0.960188 4.9375 0
M  V30 4313 H 392.383 0.539415 5.85119 0
M  V30 4314 H 393.907 -0.360477 6.09535 0
M  V30 4315 H 395.321 1.8139 5.43848 0
M  V30 4316 H 393.718 2.60444 5.40638 0
M  V30 4317 H 394.788 2.74167 3.99951 0
M  V30 4318 N 396.131 -1.37776 0.765217 0
M  V30 4319 C 397.408 -1.93975 0.251596 0
M  V30 4320 C 397.788 -1.69949 -1.25222 0
M  V30 4321 O 397.136 -1.04457 -2.03226 0
M  V30 4322 C 397.346 -3.43487 0.617895 0
M  V30 4323 C 398.694 -4.20564 0.584029 0
M  V30 4324 O 399.718 -3.5182 0.556888 0
M  V30 4325 O 398.577 -5.43138 0.605291 0
M  V30 4326 H 395.671 -0.82509 0.0561806 0
M  V30 4327 H 398.217 -1.47101 0.846128 0
M  V30 4328 H 396.989 -3.5453 1.65602 0
M  V30 4329 H 396.612 -3.976 -0.00403411 0
M  V30 4330 N 397.609 -0.515225 -1.4894 0
M  V30 4331 C 398.839 0.0205735 -2.0659 0
M  V30 4332 C 399.247 1.30064 -1.37405 0
M  V30 4333 O 398.59 1.78087 -0.450632 0
M  V30 4334 C 398.652 0.330124 -3.57981 0
M  V30 4335 C 398.316 -0.854295 -4.48944 0
M  V30 4336 C 399.313 -1.7487 -4.89609 0
M  V30 4337 C 396.998 -1.05712 -4.9105 0
M  V30 4338 C 398.992 -2.82996 -5.71132 0
M  V30 4339 C 396.679 -2.14154 -5.72347 0
M  V30 4340 C 397.677 -3.0263 -6.12294 0
M  V30 4341 O 397.365 -4.09198 -6.91962 0
M  V30 4342 H 397.097 -0.0236833 -0.675585 0
M  V30 4343 H 399.651 -0.715956 -1.92518 0
M  V30 4344 H 397.881 1.12044 -3.70112 0
M  V30 4345 H 399.57 0.806233 -3.97812 0
M  V30 4346 H 400.336 -1.60388 -4.57712 0
M  V30 4347 H 396.215 -0.377788 -4.59449 0
M  V30 4348 H 399.759 -3.52083 -6.02232 0
M  V30 4349 H 395.656 -2.28626 -6.03656 0
M  V30 4350 H 396.424 -4.06726 -7.10293 0
M  V30 4351 N 399.087 1.5561 -0.249682 0
M  V30 4352 C 400.334 1.99011 0.374287 0
M  V30 4353 C 400.662 1.13785 1.57744 0
M  V30 4354 O 399.917 0.189326 1.94782 0
M  V30 4355 C 400.216 3.4775 0.824887 0
M  V30 4356 C 399.882 4.50086 -0.270819 0
M  V30 4357 C 398.544 4.77791 -0.571746 0
M  V30 4358 C 400.896 5.11312 -1.01041 0
M  V30 4359 C 398.224 5.63997 -1.61629 0
M  V30 4360 C 400.576 5.98651 -2.0445 0
M  V30 4361 C 399.24 6.24688 -2.35204 0
M  V30 4362 H 398.51 0.728233 0.136961 0
M  V30 4363 H 401.157 1.88122 -0.358087 0
M  V30 4364 H 399.462 3.55985 1.63651 0
M  V30 4365 H 401.159 3.78721 1.31799 0
M  V30 4366 H 397.749 4.28592 -0.026136 0
M  V30 4367 H 401.933 4.89953 -0.791177 0
M  V30 4368 H 397.189 5.82425 -1.85988 0
M  V30 4369 H 401.363 6.45135 -2.62248 0
M  V30 4370 H 398.99 6.91281 -3.16282 0
M  V30 4371 N 400.565 -0.0233959 1.57583 0
M  V30 4372 C 401.793 -0.724682 1.93794 0
M  V30 4373 C 402.208 -1.68588 0.849912 0
M  V30 4374 O 401.565 -1.81676 -0.173204 0
M  V30 4375 C 401.616 -1.47684 3.29957 0
M  V30 4376 O 401.337 -0.554222 4.3458 0
M  V30 4377 C 402.838 -2.27477 3.80485 0
M  V30 4378 H 400.058 -0.203317 0.639455 0
M  V30 4379 H 402.602 0.0207653 2.04489 0
M  V30 4380 H 400.757 -2.17412 3.20641 0
M  V30 4381 H 401.171 -1.08232 5.13212 0
M  V30 4382 H 402.645 -2.7564 4.78254 0
M  V30 4383 H 403.122 -3.09144 3.11972 0
M  V30 4384 H 403.728 -1.62813 3.92902 0
M  V30 4385 N 402.043 -1.548 -0.295768 0
M  V30 4386 C 402.99 -1.86113 -1.36494 0
M  V30 4387 C 403.96 -0.7105 -1.50137 0
M  V30 4388 O 405.145 -0.959626 -1.64912 0
M  V30 4389 C 402.285 -2.11861 -2.72413 0
M  V30 4390 C 401.398 -3.39471 -2.67177 0
M  V30 4391 C 400.533 -3.55035 -3.95125 0
M  V30 4392 C 399.572 -4.76418 -3.84308 0
M  V30 4393 N 398.709 -4.8876 -5.04042 0
M  V30 4394 H 403.549 -2.77314 -1.09091 0
M  V30 4395 H 401.086 -1.37315 -0.52753 0
M  V30 4396 H 403.044 -2.24786 -3.51464 0
M  V30 4397 H 401.674 -1.2392 -2.98066 0
M  V30 4398 H 400.726 -3.35139 -1.79962 0
M  V30 4399 H 402.038 -4.28646 -2.55076 0
M  V30 4400 H 401.192 -3.67653 -4.82614 0
M  V30 4401 H 399.931 -2.64002 -4.10066 0
M  V30 4402 H 398.936 -4.63827 -2.95202 0
M  V30 4403 H 400.161 -5.68863 -3.70906 0
M  V30 4404 H 398.107 -4.00652 -5.19436 0
M  V30 4405 H 398.024 -5.71945 -4.94384 0
M  V30 4406 H 399.292 -5.0574 -5.93167 0
M  V30 4407 N 403.521 0.559213 -1.47345 0
M  V30 4408 C 404.468 1.66645 -1.59682 0
M  V30 4409 C 405.438 1.60168 -0.43994 0
M  V30 4410 O 406.623 1.79031 -0.659736 0
M  V30 4411 C 403.763 3.04969 -1.61518 0
M  V30 4412 C 402.876 3.21897 -2.88108 0
M  V30 4413 C 402.011 4.50608 -2.81294 0
M  V30 4414 C 401.05 4.60961 -4.02717 0
M  V30 4415 N 400.187 5.81024 -3.94151 0
M  V30 4416 H 405.027 1.55439 -2.54249 0
M  V30 4417 H 402.564 0.757219 -1.26113 0
M  V30 4418 H 404.522 3.85064 -1.60566 0
M  V30 4419 H 403.152 3.15015 -0.704645 0
M  V30 4420 H 402.204 2.35248 -2.98936 0
M  V30 4421 H 403.516 3.25412 -3.78032 0
M  V30 4422 H 402.67 5.3896 -2.7858 0
M  V30 4423 H 401.409 4.49568 -1.89049 0
M  V30 4424 H 400.414 3.71021 -4.05738 0
M  V30 4425 H 401.639 4.63761 -4.96087 0
M  V30 4426 H 399.585 5.80938 -3.04708 0
M  V30 4427 H 399.502 5.85909 -4.77752 0
M  V30 4428 H 400.77 6.71744 -3.9545 0
M  V30 4429 N 404.999 1.35443 0.805782 0
M  V30 4430 C 406.276 1.19325 1.54987 0
M  V30 4431 C 406.656 -0.227294 2.09873 0
M  V30 4432 O 406.004 -1.2309 1.92512 0
M  V30 4433 C 406.214 2.26196 2.65775 0
M  V30 4434 C 407.562 2.62043 3.34094 0
M  V30 4435 O 408.586 2.25115 2.76046 0
M  V30 4436 O 407.445 3.25542 4.38958 0
M  V30 4437 H 404.539 0.463623 0.684823 0
M  V30 4438 H 407.085 1.47127 0.845674 0
M  V30 4439 H 405.857 3.21471 2.23096 0
M  V30 4440 H 405.48 1.99667 3.43829 0
M  V30 4441 N 406.477 -1.02803 1.19454 0
M  V30 4442 C 407.407 -2.12999 0.956758 0
M  V30 4443 C 408.388 -1.69743 -0.110188 0
M  V30 4444 O 409.573 -1.94148 0.0450038 0
M  V30 4445 C 406.703 -3.43746 0.495553 0
M  V30 4446 C 405.657 -4.00688 1.50443 0
M  V30 4447 C 404.983 -5.27067 0.900275 0
M  V30 4448 C 406.283 -4.35397 2.8849 0
M  V30 4449 H 407.977 -2.33148 1.87836 0
M  V30 4450 H 405.523 -1.12045 0.904539 0
M  V30 4451 H 407.476 -4.2021 0.316493 0
M  V30 4452 H 406.2 -3.23321 -0.461646 0
M  V30 4453 H 404.859 -3.2632 1.67065 0
M  V30 4454 H 404.507 -5.02959 -0.064503 0
M  V30 4455 H 404.207 -5.66127 1.57397 0
M  V30 4456 H 405.731 -6.06196 0.73203 0
M  V30 4457 H 407.145 -5.02795 2.75446 0
M  V30 4458 H 405.542 -4.85541 3.52661 0
M  V30 4459 H 406.612 -3.44662 3.41081 0
M  V30 4460 N 407.956 -0.998596 -1.21925 0
M  V30 4461 C 409.186 -0.695276 -1.94549 0
M  V30 4462 C 409.594 0.745079 -1.73911 0
M  V30 4463 O 408.937 1.51507 -1.03881 0
M  V30 4464 C 408.999 -0.928485 -3.47303 0
M  V30 4465 C 408.663 -2.35443 -3.91683 0
M  V30 4466 C 409.66 -3.33428 -3.98901 0
M  V30 4467 C 407.345 -2.69038 -4.24174 0
M  V30 4468 C 409.339 -4.63079 -4.37992 0
M  V30 4469 C 407.026 -3.98906 -4.62944 0
M  V30 4470 C 408.024 -4.95738 -4.69822 0
M  V30 4471 O 407.712 -6.23285 -5.07711 0
M  V30 4472 H 407.444 -0.255902 -0.625692 0
M  V30 4473 H 409.998 -1.33767 -1.5587 0
M  V30 4474 H 408.228 -0.228917 -3.86022 0
M  V30 4475 H 409.917 -0.619539 -4.01144 0
M  V30 4476 H 410.683 -3.08807 -3.73983 0
M  V30 4477 H 406.562 -1.94367 -4.18022 0
M  V30 4478 H 410.106 -5.38658 -4.43275 0
M  V30 4479 H 406.003 -4.23314 -4.87314 0
M  V30 4480 H 406.771 -6.27306 -5.25766 0
M  V30 4481 N 409.434 1.37368 -0.772513 0
M  V30 4482 C 410.381 2.30262 -0.157488 0
M  V30 4483 C 411.351 1.51137 0.688965 0
M  V30 4484 O 412.536 1.79704 0.641168 0
M  V30 4485 C 409.676 3.37611 0.715045 0
M  V30 4486 C 408.789 4.31746 -0.148098 0
M  V30 4487 C 407.924 5.26171 0.729213 0
M  V30 4488 C 406.963 6.11948 -0.136418 0
M  V30 4489 N 406.1 6.98613 0.698914 0
M  V30 4490 H 410.94 2.82277 -0.955179 0
M  V30 4491 H 408.477 1.38957 -0.482631 0
M  V30 4492 H 410.435 3.98479 1.23575 0
M  V30 4493 H 409.065 2.86959 1.47833 0
M  V30 4494 H 408.117 3.72178 -0.786613 0
M  V30 4495 H 409.429 4.92084 -0.81579 0
M  V30 4496 H 408.583 5.92247 1.31637 0
M  V30 4497 H 407.322 4.66246 1.43059 0
M  V30 4498 H 406.327 5.4485 -0.736102 0
M  V30 4499 H 407.552 6.73945 -0.835134 0
M  V30 4500 H 405.498 6.41215 1.38489 0
M  V30 4501 H 405.415 7.55948 0.0885358 0
M  V30 4502 H 406.683 7.69077 1.27044 0
M  V30 4503 N 410.912 0.523116 1.48665 0
M  V30 4504 C 412.323 0.0808997 1.86525 0
M  V30 4505 C 412.674 -1.33975 1.43336 0
M  V30 4506 O 411.799 -2.00221 0.821009 0
M  V30 4507 C 412.394 0.140037 3.3851 0
M  V30 4508 C 410.953 -0.246948 3.75589 0
M  V30 4509 C 410.1 0.502845 2.72703 0
M  V30 4510 H 413.051 0.734736 1.40667 0
M  V30 4511 H 413.072 -0.649945 3.74908 0
M  V30 4512 H 412.584 1.17412 3.69914 0
M  V30 4513 H 410.685 -1.28343 3.49798 0
M  V30 4514 H 410.798 0.0878859 4.79019 0
M  V30 4515 H 409.162 -0.0500581 2.54651 0
M  V30 4516 H 409.945 1.53743 3.0695 0
M  V30 4517 N 412.39 -1.55475 0.257931 0
M  V30 4518 C 413.636 -1.99502 -0.364266 0
M  V30 4519 C 413.969 -1.146 -1.56782 0
M  V30 4520 O 413.244 -0.211968 -1.93342 0
M  V30 4521 C 413.527 -3.51917 -0.763333 0
M  V30 4522 C 413.38 -4.4758 0.446371 0
M  V30 4523 C 414.699 -4.09742 -1.60623 0
M  V30 4524 H 411.818 -0.725277 -0.130929 0
M  V30 4525 H 414.46 -1.8653 0.361446 0
M  V30 4526 H 412.61 -3.63101 -1.38166 0
M  V30 4527 H 414.282 -4.48362 1.08487 0
M  V30 4528 H 412.525 -4.19947 1.08753 0
M  V30 4529 H 413.196 -5.51862 0.123645 0
M  V30 4530 H 415.672 -4.01727 -1.08418 0
M  V30 4531 H 414.548 -5.16631 -1.85429 0
M  V30 4532 H 414.809 -3.58889 -2.58169 0
M  V30 4533 N 413.868 0.0150385 -1.57593 0
M  V30 4534 C 415.117 0.702115 -1.89085 0
M  V30 4535 C 415.43 1.75764 -0.858277 0
M  V30 4536 O 416.636 2.49829 -1.0629 0
M  V30 4537 C 415.092 1.29992 -3.35604 0
M  V30 4538 C 414.7 0.280007 -4.47124 0
M  V30 4539 C 416.444 1.96606 -3.76227 0
M  V30 4540 C 414.351 0.886949 -5.84711 0
M  V30 4541 H 413.281 0.265997 -0.705522 0
M  V30 4542 H 415.932 -0.0430408 -1.8345 0
M  V30 4543 H 414.314 2.09525 -3.36029 0
M  V30 4544 H 415.488 -0.489631 -4.58191 0
M  V30 4545 H 413.803 -0.284835 -4.15425 0
M  V30 4546 H 416.4 2.42893 -4.76347 0
M  V30 4547 H 416.743 2.79024 -3.08952 0
M  V30 4548 H 417.276 1.23828 -3.78036 0
M  V30 4549 H 414.015 0.101876 -6.55421 0
M  V30 4550 H 413.535 1.6261 -5.77337 0
M  V30 4551 H 415.214 1.39011 -6.3189 0
M  V30 4552 N 415.346 1.54954 0.287554 0
M  V30 4553 C 416.592 1.75132 1.02257 0
M  V30 4554 C 416.925 0.542858 1.86458 0
M  V30 4555 O 416.2 -0.459856 1.88986 0
M  V30 4556 C 416.483 3.04812 1.91733 0
M  V30 4557 C 416.336 4.35985 1.10622 0
M  V30 4558 C 417.655 3.30438 2.90687 0
M  V30 4559 H 414.774 0.637194 0.370341 0
M  V30 4560 H 417.416 1.87678 0.296111 0
M  V30 4561 H 415.566 2.94247 2.53675 0
M  V30 4562 H 417.238 4.58487 0.508636 0
M  V30 4563 H 415.481 4.31865 0.409271 0
M  V30 4564 H 416.152 5.23017 1.76513 0
M  V30 4565 H 418.628 3.40701 2.38877 0
M  V30 4566 H 417.504 4.22467 3.50447 0
M  V30 4567 H 417.765 2.49377 3.65053 0
M  V30 4568 N 416.824 -0.551391 1.4764 0
M  V30 4569 C 418.049 -1.33837 1.58437 0
M  V30 4570 C 418.474 -1.866 0.237063 0
M  V30 4571 O 417.832 -1.6328 -0.787994 0
M  V30 4572 C 417.88 -2.48014 2.61766 0
M  V30 4573 O 416.984 -3.50419 2.1744 0
M  V30 4574 H 416.325 -0.397299 0.532024 0
M  V30 4575 H 418.855 -0.665759 1.93465 0
M  V30 4576 H 418.865 -2.94503 2.82369 0
M  V30 4577 H 417.54 -2.08969 3.5959 0
M  V30 4578 H 416.117 -3.10196 2.06961 0
M  V30 4579 N 418.302 -1.35869 -0.798587 0
M  V30 4580 C 419.713 -1.26498 -1.37314 0
M  V30 4581 C 420.064 0.0991899 -1.95949 0
M  V30 4582 O 419.189 1.0004 -1.91888 0
M  V30 4583 C 419.784 -2.29054 -2.49639 0
M  V30 4584 C 418.343 -2.234 -3.02935 0
M  V30 4585 C 417.49 -2.14329 -1.75949 0
M  V30 4586 H 420.441 -1.46881 -0.600971 0
M  V30 4587 H 420.462 -1.92166 -3.28409 0
M  V30 4588 H 419.974 -3.2833 -2.06933 0
M  V30 4589 H 418.075 -1.27562 -3.50084 0
M  V30 4590 H 418.188 -3.15703 -3.60372 0
M  V30 4591 H 416.552 -1.60435 -1.9782 0
M  V30 4592 H 417.335 -3.15477 -1.35384 0
M  V30 4593 N 419.78 1.02168 -1.19998 0
M  V30 4594 C 421.057 1.72816 -0.916191 0
M  V30 4595 C 421.437 2.03081 0.576325 0
M  V30 4596 O 420.785 1.69122 1.53656 0
M  V30 4597 C 420.995 2.9997 -1.78378 0
M  V30 4598 C 422.343 3.73336 -2.02251 0
M  V30 4599 O 423.367 3.09914 -1.75589 0
M  V30 4600 O 422.226 4.87371 -2.47249 0
M  V30 4601 H 419.32 0.752924 -0.342103 0
M  V30 4602 H 421.866 1.08062 -1.30846 0
M  V30 4603 H 420.638 2.73888 -2.79466 0
M  V30 4604 H 420.261 3.72464 -1.39126 0
M  V30 4605 N 421.258 1.00505 1.21394 0
M  V30 4606 C 422.221 0.570459 2.21987 0
M  V30 4607 C 423.221 -0.353211 1.56873 0
M  V30 4608 O 424.411 -0.14349 1.73608 0
M  V30 4609 C 421.543 -0.168555 3.40483 0
M  V30 4610 H 422.736 1.46021 2.6195 0
M  V30 4611 H 420.289 0.793565 1.34656 0
M  V30 4612 H 421.024 -1.07374 3.06009 0
M  V30 4613 H 420.809 0.494823 3.88965 0
M  V30 4614 H 422.299 -0.460362 4.15055 0
M  V30 4615 N 422.737 -1.36956 0.779787 0
M  V30 4616 C 423.985 -1.99097 0.347079 0
M  V30 4617 C 424.306 -1.62206 -1.08232 0
M  V30 4618 O 423.576 -0.891373 -1.74446 0
M  V30 4619 H 422.156 -0.736409 0.125342 0
M  V30 4620 H 424.818 -1.67308 0.999696 0
M  V30 4621 H 423.914 -3.09107 0.431162 0
M  V30 4622 N 424.215 -0.530993 -1.48385 0
M  V30 4623 C 425.463 0.00273189 -2.021 0
M  V30 4624 C 425.784 1.34672 -1.41027 0
M  V30 4625 O 425.054 1.8724 -0.576012 0
M  V30 4626 H 423.634 0.00399774 -0.746989 0
M  V30 4627 H 426.296 -0.695054 -1.82085 0
M  V30 4628 H 425.392 0.11031 -3.11905 0
M  V30 4629 N 425.693 1.55336 -0.266172 0
M  V30 4630 C 426.939 1.99692 0.353681 0
M  V30 4631 C 427.272 1.1543 1.56172 0
M  V30 4632 O 426.547 0.222218 1.93226 0
M  V30 4633 C 426.83 3.52316 0.74466 0
M  V30 4634 C 426.683 4.47337 -0.470101 0
M  V30 4635 C 428.002 4.10588 1.58447 0
M  V30 4636 H 425.121 0.725961 0.12708 0
M  V30 4637 H 427.763 1.86336 -0.371333 0
M  V30 4638 H 425.913 3.63829 1.36239 0
M  V30 4639 H 427.585 4.4778 -1.10864 0
M  V30 4640 H 425.828 4.19364 -1.10978 0
M  V30 4641 H 426.499 5.51788 -0.15291 0
M  V30 4642 H 428.975 4.02297 1.06286 0
M  V30 4643 H 427.851 5.17607 1.82686 0
M  V30 4644 H 428.112 3.60253 2.56262 0
M  V30 4645 N 427.171 -0.0066808 1.57599 0
M  V30 4646 C 428.401 -0.703066 1.94269 0
M  V30 4647 C 428.809 -1.68206 0.866222 0
M  V30 4648 O 428.152 -1.82966 -0.164087 0
M  V30 4649 C 428.214 -1.49616 3.26887 0
M  V30 4650 C 427.878 -0.679494 4.5192 0
M  V30 4651 C 428.875 0.0299508 5.19891 0
M  V30 4652 C 426.56 -0.627433 4.98366 0
M  V30 4653 C 428.554 0.780514 6.32603 0
M  V30 4654 C 426.241 0.126861 6.10968 0
M  V30 4655 C 427.239 0.829574 6.77943 0
M  V30 4656 O 426.927 1.57157 7.88389 0
M  V30 4657 H 426.659 -0.201217 0.645359 0
M  V30 4658 H 429.213 0.0385326 2.05364 0
M  V30 4659 H 427.443 -2.28209 3.12182 0
M  V30 4660 H 429.132 -2.07726 3.48719 0
M  V30 4661 H 429.898 -0.00115963 4.85 0
M  V30 4662 H 425.777 -1.16392 4.46065 0
M  V30 4663 H 429.321 1.32954 6.84813 0
M  V30 4664 H 425.218 0.159815 6.45302 0
M  V30 4665 H 425.986 1.48758 8.04868 0
M  V30 4666 N 428.649 -1.55105 -0.279332 0
M  V30 4667 C 430.065 -1.46803 -0.626187 0
M  V30 4668 C 430.265 -0.676939 -1.89789 0
M  V30 4669 O 429.321 -0.19326 -2.51759 0
M  V30 4670 C 430.634 -2.90962 -0.759034 0
M  V30 4671 C 432.182 -3.01138 -0.853504 0
M  V30 4672 C 432.657 -4.46539 -1.01818 0
M  V30 4673 N 434.148 -4.50341 -1.08386 0
M  V30 4674 C 434.883 -5.60053 -1.22996 0
M  V30 4675 N 434.379 -6.79645 -1.34366 0
M  V30 4676 N 436.172 -5.47783 -1.26056 0
M  V30 4677 H 428.323 -2.04996 0.555921 0
M  V30 4678 H 430.586 -0.929325 0.187239 0
M  V30 4679 H 430.292 -3.51544 0.104852 0
M  V30 4680 H 430.166 -3.39619 -1.64131 0
M  V30 4681 H 432.553 -2.40658 -1.70786 0
M  V30 4682 H 432.634 -2.55745 0.0532466 0
M  V30 4683 H 432.278 -5.0762 -0.168504 0
M  V30 4684 H 432.208 -4.89583 -1.93948 0
M  V30 4685 H 434.699 -3.64191 -1.00864 0
M  V30 4686 H 435.012 -7.59012 -1.4533 0
M  V30 4687 H 433.357 -6.82469 -1.31382 0
M  V30 4688 H 436.548 -4.53294 -1.168 0
M  V30 4689 H 436.721 -6.33331 -1.37098 0
M  V30 4690 N 430.127 0.543554 -1.4793 0
M  V30 4691 C 431.09 1.63156 -1.60975 0
M  V30 4692 C 432.09 1.53346 -0.483899 0
M  V30 4693 O 433.28 1.5726 -0.749339 0
M  V30 4694 C 430.412 3.02743 -1.56716 0
M  V30 4695 H 431.605 1.52934 -2.57975 0
M  V30 4696 H 429.158 0.764557 -1.36324 0
M  V30 4697 H 429.893 3.18484 -0.611418 0
M  V30 4698 H 429.678 3.11272 -2.38438 0
M  V30 4699 H 431.168 3.81871 -1.6901 0
M  V30 4700 N 431.605 1.3629 0.791371 0
M  V30 4701 C 433.021 1.16661 1.08914 0
M  V30 4702 C 433.221 -0.0106266 2.01497 0
M  V30 4703 O 432.277 -0.676596 2.43266 0
M  V30 4704 C 433.59 2.47656 1.70549 0
M  V30 4705 C 435.138 2.54002 1.82899 0
M  V30 4706 C 435.613 3.85078 2.47949 0
M  V30 4707 N 437.104 3.86413 2.5542 0
M  V30 4708 C 437.839 4.84572 3.06557 0
M  V30 4709 N 437.335 5.93124 3.58016 0
M  V30 4710 N 439.128 4.71994 3.05251 0
M  V30 4711 H 431.279 2.11668 0.176238 0
M  V30 4712 H 433.542 0.937486 0.140796 0
M  V30 4713 H 433.248 3.34059 1.09989 0
M  V30 4714 H 433.122 2.63319 2.70079 0
M  V30 4715 H 435.509 1.68018 2.42598 0
M  V30 4716 H 435.59 2.42239 0.821808 0
M  V30 4717 H 435.234 4.71467 1.88895 0
M  V30 4718 H 435.164 3.94135 3.49235 0
M  V30 4719 H 437.655 3.07988 2.18979 0
M  V30 4720 H 437.968 6.63999 3.95381 0
M  V30 4721 H 436.313 5.96796 3.56173 0
M  V30 4722 H 439.504 3.86321 2.64336 0
M  V30 4723 H 439.677 5.48653 3.44796 0
M  V30 4724 N 433.083 -1.0153 1.20538 0
M  V30 4725 C 434.03 -2.10098 0.955383 0
M  V30 4726 C 435 -1.65702 -0.114878 0
M  V30 4727 O 436.185 -1.90776 0.0301118 0
M  V30 4728 C 433.325 -3.41236 0.514969 0
M  V30 4729 C 432.438 -3.99102 1.65353 0
M  V30 4730 C 431.573 -5.18306 1.16329 0
M  V30 4731 C 430.612 -5.68258 2.27485 0
M  V30 4732 N 429.749 -6.78722 1.7967 0
M  V30 4733 H 434.589 -2.30818 1.88486 0
M  V30 4734 H 432.126 -1.13189 0.939499 0
M  V30 4735 H 434.084 -4.16504 0.240935 0
M  V30 4736 H 432.714 -3.20585 -0.377512 0
M  V30 4737 H 431.766 -3.20918 2.04245 0
M  V30 4738 H 433.078 -4.32177 2.49047 0
M  V30 4739 H 432.232 -6.00782 0.845302 0
M  V30 4740 H 430.971 -4.86799 0.296254 0
M  V30 4741 H 429.976 -4.84385 2.60099 0
M  V30 4742 H 431.201 -6.01798 3.14667 0
M  V30 4743 H 429.147 -6.49042 0.95295 0
M  V30 4744 H 429.064 -7.10996 2.56944 0
M  V30 4745 H 430.332 -7.64759 1.50875 0
M  V30 4746 N 434.561 -1.01147 -1.20859 0
M  V30 4747 C 435.808 -0.697865 -1.90095 0
M  V30 4748 C 436.136 0.772014 -1.78522 0
M  V30 4749 O 435.391 1.57595 -1.16027 0
M  V30 4750 C 435.69 -1.0727 -3.40922 0
M  V30 4751 C 435.356 -2.53792 -3.72693 0
M  V30 4752 C 434.018 -2.93829 -3.81075 0
M  V30 4753 C 436.37 -3.48674 -3.87397 0
M  V30 4754 C 433.698 -4.27696 -4.01613 0
M  V30 4755 C 436.05 -4.82223 -4.09444 0
M  V30 4756 C 434.714 -5.21973 -4.16054 0
M  V30 4757 H 433.984 -0.255367 -0.695607 0
M  V30 4758 H 436.631 -1.27111 -1.43231 0
M  V30 4759 H 434.936 -0.417799 -3.89566 0
M  V30 4760 H 436.633 -0.807818 -3.92779 0
M  V30 4761 H 433.223 -2.21768 -3.66765 0
M  V30 4762 H 437.407 -3.18904 -3.80281 0
M  V30 4763 H 432.663 -4.58055 -4.04964 0
M  V30 4764 H 436.837 -5.55672 -4.19763 0
M  V30 4765 H 434.464 -6.25717 -4.31721 0
M  V30 4766 N 436.039 1.36541 -0.78704 0
M  V30 4767 C 436.971 2.28761 -0.141773 0
M  V30 4768 C 437.984 1.49365 0.647599 0
M  V30 4769 O 439.173 1.71836 0.483173 0
M  V30 4770 C 436.273 3.28771 0.822368 0
M  V30 4771 C 435.446 4.3732 0.0835594 0
M  V30 4772 C 434.505 5.17307 0.963296 0
M  V30 4773 O 433.531 5.67638 0.421419 0
M  V30 4774 N 434.733 5.33515 2.28784 0
M  V30 4775 H 437.498 2.84777 -0.933919 0
M  V30 4776 H 435.059 1.48682 -0.640735 0
M  V30 4777 H 437.051 3.79169 1.41468 0
M  V30 4778 H 435.621 2.73412 1.5154 0
M  V30 4779 H 434.841 3.88118 -0.689809 0
M  V30 4780 H 436.129 5.0701 -0.426358 0
M  V30 4781 H 435.527 4.94234 2.75226 0
M  V30 4782 H 434.084 5.87165 2.82985 0
M  V30 4783 N 437.518 0.538854 1.48102 0
M  V30 4784 C 438.795 -0.0568108 1.95517 0
M  V30 4785 C 439.175 -1.50408 1.48124 0
M  V30 4786 O 438.523 -2.17133 0.711727 0
M  V30 4787 C 438.733 0.0696262 3.48931 0
M  V30 4788 C 440.081 -0.0851202 4.24515 0
M  V30 4789 O 441.105 -0.0037347 3.562 0
M  V30 4790 O 439.964 -0.257025 5.45895 0
M  V30 4791 H 437.058 -0.0743695 0.823649 0
M  V30 4792 H 439.604 0.604081 1.58584 0
M  V30 4793 H 438.376 1.07744 3.76174 0
M  V30 4794 H 437.999 -0.629714 3.92582 0
M  V30 4795 N 438.996 -1.55193 0.274407 0
M  V30 4796 C 440.244 -1.99187 -0.341902 0
M  V30 4797 C 440.565 -1.16422 -1.56431 0
M  V30 4798 O 439.835 -0.253573 -1.94252 0
M  V30 4799 H 438.415 -0.735721 -0.129317 0
M  V30 4800 H 441.077 -1.91168 0.379578 0
M  V30 4801 H 440.173 -3.05629 -0.632253 0
M  V30 4802 N 440.474 -0.00167713 -1.576 0
M  V30 4803 C 441.404 0.988091 -2.11563 0
M  V30 4804 C 442.385 1.35736 -1.02517 0
M  V30 4805 O 443.57 1.44082 -1.30208 0
M  V30 4806 C 440.7 2.27941 -2.62031 0
M  V30 4807 C 439.654 2.0517 -3.75619 0
M  V30 4808 C 438.98 3.4033 -4.12407 0
M  V30 4809 C 440.28 1.41294 -5.02825 0
M  V30 4810 H 441.974 0.538771 -2.94513 0
M  V30 4811 H 439.52 0.257712 -1.41675 0
M  V30 4812 H 441.473 2.97539 -2.9841 0
M  V30 4813 H 440.197 2.74989 -1.76205 0
M  V30 4814 H 438.856 1.37998 -3.39635 0
M  V30 4815 H 438.504 3.85085 -3.23603 0
M  V30 4816 H 438.204 3.25909 -4.88935 0
M  V30 4817 H 439.728 4.1124 -4.51347 0
M  V30 4818 H 441.142 2.00851 -5.36965 0
M  V30 4819 H 439.539 1.37356 -5.84169 0
M  V30 4820 H 440.609 0.382362 -4.8339 0
M  V30 4821 N 441.952 1.55251 0.271103 0
M  V30 4822 C 442.9 1.89054 1.35504 0
M  V30 4823 C 443.894 0.767064 1.51038 0
M  V30 4824 O 445.1 0.951429 1.528 0
M  V30 4825 H 441.475 0.600072 0.45323 0
M  V30 4826 H 443.446 2.79598 1.04247 0
M  V30 4827 C 442.195 2.18068 2.70817 0
M  V30 4828 H 441.518 3.04005 2.59656 0
M  V30 4829 H 442.958 2.4564 3.45597 0
M  V30 4830 C 441.417 0.988901 3.2206 0
M  V30 4831 O 441.947 0.224501 4.01072 0
M  V30 4832 N 440.153 0.786085 2.79766 0
M  V30 4833 H 439.7 1.40937 2.15626 0
M  V30 4834 H 439.658 -0.00969349 3.14399 0
M  V30 4835 N 443.43 -0.535701 1.48216 0
M  V30 4836 C 444.38 -1.63688 1.58714 0
M  V30 4837 C 445.364 -1.54635 0.444615 0
M  V30 4838 O 446.556 -1.62753 0.695742 0
M  V30 4839 C 443.685 -3.02423 1.62466 0
M  V30 4840 C 442.771 -3.16601 2.82178 0
M  V30 4841 N 443.162 -3.00771 4.06658 0
M  V30 4842 C 441.46 -3.47645 2.79391 0
M  V30 4843 C 442.161 -3.18213 4.86945 0
M  V30 4844 N 441.137 -3.45528 4.19656 0
M  V30 4845 H 444.939 -1.5005 2.5271 0
M  V30 4846 H 442.453 -0.741018 1.44508 0
M  V30 4847 H 444.45 -3.81517 1.6808 0
M  V30 4848 H 443.11 -3.17157 0.695826 0
M  V30 4849 H 444.121 -2.77652 4.37184 0
M  V30 4850 H 440.798 -3.68771 1.95739 0
M  V30 4851 H 442.188 -3.1076 5.95716 0
M  V30 4852 N 444.908 -1.36708 -0.784132 0
M  V30 4853 C 446.324 -1.17237 -1.08294 0
M  V30 4854 C 446.524 -5.93947e-05 -2.015 0
M  V30 4855 O 445.58 0.663686 -2.43622 0
M  V30 4856 C 446.893 -2.48557 -1.69233 0
M  V30 4857 C 448.441 -2.54968 -1.8155 0
M  V30 4858 C 448.916 -3.86388 -2.45904 0
M  V30 4859 N 450.407 -3.87762 -2.53367 0
M  V30 4860 C 451.142 -4.86191 -3.03983 0
M  V30 4861 N 450.638 -5.95015 -3.54866 0
M  V30 4862 N 452.431 -4.73606 -3.02743 0
M  V30 4863 H 444.582 -2.11758 -0.16501 0
M  V30 4864 H 446.845 -0.93822 -0.135822 0
M  V30 4865 H 446.551 -3.34638 -1.08215 0
M  V30 4866 H 446.425 -2.64748 -2.68679 0
M  V30 4867 H 448.812 -1.69302 -2.41704 0
M  V30 4868 H 448.893 -2.42672 -0.80895 0
M  V30 4869 H 448.537 -4.72462 -1.86392 0
M  V30 4870 H 448.467 -3.95982 -3.4714 0
M  V30 4871 H 450.958 -3.09145 -2.17343 0
M  V30 4872 H 451.271 -6.66086 -3.91854 0
M  V30 4873 H 449.616 -5.98676 -3.53003 0
M  V30 4874 H 452.807 -3.87717 -2.62284 0
M  V30 4875 H 452.98 -5.50473 -3.41881 0
M  V30 4876 N 446.386 1.0089 -1.21074 0
M  V30 4877 C 447.634 1.74262 -1.02358 0
M  V30 4878 C 447.955 1.89869 0.444393 0
M  V30 4879 O 447.225 1.44677 1.32081 0
M  V30 4880 H 445.805 0.645615 -0.375754 0
M  V30 4881 H 448.467 1.21596 -1.52317 0
M  V30 4882 H 447.563 2.74328 -1.4883 0
M  V30 4883 N 447.864 1.01787 1.20321 0
M  V30 4884 C 449.113 0.703249 1.89043 0
M  V30 4885 C 449.426 -0.770445 1.79787 0
M  V30 4886 O 450.632 -1.19767 2.43656 0
M  V30 4887 C 449.088 1.20749 3.3904 0
M  V30 4888 C 448.696 2.70817 3.56878 0
M  V30 4889 C 450.44 0.968352 4.13308 0
M  V30 4890 C 448.347 3.14716 5.00708 0
M  V30 4891 H 447.277 0.259354 0.707991 0
M  V30 4892 H 449.928 1.23072 1.36108 0
M  V30 4893 H 448.31 0.607989 3.91305 0
M  V30 4894 H 449.484 3.36327 3.14993 0
M  V30 4895 H 447.799 2.92888 2.95983 0
M  V30 4896 H 450.396 1.27173 5.19356 0
M  V30 4897 H 450.739 -0.095149 4.16191 0
M  V30 4898 H 451.272 1.53129 3.67146 0
M  V30 4899 H 448.011 4.20347 5.02979 0
M  V30 4900 H 447.531 2.53927 5.43398 0
M  V30 4901 H 449.21 3.07426 5.69296 0
M  V30 4902 N 449.342 -1.36122 0.79427 0
M  V30 4903 C 450.59 -1.98718 0.368177 0
M  V30 4904 C 450.911 -1.63345 -1.06506 0
M  V30 4905 O 450.181 -0.909825 -1.73491 0
M  V30 4906 H 448.761 -0.735038 0.133146 0
M  V30 4907 H 451.423 -1.66239 1.01739 0
M  V30 4908 H 450.519 -3.08633 0.463923 0
M  V30 4909 N 450.82 -0.546701 -1.47814 0
M  V30 4910 C 452.097 0.0464413 -1.95545 0
M  V30 4911 C 452.477 1.4962 -1.48919 0
M  V30 4912 O 451.825 2.16752 -0.723232 0
M  V30 4913 C 452.035 -0.0881298 -3.48889 0
M  V30 4914 C 453.383 0.0626059 -4.24554 0
M  V30 4915 O 454.407 -0.0151555 -3.56197 0
M  V30 4916 O 453.266 0.228071 -5.46024 0
M  V30 4917 H 450.36 0.0700004 -0.824032 0
M  V30 4918 H 452.906 -0.612482 -1.58262 0
M  V30 4919 H 451.678 -1.09737 -3.75597 0
M  V30 4920 H 451.301 0.608886 -3.9291 0
M  V30 4921 N 452.299 1.55045 -0.282633 0
M  V30 4922 C 453.539 2.01668 0.333088 0
M  V30 4923 C 453.903 1.1667 1.52486 0
M  V30 4924 O 455.104 1.52907 2.21072 0
M  V30 4925 C 453.375 3.50509 0.698442 0
M  V30 4926 S 454.934 4.19112 1.29963 0
M  V30 4927 H 451.752 0.703468 0.103219 0
M  V30 4928 H 454.354 1.91233 -0.406222 0
M  V30 4929 H 453.058 4.10015 -0.177693 0
M  V30 4930 H 452.589 3.64943 1.46902 0
M  V30 4931 H 454.604 4.23362 2.58803 0
M  V30 4932 N 453.777 0.010035 1.57597 0
M  V30 4933 C 455.025 -0.671371 1.90623 0
M  V30 4934 C 455.346 -1.73753 0.885151 0
M  V30 4935 O 454.616 -1.95752 -0.0760611 0
M  V30 4936 H 453.196 -0.250968 0.703579 0
M  V30 4937 H 455.858 0.0533325 1.94827 0
M  V30 4938 H 454.954 -1.13626 2.90681 0
M  V30 4939 N 455.255 -1.55392 -0.262866 0
M  V30 4940 C 456.504 -1.75679 -0.990943 0
M  V30 4941 C 456.817 -0.57097 -1.87081 0
M  V30 4942 O 458.023 -0.656486 -2.63444 0
M  V30 4943 C 456.479 -3.10964 -1.81188 0
M  V30 4944 C 456.087 -4.37146 -0.980188 0
M  V30 4945 C 457.831 -3.40597 -2.53365 0
M  V30 4946 C 455.738 -5.63466 -1.7961 0
M  V30 4947 H 454.668 -0.654868 -0.373716 0
M  V30 4948 H 457.319 -1.81841 -0.246203 0
M  V30 4949 H 455.701 -2.98867 -2.59797 0
M  V30 4950 H 456.875 -4.60187 -0.237558 0
M  V30 4951 H 455.19 -4.14731 -0.372497 0
M  V30 4952 H 457.787 -4.32186 -3.14833 0
M  V30 4953 H 458.13 -2.6119 -3.24169 0
M  V30 4954 H 458.663 -3.53838 -1.81779 0
M  V30 4955 H 455.402 -6.4565 -1.13209 0
M  V30 4956 H 454.922 -5.44552 -2.51443 0
M  V30 4957 H 456.601 -6.02139 -2.36723 0
M  V30 4958 N 456.733 0.527833 -1.48498 0
M  V30 4959 C 457.696 1.61439 -1.62696 0
M  V30 4960 C 458.696 1.52824 -0.500136 0
M  V30 4961 O 459.886 1.56456 -0.765976 0
M  V30 4962 C 457.018 3.01063 -1.59918 0
M  V30 4963 H 458.211 1.50189 -2.59583 0
M  V30 4964 H 455.764 0.750055 -1.37127 0
M  V30 4965 H 456.499 3.17818 -0.645163 0
M  V30 4966 H 456.284 3.08725 -2.41726 0
M  V30 4967 H 457.774 3.80057 -1.73051 0
M  V30 4968 N 458.211 1.37122 0.776871 0
M  V30 4969 C 459.144 1.26835 1.89705 0
M  V30 4970 C 460.122 0.14992 1.61907 0
M  V30 4971 O 461.306 0.323242 1.85708 0
M  V30 4972 C 458.433 0.95986 3.24814 0
M  V30 4973 C 457.479 2.09447 3.7153 0
M  V30 4974 S 458.312 3.71368 3.85806 0
M  V30 4975 C 459.468 3.42659 5.23771 0
M  V30 4976 H 459.701 2.21647 1.98141 0
M  V30 4977 H 457.234 1.22685 0.937433 0
M  V30 4978 H 459.192 0.788696 4.02852 0
M  V30 4979 H 457.853 0.0293137 3.14086 0
M  V30 4980 H 457.046 1.8335 4.69467 0
M  V30 4981 H 456.648 2.2255 3.00578 0
M  V30 4982 H 458.94 2.9733 6.0877 0
M  V30 4983 H 459.883 4.39905 5.54878 0
M  V30 4984 H 460.291 2.77708 4.91466 0
M  V30 4985 N 459.689 -1.00246 1.21608 0
M  V30 4986 C 460.619 -2.10921 1.00172 0
M  V30 4987 C 461.6 -1.69938 -0.0741587 0
M  V30 4988 O 462.785 -1.94009 0.0861753 0
M  V30 4989 C 459.915 -3.42618 0.568355 0
M  V30 4990 C 458.869 -3.97407 1.58909 0
M  V30 4991 C 458.195 -5.25038 1.01187 0
M  V30 4992 C 459.495 -4.2918 2.97661 0
M  V30 4993 H 461.189 -2.29112 1.92739 0
M  V30 4994 H 458.735 -1.10101 0.928102 0
M  V30 4995 H 460.688 -4.19444 0.405555 0
M  V30 4996 H 459.412 -3.24227 -0.392961 0
M  V30 4997 H 458.071 -3.22703 1.73949 0
M  V30 4998 H 457.719 -5.02982 0.0421965 0
M  V30 4999 H 457.419 -5.62661 1.6937 0
M  V30 5000 H 458.943 -6.04507 0.860448 0
M  V30 5001 H 460.357 -4.96839 2.86049 0
M  V30 5002 H 458.754 -4.77952 3.6288 0
M  V30 5003 H 459.824 -3.3735 3.48315 0
M  V30 5004 N 461.167 -1.02423 -1.1978 0
M  V30 5005 C 462.416 -0.713265 -1.88667 0
M  V30 5006 C 462.729 0.7609 -1.80193 0
M  V30 5007 O 463.935 1.18473 -2.44288 0
M  V30 5008 C 462.391 -1.22545 -3.38394 0
M  V30 5009 C 461.999 -2.72706 -3.55437 0
M  V30 5010 C 463.743 -0.990257 -4.12788 0
M  V30 5011 C 461.65 -3.17367 -4.99031 0
M  V30 5012 H 460.58 -0.263105 -0.706606 0
M  V30 5013 H 463.231 -1.23792 -1.35454 0
M  V30 5014 H 461.613 -0.628732 -3.90977 0
M  V30 5015 H 462.787 -3.37993 -3.13205 0
M  V30 5016 H 461.102 -2.94453 -2.94425 0
M  V30 5017 H 463.699 -1.29926 -5.18675 0
M  V30 5018 H 464.042 0.0730761 -4.16236 0
M  V30 5019 H 464.575 -1.55074 -3.66329 0
M  V30 5020 H 461.314 -4.23009 -5.00743 0
M  V30 5021 H 460.834 -2.56805 -5.42044 0
M  V30 5022 H 462.513 -3.10441 -5.67658 0
M  V30 5023 N 462.645 1.35699 -0.801477 0
M  V30 5024 C 463.592 2.29876 -0.206294 0
M  V30 5025 C 464.562 1.52565 0.656752 0
M  V30 5026 O 465.747 1.81024 0.602906 0
M  V30 5027 C 462.887 3.39052 0.643272 0
M  V30 5028 C 462 4.31335 -0.239644 0
M  V30 5029 C 461.135 5.27599 0.61744 0
M  V30 5030 C 460.174 6.11521 -0.26619 0
M  V30 5031 N 459.311 6.99938 0.550571 0
M  V30 5032 H 464.151 2.80187 -1.01484 0
M  V30 5033 H 461.688 1.37902 -0.511997 0
M  V30 5034 H 463.646 4.0101 1.15094 0
M  V30 5035 H 462.276 2.9003 1.41713 0
M  V30 5036 H 461.328 3.70426 -0.865381 0
M  V30 5037 H 462.64 4.90243 -0.919985 0
M  V30 5038 H 461.794 5.94906 1.19045 0
M  V30 5039 H 460.533 4.69176 1.33137 0
M  V30 5040 H 459.538 5.43166 -0.851507 0
M  V30 5041 H 460.763 6.72022 -0.9779 0
M  V30 5042 H 458.709 6.44008 1.24856 0
M  V30 5043 H 458.626 7.55966 -0.071832 0
M  V30 5044 H 459.894 7.71599 1.10702 0
M  V30 5045 N 464.123 0.554532 1.47522 0
M  V30 5046 C 465.055 -0.232106 2.28022 0
M  V30 5047 C 466.068 -0.881865 1.36847 0
M  V30 5048 O 467.257 -0.756168 1.61692 0
M  V30 5049 C 464.357 -1.34604 3.11022 0
M  V30 5050 C 463.53 -0.793582 4.30141 0
M  V30 5051 C 462.589 -1.79168 4.94758 0
M  V30 5052 O 461.615 -1.33886 5.5323 0
M  V30 5053 N 462.817 -3.12495 4.89211 0
M  V30 5054 H 465.582 0.458407 2.96173 0
M  V30 5055 H 463.143 0.390433 1.57122 0
M  V30 5056 H 465.135 -2.01243 3.51118 0
M  V30 5057 H 463.705 -1.93983 2.45131 0
M  V30 5058 H 462.925 0.0495025 3.94169 0
M  V30 5059 H 464.213 -0.403776 5.07195 0
M  V30 5060 H 463.611 -3.51931 4.42901 0
M  V30 5061 H 462.168 -3.74698 5.33333 0
M  V30 5062 N 465.601 -1.54893 0.290851 0
M  V30 5063 C 467.017 -1.59476 -0.0628432 0
M  V30 5064 C 467.217 -1.30795 -1.5328 0
M  V30 5065 O 466.273 -1.07644 -2.28406 0
M  V30 5066 C 467.586 -2.98928 0.325962 0
M  V30 5067 C 469.134 -3.11799 0.273882 0
M  V30 5068 C 469.609 -4.53544 0.637359 0
M  V30 5069 N 471.1 -4.59433 0.589507 0
M  V30 5070 C 471.835 -5.67164 0.84335 0
M  V30 5071 N 471.331 -6.82975 1.16263 0
M  V30 5072 N 473.124 -5.56786 0.771091 0
M  V30 5073 H 465.275 -1.71798 1.24896 0
M  V30 5074 H 467.538 -0.801879 0.505663 0
M  V30 5075 H 467.244 -3.24805 1.34887 0
M  V30 5076 H 467.118 -3.75793 -0.325441 0
M  V30 5077 H 469.505 -2.85677 -0.739765 0
M  V30 5078 H 469.586 -2.37112 0.959766 0
M  V30 5079 H 469.23 -4.80394 1.64877 0
M  V30 5080 H 469.16 -5.26553 -0.0704866 0
M  V30 5081 H 471.651 -3.76245 0.353252 0
M  V30 5082 H 471.964 -7.61048 1.34257 0
M  V30 5083 H 470.309 -6.84552 1.20057 0
M  V30 5084 H 473.5 -4.65187 0.521383 0
M  V30 5085 H 473.673 -6.40664 0.972295 0
M  V30 5086 N 467.08 -0.0183926 -1.57589 0
M  V30 5087 C 468.308 0.673046 -1.95647 0
M  V30 5088 C 468.723 1.66275 -0.894312 0
M  V30 5089 O 468.08 1.82072 0.124975 0
M  V30 5090 C 468.131 1.38884 -3.33756 0
M  V30 5091 O 467.852 0.438806 -4.35897 0
M  V30 5092 C 469.353 2.1731 -3.86383 0
M  V30 5093 H 466.573 0.186292 -0.644621 0
M  V30 5094 H 469.117 -0.0749748 -2.04363 0
M  V30 5095 H 467.272 2.08835 -3.26293 0
M  V30 5096 H 467.686 0.945869 -5.15901 0
M  V30 5097 H 469.16 2.62863 -4.85394 0
M  V30 5098 H 469.637 3.00764 -3.20059 0
M  V30 5099 H 470.243 1.52339 -3.97081 0
M  V30 5100 N 468.558 1.5553 0.254621 0
M  V30 5101 C 469.505 1.89666 1.31512 0
M  V30 5102 C 470.475 0.750057 1.482 0
M  V30 5103 O 471.66 1.00301 1.62309 0
M  V30 5104 C 468.8 2.19009 2.667 0
M  V30 5105 C 467.913 3.46435 2.58083 0
M  V30 5106 C 467.048 3.65386 3.85573 0
M  V30 5107 C 466.087 4.8644 3.71541 0
M  V30 5108 N 465.224 5.01952 4.90906 0
M  V30 5109 H 470.064 2.80109 1.017 0
M  V30 5110 H 467.601 1.38666 0.490938 0
M  V30 5111 H 469.559 2.34025 3.45381 0
M  V30 5112 H 468.189 1.31779 2.94676 0
M  V30 5113 H 467.241 3.39792 1.71013 0
M  V30 5114 H 468.553 4.35258 2.43622 0
M  V30 5115 H 467.707 3.80319 4.72697 0
M  V30 5116 H 466.446 2.74781 4.02922 0
M  V30 5117 H 465.451 4.71491 2.82801 0
M  V30 5118 H 466.676 5.78497 3.55694 0
M  V30 5119 H 464.622 4.14283 5.08631 0
M  V30 5120 H 464.539 5.84851 4.79046 0
M  V30 5121 H 465.807 5.21289 5.7955 0
M  V30 5122 N 470.036 -0.519951 1.48776 0
M  V30 5123 C 471.447 -1.10177 1.50725 0
M  V30 5124 C 471.798 -1.94153 0.282678 0
M  V30 5125 O 470.923 -2.07645 -0.609298 0
M  V30 5126 C 471.518 -2.00482 2.73116 0
M  V30 5127 C 470.077 -2.53862 2.77905 0
M  V30 5128 C 469.224 -1.31047 2.44381 0
M  V30 5129 H 472.175 -0.30473 1.55747 0
M  V30 5130 H 472.196 -2.8491 2.52203 0
M  V30 5131 H 471.708 -1.39335 3.62225 0
M  V30 5132 H 469.809 -3.18702 1.93029 0
M  V30 5133 H 469.922 -2.9231 3.79594 0
M  V30 5134 H 468.286 -1.62953 1.95751 0
M  V30 5135 H 469.069 -0.71637 3.35743 0
M  V30 5136 N 471.514 -1.37532 -0.769588 0
M  V30 5137 C 472.462 -1.33561 -1.90432 0
M  V30 5138 C 473.456 -0.224027 -1.67912 0
M  V30 5139 O 474.662 -0.392174 -1.75676 0
M  V30 5140 H 471.037 -0.416279 -0.626271 0
M  V30 5141 H 473.008 -2.29348 -1.90899 0
M  V30 5142 C 471.757 -1.16162 -3.27722 0
M  V30 5143 H 471.08 -2.00951 -3.45628 0
M  V30 5144 H 472.52 -1.17434 -4.07413 0
M  V30 5145 C 470.979 0.132583 -3.36639 0
M  V30 5146 O 471.509 1.11539 -3.85904 0
M  V30 5147 N 469.715 0.184013 -2.90017 0
M  V30 5148 H 469.262 -0.616415 -2.50116 0
M  V30 5149 H 469.22 1.04956 -2.96364 0
M  V30 5150 N 472.992 0.995999 -1.22138 0
M  V30 5151 C 473.902 2.11985 -1.00496 0
M  V30 5152 C 474.918 1.7394 0.0457701 0
M  V30 5153 O 476.094 2.00868 -0.146273 0
M  V30 5154 C 473.159 3.41779 -0.582086 0
M  V30 5155 C 472.22 3.93943 -1.70608 0
M  V30 5156 C 471.453 5.17542 -1.30328 0
M  V30 5157 O 471.676 5.70114 -0.180743 0
M  V30 5158 O 470.61 5.63382 -2.11861 0
M  V30 5159 H 474.436 2.33123 -1.94647 0
M  V30 5160 H 472.021 1.10358 -1.00705 0
M  V30 5161 H 473.903 4.1989 -0.356467 0
M  V30 5162 H 472.578 3.22007 0.330592 0
M  V30 5163 H 471.485 3.17019 -1.98619 0
M  V30 5164 H 472.818 4.18141 -2.59651 0
M  V30 5165 N 474.47 1.03057 1.19235 0
M  V30 5166 C 475.719 0.72326 1.88287 0
M  V30 5167 C 476.032 -0.751333 1.80594 0
M  V30 5168 O 477.238 -1.17176 2.44912 0
M  V30 5169 C 475.694 1.24338 3.3774 0
M  V30 5170 C 475.302 2.74587 3.53986 0
M  V30 5171 C 477.046 1.01213 4.12257 0
M  V30 5172 C 474.953 3.20009 4.97341 0
M  V30 5173 H 473.883 0.266848 0.705201 0
M  V30 5174 H 476.534 1.24509 1.34795 0
M  V30 5175 H 474.916 0.649457 3.90638 0
M  V30 5176 H 476.09 3.39649 3.11408 0
M  V30 5177 H 474.405 2.9601 2.9286 0
M  V30 5178 H 477.002 1.32675 5.17978 0
M  V30 5179 H 477.345 -0.051001 4.16269 0
M  V30 5180 H 477.878 1.57014 3.65501 0
M  V30 5181 H 474.617 4.25659 4.98493 0
M  V30 5182 H 474.137 2.59676 5.40674 0
M  V30 5183 H 475.816 3.13447 5.66003 0
M  V30 5184 N 475.948 -1.35272 0.808662 0
M  V30 5185 C 476.858 -2.33546 0.222079 0
M  V30 5186 C 477.874 -1.6196 -0.636011 0
M  V30 5187 O 479.05 -1.93822 -0.547274 0
M  V30 5188 C 476.115 -3.41148 -0.61795 0
M  V30 5189 C 475.176 -4.28507 0.260875 0
M  V30 5190 C 474.409 -5.3097 -0.539156 0
M  V30 5191 O 474.632 -5.42123 -1.77367 0
M  V30 5192 O 473.566 -6.01858 0.0710526 0
M  V30 5193 H 477.392 -2.85515 1.03512 0
M  V30 5194 H 474.977 -1.38079 0.570495 0
M  V30 5195 H 476.859 -4.06889 -1.09634 0
M  V30 5196 H 475.534 -2.91447 -1.40855 0
M  V30 5197 H 474.441 -3.6574 0.786451 0
M  V30 5198 H 475.774 -4.81611 1.01547 0
M  V30 5199 N 477.426 -0.562348 -1.47226 0
M  V30 5200 C 478.373 0.182461 -2.30078 0
M  V30 5201 C 479.343 0.903503 -1.39377 0
M  V30 5202 O 480.528 0.898188 -1.68337 0
M  V30 5203 C 477.668 1.20322 -3.23445 0
M  V30 5204 C 476.781 0.487717 -4.29238 0
M  V30 5205 C 475.916 1.49422 -5.09752 0
M  V30 5206 C 474.955 0.763976 -6.07314 0
M  V30 5207 N 474.092 1.71755 -6.80768 0
M  V30 5208 H 478.932 -0.530169 -2.93246 0
M  V30 5209 H 476.469 -0.273276 -1.44539 0
M  V30 5210 H 478.427 1.80768 -3.76004 0
M  V30 5211 H 477.057 1.88382 -2.6213 0
M  V30 5212 H 476.109 -0.231374 -3.79696 0
M  V30 5213 H 477.421 -0.0841003 -4.98729 0
M  V30 5214 H 476.575 2.17206 -5.66486 0
M  V30 5215 H 475.314 2.09995 -4.40174 0
M  V30 5216 H 474.319 0.0722344 -5.49753 0
M  V30 5217 H 475.544 0.16391 -6.78902 0
M  V30 5218 H 473.49 2.31177 -6.13916 0
M  V30 5219 H 473.407 1.19802 -7.46447 0
M  V30 5220 H 474.675 2.38638 -7.42073 0
M  V30 5221 N 478.904 1.54736 -0.299062 0
M  V30 5222 C 479.837 2.1962 0.619851 0
M  V30 5223 C 480.815 1.16496 1.13434 0
M  V30 5224 O 481.999 1.4513 1.2029 0
M  V30 5225 C 479.126 2.8385 1.84788 0
M  V30 5226 C 478.172 4.00484 1.46679 0
M  V30 5227 S 479.005 5.32926 0.524389 0
M  V30 5228 C 480.161 6.00638 1.76026 0
M  V30 5229 H 480.394 2.97221 0.0686177 0
M  V30 5230 H 477.927 1.54176 -0.0832085 0
M  V30 5231 H 479.885 3.21483 2.55263 0
M  V30 5232 H 478.546 2.06099 2.37028 0
M  V30 5233 H 477.739 4.44201 2.38121 0
M  V30 5234 H 477.341 3.64398 0.842008 0
M  V30 5235 H 479.633 6.21327 2.70109 0
M  V30 5236 H 480.576 6.94805 1.36569 0
M  V30 5237 H 480.984 5.3026 1.93609 0
M  V30 5238 N 480.382 0.0267497 1.57577 0
M  V30 5239 C 481.659 -0.690926 1.82991 0
M  V30 5240 C 482.039 -1.90471 0.910164 0
M  V30 5241 O 481.387 -2.28474 -0.0347985 0
M  V30 5242 C 481.597 -1.07139 3.32148 0
M  V30 5243 C 482.945 -1.46402 3.98562 0
M  V30 5244 O 483.969 -1.16443 3.36629 0
M  V30 5245 O 482.828 -2.02214 5.07712 0
M  V30 5246 H 479.922 -0.338747 0.75444 0
M  V30 5247 H 482.468 0.0542506 1.69613 0
M  V30 5248 H 481.24 -0.207394 3.9075 0
M  V30 5249 H 480.863 -1.87481 3.50623 0
M  V30 5250 N 481.861 -1.55662 -0.24637 0
M  V30 5251 C 482.791 -1.93377 -1.30873 0
M  V30 5252 C 483.772 -0.798773 -1.50179 0
M  V30 5253 O 484.957 -1.0591 -1.62778 0
M  V30 5254 C 482.087 -2.22893 -2.66338 0
M  V30 5255 C 481.041 -3.38649 -2.61727 0
M  V30 5256 C 480.367 -3.53708 -4.00992 0
M  V30 5257 C 481.667 -4.74323 -2.18666 0
M  V30 5258 H 483.361 -2.82363 -0.995552 0
M  V30 5259 H 480.907 -1.35854 -0.477464 0
M  V30 5260 H 482.86 -2.47866 -3.40794 0
M  V30 5261 H 481.584 -1.30733 -2.99293 0
M  V30 5262 H 480.243 -3.13685 -1.89729 0
M  V30 5263 H 479.891 -2.58967 -4.31214 0
M  V30 5264 H 479.591 -4.31551 -3.98795 0
M  V30 5265 H 481.115 -3.81003 -4.77147 0
M  V30 5266 H 482.529 -4.98665 -2.82854 0
M  V30 5267 H 480.926 -5.55273 -2.27579 0
M  V30 5268 H 481.996 -4.71349 -1.13834 0
M  V30 5269 N 483.339 0.512053 -1.4905 0
M  V30 5270 C 484.585 1.26874 -1.58212 0
M  V30 5271 C 484.918 1.9241 -0.263073 0
M  V30 5272 O 484.193 1.80181 0.732476 0
M  V30 5273 C 484.476 2.34428 -2.73341 0
M  V30 5274 C 484.329 1.73466 -4.15006 0
M  V30 5275 C 485.648 3.36073 -2.84154 0
M  V30 5276 H 482.767 0.459924 -0.575881 0
M  V30 5277 H 485.409 0.568587 -1.81293 0
M  V30 5278 H 483.559 2.94146 -2.53792 0
M  V30 5279 H 485.231 1.17661 -4.46042 0
M  V30 5280 H 483.474 1.03921 -4.21168 0
M  V30 5281 H 484.145 2.51426 -4.91415 0
M  V30 5282 H 486.621 2.86332 -3.01916 0
M  V30 5283 H 485.497 4.08703 -3.66406 0
M  V30 5284 H 485.758 3.97725 -1.93048 0
M  V30 5285 N 484.817 1.37938 0.762283 0
M  V30 5286 C 486.065 1.33404 1.51815 0
M  V30 5287 C 486.386 -0.0780975 1.94844 0
M  V30 5288 O 485.656 -1.02405 1.67003 0
M  V30 5289 H 484.236 0.490839 0.563104 0
M  V30 5290 H 486.898 1.72527 0.906669 0
M  V30 5291 H 485.994 1.97926 2.41313 0
M  V30 5292 N 486.295 -0.989507 1.22664 0
M  V30 5293 C 487.243 -2.10148 0.997035 0
M  V30 5294 C 488.237 -1.6929 -0.0609783 0
M  V30 5295 O 489.443 -1.79766 0.0917523 0
M  V30 5296 H 485.818 -0.687256 0.305259 0
M  V30 5297 H 487.789 -2.26685 1.94053 0
M  V30 5298 C 486.538 -3.4257 0.595085 0
M  V30 5299 H 485.861 -3.74453 1.40089 0
M  V30 5300 H 487.301 -4.21344 0.473869 0
M  V30 5301 C 485.76 -3.29638 -0.695725 0
M  V30 5302 O 486.29 -3.61709 -1.74727 0
M  V30 5303 N 484.496 -2.82814 -0.668173 0
M  V30 5304 H 484.043 -2.56914 0.18787 0
M  V30 5305 H 484.001 -2.74544 -1.5321 0
M  V30 5306 N 487.773 -1.03688 -1.18687 0
M  V30 5307 C 489.019 -0.739123 -1.88851 0
M  V30 5308 C 489.352 0.731042 -1.79915 0
M  V30 5309 O 488.627 1.53313 -1.19688 0
M  V30 5310 C 488.91 -1.20106 -3.3948 0
M  V30 5311 C 488.763 -2.73304 -3.57246 0
M  V30 5312 C 490.082 -0.788134 -4.32986 0
M  V30 5313 H 487.201 -0.269978 -0.68577 0
M  V30 5314 H 489.843 -1.28822 -1.3966 0
M  V30 5315 H 487.993 -0.733915 -3.81505 0
M  V30 5316 H 489.665 -3.28027 -3.24339 0
M  V30 5317 H 487.908 -3.13313 -3.00029 0
M  V30 5318 H 488.579 -3.00684 -4.62918 0
M  V30 5319 H 491.055 -1.19005 -3.98719 0
M  V30 5320 H 489.931 -1.13915 -5.36949 0
M  V30 5321 H 490.192 0.308988 -4.41019 0
M  V30 5322 N 489.251 1.34841 -0.815825 0
M  V30 5323 C 490.481 2.02436 -0.412695 0
M  V30 5324 C 490.889 1.61604 0.983906 0
M  V30 5325 O 490.232 0.813729 1.64694 0
M  V30 5326 C 490.294 3.56953 -0.427182 0
M  V30 5327 C 489.958 4.21083 -1.77589 0
M  V30 5328 C 490.955 4.42107 -2.73564 0
M  V30 5329 C 488.64 4.58006 -2.06243 0
M  V30 5330 C 490.634 4.99169 -3.9637 0
M  V30 5331 C 488.321 5.1478 -3.2931 0
M  V30 5332 C 489.319 5.35304 -4.24191 0
M  V30 5333 O 489.007 5.90878 -5.45086 0
M  V30 5334 H 488.739 0.655631 -0.164695 0
M  V30 5335 H 491.293 1.73246 -1.1034 0
M  V30 5336 H 489.523 3.85372 0.320175 0
M  V30 5337 H 491.212 4.05875 -0.0450875 0
M  V30 5338 H 491.978 4.13953 -2.52721 0
M  V30 5339 H 487.857 4.41339 -1.33196 0
M  V30 5340 H 491.401 5.15105 -4.70439 0
M  V30 5341 H 487.298 5.42362 -3.5002 0
M  V30 5342 H 488.066 6.0932 -5.46508 0
M  V30 5343 N 490.729 0.570148 1.46925 0
M  V30 5344 C 492.006 -0.0153259 1.95594 0
M  V30 5345 C 492.386 -1.47232 1.51281 0
M  V30 5346 O 491.734 -2.15574 0.757624 0
M  V30 5347 C 491.944 0.143624 3.48704 0
M  V30 5348 C 493.292 0.00494484 4.246 0
M  V30 5349 O 494.316 0.0718214 3.56128 0
M  V30 5350 O 493.175 -0.141175 5.46318 0
M  V30 5351 H 490.269 -0.0568819 0.825041 0
M  V30 5352 H 492.815 0.637583 1.57267 0
M  V30 5353 H 491.587 1.15699 3.73804 0
M  V30 5354 H 491.21 -0.5463 3.93829 0
M  V30 5355 N 492.207 -1.54576 0.307264 0
M  V30 5356 C 493.432 -2.05139 -0.305379 0
M  V30 5357 C 493.857 -1.18278 -1.46259 0
M  V30 5358 O 493.215 -0.188243 -1.8032 0
M  V30 5359 C 493.263 -3.53066 -0.733283 0
M  V30 5360 O 492.367 -3.69206 -1.83741 0
M  V30 5361 H 491.708 -0.661444 -0.0582105 0
M  V30 5362 H 494.238 -1.99569 0.450931 0
M  V30 5363 H 494.248 -3.95034 -1.02039 0
M  V30 5364 H 492.923 -4.15746 0.113198 0
M  V30 5365 H 491.5 -3.39143 -1.55037 0
M  V30 5366 N 493.685 -0.035106 -1.57561 0
M  V30 5367 C 494.962 0.681212 -1.83354 0
M  V30 5368 C 495.342 1.89986 -0.920252 0
M  V30 5369 O 494.69 2.28489 0.0226815 0
M  V30 5370 C 494.9 1.05376 -3.32712 0
M  V30 5371 C 496.248 1.44286 -3.99333 0
M  V30 5372 O 497.272 1.14656 -3.37242 0
M  V30 5373 O 496.131 1.99518 -5.08778 0
M  V30 5374 H 493.225 0.334741 -0.756226 0
M  V30 5375 H 495.771 -0.0632448 -1.69582 0
M  V30 5376 H 494.543 0.186668 -3.90854 0
M  V30 5377 H 494.166 1.85619 -3.51613 0
M  V30 5378 N 495.163 1.55791 0.238111 0
M  V30 5379 C 496.409 1.78297 0.966337 0
M  V30 5380 C 496.742 0.601903 1.84637 0
M  V30 5381 O 496.017 -0.399499 1.90353 0
M  V30 5382 C 496.3 3.10758 1.81939 0
M  V30 5383 C 496.153 4.39283 0.966958 0
M  V30 5384 C 497.472 3.39519 2.80027 0
M  V30 5385 H 494.591 0.648654 0.349882 0
M  V30 5386 H 497.233 1.88525 0.236253 0
M  V30 5387 H 495.383 3.02168 2.44185 0
M  V30 5388 H 497.055 4.59873 0.362514 0
M  V30 5389 H 495.298 4.32948 0.271669 0
M  V30 5390 H 495.969 5.28368 1.59784 0
M  V30 5391 H 498.445 3.48128 2.27917 0
M  V30 5392 H 497.321 4.33402 3.36829 0
M  V30 5393 H 497.582 2.60864 3.56934 0
M  V30 5394 N 496.642 -0.504142 1.49319 0
M  V30 5395 C 497.891 -1.25507 1.57895 0
M  V30 5396 C 498.204 -1.93735 0.269433 0
M  V30 5397 O 499.41 -2.70492 0.233706 0
M  V30 5398 C 497.866 -2.27869 2.78574 0
M  V30 5399 C 497.474 -1.65594 4.16272 0
M  V30 5400 C 499.218 -3.0381 2.96479 0
M  V30 5401 C 497.125 -2.66048 5.28178 0
M  V30 5402 H 496.055 -0.47212 0.587894 0
M  V30 5403 H 498.706 -0.52931 1.757 0
M  V30 5404 H 497.088 -3.03594 2.54257 0
M  V30 5405 H 498.262 -0.958826 4.50714 0
M  V30 5406 H 496.577 -1.02055 4.037 0
M  V30 5407 H 499.174 -3.78925 3.77253 0
M  V30 5408 H 499.517 -3.61235 2.06918 0
M  V30 5409 H 500.05 -2.352 3.20821 0
M  V30 5410 H 496.789 -2.13408 6.19788 0
M  V30 5411 H 496.309 -3.34009 4.98195 0
M  V30 5412 H 497.988 -3.28536 5.57381 0
M  V30 5413 N 498.12 -1.38341 -0.754957 0
M  V30 5414 C 499.369 -1.33791 -1.5094 0
M  V30 5415 C 499.682 0.0699267 -1.95475 0
M  V30 5416 O 500.888 0.237956 -2.70455 0
M  V30 5417 C 499.344 -2.34934 -2.72643 0
M  V30 5418 C 498.952 -3.81332 -2.35138 0
M  V30 5419 C 500.696 -2.39425 -3.50536 0
M  V30 5420 C 498.603 -4.74164 -3.53444 0
M  V30 5421 H 497.533 -0.497314 -0.566741 0
M  V30 5422 H 500.184 -1.63888 -0.825403 0
M  V30 5423 H 498.566 -1.97878 -3.43017 0
M  V30 5424 H 499.74 -4.27319 -1.7244 0
M  V30 5425 H 498.055 -3.79946 -1.70382 0
M  V30 5426 H 500.652 -3.0598 -4.38498 0
M  V30 5427 H 500.995 -1.41278 -3.91594 0
M  V30 5428 H 501.528 -2.75274 -2.87174 0
M  V30 5429 H 498.267 -5.73501 -3.17453 0
M  V30 5430 H 497.787 -4.3287 -4.15191 0
M  V30 5431 H 499.466 -4.92111 -4.20043 0
M  V30 5432 N 499.598 0.982988 -1.23187 0
M  V30 5433 C 500.844 1.72648 -1.06398 0
M  V30 5434 C 501.177 1.90066 0.398561 0
M  V30 5435 O 500.452 1.45105 1.29518 0
M  V30 5436 C 500.735 3.12627 -1.78707 0
M  V30 5437 C 500.588 3.02795 -3.32618 0
M  V30 5438 C 501.907 4.11997 -1.54747 0
M  V30 5439 H 499.026 0.626649 -0.387918 0
M  V30 5440 H 501.668 1.14455 -1.51658 0
M  V30 5441 H 499.818 3.62308 -1.40234 0
M  V30 5442 H 501.49 2.60659 -3.80598 0
M  V30 5443 H 499.733 2.39362 -3.61785 0
M  V30 5444 H 500.404 4.01893 -3.78399 0
M  V30 5445 H 502.88 3.71114 -1.88186 0
M  V30 5446 H 501.756 5.08037 -2.07821 0
M  V30 5447 H 502.017 4.39462 -0.482249 0
M  V30 5448 N 501.076 1.04316 1.18135 0
M  V30 5449 C 502.353 0.662166 1.84051 0
M  V30 5450 C 502.733 -0.858169 1.9287 0
M  V30 5451 O 502.081 -1.76062 1.45652 0
M  V30 5452 C 502.291 1.3409 3.22212 0
M  V30 5453 C 503.639 1.4733 3.9822 0
M  V30 5454 O 504.663 1.29921 3.31661 0
M  V30 5455 O 503.522 1.75722 5.17479 0
M  V30 5456 H 500.616 0.232005 0.79379 0
M  V30 5457 H 503.162 1.1422 1.25506 0
M  V30 5458 H 501.934 2.37853 3.10711 0
M  V30 5459 H 501.557 0.849649 3.88416 0
M  V30 5460 N 502.554 -1.34406 0.822964 0
M  V30 5461 C 503.831 -1.92733 0.333641 0
M  V30 5462 C 504.211 -1.75107 -1.17901 0
M  V30 5463 O 503.559 -1.12983 -1.98613 0
M  V30 5464 C 503.769 -3.40557 0.763023 0
M  V30 5465 C 505.117 -4.17709 0.761879 0
M  V30 5466 O 506.141 -3.49141 0.705606 0
M  V30 5467 O 505 -5.40082 0.835109 0
M  V30 5468 H 502.094 -0.821964 0.0911249 0
M  V30 5469 H 504.64 -1.4338 0.907757 0
M  V30 5470 H 503.412 -3.47187 1.8049 0
M  V30 5471 H 503.035 -3.97259 0.164605 0
M  V30 5472 N 504.032 -0.577932 -1.46621 0
M  V30 5473 C 504.965 0.206312 -2.27265 0
M  V30 5474 C 505.943 0.901306 -1.35334 0
M  V30 5475 O 507.127 0.916151 -1.64739 0
M  V30 5476 C 504.254 1.29563 -3.1294 0
M  V30 5477 C 503.3 0.706981 -4.206 0
M  V30 5478 S 504.133 -0.462459 -5.33499 0
M  V30 5479 C 505.289 0.628171 -6.2274 0
M  V30 5480 H 505.522 -0.477961 -2.93433 0
M  V30 5481 H 503.055 -0.364715 -1.50031 0
M  V30 5482 H 505.013 1.91935 -3.62865 0
M  V30 5483 H 503.674 1.95183 -2.46095 0
M  V30 5484 H 502.867 1.52565 -4.80354 0
M  V30 5485 H 502.469 0.159022 -3.73662 0
M  V30 5486 H 504.761 1.51506 -6.60342 0
M  V30 5487 H 505.704 0.0674961 -7.08068 0
M  V30 5488 H 506.112 0.930167 -5.56784 0
M  V30 5489 N 505.51 1.54411 -0.315457 0
M  V30 5490 C 506.759 1.99599 0.290395 0
M  V30 5491 C 507.072 1.20746 1.53882 0
M  V30 5492 O 508.278 1.56272 2.22017 0
M  V30 5493 C 506.734 3.5539 0.56797 0
M  V30 5494 C 506.342 4.43068 -0.662945 0
M  V30 5495 C 508.086 4.09067 1.13422 0
M  V30 5496 C 505.993 5.90317 -0.357722 0
M  V30 5497 H 504.923 0.745592 0.112286 0
M  V30 5498 H 507.574 1.78477 -0.426418 0
M  V30 5499 H 505.956 3.72468 1.34476 0
M  V30 5500 H 507.13 4.37765 -1.43869 0
M  V30 5501 H 505.445 4.00238 -1.14884 0
M  V30 5502 H 508.042 5.16663 1.37707 0
M  V30 5503 H 508.385 3.60552 2.08106 0
M  V30 5504 H 508.918 3.95589 0.418805 0
M  V30 5505 H 505.657 6.4301 -1.27351 0
M  V30 5506 H 505.177 5.98592 0.380472 0
M  V30 5507 H 506.856 6.4699 0.0354284 0
M  V30 5508 N 506.988 0.0434614 1.5754 0
M  V30 5509 C 508.265 -0.671479 1.83713 0
M  V30 5510 C 508.645 -1.89495 0.930315 0
M  V30 5511 O 507.993 -2.28498 -0.0105639 0
M  V30 5512 C 508.203 -1.0361 3.33266 0
M  V30 5513 C 509.551 -1.42167 4.00092 0
M  V30 5514 O 510.575 -1.12866 3.37846 0
M  V30 5515 O 509.434 -1.96817 5.09829 0
M  V30 5516 H 506.528 -0.330726 0.75799 0
M  V30 5517 H 509.074 0.0722373 1.69546 0
M  V30 5518 H 507.846 -0.165938 3.90948 0
M  V30 5519 H 507.469 -1.83751 3.52592 0
M  V30 5520 N 508.466 -1.55915 -0.229846 0
M  V30 5521 C 509.694 -1.82617 -0.972562 0
M  V30 5522 C 510.109 -0.621488 -1.78278 0
M  V30 5523 O 509.466 0.409956 -1.77836 0
M  V30 5524 C 509.517 -3.0774 -1.89679 0
M  V30 5525 O 509.238 -4.23559 -1.11934 0
M  V30 5526 C 510.739 -3.47368 -2.75409 0
M  V30 5527 H 507.959 -0.60727 -0.285419 0
M  V30 5528 H 510.503 -2.02996 -0.247579 0
M  V30 5529 H 508.658 -2.89361 -2.57583 0
M  V30 5530 H 509.072 -4.94586 -1.74599 0
M  V30 5531 H 510.546 -4.37977 -3.35977 0
M  V30 5532 H 511.023 -2.68737 -3.47386 0
M  V30 5533 H 511.629 -3.68158 -2.12931 0
M  V30 5534 N 509.944 0.496216 -1.49584 0
M  V30 5535 C 511.169 1.27865 -1.63295 0
M  V30 5536 C 511.594 1.85592 -0.306156 0
M  V30 5537 O 510.952 1.66092 0.726851 0
M  V30 5538 C 511 2.38128 -2.7079 0
M  V30 5539 O 510.104 3.42108 -2.30296 0
M  V30 5540 H 509.445 0.377279 -0.546403 0
M  V30 5541 H 511.975 0.593497 -1.95803 0
M  V30 5542 H 511.985 2.8382 -2.93104 0
M  V30 5543 H 510.66 1.95479 -3.67098 0
M  V30 5544 H 509.237 3.02301 -2.18331 0
M  V30 5545 N 511.423 1.38739 0.74761 0
M  V30 5546 C 512.671 1.35007 1.50391 0
M  V30 5547 C 512.992 -0.0574274 1.94915 0
M  V30 5548 O 512.262 -1.00628 1.6808 0
M  V30 5549 H 510.842 0.496784 0.557866 0
M  V30 5550 H 513.504 1.73479 0.888319 0
M  V30 5551 H 512.6 2.00474 2.392 0
M  V30 5552 N 512.901 -0.976442 1.23707 0
M  V30 5553 C 514.129 -1.75341 1.09833 0
M  V30 5554 C 514.544 -1.8553 -0.349885 0
M  V30 5555 O 513.901 -1.33732 -1.24185 0
M  V30 5556 C 513.952 -3.17833 1.72233 0
M  V30 5557 O 513.673 -3.08167 3.11391 0
M  V30 5558 C 515.174 -4.11906 1.63853 0
M  V30 5559 H 512.394 -0.550137 0.384175 0
M  V30 5560 H 514.938 -1.2265 1.63638 0
M  V30 5561 H 513.093 -3.67538 1.22452 0
M  V30 5562 H 513.507 -3.97897 3.41729 0
M  V30 5563 H 514.981 -5.09579 2.12211 0
M  V30 5564 H 515.458 -4.35109 0.598092 0
M  V30 5565 H 516.064 -3.68107 2.13019 0
M  V30 5566 N 514.379 -1.04941 -1.1758 0
M  V30 5567 C 515.309 -0.669172 -2.23706 0
M  V30 5568 C 516.29 0.331835 -1.66832 0
M  V30 5569 O 517.475 0.209988 -1.93061 0
M  V30 5570 C 514.605 -0.0404889 -3.47276 0
M  V30 5571 C 513.559 -0.965983 -4.16957 0
M  V30 5572 C 512.885 -0.201312 -5.34321 0
M  V30 5573 C 514.185 -2.28902 -4.69469 0
M  V30 5574 H 515.879 -1.55639 -2.55767 0
M  V30 5575 H 513.425 -0.749793 -1.22939 0
M  V30 5576 H 515.378 0.237298 -4.20731 0
M  V30 5577 H 514.102 0.881658 -3.14475 0
M  V30 5578 H 512.761 -1.22829 -3.45411 0
M  V30 5579 H 512.409 0.723519 -4.97769 0
M  V30 5580 H 512.109 -0.817968 -5.81879 0
M  V30 5581 H 513.633 0.0692499 -6.10561 0
M  V30 5582 H 515.047 -2.07132 -5.34574 0
M  V30 5583 H 513.444 -2.85942 -5.27596 0
M  V30 5584 H 514.514 -2.92937 -3.86414 0
M  V30 5585 N 515.857 1.33968 -0.830081 0
M  V30 5586 C 517.097 1.99879 -0.427521 0
M  V30 5587 C 517.461 1.64355 0.992546 0
M  V30 5588 O 518.662 2.23164 1.49837 0
M  V30 5589 C 516.933 3.51771 -0.631815 0
M  V30 5590 S 518.492 4.37608 -0.323168 0
M  V30 5591 H 515.31 0.692485 -0.161202 0
M  V30 5592 H 517.912 1.63129 -1.07745 0
M  V30 5593 H 516.616 3.75113 -1.66488 0
M  V30 5594 H 516.147 3.93386 0.0325936 0
M  V30 5595 H 518.162 4.88683 0.860432 0
M  V30 5596 N 517.335 0.585699 1.46312 0
M  V30 5597 C 518.245 -0.148236 2.34131 0
M  V30 5598 C 519.261 -0.882972 1.49932 0
M  V30 5599 O 520.437 -0.845484 1.82794 0
M  V30 5600 C 517.502 -1.14714 3.27172 0
M  V30 5601 C 516.563 -0.416746 4.27272 0
M  V30 5602 C 515.796 -1.36806 5.15868 0
M  V30 5603 O 516.019 -2.60475 5.07454 0
M  V30 5604 O 514.953 -0.877018 5.95476 0
M  V30 5605 H 518.779 0.572882 2.98248 0
M  V30 5606 H 516.364 0.346082 1.45336 0
M  V30 5607 H 518.246 -1.72303 3.84564 0
M  V30 5608 H 516.921 -1.84967 2.65648 0
M  V30 5609 H 515.828 0.201061 3.73559 0
M  V30 5610 H 517.161 0.244872 4.9159 0
M  V30 5611 N 518.813 -1.54241 0.323641 0
M  V30 5612 C 519.776 -2.22997 -0.529602 0
M  V30 5613 C 520.776 -1.22345 -1.04347 0
M  V30 5614 O 521.966 -1.46924 -0.935889 0
M  V30 5615 C 519.098 -2.93409 -1.73562 0
M  V30 5616 H 520.291 -2.99815 0.0714518 0
M  V30 5617 H 517.844 -1.56121 0.0747258 0
M  V30 5618 H 518.579 -2.20729 -2.37591 0
M  V30 5619 H 518.364 -3.67217 -1.37456 0
M  V30 5620 H 519.854 -3.45794 -2.34128 0
M  V30 5621 N 520.291 -0.0518155 -1.57515 0
M  V30 5622 C 521.254 0.907547 -2.10467 0
M  V30 5623 C 522.254 1.23947 -1.02439 0
M  V30 5624 O 523.444 1.17604 -1.2851 0
M  V30 5625 C 520.576 2.21723 -2.58944 0
M  V30 5626 H 521.769 0.44851 -2.96527 0
M  V30 5627 H 519.322 0.196598 -1.55059 0
M  V30 5628 H 520.057 2.72206 -1.76279 0
M  V30 5629 H 519.842 1.98935 -3.37886 0
M  V30 5630 H 521.332 2.90441 -3.00056 0
M  V30 5631 N 521.769 1.56035 0.221574 0
M  V30 5632 C 522.716 1.92413 1.27459 0
M  V30 5633 C 523.686 0.781323 1.46576 0
M  V30 5634 O 524.871 1.03721 1.60145 0
M  V30 5635 C 522.011 2.24617 2.61995 0
M  V30 5636 C 521.124 3.51831 2.50677 0
M  V30 5637 C 520.259 3.73482 3.77736 0
M  V30 5638 C 519.298 4.94211 3.6114 0
M  V30 5639 N 518.435 5.12252 4.80148 0
M  V30 5640 H 523.275 2.82203 0.957355 0
M  V30 5641 H 520.812 1.39676 0.461415 0
M  V30 5642 H 522.77 2.41298 3.40339 0
M  V30 5643 H 521.4 1.38 2.91815 0
M  V30 5644 H 520.452 3.43343 1.63767 0
M  V30 5645 H 521.764 4.40328 2.34334 0
M  V30 5646 H 520.918 3.9026 4.64523 0
M  V30 5647 H 519.657 2.83266 3.97003 0
M  V30 5648 H 518.662 4.77384 2.72736 0
M  V30 5649 H 519.887 5.85912 3.43343 0
M  V30 5650 H 517.833 4.24978 4.99729 0
M  V30 5651 H 517.75 5.94881 4.66532 0
M  V30 5652 H 519.018 5.33465 5.68362 0
M  V30 5653 N 523.247 -0.488276 1.49845 0
M  V30 5654 C 524.179 -1.60539 1.63584 0
M  V30 5655 C 525.192 -1.5434 0.517972 0
M  V30 5656 O 526.381 -1.60041 0.790516 0
M  V30 5657 C 523.481 -2.99374 1.58835 0
M  V30 5658 C 522.654 -3.30624 2.86368 0
M  V30 5659 C 521.713 -4.4893 2.74496 0
M  V30 5660 O 520.739 -4.50085 3.48443 0
M  V30 5661 N 521.941 -5.49591 1.86894 0
M  V30 5662 H 524.706 -1.49176 2.59936 0
M  V30 5663 H 522.267 -0.67639 1.47094 0
M  V30 5664 H 524.259 -3.76459 1.48529 0
M  V30 5665 H 522.829 -3.04595 0.702892 0
M  V30 5666 H 522.049 -2.42314 3.1093 0
M  V30 5667 H 523.337 -3.48305 3.70892 0
M  V30 5668 H 522.735 -5.51467 1.26097 0
M  V30 5669 H 521.292 -6.25728 1.82503 0
M  V30 5670 N 524.725 -1.39134 -0.740242 0
M  V30 5671 C 525.655 -1.40165 -1.86751 0
M  V30 5672 C 526.636 -0.265708 -1.68012 0
M  V30 5673 O 527.821 -0.47076 -1.88408 0
M  V30 5674 C 524.951 -1.2392 -3.2444 0
M  V30 5675 C 523.905 -2.34858 -3.57807 0
M  V30 5676 C 523.231 -2.03707 -4.94376 0
M  V30 5677 C 524.531 -3.77159 -3.61315 0
M  V30 5678 H 526.225 -2.345 -1.86145 0
M  V30 5679 H 523.771 -1.12875 -0.89416 0
M  V30 5680 H 525.724 -1.23263 -4.02969 0
M  V30 5681 H 524.448 -0.26051 -3.25559 0
M  V30 5682 H 523.107 -2.34723 -2.81604 0
M  V30 5683 H 522.755 -1.04289 -4.9207 0
M  V30 5684 H 522.455 -2.78016 -5.17669 0
M  V30 5685 H 523.979 -2.04691 -5.75268 0
M  V30 5686 H 525.393 -3.79252 -4.29931 0
M  V30 5687 H 523.79 -4.50784 -3.96124 0
M  V30 5688 H 524.86 -4.08513 -2.61238 0
M  V30 5689 N 526.204 0.969867 -1.24223 0
M  V30 5690 C 527.151 2.06407 -1.0327 0
M  V30 5691 C 528.121 1.66014 0.0533 0
M  V30 5692 O 529.306 1.90533 -0.100896 0
M  V30 5693 C 526.446 3.3909 -0.641262 0
M  V30 5694 C 525.559 3.9269 -1.80051 0
M  V30 5695 C 524.694 5.13631 -1.35486 0
M  V30 5696 C 523.733 5.59423 -2.48419 0
M  V30 5697 N 522.87 6.71586 -2.04737 0
M  V30 5698 H 527.71 2.23663 -1.96923 0
M  V30 5699 H 525.247 1.09624 -0.980862 0
M  V30 5700 H 527.205 4.15323 -0.395351 0
M  V30 5701 H 525.835 3.21765 0.258269 0
M  V30 5702 H 524.887 3.13116 -2.16014 0
M  V30 5703 H 526.199 4.22636 -2.64916 0
M  V30 5704 H 525.353 5.97231 -1.0677 0
M  V30 5705 H 524.092 4.85364 -0.476722 0
M  V30 5706 H 523.097 4.74398 -2.77897 0
M  V30 5707 H 524.322 5.89705 -3.36786 0
M  V30 5708 H 522.268 6.45058 -1.19318 0
M  V30 5709 H 522.185 7.0097 -2.83156 0
M  V30 5710 H 523.453 7.58633 -1.79154 0
M  V30 5711 N 527.682 1.05563 1.17022 0
M  V30 5712 C 528.629 0.659893 2.21165 0
M  V30 5713 C 529.599 -0.339813 1.62587 0
M  V30 5714 O 530.784 -0.230378 1.89404 0
M  V30 5715 C 527.924 0.0447297 3.45071 0
M  V30 5716 C 527.037 1.09372 4.17926 0
M  V30 5717 C 526.172 0.445481 5.29329 0
M  V30 5718 C 525.211 1.47852 5.93975 0
M  V30 5719 N 524.348 0.854172 6.96885 0
M  V30 5720 H 529.188 1.55243 2.54369 0
M  V30 5721 H 526.725 0.776336 1.24946 0
M  V30 5722 H 528.683 -0.329404 4.15898 0
M  V30 5723 H 527.313 -0.811244 3.1244 0
M  V30 5724 H 526.365 1.58564 3.45777 0
M  V30 5725 H 527.677 1.87773 4.62107 0
M  V30 5726 H 526.831 0.0179688 6.06697 0
M  V30 5727 H 525.57 -0.370481 4.86291 0
M  V30 5728 H 524.575 1.91601 5.15334 0
M  V30 5729 H 525.8 2.29645 6.39093 0
M  V30 5730 H 523.746 0.0587882 6.55974 0
M  V30 5731 H 523.663 1.57567 7.39397 0
M  V30 5732 H 524.931 0.451559 7.78191 0
M  V30 5733 N 529.16 -1.33526 0.837174 0
M  V30 5734 C 530.11 -2.2672 0.241269 0
M  V30 5735 C 531.094 -1.49183 -0.602756 0
M  V30 5736 O 532.286 -1.71052 -0.455002 0
M  V30 5737 C 529.415 -3.38294 -0.584125 0
M  V30 5738 C 528.501 -4.23231 0.271315 0
M  V30 5739 N 528.892 -4.87473 1.34922 0
M  V30 5740 C 527.19 -4.45962 0.0580589 0
M  V30 5741 C 527.891 -5.50685 1.87405 0
M  V30 5742 N 526.867 -5.30732 1.17578 0
M  V30 5743 H 530.669 -2.73903 1.06558 0
M  V30 5744 H 528.183 -1.47411 0.68145 0
M  V30 5745 H 530.18 -4.04044 -1.02731 0
M  V30 5746 H 528.84 -2.9266 -1.40643 0
M  V30 5747 H 529.851 -4.88077 1.7321 0
M  V30 5748 H 526.528 -4.11052 -0.730938 0
M  V30 5749 H 527.918 -6.11845 2.77661 0
M  V30 5750 N 530.638 -0.59345 -1.46 0
M  V30 5751 C 531.886 -0.082988 -2.0193 0
M  V30 5752 C 532.207 1.28569 -1.46612 0
M  V30 5753 O 531.477 1.84629 -0.654909 0
M  V30 5754 H 530.057 -0.0276882 -0.746487 0
M  V30 5755 H 532.719 -0.771657 -1.78973 0
M  V30 5756 H 531.815 -0.022079 -3.12092 0
M  V30 5757 N 532.116 1.54067 -0.331816 0
M  V30 5758 C 533.079 2.23275 0.517768 0
M  V30 5759 C 534.079 1.22897 1.03697 0
M  V30 5760 O 535.269 1.47419 0.928084 0
M  V30 5761 C 532.401 2.94326 1.72004 0
M  V30 5762 H 533.594 2.99773 -0.0873507 0
M  V30 5763 H 531.147 1.56079 -0.0830042 0
M  V30 5764 H 531.882 2.21986 2.36417 0
M  V30 5765 H 531.667 3.67941 1.35507 0
M  V30 5766 H 533.157 3.47031 2.32291 0
M  V30 5767 N 533.594 0.0601682 1.57485 0
M  V30 5768 C 535.01 -0.296422 1.56823 0
M  V30 5769 C 535.21 -1.70831 1.0686 0
M  V30 5770 O 534.266 -2.4174 0.729245 0
M  V30 5771 C 535.579 -0.116681 3.00474 0
M  V30 5772 C 537.127 -0.187103 3.1244 0
M  V30 5773 C 537.602 -0.035783 4.57986 0
M  V30 5774 N 539.093 -0.0917676 4.63109 0
M  V30 5775 C 539.828 0.00107251 5.734 0
M  V30 5776 N 539.324 0.146773 6.92645 0
M  V30 5777 N 541.117 -0.0551577 5.62073 0
M  V30 5778 H 533.268 0.983055 1.88281 0
M  V30 5779 H 535.531 0.382386 0.867459 0
M  V30 5780 H 535.237 0.85712 3.41096 0
M  V30 5781 H 535.111 -0.873929 3.66936 0
M  V30 5782 H 537.498 -1.15138 2.71712 0
M  V30 5783 H 537.579 0.601052 2.48638 0
M  V30 5784 H 537.223 0.925212 4.99402 0
M  V30 5785 H 537.153 -0.843196 5.19806 0
M  V30 5786 H 539.644 -0.203261 3.77353 0
M  V30 5787 H 539.957 0.210076 7.72514 0
M  V30 5788 H 538.302 0.181979 6.94762 0
M  V30 5789 H 541.493 -0.167605 4.678 0
M  V30 5790 H 541.666 0.020652 6.47997 0
M  V30 5791 N 535.072 -1.5615 -0.213296 0
M  V30 5792 C 536.488 -1.49327 -0.56336 0
M  V30 5793 C 536.688 -0.756826 -1.86747 0
M  V30 5794 O 535.744 -0.299866 -2.50713 0
M  V30 5795 C 537.057 -2.9392 -0.634944 0
M  V30 5796 C 538.605 -3.04487 -0.725013 0
M  V30 5797 C 539.08 -4.50456 -0.82787 0
M  V30 5798 N 540.571 -4.54533 -0.891876 0
M  V30 5799 C 541.306 -5.64766 -0.991315 0
M  V30 5800 N 540.802 -6.84733 -1.05419 0
M  V30 5801 N 542.595 -5.52637 -1.02709 0
M  V30 5802 H 534.746 -2.02453 0.642366 0
M  V30 5803 H 537.009 -0.920548 0.226487 0
M  V30 5804 H 536.715 -3.50783 0.253859 0
M  V30 5805 H 536.589 -3.46274 -1.49579 0
M  V30 5806 H 538.976 -2.47685 -1.60425 0
M  V30 5807 H 539.057 -2.55289 0.161669 0
M  V30 5808 H 538.701 -5.07878 0.0469464 0
M  V30 5809 H 538.631 -4.97369 -1.73009 0
M  V30 5810 H 541.122 -3.68141 -0.85327 0
M  V30 5811 H 541.435 -7.64493 -1.13007 0
M  V30 5812 H 539.78 -6.87427 -1.02318 0
M  V30 5813 H 542.971 -4.5784 -0.974687 0
M  V30 5814 H 543.144 -6.38576 -1.10113 0
M  V30 5815 N 536.55 0.480323 -1.50102 0
M  V30 5816 C 537.796 1.23489 -1.60867 0
M  V30 5817 C 538.129 1.91809 -0.303827 0
M  V30 5818 O 537.404 1.81694 0.694092 0
M  V30 5819 C 537.687 2.28578 -2.78252 0
M  V30 5820 C 537.54 1.64624 -4.18592 0
M  V30 5821 C 538.859 3.2997 -2.91218 0
M  V30 5822 H 535.978 0.447605 -0.585507 0
M  V30 5823 H 538.62 0.530005 -1.82458 0
M  V30 5824 H 536.77 2.88697 -2.59974 0
M  V30 5825 H 538.442 1.08173 -4.48438 0
M  V30 5826 H 536.685 0.949645 -4.23278 0
M  V30 5827 H 537.356 2.40946 -4.96638 0
M  V30 5828 H 539.832 2.79864 -3.07921 0
M  V30 5829 H 538.708 4.00839 -3.74993 0
M  V30 5830 H 538.969 3.93541 -2.0144 0
M  V30 5831 N 538.028 1.39524 0.732853 0
M  V30 5832 C 539.275 1.36865 1.49246 0
M  V30 5833 C 539.603 -0.0347118 1.94469 0
M  V30 5834 O 538.858 -1.01596 1.67262 0
M  V30 5835 C 539.157 2.28916 2.74468 0
M  V30 5836 C 538.823 3.76506 2.481 0
M  V30 5837 C 537.485 4.16721 2.40619 0
M  V30 5838 C 539.837 4.69846 2.25598 0
M  V30 5839 C 537.165 5.48334 2.08679 0
M  V30 5840 C 539.517 6.01739 1.95174 0
M  V30 5841 C 538.181 6.41015 1.86163 0
M  V30 5842 H 537.451 0.500824 0.546129 0
M  V30 5843 H 540.098 1.72047 0.840958 0
M  V30 5844 H 538.403 1.86859 3.4437 0
M  V30 5845 H 540.1 2.2415 3.32502 0
M  V30 5846 H 536.69 3.44635 2.54803 0
M  V30 5847 H 540.874 4.39608 2.30344 0
M  V30 5848 H 536.13 5.77685 2.00226 0
M  V30 5849 H 540.304 6.73591 1.76771 0
M  V30 5850 H 537.931 7.42917 1.61179 0
M  V30 5851 N 539.506 -0.963266 1.24736 0
M  V30 5852 C 540.469 -2.04013 1.04457 0
M  V30 5853 C 541.469 -1.608 0.000335555 0
M  V30 5854 O 542.659 -1.72515 0.241719 0
M  V30 5855 C 539.791 -3.35858 0.584162 0
M  V30 5856 H 540.984 -2.23436 2.00041 0
M  V30 5857 H 538.537 -1.13914 1.07021 0
M  V30 5858 H 539.272 -3.22128 -0.374673 0
M  V30 5859 H 539.057 -3.68568 1.3379 0
M  V30 5860 H 540.547 -4.1502 0.463451 0
M  V30 5861 N 540.985 -1.06182 -1.16461 0
M  V30 5862 C 542.232 -0.777863 -1.86964 0
M  V30 5863 C 542.56 0.695602 -1.81636 0
M  V30 5864 O 541.815 1.52532 -1.22607 0
M  V30 5865 C 542.114 -1.21633 -3.36066 0
M  V30 5866 C 541.78 -2.69371 -3.61594 0
M  V30 5867 C 540.442 -3.09727 -3.6827 0
M  V30 5868 C 542.794 -3.64791 -3.7226 0
M  V30 5869 C 540.122 -4.44345 -3.83112 0
M  V30 5870 C 542.474 -4.99155 -3.88623 0
M  V30 5871 C 541.138 -5.39149 -3.93541 0
M  V30 5872 H 540.408 -0.28464 -0.68415 0
M  V30 5873 H 543.055 -1.33071 -1.37711 0
M  V30 5874 H 541.36 -0.582651 -3.87443 0
M  V30 5875 H 543.057 -0.973682 -3.88999 0
M  V30 5876 H 539.647 -2.37124 -3.57029 0
M  V30 5877 H 543.831 -3.34746 -3.66413 0
M  V30 5878 H 539.087 -4.74819 -3.85172 0
M  V30 5879 H 543.261 -5.72976 -3.95817 0
M  V30 5880 H 540.888 -6.43464 -4.04794 0
M  V30 5881 N 542.463 1.3308 -0.844243 0
M  V30 5882 C 543.426 2.27403 -0.286485 0
M  V30 5883 C 544.426 1.51179 0.547872 0
M  V30 5884 O 545.616 1.70421 0.360886 0
M  V30 5885 C 542.748 3.35653 0.595813 0
M  V30 5886 H 543.941 2.78248 -1.11885 0
M  V30 5887 H 541.494 1.43574 -0.617749 0
M  V30 5888 H 542.229 2.90058 1.4504 0
M  V30 5889 H 542.014 3.921 -0.00125994 0
M  V30 5890 H 543.504 4.05958 0.979168 0
M  V30 5891 N 543.941 0.601185 1.45683 0
M  V30 5892 C 545.169 0.100054 2.06658 0
M  V30 5893 C 545.584 -1.21285 1.44691 0
M  V30 5894 O 544.941 -1.73735 0.558772 0
M  V30 5895 C 544.992 -0.0528579 3.61461 0
M  V30 5896 O 544.713 1.20809 4.21114 0
M  V30 5897 C 546.214 -0.586193 4.39407 0
M  V30 5898 H 543.434 0.065905 0.667756 0
M  V30 5899 H 545.978 0.827101 1.87028 0
M  V30 5900 H 544.133 -0.730203 3.80456 0
M  V30 5901 H 544.547 1.03368 5.14213 0
M  V30 5902 H 546.021 -0.642297 5.4825 0
M  V30 5903 H 546.498 -1.60713 4.0874 0
M  V30 5904 H 547.104 0.0568935 4.25262 0
M  V30 5905 N 545.419 -1.53889 0.339982 0
M  V30 5906 C 546.369 -2.2165 -0.534354 0
M  V30 5907 C 547.353 -1.20266 -1.06887 0
M  V30 5908 O 548.545 -1.45827 -1.00316 0
M  V30 5909 C 545.674 -2.99014 -1.68659 0
M  V30 5910 C 544.76 -4.07751 -1.16618 0
M  V30 5911 N 545.151 -5.04469 -0.366717 0
M  V30 5912 C 543.449 -4.21998 -1.4434 0
M  V30 5913 C 544.15 -5.81638 -0.0847275 0
M  V30 5914 N 543.126 -5.39388 -0.675391 0
M  V30 5915 H 546.928 -2.93781 0.0835562 0
M  V30 5916 H 544.442 -1.61736 0.146665 0
M  V30 5917 H 546.439 -3.46056 -2.32489 0
M  V30 5918 H 545.099 -2.28408 -2.30781 0
M  V30 5919 H 546.11 -5.17899 -0.00811038 0
M  V30 5920 H 542.787 -3.62612 -2.06928 0
M  V30 5921 H 544.177 -6.69563 0.559943 0
M  V30 5922 N 546.897 -0.0685191 -1.57451 0
M  V30 5923 C 548.145 0.60016 -1.92983 0
M  V30 5924 C 548.466 1.70348 -0.949028 0
M  V30 5925 O 547.736 1.959 0.00335647 0
M  V30 5926 H 546.316 0.224682 -0.712409 0
M  V30 5927 H 548.978 -0.125605 -1.94495 0
M  V30 5928 H 548.074 1.02759 -2.94698 0
M  V30 5929 N 548.375 1.56261 0.205012 0
M  V30 5930 C 549.305 1.96779 1.257 0
M  V30 5931 C 550.286 0.838309 1.48008 0
M  V30 5932 O 551.471 1.10189 1.59913 0
M  V30 5933 C 548.601 2.29876 2.60335 0
M  V30 5934 C 547.555 3.45469 2.52656 0
M  V30 5935 C 546.881 3.64215 3.91473 0
M  V30 5936 C 548.181 4.79954 2.06014 0
M  V30 5937 H 549.875 2.84904 0.920338 0
M  V30 5938 H 547.421 1.37072 0.441277 0
M  V30 5939 H 549.374 2.56814 3.34102 0
M  V30 5940 H 548.098 1.38622 2.95722 0
M  V30 5941 H 546.757 3.18605 1.81345 0
M  V30 5942 H 546.405 2.70309 4.24196 0
M  V30 5943 H 546.105 4.41973 3.87213 0
M  V30 5944 H 547.629 3.93519 4.66878 0
M  V30 5945 H 549.043 5.05989 2.69533 0
M  V30 5946 H 547.44 5.61111 2.12777 0
M  V30 5947 H 548.51 4.74201 1.01297 0
M  V30 5948 N 549.853 -0.472356 1.50355 0
M  V30 5949 C 551.1 -1.22453 1.61281 0
M  V30 5950 C 551.428 -1.91972 0.31256 0
M  V30 5951 O 550.683 -1.82696 -0.701475 0
M  V30 5952 C 550.982 -2.29257 2.74182 0
M  V30 5953 C 550.648 -1.76999 4.14708 0
M  V30 5954 C 549.31 -1.62467 4.52944 0
M  V30 5955 C 551.662 -1.38215 5.0254 0
M  V30 5956 C 548.99 -1.07574 5.76754 0
M  V30 5957 C 551.342 -0.847638 6.26895 0
M  V30 5958 C 550.006 -0.688946 6.63935 0
M  V30 5959 H 549.276 -0.448087 0.590168 0
M  V30 5960 H 551.923 -0.520744 1.84284 0
M  V30 5961 H 550.228 -3.05538 2.45263 0
M  V30 5962 H 551.925 -2.87212 2.7984 0
M  V30 5963 H 548.515 -1.89276 3.84542 0
M  V30 5964 H 552.699 -1.48276 4.73633 0
M  V30 5965 H 547.955 -0.940237 6.04127 0
M  V30 5966 H 552.129 -0.538455 6.94315 0
M  V30 5967 H 549.756 -0.261435 7.5975 0
M  V30 5968 N 551.331 -1.39911 -0.725443 0
M  V30 5969 C 552.556 -1.41137 -1.5197 0
M  V30 5970 C 552.981 -0.010262 -1.88097 0
M  V30 5971 O 552.339 0.979184 -1.52583 0
M  V30 5972 C 552.387 -2.2994 -2.77777 0
M  V30 5973 O 551.491 -1.73586 -3.74088 0
M  V30 5974 H 550.832 -0.480219 -0.458569 0
M  V30 5975 H 553.362 -1.84023 -0.894249 0
M  V30 5976 H 553.372 -2.44785 -3.26411 0
M  V30 5977 H 552.047 -3.31759 -2.50816 0
M  V30 5978 H 550.624 -1.68035 -3.32894 0
M  V30 5979 N 552.809 0.956637 -1.25245 0
M  V30 5980 C 554.057 1.69764 -1.09657 0
M  V30 5981 C 554.378 1.91583 0.363464 0
M  V30 5982 O 553.648 1.50149 1.25825 0
M  V30 5983 H 552.228 0.629097 -0.402798 0
M  V30 5984 H 554.89 1.15026 -1.57337 0
M  V30 5985 H 553.986 2.67769 -1.60331 0
M  V30 5986 N 554.287 1.06798 1.15896 0
M  V30 5987 C 555.698 0.811355 1.68149 0
M  V30 5988 C 556.049 -0.664339 1.8461 0
M  V30 5989 O 555.174 -1.51485 1.54535 0
M  V30 5990 C 555.769 1.46624 3.05429 0
M  V30 5991 C 554.328 1.25726 3.54781 0
M  V30 5992 C 553.475 1.53949 2.3064 0
M  V30 5993 H 556.426 1.23078 1.00187 0
M  V30 5994 H 556.447 0.88437 3.7008 0
M  V30 5995 H 555.959 2.54025 2.93416 0
M  V30 5996 H 554.06 0.20322 3.72045 0
M  V30 5997 H 554.173 1.97354 4.36564 0
M  V30 5998 H 552.537 0.96025 2.35905 0
M  V30 5999 H 553.32 2.6252 2.2122 0
M  V30 6000 N 555.766 -1.3263 0.851289 0
M  V30 6001 C 556.729 -2.27247 0.298541 0
M  V30 6002 C 557.729 -1.51467 -0.539847 0
M  V30 6003 O 558.919 -1.7061 -0.351843 0
M  V30 6004 C 556.051 -3.35964 -0.578004 0
M  V30 6005 H 557.244 -2.7765 1.13359 0
M  V30 6006 H 554.797 -1.43245 0.625354 0
M  V30 6007 H 555.532 -2.90823 -1.435 0
M  V30 6008 H 555.317 -3.92094 0.0220539 0
M  V30 6009 H 556.807 -4.06472 -0.957626 0
M  V30 6010 N 557.244 -0.608902 -1.45362 0
M  V30 6011 C 558.493 -0.10218 -2.01441 0
M  V30 6012 C 558.806 1.27546 -1.48295 0
M  V30 6013 O 560.012 1.87498 -1.96359 0
M  V30 6014 C 558.468 -0.131985 -3.59658 0
M  V30 6015 C 558.076 -1.50956 -4.21801 0
M  V30 6016 C 559.82 0.319427 -4.23296 0
M  V30 6017 C 557.727 -1.49568 -5.72174 0
M  V30 6018 H 556.657 -0.0344314 -0.753213 0
M  V30 6019 H 559.308 -0.764426 -1.6682 0
M  V30 6020 H 557.69 0.596939 -3.91475 0
M  V30 6021 H 558.864 -2.26029 -4.01556 0
M  V30 6022 H 557.179 -1.90318 -3.70362 0
M  V30 6023 H 559.776 0.349013 -5.3356 0
M  V30 6024 H 560.119 1.34237 -3.94064 0
M  V30 6025 H 560.652 -0.356273 -3.96201 0
M  V30 6026 H 557.391 -2.49626 -6.06108 0
M  V30 6027 H 556.911 -0.787542 -5.94607 0
M  V30 6028 H 558.59 -1.21989 -6.35396 0
M  V30 6029 N 558.722 1.53707 -0.348139 0
M  V30 6030 C 559.999 1.93247 0.302475 0
M  V30 6031 C 560.379 1.28012 1.67857 0
M  V30 6032 O 559.727 0.43274 2.24365 0
M  V30 6033 C 559.937 3.47031 0.370159 0
M  V30 6034 C 561.285 4.20066 0.61882 0
M  V30 6035 O 562.309 3.53319 0.452087 0
M  V30 6036 O 561.168 5.38318 0.94215 0
M  V30 6037 H 558.262 0.807736 0.177458 0
M  V30 6038 H 560.808 1.64927 -0.399651 0
M  V30 6039 H 559.58 3.86745 -0.59534 0
M  V30 6040 H 559.203 3.81532 1.11888 0
M  V30 6041 N 560.2 0.0768682 1.57412 0
M  V30 6042 C 561.616 -0.279772 1.57129 0
M  V30 6043 C 561.816 -1.69688 1.08666 0
M  V30 6044 O 560.872 -2.40953 0.754843 0
M  V30 6045 C 562.185 -0.0848055 3.0058 0
M  V30 6046 C 563.733 -0.153954 3.12621 0
M  V30 6047 C 564.208 0.0127946 4.57998 0
M  V30 6048 N 565.699 -0.0426435 4.6318 0
M  V30 6049 C 566.434 0.0618892 5.73367 0
M  V30 6050 N 565.93 0.220229 6.9245 0
M  V30 6051 N 567.723 0.00446072 5.621 0
M  V30 6052 H 559.874 1.00297 1.87228 0
M  V30 6053 H 562.137 0.391565 0.863354 0
M  V30 6054 H 561.843 0.89325 3.40168 0
M  V30 6055 H 561.717 -0.834961 3.67843 0
M  V30 6056 H 564.104 -1.1225 2.72917 0
M  V30 6057 H 564.185 0.627389 2.47987 0
M  V30 6058 H 563.829 0.978128 4.98392 0
M  V30 6059 H 563.759 -0.788016 5.20671 0
M  V30 6060 H 566.25 -0.163226 3.77547 0
M  V30 6061 H 566.563 0.291999 7.72248 0
M  V30 6062 H 564.908 0.255658 6.9453 0
M  V30 6063 H 568.099 -0.117979 4.67951 0
M  V30 6064 H 568.272 0.0893796 6.47938 0
M  V30 6065 N 561.678 -1.56367 -0.196722 0
M  V30 6066 C 562.927 -1.79724 -0.915539 0
M  V30 6067 C 563.24 -0.649804 -1.84491 0
M  V30 6068 O 564.446 -0.767631 -2.60422 0
M  V30 6069 C 562.902 -3.18369 -1.67836 0
M  V30 6070 C 562.51 -4.4091 -0.793897 0
M  V30 6071 C 564.254 -3.51037 -2.38691 0
M  V30 6072 C 562.161 -5.70577 -1.55549 0
M  V30 6073 H 561.091 -0.67013 -0.345604 0
M  V30 6074 H 563.742 -1.82721 -0.168856 0
M  V30 6075 H 562.124 -3.09617 -2.46887 0
M  V30 6076 H 563.298 -4.60781 -0.042163 0
M  V30 6077 H 561.613 -4.15937 -0.19626 0
M  V30 6078 H 564.21 -4.4515 -2.96219 0
M  V30 6079 H 564.553 -2.74704 -3.12799 0
M  V30 6080 H 565.086 -3.61229 -1.66608 0
M  V30 6081 H 561.825 -6.49871 -0.857226 0
M  V30 6082 H 561.345 -5.54726 -2.2812 0
M  V30 6083 H 563.024 -6.11637 -2.10971 0
M  V30 6084 N 563.156 0.464375 -1.50603 0
M  V30 6085 C 564.066 1.58723 -1.72754 0
M  V30 6086 C 565.082 1.62925 -0.610844 0
M  V30 6087 O 566.258 1.8067 -0.889963 0
M  V30 6088 C 563.323 2.94897 -1.82309 0
M  V30 6089 C 562.384 3.0103 -3.06071 0
M  V30 6090 C 561.617 4.30708 -3.1516 0
M  V30 6091 O 561.84 5.2159 -2.30868 0
M  V30 6092 O 560.774 4.42571 -4.0794 0
M  V30 6093 H 564.6 1.42954 -2.67951 0
M  V30 6094 H 562.185 0.644579 -1.3478 0
M  V30 6095 H 564.067 3.75764 -1.90735 0
M  V30 6096 H 562.742 3.10851 -0.902967 0
M  V30 6097 H 561.649 2.19217 -3.03142 0
M  V30 6098 H 562.982 2.90014 -3.97684 0
M  V30 6099 N 564.634 1.40294 0.718013 0
M  V30 6100 C 565.581 1.40367 1.8321 0
M  V30 6101 C 566.551 0.260952 1.64037 0
M  V30 6102 O 567.736 0.458648 1.85205 0
M  V30 6103 C 564.876 1.26965 3.20895 0
M  V30 6104 C 563.989 2.50922 3.51656 0
M  V30 6105 C 563.124 2.29981 4.78834 0
M  V30 6106 C 562.163 3.49527 5.02491 0
M  V30 6107 N 561.3 3.27796 6.20882 0
M  V30 6108 H 566.14 2.35593 1.82482 0
M  V30 6109 H 563.677 1.17012 0.891444 0
M  V30 6110 H 565.635 1.17202 4.00399 0
M  V30 6111 H 564.265 0.353591 3.20858 0
M  V30 6112 H 563.317 2.71223 2.66725 0
M  V30 6113 H 564.629 3.39913 3.65048 0
M  V30 6114 H 563.783 2.17558 5.66351 0
M  V30 6115 H 562.522 1.38411 4.67647 0
M  V30 6116 H 561.527 3.6243 4.1343 0
M  V30 6117 H 562.752 4.42021 5.15553 0
M  V30 6118 H 560.698 2.38906 6.1095 0
M  V30 6119 H 560.615 4.10351 6.34939 0
M  V30 6120 H 561.883 3.19101 7.11193 0
M  V30 6121 N 566.112 -0.949982 1.2575 0
M  V30 6122 C 567.337 -1.73503 1.13628 0
M  V30 6123 C 567.762 -1.85601 -0.30559 0
M  V30 6124 O 567.12 -1.33984 -1.22139 0
M  V30 6125 C 567.168 -3.1243 1.80055 0
M  V30 6126 O 566.272 -3.97916 1.08336 0
M  V30 6127 H 565.613 -0.532665 0.396439 0
M  V30 6128 H 568.143 -1.19043 1.66403 0
M  V30 6129 H 568.153 -3.62866 1.86527 0
M  V30 6130 H 566.828 -3.02941 2.84956 0
M  V30 6131 H 565.405 -3.56375 1.09777 0
M  V30 6132 N 567.59 -1.07411 -1.15328 0
M  V30 6133 C 569.001 -0.820261 -1.67716 0
M  V30 6134 C 569.352 0.654539 -1.8496 0
M  V30 6135 O 568.477 1.50664 -1.55337 0
M  V30 6136 C 569.072 -1.48242 -3.04647 0
M  V30 6137 C 567.631 -1.27606 -3.5411 0
M  V30 6138 C 566.778 -1.5517 -2.29821 0
M  V30 6139 H 569.729 -1.23608 -0.995332 0
M  V30 6140 H 569.75 -0.903984 -3.69606 0
M  V30 6141 H 569.262 -2.55578 -2.92064 0
M  V30 6142 H 567.363 -0.222948 -3.71932 0
M  V30 6143 H 567.476 -1.99667 -4.35511 0
M  V30 6144 H 565.84 -0.972747 -2.35393 0
M  V30 6145 H 566.623 -2.63689 -2.19824 0
M  V30 6146 N 569.068 1.32177 -0.85831 0
M  V30 6147 C 569.998 2.31282 -0.321041 0
M  V30 6148 C 570.979 1.59841 0.581786 0
M  V30 6149 O 572.164 1.87619 0.501262 0
M  V30 6150 C 569.294 3.4385 0.48832 0
M  V30 6151 C 568.248 4.26799 -0.320391 0
M  V30 6152 C 567.574 5.31164 0.613934 0
M  V30 6153 C 568.874 4.98829 -1.54813 0
M  V30 6154 H 570.568 2.76469 -1.14915 0
M  V30 6155 H 568.114 1.32916 -0.554028 0
M  V30 6156 H 570.067 4.12224 0.874626 0
M  V30 6157 H 568.791 2.97401 1.34983 0
M  V30 6158 H 567.45 3.60077 -0.688497 0
M  V30 6159 H 567.098 4.80967 1.47239 0
M  V30 6160 H 566.798 5.8755 0.0768097 0
M  V30 6161 H 568.322 6.024 0.997336 0
M  V30 6162 H 569.736 5.59864 -1.23392 0
M  V30 6163 H 568.133 5.64957 -2.02346 0
M  V30 6164 H 569.203 4.26483 -2.30739 0
M  V30 6165 N 570.547 0.616602 1.45037 0
M  V30 6166 C 571.457 -0.0985401 2.34393 0
M  V30 6167 C 572.473 -0.850971 1.51771 0
M  V30 6168 O 573.649 -0.806521 1.84546 0
M  V30 6169 C 570.714 -1.07748 3.29532 0
M  V30 6170 C 569.775 -0.326022 4.2806 0
M  V30 6171 C 569.008 -1.25833 5.18654 0
M  V30 6172 O 569.231 -2.49652 5.12864 0
M  V30 6173 O 568.165 -0.750512 5.97203 0
M  V30 6174 H 571.991 0.636016 2.96966 0
M  V30 6175 H 569.576 0.376832 1.44569 0
M  V30 6176 H 571.458 -1.64107 3.88133 0
M  V30 6177 H 570.133 -1.79291 2.69512 0
M  V30 6178 H 569.04 0.280253 3.73049 0
M  V30 6179 H 570.373 0.349091 4.9096 0
M  V30 6180 N 572.025 -1.5352 0.356285 0
M  V30 6181 C 572.935 -2.29151 -0.502712 0
M  V30 6182 C 573.951 -1.34753 -1.1008 0
M  V30 6183 O 575.127 -1.67803 -1.11374 0
M  V30 6184 C 572.192 -3.05911 -1.63154 0
M  V30 6185 C 571.253 -4.15958 -1.06194 0
M  V30 6186 C 570.486 -4.8905 -2.13696 0
M  V30 6187 O 570.709 -4.61919 -3.34645 0
M  V30 6188 O 569.643 -5.75202 -1.77275 0
M  V30 6189 H 573.469 -3.03492 0.112466 0
M  V30 6190 H 571.054 -1.4891 0.120942 0
M  V30 6191 H 572.936 -3.53874 -2.28804 0
M  V30 6192 H 571.611 -2.34415 -2.23229 0
M  V30 6193 H 570.518 -3.7227 -0.369603 0
M  V30 6194 H 571.851 -4.89593 -0.505872 0
M  V30 6195 N 573.503 -0.0852151 -1.57369 0
M  V30 6196 C 574.749 0.581666 -1.94279 0
M  V30 6197 C 575.082 1.68444 -0.966446 0
M  V30 6198 O 574.357 1.945 0.00215277 0
M  V30 6199 C 574.64 1.14609 -3.41375 0
M  V30 6200 C 574.493 0.0490414 -4.49773 0
M  V30 6201 C 575.812 2.04751 -3.8957 0
M  V30 6202 H 572.931 0.209972 -0.706456 0
M  V30 6203 H 575.573 -0.153915 -1.89376 0
M  V30 6204 H 573.723 1.77297 -3.45685 0
M  V30 6205 H 575.395 -0.584721 -4.57579 0
M  V30 6206 H 573.638 -0.618638 -4.29366 0
M  V30 6207 H 574.309 0.484601 -5.49869 0
M  V30 6208 H 576.785 1.51981 -3.87351 0
M  V30 6209 H 575.661 2.41173 -4.93079 0
M  V30 6210 H 575.922 2.96107 -3.28288 0
M  V30 6211 N 574.981 1.5647 0.188427 0
M  V30 6212 C 576.227 1.81281 0.909124 0
M  V30 6213 C 576.56 0.66034 1.82628 0
M  V30 6214 O 575.835 -0.338737 1.91528 0
M  V30 6215 C 576.118 3.16388 1.7196 0
M  V30 6216 C 575.971 4.42137 0.826714 0
M  V30 6217 C 577.29 3.48256 2.69083 0
M  V30 6218 H 574.409 0.659457 0.329068 0
M  V30 6219 H 577.051 1.89182 0.176156 0
M  V30 6220 H 575.201 3.09784 2.34448 0
M  V30 6221 H 576.873 4.60794 0.216025 0
M  V30 6222 H 575.116 4.33594 0.133792 0
M  V30 6223 H 575.787 5.33184 1.42893 0
M  V30 6224 H 578.263 3.55203 2.16726 0
M  V30 6225 H 577.139 4.43899 3.2287 0
M  V30 6226 H 577.4 2.72088 3.48455 0
M  V30 6227 N 576.459 -0.456382 1.50847 0
M  V30 6228 C 577.705 -1.20914 1.62811 0
M  V30 6229 C 578.038 -1.91301 0.334304 0
M  V30 6230 O 577.313 -1.82775 -0.665098 0
M  V30 6231 C 577.596 -2.24122 2.81853 0
M  V30 6232 C 577.449 -1.57944 4.21158 0
M  V30 6233 C 578.768 -3.25295 2.96431 0
M  V30 6234 H 575.887 -0.438233 0.592554 0
M  V30 6235 H 578.529 -0.50091 1.83278 0
M  V30 6236 H 576.679 -2.84524 2.64534 0
M  V30 6237 H 578.351 -1.01025 4.50102 0
M  V30 6238 H 576.594 -0.882185 4.24735 0
M  V30 6239 H 577.265 -2.33014 5.00408 0
M  V30 6240 H 579.741 -2.7493 3.12335 0
M  V30 6241 H 578.617 -3.94822 3.81322 0
M  V30 6242 H 578.878 -3.90286 2.07676 0
M  V30 6243 N 577.937 -1.40673 -0.710563 0
M  V30 6244 C 579.165 -1.42547 -1.4996 0
M  V30 6245 C 579.58 -0.0265485 -1.88781 0
M  V30 6246 O 578.937 0.950694 -1.55782 0
M  V30 6247 C 578.988 -2.32071 -2.77173 0
M  V30 6248 O 578.709 -3.66518 -2.39992 0
M  V30 6249 C 580.21 -2.42591 -3.71032 0
M  V30 6250 H 577.43 -0.486025 -0.462623 0
M  V30 6251 H 579.974 -1.84783 -0.876102 0
M  V30 6252 H 578.129 -1.93184 -3.35795 0
M  V30 6253 H 578.543 -4.14115 -3.21884 0
M  V30 6254 H 580.017 -3.09429 -4.57119 0
M  V30 6255 H 580.494 -1.4525 -4.14486 0
M  V30 6256 H 581.1 -2.82051 -3.18319 0
M  V30 6257 N 579.415 0.9433 -1.26252 0
M  V30 6258 C 580.692 1.66639 -1.02424 0
M  V30 6259 C 581.072 2.06335 0.446006 0
M  V30 6260 O 580.42 1.78551 1.42589 0
M  V30 6261 C 580.63 2.88019 -1.97094 0
M  V30 6262 C 581.978 3.59718 -2.25584 0
M  V30 6263 O 583.002 2.9812 -1.94943 0
M  V30 6264 O 581.861 4.7066 -2.77743 0
M  V30 6265 H 578.955 0.729643 -0.389294 0
M  V30 6266 H 581.501 0.995218 -1.37454 0
M  V30 6267 H 580.273 2.5556 -2.96319 0
M  V30 6268 H 579.896 3.62863 -1.62532 0
M  V30 6269 N 580.893 1.08022 1.14757 0
M  V30 6270 C 582.121 0.828847 1.89572 0
M  V30 6271 C 582.536 -0.618621 1.78377 0
M  V30 6272 O 581.893 -1.42482 1.1404 0
M  V30 6273 C 581.944 1.23677 3.39685 0
M  V30 6274 O 581.665 2.62746 3.50566 0
M  V30 6275 C 583.166 1.01569 4.31507 0
M  V30 6276 H 580.386 0.299196 0.600602 0
M  V30 6277 H 582.93 1.43846 1.45357 0
M  V30 6278 H 581.085 0.671347 3.81539 0
M  V30 6279 H 581.499 2.79573 4.43778 0
M  V30 6280 H 582.973 1.35055 5.35223 0
M  V30 6281 H 583.45 -0.0475433 4.39174 0
M  V30 6282 H 584.056 1.56636 3.95405 0
M  V30 6283 N 582.371 -1.3172 0.865308 0
M  V30 6284 C 583.617 -1.97168 0.474633 0
M  V30 6285 C 583.95 -1.68263 -0.969604 0
M  V30 6286 O 583.225 -0.976588 -1.68205 0
M  V30 6287 C 583.508 -3.52689 0.726808 0
M  V30 6288 C 583.361 -3.91185 2.22024 0
M  V30 6289 C 584.68 -4.39689 0.190201 0
M  V30 6290 H 581.799 -0.716185 0.17392 0
M  V30 6291 H 584.441 -1.55925 1.08569 0
M  V30 6292 H 582.591 -3.8795 0.206705 0
M  V30 6293 H 584.263 -3.66049 2.80724 0
M  V30 6294 H 582.506 -3.3996 2.69462 0
M  V30 6295 H 583.177 -4.99604 2.34735 0
M  V30 6296 H 585.653 -4.11225 0.635103 0
M  V30 6297 H 584.529 -5.47469 0.396132 0
M  V30 6298 H 584.79 -4.32683 -0.907625 0
M  V30 6299 N 583.85 -0.624285 -1.44708 0
M  V30 6300 C 584.797 0.0847135 -2.30644 0
M  V30 6301 C 585.767 0.843575 -1.43084 0
M  V30 6302 O 586.952 0.825982 -1.71995 0
M  V30 6303 C 584.091 1.06495 -3.28257 0
M  V30 6304 C 583.205 0.305224 -4.3092 0
M  V30 6305 C 582.34 1.27667 -5.1563 0
M  V30 6306 C 581.379 0.505706 -6.10007 0
M  V30 6307 N 580.516 1.42727 -6.8744 0
M  V30 6308 H 585.356 -0.654068 -2.90733 0
M  V30 6309 H 582.893 -0.334334 -1.4325 0
M  V30 6310 H 584.851 1.64658 -3.83332 0
M  V30 6311 H 583.481 1.77094 -2.69884 0
M  V30 6312 H 582.533 -0.392207 -3.78373 0
M  V30 6313 H 583.845 -0.295553 -4.97924 0
M  V30 6314 H 582.999 1.92984 -5.75189 0
M  V30 6315 H 581.738 1.91137 -4.48685 0
M  V30 6316 H 580.743 -0.160999 -5.49564 0
M  V30 6317 H 581.968 -0.124183 -6.78986 0
M  V30 6318 H 579.913 2.04931 -6.23169 0
M  V30 6319 H 579.831 0.880345 -7.50857 0
M  V30 6320 H 581.099 2.0695 -7.51526 0
M  V30 6321 N 585.328 1.53329 -0.364422 0
M  V30 6322 C 586.553 2.06132 0.229033 0
M  V30 6323 C 586.978 1.23625 1.41769 0
M  V30 6324 O 586.336 0.255038 1.79497 0
M  V30 6325 C 586.384 3.55544 0.60174 0
M  V30 6326 O 585.488 3.75771 1.69912 0
M  V30 6327 H 584.829 0.663148 0.0336213 0
M  V30 6328 H 587.359 1.97758 -0.524689 0
M  V30 6329 H 587.369 3.98549 0.873073 0
M  V30 6330 H 586.044 4.15039 -0.267421 0
M  V30 6331 H 584.621 3.44663 1.42343 0
M  V30 6332 N 586.806 0.0935595 1.57322 0
M  V30 6333 C 587.754 -0.883457 2.15169 0
M  V30 6334 C 588.748 -1.29324 1.09415 0
M  V30 6335 O 589.954 -1.26795 1.27762 0
M  V30 6336 H 586.329 -0.302923 0.688289 0
M  V30 6337 H 588.3 -0.370845 2.96087 0
M  V30 6338 C 587.049 -2.13345 2.74552 0
M  V30 6339 H 586.372 -1.82702 3.55612 0
M  V30 6340 H 587.812 -2.7977 3.18598 0
M  V30 6341 C 586.271 -2.90646 1.70371 0
M  V30 6342 O 586.801 -3.85133 1.14173 0
M  V30 6343 N 585.007 -2.54157 1.40899 0
M  V30 6344 H 584.554 -1.77391 1.86789 0
M  V30 6345 H 584.512 -3.06178 0.714301 0
M  V30 6346 N 588.284 -1.56567 -0.180126 0
M  V30 6347 C 589.231 -1.95725 -1.22313 0
M  V30 6348 C 590.201 -0.819911 -1.44453 0
M  V30 6349 O 591.386 -1.07931 -1.57339 0
M  V30 6350 C 588.526 -2.31484 -2.55947 0
M  V30 6351 C 587.639 -3.58354 -2.4126 0
M  V30 6352 C 586.774 -3.83366 -3.67701 0
M  V30 6353 C 585.813 -5.03612 -3.47909 0
M  V30 6354 N 584.95 -5.24802 -4.66398 0
M  V30 6355 H 589.79 -2.84642 -0.882198 0
M  V30 6356 H 587.327 -1.4085 -0.42422 0
M  V30 6357 H 589.285 -2.50237 -3.33822 0
M  V30 6358 H 587.915 -1.45689 -2.88053 0
M  V30 6359 H 586.967 -3.47565 -1.54606 0
M  V30 6360 H 588.279 -4.46386 -2.22577 0
M  V30 6361 H 587.433 -4.02439 -4.54013 0
M  V30 6362 H 586.172 -2.93692 -3.89353 0
M  V30 6363 H 585.177 -4.84447 -2.59983 0
M  V30 6364 H 586.402 -5.94809 -3.27688 0
M  V30 6365 H 584.348 -4.38079 -4.88286 0
M  V30 6366 H 584.265 -6.07041 -4.50596 0
M  V30 6367 H 585.533 -5.48346 -5.54019 0
M  V30 6368 N 589.762 0.448376 -1.51087 0
M  V30 6369 C 590.71 1.56407 -1.72161 0
M  V30 6370 C 591.704 1.58878 -0.587721 0
M  V30 6371 O 592.91 1.62755 -0.768822 0
M  V30 6372 H 589.285 0.519423 -0.543786 0
M  V30 6373 H 591.256 1.35803 -2.65707 0
M  V30 6374 C 590.005 2.94163 -1.85373 0
M  V30 6375 H 589.328 2.9299 -2.72024 0
M  V30 6376 H 590.768 3.71625 -2.04135 0
M  V30 6377 C 589.227 3.31317 -0.610803 0
M  V30 6378 O 589.757 4.00985 0.239636 0
M  V30 6379 N 587.963 2.86966 -0.458127 0
M  V30 6380 H 587.51 2.30443 -1.15124 0
M  V30 6381 H 587.468 3.12188 0.372289 0
M  V30 6382 N 591.24 1.41047 0.703093 0
M  V30 6383 C 592.489 1.39301 1.4587 0
M  V30 6384 C 592.802 0.00267077 1.956 0
M  V30 6385 O 594.008 -0.137414 2.71152 0
M  V30 6386 C 592.464 2.44891 2.63735 0
M  V30 6387 C 592.072 3.89796 2.20824 0
M  V30 6388 C 593.816 2.5227 3.41409 0
M  V30 6389 C 591.723 4.86955 3.35602 0
M  V30 6390 H 590.653 0.518005 0.547893 0
M  V30 6391 H 593.304 1.66839 0.764009 0
M  V30 6392 H 591.686 2.10472 3.35436 0
M  V30 6393 H 592.86 4.33424 1.56461 0
M  V30 6394 H 591.175 3.86008 1.56163 0
M  V30 6395 H 593.772 3.22044 4.26839 0
M  V30 6396 H 594.115 1.55714 3.86081 0
M  V30 6397 H 594.648 2.85742 2.7676 0
M  V30 6398 H 591.387 5.84888 2.9595 0
M  V30 6399 H 590.907 4.47982 3.98839 0
M  V30 6400 H 592.586 5.07361 4.01489 0
M  V30 6401 N 592.718 -0.936591 1.26751 0
M  V30 6402 C 593.995 -1.66094 1.03306 0
M  V30 6403 C 594.375 -2.06568 -0.435058 0
M  V30 6404 O 593.723 -1.79305 -1.41641 0
M  V30 6405 C 593.933 -2.86969 1.98619 0
M  V30 6406 C 595.281 -3.58516 2.27489 0
M  V30 6407 O 596.305 -2.97082 1.96522 0
M  V30 6408 O 595.164 -4.69181 2.80235 0
M  V30 6409 H 592.258 -0.727568 0.393158 0
M  V30 6410 H 594.804 -0.987914 1.3798 0
M  V30 6411 H 593.576 -2.53985 2.9767 0
M  V30 6412 H 593.199 -3.61996 1.64454 0
M  V30 6413 N 594.196 -1.08629 -1.14182 0
M  V30 6414 C 595.421 -0.83902 -1.89671 0
M  V30 6415 C 595.846 0.603332 -1.78161 0
M  V30 6416 O 595.204 1.42301 -1.12339 0
M  V30 6417 C 595.252 -1.26854 -3.37551 0
M  V30 6418 O 594.356 -0.42188 -4.10236 0
M  V30 6419 H 593.697 -0.304545 -0.590041 0
M  V30 6420 H 596.227 -1.4483 -1.44518 0
M  V30 6421 H 596.237 -1.25038 -3.88368 0
M  V30 6422 H 594.912 -2.31901 -3.45246 0
M  V30 6423 H 593.489 -0.503654 -3.69483 0
M  V30 6424 N 595.674 1.31259 -0.872281 0
M  V30 6425 C 596.914 1.98418 -0.490894 0
M  V30 6426 C 597.278 1.67429 0.939755 0
M  V30 6427 O 598.479 2.27818 1.42661 0
M  V30 6428 C 596.75 3.49583 -0.743408 0
M  V30 6429 S 598.309 4.36359 -0.462226 0
M  V30 6430 H 595.127 0.687005 -0.183151 0
M  V30 6431 H 597.729 1.59619 -1.12881 0
M  V30 6432 H 596.433 3.69627 -1.78338 0
M  V30 6433 H 595.964 3.93291 -0.0925758 0
M  V30 6434 H 597.979 4.91173 0.704525 0
M  V30 6435 N 597.152 0.631951 1.44375 0
M  V30 6436 C 598.099 -0.0724807 2.30686 0
M  V30 6437 C 599.069 -0.835975 1.43529 0
M  V30 6438 O 600.254 -0.816849 1.7243 0
M  V30 6439 C 597.394 -1.04753 3.28817 0
M  V30 6440 C 596.507 -0.282367 4.31076 0
M  V30 6441 C 595.642 -1.2493 5.163 0
M  V30 6442 C 594.681 -0.473349 6.10267 0
M  V30 6443 N 593.818 -1.39079 6.88187 0
M  V30 6444 H 598.658 0.669477 2.90383 0
M  V30 6445 H 596.195 0.341927 1.43071 0
M  V30 6446 H 598.153 -1.62623 3.842 0
M  V30 6447 H 596.783 -1.75661 2.70819 0
M  V30 6448 H 595.835 0.412268 3.78159 0
M  V30 6449 H 597.147 0.321955 4.9776 0
M  V30 6450 H 596.301 -1.89931 5.76204 0
M  V30 6451 H 595.04 -1.88755 4.49692 0
M  V30 6452 H 594.045 0.190142 5.49471 0
M  V30 6453 H 595.27 0.16019 6.78911 0
M  V30 6454 H 593.216 -2.01623 6.24247 0
M  V30 6455 H 593.133 -0.840513 7.51313 0
M  V30 6456 H 594.401 -2.02961 7.52613 0
M  V30 6457 N 598.631 -1.53133 0.372548 0
M  V30 6458 C 599.578 -2.25951 -0.470631 0
M  V30 6459 C 600.548 -1.26895 -1.07176 0
M  V30 6460 O 601.733 -1.55691 -1.10294 0
M  V30 6461 C 598.873 -3.05726 -1.6008 0
M  V30 6462 C 597.986 -4.19684 -1.02416 0
M  V30 6463 C 597.121 -4.86888 -2.124 0
M  V30 6464 C 596.16 -5.92866 -1.52238 0
M  V30 6465 N 595.297 -6.53732 -2.56084 0
M  V30 6466 H 600.137 -2.97587 0.156816 0
M  V30 6467 H 597.674 -1.4683 0.0891571 0
M  V30 6468 H 599.632 -3.50258 -2.26661 0
M  V30 6469 H 598.262 -2.36331 -2.1988 0
M  V30 6470 H 597.314 -3.79588 -0.248426 0
M  V30 6471 H 598.626 -4.95821 -0.544366 0
M  V30 6472 H 597.78 -5.34638 -2.86787 0
M  V30 6473 H 596.519 -4.10239 -2.63734 0
M  V30 6474 H 595.524 -5.4447 -0.763685 0
M  V30 6475 H 596.749 -6.71439 -1.0172 0
M  V30 6476 H 594.695 -5.79932 -3.06618 0
M  V30 6477 H 594.612 -7.25429 -2.12811 0
M  V30 6478 H 595.88 -7.0613 -3.30152 0
M  V30 6479 N 600.109 -0.101901 -1.5727 0
M  V30 6480 C 601.358 0.559922 -1.93772 0
M  V30 6481 C 601.671 1.68913 -0.98629 0
M  V30 6482 O 602.877 2.41256 -1.24529 0
M  V30 6483 C 601.333 1.04739 -3.44322 0
M  V30 6484 C 600.941 -0.05243 -4.47969 0
M  V30 6485 C 602.685 1.68157 -3.89774 0
M  V30 6486 C 600.592 0.450781 -5.8968 0
M  V30 6487 H 599.522 0.212931 -0.723309 0
M  V30 6488 H 602.173 -0.179001 -1.82625 0
M  V30 6489 H 600.555 1.84021 -3.50645 0
M  V30 6490 H 601.729 -0.828157 -4.53297 0
M  V30 6491 H 600.044 -0.592202 -4.12167 0
M  V30 6492 H 602.641 2.0689 -4.93052 0
M  V30 6493 H 602.984 2.55338 -3.28798 0
M  V30 6494 H 603.517 0.954453 -3.8618 0
M  V30 6495 H 600.256 -0.38458 -6.54371 0
M  V30 6496 H 599.776 1.19336 -5.87809 0
M  V30 6497 H 601.455 0.917555 -6.40461 0
M  V30 6498 N 601.587 1.56661 0.17182 0
M  V30 6499 C 602.815 1.861 0.904115 0
M  V30 6500 C 603.23 0.687227 1.75848 0
M  V30 6501 O 602.587 -0.343671 1.79235 0
M  V30 6502 C 602.638 3.14568 1.78127 0
M  V30 6503 O 602.359 4.27422 0.961366 0
M  V30 6504 C 603.86 3.5735 2.62327 0
M  V30 6505 H 601.08 0.617445 0.262684 0
M  V30 6506 H 603.624 2.03775 0.172068 0
M  V30 6507 H 601.779 2.98721 2.46666 0
M  V30 6508 H 602.193 5.00725 1.56123 0
M  V30 6509 H 603.667 4.50144 3.1949 0
M  V30 6510 H 604.144 2.81445 3.37173 0
M  V30 6511 H 604.75 3.75807 1.99121 0
M  V30 6512 N 603.065 -0.440357 1.51323 0
M  V30 6513 C 604.012 -1.53429 1.72419 0
M  V30 6514 C 604.982 -1.56165 0.565826 0
M  V30 6515 O 606.167 -1.73222 0.799917 0
M  V30 6516 C 603.307 -2.91169 1.85242 0
M  V30 6517 C 602.42 -2.97985 3.12777 0
M  V30 6518 C 601.555 -4.26829 3.16212 0
M  V30 6519 C 600.594 -4.27501 4.38074 0
M  V30 6520 N 599.731 -5.47866 4.39076 0
M  V30 6521 H 604.571 -1.34743 2.65797 0
M  V30 6522 H 602.108 -0.654608 1.31732 0
M  V30 6523 H 604.066 -3.71087 1.90658 0
M  V30 6524 H 602.696 -3.0842 0.952744 0
M  V30 6525 H 601.748 -2.10749 3.16685 0
M  V30 6526 H 603.06 -2.94342 4.02696 0
M  V30 6527 H 602.214 -5.15118 3.20527 0
M  V30 6528 H 600.953 -4.33124 2.24176 0
M  V30 6529 H 599.958 -3.37606 4.33938 0
M  V30 6530 H 601.183 -4.22873 5.31371 0
M  V30 6531 H 599.129 -5.54887 3.49909 0
M  V30 6532 H 599.046 -5.46091 5.22801 0
M  V30 6533 H 600.314 -6.38195 4.4758 0
M  V30 6534 N 604.543 -1.41418 -0.695603 0
M  V30 6535 C 605.473 -1.46035 -1.82197 0
M  V30 6536 C 606.454 -0.319025 -1.67082 0
M  V30 6537 O 607.639 -0.530462 -1.86815 0
M  V30 6538 C 604.769 -1.34179 -3.20333 0
M  V30 6539 C 603.723 -2.46123 -3.50154 0
M  V30 6540 C 603.049 -2.19332 -4.87645 0
M  V30 6541 C 604.349 -3.88463 -3.49133 0
M  V30 6542 H 606.043 -2.40303 -1.78591 0
M  V30 6543 H 603.589 -1.15663 -0.857797 0
M  V30 6544 H 605.542 -1.36021 -3.98844 0
M  V30 6545 H 604.266 -0.363952 -3.24566 0
M  V30 6546 H 602.925 -2.43563 -2.73994 0
M  V30 6547 H 602.573 -1.19891 -4.88503 0
M  V30 6548 H 602.273 -2.94344 -5.08562 0
M  V30 6549 H 603.797 -2.22889 -5.68465 0
M  V30 6550 H 605.211 -3.92738 -4.17648 0
M  V30 6551 H 603.608 -4.63158 -3.81582 0
M  V30 6552 H 604.678 -4.16617 -2.48109 0
M  V30 6553 N 606.021 0.929856 -1.27246 0
M  V30 6554 C 607.246 1.71674 -1.16374 0
M  V30 6555 C 607.671 1.86064 0.276024 0
M  V30 6556 O 607.029 1.3591 1.19992 0
M  V30 6557 C 607.077 3.09526 -1.85003 0
M  V30 6558 O 606.181 3.96142 -1.14653 0
M  V30 6559 H 605.522 0.52629 -0.404863 0
M  V30 6560 H 608.052 1.16381 -1.68276 0
M  V30 6561 H 608.062 3.59852 -1.92276 0
M  V30 6562 H 606.737 2.98369 -2.89739 0
M  V30 6563 H 605.314 3.54584 -1.15433 0
M  V30 6564 N 607.499 1.09233 1.13605 0
M  V30 6565 C 608.745 0.828385 1.8511 0
M  V30 6566 C 609.078 -0.64437 1.83198 0
M  V30 6567 O 608.353 -1.47428 1.26867 0
M  V30 6568 C 608.636 1.36167 3.33363 0
M  V30 6569 C 608.489 2.90038 3.438 0
M  V30 6570 C 609.808 0.993819 4.28732 0
M  V30 6571 H 606.927 0.30239 0.672108 0
M  V30 6572 H 609.569 1.35339 1.33355 0
M  V30 6573 H 607.719 0.9151 3.77569 0
M  V30 6574 H 609.391 3.43128 3.08319 0
M  V30 6575 H 607.634 3.27271 2.84739 0
M  V30 6576 H 608.305 3.22428 4.48045 0
M  V30 6577 H 610.781 1.37893 3.92587 0
M  V30 6578 H 609.657 1.39403 5.30903 0
M  V30 6579 H 609.918 -0.0982206 4.41991 0
M  V30 6580 N 608.977 -1.30795 0.87923 0
M  V30 6581 C 610.202 -2.01063 0.508769 0
M  V30 6582 C 610.627 -1.65508 -0.893803 0
M  V30 6583 O 609.985 -0.868616 -1.59138 0
M  V30 6584 C 610.033 -3.54054 0.683991 0
M  V30 6585 O 609.137 -4.11498 -0.272654 0
M  V30 6586 H 608.478 -0.632786 0.201191 0
M  V30 6587 H 611.008 -1.66776 1.18519 0
M  V30 6588 H 611.018 -4.03845 0.580798 0
M  V30 6589 H 609.693 -3.79271 1.70665 0
M  V30 6590 H 608.27 -3.72695 -0.12364 0
M  V30 6591 N 610.455 -0.639598 -1.44038 0
M  V30 6592 C 611.701 -0.147698 -2.02261 0
M  V30 6593 C 612.034 1.23031 -1.50256 0
M  V30 6594 O 611.309 1.81847 -0.690068 0
M  V30 6595 C 611.592 -0.14362 -3.59813 0
M  V30 6596 C 611.445 -1.55458 -4.22082 0
M  V30 6597 C 612.764 0.527317 -4.36929 0
M  V30 6598 H 609.883 -0.0551453 -0.734934 0
M  V30 6599 H 612.525 -0.817688 -1.71505 0
M  V30 6600 H 610.675 0.426898 -3.86147 0
M  V30 6601 H 612.347 -2.17464 -4.06826 0
M  V30 6602 H 610.59 -2.10594 -3.79253 0
M  V30 6603 H 611.261 -1.50369 -5.31124 0
M  V30 6604 H 613.737 0.0420504 -4.16079 0
M  V30 6605 H 612.613 0.499389 -5.46624 0
M  V30 6606 H 612.874 1.59914 -4.12165 0
M  V30 6607 N 611.933 1.52934 -0.380664 0
M  V30 6608 C 612.863 2.29118 0.450268 0
M  V30 6609 C 613.844 1.32153 1.07096 0
M  V30 6610 O 615.029 1.61038 1.08537 0
M  V30 6611 C 612.159 3.09161 1.58231 0
M  V30 6612 C 611.113 4.13938 1.0881 0
M  V30 6613 C 610.439 4.82153 2.31155 0
M  V30 6614 C 611.739 5.22048 0.162146 0
M  V30 6615 H 613.433 2.98826 -0.185361 0
M  V30 6616 H 610.979 1.43715 -0.0905886 0
M  V30 6617 H 612.932 3.61211 2.17036 0
M  V30 6618 H 611.656 2.3717 2.2454 0
M  V30 6619 H 610.315 3.62855 0.522633 0
M  V30 6620 H 609.963 4.06719 2.95953 0
M  V30 6621 H 609.663 5.52966 1.98752 0
M  V30 6622 H 611.187 5.37004 2.90618 0
M  V30 6623 H 612.601 5.6951 0.658126 0
M  V30 6624 H 610.998 6.00057 -0.0717122 0
M  V30 6625 H 612.068 4.78398 -0.791438 0
M  V30 6626 N 613.412 0.11024 1.57214 0
M  V30 6627 C 614.658 -0.550684 1.9518 0
M  V30 6628 C 614.991 -1.66885 0.993122 0
M  V30 6629 O 614.266 -1.94479 0.0287907 0
M  V30 6630 C 614.549 -1.09163 3.43155 0
M  V30 6631 C 614.402 0.0225198 4.49794 0
M  V30 6632 C 615.721 -1.98527 3.92778 0
M  V30 6633 H 612.84 -0.198706 0.709708 0
M  V30 6634 H 615.482 0.184024 1.89107 0
M  V30 6635 H 613.632 -1.71775 3.48462 0
M  V30 6636 H 615.304 0.657443 4.56591 0
M  V30 6637 H 613.547 0.686868 4.28328 0
M  V30 6638 H 614.218 -0.39706 5.5057 0
M  V30 6639 H 616.694 -1.458 3.8972 0
M  V30 6640 H 615.57 -2.33298 4.96853 0
M  V30 6641 H 615.831 -2.90846 3.32958 0
M  V30 6642 N 614.89 -1.56749 -0.16351 0
M  V30 6643 C 615.853 -1.96121 -1.18613 0
M  V30 6644 C 616.853 -0.845765 -1.36761 0
M  V30 6645 O 618.043 -1.11268 -1.34033 0
M  V30 6646 C 615.175 -2.26282 -2.54969 0
M  V30 6647 H 616.368 -2.87639 -0.848764 0
M  V30 6648 H 613.921 -1.50928 -0.406251 0
M  V30 6649 H 614.656 -1.37504 -2.93706 0
M  V30 6650 H 614.441 -3.07595 -2.43162 0
M  V30 6651 H 615.931 -2.57638 -3.28653 0
M  V30 6652 N 616.368 0.432326 -1.51554 0
M  V30 6653 C 617.645 1.19288 -1.55015 0
M  V30 6654 C 618.025 2.08701 -0.317375 0
M  V30 6655 O 617.373 2.17602 0.697243 0
M  V30 6656 C 617.583 1.99037 -2.86679 0
M  V30 6657 C 618.931 2.55907 -3.38817 0
M  V30 6658 O 619.955 2.09243 -2.88263 0
M  V30 6659 O 618.814 3.41029 -4.27038 0
M  V30 6660 H 615.908 0.543369 -0.623441 0
M  V30 6661 H 618.454 0.440988 -1.6387 0
M  V30 6662 H 617.226 1.33397 -3.6786 0
M  V30 6663 H 616.849 2.81281 -2.8101 0
M  V30 6664 N 617.846 1.41785 0.688094 0
M  V30 6665 C 618.809 1.43936 1.78368 0
M  V30 6666 C 619.809 0.328866 1.57401 0
M  V30 6667 O 620.999 0.589093 1.63937 0
M  V30 6668 C 618.131 1.25804 3.16838 0
M  V30 6669 H 619.324 2.41472 1.77852 0
M  V30 6670 H 616.877 1.28037 0.896448 0
M  V30 6671 H 617.612 0.291386 3.22988 0
M  V30 6672 H 617.397 2.06272 3.33458 0
M  V30 6673 H 618.887 1.30162 3.96797 0
M  V30 6674 N 619.324 -0.923095 1.27737 0
M  V30 6675 C 620.573 -1.66581 1.13727 0
M  V30 6676 C 620.886 -1.9304 -0.315433 0
M  V30 6677 O 622.092 -2.65309 -0.57651 0
M  V30 6678 C 620.548 -3.00047 1.98745 0
M  V30 6679 C 620.156 -2.8127 3.48699 0
M  V30 6680 C 621.9 -3.77887 1.93395 0
M  V30 6681 C 619.807 -4.1032 4.25901 0
M  V30 6682 H 618.737 -0.624834 0.422017 0
M  V30 6683 H 621.388 -1.02514 1.52194 0
M  V30 6684 H 619.77 -3.65197 1.53125 0
M  V30 6685 H 620.944 -2.24859 4.02213 0
M  V30 6686 H 619.259 -2.16854 3.55476 0
M  V30 6687 H 621.856 -4.73526 2.48348 0
M  V30 6688 H 622.199 -4.06264 0.908605 0
M  V30 6689 H 622.732 -3.19541 2.36935 0
M  V30 6690 H 619.471 -3.8712 5.28978 0
M  V30 6691 H 618.991 -4.66377 3.77163 0
M  V30 6692 H 620.67 -4.78648 4.35321 0
M  V30 6693 N 620.802 -1.09834 -1.13024 0
M  V30 6694 C 622.218 -0.828875 -1.36388 0
M  V30 6695 C 622.418 0.554756 -1.93713 0
M  V30 6696 O 621.474 1.30882 -2.15931 0
M  V30 6697 C 622.787 -1.92352 -2.3113 0
M  V30 6698 C 624.335 -1.95124 -2.44735 0
M  V30 6699 C 624.81 -3.03745 -3.42787 0
M  V30 6700 N 626.301 -3.03012 -3.5034 0
M  V30 6701 C 627.036 -3.83699 -4.26101 0
M  V30 6702 N 626.532 -4.74306 -5.04981 0
M  V30 6703 N 628.325 -3.71942 -4.21445 0
M  V30 6704 H 620.476 -1.99029 -0.74169 0
M  V30 6705 H 622.739 -0.864557 -0.388903 0
M  V30 6706 H 622.445 -2.91906 -1.96172 0
M  V30 6707 H 622.319 -1.80536 -3.3119 0
M  V30 6708 H 624.706 -0.962069 -2.78977 0
M  V30 6709 H 624.787 -2.11018 -1.44586 0
M  V30 6710 H 624.431 -4.02878 -3.09276 0
M  V30 6711 H 624.361 -2.85094 -4.42752 0
M  V30 6712 H 626.852 -2.37352 -2.94062 0
M  V30 6713 H 627.165 -5.32446 -5.60108 0
M  V30 6714 H 625.51 -4.78339 -5.04199 0
M  V30 6715 H 628.701 -3.00513 -3.589 0
M  V30 6716 H 628.874 -4.35062 -4.80235 0
M  V30 6717 N 622.28 1.30327 -0.886154 0
M  V30 6718 C 623.696 1.48676 -0.580323 0
M  V30 6719 C 623.896 1.81189 0.881639 0
M  V30 6720 O 622.952 1.90021 1.66278 0
M  V30 6721 C 624.265 2.60932 -1.49449 0
M  V30 6722 C 625.813 2.74812 -1.49824 0
M  V30 6723 C 626.288 3.90183 -2.39836 0
M  V30 6724 N 627.779 3.97495 -2.37806 0
M  V30 6725 C 628.514 4.86078 -3.04165 0
M  V30 6726 N 628.01 5.79448 -3.79753 0
M  V30 6727 N 629.803 4.79456 -2.93391 0
M  V30 6728 H 621.954 1.07495 -1.8319 0
M  V30 6729 H 624.217 0.532661 -0.784204 0
M  V30 6730 H 623.923 2.43731 -2.5355 0
M  V30 6731 H 623.797 3.57437 -1.20494 0
M  V30 6732 H 626.184 2.91418 -0.464731 0
M  V30 6733 H 626.265 1.78924 -1.82811 0
M  V30 6734 H 625.909 3.74334 -3.43273 0
M  V30 6735 H 625.839 4.85411 -2.04166 0
M  V30 6736 H 628.33 3.30703 -1.82877 0
M  V30 6737 H 628.643 6.43805 -4.27475 0
M  V30 6738 H 626.988 5.79376 -3.8386 0
M  V30 6739 H 630.179 4.05494 -2.33864 0
M  V30 6740 H 630.352 5.48283 -3.45383 0
M  V30 6741 N 623.758 0.647228 1.43697 0
M  V30 6742 C 625.007 0.155552 2.01099 0
M  V30 6743 C 625.32 -1.23569 1.51624 0
M  V30 6744 O 626.526 -1.82226 2.01261 0
M  V30 6745 C 624.982 0.227296 3.59182 0
M  V30 6746 C 624.59 1.62086 4.17651 0
M  V30 6747 C 626.334 -0.207085 4.23995 0
M  V30 6748 C 624.241 1.64685 5.68008 0
M  V30 6749 H 623.171 0.0543895 0.752036 0
M  V30 6750 H 625.822 0.808386 1.64734 0
M  V30 6751 H 624.204 -0.492937 3.9292 0
M  V30 6752 H 625.378 2.36597 3.95422 0
M  V30 6753 H 623.693 2.0007 3.65186 0
M  V30 6754 H 626.29 -0.207426 5.34298 0
M  V30 6755 H 626.633 -1.23742 3.97484 0
M  V30 6756 H 627.166 0.461193 3.95118 0
M  V30 6757 H 623.905 2.65608 5.99277 0
M  V30 6758 H 623.425 0.944914 5.9231 0
M  V30 6759 H 625.104 1.38792 6.31938 0
M  V30 6760 N 625.236 -1.5273 0.388769 0
M  V30 6761 C 626.186 -2.23238 -0.463567 0
M  V30 6762 C 627.17 -1.23606 -1.03007 0
M  V30 6763 O 628.362 -1.48945 -0.956261 0
M  V30 6764 C 625.491 -3.04228 -1.5906 0
M  V30 6765 C 624.577 -4.11255 -1.03587 0
M  V30 6766 N 624.968 -5.0538 -0.206038 0
M  V30 6767 C 623.266 -4.26376 -1.30841 0
M  V30 6768 C 623.967 -5.81613 0.100359 0
M  V30 6769 N 622.943 -5.41264 -0.503447 0
M  V30 6770 H 626.745 -2.93367 0.176978 0
M  V30 6771 H 624.259 -1.61188 0.198046 0
M  V30 6772 H 626.256 -3.53277 -2.21362 0
M  V30 6773 H 624.916 -2.35634 -2.23398 0
M  V30 6774 H 625.927 -5.17663 0.156659 0
M  V30 6775 H 622.604 -3.69011 -1.95287 0
M  V30 6776 H 623.994 -6.67442 0.772676 0
M  V30 6777 N 626.714 -0.118576 -1.57153 0
M  V30 6778 C 627.646 0.862247 -2.12363 0
M  V30 6779 C 628.659 1.23025 -1.06625 0
M  V30 6780 O 629.848 1.17927 -1.33998 0
M  V30 6781 C 626.948 2.16425 -2.60794 0
M  V30 6782 C 626.121 1.96801 -3.90626 0
M  V30 6783 C 625.18 3.10726 -4.2466 0
M  V30 6784 O 624.206 2.83659 -4.93484 0
M  V30 6785 N 625.408 4.37147 -3.81946 0
M  V30 6786 H 628.173 0.390564 -2.97144 0
M  V30 6787 H 625.734 0.0658591 -1.61766 0
M  V30 6788 H 627.726 2.91633 -2.80593 0
M  V30 6789 H 626.296 2.54943 -1.80895 0
M  V30 6790 H 625.516 1.05787 -3.7974 0
M  V30 6791 H 626.804 1.80993 -4.7552 0
M  V30 6792 H 626.202 4.62014 -3.26435 0
M  V30 6793 H 624.759 5.09229 -4.06853 0
M  V30 6794 N 628.193 1.56834 0.155195 0
M  V30 6795 C 629.14 1.97646 1.19184 0
M  V30 6796 C 630.11 0.842788 1.4313 0
M  V30 6797 O 631.295 1.1042 1.55602 0
M  V30 6798 C 628.435 2.35527 2.52232 0
M  V30 6799 C 627.548 3.62147 2.35529 0
M  V30 6800 C 626.683 3.89167 3.61555 0
M  V30 6801 C 625.722 5.09084 3.39853 0
M  V30 6802 N 624.859 5.32156 4.5799 0
M  V30 6803 H 629.699 2.8601 0.836802 0
M  V30 6804 H 627.236 1.41507 0.401758 0
M  V30 6805 H 629.194 2.55516 3.29799 0
M  V30 6806 H 627.824 1.50253 2.85699 0
M  V30 6807 H 626.876 3.4998 1.49057 0
M  V30 6808 H 628.188 4.49871 2.15448 0
M  V30 6809 H 627.342 4.09611 4.47553 0
M  V30 6810 H 626.081 2.9985 3.84632 0
M  V30 6811 H 625.086 4.88522 2.52243 0
M  V30 6812 H 626.311 5.99947 3.18183 0
M  V30 6813 H 624.257 4.45791 4.81255 0
M  V30 6814 H 624.174 6.14133 4.40882 0
M  V30 6815 H 625.442 5.57091 5.45225 0
M  V30 6816 N 629.671 -0.424282 1.51781 0
M  V30 6817 C 630.581 -1.54087 1.76902 0
M  V30 6818 C 631.597 -1.61249 0.653826 0
M  V30 6819 O 632.773 -1.78247 0.937552 0
M  V30 6820 C 629.838 -2.8996 1.90063 0
M  V30 6821 C 628.899 -2.92809 3.13945 0
M  V30 6822 C 628.132 -4.22201 3.26469 0
M  V30 6823 O 628.355 -5.15286 2.44616 0
M  V30 6824 O 627.289 -4.31599 4.1953 0
M  V30 6825 H 631.115 -1.358 2.71647 0
M  V30 6826 H 628.7 -0.608618 1.36441 0
M  V30 6827 H 630.582 -3.70575 2.0063 0
M  V30 6828 H 629.257 -3.08347 0.985067 0
M  V30 6829 H 628.164 -2.11102 3.08847 0
M  V30 6830 H 629.497 -2.79369 4.05233 0
M  V30 6831 N 631.149 -1.42148 -0.680565 0
M  V30 6832 C 632.374 -1.45901 -1.47403 0
M  V30 6833 C 632.799 -0.0700985 -1.87969 0
M  V30 6834 O 632.157 0.930145 -1.55621 0
M  V30 6835 C 632.205 -2.38661 -2.70321 0
M  V30 6836 O 631.309 -1.85399 -3.68376 0
M  V30 6837 H 630.65 -0.494565 -0.443059 0
M  V30 6838 H 633.18 -1.86774 -0.835251 0
M  V30 6839 H 633.19 -2.55046 -3.18458 0
M  V30 6840 H 631.865 -3.39571 -2.40134 0
M  V30 6841 H 630.442 -1.78541 -3.2738 0
M  V30 6842 N 632.627 0.916307 -1.28225 0
M  V30 6843 C 633.557 2.0352 -1.14464 0
M  V30 6844 C 634.538 1.70045 -0.0430844 0
M  V30 6845 O 635.723 1.92954 -0.219619 0
M  V30 6846 C 632.853 3.37889 -0.803027 0
M  V30 6847 C 631.807 3.85516 -1.85908 0
M  V30 6848 C 631.133 5.1682 -1.37116 0
M  V30 6849 C 632.433 4.07655 -3.26519 0
M  V30 6850 H 634.127 2.1529 -2.08064 0
M  V30 6851 H 631.673 1.03446 -1.00174 0
M  V30 6852 H 633.626 4.15654 -0.693537 0
M  V30 6853 H 632.35 3.26164 0.168674 0
M  V30 6854 H 631.009 3.09953 -1.95767 0
M  V30 6855 H 630.657 5.01497 -0.38859 0
M  V30 6856 H 630.357 5.49657 -2.07728 0
M  V30 6857 H 631.881 5.97143 -1.27484 0
M  V30 6858 H 633.295 4.75953 -3.19596 0
M  V30 6859 H 631.692 4.51818 -3.94943 0
M  V30 6860 H 632.762 3.12553 -3.70727 0
M  V30 6861 N 634.105 1.10431 1.1244 0
M  V30 6862 C 635.053 0.747974 2.20246 0
M  V30 6863 C 636.047 -0.255848 1.67457 0
M  V30 6864 O 637.253 -0.116221 1.79624 0
M  V30 6865 H 633.628 0.223946 0.71788 0
M  V30 6866 H 635.599 1.6661 2.47556 0
M  V30 6867 C 634.348 0.195957 3.47147 0
M  V30 6868 H 633.671 0.959606 3.88113 0
M  V30 6869 H 635.111 -0.0153154 4.23997 0
M  V30 6870 C 633.57 -1.07132 3.19413 0
M  V30 6871 O 634.1 -2.15284 3.3914 0
M  V30 6872 N 632.306 -0.98994 2.73219 0
M  V30 6873 H 631.853 -0.109736 2.57366 0
M  V30 6874 H 631.811 -1.83856 2.55038 0
M  V30 6875 N 635.583 -1.29855 0.893053 0
M  V30 6876 C 636.86 -1.90694 0.435336 0
M  V30 6877 C 637.24 -1.8111 -1.08454 0
M  V30 6878 O 636.588 -1.23352 -1.92345 0
M  V30 6879 C 636.798 -3.36033 0.942472 0
M  V30 6880 C 638.146 -4.13083 0.982226 0
M  V30 6881 O 639.17 -3.4491 0.889686 0
M  V30 6882 O 638.029 -5.34896 1.12022 0
M  V30 6883 H 635.123 -0.815978 0.134567 0
M  V30 6884 H 637.669 -1.38367 0.982484 0
M  V30 6885 H 636.441 -3.37132 1.9864 0
M  V30 6886 H 636.064 -3.95828 0.374952 0
M  V30 6887 N 637.061 -0.65484 -1.43351 0
M  V30 6888 C 637.991 0.0221809 -2.33489 0
M  V30 6889 C 638.972 0.810272 -1.49561 0
M  V30 6890 O 640.157 0.771426 -1.78221 0
M  V30 6891 C 637.287 0.988117 -3.32947 0
M  V30 6892 C 636.241 0.310026 -4.26876 0
M  V30 6893 C 635.567 1.38752 -5.16384 0
M  V30 6894 C 636.867 -0.798589 -5.16159 0
M  V30 6895 H 638.561 -0.730571 -2.9035 0
M  V30 6896 H 636.107 -0.352773 -1.39612 0
M  V30 6897 H 638.06 1.47067 -3.94904 0
M  V30 6898 H 636.784 1.77205 -2.74346 0
M  V30 6899 H 635.443 -0.152097 -3.66284 0
M  V30 6900 H 635.091 2.16293 -4.54121 0
M  V30 6901 H 634.791 0.939051 -5.80048 0
M  V30 6902 H 636.315 1.87141 -5.81215 0
M  V30 6903 H 637.729 -0.398126 -5.71916 0
M  V30 6904 H 636.126 -1.17163 -5.88552 0
M  V30 6905 H 637.196 -1.65588 -4.55751 0
M  V30 6906 N 638.539 1.52521 -0.396863 0
M  V30 6907 C 639.786 2.01672 0.182898 0
M  V30 6908 C 640.114 1.28302 1.46181 0
M  V30 6909 O 639.369 0.374118 1.92091 0
M  V30 6910 C 639.668 3.5403 0.489677 0
M  V30 6911 C 639.334 4.45456 -0.698581 0
M  V30 6912 C 637.996 4.70166 -1.02454 0
M  V30 6913 C 640.348 4.99354 -1.49316 0
M  V30 6914 C 637.676 5.46024 -2.1465 0
M  V30 6915 C 640.028 5.76439 -2.60579 0
M  V30 6916 C 638.692 5.99426 -2.93675 0
M  V30 6917 H 637.962 0.737971 0.066927 0
M  V30 6918 H 640.609 1.83853 -0.535764 0
M  V30 6919 H 638.914 3.69963 1.28976 0
M  V30 6920 H 640.611 3.8956 0.951018 0
M  V30 6921 H 637.201 4.26392 -0.434525 0
M  V30 6922 H 641.385 4.80182 -1.25457 0
M  V30 6923 H 636.641 5.62046 -2.40654 0
M  V30 6924 H 640.815 6.17202 -3.22544 0
M  V30 6925 H 638.442 6.57988 -3.80731 0
M  V30 6926 N 640.017 0.126909 1.57088 0
M  V30 6927 C 640.965 -0.837618 2.16995 0
M  V30 6928 C 641.959 -1.26974 1.12133 0
M  V30 6929 O 643.165 -1.24056 1.30423 0
M  V30 6930 H 639.54 -0.288256 0.694559 0
M  V30 6931 H 641.511 -0.307957 2.96807 0
M  V30 6932 C 640.26 -2.07474 2.79016 0
M  V30 6933 H 639.583 -1.75117 3.59408 0
M  V30 6934 H 641.023 -2.72949 3.24461 0
M  V30 6935 C 639.482 -2.86967 1.76498 0
M  V30 6936 O 640.012 -3.82625 1.22316 0
M  V30 6937 N 638.218 -2.51111 1.46258 0
M  V30 6938 H 637.765 -1.73389 1.90509 0
M  V30 6939 H 637.723 -3.04594 0.779085 0
M  V30 6940 N 641.495 -1.56914 -0.146875 0
M  V30 6941 C 642.744 -1.82546 -0.857898 0
M  V30 6942 C 643.057 -0.708169 -1.8233 0
M  V30 6943 O 644.263 -0.850093 -2.57848 0
M  V30 6944 C 642.719 -3.23548 -1.57623 0
M  V30 6945 C 642.327 -4.43212 -0.653224 0
M  V30 6946 C 644.071 -3.58453 -2.27402 0
M  V30 6947 C 641.978 -5.75237 -1.37318 0
M  V30 6948 H 640.908 -0.680786 -0.32411 0
M  V30 6949 H 643.559 -1.83166 -0.110639 0
M  V30 6950 H 641.941 -3.17315 -2.36912 0
M  V30 6951 H 643.115 -4.60682 0.104452 0
M  V30 6952 H 641.43 -4.16351 -0.0638336 0
M  V30 6953 H 644.027 -4.54349 -2.81907 0
M  V30 6954 H 644.37 -2.84516 -3.03901 0
M  V30 6955 H 644.903 -3.66347 -1.55032 0
M  V30 6956 H 641.642 -6.52269 -0.650041 0
M  V30 6957 H 641.162 -5.61703 -2.10357 0
M  V30 6958 H 642.841 -6.18039 -1.91406 0
M  V30 6959 N 642.974 0.416227 -1.52004 0
M  V30 6960 C 643.921 1.50666 -1.74838 0
M  V30 6961 C 644.891 1.55245 -0.590599 0
M  V30 6962 O 646.076 1.71928 -0.827374 0
M  V30 6963 C 643.216 2.88185 -1.89851 0
M  V30 6964 C 642.329 2.92971 -3.17478 0
M  V30 6965 C 641.464 4.21745 -3.22962 0
M  V30 6966 C 640.503 4.20478 -4.4482 0
M  V30 6967 N 639.64 5.40811 -4.47736 0
M  V30 6968 H 644.48 1.30498 -2.67907 0
M  V30 6969 H 642.017 0.633568 -1.32757 0
M  V30 6970 H 643.975 3.68007 -1.96537 0
M  V30 6971 H 642.605 3.06865 -1.00169 0
M  V30 6972 H 641.657 2.05684 -3.19997 0
M  V30 6973 H 642.969 2.87899 -4.07328 0
M  V30 6974 H 642.123 5.09954 -3.28682 0
M  V30 6975 H 640.862 4.29503 -2.31038 0
M  V30 6976 H 639.867 3.30659 -4.39254 0
M  V30 6977 H 641.092 4.14366 -5.38031 0
M  V30 6978 H 639.038 5.4925 -3.58692 0
M  V30 6979 H 638.955 5.37705 -5.31422 0
M  V30 6980 H 640.223 6.30993 -4.57676 0
M  V30 6981 N 644.452 1.42507 0.673017 0
M  V30 6982 C 645.677 1.4668 1.46627 0
M  V30 6983 C 646.102 0.080066 1.8793 0
M  V30 6984 O 645.46 -0.921879 1.56112 0
M  V30 6985 C 645.508 2.40091 2.69051 0
M  V30 6986 O 644.612 1.8735 3.67387 0
M  V30 6987 H 643.953 0.496908 0.44043 0
M  V30 6988 H 646.483 1.87215 0.825334 0
M  V30 6989 H 646.493 2.56731 3.17101 0
M  V30 6990 H 645.168 3.4084 2.3833 0
M  V30 6991 H 643.745 1.80274 3.26429 0
M  V30 6992 O 645.969 -0.81563 1.39391 0
M  V30 6993 H 646.66 -1.4596 1.2734 0
M  V30 END ATOM
M  V30 BEGIN BOND
M  V30 END BOND
M  V30 END CTAB
M  END
$$$$
