drugbank_target|Q8IEM3 60S ribosomal protein L24, putative (DB11638)
 OpenBabel12092121113D

  0  0  0     0  0            999 V3000
M  V30 BEGIN CTAB
M  V30 COUNTS 2808 2827 0 0 0
M  V30 BEGIN ATOM
M  V30 1 H -0.908 1.98254 -0.117106 0
M  V30 2 N 0 1.576 0 0
M  V30 3 C 0.933 2.03868 1.02534 0
M  V30 4 C 1.911 0.928543 1.3348 0
M  V30 5 O 3.095 1.19667 1.45644 0
M  V30 6 C 0.222 2.43627 2.35294 0
M  V30 7 C -0.732 3.65373 2.2001 0
M  V30 8 S 0.101 5.13292 1.52614 0
M  V30 9 C 1.257 5.56322 2.86805 0
M  V30 10 H 1.49 2.90518 0.631377 0
M  V30 11 H -0.977 1.52953 0.210867 0
M  V30 12 H 0.981 2.67203 3.11629 0
M  V30 13 H -0.358 1.57376 2.7183 0
M  V30 14 H -1.165 3.90944 3.18086 0
M  V30 15 H -1.563 3.418 1.51819 0
M  V30 16 H 0.729 5.58782 3.83104 0
M  V30 17 H 1.672 6.56266 2.65933 0
M  V30 18 H 2.08 4.83886 2.90714 0
M  V30 19 N 1.4781 -0.272755 1.55222 0
M  V30 20 C 2.7031 -1.02683 1.80197 0
M  V30 21 C 3.1281 -1.79142 0.573551 0
M  V30 22 O 2.4861 -1.74917 -0.476849 0
M  V30 23 C 2.5341 -1.9609 3.02624 0
M  V30 24 O 1.6381 -3.04863 2.77727 0
M  V30 25 H 0.9791 -0.293557 0.595584 0
M  V30 26 H 3.5091 -0.30159 2.02365 0
M  V30 27 H 3.5191 -2.38039 3.31363 0
M  V30 28 H 2.1941 -1.39851 3.91682 0
M  V30 29 H 0.7711 -2.67228 2.60084 0
M  V30 30 N 2.9562 -1.48159 -0.537278 0
M  V30 31 C 3.8882 -1.58218 -1.65831 0
M  V30 32 C 4.9012 -0.466948 -1.5596 0
M  V30 33 O 6.0902 -0.73747 -1.62553 0
M  V30 34 C 3.1902 -1.48906 -3.04434 0
M  V30 35 C 2.3632 -2.75343 -3.3986 0
M  V30 36 C 1.4222 -2.59588 -4.57712 0
M  V30 37 O 0.4482 -3.33457 -4.61297 0
M  V30 38 N 1.6502 -1.68724 -5.55439 0
M  V30 39 H 4.4152 -2.54891 -1.57641 0
M  V30 40 H 1.9762 -1.4479 -0.724386 0
M  V30 41 H 3.9682 -1.36072 -3.81139 0
M  V30 42 H 2.5382 -0.602368 -3.06741 0
M  V30 43 H 1.7582 -3.02795 -2.52406 0
M  V30 44 H 3.0462 -3.5924 -3.60311 0
M  V30 45 H 2.4442 -1.07898 -5.55315 0
M  V30 46 H 1.0012 -1.61832 -6.3139 0
M  V30 47 N 4.4343 0.785586 -1.36625 0
M  V30 48 C 5.6833 1.53883 -1.30396 0
M  V30 49 C 5.9963 1.95271 0.113452 0
M  V30 50 O 7.2023 2.69858 0.298142 0
M  V30 51 C 5.6583 2.77808 -2.28802 0
M  V30 52 C 5.2663 2.43574 -3.75999 0
M  V30 53 C 7.0103 3.55783 -2.31558 0
M  V30 54 C 4.9173 3.63919 -4.66173 0
M  V30 55 H 3.8473 0.577678 -0.484566 0
M  V30 56 H 6.4983 0.861705 -1.62009 0
M  V30 57 H 4.8803 3.47339 -1.90188 0
M  V30 58 H 6.0543 1.81916 -4.23371 0
M  V30 59 H 4.3693 1.78803 -3.76056 0
M  V30 60 H 6.9663 4.45205 -2.96137 0
M  V30 61 H 7.3093 3.94644 -1.3252 0
M  V30 62 H 7.8423 2.93235 -2.68809 0
M  V30 63 H 4.5813 3.3015 -5.66287 0
M  V30 64 H 4.1013 4.2473 -4.23515 0
M  V30 65 H 5.7803 4.30901 -4.82632 0
M  V30 66 N 5.9124 1.20967 1.01018 0
M  V30 67 C 6.8594 0.964281 2.09691 0
M  V30 68 C 7.8294 -0.107853 1.65749 0
M  V30 69 O 9.0144 0.0381987 1.90762 0
M  V30 70 C 6.1544 0.52943 3.41015 0
M  V30 71 C 5.2674 1.67043 3.98398 0
M  V30 72 C 4.4024 1.18525 5.17808 0
M  V30 73 C 3.4414 2.29892 5.67288 0
M  V30 74 N 2.5784 1.82546 6.77954 0
M  V30 75 H 7.4184 1.89463 2.30017 0
M  V30 76 H 4.9554 0.944289 1.1279 0
M  V30 77 H 6.9134 0.258588 4.16398 0
M  V30 78 H 5.5434 -0.363919 3.20742 0
M  V30 79 H 4.5954 2.05603 3.20049 0
M  V30 80 H 5.9074 2.50877 4.31117 0
M  V30 81 H 5.0614 0.870762 6.00419 0
M  V30 82 H 3.8004 0.316887 4.86669 0
M  V30 83 H 2.8054 2.6215 4.83278 0
M  V30 84 H 4.0304 3.17216 6.00459 0
M  V30 85 H 1.9764 0.980454 6.48632 0
M  V30 86 H 1.8934 2.59956 7.09901 0
M  V30 87 H 3.1614 1.54115 7.64113 0
M  V30 88 N 7.3905 -1.2043 1.01659 0
M  V30 89 C 8.6185 -1.93777 0.725132 0
M  V30 90 C 9.0335 -1.74772 -0.714166 0
M  V30 91 O 8.3905 -1.06169 -1.4844 0
M  V30 92 C 8.4415 -3.45876 1.05129 0
M  V30 93 O 8.1625 -3.6426 2.43406 0
M  V30 94 C 9.6635 -4.36368 0.780891 0
M  V30 95 H 6.8835 -0.615901 0.266284 0
M  V30 96 H 9.4275 -1.52922 1.35776 0
M  V30 97 H 7.5825 -3.8461 0.464065 0
M  V30 98 H 7.9965 -4.58246 2.55169 0
M  V30 99 H 9.4705 -5.41743 1.05918 0
M  V30 100 H 9.9475 -4.38275 -0.284937 0
M  V30 101 H 10.5535 -4.03296 1.35027 0
M  V30 102 N 8.8686 -0.792821 -1.36206 0
M  V30 103 C 10.0966 -0.378825 -2.03402 0
M  V30 104 C 10.5116 1.00586 -1.59774 0
M  V30 105 O 9.8686 1.64574 -0.788764 0
M  V30 106 C 9.9196 -0.43683 -3.58851 0
M  V30 107 O 9.6406 -1.76691 -4.00889 0
M  V30 108 C 11.1416 -0.0138943 -4.43298 0
M  V30 109 H 8.3616 -0.155673 -0.652692 0
M  V30 110 H 10.9056 -1.07261 -1.74113 0
M  V30 111 H 9.0606 0.208575 -3.86838 0
M  V30 112 H 9.4746 -1.72011 -4.95492 0
M  V30 113 H 10.9486 -0.105615 -5.51899 0
M  V30 114 H 11.4256 1.03915 -4.2673 0
M  V30 115 H 12.0316 -0.63192 -4.20579 0
M  V30 116 N 10.3467 1.47872 -0.545128 0
M  V30 117 C 11.5927 2.02793 -0.0166104 0
M  V30 118 C 11.9257 1.41987 1.32489 0
M  V30 119 O 11.2007 0.571045 1.85928 0
M  V30 120 C 11.4837 3.59989 0.0893294 0
M  V30 121 C 11.3367 4.3125 -1.27841 0
M  V30 122 C 12.6557 4.32606 0.808724 0
M  V30 123 H 9.7747 0.736962 -0.00751035 0
M  V30 124 H 12.4167 1.76433 -0.705085 0
M  V30 125 H 10.5667 3.82579 0.675681 0
M  V30 126 H 12.2387 4.20035 -1.90704 0
M  V30 127 H 10.4817 3.92076 -1.85632 0
M  V30 128 H 11.1527 5.39736 -1.15713 0
M  V30 129 H 13.6287 4.14936 0.310992 0
M  V30 130 H 12.5047 5.42251 0.851782 0
M  V30 131 H 12.7657 4.00963 1.86229 0
M  V30 132 N 11.8248 0.280983 1.55075 0
M  V30 133 C 12.7718 -0.603937 2.22758 0
M  V30 134 C 13.7418 -1.1452 1.20309 0
M  V30 135 O 14.9268 -1.19343 1.48869 0
M  V30 136 C 12.0668 -1.77947 2.95684 0
M  V30 137 C 11.1798 -1.2715 4.12864 0
M  V30 138 C 10.3148 -2.4093 4.7342 0
M  V30 139 C 9.3538 -1.87165 5.82783 0
M  V30 140 N 8.4908 -2.94441 6.37377 0
M  V30 141 H 13.3308 -0.020124 2.97993 0
M  V30 142 H 10.8678 0.00183425 1.471 0
M  V30 143 H 12.8258 -2.47055 3.36184 0
M  V30 144 H 11.4558 -2.33522 2.22861 0
M  V30 145 H 10.5078 -0.473331 3.77444 0
M  V30 146 H 11.8198 -0.837751 4.91715 0
M  V30 147 H 10.9738 -3.18021 5.1667 0
M  V30 148 H 9.7128 -2.87623 3.93859 0
M  V30 149 H 8.7178 -1.08556 5.38976 0
M  V30 150 H 9.9428 -1.41401 6.64216 0
M  V30 151 H 7.8888 -3.40505 5.60707 0
M  V30 152 H 7.8058 -2.55501 7.11516 0
M  V30 153 H 9.0738 -3.71489 6.85285 0
M  V30 154 N 13.3029 -1.57598 0.00835791 0
M  V30 155 C 14.5309 -1.95214 -0.68549 0
M  V30 156 C 14.9459 -0.883706 -1.66841 0
M  V30 157 O 14.3029 0.136565 -1.81988 0
M  V30 158 C 14.3539 -3.32865 -1.41007 0
M  V30 159 O 14.0749 -4.35609 -0.466552 0
M  V30 160 C 15.5759 -3.84991 -2.19765 0
M  V30 161 H 12.7959 -0.643422 -0.190392 0
M  V30 162 H 15.3399 -2.04406 0.0619607 0
M  V30 163 H 13.4949 -3.24956 -2.10908 0
M  V30 164 H 13.9089 -5.15288 -0.978699 0
M  V30 165 H 15.3829 -4.8371 -2.65948 0
M  V30 166 H 15.8599 -3.18137 -3.02796 0
M  V30 167 H 16.4659 -3.96103 -1.54864 0
M  V30 168 N 14.781 0.264519 -1.55364 0
M  V30 169 C 15.691 1.34902 -1.91934 0
M  V30 170 C 16.707 1.53595 -0.817593 0
M  V30 171 O 17.883 1.67558 -1.11742 0
M  V30 172 C 14.948 2.68676 -2.19121 0
M  V30 173 C 14.009 2.58657 -3.4263 0
M  V30 174 C 13.242 3.86051 -3.68511 0
M  V30 175 O 13.465 4.87126 -2.96757 0
M  V30 176 O 12.399 3.85744 -4.62045 0
M  V30 177 H 16.225 1.06883 -2.8427 0
M  V30 178 H 13.81 0.463775 -1.42019 0
M  V30 179 H 15.692 3.47759 -2.37995 0
M  V30 180 H 14.367 2.96463 -1.29966 0
M  V30 181 H 13.274 1.7792 -3.29082 0
M  V30 182 H 14.607 2.35818 -4.32031 0
M  V30 183 N 16.2591 1.48442 0.529413 0
M  V30 184 C 17.2221 1.62524 1.61612 0
M  V30 185 C 18.2221 0.498509 1.52877 0
M  V30 186 O 19.4121 0.76431 1.56537 0
M  V30 187 C 16.5441 1.59597 3.01233 0
M  V30 188 H 17.7371 2.59423 1.50465 0
M  V30 189 H 15.2901 1.37047 0.751514 0
M  V30 190 H 16.0251 0.641781 3.17886 0
M  V30 191 H 15.8101 2.41397 3.08982 0
M  V30 192 H 17.3001 1.72646 3.80241 0
M  V30 193 N 17.7372 -0.778329 1.37039 0
M  V30 194 C 18.9772 -1.54973 1.33276 0
M  V30 195 C 19.3412 -1.91816 -0.0839376 0
M  V30 196 O 20.5422 -2.6767 -0.246228 0
M  V30 197 C 18.8132 -2.78517 2.23971 0
M  V30 198 S 20.3722 -3.6865 2.37997 0
M  V30 199 H 17.1902 -0.530639 0.473226 0
M  V30 200 H 19.7922 -0.915806 1.72723 0
M  V30 201 H 18.4962 -2.4952 3.25835 0
M  V30 202 H 18.0272 -3.46875 1.85584 0
M  V30 203 H 20.0422 -4.70182 1.58567 0
M  V30 204 N 19.2153 -1.21501 -1.00376 0
M  V30 205 C 20.4403 -1.05977 -1.78279 0
M  V30 206 C 20.8653 0.385994 -1.84097 0
M  V30 207 O 20.2233 1.27849 -1.28547 0
M  V30 208 C 20.2713 -1.66302 -3.19963 0
M  V30 209 O 19.3753 -0.909333 -4.0225 0
M  V30 210 H 18.7163 -0.372906 -0.549397 0
M  V30 211 H 21.2463 -1.6107 -1.26165 0
M  V30 212 H 21.2563 -1.70574 -3.70632 0
M  V30 213 H 19.9313 -2.71515 -3.15043 0
M  V30 214 H 18.5083 -0.941795 -3.60811 0
M  V30 215 N 20.6934 1.19889 -1.02296 0
M  V30 216 C 21.9404 1.8942 -0.715972 0
M  V30 217 C 22.2684 1.79251 0.754944 0
M  V30 218 O 21.5234 1.17526 1.56481 0
M  V30 219 C 21.8224 3.39883 -1.10518 0
M  V30 220 C 21.4884 3.70254 -2.57337 0
M  V30 221 C 20.1504 3.78254 -2.97452 0
M  V30 222 C 22.5024 3.84052 -3.52354 0
M  V30 223 C 19.8304 3.97514 -4.31509 0
M  V30 224 C 22.1824 4.04824 -4.86108 0
M  V30 225 C 20.8464 4.11054 -5.25919 0
M  V30 226 H 20.1164 0.693138 -0.261993 0
M  V30 227 H 22.7634 1.42012 -1.28472 0
M  V30 228 H 21.0684 3.8915 -0.454953 0
M  V30 229 H 22.7654 3.9199 -0.845261 0
M  V30 230 H 19.3554 3.64632 -2.25258 0
M  V30 231 H 23.5394 3.77221 -3.22518 0
M  V30 232 H 18.7954 4.00574 -4.61898 0
M  V30 233 H 22.9694 4.14442 -5.59653 0
M  V30 234 H 20.5964 4.2573 -6.29808 0
M  V30 235 N 22.1715 0.800033 1.35784 0
M  V30 236 C 23.3965 0.388511 2.03729 0
M  V30 237 C 23.8215 -0.990481 1.5991 0
M  V30 238 O 23.1795 -1.64013 0.772612 0
M  V30 239 C 23.2275 0.4726 3.5749 0
M  V30 240 O 22.3315 -0.51646 4.09153 0
M  V30 241 H 21.6725 0.163271 0.643614 0
M  V30 242 H 24.2025 1.0841 1.73518 0
M  V30 243 H 24.2125 0.34003 4.06581 0
M  V30 244 H 22.8875 1.47848 3.88734 0
M  V30 245 H 21.4645 -0.344673 3.71304 0
M  V30 246 N 23.6496 -1.47581 0.552962 0
M  V30 247 C 24.5596 -2.33743 -0.200353 0
M  V30 248 C 25.5756 -1.47928 -0.916151 0
M  V30 249 O 26.7516 -1.80865 -0.885993 0
M  V30 250 C 23.8166 -3.24536 -1.21973 0
M  V30 251 C 22.8776 -4.26238 -0.511819 0
M  V30 252 C 22.1106 -5.12693 -1.48263 0
M  V30 253 O 22.3336 -5.01525 -2.71714 0
M  V30 254 O 21.2676 -5.93375 -1.00945 0
M  V30 255 H 25.0936 -2.9945 0.506304 0
M  V30 256 H 22.6786 -1.46071 0.313622 0
M  V30 257 H 24.5606 -3.80631 -1.80827 0
M  V30 258 H 23.2356 -2.61462 -1.90839 0
M  V30 259 H 22.1426 -3.73914 0.117799 0
M  V30 260 H 23.4756 -4.92014 0.135308 0
M  V30 261 N 25.1277 -0.289203 -1.54924 0
M  V30 262 C 26.3577 0.325989 -2.04012 0
M  V30 263 C 26.7657 1.48961 -1.1665 0
M  V30 264 O 26.1087 1.82794 -0.1822 0
M  V30 265 C 26.1707 0.856112 -3.49158 0
M  V30 266 C 25.8347 -0.180697 -4.56643 0
M  V30 267 C 26.8317 -1.0051 -5.10092 0
M  V30 268 C 24.5167 -0.318998 -5.01286 0
M  V30 269 C 26.5107 -1.95385 -6.06715 0
M  V30 270 C 24.1977 -1.27121 -5.97732 0
M  V30 271 C 25.1957 -2.08713 -6.50329 0
M  V30 272 O 24.8837 -3.02322 -7.44887 0
M  V30 273 H 24.6157 0.0765276 -0.671654 0
M  V30 274 H 27.1697 -0.423254 -2.00992 0
M  V30 275 H 25.3997 1.65567 -3.49463 0
M  V30 276 H 27.0887 1.38591 -3.81507 0
M  V30 277 H 27.8547 -0.90906 -4.76404 0
M  V30 278 H 23.7337 0.306108 -4.59983 0
M  V30 279 H 27.2777 -2.59111 -6.47694 0
M  V30 280 H 23.1747 -1.36801 -6.30837 0
M  V30 281 H 23.9427 -2.97165 -7.6265 0
M  V30 282 N 26.6058 1.57591 -0.0167156 0
M  V30 283 C 28.0218 1.55946 0.339557 0
M  V30 284 C 28.2218 1.02109 1.73713 0
M  V30 285 O 27.2778 0.662303 2.43659 0
M  V30 286 C 28.5908 3.00037 0.199499 0
M  V30 287 C 30.1388 3.11805 0.273193 0
M  V30 288 C 30.6138 4.57713 0.162068 0
M  V30 289 N 32.1048 4.6268 0.219444 0
M  V30 290 C 32.8398 5.73185 0.157054 0
M  V30 291 N 32.3358 6.92786 0.0442936 0
M  V30 292 N 34.1288 5.61707 0.21014 0
M  V30 293 H 26.2798 1.90921 -0.930758 0
M  V30 294 H 28.5428 0.877674 -0.358319 0
M  V30 295 H 28.2488 3.4333 -0.76273 0
M  V30 296 H 28.1228 3.64387 0.974786 0
M  V30 297 H 30.5098 2.68433 1.22587 0
M  V30 298 H 30.5908 2.50201 -0.532256 0
M  V30 299 H 30.2348 5.01763 -0.78714 0
M  V30 300 H 30.1648 5.17283 0.986222 0
M  V30 301 H 32.6558 3.76649 0.307246 0
M  V30 302 H 32.9688 7.728 0.00304069 0
M  V30 303 H 31.3138 6.94999 0.00968457 0
M  V30 304 H 34.5048 4.6716 0.296546 0
M  V30 305 H 34.6778 6.47807 0.158054 0
M  V30 306 N 28.0839 -0.256276 1.55502 0
M  V30 307 C 29.3329 -0.983486 1.76098 0
M  V30 308 C 29.6459 -1.86837 0.578896 0
M  V30 309 O 30.8519 -2.63163 0.667648 0
M  V30 310 C 29.3079 -1.79868 3.1173 0
M  V30 311 C 28.9159 -0.961648 4.37557 0
M  V30 312 C 30.6599 -2.51919 3.41668 0
M  V30 313 C 28.5669 -1.77219 5.64223 0
M  V30 314 H 27.4969 -0.370936 0.656447 0
M  V30 315 H 30.1479 -0.238492 1.81944 0
M  V30 316 H 28.5299 -2.58527 2.99966 0
M  V30 317 H 29.7039 -0.218048 4.60284 0
M  V30 318 H 28.0189 -0.354913 4.14885 0
M  V30 319 H 30.6159 -3.12998 4.33516 0
M  V30 320 H 30.9589 -3.23059 2.62562 0
M  V30 321 H 31.4919 -1.80278 3.54605 0
M  V30 322 H 28.2309 -1.10471 6.46124 0
M  V30 323 H 27.7509 -2.49132 5.45613 0
M  V30 324 H 29.4299 -2.34169 6.03137 0
M  V30 325 N 29.562 -1.4872 -0.521534 0
M  V30 326 C 30.792 -1.6061 -1.29954 0
M  V30 327 C 31.2 -0.268728 -1.87282 0
M  V30 328 O 30.543 0.753221 -1.67548 0
M  V30 329 C 30.605 -2.60013 -2.48261 0
M  V30 330 C 30.269 -4.04874 -2.11957 0
M  V30 331 C 31.266 -4.92304 -1.67132 0
M  V30 332 C 28.951 -4.5047 -2.22221 0
M  V30 333 C 30.945 -6.2336 -1.33047 0
M  V30 334 C 28.632 -5.81544 -1.87748 0
M  V30 335 C 29.63 -6.67812 -1.43234 0
M  V30 336 O 29.318 -7.96446 -1.09217 0
M  V30 337 H 29.05 -0.544116 -0.401141 0
M  V30 338 H 31.604 -1.95339 -0.634958 0
M  V30 339 H 29.834 -2.20422 -3.17728 0
M  V30 340 H 31.523 -2.61648 -3.10315 0
M  V30 341 H 32.289 -4.58312 -1.58665 0
M  V30 342 H 28.168 -3.83504 -2.55823 0
M  V30 343 H 31.712 -6.90649 -0.982299 0
M  V30 344 H 27.609 -6.15069 -1.95858 0
M  V30 345 H 28.377 -8.09275 -1.22542 0
M  V30 346 N 31.0401 0.771051 -1.3745 0
M  V30 347 C 32.4511 1.34737 -1.29239 0
M  V30 348 C 32.8021 1.96109 0.0596908 0
M  V30 349 O 31.9271 1.93865 0.961534 0
M  V30 350 C 32.5221 2.44973 -2.34037 0
M  V30 351 C 31.0811 2.98372 -2.29458 0
M  V30 352 C 30.2281 1.71595 -2.17831 0
M  V30 353 H 33.1791 0.571256 -1.48062 0
M  V30 354 H 33.2001 3.24471 -1.98744 0
M  V30 355 H 32.7121 2.00276 -3.32432 0
M  V30 356 H 30.8131 3.47443 -1.34589 0
M  V30 357 H 30.9261 3.53939 -3.229 0
M  V30 358 H 29.2901 1.94547 -1.64388 0
M  V30 359 H 30.0731 1.29001 -3.18141 0
M  V30 360 N 32.5182 1.22032 0.997298 0
M  V30 361 C 33.7662 1.04016 1.73278 0
M  V30 362 C 34.0872 -0.426255 1.90284 0
M  V30 363 O 33.3572 -1.30694 1.45931 0
M  V30 364 H 31.9372 0.381897 0.642 0
M  V30 365 H 34.5992 1.5347 1.20137 0
M  V30 366 H 33.6952 1.51441 2.72896 0
M  V30 367 N 33.9963 -1.19345 1.0293 0
M  V30 368 C 35.4123 -1.41069 0.746446 0
M  V30 369 C 35.6123 -1.90078 -0.668776 0
M  V30 370 O 34.6683 -2.0778 -1.4347 0
M  V30 371 C 35.9813 -2.42141 1.78292 0
M  V30 372 C 37.5293 -2.55887 1.80252 0
M  V30 373 C 38.0043 -3.60214 2.8286 0
M  V30 374 N 39.4953 -3.67711 2.81679 0
M  V30 375 C 40.2303 -4.48128 3.57727 0
M  V30 376 N 39.7263 -5.32248 4.43491 0
M  V30 377 N 41.5193 -4.42782 3.46267 0
M  V30 378 H 33.6703 -0.858536 1.94275 0
M  V30 379 H 35.9333 -0.439541 0.839945 0
M  V30 380 H 35.6393 -2.13155 2.79746 0
M  V30 381 H 35.5133 -3.41323 1.60557 0
M  V30 382 H 37.9003 -2.84196 0.794757 0
M  V30 383 H 37.9813 -1.56858 2.02062 0
M  V30 384 H 37.6253 -3.32647 3.83807 0
M  V30 385 H 37.5553 -4.58895 2.58307 0
M  V30 386 H 40.0463 -3.07634 2.19476 0
M  V30 387 H 40.3593 -5.90729 4.98256 0
M  V30 388 H 38.7043 -5.31707 4.47564 0
M  V30 389 H 41.8953 -3.76107 2.78677 0
M  V30 390 H 42.0683 -5.05215 4.05785 0
M  V30 391 N 35.4744 -0.807222 -1.35358 0
M  V30 392 C 36.7224 -0.387122 -1.98358 0
M  V30 393 C 37.0434 1.04942 -1.64354 0
M  V30 394 O 36.3134 1.72615 -0.926339 0
M  V30 395 H 34.8934 -0.140154 -0.733734 0
M  V30 396 H 37.5554 -1.0332 -1.6526 0
M  V30 397 H 36.6514 -0.493352 -3.08176 0
M  V30 398 N 36.9525 1.47285 -0.560781 0
M  V30 399 C 37.8845 2.28118 0.222438 0
M  V30 400 C 38.8975 1.37219 0.876056 0
M  V30 401 O 40.0865 1.62011 0.749307 0
M  V30 402 C 37.1865 3.1159 1.33285 0
M  V30 403 C 36.3595 4.30473 0.77534 0
M  V30 404 C 35.4185 4.95513 1.77069 0
M  V30 405 O 34.4445 5.53792 1.31539 0
M  V30 406 N 35.6465 4.90531 3.10418 0
M  V30 407 H 38.4115 2.95976 -0.470958 0
M  V30 408 H 35.9725 1.56955 -0.39709 0
M  V30 409 H 37.9645 3.51967 1.99752 0
M  V30 410 H 36.5345 2.45951 1.92943 0
M  V30 411 H 35.7545 3.94144 -0.0662113 0
M  V30 412 H 37.0425 5.07362 0.382272 0
M  V30 413 H 36.4405 4.44389 3.5005 0
M  V30 414 H 34.9975 5.34917 3.72434 0
M  V30 415 N 38.4306 0.297415 1.54768 0
M  V30 416 C 39.3776 -0.580276 2.23386 0
M  V30 417 C 40.3476 -1.13238 1.21517 0
M  V30 418 O 41.5326 -1.17757 1.50126 0
M  V30 419 C 38.6726 -1.74801 2.97555 0
M  V30 420 C 37.7856 -1.22764 4.1419 0
M  V30 421 C 36.9206 -2.35895 4.75949 0
M  V30 422 C 35.9596 -1.80974 5.84735 0
M  V30 423 N 35.0966 -2.87664 6.40464 0
M  V30 424 H 39.9366 0.0114833 2.97998 0
M  V30 425 H 37.4736 0.0174361 1.4709 0
M  V30 426 H 39.4316 -2.43475 3.38786 0
M  V30 427 H 38.0616 -2.31145 2.25326 0
M  V30 428 H 37.1136 -0.433271 3.77924 0
M  V30 429 H 38.4256 -0.785551 4.92575 0
M  V30 430 H 37.5796 -3.12523 5.20014 0
M  V30 431 H 36.3186 -2.83429 3.96887 0
M  V30 432 H 35.3236 -1.02834 5.40097 0
M  V30 433 H 36.5486 -1.34348 6.65678 0
M  V30 434 H 34.4946 -3.34538 5.64287 0
M  V30 435 H 34.4116 -2.4794 7.14186 0
M  V30 436 H 35.6796 -3.642 6.89187 0
M  V30 437 N 39.9087 -1.5758 0.0250728 0
M  V30 438 C 41.1387 -1.95646 -0.663783 0
M  V30 439 C 41.5467 -0.899935 -1.66427 0
M  V30 440 O 40.8897 0.127191 -1.83259 0
M  V30 441 C 40.9517 -3.29835 -1.43 0
M  V30 442 C 40.6157 -4.53197 -0.588305 0
M  V30 443 C 41.6127 -5.19726 0.13469 0
M  V30 444 C 39.2977 -4.99529 -0.526897 0
M  V30 445 C 41.2917 -6.30902 0.90781 0
M  V30 446 C 38.9787 -6.10589 0.24993 0
M  V30 447 C 39.9767 -6.76134 0.965994 0
M  V30 448 O 39.6647 -7.85062 1.7301 0
M  V30 449 H 39.3967 -0.649282 -0.188174 0
M  V30 450 H 41.9507 -2.05245 0.0799006 0
M  V30 451 H 40.1807 -3.16716 -2.21873 0
M  V30 452 H 41.8697 -3.52833 -2.00658 0
M  V30 453 H 42.6357 -4.84904 0.0965562 0
M  V30 454 H 38.5147 -4.48319 -1.07381 0
M  V30 455 H 42.0587 -6.81995 1.46724 0
M  V30 456 H 37.9557 -6.44849 0.289795 0
M  V30 457 H 38.7237 -8.01708 1.64944 0
M  V30 458 N 41.3868 0.248026 -1.55636 0
M  V30 459 C 42.6358 0.974134 -1.76617 0
M  V30 460 C 42.9488 1.86528 -0.588796 0
M  V30 461 O 44.1548 2.62805 -0.681594 0
M  V30 462 C 42.6108 1.78213 -3.12679 0
M  V30 463 C 42.2188 0.93843 -4.38061 0
M  V30 464 C 43.9628 2.50104 -3.42999 0
M  V30 465 C 41.8698 1.74225 -5.65155 0
M  V30 466 H 40.7998 0.36745 -0.658405 0
M  V30 467 H 43.4508 0.22884 -1.82067 0
M  V30 468 H 41.8328 2.56933 -3.01333 0
M  V30 469 H 43.0068 0.193635 -4.60393 0
M  V30 470 H 41.3218 0.332905 -4.15067 0
M  V30 471 H 43.9188 3.10694 -4.3517 0
M  V30 472 H 44.2618 3.21662 -2.64271 0
M  V30 473 H 44.7948 1.78395 -3.55556 0
M  V30 474 H 41.5338 1.07043 -6.46701 0
M  V30 475 H 41.0538 2.46235 -5.46926 0
M  V30 476 H 42.7328 2.30967 -6.0437 0
M  V30 477 N 42.8649 1.48995 0.513639 0
M  V30 478 C 43.8279 1.64229 1.59879 0
M  V30 479 C 44.8279 0.514696 1.5234 0
M  V30 480 O 46.0179 0.78087 1.55718 0
M  V30 481 C 43.1499 1.62783 2.99524 0
M  V30 482 H 44.3429 2.61004 1.47705 0
M  V30 483 H 41.8959 1.37837 0.736936 0
M  V30 484 H 42.6309 0.675461 3.17188 0
M  V30 485 H 42.4159 2.4466 3.06404 0
M  V30 486 H 43.9059 1.76669 3.78388 0
M  V30 487 N 44.343 -0.763751 1.37857 0
M  V30 488 C 45.759 -1.06542 1.18832 0
M  V30 489 C 45.959 -2.01478 0.0299722 0
M  V30 490 O 45.015 -2.4458 -0.627447 0
M  V30 491 C 46.328 -1.65525 2.51042 0
M  V30 492 C 47.876 -1.77745 2.57635 0
M  V30 493 C 48.351 -2.4014 3.89996 0
M  V30 494 N 49.842 -2.47582 3.91481 0
M  V30 495 C 50.577 -2.96732 4.9065 0
M  V30 496 N 50.073 -3.45993 6.00217 0
M  V30 497 N 51.866 -2.95679 4.78048 0
M  V30 498 H 44.017 -0.133556 2.1198 0
M  V30 499 H 46.28 -0.121879 0.940133 0
M  V30 500 H 45.986 -1.03236 3.36207 0
M  V30 501 H 45.86 -2.64719 2.68707 0
M  V30 502 H 48.247 -2.39164 1.72872 0
M  V30 503 H 48.328 -0.772836 2.43846 0
M  V30 504 H 47.972 -1.79358 4.75177 0
M  V30 505 H 47.902 -3.41223 4.01092 0
M  V30 506 H 50.393 -2.1273 3.12337 0
M  V30 507 H 50.706 -3.81922 6.7183 0
M  V30 508 H 49.051 -3.44077 6.03851 0
M  V30 509 H 52.242 -2.56499 3.91568 0
M  V30 510 H 52.415 -3.33672 5.55488 0
M  V30 511 N 45.8211 -1.22559 -0.990812 0
M  V30 512 C 47.0981 -0.959875 -1.70428 0
M  V30 513 C 47.4781 0.524455 -2.04481 0
M  V30 514 O 46.8261 1.49302 -1.72977 0
M  V30 515 C 47.0361 -1.85955 -2.95333 0
M  V30 516 C 48.3841 -2.11687 -3.68068 0
M  V30 517 O 49.4081 -1.8342 -3.05345 0
M  V30 518 O 48.2671 -2.59572 -4.80921 0
M  V30 519 H 45.3611 -0.361154 -0.743974 0
M  V30 520 H 47.9071 -1.33554 -1.04697 0
M  V30 521 H 46.6791 -2.86346 -2.66687 0
M  V30 522 H 46.3021 -1.4856 -3.68803 0
M  V30 523 N 47.2992 1.18797 -1.03562 0
M  V30 524 C 48.5472 1.88278 -0.734569 0
M  V30 525 C 48.8682 1.8043 0.739586 0
M  V30 526 O 48.1382 1.21925 1.53333 0
M  V30 527 H 46.7182 0.696991 -0.268725 0
M  V30 528 H 49.3802 1.44192 -1.31129 0
M  V30 529 H 48.4762 2.94443 -1.03489 0
M  V30 530 N 48.7773 0.814389 1.34928 0
M  V30 531 C 49.7243 0.22822 2.29669 0
M  V30 532 C 50.6943 -0.642164 1.53184 0
M  V30 533 O 51.8793 -0.585605 1.81591 0
M  V30 534 C 49.0193 -0.61089 3.3965 0
M  V30 535 C 48.1323 0.280792 4.31086 0
M  V30 536 C 47.2673 -0.567067 5.28165 0
M  V30 537 C 46.3063 0.324531 6.11239 0
M  V30 538 N 45.4433 -0.483756 7.00431 0
M  V30 539 H 50.2833 1.04153 2.79206 0
M  V30 540 H 47.8203 0.525133 1.37407 0
M  V30 541 H 49.7783 -1.11263 4.0209 0
M  V30 542 H 48.4083 -1.38939 2.91369 0
M  V30 543 H 47.4603 0.900688 3.69583 0
M  V30 544 H 48.7723 0.966723 4.89342 0
M  V30 545 H 47.9263 -1.13363 5.96015 0
M  V30 546 H 46.6653 -1.28654 4.70425 0
M  V30 547 H 45.6703 0.903298 5.42329 0
M  V30 548 H 46.8953 1.04198 6.71059 0
M  V30 549 H 44.8413 -1.18706 6.45171 0
M  V30 550 H 44.7583 0.143965 7.55863 0
M  V30 551 H 46.0263 -1.03334 7.7262 0
M  V30 552 N 50.2554 -1.46986 0.568584 0
M  V30 553 C 51.5014 -2.02741 0.0488709 0
M  V30 554 C 51.8344 -1.44077 -1.30214 0
M  V30 555 O 51.1094 -0.600552 -1.84996 0
M  V30 556 C 51.3924 -3.60086 -0.032047 0
M  V30 557 C 51.2454 -4.29162 1.34686 0
M  V30 558 C 52.5644 -4.33838 -0.739798 0
M  V30 559 H 49.6834 -0.736749 0.0192338 0
M  V30 560 H 52.3254 -1.75289 0.733065 0
M  V30 561 H 50.4754 -3.83606 -0.61473 0
M  V30 562 H 52.1474 -4.16948 1.97362 0
M  V30 563 H 50.3904 -3.89073 1.91846 0
M  V30 564 H 51.0614 -5.37826 1.24285 0
M  V30 565 H 53.5374 -4.15378 -0.244939 0
M  V30 566 H 52.4134 -5.43537 -0.765406 0
M  V30 567 H 52.6744 -4.03875 -1.79827 0
M  V30 568 N 51.7335 -0.305618 -1.54608 0
M  V30 569 C 52.9635 0.304333 -2.04346 0
M  V30 570 C 53.3715 1.47715 -1.18224 0
M  V30 571 O 52.7145 1.82591 -0.201577 0
M  V30 572 C 52.7765 0.819031 -3.50046 0
M  V30 573 C 52.4405 -0.22912 -4.56425 0
M  V30 574 C 53.4375 -1.05914 -5.08997 0
M  V30 575 C 51.1225 -0.372148 -5.0092 0
M  V30 576 C 53.1165 -2.01809 -6.04609 0
M  V30 577 C 50.8035 -1.33454 -5.9635 0
M  V30 578 C 51.8015 -2.15599 -6.48079 0
M  V30 579 O 51.4895 -3.10205 -7.41639 0
M  V30 580 H 51.2215 0.0693996 -0.672428 0
M  V30 581 H 53.7755 -0.444548 -2.00532 0
M  V30 582 H 52.0055 1.61852 -3.51199 0
M  V30 583 H 53.6945 1.34537 -3.82955 0
M  V30 584 H 54.4605 -0.959538 -4.75413 0
M  V30 585 H 50.3395 0.257304 -4.60281 0
M  V30 586 H 53.8835 -2.65966 -6.44909 0
M  V30 587 H 49.7805 -1.43485 -6.29351 0
M  V30 588 H 50.5485 -3.05237 -7.59455 0
M  V30 589 N 53.2116 1.57565 -0.0334293 0
M  V30 590 C 54.4586 1.91978 0.644272 0
M  V30 591 C 54.7866 0.910231 1.71887 0
M  V30 592 O 54.0416 -0.0801961 1.95536 0
M  V30 593 C 54.3406 3.33112 1.29504 0
M  V30 594 C 54.0066 4.49537 0.350388 0
M  V30 595 C 52.6686 4.81115 0.0903974 0
M  V30 596 C 55.0206 5.20347 -0.298032 0
M  V30 597 C 52.3486 5.8086 -0.825746 0
M  V30 598 C 54.7006 6.2107 -1.20226 0
M  V30 599 C 53.3646 6.51088 -1.4711 0
M  V30 600 H 52.6346 0.702496 0.235756 0
M  V30 601 H 55.2816 1.91259 -0.0961176 0
M  V30 602 H 53.5866 3.30113 2.11028 0
M  V30 603 H 55.2836 3.57011 1.82603 0
M  V30 604 H 51.8736 4.24883 0.563205 0
M  V30 605 H 56.0576 4.96178 -0.110234 0
M  V30 606 H 51.3136 6.02461 -1.04169 0
M  V30 607 H 55.4876 6.75057 -1.71086 0
M  V30 608 H 53.1146 7.28193 -2.18264 0
M  V30 609 N 54.6897 -0.239769 1.55765 0
M  V30 610 C 55.9197 -0.982743 1.8173 0
M  V30 611 C 56.3277 -1.7917 0.607835 0
M  V30 612 O 55.6707 -1.78525 -0.432973 0
M  V30 613 C 55.7327 -1.96332 3.01155 0
M  V30 614 C 55.3967 -1.34062 4.36894 0
M  V30 615 C 56.3937 -0.739539 5.14613 0
M  V30 616 C 54.0787 -1.35784 4.83599 0
M  V30 617 C 56.0727 -0.163989 6.37189 0
M  V30 618 C 53.7597 -0.778441 6.06122 0
M  V30 619 C 54.7577 -0.182548 6.82756 0
M  V30 620 O 54.4457 0.387887 8.02964 0
M  V30 621 H 54.1777 -0.294481 0.608487 0
M  V30 622 H 56.7317 -0.26572 2.03674 0
M  V30 623 H 54.9617 -2.71884 2.74984 0
M  V30 624 H 56.6507 -2.57032 3.14149 0
M  V30 625 H 57.4167 -0.718687 4.79646 0
M  V30 626 H 53.2957 -1.81105 4.23936 0
M  V30 627 H 56.8397 0.301753 6.96947 0
M  V30 628 H 52.7367 -0.796645 6.40565 0
M  V30 629 H 53.5047 0.28044 8.18019 0
M  V30 630 N 56.1678 -1.49265 -0.50573 0
M  V30 631 C 57.0978 -1.68495 -1.61653 0
M  V30 632 C 58.0788 -0.53366 -1.61512 0
M  V30 633 O 59.2638 -0.76897 -1.78327 0
M  V30 634 C 56.3938 -1.74709 -3.00157 0
M  V30 635 C 55.3478 -2.89581 -3.15162 0
M  V30 636 C 54.6738 -2.80903 -4.5497 0
M  V30 637 C 55.9738 -4.30578 -2.95634 0
M  V30 638 H 57.6678 -2.61493 -1.45814 0
M  V30 639 H 55.2138 -1.25838 -0.70005 0
M  V30 640 H 57.1668 -1.86748 -3.77761 0
M  V30 641 H 55.8908 -0.783067 -3.17074 0
M  V30 642 H 54.5498 -2.77136 -2.39982 0
M  V30 643 H 54.1978 -1.82419 -4.68756 0
M  V30 644 H 53.8978 -3.57999 -4.65951 0
M  V30 645 H 55.4218 -2.94944 -5.34641 0
M  V30 646 H 56.8358 -4.4373 -3.63011 0
M  V30 647 H 55.2328 -5.0886 -3.18091 0
M  V30 648 H 56.3028 -4.45352 -1.91806 0
M  V30 649 N 57.6459 0.756429 -1.3826 0
M  V30 650 C 58.8709 1.55077 -1.37717 0
M  V30 651 C 59.2959 1.88073 0.03164 0
M  V30 652 O 58.6539 1.50364 1.01293 0
M  V30 653 C 58.7019 2.8283 -2.23695 0
M  V30 654 O 57.8059 3.77862 -1.6521 0
M  V30 655 H 57.1469 0.469152 -0.469885 0
M  V30 656 H 59.6769 0.935019 -1.81985 0
M  V30 657 H 59.6869 3.31783 -2.37453 0
M  V30 658 H 58.3619 2.58144 -3.2609 0
M  V30 659 H 56.9389 3.36555 -1.60578 0
M  V30 660 N 59.124 1.23083 0.984299 0
M  V30 661 C 60.349 1.088 1.76571 0
M  V30 662 C 60.774 -0.356657 1.84688 0
M  V30 663 O 60.132 -1.25788 1.30565 0
M  V30 664 C 60.18 1.71371 3.17277 0
M  V30 665 O 59.284 0.973213 4.00752 0
M  V30 666 H 58.625 0.381599 0.543395 0
M  V30 667 H 61.155 1.63057 1.23587 0
M  V30 668 H 61.165 1.76449 3.67872 0
M  V30 669 H 59.84 2.76493 3.10684 0
M  V30 670 H 58.417 0.999078 3.59267 0
M  V30 671 N 60.6021 -1.18246 1.0419 0
M  V30 672 C 61.5491 -2.2192 0.634037 0
M  V30 673 C 62.5191 -1.62179 -0.358765 0
M  V30 674 O 63.7041 -1.89122 -0.252466 0
M  V30 675 C 60.8441 -3.451 0.00445535 0
M  V30 676 C 59.9571 -4.19174 1.04487 0
M  V30 677 C 59.0921 -5.29813 0.383676 0
M  V30 678 C 58.1311 -5.9566 1.4091 0
M  V30 679 N 57.2681 -6.97834 0.772784 0
M  V30 680 H 62.1081 -2.56164 1.52263 0
M  V30 681 H 59.6451 -1.25843 0.761701 0
M  V30 682 H 61.6031 -4.15485 -0.377919 0
M  V30 683 H 60.2331 -3.11472 -0.847652 0
M  V30 684 H 59.2851 -3.47604 1.54518 0
M  V30 685 H 60.5971 -4.64267 1.82368 0
M  V30 686 H 59.7511 -6.06677 -0.0528366 0
M  V30 687 H 58.4901 -4.85825 -0.427208 0
M  V30 688 H 57.4951 -5.17535 1.85574 0
M  V30 689 H 58.7201 -6.4173 2.22171 0
M  V30 690 H 56.6661 -6.55998 -0.0177708 0
M  V30 691 H 56.5831 -7.41186 1.48928 0
M  V30 692 H 57.8511 -7.78665 0.36071 0
M  V30 693 N 62.0802 -0.821533 -1.34494 0
M  V30 694 C 63.3272 -0.408946 -1.98328 0
M  V30 695 C 63.6552 1.02764 -1.65136 0
M  V30 696 O 62.9102 1.73026 -0.914349 0
M  V30 697 C 63.2092 -0.556512 -3.53041 0
M  V30 698 C 62.8752 -1.95861 -4.0614 0
M  V30 699 C 61.5372 -2.34217 -4.20352 0
M  V30 700 C 63.8892 -2.87523 -4.34718 0
M  V30 701 C 61.2172 -3.63572 -4.6047 0
M  V30 702 C 63.5692 -4.1634 -4.76281 0
M  V30 703 C 62.2332 -4.54675 -4.88699 0
M  V30 704 H 61.5032 -0.149644 -0.725732 0
M  V30 705 H 64.1502 -1.04521 -1.6046 0
M  V30 706 H 62.4552 0.163148 -3.9146 0
M  V30 707 H 64.1522 -0.217826 -4.00408 0
M  V30 708 H 60.7422 -1.65066 -3.95539 0
M  V30 709 H 64.9262 -2.59133 -4.23277 0
M  V30 710 H 60.1822 -3.93101 -4.68275 0
M  V30 711 H 64.3562 -4.87455 -4.97354 0
M  V30 712 H 61.9832 -5.54959 -5.19542 0
M  V30 713 N 63.5583 1.46682 -0.576371 0
M  V30 714 C 64.5213 2.28707 0.150239 0
M  V30 715 C 65.5213 1.38035 0.824794 0
M  V30 716 O 66.7113 1.60476 0.677719 0
M  V30 717 C 63.8433 3.18248 1.22192 0
M  V30 718 H 65.0363 2.94423 -0.570521 0
M  V30 719 H 62.5893 1.52688 -0.334078 0
M  V30 720 H 63.3243 2.57265 1.97447 0
M  V30 721 H 63.1093 3.85 0.742812 0
M  V30 722 H 64.5993 3.80001 1.73172 0
M  V30 723 N 65.0364 0.313813 1.54444 0
M  V30 724 C 66.2614 -0.296681 2.05267 0
M  V30 725 C 66.6864 -1.45757 1.18897 0
M  V30 726 O 66.0444 -1.80239 0.195886 0
M  V30 727 C 66.0924 -0.71831 3.53373 0
M  V30 728 O 65.1964 -1.82175 3.69981 0
M  V30 729 H 64.5374 -0.0554061 0.661684 0
M  V30 730 H 67.0674 0.459387 1.99376 0
M  V30 731 H 67.0774 -1.00364 3.95463 0
M  V30 732 H 65.7524 0.130821 4.15694 0
M  V30 733 H 64.3294 -1.53598 3.39797 0
M  V30 734 N 66.5145 -1.57545 0.0417849 0
M  V30 735 C 67.4445 -2.14009 -0.933929 0
M  V30 736 C 68.4255 -1.05938 -1.33083 0
M  V30 737 O 69.6105 -1.33833 -1.40721 0
M  V30 738 C 66.7405 -2.67747 -2.21199 0
M  V30 739 C 65.6945 -3.80718 -1.95544 0
M  V30 740 C 65.0205 -4.20935 -3.29724 0
M  V30 741 C 66.3205 -5.06258 -1.28452 0
M  V30 742 H 68.0145 -2.95788 -0.463645 0
M  V30 743 H 65.5605 -1.42285 -0.221573 0
M  V30 744 H 67.5135 -3.05886 -2.89848 0
M  V30 745 H 66.2375 -1.83147 -2.70416 0
M  V30 746 H 64.8965 -3.43037 -1.2931 0
M  V30 747 H 64.5445 -3.33298 -3.76724 0
M  V30 748 H 64.2445 -4.9707 -3.13361 0
M  V30 749 H 65.7685 -4.61666 -3.9962 0
M  V30 750 H 67.1825 -5.41903 -1.8712 0
M  V30 751 H 65.5795 -5.87475 -1.22445 0
M  V30 752 H 66.6495 -4.84207 -0.259219 0
M  V30 753 N 67.9926 0.231505 -1.5589 0
M  V30 754 C 68.9556 1.27028 -1.90779 0
M  V30 755 C 69.9556 1.40308 -0.785507 0
M  V30 756 O 71.1456 1.38744 -1.05336 0
M  V30 757 C 68.2776 2.64566 -2.14983 0
M  V30 758 H 69.4706 0.973017 -2.83677 0
M  V30 759 H 67.0236 0.471486 -1.49019 0
M  V30 760 H 67.7586 2.99406 -1.24604 0
M  V30 761 H 67.5436 2.56305 -2.96732 0
M  V30 762 H 69.0336 3.39543 -2.43105 0
M  V30 763 N 69.4707 1.49531 0.497807 0
M  V30 764 C 70.4007 1.6935 1.60757 0
M  V30 765 C 71.3817 0.542218 1.61227 0
M  V30 766 O 72.5667 0.778417 1.77917 0
M  V30 767 C 69.6967 1.76298 2.99226 0
M  V30 768 C 68.6507 2.91248 3.13622 0
M  V30 769 C 67.9767 2.83312 4.53474 0
M  V30 770 C 69.2767 4.3214 2.93346 0
M  V30 771 H 70.9707 2.62263 1.44425 0
M  V30 772 H 68.5167 1.26208 0.693367 0
M  V30 773 H 70.4697 1.88749 3.76765 0
M  V30 774 H 69.1937 0.799871 3.16654 0
M  V30 775 H 67.8527 2.78404 2.38509 0
M  V30 776 H 67.5007 1.84902 4.67782 0
M  V30 777 H 67.2007 3.60465 4.64046 0
M  V30 778 H 68.7247 2.97775 5.33069 0
M  V30 779 H 70.1387 4.45649 3.60652 0
M  V30 780 H 68.5357 5.1054 3.15387 0
M  V30 781 H 69.6057 4.46363 1.89441 0
M  V30 782 N 70.9488 -0.749086 1.3866 0
M  V30 783 C 71.8808 -1.87273 1.32142 0
M  V30 784 C 72.8938 -1.61127 0.232787 0
M  V30 785 O 74.0828 -1.71623 0.49069 0
M  V30 786 C 71.1828 -3.23005 1.02571 0
M  V30 787 C 70.3558 -3.7662 2.22433 0
M  V30 788 C 69.4148 -4.90879 1.89537 0
M  V30 789 O 68.4408 -5.05276 2.62078 0
M  V30 790 N 69.6428 -5.74198 0.853031 0
M  V30 791 H 72.4078 -1.93373 2.28969 0
M  V30 792 H 69.9688 -0.929216 1.32579 0
M  V30 793 H 71.9608 -3.96992 0.786085 0
M  V30 794 H 70.5308 -3.12262 0.145249 0
M  V30 795 H 69.7508 -2.94147 2.62434 0
M  V30 796 H 71.0388 -4.09173 3.02415 0
M  V30 797 H 70.4368 -5.6514 0.25155 0
M  V30 798 H 68.9938 -6.48313 0.67329 0
M  V30 799 N 72.4269 -1.23603 -0.977757 0
M  V30 800 C 73.3739 -1.01954 -2.07061 0
M  V30 801 C 74.3439 0.0638697 -1.65977 0
M  V30 802 O 75.5289 -0.0887624 -1.90593 0
M  V30 803 C 72.6689 -0.619658 -3.39491 0
M  V30 804 C 71.7819 -1.77547 -3.93829 0
M  V30 805 C 70.9169 -1.32212 -5.14484 0
M  V30 806 C 69.9559 -2.44852 -5.60994 0
M  V30 807 N 69.0929 -2.00456 -6.72876 0
M  V30 808 H 73.9329 -1.95495 -2.24913 0
M  V30 809 H 71.4699 -0.973861 -1.10247 0
M  V30 810 H 73.4279 -0.368898 -4.15566 0
M  V30 811 H 72.0579 0.278752 -3.21594 0
M  V30 812 H 71.1099 -2.14016 -3.14486 0
M  V30 813 H 72.4219 -2.62219 -4.24314 0
M  V30 814 H 71.5759 -1.02965 -5.97899 0
M  V30 815 H 70.3149 -0.445808 -4.85658 0
M  V30 816 H 69.3199 -2.74871 -4.76157 0
M  V30 817 H 70.5449 -3.33024 -5.91837 0
M  V30 818 H 68.4909 -1.15208 -6.45804 0
M  V30 819 H 68.4079 -2.78687 -7.02759 0
M  V30 820 H 69.6759 -1.7432 -7.59758 0
M  V30 821 N 73.905 1.17692 -1.04816 0
M  V30 822 C 74.852 2.21581 -0.645797 0
M  V30 823 C 75.822 1.62367 0.350159 0
M  V30 824 O 77.007 1.89254 0.242433 0
M  V30 825 C 74.147 3.45092 -0.0227568 0
M  V30 826 C 73.26 4.18613 -1.06709 0
M  V30 827 C 72.395 5.29602 -0.411767 0
M  V30 828 C 71.434 5.94904 -1.44067 0
M  V30 829 N 70.571 6.97414 -0.809781 0
M  V30 830 H 75.411 2.55353 -1.5362 0
M  V30 831 H 72.948 1.25438 -0.768364 0
M  V30 832 H 74.906 4.15679 0.35588 0
M  V30 833 H 73.536 3.11917 0.831122 0
M  V30 834 H 72.588 3.46779 -1.5636 0
M  V30 835 H 73.9 4.63293 -1.84827 0
M  V30 836 H 73.054 6.06696 0.0206623 0
M  V30 837 H 71.793 4.86045 0.401438 0
M  V30 838 H 70.798 5.16544 -1.88316 0
M  V30 839 H 72.023 6.40542 -2.25571 0
M  V30 840 H 69.969 6.55998 -0.0170186 0
M  V30 841 H 69.886 7.40386 -1.52856 0
M  V30 842 H 71.154 7.78463 -0.401999 0
M  V30 843 N 75.3831 0.828654 1.34056 0
M  V30 844 C 76.3301 0.252567 2.29414 0
M  V30 845 C 77.3001 -0.62588 1.53857 0
M  V30 846 O 78.4851 -0.566312 1.82202 0
M  V30 847 C 75.6251 -0.574831 3.40279 0
M  V30 848 C 74.7381 0.326499 4.30764 0
M  V30 849 C 73.8731 -0.511016 5.28736 0
M  V30 850 C 72.9121 0.389342 6.1086 0
M  V30 851 N 72.0491 -0.409439 7.00905 0
M  V30 852 H 76.8891 1.07108 2.78086 0
M  V30 853 H 74.4261 0.539677 1.36843 0
M  V30 854 H 76.3841 -1.06992 4.03248 0
M  V30 855 H 75.0141 -1.35841 2.92826 0
M  V30 856 H 74.0661 0.939837 3.68607 0
M  V30 857 H 75.3781 1.01857 4.88289 0
M  V30 858 H 74.5321 -1.07035 5.97184 0
M  V30 859 H 73.2711 -1.23657 4.71763 0
M  V30 860 H 72.2761 0.960769 5.4134 0
M  V30 861 H 73.5011 1.1131 6.69916 0
M  V30 862 H 71.4471 -1.11856 6.46393 0
M  V30 863 H 71.3641 0.224126 7.55668 0
M  V30 864 H 72.6321 -0.951336 7.73673 0
M  V30 865 N 76.8612 -1.46375 0.584142 0
M  V30 866 C 77.8242 -2.28784 -0.138108 0
M  V30 867 C 78.8242 -1.38471 -0.817462 0
M  V30 868 O 80.0142 -1.60833 -0.669199 0
M  V30 869 C 77.1462 -3.18892 -1.20503 0
M  V30 870 H 78.3392 -2.94117 0.586127 0
M  V30 871 H 75.8922 -1.52509 0.342171 0
M  V30 872 H 76.6272 -2.58309 -1.96079 0
M  V30 873 H 76.4122 -3.85388 -0.722384 0
M  V30 874 H 77.9022 -3.80914 -1.71155 0
M  V30 875 N 78.3393 -0.321999 -1.54275 0
M  V30 876 C 79.3023 0.531975 -2.22941 0
M  V30 877 C 80.3023 1.04478 -1.22234 0
M  V30 878 O 81.4923 0.937452 -1.46825 0
M  V30 879 C 78.6243 1.73874 -2.93224 0
M  V30 880 H 79.8173 -0.0682612 -2.99822 0
M  V30 881 H 77.3703 -0.0730644 -1.56129 0
M  V30 882 H 78.1053 2.37825 -2.20476 0
M  V30 883 H 77.8903 1.37847 -3.6707 0
M  V30 884 H 79.3803 2.34496 -3.45545 0
M  V30 885 N 79.8174 1.5752 -0.0501392 0
M  V30 886 C 80.7644 2.1147 0.924603 0
M  V30 887 C 81.7344 1.02182 1.30951 0
M  V30 888 O 82.9194 1.29723 1.39916 0
M  V30 889 C 80.0594 2.66337 2.19451 0
M  V30 890 C 79.1724 3.89708 1.86418 0
M  V30 891 C 78.3074 4.32893 3.07859 0
M  V30 892 C 77.3464 5.48967 2.70742 0
M  V30 893 N 76.4834 5.87211 3.84874 0
M  V30 894 H 81.3234 2.94465 0.457639 0
M  V30 895 H 78.8604 1.45531 0.214266 0
M  V30 896 H 80.8184 2.96247 2.93758 0
M  V30 897 H 79.4484 1.86141 2.63726 0
M  V30 898 H 78.5004 3.66396 1.02264 0
M  V30 899 H 79.8124 4.74074 1.55096 0
M  V30 900 H 78.9664 4.6435 3.90466 0
M  V30 901 H 77.7054 3.47336 3.42358 0
M  V30 902 H 76.7104 5.17183 1.86551 0
M  V30 903 H 77.9354 6.3624 2.37436 0
M  V30 904 H 75.8814 5.04607 4.19175 0
M  V30 905 H 75.7984 6.66266 3.57247 0
M  V30 906 H 77.0664 6.23282 4.68123 0
M  V30 907 N 81.2955 -0.223234 1.56011 0
M  V30 908 C 82.2255 -1.27988 1.95298 0
M  V30 909 C 83.2065 -1.48976 0.820979 0
M  V30 910 O 84.3915 -1.61188 1.08315 0
M  V30 911 C 81.5215 -2.63 2.26822 0
M  V30 912 C 80.4755 -2.56671 3.42497 0
M  V30 913 C 79.8015 -3.95697 3.59622 0
M  V30 914 C 81.1015 -2.11601 4.77517 0
M  V30 915 H 82.7955 -0.953525 2.8381 0
M  V30 916 H 80.3415 -0.457244 1.36548 0
M  V30 917 H 82.2945 -3.37077 2.52898 0
M  V30 918 H 81.0185 -2.9732 1.35161 0
M  V30 919 H 79.6775 -1.85051 3.16467 0
M  V30 920 H 79.3255 -4.27322 2.6534 0
M  V30 921 H 79.0255 -3.92345 4.37424 0
M  V30 922 H 80.5495 -4.71438 3.88044 0
M  V30 923 H 81.9635 -2.7542 5.02809 0
M  V30 924 H 80.3605 -2.19311 5.5859 0
M  V30 925 H 81.4305 -1.06824 4.72987 0
M  V30 926 N 82.7736 -1.49793 -0.48987 0
M  V30 927 C 84.1896 -1.36803 -0.822022 0
M  V30 928 C 84.3896 -0.409652 -1.97292 0
M  V30 929 O 83.4456 0.154614 -2.52026 0
M  V30 930 C 84.7586 -2.77768 -1.15175 0
M  V30 931 C 86.3066 -2.86549 -1.25931 0
M  V30 932 C 86.7816 -4.28306 -1.62228 0
M  V30 933 N 88.2726 -4.31169 -1.69256 0
M  V30 934 C 89.0076 -5.37832 -1.98807 0
M  V30 935 N 88.5036 -6.54726 -2.26507 0
M  V30 936 N 90.2966 -5.25258 -2.00152 0
M  V30 937 H 82.4476 -2.10691 0.268881 0
M  V30 938 H 84.7106 -0.946241 0.057728 0
M  V30 939 H 84.4166 -3.49648 -0.379335 0
M  V30 940 H 84.2906 -3.13836 -2.09253 0
M  V30 941 H 86.6776 -2.14899 -2.02243 0
M  V30 942 H 86.7586 -2.54049 -0.298776 0
M  V30 943 H 86.4026 -5.00486 -0.864622 0
M  V30 944 H 86.3326 -4.58279 -2.594 0
M  V30 945 H 88.8236 -3.4687 -1.49965 0
M  V30 946 H 89.1366 -7.31833 -2.48276 0
M  V30 947 H 87.4816 -6.57933 -2.23939 0
M  V30 948 H 90.6726 -4.32938 -1.77996 0
M  V30 949 H 90.8456 -6.08476 -2.22848 0
M  V30 950 N 84.2517 0.741722 -1.39055 0
M  V30 951 C 85.4977 1.50234 -1.37118 0
M  V30 952 C 85.8527 1.92368 0.0350439 0
M  V30 953 O 85.1457 1.63422 1.00019 0
M  V30 954 C 85.3397 2.7592 -2.27163 0
M  V30 955 C 85.1687 2.46074 -3.76401 0
M  V30 956 C 83.9387 2.38704 -4.45364 0
M  V30 957 C 86.1367 2.12062 -4.68545 0
M  V30 958 N 84.1187 2.01258 -5.79973 0
M  V30 959 C 85.4897 1.85005 -5.91754 0
M  V30 960 C 87.5447 1.98473 -4.56632 0
M  V30 961 C 86.2477 1.4573 -7.04383 0
M  V30 962 C 88.2737 1.60599 -5.69176 0
M  V30 963 C 87.6357 1.34423 -6.91455 0
M  V30 964 H 83.7347 0.548858 -0.557027 0
M  V30 965 H 86.3187 0.862642 -1.74547 0
M  V30 966 H 84.4897 3.3768 -1.91904 0
M  V30 967 H 86.2217 3.42068 -2.16267 0
M  V30 968 H 82.9767 2.55574 -3.98721 0
M  V30 969 H 83.4007 1.85147 -6.51191 0
M  V30 970 H 88.0427 2.17381 -3.62637 0
M  V30 971 H 85.7607 1.25562 -7.98286 0
M  V30 972 H 89.3467 1.507 -5.61944 0
M  V30 973 H 88.2267 1.05555 -7.77064 0
M  V30 974 N 85.7298 1.2412 0.971189 0
M  V30 975 C 86.9578 1.10575 1.74874 0
M  V30 976 C 87.3728 -0.342017 1.85676 0
M  V30 977 O 86.7298 -1.23617 1.34258 0
M  V30 978 C 86.7808 1.73579 3.171 0
M  V30 979 O 86.5018 3.12695 3.06844 0
M  V30 980 C 88.0028 1.65598 4.11208 0
M  V30 981 H 85.2228 0.386504 0.548503 0
M  V30 982 H 87.7668 1.64156 1.21955 0
M  V30 983 H 85.9218 1.24009 3.67016 0
M  V30 984 H 86.3358 3.43412 3.96445 0
M  V30 985 H 87.8098 2.1437 5.08674 0
M  V30 986 H 88.2868 0.616532 4.34851 0
M  V30 987 H 88.8928 2.14578 3.67201 0
M  V30 988 N 87.2079 -1.17134 1.05439 0
M  V30 989 C 88.1399 -2.2078 0.615539 0
M  V30 990 C 89.1529 -1.59584 -0.322001 0
M  V30 991 O 90.3419 -1.78133 -0.114344 0
M  V30 992 C 87.4419 -3.38691 -0.118938 0
M  V30 993 C 86.6149 -4.29454 0.829924 0
M  V30 994 C 85.6739 -5.26024 0.136258 0
M  V30 995 O 84.6999 -5.63952 0.77115 0
M  V30 996 N 85.9019 -5.69487 -1.1254 0
M  V30 997 H 88.6669 -2.59052 1.50705 0
M  V30 998 H 86.2279 -1.32058 0.936603 0
M  V30 999 H 88.2199 -4.00329 -0.593179 0
M  V30 1000 H 86.7899 -2.98996 -0.91215 0
M  V30 1001 H 86.0099 -3.65211 1.48373 0
M  V30 1002 H 87.2979 -4.86984 1.47392 0
M  V30 1003 H 86.6959 -5.4075 -1.6615 0
M  V30 1004 H 85.2529 -6.33257 -1.54366 0
M  V30 1005 N 88.686 -0.835752 -1.33615 0
M  V30 1006 C 89.914 -0.443344 -2.02094 0
M  V30 1007 C 90.329 0.954522 -1.62894 0
M  V30 1008 O 89.686 1.61982 -0.840723 0
M  V30 1009 C 89.737 -0.550775 -3.5728 0
M  V30 1010 O 89.458 -1.89356 -3.95065 0
M  V30 1011 C 90.959 -0.154919 -4.43029 0
M  V30 1012 H 88.179 -0.176359 -0.647409 0
M  V30 1013 H 90.723 -1.12746 -1.70612 0
M  V30 1014 H 88.878 0.0853997 -3.87306 0
M  V30 1015 H 89.292 -1.87687 -4.89769 0
M  V30 1016 H 90.766 -0.281144 -5.51284 0
M  V30 1017 H 91.243 0.902863 -4.2982 0
M  V30 1018 H 91.849 -0.765404 -4.18356 0
M  V30 1019 N 90.1641 1.46063 -0.591896 0
M  V30 1020 C 91.4101 2.03203 -0.0894879 0
M  V30 1021 C 91.7651 1.45407 1.25994 0
M  V30 1022 O 91.0581 0.61326 1.8152 0
M  V30 1023 C 91.2521 3.57391 0.0249813 0
M  V30 1024 C 91.0811 4.30142 -1.3118 0
M  V30 1025 C 89.8511 4.68688 -1.88838 0
M  V30 1026 C 92.0491 4.63098 -2.23708 0
M  V30 1027 N 90.0311 5.26228 -3.1616 0
M  V30 1028 C 91.4021 5.21305 -3.3562 0
M  V30 1029 C 93.4571 4.45031 -2.23274 0
M  V30 1030 C 92.1601 5.63351 -4.47245 0
M  V30 1031 C 94.1861 4.881 -3.33935 0
M  V30 1032 C 93.5481 5.46386 -4.44569 0
M  V30 1033 H 89.6471 0.778323 -0.0757431 0
M  V30 1034 H 92.2311 1.78094 -0.78681 0
M  V30 1035 H 90.4021 3.82195 0.69149 0
M  V30 1036 H 92.1341 4.0118 0.532613 0
M  V30 1037 H 88.8891 4.5174 -1.42223 0
M  V30 1038 H 89.3131 5.59512 -3.8115 0
M  V30 1039 H 93.9551 3.99295 -1.39008 0
M  V30 1040 H 91.6731 6.08061 -5.32247 0
M  V30 1041 H 95.2591 4.75866 -3.34728 0
M  V30 1042 H 94.1391 5.79102 -5.28782 0
M  V30 1043 N 91.6422 0.330177 1.54103 0
M  V30 1044 C 93.0582 -0.0222371 1.59585 0
M  V30 1045 C 93.2582 -1.49902 1.34654 0
M  V30 1046 O 92.3142 -2.25592 1.13421 0
M  V30 1047 C 93.6272 0.401932 2.98002 0
M  V30 1048 C 95.1752 0.353145 3.11001 0
M  V30 1049 C 95.6502 0.752576 4.51775 0
M  V30 1050 N 97.1412 0.706239 4.57784 0
M  V30 1051 C 97.8762 0.987417 5.64834 0
M  V30 1052 N 97.3722 1.33607 6.79795 0
M  V30 1053 N 99.1652 0.91254 5.54643 0
M  V30 1054 H 91.3162 1.29228 1.68564 0
M  V30 1055 H 93.5792 0.525906 0.78875 0
M  V30 1056 H 93.2852 1.4311 3.21267 0
M  V30 1057 H 93.1592 -0.229699 3.765 0
M  V30 1058 H 95.5462 -0.666822 2.87467 0
M  V30 1059 H 95.6272 1.0198 2.34593 0
M  V30 1060 H 95.2712 1.77049 4.76042 0
M  V30 1061 H 95.2012 0.0635409 5.26562 0
M  V30 1062 H 97.6922 0.44889 3.75224 0
M  V30 1063 H 98.0052 1.53582 7.57385 0
M  V30 1064 H 96.3502 1.37439 6.81275 0
M  V30 1065 H 99.5412 0.639601 4.6371 0
M  V30 1066 H 99.7142 1.13503 6.37982 0
M  V30 1067 N 93.1203 -1.57491 0.0584922 0
M  V30 1068 C 94.5363 -1.56792 -0.298091 0
M  V30 1069 C 94.7363 -1.06679 -1.70944 0
M  V30 1070 O 93.7923 -0.726672 -2.41818 0
M  V30 1071 C 95.1053 -3.00461 -0.119879 0
M  V30 1072 C 96.6533 -3.1242 -0.190428 0
M  V30 1073 C 97.1283 -4.57982 -0.0406567 0
M  V30 1074 N 98.6193 -4.63099 -0.0966958 0
M  V30 1075 C 99.3543 -5.734 -0.00502943 0
M  V30 1076 N 98.8503 -6.9266 0.139402 0
M  V30 1077 N 100.643 -5.62067 -0.0611391 0
M  V30 1078 H 92.7943 -1.88386 0.98105 0
M  V30 1079 H 95.0573 -0.867865 0.381463 0
M  V30 1080 H 94.7633 -3.41187 0.85349 0
M  V30 1081 H 94.6373 -3.66843 -0.877833 0
M  V30 1082 H 97.0243 -2.71589 -1.15427 0
M  V30 1083 H 97.1053 -2.48702 0.598405 0
M  V30 1084 H 96.7493 -4.995 0.919897 0
M  V30 1085 H 96.6793 -5.19715 -0.848727 0
M  V30 1086 H 99.1703 -3.77331 -0.207277 0
M  V30 1087 H 99.4833 -7.72536 0.201855 0
M  V30 1088 H 97.8283 -6.94781 0.174586 0
M  V30 1089 H 101.019 -4.67782 -0.172583 0
M  V30 1090 H 101.192 -6.47999 0.0137562 0
M  V30 1091 N 94.5984 0.214957 -1.56127 0
M  V30 1092 C 95.5464 1.28601 -1.93816 0
M  V30 1093 C 96.5404 1.48175 -0.821016 0
M  V30 1094 O 97.7464 1.49271 -1.0059 0
M  V30 1095 H 94.1214 0.431302 -0.616022 0
M  V30 1096 H 96.0924 0.940991 -2.83175 0
M  V30 1097 C 94.8414 2.62779 -2.27689 0
M  V30 1098 H 94.1644 2.48527 -3.13168 0
M  V30 1099 H 95.6044 3.36517 -2.57939 0
M  V30 1100 C 94.0634 3.18285 -1.10436 0
M  V30 1101 O 94.5934 4.00002 -0.368945 0
M  V30 1102 N 92.7994 2.7675 -0.886433 0
M  V30 1103 H 92.3464 2.10404 -1.48619 0
M  V30 1104 H 92.3044 3.14229 -0.103656 0
M  V30 1105 N 96.0765 1.50051 0.48192 0
M  V30 1106 C 97.0245 1.68635 1.60203 0
M  V30 1107 C 98.0185 0.552184 1.60148 0
M  V30 1108 O 99.2245 0.732377 1.64427 0
M  V30 1109 H 95.5995 0.532081 0.531407 0
M  V30 1110 H 97.5705 2.62616 1.41688 0
M  V30 1111 C 96.3195 1.78775 2.9822 0
M  V30 1112 H 95.6425 2.6543 2.98976 0
M  V30 1113 H 97.0825 1.95806 3.7608 0
M  V30 1114 C 95.5415 0.536849 3.32595 0
M  V30 1115 O 96.0715 -0.328897 4.00351 0
M  V30 1116 N 94.2775 0.394091 2.87915 0
M  V30 1117 H 93.8245 1.09962 2.32951 0
M  V30 1118 H 93.7825 -0.441737 3.11281 0
M  V30 1119 N 97.5546 -0.734337 1.39446 0
M  V30 1120 C 98.5016 -1.84835 1.38219 0
M  V30 1121 C 99.4716 -1.64331 0.24179 0
M  V30 1122 O 100.657 -1.85728 0.437002 0
M  V30 1123 C 97.7966 -3.22355 1.23212 0
M  V30 1124 C 96.9096 -3.5456 2.46801 0
M  V30 1125 C 96.0446 -4.81485 2.24377 0
M  V30 1126 C 95.0836 -5.06536 3.43639 0
M  V30 1127 N 94.2206 -6.24665 3.20528 0
M  V30 1128 H 99.0606 -1.85219 2.33448 0
M  V30 1129 H 96.5976 -0.905039 1.15963 0
M  V30 1130 H 98.5556 -4.0174 1.12522 0
M  V30 1131 H 97.1856 -3.21248 0.316121 0
M  V30 1132 H 96.2376 -2.69872 2.68092 0
M  V30 1133 H 97.5496 -3.6899 3.3563 0
M  V30 1134 H 96.7036 -5.68852 2.10933 0
M  V30 1135 H 95.4426 -4.6923 1.32944 0
M  V30 1136 H 94.4476 -4.17632 3.5758 0
M  V30 1137 H 95.6726 -5.20676 4.35974 0
M  V30 1138 H 93.6186 -6.13696 2.3176 0
M  V30 1139 H 93.5356 -6.39685 4.02913 0
M  V30 1140 H 94.8036 -7.14868 3.10779 0
M  V30 1141 N 99.0327 -1.24633 -0.964593 0
M  V30 1142 C 99.9797 -1.04144 -2.05968 0
M  V30 1143 C 100.95 0.046262 -1.66036 0
M  V30 1144 O 102.135 -0.108972 -1.90489 0
M  V30 1145 C 99.2747 -0.65563 -3.38815 0
M  V30 1146 C 98.3877 -1.81714 -3.91923 0
M  V30 1147 C 97.5227 -1.37662 -5.13052 0
M  V30 1148 C 96.5617 -2.50788 -5.58365 0
M  V30 1149 N 95.6987 -2.07582 -6.70712 0
M  V30 1150 H 100.539 -1.9787 -2.22827 0
M  V30 1151 H 98.0757 -0.9855 -1.09208 0
M  V30 1152 H 100.034 -0.412954 -4.15151 0
M  V30 1153 H 98.6637 0.244627 -3.21872 0
M  V30 1154 H 97.7157 -2.1734 -3.12198 0
M  V30 1155 H 99.0277 -2.66705 -4.21509 0
M  V30 1156 H 98.1817 -1.093 -5.96773 0
M  V30 1157 H 96.9207 -0.497293 -4.85158 0
M  V30 1158 H 95.9257 -2.79906 -4.73215 0
M  V30 1159 H 97.1507 -3.39283 -5.88272 0
M  V30 1160 H 95.0967 -1.22051 -6.44546 0
M  V30 1161 H 95.0137 -2.86125 -6.99763 0
M  V30 1162 H 96.2817 -1.82369 -7.57867 0
M  V30 1163 N 100.511 1.16574 -1.06058 0
M  V30 1164 C 101.739 1.90952 -0.796552 0
M  V30 1165 C 102.154 1.77302 0.648808 0
M  V30 1166 O 101.511 1.11605 1.44397 0
M  V30 1167 C 101.562 3.41736 -1.17894 0
M  V30 1168 O 101.283 3.54975 -2.56758 0
M  V30 1169 C 102.784 4.33169 -0.942308 0
M  V30 1170 H 100.004 0.605594 -0.288959 0
M  V30 1171 H 102.548 1.47777 -1.41358 0
M  V30 1172 H 100.703 3.82623 -0.606491 0
M  V30 1173 H 101.117 4.4846 -2.72 0
M  V30 1174 H 102.591 5.37439 -1.25952 0
M  V30 1175 H 103.068 4.3903 0.122078 0
M  V30 1176 H 103.674 3.98007 -1.49902 0
M  V30 1177 N 101.989 0.842826 1.3317 0
M  V30 1178 C 102.936 0.276885 2.29133 0
M  V30 1179 C 103.906 -0.609527 1.54512 0
M  V30 1180 O 105.091 -0.546955 1.82792 0
M  V30 1181 C 102.231 -0.538707 3.40869 0
M  V30 1182 C 101.344 0.372169 4.30394 0
M  V30 1183 C 100.479 -0.454908 5.29249 0
M  V30 1184 C 99.5179 0.45411 6.10413 0
M  V30 1185 N 98.6549 -0.335075 7.013 0
M  V30 1186 H 103.495 1.10052 2.76934 0
M  V30 1187 H 101.032 0.554161 1.36262 0
M  V30 1188 H 102.99 -1.02709 4.0436 0
M  V30 1189 H 101.62 -1.32727 2.9425 0
M  V30 1190 H 100.672 0.97888 3.6759 0
M  V30 1191 H 101.984 1.0703 4.87182 0
M  V30 1192 H 101.138 -1.00695 5.98285 0
M  V30 1193 H 99.8769 -1.18646 4.73048 0
M  V30 1194 H 98.8819 1.01813 5.40291 0
M  V30 1195 H 100.107 1.18409 6.68697 0
M  V30 1196 H 98.0529 -1.04994 6.47543 0
M  V30 1197 H 97.9699 0.304262 7.55387 0
M  V30 1198 H 99.2379 -0.869224 7.74638 0
M  V30 1199 N 103.467 -1.45747 0.599634 0
M  V30 1200 C 104.716 -2.01502 0.0893511 0
M  V30 1201 C 105.029 -1.4748 -1.28488 0
M  V30 1202 O 106.235 -1.95161 -1.88745 0
M  V30 1203 C 104.691 -3.59735 0.109082 0
M  V30 1204 C 104.299 -4.22754 1.48267 0
M  V30 1205 C 106.043 -4.23085 -0.346374 0
M  V30 1206 C 103.95 -5.73115 1.45921 0
M  V30 1207 H 102.88 -0.753417 0.0296347 0
M  V30 1208 H 105.531 -1.67303 0.753788 0
M  V30 1209 H 103.913 -3.91087 -0.621854 0
M  V30 1210 H 105.087 -4.02987 2.23468 0
M  V30 1211 H 103.402 -3.71567 1.87955 0
M  V30 1212 H 105.999 -5.33327 -0.38298 0
M  V30 1213 H 106.342 -3.93201 -1.36743 0
M  V30 1214 H 106.875 -3.9642 0.331038 0
M  V30 1215 H 103.614 -6.07685 2.45762 0
M  V30 1216 H 103.134 -5.95097 0.749665 0
M  V30 1217 H 104.813 -6.3616 1.17941 0
M  V30 1218 N 104.945 -0.338344 -1.53925 0
M  V30 1219 C 105.855 0.529421 -2.28548 0
M  V30 1220 C 106.871 1.11645 -1.3346 0
M  V30 1221 O 108.047 1.13325 -1.66492 0
M  V30 1222 C 105.112 1.66713 -3.03987 0
M  V30 1223 C 104.173 1.11041 -4.14691 0
M  V30 1224 C 103.406 2.19389 -4.86522 0
M  V30 1225 O 103.629 3.40013 -4.57982 0
M  V30 1226 O 102.563 1.83976 -5.73094 0
M  V30 1227 H 106.389 -0.0770399 -3.03602 0
M  V30 1228 H 103.974 -0.103555 -1.49041 0
M  V30 1229 H 105.856 2.32918 -3.5118 0
M  V30 1230 H 104.531 2.25949 -2.31794 0
M  V30 1231 H 103.438 0.413024 -3.71813 0
M  V30 1232 H 104.771 0.562975 -4.8897 0
M  V30 1233 N 106.423 1.57458 -0.0668435 0
M  V30 1234 C 107.651 1.97624 0.612565 0
M  V30 1235 C 108.066 0.94502 1.63447 0
M  V30 1236 O 107.423 -0.0689276 1.8237 0
M  V30 1237 C 107.474 3.37869 1.28555 0
M  V30 1238 O 107.195 4.3704 0.304557 0
M  V30 1239 C 108.696 3.92882 2.05325 0
M  V30 1240 H 105.916 0.650045 0.166381 0
M  V30 1241 H 108.46 2.04035 -0.137782 0
M  V30 1242 H 106.615 3.3256 1.98702 0
M  V30 1243 H 107.029 5.18565 0.786779 0
M  V30 1244 H 108.503 4.93247 2.47812 0
M  V30 1245 H 108.98 3.29156 2.9078 0
M  V30 1246 H 109.586 4.01577 1.40056 0
M  V30 1247 N 107.901 -0.206675 1.56239 0
M  V30 1248 C 109.129 -0.945345 1.8404 0
M  V30 1249 C 109.544 -1.77336 0.647885 0
M  V30 1250 O 108.901 -1.78425 -0.383511 0
M  V30 1251 C 108.952 -1.8509 3.10522 0
M  V30 1252 O 108.673 -1.05634 4.25174 0
M  V30 1253 C 110.174 -2.70222 3.51418 0
M  V30 1254 H 107.394 -0.276372 0.61144 0
M  V30 1255 H 109.938 -0.217417 2.03341 0
M  V30 1256 H 108.093 -2.53259 2.93153 0
M  V30 1257 H 108.507 -1.67238 4.97124 0
M  V30 1258 H 109.981 -3.29438 4.42916 0
M  V30 1259 H 110.458 -3.43358 2.73864 0
M  V30 1260 H 111.064 -2.07443 3.71278 0
M  V30 1261 N 109.379 -1.50304 -0.473955 0
M  V30 1262 C 110.311 -1.65109 -1.58971 0
M  V30 1263 C 111.324 -0.532676 -1.53839 0
M  V30 1264 O 112.513 -0.805751 -1.59279 0
M  V30 1265 C 109.613 -1.61684 -2.97845 0
M  V30 1266 C 108.786 -2.8951 -3.27876 0
M  V30 1267 C 107.845 -2.78768 -4.4629 0
M  V30 1268 O 106.871 -3.52722 -4.46739 0
M  V30 1269 N 108.073 -1.9213 -5.47783 0
M  V30 1270 H 110.838 -2.61347 -1.46689 0
M  V30 1271 H 108.399 -1.47732 -0.662324 0
M  V30 1272 H 110.391 -1.52114 -3.75024 0
M  V30 1273 H 108.961 -0.731925 -3.03911 0
M  V30 1274 H 108.181 -3.13228 -2.39336 0
M  V30 1275 H 109.469 -3.74199 -3.4475 0
M  V30 1276 H 108.867 -1.31353 -5.50239 0
M  V30 1277 H 107.424 -1.88466 -6.23958 0
M  V30 1278 N 110.857 0.726932 -1.39834 0
M  V30 1279 C 112.273 1.03354 -1.21615 0
M  V30 1280 C 112.473 2.01327 -0.08338 0
M  V30 1281 O 111.529 2.46158 0.56238 0
M  V30 1282 C 112.842 1.58811 -2.55342 0
M  V30 1283 C 114.39 1.70851 -2.62257 0
M  V30 1284 C 114.865 2.29716 -3.96225 0
M  V30 1285 N 116.356 2.37116 -3.97907 0
M  V30 1286 C 117.091 2.83619 -4.98345 0
M  V30 1287 N 116.587 3.29958 -6.09179 0
M  V30 1288 N 118.38 2.82901 -4.8572 0
M  V30 1289 H 110.531 0.0773069 -2.12259 0
M  V30 1290 H 112.794 0.0969102 -0.943034 0
M  V30 1291 H 112.5 0.942855 -3.38826 0
M  V30 1292 H 112.374 2.57502 -2.75632 0
M  V30 1293 H 114.761 2.34497 -1.79152 0
M  V30 1294 H 114.842 0.707913 -2.45809 0
M  V30 1295 H 114.486 1.66696 -4.79765 0
M  V30 1296 H 114.416 3.30469 -4.09997 0
M  V30 1297 H 116.907 2.04374 -3.17868 0
M  V30 1298 H 117.22 3.63976 -6.8172 0
M  V30 1299 H 115.565 3.27946 -6.12761 0
M  V30 1300 H 118.756 2.46027 -3.98231 0
M  V30 1301 H 118.929 3.18827 -5.6414 0
M  V30 1302 N 112.336 1.25143 0.95797 0
M  V30 1303 C 113.752 1.01892 1.22842 0
M  V30 1304 C 113.952 -0.266311 1.99732 0
M  V30 1305 O 113.008 -0.979913 2.3271 0
M  V30 1306 C 114.321 2.24004 2.00606 0
M  V30 1307 C 115.869 2.28731 2.13662 0
M  V30 1308 C 116.344 3.5049 2.94823 0
M  V30 1309 N 117.835 3.50866 3.02403 0
M  V30 1310 C 118.57 4.4174 3.65586 0
M  V30 1311 N 118.066 5.42882 4.30408 0
M  V30 1312 N 119.859 4.29429 3.62694 0
M  V30 1313 H 112.01 2.07718 0.443493 0
M  V30 1314 H 114.273 0.912031 0.258657 0
M  V30 1315 H 113.979 3.17395 1.51503 0
M  V30 1316 H 113.853 2.26907 3.01319 0
M  V30 1317 H 116.24 1.35865 2.61963 0
M  V30 1318 H 116.321 2.29848 1.12265 0
M  V30 1319 H 115.965 4.43676 2.47213 0
M  V30 1320 H 115.895 3.46617 3.96439 0
M  V30 1321 H 118.386 2.777 2.56302 0
M  V30 1322 H 118.699 6.0844 4.76467 0
M  V30 1323 H 117.044 5.46758 4.29047 0
M  V30 1324 H 120.235 3.49643 3.11236 0
M  V30 1325 H 120.408 5.00448 4.1165 0
M  V30 1326 N 113.814 -1.1601 1.06675 0
M  V30 1327 C 115.23 -1.38622 0.790948 0
M  V30 1328 C 115.43 -1.92109 -0.607965 0
M  V30 1329 O 114.486 -2.12239 -1.36787 0
M  V30 1330 C 115.799 -2.36347 1.85905 0
M  V30 1331 C 117.347 -2.50023 1.88301 0
M  V30 1332 C 117.822 -3.51033 2.94176 0
M  V30 1333 N 119.313 -3.58563 2.93235 0
M  V30 1334 C 120.048 -4.36521 3.71803 0
M  V30 1335 N 119.544 -5.17869 4.602 0
M  V30 1336 N 121.337 -4.31541 3.60178 0
M  V30 1337 H 113.488 -0.796294 1.96908 0
M  V30 1338 H 115.751 -0.412597 0.853503 0
M  V30 1339 H 115.457 -2.04147 2.86386 0
M  V30 1340 H 115.331 -3.36042 1.71334 0
M  V30 1341 H 117.718 -2.81524 0.884769 0
M  V30 1342 H 117.799 -1.5035 2.06951 0
M  V30 1343 H 117.443 -3.20268 3.94196 0
M  V30 1344 H 117.373 -4.50445 2.72776 0
M  V30 1345 H 119.864 -3.00496 2.29152 0
M  V30 1346 H 120.177 -5.74578 5.16797 0
M  V30 1347 H 118.522 -5.17199 4.64253 0
M  V30 1348 H 121.713 -3.67051 2.90502 0
M  V30 1349 H 121.886 -4.9205 4.21653 0
M  V30 1350 N 115.292 -0.849877 -1.32721 0
M  V30 1351 C 116.522 -0.46408 -2.0132 0
M  V30 1352 C 116.93 0.94246 -1.64056 0
M  V30 1353 O 116.273 1.6257 -0.855379 0
M  V30 1354 C 116.335 -0.517887 -3.5575 0
M  V30 1355 C 115.999 -1.88248 -4.16427 0
M  V30 1356 C 116.996 -2.84726 -4.35002 0
M  V30 1357 C 114.681 -2.17832 -4.52609 0
M  V30 1358 C 116.675 -4.08945 -4.8892 0
M  V30 1359 C 114.362 -3.42304 -5.06232 0
M  V30 1360 C 115.36 -4.37677 -5.24335 0
M  V30 1361 O 115.048 -5.59946 -5.76815 0
M  V30 1362 H 114.78 -0.181327 -0.651227 0
M  V30 1363 H 117.334 -1.14713 -1.70382 0
M  V30 1364 H 115.564 0.221997 -3.86062 0
M  V30 1365 H 117.253 -0.148366 -4.05629 0
M  V30 1366 H 118.019 -2.63174 -4.07388 0
M  V30 1367 H 113.898 -1.44385 -4.37806 0
M  V30 1368 H 117.442 -4.83396 -5.02966 0
M  V30 1369 H 113.339 -3.63709 -5.33278 0
M  V30 1370 H 114.107 -5.61838 -5.95214 0
M  V30 1371 N 116.77 1.45427 -0.607355 0
M  V30 1372 C 117.717 2.3053 0.111625 0
M  V30 1373 C 118.687 1.4209 0.860216 0
M  V30 1374 O 119.872 1.71019 0.845998 0
M  V30 1375 C 117.012 3.26992 1.10319 0
M  V30 1376 C 116.125 4.30535 0.355493 0
M  V30 1377 C 115.26 5.14105 1.33676 0
M  V30 1378 C 114.299 6.09376 0.576862 0
M  V30 1379 N 113.436 6.85727 1.5074 0
M  V30 1380 H 118.276 2.91477 -0.620093 0
M  V30 1381 H 115.813 1.43631 -0.317594 0
M  V30 1382 H 117.771 3.81385 1.6912 0
M  V30 1383 H 116.401 2.67799 1.80232 0
M  V30 1384 H 115.453 3.78805 -0.348023 0
M  V30 1385 H 116.765 4.98235 -0.237423 0
M  V30 1386 H 115.919 5.72897 1.99684 0
M  V30 1387 H 114.658 4.46423 1.9636 0
M  V30 1388 H 113.663 5.49715 -0.0968519 0
M  V30 1389 H 114.888 6.79085 -0.0449341 0
M  V30 1390 H 112.834 6.20735 2.12189 0
M  V30 1391 H 112.751 7.49778 0.967913 0
M  V30 1392 H 114.019 7.4906 2.15706 0
M  V30 1393 N 118.248 0.346503 1.53744 0
M  V30 1394 C 119.195 -0.508914 2.25119 0
M  V30 1395 C 120.165 -1.09315 1.25058 0
M  V30 1396 O 121.35 -1.12921 1.53797 0
M  V30 1397 C 118.49 -1.65246 3.02965 0
M  V30 1398 C 117.603 -1.09525 4.17886 0
M  V30 1399 C 116.738 -2.20634 4.83212 0
M  V30 1400 C 115.777 -1.62279 5.90196 0
M  V30 1401 N 114.914 -2.67143 6.49291 0
M  V30 1402 H 119.754 0.106283 2.9781 0
M  V30 1403 H 117.291 0.0642227 1.4696 0
M  V30 1404 H 119.249 -2.32574 3.4636 0
M  V30 1405 H 117.879 -2.2386 2.32565 0
M  V30 1406 H 116.931 -0.312818 3.79112 0
M  V30 1407 H 118.243 -0.628444 4.94825 0
M  V30 1408 H 117.397 -2.95821 5.29693 0
M  V30 1409 H 116.136 -2.70659 4.05703 0
M  V30 1410 H 115.141 -0.855989 5.43096 0
M  V30 1411 H 116.366 -1.13102 6.69615 0
M  V30 1412 H 114.312 -3.16417 5.74645 0
M  V30 1413 H 114.229 -2.25093 7.21713 0
M  V30 1414 H 115.497 -3.4209 7.00425 0
M  V30 1415 N 119.726 -1.57421 0.075193 0
M  V30 1416 C 120.954 -1.97946 -0.602076 0
M  V30 1417 C 121.369 -0.953674 -1.62943 0
M  V30 1418 O 120.726 0.0592551 -1.82404 0
M  V30 1419 C 120.777 -3.38546 -1.26762 0
M  V30 1420 O 120.498 -4.37195 -0.281376 0
M  V30 1421 C 121.999 -3.93966 -2.03239 0
M  V30 1422 H 119.219 -0.650918 -0.162931 0
M  V30 1423 H 121.763 -2.03959 0.148601 0
M  V30 1424 H 119.918 -3.33609 -1.96936 0
M  V30 1425 H 120.332 -5.18975 -0.759267 0
M  V30 1426 H 121.806 -4.94555 -2.45193 0
M  V30 1427 H 122.283 -3.30693 -2.8903 0
M  V30 1428 H 122.889 -4.02315 -1.37924 0
M  V30 1429 N 121.204 0.198386 -1.56346 0
M  V30 1430 C 122.453 0.917451 -1.79627 0
M  V30 1431 C 122.766 1.8456 -0.64784 0
M  V30 1432 O 123.972 2.60504 -0.764859 0
M  V30 1433 C 122.428 1.68175 -3.18191 0
M  V30 1434 C 122.036 0.798589 -4.40825 0
M  V30 1435 C 123.78 2.39065 -3.50782 0
M  V30 1436 C 121.687 1.56157 -5.70411 0
M  V30 1437 H 120.617 0.346317 -0.669762 0
M  V30 1438 H 123.268 0.170801 -1.82703 0
M  V30 1439 H 121.65 2.47216 -3.09354 0
M  V30 1440 H 122.824 0.0470665 -4.60776 0
M  V30 1441 H 121.139 0.200686 -4.15916 0
M  V30 1442 H 123.736 2.96692 -4.44835 0
M  V30 1443 H 124.079 3.13091 -2.74371 0
M  V30 1444 H 124.612 1.66993 -3.61052 0
M  V30 1445 H 121.351 0.864142 -6.49779 0
M  V30 1446 H 120.871 2.2871 -5.54483 0
M  V30 1447 H 122.55 2.11622 -6.11412 0
M  V30 1448 N 122.682 1.50554 0.465978 0
M  V30 1449 C 123.629 1.6979 1.56333 0
M  V30 1450 C 124.599 0.539239 1.57103 0
M  V30 1451 O 125.784 0.770401 1.74555 0
M  V30 1452 C 122.924 1.80273 2.94271 0
M  V30 1453 C 122.037 3.07674 3.0325 0
M  V30 1454 C 121.172 3.08922 4.32135 0
M  V30 1455 C 120.211 4.30755 4.34875 0
M  V30 1456 N 119.348 4.29714 5.55239 0
M  V30 1457 H 124.188 2.63472 1.39235 0
M  V30 1458 H 121.725 1.30602 0.676873 0
M  V30 1459 H 123.683 1.84332 3.74269 0
M  V30 1460 H 122.313 0.900258 3.09992 0
M  V30 1461 H 121.365 3.13062 2.16094 0
M  V30 1462 H 122.677 3.97642 3.01135 0
M  V30 1463 H 121.831 3.11738 5.20485 0
M  V30 1464 H 120.57 2.16792 4.36866 0
M  V30 1465 H 119.575 4.28146 3.44922 0
M  V30 1466 H 120.8 5.24117 4.31831 0
M  V30 1467 H 118.746 3.4044 5.60746 0
M  V30 1468 H 118.663 5.13456 5.54886 0
M  V30 1469 H 119.931 4.36683 6.457 0
M  V30 1470 N 124.16 -0.719506 1.40217 0
M  V30 1471 C 125.406 -1.48152 1.38488 0
M  V30 1472 C 125.739 -1.94195 -0.0141867 0
M  V30 1473 O 125.014 -1.67884 -0.982096 0
M  V30 1474 C 125.297 -2.71035 2.37091 0
M  V30 1475 C 125.15 -2.30912 3.86005 0
M  V30 1476 C 126.469 -3.73182 2.33288 0
M  V30 1477 H 123.588 -0.537395 0.504357 0
M  V30 1478 H 126.23 -0.821472 1.71324 0
M  V30 1479 H 124.38 -3.27352 2.0922 0
M  V30 1480 H 126.052 -1.80107 4.24687 0
M  V30 1481 H 124.295 -1.62958 4.02029 0
M  V30 1482 H 124.966 -3.18978 4.50508 0
M  V30 1483 H 127.442 -3.26485 2.57966 0
M  V30 1484 H 126.318 -4.56806 3.04334 0
M  V30 1485 H 126.579 -4.21202 1.34317 0
M  V30 1486 N 125.638 -1.25649 -0.95132 0
M  V30 1487 C 126.57 -1.02112 -2.05197 0
M  V30 1488 C 127.583 0.0150571 -1.62793 0
M  V30 1489 O 128.772 -0.223874 -1.77091 0
M  V30 1490 C 125.872 -0.522361 -3.3485 0
M  V30 1491 C 125.045 -1.62546 -4.06076 0
M  V30 1492 C 124.104 -1.12649 -5.14001 0
M  V30 1493 O 123.13 -1.82156 -5.39266 0
M  V30 1494 N 124.332 0.03047 -5.80492 0
M  V30 1495 H 127.097 -1.96885 -2.25957 0
M  V30 1496 H 124.658 -1.16899 -1.1201 0
M  V30 1497 H 126.65 -0.172961 -4.0433 0
M  V30 1498 H 125.22 0.33151 -3.10837 0
M  V30 1499 H 124.44 -2.14628 -3.30649 0
M  V30 1500 H 125.728 -2.36644 -4.50419 0
M  V30 1501 H 125.126 0.611169 -5.62389 0
M  V30 1502 H 123.683 0.320875 -6.5101 0
M  V30 1503 N 127.117 1.15442 -1.07289 0
M  V30 1504 C 128.064 2.20161 -0.692653 0
M  V30 1505 C 129.034 1.63073 0.31564 0
M  V30 1506 O 130.219 1.89725 0.202235 0
M  V30 1507 C 127.359 3.44967 -0.0959509 0
M  V30 1508 C 126.472 4.16256 -1.15564 0
M  V30 1509 C 125.607 5.28609 -0.524011 0
M  V30 1510 C 124.646 5.91715 -1.56653 0
M  V30 1511 N 123.783 6.9554 -0.957531 0
M  V30 1512 H 128.623 2.52037 -1.59002 0
M  V30 1513 H 126.16 1.2378 -0.794798 0
M  V30 1514 H 128.118 4.16341 0.267628 0
M  V30 1515 H 126.748 3.1361 0.764772 0
M  V30 1516 H 125.8 3.43385 -1.6368 0
M  V30 1517 H 127.112 4.59268 -1.94613 0
M  V30 1518 H 126.266 6.06604 -0.108032 0
M  V30 1519 H 125.005 4.86787 0.29825 0
M  V30 1520 H 124.01 5.12433 -1.9923 0
M  V30 1521 H 125.235 6.35614 -2.39107 0
M  V30 1522 H 123.181 6.55814 -0.156162 0
M  V30 1523 H 123.098 7.36977 -1.68526 0
M  V30 1524 H 124.366 7.77435 -0.567032 0
M  V30 1525 N 128.595 0.856903 1.32268 0
M  V30 1526 C 129.558 0.308171 2.27119 0
M  V30 1527 C 130.558 -0.533421 1.51695 0
M  V30 1528 O 131.748 -0.344607 1.70757 0
M  V30 1529 C 128.88 -0.563757 3.36206 0
M  V30 1530 H 130.073 1.14535 2.77167 0
M  V30 1531 H 127.626 0.631421 1.42978 0
M  V30 1532 H 128.361 -1.42266 2.91429 0
M  V30 1533 H 128.146 0.0386749 3.92081 0
M  V30 1534 H 129.636 -0.940386 4.06874 0
M  V30 1535 N 130.073 -1.45103 0.615059 0
M  V30 1536 C 131.319 -2.02483 0.113347 0
M  V30 1537 C 131.652 -1.48146 -1.25564 0
M  V30 1538 O 130.927 -0.659104 -1.82992 0
M  V30 1539 C 131.21 -3.60005 0.0825278 0
M  V30 1540 C 131.063 -4.2466 1.48271 0
M  V30 1541 C 132.382 -4.35972 -0.601401 0
M  V30 1542 H 129.501 -0.735764 0.0426632 0
M  V30 1543 H 132.143 -1.72868 0.788461 0
M  V30 1544 H 130.293 -3.85367 -0.492378 0
M  V30 1545 H 131.965 -4.10458 2.10527 0
M  V30 1546 H 130.208 -3.82772 2.04127 0
M  V30 1547 H 130.879 -5.336 1.41332 0
M  V30 1548 H 133.355 -4.15947 -0.112666 0
M  V30 1549 H 132.231 -5.45697 -0.592097 0
M  V30 1550 H 132.492 -4.09391 -1.66887 0
M  V30 1551 N 131.551 -0.354651 -1.53558 0
M  V30 1552 C 132.791 0.238651 -2.03002 0
M  V30 1553 C 133.155 1.46878 -1.23656 0
M  V30 1554 O 134.356 2.13699 -1.63053 0
M  V30 1555 C 132.627 0.534175 -3.53386 0
M  V30 1556 S 134.186 1.10271 -4.24719 0
M  V30 1557 H 131.004 0.0702908 -0.707517 0
M  V30 1558 H 133.606 -0.494987 -1.8913 0
M  V30 1559 H 132.31 -0.368765 -4.0874 0
M  V30 1560 H 131.841 1.29718 -3.71398 0
M  V30 1561 H 133.856 2.38772 -4.34974 0
M  V30 1562 N 133.029 1.57378 -0.0835403 0
M  V30 1563 C 134.277 1.93547 0.581718 0
M  V30 1564 C 134.598 0.96524 1.69435 0
M  V30 1565 O 133.868 0.0153369 1.95894 0
M  V30 1566 H 132.448 0.714521 0.217874 0
M  V30 1567 H 135.11 1.94366 -0.144158 0
M  V30 1568 H 134.206 2.95665 0.999423 0
M  V30 1569 N 134.507 -0.190092 1.56449 0
M  V30 1570 C 135.437 -1.23816 1.97969 0
M  V30 1571 C 136.418 -1.47201 0.852395 0
M  V30 1572 O 137.603 -1.58854 1.1171 0
M  V30 1573 C 134.733 -2.5813 2.3235 0
M  V30 1574 C 133.687 -2.49348 3.47864 0
M  V30 1575 C 133.013 -3.8798 3.67934 0
M  V30 1576 C 134.313 -2.01424 4.81898 0
M  V30 1577 H 136.007 -0.89311 2.85769 0
M  V30 1578 H 133.553 -0.428177 1.37487 0
M  V30 1579 H 135.506 -3.31637 2.59991 0
M  V30 1580 H 134.23 -2.94386 1.41438 0
M  V30 1581 H 132.889 -1.78297 3.20321 0
M  V30 1582 H 132.537 -4.21597 2.74344 0
M  V30 1583 H 132.237 -3.82978 4.45648 0
M  V30 1584 H 133.761 -4.63101 3.97957 0
M  V30 1585 H 135.175 -2.64693 5.08538 0
M  V30 1586 H 133.572 -2.07413 5.63116 0
M  V30 1587 H 134.642 -0.967677 4.75146 0
M  V30 1588 N 135.985 -1.50799 -0.457987 0
M  V30 1589 C 137.213 -1.66218 -1.23203 0
M  V30 1590 C 137.628 -0.350894 -1.85511 0
M  V30 1591 O 136.985 0.668546 -1.69814 0
M  V30 1592 C 137.036 -2.76291 -2.33121 0
M  V30 1593 O 136.757 -4.02338 -1.73366 0
M  V30 1594 C 138.258 -3.028 -3.2377 0
M  V30 1595 H 135.478 -0.558361 -0.372121 0
M  V30 1596 H 138.022 -1.97099 -0.545179 0
M  V30 1597 H 136.177 -2.48068 -2.97558 0
M  V30 1598 H 136.591 -4.63312 -2.4585 0
M  V30 1599 H 138.065 -3.8345 -3.97077 0
M  V30 1600 H 138.542 -2.14385 -3.83322 0
M  V30 1601 H 139.148 -3.32604 -2.65056 0
M  V30 1602 N 137.463 0.71206 -1.40597 0
M  V30 1603 C 138.709 1.47416 -1.39271 0
M  V30 1604 C 139.042 1.942 0.00388791 0
M  V30 1605 O 138.317 1.68403 0.973179 0
M  V30 1606 C 138.6 2.69774 -2.38525 0
M  V30 1607 C 138.453 2.28861 -3.87224 0
M  V30 1608 C 139.772 3.71939 -2.35264 0
M  V30 1609 H 136.891 0.534713 -0.5072 0
M  V30 1610 H 139.533 0.812375 -1.71757 0
M  V30 1611 H 137.683 3.26238 -2.10953 0
M  V30 1612 H 139.355 1.77852 -4.25636 0
M  V30 1613 H 137.598 1.60824 -4.02887 0
M  V30 1614 H 138.269 3.16584 -4.52193 0
M  V30 1615 H 140.745 3.25113 -2.59694 0
M  V30 1616 H 139.621 4.55186 -3.06753 0
M  V30 1617 H 139.882 4.20484 -1.36549 0
M  V30 1618 N 138.941 1.26152 0.944643 0
M  V30 1619 C 139.851 1.09176 2.07648 0
M  V30 1620 C 140.867 0.0261935 1.7398 0
M  V30 1621 O 142.043 0.229208 2.00091 0
M  V30 1622 C 139.108 0.722915 3.39079 0
M  V30 1623 C 138.169 1.86752 3.86552 0
M  V30 1624 C 137.402 1.51617 5.11711 0
M  V30 1625 O 137.625 0.416331 5.68879 0
M  V30 1626 O 136.559 2.34975 5.54139 0
M  V30 1627 H 140.385 2.0412 2.24875 0
M  V30 1628 H 137.97 1.05182 1.061 0
M  V30 1629 H 139.852 0.529787 4.18056 0
M  V30 1630 H 138.527 -0.197159 3.23099 0
M  V30 1631 H 137.434 2.11558 3.08535 0
M  V30 1632 H 138.767 2.76719 4.07047 0
M  V30 1633 N 140.419 -1.14872 1.07899 0
M  V30 1634 C 141.696 -1.81928 0.71845 0
M  V30 1635 C 142.076 -1.95417 -0.798455 0
M  V30 1636 O 141.424 -1.50997 -1.715 0
M  V30 1637 C 141.634 -3.17937 1.43935 0
M  V30 1638 C 142.982 -3.93501 1.59506 0
M  V30 1639 O 144.006 -3.27509 1.40058 0
M  V30 1640 O 142.865 -5.1183 1.91551 0
M  V30 1641 H 139.959 -0.78628 0.256305 0
M  V30 1642 H 142.505 -1.21934 1.18026 0
M  V30 1643 H 141.277 -3.0325 2.47295 0
M  V30 1644 H 140.9 -3.85619 0.968687 0
M  V30 1645 N 141.898 -0.863906 -1.31812 0
M  V30 1646 C 143.147 -0.46801 -1.96195 0
M  V30 1647 C 143.46 0.983474 -1.69077 0
M  V30 1648 O 144.666 1.48523 -2.27273 0
M  V30 1649 C 143.122 -0.785995 -3.51212 0
M  V30 1650 C 142.73 -2.25383 -3.87178 0
M  V30 1651 C 144.474 -0.458274 -4.22019 0
M  V30 1652 C 142.381 -2.51455 -5.3528 0
M  V30 1653 H 141.311 -0.171283 -0.734287 0
M  V30 1654 H 143.962 -1.05597 -1.50072 0
M  V30 1655 H 142.344 -0.127359 -3.95795 0
M  V30 1656 H 143.518 -2.95502 -3.53575 0
M  V30 1657 H 141.833 -2.54698 -3.2942 0
M  V30 1658 H 144.43 -0.630369 -5.30971 0
M  V30 1659 H 144.773 0.600834 -4.11941 0
M  V30 1660 H 145.306 -1.07319 -3.8305 0
M  V30 1661 H 142.045 -3.56025 -5.50387 0
M  V30 1662 H 141.565 -1.85923 -5.70257 0
M  V30 1663 H 143.244 -2.35874 -6.02472 0
M  V30 1664 N 143.376 1.44774 -0.622745 0
M  V30 1665 C 144.792 1.56986 -0.287652 0
M  V30 1666 C 144.992 1.61167 1.20944 0
M  V30 1667 O 144.048 1.55015 1.99315 0
M  V30 1668 C 145.361 2.84551 -0.972188 0
M  V30 1669 C 146.909 2.9825 -0.949536 0
M  V30 1670 C 147.384 4.28605 -1.61437 0
M  V30 1671 N 148.875 4.35399 -1.58057 0
M  V30 1672 C 149.61 5.34964 -2.064 0
M  V30 1673 N 149.106 6.40981 -2.62897 0
M  V30 1674 N 150.899 5.26419 -1.97078 0
M  V30 1675 H 143.05 1.40304 -1.59463 0
M  V30 1676 H 145.313 0.671794 -0.668878 0
M  V30 1677 H 145.019 2.87417 -2.02693 0
M  V30 1678 H 144.893 3.73807 -0.504771 0
M  V30 1679 H 147.28 2.94941 0.0967067 0
M  V30 1680 H 147.361 2.10364 -1.45536 0
M  V30 1681 H 147.005 4.32672 -2.66002 0
M  V30 1682 H 146.935 5.15334 -1.08344 0
M  V30 1683 H 149.426 3.59397 -1.16801 0
M  V30 1684 H 149.739 7.13225 -2.97539 0
M  V30 1685 H 148.084 6.4169 -2.66943 0
M  V30 1686 H 151.275 4.42504 -1.52669 0
M  V30 1687 H 151.448 6.03861 -2.35066 0
M  V30 1688 N 144.854 0.36279 1.53368 0
M  V30 1689 C 145.802 -0.500155 2.27159 0
M  V30 1690 C 146.796 -1.08575 1.3003 0
M  V30 1691 O 148.002 -1.02927 1.47668 0
M  V30 1692 H 144.377 -0.180009 0.730138 0
M  V30 1693 H 146.348 0.14401 2.98052 0
M  V30 1694 C 145.097 -1.62937 3.07159 0
M  V30 1695 H 144.42 -1.18806 3.8174 0
M  V30 1696 H 145.86 -2.20795 3.61975 0
M  V30 1697 C 144.319 -2.57007 2.17829 0
M  V30 1698 O 144.849 -3.59752 1.78721 0
M  V30 1699 N 143.055 -2.26131 1.82518 0
M  V30 1700 H 142.602 -1.42616 2.14519 0
M  V30 1701 H 142.56 -2.89327 1.23034 0
M  V30 1702 N 146.332 -1.57332 0.0918853 0
M  V30 1703 C 147.748 -1.57389 -0.264766 0
M  V30 1704 C 147.948 -1.10281 -1.68643 0
M  V30 1705 O 147.004 -0.777801 -2.40222 0
M  V30 1706 C 148.317 -3.00648 -0.0561195 0
M  V30 1707 C 149.865 -3.12754 -0.124116 0
M  V30 1708 C 150.34 -4.57965 0.0564972 0
M  V30 1709 N 151.831 -4.632 0.00155611 0
M  V30 1710 C 152.566 -5.73281 0.116598 0
M  V30 1711 N 152.062 -6.92208 0.286294 0
M  V30 1712 N 153.855 -5.6207 0.0580973 0
M  V30 1713 H 146.006 -1.86262 1.02079 0
M  V30 1714 H 148.269 -0.859579 0.399786 0
M  V30 1715 H 147.975 -3.393 0.925669 0
M  V30 1716 H 147.849 -3.68623 -0.799823 0
M  V30 1717 H 150.236 -2.73976 -1.09641 0
M  V30 1718 H 150.317 -2.47377 0.651024 0
M  V30 1719 H 149.961 -4.97436 1.02564 0
M  V30 1720 H 149.891 -5.21399 -0.738297 0
M  V30 1721 H 152.382 -3.77686 -0.127192 0
M  V30 1722 H 152.695 -7.71934 0.365676 0
M  V30 1723 H 151.04 -6.94254 0.32192 0
M  V30 1724 H 154.231 -4.68043 -0.0733204 0
M  V30 1725 H 154.404 -6.47824 0.151203 0
M  V30 1726 N 147.81 0.181792 -1.56548 0
M  V30 1727 C 148.757 1.22521 -1.95595 0
M  V30 1728 C 149.727 1.4454 -0.818373 0
M  V30 1729 O 150.912 1.57454 -1.07763 0
M  V30 1730 C 148.052 2.56193 -2.31212 0
M  V30 1731 C 147.165 2.41641 -3.58097 0
M  V30 1732 C 146.3 3.68108 -3.82975 0
M  V30 1733 C 145.339 3.48445 -5.03242 0
M  V30 1734 N 144.476 4.66956 -5.24306 0
M  V30 1735 H 149.316 0.885226 -2.84548 0
M  V30 1736 H 146.853 0.425718 -1.40805 0
M  V30 1737 H 148.811 3.34088 -2.49882 0
M  V30 1738 H 147.441 2.88208 -1.45382 0
M  V30 1739 H 146.493 1.54976 -3.474 0
M  V30 1740 H 147.805 2.23052 -4.46149 0
M  V30 1741 H 146.959 4.54441 -4.01956 0
M  V30 1742 H 145.698 3.89666 -2.93278 0
M  V30 1743 H 144.703 2.60499 -4.8417 0
M  V30 1744 H 145.928 3.2832 -5.9446 0
M  V30 1745 H 143.874 4.88752 -4.37559 0
M  V30 1746 H 143.791 4.51242 -6.06561 0
M  V30 1747 H 145.059 5.54602 -5.47756 0
M  V30 1748 N 149.288 1.51039 0.449983 0
M  V30 1749 C 150.251 1.70863 1.5277 0
M  V30 1750 C 151.251 0.578846 1.5002 0
M  V30 1751 O 152.441 0.846213 1.52266 0
M  V30 1752 C 149.573 1.75341 2.9235 0
M  V30 1753 H 150.766 2.67034 1.36502 0
M  V30 1754 H 148.319 1.40838 0.677812 0
M  V30 1755 H 149.054 0.809383 3.14037 0
M  V30 1756 H 148.839 2.57436 2.95752 0
M  V30 1757 H 150.329 1.92559 3.70555 0
M  V30 1758 N 150.766 -0.704594 1.40972 0
M  V30 1759 C 151.996 -1.49138 1.42974 0
M  V30 1760 C 152.404 -1.89175 0.0308406 0
M  V30 1761 O 151.747 -1.56734 -0.958138 0
M  V30 1762 C 151.809 -2.79016 2.26694 0
M  V30 1763 C 151.473 -2.61236 3.74973 0
M  V30 1764 C 152.47 -2.27773 4.67349 0
M  V30 1765 C 150.155 -2.77158 4.18914 0
M  V30 1766 C 152.149 -2.10457 6.01653 0
M  V30 1767 C 149.836 -2.59459 5.53285 0
M  V30 1768 C 150.834 -2.26158 6.4447 0
M  V30 1769 O 150.522 -2.08605 7.76363 0
M  V30 1770 H 150.254 -0.466443 0.489292 0
M  V30 1771 H 152.808 -0.8758 1.85793 0
M  V30 1772 H 151.038 -3.42947 1.78673 0
M  V30 1773 H 152.727 -3.40782 2.20504 0
M  V30 1774 H 153.493 -2.15095 4.34694 0
M  V30 1775 H 149.372 -3.02064 3.48251 0
M  V30 1776 H 152.916 -1.84387 6.72791 0
M  V30 1777 H 148.813 -2.71725 5.85522 0
M  V30 1778 H 149.581 -2.23439 7.87412 0
M  V30 1779 N 152.244 -1.26651 -0.937939 0
M  V30 1780 C 153.49 -1.12553 -1.687 0
M  V30 1781 C 153.823 0.329782 -1.91379 0
M  V30 1782 O 153.098 1.24202 -1.4968 0
M  V30 1783 C 153.381 -1.89862 -3.05981 0
M  V30 1784 C 153.234 -3.43318 -2.90607 0
M  V30 1785 C 154.553 -1.69499 -4.0615 0
M  V30 1786 H 151.672 -0.410257 -0.612257 0
M  V30 1787 H 154.314 -1.55685 -1.08913 0
M  V30 1788 H 152.464 -1.53204 -3.57017 0
M  V30 1789 H 154.136 -3.89747 -2.46769 0
M  V30 1790 H 152.379 -3.70179 -2.26164 0
M  V30 1791 H 153.05 -3.92642 -3.8799 0
M  V30 1792 H 155.526 -2.01442 -3.64088 0
M  V30 1793 H 154.402 -2.26002 -5.00214 0
M  V30 1794 H 154.663 -0.640365 -4.37438 0
M  V30 1795 N 153.722 1.14298 -1.08507 0
M  V30 1796 C 154.654 2.1907 -0.673859 0
M  V30 1797 C 155.667 1.60381 0.279577 0
M  V30 1798 O 156.856 1.78374 0.0670754 0
M  V30 1799 C 153.956 3.38888 0.0290979 0
M  V30 1800 C 153.129 4.27103 -0.943494 0
M  V30 1801 C 152.188 5.25477 -0.275676 0
M  V30 1802 O 151.214 5.61709 -0.920401 0
M  V30 1803 N 152.416 5.7227 0.974013 0
M  V30 1804 H 155.181 2.54965 -1.57521 0
M  V30 1805 H 152.742 1.29528 -0.971287 0
M  V30 1806 H 154.734 4.01761 0.48683 0
M  V30 1807 H 153.304 3.01309 0.832555 0
M  V30 1808 H 152.524 3.61149 -1.58004 0
M  V30 1809 H 153.812 4.82905 -1.60251 0
M  V30 1810 H 153.21 5.44965 1.51755 0
M  V30 1811 H 151.767 6.37127 1.37522 0
M  V30 1812 N 155.201 0.870884 1.31352 0
M  V30 1813 C 156.426 0.495957 2.01383 0
M  V30 1814 C 156.851 -0.904324 1.64935 0
M  V30 1815 O 156.209 -1.59687 0.858466 0
M  V30 1816 C 156.257 0.661433 3.54482 0
M  V30 1817 O 155.361 -0.298851 4.11316 0
M  V30 1818 H 154.702 0.197158 0.634054 0
M  V30 1819 H 157.232 1.17455 1.67527 0
M  V30 1820 H 157.242 0.555072 4.04207 0
M  V30 1821 H 155.917 1.68246 3.8035 0
M  V30 1822 H 154.494 -0.147368 3.72609 0
M  V30 1823 N 156.679 -1.44442 0.630414 0
M  V30 1824 C 157.928 -2.01267 0.132073 0
M  V30 1825 C 158.241 -1.50172 -1.25331 0
M  V30 1826 O 159.447 -1.9912 -1.84562 0
M  V30 1827 C 157.903 -3.59422 0.185362 0
M  V30 1828 C 157.511 -4.19514 1.57201 0
M  V30 1829 C 159.255 -4.23724 -0.256553 0
M  V30 1830 C 157.162 -5.69891 1.58045 0
M  V30 1831 H 156.092 -0.752619 0.0456092 0
M  V30 1832 H 158.743 -1.65666 0.789106 0
M  V30 1833 H 157.125 -3.92318 -0.538759 0
M  V30 1834 H 158.299 -3.98156 2.31966 0
M  V30 1835 H 156.614 -3.67496 1.95795 0
M  V30 1836 H 159.211 -5.34019 -0.269767 0
M  V30 1837 H 159.554 -3.96013 -1.28372 0
M  V30 1838 H 160.087 -3.95629 0.41505 0
M  V30 1839 H 156.826 -6.02336 2.58597 0
M  V30 1840 H 156.346 -5.93373 0.875725 0
M  V30 1841 H 158.025 -6.33515 1.31408 0
M  V30 1842 N 158.157 -0.370918 -1.53173 0
M  V30 1843 C 159.067 0.480823 -2.2962 0
M  V30 1844 C 160.083 1.08789 -1.35798 0
M  V30 1845 O 161.259 1.09768 -1.68858 0
M  V30 1846 C 158.324 1.60227 -3.07454 0
M  V30 1847 C 157.385 1.0222 -4.16953 0
M  V30 1848 C 156.618 2.0902 -4.91066 0
M  V30 1849 O 156.841 3.30222 -4.65091 0
M  V30 1850 O 155.775 1.71778 -5.76867 0
M  V30 1851 H 159.601 -0.141421 -3.03371 0
M  V30 1852 H 157.186 -0.135146 -1.48787 0
M  V30 1853 H 159.068 2.25417 -3.56041 0
M  V30 1854 H 157.743 2.20982 -2.36535 0
M  V30 1855 H 156.65 0.334064 -3.72605 0
M  V30 1856 H 157.983 0.459131 -4.90054 0
M  V30 1857 N 159.635 1.57281 -0.100228 0
M  V30 1858 C 160.598 2.13158 0.842398 0
M  V30 1859 C 161.598 1.06202 1.20738 0
M  V30 1860 O 162.788 1.32066 1.13597 0
M  V30 1861 C 159.92 2.65639 2.13655 0
M  V30 1862 H 161.113 2.97766 0.357114 0
M  V30 1863 H 158.666 1.5559 0.148823 0
M  V30 1864 H 159.401 1.84566 2.66657 0
M  V30 1865 H 159.186 3.43844 1.88451 0
M  V30 1866 H 160.676 3.08846 2.81077 0
M  V30 1867 N 161.113 -0.173488 1.56642 0
M  V30 1868 C 162.06 -1.21482 1.96242 0
M  V30 1869 C 163.03 -1.44104 0.826027 0
M  V30 1870 O 164.215 -1.5688 1.08597 0
M  V30 1871 C 161.355 -2.54964 2.32567 0
M  V30 1872 C 160.468 -2.39739 3.59373 0
M  V30 1873 C 159.603 -3.66072 3.84921 0
M  V30 1874 C 158.642 -3.45771 5.05083 0
M  V30 1875 N 157.779 -4.64169 5.26775 0
M  V30 1876 H 162.619 -0.870123 2.85014 0
M  V30 1877 H 160.156 -0.418245 1.41029 0
M  V30 1878 H 162.114 -3.32758 2.5165 0
M  V30 1879 H 160.744 -2.87433 1.46908 0
M  V30 1880 H 159.796 -1.53131 3.48217 0
M  V30 1881 H 161.108 -2.20683 4.47326 0
M  V30 1882 H 160.262 -4.52303 4.0436 0
M  V30 1883 H 159.001 -3.88105 2.9534 0
M  V30 1884 H 158.006 -2.57927 4.85545 0
M  V30 1885 H 159.231 -3.25163 5.96193 0
M  V30 1886 H 157.177 -4.86425 4.40144 0
M  V30 1887 H 157.094 -4.48019 6.08946 0
M  V30 1888 H 158.362 -5.51689 5.5069 0
M  V30 1889 N 162.591 -1.51276 -0.441967 0
M  V30 1890 C 163.539 -1.72823 -1.55676 0
M  V30 1891 C 164.533 -0.59445 -1.58627 0
M  V30 1892 O 165.739 -0.775715 -1.62427 0
M  V30 1893 H 162.114 -0.545983 -0.517113 0
M  V30 1894 H 164.085 -2.6628 -1.34675 0
M  V30 1895 C 162.834 -1.86619 -2.93375 0
M  V30 1896 H 162.157 -2.73264 -2.91834 0
M  V30 1897 H 163.597 -2.05709 -3.70756 0
M  V30 1898 C 162.056 -0.624842 -3.31055 0
M  V30 1899 O 162.586 0.222636 -4.01083 0
M  V30 1900 N 160.792 -0.470288 -2.86769 0
M  V30 1901 H 160.339 -1.161 -2.29953 0
M  V30 1902 H 160.297 0.359051 -3.12343 0
M  V30 1903 N 164.069 0.697108 -1.41344 0
M  V30 1904 C 165.016 1.81106 -1.43071 0
M  V30 1905 C 165.986 1.63632 -0.285275 0
M  V30 1906 O 167.171 1.84504 -0.486091 0
M  V30 1907 C 164.311 3.18975 -1.31715 0
M  V30 1908 C 163.424 3.47892 -2.56115 0
M  V30 1909 C 162.559 4.75367 -2.37064 0
M  V30 1910 C 161.598 4.97247 -3.56948 0
M  V30 1911 N 160.735 6.15947 -3.36977 0
M  V30 1912 H 165.575 1.78965 -2.38276 0
M  V30 1913 H 163.112 0.873975 -1.18322 0
M  V30 1914 H 165.07 3.98615 -1.23133 0
M  V30 1915 H 163.7 3.20297 -0.401183 0
M  V30 1916 H 162.752 2.62669 -2.75153 0
M  V30 1917 H 164.064 3.59962 -3.45295 0
M  V30 1918 H 163.218 5.63059 -2.25941 0
M  V30 1919 H 161.957 4.65541 -1.45338 0
M  V30 1920 H 160.962 4.08004 -3.68527 0
M  V30 1921 H 162.187 5.08934 -4.49626 0
M  V30 1922 H 160.133 6.07336 -2.47949 0
M  V30 1923 H 160.05 6.28777 -4.19732 0
M  V30 1924 H 161.318 7.06377 -3.29623 0
M  V30 1925 N 165.547 1.27147 0.931209 0
M  V30 1926 C 166.51 1.09615 2.01289 0
M  V30 1927 C 167.51 0.0412581 1.60747 0
M  V30 1928 O 168.7 0.285545 1.71844 0
M  V30 1929 C 165.832 0.669447 3.34262 0
M  V30 1930 H 167.025 2.05662 2.18273 0
M  V30 1931 H 164.578 1.09885 1.11153 0
M  V30 1932 H 165.313 -0.292572 3.22978 0
M  V30 1933 H 165.098 1.43127 3.65044 0
M  V30 1934 H 166.588 0.568921 4.13706 0
M  V30 1935 N 167.025 -1.13721 1.09112 0
M  V30 1936 C 167.972 -2.19031 0.727591 0
M  V30 1937 C 168.942 -1.63555 -0.289656 0
M  V30 1938 O 170.127 -1.90023 -0.172026 0
M  V30 1939 C 167.267 -3.4477 0.15082 0
M  V30 1940 C 166.38 -4.14365 1.22172 0
M  V30 1941 C 165.515 -5.27709 0.608042 0
M  V30 1942 C 164.554 -5.89147 1.66047 0
M  V30 1943 N 163.691 -6.93929 1.06806 0
M  V30 1944 H 168.531 -2.49475 1.62991 0
M  V30 1945 H 166.068 -1.22499 0.81439 0
M  V30 1946 H 168.026 -4.16714 -0.201358 0
M  V30 1947 H 166.656 -3.14787 -0.714783 0
M  V30 1948 H 165.708 -3.40737 1.69122 0
M  V30 1949 H 167.02 -4.56114 2.01895 0
M  V30 1950 H 166.174 -6.06355 0.204523 0
M  V30 1951 H 164.913 -4.872 -0.220769 0
M  V30 1952 H 163.918 -5.09198 2.07357 0
M  V30 1953 H 165.143 -6.31729 2.49189 0
M  V30 1954 H 163.089 -6.55483 0.260476 0
M  V30 1955 H 163.006 -7.34202 1.8023 0
M  V30 1956 H 164.274 -7.76434 0.690644 0
M  V30 1957 N 168.503 -0.877838 -1.30888 0
M  V30 1958 C 169.75 -0.492696 -1.96415 0
M  V30 1959 C 170.078 0.956671 -1.69346 0
M  V30 1960 O 169.333 1.68993 -0.986913 0
M  V30 1961 C 169.632 -0.705748 -3.50363 0
M  V30 1962 C 169.298 -2.1291 -3.97467 0
M  V30 1963 C 167.96 -2.51834 -4.1004 0
M  V30 1964 C 170.312 -3.05702 -4.22132 0
M  V30 1965 C 167.64 -3.82775 -4.44635 0
M  V30 1966 C 169.992 -4.36166 -4.58194 0
M  V30 1967 C 168.656 -4.74993 -4.68975 0
M  V30 1968 H 167.926 -0.18029 -0.718733 0
M  V30 1969 H 170.573 -1.11233 -1.55883 0
M  V30 1970 H 168.878 -0.00303058 -3.918 0
M  V30 1971 H 170.575 -0.387456 -3.99124 0
M  V30 1972 H 167.165 -1.81694 -3.88182 0
M  V30 1973 H 171.349 -2.76853 -4.11906 0
M  V30 1974 H 166.605 -4.12609 -4.51181 0
M  V30 1975 H 170.779 -5.08111 -4.76231 0
M  V30 1976 H 168.406 -5.76495 -4.95537 0
M  V30 1977 N 169.982 1.44106 -0.638065 0
M  V30 1978 C 171.23 2.01579 -0.145043 0
M  V30 1979 C 171.551 1.50496 1.24 0
M  V30 1980 O 170.821 0.711374 1.82527 0
M  V30 1981 H 169.401 0.745282 -0.05063 0
M  V30 1982 H 172.063 1.76516 -0.826327 0
M  V30 1983 H 171.159 3.11877 -0.118039 0
M  V30 1984 N 171.46 0.379036 1.52974 0
M  V30 1985 C 172.688 -0.20679 2.05864 0
M  V30 1986 C 173.103 -1.41356 1.25155 0
M  V30 1987 O 172.46 -1.8009 0.295588 0
M  V30 1988 C 172.511 -0.587045 3.56702 0
M  V30 1989 O 172.232 0.571776 4.34353 0
M  V30 1990 C 173.733 -1.22983 4.25899 0
M  V30 1991 H 170.953 -0.0336123 0.670158 0
M  V30 1992 H 173.497 0.541298 1.97206 0
M  V30 1993 H 171.652 -1.28504 3.65466 0
M  V30 1994 H 172.066 0.261544 5.23847 0
M  V30 1995 H 173.54 -1.44635 5.32715 0
M  V30 1996 H 174.017 -2.19416 3.80465 0
M  V30 1997 H 174.623 -0.572892 4.21424 0
M  V30 1998 N 172.938 -1.57226 0.108567 0
M  V30 1999 C 173.885 -2.14756 -0.845481 0
M  V30 2000 C 174.855 -1.06971 -1.27068 0
M  V30 2001 O 176.04 -1.34827 -1.35005 0
M  V30 2002 C 173.18 -2.74298 -2.09415 0
M  V30 2003 C 172.293 -3.96358 -1.71826 0
M  V30 2004 C 171.428 -4.44021 -2.9158 0
M  V30 2005 C 170.467 -5.58637 -2.50181 0
M  V30 2006 N 169.604 -6.01091 -3.62814 0
M  V30 2007 H 174.444 -2.95961 -0.348035 0
M  V30 2008 H 171.981 -1.46226 -0.160106 0
M  V30 2009 H 173.939 -3.06945 -2.82561 0
M  V30 2010 H 172.569 -1.95801 -2.56636 0
M  V30 2011 H 171.621 -3.69939 -0.885947 0
M  V30 2012 H 172.933 -4.79504 -1.37394 0
M  V30 2013 H 172.087 -4.78522 -3.72963 0
M  V30 2014 H 170.826 -3.59803 -3.29231 0
M  V30 2015 H 169.831 -5.23751 -1.67228 0
M  V30 2016 H 171.056 -6.44613 -2.13659 0
M  V30 2017 H 169.002 -5.19817 -4.00158 0
M  V30 2018 H 168.919 -6.79066 -3.32273 0
M  V30 2019 H 170.187 -6.40227 -4.44668 0
M  V30 2020 N 174.416 0.165178 -1.56732 0
M  V30 2021 C 175.326 1.22423 -2.00125 0
M  V30 2022 C 176.342 1.48084 -0.913619 0
M  V30 2023 O 177.518 1.60112 -1.22172 0
M  V30 2024 C 174.583 2.54197 -2.35764 0
M  V30 2025 C 173.644 2.36343 -3.58386 0
M  V30 2026 C 172.877 3.61834 -3.92316 0
M  V30 2027 O 173.1 4.67267 -3.27135 0
M  V30 2028 O 172.034 3.55579 -4.85641 0
M  V30 2029 H 175.86 0.885886 -2.90492 0
M  V30 2030 H 173.445 0.372518 -1.44681 0
M  V30 2031 H 175.327 3.3192 -2.59629 0
M  V30 2032 H 174.002 2.87598 -1.48557 0
M  V30 2033 H 172.909 1.56632 -3.39731 0
M  V30 2034 H 174.242 2.07865 -4.46154 0
M  V30 2035 N 175.894 1.51508 0.433938 0
M  V30 2036 C 176.841 1.73068 1.52696 0
M  V30 2037 C 177.811 0.572441 1.55924 0
M  V30 2038 O 178.996 0.807253 1.72882 0
M  V30 2039 C 176.136 1.86474 2.90381 0
M  V30 2040 C 175.249 3.14037 2.96656 0
M  V30 2041 C 174.384 3.18019 4.25485 0
M  V30 2042 C 173.423 4.39882 4.2564 0
M  V30 2043 N 172.56 4.41394 5.45999 0
M  V30 2044 H 177.4 2.66366 1.33615 0
M  V30 2045 H 174.937 1.32008 0.649018 0
M  V30 2046 H 176.895 1.92229 3.70275 0
M  V30 2047 H 175.525 0.965809 3.08013 0
M  V30 2048 H 174.577 3.17575 2.09404 0
M  V30 2049 H 175.889 4.0394 2.92633 0
M  V30 2050 H 175.043 3.22708 5.13755 0
M  V30 2051 H 173.782 2.2601 4.3217 0
M  V30 2052 H 172.787 4.35366 3.35763 0
M  V30 2053 H 174.012 5.33159 4.20617 0
M  V30 2054 H 171.958 3.52258 5.53399 0
M  V30 2055 H 171.875 5.25111 5.4387 0
M  V30 2056 H 173.143 4.50281 6.36292 0
M  V30 2057 N 177.372 -0.689602 1.41712 0
M  V30 2058 C 178.282 -1.83314 1.46401 0
M  V30 2059 C 179.298 -1.7036 0.35405 0
M  V30 2060 O 180.474 -1.92171 0.602692 0
M  V30 2061 C 177.539 -3.19344 1.34982 0
M  V30 2062 C 176.6 -3.44363 2.56344 0
M  V30 2063 C 175.833 -4.73904 2.45461 0
M  V30 2064 O 176.056 -5.508 1.48241 0
M  V30 2065 O 174.99 -4.99839 3.35328 0
M  V30 2066 H 178.816 -1.82314 2.42889 0
M  V30 2067 H 176.401 -0.843438 1.23315 0
M  V30 2068 H 178.283 -4.00547 1.3092 0
M  V30 2069 H 176.958 -3.21014 0.41612 0
M  V30 2070 H 175.865 -2.63067 2.65982 0
M  V30 2071 H 177.198 -3.47512 3.48563 0
M  V30 2072 N 178.85 -1.27639 -0.924453 0
M  V30 2073 C 180.127 -1.04887 -1.651 0
M  V30 2074 C 180.507 0.415327 -2.06974 0
M  V30 2075 O 179.855 1.39923 -1.80648 0
M  V30 2076 C 180.065 -2.01348 -2.85061 0
M  V30 2077 C 181.413 -2.30899 -3.56329 0
M  V30 2078 O 182.437 -1.99348 -2.95193 0
M  V30 2079 O 181.296 -2.84699 -4.66485 0
M  V30 2080 H 178.39 -0.400083 -0.723784 0
M  V30 2081 H 180.936 -1.38916 -0.974703 0
M  V30 2082 H 179.708 -3.0008 -2.51133 0
M  V30 2083 H 179.331 -1.679 -3.6041 0
M  V30 2084 N 180.328 1.1314 -1.09713 0
M  V30 2085 C 181.275 2.18642 -0.739196 0
M  V30 2086 C 182.245 1.63706 0.280978 0
M  V30 2087 O 183.43 1.90111 0.161946 0
M  V30 2088 C 180.57 3.44685 -0.169102 0
M  V30 2089 C 179.683 4.13711 -1.24367 0
M  V30 2090 C 178.818 5.27379 -0.636019 0
M  V30 2091 C 177.857 5.88259 -1.69169 0
M  V30 2092 N 176.994 6.93352 -1.10485 0
M  V30 2093 H 181.834 2.48607 -1.64312 0
M  V30 2094 H 179.371 1.22066 -0.820875 0
M  V30 2095 H 181.329 4.16815 0.179256 0
M  V30 2096 H 179.959 3.15161 0.698079 0
M  V30 2097 H 179.011 3.39835 -1.70927 0
M  V30 2098 H 180.323 4.55037 -2.04311 0
M  V30 2099 H 179.477 6.06238 -0.236677 0
M  V30 2100 H 178.216 4.8731 0.194928 0
M  V30 2101 H 177.221 5.08092 -2.10055 0
M  V30 2102 H 178.446 6.30399 -2.52536 0
M  V30 2103 H 176.392 6.55335 -0.295234 0
M  V30 2104 H 176.309 7.33236 -1.84121 0
M  V30 2105 H 177.577 7.76057 -0.73181 0
M  V30 2106 N 181.806 0.884767 1.30421 0
M  V30 2107 C 182.753 0.349642 2.28136 0
M  V30 2108 C 183.723 -0.560061 1.56373 0
M  V30 2109 O 184.908 -0.488524 1.8444 0
M  V30 2110 C 182.048 -0.42999 3.42411 0
M  V30 2111 C 181.161 0.508907 4.28992 0
M  V30 2112 C 180.296 -0.286301 5.30428 0
M  V30 2113 C 179.335 0.648079 6.08659 0
M  V30 2114 N 178.472 -0.111792 7.02011 0
M  V30 2115 H 183.312 1.18807 2.73293 0
M  V30 2116 H 180.849 0.597231 1.3443 0
M  V30 2117 H 182.807 -0.897923 4.07423 0
M  V30 2118 H 181.437 -1.23299 2.98324 0
M  V30 2119 H 180.489 1.09533 3.64289 0
M  V30 2120 H 181.801 1.22475 4.8353 0
M  V30 2121 H 180.955 -0.816098 6.01186 0
M  V30 2122 H 179.694 -1.03536 4.76583 0
M  V30 2123 H 178.699 1.18951 5.36778 0
M  V30 2124 H 179.924 1.39623 6.64592 0
M  V30 2125 H 177.87 -0.843395 6.50556 0
M  V30 2126 H 177.787 0.544429 7.54037 0
M  V30 2127 H 179.055 -0.622339 7.77012 0
M  V30 2128 N 183.284 -1.43765 0.645699 0
M  V30 2129 C 184.231 -2.30745 -0.0504648 0
M  V30 2130 C 185.201 -1.4432 -0.822241 0
M  V30 2131 O 186.386 -1.73202 -0.800358 0
M  V30 2132 C 183.526 -3.29802 -1.0161 0
M  V30 2133 C 182.639 -4.31326 -0.241219 0
M  V30 2134 C 181.774 -5.17469 -1.19998 0
M  V30 2135 C 180.813 -6.10691 -0.415094 0
M  V30 2136 N 179.95 -6.89483 -1.32506 0
M  V30 2137 H 184.79 -2.8973 0.697155 0
M  V30 2138 H 182.327 -1.42738 0.355563 0
M  V30 2139 H 184.285 -3.85734 -1.58949 0
M  V30 2140 H 182.915 -2.72483 -1.73069 0
M  V30 2141 H 181.967 -3.77749 0.448334 0
M  V30 2142 H 183.279 -4.9743 0.369437 0
M  V30 2143 H 182.433 -5.7799 -1.84424 0
M  V30 2144 H 181.172 -4.51473 -1.84455 0
M  V30 2145 H 180.177 -5.49265 0.242565 0
M  V30 2146 H 181.402 -6.78727 0.224966 0
M  V30 2147 H 179.348 -6.26142 -1.95657 0
M  V30 2148 H 179.265 -7.52081 -0.768783 0
M  V30 2149 H 180.533 -7.54516 -1.9577 0
M  V30 2150 N 184.763 -0.387143 -1.52771 0
M  V30 2151 C 185.991 0.195869 -2.05971 0
M  V30 2152 C 186.406 1.40691 -1.25903 0
M  V30 2153 O 185.763 1.79931 -0.305134 0
M  V30 2154 C 185.814 0.56812 -3.57008 0
M  V30 2155 O 185.535 -0.594803 -4.34043 0
M  V30 2156 C 187.036 1.20723 -4.26545 0
M  V30 2157 H 184.256 0.0300578 -0.670326 0
M  V30 2158 H 186.8 -0.551749 -1.96916 0
M  V30 2159 H 184.955 1.26564 -3.66143 0
M  V30 2160 H 185.369 -0.289322 -5.23701 0
M  V30 2161 H 186.843 1.41807 -5.33474 0
M  V30 2162 H 187.32 2.17395 -3.81623 0
M  V30 2163 H 187.926 0.550535 -4.21722 0
M  V30 2164 N 186.241 1.57166 -0.116904 0
M  V30 2165 C 187.188 2.15202 0.83408 0
M  V30 2166 C 188.158 1.07644 1.26499 0
M  V30 2167 O 189.343 1.35541 1.34288 0
M  V30 2168 C 186.483 2.75405 2.07957 0
M  V30 2169 C 185.596 3.97264 1.69721 0
M  V30 2170 C 184.731 4.45561 2.89221 0
M  V30 2171 C 183.77 5.59956 2.47215 0
M  V30 2172 N 182.907 6.03006 3.59622 0
M  V30 2173 H 187.747 2.96141 0.332335 0
M  V30 2174 H 185.284 1.46309 0.152349 0
M  V30 2175 H 187.242 3.08439 2.80929 0
M  V30 2176 H 185.872 1.97159 2.55594 0
M  V30 2177 H 184.924 3.70404 0.866316 0
M  V30 2178 H 186.236 4.80226 1.34849 0
M  V30 2179 H 185.39 4.80493 3.7042 0
M  V30 2180 H 184.129 3.61544 3.27318 0
M  V30 2181 H 183.134 5.2463 1.64448 0
M  V30 2182 H 184.359 6.45738 2.10238 0
M  V30 2183 H 182.305 5.21931 3.97396 0
M  V30 2184 H 182.222 6.80819 3.28667 0
M  V30 2185 H 183.49 6.42576 4.41267 0
M  V30 2186 N 187.719 -0.156864 1.56817 0
M  V30 2187 C 188.996 -0.899244 1.73704 0
M  V30 2188 C 189.376 -1.99771 0.682254 0
M  V30 2189 O 188.724 -2.26515 -0.300522 0
M  V30 2190 C 188.934 -1.45075 3.17418 0
M  V30 2191 C 190.282 -1.91802 3.7881 0
M  V30 2192 O 191.306 -1.54838 3.20786 0
M  V30 2193 O 190.165 -2.5994 4.80722 0
M  V30 2194 H 187.259 -0.424267 0.709878 0
M  V30 2195 H 189.805 -0.143561 1.69092 0
M  V30 2196 H 188.577 -0.660846 3.85679 0
M  V30 2197 H 188.2 -2.27021 3.26416 0
M  V30 2198 N 189.197 -1.51736 -0.425897 0
M  V30 2199 C 190.474 -1.55519 -1.1863 0
M  V30 2200 C 190.854 -0.326219 -2.08564 0
M  V30 2201 O 190.202 0.688012 -2.17896 0
M  V30 2202 C 190.412 -2.87521 -1.9782 0
M  V30 2203 C 191.76 -3.39899 -2.54468 0
M  V30 2204 O 192.784 -2.89148 -2.08019 0
M  V30 2205 O 191.643 -4.2848 -3.39215 0
M  V30 2206 H 188.737 -0.625739 -0.540721 0
M  V30 2207 H 191.283 -1.64055 -0.434038 0
M  V30 2208 H 190.055 -3.68422 -1.31836 0
M  V30 2209 H 189.678 -2.822 -2.80088 0
M  V30 2210 N 190.675 0.682077 -1.42076 0
M  V30 2211 C 191.622 1.79578 -1.44984 0
M  V30 2212 C 192.592 1.6332 -0.302614 0
M  V30 2213 O 193.777 1.83978 -0.505633 0
M  V30 2214 C 190.917 3.1756 -1.35091 0
M  V30 2215 C 190.03 3.45156 -2.59791 0
M  V30 2216 C 189.165 4.72826 -2.42093 0
M  V30 2217 C 188.204 4.93433 -3.62202 0
M  V30 2218 N 187.341 6.12338 -3.43491 0
M  V30 2219 H 192.181 1.76427 -2.40161 0
M  V30 2220 H 189.718 0.861376 -1.19242 0
M  V30 2221 H 191.676 3.97287 -1.27354 0
M  V30 2222 H 190.306 3.19854 -0.435133 0
M  V30 2223 H 189.358 2.59736 -2.77923 0
M  V30 2224 H 190.67 3.5628 -3.49094 0
M  V30 2225 H 189.824 5.60631 -2.319 0
M  V30 2226 H 188.563 4.63973 -1.50268 0
M  V30 2227 H 187.568 4.04073 -3.72834 0
M  V30 2228 H 188.793 5.04136 -4.54998 0
M  V30 2229 H 186.739 6.04672 -2.54377 0
M  V30 2230 H 186.656 6.2429 -4.26377 0
M  V30 2231 H 187.924 7.02841 -3.37097 0
M  V30 2232 N 192.153 1.28127 0.917671 0
M  V30 2233 C 193.1 1.11717 2.0196 0
M  V30 2234 C 194.07 0.0153929 1.66093 0
M  V30 2235 O 195.255 0.179596 1.89953 0
M  V30 2236 C 192.395 0.780927 3.36148 0
M  V30 2237 C 191.508 1.96135 3.84909 0
M  V30 2238 C 190.643 1.56609 5.0759 0
M  V30 2239 C 189.682 2.71339 5.48673 0
M  V30 2240 N 188.819 2.32332 6.62545 0
M  V30 2241 H 193.659 2.06003 2.15329 0
M  V30 2242 H 191.196 1.02535 1.05475 0
M  V30 2243 H 193.154 0.56675 4.13333 0
M  V30 2244 H 191.784 -0.124998 3.22558 0
M  V30 2245 H 190.836 2.28777 3.03916 0
M  V30 2246 H 192.148 2.82165 4.1132 0
M  V30 2247 H 191.302 1.31374 5.92305 0
M  V30 2248 H 190.041 0.677014 4.82978 0
M  V30 2249 H 189.046 2.97276 4.62501 0
M  V30 2250 H 190.271 3.60882 5.75274 0
M  V30 2251 H 188.217 1.45889 6.39572 0
M  V30 2252 H 188.134 3.11899 6.88662 0
M  V30 2253 H 189.402 2.10371 7.50576 0
M  V30 2254 N 193.631 -1.12557 1.10312 0
M  V30 2255 C 194.578 -2.18247 0.750781 0
M  V30 2256 C 195.548 -1.63853 -0.272293 0
M  V30 2257 O 196.733 -1.90195 -0.151862 0
M  V30 2258 C 193.873 -3.44591 0.187379 0
M  V30 2259 C 192.986 -4.13046 1.2656 0
M  V30 2260 C 192.121 -5.27034 0.663978 0
M  V30 2261 C 191.16 -5.87353 1.72287 0
M  V30 2262 N 190.297 -6.92757 1.1416 0
M  V30 2263 H 195.137 -2.47732 1.65628 0
M  V30 2264 H 192.674 -1.21629 0.827337 0
M  V30 2265 H 194.632 -4.16904 -0.157148 0
M  V30 2266 H 193.262 -3.15527 -0.681355 0
M  V30 2267 H 192.314 -3.38924 1.72727 0
M  V30 2268 H 193.626 -4.53947 2.06721 0
M  V30 2269 H 192.78 -6.06104 0.268824 0
M  V30 2270 H 191.519 -4.87407 -0.169082 0
M  V30 2271 H 190.524 -5.06971 2.12746 0
M  V30 2272 H 191.749 -6.29051 2.55875 0
M  V30 2273 H 189.695 -6.5517 0.329984 0
M  V30 2274 H 189.612 -7.3225 1.88007 0
M  V30 2275 H 190.88 -7.75658 0.772956 0
M  V30 2276 N 195.109 -0.891671 -1.2995 0
M  V30 2277 C 196.057 -0.353066 -2.29905 0
M  V30 2278 C 197.051 0.543509 -1.60444 0
M  V30 2279 O 198.257 0.4272 -1.74857 0
M  V30 2280 H 194.632 -0.095531 -0.745907 0
M  V30 2281 H 196.603 -1.20961 -2.72784 0
M  V30 2282 C 195.352 0.411475 -3.45257 0
M  V30 2283 H 194.675 -0.269182 -3.98893 0
M  V30 2284 H 196.115 0.753328 -4.17254 0
M  V30 2285 C 194.574 1.6111 -2.9588 0
M  V30 2286 O 195.104 2.71045 -2.96475 0
M  V30 2287 N 193.31 1.45054 -2.51809 0
M  V30 2288 H 192.857 0.556175 -2.51524 0
M  V30 2289 H 192.815 2.25453 -2.1913 0
M  V30 2290 N 196.587 1.43421 -0.653314 0
M  V30 2291 C 197.517 2.33487 0.0246656 0
M  V30 2292 C 198.498 1.49475 0.811863 0
M  V30 2293 O 199.683 1.78139 0.773322 0
M  V30 2294 C 196.813 3.32841 0.99166 0
M  V30 2295 C 195.767 4.26842 0.314568 0
M  V30 2296 C 195.093 5.16236 1.39302 0
M  V30 2297 C 196.393 5.16243 -0.793095 0
M  V30 2298 H 198.087 2.90427 -0.727481 0
M  V30 2299 H 195.633 1.39649 -0.351287 0
M  V30 2300 H 197.586 3.94747 1.47487 0
M  V30 2301 H 196.31 2.74158 1.77497 0
M  V30 2302 H 194.969 3.663 -0.148199 0
M  V30 2303 H 194.617 4.53891 2.16776 0
M  V30 2304 H 194.317 5.79948 0.945223 0
M  V30 2305 H 195.841 5.81015 1.87759 0
M  V30 2306 H 197.255 5.71958 -0.392039 0
M  V30 2307 H 195.652 5.88676 -1.16536 0
M  V30 2308 H 196.722 4.55927 -1.65103 0
M  V30 2309 N 198.065 0.39524 1.52563 0
M  V30 2310 C 199.311 -0.185318 2.01952 0
M  V30 2311 C 199.644 -1.45964 1.28095 0
M  V30 2312 O 198.919 -1.90689 0.38315 0
M  V30 2313 C 199.202 -0.447193 3.57312 0
M  V30 2314 C 199.055 0.842828 4.41833 0
M  V30 2315 C 200.374 -1.23529 4.22408 0
M  V30 2316 H 197.493 -0.0658788 0.73405 0
M  V30 2317 H 200.135 0.525975 1.82575 0
M  V30 2318 H 198.285 -1.05312 3.73954 0
M  V30 2319 H 199.957 1.4795 4.36931 0
M  V30 2320 H 198.2 1.45686 4.08605 0
M  V30 2321 H 198.871 0.614165 5.48573 0
M  V30 2322 H 201.347 -0.722445 4.0978 0
M  V30 2323 H 200.223 -1.38727 5.3108 0
M  V30 2324 H 200.484 -2.25213 3.80436 0
M  V30 2325 N 199.544 -1.57102 0.125237 0
M  V30 2326 C 200.494 -2.12202 -0.833936 0
M  V30 2327 C 201.478 -1.04433 -1.22403 0
M  V30 2328 O 202.67 -1.30655 -1.19408 0
M  V30 2329 C 199.799 -2.72994 -2.08157 0
M  V30 2330 C 198.885 -3.87852 -1.71556 0
M  V30 2331 N 199.276 -4.9464 -1.05662 0
M  V30 2332 C 197.574 -3.98153 -2.00973 0
M  V30 2333 C 198.275 -5.74953 -0.883376 0
M  V30 2334 N 197.251 -5.24985 -1.41036 0
M  V30 2335 H 201.053 -2.92141 -0.321035 0
M  V30 2336 H 198.567 -1.62217 -0.0770315 0
M  V30 2337 H 200.564 -3.10816 -2.77847 0
M  V30 2338 H 199.224 -1.9452 -2.59985 0
M  V30 2339 H 200.235 -5.12872 -0.719878 0
M  V30 2340 H 196.912 -3.30728 -2.54804 0
M  V30 2341 H 198.302 -6.70904 -0.365675 0
M  V30 2342 N 201.022 0.148545 -1.56898 0
M  V30 2343 C 202.269 0.861418 -1.83264 0
M  V30 2344 C 202.597 1.81239 -0.705883 0
M  V30 2345 O 201.852 1.93305 0.305212 0
M  V30 2346 C 202.151 1.67064 -3.1595 0
M  V30 2347 C 201.817 0.866591 -4.42494 0
M  V30 2348 C 200.479 0.644762 -4.76861 0
M  V30 2349 C 202.831 0.30418 -5.20312 0
M  V30 2350 C 200.159 -0.15021 -5.86508 0
M  V30 2351 C 202.511 -0.477824 -6.30793 0
M  V30 2352 C 201.175 -0.710244 -6.63711 0
M  V30 2353 H 200.445 0.315215 -0.670612 0
M  V30 2354 H 203.092 0.125142 -1.91091 0
M  V30 2355 H 201.397 2.47698 -3.03567 0
M  V30 2356 H 203.094 2.22566 -3.33565 0
M  V30 2357 H 199.684 1.04955 -4.15551 0
M  V30 2358 H 203.868 0.462844 -4.94137 0
M  V30 2359 H 199.124 -0.339796 -6.10455 0
M  V30 2360 H 203.298 -0.92076 -6.90286 0
M  V30 2361 H 200.925 -1.3281 -7.48509 0
M  V30 2362 N 202.5 1.5196 0.417844 0
M  V30 2363 C 203.432 1.70895 1.52733 0
M  V30 2364 C 204.445 0.589405 1.51756 0
M  V30 2365 O 205.634 0.864312 1.56179 0
M  V30 2366 C 202.734 1.72627 2.91639 0
M  V30 2367 C 201.907 3.01479 3.16905 0
M  V30 2368 C 200.966 2.95139 4.35637 0
M  V30 2369 O 199.992 3.69059 4.3334 0
M  V30 2370 N 201.194 2.12328 5.40275 0
M  V30 2371 H 203.959 2.66612 1.36888 0
M  V30 2372 H 201.52 1.50089 0.607037 0
M  V30 2373 H 203.512 1.65928 3.6912 0
M  V30 2374 H 202.082 0.844216 3.00985 0
M  V30 2375 H 201.302 3.21895 2.27546 0
M  V30 2376 H 202.59 3.86736 3.30625 0
M  V30 2377 H 201.988 1.51685 5.44985 0
M  V30 2378 H 200.545 2.11494 6.16534 0
M  V30 2379 N 203.978 -0.674533 1.42435 0
M  V30 2380 C 204.91 -1.80005 1.41883 0
M  V30 2381 C 205.923 -1.59667 0.31787 0
M  V30 2382 O 207.112 -1.68781 0.580973 0
M  V30 2383 C 204.212 -3.17114 1.19549 0
M  V30 2384 C 203.385 -3.64299 2.42084 0
M  V30 2385 C 202.444 -4.80142 2.15291 0
M  V30 2386 O 201.47 -4.90673 2.88493 0
M  V30 2387 N 202.672 -5.68869 1.1562 0
M  V30 2388 H 205.437 -1.80964 2.38898 0
M  V30 2389 H 202.998 -0.857633 1.37318 0
M  V30 2390 H 204.99 -3.92267 0.995417 0
M  V30 2391 H 203.56 -3.11053 0.310569 0
M  V30 2392 H 202.78 -2.79822 2.77657 0
M  V30 2393 H 204.068 -3.92567 3.23679 0
M  V30 2394 H 203.466 -5.63012 0.550765 0
M  V30 2395 H 202.023 -6.43833 1.016 0
M  V30 2396 N 205.456 -1.28612 -0.910864 0
M  V30 2397 C 206.403 -1.12786 -2.01365 0
M  V30 2398 C 207.373 -0.024201 -1.66082 0
M  V30 2399 O 208.558 -0.189667 -1.89855 0
M  V30 2400 C 205.698 -0.798743 -3.35729 0
M  V30 2401 C 204.811 -1.98173 -3.83864 0
M  V30 2402 C 203.946 -1.59298 -5.06752 0
M  V30 2403 C 202.985 -2.74245 -5.47226 0
M  V30 2404 N 202.122 -2.35842 -6.61304 0
M  V30 2405 H 206.962 -2.07142 -2.14234 0
M  V30 2406 H 204.499 -1.03093 -1.0493 0
M  V30 2407 H 206.457 -0.588662 -4.13026 0
M  V30 2408 H 205.087 0.10789 -3.2262 0
M  V30 2409 H 204.139 -2.30386 -3.02699 0
M  V30 2410 H 205.451 -2.84343 -4.09818 0
M  V30 2411 H 204.605 -1.34513 -5.916 0
M  V30 2412 H 203.344 -0.702618 -4.82612 0
M  V30 2413 H 202.349 -2.99725 -4.60918 0
M  V30 2414 H 203.574 -3.63928 -5.73353 0
M  V30 2415 H 201.52 -1.49279 -6.38789 0
M  V30 2416 H 201.437 -3.15546 -6.86998 0
M  V30 2417 H 202.705 -2.14348 -7.4945 0
M  V30 2418 N 206.934 1.1197 -1.10907 0
M  V30 2419 C 207.881 2.17846 -0.762345 0
M  V30 2420 C 208.851 1.63995 0.263599 0
M  V30 2421 O 210.036 1.90273 0.141773 0
M  V30 2422 C 207.176 3.44487 -0.205651 0
M  V30 2423 C 206.289 4.12369 -1.28748 0
M  V30 2424 C 205.424 5.26674 -0.691919 0
M  V30 2425 C 204.463 5.86431 -1.75399 0
M  V30 2426 N 203.6 6.92142 -1.17833 0
M  V30 2427 H 208.44 2.46851 -1.6694 0
M  V30 2428 H 205.977 1.21188 -0.833776 0
M  V30 2429 H 207.935 4.16981 0.135037 0
M  V30 2430 H 206.565 3.15884 0.664613 0
M  V30 2431 H 205.617 3.38003 -1.74522 0
M  V30 2432 H 206.929 4.52844 -2.09125 0
M  V30 2433 H 206.083 6.05953 -0.300963 0
M  V30 2434 H 204.822 4.8749 0.143232 0
M  V30 2435 H 203.827 5.05835 -2.15432 0
M  V30 2436 H 205.052 6.27685 -2.59208 0
M  V30 2437 H 202.998 6.54985 -0.364725 0
M  V30 2438 H 202.915 7.31242 -1.91887 0
M  V30 2439 H 204.183 7.75237 -0.81408 0
M  V30 2440 N 208.412 0.89855 1.29475 0
M  V30 2441 C 209.689 0.443416 1.90508 0
M  V30 2442 C 210.069 -1.07685 1.81569 0
M  V30 2443 O 209.417 -1.9182 1.24166 0
M  V30 2444 C 209.627 0.956708 3.35631 0
M  V30 2445 C 210.975 0.999728 4.12663 0
M  V30 2446 O 211.999 0.904299 3.4453 0
M  V30 2447 O 210.858 1.14289 5.34416 0
M  V30 2448 H 207.952 0.138025 0.815401 0
M  V30 2449 H 210.498 0.98834 1.37949 0
M  V30 2450 H 209.27 2.00067 3.36287 0
M  V30 2451 H 208.893 0.391728 3.95666 0
M  V30 2452 N 209.89 -1.43072 0.660911 0
M  V30 2453 C 211.137 -2.01721 0.177445 0
M  V30 2454 C 211.465 -1.5218 -1.21126 0
M  V30 2455 O 210.72 -0.708659 -1.82419 0
M  V30 2456 C 211.019 -3.57103 0.145563 0
M  V30 2457 C 210.685 -4.26021 1.47705 0
M  V30 2458 C 209.347 -4.44563 1.84165 0
M  V30 2459 C 211.699 -4.64983 2.35458 0
M  V30 2460 C 209.027 -4.99334 3.0803 0
M  V30 2461 C 211.379 -5.21127 3.58622 0
M  V30 2462 C 210.043 -5.37884 3.95268 0
M  V30 2463 H 209.313 -0.73815 0.0649317 0
M  V30 2464 H 211.96 -1.71446 0.853144 0
M  V30 2465 H 210.265 -3.86965 -0.61361 0
M  V30 2466 H 211.962 -4.00248 -0.2455 0
M  V30 2467 H 208.552 -4.11939 1.18339 0
M  V30 2468 H 212.736 -4.50343 2.08579 0
M  V30 2469 H 207.992 -5.10493 3.36462 0
M  V30 2470 H 212.166 -5.50262 4.26831 0
M  V30 2471 H 209.793 -5.80089 4.91325 0
M  V30 2472 N 211.368 -0.403325 -1.52352 0
M  V30 2473 C 212.596 0.174012 -2.06167 0
M  V30 2474 C 213.011 1.39347 -1.27388 0
M  V30 2475 O 212.368 1.79597 -0.324201 0
M  V30 2476 C 212.419 0.530223 -3.5759 0
M  V30 2477 O 212.14 -0.640806 -4.33388 0
M  V30 2478 C 213.641 1.16192 -4.27802 0
M  V30 2479 H 210.861 0.0229464 -0.670608 0
M  V30 2480 H 213.405 -0.572604 -1.9632 0
M  V30 2481 H 211.56 1.22673 -3.67464 0
M  V30 2482 H 211.974 -0.344851 -5.23365 0
M  V30 2483 H 213.448 1.36141 -5.34948 0
M  V30 2484 H 213.925 2.13335 -3.83907 0
M  V30 2485 H 214.531 0.505775 -4.22282 0
M  V30 2486 N 212.846 1.57033 -0.133567 0
M  V30 2487 C 213.793 2.16074 0.811208 0
M  V30 2488 C 214.763 1.08979 1.2535 0
M  V30 2489 O 215.948 1.36958 1.32843 0
M  V30 2490 C 213.088 2.77595 2.05024 0
M  V30 2491 C 212.201 3.99042 1.65498 0
M  V30 2492 C 211.336 4.48603 2.84479 0
M  V30 2493 C 210.375 5.62547 2.41262 0
M  V30 2494 N 209.512 6.06787 3.53206 0
M  V30 2495 H 214.352 2.96477 0.300906 0
M  V30 2496 H 211.889 1.46462 0.136822 0
M  V30 2497 H 213.847 3.11402 2.77642 0
M  V30 2498 H 212.477 1.99859 2.53488 0
M  V30 2499 H 211.529 3.71302 0.826981 0
M  V30 2500 H 212.841 4.81629 1.29748 0
M  V30 2501 H 211.995 4.84395 3.65303 0
M  V30 2502 H 210.734 3.64995 3.23465 0
M  V30 2503 H 209.739 5.26345 1.58874 0
M  V30 2504 H 210.964 6.47931 2.03377 0
M  V30 2505 H 208.91 5.26117 3.91838 0
M  V30 2506 H 208.827 6.84266 3.21427 0
M  V30 2507 H 210.095 6.4722 4.34427 0
M  V30 2508 N 214.325 -0.140222 1.56975 0
M  V30 2509 C 215.55 -0.870414 1.88251 0
M  V30 2510 C 215.975 -1.73637 0.723312 0
M  V30 2511 O 215.333 -1.78329 -0.32689 0
M  V30 2512 C 215.381 -1.69737 3.18154 0
M  V30 2513 O 214.485 -2.80229 3.02565 0
M  V30 2514 H 213.826 -0.242025 0.61832 0
M  V30 2515 H 216.356 -0.128999 2.04193 0
M  V30 2516 H 216.366 -2.09099 3.50345 0
M  V30 2517 H 215.041 -1.06152 4.02125 0
M  V30 2518 H 213.618 -2.44224 2.81796 0
M  V30 2519 N 215.803 -1.52179 -0.40978 0
M  V30 2520 C 216.75 -1.75475 -1.49924 0
M  V30 2521 C 217.72 -0.597175 -1.54994 0
M  V30 2522 O 218.905 -0.834655 -1.71575 0
M  V30 2523 C 216.045 -1.9107 -2.87378 0
M  V30 2524 C 215.158 -3.18717 -2.91622 0
M  V30 2525 C 214.293 -3.24747 -4.20372 0
M  V30 2526 C 213.332 -4.46598 -4.18588 0
M  V30 2527 N 212.469 -4.50025 -5.38908 0
M  V30 2528 H 217.309 -2.68458 -1.29361 0
M  V30 2529 H 214.846 -1.33024 -0.627934 0
M  V30 2530 H 216.804 -1.98096 -3.6717 0
M  V30 2531 H 215.434 -1.01469 -3.06437 0
M  V30 2532 H 214.486 -3.20866 -2.04326 0
M  V30 2533 H 215.798 -4.08544 -2.86169 0
M  V30 2534 H 214.952 -3.30841 -5.08556 0
M  V30 2535 H 213.691 -2.32857 -4.28519 0
M  V30 2536 H 212.696 -4.40652 -3.28794 0
M  V30 2537 H 213.921 -5.39783 -4.12081 0
M  V30 2538 H 211.867 -3.61017 -5.47725 0
M  V30 2539 H 211.784 -5.33697 -5.35447 0
M  V30 2540 H 213.052 -4.60347 -6.29048 0
M  V30 2541 N 217.281 0.66697 -1.42791 0
M  V30 2542 C 218.214 1.79177 -1.41318 0
M  V30 2543 C 219.192 1.60234 -0.276401 0
M  V30 2544 O 220.376 1.82602 -0.46785 0
M  V30 2545 C 217.503 3.16289 -1.21157 0
M  V30 2546 C 216.549 3.53964 -2.37932 0
M  V30 2547 S 217.382 3.55501 -4.00474 0
M  V30 2548 C 218.538 4.95292 -3.8267 0
M  V30 2549 H 218.771 1.80153 -2.365 0
M  V30 2550 H 216.304 0.838357 -1.29657 0
M  V30 2551 H 218.262 3.95428 -1.10212 0
M  V30 2552 H 216.923 3.1289 -0.275481 0
M  V30 2553 H 216.116 4.53646 -2.19594 0
M  V30 2554 H 215.718 2.82204 -2.45432 0
M  V30 2555 H 218.01 5.83584 -3.44145 0
M  V30 2556 H 218.953 5.18679 -4.82055 0
M  V30 2557 H 219.361 4.68179 -3.15386 0
M  V30 2558 N 218.759 1.29093 0.90403 0
M  V30 2559 C 219.689 1.16401 2.02418 0
M  V30 2560 C 220.67 0.0593085 1.69997 0
M  V30 2561 O 221.855 0.238021 1.92736 0
M  V30 2562 C 218.985 0.835233 3.37107 0
M  V30 2563 C 217.939 1.89578 3.83724 0
M  V30 2564 C 217.265 1.42041 5.15489 0
M  V30 2565 C 218.565 3.30394 4.04521 0
M  V30 2566 H 220.259 2.10109 2.13295 0
M  V30 2567 H 217.805 1.01157 1.02486 0
M  V30 2568 H 219.758 0.733169 4.14973 0
M  V30 2569 H 218.482 -0.137543 3.2631 0
M  V30 2570 H 217.141 1.98715 3.08071 0
M  V30 2571 H 216.789 0.436426 5.01103 0
M  V30 2572 H 216.489 2.12964 5.4765 0
M  V30 2573 H 218.013 1.33176 5.959 0
M  V30 2574 H 219.427 3.24123 4.72882 0
M  V30 2575 H 217.824 3.99237 4.48029 0
M  V30 2576 H 218.894 3.73692 3.09002 0
M  V30 2577 N 220.237 -1.11381 1.11499 0
M  V30 2578 C 221.185 -2.19522 0.768956 0
M  V30 2579 C 222.179 -1.67693 -0.239857 0
M  V30 2580 O 223.385 -1.79727 -0.0990755 0
M  V30 2581 H 219.76 -0.715711 0.230786 0
M  V30 2582 H 221.731 -2.45954 1.68964 0
M  V30 2583 C 220.48 -3.46945 0.229073 0
M  V30 2584 H 219.803 -3.8718 0.996596 0
M  V30 2585 H 221.243 -4.23993 0.0251441 0
M  V30 2586 C 219.702 -3.2042 -1.04079 0
M  V30 2587 O 220.232 -3.41178 -2.12038 0
M  V30 2588 N 218.438 -2.74151 -0.963823 0
M  V30 2589 H 217.985 -2.57459 -0.0851722 0
M  V30 2590 H 217.943 -2.56781 -1.81414 0
M  V30 2591 N 221.715 -0.905404 -1.28997 0
M  V30 2592 C 222.648 -0.331959 -2.25773 0
M  V30 2593 C 223.626 0.559099 -1.52685 0
M  V30 2594 O 224.81 0.50463 -1.8162 0
M  V30 2595 C 221.937 0.526276 -3.34586 0
M  V30 2596 C 220.983 -0.298249 -4.25456 0
M  V30 2597 S 221.816 -1.69968 -5.0781 0
M  V30 2598 C 222.972 -0.848519 -6.20122 0
M  V30 2599 H 223.205 -1.15222 -2.74064 0
M  V30 2600 H 220.738 -0.706112 -1.37308 0
M  V30 2601 H 222.696 1.01565 -3.97737 0
M  V30 2602 H 221.357 1.32084 -2.84978 0
M  V30 2603 H 220.55 0.357607 -5.0273 0
M  V30 2604 H 220.152 -0.720968 -3.66985 0
M  V30 2605 H 222.444 -0.0744325 -6.77459 0
M  V30 2606 H 223.387 -1.59353 -6.89937 0
M  V30 2607 H 223.795 -0.400383 -5.63078 0
M  V30 2608 N 223.193 1.4272 -0.668489 0
M  V30 2609 C 224.156 2.292 0.00448567 0
M  V30 2610 C 225.156 1.43001 0.735339 0
M  V30 2611 O 226.346 1.64461 0.57429 0
M  V30 2612 C 223.478 3.25375 1.01705 0
M  V30 2613 H 224.671 2.90199 -0.756608 0
M  V30 2614 H 222.224 1.50254 -0.430506 0
M  V30 2615 H 222.959 2.69301 1.80686 0
M  V30 2616 H 222.744 3.88944 0.496463 0
M  V30 2617 H 224.234 3.90245 1.48655 0
M  V30 2618 N 224.671 0.411399 1.52136 0
M  V30 2619 C 225.618 -0.412975 2.27075 0
M  V30 2620 C 226.588 -1.03912 1.29582 0
M  V30 2621 O 227.773 -1.06296 1.58448 0
M  V30 2622 C 224.913 -1.52247 3.09701 0
M  V30 2623 C 224.026 -0.917021 4.22155 0
M  V30 2624 C 223.161 -1.9994 4.92135 0
M  V30 2625 C 222.2 -1.37101 5.96548 0
M  V30 2626 N 221.337 -2.39364 6.60038 0
M  V30 2627 H 226.177 0.232499 2.97092 0
M  V30 2628 H 223.714 0.126496 1.46555 0
M  V30 2629 H 225.672 -2.17674 3.55913 0
M  V30 2630 H 224.302 -2.13794 2.41851 0
M  V30 2631 H 223.354 -0.151742 3.80097 0
M  V30 2632 H 224.666 -0.418006 4.97045 0
M  V30 2633 H 223.82 -2.73088 5.41763 0
M  V30 2634 H 222.559 -2.53208 4.16818 0
M  V30 2635 H 221.564 -0.624873 5.46237 0
M  V30 2636 H 222.789 -0.845998 6.7381 0
M  V30 2637 H 220.735 -2.91759 5.87548 0
M  V30 2638 H 220.652 -1.9428 7.3061 0
M  V30 2639 H 221.92 -3.12074 7.14304 0
M  V30 2640 N 226.149 -1.5696 0.141893 0
M  V30 2641 C 227.374 -2.00754 -0.520838 0
M  V30 2642 C 227.799 -1.0213 -1.57959 0
M  V30 2643 O 227.157 0.00371324 -1.813 0
M  V30 2644 C 227.205 -3.43318 -1.10294 0
M  V30 2645 O 226.309 -3.47679 -2.21795 0
M  V30 2646 H 225.65 -0.651564 -0.127908 0
M  V30 2647 H 228.18 -2.03221 0.23712 0
M  V30 2648 H 228.19 -3.82012 -1.43287 0
M  V30 2649 H 226.865 -4.14608 -0.327574 0
M  V30 2650 H 225.442 -3.20824 -1.9007 0
M  V30 2651 N 227.627 0.131896 -1.57047 0
M  V30 2652 C 228.574 1.16236 -1.99393 0
M  V30 2653 C 229.544 1.41863 -0.863943 0
M  V30 2654 O 230.729 1.53946 -1.12718 0
M  V30 2655 C 227.869 2.48708 -2.39245 0
M  V30 2656 C 226.982 2.30127 -3.65603 0
M  V30 2657 C 226.117 3.55738 -3.94492 0
M  V30 2658 C 225.156 3.32259 -5.14073 0
M  V30 2659 N 224.293 4.50039 -5.38896 0
M  V30 2660 H 229.133 0.794251 -2.87221 0
M  V30 2661 H 226.67 0.380707 -1.42088 0
M  V30 2662 H 228.628 3.25969 -2.60384 0
M  V30 2663 H 227.258 2.83437 -1.54478 0
M  V30 2664 H 226.31 1.43845 -3.52154 0
M  V30 2665 H 227.622 2.08746 -4.5302 0
M  V30 2666 H 226.776 4.41423 -4.1621 0
M  V30 2667 H 225.515 3.80138 -3.05526 0
M  V30 2668 H 224.52 2.44963 -4.92212 0
M  V30 2669 H 225.745 3.09242 -6.04604 0
M  V30 2670 H 223.691 4.74584 -4.52886 0
M  V30 2671 H 223.608 4.31716 -6.2061 0
M  V30 2672 H 224.876 5.36895 -5.65123 0
M  V30 2673 N 229.106 1.52395 0.401703 0
M  V30 2674 C 230.039 1.70999 1.51111 0
M  V30 2675 C 231.017 0.55765 1.52738 0
M  V30 2676 O 232.201 0.785912 1.71335 0
M  V30 2677 C 229.328 1.75607 2.8962 0
M  V30 2678 C 228.374 2.97227 3.05873 0
M  V30 2679 S 229.207 4.57439 2.78405 0
M  V30 2680 C 230.363 4.64844 4.19131 0
M  V30 2681 H 230.596 2.6483 1.35102 0
M  V30 2682 H 228.129 1.42527 0.593762 0
M  V30 2683 H 230.087 1.78947 3.69443 0
M  V30 2684 H 228.748 0.828914 3.02965 0
M  V30 2685 H 227.941 2.96955 4.07227 0
M  V30 2686 H 227.543 2.91813 2.33925 0
M  V30 2687 H 229.835 4.42677 5.12877 0
M  V30 2688 H 230.778 5.66807 4.24424 0
M  V30 2689 H 231.186 3.93804 4.04448 0
M  V30 2690 N 230.584 -0.659388 1.43143 0
M  V30 2691 C 231.534 -1.7655 1.44271 0
M  V30 2692 C 232.518 -1.57847 0.311961 0
M  V30 2693 O 233.71 -1.68064 0.555306 0
M  V30 2694 C 230.839 -3.15104 1.36251 0
M  V30 2695 C 229.925 -3.39377 2.54331 0
M  V30 2696 N 230.316 -3.34153 3.79704 0
M  V30 2697 C 228.614 -3.70072 2.48922 0
M  V30 2698 C 229.315 -3.58337 4.58225 0
M  V30 2699 N 228.291 -3.79851 3.88863 0
M  V30 2700 H 232.093 -1.70928 2.39083 0
M  V30 2701 H 229.607 -0.860823 1.37708 0
M  V30 2702 H 231.604 -3.94389 1.35141 0
M  V30 2703 H 230.264 -3.21913 0.424531 0
M  V30 2704 H 231.275 -3.13704 4.1208 0
M  V30 2705 H 227.952 -3.84034 1.63781 0
M  V30 2706 H 229.342 -3.60129 5.67236 0
M  V30 2707 N 232.062 -1.29571 -0.897171 0
M  V30 2708 C 233.009 -1.14916 -2.00158 0
M  V30 2709 C 233.979 -0.0418149 -1.66047 0
M  V30 2710 O 235.164 -0.209793 -1.89643 0
M  V30 2711 C 232.304 -0.834307 -3.34863 0
M  V30 2712 C 231.417 -2.02234 -3.8174 0
M  V30 2713 C 230.552 -1.64664 -5.05034 0
M  V30 2714 C 229.591 -2.80033 -5.44286 0
M  V30 2715 N 228.728 -2.42843 -6.58765 0
M  V30 2716 H 233.568 -2.09403 -2.12025 0
M  V30 2717 H 231.105 -1.042 -1.0383 0
M  V30 2718 H 233.063 -0.632436 -4.12379 0
M  V30 2719 H 231.693 0.0736656 -3.22716 0
M  V30 2720 H 230.745 -2.33583 -3.00238 0
M  V30 2721 H 232.057 -2.88673 -4.06779 0
M  V30 2722 H 231.211 -1.4078 -5.9014 0
M  V30 2723 H 229.95 -0.753766 -4.8184 0
M  V30 2724 H 228.955 -3.04596 -4.57713 0
M  V30 2725 H 230.18 -3.69989 -5.6946 0
M  V30 2726 H 228.126 -1.56046 -6.3717 0
M  V30 2727 H 228.043 -3.22815 -6.83613 0
M  V30 2728 H 229.311 -2.22285 -7.47134 0
M  V30 2729 N 233.54 1.10788 -1.12088 0
M  V30 2730 C 234.473 2.16237 -0.729168 0
M  V30 2731 C 235.451 1.60207 0.277921 0
M  V30 2732 O 236.635 1.87707 0.172737 0
M  V30 2733 C 233.762 3.38609 -0.0786848 0
M  V30 2734 C 232.808 4.13322 -1.05201 0
M  V30 2735 S 233.641 4.69371 -2.57781 0
M  V30 2736 C 234.797 5.95058 -1.94053 0
M  V30 2737 H 235.03 2.4913 -1.62239 0
M  V30 2738 H 232.563 1.22519 -0.939603 0
M  V30 2739 H 234.521 4.09473 0.290254 0
M  V30 2740 H 233.182 3.03962 0.791593 0
M  V30 2741 H 232.375 5.01051 -0.544433 0
M  V30 2742 H 231.977 3.48251 -1.36371 0
M  V30 2743 H 234.269 6.65278 -1.28107 0
M  V30 2744 H 235.212 6.50472 -2.79807 0
M  V30 2745 H 235.62 5.46918 -1.39787 0
M  V30 2746 N 235.018 0.912232 1.28515 0
M  V30 2747 C 235.951 0.343928 2.25593 0
M  V30 2748 C 236.929 -0.550994 1.5298 0
M  V30 2749 O 238.113 -0.494991 1.81885 0
M  V30 2750 C 235.24 -0.508525 3.34861 0
M  V30 2751 C 234.286 0.320808 4.25292 0
M  V30 2752 S 235.119 1.72658 5.06902 0
M  V30 2753 C 236.275 0.881394 6.19663 0
M  V30 2754 H 236.508 1.16674 2.73449 0
M  V30 2755 H 234.041 0.713384 1.36931 0
M  V30 2756 H 235.999 -0.994539 3.9827 0
M  V30 2757 H 234.66 -1.30571 2.85675 0
M  V30 2758 H 233.853 -0.330941 5.02912 0
M  V30 2759 H 233.455 0.74042 3.66598 0
M  V30 2760 H 235.747 0.110359 6.7741 0
M  V30 2761 H 236.69 1.63009 6.89082 0
M  V30 2762 H 237.098 0.430239 5.62858 0
M  V30 2763 N 236.496 -1.42363 0.676048 0
M  V30 2764 C 237.443 -2.308 -0.00150904 0
M  V30 2765 C 238.413 -1.46032 -0.791444 0
M  V30 2766 O 239.598 -1.74861 -0.76344 0
M  V30 2767 C 236.738 -3.31883 -0.945919 0
M  V30 2768 C 235.851 -4.31741 -0.149675 0
M  V30 2769 C 234.986 -5.19898 -1.08995 0
M  V30 2770 C 234.025 -6.11434 -0.285465 0
M  V30 2771 N 233.162 -6.92138 -1.17851 0
M  V30 2772 H 238.002 -2.88187 0.758455 0
M  V30 2773 H 235.539 -1.41952 0.38576 0
M  V30 2774 H 237.497 -3.89019 -1.50731 0
M  V30 2775 H 236.127 -2.76093 -1.6725 0
M  V30 2776 H 235.179 -3.76713 0.528359 0
M  V30 2777 H 236.491 -4.96534 0.474866 0
M  V30 2778 H 235.645 -5.81772 -1.72123 0
M  V30 2779 H 234.384 -4.55284 -1.74837 0
M  V30 2780 H 233.389 -5.48627 0.359018 0
M  V30 2781 H 234.614 -6.78097 0.368883 0
M  V30 2782 H 232.56 -6.30152 -1.82332 0
M  V30 2783 H 232.477 -7.53542 -0.609082 0
M  V30 2784 H 233.745 -7.58499 -1.79722 0
M  V30 2785 N 237.974 -0.419461 -1.51915 0
M  V30 2786 C 238.921 0.400927 -2.27291 0
M  V30 2787 C 239.891 1.03224 -1.30131 0
M  V30 2788 O 241.076 1.05455 -1.59009 0
M  V30 2789 C 238.216 1.50603 -3.10504 0
M  V30 2790 C 237.329 0.89462 -4.22635 0
M  V30 2791 C 236.464 1.97328 -4.93189 0
M  V30 2792 C 235.503 1.33935 -5.97267 0
M  V30 2793 N 234.64 2.3586 -6.61298 0
M  V30 2794 H 239.48 -0.248251 -2.96964 0
M  V30 2795 H 237.017 -0.134266 -1.46486 0
M  V30 2796 H 238.975 2.15783 -3.57062 0
M  V30 2797 H 237.605 2.12509 -2.42981 0
M  V30 2798 H 236.657 0.131583 -3.80172 0
M  V30 2799 H 237.969 0.391641 -4.9726 0
M  V30 2800 H 237.123 2.70211 -5.43204 0
M  V30 2801 H 235.862 2.50994 -4.18155 0
M  V30 2802 H 234.867 0.595896 -5.46561 0
M  V30 2803 H 236.092 0.810252 -6.74249 0
M  V30 2804 H 234.038 2.88639 -5.89087 0
M  V30 2805 H 233.955 1.90403 -7.3163 0
M  V30 2806 H 235.223 3.08282 -7.15949 0
M  V30 2807 O 239.491 1.58856 -0.291037 0
M  V30 2808 H 240.182 1.91728 0.275667 0
M  V30 END ATOM
M  V30 BEGIN BOND
M  V30 END BOND
M  V30 END CTAB
M  END
$$$$
