drugbank_target|Q8IHS5 40S ribosomal protein S21 (DB11638)
 OpenBabel12092121113D

  0  0  0     0  0            999 V3000
M  V30 BEGIN CTAB
M  V30 COUNTS 1283 1292 0 0 0
M  V30 BEGIN ATOM
M  V30 1 H -0.908 1.98254 -0.117106 0
M  V30 2 N 0 1.576 0 0
M  V30 3 C 0.933 2.03868 1.02534 0
M  V30 4 C 1.911 0.928543 1.3348 0
M  V30 5 O 3.095 1.19667 1.45644 0
M  V30 6 C 0.222 2.43627 2.35294 0
M  V30 7 C -0.732 3.65373 2.2001 0
M  V30 8 S 0.101 5.13292 1.52614 0
M  V30 9 C 1.257 5.56322 2.86805 0
M  V30 10 H 1.49 2.90518 0.631377 0
M  V30 11 H -0.977 1.52953 0.210867 0
M  V30 12 H 0.981 2.67203 3.11629 0
M  V30 13 H -0.358 1.57376 2.7183 0
M  V30 14 H -1.165 3.90944 3.18086 0
M  V30 15 H -1.563 3.418 1.51819 0
M  V30 16 H 0.729 5.58782 3.83104 0
M  V30 17 H 1.672 6.56266 2.65933 0
M  V30 18 H 2.08 4.83886 2.90714 0
M  V30 19 N 1.4781 -0.272755 1.55222 0
M  V30 20 C 2.7251 -1.00433 1.7584 0
M  V30 21 C 3.0531 -1.86275 0.559629 0
M  V30 22 O 2.3081 -1.90269 -0.457857 0
M  V30 23 C 2.6071 -1.91642 3.01675 0
M  V30 24 C 2.2731 -1.21548 4.34208 0
M  V30 25 C 0.9351 -1.02166 4.70229 0
M  V30 26 C 3.2871 -0.716684 5.16249 0
M  V30 27 C 0.6151 -0.316334 5.85847 0
M  V30 28 C 2.9671 -0.0249476 6.32595 0
M  V30 29 C 1.6311 0.180579 6.67256 0
M  V30 30 H 0.9011 -0.367509 0.643443 0
M  V30 31 H 3.5481 -0.276596 1.89492 0
M  V30 32 H 1.8531 -2.71037 2.82924 0
M  V30 33 H 3.5501 -2.48369 3.14824 0
M  V30 34 H 0.1401 -1.37645 4.05896 0
M  V30 35 H 4.3241 -0.854047 4.88896 0
M  V30 36 H -0.4199 -0.146378 6.11225 0
M  V30 37 H 3.7541 0.369311 6.9542 0
M  V30 38 H 1.3811 0.729098 7.56696 0
M  V30 39 N 2.9562 -1.48159 -0.537278 0
M  V30 40 C 3.9042 -1.62573 -1.66352 0
M  V30 41 C 4.8982 -0.492366 -1.62087 0
M  V30 42 O 6.1042 -0.670847 -1.67032 0
M  V30 43 H 2.4792 -0.511992 -0.550789 0
M  V30 44 H 4.4502 -2.57176 -1.51337 0
M  V30 45 C 3.1992 -1.67583 -3.04649 0
M  V30 46 H 2.5222 -2.54151 -3.08622 0
M  V30 47 H 3.9622 -1.81713 -3.83088 0
M  V30 48 C 2.4212 -0.413039 -3.34358 0
M  V30 49 O 2.9512 0.477259 -3.98855 0
M  V30 50 N 1.1572 -0.286961 -2.8918 0
M  V30 51 H 0.7042 -1.01241 -2.36871 0
M  V30 52 H 0.6622 0.556963 -3.09427 0
M  V30 53 N 4.4343 0.785586 -1.36625 0
M  V30 54 C 5.7113 1.53198 -1.21613 0
M  V30 55 C 6.0913 2.10187 0.196113 0
M  V30 56 O 5.4393 1.94318 1.20219 0
M  V30 57 C 5.6493 2.62388 -2.30116 0
M  V30 58 C 6.9973 3.30167 -2.66974 0
M  V30 59 O 8.0213 2.72674 -2.29188 0
M  V30 60 O 6.8803 4.34077 -3.32023 0
M  V30 61 H 3.9743 0.677865 -0.473738 0
M  V30 62 H 6.5203 0.823739 -1.48367 0
M  V30 63 H 5.2923 2.18299 -3.24748 0
M  V30 64 H 4.9153 3.40827 -2.0475 0
M  V30 65 N 5.9124 1.20967 1.01018 0
M  V30 66 C 6.8444 0.922059 2.09835 0
M  V30 67 C 7.8574 -0.0927106 1.62536 0
M  V30 68 O 9.0464 0.139127 1.77957 0
M  V30 69 C 6.1464 0.362004 3.36961 0
M  V30 70 C 5.3194 1.42986 4.13369 0
M  V30 71 C 4.3784 0.879976 5.1879 0
M  V30 72 O 3.4044 1.56219 5.47343 0
M  V30 73 N 4.6064 -0.307396 5.79686 0
M  V30 74 H 7.3714 1.8588 2.35093 0
M  V30 75 H 4.9324 1.11422 1.1746 0
M  V30 76 H 6.9244 -0.0201474 4.04695 0
M  V30 77 H 5.4944 -0.479437 3.08902 0
M  V30 78 H 4.7144 1.98608 3.40512 0
M  V30 79 H 6.0024 2.14885 4.61196 0
M  V30 80 H 5.4004 -0.878796 5.58832 0
M  V30 81 H 3.9574 -0.631115 6.48737 0
M  V30 82 N 7.3905 -1.2043 1.01659 0
M  V30 83 C 8.3375 -2.23215 0.586822 0
M  V30 84 C 9.3075 -1.61382 -0.393085 0
M  V30 85 O 10.4925 -1.88544 -0.292525 0
M  V30 86 C 7.6325 -3.45032 -0.0687464 0
M  V30 87 C 6.7455 -4.21296 0.955724 0
M  V30 88 C 5.8805 -5.30507 0.271208 0
M  V30 89 C 4.9195 -5.98515 1.28244 0
M  V30 90 N 4.0565 -6.99316 0.62459 0
M  V30 91 H 8.8965 -2.59336 1.46796 0
M  V30 92 H 6.4335 -1.27431 0.734836 0
M  V30 93 H 8.3915 -4.1459 -0.465965 0
M  V30 94 H 7.0215 -3.09604 -0.913529 0
M  V30 95 H 6.0735 -3.50803 1.4711 0
M  V30 96 H 7.3855 -4.6803 1.72479 0
M  V30 97 H 6.5395 -6.06428 -0.18151 0
M  V30 98 H 5.2785 -4.8481 -0.530163 0
M  V30 99 H 4.2835 -5.21355 1.74554 0
M  V30 100 H 5.5085 -6.46298 2.08509 0
M  V30 101 H 3.4545 -6.55812 -0.156914 0
M  V30 102 H 3.3715 -7.44178 1.33172 0
M  V30 103 H 4.6395 -7.79255 0.195462 0
M  V30 104 N 8.8686 -0.792821 -1.36206 0
M  V30 105 C 10.1146 -0.36733 -1.99446 0
M  V30 106 C 10.4476 1.05917 -1.62774 0
M  V30 107 O 9.7226 1.7324 -0.88421 0
M  V30 108 C 10.0056 -0.535044 -3.56103 0
M  V30 109 C 9.8586 -2.00548 -4.02617 0
M  V30 110 C 11.1776 0.0478191 -4.40074 0
M  V30 111 H 8.2966 -0.134941 -0.724541 0
M  V30 112 H 10.9386 -0.999794 -1.61568 0
M  V30 113 H 9.0886 0.00336329 -3.885 0
M  V30 114 H 10.7606 -2.60521 -3.80692 0
M  V30 115 H 9.0036 -2.50686 -3.54032 0
M  V30 116 H 9.6746 -2.07377 -5.11565 0
M  V30 117 H 12.1506 -0.411822 -4.14057 0
M  V30 118 H 11.0266 -0.0995336 -5.4881 0
M  V30 119 H 11.2876 1.14025 -4.27142 0
M  V30 120 N 10.3467 1.47872 -0.545128 0
M  V30 121 C 11.2767 2.32661 0.197793 0
M  V30 122 C 12.2577 1.43041 0.920504 0
M  V30 123 O 13.4427 1.71912 0.90333 0
M  V30 124 C 10.5727 3.24569 1.23582 0
M  V30 125 C 9.5267 4.23333 0.630323 0
M  V30 126 C 8.8527 5.0448 1.77211 0
M  V30 127 C 10.1527 5.20704 -0.407974 0
M  V30 128 H 11.8467 2.95024 -0.510045 0
M  V30 129 H 9.3927 1.4187 -0.246731 0
M  V30 130 H 11.3457 3.8272 1.76362 0
M  V30 131 H 10.0697 2.60236 1.97344 0
M  V30 132 H 8.7287 3.6639 0.123922 0
M  V30 133 H 8.3767 4.36561 2.49847 0
M  V30 134 H 8.0767 5.71339 1.37281 0
M  V30 135 H 9.6007 5.65487 2.3034 0
M  V30 136 H 11.0147 5.7329 0.033305 0
M  V30 137 H 9.4117 5.95699 -0.725486 0
M  V30 138 H 10.4817 4.66917 -1.30828 0
M  V30 139 N 11.8248 0.280983 1.55075 0
M  V30 140 C 13.0708 -0.33461 2.00021 0
M  V30 141 C 13.4038 -1.55063 1.16915 0
M  V30 142 O 12.6788 -1.93006 0.240646 0
M  V30 143 C 12.9618 -0.711007 3.53011 0
M  V30 144 C 12.8148 0.512766 4.46868 0
M  V30 145 C 14.1338 -1.54522 4.12081 0
M  V30 146 H 11.2528 -0.120147 0.727141 0
M  V30 147 H 13.8948 0.389097 1.85973 0
M  V30 148 H 12.0448 -1.32761 3.65112 0
M  V30 149 H 13.7168 1.15131 4.46702 0
M  V30 150 H 11.9598 1.14975 4.18286 0
M  V30 151 H 12.6308 0.205556 5.51617 0
M  V30 152 H 15.1068 -1.02442 4.03293 0
M  V30 153 H 13.9828 -1.77739 5.19327 0
M  V30 154 H 14.2438 -2.52813 3.62682 0
M  V30 155 N 13.3029 -1.57598 0.00835791 0
M  V30 156 C 14.5799 -1.82172 -0.712235 0
M  V30 157 C 14.9599 -0.887873 -1.9152 0
M  V30 158 O 14.3079 0.06146 -2.28417 0
M  V30 159 C 14.5179 -3.30875 -1.11008 0
M  V30 160 C 15.8659 -3.96826 -1.51044 0
M  V30 161 O 16.8899 -3.35248 -1.20364 0
M  V30 162 O 15.7489 -5.05318 -2.08125 0
M  V30 163 H 12.8429 -0.750435 -0.347529 0
M  V30 164 H 15.3889 -1.69665 0.0344523 0
M  V30 165 H 14.1609 -3.90481 -0.252982 0
M  V30 166 H 13.7839 -3.48412 -1.9156 0
M  V30 167 N 14.781 0.264519 -1.55364 0
M  V30 168 C 16.03 0.992812 -1.75574 0
M  V30 169 C 16.343 1.87142 -0.568979 0
M  V30 170 O 17.549 2.63513 -0.653682 0
M  V30 171 C 16.005 1.81519 -3.10771 0
M  V30 172 C 15.613 0.984839 -4.37041 0
M  V30 173 C 17.357 2.53727 -3.40327 0
M  V30 174 C 15.264 1.80209 -5.63275 0
M  V30 175 H 14.194 0.374412 -0.65447 0
M  V30 176 H 16.845 0.248138 -1.81815 0
M  V30 177 H 15.227 2.60115 -2.98591 0
M  V30 178 H 16.401 0.242455 -4.60162 0
M  V30 179 H 14.716 0.37691 -4.14691 0
M  V30 180 H 17.313 3.15292 -4.3185 0
M  V30 181 H 17.656 3.24447 -2.60845 0
M  V30 182 H 18.189 1.82156 -3.53644 0
M  V30 183 H 14.928 1.13896 -6.45529 0
M  V30 184 H 14.448 2.52022 -5.44284 0
M  V30 185 H 16.127 2.37364 -6.01887 0
M  V30 186 N 16.2591 1.48442 0.529413 0
M  V30 187 C 17.4891 1.59919 1.30804 0
M  V30 188 C 17.8971 0.258792 1.87422 0
M  V30 189 O 17.2401 -0.762096 1.67146 0
M  V30 190 C 17.3021 2.58693 2.49636 0
M  V30 191 C 16.9661 4.03745 2.14101 0
M  V30 192 C 17.9631 4.9141 1.6974 0
M  V30 193 C 15.6481 4.49285 2.24607 0
M  V30 194 C 17.6421 6.22645 1.36351 0
M  V30 195 C 15.3291 5.8054 1.9083 0
M  V30 196 C 16.3271 6.67043 1.46773 0
M  V30 197 O 16.0151 7.95856 1.1344 0
M  V30 198 H 15.7471 0.541981 0.404021 0
M  V30 199 H 18.3011 1.95 0.645309 0
M  V30 200 H 16.5311 2.18734 3.18892 0
M  V30 201 H 18.2201 2.59999 3.11698 0
M  V30 202 H 18.9861 4.57465 1.61094 0
M  V30 203 H 14.8651 3.82142 2.57854 0
M  V30 204 H 18.4091 6.90119 1.01891 0
M  V30 205 H 14.3061 6.14022 1.99117 0
M  V30 206 H 15.0741 8.08613 1.26832 0
M  V30 207 N 17.7372 -0.778329 1.37039 0
M  V30 208 C 18.9862 -1.53189 1.3121 0
M  V30 209 C 19.2992 -1.95328 -0.103095 0
M  V30 210 O 20.5052 -2.70012 -0.283826 0
M  V30 211 C 18.9612 -2.76591 2.30272 0
M  V30 212 C 18.5692 -2.41577 3.77286 0
M  V30 213 C 20.3132 -3.5455 2.33441 0
M  V30 214 C 18.2202 -3.61441 4.68096 0
M  V30 215 H 17.1502 -0.5751 0.487622 0
M  V30 216 H 19.8012 -0.853101 1.62464 0
M  V30 217 H 18.1832 -3.46326 1.92027 0
M  V30 218 H 19.3572 -1.79668 4.2433 0
M  V30 219 H 17.6722 -1.76806 3.76999 0
M  V30 220 H 20.2692 -4.43628 2.98493 0
M  V30 221 H 20.6122 -3.93936 1.34611 0
M  V30 222 H 21.1452 -2.91805 2.7036 0
M  V30 223 H 17.8842 -3.27142 5.6803 0
M  V30 224 H 17.4042 -4.22478 4.25761 0
M  V30 225 H 19.0832 -4.28335 4.8491 0
M  V30 226 N 19.2153 -1.21501 -1.00376 0
M  V30 227 C 20.6263 -1.03146 -1.55621 0
M  V30 228 C 20.9773 0.408375 -1.91903 0
M  V30 229 O 20.1023 1.29177 -1.73616 0
M  V30 230 C 20.6973 -1.86612 -2.82775 0
M  V30 231 C 19.2563 -1.72586 -3.34501 0
M  V30 232 C 18.4033 -1.83747 -2.07683 0
M  V30 233 H 21.3543 -1.35505 -0.826081 0
M  V30 234 H 21.3753 -1.3771 -3.54706 0
M  V30 235 H 20.8873 -2.91399 -2.56336 0
M  V30 236 H 18.9883 -0.704877 -3.65872 0
M  V30 237 H 19.1013 -2.54623 -4.05837 0
M  V30 238 H 17.4653 -1.27069 -2.20739 0
M  V30 239 H 18.2483 -2.90044 -1.83655 0
M  V30 240 N 20.6934 1.19889 -1.02296 0
M  V30 241 C 22.1094 1.41462 -0.738954 0
M  V30 242 C 22.3094 1.89721 0.678846 0
M  V30 243 O 21.3654 2.07016 1.4457 0
M  V30 244 C 22.6784 2.43083 -1.77005 0
M  V30 245 C 24.2264 2.5684 -1.78892 0
M  V30 246 C 24.7014 3.61709 -2.80945 0
M  V30 247 N 26.1924 3.69199 -2.79725 0
M  V30 248 C 26.9274 4.50019 -3.55345 0
M  V30 249 N 26.4234 5.34592 -4.40662 0
M  V30 250 N 28.2164 4.44612 -3.43914 0
M  V30 251 H 20.3674 0.868827 -1.93817 0
M  V30 252 H 22.6304 0.44399 -0.837602 0
M  V30 253 H 22.3364 2.14636 -2.78612 0
M  V30 254 H 22.2104 3.4217 -1.58744 0
M  V30 255 H 24.5974 2.84614 -0.779674 0
M  V30 256 H 24.6784 1.57927 -2.01228 0
M  V30 257 H 24.3224 3.34678 -3.82038 0
M  V30 258 H 24.2524 4.60259 -2.5587 0
M  V30 259 H 26.7434 3.08794 -2.17842 0
M  V30 260 H 27.0564 5.93363 -4.95116 0
M  V30 261 H 25.4014 5.34073 -4.44737 0
M  V30 262 H 28.5924 3.7758 -2.76679 0
M  V30 263 H 28.7654 5.0736 -4.031 0
M  V30 264 N 22.1715 0.800033 1.35784 0
M  V30 265 C 23.1185 0.203848 2.29898 0
M  V30 266 C 24.0885 -0.658375 1.52495 0
M  V30 267 O 25.2735 -0.604832 1.8096 0
M  V30 268 C 22.4135 -0.64688 3.38983 0
M  V30 269 C 21.5265 0.235054 4.3136 0
M  V30 270 C 20.6615 -0.623054 5.27533 0
M  V30 271 C 19.7005 0.259682 6.11549 0
M  V30 272 N 18.8375 -0.558019 6.99879 0
M  V30 273 H 23.6775 1.01186 2.80295 0
M  V30 274 H 21.2145 0.51053 1.37957 0
M  V30 275 H 23.1725 -1.15521 4.00887 0
M  V30 276 H 21.8025 -1.42021 2.89879 0
M  V30 277 H 20.8545 0.861438 3.70518 0
M  V30 278 H 22.1665 0.914768 4.9034 0
M  V30 279 H 21.3205 -1.19678 5.94779 0
M  V30 280 H 20.0595 -1.33636 4.69034 0
M  V30 281 H 19.0645 0.845726 5.43256 0
M  V30 282 H 20.2895 0.970748 6.72126 0
M  V30 283 H 18.2355 -1.25542 6.43875 0
M  V30 284 H 18.1525 0.0637872 7.55973 0
M  V30 285 H 19.4205 -1.11523 7.71481 0
M  V30 286 N 23.6496 -1.47581 0.552962 0
M  V30 287 C 24.8896 -2.04379 0.0296245 0
M  V30 288 C 25.2536 -1.4185 -1.29393 0
M  V30 289 O 26.4546 -1.89669 -1.90471 0
M  V30 290 C 24.7256 -3.57339 -0.0661371 0
M  V30 291 S 26.2846 -4.35511 -0.536213 0
M  V30 292 H 23.1026 -0.710625 0.0230991 0
M  V30 293 H 25.7046 -1.81005 0.738734 0
M  V30 294 H 24.4086 -4.00374 0.901596 0
M  V30 295 H 23.9396 -3.85202 -0.798931 0
M  V30 296 H 25.9546 -4.6253 -1.79668 0
M  V30 297 N 25.1277 -0.289203 -1.54924 0
M  V30 298 C 26.3527 0.329299 -2.04769 0
M  V30 299 C 26.7777 1.4763 -1.16564 0
M  V30 300 O 26.1357 1.80527 -0.167186 0
M  V30 301 C 26.1837 0.774438 -3.52186 0
M  V30 302 O 25.2877 1.88038 -3.67036 0
M  V30 303 H 24.6287 0.0659259 -0.660719 0
M  V30 304 H 27.1587 -0.42761 -2.00082 0
M  V30 305 H 27.1687 1.06642 -3.93816 0
M  V30 306 H 25.8437 -0.0646707 -4.1585 0
M  V30 307 H 24.4207 1.58985 -3.3731 0
M  V30 308 N 26.6058 1.57591 -0.0167156 0
M  V30 309 C 27.5688 2.08393 0.954204 0
M  V30 310 C 28.5688 0.996531 1.26198 0
M  V30 311 O 29.7588 1.25858 1.20438 0
M  V30 312 C 26.8908 2.5394 2.27436 0
M  V30 313 H 28.0838 2.95455 0.514451 0
M  V30 314 H 25.6368 1.54582 0.231089 0
M  V30 315 H 26.3718 1.70171 2.76066 0
M  V30 316 H 26.1568 3.33371 2.06412 0
M  V30 317 H 27.6468 2.93512 2.97053 0
M  V30 318 N 28.0839 -0.256276 1.55502 0
M  V30 319 C 29.3119 -1.00342 1.8094 0
M  V30 320 C 29.7269 -1.79307 0.59114 0
M  V30 321 O 29.0839 -1.77114 -0.440081 0
M  V30 322 C 29.1349 -1.94875 3.04476 0
M  V30 323 O 28.8559 -1.19107 4.21598 0
M  V30 324 C 30.3569 -2.81266 3.42644 0
M  V30 325 H 27.5769 -0.295685 0.602338 0
M  V30 326 H 30.1209 -0.281998 2.02546 0
M  V30 327 H 28.2759 -2.62457 2.84947 0
M  V30 328 H 28.6899 -1.82969 4.91551 0
M  V30 329 H 30.1639 -3.43362 4.32211 0
M  V30 330 H 30.6409 -3.51897 2.62802 0
M  V30 331 H 31.2469 -2.1915 3.64491 0
M  V30 332 N 29.562 -1.4872 -0.521534 0
M  V30 333 C 30.787 -1.61101 -1.30618 0
M  V30 334 C 31.212 -0.274611 -1.86085 0
M  V30 335 O 30.57 0.754937 -1.64834 0
M  V30 336 C 30.618 -2.66709 -2.4269 0
M  V30 337 O 29.722 -2.24456 -3.45967 0
M  V30 338 H 29.063 -0.539921 -0.386499 0
M  V30 339 H 31.593 -1.94767 -0.626645 0
M  V30 340 H 31.603 -2.88245 -2.88754 0
M  V30 341 H 30.278 -3.63727 -2.01682 0
M  V30 342 H 28.855 -2.13168 -3.05964 0
M  V30 343 N 31.0401 0.771051 -1.3745 0
M  V30 344 C 32.4561 1.07171 -1.18265 0
M  V30 345 C 32.6561 2.01491 -0.019287 0
M  V30 346 O 31.7121 2.44244 0.640408 0
M  V30 347 C 33.0251 1.66854 -2.50161 0
M  V30 348 C 34.5731 1.79109 -2.56689 0
M  V30 349 C 35.0481 2.42205 -3.88717 0
M  V30 350 N 36.5391 2.49655 -3.90162 0
M  V30 351 C 37.2741 2.9933 -4.8907 0
M  V30 352 N 36.7701 3.49172 -5.98374 0
M  V30 353 N 38.5631 2.9821 -4.76474 0
M  V30 354 H 30.7141 0.144796 -2.11906 0
M  V30 355 H 32.9771 0.126863 -0.939473 0
M  V30 356 H 32.6831 1.05017 -3.35655 0
M  V30 357 H 32.5571 2.6614 -2.673 0
M  V30 358 H 34.9441 2.40077 -1.71601 0
M  V30 359 H 35.0251 0.785757 -2.43433 0
M  V30 360 H 34.6691 1.81875 -4.74219 0
M  V30 361 H 34.5991 3.43345 -3.99276 0
M  V30 362 H 37.0901 2.14383 -3.11205 0
M  V30 363 H 37.4031 3.8548 -6.69795 0
M  V30 364 H 35.7481 3.47275 -6.02018 0
M  V30 365 H 38.9391 2.58572 -3.90203 0
M  V30 366 H 39.1121 3.36613 -5.53711 0
M  V30 367 N 32.5182 1.22032 0.997298 0
M  V30 368 C 33.4482 1.01065 2.10495 0
M  V30 369 C 34.4292 -0.0669542 1.69968 0
M  V30 370 O 35.6142 0.0943987 1.9397 0
M  V30 371 C 32.7442 0.582874 3.42374 0
M  V30 372 C 31.6982 1.60592 3.96729 0
M  V30 373 C 31.0242 1.03412 5.24605 0
M  V30 374 C 32.3242 2.99478 4.27914 0
M  V30 375 H 34.0182 1.93708 2.28292 0
M  V30 376 H 31.5642 0.932761 1.09707 0
M  V30 377 H 33.5172 0.423332 4.19268 0
M  V30 378 H 32.2412 -0.379213 3.24391 0
M  V30 379 H 30.9002 1.75316 3.21963 0
M  V30 380 H 30.5482 0.063518 5.0296 0
M  V30 381 H 30.2482 1.71754 5.61938 0
M  V30 382 H 31.7722 0.886066 6.04137 0
M  V30 383 H 33.1862 2.88153 4.95622 0
M  V30 384 H 31.5832 3.64903 4.76409 0
M  V30 385 H 32.6532 3.49742 3.3587 0
M  V30 386 N 33.9963 -1.19345 1.0293 0
M  V30 387 C 35.2453 -1.88363 0.721256 0
M  V30 388 C 35.5583 -1.80514 -0.753254 0
M  V30 389 O 36.7643 -2.44788 -1.17436 0
M  V30 390 C 35.2203 -3.37872 1.23978 0
M  V30 391 C 34.8283 -3.54278 2.74211 0
M  V30 392 C 36.5723 -4.12365 1.00775 0
M  V30 393 C 34.4793 -4.97682 3.19479 0
M  V30 394 H 33.4093 -0.705484 0.266098 0
M  V30 395 H 36.0603 -1.34928 1.24365 0
M  V30 396 H 34.4423 -3.90707 0.6453 0
M  V30 397 H 35.6163 -3.11769 3.39318 0
M  V30 398 H 33.9313 -2.93174 2.95699 0
M  V30 399 H 36.5283 -5.18119 1.32123 0
M  V30 400 H 36.8713 -4.16263 -0.0554308 0
M  V30 401 H 37.4043 -3.65668 1.56625 0
M  V30 402 H 34.1433 -4.98945 4.25128 0
M  V30 403 H 33.6633 -5.4095 2.591 0
M  V30 404 H 35.3423 -5.66337 3.12845 0
M  V30 405 N 35.4744 -0.807222 -1.35358 0
M  V30 406 C 36.8854 -0.44876 -1.81226 0
M  V30 407 C 37.2364 1.02929 -1.67033 0
M  V30 408 O 36.3614 1.79991 -1.20133 0
M  V30 409 C 36.9564 -0.807774 -3.2903 0
M  V30 410 C 35.5154 -0.501901 -3.73039 0
M  V30 411 C 34.6624 -1.03304 -2.57339 0
M  V30 412 H 37.6134 -0.998808 -1.23327 0
M  V30 413 H 37.6344 -0.10554 -3.80354 0
M  V30 414 H 37.1464 -1.88357 -3.39328 0
M  V30 415 H 35.2474 0.565128 -3.68289 0
M  V30 416 H 35.3604 -1.03497 -4.67787 0
M  V30 417 H 33.7244 -0.455339 -2.50597 0
M  V30 418 H 34.5074 -2.11496 -2.70415 0
M  V30 419 N 36.9525 1.47285 -0.560781 0
M  V30 420 C 37.9155 2.28535 0.174488 0
M  V30 421 C 38.9155 1.37153 0.839388 0
M  V30 422 O 40.1055 1.59748 0.694702 0
M  V30 423 C 37.2375 3.16934 1.25561 0
M  V30 424 H 38.4305 2.95012 -0.539262 0
M  V30 425 H 35.9835 1.53034 -0.317865 0
M  V30 426 H 36.7185 2.55157 2.00164 0
M  V30 427 H 36.5035 3.8419 0.783604 0
M  V30 428 H 37.9935 3.78143 1.77193 0
M  V30 429 N 38.4306 0.297415 1.54768 0
M  V30 430 C 39.3776 -0.580276 2.23386 0
M  V30 431 C 40.3476 -1.13238 1.21517 0
M  V30 432 O 41.5326 -1.17757 1.50126 0
M  V30 433 C 38.6726 -1.74801 2.97555 0
M  V30 434 C 37.7856 -1.22764 4.1419 0
M  V30 435 C 36.9206 -2.35895 4.75949 0
M  V30 436 C 35.9596 -1.80974 5.84735 0
M  V30 437 N 35.0966 -2.87664 6.40464 0
M  V30 438 H 39.9366 0.0114833 2.97998 0
M  V30 439 H 37.4736 0.0174361 1.4709 0
M  V30 440 H 39.4316 -2.43475 3.38786 0
M  V30 441 H 38.0616 -2.31145 2.25326 0
M  V30 442 H 37.1136 -0.433271 3.77924 0
M  V30 443 H 38.4256 -0.785551 4.92575 0
M  V30 444 H 37.5796 -3.12523 5.20014 0
M  V30 445 H 36.3186 -2.83429 3.96887 0
M  V30 446 H 35.3236 -1.02834 5.40097 0
M  V30 447 H 36.5486 -1.34348 6.65678 0
M  V30 448 H 34.4946 -3.34538 5.64287 0
M  V30 449 H 34.4116 -2.4794 7.14186 0
M  V30 450 H 35.6796 -3.642 6.89187 0
M  V30 451 N 39.9087 -1.5758 0.0250728 0
M  V30 452 C 40.8187 -2.1343 -0.973905 0
M  V30 453 C 41.8347 -1.08556 -1.35984 0
M  V30 454 O 43.0107 -1.40592 -1.44207 0
M  V30 455 C 40.0757 -2.64703 -2.23904 0
M  V30 456 C 39.1367 -3.84276 -1.91391 0
M  V30 457 C 38.3697 -4.33095 -3.11873 0
M  V30 458 O 38.5927 -3.81107 -4.24398 0
M  V30 459 O 37.5267 -5.24984 -2.94406 0
M  V30 460 H 41.3527 -2.99057 -0.529036 0
M  V30 461 H 38.9377 -1.48118 -0.195288 0
M  V30 462 H 40.8197 -2.97769 -2.98181 0
M  V30 463 H 39.4947 -1.82161 -2.6758 0
M  V30 464 H 38.4017 -3.56143 -1.14511 0
M  V30 465 H 39.7347 -4.67968 -1.52534 0
M  V30 466 N 41.3868 0.248026 -1.55636 0
M  V30 467 C 42.3368 1.30994 -1.86614 0
M  V30 468 C 43.3208 1.43543 -0.726918 0
M  V30 469 O 44.5128 1.46804 -0.988818 0
M  V30 470 C 41.6418 2.6656 -2.16335 0
M  V30 471 C 40.7278 2.58019 -3.36581 0
M  V30 472 N 41.1188 2.1911 -4.55878 0
M  V30 473 C 39.4168 2.89035 -3.39669 0
M  V30 474 C 40.1178 2.21174 -5.38012 0
M  V30 475 N 39.0938 2.60632 -4.77045 0
M  V30 476 H 42.8958 0.999583 -2.76379 0
M  V30 477 H 40.4098 0.456652 -1.55848 0
M  V30 478 H 42.4068 3.43194 -2.36692 0
M  V30 479 H 41.0668 2.98463 -1.27867 0
M  V30 480 H 42.0778 1.90672 -4.81523 0
M  V30 481 H 38.7548 3.25485 -2.61469 0
M  V30 482 H 40.1448 1.9344 -6.43452 0
M  V30 483 N 42.8649 1.48995 0.513639 0
M  V30 484 C 44.1129 1.57531 1.26604 0
M  V30 485 C 44.4339 0.258236 1.93283 0
M  V30 486 O 43.7039 -0.721502 1.8213 0
M  V30 487 H 42.2839 0.580387 0.470276 0
M  V30 488 H 44.9459 1.85552 0.596373 0
M  V30 489 H 44.0419 2.36486 2.03669 0
M  V30 490 N 44.343 -0.763751 1.37857 0
M  V30 491 C 45.306 -1.85889 1.34081 0
M  V30 492 C 46.306 -1.58949 0.243277 0
M  V30 493 O 47.496 -1.66882 0.499589 0
M  V30 494 C 44.628 -3.23176 1.08489 0
M  V30 495 H 45.821 -1.90648 2.31502 0
M  V30 496 H 43.374 -0.964367 1.23003 0
M  V30 497 H 44.109 -3.24091 0.116318 0
M  V30 498 H 43.894 -3.44124 1.8794 0
M  V30 499 H 45.384 -4.03254 1.08517 0
M  V30 500 N 45.8211 -1.22559 -0.990812 0
M  V30 501 C 47.0671 -1.05297 -1.73322 0
M  V30 502 C 47.4001 0.410655 -1.89808 0
M  V30 503 O 46.6751 1.30439 -1.44277 0
M  V30 504 C 46.9581 -1.76713 -3.13759 0
M  V30 505 C 46.8111 -3.30684 -3.04907 0
M  V30 506 C 48.1301 -1.52121 -4.12974 0
M  V30 507 H 45.2491 -0.38392 -0.629106 0
M  V30 508 H 47.8911 -1.50926 -1.15418 0
M  V30 509 H 46.0411 -1.37924 -3.63193 0
M  V30 510 H 47.7131 -3.7893 -2.63077 0
M  V30 511 H 45.9561 -3.60253 -2.41661 0
M  V30 512 H 46.6271 -3.75833 -4.04294 0
M  V30 513 H 49.1031 -1.85819 -3.72304 0
M  V30 514 H 47.9791 -2.04582 -5.0935 0
M  V30 515 H 48.2401 -0.454257 -4.3976 0
M  V30 516 N 47.2992 1.18797 -1.03562 0
M  V30 517 C 48.2312 2.21731 -0.580337 0
M  V30 518 C 49.2442 1.59051 0.347349 0
M  V30 519 O 50.4332 1.77929 0.142669 0
M  V30 520 C 47.5332 3.38459 0.172805 0
M  V30 521 C 46.7062 4.3072 -0.761496 0
M  V30 522 C 45.7652 5.26174 -0.0525547 0
M  V30 523 O 44.7912 5.65108 -0.681333 0
M  V30 524 N 45.9932 5.67624 1.21586 0
M  V30 525 H 48.7582 2.61417 -1.46565 0
M  V30 526 H 46.3192 1.33531 -0.915476 0
M  V30 527 H 48.3112 3.99335 0.656793 0
M  V30 528 H 46.8812 2.97507 0.959602 0
M  V30 529 H 46.1012 3.67525 -1.42544 0
M  V30 530 H 47.3892 4.89267 -1.39626 0
M  V30 531 H 46.7872 5.38038 1.74732 0
M  V30 532 H 45.3442 6.30721 1.64421 0
M  V30 533 N 48.7773 0.814389 1.34928 0
M  V30 534 C 50.0263 0.394871 1.97797 0
M  V30 535 C 50.3393 -1.04555 1.65311 0
M  V30 536 O 51.5453 -1.56856 2.21604 0
M  V30 537 C 50.0013 0.655103 3.53888 0
M  V30 538 C 49.6093 2.10858 3.95276 0
M  V30 539 C 51.3533 0.301329 4.23429 0
M  V30 540 C 49.2603 2.31415 5.44244 0
M  V30 541 H 48.1903 0.143913 0.740139 0
M  V30 542 H 50.8413 0.999544 1.53888 0
M  V30 543 H 49.2233 -0.0196253 3.95995 0
M  V30 544 H 50.3973 2.82176 3.64298 0
M  V30 545 H 48.7123 2.42297 3.38646 0
M  V30 546 H 51.3093 0.432869 5.32945 0
M  V30 547 H 51.6523 -0.75331 4.09428 0
M  V30 548 H 52.1853 0.930288 3.86769 0
M  V30 549 H 48.9243 3.35353 5.63222 0
M  V30 550 H 48.4443 1.6463 5.76764 0
M  V30 551 H 50.1233 2.13352 6.10811 0
M  V30 552 N 50.2554 -1.46986 0.568584 0
M  V30 553 C 51.2034 -2.31858 -0.185649 0
M  V30 554 C 52.1974 -1.43624 -0.898249 0
M  V30 555 O 53.4034 -1.60327 -0.818242 0
M  V30 556 H 49.7784 -0.747866 -0.0787399 0
M  V30 557 H 51.7494 -2.93303 0.549191 0
M  V30 558 C 50.4984 -3.26513 -1.19519 0
M  V30 559 H 49.8214 -3.94377 -0.656285 0
M  V30 560 H 51.2614 -3.88707 -1.6936 0
M  V30 561 C 49.7204 -2.50847 -2.24894 0
M  V30 562 O 50.2504 -2.26119 -3.32014 0
M  V30 563 N 48.4564 -2.11656 -1.99124 0
M  V30 564 H 48.0034 -2.31966 -1.12024 0
M  V30 565 H 47.9614 -1.61347 -2.69842 0
M  V30 566 N 51.7335 -0.305618 -1.54608 0
M  V30 567 C 52.9795 0.302746 -2.00528 0
M  V30 568 C 53.3125 1.53184 -1.19367 0
M  V30 569 O 52.5875 1.92598 -0.271321 0
M  V30 570 C 52.8705 0.654756 -3.54097 0
M  V30 571 C 52.7235 -0.583793 -4.45995 0
M  V30 572 C 54.0425 1.47947 -4.14487 0
M  V30 573 H 51.1615 0.108564 -0.72896 0
M  V30 574 H 53.8035 -0.418634 -1.85331 0
M  V30 575 H 51.9535 1.26935 -3.67178 0
M  V30 576 H 53.6255 -1.22224 -4.44814 0
M  V30 577 H 51.8685 -1.21615 -4.16404 0
M  V30 578 H 52.5395 -0.293287 -5.5122 0
M  V30 579 H 55.0155 0.96013 -4.04871 0
M  V30 580 H 53.8915 1.69454 -5.22088 0
M  V30 581 H 54.1525 2.47011 -3.66658 0
M  V30 582 N 53.2116 1.57565 -0.0334293 0
M  V30 583 C 54.4596 1.91598 0.642999 0
M  V30 584 C 54.7806 0.910847 1.7242 0
M  V30 585 O 54.0506 -0.0469931 1.95844 0
M  V30 586 H 52.6306 0.707228 0.240496 0
M  V30 587 H 55.2926 1.94726 -0.0822488 0
M  V30 588 H 54.3886 2.92336 1.09298 0
M  V30 589 N 54.6897 -0.239769 1.55765 0
M  V30 590 C 55.6227 -1.32356 1.85895 0
M  V30 591 C 56.6007 -1.46053 0.714662 0
M  V30 592 O 57.7847 -1.62154 0.961157 0
M  V30 593 C 54.9117 -2.6962 2.04994 0
M  V30 594 C 53.9577 -2.73036 3.27648 0
M  V30 595 S 54.7907 -2.28929 4.84099 0
M  V30 596 C 55.9467 -3.68103 5.06212 0
M  V30 597 H 56.1797 -1.06601 2.77531 0
M  V30 598 H 53.7127 -0.441112 1.47965 0
M  V30 599 H 55.6707 -3.48653 2.16682 0
M  V30 600 H 54.3317 -2.92609 1.14188 0
M  V30 601 H 53.5247 -3.7386 3.38 0
M  V30 602 H 53.1267 -2.02052 3.14723 0
M  V30 603 H 55.4187 -4.63656 4.93993 0
M  V30 604 H 56.3617 -3.6268 6.08168 0
M  V30 605 H 56.7697 -3.60947 4.34025 0
M  V30 606 N 56.1678 -1.49265 -0.50573 0
M  V30 607 C 57.4138 -1.58748 -1.26202 0
M  V30 608 C 57.7468 -0.271227 -1.92297 0
M  V30 609 O 57.0218 0.724831 -1.80489 0
M  V30 610 C 57.3048 -2.74332 -2.33268 0
M  V30 611 C 57.1578 -4.15737 -1.71705 0
M  V30 612 C 58.4768 -2.85576 -3.34865 0
M  V30 613 H 55.5958 -0.577826 -0.457478 0
M  V30 614 H 58.2378 -1.81532 -0.560897 0
M  V30 615 H 56.3878 -2.55036 -2.93068 0
M  V30 616 H 58.0598 -4.46537 -1.15769 0
M  V30 617 H 56.3028 -4.21605 -1.02135 0
M  V30 618 H 56.9738 -4.92477 -2.49341 0
M  V30 619 H 59.4498 -3.03127 -2.8505 0
M  V30 620 H 58.3258 -3.68135 -4.07146 0
M  V30 621 H 58.5868 -1.94732 -3.96903 0
M  V30 622 N 57.6459 0.756429 -1.3826 0
M  V30 623 C 58.9229 1.50584 -1.24835 0
M  V30 624 C 59.3029 2.10556 0.151485 0
M  V30 625 O 58.6509 1.96825 1.1607 0
M  V30 626 C 58.8609 2.57448 -2.3563 0
M  V30 627 C 60.2089 3.24429 -2.73917 0
M  V30 628 O 61.2329 2.67751 -2.34921 0
M  V30 629 O 60.0919 4.26937 -3.41156 0
M  V30 630 H 57.1859 0.667664 -0.48801 0
M  V30 631 H 59.7319 0.792083 -1.5008 0
M  V30 632 H 58.5039 2.11362 -3.29305 0
M  V30 633 H 58.1269 3.36408 -2.11933 0
M  V30 634 N 59.124 1.23083 0.984299 0
M  V30 635 C 60.087 1.00979 2.05757 0
M  V30 636 C 61.087 -0.0269573 1.60777 0
M  V30 637 O 62.277 0.212403 1.729 0
M  V30 638 C 59.409 0.527072 3.36801 0
M  V30 639 H 60.602 1.9622 2.26799 0
M  V30 640 H 58.155 1.05072 1.15714 0
M  V30 641 H 58.89 -0.429294 3.21446 0
M  V30 642 H 58.675 1.27515 3.70786 0
M  V30 643 H 60.165 0.392942 4.15747 0
M  V30 644 N 60.6021 -1.18246 1.0419 0
M  V30 645 C 61.5501 -2.23968 0.627792 0
M  V30 646 C 62.5441 -1.65828 -0.346019 0
M  V30 647 O 63.7501 -1.78733 -0.213175 0
M  V30 648 H 60.1251 -0.728939 0.184802 0
M  V30 649 H 62.0961 -2.56202 1.52981 0
M  V30 650 C 60.8451 -3.47699 0.00796591 0
M  V30 651 H 60.1681 -3.92734 0.748347 0
M  V30 652 H 61.6081 -4.23294 -0.24455 0
M  V30 653 C 60.0671 -3.13153 -1.24246 0
M  V30 654 O 60.5971 -3.27003 -2.33307 0
M  V30 655 N 58.8031 -2.67467 -1.13622 0
M  V30 656 H 58.3501 -2.56396 -0.248734 0
M  V30 657 H 58.3081 -2.44724 -1.97377 0
M  V30 658 N 62.0802 -0.821533 -1.34494 0
M  V30 659 C 63.3282 -0.408139 -1.97936 0
M  V30 660 C 63.6492 1.03193 -1.65457 0
M  V30 661 O 62.9192 1.71622 -0.944595 0
M  V30 662 H 61.4992 -0.147928 -0.732206 0
M  V30 663 H 64.1612 -1.05067 -1.64155 0
M  V30 664 H 63.2572 -0.52601 -3.07635 0
M  V30 665 N 63.5583 1.46682 -0.576371 0
M  V30 666 C 64.8043 2.02712 -0.0596221 0
M  V30 667 C 65.1373 1.44765 1.29448 0
M  V30 668 O 64.4123 0.610355 1.84675 0
M  V30 669 C 64.6953 3.60098 0.0129503 0
M  V30 670 C 64.5483 4.28441 -1.3696 0
M  V30 671 C 65.8673 4.34224 0.71678 0
M  V30 672 H 62.9863 0.736637 -0.0231407 0
M  V30 673 H 65.6283 1.74898 -0.742351 0
M  V30 674 H 63.7783 3.83926 0.594378 0
M  V30 675 H 65.4503 4.15896 -1.9957 0
M  V30 676 H 63.6933 3.8805 -1.93907 0
M  V30 677 H 64.3643 5.3716 -1.27135 0
M  V30 678 H 66.8403 4.15503 0.222908 0
M  V30 679 H 65.7163 5.43936 0.73657 0
M  V30 680 H 65.9773 4.04823 1.77682 0
M  V30 681 N 65.0364 0.313813 1.54444 0
M  V30 682 C 66.2664 -0.293491 2.04505 0
M  V30 683 C 66.6744 -1.47086 1.19005 0
M  V30 684 O 66.0174 -1.82481 0.211257 0
M  V30 685 C 66.0794 -0.800455 3.50475 0
M  V30 686 C 65.7434 0.253322 4.56297 0
M  V30 687 C 66.7404 1.08612 5.08428 0
M  V30 688 C 64.4254 0.398708 5.00715 0
M  V30 689 C 66.4194 2.05013 6.0353 0
M  V30 690 C 64.1064 1.36614 5.95634 0
M  V30 691 C 65.1044 2.19033 6.46926 0
M  V30 692 O 64.7924 3.14134 7.39983 0
M  V30 693 H 64.5244 -0.0658325 0.672787 0
M  V30 694 H 67.0784 0.455177 2.00293 0
M  V30 695 H 65.3084 -1.59987 3.52053 0
M  V30 696 H 66.9974 -1.32504 3.83663 0
M  V30 697 H 67.7634 0.984736 4.74898 0
M  V30 698 H 63.6424 -0.23289 4.60411 0
M  V30 699 H 67.1864 2.69382 6.4349 0
M  V30 700 H 63.0834 1.4682 6.28581 0
M  V30 701 H 63.8514 3.0926 7.57826 0
M  V30 702 N 66.5145 -1.57545 0.0417849 0
M  V30 703 C 67.4625 -2.12148 -0.953723 0
M  V30 704 C 68.4565 -1.05104 -1.32852 0
M  V30 705 O 69.6625 -1.23524 -1.30927 0
M  V30 706 H 66.0375 -0.677957 -0.325389 0
M  V30 707 H 68.0085 -2.94707 -0.467991 0
M  V30 708 C 66.7575 -2.6739 -2.22257 0
M  V30 709 H 66.0805 -3.49413 -1.94295 0
M  V30 710 H 67.5205 -3.09227 -2.90094 0
M  V30 711 C 65.9795 -1.60723 -2.96091 0
M  V30 712 O 66.5095 -1.01449 -3.88679 0
M  V30 713 N 64.7155 -1.32466 -2.58652 0
M  V30 714 H 64.2625 -1.80856 -1.83437 0
M  V30 715 H 64.2205 -0.61325 -3.08361 0
M  V30 716 N 67.9926 0.231505 -1.5589 0
M  V30 717 C 69.2406 0.955461 -1.78088 0
M  V30 718 C 69.5616 1.85262 -0.608533 0
M  V30 719 O 68.8316 1.92277 0.375035 0
M  V30 720 H 67.4116 0.355787 -0.656829 0
M  V30 721 H 70.0736 0.245751 -1.93344 0
M  V30 722 H 69.1696 1.56814 -2.69844 0
M  V30 723 N 69.4707 1.49531 0.497807 0
M  V30 724 C 70.4177 1.66436 1.59899 0
M  V30 725 C 71.3877 0.505793 1.58212 0
M  V30 726 O 72.5727 0.733202 1.7615 0
M  V30 727 C 69.7127 1.7399 2.98029 0
M  V30 728 C 68.8257 3.01172 3.09708 0
M  V30 729 C 67.9607 2.99686 4.38591 0
M  V30 730 C 66.9997 4.21434 4.43914 0
M  V30 731 N 66.1367 4.1784 5.64229 0
M  V30 732 H 70.9767 2.60459 1.44793 0
M  V30 733 H 68.5137 1.29137 0.704423 0
M  V30 734 H 70.4717 1.76352 3.78095 0
M  V30 735 H 69.1017 0.834301 3.11832 0
M  V30 736 H 68.1537 3.08408 2.22685 0
M  V30 737 H 69.4657 3.91165 3.09502 0
M  V30 738 H 68.6197 3.00628 5.2698 0
M  V30 739 H 67.3587 2.07477 4.41367 0
M  V30 740 H 66.3637 4.20733 3.53926 0
M  V30 741 H 67.5887 5.14839 4.42851 0
M  V30 742 H 65.5347 3.28469 5.67841 0
M  V30 743 H 65.4517 5.01571 5.65652 0
M  V30 744 H 66.7197 4.22889 6.54817 0
M  V30 745 N 70.9488 -0.749086 1.3866 0
M  V30 746 C 72.1768 -1.53834 1.38358 0
M  V30 747 C 72.5918 -1.88783 -0.0255219 0
M  V30 748 O 71.9488 -1.53101 -0.993292 0
M  V30 749 C 71.9998 -2.83468 2.2434 0
M  V30 750 O 71.7208 -2.50008 3.5976 0
M  V30 751 C 73.2218 -3.7758 2.32267 0
M  V30 752 H 70.4418 -0.47585 0.473083 0
M  V30 753 H 72.9858 -0.926726 1.82297 0
M  V30 754 H 71.1408 -3.40995 1.83851 0
M  V30 755 H 71.5548 -3.33182 4.05081 0
M  V30 756 H 73.0288 -4.65478 2.96706 0
M  V30 757 H 73.5058 -4.18334 1.33765 0
M  V30 758 H 74.1118 -3.25976 2.73166 0
M  V30 759 N 72.4269 -1.23603 -0.977757 0
M  V30 760 C 73.3369 -1.03632 -2.1047 0
M  V30 761 C 74.3529 0.0199435 -1.73989 0
M  V30 762 O 75.5289 -0.176076 -2.00629 0
M  V30 763 C 72.5939 -0.63276 -3.40877 0
M  V30 764 C 71.6549 -1.76437 -3.91367 0
M  V30 765 C 70.8879 -1.37997 -5.15551 0
M  V30 766 O 71.1109 -0.265357 -5.69782 0
M  V30 767 O 70.0449 -2.20201 -5.60174 0
M  V30 768 H 73.8709 -1.98086 -2.30208 0
M  V30 769 H 71.4559 -1.02332 -1.08851 0
M  V30 770 H 73.3379 -0.418761 -4.19314 0
M  V30 771 H 72.0129 0.282754 -3.22463 0
M  V30 772 H 70.9199 -2.03304 -3.14036 0
M  V30 773 H 72.2529 -2.6583 -4.14241 0
M  V30 774 N 73.905 1.17692 -1.04816 0
M  V30 775 C 75.133 1.91786 -0.776254 0
M  V30 776 C 75.548 1.76604 0.667577 0
M  V30 777 O 74.905 1.10067 1.45573 0
M  V30 778 C 74.956 3.42967 -1.14263 0
M  V30 779 O 74.677 3.57678 -2.52978 0
M  V30 780 C 76.178 4.34144 -0.896311 0
M  V30 781 H 73.398 0.608624 -0.282519 0
M  V30 782 H 75.942 1.49268 -1.39783 0
M  V30 783 H 74.097 3.83245 -0.565874 0
M  V30 784 H 74.511 4.51319 -2.67229 0
M  V30 785 H 75.985 5.38744 -1.20244 0
M  V30 786 H 76.462 4.38876 0.168636 0
M  V30 787 H 77.068 3.99574 -1.45672 0
M  V30 788 N 75.3831 0.828654 1.34056 0
M  V30 789 C 76.6301 0.419458 1.98108 0
M  V30 790 C 76.9581 -1.01886 1.65679 0
M  V30 791 O 76.2131 -1.72539 0.923512 0
M  V30 792 C 76.5121 0.575226 3.52741 0
M  V30 793 C 76.1781 1.98012 4.05095 0
M  V30 794 C 74.8401 2.36442 4.19104 0
M  V30 795 C 77.1921 2.89824 4.33188 0
M  V30 796 C 74.5201 3.66009 4.58535 0
M  V30 797 C 76.8721 4.1886 4.74066 0
M  V30 798 C 75.5361 4.5726 4.86281 0
M  V30 799 H 74.8061 0.153491 0.724929 0
M  V30 800 H 77.4531 1.05371 1.59904 0
M  V30 801 H 75.7581 -0.142385 3.91541 0
M  V30 802 H 77.4551 0.239057 4.00287 0
M  V30 803 H 74.0451 1.67162 3.94658 0
M  V30 804 H 78.2291 2.61375 4.21897 0
M  V30 805 H 73.4851 3.95579 4.66184 0
M  V30 806 H 77.6591 4.90086 4.94761 0
M  V30 807 H 75.2861 5.57707 5.16592 0
M  V30 808 N 76.8612 -1.46375 0.584142 0
M  V30 809 C 77.8242 -2.28784 -0.138108 0
M  V30 810 C 78.8242 -1.38471 -0.817462 0
M  V30 811 O 80.0142 -1.60833 -0.669199 0
M  V30 812 C 77.1462 -3.18892 -1.20503 0
M  V30 813 H 78.3392 -2.94117 0.586127 0
M  V30 814 H 75.8922 -1.52509 0.342171 0
M  V30 815 H 76.6272 -2.58309 -1.96079 0
M  V30 816 H 76.4122 -3.85388 -0.722384 0
M  V30 817 H 77.9022 -3.80914 -1.71155 0
M  V30 818 N 78.3393 -0.321999 -1.54275 0
M  V30 819 C 79.5883 0.281931 -1.9972 0
M  V30 820 C 79.9013 1.53369 -1.21397 0
M  V30 821 O 81.1073 2.21352 -1.57211 0
M  V30 822 C 79.5633 0.5529 -3.55628 0
M  V30 823 C 79.1713 -0.681721 -4.42783 0
M  V30 824 C 80.9153 1.11687 -4.09544 0
M  V30 825 C 78.8223 -0.382742 -5.9016 0
M  V30 826 H 77.7523 0.109124 -0.746062 0
M  V30 827 H 80.4033 -0.43398 -1.78294 0
M  V30 828 H 78.7853 1.32896 -3.73035 0
M  V30 829 H 79.9593 -1.45723 -4.37151 0
M  V30 830 H 78.2743 -1.1658 -3.99748 0
M  V30 831 H 80.8713 1.35515 -5.17242 0
M  V30 832 H 81.2143 2.06575 -3.61431 0
M  V30 833 H 81.7473 0.402032 -3.95763 0
M  V30 834 H 78.4863 -1.30076 -6.42464 0
M  V30 835 H 78.0063 0.355094 -5.98748 0
M  V30 836 H 79.6853 0.00800157 -6.47 0
M  V30 837 N 79.8174 1.5752 -0.0501392 0
M  V30 838 C 81.0424 1.97376 0.636997 0
M  V30 839 C 81.4674 0.927466 1.63645 0
M  V30 840 O 80.8254 -0.10941 1.8097 0
M  V30 841 C 80.8734 3.36304 1.30123 0
M  V30 842 O 79.9774 3.34156 2.41689 0
M  V30 843 H 79.3184 0.642998 0.165679 0
M  V30 844 H 81.8484 2.04258 -0.118233 0
M  V30 845 H 81.8584 3.73008 1.65315 0
M  V30 846 H 80.5334 4.11993 0.568746 0
M  V30 847 H 79.1104 3.09196 2.08451 0
M  V30 848 N 81.2955 -0.223234 1.56011 0
M  V30 849 C 82.5435 -0.946003 1.78592 0
M  V30 850 C 82.8645 -1.84936 0.618349 0
M  V30 851 O 82.1345 -1.92473 -0.364833 0
M  V30 852 H 80.7145 -0.352298 0.658707 0
M  V30 853 H 83.3765 -0.235494 1.93472 0
M  V30 854 H 82.4725 -1.55381 2.70672 0
M  V30 855 N 82.7736 -1.49793 -0.48987 0
M  V30 856 C 83.7236 -1.63673 -1.5873 0
M  V30 857 C 84.7076 -0.491956 -1.53195 0
M  V30 858 O 85.8996 -0.745461 -1.60536 0
M  V30 859 C 83.0286 -1.71689 -2.97284 0
M  V30 860 C 82.1146 -2.91781 -3.07774 0
M  V30 861 N 82.5056 -4.15714 -2.88124 0
M  V30 862 C 80.8036 -2.89949 -3.38889 0
M  V30 863 C 81.5046 -4.965 -3.03088 0
M  V30 864 N 80.4806 -4.30083 -3.3246 0
M  V30 865 H 84.2826 -2.57204 -1.42208 0
M  V30 866 H 81.7966 -1.46719 -0.69623 0
M  V30 867 H 83.7936 -1.79732 -3.76168 0
M  V30 868 H 82.4536 -0.793024 -3.14867 0
M  V30 869 H 83.4646 -4.45515 -2.64077 0
M  V30 870 H 80.1416 -2.06987 -3.62578 0
M  V30 871 H 81.5316 -6.04991 -2.92294 0
M  V30 872 N 84.2517 0.741722 -1.39055 0
M  V30 873 C 85.4977 1.50336 -1.36113 0
M  V30 874 C 85.8307 1.94148 0.0450796 0
M  V30 875 O 85.1057 1.66301 1.00868 0
M  V30 876 C 85.3887 2.74773 -2.32749 0
M  V30 877 C 85.2417 2.37023 -3.82283 0
M  V30 878 C 86.5607 3.76846 -2.27322 0
M  V30 879 H 83.6797 0.545351 -0.495743 0
M  V30 880 H 86.3217 0.848624 -1.69995 0
M  V30 881 H 84.4717 3.30639 -2.03986 0
M  V30 882 H 86.1437 1.8684 -4.21768 0
M  V30 883 H 84.3867 1.69334 -3.99385 0
M  V30 884 H 85.0577 3.26104 -4.45376 0
M  V30 885 H 87.5337 3.30548 -2.5274 0
M  V30 886 H 86.4097 4.6159 -2.97028 0
M  V30 887 H 86.6707 4.23286 -1.27599 0
M  V30 888 N 85.7298 1.2412 0.971189 0
M  V30 889 C 87.1458 1.00584 1.23916 0
M  V30 890 C 87.3458 -0.287481 1.99439 0
M  V30 891 O 86.4018 -1.00454 2.31658 0
M  V30 892 C 87.7148 2.21864 2.0297 0
M  V30 893 C 89.2628 2.26452 2.16076 0
M  V30 894 C 89.7378 3.47343 2.98524 0
M  V30 895 N 91.2288 3.47639 3.06107 0
M  V30 896 C 91.9638 4.37837 3.70251 0
M  V30 897 N 91.4598 5.38286 4.36142 0
M  V30 898 N 93.2528 4.25558 3.67228 0
M  V30 899 H 85.4038 2.07236 0.465499 0
M  V30 900 H 87.6668 0.909236 0.268315 0
M  V30 901 H 87.3728 3.15771 1.54861 0
M  V30 902 H 87.2468 2.23698 3.03709 0
M  V30 903 H 89.6338 1.33078 2.6339 0
M  V30 904 H 89.7148 2.28645 1.14696 0
M  V30 905 H 89.3588 4.41029 2.51905 0
M  V30 906 H 89.2888 3.42393 4.00093 0
M  V30 907 H 91.7798 2.74966 2.59233 0
M  V30 908 H 92.0928 6.03352 4.82894 0
M  V30 909 H 90.4378 5.42176 4.34822 0
M  V30 910 H 93.6288 3.46322 3.14927 0
M  V30 911 H 93.8018 4.96054 4.16935 0
M  V30 912 N 87.2079 -1.17134 1.05439 0
M  V30 913 C 88.1399 -2.2078 0.615539 0
M  V30 914 C 89.1529 -1.59584 -0.322001 0
M  V30 915 O 90.3419 -1.78133 -0.114344 0
M  V30 916 C 87.4419 -3.38691 -0.118938 0
M  V30 917 C 86.6149 -4.29454 0.829924 0
M  V30 918 C 85.6739 -5.26024 0.136258 0
M  V30 919 O 84.6999 -5.63952 0.77115 0
M  V30 920 N 85.9019 -5.69487 -1.1254 0
M  V30 921 H 88.6669 -2.59052 1.50705 0
M  V30 922 H 86.2279 -1.32058 0.936603 0
M  V30 923 H 88.2199 -4.00329 -0.593179 0
M  V30 924 H 86.7899 -2.98996 -0.91215 0
M  V30 925 H 86.0099 -3.65211 1.48373 0
M  V30 926 H 87.2979 -4.86984 1.47392 0
M  V30 927 H 86.6959 -5.4075 -1.6615 0
M  V30 928 H 85.2529 -6.33257 -1.54366 0
M  V30 929 N 88.686 -0.835752 -1.33615 0
M  V30 930 C 89.634 -0.255238 -2.31195 0
M  V30 931 C 90.628 0.61107 -1.57995 0
M  V30 932 O 91.834 0.500979 -1.72888 0
M  V30 933 H 88.209 -0.0638085 -0.749288 0
M  V30 934 H 90.18 -1.09283 -2.77669 0
M  V30 935 C 88.929 0.55754 -3.43201 0
M  V30 936 H 88.252 -0.0997553 -3.99676 0
M  V30 937 H 89.692 0.929622 -4.13683 0
M  V30 938 C 88.151 1.73515 -2.88781 0
M  V30 939 O 88.681 2.83376 -2.84712 0
M  V30 940 N 86.887 1.55603 -2.4543 0
M  V30 941 H 86.434 0.662354 -2.48939 0
M  V30 942 H 86.392 2.34545 -2.09371 0
M  V30 943 N 90.1641 1.46063 -0.591896 0
M  V30 944 C 91.4121 2.01938 -0.0808391 0
M  V30 945 C 91.7331 1.46475 1.28725 0
M  V30 946 O 91.0031 0.652944 1.84698 0
M  V30 947 H 89.5831 0.746516 -0.0268938 0
M  V30 948 H 92.2451 1.79055 -0.769752 0
M  V30 949 H 91.3411 3.12094 -0.0187578 0
M  V30 950 N 91.6422 0.330177 1.54103 0
M  V30 951 C 92.5522 -0.541534 2.28264 0
M  V30 952 C 93.5682 -1.12351 1.32866 0
M  V30 953 O 94.7442 -1.14206 1.65888 0
M  V30 954 C 91.8092 -1.68322 3.03098 0
M  V30 955 C 90.8702 -1.13238 4.14096 0
M  V30 956 C 90.1032 -2.21966 4.85352 0
M  V30 957 O 90.3262 -3.42437 4.56172 0
M  V30 958 O 89.2602 -1.87013 5.7211 0
M  V30 959 H 93.0862 0.060938 3.03639 0
M  V30 960 H 90.6712 0.09565 1.49093 0
M  V30 961 H 92.5532 -2.34777 3.49939 0
M  V30 962 H 91.2282 -2.27176 2.30593 0
M  V30 963 H 90.1352 -0.432736 3.71589 0
M  V30 964 H 91.4682 -0.588898 4.88664 0
M  V30 965 N 93.1203 -1.57491 0.0584922 0
M  V30 966 C 94.3453 -1.97711 -0.62652 0
M  V30 967 C 94.7703 -0.936132 -1.63151 0
M  V30 968 O 94.1283 0.099811 -1.81025 0
M  V30 969 C 94.1763 -3.36989 -1.28338 0
M  V30 970 O 93.2803 -3.35433 -2.39913 0
M  V30 971 H 92.6213 -0.643868 -0.162266 0
M  V30 972 H 95.1513 -2.04193 0.129064 0
M  V30 973 H 95.1613 -3.73879 -1.63335 0
M  V30 974 H 93.8363 -4.12289 -0.546889 0
M  V30 975 H 92.4133 -3.10298 -2.06809 0
M  V30 976 N 94.5984 0.214957 -1.56127 0
M  V30 977 C 95.8754 0.963093 -1.70247 0
M  V30 978 C 96.2554 2.02166 -0.60764 0
M  V30 979 O 95.6034 2.25244 0.384385 0
M  V30 980 C 95.8134 1.56756 -3.11815 0
M  V30 981 C 97.1614 2.0573 -3.7143 0
M  V30 982 O 98.1854 1.66637 -3.14818 0
M  V30 983 O 97.0444 2.77603 -4.70743 0
M  V30 984 H 94.1384 0.450321 -0.693643 0
M  V30 985 H 96.6844 0.206219 -1.68442 0
M  V30 986 H 95.4564 0.803533 -3.82961 0
M  V30 987 H 95.0794 2.3898 -3.17765 0
M  V30 988 N 96.0765 1.50051 0.48192 0
M  V30 989 C 97.0395 1.67584 1.5636 0
M  V30 990 C 98.0395 0.546894 1.51214 0
M  V30 991 O 99.2295 0.813725 1.54026 0
M  V30 992 C 96.3615 1.691 2.96003 0
M  V30 993 H 97.5545 2.64078 1.42136 0
M  V30 994 H 95.1075 1.39369 0.707533 0
M  V30 995 H 95.8425 0.742589 3.15684 0
M  V30 996 H 95.6275 2.51105 3.01146 0
M  V30 997 H 97.1175 1.84656 3.74556 0
M  V30 998 N 97.5546 -0.734337 1.39446 0
M  V30 999 C 98.7946 -1.50655 1.38139 0
M  V30 1000 C 99.1586 -1.91986 -0.0228701 0
M  V30 1001 O 100.36 -2.68318 -0.160947 0
M  V30 1002 C 98.6306 -2.71251 2.32718 0
M  V30 1003 S 100.19 -3.60892 2.49605 0
M  V30 1004 H 97.0076 -0.515315 0.489869 0
M  V30 1005 H 99.6096 -0.860392 1.75549 0
M  V30 1006 H 98.3136 -2.39027 3.33608 0
M  V30 1007 H 97.8446 -3.40795 1.96526 0
M  V30 1008 H 99.8596 -4.64899 1.73446 0
M  V30 1009 N 99.0327 -1.24633 -0.964593 0
M  V30 1010 C 99.9627 -1.06611 -2.07741 0
M  V30 1011 C 100.944 0.0218666 -1.70086 0
M  V30 1012 O 102.129 -0.145793 -1.93652 0
M  V30 1013 C 99.2587 -0.673444 -3.40708 0
M  V30 1014 C 98.2127 -1.71054 -3.92332 0
M  V30 1015 C 97.5387 -1.17285 -5.21678 0
M  V30 1016 C 98.8387 -3.10718 -4.19824 0
M  V30 1017 H 100.533 -1.99693 -2.23076 0
M  V30 1018 H 98.0787 -0.96152 -1.07195 0
M  V30 1019 H 100.032 -0.534345 -4.17998 0
M  V30 1020 H 98.7557 0.293073 -3.25282 0
M  V30 1021 H 97.4147 -1.83791 -3.17201 0
M  V30 1022 H 97.0627 -0.196847 -5.02615 0
M  V30 1023 H 96.7627 -1.86592 -5.57187 0
M  V30 1024 H 98.2867 -1.04593 -6.01575 0
M  V30 1025 H 99.7007 -3.01192 -4.87808 0
M  V30 1026 H 98.0977 -3.77406 -4.66567 0
M  V30 1027 H 99.1677 -3.58524 -3.26479 0
M  V30 1028 N 100.511 1.16574 -1.06058 0
M  V30 1029 C 101.459 2.22941 -0.663343 0
M  V30 1030 C 102.453 1.66358 0.319593 0
M  V30 1031 O 103.659 1.7905 0.184713 0
M  V30 1032 H 100.034 0.725907 -0.196376 0
M  V30 1033 H 102.005 2.53736 -1.57037 0
M  V30 1034 C 100.754 3.47642 -0.0632808 0
M  V30 1035 H 100.077 3.91493 -0.810733 0
M  V30 1036 H 101.517 4.2363 0.177177 0
M  V30 1037 C 99.9758 3.1509 1.19248 0
M  V30 1038 O 100.506 3.30673 2.28075 0
M  V30 1039 N 98.7118 2.6924 1.09353 0
M  V30 1040 H 98.2588 2.5676 0.207912 0
M  V30 1041 H 98.2168 2.47833 1.93458 0
M  V30 1042 N 101.989 0.842826 1.3317 0
M  V30 1043 C 103.405 0.531128 1.50503 0
M  V30 1044 C 103.605 -0.940734 1.78192 0
M  V30 1045 O 102.661 -1.72436 1.84451 0
M  V30 1046 C 103.974 1.40789 2.65705 0
M  V30 1047 C 105.522 1.40708 2.79589 0
M  V30 1048 C 105.997 2.26878 3.97857 0
M  V30 1049 N 107.488 2.24609 4.05099 0
M  V30 1050 C 108.223 2.88019 4.95815 0
M  V30 1051 N 107.719 3.60496 5.9162 0
M  V30 1052 N 109.512 2.77469 4.88843 0
M  V30 1053 H 101.663 1.79557 1.1346 0
M  V30 1054 H 103.926 0.766267 0.558156 0
M  V30 1055 H 103.632 2.454 2.51936 0
M  V30 1056 H 103.506 1.08677 3.61205 0
M  V30 1057 H 105.893 0.368668 2.92788 0
M  V30 1058 H 105.974 1.76829 1.84838 0
M  V30 1059 H 105.618 3.3078 3.85418 0
M  V30 1060 H 105.548 1.88096 4.91861 0
M  V30 1061 H 108.039 1.71906 3.36536 0
M  V30 1062 H 108.352 4.06076 6.57512 0
M  V30 1063 H 106.697 3.64604 5.91683 0
M  V30 1064 H 109.888 2.20406 4.12963 0
M  V30 1065 H 110.061 3.2717 5.59342 0
M  V30 1066 N 103.467 -1.45747 0.599634 0
M  V30 1067 C 104.397 -2.33235 -0.111306 0
M  V30 1068 C 105.378 -1.46359 -0.866781 0
M  V30 1069 O 106.563 -1.75146 -0.838904 0
M  V30 1070 C 103.693 -3.28932 -1.11451 0
M  V30 1071 C 102.647 -4.25381 -0.472772 0
M  V30 1072 C 101.973 -5.1071 -1.58365 0
M  V30 1073 C 103.273 -5.18831 0.600948 0
M  V30 1074 H 104.967 -2.92927 0.61919 0
M  V30 1075 H 102.513 -1.40857 0.299215 0
M  V30 1076 H 104.466 -3.89002 -1.62036 0
M  V30 1077 H 103.19 -2.67381 -1.8755 0
M  V30 1078 H 101.849 -3.66598 0.0121472 0
M  V30 1079 H 101.497 -4.45533 -2.33473 0
M  V30 1080 H 101.197 -5.7604 -1.15982 0
M  V30 1081 H 102.721 -5.73647 -2.09194 0
M  V30 1082 H 104.135 -5.73019 0.179491 0
M  V30 1083 H 102.532 -5.92595 0.946076 0
M  V30 1084 H 103.602 -4.6174 1.48068 0
M  V30 1085 N 104.945 -0.338344 -1.53925 0
M  V30 1086 C 105.878 0.563758 -2.21127 0
M  V30 1087 C 106.856 1.10433 -1.19345 0
M  V30 1088 O 108.04 1.16557 -1.48144 0
M  V30 1089 C 105.167 1.77505 -2.88461 0
M  V30 1090 C 104.213 1.3644 -4.04087 0
M  V30 1091 S 105.046 0.388593 -5.34088 0
M  V30 1092 C 106.202 1.60683 -6.04923 0
M  V30 1093 H 106.435 -0.00704546 -2.97299 0
M  V30 1094 H 103.968 -0.122418 -1.53914 0
M  V30 1095 H 105.926 2.46999 -3.27875 0
M  V30 1096 H 104.587 2.31706 -2.12064 0
M  V30 1097 H 103.78 2.26739 -4.50117 0
M  V30 1098 H 103.382 0.748998 -3.66423 0
M  V30 1099 H 105.674 2.54209 -6.28 0
M  V30 1100 H 106.617 1.18842 -6.98056 0
M  V30 1101 H 107.025 1.80052 -5.35015 0
M  V30 1102 N 106.423 1.57458 -0.0668435 0
M  V30 1103 C 107.653 1.97337 0.611677 0
M  V30 1104 C 108.061 0.943744 1.63982 0
M  V30 1105 O 107.404 -0.0785584 1.83532 0
M  V30 1106 C 107.466 3.33511 1.34205 0
M  V30 1107 C 107.13 4.54598 0.467941 0
M  V30 1108 C 108.127 5.19186 -0.272439 0
M  V30 1109 C 105.812 5.0075 0.39427 0
M  V30 1110 C 107.806 6.28274 -1.07476 0
M  V30 1111 C 105.493 6.09711 -0.411729 0
M  V30 1112 C 106.491 6.73335 -1.14492 0
M  V30 1113 O 106.179 7.80199 -1.93763 0
M  V30 1114 H 105.911 0.654042 0.170893 0
M  V30 1115 H 108.465 2.04961 -0.134289 0
M  V30 1116 H 106.695 3.22487 2.13398 0
M  V30 1117 H 108.384 3.58029 1.91233 0
M  V30 1118 H 109.15 4.84477 -0.225086 0
M  V30 1119 H 105.029 4.51009 0.954569 0
M  V30 1120 H 108.573 6.77866 -1.64755 0
M  V30 1121 H 104.47 6.43854 -0.460664 0
M  V30 1122 H 105.238 7.97053 -1.86142 0
M  V30 1123 N 107.901 -0.206675 1.56239 0
M  V30 1124 C 108.811 -1.27686 1.96808 0
M  V30 1125 C 109.827 -1.50455 0.874035 0
M  V30 1126 O 111.003 -1.63295 1.17884 0
M  V30 1127 C 108.068 -2.60358 2.28942 0
M  V30 1128 C 107.129 -2.45762 3.51994 0
M  V30 1129 C 106.362 -3.72108 3.82585 0
M  V30 1130 O 106.585 -4.75776 3.14631 0
M  V30 1131 O 105.519 -3.6833 4.76043 0
M  V30 1132 H 109.345 -0.962593 2.88041 0
M  V30 1133 H 106.93 -0.410746 1.43643 0
M  V30 1134 H 108.812 -3.38687 2.50737 0
M  V30 1135 H 107.487 -2.91435 1.4088 0
M  V30 1136 H 106.394 -1.65584 3.35459 0
M  V30 1137 H 107.727 -2.19621 4.40486 0
M  V30 1138 N 109.379 -1.50304 -0.473955 0
M  V30 1139 C 110.326 -1.68959 -1.57231 0
M  V30 1140 C 111.296 -0.530899 -1.57387 0
M  V30 1141 O 112.481 -0.761133 -1.74961 0
M  V30 1142 C 109.621 -1.7871 -2.95223 0
M  V30 1143 C 108.734 -3.06061 -3.04878 0
M  V30 1144 C 107.869 -3.06626 -4.33767 0
M  V30 1145 C 106.908 -4.28443 -4.37154 0
M  V30 1146 N 106.045 -4.26763 -5.5751 0
M  V30 1147 H 110.885 -2.6273 -1.40631 0
M  V30 1148 H 108.422 -1.30241 -0.683789 0
M  V30 1149 H 110.38 -1.82344 -3.75242 0
M  V30 1150 H 109.01 -0.883806 -3.10465 0
M  V30 1151 H 108.062 -3.11911 -2.17751 0
M  V30 1152 H 109.374 -3.96039 -3.0324 0
M  V30 1153 H 108.528 -3.08973 -5.22131 0
M  V30 1154 H 107.267 -2.14473 -4.3801 0
M  V30 1155 H 106.272 -4.2631 -3.47188 0
M  V30 1156 H 107.497 -5.2182 -4.34605 0
M  V30 1157 H 105.443 -3.37462 -5.62544 0
M  V30 1158 H 105.36 -5.10507 -5.57601 0
M  V30 1159 H 106.628 -4.33253 -6.48006 0
M  V30 1160 N 110.857 0.726932 -1.39834 0
M  V30 1161 C 111.804 1.841 -1.39197 0
M  V30 1162 C 112.774 1.642 -0.250502 0
M  V30 1163 O 113.959 1.85494 -0.446846 0
M  V30 1164 C 111.099 3.21697 -1.24919 0
M  V30 1165 C 110.212 3.53247 -2.48678 0
M  V30 1166 C 109.347 4.80289 -2.26928 0
M  V30 1167 C 108.386 5.04707 -3.4632 0
M  V30 1168 N 107.523 6.22956 -3.23836 0
M  V30 1169 H 112.363 1.83979 -2.34427 0
M  V30 1170 H 109.9 0.898876 -1.16442 0
M  V30 1171 H 111.858 4.01137 -1.1465 0
M  V30 1172 H 110.488 3.21076 -0.333153 0
M  V30 1173 H 109.54 2.68447 -2.69519 0
M  V30 1174 H 110.852 3.67205 -3.37582 0
M  V30 1175 H 110.006 5.67725 -2.13947 0
M  V30 1176 H 108.745 4.68519 -1.35431 0
M  V30 1177 H 107.75 4.1573 -3.5979 0
M  V30 1178 H 108.975 5.18357 -4.38729 0
M  V30 1179 H 106.921 6.12459 -2.35011 0
M  V30 1180 H 106.838 6.37539 -4.063 0
M  V30 1181 H 108.106 7.1321 -3.14566 0
M  V30 1182 N 112.336 1.25143 0.95797 0
M  V30 1183 C 113.266 1.07711 2.07173 0
M  V30 1184 C 114.247 -0.0128462 1.70095 0
M  V30 1185 O 115.432 0.156061 1.93572 0
M  V30 1186 C 112.562 0.691503 3.40346 0
M  V30 1187 C 111.516 1.73132 3.9142 0
M  V30 1188 C 110.842 1.20049 5.21049 0
M  V30 1189 C 112.142 3.1294 4.1817 0
M  V30 1190 H 113.836 2.00873 2.22014 0
M  V30 1191 H 111.382 0.967191 1.06684 0
M  V30 1192 H 113.335 0.556505 4.17709 0
M  V30 1193 H 112.059 -0.275819 3.25433 0
M  V30 1194 H 110.718 1.8547 3.16222 0
M  V30 1195 H 110.366 0.223499 5.02503 0
M  V30 1196 H 110.066 1.89545 5.56189 0
M  V30 1197 H 111.59 1.07782 6.01012 0
M  V30 1198 H 113.004 3.03775 4.86203 0
M  V30 1199 H 111.401 3.79875 4.64559 0
M  V30 1200 H 112.471 3.6025 3.24573 0
M  V30 1201 N 113.814 -1.1601 1.06675 0
M  V30 1202 C 114.744 -2.22688 0.702307 0
M  V30 1203 C 115.725 -1.67306 -0.307032 0
M  V30 1204 O 116.91 -1.93352 -0.181305 0
M  V30 1205 C 114.04 -3.47178 0.092038 0
M  V30 1206 C 112.994 -4.15477 1.02777 0
M  V30 1207 C 112.32 -5.33963 0.28061 0
M  V30 1208 C 113.62 -4.66019 2.35846 0
M  V30 1209 H 115.314 -2.53429 1.59419 0
M  V30 1210 H 112.86 -1.21813 0.767961 0
M  V30 1211 H 114.813 -4.21037 -0.174814 0
M  V30 1212 H 113.537 -3.15749 -0.834877 0
M  V30 1213 H 112.196 -3.43549 1.27944 0
M  V30 1214 H 111.844 -4.98788 -0.649545 0
M  V30 1215 H 111.544 -5.806 0.904258 0
M  V30 1216 H 113.068 -6.10596 0.021396 0
M  V30 1217 H 114.482 -5.3144 2.15045 0
M  V30 1218 H 112.879 -5.23293 2.93743 0
M  V30 1219 H 113.949 -3.82023 2.98641 0
M  V30 1220 N 115.292 -0.849877 -1.32721 0
M  V30 1221 C 116.517 -0.463856 -2.02146 0
M  V30 1222 C 116.942 0.930449 -1.63476 0
M  V30 1223 O 116.3 1.61033 -0.832952 0
M  V30 1224 C 116.348 -0.604955 -3.55489 0
M  V30 1225 O 115.452 0.36425 -4.10788 0
M  V30 1226 H 114.793 -0.187046 -0.637111 0
M  V30 1227 H 117.323 -1.14775 -1.69375 0
M  V30 1228 H 117.333 -0.490696 -4.05038 0
M  V30 1229 H 116.008 -1.62174 -3.82978 0
M  V30 1230 H 114.585 0.206628 -3.72327 0
M  V30 1231 N 116.77 1.45427 -0.607355 0
M  V30 1232 C 118.017 2.02241 -0.102455 0
M  V30 1233 C 118.345 1.4758 1.26691 0
M  V30 1234 O 117.6 0.640468 1.84923 0
M  V30 1235 C 117.899 3.57398 -0.0129263 0
M  V30 1236 C 117.565 4.3121 -1.31792 0
M  V30 1237 C 116.227 4.51092 -1.67539 0
M  V30 1238 C 118.579 4.73401 -2.18039 0
M  V30 1239 C 115.907 5.10422 -2.89285 0
M  V30 1240 C 118.259 5.34078 -3.39034 0
M  V30 1241 C 116.923 5.52184 -3.75033 0
M  V30 1242 H 116.193 0.740051 -0.037491 0
M  V30 1243 H 118.84 1.74494 -0.788926 0
M  V30 1244 H 117.145 3.84421 0.756806 0
M  V30 1245 H 118.842 3.99061 0.393881 0
M  V30 1246 H 115.432 4.16047 -1.02968 0
M  V30 1247 H 119.616 4.57774 -1.91721 0
M  V30 1248 H 114.872 5.22629 -3.17283 0
M  V30 1249 H 119.046 5.65724 -4.06115 0
M  V30 1250 H 116.673 5.97925 -4.69457 0
M  V30 1251 N 118.248 0.346503 1.53744 0
M  V30 1252 C 119.18 -0.543316 2.22667 0
M  V30 1253 C 120.193 -1.06159 1.23427 0
M  V30 1254 O 121.382 -0.971235 1.49764 0
M  V30 1255 C 118.482 -1.76076 2.89569 0
M  V30 1256 C 117.655 -1.37727 4.15151 0
M  V30 1257 C 116.714 -2.45471 4.65436 0
M  V30 1258 O 115.74 -2.08655 5.29577 0
M  V30 1259 N 116.942 -3.7677 4.41616 0
M  V30 1260 H 119.707 0.0469703 2.99663 0
M  V30 1261 H 117.268 0.170766 1.60997 0
M  V30 1262 H 119.26 -2.47593 3.20125 0
M  V30 1263 H 117.83 -2.25835 2.16142 0
M  V30 1264 H 117.05 -0.492746 3.91108 0
M  V30 1265 H 118.338 -1.09708 4.96832 0
M  V30 1266 H 117.736 -4.09467 3.90325 0
M  V30 1267 H 116.293 -4.44448 4.7677 0
M  V30 1268 N 119.726 -1.57421 0.075193 0
M  V30 1269 C 120.674 -2.14124 -0.908508 0
M  V30 1270 C 121.668 -1.07898 -1.30592 0
M  V30 1271 O 122.874 -1.26273 -1.28277 0
M  V30 1272 H 119.249 -0.684707 -0.310935 0
M  V30 1273 H 121.22 -2.95634 -0.405374 0
M  V30 1274 C 119.969 -2.72044 -2.16535 0
M  V30 1275 H 119.292 -3.53456 -1.86839 0
M  V30 1276 H 120.732 -3.15311 -2.83469 0
M  V30 1277 C 119.191 -1.66968 -2.92615 0
M  V30 1278 O 119.721 -1.0967 -3.86439 0
M  V30 1279 N 117.927 -1.37923 -2.55784 0
M  V30 1280 H 117.474 -1.84706 -1.79559 0
M  V30 1281 H 117.432 -0.67852 -3.06991 0
M  V30 1282 O 121.243 0.0653481 -1.61368 0
M  V30 1283 H 121.934 0.690459 -1.80976 0
M  V30 END ATOM
M  V30 BEGIN BOND
M  V30 END BOND
M  V30 END CTAB
M  END
$$$$
