drugbank_target|Q8IIR9 Casein kinase 2, alpha subunit (DB11638)
 OpenBabel12092121123D

  0  0  0     0  0            999 V3000
M  V30 BEGIN CTAB
M  V30 COUNTS 5661 5735 0 0 0
M  V30 BEGIN ATOM
M  V30 1 H -0.908 1.98254 -0.117106 0
M  V30 2 N 0 1.576 0 0
M  V30 3 C 0.933 2.03868 1.02534 0
M  V30 4 C 1.911 0.928543 1.3348 0
M  V30 5 O 3.095 1.19667 1.45644 0
M  V30 6 C 0.222 2.43627 2.35294 0
M  V30 7 C -0.732 3.65373 2.2001 0
M  V30 8 S 0.101 5.13292 1.52614 0
M  V30 9 C 1.257 5.56322 2.86805 0
M  V30 10 H 1.49 2.90518 0.631377 0
M  V30 11 H -0.977 1.52953 0.210867 0
M  V30 12 H 0.981 2.67203 3.11629 0
M  V30 13 H -0.358 1.57376 2.7183 0
M  V30 14 H -1.165 3.90944 3.18086 0
M  V30 15 H -1.563 3.418 1.51819 0
M  V30 16 H 0.729 5.58782 3.83104 0
M  V30 17 H 1.672 6.56266 2.65933 0
M  V30 18 H 2.08 4.83886 2.90714 0
M  V30 19 N 1.4781 -0.272755 1.55222 0
M  V30 20 C 2.7031 -1.02683 1.80197 0
M  V30 21 C 3.1281 -1.79142 0.573551 0
M  V30 22 O 2.4861 -1.74917 -0.476849 0
M  V30 23 C 2.5341 -1.9609 3.02624 0
M  V30 24 O 1.6381 -3.04863 2.77727 0
M  V30 25 H 0.9791 -0.293557 0.595584 0
M  V30 26 H 3.5091 -0.30159 2.02365 0
M  V30 27 H 3.5191 -2.38039 3.31363 0
M  V30 28 H 2.1941 -1.39851 3.91682 0
M  V30 29 H 0.7711 -2.67228 2.60084 0
M  V30 30 N 2.9562 -1.48159 -0.537278 0
M  V30 31 C 4.2022 -1.56035 -1.29541 0
M  V30 32 C 4.5352 -0.230377 -1.92829 0
M  V30 33 O 3.8102 0.762952 -1.78911 0
M  V30 34 C 4.0932 -2.69323 -2.39034 0
M  V30 35 C 3.9462 -4.12002 -1.80485 0
M  V30 36 C 5.2652 -2.78408 -3.40847 0
M  V30 37 H 2.3842 -0.567992 -0.469632 0
M  V30 38 H 5.0262 -1.80302 -0.599277 0
M  V30 39 H 3.1762 -2.48763 -2.98412 0
M  V30 40 H 4.8482 -4.43981 -1.25215 0
M  V30 41 H 3.0912 -4.19344 -1.11055 0
M  V30 42 H 3.7622 -4.87077 -2.59731 0
M  V30 43 H 6.2382 -2.97012 -2.91416 0
M  V30 44 H 5.1142 -3.59416 -4.14863 0
M  V30 45 H 5.3752 -1.86269 -4.00944 0
M  V30 46 N 4.4343 0.785586 -1.36625 0
M  V30 47 C 5.6593 1.57963 -1.34397 0
M  V30 48 C 6.0843 1.87964 0.071526 0
M  V30 49 O 5.4423 1.48182 1.0446 0
M  V30 50 C 5.4903 2.87511 -2.17646 0
M  V30 51 O 4.5943 3.81281 -1.57158 0
M  V30 52 H 3.9353 0.479014 -0.459828 0
M  V30 53 H 6.4653 0.973411 -1.79961 0
M  V30 54 H 6.4753 3.36745 -2.30362 0
M  V30 55 H 5.1503 2.65002 -3.20541 0
M  V30 56 H 3.7273 3.39885 -1.53403 0
M  V30 57 N 5.9124 1.20967 1.01018 0
M  V30 58 C 7.1374 1.0503 1.78839 0
M  V30 59 C 7.5624 -0.395752 1.8389 0
M  V30 60 O 6.9204 -1.28529 1.27867 0
M  V30 61 C 6.9684 1.64602 3.2084 0
M  V30 62 O 6.0724 0.887988 4.02726 0
M  V30 63 H 5.4134 0.369987 0.551367 0
M  V30 64 H 7.9434 1.60399 1.27018 0
M  V30 65 H 7.9534 1.68607 3.71532 0
M  V30 66 H 6.6284 2.69841 3.16479 0
M  V30 67 H 5.2054 0.922648 3.61305 0
M  V30 68 N 7.3905 -1.2043 1.01659 0
M  V30 69 C 8.6395 -1.89118 0.701237 0
M  V30 70 C 8.9525 -1.79705 -0.772358 0
M  V30 71 O 10.1585 -2.43528 -1.20026 0
M  V30 72 C 8.6145 -3.39168 1.20388 0
M  V30 73 C 8.2225 -3.57166 2.70438 0
M  V30 74 C 9.9665 -4.1341 0.963953 0
M  V30 75 C 7.8735 -5.01042 3.14183 0
M  V30 76 H 6.8035 -0.708267 0.2586 0
M  V30 77 H 9.4545 -1.36239 1.22927 0
M  V30 78 H 7.8365 -3.91369 0.603824 0
M  V30 79 H 9.0105 -3.15351 3.35992 0
M  V30 80 H 7.3255 -2.96294 2.92572 0
M  V30 81 H 9.9225 -5.19491 1.26621 0
M  V30 82 H 10.2655 -4.16181 -0.099578 0
M  V30 83 H 10.7985 -3.67309 1.52738 0
M  V30 84 H 7.5375 -5.03426 4.19812 0
M  V30 85 H 7.0575 -5.43668 2.53348 0
M  V30 86 H 8.7365 -5.69623 3.0682 0
M  V30 87 N 8.8686 -0.792821 -1.36206 0
M  V30 88 C 9.8166 -0.181555 -2.3189 0
M  V30 89 C 10.8106 0.661025 -1.55971 0
M  V30 90 O 12.0166 0.555728 -1.71206 0
M  V30 91 H 8.3916 -0.0399382 -0.750939 0
M  V30 92 H 10.3626 -1.00394 -2.81005 0
M  V30 93 C 9.1116 0.666444 -3.41253 0
M  V30 94 H 8.4346 0.0274489 -3.99791 0
M  V30 95 H 9.8746 1.06076 -4.10517 0
M  V30 96 C 8.3336 1.82614 -2.83114 0
M  V30 97 O 8.8636 2.9229 -2.75553 0
M  V30 98 N 7.0696 1.63333 -2.40356 0
M  V30 99 H 6.6166 0.741217 -2.46706 0
M  V30 100 H 6.5746 2.41087 -2.01803 0
M  V30 101 N 10.3467 1.47872 -0.545128 0
M  V30 102 C 11.2937 2.29849 0.2093 0
M  V30 103 C 12.2637 1.38313 0.919707 0
M  V30 104 O 13.4487 1.67277 0.917772 0
M  V30 105 C 10.5887 3.22019 1.24088 0
M  V30 106 C 9.7017 4.2864 0.537778 0
M  V30 107 C 8.8367 5.07973 1.5536 0
M  V30 108 C 7.8757 6.06381 0.8348 0
M  V30 109 N 7.0127 6.78717 1.79688 0
M  V30 110 H 11.8527 2.93845 -0.49591 0
M  V30 111 H 9.3897 1.44848 -0.256389 0
M  V30 112 H 11.3477 3.73868 1.85144 0
M  V30 113 H 9.9777 2.59914 1.91428 0
M  V30 114 H 9.0297 3.7994 -0.187046 0
M  V30 115 H 10.3417 4.98793 -0.0258907 0
M  V30 116 H 9.4957 5.63912 2.23803 0
M  V30 117 H 8.2347 4.37693 2.15118 0
M  V30 118 H 7.2397 5.49631 0.136388 0
M  V30 119 H 8.4647 6.78665 0.24313 0
M  V30 120 H 6.4107 6.11177 2.38326 0
M  V30 121 H 6.3277 7.44998 1.28505 0
M  V30 122 H 7.5957 7.39237 2.47282 0
M  V30 123 N 11.8248 0.280983 1.55075 0
M  V30 124 C 12.7718 -0.603937 2.22758 0
M  V30 125 C 13.7418 -1.1452 1.20309 0
M  V30 126 O 14.9268 -1.19343 1.48869 0
M  V30 127 C 12.0668 -1.77947 2.95684 0
M  V30 128 C 11.1798 -1.2715 4.12864 0
M  V30 129 C 10.3148 -2.4093 4.7342 0
M  V30 130 C 9.3538 -1.87165 5.82783 0
M  V30 131 N 8.4908 -2.94441 6.37377 0
M  V30 132 H 13.3308 -0.020124 2.97993 0
M  V30 133 H 10.8678 0.00183425 1.471 0
M  V30 134 H 12.8258 -2.47055 3.36184 0
M  V30 135 H 11.4558 -2.33522 2.22861 0
M  V30 136 H 10.5078 -0.473331 3.77444 0
M  V30 137 H 11.8198 -0.837751 4.91715 0
M  V30 138 H 10.9738 -3.18021 5.1667 0
M  V30 139 H 9.7128 -2.87623 3.93859 0
M  V30 140 H 8.7178 -1.08556 5.38976 0
M  V30 141 H 9.9428 -1.41401 6.64216 0
M  V30 142 H 7.8888 -3.40505 5.60707 0
M  V30 143 H 7.8058 -2.55501 7.11516 0
M  V30 144 H 9.0738 -3.71489 6.85285 0
M  V30 145 N 13.3029 -1.57598 0.00835791 0
M  V30 146 C 14.5519 -1.90107 -0.673968 0
M  V30 147 C 14.8649 -0.884275 -1.7447 0
M  V30 148 O 16.0709 -1.09987 -2.48224 0
M  V30 149 C 14.5269 -3.37497 -1.24995 0
M  V30 150 C 14.1349 -4.47491 -0.2136 0
M  V30 151 C 15.8789 -3.79104 -1.90999 0
M  V30 152 C 13.7859 -5.85963 -0.80005 0
M  V30 153 H 12.7159 -0.709393 -0.255495 0
M  V30 154 H 15.3669 -1.83365 0.0702693 0
M  V30 155 H 13.7489 -3.39102 -2.04513 0
M  V30 156 H 14.9229 -4.57414 0.557596 0
M  V30 157 H 13.2379 -4.14956 0.346474 0
M  V30 158 H 15.8349 -4.79901 -2.35795 0
M  V30 159 H 16.1779 -3.1306 -2.74407 0
M  V30 160 H 16.7109 -3.79833 -1.18203 0
M  V30 161 H 13.4499 -6.555 -0.00456708 0
M  V30 162 H 12.9699 -5.79687 -1.54021 0
M  V30 163 H 14.6489 -6.33884 -1.29615 0
M  V30 164 N 14.781 0.264519 -1.55364 0
M  V30 165 C 16.011 1.01153 -1.80143 0
M  V30 166 C 16.419 1.80115 -0.579253 0
M  V30 167 O 15.762 1.77813 0.46132 0
M  V30 168 C 15.824 2.01098 -2.97993 0
M  V30 169 C 15.488 1.40995 -4.34706 0
M  V30 170 C 16.485 0.821316 -5.13372 0
M  V30 171 C 14.17 1.43461 -4.81378 0
M  V30 172 C 16.164 0.265339 -6.36847 0
M  V30 173 C 13.851 0.874771 -6.04807 0
M  V30 174 C 14.849 0.291146 -6.82379 0
M  V30 175 O 14.537 -0.260093 -8.03479 0
M  V30 176 H 14.269 0.304125 -0.603725 0
M  V30 177 H 16.823 0.298089 -2.03225 0
M  V30 178 H 15.053 2.76224 -2.70623 0
M  V30 179 H 16.742 2.61997 -3.1002 0
M  V30 180 H 17.508 0.794903 -4.78442 0
M  V30 181 H 13.387 1.87826 -4.21002 0
M  V30 182 H 16.931 -0.190837 -6.97339 0
M  V30 183 H 12.828 0.898452 -6.39217 0
M  V30 184 H 13.596 -0.150265 -8.18362 0
M  V30 185 N 16.2591 1.48442 0.529413 0
M  V30 186 C 17.5081 1.55742 1.28169 0
M  V30 187 C 17.8211 0.236511 1.94165 0
M  V30 188 O 19.0271 0.187761 2.7085 0
M  V30 189 C 17.4831 2.74667 2.32564 0
M  V30 190 C 17.0911 4.13402 1.72636 0
M  V30 191 C 18.8351 2.9128 3.08798 0
M  V30 192 C 16.7421 5.23587 2.74975 0
M  V30 193 H 15.6721 0.579796 0.48203 0
M  V30 194 H 18.3231 1.74776 0.559056 0
M  V30 195 H 16.7051 2.49067 3.07866 0
M  V30 196 H 17.8791 4.49022 1.03519 0
M  V30 197 H 16.1941 4.0191 1.08892 0
M  V30 198 H 18.7911 3.70767 3.85274 0
M  V30 199 H 19.1341 2.00757 3.64695 0
M  V30 200 H 19.6671 3.16782 2.40611 0
M  V30 201 H 16.4061 6.16076 2.23897 0
M  V30 202 H 15.9261 4.92454 3.42417 0
M  V30 203 H 17.6051 5.51724 3.37949 0
M  V30 204 N 17.7372 -0.778329 1.37039 0
M  V30 205 C 19.1482 -1.35421 1.28523 0
M  V30 206 C 19.4992 -1.96075 -0.0700901 0
M  V30 207 O 18.6242 -1.93352 -0.971801 0
M  V30 208 C 19.2192 -2.46211 2.32735 0
M  V30 209 C 17.7782 -2.99585 2.27873 0
M  V30 210 C 16.9252 -1.72748 2.16918 0
M  V30 211 H 19.8762 -0.5791 1.47757 0
M  V30 212 H 19.8972 -3.2552 1.9702 0
M  V30 213 H 19.4092 -2.02036 3.31365 0
M  V30 214 H 17.5102 -3.48152 1.32745 0
M  V30 215 H 17.6232 -3.55646 3.21018 0
M  V30 216 H 15.9872 -1.95416 1.63354 0
M  V30 217 H 16.7702 -1.30686 3.17452 0
M  V30 218 N 19.2153 -1.21501 -1.00376 0
M  V30 219 C 20.1623 -0.975387 -2.09177 0
M  V30 220 C 21.1323 0.0990615 -1.65804 0
M  V30 221 O 22.3173 -0.0483147 -1.90739 0
M  V30 222 C 19.4573 -0.547507 -3.40729 0
M  V30 223 C 18.5703 -1.69153 -3.97506 0
M  V30 224 C 17.7053 -1.2127 -5.17172 0
M  V30 225 C 16.7443 -2.32897 -5.66061 0
M  V30 226 N 15.8813 -1.86138 -6.76976 0
M  V30 227 H 20.7213 -1.9068 -2.29009 0
M  V30 228 H 18.2583 -0.950257 -1.12288 0
M  V30 229 H 20.2163 -0.280667 -4.16255 0
M  V30 230 H 18.8463 0.346904 -3.20931 0
M  V30 231 H 17.8983 -2.07298 -3.18954 0
M  V30 232 H 19.2103 -2.5316 -4.29781 0
M  V30 233 H 18.3643 -0.902591 -5.99948 0
M  V30 234 H 17.1033 -0.342692 -4.86495 0
M  V30 235 H 16.1083 -2.64709 -4.81881 0
M  V30 236 H 17.3333 -3.20396 -5.98768 0
M  V30 237 H 15.2793 -1.01484 -6.48103 0
M  V30 238 H 15.1963 -2.63717 -7.08512 0
M  V30 239 H 16.4643 -1.58165 -7.63285 0
M  V30 240 N 20.6934 1.19889 -1.02296 0
M  V30 241 C 21.9404 1.8942 -0.715972 0
M  V30 242 C 22.2684 1.79251 0.754944 0
M  V30 243 O 21.5234 1.17526 1.56481 0
M  V30 244 C 21.8224 3.39883 -1.10518 0
M  V30 245 C 21.4884 3.70254 -2.57337 0
M  V30 246 C 20.1504 3.78254 -2.97452 0
M  V30 247 C 22.5024 3.84052 -3.52354 0
M  V30 248 C 19.8304 3.97514 -4.31509 0
M  V30 249 C 22.1824 4.04824 -4.86108 0
M  V30 250 C 20.8464 4.11054 -5.25919 0
M  V30 251 H 20.1164 0.693138 -0.261993 0
M  V30 252 H 22.7634 1.42012 -1.28472 0
M  V30 253 H 21.0684 3.8915 -0.454953 0
M  V30 254 H 22.7654 3.9199 -0.845261 0
M  V30 255 H 19.3554 3.64632 -2.25258 0
M  V30 256 H 23.5394 3.77221 -3.22518 0
M  V30 257 H 18.7954 4.00574 -4.61898 0
M  V30 258 H 22.9694 4.14442 -5.59653 0
M  V30 259 H 20.5964 4.2573 -6.29808 0
M  V30 260 N 22.1715 0.800033 1.35784 0
M  V30 261 C 23.4015 0.389041 2.02904 0
M  V30 262 C 23.8095 -1.0027 1.60445 0
M  V30 263 O 23.1525 -1.65633 0.794453 0
M  V30 264 C 23.2145 0.385495 3.57427 0
M  V30 265 C 22.8785 1.72662 4.23127 0
M  V30 266 C 23.8755 2.68385 4.4527 0
M  V30 267 C 21.5605 2.00883 4.60381 0
M  V30 268 C 23.5545 3.90517 5.03761 0
M  V30 269 C 21.2415 3.2328 5.18588 0
M  V30 270 C 22.2395 4.17915 5.40218 0
M  V30 271 O 21.9275 5.38153 5.97199 0
M  V30 272 H 21.6595 0.157032 0.657508 0
M  V30 273 H 24.2135 1.08311 1.74522 0
M  V30 274 H 22.4435 -0.365128 3.84972 0
M  V30 275 H 24.1325 -0.00228296 4.059 0
M  V30 276 H 24.8985 2.47872 4.16874 0
M  V30 277 H 20.7775 1.28037 4.42863 0
M  V30 278 H 24.3215 4.64395 5.2056 0
M  V30 279 H 20.2185 3.43667 5.4641 0
M  V30 280 H 20.9865 5.3936 6.15656 0
M  V30 281 N 23.6496 -1.47581 0.552962 0
M  V30 282 C 24.6126 -2.28439 -0.186605 0
M  V30 283 C 25.6126 -1.36706 -0.84665 0
M  V30 284 O 26.8026 -1.59378 -0.703164 0
M  V30 285 C 23.9346 -3.16264 -1.2724 0
M  V30 286 H 25.1276 -2.95294 0.523609 0
M  V30 287 H 22.6806 -1.532 0.309745 0
M  V30 288 H 23.4156 -2.54091 -2.01514 0
M  V30 289 H 23.2006 -3.83769 -0.803968 0
M  V30 290 H 24.6906 -3.77198 -1.79196 0
M  V30 291 N 25.1277 -0.289203 -1.54924 0
M  V30 292 C 26.4047 0.376032 -1.91951 0
M  V30 293 C 26.7847 1.72622 -1.21511 0
M  V30 294 O 26.1327 2.25853 -0.346767 0
M  V30 295 C 26.3427 0.502378 -3.45365 0
M  V30 296 C 27.6907 0.778741 -4.17398 0
M  V30 297 O 28.7147 0.586647 -3.51336 0
M  V30 298 O 27.5737 1.14698 -5.34328 0
M  V30 299 H 24.6677 0.208167 -0.800372 0
M  V30 300 H 27.2137 -0.336394 -1.66332 0
M  V30 301 H 25.9857 -0.447255 -3.88736 0
M  V30 302 H 25.6087 1.26373 -3.76982 0
M  V30 303 N 26.6058 1.57591 -0.0167156 0
M  V30 304 C 27.8518 1.91567 0.665582 0
M  V30 305 C 28.1848 0.892298 1.72487 0
M  V30 306 O 27.4598 -0.0867127 1.94307 0
M  V30 307 C 27.7428 3.36069 1.29342 0
M  V30 308 C 27.5958 4.49135 0.244541 0
M  V30 309 C 28.9148 3.803 2.21495 0
M  V30 310 H 26.0338 0.69666 0.240488 0
M  V30 311 H 28.6758 1.89866 -0.0714356 0
M  V30 312 H 26.8258 3.3765 1.92158 0
M  V30 313 H 28.4978 4.59689 -0.385228 0
M  V30 314 H 26.7408 4.3165 -0.431379 0
M  V30 315 H 27.4118 5.47242 0.723207 0
M  V30 316 H 29.8878 3.80377 1.68678 0
M  V30 317 H 28.7638 4.82127 2.62382 0
M  V30 318 H 29.0248 3.15104 3.101 0
M  V30 319 N 28.0839 -0.256276 1.55502 0
M  V30 320 C 29.0319 -1.33694 1.90338 0
M  V30 321 C 30.0259 -1.50299 0.781441 0
M  V30 322 O 31.2319 -1.51885 0.965966 0
M  V30 323 H 27.6069 -0.447483 0.60437 0
M  V30 324 H 29.5779 -1.01574 2.8058 0
M  V30 325 C 28.3269 -2.68724 2.20642 0
M  V30 326 H 27.6499 -2.56743 3.06469 0
M  V30 327 H 29.0899 -3.43237 2.48926 0
M  V30 328 C 27.5489 -3.21101 1.01959 0
M  V30 329 O 28.0789 -4.0084 0.262762 0
M  V30 330 N 26.2849 -2.79003 0.812746 0
M  V30 331 H 25.8319 -2.14271 1.42989 0
M  V30 332 H 25.7899 -3.14393 0.0203076 0
M  V30 333 N 29.562 -1.4872 -0.521534 0
M  V30 334 C 30.811 -1.56419 -1.27341 0
M  V30 335 C 31.124 -0.246805 -1.94037 0
M  V30 336 O 32.33 -0.202122 -2.70747 0
M  V30 337 C 30.786 -2.75896 -2.31105 0
M  V30 338 C 30.394 -4.14311 -1.70441 0
M  V30 339 C 32.138 -2.92913 -3.07249 0
M  V30 340 C 30.045 -5.25038 -2.72194 0
M  V30 341 H 28.975 -0.582344 -0.478949 0
M  V30 342 H 31.626 -1.75071 -0.549779 0
M  V30 343 H 30.008 -2.50697 -3.06541 0
M  V30 344 H 31.182 -4.49564 -1.01136 0
M  V30 345 H 29.497 -4.02482 -1.06759 0
M  V30 346 H 32.094 -3.72805 -3.83302 0
M  V30 347 H 32.437 -2.02689 -3.63625 0
M  V30 348 H 32.97 -3.18054 -2.38928 0
M  V30 349 H 29.709 -6.17255 -2.20627 0
M  V30 350 H 29.229 -4.94263 -3.39801 0
M  V30 351 H 30.908 -5.53508 -3.35019 0
M  V30 352 N 31.0401 0.771051 -1.3745 0
M  V30 353 C 31.9901 1.87456 -1.29785 0
M  V30 354 C 32.9741 1.59827 -0.185541 0
M  V30 355 O 34.1661 1.71945 -0.419997 0
M  V30 356 C 31.2951 3.24935 -1.1078 0
M  V30 357 C 30.3811 3.58514 -2.26558 0
M  V30 358 N 30.7721 3.6327 -3.5195 0
M  V30 359 C 29.0701 3.88683 -2.18727 0
M  V30 360 C 29.7711 3.93616 -4.283 0
M  V30 361 N 28.7471 4.09551 -3.57448 0
M  V30 362 H 32.5491 1.89386 -2.24745 0
M  V30 363 H 30.0631 0.967531 -1.30432 0
M  V30 364 H 32.0601 4.03881 -1.03374 0
M  V30 365 H 30.7201 3.24268 -0.16738 0
M  V30 366 H 31.7311 3.45458 -3.85848 0
M  V30 367 H 28.4081 3.95834 -1.32746 0
M  V30 368 H 29.7981 4.04066 -5.36824 0
M  V30 369 N 32.5182 1.22032 0.997298 0
M  V30 370 C 33.4652 0.986467 2.08656 0
M  V30 371 C 34.4352 -0.0902671 1.65855 0
M  V30 372 O 35.6202 0.0584294 1.90711 0
M  V30 373 C 32.7602 0.565569 3.40434 0
M  V30 374 C 31.8732 1.71259 3.96604 0
M  V30 375 C 31.0082 1.24011 5.16522 0
M  V30 376 C 30.0472 2.35896 5.64818 0
M  V30 377 N 29.1842 1.89726 6.7598 0
M  V30 378 H 34.0242 1.91892 2.27994 0
M  V30 379 H 31.5612 0.956199 1.11782 0
M  V30 380 H 33.5192 0.302738 4.161 0
M  V30 381 H 32.1492 -0.329879 3.2111 0
M  V30 382 H 31.2012 2.08986 3.17851 0
M  V30 383 H 32.5132 2.55436 4.28432 0
M  V30 384 H 31.6672 0.934395 5.99461 0
M  V30 385 H 30.4062 0.368487 4.86306 0
M  V30 386 H 29.4112 2.67261 4.8047 0
M  V30 387 H 30.6362 3.23567 5.97061 0
M  V30 388 H 28.5822 1.0492 6.47555 0
M  V30 389 H 28.4992 2.67471 7.07103 0
M  V30 390 H 29.7672 1.62211 7.62435 0
M  V30 391 N 33.9963 -1.19345 1.0293 0
M  V30 392 C 35.4073 -1.70725 0.755633 0
M  V30 393 C 35.7583 -1.82326 -0.724676 0
M  V30 394 O 34.8833 -1.49471 -1.56484 0
M  V30 395 C 35.4783 -3.10084 1.36503 0
M  V30 396 C 34.0373 -3.58723 1.13994 0
M  V30 397 C 33.1843 -2.35577 1.46283 0
M  V30 398 H 36.1353 -1.0418 1.19718 0
M  V30 399 H 36.1563 -3.72787 0.762217 0
M  V30 400 H 35.6683 -3.01609 2.44241 0
M  V30 401 H 33.7693 -3.72512 0.0807901 0
M  V30 402 H 33.8823 -4.42816 1.82894 0
M  V30 403 H 32.2463 -2.38935 0.88217 0
M  V30 404 H 33.0293 -2.29731 2.55105 0
M  V30 405 N 35.4744 -0.807222 -1.35358 0
M  V30 406 C 36.4214 -0.216037 -2.29787 0
M  V30 407 C 37.3914 0.650278 -1.52842 0
M  V30 408 O 38.5764 0.595227 -1.81278 0
M  V30 409 C 35.7164 0.628893 -3.39321 0
M  V30 410 C 34.8294 -0.257927 -4.31229 0
M  V30 411 C 33.9644 0.595069 -5.27856 0
M  V30 412 C 33.0034 -0.292111 -6.11403 0
M  V30 413 N 32.1404 0.520895 -7.00165 0
M  V30 414 H 36.9804 -1.02671 -2.79755 0
M  V30 415 H 34.5174 -0.517839 -1.37684 0
M  V30 416 H 36.4754 1.13393 -4.01494 0
M  V30 417 H 35.1054 1.40482 -2.90628 0
M  V30 418 H 34.1574 -0.881076 -3.70056 0
M  V30 419 H 35.4694 -0.940759 -4.89848 0
M  V30 420 H 34.6234 1.16522 -5.95405 0
M  V30 421 H 33.3624 1.31146 -4.69736 0
M  V30 422 H 32.3674 -0.874525 -5.428 0
M  V30 423 H 33.5924 -1.00638 -6.71602 0
M  V30 424 H 31.5384 1.22125 -6.44532 0
M  V30 425 H 31.4554 -0.103877 -7.55929 0
M  V30 426 H 32.7234 1.0743 -7.72062 0
M  V30 427 N 36.9525 1.47285 -0.560781 0
M  V30 428 C 37.8625 2.33846 0.187954 0
M  V30 429 C 38.8785 1.48412 0.908293 0
M  V30 430 O 40.0545 1.81332 0.876388 0
M  V30 431 C 37.1195 3.25178 1.2025 0
M  V30 432 C 36.1805 4.26504 0.489208 0
M  V30 433 C 35.4135 5.13472 1.45542 0
M  V30 434 O 35.6365 5.02959 2.6905 0
M  V30 435 O 34.5705 5.93902 0.977963 0
M  V30 436 H 38.3965 2.99177 -0.522177 0
M  V30 437 H 35.9815 1.45903 -0.321364 0
M  V30 438 H 37.8635 3.81584 1.78805 0
M  V30 439 H 36.5385 2.6247 1.89449 0
M  V30 440 H 35.4455 3.73847 -0.137627 0
M  V30 441 H 36.7785 4.91935 -0.161399 0
M  V30 442 N 38.4306 0.297415 1.54768 0
M  V30 443 C 39.6606 -0.315165 2.04182 0
M  V30 444 C 40.0686 -1.4834 1.17439 0
M  V30 445 O 39.4116 -1.82695 0.191891 0
M  V30 446 C 39.4736 -0.837583 3.49607 0
M  V30 447 C 39.1376 0.204912 4.5654 0
M  V30 448 C 40.1346 1.03214 5.09552 0
M  V30 449 C 37.8196 0.345578 5.0111 0
M  V30 450 C 39.8136 1.986 6.05671 0
M  V30 451 C 37.5006 1.30289 5.97049 0
M  V30 452 C 38.4986 2.12159 6.49213 0
M  V30 453 O 38.1866 3.06268 7.43273 0
M  V30 454 H 37.9186 -0.0729646 0.672051 0
M  V30 455 H 40.4726 0.433907 2.00765 0
M  V30 456 H 38.7026 -1.63712 3.50336 0
M  V30 457 H 40.3916 -1.36566 3.82236 0
M  V30 458 H 41.1576 0.934312 4.75916 0
M  V30 459 H 37.0366 -0.28171 4.60138 0
M  V30 460 H 40.5806 2.62542 6.46311 0
M  V30 461 H 36.4776 1.40145 6.30103 0
M  V30 462 H 37.2456 3.01205 7.61064 0
M  V30 463 N 39.9087 -1.5758 0.0250728 0
M  V30 464 C 41.1387 -1.95646 -0.663783 0
M  V30 465 C 41.5467 -0.899935 -1.66427 0
M  V30 466 O 40.8897 0.127191 -1.83259 0
M  V30 467 C 40.9517 -3.29835 -1.43 0
M  V30 468 C 40.6157 -4.53197 -0.588305 0
M  V30 469 C 41.6127 -5.19726 0.13469 0
M  V30 470 C 39.2977 -4.99529 -0.526897 0
M  V30 471 C 41.2917 -6.30902 0.90781 0
M  V30 472 C 38.9787 -6.10589 0.24993 0
M  V30 473 C 39.9767 -6.76134 0.965994 0
M  V30 474 O 39.6647 -7.85062 1.7301 0
M  V30 475 H 39.3967 -0.649282 -0.188174 0
M  V30 476 H 41.9507 -2.05245 0.0799006 0
M  V30 477 H 40.1807 -3.16716 -2.21873 0
M  V30 478 H 41.8697 -3.52833 -2.00658 0
M  V30 479 H 42.6357 -4.84904 0.0965562 0
M  V30 480 H 38.5147 -4.48319 -1.07381 0
M  V30 481 H 42.0587 -6.81995 1.46724 0
M  V30 482 H 37.9557 -6.44849 0.289795 0
M  V30 483 H 38.7237 -8.01708 1.64944 0
M  V30 484 N 41.3868 0.248026 -1.55636 0
M  V30 485 C 42.6638 0.998988 -1.68165 0
M  V30 486 C 43.0438 2.03409 -0.564621 0
M  V30 487 O 42.3918 2.24378 0.432076 0
M  V30 488 C 42.6018 1.63334 -3.0842 0
M  V30 489 C 43.9498 2.13562 -3.66983 0
M  V30 490 O 44.9738 1.73277 -3.11213 0
M  V30 491 O 43.8328 2.87526 -4.64749 0
M  V30 492 H 40.9268 0.464933 -0.683935 0
M  V30 493 H 43.4728 0.241902 -1.67967 0
M  V30 494 H 42.2448 0.884583 -3.8117 0
M  V30 495 H 41.8678 2.45666 -3.12624 0
M  V30 496 N 42.8649 1.48995 0.513639 0
M  V30 497 C 44.0949 1.61297 1.291 0
M  V30 498 C 44.5029 0.278656 1.87137 0
M  V30 499 O 43.8459 -0.744325 1.67945 0
M  V30 500 C 43.9079 2.61326 2.46879 0
M  V30 501 C 43.5719 4.05993 2.09807 0
M  V30 502 C 44.5689 4.93183 1.64519 0
M  V30 503 C 42.2539 4.51642 2.19829 0
M  V30 504 C 44.2479 6.24056 1.2974 0
M  V30 505 C 41.9349 5.82532 1.84662 0
M  V30 506 C 42.9329 6.68562 1.3969 0
M  V30 507 O 42.6209 7.97014 1.04992 0
M  V30 508 H 42.3529 0.546236 0.39825 0
M  V30 509 H 44.9069 1.95673 0.62459 0
M  V30 510 H 43.1369 2.22104 3.16554 0
M  V30 511 H 44.8259 2.6329 3.08923 0
M  V30 512 H 45.5919 4.59147 1.56233 0
M  V30 513 H 41.4709 3.84855 2.53786 0
M  V30 514 H 45.0149 6.91161 0.945659 0
M  V30 515 H 40.9119 6.16099 1.92594 0
M  V30 516 H 41.6799 8.09913 1.18249 0
M  V30 517 N 44.343 -0.763751 1.37857 0
M  V30 518 C 45.62 -1.51244 1.24035 0
M  V30 519 C 46 -2.10472 -0.162649 0
M  V30 520 O 45.348 -1.96206 -1.17112 0
M  V30 521 C 45.558 -2.58694 2.34261 0
M  V30 522 C 46.906 -3.25878 2.72193 0
M  V30 523 O 47.93 -2.68993 2.33497 0
M  V30 524 O 46.789 -4.2874 3.38887 0
M  V30 525 H 43.883 -0.670243 0.484462 0
M  V30 526 H 46.429 -0.800031 1.49658 0
M  V30 527 H 45.201 -2.13105 3.2818 0
M  V30 528 H 44.824 -3.37527 2.10146 0
M  V30 529 N 45.8211 -1.22559 -0.990812 0
M  V30 530 C 46.7691 -0.994798 -2.10253 0
M  V30 531 C 47.7631 0.0627798 -1.69284 0
M  V30 532 O 48.9691 -0.0898392 -1.79776 0
M  V30 533 H 45.3441 -0.304527 -0.687581 0
M  V30 534 H 47.3151 -1.93812 -2.26891 0
M  V30 535 C 46.0641 -0.591439 -3.42633 0
M  V30 536 H 45.3871 -1.3969 -3.74602 0
M  V30 537 H 46.8271 -0.469385 -4.21394 0
M  V30 538 C 45.2861 0.699232 -3.29564 0
M  V30 539 O 45.8161 1.75112 -3.61523 0
M  V30 540 N 44.0221 0.671182 -2.82743 0
M  V30 541 H 43.5691 -0.185136 -2.56934 0
M  V30 542 H 43.5271 1.53502 -2.7438 0
M  V30 543 N 47.2992 1.18797 -1.03562 0
M  V30 544 C 48.2292 2.24472 -0.643019 0
M  V30 545 C 49.2102 1.66433 0.351283 0
M  V30 546 O 50.3952 1.92803 0.232505 0
M  V30 547 C 47.5252 3.473 4.24935e-05 0
M  V30 548 C 46.4792 4.18055 -0.917257 0
M  V30 549 C 45.8052 5.34519 -0.138941 0
M  V30 550 C 47.1052 4.72109 -2.23407 0
M  V30 551 H 48.7992 2.57566 -1.52643 0
M  V30 552 H 46.3452 1.23806 -0.735394 0
M  V30 553 H 48.2982 4.20426 0.286383 0
M  V30 554 H 47.0222 3.13424 0.918299 0
M  V30 555 H 45.6812 3.46821 -1.1879 0
M  V30 556 H 45.3292 4.96891 0.781562 0
M  V30 557 H 45.0292 5.82794 -0.750005 0
M  V30 558 H 46.5532 6.10438 0.1405 0
M  V30 559 H 47.9672 5.36955 -2.00879 0
M  V30 560 H 46.3642 5.30897 -2.79765 0
M  V30 561 H 47.4342 3.89807 -2.88407 0
M  V30 562 N 48.7773 0.814389 1.34928 0
M  V30 563 C 49.6873 0.231978 2.3345 0
M  V30 564 C 50.7033 -0.629139 1.62228 0
M  V30 565 O 51.8793 -0.539052 1.94052 0
M  V30 566 C 48.9443 -0.603482 3.41407 0
M  V30 567 C 48.0053 0.279037 4.28392 0
M  V30 568 C 47.2383 -0.516643 5.31193 0
M  V30 569 O 47.4613 -1.75068 5.4287 0
M  V30 570 O 46.3953 0.0965652 6.01823 0
M  V30 571 H 50.2213 1.04721 2.85074 0
M  V30 572 H 47.8063 0.576343 1.37836 0
M  V30 573 H 49.6883 -1.07908 4.0735 0
M  V30 574 H 48.3633 -1.39618 2.92042 0
M  V30 575 H 47.2703 0.801948 3.65403 0
M  V30 576 H 48.6033 1.03588 4.81176 0
M  V30 577 N 50.2554 -1.46986 0.568584 0
M  V30 578 C 51.1854 -2.32946 -0.160753 0
M  V30 579 C 52.1664 -1.44487 -0.897631 0
M  V30 580 O 53.3514 -1.73327 -0.875867 0
M  V30 581 C 50.4814 -3.26494 -1.18403 0
M  V30 582 C 49.4354 -4.24282 -0.562895 0
M  V30 583 C 48.7614 -5.07236 -1.69163 0
M  V30 584 C 50.0614 -5.19989 0.490761 0
M  V30 585 H 51.7554 -2.94175 0.556916 0
M  V30 586 H 49.3014 -1.4146 0.26927 0
M  V30 587 H 51.2544 -3.85477 -1.70251 0
M  V30 588 H 49.9784 -2.63343 -1.93179 0
M  V30 589 H 48.6374 -3.66541 -0.0656164 0
M  V30 590 H 48.2854 -4.4048 -2.42871 0
M  V30 591 H 47.9854 -5.7345 -1.28174 0
M  V30 592 H 49.5094 -5.6908 -2.21314 0
M  V30 593 H 50.9234 -5.73271 0.0579047 0
M  V30 594 H 49.3204 -5.94469 0.820165 0
M  V30 595 H 50.3904 -4.64777 1.3824 0
M  V30 596 N 51.7335 -0.305618 -1.54608 0
M  V30 597 C 52.6655 0.602161 -2.21149 0
M  V30 598 C 53.6785 1.09394 -1.20569 0
M  V30 599 O 54.8675 1.0106 -1.47136 0
M  V30 600 C 51.9675 1.83692 -2.84799 0
M  V30 601 C 51.1405 1.48686 -4.11353 0
M  V30 602 C 50.1995 2.57725 -4.58764 0
M  V30 603 O 49.2255 2.22623 -5.23858 0
M  V30 604 N 50.4275 3.88346 -4.31471 0
M  V30 605 H 53.1925 0.0324966 -2.99682 0
M  V30 606 H 50.7535 -0.128021 -1.61393 0
M  V30 607 H 52.7455 2.55994 -3.13448 0
M  V30 608 H 51.3155 2.31486 -2.10078 0
M  V30 609 H 50.5355 0.596269 -3.89664 0
M  V30 610 H 51.8235 1.22842 -4.93748 0
M  V30 611 H 51.2215 4.19671 -3.79331 0
M  V30 612 H 49.7785 4.56932 -4.64818 0
M  V30 613 N 53.2116 1.57565 -0.0334293 0
M  V30 614 C 54.4576 1.93088 0.639417 0
M  V30 615 C 54.8126 0.910589 1.69488 0
M  V30 616 O 54.1056 -0.0727725 1.91462 0
M  V30 617 C 54.2996 3.33112 1.29504 0
M  V30 618 C 54.1286 4.48667 0.304604 0
M  V30 619 C 52.8986 5.05207 -0.0970777 0
M  V30 620 C 55.0966 5.1239 -0.442845 0
M  V30 621 N 53.0786 6.04286 -1.08223 0
M  V30 622 C 54.4496 6.06609 -1.28161 0
M  V30 623 C 56.5046 4.95352 -0.50308 0
M  V30 624 C 55.2076 6.85622 -2.17519 0
M  V30 625 C 57.2336 5.74978 -1.38401 0
M  V30 626 C 56.5956 6.68816 -2.21054 0
M  V30 627 H 52.6946 0.754335 0.206161 0
M  V30 628 H 55.2786 1.94435 -0.101613 0
M  V30 629 H 53.4496 3.32576 2.00618 0
M  V30 630 H 55.1816 3.55972 1.92525 0
M  V30 631 H 51.9366 4.72782 0.278255 0
M  V30 632 H 52.3606 6.58516 -1.57117 0
M  V30 633 H 57.0026 4.22625 0.121694 0
M  V30 634 H 54.7206 7.57652 -2.81049 0
M  V30 635 H 58.3066 5.63826 -1.43496 0
M  V30 636 H 57.1866 7.29355 -2.88116 0
M  V30 637 N 54.6897 -0.239769 1.55765 0
M  V30 638 C 55.6377 -1.31668 1.91745 0
M  V30 639 C 56.6317 -1.49462 0.797338 0
M  V30 640 O 57.8377 -1.50852 0.982021 0
M  V30 641 H 54.2127 -0.441048 0.609082 0
M  V30 642 H 56.1837 -0.985923 2.81642 0
M  V30 643 C 54.9327 -2.66368 2.2348 0
M  V30 644 H 54.2557 -2.53478 3.09175 0
M  V30 645 H 55.6957 -3.40578 2.52553 0
M  V30 646 C 54.1547 -3.20002 1.05359 0
M  V30 647 O 54.6847 -4.00538 0.305261 0
M  V30 648 N 52.8907 -2.78126 0.842292 0
M  V30 649 H 52.4377 -2.12742 1.45253 0
M  V30 650 H 52.3957 -3.14354 0.053652 0
M  V30 651 N 56.1678 -1.49265 -0.50573 0
M  V30 652 C 57.1148 -1.65585 -1.6078 0
M  V30 653 C 58.0848 -0.497396 -1.58478 0
M  V30 654 O 59.2698 -0.72385 -1.76536 0
M  V30 655 C 56.4098 -1.72408 -2.98948 0
M  V30 656 C 55.5228 -2.99525 -3.11301 0
M  V30 657 C 54.6578 -2.97356 -4.40174 0
M  V30 658 C 53.6968 -4.19074 -4.46143 0
M  V30 659 N 52.8338 -4.14841 -5.66437 0
M  V30 660 H 57.6738 -2.59688 -1.46172 0
M  V30 661 H 55.2108 -1.28761 -0.711261 0
M  V30 662 H 57.1688 -1.74344 -3.79025 0
M  V30 663 H 55.7988 -0.817753 -3.1227 0
M  V30 664 H 54.8508 -3.07222 -2.24318 0
M  V30 665 H 56.1628 -3.89518 -3.11572 0
M  V30 666 H 55.3168 -2.97829 -5.28567 0
M  V30 667 H 54.0558 -2.05133 -4.42461 0
M  V30 668 H 53.0608 -4.1885 -3.56153 0
M  V30 669 H 54.2858 -5.12483 -4.45575 0
M  V30 670 H 52.2318 -3.25453 -5.69575 0
M  V30 671 H 52.1488 -4.98564 -5.68304 0
M  V30 672 H 53.4168 -4.1941 -6.57051 0
M  V30 673 N 57.6459 0.756429 -1.3826 0
M  V30 674 C 59.0569 1.33359 -1.30661 0
M  V30 675 C 59.4079 1.96161 0.0388875 0
M  V30 676 O 58.5329 1.94874 0.940918 0
M  V30 677 C 59.1279 2.42477 -2.36622 0
M  V30 678 C 57.6869 2.95922 -2.3261 0
M  V30 679 C 56.8339 1.69275 -2.19639 0
M  V30 680 H 59.7849 0.55552 -1.4866 0
M  V30 681 H 59.8059 3.22345 -2.02174 0
M  V30 682 H 59.3179 1.96739 -3.34538 0
M  V30 683 H 57.4189 3.45996 -1.38267 0
M  V30 684 H 57.5319 3.50494 -3.26636 0
M  V30 685 H 55.8959 1.92793 -1.66442 0
M  V30 686 H 56.6789 1.25619 -3.19491 0
M  V30 687 N 59.124 1.23083 0.984299 0
M  V30 688 C 60.072 1.00593 2.09723 0
M  V30 689 C 61.066 -0.0538014 1.69315 0
M  V30 690 O 62.272 0.0993719 1.79725 0
M  V30 691 H 58.647 0.30817 0.685956 0
M  V30 692 H 60.618 1.95012 2.2586 0
M  V30 693 C 59.367 0.609601 3.42314 0
M  V30 694 H 58.69 1.41675 3.73856 0
M  V30 695 H 60.13 0.491726 4.21139 0
M  V30 696 C 58.589 -0.681745 3.2993 0
M  V30 697 O 59.119 -1.73192 3.62446 0
M  V30 698 N 57.325 -0.656178 2.83095 0
M  V30 699 H 56.872 0.198759 2.56832 0
M  V30 700 H 56.83 -1.52044 2.75191 0
M  V30 701 N 60.6021 -1.18246 1.0419 0
M  V30 702 C 62.0181 -1.40269 0.761366 0
M  V30 703 C 62.2181 -1.90777 -0.648578 0
M  V30 704 O 61.2741 -2.0929 -1.41258 0
M  V30 705 C 62.5871 -2.40237 1.8085 0
M  V30 706 C 64.1351 -2.53961 1.82955 0
M  V30 707 C 64.6101 -3.57194 2.86664 0
M  V30 708 N 66.1011 -3.64702 2.85563 0
M  V30 709 C 66.8361 -4.44309 3.6246 0
M  V30 710 N 66.3321 -5.27514 4.49111 0
M  V30 711 N 68.1251 -4.39084 3.50944 0
M  V30 712 H 60.2761 -0.837882 1.95175 0
M  V30 713 H 62.5391 -0.430608 0.84456 0
M  V30 714 H 62.2451 -2.10176 2.81991 0
M  V30 715 H 62.1191 -3.39601 1.64168 0
M  V30 716 H 64.5061 -2.83338 0.824855 0
M  V30 717 H 64.5871 -1.54706 2.03715 0
M  V30 718 H 64.2311 -3.28558 3.87314 0
M  V30 719 H 64.1611 -4.5613 2.6316 0
M  V30 720 H 66.6521 -3.05289 2.22727 0
M  V30 721 H 66.9651 -5.85411 5.04493 0
M  V30 722 H 65.3101 -5.2693 4.53178 0
M  V30 723 H 68.5011 -3.7313 2.82651 0
M  V30 724 H 68.6741 -5.00883 4.11121 0
M  V30 725 N 62.0802 -0.821533 -1.34494 0
M  V30 726 C 63.3102 -0.421272 -2.02259 0
M  V30 727 C 63.7182 0.977047 -1.6202 0
M  V30 728 O 63.0612 1.64348 -0.820703 0
M  V30 729 C 63.1232 -0.44231 -3.56769 0
M  V30 730 C 62.7872 -1.79372 -4.20327 0
M  V30 731 C 63.7842 -2.75435 -4.40944 0
M  V30 732 C 61.4692 -2.08182 -4.57127 0
M  V30 733 C 63.4632 -3.98482 -4.97484 0
M  V30 734 C 61.1502 -3.31489 -5.13379 0
M  V30 735 C 62.1482 -4.26457 -5.33501 0
M  V30 736 O 61.8362 -5.47585 -5.88562 0
M  V30 737 H 61.5682 -0.167473 -0.654927 0
M  V30 738 H 64.1222 -1.11073 -1.72777 0
M  V30 739 H 62.3522 0.303836 -3.85505 0
M  V30 740 H 64.0412 -0.0622925 -4.05852 0
M  V30 741 H 64.8072 -2.54473 -4.12878 0
M  V30 742 H 60.6862 -1.35066 -4.4077 0
M  V30 743 H 64.2302 -4.72618 -5.13106 0
M  V30 744 H 60.1272 -3.52316 -5.40873 0
M  V30 745 H 60.8952 -5.49086 -6.06998 0
M  V30 746 N 63.5583 1.46682 -0.576371 0
M  V30 747 C 64.4683 2.34032 0.163141 0
M  V30 748 C 65.4843 1.49367 0.892501 0
M  V30 749 O 66.6603 1.82252 0.857106 0
M  V30 750 C 63.7253 3.26435 1.16795 0
M  V30 751 C 62.7863 4.26998 0.443944 0
M  V30 752 C 62.0193 5.14986 1.40088 0
M  V30 753 O 62.2423 5.05785 2.637 0
M  V30 754 O 61.1763 5.94906 0.914917 0
M  V30 755 H 65.0023 2.98607 -0.55388 0
M  V30 756 H 62.5873 1.45554 -0.336821 0
M  V30 757 H 64.4693 3.83459 1.74748 0
M  V30 758 H 63.1443 2.64465 1.86655 0
M  V30 759 H 62.0513 3.7368 -0.177271 0
M  V30 760 H 63.3843 4.91736 -0.213566 0
M  V30 761 N 65.0364 0.313813 1.54444 0
M  V30 762 C 66.2854 -0.292519 1.99568 0
M  V30 763 C 66.5984 -1.54011 1.20582 0
M  V30 764 O 67.8044 -2.22183 1.56035 0
M  V30 765 C 66.2604 -0.571752 3.55329 0
M  V30 766 C 65.8684 0.658229 4.43138 0
M  V30 767 C 67.6124 -1.13857 4.08946 0
M  V30 768 C 65.5194 0.351439 5.90355 0
M  V30 769 H 64.4494 -0.113079 0.745472 0
M  V30 770 H 67.1004 0.424518 1.78522 0
M  V30 771 H 65.4824 -1.34872 3.72325 0
M  V30 772 H 66.6564 1.43403 4.37918 0
M  V30 773 H 64.9714 1.14458 4.0036 0
M  V30 774 H 67.5684 -1.38257 5.16516 0
M  V30 775 H 67.9114 -2.08489 3.6033 0
M  V30 776 H 68.4444 -0.423015 3.95544 0
M  V30 777 H 65.1834 1.26667 6.43145 0
M  V30 778 H 64.7034 -0.386842 5.98551 0
M  V30 779 H 66.3824 -0.0423134 6.46986 0
M  V30 780 N 66.5145 -1.57545 0.0417849 0
M  V30 781 C 67.4475 -2.06514 -0.970928 0
M  V30 782 C 68.4255 -0.963607 -1.30971 0
M  V30 783 O 69.6095 -1.23486 -1.4242 0
M  V30 784 C 66.7365 -2.4978 -2.28752 0
M  V30 785 C 65.7825 -3.71078 -2.10246 0
M  V30 786 S 66.6155 -5.17158 -1.38952 0
M  V30 787 C 67.7715 -5.6373 -2.71954 0
M  V30 788 H 68.0045 -2.9209 -0.554129 0
M  V30 789 H 65.5375 -1.53459 -0.17024 0
M  V30 790 H 67.4955 -2.75371 -3.04435 0
M  V30 791 H 66.1565 -1.64527 -2.67562 0
M  V30 792 H 65.3495 -3.9924 -3.07609 0
M  V30 793 H 64.9515 -3.45705 -1.42704 0
M  V30 794 H 67.2435 -5.68743 -3.68154 0
M  V30 795 H 68.1865 -6.63086 -2.4844 0
M  V30 796 H 68.5945 -4.91424 -2.77782 0
M  V30 797 N 67.9926 0.231505 -1.5589 0
M  V30 798 C 68.9396 1.28682 -1.91598 0
M  V30 799 C 69.9096 1.47071 -0.771974 0
M  V30 800 O 71.0946 1.60802 -1.027 0
M  V30 801 C 68.2346 2.6342 -2.22944 0
M  V30 802 C 67.3476 2.52912 -3.50228 0
M  V30 803 C 66.4826 3.80106 -3.7107 0
M  V30 804 C 65.5216 3.64279 -4.91902 0
M  V30 805 N 64.6586 4.834 -5.09184 0
M  V30 806 H 69.4986 0.975305 -2.81588 0
M  V30 807 H 67.0356 0.470299 -1.39379 0
M  V30 808 H 68.9936 3.41869 -2.39126 0
M  V30 809 H 67.6236 2.92687 -1.36139 0
M  V30 810 H 66.6756 1.6595 -3.42294 0
M  V30 811 H 67.9876 2.37133 -4.38827 0
M  V30 812 H 67.1416 4.66999 -3.87295 0
M  V30 813 H 65.8806 3.98799 -2.80733 0
M  V30 814 H 64.8856 2.7577 -4.75637 0
M  V30 815 H 66.1106 3.47067 -5.83714 0
M  V30 816 H 64.0566 5.02425 -4.21788 0
M  V30 817 H 63.9736 4.70311 -5.91898 0
M  V30 818 H 65.2416 5.71747 -5.29835 0
M  V30 819 N 69.4707 1.49531 0.497807 0
M  V30 820 C 70.4177 1.66436 1.59899 0
M  V30 821 C 71.3877 0.505793 1.58212 0
M  V30 822 O 72.5727 0.733202 1.7615 0
M  V30 823 C 69.7127 1.7399 2.98029 0
M  V30 824 C 68.8257 3.01172 3.09708 0
M  V30 825 C 67.9607 2.99686 4.38591 0
M  V30 826 C 66.9997 4.21434 4.43914 0
M  V30 827 N 66.1367 4.1784 5.64229 0
M  V30 828 H 70.9767 2.60459 1.44793 0
M  V30 829 H 68.5137 1.29137 0.704423 0
M  V30 830 H 70.4717 1.76352 3.78095 0
M  V30 831 H 69.1017 0.834301 3.11832 0
M  V30 832 H 68.1537 3.08408 2.22685 0
M  V30 833 H 69.4657 3.91165 3.09502 0
M  V30 834 H 68.6197 3.00628 5.2698 0
M  V30 835 H 67.3587 2.07477 4.41367 0
M  V30 836 H 66.3637 4.20733 3.53926 0
M  V30 837 H 67.5887 5.14839 4.42851 0
M  V30 838 H 65.5347 3.28469 5.67841 0
M  V30 839 H 65.4517 5.01571 5.65652 0
M  V30 840 H 66.7197 4.22889 6.54817 0
M  V30 841 N 70.9488 -0.749086 1.3866 0
M  V30 842 C 72.1978 -1.50371 1.3443 0
M  V30 843 C 72.5108 -1.95503 -0.0616397 0
M  V30 844 O 73.7168 -2.70554 -0.226489 0
M  V30 845 C 72.1728 -2.71644 2.36088 0
M  V30 846 C 71.7808 -2.3352 3.82325 0
M  V30 847 C 73.5248 -3.49518 2.40909 0
M  V30 848 C 71.4318 -3.51431 4.75658 0
M  V30 849 H 70.3618 -0.564628 0.499712 0
M  V30 850 H 73.0128 -0.818449 1.64237 0
M  V30 851 H 71.3948 -3.42175 1.9933 0
M  V30 852 H 72.5688 -1.70627 4.28046 0
M  V30 853 H 70.8838 -1.6877 3.80665 0
M  V30 854 H 73.4808 -4.37197 3.07836 0
M  V30 855 H 73.8238 -3.90992 1.42937 0
M  V30 856 H 74.3568 -2.86005 2.76489 0
M  V30 857 H 71.0958 -3.15019 5.74842 0
M  V30 858 H 70.6158 -4.13352 4.34627 0
M  V30 859 H 72.2948 -4.17953 4.93887 0
M  V30 860 N 72.4269 -1.23603 -0.977757 0
M  V30 861 C 73.6749 -1.06759 -1.71601 0
M  V30 862 C 73.9959 0.395929 -1.90938 0
M  V30 863 O 73.2659 1.28356 -1.47992 0
M  V30 864 H 71.8459 -0.392062 -0.635843 0
M  V30 865 H 74.5079 -1.55362 -1.1768 0
M  V30 866 H 73.6039 -1.55763 -2.70452 0
M  V30 867 N 73.905 1.17692 -1.04816 0
M  V30 868 C 75.321 1.39863 -0.768794 0
M  V30 869 C 75.521 1.91118 0.638451 0
M  V30 870 O 74.577 2.10036 1.40146 0
M  V30 871 C 75.89 2.39274 -1.82122 0
M  V30 872 C 77.438 2.52987 -1.843 0
M  V30 873 C 77.913 3.55669 -2.88555 0
M  V30 874 N 79.404 3.63183 -2.87493 0
M  V30 875 C 80.139 4.42381 -3.64811 0
M  V30 876 N 79.635 5.25125 -4.51903 0
M  V30 877 N 81.428 4.37217 -3.53267 0
M  V30 878 H 73.579 0.82752 -1.95617 0
M  V30 879 H 75.842 0.426123 -0.846831 0
M  V30 880 H 75.548 2.08678 -2.83102 0
M  V30 881 H 75.422 3.38725 -1.65967 0
M  V30 882 H 77.809 2.82896 -0.839869 0
M  V30 883 H 77.89 1.53623 -2.04532 0
M  V30 884 H 77.534 3.26499 -3.89051 0
M  V30 885 H 77.464 4.54728 -2.65575 0
M  V30 886 H 79.955 3.04103 -2.24343 0
M  V30 887 H 80.268 5.82728 -5.07591 0
M  V30 888 H 78.613 5.24519 -4.55966 0
M  V30 889 H 81.804 3.71626 -2.84625 0
M  V30 890 H 81.977 4.98696 -4.13771 0
M  V30 891 N 75.3831 0.828654 1.34056 0
M  V30 892 C 76.6311 0.41863 1.97717 0
M  V30 893 C 76.9521 -1.02314 1.66002 0
M  V30 894 O 76.2221 -1.71119 0.953683 0
M  V30 895 H 74.8021 0.151809 0.731412 0
M  V30 896 H 77.4641 1.05936 1.63596 0
M  V30 897 H 76.5601 0.542318 3.07352 0
M  V30 898 N 76.8612 -1.46375 0.584142 0
M  V30 899 C 77.8082 -2.30323 -0.148286 0
M  V30 900 C 78.7782 -1.40703 -0.882713 0
M  V30 901 O 79.9632 -1.69651 -0.873099 0
M  V30 902 C 77.1032 -3.25196 -1.15507 0
M  V30 903 C 76.2162 -4.29915 -0.423943 0
M  V30 904 C 75.3512 -5.11914 -1.41838 0
M  V30 905 C 74.3902 -6.08381 -0.673736 0
M  V30 906 N 73.5272 -6.83242 -1.6163 0
M  V30 907 H 78.3672 -2.92427 0.573644 0
M  V30 908 H 75.9042 -1.44118 0.294703 0
M  V30 909 H 77.8622 -3.78646 -1.75166 0
M  V30 910 H 76.4922 -2.64898 -1.8447 0
M  V30 911 H 75.5442 -3.7931 0.287714 0
M  V30 912 H 76.8562 -4.98549 0.158128 0
M  V30 913 H 76.0102 -5.69648 -2.08773 0
M  V30 914 H 74.7492 -4.43243 -2.03438 0
M  V30 915 H 73.7542 -5.49799 0.00938483 0
M  V30 916 H 74.9792 -6.79071 -0.0631082 0
M  V30 917 H 72.9252 -6.1728 -2.22038 0
M  V30 918 H 72.8422 -7.48144 -1.08707 0
M  V30 919 H 74.1102 -7.45534 -2.27596 0
M  V30 920 N 78.3393 -0.321999 -1.54275 0
M  V30 921 C 79.5693 0.282642 -2.04658 0
M  V30 922 C 79.9773 1.46453 -1.19784 0
M  V30 923 O 79.3203 1.82367 -0.220932 0
M  V30 924 C 79.3823 0.781857 -3.50895 0
M  V30 925 C 79.0463 -0.277517 -4.56157 0
M  V30 926 C 80.0433 -1.11307 -5.07845 0
M  V30 927 C 77.7283 -0.425256 -5.00497 0
M  V30 928 C 79.7223 -2.08211 -6.02434 0
M  V30 929 C 77.4093 -1.39771 -5.94901 0
M  V30 930 C 78.4073 -2.2246 -6.45756 0
M  V30 931 O 78.0953 -3.18054 -7.38307 0
M  V30 932 H 77.8273 0.0622636 -0.673126 0
M  V30 933 H 80.3813 -0.465792 -2.00049 0
M  V30 934 H 78.6113 1.58118 -3.52896 0
M  V30 935 H 80.3003 1.30467 -3.84361 0
M  V30 936 H 81.0663 -1.00991 -4.74369 0
M  V30 937 H 76.9453 0.20847 -4.60528 0
M  V30 938 H 80.4893 -2.72791 -6.42052 0
M  V30 939 H 76.3863 -1.50152 -6.27794 0
M  V30 940 H 77.1543 -3.13275 -7.56175 0
M  V30 941 N 79.8174 1.5752 -0.0501392 0
M  V30 942 C 81.0424 1.97376 0.636997 0
M  V30 943 C 81.4674 0.927466 1.63645 0
M  V30 944 O 80.8254 -0.10941 1.8097 0
M  V30 945 C 80.8734 3.36304 1.30123 0
M  V30 946 O 79.9774 3.34156 2.41689 0
M  V30 947 H 79.3184 0.642998 0.165679 0
M  V30 948 H 81.8484 2.04258 -0.118233 0
M  V30 949 H 81.8584 3.73008 1.65315 0
M  V30 950 H 80.5334 4.11993 0.568746 0
M  V30 951 H 79.1104 3.09196 2.08451 0
M  V30 952 N 81.2955 -0.223234 1.56011 0
M  V30 953 C 82.2055 -1.29766 1.95443 0
M  V30 954 C 83.2215 -1.51373 0.858028 0
M  V30 955 O 84.3975 -1.64536 1.16146 0
M  V30 956 C 81.4625 -2.62772 2.26167 0
M  V30 957 C 80.5235 -2.49482 3.49367 0
M  V30 958 C 79.7565 -3.76145 3.78616 0
M  V30 959 O 79.9795 -4.79087 3.09568 0
M  V30 960 O 78.9135 -3.73358 4.72109 0
M  V30 961 H 82.7395 -0.99309 2.87004 0
M  V30 962 H 80.3245 -0.425958 1.43199 0
M  V30 963 H 82.2065 -3.41327 2.47131 0
M  V30 964 H 80.8815 -2.92913 1.37781 0
M  V30 965 H 79.7885 -1.69133 3.33684 0
M  V30 966 H 81.1215 -2.2428 4.38131 0
M  V30 967 N 82.7736 -1.49793 -0.48987 0
M  V30 968 C 84.0196 -1.60078 -1.24511 0
M  V30 969 C 84.3526 -0.291608 -1.91998 0
M  V30 970 O 83.6276 0.705647 -1.81248 0
M  V30 971 C 83.9106 -2.76791 -2.30345 0
M  V30 972 C 83.7636 -4.17535 -1.67286 0
M  V30 973 C 85.0826 -2.89111 -3.31817 0
M  V30 974 H 82.2016 -0.582645 -0.451324 0
M  V30 975 H 84.8436 -1.82117 -0.541612 0
M  V30 976 H 82.9936 -2.5813 -2.90346 0
M  V30 977 H 84.6656 -4.4774 -1.11026 0
M  V30 978 H 82.9086 -4.22665 -0.976577 0
M  V30 979 H 83.5796 -4.95094 -2.44103 0
M  V30 980 H 86.0556 -3.06133 -2.81819 0
M  V30 981 H 84.9316 -3.72433 -4.03219 0
M  V30 982 H 85.1926 -1.9893 -3.94815 0
M  V30 983 N 84.2517 0.741722 -1.39055 0
M  V30 984 C 85.4987 1.50114 -1.35912 0
M  V30 985 C 85.8267 1.94443 0.0470937 0
M  V30 986 O 85.0817 1.66612 1.02659 0
M  V30 987 C 85.3807 2.7592 -2.27163 0
M  V30 988 C 85.0467 2.50493 -3.74919 0
M  V30 989 C 83.7087 2.43267 -4.1518 0
M  V30 990 C 86.0607 2.28585 -4.684 0
M  V30 991 C 83.3887 2.12166 -5.46994 0
M  V30 992 C 85.7407 1.99002 -6.00484 0
M  V30 993 C 84.4047 1.90241 -6.39816 0
M  V30 994 H 83.6747 0.549306 -0.497336 0
M  V30 995 H 86.3217 0.851896 -1.71508 0
M  V30 996 H 84.6267 3.45553 -1.84663 0
M  V30 997 H 86.3237 3.33923 -2.22028 0
M  V30 998 H 82.9137 2.56992 -3.43006 0
M  V30 999 H 87.0977 2.33139 -4.38132 0
M  V30 1000 H 82.3537 2.03901 -5.76398 0
M  V30 1001 H 86.5277 1.81057 -6.72452 0
M  V30 1002 H 84.1547 1.65907 -7.41875 0
M  V30 1003 N 85.7298 1.2412 0.971189 0
M  V30 1004 C 86.6778 1.02812 2.08644 0
M  V30 1005 C 87.6718 -0.0358403 1.69362 0
M  V30 1006 O 88.8778 0.118429 1.7961 0
M  V30 1007 H 85.2528 0.315428 0.682649 0
M  V30 1008 H 87.2238 1.97397 2.23779 0
M  V30 1009 C 85.9728 0.645874 3.41649 0
M  V30 1010 H 85.2958 1.45632 3.72332 0
M  V30 1011 H 86.7358 0.536366 4.20594 0
M  V30 1012 C 85.1948 -0.646713 3.30635 0
M  V30 1013 O 85.7248 -1.69338 3.64263 0
M  V30 1014 N 83.9308 -0.626115 2.83775 0
M  V30 1015 H 83.4778 0.225988 2.56607 0
M  V30 1016 H 83.4358 -1.49117 2.76788 0
M  V30 1017 N 87.2079 -1.17134 1.05439 0
M  V30 1018 C 88.4559 -1.87085 0.764429 0
M  V30 1019 C 88.7769 -1.81584 -0.710787 0
M  V30 1020 O 88.0469 -1.24349 -1.51374 0
M  V30 1021 H 86.6269 -0.692627 0.279779 0
M  V30 1022 H 89.2889 -1.42087 1.33406 0
M  V30 1023 H 88.3849 -2.92759 1.0816 0
M  V30 1024 N 88.686 -0.835752 -1.33615 0
M  V30 1025 C 89.916 -0.442701 -2.01801 0
M  V30 1026 C 90.324 0.959807 -1.63047 0
M  V30 1027 O 89.667 1.63468 -0.838088 0
M  V30 1028 C 89.729 -0.480125 -3.56279 0
M  V30 1029 C 89.393 -1.8382 -4.18401 0
M  V30 1030 C 90.39 -2.80097 -4.37998 0
M  V30 1031 C 88.075 -2.13019 -4.54894 0
M  V30 1032 C 90.069 -4.03736 -4.9323 0
M  V30 1033 C 87.756 -3.36916 -5.09834 0
M  V30 1034 C 88.754 -4.32091 -5.28948 0
M  V30 1035 O 88.442 -5.53797 -5.82721 0
M  V30 1036 H 88.174 -0.17441 -0.653114 0
M  V30 1037 H 90.728 -1.129 -1.71589 0
M  V30 1038 H 88.958 0.262931 -3.85805 0
M  V30 1039 H 90.647 -0.105335 -4.05763 0
M  V30 1040 H 91.413 -2.58838 -4.10156 0
M  V30 1041 H 87.292 -1.39733 -4.39313 0
M  V30 1042 H 90.836 -4.78034 -5.08064 0
M  V30 1043 H 86.733 -3.58033 -5.37106 0
M  V30 1044 H 87.501 -5.55494 -6.0114 0
M  V30 1045 N 90.1641 1.46063 -0.591896 0
M  V30 1046 C 91.4411 1.95595 -0.0137119 0
M  V30 1047 C 91.8211 1.5345 1.4497 0
M  V30 1048 O 91.1691 0.789543 2.14426 0
M  V30 1049 C 91.3791 3.48453 -0.195373 0
M  V30 1050 C 92.7271 4.24546 -0.0679765 0
M  V30 1051 O 93.7511 3.55982 -0.124681 0
M  V30 1052 O 92.6101 5.46467 0.0600579 0
M  V30 1053 H 89.7041 0.825795 0.0446279 0
M  V30 1054 H 92.2501 1.56303 -0.660859 0
M  V30 1055 H 91.0221 3.72045 -1.21235 0
M  V30 1056 H 90.6451 3.94597 0.487775 0
M  V30 1057 N 91.6422 0.330177 1.54103 0
M  V30 1058 C 92.8702 -0.272179 2.05102 0
M  V30 1059 C 93.2852 -1.45267 1.20595 0
M  V30 1060 O 92.6422 -1.8094 0.238144 0
M  V30 1061 C 92.6932 -0.70023 3.54653 0
M  V30 1062 O 92.4142 0.433301 4.35952 0
M  V30 1063 C 93.9152 -1.3647 4.21771 0
M  V30 1064 H 91.1352 -0.0549159 0.668749 0
M  V30 1065 H 93.6792 0.478285 1.98828 0
M  V30 1066 H 91.8342 -1.40066 3.61193 0
M  V30 1067 H 92.2482 0.0947539 5.24414 0
M  V30 1068 H 93.7222 -1.61509 5.27843 0
M  V30 1069 H 94.1992 -2.31409 3.73292 0
M  V30 1070 H 94.8052 -0.706675 4.19388 0
M  V30 1071 N 93.1203 -1.57491 0.0584922 0
M  V30 1072 C 94.0303 -2.15448 -0.928414 0
M  V30 1073 C 95.0463 -1.11416 -1.3365 0
M  V30 1074 O 96.2223 -1.4362 -1.41193 0
M  V30 1075 C 93.2873 -2.69393 -2.18239 0
M  V30 1076 C 92.3483 -3.88249 -1.83196 0
M  V30 1077 C 91.5813 -4.39613 -3.02616 0
M  V30 1078 O 91.8043 -3.90023 -4.16219 0
M  V30 1079 O 90.7383 -5.31111 -2.83204 0
M  V30 1080 H 94.5643 -3.00112 -0.465483 0
M  V30 1081 H 92.1493 -1.48499 -0.163826 0
M  V30 1082 H 94.0313 -3.04026 -2.91798 0
M  V30 1083 H 92.7063 -1.87796 -2.63656 0
M  V30 1084 H 91.6133 -3.58492 -1.06931 0
M  V30 1085 H 92.9463 -4.71098 -1.42573 0
M  V30 1086 N 94.5984 0.214957 -1.56127 0
M  V30 1087 C 95.8384 0.945364 -1.81224 0
M  V30 1088 C 96.2024 1.81265 -0.633005 0
M  V30 1089 O 97.4034 2.57731 -0.763423 0
M  V30 1090 C 95.6744 1.75665 -3.1125 0
M  V30 1091 S 97.2334 2.54179 -3.57685 0
M  V30 1092 H 94.0514 0.317443 -0.6362 0
M  V30 1093 H 96.6534 0.210381 -1.94365 0
M  V30 1094 H 95.3574 1.10977 -3.9511 0
M  V30 1095 H 94.8884 2.53381 -3.00934 0
M  V30 1096 H 96.9034 3.7792 -3.21545 0
M  V30 1097 N 96.0765 1.50051 0.48192 0
M  V30 1098 C 97.0245 1.68635 1.60203 0
M  V30 1099 C 98.0185 0.552184 1.60148 0
M  V30 1100 O 99.2245 0.732377 1.64427 0
M  V30 1101 H 95.5995 0.532081 0.531407 0
M  V30 1102 H 97.5705 2.62616 1.41688 0
M  V30 1103 C 96.3195 1.78775 2.9822 0
M  V30 1104 H 95.6425 2.6543 2.98976 0
M  V30 1105 H 97.0825 1.95806 3.7608 0
M  V30 1106 C 95.5415 0.536849 3.32595 0
M  V30 1107 O 96.0715 -0.328897 4.00351 0
M  V30 1108 N 94.2775 0.394091 2.87915 0
M  V30 1109 H 93.8245 1.09962 2.32951 0
M  V30 1110 H 93.7825 -0.441737 3.11281 0
M  V30 1111 N 97.5546 -0.734337 1.39446 0
M  V30 1112 C 98.9706 -1.03997 1.21065 0
M  V30 1113 C 99.1706 -2.01369 0.0727019 0
M  V30 1114 O 98.2266 -2.45856 -0.575426 0
M  V30 1115 C 99.5396 -1.60163 2.54496 0
M  V30 1116 C 101.088 -1.7224 2.61347 0
M  V30 1117 C 101.563 -2.31814 3.95002 0
M  V30 1118 N 103.054 -2.39223 3.96644 0
M  V30 1119 C 103.789 -2.86258 4.96834 0
M  V30 1120 N 103.285 -3.33184 6.07421 0
M  V30 1121 N 105.078 -2.85473 4.84213 0
M  V30 1122 H 97.2286 -0.0885624 2.12215 0
M  V30 1123 H 99.4916 -0.10191 0.942506 0
M  V30 1124 H 99.1976 -0.960811 3.38321 0
M  V30 1125 H 99.0716 -2.5896 2.74262 0
M  V30 1126 H 101.459 -2.35443 1.77906 0
M  V30 1127 H 101.54 -0.720939 2.4543 0
M  V30 1128 H 101.184 -1.69238 4.78875 0
M  V30 1129 H 101.114 -3.32638 4.08239 0
M  V30 1130 H 103.605 -2.06057 3.16779 0
M  V30 1131 H 103.918 -3.67586 6.7978 0
M  V30 1132 H 102.263 -3.31191 6.11013 0
M  V30 1133 H 105.454 -2.48136 3.96921 0
M  V30 1134 H 105.627 -3.21814 5.62441 0
M  V30 1135 N 99.0327 -1.24633 -0.964593 0
M  V30 1136 C 100.444 -1.08045 -1.5226 0
M  V30 1137 C 100.795 0.347116 -1.93105 0
M  V30 1138 O 99.9197 1.23588 -1.77637 0
M  V30 1139 C 100.515 -1.95514 -2.76695 0
M  V30 1140 C 99.0737 -1.8314 -3.28841 0
M  V30 1141 C 98.2207 -1.90262 -2.01732 0
M  V30 1142 H 101.172 -1.38064 -0.782553 0
M  V30 1143 H 101.193 -1.48925 -3.50145 0
M  V30 1144 H 100.705 -2.99407 -2.46936 0
M  V30 1145 H 98.8057 -0.82092 -3.63444 0
M  V30 1146 H 98.9187 -2.67406 -3.97531 0
M  V30 1147 H 97.2827 -1.34027 -2.16584 0
M  V30 1148 H 98.0657 -2.9574 -1.74334 0
M  V30 1149 N 100.511 1.16574 -1.06058 0
M  V30 1150 C 101.751 1.88723 -0.78504 0
M  V30 1151 C 102.115 1.79706 0.676006 0
M  V30 1152 O 103.316 2.46757 1.06603 0
M  V30 1153 C 101.587 3.34338 -1.26304 0
M  V30 1154 S 103.146 4.24366 -1.1162 0
M  V30 1155 H 99.9638 0.651448 -0.284846 0
M  V30 1156 H 102.566 1.40732 -1.35701 0
M  V30 1157 H 101.27 3.38439 -2.32136 0
M  V30 1158 H 100.801 3.87378 -0.685719 0
M  V30 1159 H 102.816 4.96179 -0.0456539 0
M  V30 1160 N 101.989 0.842826 1.3317 0
M  V30 1161 C 102.952 0.284065 2.27433 0
M  V30 1162 C 103.952 -0.54948 1.5112 0
M  V30 1163 O 105.142 -0.362699 1.70382 0
M  V30 1164 C 102.274 -0.599384 3.35589 0
M  V30 1165 H 103.467 1.11589 2.78366 0
M  V30 1166 H 101.02 0.616221 1.4364 0
M  V30 1167 H 101.755 -1.45349 2.89904 0
M  V30 1168 H 101.54 -0.00291266 3.921 0
M  V30 1169 H 103.03 -0.983488 4.05854 0
M  V30 1170 N 103.467 -1.45747 0.599634 0
M  V30 1171 C 104.716 -2.01502 0.0893511 0
M  V30 1172 C 105.029 -1.4748 -1.28488 0
M  V30 1173 O 106.235 -1.95161 -1.88745 0
M  V30 1174 C 104.691 -3.59735 0.109082 0
M  V30 1175 C 104.299 -4.22754 1.48267 0
M  V30 1176 C 106.043 -4.23085 -0.346374 0
M  V30 1177 C 103.95 -5.73115 1.45921 0
M  V30 1178 H 102.88 -0.753417 0.0296347 0
M  V30 1179 H 105.531 -1.67303 0.753788 0
M  V30 1180 H 103.913 -3.91087 -0.621854 0
M  V30 1181 H 105.087 -4.02987 2.23468 0
M  V30 1182 H 103.402 -3.71567 1.87955 0
M  V30 1183 H 105.999 -5.33327 -0.38298 0
M  V30 1184 H 106.342 -3.93201 -1.36743 0
M  V30 1185 H 106.875 -3.9642 0.331038 0
M  V30 1186 H 103.614 -6.07685 2.45762 0
M  V30 1187 H 103.134 -5.95097 0.749665 0
M  V30 1188 H 104.813 -6.3616 1.17941 0
M  V30 1189 N 104.945 -0.338344 -1.53925 0
M  V30 1190 C 105.892 0.520845 -2.24846 0
M  V30 1191 C 106.862 1.09976 -1.24477 0
M  V30 1192 O 108.047 1.13735 -1.53196 0
M  V30 1193 C 105.187 1.6685 -3.02084 0
M  V30 1194 C 104.3 1.11739 -4.17299 0
M  V30 1195 C 103.435 2.23193 -4.82036 0
M  V30 1196 C 102.474 1.65407 -5.89328 0
M  V30 1197 N 101.611 2.70582 -6.47866 0
M  V30 1198 H 106.451 -0.0904881 -2.97863 0
M  V30 1199 H 103.988 -0.0564282 -1.46992 0
M  V30 1200 H 105.946 2.34407 -3.45122 0
M  V30 1201 H 104.576 2.2509 -2.31375 0
M  V30 1202 H 103.628 0.332919 -3.7894 0
M  V30 1203 H 104.94 0.654677 -4.94485 0
M  V30 1204 H 104.094 2.98626 -5.28117 0
M  V30 1205 H 102.833 2.72807 -4.04262 0
M  V30 1206 H 101.838 0.884779 -5.42634 0
M  V30 1207 H 103.063 1.16652 -6.69006 0
M  V30 1208 H 101.009 3.1946 -5.72959 0
M  V30 1209 H 100.926 2.28917 -7.20509 0
M  V30 1210 H 102.194 3.45799 -6.98601 0
M  V30 1211 N 106.423 1.57458 -0.0668435 0
M  V30 1212 C 107.669 1.93587 0.6043 0
M  V30 1213 C 108.002 0.946722 1.69561 0
M  V30 1214 O 107.277 -0.0248516 1.94484 0
M  V30 1215 C 107.56 3.40014 1.18585 0
M  V30 1216 C 107.413 4.49685 0.101529 0
M  V30 1217 C 108.732 3.87154 2.09284 0
M  V30 1218 H 105.851 0.703958 0.218202 0
M  V30 1219 H 108.493 1.89542 -0.131804 0
M  V30 1220 H 106.643 3.43592 1.81319 0
M  V30 1221 H 108.315 4.5823 -0.531279 0
M  V30 1222 H 106.558 4.30059 -0.568487 0
M  V30 1223 H 107.229 5.49266 0.54874 0
M  V30 1224 H 109.705 3.85551 1.56491 0
M  V30 1225 H 108.581 4.90231 2.46911 0
M  V30 1226 H 108.842 3.2481 2.99918 0
M  V30 1227 N 107.901 -0.206675 1.56239 0
M  V30 1228 C 108.831 -1.25909 1.96645 0
M  V30 1229 C 109.812 -1.48097 0.836734 0
M  V30 1230 O 110.997 -1.6003 1.10019 0
M  V30 1231 C 108.127 -2.6058 2.29599 0
M  V30 1232 C 107.081 -2.53024 3.452 0
M  V30 1233 C 106.407 -3.91861 3.63798 0
M  V30 1234 C 107.707 -2.06524 4.79734 0
M  V30 1235 H 109.401 -0.923369 2.84806 0
M  V30 1236 H 106.947 -0.442735 1.37025 0
M  V30 1237 H 108.9 -3.34375 2.56459 0
M  V30 1238 H 107.624 -2.95869 1.38307 0
M  V30 1239 H 106.283 -1.81684 3.18412 0
M  V30 1240 H 105.931 -4.24483 2.69857 0
M  V30 1241 H 105.631 -3.87683 4.4156 0
M  V30 1242 H 107.155 -4.67296 3.93022 0
M  V30 1243 H 108.569 -2.70072 5.05702 0
M  V30 1244 H 106.966 -2.13374 5.60885 0
M  V30 1245 H 108.036 -1.01802 4.74093 0
M  V30 1246 N 109.379 -1.50304 -0.473955 0
M  V30 1247 C 110.326 -1.68959 -1.57231 0
M  V30 1248 C 111.296 -0.530899 -1.57387 0
M  V30 1249 O 112.481 -0.761133 -1.74961 0
M  V30 1250 C 109.621 -1.7871 -2.95223 0
M  V30 1251 C 108.734 -3.06061 -3.04878 0
M  V30 1252 C 107.869 -3.06626 -4.33767 0
M  V30 1253 C 106.908 -4.28443 -4.37154 0
M  V30 1254 N 106.045 -4.26763 -5.5751 0
M  V30 1255 H 110.885 -2.6273 -1.40631 0
M  V30 1256 H 108.422 -1.30241 -0.683789 0
M  V30 1257 H 110.38 -1.82344 -3.75242 0
M  V30 1258 H 109.01 -0.883806 -3.10465 0
M  V30 1259 H 108.062 -3.11911 -2.17751 0
M  V30 1260 H 109.374 -3.96039 -3.0324 0
M  V30 1261 H 108.528 -3.08973 -5.22131 0
M  V30 1262 H 107.267 -2.14473 -4.3801 0
M  V30 1263 H 106.272 -4.2631 -3.47188 0
M  V30 1264 H 107.497 -5.2182 -4.34605 0
M  V30 1265 H 105.443 -3.37462 -5.62544 0
M  V30 1266 H 105.36 -5.10507 -5.57601 0
M  V30 1267 H 106.628 -4.33253 -6.48006 0
M  V30 1268 N 110.857 0.726932 -1.39834 0
M  V30 1269 C 112.268 1.30558 -1.3346 0
M  V30 1270 C 112.619 1.962 -0.00273003 0
M  V30 1271 O 111.744 1.96826 0.899371 0
M  V30 1272 C 112.339 2.37404 -2.41713 0
M  V30 1273 C 110.898 2.90921 -2.38835 0
M  V30 1274 C 110.045 1.64578 -2.2318 0
M  V30 1275 H 112.996 0.523862 -1.49804 0
M  V30 1276 H 113.017 3.17984 -2.08966 0
M  V30 1277 H 112.529 1.89599 -3.38635 0
M  V30 1278 H 110.63 3.42985 -1.45575 0
M  V30 1279 H 110.743 3.43487 -3.33997 0
M  V30 1280 H 109.107 1.89219 -1.70494 0
M  V30 1281 H 109.89 1.18814 -3.22084 0
M  V30 1282 N 112.336 1.25143 0.95797 0
M  V30 1283 C 113.582 1.09855 1.70469 0
M  V30 1284 C 113.915 -0.360187 1.90831 0
M  V30 1285 O 113.19 -1.26568 1.47685 0
M  V30 1286 C 113.473 1.8497 3.08963 0
M  V30 1287 C 113.326 3.38652 2.96032 0
M  V30 1288 C 114.645 1.63016 4.08795 0
M  V30 1289 H 111.764 0.400465 0.618706 0
M  V30 1290 H 114.406 1.53933 1.11376 0
M  V30 1291 H 112.556 1.47505 3.59409 0
M  V30 1292 H 114.228 3.85772 2.52938 0
M  V30 1293 H 112.471 3.66534 2.32025 0
M  V30 1294 H 113.142 3.8642 3.94187 0
M  V30 1295 H 115.618 1.95625 3.67247 0
M  V30 1296 H 114.494 2.18015 5.03747 0
M  V30 1297 H 114.755 0.570692 4.38401 0
M  V30 1298 N 113.814 -1.1601 1.06675 0
M  V30 1299 C 114.761 -2.20525 0.680967 0
M  V30 1300 C 115.731 -1.62904 -0.324283 0
M  V30 1301 O 116.916 -1.89615 -0.212294 0
M  V30 1302 C 114.056 -3.45013 0.0776551 0
M  V30 1303 C 113.169 -4.16863 1.13355 0
M  V30 1304 C 112.304 -5.2888 0.49597 0
M  V30 1305 C 111.343 -5.92537 1.53513 0
M  V30 1306 N 110.48 -6.96038 0.920631 0
M  V30 1307 H 115.32 -2.52876 1.57663 0
M  V30 1308 H 112.857 -1.24199 0.788223 0
M  V30 1309 H 114.815 -4.16193 -0.289704 0
M  V30 1310 H 113.445 -3.132 -0.781393 0
M  V30 1311 H 112.497 -3.44248 1.61857 0
M  V30 1312 H 113.809 -4.60294 1.92174 0
M  V30 1313 H 112.963 -6.06653 0.0758604 0
M  V30 1314 H 111.702 -4.86622 -0.324062 0
M  V30 1315 H 110.707 -5.13482 1.9651 0
M  V30 1316 H 111.932 -6.36873 2.35733 0
M  V30 1317 H 109.878 -6.55888 0.12138 0
M  V30 1318 H 109.795 -7.3786 1.64616 0
M  V30 1319 H 111.063 -7.77725 0.525795 0
M  V30 1320 N 115.292 -0.849877 -1.32721 0
M  V30 1321 C 116.239 -0.289033 -2.28983 0
M  V30 1322 C 117.209 0.601324 -1.54833 0
M  V30 1323 O 118.394 0.537253 -1.8308 0
M  V30 1324 C 115.534 0.520623 -3.4115 0
M  V30 1325 C 114.647 -0.394989 -4.3019 0
M  V30 1326 C 113.782 0.426834 -5.29482 0
M  V30 1327 C 112.821 -0.486476 -6.10164 0
M  V30 1328 N 111.958 0.297879 -7.01468 0
M  V30 1329 H 116.798 -1.11519 -2.76347 0
M  V30 1330 H 114.335 -0.56138 -1.35967 0
M  V30 1331 H 116.293 1.00563 -4.04899 0
M  V30 1332 H 114.923 1.31165 -2.9495 0
M  V30 1333 H 113.975 -0.99836 -3.67065 0
M  V30 1334 H 115.287 -1.09612 -4.86607 0
M  V30 1335 H 114.441 0.975205 -5.98811 0
M  V30 1336 H 113.18 1.16136 -4.73671 0
M  V30 1337 H 112.185 -1.04677 -5.39743 0
M  V30 1338 H 113.41 -1.21953 -6.6806 0
M  V30 1339 H 111.356 1.01558 -6.48091 0
M  V30 1340 H 111.273 -0.344318 -7.55216 0
M  V30 1341 H 112.541 0.828131 -7.75089 0
M  V30 1342 N 116.77 1.45427 -0.607355 0
M  V30 1343 C 117.717 2.3053 0.111625 0
M  V30 1344 C 118.687 1.4209 0.860216 0
M  V30 1345 O 119.872 1.71019 0.845998 0
M  V30 1346 C 117.012 3.26992 1.10319 0
M  V30 1347 C 116.125 4.30535 0.355493 0
M  V30 1348 C 115.26 5.14105 1.33676 0
M  V30 1349 C 114.299 6.09376 0.576862 0
M  V30 1350 N 113.436 6.85727 1.5074 0
M  V30 1351 H 118.276 2.91477 -0.620093 0
M  V30 1352 H 115.813 1.43631 -0.317594 0
M  V30 1353 H 117.771 3.81385 1.6912 0
M  V30 1354 H 116.401 2.67799 1.80232 0
M  V30 1355 H 115.453 3.78805 -0.348023 0
M  V30 1356 H 116.765 4.98235 -0.237423 0
M  V30 1357 H 115.919 5.72897 1.99684 0
M  V30 1358 H 114.658 4.46423 1.9636 0
M  V30 1359 H 113.663 5.49715 -0.0968519 0
M  V30 1360 H 114.888 6.79085 -0.0449341 0
M  V30 1361 H 112.834 6.20735 2.12189 0
M  V30 1362 H 112.751 7.49778 0.967913 0
M  V30 1363 H 114.019 7.4906 2.15706 0
M  V30 1364 N 118.248 0.346503 1.53744 0
M  V30 1365 C 119.195 -0.508914 2.25119 0
M  V30 1366 C 120.165 -1.09315 1.25058 0
M  V30 1367 O 121.35 -1.12921 1.53797 0
M  V30 1368 C 118.49 -1.65246 3.02965 0
M  V30 1369 C 117.603 -1.09525 4.17886 0
M  V30 1370 C 116.738 -2.20634 4.83212 0
M  V30 1371 C 115.777 -1.62279 5.90196 0
M  V30 1372 N 114.914 -2.67143 6.49291 0
M  V30 1373 H 119.754 0.106283 2.9781 0
M  V30 1374 H 117.291 0.0642227 1.4696 0
M  V30 1375 H 119.249 -2.32574 3.4636 0
M  V30 1376 H 117.879 -2.2386 2.32565 0
M  V30 1377 H 116.931 -0.312818 3.79112 0
M  V30 1378 H 118.243 -0.628444 4.94825 0
M  V30 1379 H 117.397 -2.95821 5.29693 0
M  V30 1380 H 116.136 -2.70659 4.05703 0
M  V30 1381 H 115.141 -0.855989 5.43096 0
M  V30 1382 H 116.366 -1.13102 6.69615 0
M  V30 1383 H 114.312 -3.16417 5.74645 0
M  V30 1384 H 114.229 -2.25093 7.21713 0
M  V30 1385 H 115.497 -3.4209 7.00425 0
M  V30 1386 N 119.726 -1.57421 0.075193 0
M  V30 1387 C 120.975 -1.92794 -0.592731 0
M  V30 1388 C 121.288 -0.957478 -1.70563 0
M  V30 1389 O 122.494 -1.20417 -2.43335 0
M  V30 1390 C 120.95 -3.42495 -1.10569 0
M  V30 1391 C 120.558 -4.47994 -0.0236121 0
M  V30 1392 C 122.302 -3.86864 -1.74748 0
M  V30 1393 C 120.209 -5.88829 -0.550803 0
M  V30 1394 H 119.139 -0.719591 -0.225177 0
M  V30 1395 H 121.79 -1.82902 0.147978 0
M  V30 1396 H 120.172 -3.47471 -1.89947 0
M  V30 1397 H 121.346 -4.54637 0.751099 0
M  V30 1398 H 119.661 -4.13113 0.522159 0
M  V30 1399 H 122.258 -4.8947 -2.15229 0
M  V30 1400 H 122.601 -3.24417 -2.60882 0
M  V30 1401 H 123.134 -3.84504 -1.01986 0
M  V30 1402 H 119.873 -6.54929 0.273457 0
M  V30 1403 H 119.393 -5.85698 -1.29296 0
M  V30 1404 H 121.072 -6.38811 -1.02613 0
M  V30 1405 N 121.204 0.198386 -1.56346 0
M  V30 1406 C 122.151 1.24589 -1.94284 0
M  V30 1407 C 123.121 1.454 -0.802997 0
M  V30 1408 O 124.306 1.58588 -1.06087 0
M  V30 1409 C 121.446 2.58631 -2.28482 0
M  V30 1410 C 120.559 2.45426 -3.55514 0
M  V30 1411 C 119.694 3.7215 -3.79049 0
M  V30 1412 C 118.733 3.53763 -4.99518 0
M  V30 1413 N 117.87 4.72491 -5.19323 0
M  V30 1414 H 122.71 0.915356 -2.83593 0
M  V30 1415 H 120.247 0.440629 -1.40346 0
M  V30 1416 H 122.205 3.3672 -2.46324 0
M  V30 1417 H 120.835 2.89734 -1.42317 0
M  V30 1418 H 119.887 1.58652 -3.45737 0
M  V30 1419 H 121.199 2.27772 -4.43758 0
M  V30 1420 H 120.353 4.58679 -3.97113 0
M  V30 1421 H 119.092 3.92754 -2.89129 0
M  V30 1422 H 118.097 2.65619 -4.8138 0
M  V30 1423 H 119.322 3.34607 -5.90944 0
M  V30 1424 H 117.268 4.93365 -4.3235 0
M  V30 1425 H 117.185 4.5765 -6.01741 0
M  V30 1426 H 118.453 5.6038 -5.41843 0
M  V30 1427 N 122.682 1.50554 0.465978 0
M  V30 1428 C 124.098 1.38093 0.800154 0
M  V30 1429 C 124.298 0.440988 1.96615 0
M  V30 1430 O 123.354 -0.114499 2.5224 0
M  V30 1431 C 124.667 2.79565 1.10742 0
M  V30 1432 C 126.215 2.88516 1.21357 0
M  V30 1433 C 126.69 4.30833 1.55393 0
M  V30 1434 N 128.181 4.33807 1.62375 0
M  V30 1435 C 128.916 5.40927 1.90225 0
M  V30 1436 N 128.412 6.58247 2.16062 0
M  V30 1437 N 130.205 5.28376 1.9177 0
M  V30 1438 H 122.356 2.10237 -0.302366 0
M  V30 1439 H 124.619 0.945203 -0.0727746 0
M  V30 1440 H 124.325 3.50208 0.323661 0
M  V30 1441 H 124.199 3.17125 2.04234 0
M  V30 1442 H 126.586 2.1809 1.98799 0
M  V30 1443 H 126.667 2.54492 0.258321 0
M  V30 1444 H 126.311 5.01799 0.784889 0
M  V30 1445 H 126.241 4.62347 2.52076 0
M  V30 1446 H 128.732 3.49212 1.44427 0
M  V30 1447 H 129.045 7.3569 2.36601 0
M  V30 1448 H 127.39 6.61413 2.13444 0
M  V30 1449 H 130.581 4.35715 1.71085 0
M  V30 1450 H 130.754 6.11944 2.13139 0
M  V30 1451 N 124.16 -0.719506 1.40217 0
M  V30 1452 C 125.07 -1.86378 1.42479 0
M  V30 1453 C 126.086 -1.71073 0.317834 0
M  V30 1454 O 127.262 -1.93406 0.561794 0
M  V30 1455 C 124.327 -3.22136 1.28178 0
M  V30 1456 C 123.388 -3.49723 2.48982 0
M  V30 1457 C 122.621 -4.79004 2.35353 0
M  V30 1458 O 122.844 -5.53821 1.36524 0
M  V30 1459 O 121.778 -5.06839 3.2465 0
M  V30 1460 H 125.604 -1.87425 2.38968 0
M  V30 1461 H 123.189 -0.869405 1.21498 0
M  V30 1462 H 125.071 -4.03234 1.22395 0
M  V30 1463 H 123.746 -3.21825 0.347934 0
M  V30 1464 H 122.653 -2.6865 2.60342 0
M  V30 1465 H 123.986 -3.54828 3.41113 0
M  V30 1466 N 125.638 -1.25649 -0.95132 0
M  V30 1467 C 126.887 -1.09988 -1.69073 0
M  V30 1468 C 127.2 0.358355 -1.92289 0
M  V30 1469 O 128.406 0.635466 -2.63958 0
M  V30 1470 C 126.862 -1.92012 -3.044 0
M  V30 1471 C 126.47 -3.42347 -2.88968 0
M  V30 1472 C 128.214 -1.8493 -3.82101 0
M  V30 1473 C 126.121 -4.16655 -4.19705 0
M  V30 1474 H 125.051 -0.407993 -0.63408 0
M  V30 1475 H 127.702 -1.49873 -1.05879 0
M  V30 1476 H 126.084 -1.44952 -3.68517 0
M  V30 1477 H 127.258 -3.97104 -2.33762 0
M  V30 1478 H 125.573 -3.50557 -2.24719 0
M  V30 1479 H 128.17 -2.37739 -4.78941 0
M  V30 1480 H 128.513 -0.817883 -4.08187 0
M  V30 1481 H 129.046 -2.29758 -3.2474 0
M  V30 1482 H 125.785 -5.20224 -3.98807 0
M  V30 1483 H 125.305 -3.66681 -4.74663 0
M  V30 1484 H 126.984 -4.24551 -4.88227 0
M  V30 1485 N 127.117 1.15442 -1.07289 0
M  V30 1486 C 128.064 2.20161 -0.692653 0
M  V30 1487 C 129.034 1.63073 0.31564 0
M  V30 1488 O 130.219 1.89725 0.202235 0
M  V30 1489 C 127.359 3.44967 -0.0959509 0
M  V30 1490 C 126.472 4.16256 -1.15564 0
M  V30 1491 C 125.607 5.28609 -0.524011 0
M  V30 1492 C 124.646 5.91715 -1.56653 0
M  V30 1493 N 123.783 6.9554 -0.957531 0
M  V30 1494 H 128.623 2.52037 -1.59002 0
M  V30 1495 H 126.16 1.2378 -0.794798 0
M  V30 1496 H 128.118 4.16341 0.267628 0
M  V30 1497 H 126.748 3.1361 0.764772 0
M  V30 1498 H 125.8 3.43385 -1.6368 0
M  V30 1499 H 127.112 4.59268 -1.94613 0
M  V30 1500 H 126.266 6.06604 -0.108032 0
M  V30 1501 H 125.005 4.86787 0.29825 0
M  V30 1502 H 124.01 5.12433 -1.9923 0
M  V30 1503 H 125.235 6.35614 -2.39107 0
M  V30 1504 H 123.181 6.55814 -0.156162 0
M  V30 1505 H 123.098 7.36977 -1.68526 0
M  V30 1506 H 124.366 7.77435 -0.567032 0
M  V30 1507 N 128.595 0.856903 1.32268 0
M  V30 1508 C 129.844 0.457599 1.96441 0
M  V30 1509 C 130.157 -0.992426 1.68553 0
M  V30 1510 O 131.363 -1.49727 2.26482 0
M  V30 1511 C 129.819 0.767358 3.51624 0
M  V30 1512 C 129.427 2.23326 3.88367 0
M  V30 1513 C 131.171 0.435887 4.22256 0
M  V30 1514 C 129.078 2.48613 5.36606 0
M  V30 1515 H 128.008 0.167387 0.735185 0
M  V30 1516 H 130.659 1.048 1.5063 0
M  V30 1517 H 129.041 0.106367 3.95857 0
M  V30 1518 H 130.215 2.93623 3.55137 0
M  V30 1519 H 128.53 2.52948 3.30766 0
M  V30 1520 H 131.127 0.602202 5.31298 0
M  V30 1521 H 131.47 -0.622672 4.11617 0
M  V30 1522 H 132.003 1.05286 3.83614 0
M  V30 1523 H 128.742 3.53101 5.52268 0
M  V30 1524 H 128.262 1.82896 5.71235 0
M  V30 1525 H 129.941 2.32676 6.03714 0
M  V30 1526 N 130.073 -1.45103 0.615059 0
M  V30 1527 C 131.003 -2.33339 -0.0865619 0
M  V30 1528 C 131.984 -1.4727 -0.851209 0
M  V30 1529 O 133.169 -1.76026 -0.820281 0
M  V30 1530 C 130.299 -3.30095 -1.07956 0
M  V30 1531 C 129.253 -4.25858 -0.427628 0
M  V30 1532 C 128.579 -5.12361 -1.5294 0
M  V30 1533 C 129.879 -5.18165 0.655944 0
M  V30 1534 H 131.573 -2.92254 0.650224 0
M  V30 1535 H 129.119 -1.40532 0.314138 0
M  V30 1536 H 131.072 -3.90698 -1.57901 0
M  V30 1537 H 129.796 -2.69355 -1.84703 0
M  V30 1538 H 128.455 -3.66564 0.0510292 0
M  V30 1539 H 128.103 -4.47984 -2.28734 0
M  V30 1540 H 127.803 -5.77238 -1.09865 0
M  V30 1541 H 129.327 -5.75833 -2.03098 0
M  V30 1542 H 130.741 -5.72796 0.240257 0
M  V30 1543 H 129.138 -5.91559 1.00888 0
M  V30 1544 H 130.208 -4.60144 1.52957 0
M  V30 1545 N 131.551 -0.354651 -1.53558 0
M  V30 1546 C 132.483 0.5315 -2.22952 0
M  V30 1547 C 133.496 1.05503 -1.23988 0
M  V30 1548 O 134.685 0.963279 -1.50277 0
M  V30 1549 C 131.785 1.74538 -2.90499 0
M  V30 1550 C 130.958 1.35524 -4.15875 0
M  V30 1551 C 130.017 2.42999 -4.66731 0
M  V30 1552 O 129.043 2.05844 -5.30676 0
M  V30 1553 N 130.245 3.74423 -4.43608 0
M  V30 1554 H 133.01 -0.0628615 -2.99634 0
M  V30 1555 H 130.571 -0.179302 -1.60904 0
M  V30 1556 H 132.563 2.45892 -3.21433 0
M  V30 1557 H 131.133 2.24686 -2.17336 0
M  V30 1558 H 130.353 0.471998 -3.91364 0
M  V30 1559 H 131.641 1.07071 -4.97406 0
M  V30 1560 H 131.039 4.07391 -3.92491 0
M  V30 1561 H 129.596 4.41913 -4.7912 0
M  V30 1562 N 133.029 1.57378 -0.0835403 0
M  V30 1563 C 133.977 2.14602 0.89714 0
M  V30 1564 C 134.971 1.08589 1.30018 0
M  V30 1565 O 136.177 1.26952 1.27606 0
M  V30 1566 H 132.552 0.686346 0.3073 0
M  V30 1567 H 134.523 2.95845 0.38969 0
M  V30 1568 C 133.272 2.73188 2.15089 0
M  V30 1569 H 132.595 3.54442 1.84962 0
M  V30 1570 H 134.035 3.1681 2.81793 0
M  V30 1571 C 132.494 1.68517 2.91725 0
M  V30 1572 O 133.024 1.11718 3.85852 0
M  V30 1573 N 131.23 1.39277 2.55049 0
M  V30 1574 H 130.777 1.85655 1.78577 0
M  V30 1575 H 130.735 0.694791 3.06627 0
M  V30 1576 N 134.507 -0.190092 1.56449 0
M  V30 1577 C 135.437 -1.23816 1.97969 0
M  V30 1578 C 136.418 -1.47201 0.852395 0
M  V30 1579 O 137.603 -1.58854 1.1171 0
M  V30 1580 C 134.733 -2.5813 2.3235 0
M  V30 1581 C 133.687 -2.49348 3.47864 0
M  V30 1582 C 133.013 -3.8798 3.67934 0
M  V30 1583 C 134.313 -2.01424 4.81898 0
M  V30 1584 H 136.007 -0.89311 2.85769 0
M  V30 1585 H 133.553 -0.428177 1.37487 0
M  V30 1586 H 135.506 -3.31637 2.59991 0
M  V30 1587 H 134.23 -2.94386 1.41438 0
M  V30 1588 H 132.889 -1.78297 3.20321 0
M  V30 1589 H 132.537 -4.21597 2.74344 0
M  V30 1590 H 132.237 -3.82978 4.45648 0
M  V30 1591 H 133.761 -4.63101 3.97957 0
M  V30 1592 H 135.175 -2.64693 5.08538 0
M  V30 1593 H 133.572 -2.07413 5.63116 0
M  V30 1594 H 134.642 -0.967677 4.75146 0
M  V30 1595 N 135.985 -1.50799 -0.457987 0
M  V30 1596 C 136.933 -1.71162 -1.575 0
M  V30 1597 C 137.927 -0.577592 -1.59249 0
M  V30 1598 O 139.133 -0.758443 -1.63241 0
M  V30 1599 H 135.508 -0.540468 -0.522875 0
M  V30 1600 H 137.479 -2.64837 -1.37492 0
M  V30 1601 C 136.228 -1.83496 -2.95338 0
M  V30 1602 H 135.551 -2.70153 -2.94716 0
M  V30 1603 H 136.991 -2.01765 -3.72917 0
M  V30 1604 C 135.45 -0.589694 -3.31699 0
M  V30 1605 O 135.98 0.265163 -4.00824 0
M  V30 1606 N 134.186 -0.439845 -2.87252 0
M  V30 1607 H 133.733 -1.13655 -2.31172 0
M  V30 1608 H 133.691 0.392159 -3.11945 0
M  V30 1609 N 137.463 0.71206 -1.40597 0
M  V30 1610 C 138.711 1.46907 -1.38791 0
M  V30 1611 C 139.032 1.94998 0.00780391 0
M  V30 1612 O 138.302 1.70587 0.963174 0
M  V30 1613 H 136.882 0.545043 -0.51082 0
M  V30 1614 H 139.544 0.843882 -1.75683 0
M  V30 1615 H 138.64 2.34021 -2.06496 0
M  V30 1616 N 138.941 1.26152 0.944643 0
M  V30 1617 C 140.189 1.11271 1.6871 0
M  V30 1618 C 140.51 -0.345166 1.91921 0
M  V30 1619 O 139.78 -1.24387 1.51343 0
M  V30 1620 H 138.36 0.408783 0.625224 0
M  V30 1621 H 141.022 1.58427 1.1352 0
M  V30 1622 H 140.118 1.62879 2.66227 0
M  V30 1623 N 140.419 -1.14872 1.07899 0
M  V30 1624 C 141.83 -1.67367 0.827363 0
M  V30 1625 C 142.181 -1.85236 -0.646693 0
M  V30 1626 O 141.306 -1.55974 -1.50004 0
M  V30 1627 C 141.901 -3.04016 1.49532 0
M  V30 1628 C 140.46 -3.53566 1.29106 0
M  V30 1629 C 139.607 -2.29161 1.56143 0
M  V30 1630 H 142.558 -0.990083 1.24028 0
M  V30 1631 H 142.579 -3.69219 0.919643 0
M  V30 1632 H 142.091 -2.90978 2.56814 0
M  V30 1633 H 140.192 -3.71835 0.238713 0
M  V30 1634 H 140.305 -4.34661 2.01511 0
M  V30 1635 H 138.669 -2.34978 0.982717 0
M  V30 1636 H 139.452 -2.18705 2.64619 0
M  V30 1637 N 141.898 -0.863906 -1.31812 0
M  V30 1638 C 142.846 -0.30422 -2.30602 0
M  V30 1639 C 143.84 0.577419 -1.59255 0
M  V30 1640 O 145.046 0.464194 -1.73912 0
M  V30 1641 H 141.421 -0.0796877 -0.747766 0
M  V30 1642 H 143.392 -1.15148 -2.75288 0
M  V30 1643 C 142.141 0.484617 -3.44306 0
M  V30 1644 H 141.464 -0.18451 -3.99374 0
M  V30 1645 H 142.904 0.841664 -4.15562 0
M  V30 1646 C 141.363 1.6735 -2.92396 0
M  V30 1647 O 141.893 2.77273 -2.90659 0
M  V30 1648 N 140.099 1.50362 -2.48676 0
M  V30 1649 H 139.646 0.609402 -2.50288 0
M  V30 1650 H 139.604 2.30051 -2.14299 0
M  V30 1651 N 143.376 1.44774 -0.622745 0
M  V30 1652 C 144.625 2.01334 -0.121397 0
M  V30 1653 C 144.938 1.49505 1.26125 0
M  V30 1654 O 146.144 1.98139 1.85616 0
M  V30 1655 C 144.6 3.59516 -0.166298 0
M  V30 1656 C 144.208 4.20342 -1.54974 0
M  V30 1657 C 145.952 4.23582 0.279021 0
M  V30 1658 C 143.859 5.70721 -1.55021 0
M  V30 1659 H 142.789 0.752851 -0.0416172 0
M  V30 1660 H 145.44 1.66083 -0.780309 0
M  V30 1661 H 143.822 3.92027 0.559557 0
M  V30 1662 H 144.996 3.99381 -2.29851 0
M  V30 1663 H 143.311 3.68529 -1.93843 0
M  V30 1664 H 145.908 5.33868 0.298083 0
M  V30 1665 H 146.251 3.95327 1.30471 0
M  V30 1666 H 146.784 3.95843 -0.394063 0
M  V30 1667 H 143.523 6.03698 -2.55399 0
M  V30 1668 H 143.043 5.93829 -0.844245 0
M  V30 1669 H 144.722 6.34203 -1.28047 0
M  V30 1670 N 144.854 0.36279 1.53368 0
M  V30 1671 C 146.103 -0.22888 2.00397 0
M  V30 1672 C 146.416 -1.50096 1.25421 0
M  V30 1673 O 147.622 -2.17106 1.63025 0
M  V30 1674 C 146.078 -0.458417 3.56969 0
M  V30 1675 C 145.686 0.798877 4.4082 0
M  V30 1676 C 147.43 -1.00789 4.12361 0
M  V30 1677 C 145.337 0.539078 5.88938 0
M  V30 1678 H 144.267 -0.089305 0.748693 0
M  V30 1679 H 146.918 0.481099 1.77081 0
M  V30 1680 H 145.3 -1.22959 3.76427 0
M  V30 1681 H 146.474 1.57262 4.33134 0
M  V30 1682 H 144.789 1.27137 3.96516 0
M  V30 1683 H 147.386 -1.21754 5.20653 0
M  V30 1684 H 147.729 -1.9692 3.66781 0
M  V30 1685 H 148.262 -0.296961 3.9669 0
M  V30 1686 H 145.001 1.47064 6.3879 0
M  V30 1687 H 144.521 -0.196222 5.99479 0
M  V30 1688 H 146.2 0.163542 6.46793 0
M  V30 1689 N 146.332 -1.57332 0.0918853 0
M  V30 1690 C 147.279 -2.13847 -0.868211 0
M  V30 1691 C 148.249 -1.05618 -1.28196 0
M  V30 1692 O 149.434 -1.33387 -1.36427 0
M  V30 1693 C 146.574 -2.72062 -2.12312 0
M  V30 1694 C 145.687 -3.94514 -1.7602 0
M  V30 1695 C 144.822 -4.40903 -2.96273 0
M  V30 1696 C 143.861 -5.55953 -2.56092 0
M  V30 1697 N 142.998 -5.97209 -3.69169 0
M  V30 1698 H 147.838 -2.95575 -0.379406 0
M  V30 1699 H 145.375 -1.46048 -0.175606 0
M  V30 1700 H 147.333 -3.03931 -2.858 0
M  V30 1701 H 145.963 -1.93068 -2.58698 0
M  V30 1702 H 145.015 -3.68979 -0.925135 0
M  V30 1703 H 146.327 -4.7802 -1.42472 0
M  V30 1704 H 145.481 -4.74539 -3.78018 0
M  V30 1705 H 144.22 -3.56291 -3.33029 0
M  V30 1706 H 143.225 -5.21948 -1.72773 0
M  V30 1707 H 144.45 -6.42311 -2.20484 0
M  V30 1708 H 142.396 -5.15543 -4.05649 0
M  V30 1709 H 142.313 -6.75504 -3.39456 0
M  V30 1710 H 143.581 -6.35475 -4.51434 0
M  V30 1711 N 147.81 0.181792 -1.56548 0
M  V30 1712 C 148.74 1.22765 -1.98623 0
M  V30 1713 C 149.721 1.46747 -0.860189 0
M  V30 1714 O 150.906 1.58259 -1.12551 0
M  V30 1715 C 148.036 2.56894 -2.33715 0
M  V30 1716 C 146.99 2.475 -3.49182 0
M  V30 1717 C 146.316 3.86023 -3.69986 0
M  V30 1718 C 147.616 1.98866 -4.82959 0
M  V30 1719 H 149.31 0.877942 -2.86239 0
M  V30 1720 H 146.856 0.42088 -1.37712 0
M  V30 1721 H 148.809 3.30253 -2.61746 0
M  V30 1722 H 147.533 2.93632 -1.42997 0
M  V30 1723 H 146.192 1.76596 -3.21262 0
M  V30 1724 H 145.84 4.20136 -2.76576 0
M  V30 1725 H 145.54 3.80609 -4.47672 0
M  V30 1726 H 147.064 4.60984 -4.00407 0
M  V30 1727 H 148.478 2.61992 -5.09934 0
M  V30 1728 H 146.875 2.04424 -5.64208 0
M  V30 1729 H 147.945 0.942465 -4.75653 0
M  V30 1730 N 149.288 1.51039 0.449983 0
M  V30 1731 C 150.218 1.74379 1.55288 0
M  V30 1732 C 151.199 0.593236 1.5942 0
M  V30 1733 O 152.384 0.834625 1.7535 0
M  V30 1734 C 149.514 1.85728 2.93466 0
M  V30 1735 C 148.468 3.01078 3.04197 0
M  V30 1736 C 147.794 2.97595 4.44231 0
M  V30 1737 C 149.094 4.41254 2.7945 0
M  V30 1738 H 150.788 2.66725 1.36008 0
M  V30 1739 H 148.334 1.2835 0.652864 0
M  V30 1740 H 150.287 2.0064 3.70569 0
M  V30 1741 H 149.011 0.900207 3.13949 0
M  V30 1742 H 147.67 2.85851 2.29531 0
M  V30 1743 H 147.318 1.99691 4.61663 0
M  V30 1744 H 147.018 3.75046 4.52343 0
M  V30 1745 H 148.542 3.14583 5.23326 0
M  V30 1746 H 149.956 4.56897 3.46292 0
M  V30 1747 H 148.353 5.20315 2.98985 0
M  V30 1748 H 149.423 4.52164 1.75144 0
M  V30 1749 N 150.766 -0.704594 1.40972 0
M  V30 1750 C 152.043 -1.45847 1.30338 0
M  V30 1751 C 152.423 -2.10973 -0.0732344 0
M  V30 1752 O 151.771 -2.00997 -1.08685 0
M  V30 1753 C 151.981 -2.48525 2.45023 0
M  V30 1754 C 153.329 -3.1404 2.8577 0
M  V30 1755 O 154.353 -2.58848 2.44696 0
M  V30 1756 O 153.212 -4.13981 3.56766 0
M  V30 1757 H 150.306 -0.649092 0.512454 0
M  V30 1758 H 152.852 -0.735836 1.52917 0
M  V30 1759 H 151.624 -1.98994 3.36923 0
M  V30 1760 H 151.247 -3.2831 2.24272 0
M  V30 1761 N 152.244 -1.26651 -0.937939 0
M  V30 1762 C 153.493 -1.11775 -1.67897 0
M  V30 1763 C 153.806 0.33794 -1.92659 0
M  V30 1764 O 155.012 0.607434 -2.64618 0
M  V30 1765 C 153.468 -1.9523 -3.02346 0
M  V30 1766 C 153.076 -3.45393 -2.8532 0
M  V30 1767 C 154.82 -1.88972 -3.80118 0
M  V30 1768 C 152.727 -4.21083 -4.15263 0
M  V30 1769 H 151.657 -0.414696 -0.629717 0
M  V30 1770 H 154.308 -1.50988 -1.04283 0
M  V30 1771 H 152.69 -1.48853 -3.66959 0
M  V30 1772 H 153.864 -3.99561 -2.29537 0
M  V30 1773 H 152.179 -3.52921 -2.20988 0
M  V30 1774 H 154.776 -2.42805 -4.76392 0
M  V30 1775 H 155.119 -0.86113 -4.07296 0
M  V30 1776 H 155.652 -2.33189 -3.22285 0
M  V30 1777 H 152.391 -5.24425 -3.93267 0
M  V30 1778 H 151.911 -3.71695 -4.70747 0
M  V30 1779 H 153.59 -4.29706 -4.83696 0
M  V30 1780 N 153.722 1.14298 -1.08507 0
M  V30 1781 C 154.968 1.85633 -0.816581 0
M  V30 1782 C 155.301 1.82784 0.656021 0
M  V30 1783 O 154.576 1.25926 1.48233 0
M  V30 1784 C 154.859 3.34223 -1.34041 0
M  V30 1785 C 154.712 3.45639 -2.87843 0
M  V30 1786 C 156.031 4.29356 -0.9665 0
M  V30 1787 H 153.15 0.67402 -0.298104 0
M  V30 1788 H 155.792 1.34214 -1.34487 0
M  V30 1789 H 153.942 3.78144 -0.89104 0
M  V30 1790 H 155.614 3.10498 -3.41158 0
M  V30 1791 H 153.857 2.86817 -3.25451 0
M  V30 1792 H 154.528 4.50089 -3.19569 0
M  V30 1793 H 157.004 3.93457 -1.35391 0
M  V30 1794 H 155.88 5.3178 -1.3602 0
M  V30 1795 H 156.141 4.41919 0.126362 0
M  V30 1796 N 155.201 0.870884 1.31352 0
M  V30 1797 C 156.148 0.325425 2.28494 0
M  V30 1798 C 157.118 -0.576615 1.5577 0
M  V30 1799 O 158.303 -0.508059 1.83911 0
M  V30 1800 C 155.443 -0.466283 3.41935 0
M  V30 1801 C 154.556 0.463378 4.29508 0
M  V30 1802 C 153.691 -0.342544 5.30094 0
M  V30 1803 C 152.73 0.583486 6.09313 0
M  V30 1804 N 151.867 -0.186244 7.01853 0
M  V30 1805 H 156.707 1.15901 2.74538 0
M  V30 1806 H 154.244 0.58294 1.35056 0
M  V30 1807 H 156.202 -0.941085 4.06447 0
M  V30 1808 H 154.832 -1.26456 2.97 0
M  V30 1809 H 153.884 1.05663 3.65431 0
M  V30 1810 H 155.196 1.1734 4.84802 0
M  V30 1811 H 154.35 -0.879816 6.00287 0
M  V30 1812 H 153.089 -1.08585 4.75458 0
M  V30 1813 H 152.094 1.13251 5.3801 0
M  V30 1814 H 153.319 1.32566 6.66035 0
M  V30 1815 H 151.265 -0.912348 6.49625 0
M  V30 1816 H 151.182 0.464422 7.54572 0
M  V30 1817 H 152.45 -0.704716 7.76308 0
M  V30 1818 N 156.679 -1.44442 0.630414 0
M  V30 1819 C 157.956 -1.9549 0.0655657 0
M  V30 1820 C 158.336 -1.5724 -1.40851 0
M  V30 1821 O 157.684 -0.846116 -2.12257 0
M  V30 1822 C 157.894 -3.47812 0.287691 0
M  V30 1823 C 159.242 -4.24216 0.180513 0
M  V30 1824 O 160.266 -3.55526 0.219019 0
M  V30 1825 O 159.125 -5.46434 0.0848493 0
M  V30 1826 H 156.219 -0.826688 -0.0227177 0
M  V30 1827 H 158.765 -1.54496 0.702068 0
M  V30 1828 H 157.537 -3.687 1.31056 0
M  V30 1829 H 157.16 -3.95751 -0.382984 0
M  V30 1830 N 158.157 -0.370918 -1.53173 0
M  V30 1831 C 159.568 0.107139 -1.86392 0
M  V30 1832 C 159.919 1.47714 -1.29132 0
M  V30 1833 O 159.044 2.07464 -0.615439 0
M  V30 1834 C 159.639 0.201187 -3.38202 0
M  V30 1835 C 158.198 0.623507 -3.712 0
M  V30 1836 C 157.345 -0.225978 -2.76378 0
M  V30 1837 H 160.296 -0.58951 -1.47345 0
M  V30 1838 H 160.317 1.02377 -3.66468 0
M  V30 1839 H 159.829 -0.796058 -3.79848 0
M  V30 1840 H 157.93 1.62879 -3.35114 0
M  V30 1841 H 158.043 0.394414 -4.77474 0
M  V30 1842 H 156.407 0.305962 -2.52856 0
M  V30 1843 H 157.19 -1.22086 -3.20858 0
M  V30 1844 N 159.635 1.57281 -0.100228 0
M  V30 1845 C 160.881 1.94826 0.563101 0
M  V30 1846 C 161.214 0.982475 1.67514 0
M  V30 1847 O 160.489 0.0164069 1.94493 0
M  V30 1848 C 160.772 3.42453 1.11346 0
M  V30 1849 C 160.625 4.498 0.00612081 0
M  V30 1850 C 161.944 3.91506 2.01024 0
M  V30 1851 H 159.063 0.708428 0.203221 0
M  V30 1852 H 161.705 1.8922 -0.171979 0
M  V30 1853 H 159.855 3.47361 1.7399 0
M  V30 1854 H 161.527 4.57 -0.628357 0
M  V30 1855 H 159.77 4.28756 -0.659581 0
M  V30 1856 H 160.441 5.50306 0.432109 0
M  V30 1857 H 162.917 3.88784 1.48278 0
M  V30 1858 H 161.793 4.95358 2.36457 0
M  V30 1859 H 162.054 3.31099 2.92961 0
M  V30 1860 N 161.113 -0.173488 1.56642 0
M  V30 1861 C 162.341 -0.906095 1.86004 0
M  V30 1862 C 162.756 -1.75921 0.685355 0
M  V30 1863 O 162.113 -1.79198 -0.345578 0
M  V30 1864 C 162.164 -1.78462 3.14378 0
M  V30 1865 O 161.885 -0.965914 4.27319 0
M  V30 1866 C 163.386 -2.62707 3.57071 0
M  V30 1867 H 160.606 -0.263341 0.617165 0
M  V30 1868 H 163.15 -0.174236 2.03756 0
M  V30 1869 H 161.305 -2.46984 2.98459 0
M  V30 1870 H 161.719 -1.56655 5.00559 0
M  V30 1871 H 163.193 -3.19969 4.49804 0
M  V30 1872 H 163.67 -3.37472 2.81086 0
M  V30 1873 H 164.276 -1.99521 3.75595 0
M  V30 1874 N 162.591 -1.51276 -0.441967 0
M  V30 1875 C 163.538 -1.72256 -1.53612 0
M  V30 1876 C 164.508 -0.564164 -1.56225 0
M  V30 1877 O 165.693 -0.798074 -1.73307 0
M  V30 1878 C 162.833 -1.84932 -2.91366 0
M  V30 1879 C 161.946 -3.12459 -2.98317 0
M  V30 1880 C 161.081 -3.15758 -4.27166 0
M  V30 1881 C 160.12 -4.37619 -4.27967 0
M  V30 1882 N 159.257 -4.38493 -5.48333 0
M  V30 1883 H 164.097 -2.65654 -1.35026 0
M  V30 1884 H 161.634 -1.31662 -0.656009 0
M  V30 1885 H 163.592 -1.90263 -3.7129 0
M  V30 1886 H 162.222 -0.949461 -3.08521 0
M  V30 1887 H 161.274 -3.1646 -2.11086 0
M  V30 1888 H 162.586 -4.02382 -2.94771 0
M  V30 1889 H 161.74 -3.19979 -5.15459 0
M  V30 1890 H 160.479 -2.23715 -4.33362 0
M  V30 1891 H 159.484 -4.33579 -3.38067 0
M  V30 1892 H 160.709 -5.30921 -4.23438 0
M  V30 1893 H 158.655 -3.49318 -5.55259 0
M  V30 1894 H 158.572 -5.22219 -5.46647 0
M  V30 1895 H 159.84 -4.469 -6.38671 0
M  V30 1896 N 164.069 0.697108 -1.41344 0
M  V30 1897 C 165.297 1.48593 -1.43972 0
M  V30 1898 C 165.712 1.88747 -0.0445612 0
M  V30 1899 O 165.069 1.56682 0.935785 0
M  V30 1900 C 165.12 2.74946 -2.34706 0
M  V30 1901 O 164.841 2.36484 -3.68791 0
M  V30 1902 C 166.342 3.687 -2.46121 0
M  V30 1903 H 163.562 0.457964 -0.490418 0
M  V30 1904 H 166.106 0.858429 -1.8561 0
M  V30 1905 H 164.261 3.33937 -1.9638 0
M  V30 1906 H 164.675 3.17918 -4.17167 0
M  V30 1907 H 166.149 4.54145 -3.13777 0
M  V30 1908 H 166.626 4.13081 -1.49199 0
M  V30 1909 H 167.232 3.15613 -2.85076 0
M  V30 1910 N 165.547 1.27147 0.931209 0
M  V30 1911 C 166.958 1.12044 1.49342 0
M  V30 1912 C 167.309 -0.295795 1.93957 0
M  V30 1913 O 166.434 -1.18835 1.80852 0
M  V30 1914 C 167.029 2.02781 2.71414 0
M  V30 1915 C 165.588 1.91794 3.2387 0
M  V30 1916 C 164.735 1.95543 1.96617 0
M  V30 1917 H 167.686 1.40091 0.745672 0
M  V30 1918 H 167.707 1.58156 3.46074 0
M  V30 1919 H 167.219 3.05848 2.38911 0
M  V30 1920 H 165.32 0.916992 3.6114 0
M  V30 1921 H 165.433 2.77852 3.90302 0
M  V30 1922 H 163.797 1.39722 2.12955 0
M  V30 1923 H 164.58 3.00259 1.66432 0
M  V30 1924 N 167.025 -1.13721 1.09112 0
M  V30 1925 C 168.25 -1.89314 0.847053 0
M  V30 1926 C 168.675 -1.78416 -0.595774 0
M  V30 1927 O 168.033 -1.12942 -1.41823 0
M  V30 1928 C 168.081 -3.3701 1.28284 0
M  V30 1929 O 167.185 -4.10054 0.439267 0
M  V30 1930 H 166.526 -0.588745 0.307044 0
M  V30 1931 H 169.056 -1.43902 1.45442 0
M  V30 1932 H 169.066 -3.87834 1.26683 0
M  V30 1933 H 167.741 -3.4426 2.33363 0
M  V30 1934 H 166.318 -3.69266 0.519312 0
M  V30 1935 N 168.503 -0.877838 -1.30888 0
M  V30 1936 C 169.433 -0.35534 -2.3078 0
M  V30 1937 C 170.414 0.557994 -1.60687 0
M  V30 1938 O 171.599 0.473355 -1.88343 0
M  V30 1939 C 168.729 0.437221 -3.44537 0
M  V30 1940 C 167.683 -0.383715 -4.26276 0
M  V30 1941 C 167.009 0.535014 -5.32017 0
M  V30 1942 C 168.309 -1.62201 -4.96476 0
M  V30 1943 H 170.003 -1.19007 -2.74732 0
M  V30 1944 H 167.549 -0.573698 -1.32078 0
M  V30 1945 H 169.502 0.813334 -4.13477 0
M  V30 1946 H 168.226 1.30553 -2.99372 0
M  V30 1947 H 166.885 -0.741874 -3.59015 0
M  V30 1948 H 166.533 1.40083 -4.831 0
M  V30 1949 H 166.233 -0.0104211 -5.87599 0
M  V30 1950 H 167.757 0.907799 -6.03814 0
M  V30 1951 H 169.171 -1.31689 -5.5797 0
M  V30 1952 H 167.568 -2.10711 -5.61891 0
M  V30 1953 H 168.638 -2.37044 -4.23011 0
M  V30 1954 N 169.982 1.44106 -0.638065 0
M  V30 1955 C 171.231 2.01194 -0.142744 0
M  V30 1956 C 171.544 1.50835 1.24532 0
M  V30 1957 O 172.75 2.00096 1.83504 0
M  V30 1958 C 171.206 3.59319 -0.20442 0
M  V30 1959 C 170.814 4.18674 -1.59423 0
M  V30 1960 C 172.558 4.23854 0.234079 0
M  V30 1961 C 170.465 5.69045 -1.61065 0
M  V30 1962 H 169.395 0.752367 -0.0495998 0
M  V30 1963 H 172.046 1.65246 -0.797881 0
M  V30 1964 H 170.428 3.92598 0.517946 0
M  V30 1965 H 171.602 3.96921 -2.34074 0
M  V30 1966 H 169.917 3.66453 -1.97741 0
M  V30 1967 H 172.514 5.34155 0.241443 0
M  V30 1968 H 172.857 3.96688 1.2627 0
M  V30 1969 H 173.39 3.95403 -0.436025 0
M  V30 1970 H 170.129 6.00956 -2.61787 0
M  V30 1971 H 169.649 5.929 -0.90718 0
M  V30 1972 H 171.328 6.32809 -1.34766 0
M  V30 1973 N 171.46 0.379036 1.52974 0
M  V30 1974 C 172.707 -0.206421 2.01445 0
M  V30 1975 C 173.035 -1.47668 1.26587 0
M  V30 1976 O 172.29 -1.92514 0.351675 0
M  V30 1977 C 172.589 -0.53096 3.53434 0
M  V30 1978 C 172.255 0.646546 4.46241 0
M  V30 1979 C 170.917 0.969604 4.7133 0
M  V30 1980 C 173.269 1.43479 5.01062 0
M  V30 1981 C 170.597 2.08263 5.48492 0
M  V30 1982 C 172.949 2.53834 5.7944 0
M  V30 1983 C 171.613 2.86659 6.02812 0
M  V30 1984 H 170.883 -0.0755349 0.73714 0
M  V30 1985 H 173.53 0.514271 1.84465 0
M  V30 1986 H 171.835 -1.33285 3.68432 0
M  V30 1987 H 173.532 -0.996417 3.88423 0
M  V30 1988 H 170.122 0.384734 4.2687 0
M  V30 1989 H 174.306 1.19844 4.81613 0
M  V30 1990 H 169.562 2.34078 5.64816 0
M  V30 1991 H 173.736 3.15319 6.20924 0
M  V30 1992 H 171.363 3.73026 6.62387 0
M  V30 1993 N 172.938 -1.57226 0.108567 0
M  V30 1994 C 173.848 -2.18292 -0.859401 0
M  V30 1995 C 174.864 -1.15612 -1.30038 0
M  V30 1996 O 176.04 -1.48039 -1.36552 0
M  V30 1997 C 173.105 -2.762 -2.09558 0
M  V30 1998 C 172.166 -3.93881 -1.70752 0
M  V30 1999 C 171.399 -4.49018 -2.88477 0
M  V30 2000 O 171.622 -4.03068 -4.036 0
M  V30 2001 O 170.556 -5.39852 -2.66164 0
M  V30 2002 H 174.382 -3.01441 -0.369769 0
M  V30 2003 H 171.967 -1.48945 -0.1165 0
M  V30 2004 H 173.849 -3.13156 -2.81978 0
M  V30 2005 H 172.524 -1.96089 -2.57548 0
M  V30 2006 H 171.431 -3.61713 -0.954714 0
M  V30 2007 H 172.764 -4.75396 -1.27513 0
M  V30 2008 N 174.416 0.165178 -1.56732 0
M  V30 2009 C 175.646 0.894919 -1.86212 0
M  V30 2010 C 176.054 1.76066 -0.692627 0
M  V30 2011 O 175.397 1.80387 0.347303 0
M  V30 2012 C 175.459 1.8174 -3.10179 0
M  V30 2013 C 175.123 1.13064 -4.42793 0
M  V30 2014 C 176.12 0.493169 -5.17556 0
M  V30 2015 C 173.805 1.12556 -4.89527 0
M  V30 2016 C 175.799 -0.140209 -6.37246 0
M  V30 2017 C 173.486 0.488366 -6.09145 0
M  V30 2018 C 174.484 -0.143411 -6.82849 0
M  V30 2019 O 174.172 -0.77055 -8.00199 0
M  V30 2020 H 173.904 0.265114 -0.621844 0
M  V30 2021 H 176.458 0.168242 -2.0471 0
M  V30 2022 H 174.688 2.58455 -2.87642 0
M  V30 2023 H 176.377 2.4175 -3.26055 0
M  V30 2024 H 177.143 0.489023 -4.82528 0
M  V30 2025 H 173.022 1.60672 -4.32094 0
M  V30 2026 H 176.566 -0.633932 -6.94714 0
M  V30 2027 H 172.463 0.490116 -6.43637 0
M  V30 2028 H 173.231 -0.670408 -8.1575 0
M  V30 2029 N 175.894 1.51508 0.433938 0
M  V30 2030 C 177.143 1.63578 1.18005 0
M  V30 2031 C 177.456 0.359514 1.92268 0
M  V30 2032 O 178.662 0.359632 2.69108 0
M  V30 2033 C 177.118 2.88901 2.14626 0
M  V30 2034 C 176.726 4.23544 1.45995 0
M  V30 2035 C 178.47 3.10328 2.89649 0
M  V30 2036 C 176.377 5.40014 2.4112 0
M  V30 2037 H 175.307 0.609277 0.444182 0
M  V30 2038 H 177.958 1.77978 0.446773 0
M  V30 2039 H 176.34 2.68142 2.91403 0
M  V30 2040 H 177.514 4.54696 0.747532 0
M  V30 2041 H 175.829 4.08021 0.831115 0
M  V30 2042 H 178.426 3.94518 3.60915 0
M  V30 2043 H 178.769 2.23544 3.51189 0
M  V30 2044 H 179.302 3.31443 2.19978 0
M  V30 2045 H 176.041 6.29068 1.84264 0
M  V30 2046 H 175.561 5.13233 3.10406 0
M  V30 2047 H 177.24 5.72099 3.02177 0
M  V30 2048 N 177.372 -0.689602 1.41712 0
M  V30 2049 C 178.32 -1.82475 1.44242 0
M  V30 2050 C 179.314 -1.66354 0.319774 0
M  V30 2051 O 180.52 -1.73143 0.492089 0
M  V30 2052 H 176.895 -0.601416 0.451445 0
M  V30 2053 H 178.866 -1.77458 2.39899 0
M  V30 2054 C 177.615 -3.20535 1.3473 0
M  V30 2055 H 176.938 -3.33559 2.20405 0
M  V30 2056 H 178.378 -4.00023 1.40562 0
M  V30 2057 C 176.837 -3.36846 0.0603281 0
M  V30 2058 O 177.367 -3.91656 -0.892663 0
M  V30 2059 N 175.573 -2.90595 -0.0177039 0
M  V30 2060 H 175.12 -2.46178 0.758572 0
M  V30 2061 H 175.078 -3.01886 -0.878201 0
M  V30 2062 N 178.85 -1.27639 -0.924453 0
M  V30 2063 C 179.798 -1.10485 -2.04685 0
M  V30 2064 C 180.792 -0.0270421 -1.69378 0
M  V30 2065 O 181.998 -0.185008 -1.79047 0
M  V30 2066 H 178.373 -0.340546 -0.670472 0
M  V30 2067 H 180.344 -2.05566 -2.16298 0
M  V30 2068 C 179.093 -0.772229 -3.39016 0
M  V30 2069 H 178.416 -1.59351 -3.66671 0
M  V30 2070 H 179.856 -0.692097 -4.18313 0
M  V30 2071 C 178.315 0.523554 -3.32807 0
M  V30 2072 O 178.845 1.55702 -3.70297 0
M  V30 2073 N 177.051 0.520363 -2.85903 0
M  V30 2074 H 176.598 -0.32107 -2.55591 0
M  V30 2075 H 176.556 1.38742 -2.82131 0
M  V30 2076 N 180.328 1.1314 -1.09713 0
M  V30 2077 C 181.577 1.83838 -0.829851 0
M  V30 2078 C 181.89 1.84599 0.646728 0
M  V30 2079 O 183.096 2.51218 1.02965 0
M  V30 2080 C 181.552 3.30069 -1.43466 0
M  V30 2081 C 181.16 3.37688 -2.94399 0
M  V30 2082 C 182.904 4.05788 -1.24645 0
M  V30 2083 C 180.811 4.78209 -3.47952 0
M  V30 2084 H 179.741 0.68877 -0.306777 0
M  V30 2085 H 182.392 1.27448 -1.3202 0
M  V30 2086 H 180.774 3.8628 -0.871996 0
M  V30 2087 H 181.948 2.91456 -3.56918 0
M  V30 2088 H 180.263 2.75436 -3.12289 0
M  V30 2089 H 182.86 5.09535 -1.62107 0
M  V30 2090 H 183.203 4.15878 -0.187357 0
M  V30 2091 H 183.736 3.55915 -1.77678 0
M  V30 2092 H 180.475 4.73311 -4.53495 0
M  V30 2093 H 179.995 5.24924 -2.90198 0
M  V30 2094 H 181.674 5.47133 -3.45332 0
M  V30 2095 N 181.806 0.884767 1.30421 0
M  V30 2096 C 183.083 0.423185 1.90967 0
M  V30 2097 C 183.463 -1.09605 1.80416 0
M  V30 2098 O 182.811 -1.93126 1.22125 0
M  V30 2099 C 183.021 0.921056 3.36627 0
M  V30 2100 C 184.369 0.955903 4.137 0
M  V30 2101 O 185.393 0.867706 3.4547 0
M  V30 2102 O 184.252 1.08614 5.35598 0
M  V30 2103 H 181.346 0.129369 0.816819 0
M  V30 2104 H 183.892 0.973653 1.3899 0
M  V30 2105 H 182.664 1.96489 3.3839 0
M  V30 2106 H 182.287 0.349741 3.96059 0
M  V30 2107 N 183.284 -1.43765 0.645699 0
M  V30 2108 C 184.531 -2.01898 0.15604 0
M  V30 2109 C 184.859 -1.50887 -1.22733 0
M  V30 2110 O 184.114 -0.689271 -1.8316 0
M  V30 2111 C 184.413 -3.57238 0.107679 0
M  V30 2112 C 184.079 -4.27564 1.43178 0
M  V30 2113 C 182.741 -4.46492 1.7944 0
M  V30 2114 C 185.093 -4.67454 2.30513 0
M  V30 2115 C 182.421 -5.02573 3.02716 0
M  V30 2116 C 184.773 -5.24901 3.53074 0
M  V30 2117 C 183.437 -5.42046 3.89541 0
M  V30 2118 H 182.707 -0.738797 0.057099 0
M  V30 2119 H 185.354 -1.72341 0.834912 0
M  V30 2120 H 183.659 -3.86293 -0.654618 0
M  V30 2121 H 185.356 -3.99965 -0.287938 0
M  V30 2122 H 181.946 -4.13171 1.13963 0
M  V30 2123 H 186.13 -4.5253 2.0379 0
M  V30 2124 H 181.386 -5.14033 3.31028 0
M  V30 2125 H 185.56 -5.54758 4.20971 0
M  V30 2126 H 183.187 -5.85268 4.85145 0
M  V30 2127 N 184.763 -0.387143 -1.52771 0
M  V30 2128 C 185.71 0.449048 -2.26389 0
M  V30 2129 C 186.68 1.05961 -1.27912 0
M  V30 2130 O 187.865 1.08804 -1.56737 0
M  V30 2131 C 185.005 1.57155 -3.0724 0
M  V30 2132 C 184.118 0.984066 -4.20643 0
M  V30 2133 C 183.253 2.07745 -4.88892 0
M  V30 2134 C 182.292 1.46574 -5.94292 0
M  V30 2135 N 181.429 2.49834 -6.56146 0
M  V30 2136 H 186.269 -0.185205 -2.97424 0
M  V30 2137 H 183.806 -0.103164 -1.46738 0
M  V30 2138 H 185.764 2.23309 -3.52405 0
M  V30 2139 H 184.394 2.17615 -2.38419 0
M  V30 2140 H 183.446 0.212193 -3.79808 0
M  V30 2141 H 184.758 0.497029 -4.96318 0
M  V30 2142 H 183.912 2.81673 -5.3735 0
M  V30 2143 H 182.651 2.59807 -4.12737 0
M  V30 2144 H 181.656 0.711696 -5.45174 0
M  V30 2145 H 182.881 0.953088 -6.72379 0
M  V30 2146 H 180.827 3.0107 -5.82832 0
M  V30 2147 H 180.744 2.05879 -7.27427 0
M  V30 2148 H 182.012 3.23399 -7.09249 0
M  V30 2149 N 186.241 1.57166 -0.116904 0
M  V30 2150 C 187.469 1.99473 0.549383 0
M  V30 2151 C 187.884 0.996541 1.60357 0
M  V30 2152 O 187.241 -0.0108731 1.82497 0
M  V30 2153 C 187.292 3.41788 1.17741 0
M  V30 2154 O 187.013 4.37788 0.165362 0
M  V30 2155 C 188.514 3.99216 1.92722 0
M  V30 2156 H 185.734 0.655009 0.145616 0
M  V30 2157 H 188.278 2.03494 -0.202625 0
M  V30 2158 H 186.433 3.38713 1.88021 0
M  V30 2159 H 186.847 5.20806 0.621403 0
M  V30 2160 H 188.321 5.00882 2.31995 0
M  V30 2161 H 188.798 3.3824 2.80161 0
M  V30 2162 H 189.404 4.0583 1.27209 0
M  V30 2163 N 187.719 -0.156864 1.56817 0
M  V30 2164 C 188.649 -1.19589 2.00551 0
M  V30 2165 C 189.63 -1.4536 0.883426 0
M  V30 2166 O 190.815 -1.56449 1.15054 0
M  V30 2167 C 187.945 -2.53143 2.37773 0
M  V30 2168 C 186.899 -2.41913 3.53075 0
M  V30 2169 C 186.225 -3.80088 3.76081 0
M  V30 2170 C 187.525 -1.91157 4.86062 0
M  V30 2171 H 189.219 -0.832293 2.87599 0
M  V30 2172 H 186.765 -0.398918 1.38364 0
M  V30 2173 H 188.718 -3.26047 2.66967 0
M  V30 2174 H 187.442 -2.91319 1.4765 0
M  V30 2175 H 186.101 -1.71462 3.24031 0
M  V30 2176 H 185.749 -4.15683 2.83225 0
M  V30 2177 H 185.449 -3.73439 4.53671 0
M  V30 2178 H 186.973 -4.54556 4.0769 0
M  V30 2179 H 188.387 -2.53846 5.14038 0
M  V30 2180 H 186.784 -1.95422 5.67389 0
M  V30 2181 H 187.854 -0.866673 4.77092 0
M  V30 2182 N 189.197 -1.51736 -0.425897 0
M  V30 2183 C 190.427 -1.68549 -1.19476 0
M  V30 2184 C 190.835 -0.387288 -1.85194 0
M  V30 2185 O 190.178 0.645142 -1.71999 0
M  V30 2186 C 190.24 -2.75275 -2.31223 0
M  V30 2187 C 189.904 -4.17534 -1.8578 0
M  V30 2188 C 190.901 -5.01936 -1.35485 0
M  V30 2189 C 188.586 -4.6369 -1.93123 0
M  V30 2190 C 190.58 -6.30559 -0.931347 0
M  V30 2191 C 188.267 -5.92307 -1.50384 0
M  V30 2192 C 189.265 -6.75569 -1.00473 0
M  V30 2193 O 188.953 -8.0178 -0.583452 0
M  V30 2194 H 188.685 -0.568525 -0.365725 0
M  V30 2195 H 191.239 -1.98982 -0.509444 0
M  V30 2196 H 189.469 -2.40182 -3.03067 0
M  V30 2197 H 191.158 -2.80853 -2.93047 0
M  V30 2198 H 191.924 -4.67475 -1.29197 0
M  V30 2199 H 187.803 -3.98997 -2.30916 0
M  V30 2200 H 191.347 -6.95498 -0.541084 0
M  V30 2201 H 187.244 -6.2628 -1.56346 0
M  V30 2202 H 188.012 -8.1543 -0.708275 0
M  V30 2203 N 190.675 0.682077 -1.42076 0
M  V30 2204 C 192.086 1.26246 -1.37546 0
M  V30 2205 C 192.437 1.96092 -0.0651481 0
M  V30 2206 O 191.562 1.99587 0.836297 0
M  V30 2207 C 192.157 2.29594 -2.49143 0
M  V30 2208 C 190.716 2.83175 -2.47969 0
M  V30 2209 C 189.863 1.57395 -2.28303 0
M  V30 2210 H 192.814 0.475937 -1.51395 0
M  V30 2211 H 192.835 3.11175 -2.18976 0
M  V30 2212 H 192.347 1.78729 -3.44496 0
M  V30 2213 H 190.448 3.3818 -1.56413 0
M  V30 2214 H 190.561 3.32687 -3.44755 0
M  V30 2215 H 188.925 1.83699 -1.76428 0
M  V30 2216 H 189.708 1.08507 -3.25701 0
M  V30 2217 N 192.153 1.28127 0.917671 0
M  V30 2218 C 193.1 1.11717 2.0196 0
M  V30 2219 C 194.07 0.0153929 1.66093 0
M  V30 2220 O 195.255 0.179596 1.89953 0
M  V30 2221 C 192.395 0.780927 3.36148 0
M  V30 2222 C 191.508 1.96135 3.84909 0
M  V30 2223 C 190.643 1.56609 5.0759 0
M  V30 2224 C 189.682 2.71339 5.48673 0
M  V30 2225 N 188.819 2.32332 6.62545 0
M  V30 2226 H 193.659 2.06003 2.15329 0
M  V30 2227 H 191.196 1.02535 1.05475 0
M  V30 2228 H 193.154 0.56675 4.13333 0
M  V30 2229 H 191.784 -0.124998 3.22558 0
M  V30 2230 H 190.836 2.28777 3.03916 0
M  V30 2231 H 192.148 2.82165 4.1132 0
M  V30 2232 H 191.302 1.31374 5.92305 0
M  V30 2233 H 190.041 0.677014 4.82978 0
M  V30 2234 H 189.046 2.97276 4.62501 0
M  V30 2235 H 190.271 3.60882 5.75274 0
M  V30 2236 H 188.217 1.45889 6.39572 0
M  V30 2237 H 188.134 3.11899 6.88662 0
M  V30 2238 H 189.402 2.10371 7.50576 0
M  V30 2239 N 193.631 -1.12557 1.10312 0
M  V30 2240 C 194.878 -1.84038 0.844759 0
M  V30 2241 C 195.206 -1.84026 -0.629668 0
M  V30 2242 O 194.461 -1.28026 -1.48013 0
M  V30 2243 C 194.76 -3.31462 1.33669 0
M  V30 2244 C 194.426 -3.51647 2.82232 0
M  V30 2245 C 193.088 -3.56864 3.22802 0
M  V30 2246 C 195.44 -3.58867 3.77974 0
M  V30 2247 C 192.768 -3.66844 4.57867 0
M  V30 2248 C 195.12 -3.70375 5.1284 0
M  V30 2249 C 193.784 -3.73848 5.52986 0
M  V30 2250 H 193.054 -0.673444 0.309119 0
M  V30 2251 H 195.701 -1.32824 1.37949 0
M  V30 2252 H 194.006 -3.85091 0.721949 0
M  V30 2253 H 195.703 -3.85236 1.11329 0
M  V30 2254 H 192.293 -3.48249 2.49842 0
M  V30 2255 H 196.477 -3.54107 3.47738 0
M  V30 2256 H 191.733 -3.67804 4.88396 0
M  V30 2257 H 195.907 -3.74904 5.86873 0
M  V30 2258 H 193.534 -3.81333 6.57639 0
M  V30 2259 N 195.109 -0.891671 -1.2995 0
M  V30 2260 C 196.337 -0.52866 -2.00032 0
M  V30 2261 C 196.752 0.884574 -1.66795 0
M  V30 2262 O 196.109 1.5827 -0.908669 0
M  V30 2263 C 196.16 -0.701814 -3.54622 0
M  V30 2264 O 195.881 -2.05942 -3.86678 0
M  V30 2265 C 197.382 -0.342683 -4.41973 0
M  V30 2266 H 194.602 -0.203659 -0.639347 0
M  V30 2267 H 197.146 -1.19881 -1.65677 0
M  V30 2268 H 195.301 -0.0789468 -3.8732 0
M  V30 2269 H 195.715 -2.08291 -4.81368 0
M  V30 2270 H 197.189 -0.514709 -5.49595 0
M  V30 2271 H 197.666 0.71975 -4.33262 0
M  V30 2272 H 198.272 -0.942154 -4.14733 0
M  V30 2273 N 196.587 1.43421 -0.653314 0
M  V30 2274 C 197.864 1.95361 -0.0966581 0
M  V30 2275 C 198.244 1.59461 1.38331 0
M  V30 2276 O 197.592 0.879777 2.10884 0
M  V30 2277 C 197.802 3.47311 -0.342988 0
M  V30 2278 C 199.15 4.23875 -0.24798 0
M  V30 2279 O 200.174 3.55133 -0.275553 0
M  V30 2280 O 199.033 5.4623 -0.171771 0
M  V30 2281 H 196.127 0.826945 0.00956291 0
M  V30 2282 H 198.673 1.5336 -0.726558 0
M  V30 2283 H 197.445 3.66569 -1.36906 0
M  V30 2284 H 197.068 3.9631 0.319975 0
M  V30 2285 N 198.065 0.39524 1.52563 0
M  V30 2286 C 199.012 -0.437036 2.26624 0
M  V30 2287 C 199.982 -1.05281 1.28472 0
M  V30 2288 O 201.167 -1.07971 1.57311 0
M  V30 2289 C 198.307 -1.55524 3.08069 0
M  V30 2290 C 197.42 -0.961745 4.21158 0
M  V30 2291 C 196.555 -2.05149 4.89987 0
M  V30 2292 C 195.594 -1.4342 5.95061 0
M  V30 2293 N 194.731 -2.46351 6.57462 0
M  V30 2294 H 199.571 0.200976 2.97322 0
M  V30 2295 H 197.108 0.110944 1.46681 0
M  V30 2296 H 199.066 -2.21437 3.53584 0
M  V30 2297 H 197.696 -2.16348 2.3957 0
M  V30 2298 H 196.748 -0.192048 3.79915 0
M  V30 2299 H 198.06 -0.470701 4.96574 0
M  V30 2300 H 197.214 -2.78819 5.38837 0
M  V30 2301 H 195.953 -2.57615 4.14109 0
M  V30 2302 H 194.958 -0.682774 5.45544 0
M  V30 2303 H 196.183 -0.917416 6.72875 0
M  V30 2304 H 194.129 -2.97975 5.8442 0
M  V30 2305 H 194.046 -2.02019 7.28508 0
M  V30 2306 H 195.314 -3.19633 7.10954 0
M  V30 2307 N 199.544 -1.57102 0.125237 0
M  V30 2308 C 200.821 -1.86953 -0.575142 0
M  V30 2309 C 201.201 -1.02749 -1.84407 0
M  V30 2310 O 200.549 -0.108144 -2.28244 0
M  V30 2311 C 200.759 -3.38198 -0.861583 0
M  V30 2312 C 202.107 -4.06937 -1.21192 0
M  V30 2313 O 203.131 -3.43252 -0.951645 0
M  V30 2314 O 201.99 -5.19364 -1.70068 0
M  V30 2315 H 199.084 -0.774147 -0.290906 0
M  V30 2316 H 201.63 -1.68942 0.160211 0
M  V30 2317 H 200.402 -3.91282 0.0373647 0
M  V30 2318 H 200.025 -3.61661 -1.65188 0
M  V30 2319 N 201.022 0.148545 -1.56898 0
M  V30 2320 C 202.271 0.85984 -1.82454 0
M  V30 2321 C 202.584 1.82406 -0.706229 0
M  V30 2322 O 203.79 2.57938 -0.847349 0
M  V30 2323 C 202.246 1.57967 -3.2338 0
M  V30 2324 C 201.854 0.65794 -4.43142 0
M  V30 2325 C 203.598 2.27784 -3.58211 0
M  V30 2326 C 201.505 1.3793 -5.75091 0
M  V30 2327 H 200.435 0.324834 -0.68044 0
M  V30 2328 H 203.086 0.112588 -1.83154 0
M  V30 2329 H 201.468 2.37249 -3.17063 0
M  V30 2330 H 202.642 -0.0995497 -4.60692 0
M  V30 2331 H 200.957 0.0682643 -4.16344 0
M  V30 2332 H 203.554 2.8239 -4.54048 0
M  V30 2333 H 203.897 3.04204 -2.84193 0
M  V30 2334 H 204.43 1.55421 -3.66182 0
M  V30 2335 H 201.169 0.656982 -6.52199 0
M  V30 2336 H 200.689 2.10954 -5.61479 0
M  V30 2337 H 202.368 1.92063 -6.17835 0
M  V30 2338 N 202.5 1.5196 0.417844 0
M  V30 2339 C 203.916 1.40569 0.755816 0
M  V30 2340 C 204.116 0.503316 1.95113 0
M  V30 2341 O 203.172 -0.0341925 2.52477 0
M  V30 2342 C 204.485 2.82947 1.01791 0
M  V30 2343 C 206.033 2.92231 1.12116 0
M  V30 2344 C 206.508 4.35559 1.41608 0
M  V30 2345 N 207.999 4.38753 1.48491 0
M  V30 2346 C 208.734 5.46705 1.7292 0
M  V30 2347 N 208.23 6.64788 1.95011 0
M  V30 2348 N 210.023 5.34209 1.74863 0
M  V30 2349 H 202.174 2.09168 -0.369098 0
M  V30 2350 H 204.437 0.942409 -0.102809 0
M  V30 2351 H 204.143 3.5106 0.212081 0
M  V30 2352 H 204.017 3.23462 1.94042 0
M  V30 2353 H 206.404 2.24304 1.9176 0
M  V30 2354 H 206.485 2.55185 0.177225 0
M  V30 2355 H 206.129 5.04042 0.624848 0
M  V30 2356 H 206.059 4.70133 2.37239 0
M  V30 2357 H 208.55 3.5363 1.33244 0
M  V30 2358 H 208.863 7.42845 2.13076 0
M  V30 2359 H 207.208 6.67869 1.92293 0
M  V30 2360 H 210.399 4.40937 1.57137 0
M  V30 2361 H 210.572 6.18415 1.93563 0
M  V30 2362 N 203.978 -0.674533 1.42435 0
M  V30 2363 C 205.208 -1.46071 1.46105 0
M  V30 2364 C 205.616 -1.89067 0.0709605 0
M  V30 2365 O 204.959 -1.58731 -0.924677 0
M  V30 2366 C 205.021 -2.74145 2.32561 0
M  V30 2367 C 204.685 -2.53224 3.8043 0
M  V30 2368 C 205.682 -2.17809 4.72075 0
M  V30 2369 C 203.367 -2.6821 4.24698 0
M  V30 2370 C 205.361 -1.97648 6.05982 0
M  V30 2371 C 203.048 -2.47665 5.58664 0
M  V30 2372 C 204.046 -2.12437 6.49122 0
M  V30 2373 O 203.734 -1.9209 7.80613 0
M  V30 2374 H 203.466 -0.455959 0.499076 0
M  V30 2375 H 206.02 -0.836193 1.87609 0
M  V30 2376 H 204.25 -3.3908 1.85908 0
M  V30 2377 H 205.939 -3.36028 2.27683 0
M  V30 2378 H 206.705 -2.05826 4.39159 0
M  V30 2379 H 202.584 -2.94609 3.54579 0
M  V30 2380 H 206.128 -1.70075 6.7655 0
M  V30 2381 H 202.025 -2.59244 5.91154 0
M  V30 2382 H 202.793 -2.06686 7.91974 0
M  V30 2383 N 205.456 -1.28612 -0.910864 0
M  V30 2384 C 206.686 -1.1862 -1.69153 0
M  V30 2385 C 207.094 0.257324 -1.87442 0
M  V30 2386 O 206.437 1.18543 -1.40332 0
M  V30 2387 C 206.499 -1.81606 -3.10257 0
M  V30 2388 C 206.163 -3.30864 -3.15243 0
M  V30 2389 C 207.16 -4.27256 -2.96223 0
M  V30 2390 C 204.845 -3.71871 -3.37664 0
M  V30 2391 C 206.839 -5.62631 -2.99541 0
M  V30 2392 C 204.526 -5.07371 -3.40614 0
M  V30 2393 C 205.524 -6.02561 -3.21573 0
M  V30 2394 O 205.212 -7.35589 -3.2429 0
M  V30 2395 H 204.944 -0.412633 -0.535453 0
M  V30 2396 H 207.498 -1.70306 -1.14827 0
M  V30 2397 H 205.728 -1.24418 -3.66138 0
M  V30 2398 H 207.417 -1.66092 -3.70362 0
M  V30 2399 H 208.183 -3.9691 -2.78725 0
M  V30 2400 H 204.062 -2.98241 -3.5153 0
M  V30 2401 H 207.606 -6.36907 -2.84597 0
M  V30 2402 H 203.503 -5.37366 -3.57642 0
M  V30 2403 H 204.271 -7.44252 -3.40633 0
M  V30 2404 N 206.934 1.1197 -1.10907 0
M  V30 2405 C 208.183 1.82947 -0.849302 0
M  V30 2406 C 208.496 1.85275 0.627112 0
M  V30 2407 O 209.702 2.52296 1.00295 0
M  V30 2408 C 208.158 3.28529 -1.46959 0
M  V30 2409 C 207.766 3.34546 -2.97965 0
M  V30 2410 C 209.51 4.04443 -1.28942 0
M  V30 2411 C 207.417 4.74491 -3.53004 0
M  V30 2412 H 206.347 0.685477 -0.314065 0
M  V30 2413 H 208.998 1.2604 -1.33365 0
M  V30 2414 H 207.38 3.85333 -0.912917 0
M  V30 2415 H 208.554 2.87654 -3.59989 0
M  V30 2416 H 206.869 2.72108 -3.15192 0
M  V30 2417 H 209.466 5.07787 -1.67502 0
M  V30 2418 H 209.809 4.15656 -0.231456 0
M  V30 2419 H 210.342 3.5401 -1.81443 0
M  V30 2420 H 207.081 4.68474 -4.58489 0
M  V30 2421 H 206.601 5.21816 -2.9575 0
M  V30 2422 H 208.28 5.4344 -3.51115 0
M  V30 2423 N 208.412 0.89855 1.29475 0
M  V30 2424 C 209.642 0.538479 1.99459 0
M  V30 2425 C 210.05 -0.880922 1.67441 0
M  V30 2426 O 209.393 -1.59283 0.915127 0
M  V30 2427 C 209.455 0.649564 3.53583 0
M  V30 2428 C 209.119 2.03573 4.09154 0
M  V30 2429 C 210.116 3.00675 4.24135 0
M  V30 2430 C 207.801 2.3448 4.44212 0
M  V30 2431 C 209.795 4.26809 4.73405 0
M  V30 2432 C 207.482 3.60857 4.93179 0
M  V30 2433 C 208.48 4.56836 5.0773 0
M  V30 2434 O 208.168 5.80969 5.55635 0
M  V30 2435 H 207.9 0.205372 0.644048 0
M  V30 2436 H 210.454 1.20958 1.66007 0
M  V30 2437 H 208.684 -0.0785592 3.8662 0
M  V30 2438 H 210.373 0.29881 4.04799 0
M  V30 2439 H 211.139 2.78112 3.97339 0
M  V30 2440 H 207.018 1.60534 4.32145 0
M  V30 2441 H 210.562 5.0173 4.84678 0
M  V30 2442 H 206.459 3.83251 5.19412 0
M  V30 2443 H 207.227 5.83542 5.73952 0
M  V30 2444 N 209.89 -1.43072 0.660911 0
M  V30 2445 C 210.822 -2.29108 -0.0647641 0
M  V30 2446 C 211.835 -1.42928 -0.779448 0
M  V30 2447 O 213.024 -1.66788 -0.635921 0
M  V30 2448 C 210.124 -3.20032 -1.11503 0
M  V30 2449 C 209.297 -4.34792 -0.476955 0
M  V30 2450 C 208.356 -5.06534 -1.42513 0
M  V30 2451 O 207.382 -5.61538 -0.930771 0
M  V30 2452 N 208.584 -5.1075 -2.75889 0
M  V30 2453 H 211.349 -2.92029 0.673731 0
M  V30 2454 H 208.91 -1.53846 0.50427 0
M  V30 2455 H 210.902 -3.64892 -1.75032 0
M  V30 2456 H 209.472 -2.58658 -1.75541 0
M  V30 2457 H 208.692 -3.92752 0.337572 0
M  V30 2458 H 209.98 -5.0879 -0.0318525 0
M  V30 2459 H 209.378 -4.67447 -3.18606 0
M  V30 2460 H 207.935 -5.59302 -3.347 0
M  V30 2461 N 211.368 -0.403325 -1.52352 0
M  V30 2462 C 212.617 0.175668 -2.00934 0
M  V30 2463 C 212.93 1.46718 -1.29356 0
M  V30 2464 O 214.136 2.12708 -1.68724 0
M  V30 2465 C 212.592 0.363612 -3.58058 0
M  V30 2466 C 212.2 -0.915472 -4.38547 0
M  V30 2467 C 213.944 0.89821 -4.14888 0
M  V30 2468 C 211.851 -0.695035 -5.87302 0
M  V30 2469 H 210.781 0.0694234 -0.750797 0
M  V30 2470 H 213.432 -0.527879 -1.75743 0
M  V30 2471 H 211.814 1.12935 -3.79555 0
M  V30 2472 H 212.988 -1.68691 -4.28812 0
M  V30 2473 H 211.303 -1.37606 -3.93006 0
M  V30 2474 H 213.9 1.07907 -5.23699 0
M  V30 2475 H 214.243 1.87126 -3.71873 0
M  V30 2476 H 214.776 0.191681 -3.97338 0
M  V30 2477 H 211.515 -1.63948 -6.34666 0
M  V30 2478 H 211.035 0.0372116 -5.99788 0
M  V30 2479 H 212.714 -0.33497 -6.46132 0
M  V30 2480 N 212.846 1.57033 -0.133567 0
M  V30 2481 C 213.776 2.1909 0.807567 0
M  V30 2482 C 214.757 1.13517 1.26681 0
M  V30 2483 O 215.942 1.41809 1.32679 0
M  V30 2484 C 213.072 2.80188 2.05212 0
M  V30 2485 C 212.026 3.91471 1.73015 0
M  V30 2486 C 211.352 4.39443 3.04622 0
M  V30 2487 C 212.652 5.12886 0.987168 0
M  V30 2488 H 214.346 2.97988 0.290403 0
M  V30 2489 H 211.892 1.43335 0.138239 0
M  V30 2490 H 213.845 3.22264 2.71521 0
M  V30 2491 H 212.569 1.98601 2.59278 0
M  V30 2492 H 211.228 3.49993 1.0909 0
M  V30 2493 H 210.876 3.54695 3.56651 0
M  V30 2494 H 210.576 5.14495 2.83847 0
M  V30 2495 H 212.1 4.8418 3.72024 0
M  V30 2496 H 213.514 5.51891 1.55208 0
M  V30 2497 H 211.911 5.93615 0.87985 0
M  V30 2498 H 212.981 4.84894 -0.0235286 0
M  V30 2499 N 214.325 -0.140222 1.56975 0
M  V30 2500 C 215.272 -1.17292 1.98774 0
M  V30 2501 C 216.242 -1.4232 0.856408 0
M  V30 2502 O 217.427 -1.54541 1.119 0
M  V30 2503 C 214.567 -2.49973 2.37923 0
M  V30 2504 C 213.68 -2.32062 3.64378 0
M  V30 2505 C 212.815 -3.57825 3.926 0
M  V30 2506 C 211.854 -3.3498 5.12303 0
M  V30 2507 N 210.991 -4.52891 5.36502 0
M  V30 2508 H 215.831 -0.809472 2.86795 0
M  V30 2509 H 213.368 -0.388237 1.41884 0
M  V30 2510 H 215.326 -3.27346 2.58652 0
M  V30 2511 H 213.956 -2.84252 1.52972 0
M  V30 2512 H 213.008 -1.45711 3.51387 0
M  V30 2513 H 214.32 -2.11145 4.51906 0
M  V30 2514 H 213.474 -4.43624 4.13863 0
M  V30 2515 H 212.213 -3.81753 3.03506 0
M  V30 2516 H 211.218 -2.4757 4.90906 0
M  V30 2517 H 212.443 -3.12444 6.02956 0
M  V30 2518 H 210.389 -4.76979 4.50363 0
M  V30 2519 H 210.306 -4.35001 6.18312 0
M  V30 2520 H 211.574 -5.39884 5.62268 0
M  V30 2521 N 215.803 -1.52179 -0.40978 0
M  V30 2522 C 216.766 -1.74853 -1.48186 0
M  V30 2523 C 217.766 -0.618417 -1.48433 0
M  V30 2524 O 218.956 -0.886286 -1.49969 0
M  V30 2525 C 216.088 -1.8303 -2.87598 0
M  V30 2526 H 217.281 -2.70559 -1.29374 0
M  V30 2527 H 214.834 -1.42586 -0.640233 0
M  V30 2528 H 215.569 -0.89236 -3.11781 0
M  V30 2529 H 215.354 -2.65187 -2.88822 0
M  V30 2530 H 216.844 -2.02316 -3.65319 0
M  V30 2531 N 217.281 0.66697 -1.42791 0
M  V30 2532 C 218.211 1.79218 -1.49677 0
M  V30 2533 C 219.192 1.66405 -0.352623 0
M  V30 2534 O 220.377 1.85708 -0.567993 0
M  V30 2535 C 217.507 3.17565 -1.40605 0
M  V30 2536 C 216.461 3.45124 -2.53127 0
M  V30 2537 C 215.787 4.83127 -2.29112 0
M  V30 2538 C 217.087 3.41236 -3.95418 0
M  V30 2539 H 218.781 1.73713 -2.43853 0
M  V30 2540 H 216.327 0.83432 -1.17367 0
M  V30 2541 H 218.28 3.96022 -1.44029 0
M  V30 2542 H 217.004 3.23767 -0.429271 0
M  V30 2543 H 215.663 2.69031 -2.49034 0
M  V30 2544 H 215.311 4.85988 -1.29709 0
M  V30 2545 H 215.011 5.02528 -3.04531 0
M  V30 2546 H 216.535 5.63859 -2.34297 0
M  V30 2547 H 217.949 4.09651 -4.01073 0
M  V30 2548 H 216.346 3.72173 -4.70752 0
M  V30 2549 H 217.416 2.39665 -4.21532 0
M  V30 2550 N 218.759 1.29093 0.90403 0
M  V30 2551 C 220.036 1.075 1.63411 0
M  V30 2552 C 220.416 -0.382346 2.07609 0
M  V30 2553 O 219.764 -1.37031 1.82851 0
M  V30 2554 C 219.974 2.05858 2.81822 0
M  V30 2555 C 221.322 2.36539 3.52611 0
M  V30 2556 O 222.346 2.04019 2.91984 0
M  V30 2557 O 221.205 2.92085 4.61897 0
M  V30 2558 H 218.299 0.411547 0.717327 0
M  V30 2559 H 220.845 1.40449 0.952479 0
M  V30 2560 H 219.617 3.04037 2.46327 0
M  V30 2561 H 219.24 1.73613 3.57693 0
M  V30 2562 N 220.237 -1.11381 1.11499 0
M  V30 2563 C 221.467 -1.86663 0.885464 0
M  V30 2564 C 221.875 -1.80464 -0.568281 0
M  V30 2565 O 221.218 -1.18445 -1.40415 0
M  V30 2566 C 221.28 -3.36337 1.26956 0
M  V30 2567 C 220.944 -3.66304 2.73259 0
M  V30 2568 C 221.941 -3.63733 3.71476 0
M  V30 2569 C 219.626 -3.9529 3.09921 0
M  V30 2570 C 221.62 -3.89725 5.04374 0
M  V30 2571 C 219.307 -4.20941 4.43004 0
M  V30 2572 C 220.305 -4.18147 5.40039 0
M  V30 2573 O 219.993 -4.43153 6.70724 0
M  V30 2574 H 219.725 -0.597114 0.316908 0
M  V30 2575 H 222.279 -1.41782 1.48617 0
M  V30 2576 H 220.509 -3.81826 0.611999 0
M  V30 2577 H 222.198 -3.92986 1.01573 0
M  V30 2578 H 222.964 -3.41389 3.44498 0
M  V30 2579 H 218.843 -3.966 2.35009 0
M  V30 2580 H 222.387 -3.8746 5.80104 0
M  V30 2581 H 218.284 -4.42761 4.69716 0
M  V30 2582 H 219.052 -4.60717 6.76522 0
M  V30 2583 N 221.715 -0.905404 -1.28997 0
M  V30 2584 C 222.955 -0.541232 -1.97104 0
M  V30 2585 C 223.319 0.896841 -1.69767 0
M  V30 2586 O 224.52 1.36817 -2.31375 0
M  V30 2587 C 222.791 -0.832134 -3.47578 0
M  V30 2588 S 224.35 -0.573127 -4.35041 0
M  V30 2589 H 221.168 -0.200576 -0.682122 0
M  V30 2590 H 223.77 -1.16906 -1.56694 0
M  V30 2591 H 222.474 -1.87687 -3.64968 0
M  V30 2592 H 222.005 -0.192636 -3.92928 0
M  V30 2593 H 224.02 0.579297 -4.92807 0
M  V30 2594 N 223.193 1.4272 -0.668489 0
M  V30 2595 C 224.143 2.27971 0.0363806 0
M  V30 2596 C 225.127 1.40741 0.779794 0
M  V30 2597 O 226.319 1.64245 0.659745 0
M  V30 2598 C 223.448 3.28673 0.991398 0
M  V30 2599 C 222.534 4.23388 0.245658 0
M  V30 2600 N 222.925 5.00267 -0.746069 0
M  V30 2601 C 221.223 4.43355 0.484988 0
M  V30 2602 C 221.924 5.69396 -1.19009 0
M  V30 2603 N 220.9 5.41095 -0.521287 0
M  V30 2604 H 224.702 2.84833 -0.724394 0
M  V30 2605 H 222.216 1.54607 -0.497028 0
M  V30 2606 H 224.213 3.88543 1.51129 0
M  V30 2607 H 222.873 2.73373 1.75207 0
M  V30 2608 H 223.884 5.05525 -1.12537 0
M  V30 2609 H 220.561 3.99104 1.22565 0
M  V30 2610 H 221.951 6.41083 -2.01153 0
M  V30 2611 N 224.671 0.411399 1.52136 0
M  V30 2612 C 225.896 -0.165538 2.06738 0
M  V30 2613 C 226.321 -1.379 1.27926 0
M  V30 2614 O 225.679 -1.78628 0.310114 0
M  V30 2615 C 225.727 -0.492124 3.57226 0
M  V30 2616 O 224.831 -1.58276 3.80818 0
M  V30 2617 H 224.172 -0.0132132 0.663869 0
M  V30 2618 H 226.702 0.585253 1.96051 0
M  V30 2619 H 226.712 -0.750104 4.01045 0
M  V30 2620 H 225.387 0.394922 4.14021 0
M  V30 2621 H 223.964 -1.31677 3.48877 0
M  V30 2622 N 226.149 -1.5696 0.141893 0
M  V30 2623 C 227.081 -2.13619 -0.830627 0
M  V30 2624 C 228.094 -1.08439 -1.21428 0
M  V30 2625 O 229.283 -1.35734 -1.15925 0
M  V30 2626 C 226.383 -2.63978 -2.12529 0
M  V30 2627 C 225.556 -3.93504 -1.9098 0
M  V30 2628 C 224.615 -4.29225 -3.04388 0
M  V30 2629 O 223.641 -4.97641 -2.76302 0
M  V30 2630 N 224.843 -3.88393 -4.31429 0
M  V30 2631 H 227.608 -2.97691 -0.34641 0
M  V30 2632 H 225.169 -1.61846 -0.0418375 0
M  V30 2633 H 227.161 -2.84891 -2.87436 0
M  V30 2634 H 225.731 -1.84659 -2.52229 0
M  V30 2635 H 224.951 -3.81269 -1.00139 0
M  V30 2636 H 226.239 -4.78154 -1.73914 0
M  V30 2637 H 225.637 -3.33257 -4.57117 0
M  V30 2638 H 224.194 -4.14368 -5.03133 0
M  V30 2639 N 227.627 0.131896 -1.57047 0
M  V30 2640 C 228.875 0.840269 -1.83804 0
M  V30 2641 C 229.196 1.81017 -0.72512 0
M  V30 2642 O 228.466 1.94272 0.251995 0
M  V30 2643 H 227.046 0.313294 -0.678127 0
M  V30 2644 H 229.708 0.122294 -1.94516 0
M  V30 2645 H 228.804 1.39335 -2.79271 0
M  V30 2646 N 229.106 1.52395 0.401703 0
M  V30 2647 C 230.355 1.66044 1.14509 0
M  V30 2648 C 230.668 0.400216 1.91462 0
M  V30 2649 O 231.874 0.416632 2.68284 0
M  V30 2650 C 230.33 2.93388 2.0845 0
M  V30 2651 C 229.938 4.26545 1.36978 0
M  V30 2652 C 231.682 3.16402 2.83001 0
M  V30 2653 C 229.589 5.45007 2.29611 0
M  V30 2654 H 228.519 0.618562 0.431158 0
M  V30 2655 H 231.17 1.78886 0.40892 0
M  V30 2656 H 229.552 2.74263 2.8565 0
M  V30 2657 H 230.726 4.56179 0.650916 0
M  V30 2658 H 229.041 4.09692 0.74438 0
M  V30 2659 H 231.638 4.02085 3.52465 0
M  V30 2660 H 231.981 2.30943 3.46368 0
M  V30 2661 H 232.514 3.36034 2.12898 0
M  V30 2662 H 229.253 6.32835 1.70879 0
M  V30 2663 H 228.773 5.19702 2.9945 0
M  V30 2664 H 230.452 5.7838 2.89974 0
M  V30 2665 N 230.584 -0.659388 1.43143 0
M  V30 2666 C 231.517 -1.78425 1.42267 0
M  V30 2667 C 232.495 -1.60085 0.284894 0
M  V30 2668 O 233.679 -1.82351 0.477527 0
M  V30 2669 C 230.806 -3.15642 1.22833 0
M  V30 2670 C 229.852 -3.52698 2.39806 0
M  V30 2671 S 230.685 -3.53372 4.02353 0
M  V30 2672 C 231.841 -4.93256 3.85291 0
M  V30 2673 H 232.074 -1.78897 2.37452 0
M  V30 2674 H 229.607 -0.831469 1.301 0
M  V30 2675 H 231.565 -3.94838 1.12308 0
M  V30 2676 H 230.226 -3.12739 0.29207 0
M  V30 2677 H 229.419 -4.52475 2.21996 0
M  V30 2678 H 229.021 -2.80899 2.46925 0
M  V30 2679 H 231.313 -5.81751 3.47235 0
M  V30 2680 H 232.256 -5.16115 4.84799 0
M  V30 2681 H 232.664 -4.665 3.17865 0
M  V30 2682 N 232.062 -1.29571 -0.897171 0
M  V30 2683 C 233.012 -1.11539 -1.98855 0
M  V30 2684 C 233.996 -0.0340716 -1.60864 0
M  V30 2685 O 235.188 -0.256062 -1.75138 0
M  V30 2686 C 232.317 -0.796603 -3.3393 0
M  V30 2687 C 231.403 -1.91758 -3.78272 0
M  V30 2688 N 231.794 -3.16143 -3.94826 0
M  V30 2689 C 230.092 -1.81119 -4.07568 0
M  V30 2690 C 230.793 -3.89293 -4.32233 0
M  V30 2691 N 229.769 -3.17255 -4.41419 0
M  V30 2692 H 233.571 -2.05894 -2.09726 0
M  V30 2693 H 231.085 -1.20732 -1.08616 0
M  V30 2694 H 233.082 -0.648459 -4.11826 0
M  V30 2695 H 231.742 0.139003 -3.24402 0
M  V30 2696 H 232.753 -3.5157 -3.80288 0
M  V30 2697 H 229.43 -0.948461 -4.06584 0
M  V30 2698 H 230.82 -4.9635 -4.52865 0
M  V30 2699 N 233.54 1.10788 -1.12088 0
M  V30 2700 C 234.956 1.34691 -0.856186 0
M  V30 2701 C 235.156 1.94791 0.515615 0
M  V30 2702 O 234.212 2.18524 1.26505 0
M  V30 2703 C 235.525 2.27208 -1.9697 0
M  V30 2704 C 237.073 2.40755 -2.00016 0
M  V30 2705 C 237.548 3.36598 -3.1059 0
M  V30 2706 N 239.039 3.44164 -3.10008 0
M  V30 2707 C 239.774 4.18284 -3.92206 0
M  V30 2708 N 239.27 4.95322 -4.84384 0
M  V30 2709 N 241.063 4.13865 -3.80357 0
M  V30 2710 H 233.214 0.70144 -2.00483 0
M  V30 2711 H 235.477 0.371405 -0.872217 0
M  V30 2712 H 235.183 1.90251 -2.958 0
M  V30 2713 H 235.057 3.27485 -1.87172 0
M  V30 2714 H 237.444 2.76982 -1.01808 0
M  V30 2715 H 237.525 1.40305 -2.13888 0
M  V30 2716 H 237.169 3.01096 -4.09028 0
M  V30 2717 H 237.099 4.36918 -2.93956 0
M  V30 2718 H 239.59 2.8922 -2.43228 0
M  V30 2719 H 239.903 5.49267 -5.43623 0
M  V30 2720 H 238.248 4.94459 -4.884 0
M  V30 2721 H 241.439 3.52773 -3.07683 0
M  V30 2722 H 241.612 4.71372 -4.44649 0
M  V30 2723 N 235.018 0.912232 1.28515 0
M  V30 2724 C 236.295 0.463597 1.90027 0
M  V30 2725 C 236.675 -1.05753 1.82701 0
M  V30 2726 O 236.023 -1.90492 1.26194 0
M  V30 2727 C 236.233 0.992253 3.34597 0
M  V30 2728 C 237.581 1.04344 4.11579 0
M  V30 2729 O 238.605 0.94079 3.43551 0
M  V30 2730 O 237.464 1.1995 5.33174 0
M  V30 2731 H 234.558 0.146666 0.813891 0
M  V30 2732 H 237.104 1.00292 1.36893 0
M  V30 2733 H 235.876 2.03623 3.34146 0
M  V30 2734 H 235.499 0.433672 3.95228 0
M  V30 2735 N 236.496 -1.42363 0.676048 0
M  V30 2736 C 237.742 -2.0182 0.199125 0
M  V30 2737 C 238.075 -1.53339 -1.19168 0
M  V30 2738 O 237.35 -0.736124 -1.80032 0
M  V30 2739 C 237.633 -3.59331 0.235144 0
M  V30 2740 C 237.486 -4.17989 1.66149 0
M  V30 2741 C 238.805 -4.3813 -0.41595 0
M  V30 2742 H 235.924 -0.733293 0.0738311 0
M  V30 2743 H 238.566 -1.69368 0.86107 0
M  V30 2744 H 236.716 -3.87109 -0.328487 0
M  V30 2745 H 238.388 -4.0116 2.27747 0
M  V30 2746 H 236.631 -3.7377 2.20178 0
M  V30 2747 H 237.302 -5.27126 1.63837 0
M  V30 2748 H 239.778 -4.16051 0.0638529 0
M  V30 2749 H 238.654 -5.47717 -0.360115 0
M  V30 2750 H 238.915 -4.16101 -1.49373 0
M  V30 2751 N 237.974 -0.419461 -1.51915 0
M  V30 2752 C 238.921 0.400927 -2.27291 0
M  V30 2753 C 239.891 1.03224 -1.30131 0
M  V30 2754 O 241.076 1.05455 -1.59009 0
M  V30 2755 C 238.216 1.50603 -3.10504 0
M  V30 2756 C 237.329 0.89462 -4.22635 0
M  V30 2757 C 236.464 1.97328 -4.93189 0
M  V30 2758 C 235.503 1.33935 -5.97267 0
M  V30 2759 N 234.64 2.3586 -6.61298 0
M  V30 2760 H 239.48 -0.248251 -2.96964 0
M  V30 2761 H 237.017 -0.134266 -1.46486 0
M  V30 2762 H 238.975 2.15783 -3.57062 0
M  V30 2763 H 237.605 2.12509 -2.42981 0
M  V30 2764 H 236.657 0.131583 -3.80172 0
M  V30 2765 H 237.969 0.391641 -4.9726 0
M  V30 2766 H 237.123 2.70211 -5.43204 0
M  V30 2767 H 235.862 2.50994 -4.18155 0
M  V30 2768 H 234.867 0.595896 -5.46561 0
M  V30 2769 H 236.092 0.810252 -6.74249 0
M  V30 2770 H 234.038 2.88639 -5.89087 0
M  V30 2771 H 233.955 1.90403 -7.3163 0
M  V30 2772 H 235.223 3.08282 -7.15949 0
M  V30 2773 N 239.452 1.56882 -0.150215 0
M  V30 2774 C 240.863 1.82995 0.370076 0
M  V30 2775 C 241.214 1.06907 1.64515 0
M  V30 2776 O 240.339 0.315369 2.1409 0
M  V30 2777 C 240.934 3.31942 0.678208 0
M  V30 2778 C 239.493 3.58625 1.14301 0
M  V30 2779 C 238.64 2.76792 0.167778 0
M  V30 2780 H 241.591 1.54209 -0.374858 0
M  V30 2781 H 241.612 3.48272 1.53254 0
M  V30 2782 H 241.124 3.87294 -0.249991 0
M  V30 2783 H 239.225 3.08664 2.08704 0
M  V30 2784 H 239.338 4.67073 1.06676 0
M  V30 2785 H 237.702 2.45972 0.661037 0
M  V30 2786 H 238.485 3.34916 -0.754069 0
M  V30 2787 N 240.93 -0.123565 1.57115 0
M  V30 2788 C 241.88 -1.1575 1.96433 0
M  V30 2789 C 242.864 -1.37313 0.838686 0
M  V30 2790 O 244.056 -1.38482 1.10235 0
M  V30 2791 C 241.185 -2.48526 2.36833 0
M  V30 2792 C 240.271 -2.30457 3.5602 0
M  V30 2793 N 240.662 -1.8219 4.71848 0
M  V30 2794 C 238.96 -2.61129 3.61563 0
M  V30 2795 C 239.661 -1.77721 5.53886 0
M  V30 2796 N 238.637 -2.21899 4.96248 0
M  V30 2797 H 242.439 -0.776797 2.83449 0
M  V30 2798 H 239.953 -0.331364 1.58983 0
M  V30 2799 H 241.95 -3.233 2.63216 0
M  V30 2800 H 240.61 -2.87358 1.5118 0
M  V30 2801 H 241.621 -1.51805 4.95152 0
M  V30 2802 H 238.298 -3.03678 2.86507 0
M  V30 2803 H 239.688 -1.41697 6.56789 0
M  V30 2804 N 242.408 -1.52605 -0.393616 0
M  V30 2805 C 243.356 -1.77688 -1.50099 0
M  V30 2806 C 244.35 -0.644615 -1.56656 0
M  V30 2807 O 245.556 -0.826997 -1.59877 0
M  V30 2808 H 241.931 -0.562159 -0.499481 0
M  V30 2809 H 243.902 -2.7043 -1.26135 0
M  V30 2810 C 242.651 -1.95858 -2.87289 0
M  V30 2811 H 241.974 -2.8241 -2.82992 0
M  V30 2812 H 243.414 -2.174 -3.64024 0
M  V30 2813 C 241.873 -0.729848 -3.28899 0
M  V30 2814 O 242.403 0.0949217 -4.01588 0
M  V30 2815 N 240.609 -0.561283 -2.85128 0
M  V30 2816 H 240.156 -1.23357 -2.26143 0
M  V30 2817 H 240.114 0.2595 -3.13327 0
M  V30 2818 N 243.887 0.651787 -1.4349 0
M  V30 2819 C 245.136 1.40754 -1.44469 0
M  V30 2820 C 245.449 1.95463 -0.0731845 0
M  V30 2821 O 246.655 2.71471 0.0395721 0
M  V30 2822 C 245.111 2.54735 -2.5424 0
M  V30 2823 C 244.719 2.06628 -3.97504 0
M  V30 2824 C 246.463 3.32092 -2.64414 0
M  V30 2825 C 244.37 3.17829 -4.98737 0
M  V30 2826 H 243.3 0.528862 -0.53742 0
M  V30 2827 H 245.951 0.703365 -1.69485 0
M  V30 2828 H 244.333 3.2763 -2.22428 0
M  V30 2829 H 245.507 1.40734 -4.38783 0
M  V30 2830 H 243.822 1.42146 -3.91387 0
M  V30 2831 H 246.419 4.14952 -3.37223 0
M  V30 2832 H 246.762 3.80217 -1.69532 0
M  V30 2833 H 247.295 2.66279 -2.95534 0
M  V30 2834 H 244.034 2.74671 -5.95177 0
M  V30 2835 H 243.554 3.82429 -4.62069 0
M  V30 2836 H 245.233 3.82937 -5.21505 0
M  V30 2837 N 245.365 1.30045 0.890287 0
M  V30 2838 C 246.298 1.10301 1.99772 0
M  V30 2839 C 247.276 0.0121631 1.62595 0
M  V30 2840 O 248.46 0.16469 1.87779 0
M  V30 2841 C 245.587 0.681125 3.31781 0
M  V30 2842 C 244.633 1.77206 3.87944 0
M  V30 2843 S 245.466 3.37335 4.15891 0
M  V30 2844 C 246.622 2.97036 5.50927 0
M  V30 2845 H 246.855 2.04057 2.16213 0
M  V30 2846 H 244.388 1.14299 1.03804 0
M  V30 2847 H 246.346 0.444439 4.08087 0
M  V30 2848 H 245.007 -0.236981 3.13205 0
M  V30 2849 H 244.2 1.42903 4.83316 0
M  V30 2850 H 243.802 1.96275 3.18358 0
M  V30 2851 H 246.094 2.44666 6.31779 0
M  V30 2852 H 247.037 3.91296 5.90164 0
M  V30 2853 H 247.445 2.35057 5.13233 0
M  V30 2854 N 246.843 -1.10192 1.12674 0
M  V30 2855 C 248.092 -1.81573 0.8783 0
M  V30 2856 C 248.405 -1.86249 -0.597557 0
M  V30 2857 O 249.611 -2.5386 -0.962681 0
M  V30 2858 C 248.067 -3.26149 1.52167 0
M  V30 2859 C 247.675 -3.29763 3.03249 0
M  V30 2860 C 249.419 -4.0234 1.3536 0
M  V30 2861 C 247.326 -4.68815 3.60508 0
M  V30 2862 H 246.256 -0.680394 0.324931 0
M  V30 2863 H 248.907 -1.23902 1.35353 0
M  V30 2864 H 247.289 -3.83832 0.974104 0
M  V30 2865 H 248.463 -2.8189 3.6452 0
M  V30 2866 H 246.778 -2.67059 3.19481 0
M  V30 2867 H 249.375 -5.05058 1.75559 0
M  V30 2868 H 249.718 -4.15235 0.297554 0
M  V30 2869 H 250.251 -3.51079 1.87052 0
M  V30 2870 H 246.99 -4.61121 4.65884 0
M  V30 2871 H 246.51 -5.17045 3.04014 0
M  V30 2872 H 248.189 -5.37785 3.59717 0
M  V30 2873 N 248.321 -0.919034 -1.28029 0
M  V30 2874 C 249.598 -0.473668 -1.89778 0
M  V30 2875 C 249.978 1.04783 -1.83259 0
M  V30 2876 O 249.326 1.8982 -1.27202 0
M  V30 2877 C 249.536 -1.00998 -3.34066 0
M  V30 2878 C 250.884 -1.06525 -4.1102 0
M  V30 2879 O 251.908 -0.958996 -3.43048 0
M  V30 2880 O 250.767 -1.22776 -5.3253 0
M  V30 2881 H 247.861 -0.15098 -0.813101 0
M  V30 2882 H 250.407 -1.01016 -1.36359 0
M  V30 2883 H 249.179 -2.05392 -3.33061 0
M  V30 2884 H 248.802 -0.454626 -3.94992 0
M  V30 2885 N 249.799 1.42003 -0.683588 0
M  V30 2886 C 250.749 2.27997 0.0121992 0
M  V30 2887 C 251.733 1.4156 0.764822 0
M  V30 2888 O 252.925 1.64935 0.642287 0
M  V30 2889 C 250.054 3.29706 0.956482 0
M  V30 2890 C 249.14 4.23625 0.200739 0
M  V30 2891 N 249.531 4.99448 -0.799087 0
M  V30 2892 C 247.829 4.43845 0.437937 0
M  V30 2893 C 248.53 5.68102 -1.25041 0
M  V30 2894 N 247.506 5.40511 -0.578648 0
M  V30 2895 H 251.308 2.84048 -0.754564 0
M  V30 2896 H 248.822 1.54071 -0.513398 0
M  V30 2897 H 250.819 3.90124 1.47 0
M  V30 2898 H 249.479 2.75216 1.72297 0
M  V30 2899 H 250.49 5.04303 -1.17893 0
M  V30 2900 H 247.167 4.00382 1.18325 0
M  V30 2901 H 248.557 6.38913 -2.07942 0
M  V30 2902 N 251.277 0.427512 1.51691 0
M  V30 2903 C 252.187 -0.39527 2.31246 0
M  V30 2904 C 253.203 -1.03674 1.39742 0
M  V30 2905 O 254.379 -1.03425 1.72816 0
M  V30 2906 C 251.444 -1.48706 3.13189 0
M  V30 2907 C 250.505 -0.866743 4.20459 0
M  V30 2908 C 249.738 -1.90651 4.98486 0
M  V30 2909 O 249.961 -3.12733 4.77026 0
M  V30 2910 O 248.895 -1.5025 5.82845 0
M  V30 2911 H 252.721 0.253918 3.02637 0
M  V30 2912 H 250.306 0.190274 1.48183 0
M  V30 2913 H 252.188 -2.12047 3.64162 0
M  V30 2914 H 250.863 -2.12051 2.44573 0
M  V30 2915 H 249.77 -0.195544 3.73589 0
M  V30 2916 H 251.103 -0.276934 4.9142 0
M  V30 2917 N 252.755 -1.56801 0.158532 0
M  V30 2918 C 253.703 -2.18638 -0.793729 0
M  V30 2919 C 254.697 -1.14669 -1.24689 0
M  V30 2920 O 255.903 -1.32895 -1.21403 0
M  V30 2921 H 252.278 -0.700226 -0.274204 0
M  V30 2922 H 254.249 -2.97367 -0.248095 0
M  V30 2923 C 252.998 -2.83139 -2.0181 0
M  V30 2924 H 252.321 -3.62863 -1.67841 0
M  V30 2925 H 253.761 -3.29894 -2.66357 0
M  V30 2926 C 252.22 -1.82244 -2.83353 0
M  V30 2927 O 252.75 -1.3 -3.80083 0
M  V30 2928 N 250.956 -1.51288 -2.48114 0
M  V30 2929 H 250.503 -1.93964 -1.69516 0
M  V30 2930 H 250.461 -0.840296 -3.02963 0
M  V30 2931 N 254.233 0.115231 -1.57178 0
M  V30 2932 C 255.649 0.468877 -1.52557 0
M  V30 2933 C 255.849 1.81649 -0.872125 0
M  V30 2934 O 254.905 2.48347 -0.45606 0
M  V30 2935 C 256.218 0.4499 -2.97315 0
M  V30 2936 C 257.766 0.533185 -3.08425 0
M  V30 2937 C 258.241 0.54456 -4.54751 0
M  V30 2938 N 259.732 0.605892 -4.5922 0
M  V30 2939 C 260.467 0.636203 -5.6986 0
M  V30 2940 N 259.963 0.623931 -6.89985 0
M  V30 2941 N 261.756 0.679496 -5.57978 0
M  V30 2942 H 253.907 -0.767712 -1.9804 0
M  V30 2943 H 256.17 -0.283609 -0.904583 0
M  V30 2944 H 255.876 -0.472721 -3.48509 0
M  V30 2945 H 255.75 1.27632 -3.5495 0
M  V30 2946 H 258.137 1.44623 -2.57232 0
M  V30 2947 H 258.218 -0.320995 -2.53778 0
M  V30 2948 H 257.862 -0.364452 -5.06591 0
M  V30 2949 H 257.792 1.41568 -5.07214 0
M  V30 2950 H 260.283 0.621386 -3.72756 0
M  V30 2951 H 260.596 0.649787 -7.70063 0
M  V30 2952 H 258.941 0.591296 -6.9248 0
M  V30 2953 H 262.132 0.686472 -4.63039 0
M  V30 2954 H 262.305 0.69965 -6.44212 0
M  V30 2955 N 255.711 1.52812 0.385517 0
M  V30 2956 C 256.643 1.74096 1.49074 0
M  V30 2957 C 257.656 0.621462 1.50472 0
M  V30 2958 O 258.845 0.897245 1.54311 0
M  V30 2959 C 255.945 1.78774 2.87911 0
M  V30 2960 C 255.118 3.08134 3.10439 0
M  V30 2961 C 254.177 3.04313 4.29278 0
M  V30 2962 O 253.203 3.78168 4.25415 0
M  V30 2963 N 254.405 2.23741 5.35649 0
M  V30 2964 H 257.17 2.69455 1.31202 0
M  V30 2965 H 254.731 1.51343 0.575065 0
M  V30 2966 H 256.723 1.73721 3.65518 0
M  V30 2967 H 255.293 0.907869 2.99126 0
M  V30 2968 H 254.513 3.26649 2.20667 0
M  V30 2969 H 255.801 3.93662 3.22347 0
M  V30 2970 H 255.199 1.63211 5.41645 0
M  V30 2971 H 253.756 2.24524 6.11909 0
M  V30 2972 N 257.189 -0.644168 1.43834 0
M  V30 2973 C 258.438 -1.39985 1.45214 0
M  V30 2974 C 258.751 -1.95421 0.0835494 0
M  V30 2975 O 259.957 -2.71488 -0.0251748 0
M  V30 2976 C 258.413 -2.53384 2.55587 0
M  V30 2977 C 258.021 -2.04517 3.98594 0
M  V30 2978 C 259.765 -3.30685 2.66172 0
M  V30 2979 C 257.672 -3.1518 5.00416 0
M  V30 2980 H 256.602 -0.526005 0.540218 0
M  V30 2981 H 259.253 -0.694367 1.69855 0
M  V30 2982 H 257.635 -3.26446 2.24163 0
M  V30 2983 H 258.809 -1.38405 4.39523 0
M  V30 2984 H 257.124 -1.40068 3.92135 0
M  V30 2985 H 259.721 -4.13158 3.39418 0
M  V30 2986 H 260.064 -3.79312 1.71546 0
M  V30 2987 H 260.597 -2.64708 2.96942 0
M  V30 2988 H 257.336 -2.71511 5.96625 0
M  V30 2989 H 256.856 -3.79974 4.64091 0
M  V30 2990 H 258.535 -3.80166 5.23529 0
M  V30 2991 N 258.668 -1.30515 -0.883378 0
M  V30 2992 C 260.084 -1.08881 -1.16692 0
M  V30 2993 C 260.284 0.149409 -2.00945 0
M  V30 2994 O 259.34 0.84257 -2.38027 0
M  V30 2995 C 260.653 -2.35319 -1.87204 0
M  V30 2996 C 262.201 -2.40799 -1.99962 0
M  V30 2997 C 262.676 -3.67083 -2.73887 0
M  V30 2998 N 264.167 -3.679 -2.81432 0
M  V30 2999 C 264.902 -4.62303 -3.3921 0
M  V30 3000 N 264.398 -5.67052 -3.98025 0
M  V30 3001 N 266.191 -4.49845 -3.3704 0
M  V30 3002 H 258.342 -2.09951 -0.321633 0
M  V30 3003 H 260.605 -0.92556 -0.205043 0
M  V30 3004 H 260.311 -3.25689 -1.3274 0
M  V30 3005 H 260.185 -2.44089 -2.87577 0
M  V30 3006 H 262.572 -1.50907 -2.53597 0
M  V30 3007 H 262.653 -2.36003 -0.98673 0
M  V30 3008 H 262.297 -4.57334 -2.20925 0
M  V30 3009 H 262.227 -3.69141 -3.75556 0
M  V30 3010 H 264.718 -2.92171 -2.39676 0
M  V30 3011 H 265.031 -6.35184 -4.40183 0
M  V30 3012 H 263.376 -5.70842 -3.96439 0
M  V30 3013 H 266.567 -3.67194 -2.90321 0
M  V30 3014 H 266.74 -5.23597 -3.81772 0
M  V30 3015 N 260.146 1.09593 -1.13257 0
M  V30 3016 C 261.076 2.18214 -0.830946 0
M  V30 3017 C 262.057 1.68812 0.208966 0
M  V30 3018 O 263.242 1.9408 0.0682666 0
M  V30 3019 C 260.372 3.46051 -0.294296 0
M  V30 3020 C 259.326 4.08778 -1.26826 0
M  V30 3021 C 258.652 5.31419 -0.591449 0
M  V30 3022 C 259.952 4.51476 -2.62615 0
M  V30 3023 H 261.646 2.43703 -1.73923 0
M  V30 3024 H 259.192 1.17128 -0.837675 0
M  V30 3025 H 261.145 4.2134 -0.0709606 0
M  V30 3026 H 259.869 3.20079 0.649366 0
M  V30 3027 H 258.528 3.35505 -1.47756 0
M  V30 3028 H 258.176 5.01727 0.357633 0
M  V30 3029 H 257.876 5.74341 -1.24123 0
M  V30 3030 H 259.4 6.09433 -0.377355 0
M  V30 3031 H 260.814 5.17999 -2.45663 0
M  V30 3032 H 259.211 5.05277 -3.23752 0
M  V30 3033 H 260.281 3.63962 -3.20406 0
M  V30 3034 N 261.624 0.925811 1.2754 0
M  V30 3035 C 262.873 0.561084 1.93739 0
M  V30 3036 C 263.186 -0.901685 1.73577 0
M  V30 3037 O 264.392 -1.37511 2.34101 0
M  V30 3038 C 262.848 0.952668 3.47062 0
M  V30 3039 C 262.456 2.43599 3.75983 0
M  V30 3040 C 264.2 0.659103 4.19352 0
M  V30 3041 C 262.107 2.76707 5.22673 0
M  V30 3042 H 261.037 0.206122 0.725279 0
M  V30 3043 H 263.688 1.12637 1.44863 0
M  V30 3044 H 262.07 0.316053 3.94737 0
M  V30 3045 H 263.244 3.12035 3.39073 0
M  V30 3046 H 261.559 2.70125 3.16893 0
M  V30 3047 H 264.156 0.882985 5.27359 0
M  V30 3048 H 264.499 -0.403607 4.14339 0
M  V30 3049 H 265.032 1.25473 3.77494 0
M  V30 3050 H 261.771 3.8188 5.32774 0
M  V30 3051 H 261.291 2.12919 5.60737 0
M  V30 3052 H 262.97 2.6435 5.90532 0
M  V30 3053 N 263.102 -1.41638 0.69111 0
M  V30 3054 C 264.379 -1.95036 0.148421 0
M  V30 3055 C 264.759 -1.63072 -1.34055 0
M  V30 3056 O 264.107 -0.93538 -2.08478 0
M  V30 3057 C 264.317 -3.46279 0.434951 0
M  V30 3058 C 265.665 -4.23069 0.360275 0
M  V30 3059 O 266.689 -3.54277 0.369613 0
M  V30 3060 O 265.548 -5.45583 0.316534 0
M  V30 3061 H 262.642 -0.826908 0.0123654 0
M  V30 3062 H 265.188 -1.5138 0.766963 0
M  V30 3063 H 263.96 -3.6281 1.46576 0
M  V30 3064 H 263.583 -3.97019 -0.214787 0
M  V30 3065 N 264.58 -0.43555 -1.51462 0
M  V30 3066 C 265.826 0.123979 -2.03022 0
M  V30 3067 C 266.181 1.4054 -1.31401 0
M  V30 3068 O 265.474 1.86948 -0.419634 0
M  V30 3069 C 265.668 0.39942 -3.55161 0
M  V30 3070 C 265.497 -0.853754 -4.41521 0
M  V30 3071 C 264.267 -1.38675 -4.85898 0
M  V30 3072 C 266.465 -1.73939 -4.83994 0
M  V30 3073 N 264.447 -2.59265 -5.56466 0
M  V30 3074 C 265.818 -2.79135 -5.5361 0
M  V30 3075 C 267.873 -1.75402 -4.65981 0
M  V30 3076 C 266.576 -3.85737 -6.07124 0
M  V30 3077 C 268.602 -2.80938 -5.20411 0
M  V30 3078 C 267.964 -3.84854 -5.89972 0
M  V30 3079 H 264.063 0.00624887 -0.781975 0
M  V30 3080 H 266.647 -0.59582 -1.85359 0
M  V30 3081 H 264.818 1.08825 -3.72843 0
M  V30 3082 H 266.55 0.95015 -3.93388 0
M  V30 3083 H 263.305 -0.94094 -4.64159 0
M  V30 3084 H 263.729 -3.2041 -5.96378 0
M  V30 3085 H 268.371 -0.963926 -4.11665 0
M  V30 3086 H 266.089 -4.65586 -6.60496 0
M  V30 3087 H 269.675 -2.8301 -5.08327 0
M  V30 3088 H 268.555 -4.65176 -6.31333 0
M  V30 3089 N 266.058 1.56714 -0.166846 0
M  V30 3090 C 267.306 1.96358 0.478305 0
M  V30 3091 C 267.627 1.0537 1.6408 0
M  V30 3092 O 266.897 0.119154 1.95537 0
M  V30 3093 H 265.477 0.725065 0.179692 0
M  V30 3094 H 268.139 1.93329 -0.246985 0
M  V30 3095 H 267.235 3.00547 0.841292 0
M  V30 3096 N 267.536 -0.106894 1.57237 0
M  V30 3097 C 268.466 -1.13148 2.04254 0
M  V30 3098 C 269.447 -1.42476 0.929224 0
M  V30 3099 O 270.632 -1.52709 1.19973 0
M  V30 3100 C 267.762 -2.4545 2.45706 0
M  V30 3101 C 266.716 -2.30558 3.60592 0
M  V30 3102 C 266.042 -3.67931 3.87983 0
M  V30 3103 C 267.342 -1.75597 4.91897 0
M  V30 3104 H 269.036 -0.740374 2.90101 0
M  V30 3105 H 266.582 -0.354696 1.39563 0
M  V30 3106 H 268.535 -3.17389 2.77205 0
M  V30 3107 H 267.259 -2.86475 1.56843 0
M  V30 3108 H 265.918 -1.61067 3.29322 0
M  V30 3109 H 265.566 -4.06462 2.96306 0
M  V30 3110 H 265.266 -3.58817 4.65322 0
M  V30 3111 H 266.79 -4.41356 4.21945 0
M  V30 3112 H 268.204 -2.37364 5.21854 0
M  V30 3113 H 266.601 -1.77272 5.73319 0
M  V30 3114 H 267.671 -0.714451 4.79608 0
M  V30 3115 N 269.014 -1.53014 -0.377408 0
M  V30 3116 C 269.977 -1.77957 -1.44444 0
M  V30 3117 C 270.977 -0.649763 -1.47087 0
M  V30 3118 O 272.167 -0.917897 -1.48055 0
M  V30 3119 C 269.299 -1.89089 -2.83651 0
M  V30 3120 H 270.492 -2.73243 -1.23606 0
M  V30 3121 H 268.045 -1.43912 -0.609844 0
M  V30 3122 H 268.78 -0.958293 -3.09818 0
M  V30 3123 H 268.565 -2.71254 -2.83132 0
M  V30 3124 H 270.055 -2.1002 -3.60945 0
M  V30 3125 N 270.492 0.636531 -1.44174 0
M  V30 3126 C 271.402 1.77754 -1.53103 0
M  V30 3127 C 272.418 1.68928 -0.417034 0
M  V30 3128 O 273.594 1.89801 -0.6736 0
M  V30 3129 C 270.659 3.14115 -1.46741 0
M  V30 3130 C 269.72 3.34612 -2.68948 0
M  V30 3131 C 268.953 4.64467 -2.6288 0
M  V30 3132 O 269.176 5.44919 -1.68581 0
M  V30 3133 O 268.11 4.87049 -3.53648 0
M  V30 3134 H 271.936 1.73174 -2.49489 0
M  V30 3135 H 269.521 0.79709 -1.2636 0
M  V30 3136 H 271.403 3.95412 -1.45696 0
M  V30 3137 H 270.078 3.19249 -0.534975 0
M  V30 3138 H 268.985 2.53014 -2.75562 0
M  V30 3139 H 270.318 3.34336 -3.61221 0
M  V30 3140 N 271.97 1.30982 0.876444 0
M  V30 3141 C 273.217 1.20296 1.62896 0
M  V30 3142 C 273.545 -0.240395 1.93009 0
M  V30 3143 O 272.8 -1.18733 1.55567 0
M  V30 3144 C 273.099 1.98572 2.9716 0
M  V30 3145 C 272.765 3.48125 2.86566 0
M  V30 3146 C 271.427 3.88905 2.83383 0
M  V30 3147 C 273.779 4.43322 2.74071 0
M  V30 3148 C 271.107 5.2316 2.65556 0
M  V30 3149 C 273.459 5.77695 2.57781 0
M  V30 3150 C 272.123 6.17704 2.52979 0
M  V30 3151 H 271.393 0.440193 0.59608 0
M  V30 3152 H 274.04 1.62177 1.01837 0
M  V30 3153 H 272.345 1.49352 3.62217 0
M  V30 3154 H 274.042 1.8769 3.54364 0
M  V30 3155 H 270.632 3.15723 2.89856 0
M  V30 3156 H 274.816 4.12752 2.75589 0
M  V30 3157 H 270.072 5.53241 2.60259 0
M  V30 3158 H 274.246 6.51091 2.47089 0
M  V30 3159 H 271.873 7.21678 2.38924 0
M  V30 3160 N 273.449 -1.08991 1.13837 0
M  V30 3161 C 274.679 -1.84743 0.924859 0
M  V30 3162 C 275.087 -1.81629 -0.529874 0
M  V30 3163 O 274.43 -1.21397 -1.37872 0
M  V30 3164 C 274.492 -3.33568 1.34061 0
M  V30 3165 C 274.156 -3.60425 2.80968 0
M  V30 3166 C 275.153 -3.55771 3.79108 0
M  V30 3167 C 272.838 -3.88627 3.18236 0
M  V30 3168 C 274.832 -3.78939 5.12527 0
M  V30 3169 C 272.519 -4.11449 4.51833 0
M  V30 3170 C 273.517 -4.06598 5.48787 0
M  V30 3171 O 273.205 -4.28826 6.79973 0
M  V30 3172 H 272.937 -0.590258 0.329502 0
M  V30 3173 H 275.491 -1.38598 1.51591 0
M  V30 3174 H 273.721 -3.80442 0.692853 0
M  V30 3175 H 275.41 -3.90743 1.09886 0
M  V30 3176 H 276.176 -3.34005 3.51661 0
M  V30 3177 H 272.055 -3.91526 2.43369 0
M  V30 3178 H 275.599 -3.75068 5.88192 0
M  V30 3179 H 271.496 -4.32698 4.79002 0
M  V30 3180 H 272.264 -4.46264 6.86142 0
M  V30 3181 N 274.927 -0.932562 -1.27047 0
M  V30 3182 C 275.877 -0.406392 -2.24349 0
M  V30 3183 C 276.861 0.492066 -1.53191 0
M  V30 3184 O 278.053 0.328717 -1.73921 0
M  V30 3185 C 275.182 0.335214 -3.41659 0
M  V30 3186 C 274.268 -0.58004 -4.20115 0
M  V30 3187 N 274.659 -1.70203 -4.76303 0
M  V30 3188 C 272.957 -0.383974 -4.44344 0
M  V30 3189 C 273.658 -2.27167 -5.35509 0
M  V30 3190 N 272.634 -1.56068 -5.20715 0
M  V30 3191 H 276.436 -1.26299 -2.65378 0
M  V30 3192 H 273.95 -0.787408 -1.42034 0
M  V30 3193 H 275.947 0.729142 -4.10474 0
M  V30 3194 H 274.607 1.18868 -3.0216 0
M  V30 3195 H 275.618 -2.08433 -4.74106 0
M  V30 3196 H 272.295 0.428436 -4.15296 0
M  V30 3197 H 273.685 -3.21654 -5.89905 0
M  V30 3198 N 276.405 1.4127 -0.698611 0
M  V30 3199 C 277.816 1.84187 -0.305289 0
M  V30 3200 C 278.167 1.58449 1.15708 0
M  V30 3201 O 277.292 1.05651 1.88856 0
M  V30 3202 C 277.887 3.3435 -0.547314 0
M  V30 3203 C 276.446 3.75826 -0.207878 0
M  V30 3204 C 275.593 2.64647 -0.828099 0
M  V30 3205 H 278.544 1.30778 -0.89904 0
M  V30 3206 H 278.565 3.8001 0.192998 0
M  V30 3207 H 278.077 3.53051 -1.61172 0
M  V30 3208 H 276.178 3.62725 0.852143 0
M  V30 3209 H 276.291 4.74462 -0.665021 0
M  V30 3210 H 274.655 2.53395 -0.257458 0
M  V30 3211 H 275.438 2.86165 -1.89643 0
M  V30 3212 N 277.883 0.443576 1.51229 0
M  V30 3213 C 279.131 -0.120557 2.0174 0
M  V30 3214 C 279.452 -1.42665 1.32935 0
M  V30 3215 O 278.722 -1.9028 0.465866 0
M  V30 3216 H 277.302 -0.0475426 0.745486 0
M  V30 3217 H 279.964 0.587711 1.85828 0
M  V30 3218 H 279.06 -0.291972 3.10731 0
M  V30 3219 N 279.361 -1.56624 0.175154 0
M  V30 3220 C 280.293 -2.15333 -0.785128 0
M  V30 3221 C 281.306 -1.1099 -1.19101 0
M  V30 3222 O 282.495 -1.38162 -1.13019 0
M  V30 3223 C 279.595 -2.68427 -2.06882 0
M  V30 3224 C 278.768 -3.97466 -1.8259 0
M  V30 3225 C 277.827 -4.35585 -2.95215 0
M  V30 3226 O 276.853 -5.03389 -2.65684 0
M  V30 3227 N 278.055 -3.97457 -4.23094 0
M  V30 3228 H 280.82 -2.98359 -0.283187 0
M  V30 3229 H 278.381 -1.61898 -0.00749817 0
M  V30 3230 H 280.373 -2.90924 -2.81328 0
M  V30 3231 H 278.943 -1.89968 -2.48256 0
M  V30 3232 H 278.163 -3.83307 -0.920287 0
M  V30 3233 H 279.451 -4.81736 -1.63733 0
M  V30 3234 H 278.849 -3.42878 -4.49945 0
M  V30 3235 H 277.406 -4.24947 -4.9423 0
M  V30 3236 N 280.839 0.0985539 -1.57292 0
M  V30 3237 C 281.749 1.13824 -2.05137 0
M  V30 3238 C 282.765 1.44076 -0.975604 0
M  V30 3239 O 283.941 1.54786 -1.28853 0
M  V30 3240 C 281.006 2.43969 -2.46333 0
M  V30 3241 C 280.067 2.2093 -3.68087 0
M  V30 3242 C 279.3 3.44869 -4.0731 0
M  V30 3243 O 279.523 4.52972 -3.46659 0
M  V30 3244 O 278.457 3.34661 -5.00285 0
M  V30 3245 H 282.283 0.761881 -2.93988 0
M  V30 3246 H 279.868 0.310818 -1.46131 0
M  V30 3247 H 281.75 3.20609 -2.73473 0
M  V30 3248 H 280.425 2.81038 -1.60621 0
M  V30 3249 H 279.332 1.42081 -3.46069 0
M  V30 3250 H 280.665 1.88755 -4.54568 0
M  V30 3251 N 282.317 1.53212 0.369288 0
M  V30 3252 C 283.547 1.72868 1.13139 0
M  V30 3253 C 283.955 0.455754 1.83629 0
M  V30 3254 O 283.298 -0.580861 1.74275 0
M  V30 3255 C 283.36 2.83667 2.20847 0
M  V30 3256 C 283.024 4.24142 1.70155 0
M  V30 3257 C 284.021 5.06619 1.16763 0
M  V30 3258 C 281.706 4.70539 1.7578 0
M  V30 3259 C 283.7 6.33581 0.696678 0
M  V30 3260 C 281.387 5.97481 1.28297 0
M  V30 3261 C 282.385 6.78833 0.753307 0
M  V30 3262 O 282.073 8.03393 0.285475 0
M  V30 3263 H 281.805 0.581707 0.344373 0
M  V30 3264 H 284.359 2.00736 0.435243 0
M  V30 3265 H 282.589 2.51265 2.93944 0
M  V30 3266 H 284.278 2.91536 2.82421 0
M  V30 3267 H 285.044 4.71948 1.11758 0
M  V30 3268 H 280.923 4.07293 2.15949 0
M  V30 3269 H 284.467 6.97027 0.282581 0
M  V30 3270 H 280.364 6.31651 1.32994 0
M  V30 3271 H 281.132 8.17497 0.405145 0
M  V30 3272 N 283.795 -0.628877 1.44509 0
M  V30 3273 C 284.743 -1.76193 1.51852 0
M  V30 3274 C 285.737 -1.64849 0.390042 0
M  V30 3275 O 286.943 -1.709 0.565082 0
M  V30 3276 H 283.318 -0.581728 0.476547 0
M  V30 3277 H 285.289 -1.67123 2.47209 0
M  V30 3278 C 284.038 -3.14533 1.48204 0
M  V30 3279 H 283.361 -3.23911 2.34354 0
M  V30 3280 H 284.801 -3.93701 1.57402 0
M  V30 3281 C 283.26 -3.36287 0.203142 0
M  V30 3282 O 283.79 -3.9509 -0.725745 0
M  V30 3283 N 281.996 -2.90408 0.105563 0
M  V30 3284 H 281.543 -2.42739 0.862301 0
M  V30 3285 H 281.501 -3.05339 -0.749371 0
M  V30 3286 N 285.273 -1.31445 -0.869486 0
M  V30 3287 C 286.519 -1.21337 -1.62496 0
M  V30 3288 C 286.852 0.227872 -1.92858 0
M  V30 3289 O 286.127 1.16094 -1.56053 0
M  V30 3290 C 286.41 -2.05814 -2.95487 0
M  V30 3291 C 286.263 -3.5824 -2.72 0
M  V30 3292 C 287.582 -1.9079 -3.96594 0
M  V30 3293 H 284.701 -0.442135 -0.589649 0
M  V30 3294 H 287.343 -1.6124 -1.00507 0
M  V30 3295 H 285.493 -1.71913 -3.48394 0
M  V30 3296 H 287.165 -4.0228 -2.25762 0
M  V30 3297 H 285.408 -3.81647 -2.06224 0
M  V30 3298 H 286.079 -4.12657 -3.66631 0
M  V30 3299 H 288.555 -2.20459 -3.52898 0
M  V30 3300 H 287.431 -2.52199 -4.87531 0
M  V30 3301 H 287.692 -0.871341 -4.33428 0
M  V30 3302 N 286.751 1.08385 -1.14413 0
M  V30 3303 C 288.167 1.32844 -0.884563 0
M  V30 3304 C 288.367 1.95841 0.474181 0
M  V30 3305 O 287.423 2.21158 1.21842 0
M  V30 3306 C 288.736 2.22978 -2.01745 0
M  V30 3307 C 290.284 2.36458 -2.05077 0
M  V30 3308 C 290.759 3.29934 -3.1766 0
M  V30 3309 N 292.25 3.37511 -3.17239 0
M  V30 3310 C 292.985 4.09871 -4.0099 0
M  V30 3311 N 292.481 4.84936 -4.94781 0
M  V30 3312 N 294.274 4.05704 -3.89051 0
M  V30 3313 H 286.425 0.658756 -2.01926 0
M  V30 3314 H 288.688 0.352821 -0.879899 0
M  V30 3315 H 288.394 1.83934 -2.99769 0
M  V30 3316 H 288.268 3.23441 -1.94077 0
M  V30 3317 H 290.655 2.7476 -1.0766 0
M  V30 3318 H 290.736 1.35736 -2.16816 0
M  V30 3319 H 290.38 2.92352 -4.15322 0
M  V30 3320 H 290.31 4.30584 -3.03158 0
M  V30 3321 H 292.801 2.83996 -2.49308 0
M  V30 3322 H 293.114 5.37612 -5.55151 0
M  V30 3323 H 291.459 4.83988 -4.98779 0
M  V30 3324 H 294.65 3.46167 -3.15097 0
M  V30 3325 H 294.823 4.61834 -4.54547 0
M  V30 3326 N 288.23 0.939286 1.26551 0
M  V30 3327 C 289.476 0.586715 1.94128 0
M  V30 3328 C 289.809 -0.8717 1.73537 0
M  V30 3329 O 289.084 -1.62339 1.07127 0
M  V30 3330 C 289.367 0.927497 3.4795 0
M  V30 3331 C 289.22 2.44052 3.77834 0
M  V30 3332 C 290.539 0.441569 4.37879 0
M  V30 3333 H 287.658 0.21463 0.705055 0
M  V30 3334 H 290.3 1.17316 1.49455 0
M  V30 3335 H 288.45 0.428431 3.8613 0
M  V30 3336 H 290.122 3.01216 3.4938 0
M  V30 3337 H 288.365 2.8848 3.23978 0
M  V30 3338 H 289.036 2.62947 4.85348 0
M  V30 3339 H 291.512 0.869448 4.06915 0
M  V30 3340 H 290.388 0.708856 5.44304 0
M  V30 3341 H 290.649 -0.658467 4.37169 0
M  V30 3342 N 289.708 -1.40897 0.706093 0
M  V30 3343 C 290.671 -2.29131 0.0562841 0
M  V30 3344 C 291.671 -1.44901 -0.697166 0
M  V30 3345 O 292.861 -1.65926 -0.530484 0
M  V30 3346 C 289.993 -3.27957 -0.93043 0
M  V30 3347 H 291.186 -2.88091 0.833284 0
M  V30 3348 H 288.739 -1.4906 0.470192 0
M  V30 3349 H 289.474 -2.73997 -1.73482 0
M  V30 3350 H 289.259 -3.90124 -0.393166 0
M  V30 3351 H 290.749 -3.94049 -1.38256 0
M  V30 3352 N 291.186 -0.45159 -1.50991 0
M  V30 3353 C 292.411 0.110667 -2.07105 0
M  V30 3354 C 292.836 1.3446 -1.31538 0
M  V30 3355 O 292.194 1.77743 -0.357365 0
M  V30 3356 C 292.242 0.397238 -3.58405 0
M  V30 3357 O 291.346 1.48124 -3.84881 0
M  V30 3358 H 290.687 -0.00439271 -0.663985 0
M  V30 3359 H 293.217 -0.637026 -1.9443 0
M  V30 3360 H 293.227 0.64351 -4.02893 0
M  V30 3361 H 291.902 -0.504553 -4.12828 0
M  V30 3362 H 290.479 1.22381 -3.52246 0
M  V30 3363 N 292.664 1.56529 -0.183458 0
M  V30 3364 C 294.08 1.58664 0.172554 0
M  V30 3365 C 294.28 1.19925 1.61926 0
M  V30 3366 O 293.336 0.916534 2.35278 0
M  V30 3367 C 294.649 3.00463 -0.119262 0
M  V30 3368 C 296.197 3.12945 -0.0584396 0
M  V30 3369 C 296.672 4.56857 -0.323408 0
M  V30 3370 N 298.163 4.62403 -0.271612 0
M  V30 3371 C 298.898 5.71626 -0.450639 0
M  V30 3372 N 298.394 6.89362 -0.689384 0
M  V30 3373 N 300.187 5.60775 -0.385701 0
M  V30 3374 H 292.338 1.79994 -1.12765 0
M  V30 3375 H 294.601 0.834808 -0.449222 0
M  V30 3376 H 294.307 3.33326 -1.12192 0
M  V30 3377 H 294.181 3.72659 0.583544 0
M  V30 3378 H 296.568 2.79902 0.934805 0
M  V30 3379 H 296.649 2.4316 -0.794144 0
M  V30 3380 H 296.293 4.9061 -1.31392 0
M  V30 3381 H 296.223 5.24816 0.43305 0
M  V30 3382 H 298.714 3.77785 -0.0932256 0
M  V30 3383 H 299.027 7.68489 -0.815113 0
M  V30 3384 H 297.372 6.91196 -0.726142 0
M  V30 3385 H 300.563 4.67674 -0.199687 0
M  V30 3386 H 300.736 6.4584 -0.528646 0
M  V30 3387 N 294.142 -0.090211 1.57342 0
M  V30 3388 C 295.372 -0.805055 1.90269 0
M  V30 3389 C 295.78 -1.72561 0.775842 0
M  V30 3390 O 295.123 -1.81839 -0.260843 0
M  V30 3391 C 295.185 -1.66734 3.18497 0
M  V30 3392 C 294.849 -0.918092 4.47683 0
M  V30 3393 C 295.846 -0.245674 5.19319 0
M  V30 3394 C 293.531 -0.890724 4.94339 0
M  V30 3395 C 295.525 0.444088 6.35851 0
M  V30 3396 C 293.212 -0.197179 6.10782 0
M  V30 3397 C 294.21 0.469044 6.81388 0
M  V30 3398 O 293.898 1.15146 7.95611 0
M  V30 3399 H 293.63 -0.235143 0.633785 0
M  V30 3400 H 296.184 -0.0703805 2.05279 0
M  V30 3401 H 294.414 -2.44437 2.99646 0
M  V30 3402 H 296.103 -2.25919 3.37217 0
M  V30 3403 H 296.869 -0.258246 4.84312 0
M  V30 3404 H 292.748 -1.39873 4.39268 0
M  V30 3405 H 296.292 0.964667 6.90898 0
M  V30 3406 H 292.189 -0.18247 6.45242 0
M  V30 3407 H 292.957 1.05885 8.11622 0
M  V30 3408 N 295.62 -1.53406 -0.361157 0
M  V30 3409 C 296.85 -1.73465 -1.1222 0
M  V30 3410 C 297.258 -0.465486 -1.83384 0
M  V30 3411 O 296.601 0.571611 -1.7458 0
M  V30 3412 C 296.663 -2.84834 -2.19339 0
M  V30 3413 C 296.327 -4.25038 -1.67903 0
M  V30 3414 C 297.324 -5.07231 -1.14074 0
M  V30 3415 C 295.009 -4.71464 -1.73282 0
M  V30 3416 C 297.003 -6.33942 -0.663068 0
M  V30 3417 C 294.69 -5.98153 -1.25127 0
M  V30 3418 C 295.688 -6.79223 -0.717296 0
M  V30 3419 O 295.376 -8.03533 -0.242865 0
M  V30 3420 H 295.108 -0.583526 -0.341283 0
M  V30 3421 H 297.662 -2.00964 -0.424591 0
M  V30 3422 H 295.892 -2.5282 -2.92607 0
M  V30 3423 H 297.581 -2.9303 -2.80871 0
M  V30 3424 H 298.347 -4.72534 -1.09254 0
M  V30 3425 H 294.226 -4.08432 -2.13786 0
M  V30 3426 H 297.77 -6.97167 -0.245612 0
M  V30 3427 H 293.667 -6.32347 -1.29642 0
M  V30 3428 H 294.435 -8.177 -0.361786 0
M  V30 3429 N 297.098 0.621204 -1.44841 0
M  V30 3430 C 298.045 1.73267 -1.5247 0
M  V30 3431 C 299.015 1.6189 -0.371611 0
M  V30 3432 O 300.2 1.81668 -0.58321 0
M  V30 3433 C 297.34 3.11545 -1.48438 0
M  V30 3434 C 296.453 3.33827 -2.74196 0
M  V30 3435 C 295.588 4.62133 -2.61929 0
M  V30 3436 C 294.627 4.77627 -3.82804 0
M  V30 3437 N 293.764 5.97219 -3.69153 0
M  V30 3438 H 298.604 1.66082 -2.47428 0
M  V30 3439 H 296.141 0.810026 -1.22788 0
M  V30 3440 H 298.099 3.91528 -1.4409 0
M  V30 3441 H 296.729 3.1772 -0.570402 0
M  V30 3442 H 295.781 2.47715 -2.88689 0
M  V30 3443 H 297.093 3.41153 -3.6389 0
M  V30 3444 H 296.247 5.50291 -2.5547 0
M  V30 3445 H 294.986 4.57182 -1.69811 0
M  V30 3446 H 293.991 3.87896 -3.89637 0
M  V30 3447 H 295.216 4.84385 -4.75971 0
M  V30 3448 H 293.162 5.93339 -2.79794 0
M  V30 3449 H 293.079 6.05644 -4.52472 0
M  V30 3450 H 294.347 6.87912 -3.66603 0
M  V30 3451 N 298.576 1.31904 0.862503 0
M  V30 3452 C 299.824 1.21776 1.61292 0
M  V30 3453 C 300.145 -0.222413 1.93727 0
M  V30 3454 O 299.415 -1.1451 1.58947 0
M  V30 3455 H 297.995 0.447717 0.597962 0
M  V30 3456 H 300.657 1.65326 1.03215 0
M  V30 3457 H 299.753 1.7948 2.5533 0
M  V30 3458 N 300.054 -1.07777 1.14986 0
M  V30 3459 C 301.465 -1.61766 0.932127 0
M  V30 3460 C 301.816 -1.88974 -0.527581 0
M  V30 3461 O 300.941 -1.65198 -1.39781 0
M  V30 3462 C 301.536 -2.93891 1.68563 0
M  V30 3463 C 300.095 -3.44639 1.5133 0
M  V30 3464 C 299.242 -2.18767 1.704 0
M  V30 3465 H 302.193 -0.909201 1.30074 0
M  V30 3466 H 302.214 -3.62623 1.15259 0
M  V30 3467 H 301.726 -2.74057 2.74799 0
M  V30 3468 H 299.827 -3.69564 0.474702 0
M  V30 3469 H 299.94 -4.20966 2.28746 0
M  V30 3470 H 298.304 -2.28253 1.13016 0
M  V30 3471 H 299.087 -2.01433 2.77992 0
M  V30 3472 N 301.532 -0.945985 -1.26051 0
M  V30 3473 C 302.442 -0.465633 -2.29933 0
M  V30 3474 C 303.458 0.462761 -1.67733 0
M  V30 3475 O 304.634 0.341118 -1.9849 0
M  V30 3476 C 301.699 0.256994 -3.45746 0
M  V30 3477 C 300.76 -0.708549 -4.23412 0
M  V30 3478 C 299.993 -0.0203135 -5.33696 0
M  V30 3479 O 300.216 1.19571 -5.57726 0
M  V30 3480 O 299.15 -0.701459 -5.97799 0
M  V30 3481 H 302.976 -1.32866 -2.73094 0
M  V30 3482 H 300.561 -0.712071 -1.31339 0
M  V30 3483 H 302.443 0.663852 -4.16138 0
M  V30 3484 H 301.118 1.09533 -3.04605 0
M  V30 3485 H 300.025 -1.16545 -3.55483 0
M  V30 3486 H 301.358 -1.51465 -4.68315 0
M  V30 3487 N 303.011 1.40521 -0.713556 0
M  V30 3488 C 303.941 2.33381 -0.0743864 0
M  V30 3489 C 304.922 1.52784 0.747735 0
M  V30 3490 O 306.107 1.81258 0.697071 0
M  V30 3491 C 303.237 3.36748 0.849598 0
M  V30 3492 C 302.191 4.27793 0.133247 0
M  V30 3493 C 301.517 5.21679 1.17281 0
M  V30 3494 C 302.817 5.12415 -1.01134 0
M  V30 3495 H 304.511 2.87081 -0.850007 0
M  V30 3496 H 302.057 1.38034 -0.410201 0
M  V30 3497 H 304.01 4.00648 1.30612 0
M  V30 3498 H 302.734 2.81439 1.65709 0
M  V30 3499 H 301.393 3.65342 -0.303426 0
M  V30 3500 H 301.041 4.62677 1.9733 0
M  V30 3501 H 300.741 5.83435 0.698397 0
M  V30 3502 H 302.265 5.88456 1.62947 0
M  V30 3503 H 303.679 5.69781 -0.634274 0
M  V30 3504 H 302.076 5.83203 -1.41399 0
M  V30 3505 H 303.146 4.48514 -1.84292 0
M  V30 3506 N 304.489 0.459591 1.5075 0
M  V30 3507 C 305.419 -0.330644 2.31147 0
M  V30 3508 C 306.4 -1.00087 1.37538 0
M  V30 3509 O 307.585 -1.00025 1.66459 0
M  V30 3510 C 304.715 -1.41958 3.16962 0
M  V30 3511 C 303.669 -0.871608 4.19031 0
M  V30 3512 C 302.995 -2.05797 4.9351 0
M  V30 3513 C 304.295 0.109251 5.22186 0
M  V30 3514 H 305.989 0.340336 2.97459 0
M  V30 3515 H 303.535 0.165119 1.4305 0
M  V30 3516 H 305.488 -1.9798 3.71997 0
M  V30 3517 H 304.212 -2.11917 2.48513 0
M  V30 3518 H 302.871 -0.333442 3.6508 0
M  V30 3519 H 302.519 -2.74427 4.21544 0
M  V30 3520 H 302.219 -1.6976 5.62544 0
M  V30 3521 H 303.743 -2.62331 5.51375 0
M  V30 3522 H 305.157 -0.361405 5.7216 0
M  V30 3523 H 303.554 0.383316 5.98875 0
M  V30 3524 H 304.624 1.03887 4.73641 0
M  V30 3525 N 305.967 -1.56429 0.191757 0
M  V30 3526 C 307.216 -1.9666 -0.448088 0
M  V30 3527 C 307.529 -1.08136 -1.62991 0
M  V30 3528 O 308.735 -1.38135 -2.33733 0
M  V30 3529 C 307.191 -3.49753 -0.848585 0
M  V30 3530 C 306.799 -4.46935 0.308764 0
M  V30 3531 C 308.543 -3.9876 -1.4557 0
M  V30 3532 C 306.45 -5.91293 -0.112506 0
M  V30 3533 H 305.38 -0.734312 -0.171179 0
M  V30 3534 H 308.031 -1.81301 0.283242 0
M  V30 3535 H 306.413 -3.60604 -1.63649 0
M  V30 3536 H 307.587 -4.47813 1.08627 0
M  V30 3537 H 305.902 -4.08102 0.827158 0
M  V30 3538 H 308.499 -5.04086 -1.78328 0
M  V30 3539 H 308.842 -3.42875 -2.36099 0
M  V30 3540 H 309.375 -3.9101 -0.731836 0
M  V30 3541 H 306.114 -6.51097 0.758514 0
M  V30 3542 H 305.634 -5.93676 -0.854941 0
M  V30 3543 H 307.313 -6.44663 -0.549448 0
M  V30 3544 N 307.445 0.0818655 -1.57387 0
M  V30 3545 C 308.722 0.815343 -1.77796 0
M  V30 3546 C 309.102 1.96289 -0.77679 0
M  V30 3547 O 308.45 2.27691 0.192106 0
M  V30 3548 C 308.66 1.29765 -3.23978 0
M  V30 3549 C 310.008 1.7351 -3.8753 0
M  V30 3550 O 311.032 1.39356 -3.27808 0
M  V30 3551 O 309.891 2.36708 -4.92576 0
M  V30 3552 H 306.985 0.389914 -0.729312 0
M  V30 3553 H 309.531 0.0627213 -1.69584 0
M  V30 3554 H 308.303 0.47608 -3.88393 0
M  V30 3555 H 307.926 2.11189 -3.36875 0
M  V30 3556 N 308.923 1.53595 0.353017 0
M  V30 3557 C 309.853 1.83902 1.43883 0
M  V30 3558 C 310.834 0.693421 1.55324 0
M  V30 3559 O 312.019 0.944452 1.69687 0
M  V30 3560 C 309.149 2.04016 2.8106 0
M  V30 3561 C 308.103 3.19814 2.84434 0
M  V30 3562 C 307.429 3.25244 4.24406 0
M  V30 3563 C 308.729 4.58133 2.50822 0
M  V30 3564 H 310.423 2.74835 1.1877 0
M  V30 3565 H 307.969 1.32242 0.569917 0
M  V30 3566 H 309.922 2.238 3.57059 0
M  V30 3567 H 308.646 1.09804 3.07588 0
M  V30 3568 H 307.305 2.9987 2.10887 0
M  V30 3569 H 306.953 2.28646 4.48029 0
M  V30 3570 H 306.653 4.03054 4.27576 0
M  V30 3571 H 308.177 3.47228 5.0226 0
M  V30 3572 H 309.591 4.77995 3.16534 0
M  V30 3573 H 307.988 5.38276 2.6529 0
M  V30 3574 H 309.058 4.62387 1.46034 0
M  V30 3575 N 310.401 -0.613514 1.45168 0
M  V30 3576 C 311.333 -1.73825 1.4939 0
M  V30 3577 C 312.346 -1.58175 0.385304 0
M  V30 3578 O 313.535 -1.66165 0.652036 0
M  V30 3579 C 310.635 -3.11758 1.32891 0
M  V30 3580 C 309.808 -3.53704 2.57317 0
M  V30 3581 C 308.867 -4.70579 2.35462 0
M  V30 3582 O 307.893 -4.77996 3.09044 0
M  V30 3583 N 309.095 -5.63454 1.39644 0
M  V30 3584 H 311.86 -1.70669 2.46358 0
M  V30 3585 H 309.421 -0.79862 1.40832 0
M  V30 3586 H 311.413 -3.87692 1.1609 0
M  V30 3587 H 309.983 -3.09456 0.442218 0
M  V30 3588 H 309.203 -2.67794 2.89275 0
M  V30 3589 H 310.491 -3.78486 3.40038 0
M  V30 3590 H 309.889 -5.6017 0.789062 0
M  V30 3591 H 308.446 -6.38944 1.28816 0
M  V30 3592 N 311.879 -1.3236 -0.855495 0
M  V30 3593 C 312.809 -1.23833 -1.97958 0
M  V30 3594 C 313.79 -0.122361 -1.69659 0
M  V30 3595 O 314.975 -0.30939 -1.9172 0
M  V30 3596 C 312.105 -0.959772 -3.33775 0
M  V30 3597 C 311.059 -2.03689 -3.76424 0
M  V30 3598 C 310.385 -1.61075 -5.09862 0
M  V30 3599 C 311.685 -3.4518 -3.9198 0
M  V30 3600 H 313.379 -2.1788 -2.0535 0
M  V30 3601 H 310.925 -1.04891 -0.986605 0
M  V30 3602 H 312.878 -0.886678 -4.11966 0
M  V30 3603 H 311.602 0.0163404 -3.26596 0
M  V30 3604 H 310.261 -2.10012 -3.00484 0
M  V30 3605 H 309.909 -0.622107 -4.99138 0
M  V30 3606 H 309.609 -2.33143 -5.39368 0
M  V30 3607 H 311.133 -1.55201 -5.90546 0
M  V30 3608 H 312.547 -3.4145 -4.60526 0
M  V30 3609 H 310.944 -4.1559 -4.32903 0
M  V30 3610 H 312.014 -3.84903 -2.94919 0
M  V30 3611 N 313.357 1.07166 -1.15556 0
M  V30 3612 C 314.587 1.83248 -0.954133 0
M  V30 3613 C 314.995 1.82449 0.500911 0
M  V30 3614 O 314.338 1.23575 1.35923 0
M  V30 3615 C 314.4 3.31393 -1.39351 0
M  V30 3616 C 314.064 3.5591 -2.86666 0
M  V30 3617 C 315.061 3.49695 -3.8472 0
M  V30 3618 C 312.746 3.83515 -3.24379 0
M  V30 3619 C 314.74 3.70737 -5.18491 0
M  V30 3620 C 312.427 4.04209 -4.58321 0
M  V30 3621 C 313.425 3.97815 -5.55186 0
M  V30 3622 O 313.113 4.17954 -6.86709 0
M  V30 3623 H 312.845 0.584941 -0.338851 0
M  V30 3624 H 315.399 1.36169 -1.53777 0
M  V30 3625 H 313.629 3.79292 -0.75329 0
M  V30 3626 H 315.318 3.88945 -1.16089 0
M  V30 3627 H 316.084 3.28368 -3.56931 0
M  V30 3628 H 311.963 3.87605 -2.49567 0
M  V30 3629 H 315.507 3.65663 -5.94085 0
M  V30 3630 H 311.404 4.25023 -4.85825 0
M  V30 3631 H 312.172 4.35291 -6.93155 0
M  V30 3632 N 314.835 0.952656 1.25548 0
M  V30 3633 C 316.112 0.523818 1.88456 0
M  V30 3634 C 316.492 -0.998871 1.85973 0
M  V30 3635 O 315.84 -1.86381 1.3219 0
M  V30 3636 C 316.05 1.0982 3.31271 0
M  V30 3637 C 317.398 1.17385 4.08051 0
M  V30 3638 O 318.422 1.04961 3.40384 0
M  V30 3639 O 317.281 1.36852 5.29088 0
M  V30 3640 H 314.375 0.172485 0.808813 0
M  V30 3641 H 316.921 1.04596 1.33633 0
M  V30 3642 H 315.693 2.1415 3.27499 0
M  V30 3643 H 315.316 0.559191 3.93648 0
M  V30 3644 N 316.313 -1.40141 0.720998 0
M  V30 3645 C 317.543 -2.04798 0.27226 0
M  V30 3646 C 317.951 -1.54442 -1.09289 0
M  V30 3647 O 317.294 -0.698342 -1.69908 0
M  V30 3648 C 317.356 -3.59048 0.18027 0
M  V30 3649 C 317.02 -4.32317 1.48159 0
M  V30 3650 C 318.017 -4.59902 2.42458 0
M  V30 3651 C 315.702 -4.71125 1.74202 0
M  V30 3652 C 317.696 -5.25288 3.61042 0
M  V30 3653 C 315.383 -5.36242 2.93066 0
M  V30 3654 C 316.381 -5.63254 3.86308 0
M  V30 3655 O 316.069 -6.27024 5.03086 0
M  V30 3656 H 315.801 -0.665419 0.119139 0
M  V30 3657 H 318.355 -1.80436 0.981432 0
M  V30 3658 H 316.585 -3.82251 -0.58489 0
M  V30 3659 H 318.274 -4.05221 -0.234618 0
M  V30 3660 H 319.04 -4.30379 2.23604 0
M  V30 3661 H 314.919 -4.49466 1.02477 0
M  V30 3662 H 318.463 -5.46289 4.33837 0
M  V30 3663 H 314.36 -5.65185 3.11826 0
M  V30 3664 H 315.128 -6.4552 5.03235 0
M  V30 3665 N 317.792 -0.46758 -1.50504 0
M  V30 3666 C 319.017 0.0886943 -2.0721 0
M  V30 3667 C 319.442 1.33057 -1.32956 0
M  V30 3668 O 318.8 1.77354 -0.376197 0
M  V30 3669 C 318.848 0.359202 -3.58806 0
M  V30 3670 O 317.952 1.44034 -3.8643 0
M  V30 3671 H 317.293 -0.0114349 -0.663902 0
M  V30 3672 H 319.823 -0.657613 -1.93744 0
M  V30 3673 H 319.833 0.600742 -4.03553 0
M  V30 3674 H 318.508 -0.548311 -4.1227 0
M  V30 3675 H 317.085 1.18638 -3.53524 0
M  V30 3676 N 319.27 1.56325 -0.20005 0
M  V30 3677 C 320.2 2.22318 0.713916 0
M  V30 3678 C 321.181 1.18788 1.21752 0
M  V30 3679 O 322.366 1.47309 1.26545 0
M  V30 3680 C 319.496 2.88639 1.93144 0
M  V30 3681 C 318.45 3.98457 1.56255 0
M  V30 3682 C 317.776 4.51967 2.85709 0
M  V30 3683 C 319.076 5.16612 0.768747 0
M  V30 3684 H 320.77 2.98952 0.163755 0
M  V30 3685 H 318.316 1.43792 0.0773219 0
M  V30 3686 H 320.269 3.33491 2.57608 0
M  V30 3687 H 318.993 2.09419 2.50621 0
M  V30 3688 H 317.652 3.54305 0.941471 0
M  V30 3689 H 317.3 3.69503 3.41287 0
M  V30 3690 H 317 5.26071 2.6177 0
M  V30 3691 H 318.524 4.99523 3.51154 0
M  V30 3692 H 319.938 5.57977 1.3166 0
M  V30 3693 H 318.335 5.96812 0.627286 0
M  V30 3694 H 319.405 4.84358 -0.229168 0
M  V30 3695 N 320.748 -0.0735177 1.57428 0
M  V30 3696 C 322.025 -0.805903 1.78226 0
M  V30 3697 C 322.405 -1.95874 0.787189 0
M  V30 3698 O 321.753 -2.2779 -0.180029 0
M  V30 3699 C 321.963 -1.28045 3.24662 0
M  V30 3700 C 323.311 -1.71453 3.88444 0
M  V30 3701 O 324.335 -1.37616 3.28543 0
M  V30 3702 O 323.194 -2.34093 4.93825 0
M  V30 3703 H 320.288 -0.386041 0.73137 0
M  V30 3704 H 322.834 -0.0537269 1.69615 0
M  V30 3705 H 321.606 -0.455476 3.8864 0
M  V30 3706 H 321.229 -2.094 3.37991 0
M  V30 3707 N 322.226 -1.5378 -0.344866 0
M  V30 3708 C 323.475 -1.7018 -1.08267 0
M  V30 3709 C 323.788 -0.471 -1.89845 0
M  V30 3710 O 324.994 -0.515917 -2.66553 0
M  V30 3711 C 323.45 -3.00923 -1.97417 0
M  V30 3712 C 323.058 -4.31335 -1.21053 0
M  V30 3713 C 324.802 -3.26688 -2.71063 0
M  V30 3714 C 322.709 -5.53153 -2.09225 0
M  V30 3715 H 321.639 -0.634138 -0.407903 0
M  V30 3716 H 324.29 -1.8028 -0.342246 0
M  V30 3717 H 322.672 -2.84676 -2.75274 0
M  V30 3718 H 323.846 -4.58281 -0.481159 0
M  V30 3719 H 322.161 -4.12173 -0.591813 0
M  V30 3720 H 324.758 -4.1489 -3.37299 0
M  V30 3721 H 325.101 -2.43639 -3.37558 0
M  V30 3722 H 325.634 -3.43705 -2.0028 0
M  V30 3723 H 322.373 -6.38741 -1.47274 0
M  V30 3724 H 321.893 -5.30458 -2.79955 0
M  V30 3725 H 323.572 -5.88744 -2.68308 0
M  V30 3726 N 323.704 0.605807 -1.45491 0
M  V30 3727 C 324.95 1.36481 -1.50813 0
M  V30 3728 C 325.305 1.91826 -0.148469 0
M  V30 3729 O 324.598 1.72211 0.839869 0
M  V30 3730 C 324.792 2.53012 -2.52428 0
M  V30 3731 C 324.621 2.09078 -3.98141 0
M  V30 3732 C 323.391 1.95167 -4.66088 0
M  V30 3733 C 325.589 1.66438 -4.86624 0
M  V30 3734 N 323.571 1.45062 -5.96515 0
M  V30 3735 C 324.942 1.27761 -6.06694 0
M  V30 3736 C 326.997 1.54046 -4.7347 0
M  V30 3737 C 325.7 0.779286 -7.15066 0
M  V30 3738 C 327.726 1.05618 -5.81892 0
M  V30 3739 C 327.088 0.67906 -7.01119 0
M  V30 3740 H 323.187 0.493267 -0.606805 0
M  V30 3741 H 325.771 0.692347 -1.81974 0
M  V30 3742 H 323.942 3.17851 -2.23215 0
M  V30 3743 H 325.674 3.19897 -2.47887 0
M  V30 3744 H 322.429 2.16407 -4.21266 0
M  V30 3745 H 322.853 1.22237 -6.65873 0
M  V30 3746 H 327.495 1.81827 -3.81705 0
M  V30 3747 H 325.213 0.489026 -8.06619 0
M  V30 3748 H 328.799 0.964529 -5.73749 0
M  V30 3749 H 327.679 0.310091 -7.83587 0
M  V30 3750 N 325.182 1.32811 0.848464 0
M  V30 3751 C 326.407 1.26882 1.6406 0
M  V30 3752 C 326.832 -0.15913 1.87426 0
M  V30 3753 O 326.19 -1.11258 1.43148 0
M  V30 3754 C 326.238 2.03997 2.97351 0
M  V30 3755 O 325.342 1.39201 3.88197 0
M  V30 3756 H 324.683 0.436982 0.499943 0
M  V30 3757 H 327.213 1.75224 1.0563 0
M  V30 3758 H 327.223 2.14403 3.47124 0
M  V30 3759 H 325.898 3.0783 2.79666 0
M  V30 3760 H 324.475 1.37381 3.46671 0
M  V30 3761 N 326.66 -1.06551 1.16123 0
M  V30 3762 C 327.59 -2.15935 0.88851 0
M  V30 3763 C 328.571 -1.69306 -0.164135 0
M  V30 3764 O 329.756 -1.94193 -0.0167857 0
M  V30 3765 C 326.886 -3.45149 0.385942 0
M  V30 3766 C 325.84 -4.05271 1.3762 0
M  V30 3767 C 325.166 -5.29664 0.732137 0
M  V30 3768 C 326.466 -4.44355 2.74493 0
M  V30 3769 H 328.16 -2.39006 1.80323 0
M  V30 3770 H 325.706 -1.14866 0.868435 0
M  V30 3771 H 327.659 -4.21004 0.182647 0
M  V30 3772 H 326.383 -3.21689 -0.564274 0
M  V30 3773 H 325.042 -3.3147 1.56599 0
M  V30 3774 H 324.69 -5.02499 -0.224483 0
M  V30 3775 H 324.39 -5.70848 1.39307 0
M  V30 3776 H 325.914 -6.08218 0.538802 0
M  V30 3777 H 327.328 -5.11303 2.59311 0
M  V30 3778 H 325.725 -4.96515 3.37035 0
M  V30 3779 H 326.795 -3.55339 3.29943 0
M  V30 3780 N 328.138 -0.959301 -1.25041 0
M  V30 3781 C 329.386 -0.615393 -1.92503 0
M  V30 3782 C 329.707 0.850969 -1.75452 0
M  V30 3783 O 328.977 1.60658 -1.12098 0
M  V30 3784 H 327.557 -0.224613 -0.712431 0
M  V30 3785 H 330.219 -1.21855 -1.5211 0
M  V30 3786 H 329.315 -0.848738 -3.00338 0
M  V30 3787 N 329.616 1.39756 -0.72842 0
M  V30 3788 C 330.856 2.025 -0.278078 0
M  V30 3789 C 331.22 1.5654 1.11173 0
M  V30 3790 O 332.421 2.11435 1.65978 0
M  V30 3791 C 330.692 3.55489 -0.369139 0
M  V30 3792 S 332.251 4.388 0.00232983 0
M  V30 3793 H 329.069 0.702534 -0.109391 0
M  V30 3794 H 331.671 1.70672 -0.95348 0
M  V30 3795 H 330.375 3.86429 -1.38204 0
M  V30 3796 H 329.906 3.92061 0.324308 0
M  V30 3797 H 331.921 4.80954 1.22055 0
M  V30 3798 N 331.094 0.475555 1.50254 0
M  V30 3799 C 332.027 -0.362381 2.25304 0
M  V30 3800 C 333.005 -0.992393 1.28803 0
M  V30 3801 O 334.189 -1.02746 1.58036 0
M  V30 3802 C 331.316 -1.50813 3.03271 0
M  V30 3803 C 330.362 -0.995044 4.1473 0
M  V30 3804 S 331.195 0.0938436 5.35418 0
M  V30 3805 C 332.351 -1.05567 6.16933 0
M  V30 3806 H 332.584 0.274686 2.96028 0
M  V30 3807 H 330.117 0.260495 1.52187 0
M  V30 3808 H 332.075 -2.16476 3.48781 0
M  V30 3809 H 330.736 -2.11672 2.32064 0
M  V30 3810 H 329.929 -1.85293 4.68703 0
M  V30 3811 H 329.531 -0.416052 3.71679 0
M  V30 3812 H 331.823 -1.96636 6.48337 0
M  V30 3813 H 332.766 -0.555109 7.05921 0
M  V30 3814 H 333.174 -1.31151 5.49053 0
M  V30 3815 N 332.573 -1.56217 0.208337 0
M  V30 3816 C 333.503 -2.22694 -0.702116 0
M  V30 3817 C 334.484 -1.19432 -1.2112 0
M  V30 3818 O 335.669 -1.47978 -1.25762 0
M  V30 3819 C 332.799 -2.8966 -1.9161 0
M  V30 3820 C 331.753 -3.9928 -1.5414 0
M  V30 3821 C 331.079 -4.53476 -2.83308 0
M  V30 3822 C 332.379 -5.17012 -0.741339 0
M  V30 3823 H 334.073 -2.99034 -0.147898 0
M  V30 3824 H 331.619 -1.43831 -0.0696951 0
M  V30 3825 H 333.572 -3.34852 -2.55836 0
M  V30 3826 H 332.296 -2.10746 -2.49507 0
M  V30 3827 H 330.955 -3.54799 -0.922668 0
M  V30 3828 H 330.603 -3.71308 -3.39322 0
M  V30 3829 H 330.303 -5.27451 -2.58976 0
M  V30 3830 H 331.827 -5.01378 -3.485 0
M  V30 3831 H 333.241 -5.58667 -1.28699 0
M  V30 3832 H 331.638 -5.97137 -0.595627 0
M  V30 3833 H 332.708 -4.8423 0.254851 0
M  V30 3834 N 334.051 0.0651679 -1.57465 0
M  V30 3835 C 335.014 1.06117 -2.03155 0
M  V30 3836 C 336.014 1.31204 -0.929632 0
M  V30 3837 O 337.204 1.26813 -1.19432 0
M  V30 3838 C 334.336 2.4032 -2.41783 0
M  V30 3839 H 335.529 0.667231 -2.92383 0
M  V30 3840 H 333.082 0.311075 -1.53173 0
M  V30 3841 H 333.817 2.84532 -1.55601 0
M  V30 3842 H 333.602 2.23451 -3.22199 0
M  V30 3843 H 335.092 3.11898 -2.77685 0
M  V30 3844 N 335.529 1.53961 0.336706 0
M  V30 3845 C 336.777 1.71197 1.07405 0
M  V30 3846 C 337.098 0.481475 1.88962 0
M  V30 3847 O 336.368 -0.504585 1.8929 0
M  V30 3848 H 334.948 0.631185 0.399517 0
M  V30 3849 H 337.61 1.91232 0.376323 0
M  V30 3850 H 336.706 2.58587 1.74755 0
M  V30 3851 N 337.007 -0.598083 1.45811 0
M  V30 3852 C 337.94 -1.7223 1.49706 0
M  V30 3853 C 338.918 -1.58732 0.352535 0
M  V30 3854 O 340.102 -1.80162 0.554438 0
M  V30 3855 C 337.229 -3.10148 1.3611 0
M  V30 3856 C 336.275 -3.42209 2.54549 0
M  V30 3857 S 337.108 -3.35989 4.16979 0
M  V30 3858 C 338.264 -4.76471 4.05865 0
M  V30 3859 H 338.497 -1.68665 2.44826 0
M  V30 3860 H 336.03 -0.775541 1.33509 0
M  V30 3861 H 337.988 -3.8972 1.28953 0
M  V30 3862 H 336.649 -3.11219 0.424451 0
M  V30 3863 H 335.842 -4.42652 2.40988 0
M  V30 3864 H 335.444 -2.70173 2.58617 0
M  V30 3865 H 337.736 -5.665 3.71596 0
M  V30 3866 H 338.679 -4.95089 5.06253 0
M  V30 3867 H 339.087 -4.52599 3.37364 0
M  V30 3868 N 338.485 -1.33259 -0.841409 0
M  V30 3869 C 339.734 -1.23921 -1.59143 0
M  V30 3870 C 340.047 0.1941 -1.94635 0
M  V30 3871 O 341.253 0.409474 -2.68394 0
M  V30 3872 C 339.709 -2.17119 -2.87032 0
M  V30 3873 C 339.317 -3.65606 -2.58914 0
M  V30 3874 C 341.061 -2.16648 -3.65053 0
M  V30 3875 C 338.968 -4.50726 -3.82884 0
M  V30 3876 H 337.898 -0.460264 -0.597221 0
M  V30 3877 H 340.549 -1.58307 -0.927959 0
M  V30 3878 H 338.931 -1.75663 -3.54906 0
M  V30 3879 H 340.105 -4.15487 -1.99267 0
M  V30 3880 H 338.42 -3.68341 -1.942 0
M  V30 3881 H 341.017 -2.77474 -4.57069 0
M  V30 3882 H 341.36 -1.16088 -3.99787 0
M  V30 3883 H 341.893 -2.56453 -3.041 0
M  V30 3884 H 338.632 -5.52151 -3.53283 0
M  V30 3885 H 338.152 -4.0559 -4.41879 0
M  V30 3886 H 339.831 -4.64401 -4.50489 0
M  V30 3887 N 339.963 1.05934 -1.16686 0
M  V30 3888 C 341.21 1.788 -0.950622 0
M  V30 3889 C 341.538 1.87384 0.521305 0
M  V30 3890 O 340.793 1.36438 1.40297 0
M  V30 3891 C 341.092 3.23105 -1.52767 0
M  V30 3892 C 340.758 3.34594 -3.02254 0
M  V30 3893 C 339.42 3.37437 -3.43059 0
M  V30 3894 C 341.772 3.36219 -3.98254 0
M  V30 3895 C 339.1 3.39525 -4.78477 0
M  V30 3896 C 341.452 3.39845 -5.33562 0
M  V30 3897 C 340.116 3.40971 -5.73842 0
M  V30 3898 H 339.386 0.654275 -0.347857 0
M  V30 3899 H 342.033 1.24555 -1.45459 0
M  V30 3900 H 340.338 3.80227 -0.94524 0
M  V30 3901 H 342.035 3.7809 -1.336 0
M  V30 3902 H 338.625 3.3309 -2.6972 0
M  V30 3903 H 342.809 3.33231 -3.67792 0
M  V30 3904 H 338.065 3.38703 -5.09009 0
M  V30 3905 H 342.239 3.4005 -6.07733 0
M  V30 3906 H 339.866 3.42342 -6.78753 0
M  V30 3907 N 341.441 0.965919 1.2453 0
M  V30 3908 C 342.388 0.49402 2.25451 0
M  V30 3909 C 343.358 -0.45948 1.59618 0
M  V30 3910 O 344.543 -0.370238 1.87173 0
M  V30 3911 C 341.683 -0.211359 3.44452 0
M  V30 3912 C 340.796 0.7807 4.24887 0
M  V30 3913 C 339.931 0.0516105 5.31175 0
M  V30 3914 C 338.97 1.03385 6.03306 0
M  V30 3915 N 338.107 0.334887 7.01301 0
M  V30 3916 H 342.947 1.35946 2.65184 0
M  V30 3917 H 340.484 0.681515 1.3036 0
M  V30 3918 H 342.442 -0.637 4.12308 0
M  V30 3919 H 341.072 -1.04077 3.05562 0
M  V30 3920 H 340.124 1.32479 3.56586 0
M  V30 3921 H 341.436 1.52978 4.74762 0
M  V30 3922 H 340.59 -0.432114 6.05159 0
M  V30 3923 H 339.329 -0.730179 4.82203 0
M  V30 3924 H 338.334 1.52847 5.28127 0
M  V30 3925 H 339.559 1.81606 6.54367 0
M  V30 3926 H 337.505 -0.427959 6.54603 0
M  V30 3927 H 337.422 1.02287 7.49048 0
M  V30 3928 H 338.69 -0.126928 7.79397 0
M  V30 3929 N 342.919 -1.39368 0.735821 0
M  V30 3930 C 343.866 -2.30599 0.0963825 0
M  V30 3931 C 344.836 -1.49257 -0.728794 0
M  V30 3932 O 346.021 -1.77941 -0.688588 0
M  V30 3933 C 343.161 -3.35596 -0.804305 0
M  V30 3934 C 342.274 -4.31987 0.0335761 0
M  V30 3935 C 341.409 -5.24053 -0.868461 0
M  V30 3936 C 340.448 -6.12095 -0.0258776 0
M  V30 3937 N 339.585 -6.96514 -0.883893 0
M  V30 3938 H 344.425 -2.8471 0.880002 0
M  V30 3939 H 341.962 -1.40188 0.445619 0
M  V30 3940 H 343.92 -3.95062 -1.34096 0
M  V30 3941 H 342.55 -2.82938 -1.55389 0
M  V30 3942 H 341.602 -3.74133 0.68766 0
M  V30 3943 H 342.914 -4.94074 0.685036 0
M  V30 3944 H 342.068 -5.88549 -1.47293 0
M  V30 3945 H 340.807 -4.62289 -1.5537 0
M  V30 3946 H 339.812 -5.4661 0.591386 0
M  V30 3947 H 341.037 -6.75923 0.656156 0
M  V30 3948 H 338.983 -6.37318 -1.55441 0
M  V30 3949 H 338.9 -7.55448 -0.288931 0
M  V30 3950 H 340.168 -7.65439 -1.4739 0
M  V30 3951 N 344.397 -0.483516 -1.5 0
M  V30 3952 C 345.307 0.309172 -2.32554 0
M  V30 3953 C 346.323 0.984159 -1.43493 0
M  V30 3954 O 347.499 0.969399 -1.76535 0
M  V30 3955 C 344.564 1.36979 -3.18493 0
M  V30 3956 C 343.625 0.710095 -4.23387 0
M  V30 3957 C 342.858 1.72018 -5.05218 0
M  V30 3958 O 343.081 2.94813 -4.88305 0
M  V30 3959 O 342.015 1.28515 -5.8802 0
M  V30 3960 H 345.841 -0.366064 -3.01486 0
M  V30 3961 H 343.426 -0.24514 -1.47375 0
M  V30 3962 H 345.308 1.98385 -3.71781 0
M  V30 3963 H 343.983 2.02828 -2.52275 0
M  V30 3964 H 342.89 0.0567539 -3.74057 0
M  V30 3965 H 344.223 0.0943557 -4.9211 0
M  V30 3966 N 345.875 1.56104 -0.216619 0
M  V30 3967 C 347.286 1.844 0.292128 0
M  V30 3968 C 347.637 1.13788 1.59833 0
M  V30 3969 O 346.762 0.405888 2.12559 0
M  V30 3970 C 347.357 3.3452 0.53681 0
M  V30 3971 C 345.916 3.63151 0.989876 0
M  V30 3972 C 345.063 2.77255 0.0502302 0
M  V30 3973 H 348.014 1.52481 -0.439926 0
M  V30 3974 H 348.035 3.54459 1.38345 0
M  V30 3975 H 347.547 3.85885 -0.414031 0
M  V30 3976 H 345.648 3.17238 1.95425 0
M  V30 3977 H 345.761 4.71177 0.867698 0
M  V30 3978 H 344.125 2.48555 0.556117 0
M  V30 3979 H 344.908 3.31416 -0.89544 0
M  V30 3980 N 347.353 -0.0568162 1.57498 0
M  V30 3981 C 348.6 -0.753104 1.87975 0
M  V30 3982 C 348.928 -1.76815 0.81035 0
M  V30 3983 O 348.183 -1.94756 -0.19199 0
M  V30 3984 C 348.482 -1.48359 3.25153 0
M  V30 3985 C 348.148 -0.60713 4.46794 0
M  V30 3986 C 346.81 -0.365642 4.79809 0
M  V30 3987 C 349.162 -0.000305978 5.212 0
M  V30 3988 C 346.49 0.491905 5.84634 0
M  V30 3989 C 348.842 0.844781 6.26934 0
M  V30 3990 C 347.506 1.096 6.58441 0
M  V30 3991 H 346.776 -0.27558 0.687849 0
M  V30 3992 H 349.423 -0.0135173 1.91495 0
M  V30 3993 H 347.728 -2.29577 3.17492 0
M  V30 3994 H 349.425 -2.02739 3.45974 0
M  V30 3995 H 346.015 -0.805487 4.20963 0
M  V30 3996 H 350.199 -0.173961 4.95995 0
M  V30 3997 H 345.455 0.695131 6.07436 0
M  V30 3998 H 349.629 1.32165 6.83744 0
M  V30 3999 H 347.256 1.76224 7.39492 0
M  V30 4000 N 348.832 -1.54138 -0.328536 0
M  V30 4001 C 350.079 -1.72105 -1.06706 0
M  V30 4002 C 350.407 -0.492111 -1.88171 0
M  V30 4003 O 349.662 0.526153 -1.88494 0
M  V30 4004 C 349.961 -2.9457 -2.02393 0
M  V30 4005 C 349.627 -4.29544 -1.37122 0
M  V30 4006 C 348.289 -4.6624 -1.19052 0
M  V30 4007 C 350.641 -5.1333 -0.902331 0
M  V30 4008 C 347.969 -5.84325 -0.527331 0
M  V30 4009 C 350.321 -6.32094 -0.252988 0
M  V30 4010 C 348.985 -6.67473 -0.0600901 0
M  V30 4011 H 348.255 -0.629775 -0.390466 0
M  V30 4012 H 350.902 -1.88372 -0.34473 0
M  V30 4013 H 349.207 -2.72969 -2.81061 0
M  V30 4014 H 350.904 -3.05665 -2.59557 0
M  V30 4015 H 347.494 -4.0067 -1.52188 0
M  V30 4016 H 351.678 -4.855 -1.02974 0
M  V30 4017 H 346.934 -6.103 -0.366634 0
M  V30 4018 H 351.108 -6.96299 0.118366 0
M  V30 4019 H 348.735 -7.58832 0.455828 0
M  V30 4020 N 350.31 0.590341 -1.46126 0
M  V30 4021 C 351.55 1.35995 -1.52593 0
M  V30 4022 C 351.914 1.91243 -0.170368 0
M  V30 4023 O 353.115 2.68576 -0.109775 0
M  V30 4024 C 351.386 2.46465 -2.58823 0
M  V30 4025 S 352.945 3.33953 -2.84641 0
M  V30 4026 H 349.763 0.463425 -0.53922 0
M  V30 4027 H 352.365 0.67944 -1.83314 0
M  V30 4028 H 351.069 2.04256 -3.5596 0
M  V30 4029 H 350.6 3.19297 -2.2981 0
M  V30 4030 H 352.615 4.45094 -2.19331 0
M  V30 4031 N 351.788 1.33704 0.83433 0
M  V30 4032 C 353.036 1.25169 1.58673 0
M  V30 4033 C 353.357 -0.18127 1.94156 0
M  V30 4034 O 352.627 -1.11113 1.6134 0
M  V30 4035 H 351.207 0.4603 0.58833 0
M  V30 4036 H 353.869 1.67478 0.996847 0
M  V30 4037 H 352.965 1.84856 2.51465 0
M  V30 4038 N 353.266 -1.05314 1.17247 0
M  V30 4039 C 354.216 -2.11313 0.856196 0
M  V30 4040 C 355.2 -1.60013 -0.168694 0
M  V30 4041 O 356.392 -1.76968 0.0335624 0
M  V30 4042 C 353.521 -3.41301 0.369917 0
M  V30 4043 C 352.607 -3.99401 1.42616 0
M  V30 4044 N 352.998 -4.31481 2.63928 0
M  V30 4045 C 351.296 -4.27126 1.28373 0
M  V30 4046 C 351.997 -4.77799 3.31787 0
M  V30 4047 N 350.973 -4.77843 2.59166 0
M  V30 4048 H 354.775 -2.33976 1.77856 0
M  V30 4049 H 352.289 -1.2295 1.06099 0
M  V30 4050 H 354.286 -4.16713 0.124897 0
M  V30 4051 H 352.946 -3.20072 -0.546253 0
M  V30 4052 H 353.957 -4.21519 3.00902 0
M  V30 4053 H 350.634 -4.15289 0.429111 0
M  V30 4054 H 352.024 -5.11743 4.35395 0
M  V30 4055 N 354.744 -0.972509 -1.24016 0
M  V30 4056 C 356.021 -0.553733 -1.87598 0
M  V30 4057 C 356.401 0.969158 -1.87538 0
M  V30 4058 O 355.749 1.84255 -1.35139 0
M  V30 4059 C 355.959 -1.15076 -3.29482 0
M  V30 4060 C 357.307 -1.23862 -4.06132 0
M  V30 4061 O 358.331 -1.10363 -3.38672 0
M  V30 4062 O 357.19 -1.45252 -5.26844 0
M  V30 4063 H 354.284 -0.185331 -0.805966 0
M  V30 4064 H 356.83 -1.06709 -1.31952 0
M  V30 4065 H 355.602 -2.19333 -3.2405 0
M  V30 4066 H 355.225 -0.621746 -3.92709 0
M  V30 4067 N 356.222 1.38976 -0.743202 0
M  V30 4068 C 357.17 2.32394 -0.0978389 0
M  V30 4069 C 358.164 1.53486 0.716824 0
M  V30 4070 O 359.37 1.69092 0.617088 0
M  V30 4071 H 355.745 0.75189 -0.0128402 0
M  V30 4072 H 357.716 2.84441 -0.901981 0
M  V30 4073 C 356.465 3.38629 0.789036 0
M  V30 4074 H 355.788 3.99432 0.171559 0
M  V30 4075 H 357.228 4.06426 1.20807 0
M  V30 4076 C 355.687 2.76347 1.92702 0
M  V30 4077 O 356.217 2.64836 3.02034 0
M  V30 4078 N 354.423 2.34311 1.71891 0
M  V30 4079 H 353.97 2.43873 0.829675 0
M  V30 4080 H 353.928 1.9298 2.48205 0
M  V30 4081 N 357.7 0.491464 1.49741 0
M  V30 4082 C 358.93 -0.0534375 2.06531 0
M  V30 4083 C 359.338 -1.32233 1.35318 0
M  V30 4084 O 358.681 -1.78781 0.422243 0
M  V30 4085 C 358.743 -0.387034 3.57411 0
M  V30 4086 C 358.407 0.782764 4.50246 0
M  V30 4087 C 359.404 1.67059 4.92329 0
M  V30 4088 C 357.089 0.978866 4.9267 0
M  V30 4089 C 359.083 2.73874 5.75562 0
M  V30 4090 C 356.77 2.05022 5.75682 0
M  V30 4091 C 357.768 2.92851 6.17031 0
M  V30 4092 O 357.456 3.98138 6.98385 0
M  V30 4093 H 357.188 0.0129324 0.675876 0
M  V30 4094 H 359.742 0.685238 1.93633 0
M  V30 4095 H 357.972 -1.17918 3.68283 0
M  V30 4096 H 359.661 -0.869419 3.96479 0
M  V30 4097 H 360.427 1.53086 4.60206 0
M  V30 4098 H 356.306 0.304646 4.59992 0
M  V30 4099 H 359.85 3.42458 6.07757 0
M  V30 4100 H 355.747 2.18993 6.07217 0
M  V30 4101 H 356.515 3.95374 7.16674 0
M  V30 4102 N 359.178 -1.55987 0.224894 0
M  V30 4103 C 360.455 -1.90232 -0.455083 0
M  V30 4104 C 360.835 -1.14269 -1.77499 0
M  V30 4105 O 360.183 -0.253079 -2.27094 0
M  V30 4106 C 360.393 -3.42993 -0.644758 0
M  V30 4107 C 361.741 -4.13821 -0.950669 0
M  V30 4108 O 362.765 -3.4861 -0.731423 0
M  V30 4109 O 361.624 -5.29128 -1.36695 0
M  V30 4110 H 358.718 -0.79108 -0.241084 0
M  V30 4111 H 361.264 -1.67581 0.267327 0
M  V30 4112 H 360.036 -3.90252 0.28613 0
M  V30 4113 H 359.659 -3.71434 -1.41853 0
M  V30 4114 N 360.656 0.0484629 -1.57525 0
M  V30 4115 C 361.588 1.08222 -2.02041 0
M  V30 4116 C 362.601 1.33621 -0.930012 0
M  V30 4117 O 363.79 1.3145 -1.20761 0
M  V30 4118 C 360.89 2.42818 -2.36416 0
M  V30 4119 C 360.063 2.37049 -3.67596 0
M  V30 4120 C 359.122 3.53937 -3.89378 0
M  V30 4121 O 358.148 3.34308 -4.60681 0
M  V30 4122 N 359.35 4.75126 -3.3352 0
M  V30 4123 H 362.115 0.702946 -2.9134 0
M  V30 4124 H 359.676 0.236745 -1.6016 0
M  V30 4125 H 361.668 3.197 -2.48141 0
M  V30 4126 H 360.238 2.72661 -1.52888 0
M  V30 4127 H 359.458 1.45395 -3.66407 0
M  V30 4128 H 360.746 2.30318 -4.53686 0
M  V30 4129 H 360.144 4.93976 -2.75688 0
M  V30 4130 H 358.701 5.49439 -3.50656 0
M  V30 4131 N 362.134 1.5431 0.320358 0
M  V30 4132 C 363.064 1.86912 1.3995 0
M  V30 4133 C 364.045 0.726211 1.53819 0
M  V30 4134 O 365.23 0.980233 1.67646 0
M  V30 4135 C 362.36 2.09932 2.7667 0
M  V30 4136 C 361.314 3.25776 2.77586 0
M  V30 4137 C 360.64 3.34173 4.17412 0
M  V30 4138 C 361.94 4.6335 2.41048 0
M  V30 4139 H 363.634 2.77292 1.12914 0
M  V30 4140 H 361.18 1.33421 0.541738 0
M  V30 4141 H 363.133 2.31324 3.52232 0
M  V30 4142 H 361.857 1.16304 3.0519 0
M  V30 4143 H 360.516 3.04276 2.04479 0
M  V30 4144 H 360.164 2.38098 4.43078 0
M  V30 4145 H 359.864 4.12033 4.18931 0
M  V30 4146 H 361.388 3.57803 4.94782 0
M  V30 4147 H 362.802 4.84602 3.06324 0
M  V30 4148 H 361.199 5.43782 2.53813 0
M  V30 4149 H 362.269 4.65381 1.36193 0
M  V30 4150 N 363.613 -0.582584 1.46437 0
M  V30 4151 C 364.859 -1.34278 1.51978 0
M  V30 4152 C 365.192 -1.93446 0.170973 0
M  V30 4153 O 364.467 -1.76481 -0.817608 0
M  V30 4154 C 364.75 -2.47203 2.61845 0
M  V30 4155 C 364.603 -1.93069 4.06257 0
M  V30 4156 C 365.922 -3.49247 2.67795 0
M  V30 4157 H 363.041 -0.486876 0.553282 0
M  V30 4158 H 365.683 -0.654437 1.78374 0
M  V30 4159 H 363.833 -3.0592 2.39469 0
M  V30 4160 H 365.505 -1.38808 4.3992 0
M  V30 4161 H 363.748 -1.23898 4.1573 0
M  V30 4162 H 364.419 -2.74586 4.7886 0
M  V30 4163 H 366.895 -3.00411 2.8791 0
M  V30 4164 H 365.771 -4.25719 3.46489 0
M  V30 4165 H 366.032 -4.06482 1.73852 0
M  V30 4166 N 365.091 -1.34144 -0.827227 0
M  V30 4167 C 366.038 -1.25364 -1.93785 0
M  V30 4168 C 367.008 -0.129774 -1.65592 0
M  V30 4169 O 368.193 -0.310024 -1.88264 0
M  V30 4170 C 365.333 -1.01064 -3.2997 0
M  V30 4171 C 364.446 -2.22185 -3.70484 0
M  V30 4172 C 363.581 -1.91203 -4.95595 0
M  V30 4173 C 362.62 -3.08491 -5.28677 0
M  V30 4174 N 361.757 -2.77421 -6.44967 0
M  V30 4175 H 366.597 -2.20347 -2.00627 0
M  V30 4176 H 364.134 -1.09558 -0.981608 0
M  V30 4177 H 366.092 -0.850139 -4.08446 0
M  V30 4178 H 364.722 -0.0975026 -3.22653 0
M  V30 4179 H 363.774 -2.4917 -2.87434 0
M  V30 4180 H 365.086 -3.0983 -3.90905 0
M  V30 4181 H 364.24 -1.71864 -5.81848 0
M  V30 4182 H 362.979 -1.00812 -4.77167 0
M  V30 4183 H 361.984 -3.28431 -4.40923 0
M  V30 4184 H 363.209 -3.99655 -5.49047 0
M  V30 4185 H 361.155 -1.89601 -6.28003 0
M  V30 4186 H 361.072 -3.58598 -6.6554 0
M  V30 4187 H 362.34 -2.61577 -7.34301 0
M  V30 4188 N 366.569 1.04691 -1.17803 0
M  V30 4189 C 367.818 1.77176 -0.963931 0
M  V30 4190 C 368.131 1.88888 0.508015 0
M  V30 4191 O 369.337 2.58164 0.840465 0
M  V30 4192 C 367.793 3.18518 -1.67555 0
M  V30 4193 C 367.401 3.14919 -3.18637 0
M  V30 4194 C 369.145 3.95424 -1.54402 0
M  V30 4195 C 367.052 4.51081 -3.82466 0
M  V30 4196 H 365.982 0.664116 -0.357023 0
M  V30 4197 H 368.633 1.17303 -1.4111 0
M  V30 4198 H 367.015 3.78748 -1.15613 0
M  V30 4199 H 368.189 2.64178 -3.77554 0
M  V30 4200 H 366.504 2.51512 -3.31859 0
M  V30 4201 H 369.101 4.96106 -1.99456 0
M  V30 4202 H 369.444 4.13343 -0.495329 0
M  V30 4203 H 369.977 3.41754 -2.0359 0
M  V30 4204 H 366.716 4.38368 -4.87354 0
M  V30 4205 H 366.236 5.01951 -3.28337 0
M  V30 4206 H 367.915 5.2001 -3.84965 0
M  V30 4207 N 368.047 0.979072 1.23499 0
M  V30 4208 C 369.01 0.523244 2.23147 0
M  V30 4209 C 370.01 -0.386406 1.56088 0
M  V30 4210 O 371.2 -0.180283 1.73265 0
M  V30 4211 C 368.332 -0.240739 3.40049 0
M  V30 4212 H 369.525 1.40432 2.64989 0
M  V30 4213 H 367.078 0.764824 1.36309 0
M  V30 4214 H 367.813 -1.13841 3.03662 0
M  V30 4215 H 367.598 0.412207 3.89927 0
M  V30 4216 H 369.088 -0.548297 4.13985 0
M  V30 4217 N 369.525 -1.3858 0.750561 0
M  V30 4218 C 370.472 -2.30483 0.120835 0
M  V30 4219 C 371.442 -1.50022 -0.712923 0
M  V30 4220 O 372.627 -1.78662 -0.669676 0
M  V30 4221 C 369.767 -3.36431 -0.768666 0
M  V30 4222 C 368.88 -4.31927 0.0793922 0
M  V30 4223 C 368.015 -5.24944 -0.81283 0
M  V30 4224 C 367.054 -6.12088 0.0390447 0
M  V30 4225 N 366.191 -6.97412 -0.809969 0
M  V30 4226 H 371.031 -2.83761 0.91015 0
M  V30 4227 H 368.568 -1.39707 0.460463 0
M  V30 4228 H 370.526 -3.96462 -1.29898 0
M  V30 4229 H 369.156 -2.8457 -1.5238 0
M  V30 4230 H 368.208 -3.73382 0.727303 0
M  V30 4231 H 369.52 -4.93319 0.737401 0
M  V30 4232 H 368.674 -5.90078 -1.41042 0
M  V30 4233 H 367.413 -4.63911 -1.50458 0
M  V30 4234 H 366.418 -5.45952 0.649328 0
M  V30 4235 H 367.643 -6.75189 0.727809 0
M  V30 4236 H 365.589 -6.38931 -1.48672 0
M  V30 4237 H 365.506 -7.55712 -0.208789 0
M  V30 4238 H 366.774 -7.66959 -1.39263 0
M  V30 4239 N 371.003 -0.499398 -1.49478 0
M  V30 4240 C 372.249 0.0457576 -2.02748 0
M  V30 4241 C 372.582 1.36793 -1.37846 0
M  V30 4242 O 371.857 1.87596 -0.513601 0
M  V30 4243 C 372.14 0.199986 -3.59544 0
M  V30 4244 C 371.993 -1.1452 -4.34977 0
M  V30 4245 C 373.312 0.94137 -4.29914 0
M  V30 4246 H 370.431 0.0151552 -0.736844 0
M  V30 4247 H 373.073 -0.650498 -1.78518 0
M  V30 4248 H 371.223 0.793007 -3.8032 0
M  V30 4249 H 372.895 -1.77697 -4.25701 0
M  V30 4250 H 371.138 -1.73488 -3.97598 0
M  V30 4251 H 371.809 -0.990607 -5.43039 0
M  V30 4252 H 374.285 0.43844 -4.13784 0
M  V30 4253 H 373.161 1.01812 -5.39375 0
M  V30 4254 H 373.422 1.98471 -3.95046 0
M  V30 4255 N 372.481 1.55866 -0.233164 0
M  V30 4256 C 373.411 2.23783 0.666599 0
M  V30 4257 C 374.392 1.21343 1.19205 0
M  V30 4258 O 375.577 1.4996 1.23392 0
M  V30 4259 C 372.707 2.92671 1.86978 0
M  V30 4260 C 371.661 4.01682 1.47768 0
M  V30 4261 C 370.987 4.57926 2.76058 0
M  V30 4262 C 372.287 5.18126 0.658993 0
M  V30 4263 H 373.981 2.99232 0.100306 0
M  V30 4264 H 371.527 1.43924 0.046804 0
M  V30 4265 H 373.48 3.3888 2.50476 0
M  V30 4266 H 372.204 2.14688 2.46123 0
M  V30 4267 H 370.863 3.56222 0.866106 0
M  V30 4268 H 370.511 3.76659 3.33372 0
M  V30 4269 H 370.211 5.31505 2.50552 0
M  V30 4270 H 371.735 5.06859 3.40479 0
M  V30 4271 H 373.149 5.60644 1.19795 0
M  V30 4272 H 371.546 5.98009 0.500552 0
M  V30 4273 H 372.616 4.83763 -0.331856 0
M  V30 4274 N 373.959 -0.0401083 1.57549 0
M  V30 4275 C 375.207 -0.731677 1.8839 0
M  V30 4276 C 375.528 -1.76481 0.829425 0
M  V30 4277 O 374.798 -1.95411 -0.1383 0
M  V30 4278 H 373.378 -0.273225 0.695239 0
M  V30 4279 H 376.04 -0.00867725 1.94898 0
M  V30 4280 H 375.136 -1.22816 2.86919 0
M  V30 4281 N 375.437 -1.54477 -0.31217 0
M  V30 4282 C 376.665 -1.77205 -1.068 0
M  V30 4283 C 377.08 -0.526114 -1.81321 0
M  V30 4284 O 376.437 0.503647 -1.75413 0
M  V30 4285 C 376.488 -2.97253 -2.05725 0
M  V30 4286 O 376.209 -4.1703 -1.34228 0
M  V30 4287 C 377.71 -3.32281 -2.93435 0
M  V30 4288 H 374.93 -0.591287 -0.317208 0
M  V30 4289 H 377.474 -2.01398 -0.354834 0
M  V30 4290 H 375.629 -2.753 -2.72559 0
M  V30 4291 H 376.043 -4.84636 -2.00571 0
M  V30 4292 H 377.517 -4.19551 -3.58721 0
M  V30 4293 H 377.994 -2.49945 -3.61143 0
M  V30 4294 H 378.6 -3.56353 -2.32147 0
M  V30 4295 N 376.915 0.57481 -1.46744 0
M  V30 4296 C 377.825 1.711 -1.60505 0
M  V30 4297 C 378.841 1.67008 -0.488307 0
M  V30 4298 O 380.017 1.86774 -0.753495 0
M  V30 4299 C 377.082 3.07608 -1.59932 0
M  V30 4300 C 376.143 3.22904 -2.82898 0
M  V30 4301 C 375.376 4.529 -2.82343 0
M  V30 4302 O 375.599 5.37278 -1.91542 0
M  V30 4303 O 374.533 4.71611 -3.73987 0
M  V30 4304 H 378.359 1.62436 -2.56609 0
M  V30 4305 H 375.944 0.742779 -1.29627 0
M  V30 4306 H 377.826 3.88877 -1.62336 0
M  V30 4307 H 376.501 3.16692 -0.669898 0
M  V30 4308 H 375.408 2.41099 -2.86046 0
M  V30 4309 H 376.741 3.18715 -3.75076 0
M  V30 4310 N 378.394 1.34581 0.820102 0
M  V30 4311 C 379.671 1.17675 1.56244 0
M  V30 4312 C 380.051 -0.249541 2.0962 0
M  V30 4313 O 379.399 -1.25125 1.91196 0
M  V30 4314 C 379.609 2.23364 2.6816 0
M  V30 4315 C 380.957 2.58485 3.36854 0
M  V30 4316 O 381.981 2.22175 2.78418 0
M  V30 4317 O 380.84 3.20868 4.42386 0
M  V30 4318 H 377.934 0.456333 0.689702 0
M  V30 4319 H 380.48 1.46222 0.861231 0
M  V30 4320 H 379.252 3.19087 2.26493 0
M  V30 4321 H 378.875 1.96009 3.45928 0
M  V30 4322 N 379.872 -1.04064 1.18357 0
M  V30 4323 C 380.802 -2.14001 0.934113 0
M  V30 4324 C 381.783 -1.69616 -0.128186 0
M  V30 4325 O 382.968 -1.94185 0.0244093 0
M  V30 4326 C 380.098 -3.44253 0.459066 0
M  V30 4327 C 379.052 -4.02261 1.46185 0
M  V30 4328 C 378.378 -5.27992 0.844322 0
M  V30 4329 C 379.678 -4.38432 2.83856 0
M  V30 4330 H 381.372 -2.35127 1.85352 0
M  V30 4331 H 378.918 -1.12998 0.892604 0
M  V30 4332 H 380.871 -4.20522 0.271907 0
M  V30 4333 H 379.595 -3.22813 -0.495912 0
M  V30 4334 H 378.254 -3.28074 1.63595 0
M  V30 4335 H 377.902 -5.02862 -0.117845 0
M  V30 4336 H 377.602 -5.67765 1.51384 0
M  V30 4337 H 379.126 -6.06938 0.667693 0
M  V30 4338 H 380.54 -5.05688 2.70098 0
M  V30 4339 H 378.937 -4.89254 3.47491 0
M  V30 4340 H 380.007 -3.4826 3.37406 0
M  V30 4341 N 381.35 -0.985608 -1.22978 0
M  V30 4342 C 382.3 -0.50118 -2.22423 0
M  V30 4343 C 383.284 0.426649 -1.5514 0
M  V30 4344 O 384.476 0.254656 -1.75159 0
M  V30 4345 C 381.605 0.190003 -3.42774 0
M  V30 4346 C 380.691 -0.757703 -4.17276 0
M  V30 4347 N 381.082 -1.90251 -4.68656 0
M  V30 4348 C 379.38 -0.57209 -4.42316 0
M  V30 4349 C 380.081 -2.49676 -5.25392 0
M  V30 4350 N 379.057 -1.78013 -5.13627 0
M  V30 4351 H 382.859 -1.37441 -2.59783 0
M  V30 4352 H 380.373 -0.846941 -1.38567 0
M  V30 4353 H 382.37 0.55439 -4.13197 0
M  V30 4354 H 381.03 1.05946 -3.06929 0
M  V30 4355 H 382.041 -2.28354 -4.64839 0
M  V30 4356 H 378.718 0.251909 -4.16739 0
M  V30 4357 H 380.108 -3.46384 -5.75732 0
M  V30 4358 N 382.828 1.3818 -0.7579 0
M  V30 4359 C 383.791 2.28764 -0.141286 0
M  V30 4360 C 384.791 1.47388 0.642907 0
M  V30 4361 O 385.981 1.67781 0.468536 0
M  V30 4362 C 383.113 3.31184 0.808069 0
M  V30 4363 H 384.306 2.848 -0.939633 0
M  V30 4364 H 381.859 1.47212 -0.525191 0
M  V30 4365 H 382.594 2.80247 1.63193 0
M  V30 4366 H 382.379 3.91314 0.248104 0
M  V30 4367 H 383.869 3.98909 1.23536 0
M  V30 4368 N 384.306 0.507319 1.49211 0
M  V30 4369 C 385.536 -0.0315292 2.06576 0
M  V30 4370 C 385.944 -1.30791 1.36713 0
M  V30 4371 O 385.287 -1.78324 0.441181 0
M  V30 4372 C 385.349 -0.349104 3.57801 0
M  V30 4373 C 385.013 0.830475 4.49391 0
M  V30 4374 C 386.01 1.72271 4.90529 0
M  V30 4375 C 383.695 1.03107 4.91604 0
M  V30 4376 C 385.689 2.79964 5.72625 0
M  V30 4377 C 383.376 2.11116 5.73475 0
M  V30 4378 C 384.374 2.99379 6.1389 0
M  V30 4379 O 384.062 4.05523 6.94123 0
M  V30 4380 H 383.794 0.0201002 0.675701 0
M  V30 4381 H 386.348 0.705737 1.92895 0
M  V30 4382 H 384.578 -1.14005 3.69513 0
M  V30 4383 H 386.267 -0.827319 3.97379 0
M  V30 4384 H 387.033 1.57958 4.58557 0
M  V30 4385 H 382.912 0.353417 4.59643 0
M  V30 4386 H 386.456 3.48884 6.04091 0
M  V30 4387 H 382.353 2.25421 6.0486 0
M  V30 4388 H 383.121 4.02953 7.1244 0
M  V30 4389 N 385.784 -1.5574 0.241426 0
M  V30 4390 C 386.714 -2.24133 -0.654722 0
M  V30 4391 C 387.695 -1.21974 -1.1856 0
M  V30 4392 O 388.88 -1.50612 -1.22595 0
M  V30 4393 C 386.01 -2.93659 -1.85423 0
M  V30 4394 C 384.964 -4.0246 -1.45636 0
M  V30 4395 C 384.29 -4.59383 -2.73626 0
M  V30 4396 C 385.59 -5.18468 -0.631506 0
M  V30 4397 H 387.284 -2.99281 -0.0844353 0
M  V30 4398 H 384.83 -1.43947 -0.0391707 0
M  V30 4399 H 386.783 -3.40203 -2.48676 0
M  V30 4400 H 385.507 -2.15991 -2.44981 0
M  V30 4401 H 384.166 -3.56676 -0.847202 0
M  V30 4402 H 383.814 -3.78422 -3.3137 0
M  V30 4403 H 383.514 -5.32826 -2.4773 0
M  V30 4404 H 385.038 -5.08658 -3.37786 0
M  V30 4405 H 386.452 -5.61272 -1.1682 0
M  V30 4406 H 384.849 -5.98266 -0.468831 0
M  V30 4407 H 385.919 -4.8358 0.357506 0
M  V30 4408 N 387.262 0.0317525 -1.57568 0
M  V30 4409 C 388.209 1.0332 -2.06382 0
M  V30 4410 C 389.179 1.36082 -0.952414 0
M  V30 4411 O 390.364 1.46466 -1.2228 0
M  V30 4412 C 387.504 2.32989 -2.54578 0
M  V30 4413 C 386.617 2.0641 -3.79498 0
M  V30 4414 C 385.752 3.2993 -4.16317 0
M  V30 4415 C 384.791 2.98893 -5.34162 0
M  V30 4416 N 383.928 4.14857 -5.66426 0
M  V30 4417 H 388.768 0.609982 -2.9169 0
M  V30 4418 H 386.305 0.289573 -1.44222 0
M  V30 4419 H 388.263 3.0875 -2.80587 0
M  V30 4420 H 386.893 2.73039 -1.7219 0
M  V30 4421 H 385.945 1.21158 -3.6059 0
M  V30 4422 H 387.257 1.79513 -4.65378 0
M  V30 4423 H 386.411 4.1406 -4.4344 0
M  V30 4424 H 385.15 3.59938 -3.29083 0
M  V30 4425 H 384.155 2.13164 -5.06795 0
M  V30 4426 H 385.38 2.70165 -6.23047 0
M  V30 4427 H 383.326 4.44821 -4.82151 0
M  V30 4428 H 383.243 3.91374 -6.4681 0
M  V30 4429 H 384.511 4.99868 -5.98124 0
M  V30 4430 N 388.74 1.54641 0.303973 0
M  V30 4431 C 389.687 1.85386 1.37479 0
M  V30 4432 C 390.657 0.702528 1.50512 0
M  V30 4433 O 391.842 0.950867 1.65418 0
M  V30 4434 C 388.982 2.10413 2.73533 0
M  V30 4435 C 388.095 3.38049 2.68974 0
M  V30 4436 C 387.23 3.52934 3.97002 0
M  V30 4437 C 386.269 4.74373 3.86829 0
M  V30 4438 N 385.406 4.8608 5.06627 0
M  V30 4439 H 390.246 2.76732 1.1056 0
M  V30 4440 H 387.783 1.37034 0.534805 0
M  V30 4441 H 389.741 2.22919 3.52652 0
M  V30 4442 H 388.371 1.22338 2.98719 0
M  V30 4443 H 387.423 3.3418 1.81736 0
M  V30 4444 H 388.735 4.27288 2.57346 0
M  V30 4445 H 387.889 3.65088 4.84557 0
M  V30 4446 H 386.628 2.61824 4.1146 0
M  V30 4447 H 385.633 4.62255 2.97658 0
M  V30 4448 H 386.858 5.66888 3.73918 0
M  V30 4449 H 384.804 3.97891 5.21554 0
M  V30 4450 H 384.721 5.69315 4.9741 0
M  V30 4451 H 385.989 5.02587 5.95841 0
M  V30 4452 N 390.218 -0.567019 1.47046 0
M  V30 4453 C 391.448 -1.34831 1.56538 0
M  V30 4454 C 391.856 -1.8802 0.21101 0
M  V30 4455 O 391.199 -1.65152 -0.804387 0
M  V30 4456 C 391.261 -2.56139 2.52256 0
M  V30 4457 C 390.925 -2.24307 3.98165 0
M  V30 4458 C 391.922 -1.82192 4.86931 0
M  V30 4459 C 389.607 -2.35968 4.43423 0
M  V30 4460 C 391.601 -1.52153 6.18973 0
M  V30 4461 C 389.288 -2.05542 5.75496 0
M  V30 4462 C 390.286 -1.63701 6.63092 0
M  V30 4463 O 389.974 -1.33657 7.92711 0
M  V30 4464 H 389.706 -0.417683 0.531523 0
M  V30 4465 H 392.26 -0.694726 1.93294 0
M  V30 4466 H 390.49 -3.24356 2.10548 0
M  V30 4467 H 392.179 -3.18214 2.51982 0
M  V30 4468 H 392.945 -1.72684 4.53217 0
M  V30 4469 H 388.824 -2.67495 3.75456 0
M  V30 4470 H 392.368 -1.19421 6.87302 0
M  V30 4471 H 388.265 -2.14679 6.08755 0
M  V30 4472 H 389.033 -1.4737 8.05124 0
M  V30 4473 N 391.696 -1.35014 -0.812953 0
M  V30 4474 C 392.644 -1.27435 -1.94585 0
M  V30 4475 C 393.638 -0.170494 -1.6854 0
M  V30 4476 O 394.844 -0.336085 -1.76835 0
M  V30 4477 H 391.219 -0.396144 -0.639198 0
M  V30 4478 H 393.19 -2.23158 -1.98098 0
M  V30 4479 C 391.939 -1.05677 -3.31252 0
M  V30 4480 H 391.262 -1.89853 -3.51846 0
M  V30 4481 H 392.702 -1.04413 -4.10943 0
M  V30 4482 C 391.161 0.239615 -3.36047 0
M  V30 4483 O 391.691 1.23759 -3.8216 0
M  V30 4484 N 389.897 0.276186 -2.89285 0
M  V30 4485 H 389.444 -0.53653 -2.51951 0
M  V30 4486 H 389.402 1.14332 -2.92875 0
M  V30 4487 N 393.175 1.03435 -1.18907 0
M  V30 4488 C 394.424 1.76143 -0.982669 0
M  V30 4489 C 394.737 1.89416 0.487953 0
M  V30 4490 O 395.943 2.59041 0.813036 0
M  V30 4491 C 394.399 3.16722 -1.70924 0
M  V30 4492 C 394.007 3.11522 -3.21959 0
M  V30 4493 C 395.751 3.93764 -1.58588 0
M  V30 4494 C 393.658 4.46999 -3.87228 0
M  V30 4495 H 392.588 0.660292 -0.364047 0
M  V30 4496 H 395.239 1.158 -1.42347 0
M  V30 4497 H 393.621 3.775 -1.19623 0
M  V30 4498 H 394.795 2.60158 -3.80335 0
M  V30 4499 H 393.11 2.47978 -3.34508 0
M  V30 4500 H 395.707 4.93963 -2.04707 0
M  V30 4501 H 396.05 4.12794 -0.539142 0
M  V30 4502 H 396.583 3.39576 -2.07203 0
M  V30 4503 H 393.322 4.33174 -4.91976 0
M  V30 4504 H 392.842 4.98441 -3.33642 0
M  V30 4505 H 394.521 5.15898 -3.90459 0
M  V30 4506 N 394.653 0.992116 1.22453 0
M  V30 4507 C 395.6 0.541731 2.24352 0
M  V30 4508 C 396.57 -0.425519 1.60557 0
M  V30 4509 O 397.755 -0.330453 1.87917 0
M  V30 4510 C 394.895 -0.138248 3.44823 0
M  V30 4511 C 394.008 0.870649 4.23136 0
M  V30 4512 C 393.143 0.164269 5.30946 0
M  V30 4513 C 392.182 1.16159 6.00977 0
M  V30 4514 N 391.319 0.483568 7.00433 0
M  V30 4515 H 396.159 1.41541 2.62241 0
M  V30 4516 H 393.696 0.709013 1.28885 0
M  V30 4517 H 395.654 -0.5494 4.13567 0
M  V30 4518 H 394.284 -0.975721 3.077 0
M  V30 4519 H 393.336 1.40013 3.53696 0
M  V30 4520 H 394.648 1.63014 4.7141 0
M  V30 4521 H 393.802 -0.303653 6.0594 0
M  V30 4522 H 392.541 -0.627733 4.83643 0
M  V30 4523 H 391.546 1.64015 5.24766 0
M  V30 4524 H 392.771 1.95445 6.50368 0
M  V30 4525 H 390.717 -0.289012 6.55363 0
M  V30 4526 H 390.634 1.18152 7.4671 0
M  V30 4527 H 391.902 0.0384219 7.79491 0
M  V30 4528 N 396.131 -1.37776 0.765217 0
M  V30 4529 C 397.061 -2.32945 0.160953 0
M  V30 4530 C 398.042 -1.55454 -0.690516 0
M  V30 4531 O 399.227 -1.83721 -0.629318 0
M  V30 4532 C 396.357 -3.39669 -0.724031 0
M  V30 4533 C 395.311 -4.27992 0.0256173 0
M  V30 4534 C 394.637 -5.25673 -0.978383 0
M  V30 4535 C 395.937 -5.08309 1.20082 0
M  V30 4536 H 397.631 -2.83728 0.955969 0
M  V30 4537 H 395.177 -1.36416 0.461149 0
M  V30 4538 H 397.13 -4.05219 -1.15652 0
M  V30 4539 H 395.854 -2.87396 -1.5515 0
M  V30 4540 H 394.513 -3.63964 0.438812 0
M  V30 4541 H 394.161 -4.69682 -1.80022 0
M  V30 4542 H 393.861 -5.85625 -0.481378 0
M  V30 4543 H 395.385 -5.94098 -1.40995 0
M  V30 4544 H 396.799 -5.67034 0.845307 0
M  V30 4545 H 395.196 -5.77554 1.62947 0
M  V30 4546 H 396.266 -4.41365 2.00811 0
M  V30 4547 N 397.609 -0.515225 -1.4894 0
M  V30 4548 C 398.556 0.255567 -2.29381 0
M  V30 4549 C 399.526 0.947387 -1.36432 0
M  V30 4550 O 400.711 0.951288 -1.65394 0
M  V30 4551 C 397.851 1.30551 -3.19453 0
M  V30 4552 C 396.964 0.624029 -4.27469 0
M  V30 4553 C 396.099 1.65563 -5.0474 0
M  V30 4554 C 395.138 0.956802 -6.04576 0
M  V30 4555 N 394.275 1.93326 -6.74959 0
M  V30 4556 H 399.115 -0.436607 -2.94784 0
M  V30 4557 H 396.652 -0.227154 -1.45336 0
M  V30 4558 H 398.61 1.92639 -3.70062 0
M  V30 4559 H 397.24 1.96626 -2.56004 0
M  V30 4560 H 396.292 -0.110459 -3.8024 0
M  V30 4561 H 397.604 0.0746092 -4.98744 0
M  V30 4562 H 396.758 2.35119 -5.59289 0
M  V30 4563 H 395.497 2.23893 -4.3327 0
M  V30 4564 H 394.502 0.247097 -5.49244 0
M  V30 4565 H 395.727 0.379814 -6.78037 0
M  V30 4566 H 393.673 2.50591 -6.06251 0
M  V30 4567 H 393.59 1.43489 -7.42258 0
M  V30 4568 H 394.858 2.62126 -7.34105 0
M  V30 4569 N 399.087 1.5561 -0.249682 0
M  V30 4570 C 400.498 1.84979 0.252949 0
M  V30 4571 C 400.849 1.17153 1.57384 0
M  V30 4572 O 399.974 0.450884 2.11651 0
M  V30 4573 C 400.569 3.35584 0.465732 0
M  V30 4574 C 399.128 3.65169 0.912624 0
M  V30 4575 C 398.275 2.77299 -0.00859085 0
M  V30 4576 H 401.226 1.51513 -0.47217 0
M  V30 4577 H 401.247 3.57313 1.30795 0
M  V30 4578 H 400.759 3.8492 -0.49579 0
M  V30 4579 H 398.86 3.21312 1.88652 0
M  V30 4580 H 398.973 4.72912 0.767559 0
M  V30 4581 H 397.337 2.49678 0.50327 0
M  V30 4582 H 398.12 3.29442 -0.965537 0
M  V30 4583 N 400.565 -0.0233959 1.57583 0
M  V30 4584 C 401.515 -1.03023 2.03397 0
M  V30 4585 C 402.499 -1.31701 0.924315 0
M  V30 4586 O 403.691 -1.31191 1.18819 0
M  V30 4587 C 400.82 -2.32961 2.52159 0
M  V30 4588 C 399.906 -2.07349 3.69956 0
M  V30 4589 N 400.297 -1.51814 4.82479 0
M  V30 4590 C 398.595 -2.37606 3.77438 0
M  V30 4591 C 399.296 -1.42136 5.64068 0
M  V30 4592 N 398.272 -1.89891 5.09355 0
M  V30 4593 H 402.074 -0.594962 2.87815 0
M  V30 4594 H 399.588 -0.229586 1.60769 0
M  V30 4595 H 401.585 -3.05906 2.83244 0
M  V30 4596 H 400.245 -2.77162 1.69149 0
M  V30 4597 H 401.256 -1.20008 5.03804 0
M  V30 4598 H 397.933 -2.84842 3.05239 0
M  V30 4599 H 399.323 -0.996405 6.64471 0
M  V30 4600 N 402.043 -1.548 -0.295768 0
M  V30 4601 C 403.273 -1.78069 -1.04762 0
M  V30 4602 C 403.681 -0.542847 -1.81245 0
M  V30 4603 O 403.024 0.497051 -1.76848 0
M  V30 4604 C 403.086 -2.93881 -2.07061 0
M  V30 4605 C 402.75 -4.31777 -1.49725 0
M  V30 4606 C 403.747 -5.11613 -0.924581 0
M  V30 4607 C 401.432 -4.78389 -1.5313 0
M  V30 4608 C 403.426 -6.36184 -0.393594 0
M  V30 4609 C 401.113 -6.02921 -0.996447 0
M  V30 4610 C 402.111 -6.81654 -0.428569 0
M  V30 4611 O 401.799 -8.0384 0.0981593 0
M  V30 4612 H 401.531 -0.597475 -0.316226 0
M  V30 4613 H 404.085 -2.02584 -0.338973 0
M  V30 4614 H 402.315 -2.65003 -2.81621 0
M  V30 4615 H 404.004 -3.04679 -2.6819 0
M  V30 4616 H 404.77 -4.76743 -0.891136 0
M  V30 4617 H 400.649 -4.17132 -1.9627 0
M  V30 4618 H 404.193 -6.97582 0.0503014 0
M  V30 4619 H 400.09 -6.37277 -1.02706 0
M  V30 4620 H 400.858 -8.18499 -0.0146455 0
M  V30 4621 N 403.521 0.559213 -1.47345 0
M  V30 4622 C 404.451 1.67622 -1.62558 0
M  V30 4623 C 405.432 1.63331 -0.475087 0
M  V30 4624 O 406.617 1.80983 -0.704182 0
M  V30 4625 C 403.747 3.0626 -1.63774 0
M  V30 4626 C 402.701 3.25397 -2.7803 0
M  V30 4627 C 402.027 4.64801 -2.64318 0
M  V30 4628 C 403.327 3.10965 -4.19641 0
M  V30 4629 H 405.021 1.55146 -2.56067 0
M  V30 4630 H 402.567 0.744961 -1.23233 0
M  V30 4631 H 404.52 3.84247 -1.73008 0
M  V30 4632 H 403.244 3.1969 -0.66825 0
M  V30 4633 H 401.903 2.49817 -2.68304 0
M  V30 4634 H 401.551 4.75028 -1.65401 0
M  V30 4635 H 401.251 4.78555 -3.40968 0
M  V30 4636 H 402.775 5.44926 -2.75478 0
M  V30 4637 H 404.189 3.78772 -4.30354 0
M  V30 4638 H 402.586 3.36229 -4.97062 0
M  V30 4639 H 403.656 2.07736 -4.38148 0
M  V30 4640 N 404.999 1.35443 0.805782 0
M  V30 4641 C 405.947 1.28465 1.93906 0
M  V30 4642 C 406.941 0.17943 1.68447 0
M  V30 4643 O 408.147 0.345459 1.76654 0
M  V30 4644 H 404.522 0.399528 0.637088 0
M  V30 4645 H 406.493 2.24206 1.96912 0
M  V30 4646 C 405.242 1.07432 3.30687 0
M  V30 4647 H 404.565 1.91716 3.50835 0
M  V30 4648 H 406.005 1.06591 4.10383 0
M  V30 4649 C 404.464 -0.22179 3.36169 0
M  V30 4650 O 404.994 -1.21731 3.82811 0
M  V30 4651 N 403.2 -0.260841 2.89427 0
M  V30 4652 H 402.747 0.549884 2.51663 0
M  V30 4653 H 402.705 -1.12777 2.93477 0
M  V30 4654 N 406.477 -1.02803 1.19454 0
M  V30 4655 C 407.726 -1.7562 0.991996 0
M  V30 4656 C 408.039 -1.89672 -0.477901 0
M  V30 4657 O 409.245 -2.59468 -0.799287 0
M  V30 4658 C 407.701 -3.15812 1.72601 0
M  V30 4659 C 407.309 -3.0981 3.23607 0
M  V30 4660 C 409.053 -3.92918 1.60674 0
M  V30 4661 C 406.96 -4.44939 3.89594 0
M  V30 4662 H 405.89 -0.658352 0.367543 0
M  V30 4663 H 408.541 -1.15044 1.42959 0
M  V30 4664 H 406.923 -3.7686 1.21624 0
M  V30 4665 H 408.097 -2.58138 3.81709 0
M  V30 4666 H 406.412 -2.46201 3.35819 0
M  V30 4667 H 409.009 -4.9287 2.07323 0
M  V30 4668 H 409.352 -4.12502 0.561025 0
M  V30 4669 H 409.885 -3.38472 2.09001 0
M  V30 4670 H 406.624 -4.30559 4.94267 0
M  V30 4671 H 406.144 -4.96664 3.36281 0
M  V30 4672 H 407.823 -5.1382 3.93189 0
M  V30 4673 N 407.956 -0.998596 -1.21925 0
M  V30 4674 C 408.886 -0.573688 -2.26343 0
M  V30 4675 C 409.867 0.402296 -1.65274 0
M  V30 4676 O 411.052 0.291683 -1.91997 0
M  V30 4677 C 408.182 0.106839 -3.47136 0
M  V30 4678 C 407.136 -0.788269 -4.20678 0
M  V30 4679 C 406.462 0.0254927 -5.34694 0
M  V30 4680 C 407.762 -2.08784 -4.78755 0
M  V30 4681 H 409.456 -1.44651 -2.62138 0
M  V30 4682 H 407.002 -0.696975 -1.26009 0
M  V30 4683 H 408.955 0.415531 -4.19346 0
M  V30 4684 H 407.679 1.01424 -3.10452 0
M  V30 4685 H 406.338 -1.08069 -3.50309 0
M  V30 4686 H 405.986 0.933989 -4.94253 0
M  V30 4687 H 405.686 -0.570437 -5.84825 0
M  V30 4688 H 407.21 0.328147 -6.09718 0
M  V30 4689 H 408.624 -1.84272 -5.42878 0
M  V30 4690 H 407.021 -2.63307 -5.39249 0
M  V30 4691 H 408.091 -2.76284 -3.98491 0
M  V30 4692 N 409.434 1.37368 -0.772513 0
M  V30 4693 C 410.682 1.99279 -0.336516 0
M  V30 4694 C 411.003 1.6163 1.09091 0
M  V30 4695 O 410.273 0.882109 1.74916 0
M  V30 4696 H 408.853 0.737063 -0.121435 0
M  V30 4697 H 411.515 1.67836 -0.990809 0
M  V30 4698 H 410.611 3.09332 -0.414763 0
M  V30 4699 N 410.912 0.523116 1.48665 0
M  V30 4700 C 411.822 -0.247406 2.33292 0
M  V30 4701 C 412.838 -0.945769 1.46052 0
M  V30 4702 O 414.014 -0.922253 1.79043 0
M  V30 4703 C 411.079 -1.28487 3.22012 0
M  V30 4704 C 410.14 -0.597592 4.2512 0
M  V30 4705 C 409.373 -1.58563 5.09601 0
M  V30 4706 O 409.596 -2.81763 4.95949 0
M  V30 4707 O 408.53 -1.12879 5.91221 0
M  V30 4708 H 412.356 0.445869 3.00409 0
M  V30 4709 H 409.941 0.284128 1.46673 0
M  V30 4710 H 411.823 -1.88459 3.7691 0
M  V30 4711 H 410.498 -1.96068 2.57564 0
M  V30 4712 H 409.405 0.0424407 3.74076 0
M  V30 4713 H 410.738 0.0361517 4.92187 0
M  V30 4714 N 412.39 -1.55475 0.257931 0
M  V30 4715 C 413.62 -2.03314 -0.367026 0
M  V30 4716 C 414.028 -1.13625 -1.51281 0
M  V30 4717 O 413.371 -0.145334 -1.83124 0
M  V30 4718 C 413.433 -3.47362 -0.926284 0
M  V30 4719 C 413.097 -4.56914 0.0886584 0
M  V30 4720 C 414.094 -5.12013 0.902123 0
M  V30 4721 C 411.779 -5.01827 0.217936 0
M  V30 4722 C 413.773 -6.10529 1.83122 0
M  V30 4723 C 411.46 -6.00172 1.15052 0
M  V30 4724 C 412.458 -6.54402 1.95568 0
M  V30 4725 O 412.146 -7.50827 2.87253 0
M  V30 4726 H 411.878 -0.669976 -0.0900443 0
M  V30 4727 H 414.432 -2.01804 0.382673 0
M  V30 4728 H 412.662 -3.46056 -1.72575 0
M  V30 4729 H 414.351 -3.78637 -1.46249 0
M  V30 4730 H 415.117 -4.78139 0.812891 0
M  V30 4731 H 410.996 -4.59272 -0.398721 0
M  V30 4732 H 414.54 -6.52783 2.46008 0
M  V30 4733 H 410.437 -6.33465 1.24064 0
M  V30 4734 H 411.205 -7.68483 2.81739 0
M  V30 4735 N 413.868 0.0150385 -1.57593 0
M  V30 4736 C 414.778 1.02791 -2.10882 0
M  V30 4737 C 415.794 1.38702 -1.0506 0
M  V30 4738 O 416.97 1.47739 -1.36877 0
M  V30 4739 C 414.035 2.30568 -2.58919 0
M  V30 4740 C 413.096 2.01108 -3.79281 0
M  V30 4741 C 412.329 3.22794 -4.25018 0
M  V30 4742 O 412.552 4.33959 -3.70183 0
M  V30 4743 O 411.486 3.07672 -5.17322 0
M  V30 4744 H 415.312 0.604973 -2.97613 0
M  V30 4745 H 412.897 0.23292 -1.47573 0
M  V30 4746 H 414.779 3.05662 -2.90084 0
M  V30 4747 H 413.454 2.72129 -1.75293 0
M  V30 4748 H 412.361 1.23537 -3.53114 0
M  V30 4749 H 413.694 1.64394 -4.63935 0
M  V30 4750 N 415.346 1.54954 0.287554 0
M  V30 4751 C 416.762 1.46469 0.633964 0
M  V30 4752 C 416.962 0.666865 1.90145 0
M  V30 4753 O 416.018 0.179906 2.51858 0
M  V30 4754 C 417.331 2.90556 0.774454 0
M  V30 4755 C 418.879 3.00681 0.869462 0
M  V30 4756 C 419.354 4.45993 1.04184 0
M  V30 4757 N 420.845 4.4976 1.10772 0
M  V30 4758 C 421.58 5.59393 1.25964 0
M  V30 4759 N 421.076 6.78923 1.37968 0
M  V30 4760 N 422.869 5.47107 1.28959 0
M  V30 4761 H 415.02 2.05288 -0.545041 0
M  V30 4762 H 417.283 0.930305 -0.182308 0
M  V30 4763 H 416.989 3.51594 -0.086207 0
M  V30 4764 H 416.863 3.38743 1.6593 0
M  V30 4765 H 419.25 2.39749 1.7206 0
M  V30 4766 H 419.331 2.55769 -0.0396831 0
M  V30 4767 H 418.975 5.07524 0.195422 0
M  V30 4768 H 418.905 4.88548 1.96542 0
M  V30 4769 H 421.396 3.63651 1.02794 0
M  V30 4770 H 421.709 7.58231 1.49353 0
M  V30 4771 H 420.054 6.81763 1.34999 0
M  V30 4772 H 423.245 4.52668 1.19202 0
M  V30 4773 H 423.418 6.32595 1.40455 0
M  V30 4774 N 416.824 -0.551391 1.4764 0
M  V30 4775 C 417.771 -1.65796 1.60563 0
M  V30 4776 C 418.741 -1.59932 0.448428 0
M  V30 4777 O 419.926 -1.78679 0.669222 0
M  V30 4778 C 417.066 -3.04108 1.63133 0
M  V30 4779 C 416.179 -3.20365 2.89811 0
M  V30 4780 C 415.314 -4.49109 2.8368 0
M  V30 4781 C 414.353 -4.58819 4.05156 0
M  V30 4782 N 413.49 -5.78926 3.97227 0
M  V30 4783 H 418.33 -1.54088 2.5507 0
M  V30 4784 H 415.867 -0.75052 1.26513 0
M  V30 4785 H 417.825 -3.84207 1.62606 0
M  V30 4786 H 416.455 -3.14637 0.721341 0
M  V30 4787 H 415.507 -2.33659 3.00179 0
M  V30 4788 H 416.819 -3.23402 3.79753 0
M  V30 4789 H 415.973 -5.37475 2.81434 0
M  V30 4790 H 414.712 -4.4856 1.91431 0
M  V30 4791 H 413.717 -3.68864 4.077 0
M  V30 4792 H 414.942 -4.61124 4.98539 0
M  V30 4793 H 412.888 -5.79314 3.07785 0
M  V30 4794 H 412.805 -5.83367 4.80853 0
M  V30 4795 H 414.073 -6.69637 3.99007 0
M  V30 4796 N 418.302 -1.35869 -0.798587 0
M  V30 4797 C 419.713 -1.26498 -1.37314 0
M  V30 4798 C 420.064 0.0991899 -1.95949 0
M  V30 4799 O 419.189 1.0004 -1.91888 0
M  V30 4800 C 419.784 -2.29054 -2.49639 0
M  V30 4801 C 418.343 -2.234 -3.02935 0
M  V30 4802 C 417.49 -2.14329 -1.75949 0
M  V30 4803 H 420.441 -1.46881 -0.600971 0
M  V30 4804 H 420.462 -1.92166 -3.28409 0
M  V30 4805 H 419.974 -3.2833 -2.06933 0
M  V30 4806 H 418.075 -1.27562 -3.50084 0
M  V30 4807 H 418.188 -3.15703 -3.60372 0
M  V30 4808 H 416.552 -1.60435 -1.9782 0
M  V30 4809 H 417.335 -3.15477 -1.35384 0
M  V30 4810 N 419.78 1.02168 -1.19998 0
M  V30 4811 C 421.026 1.7606 -1.01855 0
M  V30 4812 C 421.381 1.87178 0.445222 0
M  V30 4813 O 420.674 1.3828 1.32624 0
M  V30 4814 C 420.868 3.18081 -1.62969 0
M  V30 4815 C 420.697 3.20809 -3.15137 0
M  V30 4816 C 419.467 3.28342 -3.84083 0
M  V30 4817 C 421.665 3.07268 -4.1242 0
M  V30 4818 N 419.647 3.2052 -5.23584 0
M  V30 4819 C 421.018 3.0716 -5.38566 0
M  V30 4820 C 423.073 2.91448 -4.03686 0
M  V30 4821 C 421.776 2.92853 -6.56985 0
M  V30 4822 C 423.802 2.78494 -5.21723 0
M  V30 4823 C 423.164 2.79046 -6.46771 0
M  V30 4824 H 419.263 0.655192 -0.426905 0
M  V30 4825 H 421.847 1.21564 -1.52087 0
M  V30 4826 H 420.018 3.70882 -1.15329 0
M  V30 4827 H 421.75 3.80375 -1.38192 0
M  V30 4828 H 418.505 3.34859 -3.34913 0
M  V30 4829 H 418.929 3.19997 -5.96599 0
M  V30 4830 H 423.571 2.89838 -3.07821 0
M  V30 4831 H 421.289 2.93213 -7.53028 0
M  V30 4832 H 424.875 2.67278 -5.16773 0
M  V30 4833 H 423.755 2.69134 -7.36571 0
M  V30 4834 N 421.258 1.00505 1.21394 0
M  V30 4835 C 422.483 0.706367 1.95001 0
M  V30 4836 C 422.908 -0.72463 1.73582 0
M  V30 4837 O 422.266 -1.49702 1.0227 0
M  V30 4838 C 422.314 1.03299 3.45487 0
M  V30 4839 O 421.418 0.138275 4.12168 0
M  V30 4840 H 420.759 0.263175 0.609619 0
M  V30 4841 H 423.289 1.34531 1.54151 0
M  V30 4842 H 423.299 0.979872 3.96059 0
M  V30 4843 H 421.974 2.07567 3.60401 0
M  V30 4844 H 420.551 0.247928 3.72075 0
M  V30 4845 N 422.737 -1.36956 0.779787 0
M  V30 4846 C 423.687 -2.27539 0.144892 0
M  V30 4847 C 424.671 -1.46493 -0.665488 0
M  V30 4848 O 425.863 -1.68968 -0.527141 0
M  V30 4849 C 422.992 -3.35512 -0.727082 0
M  V30 4850 C 422.078 -4.24001 0.0915642 0
M  V30 4851 N 422.469 -4.92757 1.14125 0
M  V30 4852 C 420.767 -4.45807 -0.131141 0
M  V30 4853 C 421.468 -5.58138 1.6388 0
M  V30 4854 N 420.444 -5.35241 0.94962 0
M  V30 4855 H 424.246 -2.78176 0.948446 0
M  V30 4856 H 421.76 -1.50169 0.618315 0
M  V30 4857 H 423.757 -3.99324 -1.19776 0
M  V30 4858 H 422.417 -2.86431 -1.52929 0
M  V30 4859 H 423.428 -4.94984 1.52353 0
M  V30 4860 H 420.105 -4.07582 -0.904621 0
M  V30 4861 H 421.495 -6.23071 2.51461 0
M  V30 4862 N 424.215 -0.530993 -1.48385 0
M  V30 4863 C 425.462 0.0027373 -2.025 0
M  V30 4864 C 425.79 1.34186 -1.40799 0
M  V30 4865 O 425.045 1.88 -0.543544 0
M  V30 4866 C 425.344 0.172742 -3.56982 0
M  V30 4867 C 425.01 -1.09215 -4.37473 0
M  V30 4868 C 423.672 -1.43881 -4.59186 0
M  V30 4869 C 426.024 -1.93153 -4.84088 0
M  V30 4870 C 423.352 -2.62381 -5.2476 0
M  V30 4871 C 425.704 -3.10833 -5.50968 0
M  V30 4872 C 424.368 -3.45843 -5.70919 0
M  V30 4873 H 423.638 0.00100165 -0.740999 0
M  V30 4874 H 426.285 -0.697219 -1.78357 0
M  V30 4875 H 424.59 0.955473 -3.79971 0
M  V30 4876 H 426.287 0.600642 -3.96476 0
M  V30 4877 H 422.877 -0.812177 -4.20834 0
M  V30 4878 H 427.061 -1.67683 -4.67115 0
M  V30 4879 H 422.317 -2.89707 -5.38405 0
M  V30 4880 H 426.491 -3.7618 -5.86056 0
M  V30 4881 H 424.118 -4.37764 -6.21503 0
M  V30 4882 N 425.693 1.55336 -0.266172 0
M  V30 4883 C 426.623 2.25146 0.618981 0
M  V30 4884 C 427.604 1.23845 1.16604 0
M  V30 4885 O 428.789 1.52544 1.20183 0
M  V30 4886 C 425.919 2.96572 1.80728 0
M  V30 4887 C 424.873 4.04726 1.39215 0
M  V30 4888 C 424.199 4.63678 2.66283 0
M  V30 4889 C 425.499 5.19407 0.548942 0
M  V30 4890 H 427.193 2.99377 0.0368116 0
M  V30 4891 H 424.739 1.43991 0.0162651 0
M  V30 4892 H 426.692 3.44116 2.43232 0
M  V30 4893 H 425.416 2.19861 2.41514 0
M  V30 4894 H 424.075 3.57979 0.790351 0
M  V30 4895 H 423.723 3.83646 3.25308 0
M  V30 4896 H 423.423 5.367 2.39222 0
M  V30 4897 H 424.947 5.13967 3.29651 0
M  V30 4898 H 426.361 5.63059 1.07876 0
M  V30 4899 H 424.758 5.98936 0.373593 0
M  V30 4900 H 425.828 4.8295 -0.434394 0
M  V30 4901 N 427.171 -0.0066808 1.57599 0
M  V30 4902 C 428.399 -0.704087 1.94551 0
M  V30 4903 C 428.814 -1.67677 0.867746 0
M  V30 4904 O 428.171 -1.8185 -0.153925 0
M  V30 4905 C 428.222 -1.44177 3.31505 0
M  V30 4906 O 427.943 -0.508097 4.35144 0
M  V30 4907 C 429.444 -2.23429 3.82876 0
M  V30 4908 H 426.664 -0.196523 0.641576 0
M  V30 4909 H 429.208 0.042453 2.04456 0
M  V30 4910 H 427.363 -2.13999 3.22929 0
M  V30 4911 H 427.777 -1.02782 5.14331 0
M  V30 4912 H 429.251 -2.70552 4.8115 0
M  V30 4913 H 429.728 -3.05818 3.15233 0
M  V30 4914 H 430.334 -1.58636 3.94607 0
M  V30 4915 N 428.649 -1.55105 -0.279332 0
M  V30 4916 C 429.581 -1.83952 -1.36727 0
M  V30 4917 C 430.594 -0.723642 -1.45833 0
M  V30 4918 O 431.783 -1.00141 -1.47763 0
M  V30 4919 C 428.883 -1.98183 -2.74912 0
M  V30 4920 C 428.056 -3.28787 -2.88475 0
M  V30 4921 C 427.115 -3.33162 -4.07295 0
M  V30 4922 O 426.141 -4.06576 -3.98353 0
M  V30 4923 N 427.343 -2.60109 -5.18964 0
M  V30 4924 H 430.108 -2.77853 -1.12328 0
M  V30 4925 H 427.669 -1.54945 -0.469442 0
M  V30 4926 H 429.661 -1.98488 -3.52682 0
M  V30 4927 H 428.231 -1.11177 -2.92162 0
M  V30 4928 H 427.451 -3.41075 -1.97641 0
M  V30 4929 H 428.739 -4.14933 -2.94463 0
M  V30 4930 H 428.137 -2.00136 -5.29115 0
M  V30 4931 H 426.694 -2.66143 -5.94988 0
M  V30 4932 N 430.127 0.543554 -1.4793 0
M  V30 4933 C 431.352 1.32995 -1.59145 0
M  V30 4934 C 431.777 1.86472 -0.246956 0
M  V30 4935 O 431.135 1.63696 0.779324 0
M  V30 4936 C 431.183 2.46623 -2.63077 0
M  V30 4937 O 430.287 3.49261 -2.19295 0
M  V30 4938 H 429.628 0.394472 -0.534124 0
M  V30 4939 H 432.158 0.655489 -1.93816 0
M  V30 4940 H 432.168 2.93001 -2.83926 0
M  V30 4941 H 430.843 2.07059 -3.60693 0
M  V30 4942 H 429.42 3.09094 -2.08603 0
M  V30 4943 N 431.605 1.3629 0.791371 0
M  V30 4944 C 432.553 1.30514 1.92533 0
M  V30 4945 C 433.547 0.197285 1.68247 0
M  V30 4946 O 434.753 0.364176 1.76278 0
M  V30 4947 H 431.128 0.406263 0.632815 0
M  V30 4948 H 433.099 2.26282 1.94523 0
M  V30 4949 C 431.848 1.10933 3.29529 0
M  V30 4950 H 431.171 1.95427 3.48781 0
M  V30 4951 H 432.611 1.10937 4.0923 0
M  V30 4952 C 431.07 -0.186123 3.36385 0
M  V30 4953 O 431.6 -1.17664 3.84081 0
M  V30 4954 N 429.806 -0.230128 2.89687 0
M  V30 4955 H 429.353 0.576545 2.51065 0
M  V30 4956 H 429.311 -1.09658 2.94657 0
M  V30 4957 N 433.083 -1.0153 1.20538 0
M  V30 4958 C 434.332 -1.74558 1.01057 0
M  V30 4959 C 434.645 -1.90168 -0.457756 0
M  V30 4960 O 435.851 -2.60301 -0.771722 0
M  V30 4961 C 434.307 -3.13963 1.75941 0
M  V30 4962 C 433.915 -3.06361 3.26875 0
M  V30 4963 C 435.659 -3.91191 1.64832 0
M  V30 4964 C 433.566 -4.40782 3.94291 0
M  V30 4965 H 432.496 -0.654417 0.374505 0
M  V30 4966 H 435.147 -1.13521 1.44171 0
M  V30 4967 H 433.529 -3.75549 1.25614 0
M  V30 4968 H 434.703 -2.54074 3.84425 0
M  V30 4969 H 433.018 -2.42625 3.38411 0
M  V30 4970 H 435.615 -4.90644 2.12539 0
M  V30 4971 H 435.958 -4.11884 0.604745 0
M  V30 4972 H 436.491 -3.36236 2.12579 0
M  V30 4973 H 433.23 -4.25292 4.98805 0
M  V30 4974 H 432.75 -4.9307 3.41529 0
M  V30 4975 H 434.429 -5.09621 3.98617 0
M  V30 4976 N 434.561 -1.01147 -1.20859 0
M  V30 4977 C 435.838 -0.613136 -1.85742 0
M  V30 4978 C 436.218 0.909004 -1.90526 0
M  V30 4979 O 435.566 1.79862 -1.40932 0
M  V30 4980 C 435.776 -1.255 -3.25654 0
M  V30 4981 C 437.124 -1.3672 -4.01986 0
M  V30 4982 O 438.148 -1.21082 -3.34989 0
M  V30 4983 O 437.007 -1.6194 -5.21956 0
M  V30 4984 H 434.101 -0.210878 -0.799662 0
M  V30 4985 H 436.647 -1.10853 -1.2849 0
M  V30 4986 H 435.419 -2.29532 -3.16908 0
M  V30 4987 H 435.042 -0.746369 -3.90532 0
M  V30 4988 N 436.039 1.36541 -0.78704 0
M  V30 4989 C 437.288 1.98552 -0.35494 0
M  V30 4990 C 437.601 1.63171 1.07864 0
M  V30 4991 O 438.807 2.18399 1.61289 0
M  V30 4992 C 437.263 3.55136 -0.583671 0
M  V30 4993 C 436.871 3.99444 -2.02851 0
M  V30 4994 C 438.615 4.2395 -0.215957 0
M  V30 4995 C 436.522 5.48796 -2.20403 0
M  V30 4996 H 435.452 0.742888 -0.128972 0
M  V30 4997 H 438.103 1.5587 -0.968337 0
M  V30 4998 H 436.485 3.95875 0.0994046 0
M  V30 4999 H 437.659 3.6991 -2.74779 0
M  V30 5000 H 435.974 3.43459 -2.35425 0
M  V30 5001 H 438.571 5.33709 -0.325405 0
M  V30 5002 H 438.914 4.07827 0.835646 0
M  V30 5003 H 439.447 3.88565 -0.852175 0
M  V30 5004 H 436.186 5.69864 -3.23937 0
M  V30 5005 H 435.706 5.79964 -1.52977 0
M  V30 5006 H 437.385 6.14986 -2.01002 0
M  V30 5007 N 437.518 0.538854 1.48102 0
M  V30 5008 C 438.481 -0.208395 2.28251 0
M  V30 5009 C 439.481 -0.859656 1.35892 0
M  V30 5010 O 440.671 -0.71834 1.58699 0
M  V30 5011 C 437.803 -1.30252 3.15035 0
M  V30 5012 H 438.996 0.495407 2.9578 0
M  V30 5013 H 436.549 0.295112 1.53489 0
M  V30 5014 H 437.284 -2.0393 2.52157 0
M  V30 5015 H 437.069 -0.840551 3.82985 0
M  V30 5016 H 438.559 -1.82787 3.75471 0
M  V30 5017 N 438.996 -1.55193 0.274407 0
M  V30 5018 C 439.943 -2.225 -0.613374 0
M  V30 5019 C 440.913 -1.19823 -1.15029 0
M  V30 5020 O 442.098 -1.48362 -1.19973 0
M  V30 5021 C 439.238 -2.94927 -1.79199 0
M  V30 5022 C 438.351 -4.12322 -1.28899 0
M  V30 5023 C 437.486 -4.72394 -2.42934 0
M  V30 5024 C 436.525 -5.81984 -1.89634 0
M  V30 5025 N 435.662 -6.36123 -2.9714 0
M  V30 5026 H 440.502 -2.97982 -0.032756 0
M  V30 5027 H 438.039 -1.47099 -0.00440146 0
M  V30 5028 H 439.997 -3.35134 -2.48478 0
M  V30 5029 H 438.627 -2.2187 -2.34465 0
M  V30 5030 H 437.679 -3.7724 -0.489327 0
M  V30 5031 H 438.991 -4.91355 -0.858587 0
M  V30 5032 H 438.145 -5.15317 -3.20208 0
M  V30 5033 H 436.884 -3.92636 -2.8929 0
M  V30 5034 H 435.889 -5.38511 -1.1084 0
M  V30 5035 H 437.114 -6.6361 -1.44215 0
M  V30 5036 H 435.06 -5.59259 -3.42878 0
M  V30 5037 H 434.977 -7.10427 -2.58515 0
M  V30 5038 H 436.245 -6.83704 -3.74391 0
M  V30 5039 N 440.474 -0.00167713 -1.576 0
M  V30 5040 C 441.751 0.719951 -1.81868 0
M  V30 5041 C 442.131 1.91895 -0.879747 0
M  V30 5042 O 441.479 2.28389 0.0711423 0
M  V30 5043 C 441.689 1.12409 -3.30402 0
M  V30 5044 C 443.037 1.52724 -3.96182 0
M  V30 5045 O 444.061 1.21784 -3.34734 0
M  V30 5046 O 442.92 2.10265 -5.04431 0
M  V30 5047 H 440.014 0.350707 -0.748955 0
M  V30 5048 H 442.56 -0.0272597 -1.69678 0
M  V30 5049 H 441.332 0.269532 -3.90371 0
M  V30 5050 H 440.955 1.93035 -3.47596 0
M  V30 5051 N 441.952 1.55251 0.271103 0
M  V30 5052 C 442.862 1.9136 1.35714 0
M  V30 5053 C 443.878 0.811075 1.5394 0
M  V30 5054 O 445.054 1.11031 1.6803 0
M  V30 5055 C 442.119 2.1798 2.69603 0
M  V30 5056 C 441.18 3.4153 2.60107 0
M  V30 5057 C 440.413 3.66871 3.8761 0
M  V30 5058 O 440.636 2.94689 4.8838 0
M  V30 5059 O 439.57 4.60405 3.87699 0
M  V30 5060 H 443.396 2.83815 1.08088 0
M  V30 5061 H 440.981 1.41821 0.469792 0
M  V30 5062 H 442.863 2.36518 3.48765 0
M  V30 5063 H 441.538 1.28708 2.97012 0
M  V30 5064 H 440.445 3.28325 1.79314 0
M  V30 5065 H 441.778 4.31027 2.37647 0
M  V30 5066 N 443.43 -0.535701 1.48216 0
M  V30 5067 C 444.676 -1.29375 1.56173 0
M  V30 5068 C 445.009 -1.92804 0.232429 0
M  V30 5069 O 444.284 -1.78992 -0.761048 0
M  V30 5070 C 444.567 -2.38747 2.69577 0
M  V30 5071 C 444.42 -1.80046 4.12193 0
M  V30 5072 C 445.739 -3.40551 2.78771 0
M  V30 5073 H 442.858 -0.469027 0.568491 0
M  V30 5074 H 445.5 -0.597358 1.80365 0
M  V30 5075 H 443.65 -2.98147 2.4908 0
M  V30 5076 H 445.322 -1.24742 4.44114 0
M  V30 5077 H 443.565 -1.10609 4.19462 0
M  V30 5078 H 444.236 -2.59212 4.87353 0
M  V30 5079 H 446.712 -2.91099 2.97322 0
M  V30 5080 H 445.588 -4.1448 3.59857 0
M  V30 5081 H 445.849 -4.00746 1.86696 0
M  V30 5082 N 444.908 -1.36708 -0.784132 0
M  V30 5083 C 446.157 -1.30559 -1.53744 0
M  V30 5084 C 446.47 0.111374 -1.95283 0
M  V30 5085 O 447.676 0.29527 -2.6989 0
M  V30 5086 C 446.132 -2.29098 -2.77565 0
M  V30 5087 C 445.74 -3.76258 -2.43174 0
M  V30 5088 C 447.484 -2.31936 -3.55536 0
M  V30 5089 C 445.391 -4.6656 -3.63422 0
M  V30 5090 H 444.321 -0.48518 -0.577162 0
M  V30 5091 H 446.972 -1.62101 -0.859981 0
M  V30 5092 H 445.354 -1.90557 -3.47137 0
M  V30 5093 H 446.528 -4.23565 -1.81465 0
M  V30 5094 H 444.843 -3.76246 -1.78403 0
M  V30 5095 H 447.44 -2.9661 -4.44889 0
M  V30 5096 H 447.783 -1.3294 -3.94503 0
M  V30 5097 H 448.316 -2.6912 -2.92949 0
M  V30 5098 H 445.055 -5.66638 -3.29547 0
M  V30 5099 H 444.575 -4.23966 -4.24279 0
M  V30 5100 H 446.254 -4.8309 -4.30387 0
M  V30 5101 N 446.386 1.0089 -1.21074 0
M  V30 5102 C 447.663 1.71834 -0.934469 0
M  V30 5103 C 448.043 2.0368 0.554753 0
M  V30 5104 O 447.391 1.70742 1.51854 0
M  V30 5105 C 447.601 2.98061 -1.8155 0
M  V30 5106 C 448.949 3.7117 -2.06199 0
M  V30 5107 O 449.973 3.08034 -1.78867 0
M  V30 5108 O 448.832 4.84721 -2.52404 0
M  V30 5109 H 445.926 0.749253 -0.35007 0
M  V30 5110 H 448.472 1.06668 -1.31985 0
M  V30 5111 H 447.244 2.70908 -2.82355 0
M  V30 5112 H 446.867 3.70968 -1.43068 0
M  V30 5113 N 447.864 1.01787 1.20321 0
M  V30 5114 C 448.794 0.609625 2.25401 0
M  V30 5115 C 449.775 -0.375951 1.65893 0
M  V30 5116 O 450.96 -0.261101 1.92437 0
M  V30 5117 C 448.09 -0.0515995 3.47262 0
M  V30 5118 C 447.044 0.855095 4.19371 0
M  V30 5119 C 446.37 0.0595757 5.34667 0
M  V30 5120 C 447.67 2.16374 4.75373 0
M  V30 5121 H 449.364 1.48803 2.59804 0
M  V30 5122 H 446.91 0.716934 1.24884 0
M  V30 5123 H 448.863 -0.348764 4.19954 0
M  V30 5124 H 447.587 -0.964726 3.12027 0
M  V30 5125 H 446.246 1.13628 3.48546 0
M  V30 5126 H 445.894 -0.85524 4.95676 0
M  V30 5127 H 445.594 0.663406 5.83843 0
M  V30 5128 H 447.118 -0.231105 6.10162 0
M  V30 5129 H 448.532 1.92885 5.39878 0
M  V30 5130 H 446.929 2.71853 5.34991 0
M  V30 5131 H 447.999 2.82589 3.94045 0
M  V30 5132 N 449.342 -1.36122 0.79427 0
M  V30 5133 C 450.591 -1.98361 0.365464 0
M  V30 5134 C 450.904 -1.6374 -1.06997 0
M  V30 5135 O 452.11 -2.19251 -1.60129 0
M  V30 5136 C 450.566 -3.54821 0.602496 0
M  V30 5137 C 450.174 -3.98362 2.04967 0
M  V30 5138 C 451.918 -4.2383 0.238437 0
M  V30 5139 C 449.825 -5.47619 2.2331 0
M  V30 5140 H 448.755 -0.742193 0.13291 0
M  V30 5141 H 451.406 -1.55354 0.976589 0
M  V30 5142 H 449.788 -3.95922 -0.078409 0
M  V30 5143 H 450.962 -3.68447 2.76737 0
M  V30 5144 H 449.277 -3.42206 2.37243 0
M  V30 5145 H 451.874 -5.33529 0.353705 0
M  V30 5146 H 452.217 -4.08264 -0.814006 0
M  V30 5147 H 452.75 -3.88108 0.872769 0
M  V30 5148 H 449.489 -5.68138 3.26955 0
M  V30 5149 H 449.009 -5.79145 1.5605 0
M  V30 5150 H 450.688 -6.13911 2.0426 0
M  V30 5151 N 450.82 -0.546701 -1.47814 0
M  V30 5152 C 452.097 0.0464413 -1.95545 0
M  V30 5153 C 452.477 1.4962 -1.48919 0
M  V30 5154 O 451.825 2.16752 -0.723232 0
M  V30 5155 C 452.035 -0.0881298 -3.48889 0
M  V30 5156 C 453.383 0.0626059 -4.24554 0
M  V30 5157 O 454.407 -0.0151555 -3.56197 0
M  V30 5158 O 453.266 0.228071 -5.46024 0
M  V30 5159 H 450.36 0.0700004 -0.824032 0
M  V30 5160 H 452.906 -0.612482 -1.58262 0
M  V30 5161 H 451.678 -1.09737 -3.75597 0
M  V30 5162 H 451.301 0.608886 -3.9291 0
M  V30 5163 N 452.299 1.55045 -0.282633 0
M  V30 5164 C 453.246 2.22822 0.601566 0
M  V30 5165 C 454.216 1.20431 1.14392 0
M  V30 5166 O 455.401 1.48996 1.19184 0
M  V30 5167 C 452.541 2.95873 1.77632 0
M  V30 5168 C 451.654 4.12999 1.26711 0
M  V30 5169 C 450.789 4.73676 2.40426 0
M  V30 5170 C 449.828 5.82981 1.86545 0
M  V30 5171 N 448.965 6.3769 2.93762 0
M  V30 5172 H 453.805 2.97995 0.0169528 0
M  V30 5173 H 451.342 1.471 -0.00339964 0
M  V30 5174 H 453.3 3.36447 2.46697 0
M  V30 5175 H 451.93 2.2311 2.33285 0
M  V30 5176 H 450.982 3.77494 0.469314 0
M  V30 5177 H 452.294 4.91803 0.832518 0
M  V30 5178 H 451.448 5.17008 3.17471 0
M  V30 5179 H 450.187 3.94164 2.87203 0
M  V30 5180 H 449.192 5.39092 1.07983 0
M  V30 5181 H 450.417 6.64366 1.40694 0
M  V30 5182 H 448.363 5.61069 3.39908 0
M  V30 5183 H 448.28 7.11788 2.54744 0
M  V30 5184 H 449.548 6.8568 3.7076 0
M  V30 5185 N 453.777 0.010035 1.57597 0
M  V30 5186 C 454.71 -1.01234 2.04516 0
M  V30 5187 C 455.688 -1.32886 0.937024 0
M  V30 5188 O 456.872 -1.44879 1.20592 0
M  V30 5189 C 453.999 -2.33738 2.45121 0
M  V30 5190 C 453.045 -2.17679 3.66767 0
M  V30 5191 S 453.878 -1.49343 5.14254 0
M  V30 5192 C 455.034 -2.83256 5.58137 0
M  V30 5193 H 455.267 -0.612866 2.90914 0
M  V30 5194 H 452.8 -0.201124 1.53084 0
M  V30 5195 H 454.758 -3.09922 2.69182 0
M  V30 5196 H 453.419 -2.70823 1.59103 0
M  V30 5197 H 452.612 -3.1559 3.92962 0
M  V30 5198 H 452.214 -1.4964 3.42759 0
M  V30 5199 H 454.506 -3.79538 5.6121 0
M  V30 5200 H 455.449 -2.61749 6.57946 0
M  V30 5201 H 455.857 -2.87627 4.85727 0
M  V30 5202 N 455.255 -1.55392 -0.262866 0
M  V30 5203 C 456.185 -1.91978 -1.32917 0
M  V30 5204 C 457.166 -0.7828 -1.51017 0
M  V30 5205 O 458.351 -1.04178 -1.63892 0
M  V30 5206 C 455.481 -2.20055 -2.68687 0
M  V30 5207 C 454.435 -3.35854 -2.65304 0
M  V30 5208 C 453.761 -3.49435 -4.04721 0
M  V30 5209 C 455.061 -4.71977 -2.23685 0
M  V30 5210 H 456.755 -2.81292 -1.02544 0
M  V30 5211 H 454.301 -1.3534 -0.491846 0
M  V30 5212 H 456.254 -2.44237 -3.43404 0
M  V30 5213 H 454.978 -1.27551 -3.00663 0
M  V30 5214 H 453.637 -3.11655 -1.93045 0
M  V30 5215 H 453.285 -2.54379 -4.33936 0
M  V30 5216 H 452.985 -4.27297 -4.0335 0
M  V30 5217 H 454.509 -3.7592 -4.81161 0
M  V30 5218 H 455.923 -4.95637 -2.88127 0
M  V30 5219 H 454.32 -5.52828 -2.33456 0
M  V30 5220 H 455.39 -4.70115 -1.18827 0
M  V30 5221 N 456.733 0.527833 -1.48498 0
M  V30 5222 C 457.982 1.28003 -1.55878 0
M  V30 5223 C 458.295 1.9414 -0.238577 0
M  V30 5224 O 459.501 2.7083 -0.190643 0
M  V30 5225 C 457.957 2.32272 -2.74914 0
M  V30 5226 C 457.565 1.72196 -4.13585 0
M  V30 5227 C 459.309 3.08488 -2.91608 0
M  V30 5228 C 457.216 2.74417 -5.23879 0
M  V30 5229 H 456.146 0.481413 -0.580308 0
M  V30 5230 H 458.797 0.557195 -1.74836 0
M  V30 5231 H 457.179 3.07601 -2.49395 0
M  V30 5232 H 458.353 1.03041 -4.49132 0
M  V30 5233 H 456.668 1.08464 -4.02025 0
M  V30 5234 H 459.265 3.84879 -3.71177 0
M  V30 5235 H 459.608 3.64481 -2.01145 0
M  V30 5236 H 460.141 2.40274 -3.17038 0
M  V30 5237 H 456.88 2.23242 -6.16314 0
M  V30 5238 H 456.4 3.41893 -4.92818 0
M  V30 5239 H 458.079 3.37362 -5.52083 0
M  V30 5240 N 458.211 1.37122 0.776871 0
M  V30 5241 C 459.441 1.35034 1.56363 0
M  V30 5242 C 459.849 -0.0674681 1.8908 0
M  V30 5243 O 459.192 -1.03826 1.51545 0
M  V30 5244 C 459.254 2.11894 2.90415 0
M  V30 5245 C 458.918 3.60897 2.80362 0
M  V30 5246 C 459.915 4.54887 2.51742 0
M  V30 5247 C 457.6 4.03951 2.98545 0
M  V30 5248 C 459.594 5.89909 2.41426 0
M  V30 5249 C 457.281 5.3906 2.87849 0
M  V30 5250 C 458.279 6.31852 2.5933 0
M  V30 5251 O 457.967 7.64479 2.48651 0
M  V30 5252 H 457.699 0.464402 0.49123 0
M  V30 5253 H 460.253 1.80992 0.971127 0
M  V30 5254 H 458.483 1.60618 3.51765 0
M  V30 5255 H 460.172 2.02505 3.51776 0
M  V30 5256 H 460.938 4.22934 2.37385 0
M  V30 5257 H 456.817 3.3209 3.19746 0
M  V30 5258 H 460.361 6.62304 2.19086 0
M  V30 5259 H 456.258 5.70617 3.01773 0
M  V30 5260 H 457.026 7.74742 2.64039 0
M  V30 5261 N 459.689 -1.00246 1.21608 0
M  V30 5262 C 460.966 -1.71336 0.943568 0
M  V30 5263 C 461.346 -2.03972 -0.543943 0
M  V30 5264 O 460.694 -1.71545 -1.50946 0
M  V30 5265 C 460.904 -2.97094 1.83128 0
M  V30 5266 C 462.252 -3.70071 2.08165 0
M  V30 5267 O 463.276 -3.07081 1.80498 0
M  V30 5268 O 462.135 -4.83376 2.54971 0
M  V30 5269 H 459.229 -0.747386 0.354039 0
M  V30 5270 H 461.775 -1.05967 1.32549 0
M  V30 5271 H 460.547 -2.69407 2.83788 0
M  V30 5272 H 460.17 -3.70204 1.45034 0
M  V30 5273 N 461.167 -1.02423 -1.1978 0
M  V30 5274 C 462.117 -0.571689 -2.20716 0
M  V30 5275 C 463.101 0.377077 -1.56419 0
M  V30 5276 O 464.293 0.198801 -1.7588 0
M  V30 5277 C 461.422 0.0808555 -3.43205 0
M  V30 5278 C 460.508 -0.890073 -4.14655 0
M  V30 5279 N 460.899 -2.05065 -4.62366 0
M  V30 5280 C 459.197 -0.71252 -4.40272 0
M  V30 5281 C 459.898 -2.66264 -5.17183 0
M  V30 5282 N 458.874 -1.94264 -5.07703 0
M  V30 5283 H 462.676 -1.45636 -2.55279 0
M  V30 5284 H 460.19 -0.890596 -1.35802 0
M  V30 5285 H 462.187 0.422654 -4.14752 0
M  V30 5286 H 460.847 0.961274 -3.10144 0
M  V30 5287 H 461.858 -2.43026 -4.57339 0
M  V30 5288 H 458.535 0.119199 -4.1733 0
M  V30 5289 H 459.925 -3.64526 -5.64421 0
M  V30 5290 N 462.645 1.35699 -0.801477 0
M  V30 5291 C 463.608 2.28199 -0.213994 0
M  V30 5292 C 464.608 1.49359 0.595691 0
M  V30 5293 O 465.798 1.69186 0.414921 0
M  V30 5294 C 462.93 3.33587 0.702297 0
M  V30 5295 H 464.123 2.81666 -1.02976 0
M  V30 5296 H 461.676 1.45467 -0.571759 0
M  V30 5297 H 462.411 2.85297 1.54195 0
M  V30 5298 H 462.196 3.91906 0.123484 0
M  V30 5299 H 463.686 4.02638 1.10783 0
M  V30 5300 N 464.123 0.554532 1.47522 0
M  V30 5301 C 465.07 -0.19466 2.29978 0
M  V30 5302 C 466.04 -0.910882 1.38896 0
M  V30 5303 O 467.225 -0.907102 1.67858 0
M  V30 5304 C 464.365 -1.22035 3.22802 0
M  V30 5305 C 463.478 -0.510474 4.28973 0
M  V30 5306 C 462.613 -1.52123 5.08952 0
M  V30 5307 C 461.652 -0.796173 6.069 0
M  V30 5308 N 460.789 -1.75363 6.79847 0
M  V30 5309 H 465.629 0.51461 2.93523 0
M  V30 5310 H 463.166 0.265607 1.44682 0
M  V30 5311 H 465.124 -1.8276 3.7504 0
M  V30 5312 H 463.754 -1.89769 2.61127 0
M  V30 5313 H 462.806 0.211234 3.79813 0
M  V30 5314 H 464.118 0.0576503 4.98767 0
M  V30 5315 H 463.272 -2.20207 5.65326 0
M  V30 5316 H 462.011 -2.12327 4.39054 0
M  V30 5317 H 461.016 -0.101388 5.49707 0
M  V30 5318 H 462.241 -0.199911 6.78806 0
M  V30 5319 H 460.187 -2.3443 6.12682 0
M  V30 5320 H 460.104 -1.23759 7.45801 0
M  V30 5321 H 461.372 -2.4257 7.40797 0
M  V30 5322 N 465.601 -1.54893 0.290851 0
M  V30 5323 C 467.017 -1.59476 -0.0628432 0
M  V30 5324 C 467.217 -1.30795 -1.5328 0
M  V30 5325 O 466.273 -1.07644 -2.28406 0
M  V30 5326 C 467.586 -2.98928 0.325962 0
M  V30 5327 C 469.134 -3.11799 0.273882 0
M  V30 5328 C 469.609 -4.53544 0.637359 0
M  V30 5329 N 471.1 -4.59433 0.589507 0
M  V30 5330 C 471.835 -5.67164 0.84335 0
M  V30 5331 N 471.331 -6.82975 1.16263 0
M  V30 5332 N 473.124 -5.56786 0.771091 0
M  V30 5333 H 465.275 -1.71798 1.24896 0
M  V30 5334 H 467.538 -0.801879 0.505663 0
M  V30 5335 H 467.244 -3.24805 1.34887 0
M  V30 5336 H 467.118 -3.75793 -0.325441 0
M  V30 5337 H 469.505 -2.85677 -0.739765 0
M  V30 5338 H 469.586 -2.37112 0.959766 0
M  V30 5339 H 469.23 -4.80394 1.64877 0
M  V30 5340 H 469.16 -5.26553 -0.0704866 0
M  V30 5341 H 471.651 -3.76245 0.353252 0
M  V30 5342 H 471.964 -7.61048 1.34257 0
M  V30 5343 H 470.309 -6.84552 1.20057 0
M  V30 5344 H 473.5 -4.65187 0.521383 0
M  V30 5345 H 473.673 -6.40664 0.972295 0
M  V30 5346 N 467.08 -0.0183926 -1.57589 0
M  V30 5347 C 468.329 0.66185 -1.90532 0
M  V30 5348 C 468.642 1.73904 -0.895366 0
M  V30 5349 O 469.848 2.47518 -1.11566 0
M  V30 5350 C 468.304 1.22844 -3.38286 0
M  V30 5351 C 467.912 0.185103 -4.47617 0
M  V30 5352 C 469.656 1.88581 -3.80312 0
M  V30 5353 C 467.563 0.762723 -5.86461 0
M  V30 5354 H 466.493 0.250972 -0.711006 0
M  V30 5355 H 469.144 -0.0819435 -1.83317 0
M  V30 5356 H 467.526 2.0235 -3.40398 0
M  V30 5357 H 468.7 -0.58671 -4.5705 0
M  V30 5358 H 467.015 -0.372889 -4.14727 0
M  V30 5359 H 469.612 2.32735 -4.81392 0
M  V30 5360 H 469.955 2.72408 -3.14801 0
M  V30 5361 H 470.488 1.15782 -3.80578 0
M  V30 5362 H 467.227 -0.0371713 -6.55489 0
M  V30 5363 H 466.747 1.50327 -5.80656 0
M  V30 5364 H 468.426 1.25576 -6.34697 0
M  V30 5365 N 468.558 1.5553 0.254621 0
M  V30 5366 C 469.521 1.88872 1.29846 0
M  V30 5367 C 470.521 0.764591 1.41459 0
M  V30 5368 O 471.711 1.03265 1.40293 0
M  V30 5369 C 468.843 2.11032 2.67728 0
M  V30 5370 H 470.036 2.82201 1.01502 0
M  V30 5371 H 467.589 1.48303 0.493556 0
M  V30 5372 H 468.324 1.20146 3.01223 0
M  V30 5373 H 468.109 2.92895 2.60682 0
M  V30 5374 H 469.599 2.38038 3.43115 0
M  V30 5375 N 470.036 -0.519951 1.48776 0
M  V30 5376 C 471.447 -1.10177 1.50725 0
M  V30 5377 C 471.798 -1.94153 0.282678 0
M  V30 5378 O 470.923 -2.07645 -0.609298 0
M  V30 5379 C 471.518 -2.00482 2.73116 0
M  V30 5380 C 470.077 -2.53862 2.77905 0
M  V30 5381 C 469.224 -1.31047 2.44381 0
M  V30 5382 H 472.175 -0.30473 1.55747 0
M  V30 5383 H 472.196 -2.8491 2.52203 0
M  V30 5384 H 471.708 -1.39335 3.62225 0
M  V30 5385 H 469.809 -3.18702 1.93029 0
M  V30 5386 H 469.922 -2.9231 3.79594 0
M  V30 5387 H 468.286 -1.62953 1.95751 0
M  V30 5388 H 469.069 -0.71637 3.35743 0
M  V30 5389 N 471.514 -1.37532 -0.769588 0
M  V30 5390 C 472.461 -1.3347 -1.88293 0
M  V30 5391 C 473.431 -0.199891 -1.64893 0
M  V30 5392 O 474.616 -0.389594 -1.8678 0
M  V30 5393 C 471.756 -1.14968 -3.25387 0
M  V30 5394 C 470.869 -2.37698 -3.60727 0
M  V30 5395 C 470.004 -2.12051 -4.8704 0
M  V30 5396 C 469.043 -3.30636 -5.15117 0
M  V30 5397 N 468.18 -3.04527 -6.3262 0
M  V30 5398 H 473.02 -2.28658 -1.911 0
M  V30 5399 H 470.557 -1.13622 -0.934257 0
M  V30 5400 H 472.515 -1.02261 -4.04473 0
M  V30 5401 H 471.145 -0.234263 -3.21949 0
M  V30 5402 H 470.197 -2.61137 -2.76608 0
M  V30 5403 H 471.509 -3.26131 -3.77413 0
M  V30 5404 H 470.663 -1.96388 -5.74035 0
M  V30 5405 H 469.402 -1.20959 -4.72462 0
M  V30 5406 H 468.407 -3.46836 -4.26597 0
M  V30 5407 H 469.632 -4.22582 -5.31603 0
M  V30 5408 H 467.578 -2.16067 -6.19396 0
M  V30 5409 H 467.495 -3.86503 -6.49732 0
M  V30 5410 H 468.763 -2.92485 -7.22546 0
M  V30 5411 N 472.992 0.995999 -1.22138 0
M  V30 5412 C 473.902 2.11985 -1.00496 0
M  V30 5413 C 474.918 1.7394 0.0457701 0
M  V30 5414 O 476.094 2.00868 -0.146273 0
M  V30 5415 C 473.159 3.41779 -0.582086 0
M  V30 5416 C 472.22 3.93943 -1.70608 0
M  V30 5417 C 471.453 5.17542 -1.30328 0
M  V30 5418 O 471.676 5.70114 -0.180743 0
M  V30 5419 O 470.61 5.63382 -2.11861 0
M  V30 5420 H 474.436 2.33123 -1.94647 0
M  V30 5421 H 472.021 1.10358 -1.00705 0
M  V30 5422 H 473.903 4.1989 -0.356467 0
M  V30 5423 H 472.578 3.22007 0.330592 0
M  V30 5424 H 471.485 3.17019 -1.98619 0
M  V30 5425 H 472.818 4.18141 -2.59651 0
M  V30 5426 N 474.47 1.03057 1.19235 0
M  V30 5427 C 475.433 0.617418 2.20727 0
M  V30 5428 C 476.433 -0.319856 1.57587 0
M  V30 5429 O 477.623 -0.106633 1.73873 0
M  V30 5430 C 474.755 -0.096296 3.40764 0
M  V30 5431 H 475.948 1.51544 2.58794 0
M  V30 5432 H 473.501 0.821949 1.32942 0
M  V30 5433 H 474.236 -1.00859 3.08217 0
M  V30 5434 H 474.021 0.577217 3.87828 0
M  V30 5435 H 475.511 -0.372219 4.15938 0
M  V30 5436 N 475.948 -1.35272 0.808662 0
M  V30 5437 C 476.881 -2.27595 0.165994 0
M  V30 5438 C 477.859 -1.48189 -0.669241 0
M  V30 5439 O 479.043 -1.77444 -0.636073 0
M  V30 5440 C 476.17 -3.29843 -0.769505 0
M  V30 5441 C 475.216 -4.26498 -0.0136267 0
M  V30 5442 S 476.049 -5.18878 1.32384 0
M  V30 5443 C 477.205 -6.24666 0.392838 0
M  V30 5444 H 477.438 -2.81755 0.948756 0
M  V30 5445 H 474.971 -1.42103 0.603828 0
M  V30 5446 H 476.929 -3.89247 -1.30374 0
M  V30 5447 H 475.59 -2.74558 -1.52567 0
M  V30 5448 H 474.783 -4.98769 -0.724227 0
M  V30 5449 H 474.385 -3.71274 0.450713 0
M  V30 5450 H 476.677 -6.7619 -0.4211 0
M  V30 5451 H 477.62 -6.99741 1.0848 0
M  V30 5452 H 478.028 -5.64499 -0.0123908 0
M  V30 5453 N 477.426 -0.562348 -1.47226 0
M  V30 5454 C 478.336 0.185466 -2.33866 0
M  V30 5455 C 479.352 0.906713 -1.48508 0
M  V30 5456 O 480.528 0.874458 -1.81425 0
M  V30 5457 C 477.593 1.19904 -3.25306 0
M  V30 5458 C 476.654 0.484669 -4.26555 0
M  V30 5459 C 475.887 1.44996 -5.13626 0
M  V30 5460 O 476.11 2.68515 -5.03245 0
M  V30 5461 O 475.044 0.971642 -5.94006 0
M  V30 5462 H 478.87 -0.525361 -2.99121 0
M  V30 5463 H 476.455 -0.322916 -1.45868 0
M  V30 5464 H 478.337 1.78399 -3.81774 0
M  V30 5465 H 477.012 1.8917 -2.62672 0
M  V30 5466 H 475.919 -0.141605 -3.73832 0
M  V30 5467 H 477.252 -0.166634 -4.91918 0
M  V30 5468 N 478.904 1.54736 -0.299062 0
M  V30 5469 C 479.854 2.20155 0.592932 0
M  V30 5470 C 480.838 1.1739 1.10038 0
M  V30 5471 O 482.03 1.43116 1.04147 0
M  V30 5472 C 479.159 2.94437 1.76527 0
M  V30 5473 C 478.245 4.04516 1.27388 0
M  V30 5474 N 478.636 5.03319 0.500339 0
M  V30 5475 C 476.934 4.18022 1.55478 0
M  V30 5476 C 477.635 5.81209 0.238909 0
M  V30 5477 N 476.611 5.37408 0.818163 0
M  V30 5478 H 480.413 2.93899 -0.00563596 0
M  V30 5479 H 477.927 1.62068 -0.103732 0
M  V30 5480 H 479.924 3.3977 2.41582 0
M  V30 5481 H 478.584 2.22209 2.36756 0
M  V30 5482 H 479.595 5.17696 0.145419 0
M  V30 5483 H 476.272 3.56998 2.16469 0
M  V30 5484 H 477.662 6.70812 -0.382223 0
M  V30 5485 N 480.382 0.0267497 1.57577 0
M  V30 5486 C 481.793 -0.512413 1.79531 0
M  V30 5487 C 482.144 -1.72391 0.936791 0
M  V30 5488 O 481.269 -2.15903 0.146543 0
M  V30 5489 C 481.864 -0.936378 3.25603 0
M  V30 5490 C 480.423 -1.42067 3.4856 0
M  V30 5491 C 479.57 -0.384278 2.74624 0
M  V30 5492 H 482.521 0.252797 1.56674 0
M  V30 5493 H 482.542 -1.80088 3.35184 0
M  V30 5494 H 482.054 -0.0544332 3.88062 0
M  V30 5495 H 480.155 -2.32262 2.9135 0
M  V30 5496 H 480.268 -1.42968 4.57271 0
M  V30 5497 H 478.632 -0.851855 2.40032 0
M  V30 5498 H 479.415 0.489159 3.39797 0
M  V30 5499 N 481.861 -1.55662 -0.24637 0
M  V30 5500 C 483.091 -1.81312 -0.990438 0
M  V30 5501 C 483.499 -0.600234 -1.79426 0
M  V30 5502 O 482.842 0.440537 -1.78339 0
M  V30 5503 C 482.904 -3.0032 -1.97607 0
M  V30 5504 C 482.568 -4.36322 -1.35912 0
M  V30 5505 C 483.565 -5.14295 -0.761348 0
M  V30 5506 C 481.25 -4.83019 -1.37833 0
M  V30 5507 C 483.244 -6.37114 -0.190998 0
M  V30 5508 C 480.931 -6.05786 -0.804128 0
M  V30 5509 C 481.929 -6.82672 -0.211489 0
M  V30 5510 O 481.617 -8.03121 0.353845 0
M  V30 5511 H 481.349 -0.607233 -0.297058 0
M  V30 5512 H 483.903 -2.0356 -0.274351 0
M  V30 5513 H 482.133 -2.73829 -2.73047 0
M  V30 5514 H 483.822 -3.13057 -2.58361 0
M  V30 5515 H 484.588 -4.79337 -0.739013 0
M  V30 5516 H 480.467 -4.23165 -1.829 0
M  V30 5517 H 484.011 -6.97069 0.272206 0
M  V30 5518 H 479.908 -6.40222 -0.823792 0
M  V30 5519 H 480.676 -8.18131 0.245761 0
M  V30 5520 N 483.339 0.512053 -1.4905 0
M  V30 5521 C 484.586 1.26686 -1.57978 0
M  V30 5522 C 484.914 1.92733 -0.261553 0
M  V30 5523 O 484.169 1.80772 0.749667 0
M  V30 5524 C 484.468 2.36446 -2.68008 0
M  V30 5525 C 484.134 1.87932 -4.09869 0
M  V30 5526 C 482.796 1.74419 -4.48477 0
M  V30 5527 C 485.148 1.5149 -4.98698 0
M  V30 5528 C 482.476 1.22827 -5.73699 0
M  V30 5529 C 484.828 1.01355 -6.24428 0
M  V30 5530 C 483.492 0.864735 -6.61875 0
M  V30 5531 H 482.762 0.463577 -0.578081 0
M  V30 5532 H 485.409 0.569421 -1.82838 0
M  V30 5533 H 483.714 3.11933 -2.37076 0
M  V30 5534 H 485.411 2.9453 -2.72127 0
M  V30 5535 H 482.001 1.99405 -3.79389 0
M  V30 5536 H 486.185 1.60782 -4.69535 0
M  V30 5537 H 481.441 1.10008 -6.01422 0
M  V30 5538 H 485.615 0.722351 -6.92644 0
M  V30 5539 H 483.242 0.462777 -7.5879 0
M  V30 5540 N 484.817 1.37938 0.762283 0
M  V30 5541 C 486.233 1.18945 1.06415 0
M  V30 5542 C 486.433 0.0321163 2.01474 0
M  V30 5543 O 485.489 -0.624844 2.44647 0
M  V30 5544 C 486.802 2.51218 1.65258 0
M  V30 5545 C 488.35 2.57824 1.7747 0
M  V30 5546 C 488.825 3.90251 2.39725 0
M  V30 5547 N 490.316 3.91744 2.47166 0
M  V30 5548 C 491.051 4.90966 2.96209 0
M  V30 5549 N 490.547 6.00585 3.45354 0
M  V30 5550 N 492.34 4.78363 2.9517 0
M  V30 5551 H 484.491 2.11994 0.131301 0
M  V30 5552 H 486.754 0.940262 0.120879 0
M  V30 5553 H 486.46 3.36317 1.02878 0
M  V30 5554 H 486.334 2.68989 2.64433 0
M  V30 5555 H 488.721 1.73126 2.3898 0
M  V30 5556 H 488.802 2.43928 0.770241 0
M  V30 5557 H 488.446 4.75368 1.78852 0
M  V30 5558 H 488.376 4.01454 3.40796 0
M  V30 5559 H 490.867 3.12563 2.12397 0
M  V30 5560 H 491.18 6.72236 3.81207 0
M  V30 5561 H 489.525 6.04217 3.43434 0
M  V30 5562 H 492.716 3.91841 2.56082 0
M  V30 5563 H 492.889 5.55843 3.33081 0
M  V30 5564 N 486.295 -0.989507 1.22664 0
M  V30 5565 C 487.205 -2.11449 1.01619 0
M  V30 5566 C 488.221 -1.73962 -0.036545 0
M  V30 5567 O 489.397 -2.00788 0.156924 0
M  V30 5568 C 486.462 -3.41465 0.600204 0
M  V30 5569 C 485.523 -3.93033 1.72695 0
M  V30 5570 C 484.756 -5.16844 1.33071 0
M  V30 5571 O 484.979 -5.7001 0.210975 0
M  V30 5572 O 483.913 -5.6225 2.14845 0
M  V30 5573 H 487.739 -2.32088 1.9588 0
M  V30 5574 H 485.324 -1.09823 1.01289 0
M  V30 5575 H 487.206 -4.19695 0.37873 0
M  V30 5576 H 485.881 -3.22178 -0.313511 0
M  V30 5577 H 484.788 -3.15961 2.00298 0
M  V30 5578 H 486.121 -4.16758 2.61865 0
M  V30 5579 N 487.773 -1.03688 -1.18687 0
M  V30 5580 C 489.019 -0.739123 -1.88851 0
M  V30 5581 C 489.352 0.731042 -1.79915 0
M  V30 5582 O 488.627 1.53313 -1.19688 0
M  V30 5583 C 488.91 -1.20106 -3.3948 0
M  V30 5584 C 488.763 -2.73304 -3.57246 0
M  V30 5585 C 490.082 -0.788134 -4.32986 0
M  V30 5586 H 487.201 -0.269978 -0.68577 0
M  V30 5587 H 489.843 -1.28822 -1.3966 0
M  V30 5588 H 487.993 -0.733915 -3.81505 0
M  V30 5589 H 489.665 -3.28027 -3.24339 0
M  V30 5590 H 487.908 -3.13313 -3.00029 0
M  V30 5591 H 488.579 -3.00684 -4.62918 0
M  V30 5592 H 491.055 -1.19005 -3.98719 0
M  V30 5593 H 489.931 -1.13915 -5.36949 0
M  V30 5594 H 490.192 0.308988 -4.41019 0
M  V30 5595 N 489.251 1.34841 -0.815825 0
M  V30 5596 C 490.667 1.51543 -0.500697 0
M  V30 5597 C 490.867 1.76261 0.976444 0
M  V30 5598 O 489.923 1.8094 1.76117 0
M  V30 5599 C 491.236 2.68487 -1.35407 0
M  V30 5600 C 492.784 2.82368 -1.35046 0
M  V30 5601 C 493.259 4.02347 -2.18816 0
M  V30 5602 N 494.75 4.09542 -2.16402 0
M  V30 5603 C 495.485 5.01517 -2.77971 0
M  V30 5604 N 494.981 5.98763 -3.48503 0
M  V30 5605 N 496.774 4.94334 -2.67563 0
M  V30 5606 H 488.925 1.17055 -1.77234 0
M  V30 5607 H 491.188 0.573481 -0.754866 0
M  V30 5608 H 490.894 2.56829 -2.40274 0
M  V30 5609 H 490.768 3.63321 -1.01377 0
M  V30 5610 H 493.155 2.93471 -0.309604 0
M  V30 5611 H 493.236 1.88363 -1.73069 0
M  V30 5612 H 492.88 3.92004 -3.22948 0
M  V30 5613 H 492.81 4.95551 -1.78148 0
M  V30 5614 H 495.301 3.39932 -1.65091 0
M  V30 5615 H 495.614 6.6556 -3.92747 0
M  V30 5616 H 493.959 5.98909 -3.52609 0
M  V30 5617 H 497.15 4.1732 -2.12041 0
M  V30 5618 H 497.323 5.6582 -3.15834 0
M  V30 5619 N 490.729 0.570148 1.46925 0
M  V30 5620 C 491.639 -0.173061 2.33961 0
M  V30 5621 C 492.655 -0.898825 1.48987 0
M  V30 5622 O 493.831 -0.864825 1.81887 0
M  V30 5623 C 490.896 -1.18177 3.25937 0
M  V30 5624 C 489.957 -0.462041 4.26806 0
M  V30 5625 C 489.19 -1.4227 5.14388 0
M  V30 5626 O 489.413 -2.65842 5.04662 0
M  V30 5627 O 488.347 -0.940127 5.94513 0
M  V30 5628 H 492.173 0.541216 2.98839 0
M  V30 5629 H 489.758 0.330647 1.45695 0
M  V30 5630 H 491.64 -1.76372 3.82715 0
M  V30 5631 H 490.315 -1.87774 2.63671 0
M  V30 5632 H 489.222 0.161429 3.73752 0
M  V30 5633 H 490.555 0.192719 4.91823 0
M  V30 5634 N 492.207 -1.54576 0.307264 0
M  V30 5635 C 493.117 -2.27435 -0.57536 0
M  V30 5636 C 494.133 -1.31183 -1.14311 0
M  V30 5637 O 495.309 -1.64175 -1.16656 0
M  V30 5638 C 492.374 -3.00566 -1.72803 0
M  V30 5639 C 491.435 -4.12369 -1.19373 0
M  V30 5640 C 490.668 -4.82003 -2.29147 0
M  V30 5641 O 490.891 -4.51038 -3.49171 0
M  V30 5642 O 489.825 -5.69271 -1.95485 0
M  V30 5643 H 493.651 -3.03696 0.0158558 0
M  V30 5644 H 491.236 -1.49219 0.0735064 0
M  V30 5645 H 493.118 -3.46416 -2.39946 0
M  V30 5646 H 491.793 -2.27195 -2.30574 0
M  V30 5647 H 490.7 -3.70905 -0.487851 0
M  V30 5648 H 492.033 -4.87736 -0.661376 0
M  V30 5649 N 493.685 -0.035106 -1.57561 0
M  V30 5650 C 494.91 0.655802 -1.96759 0
M  V30 5651 C 495.335 1.64523 -0.911809 0
M  V30 5652 O 494.693 1.80857 0.126673 0
M  V30 5653 C 494.741 1.33326 -3.35047 0
M  V30 5654 O 493.845 2.44866 -3.31835 0
M  V30 5655 H 493.186 0.171807 -0.641388 0
M  V30 5656 H 495.716 -0.0987369 -2.04362 0
M  V30 5657 H 495.726 1.68867 -3.71413 0
M  V30 5658 H 494.401 0.608033 -4.11431 0
M  V30 5659 H 492.978 2.11392 -3.07193 0
M  V30 5660 O 495.202 1.61149 0.106394 0
M  V30 5661 H 495.893 1.7916 0.736293 0
M  V30 END ATOM
M  V30 BEGIN BOND
M  V30 END BOND
M  V30 END CTAB
M  END
$$$$
