drugbank_target|Q8III5 Insulinase, putative (DB11638)
 OpenBabel12092121113D

  0  0  0     0  0            999 V3000
M  V30 BEGIN CTAB
M  V30 COUNTS 24115 24326 0 0 0
M  V30 BEGIN ATOM
M  V30 1 H -0.908 1.98254 -0.117106 0
M  V30 2 N 0 1.576 0 0
M  V30 3 C 0.933 2.03868 1.02534 0
M  V30 4 C 1.911 0.928543 1.3348 0
M  V30 5 O 3.095 1.19667 1.45644 0
M  V30 6 C 0.222 2.43627 2.35294 0
M  V30 7 C -0.732 3.65373 2.2001 0
M  V30 8 S 0.101 5.13292 1.52614 0
M  V30 9 C 1.257 5.56322 2.86805 0
M  V30 10 H 1.49 2.90518 0.631377 0
M  V30 11 H -0.977 1.52953 0.210867 0
M  V30 12 H 0.981 2.67203 3.11629 0
M  V30 13 H -0.358 1.57376 2.7183 0
M  V30 14 H -1.165 3.90944 3.18086 0
M  V30 15 H -1.563 3.418 1.51819 0
M  V30 16 H 0.729 5.58782 3.83104 0
M  V30 17 H 1.672 6.56266 2.65933 0
M  V30 18 H 2.08 4.83886 2.90714 0
M  V30 19 N 1.4781 -0.272755 1.55222 0
M  V30 20 C 2.7081 -1.02107 1.79604 0
M  V30 21 C 3.1161 -1.80419 0.569693 0
M  V30 22 O 2.4591 -1.77566 -0.470743 0
M  V30 23 C 2.5211 -2.02675 2.96922 0
M  V30 24 C 2.1851 -1.43299 4.33952 0
M  V30 25 C 3.1821 -0.84853 5.12929 0
M  V30 26 C 0.8671 -1.46012 4.8061 0
M  V30 27 C 2.8611 -0.299109 6.36698 0
M  V30 28 C 0.5481 -0.906833 6.04334 0
M  V30 29 C 1.5461 -0.32733 6.82215 0
M  V30 30 O 1.2341 0.217479 8.03606 0
M  V30 31 H 0.9661 -0.307322 0.602104 0
M  V30 32 H 3.5201 -0.308862 2.03065 0
M  V30 33 H 1.7501 -2.77656 2.69155 0
M  V30 34 H 3.4391 -2.63637 3.08626 0
M  V30 35 H 4.2051 -0.820265 4.78013 0
M  V30 36 H 0.0841 -1.90056 4.2 0
M  V30 37 H 3.6281 0.153852 6.9743 0
M  V30 38 H -0.4749 -0.932339 6.38731 0
M  V30 39 H 0.2931 0.106863 8.1843 0
M  V30 40 N 2.9562 -1.48159 -0.537278 0
M  V30 41 C 4.2332 -1.46291 -1.29839 0
M  V30 42 C 4.6132 -0.170613 -2.10409 0
M  V30 43 O 3.9612 0.847746 -2.12192 0
M  V30 44 C 4.1712 -2.72055 -2.18603 0
M  V30 45 C 5.5192 -3.20087 -2.7898 0
M  V30 46 O 6.5432 -2.72921 -2.28894 0
M  V30 47 O 5.4022 -4.02138 -3.70064 0
M  V30 48 H 2.4962 -0.583906 -0.585647 0
M  V30 49 H 5.0422 -1.60384 -0.554534 0
M  V30 50 H 3.8142 -3.57628 -1.58801 0
M  V30 51 H 3.4372 -2.60646 -3.00249 0
M  V30 52 N 4.4343 0.785586 -1.36625 0
M  V30 53 C 5.6643 1.5722 -1.34036 0
M  V30 54 C 6.0723 1.89033 0.0795062 0
M  V30 55 O 5.4153 1.50881 1.04789 0
M  V30 56 C 5.4773 2.91759 -2.10041 0
M  V30 57 C 5.1413 2.82654 -3.59104 0
M  V30 58 C 6.1383 2.54634 -4.53274 0
M  V30 59 C 3.8233 3.01111 -4.02042 0
M  V30 60 C 5.8173 2.45177 -5.88359 0
M  V30 61 C 3.5043 2.91276 -5.37216 0
M  V30 62 C 4.5023 2.63348 -6.30188 0
M  V30 63 O 4.1903 2.53514 -7.6288 0
M  V30 64 H 3.9223 0.494177 -0.461265 0
M  V30 65 H 6.4763 0.982632 -1.8037 0
M  V30 66 H 4.7063 3.52781 -1.58375 0
M  V30 67 H 6.3953 3.53059 -2.00261 0
M  V30 68 H 7.1613 2.40073 -4.21414 0
M  V30 69 H 3.0403 3.21854 -3.30047 0
M  V30 70 H 6.5843 2.23299 -6.60896 0
M  V30 71 H 2.4813 3.054 -5.68684 0
M  V30 72 H 3.2493 2.68967 -7.73045 0
M  V30 73 N 5.9124 1.20967 1.01018 0
M  V30 74 C 7.1584 1.02526 1.74975 0
M  V30 75 C 7.4914 -0.4408 1.89131 0
M  V30 76 O 6.7664 -1.32718 1.42184 0
M  V30 77 C 7.0494 1.71699 3.1653 0
M  V30 78 C 6.9024 3.25791 3.10129 0
M  V30 79 C 8.2214 1.45531 4.15342 0
M  V30 80 H 5.3404 0.373863 0.635134 0
M  V30 81 H 7.9824 1.49071 1.17805 0
M  V30 82 H 6.1324 1.32128 3.65341 0
M  V30 83 H 7.8044 3.74697 2.69072 0
M  V30 84 H 6.0474 3.56363 2.47362 0
M  V30 85 H 6.7184 3.69353 4.10222 0
M  V30 86 H 9.1944 1.79872 3.75213 0
M  V30 87 H 8.0704 1.96453 5.1254 0
M  V30 88 H 8.3314 0.384237 4.40427 0
M  V30 89 N 7.3905 -1.2043 1.01659 0
M  V30 90 C 8.8065 -1.41852 0.731442 0
M  V30 91 C 9.0065 -1.89358 -0.688898 0
M  V30 92 O 8.0625 -2.06247 -1.45666 0
M  V30 93 C 9.3755 -2.44019 1.75714 0
M  V30 94 C 10.9235 -2.57785 1.77527 0
M  V30 95 C 11.3985 -3.63194 2.79023 0
M  V30 96 N 12.8895 -3.70678 2.77763 0
M  V30 97 C 13.6245 -4.51897 3.52954 0
M  V30 98 N 13.1205 -5.36921 4.37821 0
M  V30 99 N 14.9135 -4.4643 3.41551 0
M  V30 100 H 7.0645 -0.879093 1.93354 0
M  V30 101 H 9.3275 -0.448425 0.835236 0
M  V30 102 H 9.0335 -2.1611 2.77469 0
M  V30 103 H 8.9075 -3.43007 1.56927 0
M  V30 104 H 11.2945 -2.85023 0.764569 0
M  V30 105 H 11.3755 -1.58992 2.00387 0
M  V30 106 H 11.0195 -3.36699 3.80258 0
M  V30 107 H 10.9495 -4.61609 2.53425 0
M  V30 108 H 13.4405 -3.09944 2.16201 0
M  V30 109 H 13.7535 -5.95981 4.91962 0
M  V30 110 H 12.0985 -5.36424 4.41899 0
M  V30 111 H 15.2895 -3.79042 2.74672 0
M  V30 112 H 15.4625 -5.09491 4.00404 0
M  V30 113 N 8.8686 -0.792821 -1.36206 0
M  V30 114 C 10.1176 -0.363353 -1.984 0
M  V30 115 C 10.4306 1.07172 -1.63626 0
M  V30 116 O 11.6366 1.60362 -2.19081 0
M  V30 117 C 10.0926 -0.59872 -3.54885 0
M  V30 118 C 9.7006 -2.04543 -3.9858 0
M  V30 119 C 11.4446 -0.233926 -4.23855 0
M  V30 120 C 9.3516 -2.22727 -5.47856 0
M  V30 121 H 8.2816 -0.13212 -0.742334 0
M  V30 122 H 10.9326 -0.974935 -1.55458 0
M  V30 123 H 9.3146 0.0826222 -3.95914 0
M  V30 124 H 10.4886 -2.76345 -3.68741 0
M  V30 125 H 8.8036 -2.36879 -3.42458 0
M  V30 126 H 11.4006 -0.348027 -5.33566 0
M  V30 127 H 11.7436 0.818351 -4.08177 0
M  V30 128 H 12.2766 -0.868639 -3.882 0
M  V30 129 H 9.0156 -3.2635 -5.68486 0
M  V30 130 H 8.5356 -1.55434 -5.7931 0
M  V30 131 H 10.2146 -2.03607 -6.14128 0
M  V30 132 N 10.3467 1.47872 -0.545128 0
M  V30 133 C 11.2947 2.31533 0.222512 0
M  V30 134 C 12.2887 1.42177 0.920985 0
M  V30 135 O 13.4947 1.59005 0.843645 0
M  V30 136 H 9.8697 0.746519 0.0906278 0
M  V30 137 H 11.8407 2.94139 -0.50246 0
M  V30 138 C 10.5897 3.2457 1.24699 0
M  V30 139 H 9.9127 3.93283 0.718944 0
M  V30 140 H 11.3527 3.85963 1.75523 0
M  V30 141 C 9.8117 2.47237 2.28856 0
M  V30 142 O 10.3417 2.20808 3.35569 0
M  V30 143 N 8.5477 2.08461 2.02466 0
M  V30 144 H 8.0947 2.30155 1.157 0
M  V30 145 H 8.0527 1.57033 2.72375 0
M  V30 146 N 11.8248 0.280983 1.55075 0
M  V30 147 C 13.0498 -0.340154 2.04592 0
M  V30 148 C 13.4748 -1.48246 1.15779 0
M  V30 149 O 12.8328 -1.80614 0.15761 0
M  V30 150 C 12.8808 -0.793104 3.5177 0
M  V30 151 O 11.9848 -1.89981 3.66034 0
M  V30 152 H 11.3258 -0.0694289 0.66036 0
M  V30 153 H 13.8558 0.416993 2.00306 0
M  V30 154 H 13.8658 -1.08729 3.93245 0
M  V30 155 H 12.5408 0.0426163 4.15878 0
M  V30 156 H 11.1178 -1.60771 3.36463 0
M  V30 157 N 13.3029 -1.57598 0.00835791 0
M  V30 158 C 14.5519 -1.90107 -0.673968 0
M  V30 159 C 14.8649 -0.884275 -1.7447 0
M  V30 160 O 16.0709 -1.09987 -2.48224 0
M  V30 161 C 14.5269 -3.37497 -1.24995 0
M  V30 162 C 14.1349 -4.47491 -0.2136 0
M  V30 163 C 15.8789 -3.79104 -1.90999 0
M  V30 164 C 13.7859 -5.85963 -0.80005 0
M  V30 165 H 12.7159 -0.709393 -0.255495 0
M  V30 166 H 15.3669 -1.83365 0.0702693 0
M  V30 167 H 13.7489 -3.39102 -2.04513 0
M  V30 168 H 14.9229 -4.57414 0.557596 0
M  V30 169 H 13.2379 -4.14956 0.346474 0
M  V30 170 H 15.8349 -4.79901 -2.35795 0
M  V30 171 H 16.1779 -3.1306 -2.74407 0
M  V30 172 H 16.7109 -3.79833 -1.18203 0
M  V30 173 H 13.4499 -6.555 -0.00456708 0
M  V30 174 H 12.9699 -5.79687 -1.54021 0
M  V30 175 H 14.6489 -6.33884 -1.29615 0
M  V30 176 N 14.781 0.264519 -1.55364 0
M  V30 177 C 15.728 1.32717 -1.88825 0
M  V30 178 C 16.698 1.48675 -0.740605 0
M  V30 179 O 17.883 1.62945 -0.992657 0
M  V30 180 C 15.023 2.68089 -2.17307 0
M  V30 181 C 14.136 2.60284 -3.44785 0
M  V30 182 C 13.271 3.87892 -3.62924 0
M  V30 183 C 12.31 3.74631 -4.84064 0
M  V30 184 N 11.447 4.94092 -4.98816 0
M  V30 185 H 16.287 1.03481 -2.79456 0
M  V30 186 H 13.824 0.499757 -1.3835 0
M  V30 187 H 15.782 3.46864 -2.31821 0
M  V30 188 H 14.412 2.95509 -1.299 0
M  V30 189 H 13.464 1.73173 -3.38697 0
M  V30 190 H 14.776 2.46388 -4.33698 0
M  V30 191 H 13.93 4.75109 -3.77302 0
M  V30 192 H 12.669 4.04664 -2.7221 0
M  V30 193 H 11.674 2.85797 -4.69681 0
M  V30 194 H 12.899 3.5937 -5.76221 0
M  V30 195 H 10.845 5.11259 -4.11036 0
M  V30 196 H 10.762 4.8276 -5.81789 0
M  V30 197 H 12.03 5.82857 -5.17588 0
M  V30 198 N 16.2591 1.48442 0.529413 0
M  V30 199 C 17.1891 1.65902 1.64313 0
M  V30 200 C 18.1701 0.507897 1.6234 0
M  V30 201 O 19.3551 0.740503 1.79528 0
M  V30 202 C 16.4851 1.69911 3.02898 0
M  V30 203 C 15.4391 2.8453 3.19729 0
M  V30 204 C 14.7651 2.73629 4.59381 0
M  V30 205 C 16.0651 4.25821 3.02447 0
M  V30 206 H 17.7591 2.5914 1.49955 0
M  V30 207 H 15.3051 1.24709 0.719982 0
M  V30 208 H 17.2581 1.80715 3.80684 0
M  V30 209 H 15.9821 0.732524 3.18279 0
M  V30 210 H 14.6411 2.73283 2.44361 0
M  V30 211 H 14.2891 1.74938 4.71599 0
M  V30 212 H 13.9891 3.50541 4.71588 0
M  V30 213 H 15.5131 2.86401 5.39265 0
M  V30 214 H 16.9271 4.37898 3.70024 0
M  V30 215 H 15.3241 5.03735 3.26146 0
M  V30 216 H 16.3941 4.42244 1.98867 0
M  V30 217 N 17.7372 -0.778329 1.37039 0
M  V30 218 C 18.6472 -1.92253 1.34446 0
M  V30 219 C 19.6632 -1.72267 0.244991 0
M  V30 220 O 20.8392 -1.95615 0.479258 0
M  V30 221 C 17.9042 -3.27282 1.144 0
M  V30 222 C 16.9652 -3.59969 2.33925 0
M  V30 223 C 16.1982 -4.88555 2.14825 0
M  V30 224 O 16.4212 -5.59113 1.12912 0
M  V30 225 O 15.3552 -5.20153 3.02861 0
M  V30 226 H 19.1812 -1.97392 2.30803 0
M  V30 227 H 16.7662 -0.920154 1.17701 0
M  V30 228 H 18.6482 -4.08062 1.05182 0
M  V30 229 H 17.3232 -3.23011 0.211124 0
M  V30 230 H 16.2302 -2.7945 2.48714 0
M  V30 231 H 17.5632 -3.68976 3.25757 0
M  V30 232 N 19.2153 -1.21501 -1.00376 0
M  V30 233 C 20.1473 -0.933174 -2.09343 0
M  V30 234 C 21.1603 0.0840896 -1.62583 0
M  V30 235 O 22.3493 -0.148563 -1.77881 0
M  V30 236 C 19.4493 -0.379869 -3.36764 0
M  V30 237 C 18.6223 -1.45176 -4.12605 0
M  V30 238 C 17.6813 -0.907476 -5.18316 0
M  V30 239 O 16.7073 -1.5912 -5.46507 0
M  V30 240 N 17.9093 0.276649 -5.7984 0
M  V30 241 H 20.6743 -1.87124 -2.34104 0
M  V30 242 H 18.2353 -1.12043 -1.16867 0
M  V30 243 H 20.2273 -0.00131488 -4.047 0
M  V30 244 H 18.7973 0.463048 -3.09151 0
M  V30 245 H 18.0173 -2.00411 -3.39454 0
M  V30 246 H 19.3053 -2.17328 -4.6005 0
M  V30 247 H 18.7033 0.849147 -5.59291 0
M  V30 248 H 17.2603 0.596702 -6.49063 0
M  V30 249 N 20.6934 1.19889 -1.02296 0
M  V30 250 C 21.9704 1.85148 -0.630832 0
M  V30 251 C 22.3504 1.91385 0.890782 0
M  V30 252 O 21.6984 1.42642 1.78509 0
M  V30 253 C 21.9084 3.24442 -1.28602 0
M  V30 254 C 23.2564 4.00663 -1.4055 0
M  V30 255 O 24.2804 3.33818 -1.24273 0
M  V30 256 O 23.1394 5.20387 -1.66913 0
M  V30 257 H 20.2334 0.797613 -0.218499 0
M  V30 258 H 22.7794 1.27427 -1.12074 0
M  V30 259 H 21.5514 3.14704 -2.32545 0
M  V30 260 H 21.1744 3.89802 -0.7836 0
M  V30 261 N 22.1715 0.800033 1.35784 0
M  V30 262 C 23.1015 0.220184 2.3246 0
M  V30 263 C 24.0825 -0.65073 1.57161 0
M  V30 264 O 25.2675 -0.582359 1.85263 0
M  V30 265 C 22.3975 -0.637353 3.41402 0
M  V30 266 C 21.3515 0.134531 4.27789 0
M  V30 267 C 20.6775 -0.844285 5.27992 0
M  V30 268 C 21.9775 1.32979 5.05088 0
M  V30 269 H 23.6715 1.02787 2.81203 0
M  V30 270 H 21.2175 0.495717 1.35199 0
M  V30 271 H 23.1705 -1.05302 4.08031 0
M  V30 272 H 21.8945 -1.47785 2.91251 0
M  V30 273 H 20.5535 0.531296 3.6273 0
M  V30 274 H 20.2015 -1.68011 4.74111 0
M  V30 275 H 19.9015 -0.332184 5.8666 0
M  V30 276 H 21.4255 -1.2583 5.97494 0
M  V30 277 H 22.8395 0.98934 5.64699 0
M  V30 278 H 21.2365 1.77593 5.7322 0
M  V30 279 H 22.3065 2.11978 4.36111 0
M  V30 280 N 23.6496 -1.47581 0.552962 0
M  V30 281 C 24.5596 -2.33743 -0.200353 0
M  V30 282 C 25.5756 -1.47928 -0.916151 0
M  V30 283 O 26.7516 -1.80865 -0.885993 0
M  V30 284 C 23.8166 -3.24536 -1.21973 0
M  V30 285 C 22.8776 -4.26238 -0.511819 0
M  V30 286 C 22.1106 -5.12693 -1.48263 0
M  V30 287 O 22.3336 -5.01525 -2.71714 0
M  V30 288 O 21.2676 -5.93375 -1.00945 0
M  V30 289 H 25.0936 -2.9945 0.506304 0
M  V30 290 H 22.6786 -1.46071 0.313622 0
M  V30 291 H 24.5606 -3.80631 -1.80827 0
M  V30 292 H 23.2356 -2.61462 -1.90839 0
M  V30 293 H 22.1426 -3.73914 0.117799 0
M  V30 294 H 23.4756 -4.92014 0.135308 0
M  V30 295 N 25.1277 -0.289203 -1.54924 0
M  V30 296 C 26.3737 0.323998 -2.00195 0
M  V30 297 C 26.7067 1.54441 -1.17735 0
M  V30 298 O 25.9817 1.92875 -0.250878 0
M  V30 299 C 26.2647 0.692276 -3.53383 0
M  V30 300 C 26.1177 -0.536457 -4.46589 0
M  V30 301 C 27.4367 1.52335 -4.12895 0
M  V30 302 H 24.5557 0.116289 -0.727768 0
M  V30 303 H 27.1977 -0.398954 -1.85764 0
M  V30 304 H 25.3477 1.30822 -3.65811 0
M  V30 305 H 27.0197 -1.17499 -4.46085 0
M  V30 306 H 25.2627 -1.17192 -4.1767 0
M  V30 307 H 25.9337 -0.234806 -5.515 0
M  V30 308 H 28.4097 1.00302 -4.0383 0
M  V30 309 H 27.2857 1.74982 -5.20262 0
M  V30 310 H 27.5467 2.50886 -3.64018 0
M  V30 311 N 26.6058 1.57591 -0.0167156 0
M  V30 312 C 27.5158 2.1291 0.98521 0
M  V30 313 C 28.5318 1.07834 1.36557 0
M  V30 314 O 29.7078 1.39826 1.44951 0
M  V30 315 C 26.7728 2.63512 2.25305 0
M  V30 316 C 25.8338 3.83256 1.93426 0
M  V30 317 C 25.0668 4.31435 3.14165 0
M  V30 318 O 25.2898 3.78851 4.26413 0
M  V30 319 O 24.2238 5.23416 2.97186 0
M  V30 320 H 28.0498 2.98772 0.544888 0
M  V30 321 H 25.6348 1.48012 0.203141 0
M  V30 322 H 27.5168 2.96183 2.99756 0
M  V30 323 H 26.1918 1.8074 2.68542 0
M  V30 324 H 25.0988 3.55531 1.16398 0
M  V30 325 H 26.4318 4.67153 1.55013 0
M  V30 326 N 28.0839 -0.256276 1.55502 0
M  V30 327 C 28.9939 -1.33882 1.92647 0
M  V30 328 C 30.0099 -1.53159 0.825727 0
M  V30 329 O 31.1859 -1.66963 1.12629 0
M  V30 330 C 28.2509 -2.6751 2.20543 0
M  V30 331 C 27.3119 -2.56836 3.43997 0
M  V30 332 C 26.5449 -3.84092 3.70553 0
M  V30 333 O 26.7679 -4.85545 2.99336 0
M  V30 334 O 25.7019 -3.83288 4.64084 0
M  V30 335 H 29.5279 -1.05374 2.84833 0
M  V30 336 H 27.1129 -0.456237 1.42263 0
M  V30 337 H 28.9949 -3.46492 2.39835 0
M  V30 338 H 27.6699 -2.9577 1.31536 0
M  V30 339 H 26.5769 -1.76172 3.30021 0
M  V30 340 H 27.9099 -2.33523 4.33275 0
M  V30 341 N 29.562 -1.4872 -0.521534 0
M  V30 342 C 30.792 -1.6061 -1.29954 0
M  V30 343 C 31.2 -0.268728 -1.87282 0
M  V30 344 O 30.543 0.753221 -1.67548 0
M  V30 345 C 30.605 -2.60013 -2.48261 0
M  V30 346 C 30.269 -4.04874 -2.11957 0
M  V30 347 C 31.266 -4.92304 -1.67132 0
M  V30 348 C 28.951 -4.5047 -2.22221 0
M  V30 349 C 30.945 -6.2336 -1.33047 0
M  V30 350 C 28.632 -5.81544 -1.87748 0
M  V30 351 C 29.63 -6.67812 -1.43234 0
M  V30 352 O 29.318 -7.96446 -1.09217 0
M  V30 353 H 29.05 -0.544116 -0.401141 0
M  V30 354 H 31.604 -1.95339 -0.634958 0
M  V30 355 H 29.834 -2.20422 -3.17728 0
M  V30 356 H 31.523 -2.61648 -3.10315 0
M  V30 357 H 32.289 -4.58312 -1.58665 0
M  V30 358 H 28.168 -3.83504 -2.55823 0
M  V30 359 H 31.712 -6.90649 -0.982299 0
M  V30 360 H 27.609 -6.15069 -1.95858 0
M  V30 361 H 28.377 -8.09275 -1.22542 0
M  V30 362 N 31.0401 0.771051 -1.3745 0
M  V30 363 C 32.2701 1.55789 -1.35696 0
M  V30 364 C 32.6781 1.89107 0.0594523 0
M  V30 365 O 32.0211 1.51984 1.03183 0
M  V30 366 C 32.0831 2.89515 -2.13123 0
M  V30 367 C 31.7471 2.78829 -3.62082 0
M  V30 368 C 32.7441 2.49812 -4.5595 0
M  V30 369 C 30.4291 2.9683 -4.05213 0
M  V30 370 C 32.4231 2.38923 -5.90927 0
M  V30 371 C 30.1101 2.85562 -5.40276 0
M  V30 372 C 31.1081 2.56649 -6.32946 0
M  V30 373 O 30.7961 2.45408 -7.65526 0
M  V30 374 H 30.5281 0.489257 -0.466481 0
M  V30 375 H 33.0821 0.963446 -1.81403 0
M  V30 376 H 31.3121 3.51081 -1.62107 0
M  V30 377 H 33.0011 3.50915 -2.03994 0
M  V30 378 H 33.7671 2.3559 -4.23937 0
M  V30 379 H 29.6461 3.18335 -3.33442 0
M  V30 380 H 33.1901 2.16277 -6.63227 0
M  V30 381 H 29.0871 2.99351 -5.71891 0
M  V30 382 H 29.8551 2.60753 -7.75855 0
M  V30 383 N 32.5182 1.22032 0.997298 0
M  V30 384 C 33.7432 1.06921 1.77715 0
M  V30 385 C 34.1682 -0.376226 1.84299 0
M  V30 386 O 33.5262 -1.27165 1.29223 0
M  V30 387 C 33.5742 1.67996 3.19076 0
M  V30 388 O 32.6782 0.930653 4.01762 0
M  V30 389 H 32.0192 0.375814 0.547412 0
M  V30 390 H 34.5492 1.61737 1.25309 0
M  V30 391 H 34.5592 1.72538 3.69723 0
M  V30 392 H 33.2342 2.73182 3.13599 0
M  V30 393 H 31.8112 0.960917 3.60307 0
M  V30 394 N 33.9963 -1.19345 1.0293 0
M  V30 395 C 34.9263 -2.2481 0.631105 0
M  V30 396 C 35.9073 -1.66245 -0.360104 0
M  V30 397 O 37.0923 -1.92677 -0.242726 0
M  V30 398 C 34.2223 -3.47295 -0.0184607 0
M  V30 399 C 33.1763 -4.18536 0.895073 0
M  V30 400 C 32.5023 -5.34586 0.110592 0
M  V30 401 C 33.8023 -4.73287 2.209 0
M  V30 402 H 35.4963 -2.58372 1.51275 0
M  V30 403 H 33.0423 -1.24194 0.728818 0
M  V30 404 H 34.9953 -4.20268 -0.308675 0
M  V30 405 H 33.7193 -3.12933 -0.934907 0
M  V30 406 H 32.3783 -3.47446 1.16949 0
M  V30 407 H 32.0263 -4.96469 -0.807902 0
M  V30 408 H 31.7263 -5.83183 0.719087 0
M  V30 409 H 33.2503 -6.10355 -0.172871 0
M  V30 410 H 34.6643 -5.38013 1.98028 0
M  V30 411 H 33.0613 -5.32373 2.76946 0
M  V30 412 H 34.1313 -3.91331 2.86336 0
M  V30 413 N 35.4744 -0.807222 -1.35358 0
M  V30 414 C 36.7514 -0.311126 -1.9311 0
M  V30 415 C 37.1314 1.19937 -1.73719 0
M  V30 416 O 36.4794 1.99918 -1.10657 0
M  V30 417 C 36.6894 -0.723226 -3.41424 0
M  V30 418 C 38.0374 -0.713078 -4.18569 0
M  V30 419 O 39.0614 -0.664811 -3.49941 0
M  V30 420 O 37.9204 -0.772022 -5.41019 0
M  V30 421 H 35.0144 -0.081526 -0.822972 0
M  V30 422 H 37.5604 -0.890962 -1.4443 0
M  V30 423 H 36.3324 -1.76426 -3.4927 0
M  V30 424 H 35.9554 -0.118232 -3.97424 0
M  V30 425 N 36.9525 1.47285 -0.560781 0
M  V30 426 C 38.1775 2.07359 -0.0410566 0
M  V30 427 C 38.6025 1.41017 1.24483 0
M  V30 428 O 37.9605 0.486368 1.74654 0
M  V30 429 C 38.0085 3.6035 0.134123 0
M  V30 430 O 37.1125 3.94681 1.19587 0
M  V30 431 H 36.4535 0.661887 -0.0529291 0
M  V30 432 H 38.9835 1.89252 -0.777482 0
M  V30 433 H 38.9935 4.0652 0.347207 0
M  V30 434 H 37.6685 4.08034 -0.805047 0
M  V30 435 H 36.2455 3.60251 0.962987 0
M  V30 436 N 38.4306 0.297415 1.54768 0
M  V30 437 C 39.6786 -0.312295 1.99673 0
M  V30 438 C 39.9996 -1.54686 1.18732 0
M  V30 439 O 39.2696 -1.93854 0.282382 0
M  V30 440 H 37.8496 -0.118381 0.73756 0
M  V30 441 H 40.5116 0.407915 1.90583 0
M  V30 442 H 39.6076 -0.586813 3.06534 0
M  V30 443 N 39.9087 -1.5758 0.0250728 0
M  V30 444 C 40.8387 -2.13007 -0.956575 0
M  V30 445 C 41.8197 -1.0452 -1.342 0
M  V30 446 O 43.0047 -1.32332 -1.42133 0
M  V30 447 C 40.1347 -2.65386 -2.24026 0
M  V30 448 C 39.0887 -3.78623 -1.99571 0
M  V30 449 C 38.4147 -4.17414 -3.3417 0
M  V30 450 C 39.7147 -5.04867 -1.33814 0
M  V30 451 H 41.4087 -2.9528 -0.494991 0
M  V30 452 H 38.9547 -1.42042 -0.236651 0
M  V30 453 H 40.9077 -3.02794 -2.93076 0
M  V30 454 H 39.6317 -1.80268 -2.72343 0
M  V30 455 H 38.2907 -3.41646 -1.32941 0
M  V30 456 H 37.9387 -3.29284 -3.80238 0
M  V30 457 H 37.6387 -4.93719 -3.18615 0
M  V30 458 H 39.1627 -4.57402 -4.04495 0
M  V30 459 H 40.5767 -5.39888 -1.92857 0
M  V30 460 H 38.9737 -5.86144 -1.28669 0
M  V30 461 H 40.0437 -4.83904 -0.310561 0
M  V30 462 N 41.3868 0.248026 -1.55636 0
M  V30 463 C 42.8028 0.596483 -1.48035 0
M  V30 464 C 43.0028 1.88386 -0.715039 0
M  V30 465 O 42.0588 2.51319 -0.243944 0
M  V30 466 C 43.3718 0.700258 -2.92433 0
M  V30 467 C 44.9198 0.792659 -3.02797 0
M  V30 468 C 45.3948 0.928005 -4.485 0
M  V30 469 N 46.8858 0.992903 -4.52433 0
M  V30 470 C 47.6208 1.11687 -5.62418 0
M  V30 471 N 47.1168 1.20645 -6.82214 0
M  V30 472 N 48.9098 1.14994 -5.50212 0
M  V30 473 H 41.0608 -0.597109 -2.03834 0
M  V30 474 H 43.3238 -0.205925 -0.925364 0
M  V30 475 H 43.0298 -0.175658 -3.51261 0
M  V30 476 H 42.9038 1.57255 -3.42857 0
M  V30 477 H 45.2908 1.65903 -2.4405 0
M  V30 478 H 45.3718 -0.104762 -2.55585 0
M  V30 479 H 45.0158 0.0661971 -5.07857 0
M  V30 480 H 44.9458 1.84045 -4.93391 0
M  V30 481 H 47.4368 0.935064 -3.66149 0
M  V30 482 H 47.7498 1.30008 -7.61786 0
M  V30 483 H 46.0948 1.17605 -6.84977 0
M  V30 484 H 49.2858 1.07643 -4.55555 0
M  V30 485 H 49.4588 1.24311 -6.35965 0
M  V30 486 N 42.8649 1.48995 0.513639 0
M  V30 487 C 44.1139 1.57093 1.2651 0
M  V30 488 C 44.4269 0.257091 1.93903 0
M  V30 489 O 45.6329 0.216478 2.70636 0
M  V30 490 C 44.0889 2.77118 2.29638 0
M  V30 491 C 43.6969 4.15209 1.68241 0
M  V30 492 C 45.4409 2.94538 3.05692 0
M  V30 493 C 43.3479 5.26474 2.69406 0
M  V30 494 H 42.2779 0.584876 0.475854 0
M  V30 495 H 44.9289 1.7536 0.540487 0
M  V30 496 H 43.3109 2.52319 3.05207 0
M  V30 497 H 44.4849 4.50094 0.987505 0
M  V30 498 H 42.7999 4.03042 1.04623 0
M  V30 499 H 45.3969 3.74832 3.8132 0
M  V30 500 H 45.7399 2.04614 3.62545 0
M  V30 501 H 46.2729 3.19316 2.37238 0
M  V30 502 H 43.0119 6.18417 2.17351 0
M  V30 503 H 42.5319 4.96058 3.37175 0
M  V30 504 H 44.2109 5.55277 3.32078 0
M  V30 505 N 44.343 -0.763751 1.37857 0
M  V30 506 C 45.592 -1.51789 1.32827 0
M  V30 507 C 45.905 -1.95426 -0.0823719 0
M  V30 508 O 47.111 -2.70298 -0.255172 0
M  V30 509 C 45.567 -2.74133 2.33193 0
M  V30 510 C 45.175 -2.37562 3.79827 0
M  V30 511 C 46.919 -3.52054 2.37188 0
M  V30 512 C 44.826 -3.56456 4.71904 0
M  V30 513 H 43.756 -0.569896 0.493695 0
M  V30 514 H 46.407 -0.835822 1.63359 0
M  V30 515 H 44.789 -3.4427 1.9569 0
M  V30 516 H 45.963 -1.75157 4.26212 0
M  V30 517 H 44.278 -1.72798 3.78853 0
M  V30 518 H 46.875 -4.40437 3.03182 0
M  V30 519 H 47.218 -3.92486 1.38782 0
M  V30 520 H 47.751 -2.88921 2.7344 0
M  V30 521 H 44.49 -3.21099 5.71468 0
M  V30 522 H 44.01 -4.17938 4.30218 0
M  V30 523 H 45.689 -4.23168 4.89426 0
M  V30 524 N 45.8211 -1.22559 -0.990812 0
M  V30 525 C 46.7511 -1.0218 -2.09956 0
M  V30 526 C 47.7321 0.0579394 -1.70001 0
M  V30 527 O 48.9171 -0.104684 -1.93918 0
M  V30 528 C 46.0471 -0.601023 -3.4206 0
M  V30 529 C 45.0011 -1.62694 -3.95872 0
M  V30 530 C 44.3271 -1.06193 -5.24049 0
M  V30 531 C 45.6271 -3.01743 -4.2632 0
M  V30 532 H 47.3211 -1.94916 -2.27262 0
M  V30 533 H 44.8671 -0.938566 -1.09211 0
M  V30 534 H 46.8201 -0.445561 -4.19038 0
M  V30 535 H 45.5441 0.362005 -3.24588 0
M  V30 536 H 44.2031 -1.77021 -3.21028 0
M  V30 537 H 43.8511 -0.0901903 -5.02919 0
M  V30 538 H 43.5511 -1.74732 -5.61019 0
M  V30 539 H 45.0751 -0.918092 -6.03658 0
M  V30 540 H 46.4891 -2.90777 -4.94087 0
M  V30 541 H 44.8861 -3.67425 -4.74467 0
M  V30 542 H 45.9561 -3.51518 -3.34011 0
M  V30 543 N 47.2992 1.18797 -1.03562 0
M  V30 544 C 48.2472 2.24297 -0.615905 0
M  V30 545 C 49.2412 1.65643 0.354808 0
M  V30 546 O 50.4472 1.78618 0.22265 0
M  V30 547 H 46.8222 0.729909 -0.180934 0
M  V30 548 H 48.7932 2.5701 -1.5162 0
M  V30 549 C 47.5422 3.47698 0.0104735 0
M  V30 550 H 46.8652 3.93125 -0.727509 0
M  V30 551 H 48.3052 4.23159 0.266995 0
M  V30 552 C 46.7642 3.12489 1.25905 0
M  V30 553 O 47.2942 3.25761 2.35038 0
M  V30 554 N 45.5002 2.6686 1.15039 0
M  V30 555 H 45.0472 2.56261 0.262328 0
M  V30 556 H 45.0052 2.43674 1.98672 0
M  V30 557 N 48.7773 0.814389 1.34928 0
M  V30 558 C 49.7243 0.22822 2.29669 0
M  V30 559 C 50.6943 -0.642164 1.53184 0
M  V30 560 O 51.8793 -0.585605 1.81591 0
M  V30 561 C 49.0193 -0.61089 3.3965 0
M  V30 562 C 48.1323 0.280792 4.31086 0
M  V30 563 C 47.2673 -0.567067 5.28165 0
M  V30 564 C 46.3063 0.324531 6.11239 0
M  V30 565 N 45.4433 -0.483756 7.00431 0
M  V30 566 H 50.2833 1.04153 2.79206 0
M  V30 567 H 47.8203 0.525133 1.37407 0
M  V30 568 H 49.7783 -1.11263 4.0209 0
M  V30 569 H 48.4083 -1.38939 2.91369 0
M  V30 570 H 47.4603 0.900688 3.69583 0
M  V30 571 H 48.7723 0.966723 4.89342 0
M  V30 572 H 47.9263 -1.13363 5.96015 0
M  V30 573 H 46.6653 -1.28654 4.70425 0
M  V30 574 H 45.6703 0.903298 5.42329 0
M  V30 575 H 46.8953 1.04198 6.71059 0
M  V30 576 H 44.8413 -1.18706 6.45171 0
M  V30 577 H 44.7583 0.143965 7.55863 0
M  V30 578 H 46.0263 -1.03334 7.7262 0
M  V30 579 N 50.2554 -1.46986 0.568584 0
M  V30 580 C 51.4834 -2.0683 0.0539956 0
M  V30 581 C 51.8984 -1.41953 -1.24478 0
M  V30 582 O 51.2554 -0.519933 -1.74937 0
M  V30 583 C 51.3064 -3.61254 -0.133362 0
M  V30 584 O 51.0274 -4.237 1.11399 0
M  V30 585 C 52.5284 -4.37992 -0.683927 0
M  V30 586 H 49.7484 -0.669058 0.0510141 0
M  V30 587 H 52.2924 -1.88824 0.785234 0
M  V30 588 H 50.4474 -3.78735 -0.81477 0
M  V30 589 H 50.8614 -5.16388 0.91888 0
M  V30 590 H 52.3354 -5.46684 -0.764263 0
M  V30 591 H 52.8124 -4.05058 -1.69778 0
M  V30 592 H 53.4184 -4.25283 -0.0378494 0
M  V30 593 N 51.7335 -0.305618 -1.54608 0
M  V30 594 C 52.6805 0.568421 -2.23691 0
M  V30 595 C 53.6505 1.12592 -1.22116 0
M  V30 596 O 54.8355 1.16959 -1.50749 0
M  V30 597 C 51.9755 1.7322 -2.98477 0
M  V30 598 C 51.0885 1.20566 -4.14835 0
M  V30 599 C 50.2235 2.33368 -4.77193 0
M  V30 600 C 49.2625 1.7787 -5.85686 0
M  V30 601 N 48.3995 2.84263 -6.4198 0
M  V30 602 H 53.2395 -0.0272867 -2.97988 0
M  V30 603 H 50.7765 -0.0252363 -1.47078 0
M  V30 604 H 52.7345 2.41675 -3.40072 0
M  V30 605 H 51.3645 2.29947 -2.26548 0
M  V30 606 H 50.4165 0.413223 -3.78149 0
M  V30 607 H 51.7285 0.759417 -4.92985 0
M  V30 608 H 50.8825 3.09761 -5.21664 0
M  V30 609 H 49.6215 2.8132 -3.98385 0
M  V30 610 H 48.6265 0.99968 -5.40635 0
M  V30 611 H 49.8515 1.30816 -6.66381 0
M  V30 612 H 47.7975 3.31541 -5.66053 0
M  V30 613 H 47.7145 2.44149 -7.15491 0
M  V30 614 H 48.9825 3.6054 -6.91109 0
M  V30 615 N 53.2116 1.57565 -0.0334293 0
M  V30 616 C 54.4366 1.96689 0.657895 0
M  V30 617 C 54.8616 0.910057 1.64619 0
M  V30 618 O 54.2196 -0.128598 1.80843 0
M  V30 619 C 54.2676 3.34905 1.33683 0
M  V30 620 O 53.3716 3.31574 2.45219 0
M  V30 621 H 52.7126 0.641205 0.172489 0
M  V30 622 H 55.2426 2.04372 -0.0965621 0
M  V30 623 H 55.2526 3.71234 1.69262 0
M  V30 624 H 53.9276 4.11366 0.612411 0
M  V30 625 H 52.5046 3.06968 2.11719 0
M  V30 626 N 54.6897 -0.239769 1.55765 0
M  V30 627 C 56.1007 -0.808263 1.68297 0
M  V30 628 C 56.4517 -1.85736 0.632181 0
M  V30 629 O 55.5767 -2.15277 -0.220204 0
M  V30 630 C 56.1717 -1.47284 3.05111 0
M  V30 631 C 54.7307 -1.98895 3.19559 0
M  V30 632 C 53.8777 -0.842575 2.64189 0
M  V30 633 H 56.8287 -0.0154422 1.58692 0
M  V30 634 H 56.8497 -2.34111 2.99954 0
M  V30 635 H 56.3617 -0.709053 3.81568 0
M  V30 636 H 54.4627 -2.78132 2.47938 0
M  V30 637 H 54.5757 -2.18143 4.26556 0
M  V30 638 H 52.9397 -1.24501 2.22197 0
M  V30 639 H 53.7227 -0.0917552 3.43177 0
M  V30 640 N 56.1678 -1.49265 -0.50573 0
M  V30 641 C 57.1148 -1.65585 -1.6078 0
M  V30 642 C 58.0848 -0.497396 -1.58478 0
M  V30 643 O 59.2698 -0.72385 -1.76536 0
M  V30 644 C 56.4098 -1.72408 -2.98948 0
M  V30 645 C 55.5228 -2.99525 -3.11301 0
M  V30 646 C 54.6578 -2.97356 -4.40174 0
M  V30 647 C 53.6968 -4.19074 -4.46143 0
M  V30 648 N 52.8338 -4.14841 -5.66437 0
M  V30 649 H 57.6738 -2.59688 -1.46172 0
M  V30 650 H 55.2108 -1.28761 -0.711261 0
M  V30 651 H 57.1688 -1.74344 -3.79025 0
M  V30 652 H 55.7988 -0.817753 -3.1227 0
M  V30 653 H 54.8508 -3.07222 -2.24318 0
M  V30 654 H 56.1628 -3.89518 -3.11572 0
M  V30 655 H 55.3168 -2.97829 -5.28567 0
M  V30 656 H 54.0558 -2.05133 -4.42461 0
M  V30 657 H 53.0608 -4.1885 -3.56153 0
M  V30 658 H 54.2858 -5.12483 -4.45575 0
M  V30 659 H 52.2318 -3.25453 -5.69575 0
M  V30 660 H 52.1488 -4.98564 -5.68304 0
M  V30 661 H 53.4168 -4.1941 -6.57051 0
M  V30 662 N 57.6459 0.756429 -1.3826 0
M  V30 663 C 58.8949 1.51082 -1.3363 0
M  V30 664 C 59.2079 1.95467 0.0720068 0
M  V30 665 O 60.4139 2.7043 0.240834 0
M  V30 666 C 58.8699 2.72893 -2.34644 0
M  V30 667 C 58.4779 2.35544 -3.81081 0
M  V30 668 C 60.2219 3.50791 -2.39052 0
M  V30 669 C 58.1289 3.53948 -4.73787 0
M  V30 670 H 57.0589 0.56727 -0.49671 0
M  V30 671 H 59.7099 0.827147 -1.638 0
M  V30 672 H 58.0919 3.43227 -1.97513 0
M  V30 673 H 59.2659 1.72894 -4.27135 0
M  V30 674 H 57.5809 1.70786 -3.79764 0
M  V30 675 H 60.1779 4.38823 -3.05513 0
M  V30 676 H 60.5209 3.91745 -1.40861 0
M  V30 677 H 61.0539 2.87467 -2.74968 0
M  V30 678 H 57.7929 3.18064 -5.73163 0
M  V30 679 H 57.3129 4.15651 -4.32428 0
M  V30 680 H 58.9919 4.20566 -4.91663 0
M  V30 681 N 59.124 1.23083 0.984299 0
M  V30 682 C 60.354 1.08556 1.75781 0
M  V30 683 C 60.762 -0.366171 1.85623 0
M  V30 684 O 60.105 -1.26524 1.33182 0
M  V30 685 C 60.167 1.63208 3.20318 0
M  V30 686 C 59.831 3.11922 3.33997 0
M  V30 687 C 60.828 4.09259 3.2063 0
M  V30 688 C 58.513 3.51552 3.58771 0
M  V30 689 C 60.507 5.4421 3.31835 0
M  V30 690 C 58.194 4.86649 3.69616 0
M  V30 691 C 59.192 5.82787 3.56157 0
M  V30 692 O 58.88 7.15431 3.66626 0
M  V30 693 H 58.612 0.380713 0.5586 0
M  V30 694 H 61.166 1.63321 1.2456 0
M  V30 695 H 59.396 1.0286 3.72769 0
M  V30 696 H 61.085 1.44216 3.79416 0
M  V30 697 H 61.851 3.79984 3.01392 0
M  V30 698 H 57.73 2.77239 3.6832 0
M  V30 699 H 61.274 6.1923 3.21247 0
M  V30 700 H 57.171 5.15601 3.88363 0
M  V30 701 H 57.939 7.23127 3.83445 0
M  V30 702 N 60.6021 -1.18246 1.0419 0
M  V30 703 C 61.8501 -1.87886 0.744543 0
M  V30 704 C 62.1711 -1.8082 -0.730006 0
M  V30 705 O 61.4411 -1.22736 -1.52685 0
M  V30 706 H 60.0211 -0.695556 0.272417 0
M  V30 707 H 62.6831 -1.43494 1.31892 0
M  V30 708 H 61.7791 -2.9389 1.05049 0
M  V30 709 N 62.0802 -0.821533 -1.34494 0
M  V30 710 C 63.3272 -0.408946 -1.98328 0
M  V30 711 C 63.6552 1.02764 -1.65136 0
M  V30 712 O 62.9102 1.73026 -0.914349 0
M  V30 713 C 63.2092 -0.556512 -3.53041 0
M  V30 714 C 62.8752 -1.95861 -4.0614 0
M  V30 715 C 61.5372 -2.34217 -4.20352 0
M  V30 716 C 63.8892 -2.87523 -4.34718 0
M  V30 717 C 61.2172 -3.63572 -4.6047 0
M  V30 718 C 63.5692 -4.1634 -4.76281 0
M  V30 719 C 62.2332 -4.54675 -4.88699 0
M  V30 720 H 61.5032 -0.149644 -0.725732 0
M  V30 721 H 64.1502 -1.04521 -1.6046 0
M  V30 722 H 62.4552 0.163148 -3.9146 0
M  V30 723 H 64.1522 -0.217826 -4.00408 0
M  V30 724 H 60.7422 -1.65066 -3.95539 0
M  V30 725 H 64.9262 -2.59133 -4.23277 0
M  V30 726 H 60.1822 -3.93101 -4.68275 0
M  V30 727 H 64.3562 -4.87455 -4.97354 0
M  V30 728 H 61.9832 -5.54959 -5.19542 0
M  V30 729 N 63.5583 1.46682 -0.576371 0
M  V30 730 C 64.8053 2.02412 -0.0595339 0
M  V30 731 C 65.1333 1.44859 1.29793 0
M  V30 732 O 64.3883 0.601099 1.8624 0
M  V30 733 C 64.6873 3.57345 0.062886 0
M  V30 734 C 64.3533 4.33908 -1.22616 0
M  V30 735 C 63.0153 4.54544 -1.57933 0
M  V30 736 C 65.3673 4.77919 -2.07948 0
M  V30 737 C 62.6953 5.16444 -2.78393 0
M  V30 738 C 65.0473 5.41149 -3.27629 0
M  V30 739 C 63.7113 5.60014 -3.63236 0
M  V30 740 H 62.9813 0.74068 -0.021785 0
M  V30 741 H 65.6283 1.76128 -0.751735 0
M  V30 742 H 63.9333 3.82729 0.838178 0
M  V30 743 H 65.6303 3.98136 0.478439 0
M  V30 744 H 62.2203 4.18138 -0.941202 0
M  V30 745 H 66.4043 4.61738 -1.81967 0
M  V30 746 H 61.6603 5.29242 -3.06126 0
M  V30 747 H 65.8343 5.74211 -3.94023 0
M  V30 748 H 63.4613 6.07748 -4.56669 0
M  V30 749 N 65.0364 0.313813 1.54444 0
M  V30 750 C 66.2644 -0.293918 2.04802 0
M  V30 751 C 66.6794 -1.46537 1.19047 0
M  V30 752 O 66.0364 -1.81182 0.218939 0
M  V30 753 C 66.0874 -0.737806 3.53891 0
M  V30 754 O 65.8084 0.387038 4.36387 0
M  V30 755 C 67.3094 -1.40936 4.203 0
M  V30 756 H 64.5294 -0.0620057 0.668129 0
M  V30 757 H 67.0734 0.457169 1.99324 0
M  V30 758 H 65.2284 -1.43889 3.59687 0
M  V30 759 H 65.6424 0.0391274 5.24485 0
M  V30 760 H 67.1164 -1.67099 5.26101 0
M  V30 761 H 67.5934 -2.35355 3.70816 0
M  V30 762 H 68.1994 -0.751117 4.18615 0
M  V30 763 N 66.5145 -1.57545 0.0417849 0
M  V30 764 C 67.4445 -2.14009 -0.933929 0
M  V30 765 C 68.4255 -1.05938 -1.33083 0
M  V30 766 O 69.6105 -1.33833 -1.40721 0
M  V30 767 C 66.7405 -2.67747 -2.21199 0
M  V30 768 C 65.6945 -3.80718 -1.95544 0
M  V30 769 C 65.0205 -4.20935 -3.29724 0
M  V30 770 C 66.3205 -5.06258 -1.28452 0
M  V30 771 H 68.0145 -2.95788 -0.463645 0
M  V30 772 H 65.5605 -1.42285 -0.221573 0
M  V30 773 H 67.5135 -3.05886 -2.89848 0
M  V30 774 H 66.2375 -1.83147 -2.70416 0
M  V30 775 H 64.8965 -3.43037 -1.2931 0
M  V30 776 H 64.5445 -3.33298 -3.76724 0
M  V30 777 H 64.2445 -4.9707 -3.13361 0
M  V30 778 H 65.7685 -4.61666 -3.9962 0
M  V30 779 H 67.1825 -5.41903 -1.8712 0
M  V30 780 H 65.5795 -5.87475 -1.22445 0
M  V30 781 H 66.6495 -4.84207 -0.259219 0
M  V30 782 N 67.9926 0.231505 -1.5589 0
M  V30 783 C 68.9226 1.29022 -1.94617 0
M  V30 784 C 69.9036 1.4941 -0.813067 0
M  V30 785 O 71.0886 1.6176 -1.07459 0
M  V30 786 C 68.2186 2.64199 -2.25424 0
M  V30 787 C 67.1726 2.58484 -3.41131 0
M  V30 788 C 66.4986 3.97599 -3.57518 0
M  V30 789 C 67.7986 2.1413 -4.76388 0
M  V30 790 H 69.4926 0.968563 -2.83301 0
M  V30 791 H 67.0386 0.464479 -1.36303 0
M  V30 792 H 68.9916 3.38413 -2.51107 0
M  V30 793 H 67.7156 2.98032 -1.33583 0
M  V30 794 H 66.3746 1.86727 -3.15481 0
M  V30 795 H 66.0226 4.28723 -2.6307 0
M  V30 796 H 65.7226 3.94659 -4.35337 0
M  V30 797 H 67.2466 4.7349 -3.85538 0
M  V30 798 H 68.6606 2.78083 -5.01341 0
M  V30 799 H 67.0576 2.2227 -5.57419 0
M  V30 800 H 68.1276 1.09331 -4.72414 0
M  V30 801 N 69.4707 1.49531 0.497807 0
M  V30 802 C 70.6987 1.62893 1.27567 0
M  V30 803 C 71.1137 0.301585 1.86376 0
M  V30 804 O 70.4707 -0.713335 1.67982 0
M  V30 805 C 70.5217 2.70013 2.40364 0
M  V30 806 O 70.2427 3.976 1.83972 0
M  V30 807 C 71.7437 2.94109 3.31685 0
M  V30 808 H 68.9637 0.548298 0.386794 0
M  V30 809 H 71.5077 1.95584 0.597245 0
M  V30 810 H 69.6627 2.40092 3.04031 0
M  V30 811 H 70.0767 4.56631 2.58047 0
M  V30 812 H 71.5507 3.72788 4.07104 0
M  V30 813 H 72.0277 2.04147 3.88871 0
M  V30 814 H 72.6337 3.2546 2.73781 0
M  V30 815 N 70.9488 -0.749086 1.3866 0
M  V30 816 C 71.8588 -1.89358 1.38494 0
M  V30 817 C 72.8748 -1.71708 0.281476 0
M  V30 818 O 74.0508 -1.94554 0.520643 0
M  V30 819 C 71.1158 -3.24782 1.21316 0
M  V30 820 C 70.1768 -3.54926 2.41508 0
M  V30 821 C 69.4098 -4.83888 2.2514 0
M  V30 822 O 69.6328 -5.56592 1.24746 0
M  V30 823 O 68.5668 -5.13612 3.13826 0
M  V30 824 H 72.3928 -1.92452 2.34938 0
M  V30 825 H 69.9778 -0.894981 1.19626 0
M  V30 826 H 71.8598 -4.05739 1.13814 0
M  V30 827 H 70.5348 -3.2249 0.279592 0
M  V30 828 H 69.4418 -2.74112 2.54585 0
M  V30 829 H 70.7748 -3.61983 3.3351 0
M  V30 830 N 72.4269 -1.23603 -0.977757 0
M  V30 831 C 73.3899 -1.02069 -2.05218 0
M  V30 832 C 74.3899 0.0184305 -1.60789 0
M  V30 833 O 75.5799 -0.221569 -1.72785 0
M  V30 834 C 72.7119 -0.544926 -3.36517 0
M  V30 835 H 73.9049 -1.9742 -2.25755 0
M  V30 836 H 71.4579 -1.05684 -1.15155 0
M  V30 837 H 72.1929 0.412241 -3.21669 0
M  V30 838 H 71.9779 -1.2948 -3.70105 0
M  V30 839 H 73.4679 -0.414985 -4.15533 0
M  V30 840 N 73.905 1.17692 -1.04816 0
M  V30 841 C 74.815 2.25229 -0.65643 0
M  V30 842 C 75.831 1.71018 0.320761 0
M  V30 843 O 77.007 2.00649 0.173805 0
M  V30 844 C 74.072 3.46684 -0.0332629 0
M  V30 845 C 73.133 4.15997 -1.06042 0
M  V30 846 C 72.366 5.31654 -0.466893 0
M  V30 847 O 72.589 5.65777 0.724758 0
M  V30 848 O 71.523 5.89831 -1.1993 0
M  V30 849 H 75.349 2.61016 -1.55255 0
M  V30 850 H 72.934 1.24919 -0.81949 0
M  V30 851 H 74.816 4.20234 0.313256 0
M  V30 852 H 73.491 3.12703 0.836566 0
M  V30 853 H 72.398 3.44482 -1.45886 0
M  V30 854 H 73.731 4.53996 -1.90127 0
M  V30 855 N 75.3831 0.828654 1.34056 0
M  V30 856 C 76.3311 0.242973 2.31327 0
M  V30 857 C 77.3251 -0.61944 1.57668 0
M  V30 858 O 78.5311 -0.51014 1.7262 0
M  V30 859 H 74.9061 0.059834 0.749616 0
M  V30 860 H 76.8771 1.07809 2.78244 0
M  V30 861 C 75.6261 -0.575733 3.429 0
M  V30 862 H 74.9491 0.0785582 3.99723 0
M  V30 863 H 76.3891 -0.951547 4.13185 0
M  V30 864 C 74.8481 -1.75044 2.87856 0
M  V30 865 O 75.3781 -2.84882 2.83205 0
M  V30 866 N 73.5841 -1.56903 2.44602 0
M  V30 867 H 73.1311 -0.675547 2.48584 0
M  V30 868 H 73.0891 -2.35652 2.08124 0
M  V30 869 N 76.8612 -1.46375 0.584142 0
M  V30 870 C 78.1382 -1.956 0.0033388 0
M  V30 871 C 78.5182 -1.52679 -1.45782 0
M  V30 872 O 77.8662 -0.77816 -2.14842 0
M  V30 873 C 78.0762 -3.48551 0.176891 0
M  V30 874 C 79.4242 -4.24576 0.0454609 0
M  V30 875 O 80.4482 -3.56043 0.105801 0
M  V30 876 O 79.3072 -5.46427 -0.0890376 0
M  V30 877 H 76.4012 -0.825547 -0.0490066 0
M  V30 878 H 78.9472 -1.56652 0.65256 0
M  V30 879 H 77.7192 -3.72683 1.1926 0
M  V30 880 H 77.3422 -3.94332 -0.508695 0
M  V30 881 N 78.3393 -0.321999 -1.54275 0
M  V30 882 C 79.2493 0.553631 -2.27974 0
M  V30 883 C 80.2653 1.13054 -1.32268 0
M  V30 884 O 81.4413 1.15084 -1.6528 0
M  V30 885 C 78.5063 1.69927 -3.02201 0
M  V30 886 C 77.5673 1.15433 -4.1349 0
M  V30 887 C 76.8003 2.24537 -4.84168 0
M  V30 888 O 77.0233 3.44852 -4.5435 0
M  V30 889 O 75.9573 1.90044 -5.7111 0
M  V30 890 H 79.7833 -0.0448345 -3.03667 0
M  V30 891 H 77.3683 -0.0877418 -1.49142 0
M  V30 892 H 79.2503 2.3663 -3.48689 0
M  V30 893 H 77.9253 2.28395 -2.29385 0
M  V30 894 H 76.8323 0.452436 -3.71354 0
M  V30 895 H 78.1653 0.614805 -4.88345 0
M  V30 896 N 79.8174 1.5752 -0.0501392 0
M  V30 897 C 81.0654 1.9227 0.622642 0
M  V30 898 C 81.3864 0.929083 1.71444 0
M  V30 899 O 80.6564 -0.0262186 1.95882 0
M  V30 900 H 79.2364 0.709739 0.232981 0
M  V30 901 H 81.8984 1.94628 -0.102898 0
M  V30 902 H 80.9944 2.93479 1.06191 0
M  V30 903 N 81.2955 -0.223234 1.56011 0
M  V30 904 C 82.2255 -1.27988 1.95298 0
M  V30 905 C 83.2065 -1.48976 0.820979 0
M  V30 906 O 84.3915 -1.61188 1.08315 0
M  V30 907 C 81.5215 -2.63 2.26822 0
M  V30 908 C 80.4755 -2.56671 3.42497 0
M  V30 909 C 79.8015 -3.95697 3.59622 0
M  V30 910 C 81.1015 -2.11601 4.77517 0
M  V30 911 H 82.7955 -0.953525 2.8381 0
M  V30 912 H 80.3415 -0.457244 1.36548 0
M  V30 913 H 82.2945 -3.37077 2.52898 0
M  V30 914 H 81.0185 -2.9732 1.35161 0
M  V30 915 H 79.6775 -1.85051 3.16467 0
M  V30 916 H 79.3255 -4.27322 2.6534 0
M  V30 917 H 79.0255 -3.92345 4.37424 0
M  V30 918 H 80.5495 -4.71438 3.88044 0
M  V30 919 H 81.9635 -2.7542 5.02809 0
M  V30 920 H 80.3605 -2.19311 5.5859 0
M  V30 921 H 81.4305 -1.06824 4.72987 0
M  V30 922 N 82.7736 -1.49793 -0.48987 0
M  V30 923 C 84.1846 -1.52914 -1.07118 0
M  V30 924 C 84.5356 -0.321738 -1.93544 0
M  V30 925 O 83.6606 0.567338 -2.08831 0
M  V30 926 C 84.2556 -2.771 -1.94938 0
M  V30 927 C 82.8146 -2.82963 -2.48212 0
M  V30 928 C 81.9616 -2.46972 -1.26096 0
M  V30 929 H 84.9126 -1.56329 -0.273289 0
M  V30 930 H 84.9336 -2.57892 -2.79771 0
M  V30 931 H 84.4456 -3.64959 -1.32009 0
M  V30 932 H 82.5466 -1.99411 -3.14748 0
M  V30 933 H 82.6596 -3.85406 -2.84603 0
M  V30 934 H 81.0236 -1.98994 -1.58976 0
M  V30 935 H 81.8066 -3.37118 -0.648581 0
M  V30 936 N 84.2517 0.741722 -1.39055 0
M  V30 937 C 85.2017 1.84661 -1.33732 0
M  V30 938 C 86.1857 1.59397 -0.219401 0
M  V30 939 O 87.3777 1.71015 -0.456375 0
M  V30 940 C 84.5067 3.22512 -1.17647 0
M  V30 941 C 83.5927 3.53628 -2.34112 0
M  V30 942 N 83.9837 3.55723 -3.59576 0
M  V30 943 C 82.2817 3.83956 -2.26923 0
M  V30 944 C 82.9827 3.84443 -4.36553 0
M  V30 945 N 81.9587 4.01877 -3.66055 0
M  V30 946 H 85.7607 1.84576 -2.28711 0
M  V30 947 H 83.2747 0.939647 -1.32455 0
M  V30 948 H 85.2717 4.01597 -1.11917 0
M  V30 949 H 83.9317 3.2384 -0.236124 0
M  V30 950 H 84.9427 3.37196 -3.93089 0
M  V30 951 H 81.6197 3.92929 -1.41113 0
M  V30 952 H 83.0097 3.92588 -5.45274 0
M  V30 953 N 85.7298 1.2412 0.971189 0
M  V30 954 C 86.9578 1.10575 1.74874 0
M  V30 955 C 87.3728 -0.342017 1.85676 0
M  V30 956 O 86.7298 -1.23617 1.34258 0
M  V30 957 C 86.7808 1.73579 3.171 0
M  V30 958 O 86.5018 3.12695 3.06844 0
M  V30 959 C 88.0028 1.65598 4.11208 0
M  V30 960 H 85.2228 0.386504 0.548503 0
M  V30 961 H 87.7668 1.64156 1.21955 0
M  V30 962 H 85.9218 1.24009 3.67016 0
M  V30 963 H 86.3358 3.43412 3.96445 0
M  V30 964 H 87.8098 2.1437 5.08674 0
M  V30 965 H 88.2868 0.616532 4.34851 0
M  V30 966 H 88.8928 2.14578 3.67201 0
M  V30 967 N 87.2079 -1.17134 1.05439 0
M  V30 968 C 88.1379 -2.2342 0.678649 0
M  V30 969 C 89.1189 -1.66971 -0.32476 0
M  V30 970 O 90.3039 -1.93149 -0.201802 0
M  V30 971 C 87.4339 -3.47256 0.0552099 0
M  V30 972 C 86.3879 -4.16543 0.98365 0
M  V30 973 C 85.7139 -5.34231 0.223961 0
M  V30 974 C 87.0139 -4.68495 2.3089 0
M  V30 975 H 88.7079 -2.55105 1.56722 0
M  V30 976 H 86.2539 -1.2262 0.754998 0
M  V30 977 H 88.2069 -4.20828 -0.21946 0
M  V30 978 H 86.9309 -3.14846 -0.868319 0
M  V30 979 H 85.5899 -3.44887 1.24293 0
M  V30 980 H 85.2379 -4.98071 -0.702412 0
M  V30 981 H 84.9379 -5.81527 0.842627 0
M  V30 982 H 86.4619 -6.10585 -0.0433671 0
M  V30 983 H 87.8759 -5.33691 2.09396 0
M  V30 984 H 86.2729 -5.26379 2.88176 0
M  V30 985 H 87.3429 -3.85169 2.94572 0
M  V30 986 N 88.686 -0.835752 -1.33615 0
M  V30 987 C 89.596 -0.269088 -2.33052 0
M  V30 988 C 90.612 0.603251 -1.63208 0
M  V30 989 O 91.788 0.508112 -1.94885 0
M  V30 990 C 88.853 0.549091 -3.42324 0
M  V30 991 C 87.914 -0.347156 -4.27894 0
M  V30 992 C 87.147 0.43207 -5.31948 0
M  V30 993 O 87.37 1.66409 -5.45586 0
M  V30 994 O 86.304 -0.192298 -6.01593 0
M  V30 995 H 90.13 -1.09243 -2.83372 0
M  V30 996 H 87.715 -0.598198 -1.36901 0
M  V30 997 H 89.597 1.01414 -4.09015 0
M  V30 998 H 88.272 1.34955 -2.94226 0
M  V30 999 H 87.179 -0.859979 -3.64081 0
M  V30 1000 H 88.512 -1.1123 -4.79467 0
M  V30 1001 N 90.1641 1.46063 -0.591896 0
M  V30 1002 C 91.1141 2.27458 0.157172 0
M  V30 1003 C 92.0981 1.3641 0.853301 0
M  V30 1004 O 93.2901 1.60517 0.74588 0
M  V30 1005 C 90.4191 3.22956 1.16423 0
M  V30 1006 C 89.5051 4.2149 0.469742 0
M  V30 1007 N 89.8961 5.03519 -0.479839 0
M  V30 1008 C 88.1941 4.40161 0.719319 0
M  V30 1009 C 88.8951 5.74904 -0.886591 0
M  V30 1010 N 87.8711 5.43097 -0.233731 0
M  V30 1011 H 91.6731 2.88272 -0.572392 0
M  V30 1012 H 89.1871 1.57024 -0.414375 0
M  V30 1013 H 91.1841 3.79986 1.71513 0
M  V30 1014 H 89.8441 2.63701 1.89451 0
M  V30 1015 H 90.8551 5.1078 -0.855823 0
M  V30 1016 H 87.5321 3.92046 1.43548 0
M  V30 1017 H 88.9221 6.50844 -1.66888 0
M  V30 1018 N 91.6422 0.330177 1.54103 0
M  V30 1019 C 92.5722 -0.525353 2.27513 0
M  V30 1020 C 93.5532 -1.11383 1.2856 0
M  V30 1021 O 94.7382 -1.13773 1.57383 0
M  V30 1022 C 91.8682 -1.6831 3.03791 0
M  V30 1023 C 90.8222 -1.2236 4.10137 0
M  V30 1024 C 90.1482 -2.46882 4.74293 0
M  V30 1025 C 91.4482 -0.333697 5.21233 0
M  V30 1026 H 93.1422 0.087013 2.99274 0
M  V30 1027 H 90.6882 0.0432893 1.43935 0
M  V30 1028 H 92.6412 -2.28795 3.5388 0
M  V30 1029 H 91.3652 -2.32216 2.29659 0
M  V30 1030 H 90.0242 -0.64165 3.60941 0
M  V30 1031 H 89.6722 -3.09165 3.96769 0
M  V30 1032 H 89.3722 -2.16825 5.46133 0
M  V30 1033 H 90.8962 -3.08117 5.27159 0
M  V30 1034 H 92.3102 -0.845013 5.67038 0
M  V30 1035 H 90.7072 -0.125612 5.99969 0
M  V30 1036 H 91.7772 0.633724 4.80741 0
M  V30 1037 N 93.1203 -1.57491 0.0584922 0
M  V30 1038 C 94.3693 -1.92155 -0.613146 0
M  V30 1039 C 94.6823 -0.939334 -1.71569 0
M  V30 1040 O 95.8883 -1.17829 -2.44599 0
M  V30 1041 C 94.3443 -3.41303 -1.14195 0
M  V30 1042 C 93.9523 -4.47944 -0.0711265 0
M  V30 1043 C 95.6963 -3.84988 -1.78841 0
M  V30 1044 C 93.6033 -5.88212 -0.613225 0
M  V30 1045 H 92.5333 -0.717162 -0.232796 0
M  V30 1046 H 95.1843 -1.83049 0.12857 0
M  V30 1047 H 93.5663 -3.45437 -1.93621 0
M  V30 1048 H 94.7403 -4.55408 0.702836 0
M  V30 1049 H 93.0553 -4.13644 0.478313 0
M  V30 1050 H 95.6523 -4.87159 -2.20408 0
M  V30 1051 H 95.9953 -3.21632 -2.64308 0
M  V30 1052 H 96.5283 -3.83401 -1.06059 0
M  V30 1053 H 93.2673 -6.55183 0.203978 0
M  V30 1054 H 92.7873 -5.84294 -1.35501 0
M  V30 1055 H 94.4663 -6.37687 -1.09383 0
M  V30 1056 N 94.5984 0.214957 -1.56127 0
M  V30 1057 C 95.8454 0.938372 -1.79446 0
M  V30 1058 C 96.1734 1.8407 -0.628378 0
M  V30 1059 O 95.4284 1.91837 0.386925 0
M  V30 1060 C 95.7274 1.80314 -3.0858 0
M  V30 1061 C 95.3934 1.05349 -4.3842 0
M  V30 1062 C 94.0554 0.846435 -4.73697 0
M  V30 1063 C 96.4074 0.524588 -5.18553 0
M  V30 1064 C 93.7354 0.098683 -5.86617 0
M  V30 1065 C 96.0874 -0.209853 -6.32252 0
M  V30 1066 C 94.7514 -0.428102 -6.66126 0
M  V30 1067 H 94.0214 0.343375 -0.656639 0
M  V30 1068 H 96.6684 0.206077 -1.90388 0
M  V30 1069 H 94.9734 2.6035 -2.92789 0
M  V30 1070 H 96.6704 2.36513 -3.23825 0
M  V30 1071 H 93.2604 1.22486 -4.10725 0
M  V30 1072 H 97.4444 0.672008 -4.91729 0
M  V30 1073 H 92.7004 -0.0805753 -6.11347 0
M  V30 1074 H 96.8744 -0.627157 -6.9357 0
M  V30 1075 H 94.5014 -1.00944 -7.53468 0
M  V30 1076 N 96.0765 1.50051 0.48192 0
M  V30 1077 C 97.0065 1.71046 1.58951 0
M  V30 1078 C 97.9875 0.559288 1.60642 0
M  V30 1079 O 99.1725 0.797243 1.77081 0
M  V30 1080 C 96.3025 1.79462 2.97339 0
M  V30 1081 C 95.2565 2.94558 3.10515 0
M  V30 1082 C 94.5825 2.88105 4.50444 0
M  V30 1083 C 95.8825 4.35227 2.88747 0
M  V30 1084 H 97.5765 2.6378 1.41635 0
M  V30 1085 H 95.1225 1.26936 0.679942 0
M  V30 1086 H 97.0755 1.92734 3.74742 0
M  V30 1087 H 95.7995 0.833412 3.15788 0
M  V30 1088 H 94.4585 2.80918 2.35543 0
M  V30 1089 H 94.1065 1.89853 4.65795 0
M  V30 1090 H 93.8065 3.65366 4.60197 0
M  V30 1091 H 95.3305 3.03412 5.29881 0
M  V30 1092 H 96.7445 4.49449 3.55905 0
M  V30 1093 H 95.1415 5.13856 3.09955 0
M  V30 1094 H 96.2115 4.48347 1.84696 0
M  V30 1095 N 97.5546 -0.734337 1.39446 0
M  V30 1096 C 98.8026 -1.49096 1.36436 0
M  V30 1097 C 99.1236 -1.94961 -0.0388255 0
M  V30 1098 O 98.3936 -1.69033 -0.990191 0
M  V30 1099 H 96.9736 -0.5531 0.502085 0
M  V30 1100 H 99.6356 -0.871725 1.74319 0
M  V30 1101 H 98.7316 -2.37276 2.02747 0
M  V30 1102 N 99.0327 -1.24633 -0.964593 0
M  V30 1103 C 100.258 -1.11596 -1.74818 0
M  V30 1104 C 100.683 0.32723 -1.85232 0
M  V30 1105 O 100.041 1.23695 -1.32549 0
M  V30 1106 C 100.089 -1.76397 -3.1451 0
M  V30 1107 O 99.1927 -1.03685 -3.99153 0
M  V30 1108 H 98.5337 -0.390196 -0.537255 0
M  V30 1109 H 101.064 -1.65002 -1.20977 0
M  V30 1110 H 101.074 -1.8228 -3.65018 0
M  V30 1111 H 99.7487 -2.81401 -3.06246 0
M  V30 1112 H 98.3257 -1.05611 -3.57632 0
M  V30 1113 N 100.511 1.16574 -1.06058 0
M  V30 1114 C 101.461 2.18854 -0.63929 0
M  V30 1115 C 102.445 1.57505 0.328798 0
M  V30 1116 O 103.637 1.76408 0.144623 0
M  V30 1117 C 100.766 3.43291 -0.0247203 0
M  V30 1118 C 99.8518 4.11722 -1.01716 0
M  V30 1119 N 100.243 4.55841 -2.19186 0
M  V30 1120 C 98.5408 4.37872 -0.847569 0
M  V30 1121 C 99.2418 5.08751 -2.82042 0
M  V30 1122 N 98.2178 5.01489 -2.09784 0
M  V30 1123 H 102.02 2.5068 -1.53417 0
M  V30 1124 H 99.5338 1.32999 -0.931935 0
M  V30 1125 H 101.531 4.15856 0.294915 0
M  V30 1126 H 100.191 3.12954 0.865448 0
M  V30 1127 H 101.202 4.49649 -2.56975 0
M  V30 1128 H 97.8788 4.17499 -0.00918848 0
M  V30 1129 H 99.2688 5.52944 -3.81709 0
M  V30 1130 N 101.989 0.842826 1.3317 0
M  V30 1131 C 102.936 0.276885 2.29133 0
M  V30 1132 C 103.906 -0.609527 1.54512 0
M  V30 1133 O 105.091 -0.546955 1.82792 0
M  V30 1134 C 102.231 -0.538707 3.40869 0
M  V30 1135 C 101.344 0.372169 4.30394 0
M  V30 1136 C 100.479 -0.454908 5.29249 0
M  V30 1137 C 99.5179 0.45411 6.10413 0
M  V30 1138 N 98.6549 -0.335075 7.013 0
M  V30 1139 H 103.495 1.10052 2.76934 0
M  V30 1140 H 101.032 0.554161 1.36262 0
M  V30 1141 H 102.99 -1.02709 4.0436 0
M  V30 1142 H 101.62 -1.32727 2.9425 0
M  V30 1143 H 100.672 0.97888 3.6759 0
M  V30 1144 H 101.984 1.0703 4.87182 0
M  V30 1145 H 101.138 -1.00695 5.98285 0
M  V30 1146 H 99.8769 -1.18646 4.73048 0
M  V30 1147 H 98.8819 1.01813 5.40291 0
M  V30 1148 H 100.107 1.18409 6.68697 0
M  V30 1149 H 98.0529 -1.04994 6.47543 0
M  V30 1150 H 97.9699 0.304262 7.55387 0
M  V30 1151 H 99.2379 -0.869224 7.74638 0
M  V30 1152 N 103.467 -1.45747 0.599634 0
M  V30 1153 C 104.697 -2.06369 0.0977132 0
M  V30 1154 C 105.105 -1.44624 -1.21985 0
M  V30 1155 O 104.448 -0.551831 -1.75216 0
M  V30 1156 C 104.51 -3.59284 -0.124673 0
M  V30 1157 C 104.174 -4.43318 1.10987 0
M  V30 1158 C 105.171 -4.78796 2.02609 0
M  V30 1159 C 102.856 -4.84194 1.33647 0
M  V30 1160 C 104.85 -5.53997 3.15224 0
M  V30 1161 C 102.537 -5.5915 2.46565 0
M  V30 1162 C 103.535 -5.93968 3.37182 0
M  V30 1163 O 103.223 -6.67405 4.48136 0
M  V30 1164 H 102.955 -0.673122 0.0623153 0
M  V30 1165 H 105.509 -1.88104 0.824981 0
M  V30 1166 H 103.739 -3.75919 -0.906745 0
M  V30 1167 H 105.428 -4.01775 -0.577201 0
M  V30 1168 H 106.194 -4.47781 1.86325 0
M  V30 1169 H 102.073 -4.56534 0.64016 0
M  V30 1170 H 105.617 -5.81091 3.85978 0
M  V30 1171 H 101.514 -5.89579 2.62805 0
M  V30 1172 H 102.282 -6.85847 4.46717 0
M  V30 1173 N 104.945 -0.338344 -1.53925 0
M  V30 1174 C 106.356 0.146651 -1.86123 0
M  V30 1175 C 106.707 1.5042 -1.2597 0
M  V30 1176 O 105.832 2.08723 -0.571294 0
M  V30 1177 C 106.427 0.272879 -3.37699 0
M  V30 1178 C 104.986 0.702103 -3.69794 0
M  V30 1179 C 104.133 -0.167304 -2.76795 0
M  V30 1180 H 107.084 -0.558123 -1.48562 0
M  V30 1181 H 107.105 1.10128 -3.64214 0
M  V30 1182 H 106.617 -0.715307 -3.81451 0
M  V30 1183 H 104.718 1.6995 -3.31584 0
M  V30 1184 H 104.831 0.495604 -4.7653 0
M  V30 1185 H 103.195 0.359527 -2.5215 0
M  V30 1186 H 103.978 -1.15253 -3.23375 0
M  V30 1187 N 106.423 1.57458 -0.0668435 0
M  V30 1188 C 107.653 1.97337 0.611677 0
M  V30 1189 C 108.061 0.943744 1.63982 0
M  V30 1190 O 107.404 -0.0785584 1.83532 0
M  V30 1191 C 107.466 3.33511 1.34205 0
M  V30 1192 C 107.13 4.54598 0.467941 0
M  V30 1193 C 108.127 5.19186 -0.272439 0
M  V30 1194 C 105.812 5.0075 0.39427 0
M  V30 1195 C 107.806 6.28274 -1.07476 0
M  V30 1196 C 105.493 6.09711 -0.411729 0
M  V30 1197 C 106.491 6.73335 -1.14492 0
M  V30 1198 O 106.179 7.80199 -1.93763 0
M  V30 1199 H 105.911 0.654042 0.170893 0
M  V30 1200 H 108.465 2.04961 -0.134289 0
M  V30 1201 H 106.695 3.22487 2.13398 0
M  V30 1202 H 108.384 3.58029 1.91233 0
M  V30 1203 H 109.15 4.84477 -0.225086 0
M  V30 1204 H 105.029 4.51009 0.954569 0
M  V30 1205 H 108.573 6.77866 -1.64755 0
M  V30 1206 H 104.47 6.43854 -0.460664 0
M  V30 1207 H 105.238 7.97053 -1.86142 0
M  V30 1208 N 107.901 -0.206675 1.56239 0
M  V30 1209 C 108.848 -1.25617 1.93621 0
M  V30 1210 C 109.818 -1.45824 0.795274 0
M  V30 1211 O 111.003 -1.59148 1.05245 0
M  V30 1212 C 108.143 -2.59839 2.27107 0
M  V30 1213 C 107.256 -2.47308 3.54207 0
M  V30 1214 C 106.391 -3.74155 3.7707 0
M  V30 1215 C 105.43 -3.56407 4.97635 0
M  V30 1216 N 104.567 -4.75238 5.1681 0
M  V30 1217 H 109.407 -0.930383 2.83104 0
M  V30 1218 H 106.944 -0.448065 1.4011 0
M  V30 1219 H 108.902 -3.38021 2.44535 0
M  V30 1220 H 107.532 -2.90485 1.40778 0
M  V30 1221 H 106.584 -1.60483 3.4489 0
M  V30 1222 H 107.896 -2.30122 4.42544 0
M  V30 1223 H 107.05 -4.60778 3.94675 0
M  V30 1224 H 105.789 -3.94282 2.87042 0
M  V30 1225 H 104.794 -2.68168 4.79964 0
M  V30 1226 H 106.019 -3.37736 5.89161 0
M  V30 1227 H 103.965 -4.95651 4.29728 0
M  V30 1228 H 103.882 -4.60835 5.99306 0
M  V30 1229 H 105.15 -5.63246 5.38864 0
M  V30 1230 N 109.379 -1.50304 -0.473955 0
M  V30 1231 C 110.627 -1.60832 -1.22382 0
M  V30 1232 C 110.948 -0.30939 -1.9253 0
M  V30 1233 O 110.218 0.67296 -1.83978 0
M  V30 1234 H 108.798 -0.592652 -0.454723 0
M  V30 1235 H 111.46 -1.87068 -0.546968 0
M  V30 1236 H 110.556 -2.41803 -1.97327 0
M  V30 1237 N 110.857 0.726932 -1.39834 0
M  V30 1238 C 111.787 1.85405 -1.41941 0
M  V30 1239 C 112.768 1.67751 -0.281728 0
M  V30 1240 O 113.953 1.8795 -0.488717 0
M  V30 1241 C 111.083 3.23243 -1.2701 0
M  V30 1242 C 110.037 3.55549 -2.38262 0
M  V30 1243 C 109.363 4.9241 -2.08415 0
M  V30 1244 C 110.663 3.577 -3.80589 0
M  V30 1245 H 112.357 1.83899 -2.36266 0
M  V30 1246 H 109.903 0.883349 -1.13723 0
M  V30 1247 H 111.856 4.01775 -1.27103 0
M  V30 1248 H 110.58 3.25296 -0.291564 0
M  V30 1249 H 109.239 2.79351 -2.37399 0
M  V30 1250 H 108.887 4.91052 -1.0898 0
M  V30 1251 H 108.587 5.14992 -2.82943 0
M  V30 1252 H 110.111 5.73289 -2.10171 0
M  V30 1253 H 111.525 4.26293 -3.83337 0
M  V30 1254 H 109.922 3.91804 -4.54543 0
M  V30 1255 H 110.992 2.57328 -4.10987 0
M  V30 1256 N 112.336 1.25143 0.95797 0
M  V30 1257 C 113.266 1.07711 2.07173 0
M  V30 1258 C 114.247 -0.0128462 1.70095 0
M  V30 1259 O 115.432 0.156061 1.93572 0
M  V30 1260 C 112.562 0.691503 3.40346 0
M  V30 1261 C 111.516 1.73132 3.9142 0
M  V30 1262 C 110.842 1.20049 5.21049 0
M  V30 1263 C 112.142 3.1294 4.1817 0
M  V30 1264 H 113.836 2.00873 2.22014 0
M  V30 1265 H 111.382 0.967191 1.06684 0
M  V30 1266 H 113.335 0.556505 4.17709 0
M  V30 1267 H 112.059 -0.275819 3.25433 0
M  V30 1268 H 110.718 1.8547 3.16222 0
M  V30 1269 H 110.366 0.223499 5.02503 0
M  V30 1270 H 110.066 1.89545 5.56189 0
M  V30 1271 H 111.59 1.07782 6.01012 0
M  V30 1272 H 113.004 3.03775 4.86203 0
M  V30 1273 H 111.401 3.79875 4.64559 0
M  V30 1274 H 112.471 3.6025 3.24573 0
M  V30 1275 N 113.814 -1.1601 1.06675 0
M  V30 1276 C 115.091 -1.82679 0.699114 0
M  V30 1277 C 115.471 -1.94559 -0.819137 0
M  V30 1278 O 114.819 -1.49169 -1.73092 0
M  V30 1279 C 115.029 -3.19445 1.40555 0
M  V30 1280 C 116.377 -3.95171 1.55323 0
M  V30 1281 O 117.401 -3.28976 1.36577 0
M  V30 1282 O 116.26 -5.13833 1.86112 0
M  V30 1283 H 113.354 -0.788954 0.247951 0
M  V30 1284 H 115.9 -1.23179 1.16726 0
M  V30 1285 H 114.672 -3.05856 2.44065 0
M  V30 1286 H 114.295 -3.86625 0.927733 0
M  V30 1287 N 115.292 -0.849877 -1.32721 0
M  V30 1288 C 116.539 -0.450923 -1.97416 0
M  V30 1289 C 116.867 0.992376 -1.67279 0
M  V30 1290 O 116.122 1.71048 -0.950845 0
M  V30 1291 C 116.421 -0.631272 -3.51781 0
M  V30 1292 C 116.087 -2.04432 -4.01894 0
M  V30 1293 C 114.749 -2.4308 -4.1529 0
M  V30 1294 C 117.101 -2.96679 -4.28522 0
M  V30 1295 C 114.429 -3.73257 -4.52654 0
M  V30 1296 C 116.781 -4.26349 -4.67343 0
M  V30 1297 C 115.445 -4.64939 -4.78945 0
M  V30 1298 H 114.715 -0.165004 -0.722395 0
M  V30 1299 H 117.362 -1.07901 -1.58207 0
M  V30 1300 H 115.667 0.0800767 -3.91718 0
M  V30 1301 H 117.364 -0.302709 -3.99856 0
M  V30 1302 H 113.954 -1.73419 -3.91949 0
M  V30 1303 H 118.138 -2.68054 -4.17685 0
M  V30 1304 H 113.394 -4.02946 -4.59831 0
M  V30 1305 H 117.568 -4.97895 -4.86902 0
M  V30 1306 H 115.195 -5.65855 -5.07654 0
M  V30 1307 N 116.77 1.45427 -0.607355 0
M  V30 1308 C 117.7 2.3329 0.0989352 0
M  V30 1309 C 118.681 1.46816 0.859007 0
M  V30 1310 O 119.866 1.75588 0.829604 0
M  V30 1311 C 116.996 3.29518 1.09705 0
M  V30 1312 C 115.95 4.25626 0.450206 0
M  V30 1313 C 115.276 5.11542 1.55655 0
M  V30 1314 C 116.576 5.18505 -0.628455 0
M  V30 1315 H 118.27 2.92595 -0.634716 0
M  V30 1316 H 115.816 1.40696 -0.306681 0
M  V30 1317 H 117.769 3.89855 1.59971 0
M  V30 1318 H 116.493 2.68372 1.86129 0
M  V30 1319 H 115.152 3.66586 -0.0315886 0
M  V30 1320 H 114.8 4.46765 2.31107 0
M  V30 1321 H 114.5 5.76647 1.12925 0
M  V30 1322 H 116.024 5.74748 2.06148 0
M  V30 1323 H 117.438 5.72916 -0.209877 0
M  V30 1324 H 115.835 5.92085 -0.977489 0
M  V30 1325 H 116.905 4.60948 -1.50514 0
M  V30 1326 N 118.248 0.346503 1.53744 0
M  V30 1327 C 119.211 -0.496439 2.23759 0
M  V30 1328 C 120.211 -1.0252 1.2388 0
M  V30 1329 O 121.401 -0.913974 1.48297 0
M  V30 1330 C 118.533 -1.69187 2.95954 0
M  V30 1331 H 119.726 0.115952 2.99676 0
M  V30 1332 H 117.279 0.0978939 1.55993 0
M  V30 1333 H 118.014 -2.34288 2.24231 0
M  V30 1334 H 117.799 -1.31989 3.69217 0
M  V30 1335 H 119.289 -2.28969 3.49232 0
M  V30 1336 N 119.726 -1.57421 0.075193 0
M  V30 1337 C 120.956 -1.97659 -0.601203 0
M  V30 1338 C 121.364 -0.952427 -1.63479 0
M  V30 1339 O 120.707 0.0688241 -1.83571 0
M  V30 1340 C 120.769 -3.34218 -1.32434 0
M  V30 1341 C 120.433 -4.5484 -0.443826 0
M  V30 1342 C 121.43 -5.19034 0.299969 0
M  V30 1343 C 119.115 -5.00952 -0.367709 0
M  V30 1344 C 121.109 -6.27695 1.10807 0
M  V30 1345 C 118.796 -6.09484 0.444058 0
M  V30 1346 C 119.794 -6.72719 1.18061 0
M  V30 1347 O 119.482 -7.79161 1.97898 0
M  V30 1348 H 119.214 -0.65494 -0.167422 0
M  V30 1349 H 121.768 -2.04886 0.145157 0
M  V30 1350 H 119.998 -3.23615 -2.11685 0
M  V30 1351 H 121.687 -3.59038 -1.89331 0
M  V30 1352 H 122.453 -4.84351 0.250776 0
M  V30 1353 H 118.332 -4.51509 -0.930638 0
M  V30 1354 H 121.876 -6.76982 1.68347 0
M  V30 1355 H 117.773 -6.43601 0.494803 0
M  V30 1356 H 118.541 -7.96055 1.90367 0
M  V30 1357 N 121.204 0.198386 -1.56346 0
M  V30 1358 C 122.151 1.24589 -1.94284 0
M  V30 1359 C 123.121 1.454 -0.802997 0
M  V30 1360 O 124.306 1.58588 -1.06087 0
M  V30 1361 C 121.446 2.58631 -2.28482 0
M  V30 1362 C 120.559 2.45426 -3.55514 0
M  V30 1363 C 119.694 3.7215 -3.79049 0
M  V30 1364 C 118.733 3.53763 -4.99518 0
M  V30 1365 N 117.87 4.72491 -5.19323 0
M  V30 1366 H 122.71 0.915356 -2.83593 0
M  V30 1367 H 120.247 0.440629 -1.40346 0
M  V30 1368 H 122.205 3.3672 -2.46324 0
M  V30 1369 H 120.835 2.89734 -1.42317 0
M  V30 1370 H 119.887 1.58652 -3.45737 0
M  V30 1371 H 121.199 2.27772 -4.43758 0
M  V30 1372 H 120.353 4.58679 -3.97113 0
M  V30 1373 H 119.092 3.92754 -2.89129 0
M  V30 1374 H 118.097 2.65619 -4.8138 0
M  V30 1375 H 119.322 3.34607 -5.90944 0
M  V30 1376 H 117.268 4.93365 -4.3235 0
M  V30 1377 H 117.185 4.5765 -6.01741 0
M  V30 1378 H 118.453 5.6038 -5.41843 0
M  V30 1379 N 122.682 1.50554 0.465978 0
M  V30 1380 C 123.922 1.63439 1.22747 0
M  V30 1381 C 124.286 0.329822 1.89146 0
M  V30 1382 O 125.487 0.334161 2.66715 0
M  V30 1383 C 123.758 2.78542 2.2394 0
M  V30 1384 S 125.317 3.11591 3.0896 0
M  V30 1385 H 122.135 0.576113 0.416672 0
M  V30 1386 H 124.737 1.88357 0.523641 0
M  V30 1387 H 123.441 3.71805 1.7375 0
M  V30 1388 H 122.972 2.55726 2.98944 0
M  V30 1389 H 124.987 2.55811 4.25176 0
M  V30 1390 N 124.16 -0.719506 1.40217 0
M  V30 1391 C 125.09 -1.8465 1.42922 0
M  V30 1392 C 126.071 -1.67599 0.29062 0
M  V30 1393 O 127.256 -1.87688 0.498677 0
M  V30 1394 C 124.386 -3.22565 1.28722 0
M  V30 1395 C 123.34 -3.54281 2.40144 0
M  V30 1396 C 122.666 -4.91298 2.11023 0
M  V30 1397 C 123.966 -3.55676 3.82481 0
M  V30 1398 H 125.66 -1.82644 2.37237 0
M  V30 1399 H 123.206 -0.877305 1.1419 0
M  V30 1400 H 125.159 -4.01095 1.29232 0
M  V30 1401 H 123.883 -3.25137 0.308811 0
M  V30 1402 H 122.542 -2.78088 2.38877 0
M  V30 1403 H 122.19 -4.90468 1.11582 0
M  V30 1404 H 121.89 -5.13485 2.8567 0
M  V30 1405 H 123.414 -5.72166 2.13209 0
M  V30 1406 H 124.828 -4.24254 3.85592 0
M  V30 1407 H 123.225 -3.89388 4.56614 0
M  V30 1408 H 124.295 -2.55144 4.12346 0
M  V30 1409 N 125.638 -1.25649 -0.95132 0
M  V30 1410 C 126.863 -1.13443 -1.73624 0
M  V30 1411 C 127.288 0.307565 -1.85568 0
M  V30 1412 O 126.646 1.22282 -1.33854 0
M  V30 1413 C 126.694 -1.79723 -3.12621 0
M  V30 1414 O 125.798 -1.07912 -3.98031 0
M  V30 1415 H 125.139 -0.395872 -0.533086 0
M  V30 1416 H 127.669 -1.66276 -1.1922 0
M  V30 1417 H 127.679 -1.86141 -3.63064 0
M  V30 1418 H 126.354 -2.84633 -3.03244 0
M  V30 1419 H 124.931 -1.09398 -3.56492 0
M  V30 1420 N 127.117 1.15442 -1.07289 0
M  V30 1421 C 128.027 2.23786 -0.704057 0
M  V30 1422 C 129.043 1.7166 0.284413 0
M  V30 1423 O 130.219 2.00972 0.131205 0
M  V30 1424 C 127.284 3.46535 -0.106792 0
M  V30 1425 C 126.345 4.13654 -1.14842 0
M  V30 1426 C 125.578 5.30544 -0.57956 0
M  V30 1427 O 125.801 5.67187 0.604585 0
M  V30 1428 O 124.735 5.87154 -1.32414 0
M  V30 1429 H 128.561 2.57664 -1.60757 0
M  V30 1430 H 126.146 1.23152 -0.845803 0
M  V30 1431 H 128.028 4.20804 0.224048 0
M  V30 1432 H 126.703 3.14407 0.770049 0
M  V30 1433 H 125.61 3.4131 -1.5316 0
M  V30 1434 H 126.943 4.49861 -1.99714 0
M  V30 1435 N 128.595 0.856903 1.32268 0
M  V30 1436 C 129.843 0.460474 1.96784 0
M  V30 1437 C 130.164 -0.987701 1.68135 0
M  V30 1438 O 129.434 -1.69058 0.989765 0
M  V30 1439 H 128.014 0.167289 0.728027 0
M  V30 1440 H 130.676 1.09383 1.61312 0
M  V30 1441 H 129.772 0.60739 3.06133 0
M  V30 1442 N 130.073 -1.45103 0.615059 0
M  V30 1443 C 131.301 -2.06553 0.11977 0
M  V30 1444 C 131.716 -1.45842 -1.19898 0
M  V30 1445 O 131.073 -0.575325 -1.73194 0
M  V30 1446 C 131.124 -3.61495 -0.018364 0
M  V30 1447 O 130.845 -4.19942 1.24822 0
M  V30 1448 C 132.346 -4.39947 -0.544237 0
M  V30 1449 H 129.566 -0.667096 0.0722739 0
M  V30 1450 H 132.11 -1.8623 0.84491 0
M  V30 1451 H 130.265 -3.81135 -0.693865 0
M  V30 1452 H 130.679 -5.13204 1.0827 0
M  V30 1453 H 132.153 -5.48838 -0.589953 0
M  V30 1454 H 132.63 -4.10255 -1.56805 0
M  V30 1455 H 133.236 -4.25188 0.0974703 0
M  V30 1456 N 131.551 -0.354651 -1.53558 0
M  V30 1457 C 132.499 0.512195 -2.26891 0
M  V30 1458 C 133.493 1.09263 -1.29452 0
M  V30 1459 O 134.699 1.03709 -1.47121 0
M  V30 1460 H 131.074 0.183878 -0.729173 0
M  V30 1461 H 133.045 -0.128202 -2.98124 0
M  V30 1462 C 131.794 1.64563 -3.06291 0
M  V30 1463 H 131.117 1.20829 -3.81104 0
M  V30 1464 H 132.557 2.22711 -3.60799 0
M  V30 1465 C 131.016 2.58158 -2.16462 0
M  V30 1466 O 131.546 3.60695 -1.76811 0
M  V30 1467 N 129.752 2.27096 -1.81317 0
M  V30 1468 H 129.299 1.43751 -2.1376 0
M  V30 1469 H 129.257 2.89975 -1.21498 0
M  V30 1470 N 133.029 1.57378 -0.0835403 0
M  V30 1471 C 133.992 2.12252 0.864959 0
M  V30 1472 C 134.992 1.04916 1.21858 0
M  V30 1473 O 136.182 1.30853 1.14991 0
M  V30 1474 C 133.314 2.63358 2.16461 0
M  V30 1475 H 134.507 2.97371 0.388676 0
M  V30 1476 H 132.06 1.55423 0.165317 0
M  V30 1477 H 132.795 1.81727 2.686 0
M  V30 1478 H 132.58 3.41826 1.92087 0
M  V30 1479 H 134.07 3.05847 2.84337 0
M  V30 1480 N 134.507 -0.190092 1.56449 0
M  V30 1481 C 135.753 -0.906472 1.82084 0
M  V30 1482 C 136.108 -1.80677 0.661335 0
M  V30 1483 O 135.401 -1.88501 -0.343237 0
M  V30 1484 C 135.595 -1.75382 3.1141 0
M  V30 1485 C 135.424 -0.937053 4.39829 0
M  V30 1486 C 134.194 -0.619507 5.01488 0
M  V30 1487 C 136.392 -0.2874 5.13496 0
M  V30 1488 N 134.374 0.215367 6.13522 0
M  V30 1489 C 135.745 0.409454 6.18646 0
M  V30 1490 C 137.8 -0.203639 4.97483 0
M  V30 1491 C 136.503 1.1821 7.0952 0
M  V30 1492 C 138.529 0.555622 5.88784 0
M  V30 1493 C 137.891 1.24091 6.93384 0
M  V30 1494 H 133.99 -0.310931 0.717528 0
M  V30 1495 H 136.574 -0.174821 1.93914 0
M  V30 1496 H 134.745 -2.45703 3.00806 0
M  V30 1497 H 136.477 -2.41006 3.25112 0
M  V30 1498 H 133.232 -0.945126 4.64074 0
M  V30 1499 H 133.656 0.622562 6.74131 0
M  V30 1500 H 138.298 -0.719099 4.1664 0
M  V30 1501 H 136.016 1.70897 7.89823 0
M  V30 1502 H 139.602 0.621854 5.78467 0
M  V30 1503 H 138.482 1.81901 7.62812 0
M  V30 1504 N 135.985 -1.50799 -0.457987 0
M  V30 1505 C 137.213 -1.66218 -1.23203 0
M  V30 1506 C 137.628 -0.350894 -1.85511 0
M  V30 1507 O 136.985 0.668546 -1.69814 0
M  V30 1508 C 137.036 -2.76291 -2.33121 0
M  V30 1509 O 136.757 -4.02338 -1.73366 0
M  V30 1510 C 138.258 -3.028 -3.2377 0
M  V30 1511 H 135.478 -0.558361 -0.372121 0
M  V30 1512 H 138.022 -1.97099 -0.545179 0
M  V30 1513 H 136.177 -2.48068 -2.97558 0
M  V30 1514 H 136.591 -4.63312 -2.4585 0
M  V30 1515 H 138.065 -3.8345 -3.97077 0
M  V30 1516 H 138.542 -2.14385 -3.83322 0
M  V30 1517 H 139.148 -3.32604 -2.65056 0
M  V30 1518 N 137.463 0.71206 -1.40597 0
M  V30 1519 C 138.426 1.80785 -1.40888 0
M  V30 1520 C 139.426 1.57937 -0.302103 0
M  V30 1521 O 140.616 1.64913 -0.561182 0
M  V30 1522 C 137.748 3.18927 -1.20409 0
M  V30 1523 H 138.941 1.81924 -2.38419 0
M  V30 1524 H 136.494 0.91805 -1.26497 0
M  V30 1525 H 137.229 3.23436 -0.236522 0
M  V30 1526 H 137.014 3.36911 -2.00582 0
M  V30 1527 H 138.504 3.98949 -1.23408 0
M  V30 1528 N 138.941 1.26152 0.944643 0
M  V30 1529 C 140.19 1.10883 1.68487 0
M  V30 1530 C 140.503 -0.348153 1.92477 0
M  V30 1531 O 141.709 -0.621459 2.64292 0
M  V30 1532 C 140.165 1.93624 3.03377 0
M  V30 1533 C 139.773 3.43875 2.87148 0
M  V30 1534 C 141.517 1.86954 3.81115 0
M  V30 1535 C 139.424 4.18875 4.1749 0
M  V30 1536 H 138.354 0.41135 0.631907 0
M  V30 1537 H 141.005 1.50433 1.05082 0
M  V30 1538 H 139.387 1.46904 3.67743 0
M  V30 1539 H 140.561 3.98338 2.31653 0
M  V30 1540 H 138.876 3.51744 2.22856 0
M  V30 1541 H 141.473 2.40275 4.77673 0
M  V30 1542 H 141.816 0.839518 4.07747 0
M  V30 1543 H 142.349 2.31477 3.23517 0
M  V30 1544 H 139.088 5.22332 3.96043 0
M  V30 1545 H 138.608 3.69193 4.72712 0
M  V30 1546 H 140.287 4.27134 4.85968 0
M  V30 1547 N 140.419 -1.14872 1.07899 0
M  V30 1548 C 141.696 -1.81928 0.71845 0
M  V30 1549 C 142.076 -1.95417 -0.798455 0
M  V30 1550 O 141.424 -1.50997 -1.715 0
M  V30 1551 C 141.634 -3.17937 1.43935 0
M  V30 1552 C 142.982 -3.93501 1.59506 0
M  V30 1553 O 144.006 -3.27509 1.40058 0
M  V30 1554 O 142.865 -5.1183 1.91551 0
M  V30 1555 H 139.959 -0.78628 0.256305 0
M  V30 1556 H 142.505 -1.21934 1.18026 0
M  V30 1557 H 141.277 -3.0325 2.47295 0
M  V30 1558 H 140.9 -3.85619 0.968687 0
M  V30 1559 N 141.898 -0.863906 -1.31812 0
M  V30 1560 C 142.848 -0.286898 -2.26188 0
M  V30 1561 C 143.832 0.572577 -1.50367 0
M  V30 1562 O 145.024 0.420447 -1.71934 0
M  V30 1563 C 142.153 0.515849 -3.39402 0
M  V30 1564 C 141.239 -0.356531 -4.22599 0
M  V30 1565 N 141.63 -1.44716 -4.84656 0
M  V30 1566 C 139.928 -0.147898 -4.45755 0
M  V30 1567 C 140.629 -1.98462 -5.46798 0
M  V30 1568 N 139.605 -1.28247 -5.28255 0
M  V30 1569 H 143.407 -1.12055 -2.717 0
M  V30 1570 H 140.921 -0.711012 -1.46008 0
M  V30 1571 H 142.918 0.945701 -4.06032 0
M  V30 1572 H 141.578 1.34718 -2.95434 0
M  V30 1573 H 142.589 -1.83008 -4.84488 0
M  V30 1574 H 139.266 0.647973 -4.12441 0
M  V30 1575 H 140.656 -2.89932 -6.06126 0
M  V30 1576 N 143.376 1.44774 -0.622745 0
M  V30 1577 C 144.604 2.06487 -0.130722 0
M  V30 1578 C 145.019 1.46476 1.19123 0
M  V30 1579 O 144.376 0.584502 1.72887 0
M  V30 1580 C 144.427 3.615 -0.000807207 0
M  V30 1581 O 144.148 4.19274 -1.27048 0
M  V30 1582 C 145.649 4.40229 0.520898 0
M  V30 1583 H 142.869 0.666704 -0.0758106 0
M  V30 1584 H 145.413 1.85779 -0.854774 0
M  V30 1585 H 143.568 3.81498 0.673643 0
M  V30 1586 H 143.982 5.12622 -1.1099 0
M  V30 1587 H 145.456 5.49144 0.560838 0
M  V30 1588 H 145.933 4.1108 1.54627 0
M  V30 1589 H 146.539 4.25131 -0.120018 0
M  V30 1590 N 144.854 0.36279 1.53368 0
M  V30 1591 C 146.094 -0.227882 2.03126 0
M  V30 1592 C 146.458 -1.4622 1.24434 0
M  V30 1593 O 147.659 -2.12831 1.64184 0
M  V30 1594 C 145.93 -0.515427 3.53664 0
M  V30 1595 S 147.489 -1.08017 4.25297 0
M  V30 1596 H 144.307 -0.0665377 0.70788 0
M  V30 1597 H 146.909 0.50501 1.88865 0
M  V30 1598 H 145.613 0.390436 4.08539 0
M  V30 1599 H 145.144 -1.27747 3.72081 0
M  V30 1600 H 147.159 -2.36462 4.36234 0
M  V30 1601 N 146.332 -1.57332 0.0918853 0
M  V30 1602 C 147.562 -1.98286 -0.580205 0
M  V30 1603 C 147.97 -0.969713 -1.6246 0
M  V30 1604 O 147.313 0.0493501 -1.83634 0
M  V30 1605 C 147.375 -3.35603 -1.28882 0
M  V30 1606 C 147.039 -4.55285 -0.395559 0
M  V30 1607 C 148.036 -5.18687 0.355002 0
M  V30 1608 C 145.721 -5.01314 -0.314556 0
M  V30 1609 C 147.715 -6.26484 1.17458 0
M  V30 1610 C 145.402 -6.08979 0.508677 0
M  V30 1611 C 146.4 -6.71429 1.2519 0
M  V30 1612 O 146.088 -7.77018 2.06151 0
M  V30 1613 H 145.82 -0.656678 -0.160466 0
M  V30 1614 H 148.374 -2.04721 0.16688 0
M  V30 1615 H 146.604 -3.25842 -2.08241 0
M  V30 1616 H 148.293 -3.61026 -1.85512 0
M  V30 1617 H 149.059 -4.84058 0.302134 0
M  V30 1618 H 144.938 -4.5247 -0.882697 0
M  V30 1619 H 148.482 -6.75159 1.75518 0
M  V30 1620 H 144.379 -6.4304 0.563037 0
M  V30 1621 H 145.147 -7.93991 1.98799 0
M  V30 1622 N 147.81 0.181792 -1.56548 0
M  V30 1623 C 149.038 0.915947 -1.85521 0
M  V30 1624 C 149.453 1.76282 -0.676016 0
M  V30 1625 O 148.81 1.79012 0.355077 0
M  V30 1626 C 148.861 1.80126 -3.13427 0
M  V30 1627 O 148.582 0.988562 -4.26801 0
M  V30 1628 C 150.083 2.64597 -3.55673 0
M  V30 1629 H 147.303 0.26661 -0.61576 0
M  V30 1630 H 149.847 0.185039 -2.03661 0
M  V30 1631 H 148.002 2.48563 -2.97145 0
M  V30 1632 H 148.416 1.59308 -4.99721 0
M  V30 1633 H 149.89 3.2235 -4.48101 0
M  V30 1634 H 150.367 3.38958 -2.79292 0
M  V30 1635 H 150.973 2.0151 -3.74532 0
M  V30 1636 N 149.288 1.51039 0.449983 0
M  V30 1637 C 150.537 1.62317 1.19733 0
M  V30 1638 C 150.85 0.339101 1.92638 0
M  V30 1639 O 152.056 0.331069 2.69474 0
M  V30 1640 C 150.512 2.86608 2.17678 0
M  V30 1641 C 150.12 4.21972 1.50479 0
M  V30 1642 C 151.864 3.07239 2.92924 0
M  V30 1643 C 149.771 5.37426 2.46834 0
M  V30 1644 H 148.701 0.604532 0.450619 0
M  V30 1645 H 151.352 1.77494 0.465625 0
M  V30 1646 H 149.734 2.65037 2.94231 0
M  V30 1647 H 150.908 4.53878 0.795716 0
M  V30 1648 H 149.223 4.07117 0.874344 0
M  V30 1649 H 151.82 3.90668 3.65079 0
M  V30 1650 H 152.163 2.19807 3.5354 0
M  V30 1651 H 152.696 3.29091 2.23481 0
M  V30 1652 H 149.435 6.27079 1.90926 0
M  V30 1653 H 148.955 5.09912 3.15832 0
M  V30 1654 H 150.634 5.68862 3.08228 0
M  V30 1655 N 150.766 -0.704594 1.40972 0
M  V30 1656 C 151.676 -1.84856 1.44448 0
M  V30 1657 C 152.692 -1.70726 0.335961 0
M  V30 1658 O 153.868 -1.92799 0.582276 0
M  V30 1659 C 150.933 -3.20758 1.31587 0
M  V30 1660 C 149.994 -3.47063 2.52677 0
M  V30 1661 C 149.227 -4.76481 2.4042 0
M  V30 1662 O 149.45 -5.52341 1.42391 0
M  V30 1663 O 148.384 -5.03367 3.30007 0
M  V30 1664 H 152.21 -1.8488 2.40942 0
M  V30 1665 H 149.795 -0.85647 1.22413 0
M  V30 1666 H 151.677 -4.01913 1.26665 0
M  V30 1667 H 150.352 -3.21438 0.382049 0
M  V30 1668 H 149.259 -2.65873 2.63177 0
M  V30 1669 H 150.592 -3.5119 3.44858 0
M  V30 1670 N 152.244 -1.26651 -0.937939 0
M  V30 1671 C 153.472 -1.15173 -1.7188 0
M  V30 1672 C 153.887 0.292668 -1.86518 0
M  V30 1673 O 153.244 1.20014 -1.37488 0
M  V30 1674 C 153.295 -1.81925 -3.12387 0
M  V30 1675 O 153.016 -3.2072 -2.98446 0
M  V30 1676 C 154.517 -1.76442 -4.06673 0
M  V30 1677 H 151.737 -0.400911 -0.538063 0
M  V30 1678 H 154.281 -1.67332 -1.1756 0
M  V30 1679 H 152.436 -1.33696 -3.63599 0
M  V30 1680 H 152.85 -3.53802 -3.872 0
M  V30 1681 H 154.324 -2.27781 -5.02812 0
M  V30 1682 H 154.801 -0.731608 -4.33064 0
M  V30 1683 H 155.407 -2.24238 -3.61382 0
M  V30 1684 N 153.722 1.14298 -1.08507 0
M  V30 1685 C 154.969 1.85359 -0.815373 0
M  V30 1686 C 155.297 1.83001 0.658865 0
M  V30 1687 O 154.552 1.25655 1.50031 0
M  V30 1688 C 154.851 3.33547 -1.28379 0
M  V30 1689 C 154.517 3.56093 -2.76602 0
M  V30 1690 C 153.179 3.61955 -3.17084 0
M  V30 1691 C 155.531 3.64834 -3.72217 0
M  V30 1692 C 152.859 3.74082 -4.51973 0
M  V30 1693 C 155.211 3.78487 -5.06883 0
M  V30 1694 C 153.875 3.82598 -5.46969 0
M  V30 1695 H 153.145 0.678276 -0.298366 0
M  V30 1696 H 155.792 1.35002 -1.35819 0
M  V30 1697 H 154.097 3.86191 -0.660593 0
M  V30 1698 H 155.794 3.86959 -1.05186 0
M  V30 1699 H 152.384 3.52179 -2.4427 0
M  V30 1700 H 156.568 3.59595 -3.42061 0
M  V30 1701 H 151.824 3.75527 -4.82483 0
M  V30 1702 H 155.998 3.84193 -5.80834 0
M  V30 1703 H 153.625 3.91747 -6.51489 0
M  V30 1704 N 155.201 0.870884 1.31352 0
M  V30 1705 C 156.449 0.48132 1.96285 0
M  V30 1706 C 156.77 -0.969813 1.69173 0
M  V30 1707 O 156.04 -1.67998 1.00764 0
M  V30 1708 H 154.62 0.175002 0.726212 0
M  V30 1709 H 157.282 1.11087 1.60143 0
M  V30 1710 H 156.378 0.639825 3.05471 0
M  V30 1711 N 156.679 -1.44442 0.630414 0
M  V30 1712 C 157.928 -2.01267 0.132073 0
M  V30 1713 C 158.241 -1.50172 -1.25331 0
M  V30 1714 O 159.447 -1.9912 -1.84562 0
M  V30 1715 C 157.903 -3.59422 0.185362 0
M  V30 1716 C 157.511 -4.19514 1.57201 0
M  V30 1717 C 159.255 -4.23724 -0.256553 0
M  V30 1718 C 157.162 -5.69891 1.58045 0
M  V30 1719 H 156.092 -0.752619 0.0456092 0
M  V30 1720 H 158.743 -1.65666 0.789106 0
M  V30 1721 H 157.125 -3.92318 -0.538759 0
M  V30 1722 H 158.299 -3.98156 2.31966 0
M  V30 1723 H 156.614 -3.67496 1.95795 0
M  V30 1724 H 159.211 -5.34019 -0.269767 0
M  V30 1725 H 159.554 -3.96013 -1.28372 0
M  V30 1726 H 160.087 -3.95629 0.41505 0
M  V30 1727 H 156.826 -6.02336 2.58597 0
M  V30 1728 H 156.346 -5.93373 0.875725 0
M  V30 1729 H 158.025 -6.33515 1.31408 0
M  V30 1730 N 158.157 -0.370918 -1.53173 0
M  V30 1731 C 159.067 0.480823 -2.2962 0
M  V30 1732 C 160.083 1.08789 -1.35798 0
M  V30 1733 O 161.259 1.09768 -1.68858 0
M  V30 1734 C 158.324 1.60227 -3.07454 0
M  V30 1735 C 157.385 1.0222 -4.16953 0
M  V30 1736 C 156.618 2.0902 -4.91066 0
M  V30 1737 O 156.841 3.30222 -4.65091 0
M  V30 1738 O 155.775 1.71778 -5.76867 0
M  V30 1739 H 159.601 -0.141421 -3.03371 0
M  V30 1740 H 157.186 -0.135146 -1.48787 0
M  V30 1741 H 159.068 2.25417 -3.56041 0
M  V30 1742 H 157.743 2.20982 -2.36535 0
M  V30 1743 H 156.65 0.334064 -3.72605 0
M  V30 1744 H 157.983 0.459131 -4.90054 0
M  V30 1745 N 159.635 1.57281 -0.100228 0
M  V30 1746 C 160.883 1.94153 0.561157 0
M  V30 1747 C 161.204 0.983157 1.68401 0
M  V30 1748 O 160.474 0.0361132 1.95867 0
M  V30 1749 H 159.054 0.716791 0.210283 0
M  V30 1750 H 161.716 1.94202 -0.164765 0
M  V30 1751 H 160.812 2.96709 0.968008 0
M  V30 1752 N 161.113 -0.173488 1.56642 0
M  V30 1753 C 162.36 -0.890465 1.81871 0
M  V30 1754 C 162.688 -1.82339 0.67696 0
M  V30 1755 O 161.943 -1.92795 -0.335926 0
M  V30 1756 C 162.242 -1.72069 3.13252 0
M  V30 1757 C 161.908 -0.936878 4.41059 0
M  V30 1758 C 160.57 -0.720545 4.75775 0
M  V30 1759 C 162.922 -0.386919 5.19762 0
M  V30 1760 C 160.25 0.0568829 5.86672 0
M  V30 1761 C 162.602 0.37741 6.31473 0
M  V30 1762 C 161.266 0.604563 6.64757 0
M  V30 1763 H 160.536 -0.325844 0.665512 0
M  V30 1764 H 163.183 -0.155527 1.90867 0
M  V30 1765 H 161.488 -2.52496 2.99588 0
M  V30 1766 H 163.185 -2.27844 3.29982 0
M  V30 1767 H 159.775 -1.11553 4.13828 0
M  V30 1768 H 163.959 -0.541398 4.93338 0
M  V30 1769 H 159.215 0.242635 6.10918 0
M  V30 1770 H 163.389 0.810825 6.91664 0
M  V30 1771 H 161.016 1.20885 7.50527 0
M  V30 1772 N 162.591 -1.51276 -0.441967 0
M  V30 1773 C 163.831 -1.65372 -1.20132 0
M  V30 1774 C 164.195 -0.359871 -1.88597 0
M  V30 1775 O 165.396 -0.376551 -2.66149 0
M  V30 1776 C 163.667 -2.8207 -2.1948 0
M  V30 1777 S 165.226 -3.16467 -3.03964 0
M  V30 1778 H 162.044 -0.582669 -0.407453 0
M  V30 1779 H 164.646 -1.89166 -0.493609 0
M  V30 1780 H 163.35 -3.74523 -1.67812 0
M  V30 1781 H 162.881 -2.6045 -2.94838 0
M  V30 1782 H 164.896 -2.62543 -4.21053 0
M  V30 1783 N 164.069 0.697108 -1.41344 0
M  V30 1784 C 165.017 1.83237 -1.43272 0
M  V30 1785 C 166.011 1.66522 -0.310947 0
M  V30 1786 O 167.217 1.73402 -0.482899 0
M  V30 1787 H 163.592 0.603802 -0.448249 0
M  V30 1788 H 165.563 1.78727 -2.38954 0
M  V30 1789 C 164.312 3.21245 -1.33029 0
M  V30 1790 H 163.635 3.34723 -2.18633 0
M  V30 1791 H 165.075 4.00763 -1.38439 0
M  V30 1792 C 163.534 3.36873 -0.0424635 0
M  V30 1793 O 164.064 3.91177 0.913421 0
M  V30 1794 N 162.27 2.90581 0.0331145 0
M  V30 1795 H 161.817 2.46577 -0.745506 0
M  V30 1796 H 161.775 3.01416 0.894199 0
M  V30 1797 N 165.547 1.27147 0.931209 0
M  V30 1798 C 166.796 1.12664 1.67302 0
M  V30 1799 C 167.109 -0.327718 1.92835 0
M  V30 1800 O 168.315 -0.593392 2.64936 0
M  V30 1801 C 166.771 1.9683 3.01307 0
M  V30 1802 C 166.379 3.46901 2.83485 0
M  V30 1803 C 168.123 1.90985 3.79111 0
M  V30 1804 C 166.03 4.23279 4.13024 0
M  V30 1805 H 164.96 0.41803 0.627509 0
M  V30 1806 H 167.611 1.51539 1.03481 0
M  V30 1807 H 165.993 1.50797 3.66164 0
M  V30 1808 H 167.167 4.00773 2.27415 0
M  V30 1809 H 165.482 3.54088 2.19113 0
M  V30 1810 H 168.079 2.45328 4.75098 0
M  V30 1811 H 168.422 0.882718 4.06834 0
M  V30 1812 H 168.955 2.34895 3.21044 0
M  V30 1813 H 165.694 5.26503 3.90481 0
M  V30 1814 H 165.214 3.74186 4.6877 0
M  V30 1815 H 166.893 4.32265 4.81411 0
M  V30 1816 N 167.025 -1.13721 1.09112 0
M  V30 1817 C 167.955 -2.21148 0.749385 0
M  V30 1818 C 168.936 -1.6792 -0.271475 0
M  V30 1819 O 170.121 -1.93693 -0.140251 0
M  V30 1820 C 167.251 -3.46905 0.165659 0
M  V30 1821 C 166.205 -4.13203 1.11567 0
M  V30 1822 C 165.531 -5.33248 0.393809 0
M  V30 1823 C 166.831 -4.60912 2.45678 0
M  V30 1824 H 168.525 -2.4999 1.64758 0
M  V30 1825 H 166.071 -1.20156 0.793626 0
M  V30 1826 H 168.024 -4.21313 -0.085466 0
M  V30 1827 H 166.748 -3.17449 -0.767714 0
M  V30 1828 H 165.407 -3.40758 1.35202 0
M  V30 1829 H 165.055 -5.00054 -0.543599 0
M  V30 1830 H 164.755 -5.78552 1.02721 0
M  V30 1831 H 166.279 -6.10413 0.150908 0
M  V30 1832 H 167.693 -5.26759 2.26269 0
M  V30 1833 H 166.09 -5.16944 3.04776 0
M  V30 1834 H 167.16 -3.75603 3.06677 0
M  V30 1835 N 168.503 -0.877838 -1.30888 0
M  V30 1836 C 169.914 -0.544193 -1.78593 0
M  V30 1837 C 170.265 0.939301 -1.72254 0
M  V30 1838 O 169.39 1.7337 -1.29505 0
M  V30 1839 C 169.985 -0.98105 -3.24285 0
M  V30 1840 C 168.544 -0.698935 -3.69854 0
M  V30 1841 C 167.691 -1.168 -2.51502 0
M  V30 1842 H 170.642 -1.06278 -1.17859 0
M  V30 1843 H 170.663 -0.307009 -3.79259 0
M  V30 1844 H 170.175 -2.06079 -3.28866 0
M  V30 1845 H 168.276 0.369112 -3.70767 0
M  V30 1846 H 168.389 -1.28148 -4.61644 0
M  V30 1847 H 166.753 -0.587535 -2.47831 0
M  V30 1848 H 167.536 -2.25533 -2.58824 0
M  V30 1849 N 169.982 1.44106 -0.638065 0
M  V30 1850 C 171.231 2.01194 -0.142744 0
M  V30 1851 C 171.544 1.50835 1.24532 0
M  V30 1852 O 172.75 2.00096 1.83504 0
M  V30 1853 C 171.206 3.59319 -0.20442 0
M  V30 1854 C 170.814 4.18674 -1.59423 0
M  V30 1855 C 172.558 4.23854 0.234079 0
M  V30 1856 C 170.465 5.69045 -1.61065 0
M  V30 1857 H 169.395 0.752367 -0.0495998 0
M  V30 1858 H 172.046 1.65246 -0.797881 0
M  V30 1859 H 170.428 3.92598 0.517946 0
M  V30 1860 H 171.602 3.96921 -2.34074 0
M  V30 1861 H 169.917 3.66453 -1.97741 0
M  V30 1862 H 172.514 5.34155 0.241443 0
M  V30 1863 H 172.857 3.96688 1.2627 0
M  V30 1864 H 173.39 3.95403 -0.436025 0
M  V30 1865 H 170.129 6.00956 -2.61787 0
M  V30 1866 H 169.649 5.929 -0.90718 0
M  V30 1867 H 171.328 6.32809 -1.34766 0
M  V30 1868 N 171.46 0.379036 1.52974 0
M  V30 1869 C 172.69 -0.20649 2.05566 0
M  V30 1870 C 173.098 -1.41906 1.25137 0
M  V30 1871 O 172.441 -1.81421 0.288464 0
M  V30 1872 C 172.503 -0.651086 3.53555 0
M  V30 1873 C 172.167 0.446626 4.54812 0
M  V30 1874 C 173.164 1.30079 5.03364 0
M  V30 1875 C 170.849 0.610719 4.98573 0
M  V30 1876 C 172.843 2.30426 5.94292 0
M  V30 1877 C 170.53 1.61754 5.89304 0
M  V30 1878 C 171.528 2.46274 6.37054 0
M  V30 1879 O 171.216 3.45237 7.25994 0
M  V30 1880 H 170.948 -0.0372381 0.674974 0
M  V30 1881 H 173.502 0.539718 1.98182 0
M  V30 1882 H 171.732 -1.44911 3.58522 0
M  V30 1883 H 173.421 -1.16112 3.88938 0
M  V30 1884 H 174.187 1.18527 4.70294 0
M  V30 1885 H 170.066 -0.0374044 4.60985 0
M  V30 1886 H 173.61 2.96432 6.31485 0
M  V30 1887 H 169.507 1.73348 6.21788 0
M  V30 1888 H 170.275 3.41124 7.44027 0
M  V30 1889 N 172.938 -1.57226 0.108567 0
M  V30 1890 C 173.868 -2.17778 -0.84232 0
M  V30 1891 C 174.849 -1.11487 -1.2847 0
M  V30 1892 O 176.034 -1.39681 -1.34918 0
M  V30 1893 C 173.164 -2.76888 -2.09644 0
M  V30 1894 C 172.118 -3.88669 -1.79221 0
M  V30 1895 C 171.444 -4.34541 -3.11574 0
M  V30 1896 C 172.744 -5.11251 -1.06864 0
M  V30 1897 H 174.438 -2.97489 -0.337774 0
M  V30 1898 H 171.984 -1.43097 -0.161025 0
M  V30 1899 H 173.937 -3.17904 -2.76614 0
M  V30 1900 H 172.661 -1.94451 -2.62405 0
M  V30 1901 H 171.32 -3.48213 -1.14644 0
M  V30 1902 H 170.968 -3.48977 -3.62249 0
M  V30 1903 H 170.668 -5.09914 -2.91996 0
M  V30 1904 H 172.192 -4.782 -3.7968 0
M  V30 1905 H 173.606 -5.49352 -1.63968 0
M  V30 1906 H 172.003 -5.9214 -0.974178 0
M  V30 1907 H 173.073 -4.8487 -0.0536168 0
M  V30 1908 N 174.416 0.165178 -1.56732 0
M  V30 1909 C 175.693 0.908443 -1.73224 0
M  V30 1910 C 176.073 2.0013 -0.67165 0
M  V30 1911 O 175.421 2.26353 0.31253 0
M  V30 1912 C 175.631 1.46756 -3.16644 0
M  V30 1913 C 176.979 1.93809 -3.77787 0
M  V30 1914 O 178.003 1.56537 -3.1996 0
M  V30 1915 O 176.862 2.62486 -4.79336 0
M  V30 1916 H 173.956 0.428025 -0.707618 0
M  V30 1917 H 176.502 0.152526 -1.69013 0
M  V30 1918 H 175.274 0.68129 -3.85323 0
M  V30 1919 H 174.897 2.28749 -3.25207 0
M  V30 1920 N 175.894 1.51508 0.433938 0
M  V30 1921 C 177.141 1.64345 1.18309 0
M  V30 1922 C 177.469 0.361315 1.91115 0
M  V30 1923 O 176.724 -0.654753 1.84422 0
M  V30 1924 C 177.023 2.79928 2.22205 0
M  V30 1925 C 176.689 4.19078 1.66387 0
M  V30 1926 C 175.351 4.56932 1.50887 0
M  V30 1927 C 177.703 5.05894 1.25381 0
M  V30 1928 C 175.031 5.79305 0.928608 0
M  V30 1929 C 177.383 6.2885 0.687823 0
M  V30 1930 C 176.047 6.65473 0.519755 0
M  V30 1931 H 175.317 0.601381 0.432923 0
M  V30 1932 H 177.964 1.85549 0.473676 0
M  V30 1933 H 176.269 2.52959 2.99197 0
M  V30 1934 H 177.966 2.87059 2.79997 0
M  V30 1935 H 174.556 3.89234 1.79428 0
M  V30 1936 H 178.74 4.77253 1.36175 0
M  V30 1937 H 173.996 6.06324 0.786186 0
M  V30 1938 H 178.17 6.95461 0.361581 0
M  V30 1939 H 175.797 7.6017 0.0679979 0
M  V30 1940 N 177.372 -0.689602 1.41712 0
M  V30 1941 C 178.621 -1.44534 1.40686 0
M  V30 1942 C 178.934 -1.95588 0.0213352 0
M  V30 1943 O 180.14 -2.71271 -0.111534 0
M  V30 1944 C 178.596 -2.61387 2.47396 0
M  V30 1945 C 178.204 -2.17094 3.91885 0
M  V30 1946 C 179.948 -3.38986 2.55517 0
M  V30 1947 C 177.855 -3.3094 4.90135 0
M  V30 1948 H 176.785 -0.542925 0.52321 0
M  V30 1949 H 179.436 -0.748054 1.6756 0
M  V30 1950 H 177.818 -3.33412 2.13664 0
M  V30 1951 H 178.992 -1.52318 4.34897 0
M  V30 1952 H 177.307 -1.52473 3.8748 0
M  V30 1953 H 179.904 -4.23747 3.26102 0
M  V30 1954 H 180.247 -3.84578 1.59391 0
M  V30 1955 H 180.78 -2.74021 2.8837 0
M  V30 1956 H 177.519 -2.90355 5.87685 0
M  V30 1957 H 177.039 -3.94546 4.51767 0
M  V30 1958 H 178.718 -3.9663 5.11169 0
M  V30 1959 N 178.85 -1.27639 -0.924453 0
M  V30 1960 C 179.78 -1.13166 -2.04244 0
M  V30 1961 C 180.761 -0.032256 -1.70069 0
M  V30 1962 O 181.946 -0.207328 -1.9309 0
M  V30 1963 C 179.076 -0.781496 -3.38393 0
M  V30 1964 C 178.03 -1.83449 -3.86692 0
M  V30 1965 C 177.356 -1.33822 -5.17683 0
M  V30 1966 C 178.656 -3.23917 -4.09726 0
M  V30 1967 H 180.35 -2.06689 -2.1661 0
M  V30 1968 H 177.896 -0.995136 -1.04082 0
M  V30 1969 H 179.849 -0.667057 -4.16087 0
M  V30 1970 H 178.573 0.189439 -3.2605 0
M  V30 1971 H 177.232 -1.93789 -3.11193 0
M  V30 1972 H 176.88 -0.35665 -5.01734 0
M  V30 1973 H 176.58 -2.04224 -5.50968 0
M  V30 1974 H 178.104 -1.23679 -5.97943 0
M  V30 1975 H 179.518 -3.16559 -4.77978 0
M  V30 1976 H 177.915 -3.92059 -4.54324 0
M  V30 1977 H 178.985 -3.68729 -3.14908 0
M  V30 1978 N 180.328 1.1314 -1.09713 0
M  V30 1979 C 181.276 2.20717 -0.733934 0
M  V30 1980 C 182.27 1.6729 0.266506 0
M  V30 1981 O 183.476 1.79547 0.127656 0
M  V30 1982 H 179.851 0.719292 -0.21937 0
M  V30 1983 H 181.822 2.48611 -1.6503 0
M  V30 1984 C 180.571 3.47265 -0.173849 0
M  V30 1985 H 179.894 3.88716 -0.934873 0
M  V30 1986 H 181.334 4.23979 0.0423126 0
M  V30 1987 C 179.793 3.18724 1.09164 0
M  V30 1988 O 180.323 3.37762 2.17439 0
M  V30 1989 N 178.529 2.72583 1.00732 0
M  V30 1990 H 178.076 2.57291 0.126121 0
M  V30 1991 H 178.034 2.53862 1.85476 0
M  V30 1992 N 181.806 0.884767 1.30421 0
M  V30 1993 C 183.217 0.553656 1.78302 0
M  V30 1994 C 183.568 -0.930153 1.7275 0
M  V30 1995 O 182.693 -1.72681 1.30423 0
M  V30 1996 C 183.288 0.998234 3.2376 0
M  V30 1997 C 181.847 0.71854 3.69478 0
M  V30 1998 C 180.994 1.18132 2.50879 0
M  V30 1999 H 183.945 1.06901 1.17294 0
M  V30 2000 H 183.966 0.327118 3.79091 0
M  V30 2001 H 183.478 2.0782 3.27769 0
M  V30 2002 H 181.579 -0.349444 3.70958 0
M  V30 2003 H 181.692 1.30595 4.60958 0
M  V30 2004 H 180.056 0.600669 2.47516 0
M  V30 2005 H 180.839 2.26902 2.57624 0
M  V30 2006 N 183.284 -1.43765 0.645699 0
M  V30 2007 C 184.512 -2.06253 0.163556 0
M  V30 2008 C 184.927 -1.48352 -1.16778 0
M  V30 2009 O 184.284 -0.611932 -1.71935 0
M  V30 2010 C 184.335 -3.61453 0.0583186 0
M  V30 2011 O 184.056 -4.172 1.33702 0
M  V30 2012 C 185.557 -4.41002 -0.450795 0
M  V30 2013 H 182.777 -0.665413 0.0864077 0
M  V30 2014 H 185.321 -1.84396 0.884222 0
M  V30 2015 H 183.476 -3.82522 -0.612865 0
M  V30 2016 H 183.89 -5.10791 1.19131 0
M  V30 2017 H 185.364 -5.49966 -0.473403 0
M  V30 2018 H 185.841 -4.13488 -1.48068 0
M  V30 2019 H 186.447 -4.24886 0.187637 0
M  V30 2020 N 184.763 -0.387143 -1.52771 0
M  V30 2021 C 185.693 0.440551 -2.29306 0
M  V30 2022 C 186.674 1.06535 -1.32606 0
M  V30 2023 O 187.859 1.07853 -1.61497 0
M  V30 2024 C 184.989 1.56919 -3.09829 0
M  V30 2025 C 183.943 1.07054 -4.14395 0
M  V30 2026 C 183.269 2.29109 -4.83129 0
M  V30 2027 C 184.569 0.140015 -5.22112 0
M  V30 2028 H 186.263 -0.198026 -2.98744 0
M  V30 2029 H 183.809 -0.09668 -1.43675 0
M  V30 2030 H 185.762 2.15503 -3.62128 0
M  V30 2031 H 184.486 2.23532 -2.3812 0
M  V30 2032 H 183.145 0.507247 -3.63074 0
M  V30 2033 H 182.793 2.94227 -4.0797 0
M  V30 2034 H 182.493 1.96406 -5.53804 0
M  V30 2035 H 184.017 2.88339 -5.38231 0
M  V30 2036 H 185.431 0.633978 -5.69784 0
M  V30 2037 H 183.828 -0.0971485 -6.00021 0
M  V30 2038 H 184.898 -0.811711 -4.78058 0
M  V30 2039 N 186.241 1.57166 -0.116904 0
M  V30 2040 C 187.151 2.18745 0.847812 0
M  V30 2041 C 188.167 1.163 1.29423 0
M  V30 2042 O 189.343 1.48761 1.35765 0
M  V30 2043 C 186.408 2.77307 2.0809 0
M  V30 2044 C 185.469 3.94781 1.68661 0
M  V30 2045 C 184.702 4.50541 2.86091 0
M  V30 2046 O 184.925 4.05202 4.01456 0
M  V30 2047 O 183.859 5.41256 2.63298 0
M  V30 2048 H 187.685 3.01632 0.353778 0
M  V30 2049 H 185.27 1.49005 0.108599 0
M  V30 2050 H 187.152 3.14647 2.80313 0
M  V30 2051 H 185.827 1.97452 2.56504 0
M  V30 2052 H 184.734 3.62214 0.935518 0
M  V30 2053 H 186.067 4.76065 1.24991 0
M  V30 2054 N 187.719 -0.156864 1.56817 0
M  V30 2055 C 188.667 -1.21319 1.98455 0
M  V30 2056 C 189.661 -1.45025 0.875444 0
M  V30 2057 O 190.867 -1.45435 1.0606 0
M  V30 2058 H 187.242 -0.408142 0.631605 0
M  V30 2059 H 189.213 -0.835244 2.86472 0
M  V30 2060 C 187.962 -2.54148 2.37285 0
M  V30 2061 H 187.285 -2.36733 3.22176 0
M  V30 2062 H 188.725 -3.26712 2.70251 0
M  V30 2063 C 187.184 -3.13967 1.22173 0
M  V30 2064 O 187.714 -3.98357 0.517149 0
M  V30 2065 N 185.92 -2.7327 0.988536 0
M  V30 2066 H 185.467 -2.04744 1.56326 0
M  V30 2067 H 185.425 -3.13628 0.220209 0
M  V30 2068 N 189.197 -1.51736 -0.425897 0
M  V30 2069 C 190.145 -1.74464 -1.53834 0
M  V30 2070 C 191.139 -0.611241 -1.57988 0
M  V30 2071 O 192.345 -0.792899 -1.61596 0
M  V30 2072 H 188.72 -0.551437 -0.511293 0
M  V30 2073 H 190.691 -2.67694 -1.31843 0
M  V30 2074 C 189.44 -1.8972 -2.91379 0
M  V30 2075 H 188.763 -2.76344 -2.88919 0
M  V30 2076 H 190.203 -2.09629 -3.68553 0
M  V30 2077 C 188.662 -0.65992 -3.30374 0
M  V30 2078 O 189.192 0.180083 -4.01296 0
M  V30 2079 N 187.398 -0.500677 -2.86254 0
M  V30 2080 H 186.945 -1.18532 -2.28709 0
M  V30 2081 H 186.903 0.325903 -3.12706 0
M  V30 2082 N 190.675 0.682077 -1.42076 0
M  V30 2083 C 191.608 1.80666 -1.3941 0
M  V30 2084 C 192.586 1.60518 -0.25939 0
M  V30 2085 O 193.77 1.83088 -0.448456 0
M  V30 2086 C 190.897 3.17556 -1.17796 0
M  V30 2087 C 189.943 3.56468 -2.34164 0
M  V30 2088 S 190.776 3.59729 -3.96681 0
M  V30 2089 C 191.932 4.99323 -3.77395 0
M  V30 2090 H 192.165 1.82652 -2.34575 0
M  V30 2091 H 189.698 0.852062 -1.2876 0
M  V30 2092 H 191.656 3.96575 -1.06012 0
M  V30 2093 H 190.317 3.13164 -0.242279 0
M  V30 2094 H 189.51 4.5595 -2.1477 0
M  V30 2095 H 189.112 2.84792 -2.42425 0
M  V30 2096 H 191.404 5.87202 -3.37935 0
M  V30 2097 H 192.347 5.23763 -4.76527 0
M  V30 2098 H 192.755 4.71498 -3.10403 0
M  V30 2099 N 192.153 1.28127 0.917671 0
M  V30 2100 C 193.4 1.15052 1.66641 0
M  V30 2101 C 193.728 -0.301677 1.92146 0
M  V30 2102 O 192.983 -1.23622 1.51711 0
M  V30 2103 C 193.282 1.89018 3.03327 0
M  V30 2104 C 192.948 3.38832 2.97496 0
M  V30 2105 C 191.61 3.79693 2.95613 0
M  V30 2106 C 193.962 4.34378 2.88036 0
M  V30 2107 C 191.29 5.14447 2.82066 0
M  V30 2108 C 193.642 5.69201 2.7603 0
M  V30 2109 C 192.306 6.09343 2.72502 0
M  V30 2110 H 191.576 0.421006 0.609783 0
M  V30 2111 H 194.223 1.58855 1.06945 0
M  V30 2112 H 192.528 1.37752 3.66785 0
M  V30 2113 H 194.225 1.76321 3.60156 0
M  V30 2114 H 190.815 3.06342 2.99754 0
M  V30 2115 H 194.999 4.03775 2.88581 0
M  V30 2116 H 190.255 5.44681 2.77728 0
M  V30 2117 H 194.429 6.42901 2.67678 0
M  V30 2118 H 192.056 7.13712 2.61762 0
M  V30 2119 N 193.631 -1.12557 1.10312 0
M  V30 2120 C 194.561 -2.20341 0.772798 0
M  V30 2121 C 195.542 -1.68198 -0.25365 0
M  V30 2122 O 196.727 -1.93831 -0.119699 0
M  V30 2123 C 193.857 -3.46709 0.202443 0
M  V30 2124 C 192.811 -4.11996 1.15943 0
M  V30 2125 C 192.137 -5.328 0.450345 0
M  V30 2126 C 193.437 -4.5828 2.50552 0
M  V30 2127 H 195.131 -2.48229 1.674 0
M  V30 2128 H 192.677 -1.19308 0.806326 0
M  V30 2129 H 194.63 -4.2138 -0.0407752 0
M  V30 2130 H 193.354 -3.18245 -0.734001 0
M  V30 2131 H 192.013 -3.39305 1.38808 0
M  V30 2132 H 191.661 -5.00602 -0.490531 0
M  V30 2133 H 191.361 -5.7743 1.08851 0
M  V30 2134 H 192.885 -6.10219 0.215642 0
M  V30 2135 H 194.299 -5.2433 2.31843 0
M  V30 2136 H 192.696 -5.13683 3.10242 0
M  V30 2137 H 193.766 -3.72329 3.10643 0
M  V30 2138 N 195.109 -0.891671 -1.2995 0
M  V30 2139 C 196.334 -0.527932 -2.00568 0
M  V30 2140 C 196.759 0.877969 -1.66353 0
M  V30 2141 O 196.117 1.58301 -0.883762 0
M  V30 2142 C 196.165 -0.717745 -3.53385 0
M  V30 2143 O 195.269 0.233376 -4.11739 0
M  V30 2144 H 194.61 -0.20722 -0.630837 0
M  V30 2145 H 197.14 -1.20105 -1.65638 0
M  V30 2146 H 197.15 -0.619307 -4.03272 0
M  V30 2147 H 195.825 -1.74276 -3.77625 0
M  V30 2148 H 194.402 0.0880706 -3.72796 0
M  V30 2149 N 196.587 1.43421 -0.653314 0
M  V30 2150 C 197.497 2.34568 0.0388565 0
M  V30 2151 C 198.513 1.53888 0.81207 0
M  V30 2152 O 199.689 1.86539 0.759294 0
M  V30 2153 C 196.754 3.32167 0.993269 0
M  V30 2154 C 195.815 4.28751 0.216977 0
M  V30 2155 C 195.048 5.21688 1.12593 0
M  V30 2156 O 195.271 5.19052 2.36519 0
M  V30 2157 O 194.205 5.98919 0.598284 0
M  V30 2158 H 198.031 2.95251 -0.711386 0
M  V30 2159 H 195.616 1.43564 -0.413502 0
M  V30 2160 H 197.498 3.92183 1.54176 0
M  V30 2161 H 196.173 2.73987 1.72374 0
M  V30 2162 H 195.08 3.72215 -0.375101 0
M  V30 2163 H 196.413 4.89913 -0.473924 0
M  V30 2164 N 198.065 0.39524 1.52563 0
M  V30 2165 C 199.311 -0.185318 2.01952 0
M  V30 2166 C 199.644 -1.45964 1.28095 0
M  V30 2167 O 198.919 -1.90689 0.38315 0
M  V30 2168 C 199.202 -0.447193 3.57312 0
M  V30 2169 C 199.055 0.842828 4.41833 0
M  V30 2170 C 200.374 -1.23529 4.22408 0
M  V30 2171 H 197.493 -0.0658788 0.73405 0
M  V30 2172 H 200.135 0.525975 1.82575 0
M  V30 2173 H 198.285 -1.05312 3.73954 0
M  V30 2174 H 199.957 1.4795 4.36931 0
M  V30 2175 H 198.2 1.45686 4.08605 0
M  V30 2176 H 198.871 0.614165 5.48573 0
M  V30 2177 H 201.347 -0.722445 4.0978 0
M  V30 2178 H 200.223 -1.38727 5.3108 0
M  V30 2179 H 200.484 -2.25213 3.80436 0
M  V30 2180 N 199.544 -1.57102 0.125237 0
M  V30 2181 C 200.494 -2.12202 -0.833936 0
M  V30 2182 C 201.478 -1.04433 -1.22403 0
M  V30 2183 O 202.67 -1.30655 -1.19408 0
M  V30 2184 C 199.799 -2.72994 -2.08157 0
M  V30 2185 C 198.885 -3.87852 -1.71556 0
M  V30 2186 N 199.276 -4.9464 -1.05662 0
M  V30 2187 C 197.574 -3.98153 -2.00973 0
M  V30 2188 C 198.275 -5.74953 -0.883376 0
M  V30 2189 N 197.251 -5.24985 -1.41036 0
M  V30 2190 H 201.053 -2.92141 -0.321035 0
M  V30 2191 H 198.567 -1.62217 -0.0770315 0
M  V30 2192 H 200.564 -3.10816 -2.77847 0
M  V30 2193 H 199.224 -1.9452 -2.59985 0
M  V30 2194 H 200.235 -5.12872 -0.719878 0
M  V30 2195 H 196.912 -3.30728 -2.54804 0
M  V30 2196 H 198.302 -6.70904 -0.365675 0
M  V30 2197 N 201.022 0.148545 -1.56898 0
M  V30 2198 C 201.972 1.1886 -1.94567 0
M  V30 2199 C 202.956 1.3863 -0.816735 0
M  V30 2200 O 204.148 1.40218 -1.08018 0
M  V30 2201 C 201.277 2.52262 -2.32849 0
M  V30 2202 C 200.363 2.36092 -3.52309 0
M  V30 2203 N 200.754 1.89674 -4.6889 0
M  V30 2204 C 199.052 2.66848 -3.57363 0
M  V30 2205 C 199.753 1.86511 -5.50989 0
M  V30 2206 N 198.729 2.29766 -4.92655 0
M  V30 2207 H 202.531 0.821793 -2.82177 0
M  V30 2208 H 200.045 0.356615 -1.58436 0
M  V30 2209 H 202.042 3.27447 -2.58039 0
M  V30 2210 H 200.702 2.89727 -1.46589 0
M  V30 2211 H 201.713 1.59663 -4.92674 0
M  V30 2212 H 198.39 3.08198 -2.81639 0
M  V30 2213 H 199.78 1.52128 -6.54452 0
M  V30 2214 N 202.5 1.5196 0.417844 0
M  V30 2215 C 203.749 1.6482 1.16264 0
M  V30 2216 C 204.062 0.379886 1.91876 0
M  V30 2217 O 205.268 0.388154 2.68711 0
M  V30 2218 C 203.724 2.91161 2.1155 0
M  V30 2219 C 203.332 4.25068 1.41495 0
M  V30 2220 C 205.076 3.13383 2.86341 0
M  V30 2221 C 202.983 5.42541 2.35379 0
M  V30 2222 H 201.913 0.613954 0.437694 0
M  V30 2223 H 204.564 1.78442 0.427871 0
M  V30 2224 H 202.946 2.71218 2.88543 0
M  V30 2225 H 204.12 4.55463 0.699263 0
M  V30 2226 H 202.435 4.0888 0.787792 0
M  V30 2227 H 205.032 3.98324 3.5671 0
M  V30 2228 H 205.375 2.27256 3.48798 0
M  V30 2229 H 205.908 3.33757 2.1645 0
M  V30 2230 H 202.647 6.30987 1.77582 0
M  V30 2231 H 202.167 5.16497 3.04945 0
M  V30 2232 H 203.846 5.75272 2.96093 0
M  V30 2233 N 203.978 -0.674533 1.42435 0
M  V30 2234 C 205.225 -1.43459 1.42919 0
M  V30 2235 C 205.553 -1.94446 0.0457312 0
M  V30 2236 O 204.808 -1.7132 -0.94593 0
M  V30 2237 C 205.107 -2.64767 2.40069 0
M  V30 2238 C 204.773 -2.3232 3.86443 0
M  V30 2239 C 203.435 -2.23182 4.26314 0
M  V30 2240 C 205.787 -2.05977 4.78773 0
M  V30 2241 C 203.115 -1.85827 5.56494 0
M  V30 2242 C 205.467 -1.70125 6.09295 0
M  V30 2243 C 204.131 -1.59498 6.48164 0
M  V30 2244 H 203.401 -0.524952 0.522978 0
M  V30 2245 H 206.048 -0.769097 1.75377 0
M  V30 2246 H 204.353 -3.36349 2.00939 0
M  V30 2247 H 206.05 -3.22949 2.37707 0
M  V30 2248 H 202.64 -2.40334 3.54877 0
M  V30 2249 H 206.824 -2.11969 4.48757 0
M  V30 2250 H 202.08 -1.76168 5.8547 0
M  V30 2251 H 206.254 -1.48767 6.80324 0
M  V30 2252 H 203.881 -1.30322 7.48946 0
M  V30 2253 N 205.456 -1.28612 -0.910864 0
M  V30 2254 C 206.366 -1.14643 -2.0468 0
M  V30 2255 C 207.382 -0.0723121 -1.7385 0
M  V30 2256 O 208.558 -0.282178 -1.99413 0
M  V30 2257 C 205.623 -0.812561 -3.37044 0
M  V30 2258 C 204.684 -1.96935 -3.81465 0
M  V30 2259 C 203.917 -1.65131 -5.07511 0
M  V30 2260 O 204.14 -0.567013 -5.67575 0
M  V30 2261 O 203.074 -2.49585 -5.47714 0
M  V30 2262 H 206.9 -2.1001 -2.19384 0
M  V30 2263 H 204.485 -1.07958 -1.03274 0
M  V30 2264 H 206.367 -0.640441 -4.16505 0
M  V30 2265 H 205.042 0.111426 -3.23508 0
M  V30 2266 H 203.949 -2.19664 -3.02818 0
M  V30 2267 H 205.282 -2.87414 -3.99567 0
M  V30 2268 N 206.934 1.1197 -1.10907 0
M  V30 2269 C 207.882 2.19927 -0.757303 0
M  V30 2270 C 208.876 1.67564 0.248747 0
M  V30 2271 O 210.082 1.79672 0.108605 0
M  V30 2272 H 206.457 0.716925 -0.226987 0
M  V30 2273 H 208.428 2.46847 -1.67658 0
M  V30 2274 C 207.177 3.47061 -0.210671 0
M  V30 2275 H 206.5 3.87703 -0.976049 0
M  V30 2276 H 207.94 4.24 -0.0026584 0
M  V30 2277 C 206.399 3.19864 1.05777 0
M  V30 2278 O 206.929 3.40049 2.13845 0
M  V30 2279 N 205.135 2.73636 0.978349 0
M  V30 2280 H 204.682 2.5741 0.0988246 0
M  V30 2281 H 204.64 2.55815 1.82773 0
M  V30 2282 N 208.412 0.89855 1.29475 0
M  V30 2283 C 209.66 0.522847 1.9522 0
M  V30 2284 C 209.981 -0.93371 1.71192 0
M  V30 2285 O 209.251 -1.65823 1.04305 0
M  V30 2286 H 207.831 0.190366 0.722336 0
M  V30 2287 H 210.493 1.14459 1.5775 0
M  V30 2288 H 209.589 0.704476 3.04045 0
M  V30 2289 N 209.89 -1.43072 0.660911 0
M  V30 2290 C 211.118 -2.06067 0.185422 0
M  V30 2291 C 211.533 -1.49582 -1.15198 0
M  V30 2292 O 210.89 -0.630134 -1.71276 0
M  V30 2293 C 210.941 -3.61371 0.0966523 0
M  V30 2294 O 210.662 -4.15758 1.38119 0
M  V30 2295 C 212.163 -4.41455 -0.403996 0
M  V30 2296 H 209.383 -0.664459 0.0934604 0
M  V30 2297 H 211.927 -1.83447 0.90373 0
M  V30 2298 H 210.082 -3.8315 -0.572259 0
M  V30 2299 H 210.496 -5.09499 1.24542 0
M  V30 2300 H 211.97 -5.50437 -0.415045 0
M  V30 2301 H 212.447 -4.15036 -1.43674 0
M  V30 2302 H 213.053 -4.24663 0.232691 0
M  V30 2303 N 211.368 -0.403325 -1.52352 0
M  V30 2304 C 212.318 0.442244 -2.2367 0
M  V30 2305 C 213.302 1.01823 -1.24583 0
M  V30 2306 O 214.494 0.942005 -1.49851 0
M  V30 2307 C 211.623 1.5615 -3.05732 0
M  V30 2308 C 210.709 0.996575 -4.12225 0
M  V30 2309 N 211.1 0.157804 -5.05554 0
M  V30 2310 C 209.398 1.26767 -4.27605 0
M  V30 2311 C 210.099 -0.155853 -5.81491 0
M  V30 2312 N 209.075 0.451775 -5.41719 0
M  V30 2313 H 212.877 -0.204964 -2.93184 0
M  V30 2314 H 210.391 -0.213418 -1.60992 0
M  V30 2315 H 212.388 2.17981 -3.55373 0
M  V30 2316 H 211.048 2.21139 -2.37755 0
M  V30 2317 H 212.059 -0.206049 -5.1749 0
M  V30 2318 H 208.736 1.91757 -3.70858 0
M  V30 2319 H 210.126 -0.836329 -6.66675 0
M  V30 2320 N 212.846 1.57033 -0.133567 0
M  V30 2321 C 213.794 2.17348 0.828412 0
M  V30 2322 C 214.788 1.12671 1.26498 0
M  V30 2323 O 215.994 1.30947 1.23502 0
M  V30 2324 H 212.369 0.695775 0.285309 0
M  V30 2325 H 214.34 2.96935 0.295372 0
M  V30 2326 C 213.089 2.79893 2.06289 0
M  V30 2327 H 212.412 3.60147 1.73592 0
M  V30 2328 H 213.852 3.25615 2.71572 0
M  V30 2329 C 212.311 1.77713 2.86216 0
M  V30 2330 O 212.841 1.23937 3.82103 0
M  V30 2331 N 211.047 1.47321 2.50489 0
M  V30 2332 H 210.594 1.91243 1.7258 0
M  V30 2333 H 210.552 0.79199 3.04261 0
M  V30 2334 N 214.325 -0.140222 1.56975 0
M  V30 2335 C 215.573 -0.850005 1.83356 0
M  V30 2336 C 215.894 -1.81399 0.71551 0
M  V30 2337 O 215.164 -1.94136 -0.262294 0
M  V30 2338 H 213.744 -0.316886 0.676456 0
M  V30 2339 H 216.406 -0.132608 1.94448 0
M  V30 2340 H 215.502 -1.40814 2.78528 0
M  V30 2341 N 215.803 -1.52179 -0.40978 0
M  V30 2342 C 217.049 -1.66453 -1.15851 0
M  V30 2343 C 217.382 -0.392972 -1.90182 0
M  V30 2344 O 216.657 0.608579 -1.84734 0
M  V30 2345 C 216.94 -2.88612 -2.15349 0
M  V30 2346 C 216.793 -4.25815 -1.44918 0
M  V30 2347 C 218.112 -3.06294 -3.16026 0
M  V30 2348 H 215.231 -0.60575 -0.419805 0
M  V30 2349 H 217.873 -1.84732 -0.444314 0
M  V30 2350 H 216.023 -2.73158 -2.76255 0
M  V30 2351 H 217.695 -4.52995 -0.871365 0
M  V30 2352 H 215.938 -4.27247 -0.751159 0
M  V30 2353 H 216.609 -5.07337 -2.17516 0
M  V30 2354 H 219.085 -3.20641 -2.65195 0
M  V30 2355 H 217.961 -3.93283 -3.8291 0
M  V30 2356 H 218.222 -2.19579 -3.83715 0
M  V30 2357 N 217.281 0.66697 -1.42791 0
M  V30 2358 C 218.527 1.4291 -1.43891 0
M  V30 2359 C 218.86 1.94114 -0.0578972 0
M  V30 2360 O 218.135 1.71414 0.91911 0
M  V30 2361 C 218.418 2.62049 -2.46987 0
M  V30 2362 C 218.271 2.16426 -3.94309 0
M  V30 2363 C 219.59 3.64266 -2.46978 0
M  V30 2364 H 216.709 0.518306 -0.523954 0
M  V30 2365 H 219.351 0.757321 -1.74255 0
M  V30 2366 H 217.501 3.19361 -2.21225 0
M  V30 2367 H 219.173 1.64221 -4.31079 0
M  V30 2368 H 217.416 1.47925 -4.078 0
M  V30 2369 H 218.087 3.02038 -4.62036 0
M  V30 2370 H 220.563 3.16686 -2.69906 0
M  V30 2371 H 219.439 4.45196 -3.21079 0
M  V30 2372 H 219.7 4.15927 -1.49857 0
M  V30 2373 N 218.759 1.29093 0.90403 0
M  V30 2374 C 219.989 1.19516 1.68522 0
M  V30 2375 C 220.397 -0.24738 1.87576 0
M  V30 2376 O 219.74 -1.17798 1.40959 0
M  V30 2377 C 219.802 1.83249 3.0929 0
M  V30 2378 C 219.466 3.32531 3.13484 0
M  V30 2379 C 220.463 4.28821 2.93953 0
M  V30 2380 C 218.148 3.73656 3.35688 0
M  V30 2381 C 220.142 5.64212 2.96553 0
M  V30 2382 C 217.829 5.0917 3.37919 0
M  V30 2383 C 218.827 6.04258 3.18373 0
M  V30 2384 O 218.515 7.37298 3.20385 0
M  V30 2385 H 218.247 0.415467 0.533257 0
M  V30 2386 H 220.801 1.70912 1.13922 0
M  V30 2387 H 219.031 1.26358 3.65473 0
M  V30 2388 H 220.72 1.68054 3.69476 0
M  V30 2389 H 221.486 3.98382 2.76616 0
M  V30 2390 H 217.365 3.00101 3.49943 0
M  V30 2391 H 220.909 6.38407 2.81216 0
M  V30 2392 H 216.806 5.39256 3.54787 0
M  V30 2393 H 217.574 7.46048 3.36681 0
M  V30 2394 N 220.237 -1.11381 1.11499 0
M  V30 2395 C 221.462 -1.87475 0.887019 0
M  V30 2396 C 221.887 -1.79639 -0.557796 0
M  V30 2397 O 221.245 -1.15924 -1.39396 0
M  V30 2398 C 221.293 -3.34213 1.35403 0
M  V30 2399 O 220.397 -4.0903 0.526146 0
M  V30 2400 H 219.738 -0.582099 0.319463 0
M  V30 2401 H 222.268 -1.40785 1.48461 0
M  V30 2402 H 222.278 -3.8506 1.34881 0
M  V30 2403 H 220.953 -3.39232 2.40612 0
M  V30 2404 H 219.53 -3.68082 0.597522 0
M  V30 2405 N 221.715 -0.905404 -1.28997 0
M  V30 2406 C 222.625 -0.392246 -2.31298 0
M  V30 2407 C 223.641 0.515889 -1.66176 0
M  V30 2408 O 224.817 0.404093 -1.97304 0
M  V30 2409 C 221.882 0.36686 -3.44754 0
M  V30 2410 C 220.943 -0.573485 -4.25452 0
M  V30 2411 C 220.176 0.149488 -5.33491 0
M  V30 2412 O 220.399 1.37255 -5.5364 0
M  V30 2413 O 219.333 -0.510919 -5.99728 0
M  V30 2414 H 223.159 -1.2411 -2.77183 0
M  V30 2415 H 220.744 -0.669926 -1.33538 0
M  V30 2416 H 222.626 0.795907 -4.13816 0
M  V30 2417 H 221.301 1.19169 -3.00966 0
M  V30 2418 H 220.208 -1.05176 -3.59011 0
M  V30 2419 H 221.541 -1.36489 -4.72897 0
M  V30 2420 N 223.193 1.4272 -0.668489 0
M  V30 2421 C 224.126 2.28111 0.0637898 0
M  V30 2422 C 225.104 1.40705 0.814912 0
M  V30 2423 O 226.288 1.70146 0.81134 0
M  V30 2424 C 223.415 3.20429 1.0974 0
M  V30 2425 C 222.461 4.24197 0.442579 0
M  V30 2426 S 223.294 5.29563 -0.795173 0
M  V30 2427 C 224.45 6.25449 0.237516 0
M  V30 2428 H 224.683 2.8987 -0.660521 0
M  V30 2429 H 222.216 1.47456 -0.457821 0
M  V30 2430 H 224.174 3.74158 1.68868 0
M  V30 2431 H 222.835 2.57818 1.79411 0
M  V30 2432 H 222.028 4.88954 1.22227 0
M  V30 2433 H 221.63 3.73925 -0.0749554 0
M  V30 2434 H 223.922 6.68524 1.09915 0
M  V30 2435 H 224.865 7.07104 -0.375421 0
M  V30 2436 H 225.273 5.61511 0.580167 0
M  V30 2437 N 224.671 0.411399 1.52136 0
M  V30 2438 C 225.618 -0.412975 2.27075 0
M  V30 2439 C 226.588 -1.03912 1.29582 0
M  V30 2440 O 227.773 -1.06296 1.58448 0
M  V30 2441 C 224.913 -1.52247 3.09701 0
M  V30 2442 C 224.026 -0.917021 4.22155 0
M  V30 2443 C 223.161 -1.9994 4.92135 0
M  V30 2444 C 222.2 -1.37101 5.96548 0
M  V30 2445 N 221.337 -2.39364 6.60038 0
M  V30 2446 H 226.177 0.232499 2.97092 0
M  V30 2447 H 223.714 0.126496 1.46555 0
M  V30 2448 H 225.672 -2.17674 3.55913 0
M  V30 2449 H 224.302 -2.13794 2.41851 0
M  V30 2450 H 223.354 -0.151742 3.80097 0
M  V30 2451 H 224.666 -0.418006 4.97045 0
M  V30 2452 H 223.82 -2.73088 5.41763 0
M  V30 2453 H 222.559 -2.53208 4.16818 0
M  V30 2454 H 221.564 -0.624873 5.46237 0
M  V30 2455 H 222.789 -0.845998 6.7381 0
M  V30 2456 H 220.735 -2.91759 5.87548 0
M  V30 2457 H 220.652 -1.9428 7.3061 0
M  V30 2458 H 221.92 -3.12074 7.14304 0
M  V30 2459 N 226.149 -1.5696 0.141893 0
M  V30 2460 C 227.374 -2.00754 -0.520838 0
M  V30 2461 C 227.799 -1.0213 -1.57959 0
M  V30 2462 O 227.157 0.00371324 -1.813 0
M  V30 2463 C 227.205 -3.43318 -1.10294 0
M  V30 2464 O 226.309 -3.47679 -2.21795 0
M  V30 2465 H 225.65 -0.651564 -0.127908 0
M  V30 2466 H 228.18 -2.03221 0.23712 0
M  V30 2467 H 228.19 -3.82012 -1.43287 0
M  V30 2468 H 226.865 -4.14608 -0.327574 0
M  V30 2469 H 225.442 -3.20824 -1.9007 0
M  V30 2470 N 227.627 0.131896 -1.57047 0
M  V30 2471 C 228.876 0.84044 -1.83356 0
M  V30 2472 C 229.189 1.81646 -0.725535 0
M  V30 2473 O 230.395 2.57025 -0.874659 0
M  V30 2474 C 228.851 1.54528 -3.25037 0
M  V30 2475 C 228.459 0.610902 -4.43815 0
M  V30 2476 C 230.203 2.23972 -3.60606 0
M  V30 2477 C 228.11 1.31823 -5.76521 0
M  V30 2478 H 227.04 0.317599 -0.683847 0
M  V30 2479 H 229.691 0.0931561 -1.83263 0
M  V30 2480 H 228.073 2.33873 -3.19561 0
M  V30 2481 H 229.247 -0.148407 -4.60561 0
M  V30 2482 H 227.562 0.0241016 -4.16393 0
M  V30 2483 H 230.159 2.77558 -4.57018 0
M  V30 2484 H 230.502 3.01173 -2.87403 0
M  V30 2485 H 231.035 1.51529 -3.6781 0
M  V30 2486 H 227.774 0.587771 -6.52859 0
M  V30 2487 H 227.294 2.04987 -5.63685 0
M  V30 2488 H 228.973 1.855 -6.19838 0
M  V30 2489 N 229.106 1.52395 0.401703 0
M  V30 2490 C 230.016 1.7917 1.51444 0
M  V30 2491 C 231.032 0.677691 1.6026 0
M  V30 2492 O 232.208 0.963909 1.76835 0
M  V30 2493 C 229.273 1.94347 2.87107 0
M  V30 2494 C 228.334 3.18257 2.88116 0
M  V30 2495 C 227.567 3.32701 4.17308 0
M  V30 2496 O 227.79 2.52238 5.11598 0
M  V30 2497 O 226.724 4.25891 4.25324 0
M  V30 2498 H 230.55 2.73633 1.31752 0
M  V30 2499 H 228.135 1.3733 0.588296 0
M  V30 2500 H 230.017 2.06109 3.67555 0
M  V30 2501 H 228.692 1.03073 3.06851 0
M  V30 2502 H 227.599 3.11947 2.06494 0
M  V30 2503 H 228.932 4.09336 2.73322 0
M  V30 2504 N 230.584 -0.659388 1.43143 0
M  V30 2505 C 231.532 -1.79374 1.4808 0
M  V30 2506 C 232.526 -1.65639 0.354988 0
M  V30 2507 O 233.732 -1.7206 0.528704 0
M  V30 2508 H 230.107 -0.591705 0.4641 0
M  V30 2509 H 232.078 -1.72329 2.43609 0
M  V30 2510 C 230.827 -3.17606 1.41499 0
M  V30 2511 H 230.15 -3.28809 2.27431 0
M  V30 2512 H 231.59 -3.96951 1.49015 0
M  V30 2513 C 230.049 -3.36642 0.131765 0
M  V30 2514 O 230.579 -3.93461 -0.809386 0
M  V30 2515 N 228.785 -2.90567 0.0439396 0
M  V30 2516 H 228.332 -2.44513 0.810619 0
M  V30 2517 H 228.29 -3.03681 -0.813969 0
M  V30 2518 N 232.062 -1.29571 -0.897171 0
M  V30 2519 C 233.01 -1.14802 -2.02295 0
M  V30 2520 C 234.004 -0.0629637 -1.69283 0
M  V30 2521 O 235.21 -0.222945 -1.78614 0
M  V30 2522 H 231.585 -0.354692 -0.663097 0
M  V30 2523 H 233.556 -2.10108 -2.11889 0
M  V30 2524 C 232.305 -0.843966 -3.37302 0
M  V30 2525 H 231.628 -1.67093 -3.63208 0
M  V30 2526 H 233.068 -0.780672 -4.16751 0
M  V30 2527 C 231.527 0.452843 -3.33843 0
M  V30 2528 O 232.057 1.47813 -3.73516 0
M  V30 2529 N 230.263 0.459601 -2.86943 0
M  V30 2530 H 229.81 -0.375213 -2.54853 0
M  V30 2531 H 229.768 1.32726 -2.85011 0
M  V30 2532 N 233.54 1.10788 -1.12088 0
M  V30 2533 C 234.78 1.84297 -0.883974 0
M  V30 2534 C 235.144 1.83036 0.579797 0
M  V30 2535 O 236.345 2.52061 0.933734 0
M  V30 2536 C 234.616 3.27173 -1.43849 0
M  V30 2537 S 236.175 4.17853 -1.33957 0
M  V30 2538 H 232.993 0.635433 -0.318977 0
M  V30 2539 H 235.595 1.33341 -1.4297 0
M  V30 2540 H 234.299 3.25658 -2.49749 0
M  V30 2541 H 233.83 3.83198 -0.890096 0
M  V30 2542 H 235.845 4.95239 -0.308603 0
M  V30 2543 N 235.018 0.912232 1.28515 0
M  V30 2544 C 235.928 0.404506 2.31086 0
M  V30 2545 C 236.944 -0.50707 1.66448 0
M  V30 2546 O 238.12 -0.393624 1.97516 0
M  V30 2547 C 235.185 -0.348572 3.44943 0
M  V30 2548 C 234.246 0.59604 4.25142 0
M  V30 2549 C 233.479 -0.121194 5.33562 0
M  V30 2550 O 233.702 -1.34317 5.5436 0
M  V30 2551 O 232.636 0.542716 5.99448 0
M  V30 2552 H 236.462 1.25579 2.76521 0
M  V30 2553 H 234.047 0.676998 1.33181 0
M  V30 2554 H 235.929 -0.77395 4.14232 0
M  V30 2555 H 234.604 -1.17571 3.01594 0
M  V30 2556 H 233.511 1.07079 3.58448 0
M  V30 2557 H 234.844 1.38995 4.72167 0
M  V30 2558 N 236.496 -1.42363 0.676048 0
M  V30 2559 C 237.444 -2.32596 -0.0131507 0
M  V30 2560 C 238.438 -1.49891 -0.789238 0
M  V30 2561 O 239.644 -1.65955 -0.697061 0
M  V30 2562 H 236.019 -0.751647 -0.0230481 0
M  V30 2563 H 237.99 -2.88421 0.765243 0
M  V30 2564 C 236.739 -3.34479 -0.949702 0
M  V30 2565 H 236.062 -3.98158 -0.361938 0
M  V30 2566 H 237.502 -4.00199 -1.4006 0
M  V30 2567 C 235.961 -2.66838 -2.05667 0
M  V30 2568 O 236.491 -2.50124 -3.14326 0
M  V30 2569 N 234.697 -2.25843 -1.82875 0
M  V30 2570 H 234.244 -2.39637 -0.945085 0
M  V30 2571 H 234.202 -1.80918 -2.5713 0
M  V30 2572 N 237.974 -0.419461 -1.51915 0
M  V30 2573 C 239.223 0.154346 -2.01109 0
M  V30 2574 C 239.536 1.45338 -1.30905 0
M  V30 2575 O 240.742 2.10906 -1.7097 0
M  V30 2576 C 239.198 0.325615 -3.58424 0
M  V30 2577 C 238.806 -0.961934 -4.37551 0
M  V30 2578 C 240.55 0.854155 -4.15818 0
M  V30 2579 C 238.457 -0.757287 -5.86531 0
M  V30 2580 H 237.387 0.0614563 -0.751491 0
M  V30 2581 H 240.038 -0.54649 -1.75173 0
M  V30 2582 H 238.42 1.08903 -3.80731 0
M  V30 2583 H 239.594 -1.7323 -4.26999 0
M  V30 2584 H 237.909 -1.41766 -3.91524 0
M  V30 2585 H 240.506 1.02346 -5.24814 0
M  V30 2586 H 240.849 1.83172 -3.73837 0
M  V30 2587 H 241.382 0.149528 -3.97519 0
M  V30 2588 H 238.121 -1.70671 -6.32892 0
M  V30 2589 H 237.641 -0.0264061 -5.99794 0
M  V30 2590 H 239.32 -0.403482 -6.45741 0
M  V30 2591 N 239.452 1.56882 -0.150215 0
M  V30 2592 C 240.698 1.96518 0.500834 0
M  V30 2593 C 241.031 1.03527 1.64304 0
M  V30 2594 O 240.306 0.0782751 1.94342 0
M  V30 2595 C 240.589 3.45822 1.00395 0
M  V30 2596 C 240.442 4.49591 -0.136983 0
M  V30 2597 C 241.761 3.97704 1.88467 0
M  V30 2598 H 238.88 0.714535 0.18058 0
M  V30 2599 H 241.522 1.88577 -0.232091 0
M  V30 2600 H 239.672 3.5272 1.62851 0
M  V30 2601 H 241.344 4.5477 -0.77343 0
M  V30 2602 H 239.587 4.26441 -0.795652 0
M  V30 2603 H 240.258 5.51402 0.256815 0
M  V30 2604 H 242.734 3.93304 1.35834 0
M  V30 2605 H 241.61 5.0263 2.20578 0
M  V30 2606 H 241.871 3.40252 2.82279 0
M  V30 2607 N 240.93 -0.123565 1.57115 0
M  V30 2608 C 241.84 -1.17074 2.033 0
M  V30 2609 C 242.856 -1.4561 0.952559 0
M  V30 2610 O 244.032 -1.56817 1.26374 0
M  V30 2611 C 241.097 -2.47857 2.42421 0
M  V30 2612 C 240.158 -2.26758 3.64526 0
M  V30 2613 C 239.391 -3.51305 4.01771 0
M  V30 2614 O 239.614 -4.5843 3.39409 0
M  V30 2615 O 238.548 -3.42578 4.94898 0
M  V30 2616 H 242.374 -0.808555 2.92739 0
M  V30 2617 H 239.959 -0.334027 1.45618 0
M  V30 2618 H 241.841 -3.2492 2.68338 0
M  V30 2619 H 240.516 -2.83558 1.5613 0
M  V30 2620 H 239.423 -1.47569 3.43765 0
M  V30 2621 H 240.756 -1.95963 4.51508 0
M  V30 2622 N 242.408 -1.52605 -0.393616 0
M  V30 2623 C 243.824 -1.41753 -0.733357 0
M  V30 2624 C 244.024 -0.534293 -1.94287 0
M  V30 2625 O 243.08 -0.0059787 -2.52499 0
M  V30 2626 C 244.393 -2.84531 -0.972772 0
M  V30 2627 C 245.941 -2.93978 -1.07453 0
M  V30 2628 C 246.416 -4.37756 -1.3466 0
M  V30 2629 N 247.907 -4.4106 -1.41492 0
M  V30 2630 C 248.642 -5.49387 -1.642 0
M  V30 2631 N 248.138 -6.67806 -1.8441 0
M  V30 2632 N 249.931 -5.36923 -1.66342 0
M  V30 2633 H 242.082 -2.08555 0.402328 0
M  V30 2634 H 244.345 -0.940654 0.117789 0
M  V30 2635 H 244.051 -3.51353 -0.156204 0
M  V30 2636 H 243.925 -3.26508 -1.88871 0
M  V30 2637 H 246.312 -2.27326 -1.88167 0
M  V30 2638 H 246.393 -2.55435 -0.136605 0
M  V30 2639 H 246.037 -5.04972 -0.544581 0
M  V30 2640 H 245.967 -4.73848 -2.2973 0
M  V30 2641 H 248.458 -3.55705 -1.27601 0
M  V30 2642 H 248.771 -7.46141 -2.01231 0
M  V30 2643 H 247.116 -6.70843 -1.81644 0
M  V30 2644 H 250.307 -4.43381 -1.50102 0
M  V30 2645 H 250.48 -6.21416 -1.837 0
M  V30 2646 N 243.887 0.651787 -1.4349 0
M  V30 2647 C 245.115 1.43937 -1.48626 0
M  V30 2648 C 245.53 1.8851 -0.104587 0
M  V30 2649 O 244.887 1.5958 0.885464 0
M  V30 2650 C 244.938 2.6734 -2.43334 0
M  V30 2651 O 244.659 2.24631 -3.76128 0
M  V30 2652 C 246.16 3.60683 -2.57726 0
M  V30 2653 H 243.38 0.44213 -0.504739 0
M  V30 2654 H 245.924 0.798944 -1.88248 0
M  V30 2655 H 244.079 3.2752 -2.06904 0
M  V30 2656 H 244.493 3.04485 -4.2707 0
M  V30 2657 H 245.967 4.43933 -3.28067 0
M  V30 2658 H 246.444 4.08126 -1.62265 0
M  V30 2659 H 247.05 3.06384 -2.94973 0
M  V30 2660 N 245.365 1.30045 0.890287 0
M  V30 2661 C 246.611 1.18737 1.64406 0
M  V30 2662 C 246.944 -0.258525 1.92472 0
M  V30 2663 O 246.219 -1.18562 1.54186 0
M  V30 2664 C 246.502 2.01087 2.98724 0
M  V30 2665 C 246.355 3.53867 2.77665 0
M  V30 2666 C 247.674 1.84457 3.9958 0
M  V30 2667 H 244.793 0.432698 0.596608 0
M  V30 2668 H 247.435 1.5962 1.0306 0
M  V30 2669 H 245.585 1.66349 3.51084 0
M  V30 2670 H 247.257 3.98637 2.32133 0
M  V30 2671 H 245.5 3.78318 2.12269 0
M  V30 2672 H 246.171 4.06772 3.7315 0
M  V30 2673 H 248.647 2.14817 3.56361 0
M  V30 2674 H 247.523 2.44411 4.91482 0
M  V30 2675 H 247.784 0.802276 4.3476 0
M  V30 2676 N 246.843 -1.10192 1.12674 0
M  V30 2677 C 248.092 -1.81573 0.8783 0
M  V30 2678 C 248.405 -1.86249 -0.597557 0
M  V30 2679 O 249.611 -2.5386 -0.962681 0
M  V30 2680 C 248.067 -3.26149 1.52167 0
M  V30 2681 C 247.675 -3.29763 3.03249 0
M  V30 2682 C 249.419 -4.0234 1.3536 0
M  V30 2683 C 247.326 -4.68815 3.60508 0
M  V30 2684 H 246.256 -0.680394 0.324931 0
M  V30 2685 H 248.907 -1.23902 1.35353 0
M  V30 2686 H 247.289 -3.83832 0.974104 0
M  V30 2687 H 248.463 -2.8189 3.6452 0
M  V30 2688 H 246.778 -2.67059 3.19481 0
M  V30 2689 H 249.375 -5.05058 1.75559 0
M  V30 2690 H 249.718 -4.15235 0.297554 0
M  V30 2691 H 250.251 -3.51079 1.87052 0
M  V30 2692 H 246.99 -4.61121 4.65884 0
M  V30 2693 H 246.51 -5.17045 3.04014 0
M  V30 2694 H 248.189 -5.37785 3.59717 0
M  V30 2695 N 248.321 -0.919034 -1.28029 0
M  V30 2696 C 249.549 -0.570971 -1.98866 0
M  V30 2697 C 249.964 0.848996 -1.68634 0
M  V30 2698 O 249.321 1.56307 -0.942036 0
M  V30 2699 C 249.372 -0.776876 -3.53054 0
M  V30 2700 O 249.093 -2.14097 -3.82222 0
M  V30 2701 C 250.594 -0.436356 -4.41147 0
M  V30 2702 H 247.814 -0.217175 -0.634883 0
M  V30 2703 H 250.358 -1.23368 -1.63097 0
M  V30 2704 H 248.513 -0.161085 -3.87065 0
M  V30 2705 H 248.927 -2.18455 -4.76841 0
M  V30 2706 H 250.401 -0.63117 -5.4838 0
M  V30 2707 H 250.878 0.627686 -4.34692 0
M  V30 2708 H 251.484 -1.02991 -4.12641 0
M  V30 2709 N 249.799 1.42003 -0.683588 0
M  V30 2710 C 250.747 2.326 0.000815408 0
M  V30 2711 C 251.741 1.50308 0.781278 0
M  V30 2712 O 252.947 1.66322 0.688251 0
M  V30 2713 H 249.322 0.751758 0.0190616 0
M  V30 2714 H 251.293 2.88011 -0.780528 0
M  V30 2715 C 250.042 3.34978 0.93195 0
M  V30 2716 H 249.365 3.98345 0.340817 0
M  V30 2717 H 250.805 4.00936 1.37936 0
M  V30 2718 C 249.264 2.67925 2.04249 0
M  V30 2719 O 249.794 2.51788 3.12995 0
M  V30 2720 N 248 2.2681 1.81675 0
M  V30 2721 H 247.547 2.40135 0.932363 0
M  V30 2722 H 247.505 1.8228 2.56167 0
M  V30 2723 N 251.277 0.427512 1.51691 0
M  V30 2724 C 252.207 -0.3796 2.30394 0
M  V30 2725 C 253.188 -1.02982 1.35384 0
M  V30 2726 O 254.373 -1.03534 1.643 0
M  V30 2727 C 251.503 -1.48649 3.1388 0
M  V30 2728 C 250.457 -0.960294 4.17088 0
M  V30 2729 C 249.783 -2.16219 4.89033 0
M  V30 2730 C 251.083 -0.00153679 5.223 0
M  V30 2731 H 252.777 0.277164 2.98114 0
M  V30 2732 H 250.323 0.134739 1.43368 0
M  V30 2733 H 252.276 -2.05826 3.67714 0
M  V30 2734 H 251 -2.1714 2.43962 0
M  V30 2735 H 249.659 -0.410806 3.64291 0
M  V30 2736 H 249.307 -2.83307 4.15628 0
M  V30 2737 H 249.007 -1.81654 5.58816 0
M  V30 2738 H 250.531 -2.73968 5.45687 0
M  V30 2739 H 251.945 -0.482687 5.71264 0
M  V30 2740 H 250.342 0.256199 5.99553 0
M  V30 2741 H 251.412 0.938174 4.75738 0
M  V30 2742 N 252.755 -1.56801 0.158532 0
M  V30 2743 C 253.985 -2.00568 -0.495583 0
M  V30 2744 C 254.393 -1.03774 -1.58201 0
M  V30 2745 O 253.736 -0.0285797 -1.83678 0
M  V30 2746 C 253.798 -3.40768 -1.14532 0
M  V30 2747 C 253.462 -4.56553 -0.202101 0
M  V30 2748 C 254.459 -5.16714 0.574675 0
M  V30 2749 C 252.144 -5.02197 -0.101648 0
M  V30 2750 C 254.138 -6.20939 1.43924 0
M  V30 2751 C 251.825 -6.06274 0.766508 0
M  V30 2752 C 252.823 -6.65515 1.53555 0
M  V30 2753 O 252.511 -7.67575 2.38922 0
M  V30 2754 H 252.243 -0.662893 -0.13247 0
M  V30 2755 H 254.797 -2.03829 0.253559 0
M  V30 2756 H 253.027 -3.34381 -1.94233 0
M  V30 2757 H 254.716 -3.6857 -1.70033 0
M  V30 2758 H 255.482 -4.82341 0.507167 0
M  V30 2759 H 251.361 -4.55807 -0.689994 0
M  V30 2760 H 254.905 -6.67107 2.03996 0
M  V30 2761 H 250.802 -6.40073 0.835266 0
M  V30 2762 H 251.57 -7.84844 2.32296 0
M  V30 2763 N 254.233 0.115231 -1.57178 0
M  V30 2764 C 255.644 0.67197 -1.74188 0
M  V30 2765 C 255.995 1.80125 -0.777777 0
M  V30 2766 O 255.12 2.16346 0.0484376 0
M  V30 2767 C 255.715 1.22573 -3.1585 0
M  V30 2768 C 254.274 1.72872 -3.34353 0
M  V30 2769 C 253.421 0.629972 -2.70049 0
M  V30 2770 H 256.372 -0.110712 -1.58313 0
M  V30 2771 H 256.393 2.09535 -3.17609 0
M  V30 2772 H 255.905 0.403598 -3.85996 0
M  V30 2773 H 254.006 2.5755 -2.69256 0
M  V30 2774 H 254.119 1.83557 -4.42542 0
M  V30 2775 H 252.483 1.0645 -2.31388 0
M  V30 2776 H 253.266 -0.181241 -3.42821 0
M  V30 2777 N 255.711 1.52812 0.385517 0
M  V30 2778 C 256.936 1.72207 1.15583 0
M  V30 2779 C 257.361 0.441034 1.82857 0
M  V30 2780 O 256.719 -0.603465 1.70962 0
M  V30 2781 C 256.767 2.87476 2.17692 0
M  V30 2782 O 255.871 2.54693 3.24354 0
M  V30 2783 H 255.212 0.572526 0.336319 0
M  V30 2784 H 257.742 1.99618 0.448744 0
M  V30 2785 H 257.752 3.13072 2.6163 0
M  V30 2786 H 256.427 3.80408 1.68115 0
M  V30 2787 H 255.004 2.3985 2.85529 0
M  V30 2788 N 257.189 -0.644168 1.43834 0
M  V30 2789 C 258.136 -1.75671 1.49694 0
M  V30 2790 C 259.106 -1.6246 0.345809 0
M  V30 2791 O 260.291 -1.82573 0.554234 0
M  V30 2792 C 257.431 -3.13867 1.43463 0
M  V30 2793 C 256.544 -3.38147 2.6885 0
M  V30 2794 C 255.679 -4.66241 2.54544 0
M  V30 2795 C 254.718 -4.83657 3.75157 0
M  V30 2796 N 253.855 -6.03016 3.59605 0
M  V30 2797 H 258.695 -1.69998 2.44754 0
M  V30 2798 H 256.232 -0.829458 1.21484 0
M  V30 2799 H 258.19 -3.9377 1.37843 0
M  V30 2800 H 256.82 -3.18588 0.519783 0
M  V30 2801 H 255.872 -2.52276 2.84712 0
M  V30 2802 H 257.184 -3.46899 3.58417 0
M  V30 2803 H 256.338 -5.54285 2.46683 0
M  V30 2804 H 255.077 -4.59826 1.62516 0
M  V30 2805 H 254.082 -3.94046 3.83416 0
M  V30 2806 H 255.307 -4.91896 4.68204 0
M  V30 2807 H 253.253 -5.97715 2.7032 0
M  V30 2808 H 253.17 -6.12766 4.42779 0
M  V30 2809 H 254.438 -6.93657 3.55613 0
M  V30 2810 N 258.668 -1.30515 -0.883378 0
M  V30 2811 C 259.615 -1.17032 -1.98927 0
M  V30 2812 C 260.585 -0.0594241 -1.65994 0
M  V30 2813 O 261.77 -0.229895 -1.8941 0
M  V30 2814 C 258.91 -0.869777 -3.33959 0
M  V30 2815 C 258.023 -2.06271 -3.79574 0
M  V30 2816 C 257.158 -1.70011 -5.03259 0
M  V30 2817 C 256.197 -2.8579 -5.41286 0
M  V30 2818 N 255.334 -2.49816 -6.56153 0
M  V30 2819 H 260.174 -2.1164 -2.09792 0
M  V30 2820 H 257.711 -1.05296 -1.02719 0
M  V30 2821 H 259.669 -0.676138 -4.11685 0
M  V30 2822 H 258.299 0.0394332 -3.22776 0
M  V30 2823 H 257.351 -2.36755 -2.97744 0
M  V30 2824 H 258.663 -2.92971 -4.03694 0
M  V30 2825 H 257.817 -1.47032 -5.88614 0
M  V30 2826 H 256.556 -0.804829 -4.81013 0
M  V30 2827 H 255.561 -3.09434 -4.54456 0
M  V30 2828 H 256.786 -3.76008 -5.65504 0
M  V30 2829 H 254.732 -1.62795 -6.35479 0
M  V30 2830 H 254.649 -3.30048 -6.8015 0
M  V30 2831 H 255.917 -2.30197 -7.44735 0
M  V30 2832 N 260.146 1.09593 -1.13257 0
M  V30 2833 C 261.394 1.81375 -0.891492 0
M  V30 2834 C 261.715 1.86049 0.584009 0
M  V30 2835 O 260.985 1.34481 1.42449 0
M  V30 2836 H 259.565 0.671708 -0.326828 0
M  V30 2837 H 262.227 1.3256 -1.42877 0
M  V30 2838 H 261.323 2.84612 -1.28071 0
M  V30 2839 N 261.624 0.925811 1.2754 0
M  V30 2840 C 262.872 0.564138 1.94067 0
M  V30 2841 C 263.193 -0.897188 1.73134 0
M  V30 2842 O 262.463 -1.63573 1.07799 0
M  V30 2843 H 261.043 0.205645 0.718136 0
M  V30 2844 H 263.705 1.1778 1.55287 0
M  V30 2845 H 262.801 0.76881 3.02483 0
M  V30 2846 N 263.102 -1.41638 0.69111 0
M  V30 2847 C 264.332 -2.0533 0.228758 0
M  V30 2848 C 264.74 -1.52089 -1.12541 0
M  V30 2849 O 264.083 -0.662145 -1.71351 0
M  V30 2850 C 264.145 -3.59349 0.10407 0
M  V30 2851 C 263.809 -4.35362 1.38956 0
M  V30 2852 C 264.806 -4.64942 2.32648 0
M  V30 2853 C 262.491 -4.74714 1.64169 0
M  V30 2854 C 264.485 -5.32828 3.49818 0
M  V30 2855 C 262.172 -5.42338 2.81625 0
M  V30 2856 C 263.17 -5.71322 3.74273 0
M  V30 2857 O 262.858 -6.37554 4.89673 0
M  V30 2858 H 262.59 -0.667796 0.104997 0
M  V30 2859 H 265.144 -1.82477 0.942938 0
M  V30 2860 H 263.374 -3.80924 -0.665839 0
M  V30 2861 H 265.063 -4.04633 -0.320519 0
M  V30 2862 H 265.829 -4.35025 2.14425 0
M  V30 2863 H 261.708 -4.51538 0.929202 0
M  V30 2864 H 265.252 -5.55368 4.22152 0
M  V30 2865 H 261.149 -5.71673 2.99768 0
M  V30 2866 H 261.917 -6.56049 4.8943 0
M  V30 2867 N 264.58 -0.43555 -1.51462 0
M  V30 2868 C 265.996 -0.0877501 -1.59359 0
M  V30 2869 C 266.196 1.4027 -1.4466 0
M  V30 2870 O 265.252 2.17243 -1.28693 0
M  V30 2871 C 266.565 -0.606264 -2.94525 0
M  V30 2872 C 268.113 -0.566548 -3.0783 0
M  V30 2873 C 268.588 -1.06201 -4.45517 0
M  V30 2874 N 270.079 -1.01992 -4.51832 0
M  V30 2875 C 270.814 -1.37417 -5.5669 0
M  V30 2876 N 270.31 -1.80119 -6.68976 0
M  V30 2877 N 272.103 -1.29245 -5.47039 0
M  V30 2878 H 264.254 -1.40533 -1.59261 0
M  V30 2879 H 266.517 -0.578992 -0.750648 0
M  V30 2880 H 266.223 -1.64901 -3.10645 0
M  V30 2881 H 266.097 -0.0302097 -3.77188 0
M  V30 2882 H 268.484 0.467208 -2.91378 0
M  V30 2883 H 268.565 -1.17898 -2.2701 0
M  V30 2884 H 268.209 -2.09422 -4.62715 0
M  V30 2885 H 268.139 -0.426127 -5.24873 0
M  V30 2886 H 270.63 -0.706308 -3.71241 0
M  V30 2887 H 270.943 -2.05392 -7.45006 0
M  V30 2888 H 269.288 -1.84044 -6.70189 0
M  V30 2889 H 272.479 -0.957522 -4.58202 0
M  V30 2890 H 272.652 -1.57182 -6.28648 0
M  V30 2891 N 266.058 1.56714 -0.166846 0
M  V30 2892 C 267.288 2.00828 0.48494 0
M  V30 2893 C 267.696 1.04612 1.57648 0
M  V30 2894 O 267.039 0.0383201 1.8366 0
M  V30 2895 C 267.101 3.4137 1.12723 0
M  V30 2896 C 266.765 4.56654 0.177886 0
M  V30 2897 C 267.762 5.16402 -0.60207 0
M  V30 2898 C 265.447 5.02244 0.0750139 0
M  V30 2899 C 267.441 6.20167 -1.47215 0
M  V30 2900 C 265.128 6.05859 -0.798649 0
M  V30 2901 C 266.126 6.64691 -1.57082 0
M  V30 2902 O 265.814 7.66297 -2.42989 0
M  V30 2903 H 265.546 0.663587 0.128953 0
M  V30 2904 H 268.1 2.03692 -0.264365 0
M  V30 2905 H 266.33 3.35406 1.92457 0
M  V30 2906 H 268.019 3.69466 1.68076 0
M  V30 2907 H 268.785 4.82065 -0.53274 0
M  V30 2908 H 264.664 4.56167 0.665812 0
M  V30 2909 H 268.208 6.66016 -2.07531 0
M  V30 2910 H 264.105 6.39621 -0.869199 0
M  V30 2911 H 264.873 7.83601 -2.36455 0
M  V30 2912 N 267.536 -0.106894 1.57237 0
M  V30 2913 C 268.446 -1.14911 2.0453 0
M  V30 2914 C 269.462 -1.44592 0.96795 0
M  V30 2915 O 270.638 -1.55468 1.2803 0
M  V30 2916 C 267.703 -2.45272 2.45036 0
M  V30 2917 C 266.764 -2.22879 3.66911 0
M  V30 2918 C 265.997 -3.47024 4.05475 0
M  V30 2919 O 266.22 -4.54804 3.44252 0
M  V30 2920 O 265.154 -3.3731 4.98504 0
M  V30 2921 H 268.98 -0.777461 2.9358 0
M  V30 2922 H 266.565 -0.318563 1.45964 0
M  V30 2923 H 268.447 -3.22055 2.71769 0
M  V30 2924 H 267.122 -2.81886 1.59129 0
M  V30 2925 H 266.029 -1.43915 3.45311 0
M  V30 2926 H 267.362 -1.91163 4.53561 0
M  V30 2927 N 269.014 -1.53014 -0.377408 0
M  V30 2928 C 270.242 -1.72515 -1.14219 0
M  V30 2929 C 270.657 -0.448735 -1.8339 0
M  V30 2930 O 270.014 0.577592 -1.73119 0
M  V30 2931 C 270.065 -2.8826 -2.18148 0
M  V30 2932 O 269.786 -4.10962 -1.51795 0
M  V30 2933 C 271.287 -3.19536 -3.07264 0
M  V30 2934 H 268.507 -0.577301 -0.342001 0
M  V30 2935 H 271.051 -1.99712 -0.439935 0
M  V30 2936 H 269.206 -2.63492 -2.83991 0
M  V30 2937 H 269.62 -4.75693 -2.20945 0
M  V30 2938 H 271.094 -4.03959 -3.76193 0
M  V30 2939 H 271.571 -2.34403 -3.71419 0
M  V30 2940 H 272.177 -3.46186 -2.47053 0
M  V30 2941 N 270.492 0.636531 -1.44174 0
M  V30 2942 C 271.74 1.39343 -1.46383 0
M  V30 2943 C 272.061 1.94766 -0.0955715 0
M  V30 2944 O 271.331 1.75452 0.871395 0
M  V30 2945 H 269.911 0.517199 -0.538994 0
M  V30 2946 H 272.573 0.74957 -1.7991 0
M  V30 2947 H 271.669 2.22746 -2.18611 0
M  V30 2948 N 271.97 1.30982 0.876444 0
M  V30 2949 C 273.218 1.20058 1.62575 0
M  V30 2950 C 273.539 -0.242947 1.93481 0
M  V30 2951 O 272.809 -1.1619 1.57724 0
M  V30 2952 H 271.389 0.44135 0.602677 0
M  V30 2953 H 274.051 1.64222 1.04962 0
M  V30 2954 H 273.147 1.76762 2.57219 0
M  V30 2955 N 273.449 -1.08991 1.13837 0
M  V30 2956 C 274.677 -1.85011 0.926202 0
M  V30 2957 C 275.092 -1.8135 -0.525127 0
M  V30 2958 O 274.449 -1.21287 -1.36366 0
M  V30 2959 C 274.5 -3.32802 1.41155 0
M  V30 2960 O 274.221 -3.36444 2.80601 0
M  V30 2961 C 275.722 -4.25649 1.23847 0
M  V30 2962 H 272.942 -0.584249 0.32999 0
M  V30 2963 H 275.486 -1.37688 1.51202 0
M  V30 2964 H 273.641 -3.77536 0.868631 0
M  V30 2965 H 274.055 -4.28657 3.02248 0
M  V30 2966 H 275.529 -5.27485 1.62675 0
M  V30 2967 H 276.006 -4.38828 0.18065 0
M  V30 2968 H 276.612 -3.86735 1.76964 0
M  V30 2969 N 274.927 -0.932562 -1.27047 0
M  V30 2970 C 275.857 -0.452902 -2.29066 0
M  V30 2971 C 276.838 0.489338 -1.62909 0
M  V30 2972 O 278.023 0.393046 -1.90181 0
M  V30 2973 C 275.153 0.290698 -3.46081 0
M  V30 2974 C 274.107 -0.564168 -4.24265 0
M  V30 2975 C 273.433 0.308886 -5.33807 0
M  V30 2976 C 274.733 -1.83112 -4.89149 0
M  V30 2977 H 276.427 -1.30552 -2.69437 0
M  V30 2978 H 273.973 -0.629201 -1.29526 0
M  V30 2979 H 275.926 0.637233 -4.16554 0
M  V30 2980 H 274.65 1.17738 -3.0464 0
M  V30 2981 H 273.309 -0.893477 -3.55545 0
M  V30 2982 H 272.957 1.19467 -4.88607 0
M  V30 2983 H 272.657 -0.259633 -5.87026 0
M  V30 2984 H 274.181 0.650884 -6.07121 0
M  V30 2985 H 275.595 -1.55236 -5.51883 0
M  V30 2986 H 273.992 -2.34353 -5.52448 0
M  V30 2987 H 275.062 -2.54772 -4.12576 0
M  V30 2988 N 276.405 1.4127 -0.698611 0
M  V30 2989 C 277.315 2.34573 -0.0357891 0
M  V30 2990 C 278.331 1.56393 0.762701 0
M  V30 2991 O 279.507 1.8886 0.699564 0
M  V30 2992 C 276.572 3.35159 0.887089 0
M  V30 2993 C 275.633 4.29225 0.0804634 0
M  V30 2994 C 274.866 5.25006 0.959387 0
M  V30 2995 O 275.089 5.26314 2.19886 0
M  V30 2996 O 274.023 6.00519 0.407439 0
M  V30 2997 H 277.849 2.92838 -0.804957 0
M  V30 2998 H 275.434 1.42175 -0.458966 0
M  V30 2999 H 277.316 3.9689 1.41621 0
M  V30 3000 H 275.991 2.79333 1.6357 0
M  V30 3001 H 274.898 3.70833 -0.493328 0
M  V30 3002 H 276.231 4.88157 -0.629547 0
M  V30 3003 N 277.883 0.443576 1.51229 0
M  V30 3004 C 279.131 -0.120557 2.0174 0
M  V30 3005 C 279.452 -1.42665 1.32935 0
M  V30 3006 O 278.722 -1.9028 0.465866 0
M  V30 3007 H 277.302 -0.0475426 0.745486 0
M  V30 3008 H 279.964 0.587711 1.85828 0
M  V30 3009 H 279.06 -0.291972 3.10731 0
M  V30 3010 N 279.361 -1.56624 0.175154 0
M  V30 3011 C 280.291 -2.21155 -0.749195 0
M  V30 3012 C 281.272 -1.16836 -1.23626 0
M  V30 3013 O 282.457 -1.45277 -1.28873 0
M  V30 3014 C 279.587 -2.8553 -1.97711 0
M  V30 3015 C 278.541 -3.95921 -1.62575 0
M  V30 3016 C 277.867 -4.47365 -2.92864 0
M  V30 3017 C 279.167 -5.15323 -0.850838 0
M  V30 3018 H 280.861 -2.98653 -0.211295 0
M  V30 3019 H 278.407 -1.43651 -0.100188 0
M  V30 3020 H 280.36 -3.2935 -2.62881 0
M  V30 3021 H 279.084 -2.05406 -2.53921 0
M  V30 3022 H 277.743 -3.52762 -0.997719 0
M  V30 3023 H 277.391 -3.64027 -3.47122 0
M  V30 3024 H 277.091 -5.21839 -2.70106 0
M  V30 3025 H 278.615 -4.93873 -3.59056 0
M  V30 3026 H 280.029 -5.55812 -1.40521 0
M  V30 3027 H 278.426 -5.95739 -0.722154 0
M  V30 3028 H 279.496 -4.84661 0.152082 0
M  V30 3029 N 280.839 0.0985539 -1.57292 0
M  V30 3030 C 282.255 0.45267 -1.53046 0
M  V30 3031 C 282.455 1.80713 -0.891342 0
M  V30 3032 O 281.511 2.4785 -0.482375 0
M  V30 3033 C 282.824 0.418341 -2.97776 0
M  V30 3034 C 284.372 0.500443 -3.08973 0
M  V30 3035 C 284.847 0.496297 -4.55303 0
M  V30 3036 N 286.338 0.557151 -4.59837 0
M  V30 3037 C 287.073 0.575726 -5.70502 0
M  V30 3038 N 286.569 0.550714 -6.90608 0
M  V30 3039 N 288.362 0.620277 -5.58667 0
M  V30 3040 H 280.513 -0.788673 -1.97215 0
M  V30 3041 H 282.776 -0.293188 -0.901524 0
M  V30 3042 H 282.482 -0.509659 -3.47988 0
M  V30 3043 H 282.356 1.2386 -3.56284 0
M  V30 3044 H 284.743 1.41886 -2.58751 0
M  V30 3045 H 284.824 -0.347894 -2.53423 0
M  V30 3046 H 284.468 -0.418162 -5.06176 0
M  V30 3047 H 284.398 1.3618 -5.08687 0
M  V30 3048 H 286.889 0.581816 -3.73394 0
M  V30 3049 H 287.202 0.568075 -7.70709 0
M  V30 3050 H 285.547 0.517816 -6.93068 0
M  V30 3051 H 288.738 0.637322 -4.63741 0
M  V30 3052 H 288.911 0.631283 -6.44918 0
M  V30 3053 N 282.317 1.53212 0.369288 0
M  V30 3054 C 283.249 1.75668 1.47219 0
M  V30 3055 C 284.262 0.637387 1.49804 0
M  V30 3056 O 285.451 0.913561 1.5335 0
M  V30 3057 C 282.551 1.81818 2.85999 0
M  V30 3058 C 281.724 3.11409 3.07153 0
M  V30 3059 C 280.783 3.08849 4.26026 0
M  V30 3060 O 279.809 3.82659 4.2138 0
M  V30 3061 N 281.011 2.29409 5.33246 0
M  V30 3062 H 283.776 2.70832 1.28337 0
M  V30 3063 H 281.337 1.51944 0.55898 0
M  V30 3064 H 283.329 1.77588 3.63655 0
M  V30 3065 H 281.899 0.939544 2.98146 0
M  V30 3066 H 281.119 3.28971 2.1719 0
M  V30 3067 H 282.407 3.97059 3.18154 0
M  V30 3068 H 281.805 1.68946 5.39883 0
M  V30 3069 H 280.362 2.31001 6.09493 0
M  V30 3070 N 283.795 -0.628877 1.44509 0
M  V30 3071 C 285.023 -1.41554 1.50897 0
M  V30 3072 C 285.438 -1.8832 0.134564 0
M  V30 3073 O 284.795 -1.60969 -0.859965 0
M  V30 3074 C 284.846 -2.63435 2.47556 0
M  V30 3075 O 284.567 -2.18619 3.79654 0
M  V30 3076 C 286.068 -3.56537 2.63431 0
M  V30 3077 H 283.288 -0.434044 0.511709 0
M  V30 3078 H 285.832 -0.768895 1.89495 0
M  V30 3079 H 283.987 -3.24187 2.12089 0
M  V30 3080 H 284.401 -2.97652 4.31861 0
M  V30 3081 H 285.875 -4.38657 3.35088 0
M  V30 3082 H 286.352 -4.05493 1.68738 0
M  V30 3083 H 286.958 -3.01653 2.9981 0
M  V30 3084 N 285.273 -1.31445 -0.869486 0
M  V30 3085 C 286.221 -1.19067 -1.99814 0
M  V30 3086 C 287.215 -0.0988569 -1.69111 0
M  V30 3087 O 288.421 -0.260781 -1.78101 0
M  V30 3088 H 284.796 -0.368677 -0.655425 0
M  V30 3089 H 286.767 -2.14555 -2.07385 0
M  V30 3090 C 285.516 -0.915323 -3.35436 0
M  V30 3091 H 284.839 -1.74759 -3.59582 0
M  V30 3092 H 286.279 -0.868895 -4.15001 0
M  V30 3093 C 284.738 0.381928 -3.34728 0
M  V30 3094 O 285.268 1.39857 -3.76567 0
M  V30 3095 N 283.474 0.398633 -2.87853 0
M  V30 3096 H 283.021 -0.429186 -2.54 0
M  V30 3097 H 282.979 1.26651 -2.87762 0
M  V30 3098 N 286.751 1.08385 -1.14413 0
M  V30 3099 C 287.699 2.17406 -0.826888 0
M  V30 3100 C 288.693 1.6827 0.195312 0
M  V30 3101 O 289.899 1.79927 0.0513892 0
M  V30 3102 H 286.274 0.70934 -0.249681 0
M  V30 3103 H 288.245 2.41388 -1.75426 0
M  V30 3104 C 286.994 3.46215 -0.320979 0
M  V30 3105 H 286.317 3.84401 -1.0989 0
M  V30 3106 H 287.757 4.23777 -0.137549 0
M  V30 3107 C 286.216 3.23067 0.955472 0
M  V30 3108 O 286.746 3.4668 2.02918 0
M  V30 3109 N 284.952 2.7661 0.890798 0
M  V30 3110 H 284.499 2.57594 0.0168815 0
M  V30 3111 H 284.457 2.61501 1.74542 0
M  V30 3112 N 288.23 0.939286 1.26551 0
M  V30 3113 C 289.178 0.43815 2.28436 0
M  V30 3114 C 290.172 -0.483587 1.62351 0
M  V30 3115 O 291.378 -0.362009 1.76322 0
M  V30 3116 H 287.753 0.123149 0.741848 0
M  V30 3117 H 289.724 1.31002 2.68106 0
M  V30 3118 C 288.473 -0.283052 3.46546 0
M  V30 3119 H 287.796 0.417043 3.97619 0
M  V30 3120 H 289.236 -0.597948 4.19763 0
M  V30 3121 C 287.695 -1.50018 3.01656 0
M  V30 3122 O 288.225 -2.59855 3.0633 0
M  V30 3123 N 286.431 -1.35608 2.57019 0
M  V30 3124 H 285.978 -0.46244 2.53415 0
M  V30 3125 H 285.936 -2.17165 2.27347 0
M  V30 3126 N 289.708 -1.40897 0.706093 0
M  V30 3127 C 291.124 -1.55042 0.37869 0
M  V30 3128 C 291.324 -1.67944 -1.11342 0
M  V30 3129 O 290.38 -1.66372 -1.89938 0
M  V30 3130 C 291.693 -2.78398 1.13643 0
M  V30 3131 C 293.241 -2.92206 1.12181 0
M  V30 3132 C 293.716 -4.18463 1.86152 0
M  V30 3133 N 295.207 -4.25443 1.83173 0
M  V30 3134 C 295.942 -5.2202 2.37239 0
M  V30 3135 N 295.438 -6.24563 2.99821 0
M  V30 3136 N 297.231 -5.14033 2.27435 0
M  V30 3137 H 289.382 -1.30769 1.67372 0
M  V30 3138 H 291.645 -0.631653 0.706907 0
M  V30 3139 H 291.351 -2.7511 2.19106 0
M  V30 3140 H 291.225 -3.70228 0.721853 0
M  V30 3141 H 293.612 -2.95004 0.0754171 0
M  V30 3142 H 293.693 -2.01521 1.57554 0
M  V30 3143 H 293.337 -4.16427 2.90776 0
M  V30 3144 H 293.267 -5.08141 1.38206 0
M  V30 3145 H 295.758 -3.51976 1.37556 0
M  V30 3146 H 296.071 -6.94665 3.38616 0
M  V30 3147 H 294.416 -6.25035 3.03902 0
M  V30 3148 H 297.607 -4.3285 1.78208 0
M  V30 3149 H 297.78 -5.89129 2.69873 0
M  V30 3150 N 291.186 -0.45159 -1.50991 0
M  V30 3151 C 292.432 0.110237 -2.025 0
M  V30 3152 C 292.765 1.41109 -1.33424 0
M  V30 3153 O 292.04 1.89135 -0.453659 0
M  V30 3154 C 292.323 0.314271 -3.58726 0
M  V30 3155 C 292.176 -1.00623 -4.38401 0
M  V30 3156 C 293.495 1.07767 -4.26702 0
M  V30 3157 H 290.614 0.0385897 -0.735989 0
M  V30 3158 H 293.256 -0.593374 -1.80497 0
M  V30 3159 H 291.406 0.913601 -3.77605 0
M  V30 3160 H 293.078 -1.64064 -4.31139 0
M  V30 3161 H 291.321 -1.6075 -4.02917 0
M  V30 3162 H 291.992 -0.817341 -5.45915 0
M  V30 3163 H 294.468 0.56986 -4.12179 0
M  V30 3164 H 293.344 1.18921 -5.35863 0
M  V30 3165 H 293.605 2.10939 -3.88532 0
M  V30 3166 N 292.664 1.56529 -0.183458 0
M  V30 3167 C 294.08 1.58664 0.172554 0
M  V30 3168 C 294.28 1.19925 1.61926 0
M  V30 3169 O 293.336 0.916534 2.35278 0
M  V30 3170 C 294.649 3.00463 -0.119262 0
M  V30 3171 C 296.197 3.12945 -0.0584396 0
M  V30 3172 C 296.672 4.56857 -0.323408 0
M  V30 3173 N 298.163 4.62403 -0.271612 0
M  V30 3174 C 298.898 5.71626 -0.450639 0
M  V30 3175 N 298.394 6.89362 -0.689384 0
M  V30 3176 N 300.187 5.60775 -0.385701 0
M  V30 3177 H 292.338 1.79994 -1.12765 0
M  V30 3178 H 294.601 0.834808 -0.449222 0
M  V30 3179 H 294.307 3.33326 -1.12192 0
M  V30 3180 H 294.181 3.72659 0.583544 0
M  V30 3181 H 296.568 2.79902 0.934805 0
M  V30 3182 H 296.649 2.4316 -0.794144 0
M  V30 3183 H 296.293 4.9061 -1.31392 0
M  V30 3184 H 296.223 5.24816 0.43305 0
M  V30 3185 H 298.714 3.77785 -0.0932256 0
M  V30 3186 H 299.027 7.68489 -0.815113 0
M  V30 3187 H 297.372 6.91196 -0.726142 0
M  V30 3188 H 300.563 4.67674 -0.199687 0
M  V30 3189 H 300.736 6.4584 -0.528646 0
M  V30 3190 N 294.142 -0.090211 1.57342 0
M  V30 3191 C 295.052 -1.12735 2.05738 0
M  V30 3192 C 296.068 -1.43557 0.983231 0
M  V30 3193 O 297.244 -1.54101 1.29672 0
M  V30 3194 C 294.309 -2.42659 2.47624 0
M  V30 3195 C 293.37 -2.18975 3.69254 0
M  V30 3196 C 292.603 -3.42704 4.09133 0
M  V30 3197 O 292.826 -4.51127 3.49057 0
M  V30 3198 O 291.76 -3.32003 5.02053 0
M  V30 3199 H 295.586 -0.746279 2.94388 0
M  V30 3200 H 293.171 -0.303064 1.46294 0
M  V30 3201 H 295.053 -3.19155 2.7517 0
M  V30 3202 H 293.728 -2.80182 1.62109 0
M  V30 3203 H 292.635 -1.40244 3.46818 0
M  V30 3204 H 293.968 -1.86342 4.55563 0
M  V30 3205 N 295.62 -1.53406 -0.361157 0
M  V30 3206 C 296.85 -1.73465 -1.1222 0
M  V30 3207 C 297.258 -0.465486 -1.83384 0
M  V30 3208 O 296.601 0.571611 -1.7458 0
M  V30 3209 C 296.663 -2.84834 -2.19339 0
M  V30 3210 C 296.327 -4.25038 -1.67903 0
M  V30 3211 C 297.324 -5.07231 -1.14074 0
M  V30 3212 C 295.009 -4.71464 -1.73282 0
M  V30 3213 C 297.003 -6.33942 -0.663068 0
M  V30 3214 C 294.69 -5.98153 -1.25127 0
M  V30 3215 C 295.688 -6.79223 -0.717296 0
M  V30 3216 O 295.376 -8.03533 -0.242865 0
M  V30 3217 H 295.108 -0.583526 -0.341283 0
M  V30 3218 H 297.662 -2.00964 -0.424591 0
M  V30 3219 H 295.892 -2.5282 -2.92607 0
M  V30 3220 H 297.581 -2.9303 -2.80871 0
M  V30 3221 H 298.347 -4.72534 -1.09254 0
M  V30 3222 H 294.226 -4.08432 -2.13786 0
M  V30 3223 H 297.77 -6.97167 -0.245612 0
M  V30 3224 H 293.667 -6.32347 -1.29642 0
M  V30 3225 H 294.435 -8.177 -0.361786 0
M  V30 3226 N 297.098 0.621204 -1.44841 0
M  V30 3227 C 298.345 1.38055 -1.48145 0
M  V30 3228 C 298.673 1.94143 -0.117867 0
M  V30 3229 O 297.928 1.74713 0.881694 0
M  V30 3230 C 298.227 2.55675 -2.4973 0
M  V30 3231 C 297.893 2.17817 -3.94799 0
M  V30 3232 C 296.555 2.07205 -4.34303 0
M  V30 3233 C 298.907 1.88065 -4.86087 0
M  V30 3234 C 296.235 1.65045 -5.63007 0
M  V30 3235 C 298.587 1.47394 -6.15189 0
M  V30 3236 C 297.251 1.35331 -6.53637 0
M  V30 3237 H 296.521 0.505181 -0.542101 0
M  V30 3238 H 299.168 0.703477 -1.78111 0
M  V30 3239 H 297.473 3.2866 -2.13284 0
M  V30 3240 H 299.17 3.13904 -2.4953 0
M  V30 3241 H 295.76 2.26998 -3.63552 0
M  V30 3242 H 299.944 1.95168 -4.56315 0
M  V30 3243 H 295.2 1.54317 -5.91605 0
M  V30 3244 H 299.374 1.23415 -6.85377 0
M  V30 3245 H 297.001 1.02435 -7.53267 0
M  V30 3246 N 298.576 1.31904 0.862503 0
M  V30 3247 C 299.523 1.20182 1.9704 0
M  V30 3248 C 300.493 0.0858247 1.65878 0
M  V30 3249 O 301.678 0.26 1.8902 0
M  V30 3250 C 298.818 0.922797 3.32533 0
M  V30 3251 C 297.931 2.12284 3.76244 0
M  V30 3252 C 297.066 1.77996 5.00491 0
M  V30 3253 C 296.105 2.94366 5.36671 0
M  V30 3254 N 295.242 2.60223 6.52095 0
M  V30 3255 H 300.082 2.14951 2.06398 0
M  V30 3256 H 297.619 1.06917 1.01031 0
M  V30 3257 H 299.577 0.741548 4.10557 0
M  V30 3258 H 298.207 0.0119227 3.22798 0
M  V30 3259 H 297.259 2.41461 2.9394 0
M  V30 3260 H 298.571 2.99357 3.98982 0
M  V30 3261 H 297.725 1.56377 5.862 0
M  V30 3262 H 296.464 0.881252 4.79672 0
M  V30 3263 H 295.469 3.16625 4.49476 0
M  V30 3264 H 296.694 3.84957 5.59451 0
M  V30 3265 H 294.64 1.72884 6.32809 0
M  V30 3266 H 294.557 3.40827 6.74814 0
M  V30 3267 H 295.825 2.42016 7.40978 0
M  V30 3268 N 300.054 -1.07777 1.14986 0
M  V30 3269 C 301.001 -2.14867 0.842672 0
M  V30 3270 C 301.971 -1.6486 -0.202552 0
M  V30 3271 O 303.156 -1.90668 -0.0710568 0
M  V30 3272 C 300.296 -3.43486 0.333363 0
M  V30 3273 C 299.409 -4.07306 1.43965 0
M  V30 3274 C 298.544 -5.23744 0.886914 0
M  V30 3275 C 297.583 -5.79517 1.97043 0
M  V30 3276 N 296.72 -6.87291 1.4344 0
M  V30 3277 H 301.56 -2.40485 1.75986 0
M  V30 3278 H 299.097 -1.1801 0.878179 0
M  V30 3279 H 301.055 -4.17195 0.0198163 0
M  V30 3280 H 299.685 -3.18133 -0.546916 0
M  V30 3281 H 298.737 -3.31293 1.86946 0
M  V30 3282 H 300.049 -4.44771 2.25788 0
M  V30 3283 H 299.203 -6.04419 0.525651 0
M  V30 3284 H 297.942 -4.87685 0.0377957 0
M  V30 3285 H 296.947 -4.97491 2.34057 0
M  V30 3286 H 298.172 -6.17632 2.82325 0
M  V30 3287 H 296.118 -6.5318 0.607567 0
M  V30 3288 H 296.035 -7.23617 2.18895 0
M  V30 3289 H 297.303 -7.71682 1.10124 0
M  V30 3290 N 301.532 -0.945985 -1.26051 0
M  V30 3291 C 302.779 -0.596118 -1.93527 0
M  V30 3292 C 303.107 0.865559 -1.74179 0
M  V30 3293 O 302.362 1.63524 -1.0751 0
M  V30 3294 C 302.661 -0.890475 -3.46129 0
M  V30 3295 C 302.327 -2.3368 -3.85622 0
M  V30 3296 C 300.989 -2.73216 -3.96114 0
M  V30 3297 C 303.341 -3.27648 -4.05334 0
M  V30 3298 C 300.669 -4.05806 -4.2372 0
M  V30 3299 C 303.021 -4.59841 -4.3443 0
M  V30 3300 C 301.685 -4.99185 -4.43137 0
M  V30 3301 H 300.955 -0.218135 -0.708165 0
M  V30 3302 H 303.602 -1.1934 -1.49768 0
M  V30 3303 H 301.907 -0.210711 -3.91233 0
M  V30 3304 H 303.604 -0.598478 -3.96509 0
M  V30 3305 H 300.194 -2.02015 -3.78005 0
M  V30 3306 H 304.378 -2.98298 -3.96651 0
M  V30 3307 H 299.634 -4.35945 -4.28675 0
M  V30 3308 H 303.808 -5.32641 -4.48628 0
M  V30 3309 H 301.435 -6.01952 -4.64282 0
M  V30 3310 N 303.011 1.40521 -0.713556 0
M  V30 3311 C 304.241 2.0494 -0.261395 0
M  V30 3312 C 304.649 1.53861 1.10107 0
M  V30 3313 O 303.992 0.689321 1.70276 0
M  V30 3314 C 304.054 3.59138 -0.161227 0
M  V30 3315 C 303.718 4.33096 -1.45865 0
M  V30 3316 C 304.715 4.61182 -2.40016 0
M  V30 3317 C 302.4 4.72043 -1.71701 0
M  V30 3318 C 304.394 5.27196 -3.58251 0
M  V30 3319 C 302.081 5.37789 -2.90218 0
M  V30 3320 C 303.079 5.65295 -3.83315 0
M  V30 3321 O 302.767 6.29683 -4.99754 0
M  V30 3322 H 302.499 0.666041 -0.115608 0
M  V30 3323 H 305.053 1.80954 -0.971849 0
M  V30 3324 H 303.283 3.81936 0.605153 0
M  V30 3325 H 304.972 4.05091 0.256105 0
M  V30 3326 H 305.738 4.31559 -2.21318 0
M  V30 3327 H 301.617 4.50003 -1.00092 0
M  V30 3328 H 305.161 5.48582 -4.30934 0
M  V30 3329 H 301.058 5.66831 -3.08825 0
M  V30 3330 H 301.826 6.4818 -4.99805 0
M  V30 3331 N 304.489 0.459591 1.5075 0
M  V30 3332 C 305.436 -0.340524 2.28274 0
M  V30 3333 C 306.406 -0.997371 1.32822 0
M  V30 3334 O 307.591 -1.01202 1.61749 0
M  V30 3335 C 304.731 -1.42317 3.14388 0
M  V30 3336 C 303.844 -0.782251 4.24859 0
M  V30 3337 C 302.979 -1.84182 4.98247 0
M  V30 3338 C 302.018 -1.18053 6.00608 0
M  V30 3339 N 301.155 -2.18244 6.67319 0
M  V30 3340 H 305.995 0.326899 2.96202 0
M  V30 3341 H 303.532 0.173057 1.46078 0
M  V30 3342 H 305.49 -2.06241 3.62658 0
M  V30 3343 H 304.12 -2.05992 2.4853 0
M  V30 3344 H 303.172 -0.0307404 3.80388 0
M  V30 3345 H 304.484 -0.259663 4.98124 0
M  V30 3346 H 303.638 -2.55714 5.50177 0
M  V30 3347 H 302.377 -2.39819 4.24662 0
M  V30 3348 H 301.382 -0.450776 5.47949 0
M  V30 3349 H 302.607 -0.631202 6.7616 0
M  V30 3350 H 300.553 -2.72919 5.96533 0
M  V30 3351 H 300.47 -1.70938 7.36421 0
M  V30 3352 H 301.738 -2.89191 7.23871 0
M  V30 3353 N 305.967 -1.56429 0.191757 0
M  V30 3354 C 306.897 -2.21937 -0.725696 0
M  V30 3355 C 307.878 -1.1814 -1.2238 0
M  V30 3356 O 309.063 -1.46636 -1.27325 0
M  V30 3357 C 306.193 -2.87611 -1.94672 0
M  V30 3358 C 305.147 -3.97623 -1.58366 0
M  V30 3359 C 304.473 -4.50446 -2.88102 0
M  V30 3360 C 305.773 -5.16197 -0.796133 0
M  V30 3361 H 307.467 -2.98861 -0.179606 0
M  V30 3362 H 305.013 -1.43749 -0.0849464 0
M  V30 3363 H 306.966 -3.3212 -2.59373 0
M  V30 3364 H 305.69 -2.08087 -2.51728 0
M  V30 3365 H 304.349 -3.53801 -0.960247 0
M  V30 3366 H 303.997 -3.67688 -3.43241 0
M  V30 3367 H 303.697 -5.24675 -2.64556 0
M  V30 3368 H 305.221 -4.97654 -3.53798 0
M  V30 3369 H 306.635 -5.57271 -1.34618 0
M  V30 3370 H 305.032 -5.96471 -0.658928 0
M  V30 3371 H 306.102 -4.84473 0.203478 0
M  V30 3372 N 307.445 0.0818655 -1.57387 0
M  V30 3373 C 308.393 1.11712 -2.04018 0
M  V30 3374 C 309.387 1.40683 -0.94364 0
M  V30 3375 O 310.593 1.40209 -1.12878 0
M  V30 3376 H 306.968 0.377542 -0.650358 0
M  V30 3377 H 308.939 0.697614 -2.90131 0
M  V30 3378 C 307.688 2.42537 -2.49141 0
M  V30 3379 H 307.011 2.21092 -3.33104 0
M  V30 3380 H 308.451 3.13446 -2.85531 0
M  V30 3381 C 306.91 3.0778 -1.37014 0
M  V30 3382 O 307.44 3.95436 -0.706621 0
M  V30 3383 N 305.646 2.68242 -1.11779 0
M  V30 3384 H 305.193 1.97052 -1.65917 0
M  V30 3385 H 305.151 3.1222 -0.369594 0
M  V30 3386 N 308.923 1.53595 0.353017 0
M  V30 3387 C 309.871 1.81605 1.45335 0
M  V30 3388 C 310.865 0.685923 1.54892 0
M  V30 3389 O 312.071 0.869095 1.57628 0
M  V30 3390 H 308.446 0.575204 0.484401 0
M  V30 3391 H 310.417 2.73679 1.18921 0
M  V30 3392 C 309.166 2.03406 2.81995 0
M  V30 3393 H 308.489 2.89814 2.75405 0
M  V30 3394 H 309.929 2.26975 3.58132 0
M  V30 3395 C 308.388 0.816794 3.26849 0
M  V30 3396 O 308.918 0.0115856 4.01698 0
M  V30 3397 N 307.124 0.636682 2.8354 0
M  V30 3398 H 306.671 1.2931 2.22793 0
M  V30 3399 H 306.629 -0.176336 3.13905 0
M  V30 3400 N 310.401 -0.613514 1.45168 0
M  V30 3401 C 311.648 -1.37268 1.48875 0
M  V30 3402 C 311.976 -1.94077 0.128161 0
M  V30 3403 O 311.231 -1.75178 -0.872416 0
M  V30 3404 C 311.53 -2.54347 2.51083 0
M  V30 3405 C 311.196 -2.1572 3.95949 0
M  V30 3406 C 309.858 -2.04899 4.35396 0
M  V30 3407 C 312.21 -1.85485 4.87078 0
M  V30 3408 C 309.538 -1.62057 5.63875 0
M  V30 3409 C 311.89 -1.4413 6.15962 0
M  V30 3410 C 310.554 -1.31863 6.54346 0
M  V30 3411 H 309.824 -0.502299 0.544773 0
M  V30 3412 H 312.471 -0.694021 1.78481 0
M  V30 3413 H 310.776 -3.27524 2.15024 0
M  V30 3414 H 312.473 -3.12577 2.51191 0
M  V30 3415 H 309.063 -2.25066 3.64751 0
M  V30 3416 H 313.247 -1.92745 4.57343 0
M  V30 3417 H 308.503 -1.51177 5.92415 0
M  V30 3418 H 312.677 -1.19778 6.86022 0
M  V30 3419 H 310.304 -0.984392 7.538 0
M  V30 3420 N 311.879 -1.3236 -0.855495 0
M  V30 3421 C 312.842 -1.21164 -1.94556 0
M  V30 3422 C 313.842 -0.134908 -1.60233 0
M  V30 3423 O 315.032 -0.385249 -1.69887 0
M  V30 3424 C 312.164 -0.863192 -3.29791 0
M  V30 3425 H 313.357 -2.18038 -2.05911 0
M  V30 3426 H 310.91 -1.16179 -1.04557 0
M  V30 3427 H 311.645 0.103769 -3.24134 0
M  V30 3428 H 311.43 -1.64166 -3.56078 0
M  V30 3429 H 312.92 -0.809156 -4.09686 0
M  V30 3430 N 313.357 1.07166 -1.15556 0
M  V30 3431 C 314.606 1.79181 -0.926132 0
M  V30 3432 C 314.919 1.87768 0.547967 0
M  V30 3433 O 316.125 2.56323 0.895036 0
M  V30 3434 C 314.581 3.22 -1.60761 0
M  V30 3435 C 314.189 3.21607 -3.11886 0
M  V30 3436 C 315.933 3.9861 -1.4598 0
M  V30 3437 C 313.84 4.59092 -3.72812 0
M  V30 3438 H 312.77 0.67154 -0.342856 0
M  V30 3439 H 315.421 1.2027 -1.3859 0
M  V30 3440 H 313.803 3.81115 -1.07553 0
M  V30 3441 H 314.977 2.72127 -3.71865 0
M  V30 3442 H 313.292 2.58495 -3.2645 0
M  V30 3443 H 315.889 5.00225 -1.88888 0
M  V30 3444 H 316.232 4.143 -0.407541 0
M  V30 3445 H 316.765 3.45996 -1.96295 0
M  V30 3446 H 313.504 4.48606 -4.77946 0
M  V30 3447 H 313.024 5.08803 -3.17616 0
M  V30 3448 H 314.703 5.28059 -3.73848 0
M  V30 3449 N 314.835 0.952656 1.25548 0
M  V30 3450 C 316.084 0.602053 1.92505 0
M  V30 3451 C 316.397 -0.864663 1.75451 0
M  V30 3452 O 317.603 -1.32514 2.36965 0
M  V30 3453 C 316.059 1.02607 3.44963 0
M  V30 3454 C 315.667 2.51519 3.70732 0
M  V30 3455 C 317.411 0.747905 4.1786 0
M  V30 3456 C 315.318 2.87732 5.16686 0
M  V30 3457 H 314.248 0.22146 0.720744 0
M  V30 3458 H 316.899 1.15684 1.42441 0
M  V30 3459 H 315.281 0.399712 3.93978 0
M  V30 3460 H 316.455 3.19157 3.32378 0
M  V30 3461 H 314.77 2.76786 3.11092 0
M  V30 3462 H 317.367 0.994647 5.25367 0
M  V30 3463 H 317.71 -0.315629 4.15102 0
M  V30 3464 H 318.243 1.33452 3.74747 0
M  V30 3465 H 314.982 3.93095 5.24554 0
M  V30 3466 H 314.502 2.24765 5.56094 0
M  V30 3467 H 316.181 2.76817 5.84792 0
M  V30 3468 N 316.313 -1.40141 0.720998 0
M  V30 3469 C 317.562 -2.0002 0.259804 0
M  V30 3470 C 317.875 -1.57839 -1.15526 0
M  V30 3471 O 319.081 -2.10455 -1.71525 0
M  V30 3472 C 317.537 -3.57516 0.413566 0
M  V30 3473 C 317.145 -4.08667 1.83562 0
M  V30 3474 C 318.889 -4.24498 0.0134387 0
M  V30 3475 C 316.796 -5.58686 1.93968 0
M  V30 3476 H 315.726 -0.748195 0.0933806 0
M  V30 3477 H 318.377 -1.60313 0.892866 0
M  V30 3478 H 316.759 -3.9495 -0.288169 0
M  V30 3479 H 317.933 -3.82598 2.56817 0
M  V30 3480 H 316.248 -3.543 2.1877 0
M  V30 3481 H 318.845 -5.34654 0.0703954 0
M  V30 3482 H 319.188 -4.03375 -1.02927 0
M  V30 3483 H 319.721 -3.92188 0.665815 0
M  V30 3484 H 316.46 -5.8467 2.96379 0
M  V30 3485 H 315.98 -5.86602 1.25131 0
M  V30 3486 H 317.659 -6.23875 1.71431 0
M  V30 3487 N 317.792 -0.46758 -1.50504 0
M  V30 3488 C 319.039 0.0886219 -2.02306 0
M  V30 3489 C 319.367 1.40037 -1.34981 0
M  V30 3490 O 318.622 1.90136 -0.463318 0
M  V30 3491 C 318.921 0.323995 -3.55928 0
M  V30 3492 C 318.587 -0.905618 -4.41712 0
M  V30 3493 C 317.249 -1.24275 -4.64875 0
M  V30 3494 C 319.601 -1.72448 -4.91845 0
M  V30 3495 C 316.929 -2.39888 -5.35417 0
M  V30 3496 C 319.281 -2.87185 -5.63656 0
M  V30 3497 C 317.945 -3.21317 -5.85074 0
M  V30 3498 H 317.215 0.0324291 -0.74029 0
M  V30 3499 H 319.862 -0.620945 -1.81153 0
M  V30 3500 H 318.167 1.11577 -3.75577 0
M  V30 3501 H 319.864 0.76826 -3.93572 0
M  V30 3502 H 316.454 -0.632956 -4.239 0
M  V30 3503 H 320.638 -1.4772 -4.73806 0
M  V30 3504 H 315.894 -2.66611 -5.50208 0
M  V30 3505 H 320.068 -3.50985 -6.01484 0
M  V30 3506 H 317.695 -4.1101 -6.39511 0
M  V30 3507 N 319.27 1.56325 -0.20005 0
M  V30 3508 C 320.518 1.97329 0.436547 0
M  V30 3509 C 320.839 1.08826 1.61808 0
M  V30 3510 O 320.109 0.160604 1.95241 0
M  V30 3511 H 318.689 0.728714 0.164272 0
M  V30 3512 H 321.351 1.92761 -0.287937 0
M  V30 3513 H 320.447 3.02264 0.777353 0
M  V30 3514 N 320.748 -0.0735177 1.57428 0
M  V30 3515 C 321.696 -1.10628 2.04607 0
M  V30 3516 C 322.69 -1.40181 0.951088 0
M  V30 3517 O 323.896 -1.39608 1.1362 0
M  V30 3518 H 320.271 -0.374088 0.652351 0
M  V30 3519 H 322.242 -0.682218 2.90497 0
M  V30 3520 C 320.991 -2.41212 2.50423 0
M  V30 3521 H 320.314 -2.19322 3.34272 0
M  V30 3522 H 321.754 -3.11927 2.87189 0
M  V30 3523 C 320.213 -3.0705 1.38644 0
M  V30 3524 O 320.743 -3.95056 0.727582 0
M  V30 3525 N 318.949 -2.67645 1.132 0
M  V30 3526 H 318.496 -1.96169 1.66959 0
M  V30 3527 H 318.454 -3.1202 0.386147 0
M  V30 3528 N 322.226 -1.5378 -0.344866 0
M  V30 3529 C 323.473 -1.70963 -1.08526 0
M  V30 3530 C 323.801 -0.472126 -1.88683 0
M  V30 3531 O 323.056 0.546116 -1.87926 0
M  V30 3532 C 323.355 -2.92407 -2.05506 0
M  V30 3533 C 323.021 -4.28066 -1.41671 0
M  V30 3534 C 321.683 -4.64951 -1.2399 0
M  V30 3535 C 324.035 -5.12344 -0.956726 0
M  V30 3536 C 321.363 -5.83733 -0.589277 0
M  V30 3537 C 323.715 -6.3179 -0.320015 0
M  V30 3538 C 322.379 -6.67372 -0.130881 0
M  V30 3539 H 321.649 -0.625598 -0.397124 0
M  V30 3540 H 324.296 -1.87995 -0.36469 0
M  V30 3541 H 322.601 -2.69973 -2.8394 0
M  V30 3542 H 324.298 -3.02895 -2.62784 0
M  V30 3543 H 320.888 -3.99034 -1.56429 0
M  V30 3544 H 325.072 -4.8438 -1.08118 0
M  V30 3545 H 320.328 -6.09877 -0.431344 0
M  V30 3546 H 324.502 -6.96386 0.0445072 0
M  V30 3547 H 322.129 -7.59273 0.375318 0
M  V30 3548 N 323.704 0.605807 -1.45491 0
M  V30 3549 C 324.651 1.7164 -1.54299 0
M  V30 3550 C 325.621 1.61486 -0.388761 0
M  V30 3551 O 326.806 1.81039 -0.602445 0
M  V30 3552 C 323.946 3.09953 -1.51734 0
M  V30 3553 C 323.059 3.309 -2.77721 0
M  V30 3554 C 322.194 4.59329 -2.66816 0
M  V30 3555 C 321.233 4.7354 -3.87848 0
M  V30 3556 N 320.37 5.9327 -3.75467 0
M  V30 3557 H 325.21 1.63449 -2.49176 0
M  V30 3558 H 322.747 0.796957 -1.23641 0
M  V30 3559 H 324.705 3.89977 -1.48235 0
M  V30 3560 H 323.335 3.17098 -0.604068 0
M  V30 3561 H 322.387 2.44639 -2.913 0
M  V30 3562 H 323.699 3.37274 -3.67488 0
M  V30 3563 H 322.853 5.4755 -2.61292 0
M  V30 3564 H 321.592 4.55355 -1.74651 0
M  V30 3565 H 320.597 3.83741 -3.93729 0
M  V30 3566 H 321.822 4.79309 -4.81082 0
M  V30 3567 H 319.768 5.90338 -2.86072 0
M  V30 3568 H 319.685 6.00811 -4.5887 0
M  V30 3569 H 320.953 6.83984 -3.73879 0
M  V30 3570 N 325.182 1.32811 0.848464 0
M  V30 3571 C 326.13 1.22231 1.97895 0
M  V30 3572 C 327.124 0.125749 1.68933 0
M  V30 3573 O 328.33 0.289083 1.77663 0
M  V30 3574 H 324.705 0.379058 0.649476 0
M  V30 3575 H 326.676 2.17828 2.03945 0
M  V30 3576 C 325.425 0.968572 3.33937 0
M  V30 3577 H 324.748 1.80458 3.56756 0
M  V30 3578 H 326.188 0.934808 4.13567 0
M  V30 3579 C 324.647 -0.328628 3.35293 0
M  V30 3580 O 325.177 -1.33848 3.78745 0
M  V30 3581 N 323.383 -0.352788 2.88451 0
M  V30 3582 H 322.93 0.469541 2.53285 0
M  V30 3583 H 322.888 -1.22057 2.89741 0
M  V30 3584 N 326.66 -1.06551 1.16123 0
M  V30 3585 C 327.937 -1.76097 0.85142 0
M  V30 3586 C 328.317 -2.00802 -0.6513 0
M  V30 3587 O 327.665 -1.63302 -1.59827 0
M  V30 3588 C 327.875 -3.06384 1.67122 0
M  V30 3589 C 329.223 -3.80585 1.88255 0
M  V30 3590 O 330.247 -3.16218 1.63966 0
M  V30 3591 O 329.106 -4.96212 2.2899 0
M  V30 3592 H 326.2 -0.765102 0.313923 0
M  V30 3593 H 328.746 -1.12844 1.26745 0
M  V30 3594 H 327.518 -2.84071 2.69108 0
M  V30 3595 H 327.141 -3.77371 1.25206 0
M  V30 3596 N 328.138 -0.959301 -1.25041 0
M  V30 3597 C 329.384 -0.617525 -1.9317 0
M  V30 3598 C 329.717 0.843981 -1.74902 0
M  V30 3599 O 328.992 1.60615 -1.09696 0
M  V30 3600 C 329.275 -0.982736 -3.46431 0
M  V30 3601 C 329.128 -2.50032 -3.73904 0
M  V30 3602 C 330.447 -0.511176 -4.37121 0
M  V30 3603 H 327.566 -0.22582 -0.701552 0
M  V30 3604 H 330.208 -1.19679 -1.4757 0
M  V30 3605 H 328.358 -0.489806 -3.854 0
M  V30 3606 H 330.03 -3.06737 -3.44544 0
M  V30 3607 H 328.273 -2.93598 -3.19348 0
M  V30 3608 H 328.944 -2.70635 -4.81103 0
M  V30 3609 H 331.42 -0.934075 -4.0548 0
M  V30 3610 H 330.296 -0.795361 -5.43107 0
M  V30 3611 H 330.557 0.588834 -4.38161 0
M  V30 3612 N 329.616 1.39756 -0.72842 0
M  V30 3613 C 330.865 1.99879 -0.270407 0
M  V30 3614 C 331.178 1.58449 1.14688 0
M  V30 3615 O 332.384 2.11362 1.70407 0
M  V30 3616 C 330.84 3.57292 -0.43252 0
M  V30 3617 C 330.448 4.07688 -1.85727 0
M  V30 3618 C 332.192 4.24485 -0.0359507 0
M  V30 3619 C 330.099 5.5765 -1.96928 0
M  V30 3620 H 329.029 0.747689 -0.0973472 0
M  V30 3621 H 331.68 1.59837 -0.901355 0
M  V30 3622 H 330.062 3.95097 0.267219 0
M  V30 3623 H 331.236 3.81231 -2.58843 0
M  V30 3624 H 329.551 3.53135 -2.20646 0
M  V30 3625 H 332.148 5.34609 -0.0987484 0
M  V30 3626 H 332.491 4.03915 1.00787 0
M  V30 3627 H 333.024 3.9183 -0.686604 0
M  V30 3628 H 329.763 5.8309 -2.99476 0
M  V30 3629 H 329.283 5.8593 -1.28241 0
M  V30 3630 H 330.962 6.22957 -1.74737 0
M  V30 3631 N 331.094 0.475555 1.50254 0
M  V30 3632 C 332.024 -0.30611 2.31485 0
M  V30 3633 C 333.005 -0.986228 1.38591 0
M  V30 3634 O 334.19 -0.982541 1.67511 0
M  V30 3635 C 331.32 -1.38588 3.1845 0
M  V30 3636 C 330.274 -0.827115 4.19932 0
M  V30 3637 C 329.6 -2.00551 4.95665 0
M  V30 3638 C 330.9 0.16463 5.2204 0
M  V30 3639 H 332.594 0.371866 2.97082 0
M  V30 3640 H 330.14 0.180282 1.42867 0
M  V30 3641 H 332.093 -1.94023 3.74076 0
M  V30 3642 H 330.817 -2.09269 2.50747 0
M  V30 3643 H 329.476 -0.294702 3.65414 0
M  V30 3644 H 329.124 -2.6994 4.2443 0
M  V30 3645 H 328.824 -1.63784 5.64313 0
M  V30 3646 H 330.348 -2.56468 5.54127 0
M  V30 3647 H 331.762 -0.300699 5.72511 0
M  V30 3648 H 330.159 0.446813 5.98434 0
M  V30 3649 H 331.229 1.08905 4.72512 0
M  V30 3650 N 332.573 -1.56217 0.208337 0
M  V30 3651 C 333.85 -1.89739 -0.475234 0
M  V30 3652 C 334.23 -1.1238 -1.78701 0
M  V30 3653 O 333.578 -0.228979 -2.2735 0
M  V30 3654 C 333.788 -3.42289 -0.681101 0
M  V30 3655 C 335.136 -4.12789 -0.994507 0
M  V30 3656 O 336.16 -3.47814 -0.768357 0
M  V30 3657 O 335.019 -5.27649 -1.42299 0
M  V30 3658 H 332.113 -0.788478 -0.249461 0
M  V30 3659 H 334.659 -1.67855 0.249538 0
M  V30 3660 H 333.431 -3.90534 0.244722 0
M  V30 3661 H 333.054 -3.69909 -1.45785 0
M  V30 3662 N 334.051 0.0651679 -1.57465 0
M  V30 3663 C 335.3 0.761916 -1.86756 0
M  V30 3664 C 335.613 1.78406 -0.801925 0
M  V30 3665 O 336.819 2.53084 -0.982885 0
M  V30 3666 C 335.275 1.40603 -3.31299 0
M  V30 3667 C 334.883 0.422115 -4.46007 0
M  V30 3668 C 336.627 2.08476 -3.69781 0
M  V30 3669 C 334.534 1.07252 -5.81593 0
M  V30 3670 H 333.464 0.288308 -0.696702 0
M  V30 3671 H 336.115 0.015344 -1.83494 0
M  V30 3672 H 334.497 2.20109 -3.29193 0
M  V30 3673 H 335.671 -0.343613 -4.59517 0
M  V30 3674 H 333.986 -0.152527 -4.16121 0
M  V30 3675 H 336.583 2.57925 -4.68379 0
M  V30 3676 H 336.926 2.88712 -2.99919 0
M  V30 3677 H 337.459 1.35792 -3.73905 0
M  V30 3678 H 334.198 0.310342 -6.54765 0
M  V30 3679 H 333.718 1.80895 -5.71872 0
M  V30 3680 H 335.397 1.59043 -6.27148 0
M  V30 3681 N 335.529 1.53961 0.336706 0
M  V30 3682 C 336.778 1.70751 1.07363 0
M  V30 3683 C 337.091 0.481061 1.89592 0
M  V30 3684 O 338.297 0.530046 2.66276 0
M  V30 3685 C 336.753 3.01965 1.95818 0
M  V30 3686 C 336.361 4.31971 1.18764 0
M  V30 3687 C 338.105 3.28121 2.69327 0
M  V30 3688 C 336.012 5.54255 2.06289 0
M  V30 3689 H 334.942 0.636292 0.404535 0
M  V30 3690 H 337.593 1.80459 0.332681 0
M  V30 3691 H 335.975 2.86132 2.7376 0
M  V30 3692 H 337.149 4.5853 0.456849 0
M  V30 3693 H 335.464 4.12481 0.569946 0
M  V30 3694 H 338.061 4.16673 3.35094 0
M  V30 3695 H 338.404 2.45426 3.36261 0
M  V30 3696 H 338.937 3.44762 1.98454 0
M  V30 3697 H 335.676 6.39513 1.43885 0
M  V30 3698 H 335.196 5.31935 2.77138 0
M  V30 3699 H 336.875 5.90159 2.65182 0
M  V30 3700 N 337.007 -0.598083 1.45811 0
M  V30 3701 C 337.957 -1.70272 1.51629 0
M  V30 3702 C 338.941 -1.56382 0.378629 0
M  V30 3703 O 340.133 -1.65557 0.626087 0
M  V30 3704 C 337.262 -3.09042 1.49493 0
M  V30 3705 C 336.348 -3.28284 2.68496 0
M  V30 3706 N 336.739 -3.17748 3.93535 0
M  V30 3707 C 335.037 -3.59182 2.64394 0
M  V30 3708 C 335.738 -3.38579 4.7301 0
M  V30 3709 N 334.714 -3.63016 4.04624 0
M  V30 3710 H 338.516 -1.60634 2.46118 0
M  V30 3711 H 336.03 -0.801642 1.41235 0
M  V30 3712 H 338.027 -3.88302 1.51747 0
M  V30 3713 H 336.687 -3.19823 0.560683 0
M  V30 3714 H 337.698 -2.95944 4.25014 0
M  V30 3715 H 334.375 -3.76742 1.79922 0
M  V30 3716 H 335.765 -3.35747 5.82 0
M  V30 3717 N 338.485 -1.33259 -0.841409 0
M  V30 3718 C 339.432 -1.23302 -1.95103 0
M  V30 3719 C 340.402 -0.112204 -1.65721 0
M  V30 3720 O 341.587 -0.290038 -1.88583 0
M  V30 3721 C 338.727 -0.975583 -3.31023 0
M  V30 3722 C 337.84 -2.18243 -3.72819 0
M  V30 3723 C 336.975 -1.85936 -4.97595 0
M  V30 3724 C 336.014 -3.02866 -5.3192 0
M  V30 3725 N 335.151 -2.70565 -6.47873 0
M  V30 3726 H 339.991 -2.18207 -2.02952 0
M  V30 3727 H 337.528 -1.0851 -0.993173 0
M  V30 3728 H 339.486 -0.80677 -4.09325 0
M  V30 3729 H 338.116 -0.0632755 -3.22738 0
M  V30 3730 H 337.168 -2.46107 -2.90061 0
M  V30 3731 H 338.48 -3.05666 -3.94169 0
M  V30 3732 H 337.634 -1.65684 -5.83638 0
M  V30 3733 H 336.373 -0.957452 -4.78209 0
M  V30 3734 H 335.378 -3.23736 -4.44382 0
M  V30 3735 H 336.603 -3.93809 -5.53255 0
M  V30 3736 H 334.549 -1.8293 -6.29978 0
M  V30 3737 H 334.466 -3.51519 -6.69306 0
M  V30 3738 H 335.734 -2.53774 -7.37034 0
M  V30 3739 N 339.963 1.05934 -1.16686 0
M  V30 3740 C 341.21 1.788 -0.950622 0
M  V30 3741 C 341.538 1.87384 0.521305 0
M  V30 3742 O 340.793 1.36438 1.40297 0
M  V30 3743 C 341.092 3.23105 -1.52767 0
M  V30 3744 C 340.758 3.34594 -3.02254 0
M  V30 3745 C 339.42 3.37437 -3.43059 0
M  V30 3746 C 341.772 3.36219 -3.98254 0
M  V30 3747 C 339.1 3.39525 -4.78477 0
M  V30 3748 C 341.452 3.39845 -5.33562 0
M  V30 3749 C 340.116 3.40971 -5.73842 0
M  V30 3750 H 339.386 0.654275 -0.347857 0
M  V30 3751 H 342.033 1.24555 -1.45459 0
M  V30 3752 H 340.338 3.80227 -0.94524 0
M  V30 3753 H 342.035 3.7809 -1.336 0
M  V30 3754 H 338.625 3.3309 -2.6972 0
M  V30 3755 H 342.809 3.33231 -3.67792 0
M  V30 3756 H 338.065 3.38703 -5.09009 0
M  V30 3757 H 342.239 3.4005 -6.07733 0
M  V30 3758 H 339.866 3.42342 -6.78753 0
M  V30 3759 N 341.441 0.965919 1.2453 0
M  V30 3760 C 342.351 0.502154 2.29163 0
M  V30 3761 C 343.367 -0.436017 1.68448 0
M  V30 3762 O 344.543 -0.309497 1.99008 0
M  V30 3763 C 341.608 -0.201956 3.46111 0
M  V30 3764 C 340.669 0.775821 4.22232 0
M  V30 3765 C 339.902 0.105217 5.33596 0
M  V30 3766 O 340.125 -1.10683 5.59558 0
M  V30 3767 O 339.059 0.796475 5.96607 0
M  V30 3768 H 342.885 1.37194 2.70946 0
M  V30 3769 H 340.47 0.732875 1.30189 0
M  V30 3770 H 342.352 -0.597564 4.17142 0
M  V30 3771 H 341.027 -1.04673 3.06309 0
M  V30 3772 H 339.934 1.22185 3.53584 0
M  V30 3773 H 341.267 1.58896 4.65846 0
M  V30 3774 N 342.919 -1.39368 0.735821 0
M  V30 3775 C 343.829 -2.34395 0.0979693 0
M  V30 3776 C 344.845 -1.58361 -0.720968 0
M  V30 3777 O 346.021 -1.90648 -0.649245 0
M  V30 3778 C 343.086 -3.37393 -0.797916 0
M  V30 3779 C 342.147 -4.29287 0.0333662 0
M  V30 3780 C 341.38 -5.27365 -0.819854 0
M  V30 3781 O 341.603 -5.31959 -2.05855 0
M  V30 3782 O 340.537 -6.01389 -0.248079 0
M  V30 3783 H 344.363 -2.90601 0.882315 0
M  V30 3784 H 341.948 -1.40909 0.4965 0
M  V30 3785 H 343.83 -4.00505 -1.31048 0
M  V30 3786 H 342.505 -2.83571 -1.56106 0
M  V30 3787 H 341.412 -3.69395 0.591475 0
M  V30 3788 H 342.745 -4.86317 0.758752 0
M  V30 3789 N 344.397 -0.483516 -1.5 0
M  V30 3790 C 345.627 0.0643896 -2.065 0
M  V30 3791 C 346.035 1.32949 -1.34615 0
M  V30 3792 O 345.378 1.79003 -0.412756 0
M  V30 3793 C 345.44 0.405983 -3.572 0
M  V30 3794 C 345.104 -0.758875 -4.50655 0
M  V30 3795 C 346.101 -1.64445 -4.93208 0
M  V30 3796 C 343.786 -0.952725 -4.93182 0
M  V30 3797 C 345.78 -2.70818 -5.77006 0
M  V30 3798 C 343.467 -2.01966 -5.76761 0
M  V30 3799 C 344.465 -2.89574 -6.18576 0
M  V30 3800 O 344.153 -3.94429 -7.00486 0
M  V30 3801 H 343.885 -0.00934786 -0.675935 0
M  V30 3802 H 346.439 -0.674959 -1.93993 0
M  V30 3803 H 344.669 1.19869 -3.67652 0
M  V30 3804 H 346.358 0.890433 -3.96013 0
M  V30 3805 H 347.124 -1.50643 -4.61012 0
M  V30 3806 H 343.003 -0.280247 -4.60147 0
M  V30 3807 H 346.547 -3.3923 -6.09565 0
M  V30 3808 H 342.444 -2.1577 -6.0837 0
M  V30 3809 H 343.212 -3.91568 -7.1876 0
M  V30 3810 N 345.875 1.56104 -0.216619 0
M  V30 3811 C 346.825 2.16703 0.708798 0
M  V30 3812 C 347.809 1.11392 1.16106 0
M  V30 3813 O 349.001 1.37395 1.11587 0
M  V30 3814 C 346.13 2.84666 1.91886 0
M  V30 3815 C 345.216 3.97195 1.48651 0
M  V30 3816 N 345.607 4.99959 0.766434 0
M  V30 3817 C 343.905 4.09193 1.77418 0
M  V30 3818 C 344.606 5.79126 0.546659 0
M  V30 3819 N 343.582 5.32315 1.10188 0
M  V30 3820 H 347.384 2.93516 0.150162 0
M  V30 3821 H 344.898 1.6239 -0.0176768 0
M  V30 3822 H 346.895 3.26486 2.59253 0
M  V30 3823 H 345.555 2.09347 2.48202 0
M  V30 3824 H 346.566 5.16197 0.419634 0
M  V30 3825 H 343.243 3.45021 2.35088 0
M  V30 3826 H 344.633 6.71895 -0.026103 0
M  V30 3827 N 347.353 -0.0568162 1.57498 0
M  V30 3828 C 348.283 -1.06593 2.0775 0
M  V30 3829 C 349.264 -1.39448 0.974082 0
M  V30 3830 O 350.449 -1.48815 1.24771 0
M  V30 3831 C 347.579 -2.37509 2.5339 0
M  V30 3832 C 346.533 -2.1897 3.67745 0
M  V30 3833 C 345.859 -3.55402 3.99492 0
M  V30 3834 C 347.159 -1.59859 4.97235 0
M  V30 3835 H 348.853 -0.647706 2.9231 0
M  V30 3836 H 346.399 -0.310116 1.40621 0
M  V30 3837 H 348.352 -3.08409 2.87162 0
M  V30 3838 H 347.076 -2.8134 1.65878 0
M  V30 3839 H 345.735 -1.50508 3.3428 0
M  V30 3840 H 345.383 -3.9683 3.09088 0
M  V30 3841 H 345.083 -3.43831 4.76502 0
M  V30 3842 H 346.607 -4.27708 4.35773 0
M  V30 3843 H 348.021 -2.20642 5.29141 0
M  V30 3844 H 346.418 -1.58942 5.78669 0
M  V30 3845 H 347.488 -0.561506 4.81638 0
M  V30 3846 N 348.832 -1.54138 -0.328536 0
M  V30 3847 C 349.742 -1.86192 -1.42723 0
M  V30 3848 C 350.758 -0.753382 -1.56844 0
M  V30 3849 O 351.934 -1.04718 -1.72035 0
M  V30 3850 C 348.999 -2.07824 -2.77507 0
M  V30 3851 C 348.06 -3.31641 -2.72603 0
M  V30 3852 C 347.293 -3.52232 -4.00959 0
M  V30 3853 O 347.516 -2.7636 -4.9898 0
M  V30 3854 O 346.45 -4.45699 -4.0452 0
M  V30 3855 H 350.276 -2.79608 -1.18547 0
M  V30 3856 H 347.861 -1.3998 -0.522104 0
M  V30 3857 H 349.743 -2.23411 -3.57303 0
M  V30 3858 H 348.418 -1.17596 -3.01584 0
M  V30 3859 H 347.325 -3.21444 -1.91376 0
M  V30 3860 H 348.658 -4.2191 -2.53481 0
M  V30 3861 N 350.31 0.590341 -1.46126 0
M  V30 3862 C 351.24 1.71032 -1.58966 0
M  V30 3863 C 352.221 1.64302 -0.440335 0
M  V30 3864 O 353.406 1.82436 -0.665634 0
M  V30 3865 C 350.536 3.09665 -1.57241 0
M  V30 3866 C 349.49 3.31221 -2.71066 0
M  V30 3867 C 348.816 4.70303 -2.54399 0
M  V30 3868 C 350.116 3.19796 -4.1295 0
M  V30 3869 H 351.81 1.60543 -2.52718 0
M  V30 3870 H 349.356 0.770933 -1.21625 0
M  V30 3871 H 351.309 3.87831 -1.64819 0
M  V30 3872 H 350.033 3.21036 -0.600289 0
M  V30 3873 H 348.692 2.55452 -2.62944 0
M  V30 3874 H 348.34 4.78429 -1.55288 0
M  V30 3875 H 348.04 4.85679 -3.30741 0
M  V30 3876 H 349.564 5.50647 -2.63857 0
M  V30 3877 H 350.978 3.87815 -4.22223 0
M  V30 3878 H 349.375 3.46696 -4.89818 0
M  V30 3879 H 350.445 2.16983 -4.33643 0
M  V30 3880 N 351.788 1.33704 0.83433 0
M  V30 3881 C 352.736 1.24323 1.96587 0
M  V30 3882 C 353.73 0.143659 1.6879 0
M  V30 3883 O 354.936 0.30791 1.77347 0
M  V30 3884 H 351.311 0.385925 0.645419 0
M  V30 3885 H 353.282 2.19978 2.01624 0
M  V30 3886 C 352.031 1.00394 3.32891 0
M  V30 3887 H 351.354 1.84231 3.54822 0
M  V30 3888 H 352.794 0.97862 4.12552 0
M  V30 3889 C 351.253 -0.293047 3.35623 0
M  V30 3890 O 351.783 -1.29823 3.80143 0
M  V30 3891 N 349.989 -0.322174 2.88809 0
M  V30 3892 H 349.536 0.496379 2.52772 0
M  V30 3893 H 349.494 -1.18977 2.91019 0
M  V30 3894 N 353.266 -1.05314 1.17247 0
M  V30 3895 C 354.677 -1.59753 0.96623 0
M  V30 3896 C 355.028 -1.9005 -0.487378 0
M  V30 3897 O 354.153 -1.68126 -1.36245 0
M  V30 3898 C 354.748 -2.90249 1.74759 0
M  V30 3899 C 353.307 -3.41352 1.58606 0
M  V30 3900 C 352.454 -2.15103 1.75002 0
M  V30 3901 H 355.405 -0.881406 1.31973 0
M  V30 3902 H 355.426 -3.60097 1.22925 0
M  V30 3903 H 354.938 -2.68166 2.8055 0
M  V30 3904 H 353.039 -3.68474 0.552985 0
M  V30 3905 H 353.152 -4.16019 2.37624 0
M  V30 3906 H 351.516 -2.25804 1.17833 0
M  V30 3907 H 352.299 -1.95491 2.82202 0
M  V30 3908 N 354.744 -0.972509 -1.24016 0
M  V30 3909 C 355.969 -0.654417 -1.96805 0
M  V30 3910 C 356.394 0.770398 -1.716 0
M  V30 3911 O 355.752 1.52361 -0.982647 0
M  V30 3912 C 355.8 -0.941031 -3.48105 0
M  V30 3913 O 354.904 -0.0289472 -4.1239 0
M  V30 3914 H 354.245 -0.24692 -0.616382 0
M  V30 3915 H 356.775 -1.30396 -1.57664 0
M  V30 3916 H 356.785 -0.87452 -3.98517 0
M  V30 3917 H 355.46 -1.97939 -3.65777 0
M  V30 3918 H 354.037 -0.149192 -3.72601 0
M  V30 3919 N 356.222 1.38976 -0.743202 0
M  V30 3920 C 357.154 2.29096 -0.0689228 0
M  V30 3921 C 358.167 1.47229 0.694791 0
M  V30 3922 O 359.356 1.70212 0.537597 0
M  V30 3923 C 356.456 3.25988 0.926548 0
M  V30 3924 C 355.629 4.36833 0.222647 0
M  V30 3925 C 354.688 5.13981 1.12739 0
M  V30 3926 O 353.714 5.6601 0.601795 0
M  V30 3927 N 354.916 5.25966 2.45641 0
M  V30 3928 H 357.681 2.87604 -0.842846 0
M  V30 3929 H 355.242 1.50645 -0.593109 0
M  V30 3930 H 357.234 3.74476 1.5346 0
M  V30 3931 H 355.804 2.68453 1.60162 0
M  V30 3932 H 355.024 3.90116 -0.565983 0
M  V30 3933 H 356.312 5.0811 -0.264841 0
M  V30 3934 H 355.71 4.85228 2.9081 0
M  V30 3935 H 354.267 5.77865 3.01522 0
M  V30 3936 N 357.7 0.491464 1.49741 0
M  V30 3937 C 358.647 -0.292027 2.28945 0
M  V30 3938 C 359.617 -0.968973 1.34908 0
M  V30 3939 O 360.802 -0.97748 1.6386 0
M  V30 3940 C 357.942 -1.35617 3.17336 0
M  V30 3941 C 357.055 -0.691957 4.26422 0
M  V30 3942 C 356.19 -1.73572 5.02042 0
M  V30 3943 C 355.229 -1.05286 6.02977 0
M  V30 3944 N 354.366 -2.0404 6.71798 0
M  V30 3945 H 359.206 0.389654 2.95442 0
M  V30 3946 H 356.743 0.204003 1.45679 0
M  V30 3947 H 358.701 -1.98502 3.66951 0
M  V30 3948 H 357.331 -2.00674 2.52844 0
M  V30 3949 H 356.383 0.0499523 3.80367 0
M  V30 3950 H 357.695 -0.153946 4.98562 0
M  V30 3951 H 356.849 -2.43987 5.55478 0
M  V30 3952 H 355.588 -2.30757 4.29654 0
M  V30 3953 H 354.593 -0.334446 5.48782 0
M  V30 3954 H 355.818 -0.487636 6.77347 0
M  V30 3955 H 353.764 -2.60205 6.02187 0
M  V30 3956 H 353.681 -1.55279 7.39881 0
M  V30 3957 H 354.949 -2.73772 7.29842 0
M  V30 3958 N 359.178 -1.55987 0.224894 0
M  V30 3959 C 360.125 -2.20436 -0.68385 0
M  V30 3960 C 361.095 -1.16102 -1.18783 0
M  V30 3961 O 362.28 -1.4447 -1.24632 0
M  V30 3962 C 359.42 -2.89076 -1.88491 0
M  V30 3963 C 358.533 -4.08012 -1.41951 0
M  V30 3964 C 357.668 -4.64426 -2.5784 0
M  V30 3965 C 356.707 -5.75656 -2.08053 0
M  V30 3966 N 355.844 -6.26347 -3.17227 0
M  V30 3967 H 360.684 -2.97727 -0.12754 0
M  V30 3968 H 358.221 -1.47011 -0.0511978 0
M  V30 3969 H 360.179 -3.27059 -2.59014 0
M  V30 3970 H 358.809 -2.14298 -2.41405 0
M  V30 3971 H 357.861 -3.75492 -0.609095 0
M  V30 3972 H 359.173 -4.88375 -1.01447 0
M  V30 3973 H 358.327 -5.04869 -3.3644 0
M  V30 3974 H 357.066 -3.83233 -3.01635 0
M  V30 3975 H 356.071 -5.34712 -1.27916 0
M  V30 3976 H 357.296 -6.58686 -1.65255 0
M  V30 3977 H 355.242 -5.48067 -3.60497 0
M  V30 3978 H 355.159 -7.01843 -2.80986 0
M  V30 3979 H 356.427 -6.71447 -3.95953 0
M  V30 3980 N 360.656 0.0484629 -1.57525 0
M  V30 3981 C 361.588 1.08222 -2.02041 0
M  V30 3982 C 362.601 1.33621 -0.930012 0
M  V30 3983 O 363.79 1.3145 -1.20761 0
M  V30 3984 C 360.89 2.42818 -2.36416 0
M  V30 3985 C 360.063 2.37049 -3.67596 0
M  V30 3986 C 359.122 3.53937 -3.89378 0
M  V30 3987 O 358.148 3.34308 -4.60681 0
M  V30 3988 N 359.35 4.75126 -3.3352 0
M  V30 3989 H 362.115 0.702946 -2.9134 0
M  V30 3990 H 359.676 0.236745 -1.6016 0
M  V30 3991 H 361.668 3.197 -2.48141 0
M  V30 3992 H 360.238 2.72661 -1.52888 0
M  V30 3993 H 359.458 1.45395 -3.66407 0
M  V30 3994 H 360.746 2.30318 -4.53686 0
M  V30 3995 H 360.144 4.93976 -2.75688 0
M  V30 3996 H 358.701 5.49439 -3.50656 0
M  V30 3997 N 362.134 1.5431 0.320358 0
M  V30 3998 C 363.081 1.83918 1.39438 0
M  V30 3999 C 364.051 0.686525 1.51248 0
M  V30 4000 O 365.236 0.933269 1.66417 0
M  V30 4001 C 362.376 2.075 2.75749 0
M  V30 4002 C 361.489 3.35177 2.72544 0
M  V30 4003 C 360.624 3.48704 4.00723 0
M  V30 4004 C 359.663 4.70244 3.91838 0
M  V30 4005 N 358.8 4.80679 5.11754 0
M  V30 4006 H 363.64 2.75544 1.13489 0
M  V30 4007 H 361.177 1.36459 0.549309 0
M  V30 4008 H 363.135 2.19166 3.54996 0
M  V30 4009 H 361.765 1.19163 3 0
M  V30 4010 H 360.817 3.32233 1.85271 0
M  V30 4011 H 362.129 4.24534 2.61863 0
M  V30 4012 H 361.283 3.59928 4.88402 0
M  V30 4013 H 360.022 2.57445 4.14214 0
M  V30 4014 H 359.027 4.59072 3.02544 0
M  V30 4015 H 360.252 5.6289 3.7991 0
M  V30 4016 H 358.198 3.92337 5.25745 0
M  V30 4017 H 358.115 5.64007 5.0342 0
M  V30 4018 H 359.383 4.96239 6.01138 0
M  V30 4019 N 363.613 -0.582584 1.46437 0
M  V30 4020 C 364.862 -1.337 1.5102 0
M  V30 4021 C 365.175 -1.94891 0.166359 0
M  V30 4022 O 366.381 -2.71351 0.0899954 0
M  V30 4023 C 364.837 -2.42315 2.66104 0
M  V30 4024 C 364.445 -1.87427 4.06909 0
M  V30 4025 C 366.189 -3.19099 2.79958 0
M  V30 4026 C 364.096 -2.93672 5.13333 0
M  V30 4027 H 363.026 -0.502619 0.562041 0
M  V30 4028 H 365.677 -0.621701 1.72647 0
M  V30 4029 H 364.059 -3.16645 2.37807 0
M  V30 4030 H 365.233 -1.19639 4.44998 0
M  V30 4031 H 363.548 -1.2331 3.97723 0
M  V30 4032 H 366.145 -3.9839 3.56636 0
M  V30 4033 H 366.488 -3.71695 1.87479 0
M  V30 4034 H 367.021 -2.51875 3.07902 0
M  V30 4035 H 363.76 -2.45962 6.07604 0
M  V30 4036 H 363.28 -3.59948 4.79789 0
M  V30 4037 H 364.959 -3.5762 5.39182 0
M  V30 4038 N 365.091 -1.34144 -0.827227 0
M  V30 4039 C 366.368 -1.16844 -1.56865 0
M  V30 4040 C 366.748 0.260654 -2.09485 0
M  V30 4041 O 366.096 1.26138 -1.9053 0
M  V30 4042 C 366.306 -2.21939 -2.6934 0
M  V30 4043 C 367.654 -2.56695 -3.3822 0
M  V30 4044 O 368.678 -2.20695 -2.79593 0
M  V30 4045 O 367.537 -3.18518 -4.44082 0
M  V30 4046 H 364.631 -0.452669 -0.692112 0
M  V30 4047 H 367.177 -1.45763 -0.868973 0
M  V30 4048 H 365.949 -3.17882 -2.28182 0
M  V30 4049 H 365.572 -1.94172 -3.46962 0
M  V30 4050 N 366.569 1.04691 -1.17803 0
M  V30 4051 C 367.818 1.77176 -0.963931 0
M  V30 4052 C 368.131 1.88888 0.508015 0
M  V30 4053 O 369.337 2.58164 0.840465 0
M  V30 4054 C 367.793 3.18518 -1.67555 0
M  V30 4055 C 367.401 3.14919 -3.18637 0
M  V30 4056 C 369.145 3.95424 -1.54402 0
M  V30 4057 C 367.052 4.51081 -3.82466 0
M  V30 4058 H 365.982 0.664116 -0.357023 0
M  V30 4059 H 368.633 1.17303 -1.4111 0
M  V30 4060 H 367.015 3.78748 -1.15613 0
M  V30 4061 H 368.189 2.64178 -3.77554 0
M  V30 4062 H 366.504 2.51512 -3.31859 0
M  V30 4063 H 369.101 4.96106 -1.99456 0
M  V30 4064 H 369.444 4.13343 -0.495329 0
M  V30 4065 H 369.977 3.41754 -2.0359 0
M  V30 4066 H 366.716 4.38368 -4.87354 0
M  V30 4067 H 366.236 5.01951 -3.28337 0
M  V30 4068 H 367.915 5.2001 -3.84965 0
M  V30 4069 N 368.047 0.979072 1.23499 0
M  V30 4070 C 368.995 0.510604 2.26926 0
M  V30 4071 C 369.989 -0.431691 1.63807 0
M  V30 4072 O 371.195 -0.30573 1.77385 0
M  V30 4073 H 367.57 0.146688 0.737554 0
M  V30 4074 H 369.541 1.39466 2.63803 0
M  V30 4075 C 368.29 -0.172658 3.47271 0
M  V30 4076 H 367.613 0.543331 3.96091 0
M  V30 4077 H 369.053 -0.464101 4.21452 0
M  V30 4078 C 367.512 -1.40345 3.06276 0
M  V30 4079 O 368.042 -2.49978 3.14442 0
M  V30 4080 N 366.248 -1.27362 2.61203 0
M  V30 4081 H 365.795 -0.381584 2.54758 0
M  V30 4082 H 365.753 -2.09822 2.34141 0
M  V30 4083 N 369.525 -1.3858 0.750561 0
M  V30 4084 C 370.473 -2.32339 0.110162 0
M  V30 4085 C 371.467 -1.53864 -0.708674 0
M  V30 4086 O 372.673 -1.69417 -0.608112 0
M  V30 4087 H 369.048 -0.751812 0.0168275 0
M  V30 4088 H 371.019 -2.83959 0.917053 0
M  V30 4089 C 369.768 -3.39043 -0.771067 0
M  V30 4090 H 369.091 -3.99517 -0.150374 0
M  V30 4091 H 370.531 -4.07061 -1.1865 0
M  V30 4092 C 368.99 -2.77365 -1.91234 0
M  V30 4093 O 369.52 -2.66434 -3.00626 0
M  V30 4094 N 367.726 -2.35219 -1.70646 0
M  V30 4095 H 367.273 -2.4431 -0.81673 0
M  V30 4096 H 367.231 -1.94294 -2.47178 0
M  V30 4097 N 371.003 -0.499398 -1.49478 0
M  V30 4098 C 372.233 0.0424839 -2.06556 0
M  V30 4099 C 372.641 1.31514 -1.36018 0
M  V30 4100 O 371.984 1.78555 -0.431718 0
M  V30 4101 C 372.046 0.368074 -3.57611 0
M  V30 4102 C 371.71 -0.806631 -4.49825 0
M  V30 4103 C 372.707 -1.69667 -4.91436 0
M  V30 4104 C 370.392 -1.00498 -4.92144 0
M  V30 4105 C 372.386 -2.76923 -5.74101 0
M  V30 4106 C 370.073 -2.08072 -5.74586 0
M  V30 4107 C 371.071 -2.96119 -6.15469 0
M  V30 4108 O 370.759 -4.01836 -6.96264 0
M  V30 4109 H 370.491 -0.0165165 -0.675798 0
M  V30 4110 H 373.045 -0.695497 -1.93267 0
M  V30 4111 H 371.275 1.15963 -3.68903 0
M  V30 4112 H 372.964 0.848381 -3.96935 0
M  V30 4113 H 373.73 -1.55524 -4.59388 0
M  V30 4114 H 369.609 -0.329036 -4.59824 0
M  V30 4115 H 373.153 -3.45676 -6.05932 0
M  V30 4116 H 369.05 -2.22211 -6.06047 0
M  V30 4117 H 369.818 -3.9917 -7.14567 0
M  V30 4118 N 372.481 1.55866 -0.233164 0
M  V30 4119 C 373.711 2.02704 0.399325 0
M  V30 4120 C 374.119 1.11204 1.53069 0
M  V30 4121 O 373.462 0.116182 1.83332 0
M  V30 4122 C 373.524 3.45844 0.981429 0
M  V30 4123 C 373.188 4.56997 -0.0159561 0
M  V30 4124 C 374.185 5.13384 -0.820552 0
M  V30 4125 C 371.87 5.0211 -0.138072 0
M  V30 4126 C 373.864 6.13365 -1.73386 0
M  V30 4127 C 371.551 6.01926 -1.0549 0
M  V30 4128 C 372.549 6.57431 -1.85132 0
M  V30 4129 O 372.237 7.55302 -2.75272 0
M  V30 4130 H 371.969 0.668459 0.100692 0
M  V30 4131 H 374.523 2.02387 -0.35052 0
M  V30 4132 H 372.753 3.43267 1.78058 0
M  V30 4133 H 374.442 3.76262 1.52255 0
M  V30 4134 H 375.208 4.79372 -0.736721 0
M  V30 4135 H 371.087 4.5858 0.471737 0
M  V30 4136 H 374.631 6.56614 -2.35592 0
M  V30 4137 H 370.528 6.35359 -1.1397 0
M  V30 4138 H 371.296 7.72867 -2.69477 0
M  V30 4139 N 373.959 -0.0401083 1.57549 0
M  V30 4140 C 374.907 -1.06264 2.06908 0
M  V30 4141 C 375.901 -1.38132 0.980608 0
M  V30 4142 O 377.107 -1.37167 1.16556 0
M  V30 4143 H 373.482 -0.360166 0.660139 0
M  V30 4144 H 375.453 -0.620445 2.91878 0
M  V30 4145 C 374.202 -2.35846 2.55483 0
M  V30 4146 H 373.525 -2.12183 3.38849 0
M  V30 4147 H 374.965 -3.05765 2.93741 0
M  V30 4148 C 373.424 -3.0404 1.45126 0
M  V30 4149 O 373.954 -3.93424 0.811216 0
M  V30 4150 N 372.16 -2.65184 1.18852 0
M  V30 4151 H 371.707 -1.92584 1.71083 0
M  V30 4152 H 371.665 -3.1113 0.452244 0
M  V30 4153 N 375.437 -1.54477 -0.31217 0
M  V30 4154 C 376.714 -1.63891 -1.06767 0
M  V30 4155 C 377.094 -0.480028 -2.0557 0
M  V30 4156 O 376.442 0.524487 -2.22399 0
M  V30 4157 C 376.652 -3.01402 -1.75948 0
M  V30 4158 C 378 -3.57838 -2.28554 0
M  V30 4159 O 379.024 -3.03782 -1.85998 0
M  V30 4160 O 377.883 -4.52462 -3.06497 0
M  V30 4161 H 374.977 -0.664125 -0.492816 0
M  V30 4162 H 377.523 -1.66823 -0.311149 0
M  V30 4163 H 376.295 -3.77187 -1.04144 0
M  V30 4164 H 375.918 -3.02199 -2.58383 0
M  V30 4165 N 376.915 0.57481 -1.46744 0
M  V30 4166 C 377.847 1.69804 -1.53946 0
M  V30 4167 C 378.86 1.57098 -0.427106 0
M  V30 4168 O 380.049 1.64378 -0.695863 0
M  V30 4169 C 377.149 3.08125 -1.4111 0
M  V30 4170 C 376.322 3.46757 -2.66605 0
M  V30 4171 C 375.381 4.6417 -2.47855 0
M  V30 4172 O 374.407 4.69634 -3.21609 0
M  V30 4173 N 375.609 5.59553 -1.54534 0
M  V30 4174 H 378.374 1.64077 -2.50796 0
M  V30 4175 H 375.935 0.761 -1.429 0
M  V30 4176 H 377.927 3.84478 -1.26328 0
M  V30 4177 H 376.497 3.08175 -0.524109 0
M  V30 4178 H 375.717 2.6003 -2.96274 0
M  V30 4179 H 377.005 3.69337 -3.49954 0
M  V30 4180 H 376.403 5.57881 -0.937304 0
M  V30 4181 H 374.96 6.35304 -1.45711 0
M  V30 4182 N 378.394 1.34581 0.820102 0
M  V30 4183 C 379.342 1.26401 1.95258 0
M  V30 4184 C 380.336 0.161553 1.68628 0
M  V30 4185 O 381.542 0.326703 1.7701 0
M  V30 4186 H 377.917 0.392749 0.64129 0
M  V30 4187 H 379.888 2.22105 1.99279 0
M  V30 4188 C 378.637 1.03919 3.31807 0
M  V30 4189 H 377.96 1.87984 3.52848 0
M  V30 4190 H 379.4 1.02232 4.11491 0
M  V30 4191 C 377.859 -0.257433 3.35915 0
M  V30 4192 O 378.389 -1.25784 3.81499 0
M  V30 4193 N 376.595 -0.291524 2.89134 0
M  V30 4194 H 376.142 0.523161 2.52232 0
M  V30 4195 H 376.1 -1.15883 2.92264 0
M  V30 4196 N 379.872 -1.04064 1.18357 0
M  V30 4197 C 380.805 -2.11618 0.854 0
M  V30 4198 C 381.783 -1.61555 -0.184043 0
M  V30 4199 O 382.967 -1.88395 -0.0630048 0
M  V30 4200 C 380.094 -3.37574 0.27597 0
M  V30 4201 C 379.14 -4.06485 1.2912 0
M  V30 4202 S 379.973 -4.53543 2.84709 0
M  V30 4203 C 381.129 -5.82732 2.28417 0
M  V30 4204 H 381.362 -2.39247 1.76488 0
M  V30 4205 H 378.895 -1.16832 1.00944 0
M  V30 4206 H 380.853 -4.10468 -0.051026 0
M  V30 4207 H 379.514 -3.0806 -0.613028 0
M  V30 4208 H 378.707 -4.97024 0.835633 0
M  V30 4209 H 378.309 -3.39708 1.56443 0
M  V30 4210 H 380.601 -6.56677 1.66677 0
M  V30 4211 H 381.544 -6.33052 3.17256 0
M  V30 4212 H 381.952 -5.37838 1.71436 0
M  V30 4213 N 381.35 -0.985608 -1.22978 0
M  V30 4214 C 382.298 -0.522631 -2.26652 0
M  V30 4215 C 383.292 0.422998 -1.64034 0
M  V30 4216 O 384.498 0.296319 -1.77544 0
M  V30 4217 H 380.873 -0.150597 -0.736766 0
M  V30 4218 H 382.844 -1.40863 -2.63059 0
M  V30 4219 C 381.593 0.154238 -3.47358 0
M  V30 4220 H 380.916 -0.564329 -3.95797 0
M  V30 4221 H 382.356 0.441744 -4.21693 0
M  V30 4222 C 380.815 1.38719 -3.07016 0
M  V30 4223 O 381.345 2.48307 -3.15764 0
M  V30 4224 N 379.551 1.25975 -2.61875 0
M  V30 4225 H 379.098 0.368068 -2.54957 0
M  V30 4226 H 379.056 2.08578 -2.3525 0
M  V30 4227 N 382.828 1.3818 -0.7579 0
M  V30 4228 C 384.105 1.94106 -0.241306 0
M  V30 4229 C 384.485 1.69282 1.26122 0
M  V30 4230 O 383.833 1.03378 2.03777 0
M  V30 4231 C 384.043 3.43809 -0.59967 0
M  V30 4232 C 385.391 4.20868 -0.561717 0
M  V30 4233 O 386.415 3.5211 -0.538222 0
M  V30 4234 O 385.274 5.43451 -0.576478 0
M  V30 4235 H 382.368 0.825376 -0.0518042 0
M  V30 4236 H 384.914 1.47548 -0.838315 0
M  V30 4237 H 383.686 3.55403 -1.6372 0
M  V30 4238 H 383.309 3.97592 0.0251197 0
M  V30 4239 N 384.306 0.507319 1.49211 0
M  V30 4240 C 385.236 -0.256939 2.32082 0
M  V30 4241 C 386.217 -0.956609 1.40652 0
M  V30 4242 O 387.402 -0.946788 1.69557 0
M  V30 4243 C 384.532 -1.31802 3.21318 0
M  V30 4244 C 383.486 -0.737855 4.21592 0
M  V30 4245 C 382.812 -1.89992 4.99807 0
M  V30 4246 C 384.112 0.275325 5.21574 0
M  V30 4247 H 385.806 0.434798 2.96226 0
M  V30 4248 H 383.352 0.210546 1.42452 0
M  V30 4249 H 385.305 -1.86045 3.78107 0
M  V30 4250 H 384.029 -2.03903 2.5513 0
M  V30 4251 H 382.688 -0.217126 3.65956 0
M  V30 4252 H 382.336 -2.60877 4.30061 0
M  V30 4253 H 382.036 -1.51777 5.6766 0
M  V30 4254 H 383.56 -2.44657 5.59442 0
M  V30 4255 H 384.974 -0.179193 5.7302 0
M  V30 4256 H 383.371 0.573649 5.97352 0
M  V30 4257 H 384.441 1.18903 4.70096 0
M  V30 4258 N 385.784 -1.5574 0.241426 0
M  V30 4259 C 387.033 -1.97986 -0.385295 0
M  V30 4260 C 387.346 -1.13267 -1.59468 0
M  V30 4261 O 388.552 -1.45501 -2.2922 0
M  V30 4262 C 387.008 -3.52275 -0.736884 0
M  V30 4263 C 386.616 -4.45726 0.450796 0
M  V30 4264 C 388.36 -4.03189 -1.3281 0
M  V30 4265 C 386.267 -5.91352 0.0756662 0
M  V30 4266 H 385.197 -0.739386 -0.147731 0
M  V30 4267 H 387.848 -1.80308 0.340779 0
M  V30 4268 H 386.23 -3.65628 -1.52094 0
M  V30 4269 H 387.404 -4.44131 1.22819 0
M  V30 4270 H 385.719 -4.05264 0.956573 0
M  V30 4271 H 388.316 -5.09505 -1.62201 0
M  V30 4272 H 388.659 -3.50212 -2.25071 0
M  V30 4273 H 389.192 -3.93141 -0.607069 0
M  V30 4274 H 385.931 -6.48354 0.965272 0
M  V30 4275 H 385.451 -5.96095 -0.665635 0
M  V30 4276 H 387.13 -6.46084 -0.344075 0
M  V30 4277 N 387.262 0.0317525 -1.57568 0
M  V30 4278 C 388.209 1.0332 -2.06382 0
M  V30 4279 C 389.179 1.36082 -0.952414 0
M  V30 4280 O 390.364 1.46466 -1.2228 0
M  V30 4281 C 387.504 2.32989 -2.54578 0
M  V30 4282 C 386.617 2.0641 -3.79498 0
M  V30 4283 C 385.752 3.2993 -4.16317 0
M  V30 4284 C 384.791 2.98893 -5.34162 0
M  V30 4285 N 383.928 4.14857 -5.66426 0
M  V30 4286 H 388.768 0.609982 -2.9169 0
M  V30 4287 H 386.305 0.289573 -1.44222 0
M  V30 4288 H 388.263 3.0875 -2.80587 0
M  V30 4289 H 386.893 2.73039 -1.7219 0
M  V30 4290 H 385.945 1.21158 -3.6059 0
M  V30 4291 H 387.257 1.79513 -4.65378 0
M  V30 4292 H 386.411 4.1406 -4.4344 0
M  V30 4293 H 385.15 3.59938 -3.29083 0
M  V30 4294 H 384.155 2.13164 -5.06795 0
M  V30 4295 H 385.38 2.70165 -6.23047 0
M  V30 4296 H 383.326 4.44821 -4.82151 0
M  V30 4297 H 383.243 3.91374 -6.4681 0
M  V30 4298 H 384.511 4.99868 -5.98124 0
M  V30 4299 N 388.74 1.54641 0.303973 0
M  V30 4300 C 389.65 1.88439 1.39743 0
M  V30 4301 C 390.666 0.778239 1.55626 0
M  V30 4302 O 391.842 1.07442 1.70347 0
M  V30 4303 C 388.907 2.12212 2.74166 0
M  V30 4304 C 387.968 3.35936 2.67293 0
M  V30 4305 C 387.201 3.58566 3.95305 0
M  V30 4306 O 387.424 2.84263 4.9452 0
M  V30 4307 O 386.358 4.52078 3.97378 0
M  V30 4308 H 390.184 2.81458 1.14083 0
M  V30 4309 H 387.769 1.40793 0.499768 0
M  V30 4310 H 389.651 2.29067 3.53704 0
M  V30 4311 H 388.326 1.22379 2.99675 0
M  V30 4312 H 387.233 3.24448 1.86237 0
M  V30 4313 H 388.566 4.2589 2.46736 0
M  V30 4314 N 390.218 -0.567019 1.47046 0
M  V30 4315 C 391.128 -1.70247 1.6141 0
M  V30 4316 C 392.144 -1.66746 0.497157 0
M  V30 4317 O 393.32 -1.86371 0.763389 0
M  V30 4318 C 390.385 -3.06756 1.61561 0
M  V30 4319 C 389.446 -3.21399 2.84607 0
M  V30 4320 C 388.679 -4.51396 2.84741 0
M  V30 4321 O 388.902 -5.36255 1.94388 0
M  V30 4322 O 387.836 -4.69621 3.76483 0
M  V30 4323 H 391.662 -1.61073 2.57467 0
M  V30 4324 H 389.247 -0.735894 1.30019 0
M  V30 4325 H 391.129 -3.8801 1.64396 0
M  V30 4326 H 389.804 -3.16333 0.686684 0
M  V30 4327 H 388.711 -2.39579 2.8732 0
M  V30 4328 H 390.044 -3.16721 3.76761 0
M  V30 4329 N 391.696 -1.35014 -0.812953 0
M  V30 4330 C 392.644 -1.27435 -1.94585 0
M  V30 4331 C 393.638 -0.170494 -1.6854 0
M  V30 4332 O 394.844 -0.336085 -1.76835 0
M  V30 4333 H 391.219 -0.396144 -0.639198 0
M  V30 4334 H 393.19 -2.23158 -1.98098 0
M  V30 4335 C 391.939 -1.05677 -3.31252 0
M  V30 4336 H 391.262 -1.89853 -3.51846 0
M  V30 4337 H 392.702 -1.04413 -4.10943 0
M  V30 4338 C 391.161 0.239615 -3.36047 0
M  V30 4339 O 391.691 1.23759 -3.8216 0
M  V30 4340 N 389.897 0.276186 -2.89285 0
M  V30 4341 H 389.444 -0.53653 -2.51951 0
M  V30 4342 H 389.402 1.14332 -2.92875 0
M  V30 4343 N 393.175 1.03435 -1.18907 0
M  V30 4344 C 394.452 1.73778 -0.89781 0
M  V30 4345 C 394.832 2.02458 0.597832 0
M  V30 4346 O 394.18 1.67482 1.55441 0
M  V30 4347 C 394.39 3.01845 -1.75187 0
M  V30 4348 C 395.738 3.7546 -1.9828 0
M  V30 4349 O 396.762 3.11759 -1.72293 0
M  V30 4350 O 395.621 4.89966 -2.42065 0
M  V30 4351 H 392.715 0.75651 -0.334098 0
M  V30 4352 H 395.261 1.09444 -1.29693 0
M  V30 4353 H 394.033 2.76836 -2.76545 0
M  V30 4354 H 393.656 3.73919 -1.35167 0
M  V30 4355 N 394.653 0.992116 1.22453 0
M  V30 4356 C 395.601 0.534644 2.26372 0
M  V30 4357 C 396.595 -0.414293 1.64256 0
M  V30 4358 O 397.801 -0.286899 1.77699 0
M  V30 4359 H 394.176 0.154502 0.735957 0
M  V30 4360 H 396.147 1.42256 2.62309 0
M  V30 4361 C 394.896 -0.135815 3.47435 0
M  V30 4362 H 394.219 0.585311 3.95492 0
M  V30 4363 H 395.659 -0.419374 4.21921 0
M  V30 4364 C 394.118 -1.37089 3.07747 0
M  V30 4365 O 394.648 -2.46629 3.17076 0
M  V30 4366 N 392.854 -1.24585 2.62539 0
M  V30 4367 H 392.401 -0.354542 2.55149 0
M  V30 4368 H 392.359 -2.07327 2.36353 0
M  V30 4369 N 396.131 -1.37776 0.765217 0
M  V30 4370 C 397.38 -1.99092 0.323307 0
M  V30 4371 C 397.693 -1.61434 -1.10446 0
M  V30 4372 O 398.899 -2.15805 -1.64743 0
M  V30 4373 C 397.355 -3.56019 0.527098 0
M  V30 4374 C 396.963 -4.0262 1.96471 0
M  V30 4375 C 398.707 -4.2424 0.148483 0
M  V30 4376 C 396.614 -5.52233 2.11644 0
M  V30 4377 H 395.544 -0.744846 0.117137 0
M  V30 4378 H 398.195 -1.57391 0.943417 0
M  V30 4379 H 396.577 -3.95667 -0.162372 0
M  V30 4380 H 397.751 -3.74234 2.68859 0
M  V30 4381 H 396.066 -3.47161 2.29931 0
M  V30 4382 H 398.663 -5.34159 0.240456 0
M  V30 4383 H 399.006 -4.06446 -0.900422 0
M  V30 4384 H 399.539 -3.89872 0.79025 0
M  V30 4385 H 396.278 -5.74945 3.1483 0
M  V30 4386 H 395.798 -5.82324 1.4373 0
M  V30 4387 H 397.477 -6.18106 1.91193 0
M  V30 4388 N 397.609 -0.515225 -1.4894 0
M  V30 4389 C 398.849 0.0223983 -2.04388 0
M  V30 4390 C 399.213 1.32961 -1.38511 0
M  V30 4391 O 400.414 1.95236 -1.8476 0
M  V30 4392 C 398.685 0.157056 -3.57055 0
M  V30 4393 S 400.244 0.646875 -4.34006 0
M  V30 4394 H 397.062 -0.00500662 -0.710982 0
M  V30 4395 H 399.664 -0.69243 -1.82827 0
M  V30 4396 H 398.368 -0.799412 -4.02539 0
M  V30 4397 H 397.899 0.896704 -3.83044 0
M  V30 4398 H 399.914 1.91381 -4.57808 0
M  V30 4399 N 399.087 1.5561 -0.249682 0
M  V30 4400 C 400.017 2.24477 0.642826 0
M  V30 4401 C 400.998 1.22601 1.17911 0
M  V30 4402 O 402.183 1.5126 1.21795 0
M  V30 4403 C 399.313 2.94638 1.83863 0
M  V30 4404 C 398.267 4.03227 1.435 0
M  V30 4405 C 397.593 4.60828 2.71186 0
M  V30 4406 C 398.893 5.18796 0.604002 0
M  V30 4407 H 400.587 2.99321 0.0685625 0
M  V30 4408 H 398.133 1.43965 0.0315363 0
M  V30 4409 H 400.086 3.41517 2.46868 0
M  V30 4410 H 398.81 2.17287 2.43832 0
M  V30 4411 H 397.469 3.57121 0.828275 0
M  V30 4412 H 397.117 3.80174 3.29358 0
M  V30 4413 H 396.817 5.34132 2.44901 0
M  V30 4414 H 398.341 5.10442 3.35084 0
M  V30 4415 H 399.755 5.61883 1.13842 0
M  V30 4416 H 398.152 5.98506 0.437097 0
M  V30 4417 H 399.222 4.83384 -0.383147 0
M  V30 4418 N 400.565 -0.0233959 1.57583 0
M  V30 4419 C 401.513 -1.04063 2.08023 0
M  V30 4420 C 402.507 -1.37084 0.995204 0
M  V30 4421 O 403.713 -1.35923 1.18004 0
M  V30 4422 H 400.088 -0.353144 0.663922 0
M  V30 4423 H 402.059 -0.589453 2.9252 0
M  V30 4424 C 400.808 -2.33123 2.57971 0
M  V30 4425 H 400.131 -2.08577 3.4108 0
M  V30 4426 H 401.571 -3.02632 2.96967 0
M  V30 4427 C 400.03 -3.02483 1.48342 0
M  V30 4428 O 400.56 -3.92541 0.852898 0
M  V30 4429 N 398.766 -2.63909 1.21658 0
M  V30 4430 H 398.313 -1.90758 1.73116 0
M  V30 4431 H 398.271 -3.10633 0.485218 0
M  V30 4432 N 402.043 -1.548 -0.295768 0
M  V30 4433 C 402.99 -1.86113 -1.36494 0
M  V30 4434 C 403.96 -0.7105 -1.50137 0
M  V30 4435 O 405.145 -0.959626 -1.64912 0
M  V30 4436 C 402.285 -2.11861 -2.72413 0
M  V30 4437 C 401.398 -3.39471 -2.67177 0
M  V30 4438 C 400.533 -3.55035 -3.95125 0
M  V30 4439 C 399.572 -4.76418 -3.84308 0
M  V30 4440 N 398.709 -4.8876 -5.04042 0
M  V30 4441 H 403.549 -2.77314 -1.09091 0
M  V30 4442 H 401.086 -1.37315 -0.52753 0
M  V30 4443 H 403.044 -2.24786 -3.51464 0
M  V30 4444 H 401.674 -1.2392 -2.98066 0
M  V30 4445 H 400.726 -3.35139 -1.79962 0
M  V30 4446 H 402.038 -4.28646 -2.55076 0
M  V30 4447 H 401.192 -3.67653 -4.82614 0
M  V30 4448 H 399.931 -2.64002 -4.10066 0
M  V30 4449 H 398.936 -4.63827 -2.95202 0
M  V30 4450 H 400.161 -5.68863 -3.70906 0
M  V30 4451 H 398.107 -4.00652 -5.19436 0
M  V30 4452 H 398.024 -5.71945 -4.94384 0
M  V30 4453 H 399.292 -5.0574 -5.93167 0
M  V30 4454 N 403.521 0.559213 -1.47345 0
M  V30 4455 C 404.431 1.69388 -1.62311 0
M  V30 4456 C 405.447 1.6648 -0.505993 0
M  V30 4457 O 406.623 1.85964 -0.773262 0
M  V30 4458 C 403.688 3.05894 -1.63185 0
M  V30 4459 C 402.749 3.19885 -2.86307 0
M  V30 4460 C 401.982 4.49879 -2.87131 0
M  V30 4461 O 402.205 5.35217 -1.97229 0
M  V30 4462 O 401.139 4.67618 -3.78968 0
M  V30 4463 H 404.965 1.59706 -2.58317 0
M  V30 4464 H 402.55 0.728989 -1.30407 0
M  V30 4465 H 404.432 3.87133 -1.66451 0
M  V30 4466 H 403.107 3.15964 -0.70345 0
M  V30 4467 H 402.014 2.38052 -2.88587 0
M  V30 4468 H 403.347 3.14718 -3.78435 0
M  V30 4469 N 404.999 1.35443 0.805782 0
M  V30 4470 C 406.247 1.28507 1.55982 0
M  V30 4471 C 406.568 -0.140046 1.94496 0
M  V30 4472 O 405.838 -1.07666 1.63661 0
M  V30 4473 H 404.418 0.472676 0.578434 0
M  V30 4474 H 407.08 1.69555 0.961098 0
M  V30 4475 H 406.176 1.90148 2.47488 0
M  V30 4476 N 406.477 -1.02803 1.19454 0
M  V30 4477 C 407.424 -2.11099 0.933046 0
M  V30 4478 C 408.394 -1.65571 -0.132447 0
M  V30 4479 O 409.579 -1.90797 0.00987576 0
M  V30 4480 C 406.719 -3.41763 0.478747 0
M  V30 4481 C 405.832 -4.00833 1.6111 0
M  V30 4482 C 404.967 -5.19511 1.10825 0
M  V30 4483 C 404.006 -5.70639 2.21445 0
M  V30 4484 N 403.143 -6.80589 1.72461 0
M  V30 4485 H 407.983 -2.32804 1.86028 0
M  V30 4486 H 405.52 -1.14179 0.927441 0
M  V30 4487 H 407.478 -4.16736 0.196745 0
M  V30 4488 H 406.108 -3.20166 -0.411493 0
M  V30 4489 H 405.16 -3.23066 2.00829 0
M  V30 4490 H 406.472 -4.34794 2.4445 0
M  V30 4491 H 405.626 -6.01645 0.781533 0
M  V30 4492 H 404.365 -4.87086 0.244606 0
M  V30 4493 H 403.37 -4.87116 2.54947 0
M  V30 4494 H 404.595 -6.05102 3.08267 0
M  V30 4495 H 402.541 -6.50016 0.884056 0
M  V30 4496 H 402.458 -7.13681 2.49389 0
M  V30 4497 H 403.726 -7.66317 1.42755 0
M  V30 4498 N 407.956 -0.998596 -1.21925 0
M  V30 4499 C 408.903 -0.553621 -2.24062 0
M  V30 4500 C 409.873 0.416999 -1.6078 0
M  V30 4501 O 411.058 0.320482 -1.88089 0
M  V30 4502 C 408.198 0.119959 -3.44891 0
M  V30 4503 C 407.311 -0.893077 -4.22668 0
M  V30 4504 C 406.446 -0.192424 -5.30851 0
M  V30 4505 C 405.485 -1.19344 -6.00353 0
M  V30 4506 N 404.622 -0.520707 -7.00166 0
M  V30 4507 H 409.462 -1.4293 -2.61486 0
M  V30 4508 H 406.999 -0.715838 -1.28507 0
M  V30 4509 H 408.957 0.527459 -4.13852 0
M  V30 4510 H 407.587 0.959389 -3.08214 0
M  V30 4511 H 406.639 -1.41886 -3.52948 0
M  V30 4512 H 407.951 -1.65512 -4.70539 0
M  V30 4513 H 407.105 0.271515 -6.06092 0
M  V30 4514 H 405.844 0.602075 -4.83969 0
M  V30 4515 H 404.849 -1.66795 -5.23889 0
M  V30 4516 H 406.074 -1.98891 -6.49322 0
M  V30 4517 H 404.02 0.254252 -6.55507 0
M  V30 4518 H 403.937 -1.2211 -7.46073 0
M  V30 4519 H 405.205 -0.0797596 -7.79459 0
M  V30 4520 N 409.434 1.37368 -0.772513 0
M  V30 4521 C 410.381 2.30262 -0.157488 0
M  V30 4522 C 411.351 1.51137 0.688965 0
M  V30 4523 O 412.536 1.79704 0.641168 0
M  V30 4524 C 409.676 3.37611 0.715045 0
M  V30 4525 C 408.789 4.31746 -0.148098 0
M  V30 4526 C 407.924 5.26171 0.729213 0
M  V30 4527 C 406.963 6.11948 -0.136418 0
M  V30 4528 N 406.1 6.98613 0.698914 0
M  V30 4529 H 410.94 2.82277 -0.955179 0
M  V30 4530 H 408.477 1.38957 -0.482631 0
M  V30 4531 H 410.435 3.98479 1.23575 0
M  V30 4532 H 409.065 2.86959 1.47833 0
M  V30 4533 H 408.117 3.72178 -0.786613 0
M  V30 4534 H 409.429 4.92084 -0.81579 0
M  V30 4535 H 408.583 5.92247 1.31637 0
M  V30 4536 H 407.322 4.66246 1.43059 0
M  V30 4537 H 406.327 5.4485 -0.736102 0
M  V30 4538 H 407.552 6.73945 -0.835134 0
M  V30 4539 H 405.498 6.41215 1.38489 0
M  V30 4540 H 405.415 7.55948 0.0885358 0
M  V30 4541 H 406.683 7.69077 1.27044 0
M  V30 4542 N 410.912 0.523116 1.48665 0
M  V30 4543 C 412.142 -0.00961724 2.06598 0
M  V30 4544 C 412.55 -1.29333 1.38093 0
M  V30 4545 O 411.893 -1.77846 0.46007 0
M  V30 4546 C 411.955 -0.311135 3.58151 0
M  V30 4547 C 411.619 0.878092 4.48485 0
M  V30 4548 C 412.616 1.77464 4.88674 0
M  V30 4549 C 410.301 1.08315 4.90483 0
M  V30 4550 C 412.295 2.86021 5.69623 0
M  V30 4551 C 409.982 2.17187 5.71203 0
M  V30 4552 C 410.98 3.05873 6.10681 0
M  V30 4553 O 410.668 4.12862 6.89783 0
M  V30 4554 H 410.4 0.0272658 0.67545 0
M  V30 4555 H 412.954 0.726156 1.92136 0
M  V30 4556 H 411.184 -1.10079 3.70701 0
M  V30 4557 H 412.873 -0.785125 3.98234 0
M  V30 4558 H 413.639 1.62813 4.56855 0
M  V30 4559 H 409.518 0.402149 4.59243 0
M  V30 4560 H 413.062 3.55272 6.00356 0
M  V30 4561 H 408.959 2.31824 6.02435 0
M  V30 4562 H 409.727 4.10487 7.08126 0
M  V30 4563 N 412.39 -1.55475 0.257931 0
M  V30 4564 C 413.639 -1.98383 -0.364275 0
M  V30 4565 C 413.952 -1.14952 -1.58258 0
M  V30 4566 O 415.158 -1.47924 -2.27664 0
M  V30 4567 C 413.614 -3.53037 -0.699479 0
M  V30 4568 C 413.222 -4.45223 0.498046 0
M  V30 4569 C 414.966 -4.04575 -1.28526 0
M  V30 4570 C 412.873 -5.91238 0.138383 0
M  V30 4571 H 411.803 -0.740911 -0.13988 0
M  V30 4572 H 414.454 -1.79936 0.359883 0
M  V30 4573 H 412.836 -3.6722 -1.48207 0
M  V30 4574 H 414.01 -4.42803 1.27522 0
M  V30 4575 H 412.325 -4.04226 0.999503 0
M  V30 4576 H 414.922 -5.11196 -1.56788 0
M  V30 4577 H 415.265 -3.5258 -2.21344 0
M  V30 4578 H 415.798 -3.93762 -0.565337 0
M  V30 4579 H 412.537 -6.47294 1.03398 0
M  V30 4580 H 412.057 -5.96768 -0.602374 0
M  V30 4581 H 413.736 -6.46413 -0.27553 0
M  V30 4582 N 413.868 0.0150385 -1.57593 0
M  V30 4583 C 415.098 0.713359 -1.93894 0
M  V30 4584 C 415.506 1.68663 -0.857289 0
M  V30 4585 O 414.849 1.82876 0.173788 0
M  V30 4586 C 414.911 1.51348 -3.26089 0
M  V30 4587 C 414.575 0.703451 -4.51554 0
M  V30 4588 C 415.572 -0.00237924 -5.199 0
M  V30 4589 C 413.257 0.653854 -4.98026 0
M  V30 4590 C 415.251 -0.746955 -6.33008 0
M  V30 4591 C 412.938 -0.0944578 -6.11027 0
M  V30 4592 C 413.936 -0.793609 -6.78374 0
M  V30 4593 O 413.624 -1.52974 -7.89211 0
M  V30 4594 H 413.356 0.204637 -0.644282 0
M  V30 4595 H 415.91 -0.0276411 -2.05381 0
M  V30 4596 H 414.14 2.29862 -3.10967 0
M  V30 4597 H 415.829 2.09572 -3.47612 0
M  V30 4598 H 416.595 0.0268803 -4.84993 0
M  V30 4599 H 412.474 1.18756 -4.45441 0
M  V30 4600 H 416.018 -1.2932 -6.85509 0
M  V30 4601 H 411.915 -0.125591 -6.45378 0
M  V30 4602 H 412.683 -1.44488 -8.05646 0
M  V30 4603 N 415.346 1.54954 0.287554 0
M  V30 4604 C 416.623 1.65569 1.04146 0
M  V30 4605 C 417.003 0.512672 2.0478 0
M  V30 4606 O 416.351 -0.489038 2.23205 0
M  V30 4607 C 416.561 3.04163 1.71131 0
M  V30 4608 C 417.909 3.61429 2.22832 0
M  V30 4609 O 418.933 3.06702 1.81141 0
M  V30 4610 O 417.792 4.57281 2.9926 0
M  V30 4611 H 414.886 0.671881 0.482188 0
M  V30 4612 H 417.432 1.67297 0.28457 0
M  V30 4613 H 416.204 3.78796 0.981303 0
M  V30 4614 H 415.827 3.06271 2.53543 0
M  V30 4615 N 416.824 -0.551391 1.4764 0
M  V30 4616 C 418.073 -1.30467 1.53822 0
M  V30 4617 C 418.386 -1.94495 0.207661 0
M  V30 4618 O 419.592 -2.71099 0.147533 0
M  V30 4619 C 418.048 -2.36616 2.71184 0
M  V30 4620 C 417.656 -1.78754 4.10793 0
M  V30 4621 C 419.4 -3.13088 2.86663 0
M  V30 4622 C 417.307 -2.82717 5.19447 0
M  V30 4623 H 416.237 -0.490584 0.572576 0
M  V30 4624 H 418.888 -0.58494 1.73927 0
M  V30 4625 H 417.27 -3.11529 2.4447 0
M  V30 4626 H 418.444 -1.10173 4.47435 0
M  V30 4627 H 416.759 -1.14846 4.00249 0
M  V30 4628 H 419.356 -3.90736 3.65007 0
M  V30 4629 H 419.699 -3.67635 1.95321 0
M  V30 4630 H 420.232 -2.45288 3.13175 0
M  V30 4631 H 416.971 -2.33018 6.12685 0
M  V30 4632 H 416.491 -3.4969 4.87316 0
M  V30 4633 H 418.17 -3.46102 5.46646 0
M  V30 4634 N 418.302 -1.35869 -0.798587 0
M  V30 4635 C 419.249 -1.29446 -1.91082 0
M  V30 4636 C 420.219 -0.16487 -1.6528 0
M  V30 4637 O 421.404 -0.349888 -1.87564 0
M  V30 4638 C 418.544 -1.0804 -3.27752 0
M  V30 4639 C 417.657 -2.29993 -3.65687 0
M  V30 4640 C 416.792 -2.01673 -4.91428 0
M  V30 4641 C 415.831 -3.19636 -5.22015 0
M  V30 4642 N 414.968 -2.91039 -6.38937 0
M  V30 4643 H 419.808 -2.24553 -1.95907 0
M  V30 4644 H 417.345 -1.11615 -0.958148 0
M  V30 4645 H 419.303 -0.936586 -4.06551 0
M  V30 4646 H 417.933 -0.16592 -3.22373 0
M  V30 4647 H 416.985 -2.55211 -2.82085 0
M  V30 4648 H 418.297 -3.18052 -3.84245 0
M  V30 4649 H 417.451 -1.84168 -5.78072 0
M  V30 4650 H 416.19 -1.10911 -4.74921 0
M  V30 4651 H 415.195 -3.37709 -4.33858 0
M  V30 4652 H 416.42 -4.11211 -5.40447 0
M  V30 4653 H 414.366 -2.0288 -6.2384 0
M  V30 4654 H 414.283 -3.72635 -6.57784 0
M  V30 4655 H 415.551 -2.77093 -7.28587 0
M  V30 4656 N 419.78 1.02168 -1.19998 0
M  V30 4657 C 420.727 2.10601 -0.944228 0
M  V30 4658 C 421.697 1.65639 0.123664 0
M  V30 4659 O 422.882 1.9079 -0.0199941 0
M  V30 4660 C 420.022 3.41504 -0.496865 0
M  V30 4661 C 419.135 3.99973 -1.63234 0
M  V30 4662 C 418.27 5.18915 -1.13579 0
M  V30 4663 C 417.309 5.69456 -2.24468 0
M  V30 4664 N 416.446 6.79665 -1.76068 0
M  V30 4665 H 421.286 2.31814 -1.8726 0
M  V30 4666 H 418.823 1.13686 -0.933483 0
M  V30 4667 H 420.781 4.16626 -0.218843 0
M  V30 4668 H 419.411 3.2038 0.394508 0
M  V30 4669 H 418.463 3.21997 -2.0254 0
M  V30 4670 H 419.775 4.33492 -2.46752 0
M  V30 4671 H 418.929 6.01222 -0.813429 0
M  V30 4672 H 417.668 4.8695 -0.270434 0
M  V30 4673 H 416.673 4.85757 -2.57526 0
M  V30 4674 H 417.898 6.03459 -3.11472 0
M  V30 4675 H 415.844 6.49538 -0.918516 0
M  V30 4676 H 415.761 7.12349 -2.5317 0
M  V30 4677 H 417.029 7.65549 -1.46817 0
M  V30 4678 N 421.258 1.00505 1.21394 0
M  V30 4679 C 422.498 0.696149 1.9218 0
M  V30 4680 C 422.862 -0.759099 1.76357 0
M  V30 4681 O 424.063 -1.17998 2.41516 0
M  V30 4682 C 422.334 1.10571 3.39866 0
M  V30 4683 S 423.893 0.91702 4.29111 0
M  V30 4684 H 420.711 0.254147 0.664026 0
M  V30 4685 H 423.313 1.28988 1.46909 0
M  V30 4686 H 422.017 2.16096 3.489 0
M  V30 4687 H 421.548 0.504268 3.90155 0
M  V30 4688 H 423.563 -0.185855 4.95852 0
M  V30 4689 N 422.737 -1.36956 0.779787 0
M  V30 4690 C 423.684 -2.30175 0.169697 0
M  V30 4691 C 424.654 -1.51501 -0.68094 0
M  V30 4692 O 425.839 -1.80042 -0.631629 0
M  V30 4693 C 422.979 -3.37985 -0.697131 0
M  V30 4694 C 422.092 -4.31661 0.170992 0
M  V30 4695 C 421.227 -5.2655 -0.701298 0
M  V30 4696 C 420.266 -6.11867 0.168869 0
M  V30 4697 N 419.403 -6.98973 -0.661855 0
M  V30 4698 H 424.243 -2.81767 0.970135 0
M  V30 4699 H 421.78 -1.38699 0.489994 0
M  V30 4700 H 423.738 -3.99128 -1.2146 0
M  V30 4701 H 422.368 -2.87739 -1.46309 0
M  V30 4702 H 421.42 -3.71756 0.80634 0
M  V30 4703 H 422.732 -4.91644 0.841875 0
M  V30 4704 H 421.886 -5.92937 -1.28494 0
M  V30 4705 H 420.625 -4.66998 -1.40584 0
M  V30 4706 H 419.63 -5.44452 0.764986 0
M  V30 4707 H 420.855 -6.73493 0.870863 0
M  V30 4708 H 418.801 -6.41941 -1.35086 0
M  V30 4709 H 418.718 -7.55984 -0.0484447 0
M  V30 4710 H 419.986 -7.6974 -1.22963 0
M  V30 4711 N 424.215 -0.530993 -1.48385 0
M  V30 4712 C 425.125 0.23503 -2.3342 0
M  V30 4713 C 426.141 0.93801 -1.46552 0
M  V30 4714 O 427.317 0.912745 -1.7953 0
M  V30 4715 C 424.382 1.26778 -3.22689 0
M  V30 4716 C 423.443 0.575038 -4.25431 0
M  V30 4717 C 422.676 1.55858 -5.10435 0
M  V30 4718 O 422.899 2.79129 -4.97437 0
M  V30 4719 O 421.833 1.09742 -5.91811 0
M  V30 4720 H 425.659 -0.461794 -3.00169 0
M  V30 4721 H 423.244 -0.291903 -1.46521 0
M  V30 4722 H 425.126 1.86457 -3.77904 0
M  V30 4723 H 423.801 1.94699 -2.586 0
M  V30 4724 H 422.708 -0.0622782 -3.74048 0
M  V30 4725 H 424.041 -0.062253 -4.92161 0
M  V30 4726 N 425.693 1.55336 -0.266172 0
M  V30 4727 C 426.623 2.25146 0.618981 0
M  V30 4728 C 427.604 1.23845 1.16604 0
M  V30 4729 O 428.789 1.52544 1.20183 0
M  V30 4730 C 425.919 2.96572 1.80728 0
M  V30 4731 C 424.873 4.04726 1.39215 0
M  V30 4732 C 424.199 4.63678 2.66283 0
M  V30 4733 C 425.499 5.19407 0.548942 0
M  V30 4734 H 427.193 2.99377 0.0368116 0
M  V30 4735 H 424.739 1.43991 0.0162651 0
M  V30 4736 H 426.692 3.44116 2.43232 0
M  V30 4737 H 425.416 2.19861 2.41514 0
M  V30 4738 H 424.075 3.57979 0.790351 0
M  V30 4739 H 423.723 3.83646 3.25308 0
M  V30 4740 H 423.423 5.367 2.39222 0
M  V30 4741 H 424.947 5.13967 3.29651 0
M  V30 4742 H 426.361 5.63059 1.07876 0
M  V30 4743 H 424.758 5.98936 0.373593 0
M  V30 4744 H 425.828 4.8295 -0.434394 0
M  V30 4745 N 427.171 -0.0066808 1.57599 0
M  V30 4746 C 428.418 -0.69292 1.90276 0
M  V30 4747 C 428.746 -1.74148 0.866192 0
M  V30 4748 O 428.001 -1.95268 -0.129933 0
M  V30 4749 C 428.3 -1.37939 3.29708 0
M  V30 4750 C 427.966 -0.464679 4.48499 0
M  V30 4751 C 426.628 -0.212809 4.80729 0
M  V30 4752 C 428.98 0.16551 5.20937 0
M  V30 4753 C 426.308 0.677653 5.82773 0
M  V30 4754 C 428.66 1.04381 6.23929 0
M  V30 4755 C 427.324 1.30492 6.54621 0
M  V30 4756 H 426.594 -0.253558 0.696268 0
M  V30 4757 H 429.241 0.0474123 1.91441 0
M  V30 4758 H 427.546 -2.1936 3.24636 0
M  V30 4759 H 429.243 -1.9163 3.52249 0
M  V30 4760 H 425.833 -0.671153 4.23313 0
M  V30 4761 H 430.017 -0.0160756 4.96297 0
M  V30 4762 H 425.273 0.88803 6.04917 0
M  V30 4763 H 429.447 1.53851 6.79193 0
M  V30 4764 H 427.074 1.99662 7.33512 0
M  V30 4765 N 428.649 -1.55105 -0.279332 0
M  V30 4766 C 429.579 -1.90557 -1.34945 0
M  V30 4767 C 430.56 -0.766738 -1.51839 0
M  V30 4768 O 431.745 -1.02434 -1.64988 0
M  V30 4769 C 428.875 -2.17193 -2.71006 0
M  V30 4770 C 427.829 -3.33021 -2.68851 0
M  V30 4771 C 427.155 -3.45123 -4.08405 0
M  V30 4772 C 428.455 -4.69578 -2.28678 0
M  V30 4773 H 430.149 -2.80188 -1.05522 0
M  V30 4774 H 427.695 -1.34811 -0.506173 0
M  V30 4775 H 429.648 -2.40581 -3.45975 0
M  V30 4776 H 428.372 -1.24355 -3.01999 0
M  V30 4777 H 427.031 -3.0959 -1.9634 0
M  V30 4778 H 426.679 -2.49762 -4.3661 0
M  V30 4779 H 426.379 -4.22995 -4.07859 0
M  V30 4780 H 427.903 -3.70796 -4.85121 0
M  V30 4781 H 429.317 -4.92553 -2.93368 0
M  V30 4782 H 427.714 -5.5032 -2.39306 0
M  V30 4783 H 428.784 -4.68828 -1.23807 0
M  V30 4784 N 430.127 0.543554 -1.4793 0
M  V30 4785 C 431.074 1.64942 -1.6144 0
M  V30 4786 C 432.044 1.59692 -0.456903 0
M  V30 4787 O 433.229 1.78321 -0.678688 0
M  V30 4788 C 430.369 3.03238 -1.64744 0
M  V30 4789 C 429.482 3.18823 -2.91506 0
M  V30 4790 C 428.617 4.47599 -2.86057 0
M  V30 4791 C 427.656 4.56664 -4.07584 0
M  V30 4792 N 426.793 5.76811 -4.00292 0
M  V30 4793 H 431.633 1.52733 -2.55884 0
M  V30 4794 H 429.17 0.7438 -1.2691 0
M  V30 4795 H 431.128 3.83339 -1.64641 0
M  V30 4796 H 429.758 3.1425 -0.738017 0
M  V30 4797 H 428.81 2.32064 -3.01414 0
M  V30 4798 H 430.122 3.21384 -3.81463 0
M  V30 4799 H 429.276 5.35975 -2.84281 0
M  V30 4800 H 428.015 4.47538 -1.93807 0
M  V30 4801 H 427.02 3.66697 -4.09651 0
M  V30 4802 H 428.245 4.58474 -5.00978 0
M  V30 4803 H 426.191 5.77673 -3.10853 0
M  V30 4804 H 426.108 5.80808 -4.8394 0
M  V30 4805 H 427.376 6.67512 -4.02553 0
M  V30 4806 N 431.605 1.3629 0.791371 0
M  V30 4807 C 432.882 1.20962 1.53712 0
M  V30 4808 C 433.262 -0.205021 2.10102 0
M  V30 4809 O 432.61 -1.21042 1.93807 0
M  V30 4810 C 432.82 2.29002 2.63361 0
M  V30 4811 C 434.168 2.65572 3.31295 0
M  V30 4812 O 435.192 2.2803 2.73643 0
M  V30 4813 O 434.051 3.3018 4.35481 0
M  V30 4814 H 431.145 0.47086 0.679867 0
M  V30 4815 H 433.691 1.48016 0.830021 0
M  V30 4816 H 432.463 3.2382 2.19674 0
M  V30 4817 H 432.086 2.03303 3.41692 0
M  V30 4818 N 433.083 -1.0153 1.20538 0
M  V30 4819 C 434.332 -1.74558 1.01057 0
M  V30 4820 C 434.645 -1.90168 -0.457756 0
M  V30 4821 O 435.851 -2.60301 -0.771722 0
M  V30 4822 C 434.307 -3.13963 1.75941 0
M  V30 4823 C 433.915 -3.06361 3.26875 0
M  V30 4824 C 435.659 -3.91191 1.64832 0
M  V30 4825 C 433.566 -4.40782 3.94291 0
M  V30 4826 H 432.496 -0.654417 0.374505 0
M  V30 4827 H 435.147 -1.13521 1.44171 0
M  V30 4828 H 433.529 -3.75549 1.25614 0
M  V30 4829 H 434.703 -2.54074 3.84425 0
M  V30 4830 H 433.018 -2.42625 3.38411 0
M  V30 4831 H 435.615 -4.90644 2.12539 0
M  V30 4832 H 435.958 -4.11884 0.604745 0
M  V30 4833 H 436.491 -3.36236 2.12579 0
M  V30 4834 H 433.23 -4.25292 4.98805 0
M  V30 4835 H 432.75 -4.9307 3.41529 0
M  V30 4836 H 434.429 -5.09621 3.98617 0
M  V30 4837 N 434.561 -1.01147 -1.20859 0
M  V30 4838 C 435.493 -0.535546 -2.22855 0
M  V30 4839 C 436.506 0.379323 -1.58319 0
M  V30 4840 O 437.695 0.178489 -1.77605 0
M  V30 4841 C 434.795 0.240962 -3.38042 0
M  V30 4842 C 433.968 -0.674562 -4.32167 0
M  V30 4843 C 433.027 0.053467 -5.26173 0
M  V30 4844 O 432.053 -0.567339 -5.66366 0
M  V30 4845 N 433.255 1.32997 -5.65059 0
M  V30 4846 H 436.02 -1.41268 -2.64317 0
M  V30 4847 H 433.581 -0.888386 -1.35349 0
M  V30 4848 H 435.573 0.737115 -3.97931 0
M  V30 4849 H 434.143 1.01935 -2.95513 0
M  V30 4850 H 433.363 -1.35111 -3.70322 0
M  V30 4851 H 434.651 -1.2974 -4.91981 0
M  V30 4852 H 434.049 1.85536 -5.34409 0
M  V30 4853 H 432.606 1.77095 -6.2728 0
M  V30 4854 N 436.039 1.36541 -0.78704 0
M  V30 4855 C 437.264 2.0409 -0.369053 0
M  V30 4856 C 437.689 1.58957 1.00569 0
M  V30 4857 O 437.047 0.756926 1.64743 0
M  V30 4858 C 437.095 3.57924 -0.438466 0
M  V30 4859 O 436.199 4.08642 0.555479 0
M  V30 4860 H 435.54 0.645142 -0.157122 0
M  V30 4861 H 438.07 1.74545 -1.06749 0
M  V30 4862 H 438.08 4.06887 -0.301218 0
M  V30 4863 H 436.755 3.90127 -1.44132 0
M  V30 4864 H 435.332 3.70958 0.380088 0
M  V30 4865 N 437.518 0.538854 1.48102 0
M  V30 4866 C 438.466 -0.232325 2.31437 0
M  V30 4867 C 439.46 -0.927004 1.41785 0
M  V30 4868 O 440.666 -0.850378 1.58646 0
M  V30 4869 H 437.041 -0.0937916 0.746128 0
M  V30 4870 H 439.012 0.489986 2.9435 0
M  V30 4871 C 437.761 -1.26074 3.24038 0
M  V30 4872 H 437.084 -0.735609 3.92974 0
M  V30 4873 H 438.524 -1.77157 3.85216 0
M  V30 4874 C 436.983 -2.29902 2.46265 0
M  V30 4875 O 437.513 -3.36502 2.19384 0
M  V30 4876 N 435.719 -2.03348 2.07601 0
M  V30 4877 H 435.266 -1.16675 2.29662 0
M  V30 4878 H 435.224 -2.73038 1.55877 0
M  V30 4879 N 438.996 -1.55193 0.274407 0
M  V30 4880 C 439.944 -2.23924 -0.629362 0
M  V30 4881 C 440.938 -1.23602 -1.1584 0
M  V30 4882 O 442.144 -1.41535 -1.11211 0
M  V30 4883 H 438.519 -0.718637 -0.221507 0
M  V30 4884 H 440.49 -2.98388 -0.0268322 0
M  V30 4885 C 439.239 -2.97329 -1.80252 0
M  V30 4886 H 438.562 -3.74313 -1.40462 0
M  V30 4887 H 440.002 -3.48743 -2.41152 0
M  V30 4888 C 438.461 -2.0276 -2.69054 0
M  V30 4889 O 438.991 -1.57836 -3.69392 0
M  V30 4890 N 437.197 -1.69275 -2.36208 0
M  V30 4891 H 436.744 -2.06004 -1.54661 0
M  V30 4892 H 436.702 -1.06271 -2.95895 0
M  V30 4893 N 440.474 -0.00167713 -1.576 0
M  V30 4894 C 441.89 0.354422 -1.55615 0
M  V30 4895 C 442.09 1.74679 -1.00447 0
M  V30 4896 O 441.146 2.4428 -0.639022 0
M  V30 4897 C 442.459 0.22812 -2.99833 0
M  V30 4898 C 444.007 0.302934 -3.11531 0
M  V30 4899 C 444.482 0.205737 -4.57538 0
M  V30 4900 N 445.973 0.263584 -4.62449 0
M  V30 4901 C 446.708 0.211742 -5.73009 0
M  V30 4902 N 446.204 0.110399 -6.92712 0
M  V30 4903 N 447.997 0.263729 -5.61481 0
M  V30 4904 H 440.148 -0.912498 -1.918 0
M  V30 4905 H 442.411 -0.349928 -0.881053 0
M  V30 4906 H 442.117 -0.729934 -3.44042 0
M  V30 4907 H 441.991 1.00951 -3.6344 0
M  V30 4908 H 444.378 1.25143 -2.67251 0
M  V30 4909 H 444.459 -0.508357 -2.50698 0
M  V30 4910 H 444.103 -0.739225 -5.02492 0
M  V30 4911 H 444.033 1.03554 -5.16318 0
M  V30 4912 H 446.524 0.343173 -3.76339 0
M  V30 4913 H 446.837 0.0767828 -7.72762 0
M  V30 4914 H 445.182 0.0760025 -6.94958 0
M  V30 4915 H 448.373 0.34111 -4.66855 0
M  V30 4916 H 448.546 0.219862 -6.47627 0
M  V30 4917 N 441.952 1.55251 0.271103 0
M  V30 4918 C 443.363 1.66635 0.842007 0
M  V30 4919 C 443.714 0.594631 1.86972 0
M  V30 4920 O 442.839 -0.263532 2.14789 0
M  V30 4921 C 443.434 3.02082 1.53401 0
M  V30 4922 C 441.993 3.15487 2.05293 0
M  V30 4923 C 441.14 2.62438 0.895631 0
M  V30 4924 H 444.091 1.58629 0.0474117 0
M  V30 4925 H 444.112 2.95176 2.40107 0
M  V30 4926 H 443.624 3.80062 0.785786 0
M  V30 4927 H 441.725 2.42284 2.83071 0
M  V30 4928 H 441.838 4.22075 2.26693 0
M  V30 4929 H 440.202 2.19644 1.28953 0
M  V30 4930 H 440.985 3.42923 0.160878 0
M  V30 4931 N 443.43 -0.535701 1.48216 0
M  V30 4932 C 444.676 -1.2913 1.57153 0
M  V30 4933 C 445.031 -1.90899 0.239823 0
M  V30 4934 O 444.324 -1.76022 -0.756748 0
M  V30 4935 C 444.518 -2.4068 2.64212 0
M  V30 4936 C 444.347 -1.89844 4.07663 0
M  V30 4937 C 443.117 -1.72708 4.74869 0
M  V30 4938 C 445.315 -1.43031 4.94011 0
M  V30 4939 N 443.297 -1.16437 6.02757 0
M  V30 4940 C 444.668 -0.986691 6.12098 0
M  V30 4941 C 446.723 -1.3128 4.80281 0
M  V30 4942 C 445.426 -0.437231 7.1797 0
M  V30 4943 C 447.452 -0.777346 5.86269 0
M  V30 4944 C 446.814 -0.343774 7.03561 0
M  V30 4945 H 442.913 -0.463753 0.629648 0
M  V30 4946 H 445.497 -0.604736 1.8507 0
M  V30 4947 H 443.668 -3.06839 2.38126 0
M  V30 4948 H 445.4 -3.07706 2.62867 0
M  V30 4949 H 442.155 -1.96061 4.31111 0
M  V30 4950 H 442.579 -0.903281 6.70947 0
M  V30 4951 H 447.221 -1.63408 3.89946 0
M  V30 4952 H 444.939 -0.103621 8.08034 0
M  V30 4953 H 448.525 -0.689688 5.77698 0
M  V30 4954 H 447.405 0.0641219 7.84174 0
M  V30 4955 N 444.908 -1.36708 -0.784132 0
M  V30 4956 C 446.324 -1.17237 -1.08294 0
M  V30 4957 C 446.524 -5.93947e-05 -2.015 0
M  V30 4958 O 445.58 0.663686 -2.43622 0
M  V30 4959 C 446.893 -2.48557 -1.69233 0
M  V30 4960 C 448.441 -2.54968 -1.8155 0
M  V30 4961 C 448.916 -3.86388 -2.45904 0
M  V30 4962 N 450.407 -3.87762 -2.53367 0
M  V30 4963 C 451.142 -4.86191 -3.03983 0
M  V30 4964 N 450.638 -5.95015 -3.54866 0
M  V30 4965 N 452.431 -4.73606 -3.02743 0
M  V30 4966 H 444.582 -2.11758 -0.16501 0
M  V30 4967 H 446.845 -0.93822 -0.135822 0
M  V30 4968 H 446.551 -3.34638 -1.08215 0
M  V30 4969 H 446.425 -2.64748 -2.68679 0
M  V30 4970 H 448.812 -1.69302 -2.41704 0
M  V30 4971 H 448.893 -2.42672 -0.80895 0
M  V30 4972 H 448.537 -4.72462 -1.86392 0
M  V30 4973 H 448.467 -3.95982 -3.4714 0
M  V30 4974 H 450.958 -3.09145 -2.17343 0
M  V30 4975 H 451.271 -6.66086 -3.91854 0
M  V30 4976 H 449.616 -5.98676 -3.53003 0
M  V30 4977 H 452.807 -3.87717 -2.62284 0
M  V30 4978 H 452.98 -5.50473 -3.41881 0
M  V30 4979 N 446.386 1.0089 -1.21074 0
M  V30 4980 C 447.802 1.2695 -0.967257 0
M  V30 4981 C 448.002 1.9846 0.348673 0
M  V30 4982 O 447.058 2.28459 1.0753 0
M  V30 4983 C 448.371 2.09697 -2.15517 0
M  V30 4984 C 449.919 2.22937 -2.197 0
M  V30 4985 C 450.394 3.09064 -3.37999 0
M  V30 4986 N 451.885 3.16653 -3.38061 0
M  V30 4987 C 452.62 3.8354 -4.26245 0
M  V30 4988 N 452.116 4.52488 -5.2462 0
M  V30 4989 N 453.909 3.80141 -4.14064 0
M  V30 4990 H 446.06 0.529005 -2.05707 0
M  V30 4991 H 448.323 0.296148 -0.900556 0
M  V30 4992 H 448.029 1.64497 -3.10859 0
M  V30 4993 H 447.903 3.10444 -2.14253 0
M  V30 4994 H 450.29 2.67357 -1.24916 0
M  V30 4995 H 450.371 1.21673 -2.2501 0
M  V30 4996 H 450.015 2.65347 -4.33074 0
M  V30 4997 H 449.945 4.10433 -3.29928 0
M  V30 4998 H 452.436 2.67566 -2.66865 0
M  V30 4999 H 452.749 5.01219 -5.88217 0
M  V30 5000 H 451.094 4.51288 -5.28549 0
M  V30 5001 H 454.285 3.25427 -3.36474 0
M  V30 5002 H 454.458 4.31992 -4.82998 0
M  V30 5003 N 447.864 1.01787 1.20321 0
M  V30 5004 C 449.275 0.739307 1.71438 0
M  V30 5005 C 449.626 -0.742041 1.81627 0
M  V30 5006 O 448.751 -1.57903 1.47971 0
M  V30 5007 C 449.346 1.33538 3.11373 0
M  V30 5008 C 447.905 1.10566 3.59795 0
M  V30 5009 C 447.052 1.44028 2.36962 0
M  V30 5010 H 450.003 1.18718 1.05317 0
M  V30 5011 H 450.024 0.726611 3.73498 0
M  V30 5012 H 449.536 2.41352 3.03926 0
M  V30 5013 H 447.637 0.0452405 3.72573 0
M  V30 5014 H 447.75 1.78661 4.44542 0
M  V30 5015 H 446.114 0.85933 2.39766 0
M  V30 5016 H 446.897 2.52901 2.32155 0
M  V30 5017 N 449.342 -1.36122 0.79427 0
M  V30 5018 C 450.252 -2.33769 0.197296 0
M  V30 5019 C 451.268 -1.61276 -0.653153 0
M  V30 5020 O 452.444 -1.9323 -0.5678 0
M  V30 5021 C 449.509 -3.40474 -0.654098 0
M  V30 5022 C 448.57 -4.28759 0.215411 0
M  V30 5023 C 447.803 -5.30368 -0.595443 0
M  V30 5024 O 448.026 -5.40211 -1.83107 0
M  V30 5025 O 446.96 -6.019 0.00721351 0
M  V30 5026 H 450.786 -2.86597 1.00478 0
M  V30 5027 H 448.371 -1.38676 0.555818 0
M  V30 5028 H 450.253 -4.05703 -1.13944 0
M  V30 5029 H 448.928 -2.89937 -1.43938 0
M  V30 5030 H 447.835 -3.66554 0.747615 0
M  V30 5031 H 449.168 -4.82661 0.964332 0
M  V30 5032 N 450.82 -0.546701 -1.47814 0
M  V30 5033 C 451.768 0.220048 -2.31557 0
M  V30 5034 C 452.762 0.919472 -1.42275 0
M  V30 5035 O 453.968 0.841953 -1.59095 0
M  V30 5036 H 450.343 0.0898334 -0.746615 0
M  V30 5037 H 452.314 -0.505589 -2.94086 0
M  V30 5038 C 451.063 1.24353 -3.24702 0
M  V30 5039 H 450.386 0.714758 -3.93359 0
M  V30 5040 H 451.826 1.75112 -3.8615 0
M  V30 5041 C 450.285 2.28593 -2.47481 0
M  V30 5042 O 450.815 3.35334 -2.21165 0
M  V30 5043 N 449.021 2.02244 -2.08676 0
M  V30 5044 H 448.568 1.15455 -2.30278 0
M  V30 5045 H 448.526 2.72207 -1.57323 0
M  V30 5046 N 452.299 1.55045 -0.282633 0
M  V30 5047 C 453.548 1.98938 0.332667 0
M  V30 5048 C 453.861 1.17455 1.56409 0
M  V30 5049 O 455.067 1.51527 2.25282 0
M  V30 5050 C 453.523 3.54105 0.643226 0
M  V30 5051 C 453.131 4.44374 -0.568814 0
M  V30 5052 C 454.875 4.06569 1.22074 0
M  V30 5053 C 452.782 5.90943 -0.232426 0
M  V30 5054 H 451.712 0.743043 0.128075 0
M  V30 5055 H 454.363 1.79341 -0.388464 0
M  V30 5056 H 452.745 3.69532 1.42346 0
M  V30 5057 H 453.919 4.40718 -1.34551 0
M  V30 5058 H 452.234 4.02585 -1.06369 0
M  V30 5059 H 454.831 5.13626 1.48635 0
M  V30 5060 H 455.174 3.56057 2.15707 0
M  V30 5061 H 455.707 3.94612 0.502621 0
M  V30 5062 H 452.446 6.45567 -1.13683 0
M  V30 5063 H 451.966 5.9765 0.507357 0
M  V30 5064 H 453.645 6.4677 0.172657 0
M  V30 5065 N 453.777 0.010035 1.57597 0
M  V30 5066 C 454.687 -0.994226 2.12491 0
M  V30 5067 C 455.703 -1.37013 1.07254 0
M  V30 5068 O 456.879 -1.45542 1.3921 0
M  V30 5069 C 453.944 -2.2642 2.62555 0
M  V30 5070 C 453.005 -1.95049 3.82432 0
M  V30 5071 C 452.238 -3.15991 4.30099 0
M  V30 5072 O 452.461 -4.28015 3.7704 0
M  V30 5073 O 451.395 -2.99403 5.22151 0
M  V30 5074 H 455.221 -0.557549 2.98538 0
M  V30 5075 H 452.806 -0.209413 1.47925 0
M  V30 5076 H 454.688 -3.01009 2.9491 0
M  V30 5077 H 453.363 -2.69306 1.796 0
M  V30 5078 H 452.27 -1.17904 3.55034 0
M  V30 5079 H 453.603 -1.56992 4.66491 0
M  V30 5080 N 455.255 -1.55392 -0.262866 0
M  V30 5081 C 456.202 -1.88966 -1.32516 0
M  V30 5082 C 457.172 -0.742187 -1.48596 0
M  V30 5083 O 458.357 -0.99439 -1.62839 0
M  V30 5084 C 455.497 -2.17592 -2.67858 0
M  V30 5085 C 454.61 -3.45061 -2.59917 0
M  V30 5086 C 453.745 -3.63336 -3.87505 0
M  V30 5087 C 452.784 -4.84462 -3.74116 0
M  V30 5088 N 451.921 -4.99342 -4.93561 0
M  V30 5089 H 456.761 -2.79566 -1.03184 0
M  V30 5090 H 454.298 -1.38404 -0.498285 0
M  V30 5091 H 456.256 -2.3219 -3.46617 0
M  V30 5092 H 454.886 -1.30215 -2.95371 0
M  V30 5093 H 453.938 -3.38881 -1.72812 0
M  V30 5094 H 455.25 -4.3396 -2.45926 0
M  V30 5095 H 454.404 -3.77807 -4.74707 0
M  V30 5096 H 453.143 -2.72641 -4.04374 0
M  V30 5097 H 452.148 -4.69985 -2.85297 0
M  V30 5098 H 453.373 -5.76603 -3.58757 0
M  V30 5099 H 451.319 -4.1158 -5.10821 0
M  V30 5100 H 451.236 -5.82303 -4.82141 0
M  V30 5101 H 452.504 -5.18208 -5.82306 0
M  V30 5102 N 456.733 0.527833 -1.48498 0
M  V30 5103 C 458.149 0.856571 -1.34666 0
M  V30 5104 C 458.349 1.98271 -0.35931 0
M  V30 5105 O 457.405 2.51551 0.218703 0
M  V30 5106 C 458.718 1.22207 -2.74747 0
M  V30 5107 C 460.266 1.33183 -2.83251 0
M  V30 5108 C 460.741 1.73075 -4.24039 0
M  V30 5109 N 462.232 1.80174 -4.26722 0
M  V30 5110 C 462.967 2.1243 -5.32598 0
M  V30 5111 N 462.463 2.43096 -6.4875 0
M  V30 5112 N 464.256 2.13454 -5.19994 0
M  V30 5113 H 456.407 -0.215174 -2.11307 0
M  V30 5114 H 458.67 -0.0336281 -0.947403 0
M  V30 5115 H 458.376 0.468195 -3.4857 0
M  V30 5116 H 458.25 2.17173 -3.08409 0
M  V30 5117 H 460.637 2.07647 -2.09683 0
M  V30 5118 H 460.718 0.363333 -2.53206 0
M  V30 5119 H 460.362 0.991712 -4.98124 0
M  V30 5120 H 460.292 2.70979 -4.51529 0
M  V30 5121 H 462.783 1.58744 -3.42942 0
M  V30 5122 H 463.096 2.6682 -7.25277 0
M  V30 5123 H 461.441 2.40611 -6.52021 0
M  V30 5124 H 464.632 1.88956 -4.28268 0
M  V30 5125 H 464.805 2.38261 -6.02608 0
M  V30 5126 N 458.211 1.37122 0.776871 0
M  V30 5127 C 459.121 1.34651 1.9211 0
M  V30 5128 C 460.137 0.246824 1.7224 0
M  V30 5129 O 461.313 0.48134 1.95563 0
M  V30 5130 C 458.378 1.14748 3.2716 0
M  V30 5131 C 457.439 2.34308 3.5972 0
M  V30 5132 C 456.672 2.15345 4.88326 0
M  V30 5133 O 456.895 1.13507 5.58992 0
M  V30 5134 O 455.829 3.03414 5.1983 0
M  V30 5135 H 459.655 2.31013 1.97146 0
M  V30 5136 H 457.24 1.17799 0.918901 0
M  V30 5137 H 459.122 1.05616 4.0795 0
M  V30 5138 H 457.797 0.214562 3.22988 0
M  V30 5139 H 456.704 2.49011 2.79185 0
M  V30 5140 H 458.037 3.26149 3.68629 0
M  V30 5141 N 459.689 -1.00246 1.21608 0
M  V30 5142 C 460.937 -1.73717 1.0328 0
M  V30 5143 C 461.258 -1.90102 -0.434318 0
M  V30 5144 O 460.528 -1.45376 -1.31311 0
M  V30 5145 H 459.108 -0.643613 0.379172 0
M  V30 5146 H 461.77 -1.20787 1.52959 0
M  V30 5147 H 460.866 -2.73535 1.50283 0
M  V30 5148 N 461.167 -1.02423 -1.1978 0
M  V30 5149 C 462.392 -0.7373 -1.93852 0
M  V30 5150 C 462.817 0.696923 -1.74713 0
M  V30 5151 O 462.175 1.48056 -1.04638 0
M  V30 5152 C 462.223 -1.08783 -3.438 0
M  V30 5153 O 461.327 -0.20383 -4.11896 0
M  V30 5154 H 460.668 -0.27284 -0.605355 0
M  V30 5155 H 463.198 -1.36966 -1.51992 0
M  V30 5156 H 463.208 -1.04276 -3.9445 0
M  V30 5157 H 461.883 -2.13274 -3.57053 0
M  V30 5158 H 460.46 -0.307091 -3.71633 0
M  V30 5159 N 462.645 1.35699 -0.801477 0
M  V30 5160 C 463.575 2.32436 -0.222658 0
M  V30 5161 C 464.556 1.5723 0.649057 0
M  V30 5162 O 465.741 1.85324 0.580387 0
M  V30 5163 C 462.871 3.41469 0.633719 0
M  V30 5164 C 461.825 4.27774 -0.139083 0
M  V30 5165 C 461.151 5.28082 0.838666 0
M  V30 5166 C 462.451 5.04946 -1.33517 0
M  V30 5167 H 464.145 2.81094 -1.03086 0
M  V30 5168 H 461.691 1.35146 -0.497155 0
M  V30 5169 H 463.644 4.08143 1.04868 0
M  V30 5170 H 462.368 2.91408 1.47475 0
M  V30 5171 H 461.027 3.62673 -0.535156 0
M  V30 5172 H 460.675 4.7429 1.67506 0
M  V30 5173 H 460.375 5.86695 0.32594 0
M  V30 5174 H 461.899 5.97628 1.25194 0
M  V30 5175 H 463.313 5.64593 -0.995349 0
M  V30 5176 H 461.71 5.7303 -1.78202 0
M  V30 5177 H 462.78 4.35886 -2.12442 0
M  V30 5178 N 464.123 0.554532 1.47522 0
M  V30 5179 C 465.372 0.0273458 2.01681 0
M  V30 5180 C 465.685 -1.32962 1.43459 0
M  V30 5181 O 466.891 -1.94657 1.89265 0
M  V30 5182 C 465.347 -0.00159057 3.599 0
M  V30 5183 C 464.955 1.35197 4.27113 0
M  V30 5184 C 466.699 -0.476311 4.21819 0
M  V30 5185 C 464.606 1.28229 5.77331 0
M  V30 5186 H 463.536 0.00645269 0.753972 0
M  V30 5187 H 466.187 0.701985 1.69542 0
M  V30 5188 H 464.569 -0.741821 3.8899 0
M  V30 5189 H 465.743 2.1097 4.09668 0
M  V30 5190 H 464.058 1.76441 3.77171 0
M  V30 5191 H 466.655 -0.5468 5.31897 0
M  V30 5192 H 466.998 -1.4877 3.8881 0
M  V30 5193 H 467.531 0.20898 3.97251 0
M  V30 5194 H 464.27 2.26959 6.14955 0
M  V30 5195 H 463.79 0.566314 5.97121 0
M  V30 5196 H 465.469 0.983226 6.39485 0
M  V30 5197 N 465.601 -1.54893 0.290851 0
M  V30 5198 C 466.85 -1.99111 -0.322113 0
M  V30 5199 C 467.163 -1.18283 -1.55784 0
M  V30 5200 O 468.369 -1.5272 -2.24475 0
M  V30 5201 C 466.825 -3.54442 -0.624438 0
M  V30 5202 C 466.433 -4.44066 0.592373 0
M  V30 5203 C 468.177 -4.07211 -1.19916 0
M  V30 5204 C 466.084 -5.90812 0.263762 0
M  V30 5205 H 465.014 -0.743712 -0.124133 0
M  V30 5206 H 467.665 -1.79132 0.39797 0
M  V30 5207 H 466.047 -3.70281 -1.40384 0
M  V30 5208 H 467.221 -4.39999 1.36886 0
M  V30 5209 H 465.536 -4.02015 1.08502 0
M  V30 5210 H 468.133 -5.14407 -1.45909 0
M  V30 5211 H 468.476 -3.57196 -2.13815 0
M  V30 5212 H 469.009 -3.94873 -0.481687 0
M  V30 5213 H 465.748 -6.44955 1.17105 0
M  V30 5214 H 465.268 -5.97911 -0.475655 0
M  V30 5215 H 466.947 -6.46852 -0.138354 0
M  V30 5216 N 467.08 -0.0183926 -1.57589 0
M  V30 5217 C 468.027 0.967022 -2.09565 0
M  V30 5218 C 468.997 1.32983 -0.995225 0
M  V30 5219 O 470.182 1.42501 -1.26878 0
M  V30 5220 C 467.322 2.24772 -2.61861 0
M  V30 5221 C 466.435 1.94232 -3.85873 0
M  V30 5222 C 465.57 3.16518 -4.26603 0
M  V30 5223 C 464.609 2.81748 -5.43401 0
M  V30 5224 N 463.746 3.96626 -5.79338 0
M  V30 5225 H 468.586 0.516874 -2.93483 0
M  V30 5226 H 466.123 0.243544 -1.4507 0
M  V30 5227 H 468.081 2.99667 -2.90268 0
M  V30 5228 H 466.711 2.67423 -1.8079 0
M  V30 5229 H 465.763 1.09625 -3.64262 0
M  V30 5230 H 467.075 1.64616 -4.70853 0
M  V30 5231 H 466.229 3.99743 -4.56389 0
M  V30 5232 H 464.968 3.49286 -3.40368 0
M  V30 5233 H 463.973 1.96933 -5.1332 0
M  V30 5234 H 465.198 2.50207 -6.31327 0
M  V30 5235 H 463.144 4.29257 -4.96059 0
M  V30 5236 H 463.061 3.70598 -6.58933 0
M  V30 5237 H 464.329 4.80586 -6.13724 0
M  V30 5238 N 468.558 1.5553 0.254621 0
M  V30 5239 C 469.505 1.89666 1.31512 0
M  V30 5240 C 470.475 0.750057 1.482 0
M  V30 5241 O 471.66 1.00301 1.62309 0
M  V30 5242 C 468.8 2.19009 2.667 0
M  V30 5243 C 467.913 3.46435 2.58083 0
M  V30 5244 C 467.048 3.65386 3.85573 0
M  V30 5245 C 466.087 4.8644 3.71541 0
M  V30 5246 N 465.224 5.01952 4.90906 0
M  V30 5247 H 470.064 2.80109 1.017 0
M  V30 5248 H 467.601 1.38666 0.490938 0
M  V30 5249 H 469.559 2.34025 3.45381 0
M  V30 5250 H 468.189 1.31779 2.94676 0
M  V30 5251 H 467.241 3.39792 1.71013 0
M  V30 5252 H 468.553 4.35258 2.43622 0
M  V30 5253 H 467.707 3.80319 4.72697 0
M  V30 5254 H 466.446 2.74781 4.02922 0
M  V30 5255 H 465.451 4.71491 2.82801 0
M  V30 5256 H 466.676 5.78497 3.55694 0
M  V30 5257 H 464.622 4.14283 5.08631 0
M  V30 5258 H 464.539 5.84851 4.79046 0
M  V30 5259 H 465.807 5.21289 5.7955 0
M  V30 5260 N 470.036 -0.519951 1.48776 0
M  V30 5261 C 471.266 -1.29783 1.60748 0
M  V30 5262 C 471.674 -1.87253 0.27072 0
M  V30 5263 O 471.017 -1.67628 -0.751438 0
M  V30 5264 C 471.079 -2.47984 2.60277 0
M  V30 5265 C 470.743 -2.11526 4.051 0
M  V30 5266 C 471.74 -1.66608 4.92481 0
M  V30 5267 C 469.425 -2.21742 4.50706 0
M  V30 5268 C 471.419 -1.32384 6.23501 0
M  V30 5269 C 469.106 -1.87129 5.81744 0
M  V30 5270 C 470.104 -1.42523 6.67964 0
M  V30 5271 O 469.792 -1.0837 7.96562 0
M  V30 5272 H 469.524 -0.400562 0.544542 0
M  V30 5273 H 472.078 -0.632879 1.95407 0
M  V30 5274 H 470.308 -3.17493 2.2076 0
M  V30 5275 H 471.997 -3.10036 2.61978 0
M  V30 5276 H 472.763 -1.58178 4.58481 0
M  V30 5277 H 468.642 -2.55415 3.83776 0
M  V30 5278 H 472.186 -0.974949 6.90754 0
M  V30 5279 H 468.083 -1.95204 6.15277 0
M  V30 5280 H 468.851 -1.21681 8.09405 0
M  V30 5281 N 471.514 -1.37532 -0.769588 0
M  V30 5282 C 472.744 -1.35861 -1.55645 0
M  V30 5283 C 473.152 0.0574398 -1.89113 0
M  V30 5284 O 472.495 1.03021 -1.52093 0
M  V30 5285 C 472.557 -2.13431 -2.89288 0
M  V30 5286 C 472.221 -3.62378 -2.78444 0
M  V30 5287 C 473.218 -4.56215 -2.49326 0
M  V30 5288 C 470.903 -4.05529 -2.96398 0
M  V30 5289 C 472.897 -5.91181 -2.38294 0
M  V30 5290 C 470.584 -5.40579 -2.84987 0
M  V30 5291 C 471.582 -6.33218 -2.55975 0
M  V30 5292 O 471.27 -7.65787 -2.44594 0
M  V30 5293 H 471.002 -0.467001 -0.48876 0
M  V30 5294 H 473.556 -1.81505 -0.961515 0
M  V30 5295 H 471.786 -1.62481 -3.50909 0
M  V30 5296 H 473.475 -2.04368 -3.50697 0
M  V30 5297 H 474.241 -4.24187 -2.35139 0
M  V30 5298 H 470.12 -3.33781 -3.1798 0
M  V30 5299 H 473.664 -6.63457 -2.15571 0
M  V30 5300 H 469.561 -5.72209 -2.98743 0
M  V30 5301 H 470.329 -7.76132 -2.59927 0
M  V30 5302 N 472.992 0.995999 -1.22138 0
M  V30 5303 C 474.403 1.54961 -1.04135 0
M  V30 5304 C 474.754 1.92159 0.396147 0
M  V30 5305 O 473.879 1.74435 1.28069 0
M  V30 5306 C 474.474 2.81581 -1.88408 0
M  V30 5307 C 473.033 3.33396 -1.74712 0
M  V30 5308 C 472.18 2.06509 -1.85066 0
M  V30 5309 H 475.131 0.817436 -1.36028 0
M  V30 5310 H 475.152 3.53822 -1.39966 0
M  V30 5311 H 474.664 2.54476 -2.93025 0
M  V30 5312 H 472.765 3.65416 -0.728159 0
M  V30 5313 H 472.878 4.04208 -2.57202 0
M  V30 5314 H 471.242 2.19925 -1.28472 0
M  V30 5315 H 472.025 1.81804 -2.91208 0
M  V30 5316 N 474.47 1.03057 1.19235 0
M  V30 5317 C 475.71 0.736757 1.9066 0
M  V30 5318 C 476.074 -0.721521 1.77927 0
M  V30 5319 O 477.275 -1.12849 2.43964 0
M  V30 5320 C 475.546 1.17755 3.37444 0
M  V30 5321 S 477.105 1.00783 4.27069 0
M  V30 5322 H 473.923 0.268174 0.658486 0
M  V30 5323 H 476.525 1.32076 1.4414 0
M  V30 5324 H 475.229 2.23448 3.44237 0
M  V30 5325 H 474.76 0.586912 3.88997 0
M  V30 5326 H 476.775 -0.0806356 4.96134 0
M  V30 5327 N 475.948 -1.35272 0.808662 0
M  V30 5328 C 476.896 -2.31663 0.208606 0
M  V30 5329 C 477.89 -1.56731 -0.642778 0
M  V30 5330 O 479.096 -1.71843 -0.53571 0
M  V30 5331 H 475.471 -0.750421 0.0486993 0
M  V30 5332 H 477.442 -2.79814 1.03666 0
M  V30 5333 C 476.191 -3.42008 -0.626573 0
M  V30 5334 H 475.514 -3.99795 0.0192103 0
M  V30 5335 H 476.954 -4.11727 -1.01278 0
M  V30 5336 C 475.413 -2.85226 -1.79298 0
M  V30 5337 O 475.943 -2.78945 -2.89055 0
M  V30 5338 N 474.149 -2.42245 -1.60516 0
M  V30 5339 H 473.696 -2.47554 -0.712375 0
M  V30 5340 H 473.654 -2.04603 -2.38715 0
M  V30 5341 N 477.426 -0.562348 -1.47226 0
M  V30 5342 C 478.374 0.195476 -2.31777 0
M  V30 5343 C 479.368 0.90433 -1.43242 0
M  V30 5344 O 480.574 0.825031 -1.59979 0
M  V30 5345 H 476.949 0.0819095 -0.747526 0
M  V30 5346 H 478.92 -0.536753 -2.93533 0
M  V30 5347 C 477.669 1.20902 -3.26003 0
M  V30 5348 H 476.992 0.672997 -3.94095 0
M  V30 5349 H 478.432 1.71006 -3.87986 0
M  V30 5350 C 476.891 2.25955 -2.49891 0
M  V30 5351 O 477.421 3.32969 -2.2471 0
M  V30 5352 N 475.627 2.00019 -2.1081 0
M  V30 5353 H 475.174 1.13006 -2.31489 0
M  V30 5354 H 475.132 2.70523 -1.60201 0
M  V30 5355 N 478.904 1.54736 -0.299062 0
M  V30 5356 C 479.834 2.26409 0.571085 0
M  V30 5357 C 480.815 1.2629 1.13951 0
M  V30 5358 O 482 1.55059 1.16921 0
M  V30 5359 C 479.13 3.00338 1.74396 0
M  V30 5360 C 478.084 4.07588 1.30599 0
M  V30 5361 C 477.41 4.69222 2.56387 0
M  V30 5362 C 478.71 5.20455 0.438645 0
M  V30 5363 H 480.404 2.99388 -0.0266991 0
M  V30 5364 H 477.95 1.43993 -0.0142812 0
M  V30 5365 H 479.903 3.49198 2.35878 0
M  V30 5366 H 478.627 2.24934 2.36796 0
M  V30 5367 H 477.286 3.59575 0.71424 0
M  V30 5368 H 476.934 3.9046 3.17097 0
M  V30 5369 H 476.634 5.41653 2.27784 0
M  V30 5370 H 478.158 5.20844 3.18675 0
M  V30 5371 H 479.572 5.65221 0.959085 0
M  V30 5372 H 477.969 5.99594 0.246466 0
M  V30 5373 H 479.039 4.8192 -0.536738 0
M  V30 5374 N 480.382 0.0267497 1.57577 0
M  V30 5375 C 481.33 -0.973923 2.11229 0
M  V30 5376 C 482.324 -1.33849 1.03831 0
M  V30 5377 O 483.53 -1.321 1.22269 0
M  V30 5378 H 479.905 -0.331844 0.674821 0
M  V30 5379 H 481.876 -0.496092 2.94247 0
M  V30 5380 C 480.625 -2.24798 2.65257 0
M  V30 5381 H 479.948 -1.9762 3.47543 0
M  V30 5382 H 481.388 -2.93031 3.06445 0
M  V30 5383 C 479.847 -2.97611 1.57891 0
M  V30 5384 O 480.377 -3.89629 0.97735 0
M  V30 5385 N 478.583 -2.59905 1.29992 0
M  V30 5386 H 478.13 -1.85154 1.79097 0
M  V30 5387 H 478.088 -3.08932 0.583798 0
M  V30 5388 N 481.861 -1.55662 -0.24637 0
M  V30 5389 C 482.809 -1.91186 -1.3248 0
M  V30 5390 C 483.803 -0.790996 -1.49799 0
M  V30 5391 O 485.009 -0.975617 -1.51267 0
M  V30 5392 H 481.384 -0.607207 -0.443626 0
M  V30 5393 H 483.355 -2.81221 -0.997853 0
M  V30 5394 C 482.104 -2.22349 -2.67313 0
M  V30 5395 H 481.427 -3.08097 -2.54786 0
M  V30 5396 H 482.867 -2.51107 -3.41645 0
M  V30 5397 C 481.326 -1.04001 -3.20446 0
M  V30 5398 O 481.856 -0.28828 -4.00664 0
M  V30 5399 N 480.062 -0.830494 -2.7848 0
M  V30 5400 H 479.609 -1.4435 -2.13356 0
M  V30 5401 H 479.567 -0.0403258 -3.14374 0
M  V30 5402 N 483.339 0.512053 -1.4905 0
M  V30 5403 C 484.587 1.26436 -1.57665 0
M  V30 5404 C 484.908 1.93255 -0.260293 0
M  V30 5405 O 484.178 1.82206 0.719564 0
M  V30 5406 H 482.758 0.469658 -0.580888 0
M  V30 5407 H 485.42 0.594398 -1.85615 0
M  V30 5408 H 484.516 2.03417 -2.36702 0
M  V30 5409 N 484.817 1.37938 0.762283 0
M  V30 5410 C 485.749 1.30349 1.88525 0
M  V30 5411 C 486.762 0.217402 1.61342 0
M  V30 5412 O 487.951 0.474291 1.72084 0
M  V30 5413 C 485.051 0.994844 3.23969 0
M  V30 5414 C 484.224 2.18829 3.78725 0
M  V30 5415 C 483.283 1.84844 4.92665 0
M  V30 5416 O 482.309 2.57244 5.07754 0
M  V30 5417 N 483.511 0.798201 5.74986 0
M  V30 5418 H 486.276 2.27114 1.95549 0
M  V30 5419 H 483.837 1.31686 0.941825 0
M  V30 5420 H 485.829 0.748168 3.97724 0
M  V30 5421 H 484.399 0.115446 3.12387 0
M  V30 5422 H 483.619 2.59615 2.96637 0
M  V30 5423 H 484.907 2.98497 4.1204 0
M  V30 5424 H 484.305 0.197611 5.65355 0
M  V30 5425 H 482.862 0.611396 6.48926 0
M  V30 5426 N 486.295 -0.989507 1.22664 0
M  V30 5427 C 487.541 -1.7321 1.05481 0
M  V30 5428 C 487.874 -1.89852 -0.408635 0
M  V30 5429 O 487.149 -1.44416 -1.30285 0
M  V30 5430 C 487.432 -3.1357 1.77047 0
M  V30 5431 C 487.285 -3.04555 3.31008 0
M  V30 5432 C 488.604 -4.12812 1.5256 0
M  V30 5433 H 485.723 -0.628697 0.384589 0
M  V30 5434 H 488.365 -1.15258 1.51049 0
M  V30 5435 H 486.515 -3.63046 1.3831 0
M  V30 5436 H 488.187 -2.62674 3.7921 0
M  V30 5437 H 486.43 -2.41278 3.6051 0
M  V30 5438 H 487.101 -4.03894 3.76263 0
M  V30 5439 H 489.577 -3.72106 1.86215 0
M  V30 5440 H 488.453 -5.09132 2.05124 0
M  V30 5441 H 488.714 -4.39711 0.458936 0
M  V30 5442 N 487.773 -1.03688 -1.18687 0
M  V30 5443 C 489.001 -0.757918 -1.92518 0
M  V30 5444 C 489.416 0.684398 -1.75959 0
M  V30 5445 O 488.773 1.46617 -1.08673 0
M  V30 5446 C 488.824 -1.10985 -3.44042 0
M  V30 5447 O 488.545 -2.49554 -3.60076 0
M  V30 5448 C 490.046 -0.854844 -4.3498 0
M  V30 5449 H 487.266 -0.276699 -0.611293 0
M  V30 5450 H 489.81 -1.38352 -1.50595 0
M  V30 5451 H 487.965 -0.529279 -3.83767 0
M  V30 5452 H 488.379 -2.6291 -4.53849 0
M  V30 5453 H 489.853 -1.15098 -5.39867 0
M  V30 5454 H 490.33 0.210507 -4.38695 0
M  V30 5455 H 490.936 -1.41853 -4.00946 0
M  V30 5456 N 489.251 1.34841 -0.815825 0
M  V30 5457 C 490.5 1.97755 -0.396976 0
M  V30 5458 C 490.813 1.65422 1.04379 0
M  V30 5459 O 492.019 2.21771 1.5662 0
M  V30 5460 C 490.475 3.53818 -0.658869 0
M  V30 5461 C 490.083 3.95051 -2.11278 0
M  V30 5462 C 491.827 4.23397 -0.305834 0
M  V30 5463 C 489.734 5.43997 -2.31994 0
M  V30 5464 H 488.664 0.739985 -0.1447 0
M  V30 5465 H 491.315 1.53781 -1.00118 0
M  V30 5466 H 489.697 3.95997 0.0154112 0
M  V30 5467 H 490.871 3.63998 -2.82564 0
M  V30 5468 H 489.186 3.38388 -2.42657 0
M  V30 5469 H 491.783 5.32899 -0.43854 0
M  V30 5470 H 492.126 4.09508 0.748952 0
M  V30 5471 H 492.659 3.8667 -0.934403 0
M  V30 5472 H 489.398 5.62865 -3.35952 0
M  V30 5473 H 488.918 5.76589 -1.65244 0
M  V30 5474 H 490.597 6.10584 -2.14001 0
M  V30 5475 N 490.729 0.570148 1.46925 0
M  V30 5476 C 491.692 -0.159933 2.28641 0
M  V30 5477 C 492.692 -0.830638 1.37685 0
M  V30 5478 O 493.882 -0.684516 1.60187 0
M  V30 5479 C 491.014 -1.2354 3.17727 0
M  V30 5480 H 492.207 0.558035 2.94662 0
M  V30 5481 H 489.76 0.327603 1.52828 0
M  V30 5482 H 490.495 -1.98535 2.56426 0
M  V30 5483 H 490.28 -0.759125 3.84681 0
M  V30 5484 H 491.77 -1.74782 3.79264 0
M  V30 5485 N 492.207 -1.54576 0.307264 0
M  V30 5486 C 493.453 -2.01272 -0.293453 0
M  V30 5487 C 493.808 -1.19178 -1.51044 0
M  V30 5488 O 493.101 -0.261704 -1.89804 0
M  V30 5489 C 493.295 -3.50572 -0.695253 0
M  V30 5490 C 493.124 -4.47118 0.481249 0
M  V30 5491 C 491.894 -4.958 0.97524 0
M  V30 5492 C 494.092 -4.96853 1.32823 0
M  V30 5493 N 492.074 -5.76212 2.11785 0
M  V30 5494 C 493.445 -5.75028 2.31824 0
M  V30 5495 C 495.5 -4.79026 1.35788 0
M  V30 5496 C 494.203 -6.37276 3.33574 0
M  V30 5497 C 496.229 -5.42097 2.364 0
M  V30 5498 C 495.591 -6.2011 3.34129 0
M  V30 5499 H 491.69 -0.778709 -0.0716705 0
M  V30 5500 H 494.274 -1.89695 0.438602 0
M  V30 5501 H 492.445 -3.62427 -1.39647 0
M  V30 5502 H 494.177 -3.84056 -1.27604 0
M  V30 5503 H 490.932 -4.70405 0.549184 0
M  V30 5504 H 491.356 -6.21101 2.69375 0
M  V30 5505 H 495.998 -4.18288 0.616021 0
M  V30 5506 H 493.716 -6.97144 4.08676 0
M  V30 5507 H 497.302 -5.30229 2.39475 0
M  V30 5508 H 496.182 -6.68049 4.10707 0
M  V30 5509 N 493.685 -0.035106 -1.57561 0
M  V30 5510 C 495.101 0.321334 -1.56332 0
M  V30 5511 C 495.301 1.72509 -1.04129 0
M  V30 5512 O 494.357 2.4287 -0.690694 0
M  V30 5513 C 495.67 0.164469 -3.0025 0
M  V30 5514 C 497.218 0.236786 -3.12103 0
M  V30 5515 C 497.693 0.10864 -4.57871 0
M  V30 5516 N 499.184 0.165433 -4.62904 0
M  V30 5517 C 499.919 0.0901506 -5.73329 0
M  V30 5518 N 499.415 -0.0365606 -6.9279 0
M  V30 5519 N 501.208 0.144572 -5.61914 0
M  V30 5520 H 493.359 -0.952976 -1.89821 0
M  V30 5521 H 495.622 -0.368537 -0.873432 0
M  V30 5522 H 495.328 -0.802746 -3.42416 0
M  V30 5523 H 495.202 0.932194 -3.655 0
M  V30 5524 H 497.589 1.19446 -2.69845 0
M  V30 5525 H 497.67 -0.561419 -2.49563 0
M  V30 5526 H 497.314 -0.845644 -5.00811 0
M  V30 5527 H 497.244 0.925786 -5.18398 0
M  V30 5528 H 499.735 0.263269 -3.76982 0
M  V30 5529 H 500.048 -0.0871487 -7.72751 0
M  V30 5530 H 498.393 -0.0714256 -6.94963 0
M  V30 5531 H 501.584 0.242006 -4.67474 0
M  V30 5532 H 501.757 0.0824413 -6.47948 0
M  V30 5533 N 495.163 1.55791 0.238111 0
M  V30 5534 C 496.411 1.77681 0.963001 0
M  V30 5535 C 496.732 0.600674 1.85518 0
M  V30 5536 O 496.002 -0.383182 1.92116 0
M  V30 5537 H 494.582 0.655315 0.358568 0
M  V30 5538 H 497.244 1.93239 0.253945 0
M  V30 5539 H 496.34 2.69177 1.57956 0
M  V30 5540 N 496.642 -0.504142 1.49319 0
M  V30 5541 C 497.882 -1.26867 1.60263 0
M  V30 5542 C 498.246 -1.89924 0.281578 0
M  V30 5543 O 499.447 -2.67479 0.266176 0
M  V30 5544 C 497.718 -2.30956 2.72753 0
M  V30 5545 S 499.277 -3.1679 3.03628 0
M  V30 5546 H 496.095 -0.431198 0.565322 0
M  V30 5547 H 498.697 -0.571407 1.86963 0
M  V30 5548 H 497.401 -1.83156 3.67263 0
M  V30 5549 H 496.932 -3.05356 2.48035 0
M  V30 5550 H 498.947 -4.31549 2.44908 0
M  V30 5551 N 498.12 -1.38341 -0.754957 0
M  V30 5552 C 499.531 -1.30803 -1.3322 0
M  V30 5553 C 499.882 0.0368 -1.96165 0
M  V30 5554 O 499.007 0.938844 -1.94974 0
M  V30 5555 C 499.602 -2.3688 -2.42225 0
M  V30 5556 C 498.161 -2.32925 -2.95674 0
M  V30 5557 C 497.308 -2.19819 -1.69042 0
M  V30 5558 H 500.259 -1.48719 -0.553937 0
M  V30 5559 H 500.28 -2.02517 -3.22129 0
M  V30 5560 H 499.792 -3.34747 -1.96383 0
M  V30 5561 H 497.893 -1.38635 -3.45848 0
M  V30 5562 H 498.006 -3.27008 -3.50146 0
M  V30 5563 H 496.37 -1.66648 -1.92615 0
M  V30 5564 H 497.153 -3.19625 -1.25279 0
M  V30 5565 N 499.598 0.982988 -1.23187 0
M  V30 5566 C 500.844 1.7273 -1.07405 0
M  V30 5567 C 501.199 1.885 0.385447 0
M  V30 5568 O 500.492 1.4243 1.28157 0
M  V30 5569 C 500.686 3.12736 -1.73006 0
M  V30 5570 C 500.515 3.10621 -3.25184 0
M  V30 5571 C 499.285 3.15957 -3.94334 0
M  V30 5572 C 501.483 2.93992 -4.21987 0
M  V30 5573 N 499.465 3.03701 -5.33516 0
M  V30 5574 C 500.836 2.8987 -5.48065 0
M  V30 5575 C 502.891 2.78457 -4.12754 0
M  V30 5576 C 501.594 2.71804 -6.65969 0
M  V30 5577 C 503.62 2.61754 -5.30319 0
M  V30 5578 C 502.982 2.58328 -6.55321 0
M  V30 5579 H 499.081 0.641279 -0.447533 0
M  V30 5580 H 501.665 1.16664 -1.55877 0
M  V30 5581 H 499.836 3.67026 -1.2707 0
M  V30 5582 H 501.568 3.75786 -1.50224 0
M  V30 5583 H 498.323 3.24034 -3.45397 0
M  V30 5584 H 498.747 3.00855 -6.06478 0
M  V30 5585 H 503.389 2.79898 -3.16886 0
M  V30 5586 H 501.107 2.69108 -7.61975 0
M  V30 5587 H 504.693 2.50702 -5.25014 0
M  V30 5588 H 503.573 2.45564 -7.4476 0
M  V30 5589 N 501.076 1.04316 1.18135 0
M  V30 5590 C 501.986 0.646876 2.25505 0
M  V30 5591 C 503.002 -0.328008 1.7088 0
M  V30 5592 O 504.178 -0.182309 2.00573 0
M  V30 5593 C 501.243 0.0185664 3.46695 0
M  V30 5594 C 500.304 1.04277 4.16443 0
M  V30 5595 C 499.537 0.444352 5.31847 0
M  V30 5596 O 499.76 -0.748735 5.65465 0
M  V30 5597 O 498.694 1.17428 5.90334 0
M  V30 5598 H 502.52 1.54147 2.61672 0
M  V30 5599 H 500.105 0.814188 1.25265 0
M  V30 5600 H 501.987 -0.331068 4.20097 0
M  V30 5601 H 500.662 -0.849814 3.12346 0
M  V30 5602 H 499.569 1.44425 3.45098 0
M  V30 5603 H 500.902 1.882 4.54798 0
M  V30 5604 N 502.554 -1.34406 0.822964 0
M  V30 5605 C 503.831 -1.92733 0.333641 0
M  V30 5606 C 504.211 -1.75107 -1.17901 0
M  V30 5607 O 503.559 -1.12983 -1.98613 0
M  V30 5608 C 503.769 -3.40557 0.763023 0
M  V30 5609 C 505.117 -4.17709 0.761879 0
M  V30 5610 O 506.141 -3.49141 0.705606 0
M  V30 5611 O 505 -5.40082 0.835109 0
M  V30 5612 H 502.094 -0.821964 0.0911249 0
M  V30 5613 H 504.64 -1.4338 0.907757 0
M  V30 5614 H 503.412 -3.47187 1.8049 0
M  V30 5615 H 503.035 -3.97259 0.164605 0
M  V30 5616 N 504.032 -0.577932 -1.46621 0
M  V30 5617 C 505.278 -0.0617793 -2.02706 0
M  V30 5618 C 505.611 1.29294 -1.44903 0
M  V30 5619 O 504.886 1.8461 -0.61232 0
M  V30 5620 C 505.169 0.00911824 -3.60099 0
M  V30 5621 C 505.022 -1.37416 -4.28295 0
M  V30 5622 C 506.341 0.712159 -4.343 0
M  V30 5623 H 503.46 -0.0239246 -0.736612 0
M  V30 5624 H 506.102 -0.744211 -1.74818 0
M  V30 5625 H 504.252 0.590292 -3.83989 0
M  V30 5626 H 505.924 -2.00013 -4.15683 0
M  V30 5627 H 504.167 -1.94319 -3.87843 0
M  V30 5628 H 504.838 -1.27707 -5.37024 0
M  V30 5629 H 507.314 0.218486 -4.15526 0
M  V30 5630 H 506.19 0.730782 -5.44014 0
M  V30 5631 H 506.451 1.77251 -4.05012 0
M  V30 5632 N 505.51 1.54411 -0.315457 0
M  V30 5633 C 506.442 2.21527 0.588067 0
M  V30 5634 C 507.455 1.21263 1.08624 0
M  V30 5635 O 508.644 1.47777 1.00121 0
M  V30 5636 C 505.744 2.85963 1.81875 0
M  V30 5637 C 504.917 4.12291 1.46063 0
M  V30 5638 C 503.976 4.60396 2.54799 0
M  V30 5639 O 503.002 5.25265 2.19283 0
M  V30 5640 N 504.204 4.33935 3.85591 0
M  V30 5641 H 506.969 2.99697 0.013414 0
M  V30 5642 H 504.53 1.61308 -0.138295 0
M  V30 5643 H 506.522 3.15071 2.53993 0
M  V30 5644 H 505.092 2.11548 2.30144 0
M  V30 5645 H 504.312 3.90036 0.571445 0
M  V30 5646 H 505.6 4.9452 1.19695 0
M  V30 5647 H 504.998 3.81996 4.17248 0
M  V30 5648 H 503.555 4.67718 4.53964 0
M  V30 5649 N 506.988 0.0434614 1.5754 0
M  V30 5650 C 508.216 -0.641835 1.96693 0
M  V30 5651 C 508.631 -1.64832 0.920652 0
M  V30 5652 O 507.988 -1.82247 -0.095993 0
M  V30 5653 C 508.039 -1.33557 3.35924 0
M  V30 5654 O 507.76 -0.369403 4.3654 0
M  V30 5655 C 509.261 -2.11135 3.89791 0
M  V30 5656 H 506.481 -0.176013 0.647503 0
M  V30 5657 H 509.025 0.107478 2.04217 0
M  V30 5658 H 507.18 -2.03617 3.29574 0
M  V30 5659 H 507.594 -0.863674 5.1734 0
M  V30 5660 H 509.068 -2.55107 4.89514 0
M  V30 5661 H 509.545 -2.95634 3.24803 0
M  V30 5662 H 510.151 -1.46002 3.99454 0
M  V30 5663 N 508.466 -1.55915 -0.229846 0
M  V30 5664 C 509.413 -1.91734 -1.28478 0
M  V30 5665 C 510.383 -0.773539 -1.46988 0
M  V30 5666 O 511.568 -1.02871 -1.60693 0
M  V30 5667 C 508.708 -2.23224 -2.63182 0
M  V30 5668 C 507.821 -3.50497 -2.52539 0
M  V30 5669 C 506.956 -3.71474 -3.79711 0
M  V30 5670 C 505.995 -4.92289 -3.63755 0
M  V30 5671 N 505.132 -5.09698 -4.82858 0
M  V30 5672 H 509.972 -2.81692 -0.972308 0
M  V30 5673 H 507.509 -1.39429 -0.468815 0
M  V30 5674 H 509.467 -2.3949 -3.41614 0
M  V30 5675 H 508.097 -1.36451 -2.92542 0
M  V30 5676 H 507.149 -3.4247 -1.65585 0
M  V30 5677 H 508.461 -4.39079 -2.36666 0
M  V30 5678 H 507.615 -3.87791 -4.66586 0
M  V30 5679 H 506.354 -2.81157 -3.985 0
M  V30 5680 H 505.359 -4.7593 -2.75264 0
M  V30 5681 H 506.584 -5.84083 -3.46445 0
M  V30 5682 H 504.53 -4.22322 -5.01976 0
M  V30 5683 H 504.447 -5.92399 -4.69681 0
M  V30 5684 H 505.715 -5.30443 -5.71183 0
M  V30 5685 N 509.944 0.496216 -1.49584 0
M  V30 5686 C 510.874 1.60576 -1.69521 0
M  V30 5687 C 511.855 1.61169 -0.543933 0
M  V30 5688 O 513.04 1.77834 -0.78031 0
M  V30 5689 C 510.17 2.99038 -1.76616 0
M  V30 5690 C 509.124 3.13312 -2.91581 0
M  V30 5691 C 508.45 4.53172 -2.83794 0
M  V30 5692 C 509.75 2.92886 -4.32452 0
M  V30 5693 H 511.444 1.44146 -2.62416 0
M  V30 5694 H 508.99 0.692024 -1.26282 0
M  V30 5695 H 510.943 3.76564 -1.8915 0
M  V30 5696 H 509.667 3.16568 -0.80324 0
M  V30 5697 H 508.326 2.38213 -2.78658 0
M  V30 5698 H 507.974 4.67585 -1.854 0
M  V30 5699 H 507.674 4.63662 -3.60958 0
M  V30 5700 H 509.198 5.32752 -2.98342 0
M  V30 5701 H 510.612 3.60178 -4.46032 0
M  V30 5702 H 509.009 3.14844 -5.10875 0
M  V30 5703 H 510.079 1.88966 -4.46565 0
M  V30 5704 N 511.423 1.38739 0.74761 0
M  V30 5705 C 512.386 1.36241 1.84312 0
M  V30 5706 C 513.386 0.261811 1.58654 0
M  V30 5707 O 514.576 0.519031 1.66288 0
M  V30 5708 C 511.708 1.12253 3.21888 0
M  V30 5709 H 512.901 2.33712 1.87933 0
M  V30 5710 H 510.454 1.2412 0.949946 0
M  V30 5711 H 511.189 0.154133 3.23934 0
M  V30 5712 H 510.974 1.91943 3.41907 0
M  V30 5713 H 512.464 1.13215 4.0196 0
M  V30 5714 N 512.901 -0.976442 1.23707 0
M  V30 5715 C 514.15 -1.71254 1.06559 0
M  V30 5716 C 514.463 -1.91528 -0.397024 0
M  V30 5717 O 515.669 -2.62625 -0.688518 0
M  V30 5718 C 514.125 -3.08207 1.8584 0
M  V30 5719 C 513.733 -2.95806 3.36456 0
M  V30 5720 C 515.477 -3.85749 1.77194 0
M  V30 5721 C 513.384 -4.28015 4.08114 0
M  V30 5722 H 512.314 -0.642171 0.395136 0
M  V30 5723 H 514.965 -1.08877 1.4771 0
M  V30 5724 H 513.347 -3.71363 1.37498 0
M  V30 5725 H 514.521 -2.41716 3.92314 0
M  V30 5726 H 512.836 -2.31736 3.45959 0
M  V30 5727 H 515.433 -4.83633 2.28041 0
M  V30 5728 H 515.776 -4.09752 0.735477 0
M  V30 5729 H 516.309 -3.29303 2.23169 0
M  V30 5730 H 513.048 -4.09208 5.12083 0
M  V30 5731 H 512.568 -4.81955 3.57043 0
M  V30 5732 H 514.247 -4.96681 4.14629 0
M  V30 5733 N 514.379 -1.04941 -1.1758 0
M  V30 5734 C 515.604 -0.778253 -1.92245 0
M  V30 5735 C 516.029 0.659707 -1.76152 0
M  V30 5736 O 515.387 1.45803 -1.07755 0
M  V30 5737 C 515.435 -1.16051 -3.41416 0
M  V30 5738 O 514.539 -0.291153 -4.11371 0
M  V30 5739 H 513.88 -0.285619 -0.599431 0
M  V30 5740 H 516.41 -1.40159 -1.49052 0
M  V30 5741 H 516.42 -1.12619 -3.92149 0
M  V30 5742 H 515.095 -2.208 -3.52449 0
M  V30 5743 H 513.672 -0.385851 -3.70898 0
M  V30 5744 N 515.857 1.33968 -0.830081 0
M  V30 5745 C 516.787 2.31911 -0.271911 0
M  V30 5746 C 517.768 1.58571 0.61556 0
M  V30 5747 O 518.953 1.86514 0.540946 0
M  V30 5748 C 516.083 3.42737 0.561146 0
M  V30 5749 C 515.037 4.27383 -0.229789 0
M  V30 5750 C 514.363 5.29742 0.726463 0
M  V30 5751 C 515.663 5.02 -1.44197 0
M  V30 5752 H 517.357 2.78844 -1.09025 0
M  V30 5753 H 514.903 1.34061 -0.52571 0
M  V30 5754 H 516.856 4.10276 0.961867 0
M  V30 5755 H 515.58 2.94471 1.41261 0
M  V30 5756 H 514.239 3.61456 -0.611964 0
M  V30 5757 H 513.887 4.77736 1.57408 0
M  V30 5758 H 513.587 5.87255 0.20142 0
M  V30 5759 H 515.111 6.00149 1.12489 0
M  V30 5760 H 516.525 5.62355 -1.11488 0
M  V30 5761 H 514.922 5.69122 -1.90317 0
M  V30 5762 H 515.992 4.31281 -2.2164 0
M  V30 5763 N 517.335 0.585699 1.46312 0
M  V30 5764 C 518.265 -0.133556 2.33118 0
M  V30 5765 C 519.246 -0.880707 1.45525 0
M  V30 5766 O 520.431 -0.855579 1.74337 0
M  V30 5767 C 517.561 -1.14585 3.27853 0
M  V30 5768 C 516.515 -0.513341 4.2491 0
M  V30 5769 C 515.841 -1.63231 5.09175 0
M  V30 5770 C 517.141 0.551413 5.19381 0
M  V30 5771 H 518.835 0.59121 2.93505 0
M  V30 5772 H 516.381 0.285761 1.41136 0
M  V30 5773 H 518.334 -1.65741 3.87438 0
M  V30 5774 H 517.058 -1.90093 2.65579 0
M  V30 5775 H 515.717 -0.0228349 3.66593 0
M  V30 5776 H 515.365 -2.37713 4.43285 0
M  V30 5777 H 515.065 -1.21473 5.74907 0
M  V30 5778 H 516.589 -2.14658 5.71624 0
M  V30 5779 H 518.003 0.124804 5.73164 0
M  V30 5780 H 516.4 0.889486 5.93471 0
M  V30 5781 H 517.47 1.43655 4.63132 0
M  V30 5782 N 518.813 -1.54241 0.323641 0
M  V30 5783 C 520.061 -2.00174 -0.278359 0
M  V30 5784 C 520.382 -1.2134 -1.52648 0
M  V30 5785 O 519.652 -0.315244 -1.93347 0
M  V30 5786 H 518.232 -0.739463 -0.105845 0
M  V30 5787 H 520.894 -1.89864 0.440204 0
M  V30 5788 H 519.99 -3.07486 -0.5347 0
M  V30 5789 N 520.291 -0.0518155 -1.57515 0
M  V30 5790 C 521.239 0.940195 -2.12751 0
M  V30 5791 C 522.233 1.3218 -1.05948 0
M  V30 5792 O 523.439 1.30138 -1.24355 0
M  V30 5793 H 519.814 0.321066 -0.680015 0
M  V30 5794 H 521.785 0.449217 -2.94999 0
M  V30 5795 C 520.534 2.2055 -2.68799 0
M  V30 5796 H 519.857 1.92066 -3.50643 0
M  V30 5797 H 521.297 2.88119 -3.11068 0
M  V30 5798 C 519.756 2.95061 -1.62605 0
M  V30 5799 O 520.286 3.88025 -1.03921 0
M  V30 5800 N 518.492 2.57804 -1.34111 0
M  V30 5801 H 518.039 1.82281 -1.8202 0
M  V30 5802 H 517.997 3.07964 -0.632872 0
M  V30 5803 N 521.769 1.56035 0.221574 0
M  V30 5804 C 522.999 1.82864 0.961468 0
M  V30 5805 C 523.407 0.628703 1.78449 0
M  V30 5806 O 522.75 -0.412109 1.79018 0
M  V30 5807 C 522.812 3.03425 1.92804 0
M  V30 5808 C 522.476 4.38429 1.28954 0
M  V30 5809 C 523.473 5.15441 0.679431 0
M  V30 5810 C 521.158 4.85151 1.30131 0
M  V30 5811 C 523.152 6.37337 0.0896148 0
M  V30 5812 C 520.839 6.06989 0.707651 0
M  V30 5813 C 521.837 6.82923 0.102855 0
M  V30 5814 O 521.525 8.02456 -0.48157 0
M  V30 5815 H 521.257 0.611883 0.28736 0
M  V30 5816 H 523.811 2.0397 0.241932 0
M  V30 5817 H 522.041 2.78138 2.68656 0
M  V30 5818 H 523.73 3.17127 2.53348 0
M  V30 5819 H 524.496 4.80452 0.662661 0
M  V30 5820 H 520.375 4.26021 1.76145 0
M  V30 5821 H 523.919 6.96547 -0.383069 0
M  V30 5822 H 519.816 6.41451 0.721834 0
M  V30 5823 H 520.584 8.17636 -0.375887 0
M  V30 5824 N 523.247 -0.488276 1.49845 0
M  V30 5825 C 524.177 -1.59675 1.70371 0
M  V30 5826 C 525.158 -1.60878 0.552473 0
M  V30 5827 O 526.343 -1.77417 0.78973 0
M  V30 5828 C 523.473 -2.98098 1.782 0
M  V30 5829 C 522.427 -3.11761 2.93239 0
M  V30 5830 C 521.753 -4.51661 2.86193 0
M  V30 5831 C 523.053 -2.90589 4.33999 0
M  V30 5832 H 524.747 -1.42752 2.63177 0
M  V30 5833 H 522.293 -0.685317 1.26647 0
M  V30 5834 H 524.246 -3.75555 1.91144 0
M  V30 5835 H 522.97 -3.16138 0.820018 0
M  V30 5836 H 521.629 -2.36732 2.79917 0
M  V30 5837 H 521.277 -4.66595 1.87877 0
M  V30 5838 H 520.977 -4.61742 3.63412 0
M  V30 5839 H 522.501 -5.31162 3.01163 0
M  V30 5840 H 523.915 -3.57807 4.47936 0
M  V30 5841 H 522.312 -3.1213 5.12538 0
M  V30 5842 H 523.382 -1.86595 4.4756 0
M  V30 5843 N 524.725 -1.39134 -0.740242 0
M  V30 5844 C 525.953 -1.39334 -1.5295 0
M  V30 5845 C 526.368 0.0135008 -1.88795 0
M  V30 5846 O 525.725 0.983524 -1.5373 0
M  V30 5847 C 525.776 -2.2614 -2.82034 0
M  V30 5848 O 525.497 -3.61345 -2.47712 0
M  V30 5849 C 526.998 -2.34666 -3.76094 0
M  V30 5850 H 524.218 -0.476103 -0.472828 0
M  V30 5851 H 526.762 -1.82883 -0.9151 0
M  V30 5852 H 524.917 -1.86018 -3.39818 0
M  V30 5853 H 525.331 -4.07194 -3.30595 0
M  V30 5854 H 526.805 -2.99663 -4.63579 0
M  V30 5855 H 527.282 -1.36426 -4.17474 0
M  V30 5856 H 527.888 -2.75236 -3.2423 0
M  V30 5857 N 526.204 0.969867 -1.24223 0
M  V30 5858 C 527.481 1.68774 -0.988664 0
M  V30 5859 C 527.861 2.05342 0.489673 0
M  V30 5860 O 527.209 1.75486 1.46345 0
M  V30 5861 C 527.419 2.92135 -1.90941 0
M  V30 5862 C 528.767 3.64422 -2.17903 0
M  V30 5863 O 529.791 3.02188 -1.88576 0
M  V30 5864 O 528.65 4.76446 -2.67697 0
M  V30 5865 H 525.744 0.737736 -0.37373 0
M  V30 5866 H 528.29 1.02415 -1.35312 0
M  V30 5867 H 527.062 2.61788 -2.90831 0
M  V30 5868 H 526.685 3.66228 -1.54798 0
M  V30 5869 N 527.682 1.05563 1.17022 0
M  V30 5870 C 528.612 0.681026 2.23348 0
M  V30 5871 C 529.593 -0.322983 1.67005 0
M  V30 5872 O 530.778 -0.199746 1.9317 0
M  V30 5873 C 527.908 0.0589053 3.4725 0
M  V30 5874 C 526.862 0.988082 4.16438 0
M  V30 5875 C 526.188 0.229646 5.34207 0
M  V30 5876 C 527.488 2.31388 4.68249 0
M  V30 5877 H 529.182 1.56993 2.54938 0
M  V30 5878 H 526.728 0.756302 1.2254 0
M  V30 5879 H 528.681 -0.214982 4.20851 0
M  V30 5880 H 527.405 -0.864968 3.14938 0
M  V30 5881 H 526.064 1.24659 3.44754 0
M  V30 5882 H 525.712 -0.697111 4.98146 0
M  V30 5883 H 525.412 0.848815 5.81437 0
M  V30 5884 H 526.936 -0.0368694 6.10589 0
M  V30 5885 H 528.35 2.09964 5.33468 0
M  V30 5886 H 526.747 2.88736 5.26072 0
M  V30 5887 H 527.817 2.94982 3.84855 0
M  V30 5888 N 529.16 -1.33526 0.837174 0
M  V30 5889 C 530.388 -2.02047 0.445494 0
M  V30 5890 C 530.803 -1.62995 -0.952788 0
M  V30 5891 O 530.16 -0.842447 -1.61892 0
M  V30 5892 C 530.211 -3.57221 0.554577 0
M  V30 5893 O 529.932 -3.94863 1.89776 0
M  V30 5894 C 531.433 -4.43012 0.159634 0
M  V30 5895 H 528.653 -0.647221 0.177048 0
M  V30 5896 H 531.197 -1.70492 1.12928 0
M  V30 5897 H 529.352 -3.87315 -0.0812781 0
M  V30 5898 H 529.766 -4.89569 1.88208 0
M  V30 5899 H 531.24 -5.51253 0.28701 0
M  V30 5900 H 531.717 -4.29916 -0.898289 0
M  V30 5901 H 532.323 -4.18274 0.769855 0
M  V30 5902 N 530.638 -0.59345 -1.46 0
M  V30 5903 C 531.866 -0.0890934 -2.06708 0
M  V30 5904 C 532.281 1.2205 -1.44046 0
M  V30 5905 O 531.638 1.74029 -0.549551 0
M  V30 5906 C 531.689 0.0720263 -3.61428 0
M  V30 5907 O 531.41 -1.18574 -4.21748 0
M  V30 5908 C 532.911 0.609487 -4.3909 0
M  V30 5909 H 530.131 -0.0623628 -0.668096 0
M  V30 5910 H 532.675 -0.817171 -1.87464 0
M  V30 5911 H 530.83 0.750369 -3.80063 0
M  V30 5912 H 531.244 -1.0064 -5.14754 0
M  V30 5913 H 532.718 0.671363 -5.47902 0
M  V30 5914 H 533.195 1.62878 -4.07882 0
M  V30 5915 H 533.801 -0.03434 -4.25286 0
M  V30 5916 N 532.116 1.54067 -0.331816 0
M  V30 5917 C 533.341 2.05599 0.272705 0
M  V30 5918 C 533.766 1.2059 1.44359 0
M  V30 5919 O 533.124 0.216907 1.79998 0
M  V30 5920 C 533.172 3.54188 0.677021 0
M  V30 5921 O 532.276 3.72082 1.77844 0
M  V30 5922 H 531.617 0.662286 0.0476801 0
M  V30 5923 H 534.147 1.98826 -0.482624 0
M  V30 5924 H 534.157 3.96608 0.957415 0
M  V30 5925 H 532.832 4.15513 -0.179325 0
M  V30 5926 H 531.409 3.41566 1.49622 0
M  V30 5927 N 533.594 0.0601682 1.57485 0
M  V30 5928 C 535.005 -0.474217 1.80577 0
M  V30 5929 C 535.356 -1.70365 0.973147 0
M  V30 5930 O 534.481 -2.15544 0.192306 0
M  V30 5931 C 535.076 -0.867102 3.27516 0
M  V30 5932 C 533.635 -1.34642 3.51495 0
M  V30 5933 C 532.782 -0.32594 2.75378 0
M  V30 5934 H 535.733 0.285973 1.56102 0
M  V30 5935 H 535.754 -1.72938 3.38929 0
M  V30 5936 H 535.266 0.0278927 3.8809 0
M  V30 5937 H 533.367 -2.2603 2.96212 0
M  V30 5938 H 533.48 -1.33237 4.60201 0
M  V30 5939 H 531.844 -0.800749 2.41785 0
M  V30 5940 H 532.627 0.561125 3.38683 0
M  V30 5941 N 535.072 -1.5615 -0.213296 0
M  V30 5942 C 536.318 -1.79812 -0.937849 0
M  V30 5943 C 536.651 -0.631201 -1.83656 0
M  V30 5944 O 535.926 0.369165 -1.90964 0
M  V30 5945 C 536.209 -3.13613 -1.76972 0
M  V30 5946 C 536.062 -4.40766 -0.89695 0
M  V30 5947 C 537.381 -3.43931 -2.7459 0
M  V30 5948 H 534.5 -0.654138 -0.339518 0
M  V30 5949 H 537.142 -1.88877 -0.20623 0
M  V30 5950 H 535.292 -3.06015 -2.39347 0
M  V30 5951 H 536.964 -4.60392 -0.289306 0
M  V30 5952 H 535.207 -4.33326 -0.202756 0
M  V30 5953 H 535.878 -5.30843 -1.51358 0
M  V30 5954 H 538.354 -3.5171 -2.22349 0
M  V30 5955 H 537.23 -4.38706 -3.29891 0
M  V30 5956 H 537.491 -2.6651 -3.52739 0
M  V30 5957 N 536.55 0.480323 -1.50102 0
M  V30 5958 C 537.775 1.26126 -1.64642 0
M  V30 5959 C 538.2 1.85257 -0.325823 0
M  V30 5960 O 537.558 1.66854 0.709194 0
M  V30 5961 C 537.606 2.35243 -2.73301 0
M  V30 5962 O 536.71 3.39646 -2.33911 0
M  V30 5963 H 536.051 0.371463 -0.550374 0
M  V30 5964 H 538.581 0.572696 -1.96421 0
M  V30 5965 H 538.591 2.80695 -2.96098 0
M  V30 5966 H 537.266 1.91574 -3.6915 0
M  V30 5967 H 535.843 2.99969 -2.21525 0
M  V30 5968 N 538.028 1.39524 0.732853 0
M  V30 5969 C 538.975 1.38416 1.84688 0
M  V30 5970 C 539.945 0.243539 1.64305 0
M  V30 5971 O 541.13 0.438979 1.85681 0
M  V30 5972 C 538.27 1.23555 3.22224 0
M  V30 5973 C 537.383 2.47179 3.54298 0
M  V30 5974 C 536.518 2.2489 4.81246 0
M  V30 5975 C 535.557 3.44178 5.0617 0
M  V30 5976 N 534.694 3.21192 6.24323 0
M  V30 5977 H 539.534 2.33645 1.84971 0
M  V30 5978 H 537.071 1.16059 0.903804 0
M  V30 5979 H 539.029 1.12949 4.0162 0
M  V30 5980 H 537.659 0.31954 3.21215 0
M  V30 5981 H 536.711 2.68379 2.69587 0
M  V30 5982 H 538.023 3.36022 3.68633 0
M  V30 5983 H 537.177 2.11538 5.68627 0
M  V30 5984 H 535.916 1.33443 4.69089 0
M  V30 5985 H 534.921 3.58025 4.17251 0
M  V30 5986 H 536.146 4.36528 5.20212 0
M  V30 5987 H 534.092 2.32413 6.1345 0
M  V30 5988 H 534.009 4.03594 6.39256 0
M  V30 5989 H 535.277 3.1154 7.14537 0
M  V30 5990 N 539.506 -0.963266 1.24736 0
M  V30 5991 C 540.922 -1.23273 1.01371 0
M  V30 5992 C 541.122 -1.99618 -0.274776 0
M  V30 5993 O 540.178 -2.32293 -0.989769 0
M  V30 5994 C 541.491 -2.01554 2.23152 0
M  V30 5995 C 543.039 -2.14629 2.27823 0
M  V30 5996 C 543.514 -2.96307 3.49237 0
M  V30 5997 N 545.005 -3.03887 3.49581 0
M  V30 5998 C 545.74 -3.67456 4.40186 0
M  V30 5999 N 545.236 -4.32706 5.41052 0
M  V30 6000 N 547.029 -3.64511 4.27888 0
M  V30 6001 H 539.18 -0.452294 2.07528 0
M  V30 6002 H 541.443 -0.262521 0.910926 0
M  V30 6003 H 541.149 -1.52847 3.1675 0
M  V30 6004 H 541.023 -3.02278 2.25628 0
M  V30 6005 H 543.41 -2.62537 1.34753 0
M  V30 6006 H 543.491 -1.13238 2.2937 0
M  V30 6007 H 543.135 -2.49091 4.42624 0
M  V30 6008 H 543.065 -3.97905 3.44933 0
M  V30 6009 H 545.556 -2.57477 2.76611 0
M  V30 6010 H 545.869 -4.79042 6.06415 0
M  V30 6011 H 544.214 -4.31361 5.44934 0
M  V30 6012 H 547.405 -3.12715 3.4832 0
M  V30 6013 H 547.578 -4.13768 4.98698 0
M  V30 6014 N 540.985 -1.06182 -1.16461 0
M  V30 6015 C 541.915 -0.692861 -2.22984 0
M  V30 6016 C 542.896 0.314122 -1.67174 0
M  V30 6017 O 544.081 0.189499 -1.93273 0
M  V30 6018 C 541.211 -0.07732 -3.47214 0
M  V30 6019 C 540.165 -1.01015 -4.15909 0
M  V30 6020 C 539.491 -0.257973 -5.34077 0
M  V30 6021 C 540.791 -2.33868 -4.67015 0
M  V30 6022 H 542.485 -1.58343 -2.54102 0
M  V30 6023 H 540.031 -0.76279 -1.22137 0
M  V30 6024 H 541.984 0.19266 -4.20959 0
M  V30 6025 H 540.708 0.848254 -3.15392 0
M  V30 6026 H 539.367 -1.26486 -3.44088 0
M  V30 6027 H 539.015 0.670684 -4.98509 0
M  V30 6028 H 538.715 -0.879638 -5.80979 0
M  V30 6029 H 540.239 0.00448788 -6.106 0
M  V30 6030 H 541.653 -2.1279 -5.32347 0
M  V30 6031 H 540.05 -2.91522 -5.24533 0
M  V30 6032 H 541.12 -2.97019 -3.83286 0
M  V30 6033 N 542.463 1.3308 -0.844243 0
M  V30 6034 C 543.393 2.3161 -0.296493 0
M  V30 6035 C 544.374 1.59215 0.598707 0
M  V30 6036 O 545.559 1.87077 0.521134 0
M  V30 6037 C 542.689 3.43313 0.524762 0
M  V30 6038 C 541.643 4.27115 -0.275106 0
M  V30 6039 C 540.969 5.30483 0.670236 0
M  V30 6040 C 542.269 5.00443 -1.49514 0
M  V30 6041 H 543.963 2.77672 -1.11976 0
M  V30 6042 H 541.509 1.33496 -0.539899 0
M  V30 6043 H 543.462 4.11273 0.918298 0
M  V30 6044 H 542.186 2.95952 1.3813 0
M  V30 6045 H 540.845 3.60787 -0.650267 0
M  V30 6046 H 540.493 4.79379 1.52332 0
M  V30 6047 H 540.193 5.87435 0.139123 0
M  V30 6048 H 541.717 6.01308 1.06117 0
M  V30 6049 H 543.131 5.61141 -1.17447 0
M  V30 6050 H 541.528 5.67071 -1.96343 0
M  V30 6051 H 542.598 4.28906 -2.26202 0
M  V30 6052 N 543.941 0.601185 1.45683 0
M  V30 6053 C 544.851 -0.123395 2.34275 0
M  V30 6054 C 545.867 -0.86702 1.5086 0
M  V30 6055 O 547.043 -0.826049 1.8368 0
M  V30 6056 C 544.108 -1.11237 3.2837 0
M  V30 6057 C 543.169 -0.371405 4.2769 0
M  V30 6058 C 542.402 -1.31327 5.1729 0
M  V30 6059 O 542.625 -2.55078 5.10188 0
M  V30 6060 O 541.559 -0.813811 5.96373 0
M  V30 6061 H 545.385 0.604483 2.97623 0
M  V30 6062 H 542.97 0.361477 1.44961 0
M  V30 6063 H 544.852 -1.68214 3.8637 0
M  V30 6064 H 543.527 -1.82139 2.67595 0
M  V30 6065 H 542.434 0.24067 3.73325 0
M  V30 6066 H 543.767 0.296998 4.91303 0
M  V30 6067 N 545.419 -1.53889 0.339982 0
M  V30 6068 C 546.696 -1.93084 -0.312719 0
M  V30 6069 C 547.076 -1.2712 -1.68534 0
M  V30 6070 O 546.424 -0.420835 -2.24591 0
M  V30 6071 C 546.634 -3.4683 -0.388558 0
M  V30 6072 C 547.982 -4.19732 -0.641088 0
M  V30 6073 O 549.006 -3.53075 -0.470818 0
M  V30 6074 O 547.865 -5.3781 -0.970685 0
M  V30 6075 H 544.959 -0.806784 -0.18174 0
M  V30 6076 H 547.505 -1.65137 0.390898 0
M  V30 6077 H 546.277 -3.87055 0.574821 0
M  V30 6078 H 545.9 -3.80933 -1.1391 0
M  V30 6079 N 546.897 -0.0685191 -1.57451 0
M  V30 6080 C 547.844 0.899861 -2.12535 0
M  V30 6081 C 548.814 1.29749 -1.03703 0
M  V30 6082 O 549.999 1.38392 -1.31348 0
M  V30 6083 C 547.139 2.16328 -2.6888 0
M  V30 6084 C 546.252 1.81857 -3.91857 0
M  V30 6085 C 545.387 3.02786 -4.36457 0
M  V30 6086 C 544.426 2.64317 -5.5209 0
M  V30 6087 N 543.563 3.77994 -5.91663 0
M  V30 6088 H 548.403 0.423243 -2.94979 0
M  V30 6089 H 545.94 0.197268 -1.45771 0
M  V30 6090 H 547.898 2.90281 -2.99655 0
M  V30 6091 H 546.528 2.61536 -1.89206 0
M  V30 6092 H 545.58 0.979808 -3.67565 0
M  V30 6093 H 546.892 1.49553 -4.75852 0
M  V30 6094 H 546.046 3.85021 -4.68875 0
M  V30 6095 H 544.785 3.38281 -3.51308 0
M  V30 6096 H 543.79 1.80503 -5.19325 0
M  V30 6097 H 545.015 2.29995 -6.38967 0
M  V30 6098 H 542.961 4.13258 -5.09464 0
M  V30 6099 H 542.878 3.49447 -6.7039 0
M  V30 6100 H 544.146 4.60818 -6.28703 0
M  V30 6101 N 548.375 1.56261 0.205012 0
M  V30 6102 C 549.285 1.96944 1.27476 0
M  V30 6103 C 550.301 0.875636 1.50362 0
M  V30 6104 O 551.477 1.18058 1.6317 0
M  V30 6105 C 548.542 2.29219 2.60115 0
M  V30 6106 C 547.603 3.52255 2.45387 0
M  V30 6107 C 546.836 3.8298 3.71701 0
M  V30 6108 O 547.059 3.15138 4.75441 0
M  V30 6109 O 545.993 4.76435 3.67823 0
M  V30 6110 H 549.819 2.88144 0.959527 0
M  V30 6111 H 547.404 1.43686 0.409217 0
M  V30 6112 H 549.286 2.51098 3.3842 0
M  V30 6113 H 547.961 1.4119 2.91285 0
M  V30 6114 H 546.868 3.35635 1.65227 0
M  V30 6115 H 548.201 4.40719 2.19152 0
M  V30 6116 N 549.853 -0.472356 1.50355 0
M  V30 6117 C 551.081 -1.24784 1.65035 0
M  V30 6118 C 551.496 -1.85837 0.333176 0
M  V30 6119 O 550.853 -1.69168 -0.68472 0
M  V30 6120 C 550.904 -2.35747 2.74054 0
M  V30 6121 O 550.625 -1.77197 4.00665 0
M  V30 6122 C 552.126 -3.26645 2.99696 0
M  V30 6123 H 549.346 -0.377432 0.554785 0
M  V30 6124 H 551.89 -0.563962 1.9657 0
M  V30 6125 H 550.045 -2.99912 2.45217 0
M  V30 6126 H 550.459 -2.5026 4.60945 0
M  V30 6127 H 551.933 -4.00718 3.79644 0
M  V30 6128 H 552.41 -3.8535 2.10718 0
M  V30 6129 H 553.016 -2.68218 3.3006 0
M  V30 6130 N 551.331 -1.39911 -0.725443 0
M  V30 6131 C 552.561 -1.40744 -1.51244 0
M  V30 6132 C 552.969 -0.00275403 -1.892 0
M  V30 6133 O 552.312 0.981299 -1.55294 0
M  V30 6134 C 552.374 -2.22527 -2.82351 0
M  V30 6135 C 552.038 -3.71053 -2.66774 0
M  V30 6136 C 553.035 -4.63916 -2.34686 0
M  V30 6137 C 550.72 -4.14753 -2.83347 0
M  V30 6138 C 552.714 -5.98463 -2.19366 0
M  V30 6139 C 550.401 -5.49372 -2.67644 0
M  V30 6140 C 551.399 -6.41042 -2.357 0
M  V30 6141 O 551.087 -7.73181 -2.20107 0
M  V30 6142 H 550.819 -0.482314 -0.473655 0
M  V30 6143 H 553.373 -1.84472 -0.903284 0
M  V30 6144 H 551.603 -1.73563 -3.45562 0
M  V30 6145 H 553.292 -2.15421 -3.44018 0
M  V30 6146 H 554.058 -4.31453 -2.21525 0
M  V30 6147 H 549.937 -3.43728 -3.072 0
M  V30 6148 H 553.481 -6.69979 -1.94354 0
M  V30 6149 H 549.378 -5.81424 -2.80387 0
M  V30 6150 H 550.146 -7.84008 -2.35103 0
M  V30 6151 N 552.809 0.956637 -1.25245 0
M  V30 6152 C 554.049 1.71585 -1.11076 0
M  V30 6153 C 554.413 1.88916 0.34277 0
M  V30 6154 O 555.614 2.61875 0.606227 0
M  V30 6155 C 553.885 3.06267 -1.84215 0
M  V30 6156 S 555.444 3.97469 -1.85914 0
M  V30 6157 H 552.262 0.589803 -0.397055 0
M  V30 6158 H 554.864 1.14114 -1.58739 0
M  V30 6159 H 553.568 2.91322 -2.89067 0
M  V30 6160 H 553.099 3.688 -1.36931 0
M  V30 6161 H 555.114 4.87316 -0.93474 0
M  V30 6162 N 554.287 1.06798 1.15896 0
M  V30 6163 C 555.512 0.808739 1.90982 0
M  V30 6164 C 555.937 -0.6316 1.77179 0
M  V30 6165 O 555.295 -1.4407 1.10061 0
M  V30 6166 C 555.343 1.21468 3.39526 0
M  V30 6167 O 554.447 0.356562 4.10856 0
M  V30 6168 H 553.788 0.29512 0.594811 0
M  V30 6169 H 556.318 1.42513 1.46804 0
M  V30 6170 H 556.328 1.18844 3.90308 0
M  V30 6171 H 555.003 2.26379 3.48891 0
M  V30 6172 H 553.58 0.444808 3.70238 0
M  V30 6173 N 555.766 -1.3263 0.851289 0
M  V30 6174 C 556.991 -2.02097 0.466006 0
M  V30 6175 C 557.416 -1.63574 -0.928709 0
M  V30 6176 O 556.774 -0.834665 -1.60944 0
M  V30 6177 C 556.822 -3.55425 0.608737 0
M  V30 6178 O 555.926 -4.10827 -0.359878 0
M  V30 6179 H 555.267 -0.636911 0.187724 0
M  V30 6180 H 557.797 -1.69253 1.14955 0
M  V30 6181 H 557.807 -4.04986 0.495006 0
M  V30 6182 H 556.482 -3.82806 1.62581 0
M  V30 6183 H 555.059 -3.72349 -0.202666 0
M  V30 6184 N 557.244 -0.608902 -1.45362 0
M  V30 6185 C 558.174 0.0964526 -2.33301 0
M  V30 6186 C 559.155 0.857444 -1.46908 0
M  V30 6187 O 560.34 0.827735 -1.75676 0
M  V30 6188 C 557.47 1.09354 -3.29635 0
M  V30 6189 C 556.424 0.445676 -4.25673 0
M  V30 6190 C 555.75 1.5511 -5.11708 0
M  V30 6191 C 557.05 -0.633972 -5.18438 0
M  V30 6192 H 558.744 -0.637829 -2.92527 0
M  V30 6193 H 556.29 -0.308178 -1.40664 0
M  V30 6194 H 558.243 1.59556 -3.90025 0
M  V30 6195 H 556.967 1.85843 -2.6857 0
M  V30 6196 H 555.626 -0.0354897 -3.66583 0
M  V30 6197 H 555.274 2.30631 -4.4701 0
M  V30 6198 H 554.974 1.12311 -5.76767 0
M  V30 6199 H 556.498 2.05537 -5.74967 0
M  V30 6200 H 557.912 -0.215974 -5.72893 0
M  V30 6201 H 556.309 -0.983789 -5.91981 0
M  V30 6202 H 557.379 -1.51005 -4.60788 0
M  V30 6203 N 558.722 1.53707 -0.348139 0
M  V30 6204 C 559.999 1.93247 0.302475 0
M  V30 6205 C 560.379 1.28012 1.67857 0
M  V30 6206 O 559.727 0.43274 2.24365 0
M  V30 6207 C 559.937 3.47031 0.370159 0
M  V30 6208 C 561.285 4.20066 0.61882 0
M  V30 6209 O 562.309 3.53319 0.452087 0
M  V30 6210 O 561.168 5.38318 0.94215 0
M  V30 6211 H 558.262 0.807736 0.177458 0
M  V30 6212 H 560.808 1.64927 -0.399651 0
M  V30 6213 H 559.58 3.86745 -0.59534 0
M  V30 6214 H 559.203 3.81532 1.11888 0
M  V30 6215 N 560.2 0.0768682 1.57412 0
M  V30 6216 C 561.447 -0.591085 1.93681 0
M  V30 6217 C 561.775 -1.69311 0.957286 0
M  V30 6218 O 561.03 -1.95682 -0.0262428 0
M  V30 6219 C 561.329 -1.20268 3.36557 0
M  V30 6220 C 560.995 -0.226286 4.50332 0
M  V30 6221 C 559.657 0.0423142 4.81181 0
M  V30 6222 C 562.009 0.441415 5.19327 0
M  V30 6223 C 559.337 0.985616 5.78362 0
M  V30 6224 C 561.689 1.37307 6.17519 0
M  V30 6225 C 560.353 1.65009 6.46783 0
M  V30 6226 H 559.623 -0.216293 0.70873 0
M  V30 6227 H 562.27 0.148824 1.90921 0
M  V30 6228 H 560.575 -2.01844 3.35807 0
M  V30 6229 H 562.272 -1.72688 3.61911 0
M  V30 6230 H 558.862 -0.445821 4.26275 0
M  V30 6231 H 563.046 0.247023 4.95685 0
M  V30 6232 H 558.302 1.20743 5.99359 0
M  V30 6233 H 562.476 1.89637 6.70083 0
M  V30 6234 H 560.103 2.38263 7.21897 0
M  V30 6235 N 561.678 -1.56367 -0.196722 0
M  V30 6236 C 562.903 -1.84991 -0.937714 0
M  V30 6237 C 563.328 -0.660244 -1.76132 0
M  V30 6238 O 562.686 0.390967 -1.77034 0
M  V30 6239 C 562.734 -3.11828 -1.81096 0
M  V30 6240 O 561.838 -2.92266 -2.90955 0
M  V30 6241 H 561.179 -0.609193 -0.264159 0
M  V30 6242 H 563.709 -2.03595 -0.202529 0
M  V30 6243 H 563.719 -3.42579 -2.21594 0
M  V30 6244 H 562.394 -3.98037 -1.2058 0
M  V30 6245 H 560.971 -2.72809 -2.54224 0
M  V30 6246 N 563.156 0.464375 -1.50603 0
M  V30 6247 C 564.086 1.56944 -1.72889 0
M  V30 6248 C 565.067 1.59979 -0.577997 0
M  V30 6249 O 566.252 1.76138 -0.817855 0
M  V30 6250 C 563.382 2.95225 -1.8292 0
M  V30 6251 C 562.336 3.07056 -2.98162 0
M  V30 6252 C 561.662 4.47051 -2.93343 0
M  V30 6253 C 562.962 2.83648 -4.38567 0
M  V30 6254 H 564.656 1.38547 -2.65415 0
M  V30 6255 H 562.202 0.665082 -1.27721 0
M  V30 6256 H 564.155 3.72467 -1.97095 0
M  V30 6257 H 562.879 3.14793 -0.870209 0
M  V30 6258 H 561.538 2.32248 -2.83648 0
M  V30 6259 H 561.186 4.63547 -1.95276 0
M  V30 6260 H 560.886 4.55902 -3.70712 0
M  V30 6261 H 562.41 5.26304 -3.09575 0
M  V30 6262 H 563.824 3.50636 -4.53572 0
M  V30 6263 H 562.221 3.03937 -5.17438 0
M  V30 6264 H 563.291 1.79451 -4.50472 0
M  V30 6265 N 564.634 1.40294 0.718013 0
M  V30 6266 C 565.544 1.42678 1.86226 0
M  V30 6267 C 566.56 0.319655 1.71039 0
M  V30 6268 O 567.736 0.563852 1.93346 0
M  V30 6269 C 564.801 1.2852 3.21999 0
M  V30 6270 C 563.862 2.49354 3.49458 0
M  V30 6271 C 563.095 2.35863 4.78753 0
M  V30 6272 O 563.318 1.37114 5.53675 0
M  V30 6273 O 562.252 3.25189 5.06494 0
M  V30 6274 H 566.078 2.39167 1.87171 0
M  V30 6275 H 563.663 1.2159 0.868112 0
M  V30 6276 H 565.545 1.22824 4.03103 0
M  V30 6277 H 564.22 0.351359 3.21787 0
M  V30 6278 H 563.127 2.60628 2.68373 0
M  V30 6279 H 564.46 3.41491 3.54464 0
M  V30 6280 N 566.112 -0.949982 1.2575 0
M  V30 6281 C 567.389 -1.6718 1.01539 0
M  V30 6282 C 567.769 -2.06095 -0.456942 0
M  V30 6283 O 567.117 -1.77792 -1.43534 0
M  V30 6284 C 567.327 -2.8906 1.95564 0
M  V30 6285 C 568.675 -3.60909 2.23673 0
M  V30 6286 O 569.699 -2.9915 1.9336 0
M  V30 6287 O 568.558 -4.72127 2.75243 0
M  V30 6288 H 565.652 -0.731697 0.385419 0
M  V30 6289 H 568.198 -1.00249 1.36924 0
M  V30 6290 H 566.97 -2.57128 2.94959 0
M  V30 6291 H 566.593 -3.63719 1.60605 0
M  V30 6292 N 567.59 -1.07411 -1.15328 0
M  V30 6293 C 568.52 -0.716472 -2.22236 0
M  V30 6294 C 569.501 0.296373 -1.67498 0
M  V30 6295 O 570.686 0.168989 -1.93463 0
M  V30 6296 C 567.816 -0.114142 -3.47112 0
M  V30 6297 C 566.77 -1.05421 -4.14814 0
M  V30 6298 C 566.096 -0.314604 -5.33774 0
M  V30 6299 C 567.396 -2.38808 -4.64508 0
M  V30 6300 H 569.09 -1.61029 -2.52408 0
M  V30 6301 H 566.636 -0.775702 -1.21321 0
M  V30 6302 H 568.589 0.148001 -4.2114 0
M  V30 6303 H 567.313 0.814755 -3.16274 0
M  V30 6304 H 565.972 -1.30128 -3.42728 0
M  V30 6305 H 565.62 0.617772 -4.99192 0
M  V30 6306 H 565.32 -0.941209 -5.80013 0
M  V30 6307 H 566.844 -0.0602747 -6.1057 0
M  V30 6308 H 568.258 -2.18424 -5.3006 0
M  V30 6309 H 566.655 -2.97069 -5.21412 0
M  V30 6310 H 567.725 -3.01067 -3.80114 0
M  V30 6311 N 569.068 1.32177 -0.85831 0
M  V30 6312 C 570.015 2.28794 -0.303607 0
M  V30 6313 C 570.985 1.55213 0.591453 0
M  V30 6314 O 572.17 1.83418 0.525585 0
M  V30 6315 C 569.31 3.41475 0.49889 0
M  V30 6316 C 568.423 4.2993 -0.422373 0
M  V30 6317 C 567.558 5.29743 0.393111 0
M  V30 6318 C 566.597 6.09842 -0.525317 0
M  V30 6319 N 565.734 7.01643 0.253208 0
M  V30 6320 H 570.574 2.75631 -1.13276 0
M  V30 6321 H 568.111 1.35606 -0.570026 0
M  V30 6322 H 570.069 4.05531 0.979826 0
M  V30 6323 H 568.699 2.95779 1.29284 0
M  V30 6324 H 567.751 3.66422 -1.02171 0
M  V30 6325 H 569.063 4.85899 -1.12709 0
M  V30 6326 H 568.217 5.9942 0.937056 0
M  V30 6327 H 566.956 4.744 1.13117 0
M  V30 6328 H 565.961 5.39066 -1.08112 0
M  V30 6329 H 567.186 6.6727 -1.26205 0
M  V30 6330 H 565.132 6.48725 0.974295 0
M  V30 6331 H 565.049 7.54981 -0.392398 0
M  V30 6332 H 566.317 7.756 0.778761 0
M  V30 6333 N 570.547 0.616602 1.45037 0
M  V30 6334 C 571.457 -0.0985401 2.34393 0
M  V30 6335 C 572.473 -0.850971 1.51771 0
M  V30 6336 O 573.649 -0.806521 1.84546 0
M  V30 6337 C 570.714 -1.07748 3.29532 0
M  V30 6338 C 569.775 -0.326022 4.2806 0
M  V30 6339 C 569.008 -1.25833 5.18654 0
M  V30 6340 O 569.231 -2.49652 5.12864 0
M  V30 6341 O 568.165 -0.750512 5.97203 0
M  V30 6342 H 571.991 0.636016 2.96966 0
M  V30 6343 H 569.576 0.376832 1.44569 0
M  V30 6344 H 571.458 -1.64107 3.88133 0
M  V30 6345 H 570.133 -1.79291 2.69512 0
M  V30 6346 H 569.04 0.280253 3.73049 0
M  V30 6347 H 570.373 0.349091 4.9096 0
M  V30 6348 N 572.025 -1.5352 0.356285 0
M  V30 6349 C 572.973 -2.26945 -0.50978 0
M  V30 6350 C 573.967 -1.29569 -1.09125 0
M  V30 6351 O 575.173 -1.47231 -1.03552 0
M  V30 6352 H 571.548 -0.729368 -0.183102 0
M  V30 6353 H 573.519 -2.98111 0.131374 0
M  V30 6354 C 572.268 -3.06466 -1.64237 0
M  V30 6355 H 571.591 -3.81233 -1.20423 0
M  V30 6356 H 573.031 -3.61035 -2.22327 0
M  V30 6357 C 571.49 -2.16737 -2.57928 0
M  V30 6358 O 572.02 -1.77195 -3.60507 0
M  V30 6359 N 570.226 -1.81558 -2.26903 0
M  V30 6360 H 569.773 -2.13913 -1.43524 0
M  V30 6361 H 569.731 -1.21806 -2.89846 0
M  V30 6362 N 573.503 -0.0852151 -1.57369 0
M  V30 6363 C 574.733 0.588605 -1.98038 0
M  V30 6364 C 575.141 1.62869 -0.962817 0
M  V30 6365 O 574.484 1.83611 0.057134 0
M  V30 6366 C 574.546 1.30303 -3.35054 0
M  V30 6367 C 574.21 0.414855 -4.55113 0
M  V30 6368 C 575.207 -0.333011 -5.18832 0
M  V30 6369 C 572.892 0.335804 -5.01176 0
M  V30 6370 C 574.886 -1.14801 -6.26976 0
M  V30 6371 C 572.573 -0.482857 -6.09189 0
M  V30 6372 C 573.571 -1.22342 -6.71953 0
M  V30 6373 O 573.259 -2.02855 -7.77885 0
M  V30 6374 H 572.991 0.163249 -0.655992 0
M  V30 6375 H 575.545 -0.1582 -2.0479 0
M  V30 6376 H 573.775 2.0962 -3.24956 0
M  V30 6377 H 575.464 1.87041 -3.60237 0
M  V30 6378 H 576.23 -0.281611 -4.84182 0
M  V30 6379 H 572.109 0.901869 -4.52092 0
M  V30 6380 H 575.653 -1.72654 -6.75897 0
M  V30 6381 H 571.55 -0.535773 -6.43273 0
M  V30 6382 H 572.318 -1.95432 -7.94826 0
M  V30 6383 N 574.981 1.5647 0.188427 0
M  V30 6384 C 576.228 1.81013 0.907779 0
M  V30 6385 C 576.556 0.65953 1.82977 0
M  V30 6386 O 575.811 -0.354308 1.92466 0
M  V30 6387 C 576.11 3.11596 1.7505 0
M  V30 6388 C 575.776 4.40145 0.978922 0
M  V30 6389 C 574.438 4.75066 0.765912 0
M  V30 6390 C 576.79 5.19369 0.436498 0
M  V30 6391 C 574.118 5.867 -0.00089868 0
M  V30 6392 C 576.47 6.31805 -0.317136 0
M  V30 6393 C 575.134 6.65303 -0.541103 0
M  V30 6394 H 574.404 0.662373 0.33218 0
M  V30 6395 H 577.051 1.9071 0.173732 0
M  V30 6396 H 575.356 2.97165 2.55343 0
M  V30 6397 H 577.053 3.27793 2.30983 0
M  V30 6398 H 573.643 4.12745 1.15497 0
M  V30 6399 H 577.827 4.92799 0.588449 0
M  V30 6400 H 573.083 6.11122 -0.184329 0
M  V30 6401 H 577.257 6.92406 -0.744788 0
M  V30 6402 H 574.884 7.51646 -1.13718 0
M  V30 6403 N 576.459 -0.456382 1.50847 0
M  V30 6404 C 577.684 -1.2349 1.66628 0
M  V30 6405 C 578.109 -1.84715 0.355254 0
M  V30 6406 O 577.467 -1.67961 -0.682559 0
M  V30 6407 C 577.515 -2.30865 2.77009 0
M  V30 6408 O 576.619 -3.35882 2.39285 0
M  V30 6409 H 575.96 -0.36266 0.556214 0
M  V30 6410 H 578.49 -0.541374 1.97308 0
M  V30 6411 H 578.5 -2.75949 3.00526 0
M  V30 6412 H 577.175 -1.85677 3.72152 0
M  V30 6413 H 575.752 -2.96406 2.26269 0
M  V30 6414 N 577.937 -1.40673 -0.710563 0
M  V30 6415 C 579.186 -1.38525 -1.46607 0
M  V30 6416 C 579.499 0.0077024 -1.95598 0
M  V30 6417 O 580.705 0.151792 -2.71075 0
M  V30 6418 C 579.161 -2.43489 -2.6503 0
M  V30 6419 C 578.769 -3.88619 -2.22888 0
M  V30 6420 C 580.513 -2.50456 -3.42742 0
M  V30 6421 C 578.42 -4.85168 -3.3818 0
M  V30 6422 H 577.35 -0.515092 -0.550632 0
M  V30 6423 H 580.001 -1.66431 -0.772846 0
M  V30 6424 H 578.383 -2.0869 -3.36548 0
M  V30 6425 H 579.557 -4.32588 -1.58758 0
M  V30 6426 H 577.872 -3.85174 -1.58208 0
M  V30 6427 H 580.469 -3.19776 -4.28541 0
M  V30 6428 H 580.812 -1.53665 -3.86902 0
M  V30 6429 H 581.345 -2.84271 -2.78271 0
M  V30 6430 H 578.084 -5.8331 -2.99047 0
M  V30 6431 H 577.604 -4.4586 -4.01209 0
M  V30 6432 H 579.283 -5.05225 -4.04174 0
M  V30 6433 N 579.415 0.9433 -1.26252 0
M  V30 6434 C 580.692 1.66639 -1.02424 0
M  V30 6435 C 581.072 2.06335 0.446006 0
M  V30 6436 O 580.42 1.78551 1.42589 0
M  V30 6437 C 580.63 2.88019 -1.97094 0
M  V30 6438 C 581.978 3.59718 -2.25584 0
M  V30 6439 O 583.002 2.9812 -1.94943 0
M  V30 6440 O 581.861 4.7066 -2.77743 0
M  V30 6441 H 578.955 0.729643 -0.389294 0
M  V30 6442 H 581.501 0.995218 -1.37454 0
M  V30 6443 H 580.273 2.5556 -2.96319 0
M  V30 6444 H 579.896 3.62863 -1.62532 0
M  V30 6445 N 580.893 1.08022 1.14757 0
M  V30 6446 C 582.142 0.802468 1.8505 0
M  V30 6447 C 582.455 -0.674061 1.83619 0
M  V30 6448 O 583.661 -1.06683 2.49662 0
M  V30 6449 C 582.117 1.38551 3.32162 0
M  V30 6450 C 581.725 2.89354 3.42021 0
M  V30 6451 C 583.469 1.18608 4.07594 0
M  V30 6452 C 581.376 3.40815 4.83321 0
M  V30 6453 H 580.306 0.296518 0.693248 0
M  V30 6454 H 582.957 1.30114 1.29393 0
M  V30 6455 H 581.339 0.814556 3.87532 0
M  V30 6456 H 582.513 3.52552 2.96722 0
M  V30 6457 H 580.828 3.08165 2.80041 0
M  V30 6458 H 583.425 1.54525 5.11885 0
M  V30 6459 H 583.768 0.125599 4.1611 0
M  V30 6460 H 584.301 1.72375 3.58513 0
M  V30 6461 H 581.04 4.46418 4.79991 0
M  V30 6462 H 580.56 2.82374 5.29174 0
M  V30 6463 H 582.239 3.37171 5.522 0
M  V30 6464 N 582.371 -1.3172 0.865308 0
M  V30 6465 C 583.601 -2.00765 0.487543 0
M  V30 6466 C 584.009 -1.65145 -0.92325 0
M  V30 6467 O 583.352 -0.874294 -1.61561 0
M  V30 6468 C 583.414 -3.55122 0.559369 0
M  V30 6469 C 583.078 -4.14202 1.93095 0
M  V30 6470 C 584.075 -4.3165 2.89784 0
M  V30 6471 C 581.76 -4.50036 2.23099 0
M  V30 6472 C 583.754 -4.84114 4.14623 0
M  V30 6473 C 581.441 -5.02203 3.48189 0
M  V30 6474 C 582.439 -5.19192 4.43767 0
M  V30 6475 O 582.127 -5.70241 5.6664 0
M  V30 6476 H 581.859 -0.649066 0.188915 0
M  V30 6477 H 584.413 -1.69032 1.16694 0
M  V30 6478 H 582.643 -3.86295 -0.176926 0
M  V30 6479 H 584.332 -4.05428 0.195694 0
M  V30 6480 H 585.098 -4.04288 2.6791 0
M  V30 6481 H 580.977 -4.36091 1.49485 0
M  V30 6482 H 584.521 -4.9729 4.89233 0
M  V30 6483 H 580.418 -5.28997 3.69908 0
M  V30 6484 H 581.186 -5.88617 5.68746 0
M  V30 6485 N 583.85 -0.624285 -1.44708 0
M  V30 6486 C 585.127 -0.0572781 -1.95516 0
M  V30 6487 C 585.507 1.41516 -1.56641 0
M  V30 6488 O 584.855 2.12614 -0.837111 0
M  V30 6489 C 585.065 -0.272944 -3.47931 0
M  V30 6490 C 586.413 -0.162529 -4.24289 0
M  V30 6491 O 587.437 -0.203946 -3.55616 0
M  V30 6492 O 586.296 -0.0616847 -5.46465 0
M  V30 6493 H 583.389 0.0262219 -0.826584 0
M  V30 6494 H 585.936 -0.695512 -1.54793 0
M  V30 6495 H 584.707 -1.29492 -3.69253 0
M  V30 6496 H 584.331 0.399756 -3.95585 0
M  V30 6497 N 585.328 1.53329 -0.364422 0
M  V30 6498 C 586.574 2.01537 0.225969 0
M  V30 6499 C 586.907 1.25128 1.48515 0
M  V30 6500 O 586.182 0.344653 1.91422 0
M  V30 6501 C 586.465 3.56339 0.519092 0
M  V30 6502 C 586.318 4.43441 -0.753639 0
M  V30 6503 C 587.637 4.19833 1.32015 0
M  V30 6504 H 584.756 0.732573 0.0806548 0
M  V30 6505 H 587.398 1.83597 -0.489084 0
M  V30 6506 H 585.548 3.71756 1.12825 0
M  V30 6507 H 587.22 4.39823 -1.39116 0
M  V30 6508 H 585.463 4.11457 -1.37424 0
M  V30 6509 H 586.134 5.49699 -0.503517 0
M  V30 6510 H 588.61 4.08242 0.804859 0
M  V30 6511 H 587.486 5.28177 1.49399 0
M  V30 6512 H 587.747 3.75821 2.32832 0
M  V30 6513 N 586.806 0.0935595 1.57322 0
M  V30 6514 C 588.031 -0.582324 1.99057 0
M  V30 6515 C 588.456 -1.61025 0.972242 0
M  V30 6516 O 587.814 -1.81202 -0.0594622 0
M  V30 6517 C 587.862 -1.20799 3.39765 0
M  V30 6518 O 586.966 -2.32382 3.40694 0
M  V30 6519 H 586.307 -0.147884 0.647323 0
M  V30 6520 H 588.837 0.174516 2.03854 0
M  V30 6521 H 588.847 -1.54966 3.77425 0
M  V30 6522 H 587.522 -0.454914 4.13405 0
M  V30 6523 H 586.099 -1.99845 3.14827 0
M  V30 6524 N 588.284 -1.56567 -0.180126 0
M  V30 6525 C 589.514 -1.85349 -0.912647 0
M  V30 6526 C 589.922 -0.675795 -1.76719 0
M  V30 6527 O 589.265 0.3645 -1.80047 0
M  V30 6528 C 589.327 -3.08431 -1.84691 0
M  V30 6529 C 588.991 -4.41694 -1.17284 0
M  V30 6530 C 589.988 -5.17062 -0.542532 0
M  V30 6531 C 587.673 -4.8843 -1.17223 0
M  V30 6532 C 589.667 -6.37351 0.0793953 0
M  V30 6533 C 587.354 -6.08652 -0.54647 0
M  V30 6534 C 588.352 -6.82955 0.0782458 0
M  V30 6535 O 588.04 -8.00897 0.694158 0
M  V30 6536 H 587.772 -0.619286 -0.271036 0
M  V30 6537 H 590.326 -2.0454 -0.187768 0
M  V30 6538 H 588.556 -2.85163 -2.61188 0
M  V30 6539 H 590.245 -3.23733 -2.44851 0
M  V30 6540 H 591.011 -4.8204 -0.535045 0
M  V30 6541 H 586.89 -4.30542 -1.64788 0
M  V30 6542 H 590.434 -6.95287 0.567612 0
M  V30 6543 H 586.331 -6.4314 -0.55151 0
M  V30 6544 H 587.099 -8.16352 0.592537 0
M  V30 6545 N 589.762 0.448376 -1.51087 0
M  V30 6546 C 590.709 1.54341 -1.71603 0
M  V30 6547 C 591.679 1.56463 -0.557536 0
M  V30 6548 O 592.864 1.73644 -0.79072 0
M  V30 6549 C 590.004 2.92148 -1.83695 0
M  V30 6550 C 589.117 2.99639 -3.11192 0
M  V30 6551 C 588.252 4.285 -3.13944 0
M  V30 6552 C 587.291 4.29819 -4.35801 0
M  V30 6553 N 586.428 5.50186 -4.36164 0
M  V30 6554 H 591.268 1.36151 -2.65079 0
M  V30 6555 H 588.805 0.661585 -1.31383 0
M  V30 6556 H 590.763 3.72093 -1.88687 0
M  V30 6557 H 589.393 3.0892 -0.936374 0
M  V30 6558 H 588.445 2.12425 -3.15562 0
M  V30 6559 H 589.757 2.96474 -4.01129 0
M  V30 6560 H 588.911 5.16811 -3.17791 0
M  V30 6561 H 587.65 4.34307 -2.21876 0
M  V30 6562 H 586.655 3.39902 -4.32142 0
M  V30 6563 H 587.88 4.25685 -5.29121 0
M  V30 6564 H 585.826 5.56735 -3.46961 0
M  V30 6565 H 585.743 5.48856 -5.19897 0
M  V30 6566 H 587.011 6.40559 -4.44189 0
M  V30 6567 N 591.24 1.41047 0.703093 0
M  V30 6568 C 592.47 1.43133 1.48985 0
M  V30 6569 C 592.878 0.0328537 1.89171 0
M  V30 6570 O 592.221 -0.956469 1.56835 0
M  V30 6571 C 592.283 2.26991 2.78775 0
M  V30 6572 C 591.947 3.7525 2.60837 0
M  V30 6573 C 592.944 4.67591 2.27276 0
M  V30 6574 C 590.629 4.19208 2.76712 0
M  V30 6575 C 592.623 6.01877 2.09817 0
M  V30 6576 C 590.31 5.53561 2.5887 0
M  V30 6577 C 591.308 6.4471 2.25472 0
M  V30 6578 O 590.996 7.76584 2.07778 0
M  V30 6579 H 590.728 0.489788 0.465922 0
M  V30 6580 H 593.282 1.85886 0.873822 0
M  V30 6581 H 591.512 1.79038 3.42757 0
M  V30 6582 H 593.201 2.20867 3.40547 0
M  V30 6583 H 593.967 4.34923 2.14633 0
M  V30 6584 H 589.846 3.48572 3.01693 0
M  V30 6585 H 593.39 6.72986 1.83671 0
M  V30 6586 H 589.287 5.85811 2.71102 0
M  V30 6587 H 590.055 7.87649 2.22601 0
M  V30 6588 N 592.718 -0.936591 1.26751 0
M  V30 6589 C 593.665 -2.03597 1.08706 0
M  V30 6590 C 594.635 -1.66097 -0.00926542 0
M  V30 6591 O 595.82 -1.90199 0.151377 0
M  V30 6592 C 592.96 -3.3727 0.73094 0
M  V30 6593 C 592.073 -3.87778 1.90399 0
M  V30 6594 C 591.208 -5.09859 1.49056 0
M  V30 6595 C 590.247 -5.5264 2.63164 0
M  V30 6596 N 589.384 -6.65921 2.22471 0
M  V30 6597 H 594.224 -2.18364 2.02784 0
M  V30 6598 H 591.761 -1.06985 1.00958 0
M  V30 6599 H 593.719 -4.14128 0.505328 0
M  V30 6600 H 592.349 -3.22337 -0.172868 0
M  V30 6601 H 591.401 -3.07279 2.2424 0
M  V30 6602 H 592.713 -4.15464 2.76028 0
M  V30 6603 H 591.867 -5.9419 1.22567 0
M  V30 6604 H 590.606 -4.8393 0.60524 0
M  V30 6605 H 589.611 -4.66863 2.90377 0
M  V30 6606 H 590.836 -5.80568 3.52303 0
M  V30 6607 H 588.782 -6.41667 1.36379 0
M  V30 6608 H 588.699 -6.93216 3.01641 0
M  V30 6609 H 589.967 -7.53616 1.99205 0
M  V30 6610 N 594.196 -1.08629 -1.14182 0
M  V30 6611 C 595.436 -0.826884 -1.86928 0
M  V30 6612 C 595.8 0.635808 -1.81167 0
M  V30 6613 O 597.001 1.0108 -2.49071 0
M  V30 6614 C 595.272 -1.33721 -3.31442 0
M  V30 6615 S 596.831 -1.21045 -4.21774 0
M  V30 6616 H 593.649 -0.299286 -0.644941 0
M  V30 6617 H 596.251 -1.38802 -1.37674 0
M  V30 6618 H 594.955 -2.39617 -3.33184 0
M  V30 6619 H 594.486 -0.771839 -3.85754 0
M  V30 6620 H 596.501 -0.156168 -4.95954 0
M  V30 6621 N 595.674 1.31259 -0.872281 0
M  V30 6622 C 596.624 2.26 -0.301295 0
M  V30 6623 C 597.608 1.50729 0.562991 0
M  V30 6624 O 598.8 1.72198 0.40949 0
M  V30 6625 C 595.929 3.39724 0.494227 0
M  V30 6626 C 595.015 4.22363 -0.383432 0
M  V30 6627 N 595.406 4.83724 -1.47799 0
M  V30 6628 C 593.704 4.45652 -0.176278 0
M  V30 6629 C 594.405 5.45523 -2.01939 0
M  V30 6630 N 593.381 5.27428 -1.31608 0
M  V30 6631 H 597.183 2.70981 -1.13782 0
M  V30 6632 H 594.697 1.45552 -0.720294 0
M  V30 6633 H 596.694 4.06626 0.919828 0
M  V30 6634 H 595.354 2.96286 1.32834 0
M  V30 6635 H 596.365 4.83313 -1.8609 0
M  V30 6636 H 593.042 4.12845 0.621698 0
M  V30 6637 H 594.432 6.04268 -2.93786 0
M  V30 6638 N 597.152 0.631951 1.44375 0
M  V30 6639 C 598.099 -0.0724807 2.30686 0
M  V30 6640 C 599.069 -0.835975 1.43529 0
M  V30 6641 O 600.254 -0.816849 1.7243 0
M  V30 6642 C 597.394 -1.04753 3.28817 0
M  V30 6643 C 596.507 -0.282367 4.31076 0
M  V30 6644 C 595.642 -1.2493 5.163 0
M  V30 6645 C 594.681 -0.473349 6.10267 0
M  V30 6646 N 593.818 -1.39079 6.88187 0
M  V30 6647 H 598.658 0.669477 2.90383 0
M  V30 6648 H 596.195 0.341927 1.43071 0
M  V30 6649 H 598.153 -1.62623 3.842 0
M  V30 6650 H 596.783 -1.75661 2.70819 0
M  V30 6651 H 595.835 0.412268 3.78159 0
M  V30 6652 H 597.147 0.321955 4.9776 0
M  V30 6653 H 596.301 -1.89931 5.76204 0
M  V30 6654 H 595.04 -1.88755 4.49692 0
M  V30 6655 H 594.045 0.190142 5.49471 0
M  V30 6656 H 595.27 0.16019 6.78911 0
M  V30 6657 H 593.216 -2.01623 6.24247 0
M  V30 6658 H 593.133 -0.840513 7.51313 0
M  V30 6659 H 594.401 -2.02961 7.52613 0
M  V30 6660 N 598.631 -1.53133 0.372548 0
M  V30 6661 C 599.88 -2.00539 -0.216115 0
M  V30 6662 C 600.193 -1.26374 -1.49295 0
M  V30 6663 O 601.399 -1.64404 -2.16064 0
M  V30 6664 C 599.855 -3.57253 -0.435678 0
M  V30 6665 C 599.463 -4.40302 0.82693 0
M  V30 6666 C 601.207 -4.12995 -0.981618 0
M  V30 6667 C 599.114 -5.88583 0.576567 0
M  V30 6668 H 598.044 -0.749246 -0.084536 0
M  V30 6669 H 600.695 -1.76771 0.492364 0
M  V30 6670 H 599.077 -3.77202 -1.20559 0
M  V30 6671 H 600.251 -4.32124 1.60017 0
M  V30 6672 H 598.566 -3.95699 1.29659 0
M  V30 6673 H 601.163 -5.21418 -1.18436 0
M  V30 6674 H 601.506 -3.68027 -1.94581 0
M  V30 6675 H 602.039 -3.96871 -0.271696 0
M  V30 6676 H 598.778 -6.37841 1.51128 0
M  V30 6677 H 598.298 -5.99592 -0.158047 0
M  V30 6678 H 599.977 -6.46676 0.204722 0
M  V30 6679 N 600.109 -0.101901 -1.5727 0
M  V30 6680 C 601.072 0.840129 -2.13247 0
M  V30 6681 C 602.072 1.20625 -1.06331 0
M  V30 6682 O 603.262 1.13456 -1.32186 0
M  V30 6683 C 600.394 2.13372 -2.65867 0
M  V30 6684 H 601.587 0.353945 -2.97804 0
M  V30 6685 H 599.14 0.147167 -1.55606 0
M  V30 6686 H 599.875 2.66461 -1.84849 0
M  V30 6687 H 599.66 1.88085 -3.44044 0
M  V30 6688 H 601.15 2.80748 -3.09145 0
M  V30 6689 N 601.587 1.56661 0.17182 0
M  V30 6690 C 602.535 1.97289 1.23207 0
M  V30 6691 C 603.529 0.861566 1.45854 0
M  V30 6692 O 604.735 1.04668 1.4644 0
M  V30 6693 H 601.11 0.627681 0.41415 0
M  V30 6694 H 603.081 2.85662 0.862542 0
M  V30 6695 C 601.83 2.34849 2.564 0
M  V30 6696 H 601.153 3.19903 2.39797 0
M  V30 6697 H 602.593 2.67121 3.29276 0
M  V30 6698 C 601.052 1.19172 3.15119 0
M  V30 6699 O 601.582 0.479113 3.98833 0
M  V30 6700 N 599.788 0.962415 2.74201 0
M  V30 6701 H 599.335 1.54365 2.06226 0
M  V30 6702 H 599.293 0.190272 3.13824 0
M  V30 6703 N 603.065 -0.440357 1.51323 0
M  V30 6704 C 604.028 -1.51679 1.71832 0
M  V30 6705 C 605.028 -1.49648 0.588386 0
M  V30 6706 O 606.218 -1.51724 0.855891 0
M  V30 6707 C 603.35 -2.91228 1.77199 0
M  V30 6708 H 604.543 -1.34799 2.67898 0
M  V30 6709 H 602.096 -0.66883 1.41267 0
M  V30 6710 H 602.831 -3.13516 0.829363 0
M  V30 6711 H 602.616 -2.94107 2.59314 0
M  V30 6712 H 604.106 -3.69321 1.94915 0
M  V30 6713 N 604.543 -1.41418 -0.695603 0
M  V30 6714 C 605.476 -1.3768 -1.81988 0
M  V30 6715 C 606.454 -0.244061 -1.60758 0
M  V30 6716 O 607.638 -0.430965 -1.83507 0
M  V30 6717 C 604.765 -1.1476 -3.18666 0
M  V30 6718 C 603.811 -2.30752 -3.58686 0
M  V30 6719 S 604.644 -3.9323 -3.63498 0
M  V30 6720 C 605.8 -3.72613 -5.02902 0
M  V30 6721 H 606.033 -2.32822 -1.84882 0
M  V30 6722 H 603.566 -1.27942 -0.86431 0
M  V30 6723 H 605.524 -1.02223 -3.97569 0
M  V30 6724 H 604.185 -0.212385 -3.13381 0
M  V30 6725 H 603.378 -2.10409 -4.57978 0
M  V30 6726 H 602.98 -2.39696 -2.87092 0
M  V30 6727 H 605.272 -3.32317 -5.904 0
M  V30 6728 H 606.215 -4.71507 -5.28286 0
M  V30 6729 H 606.623 -3.0589 -4.74438 0
M  V30 6730 N 606.021 0.929856 -1.27246 0
M  V30 6731 C 606.969 2.05151 -1.09616 0
M  V30 6732 C 607.963 1.69388 -0.0198617 0
M  V30 6733 O 609.169 1.79124 -0.177417 0
M  V30 6734 H 605.544 0.671909 -0.337701 0
M  V30 6735 H 607.515 2.17168 -2.04648 0
M  V30 6736 C 606.264 3.3934 -0.757851 0
M  V30 6737 H 605.587 3.67343 -1.57795 0
M  V30 6738 H 607.027 4.18603 -0.674358 0
M  V30 6739 C 605.486 3.32582 0.537658 0
M  V30 6740 O 606.016 3.69633 1.57271 0
M  V30 6741 N 604.222 2.8568 0.532478 0
M  V30 6742 H 603.769 2.55725 -0.310233 0
M  V30 6743 H 603.727 2.81541 1.39936 0
M  V30 6744 N 607.499 1.09233 1.13605 0
M  V30 6745 C 608.776 0.739633 1.81077 0
M  V30 6746 C 609.156 -0.775595 1.96336 0
M  V30 6747 O 608.504 -1.69726 1.52988 0
M  V30 6748 C 608.714 1.47636 3.16235 0
M  V30 6749 C 610.062 1.64087 3.91613 0
M  V30 6750 O 611.086 1.43871 3.25852 0
M  V30 6751 O 609.945 1.97511 5.0956 0
M  V30 6752 H 607.039 0.265464 0.783236 0
M  V30 6753 H 609.585 1.19441 1.20549 0
M  V30 6754 H 608.357 2.50818 3.00344 0
M  V30 6755 H 607.98 1.01362 3.84462 0
M  V30 6756 N 608.977 -1.30795 0.87923 0
M  V30 6757 C 609.927 -2.25838 0.313276 0
M  V30 6758 C 610.911 -1.51025 -0.55499 0
M  V30 6759 O 612.103 -1.72413 -0.400353 0
M  V30 6760 C 609.232 -3.39981 -0.476204 0
M  V30 6761 C 608.318 -4.22154 0.405826 0
M  V30 6762 N 608.709 -4.82934 1.50362 0
M  V30 6763 C 607.007 -4.45552 0.199909 0
M  V30 6764 C 607.708 -5.44444 2.0483 0
M  V30 6765 N 606.684 -5.26723 1.34403 0
M  V30 6766 H 610.486 -2.70374 1.15218 0
M  V30 6767 H 608 -1.45168 0.728003 0
M  V30 6768 H 609.997 -4.07108 -0.898251 0
M  V30 6769 H 608.657 -2.96986 -1.31261 0
M  V30 6770 H 609.668 -4.82319 1.8865 0
M  V30 6771 H 606.345 -4.13169 -0.599795 0
M  V30 6772 H 607.735 -6.02701 2.96986 0
M  V30 6773 N 610.455 -0.639598 -1.44038 0
M  V30 6774 C 611.403 0.0723409 -2.32487 0
M  V30 6775 C 612.397 0.827129 -1.47834 0
M  V30 6776 O 613.603 0.73907 -1.64127 0
M  V30 6777 H 609.978 0.0421696 -0.750817 0
M  V30 6778 H 611.949 -0.691593 -2.90275 0
M  V30 6779 C 610.698 1.03452 -3.31953 0
M  V30 6780 H 610.021 0.46315 -3.97108 0
M  V30 6781 H 611.461 1.502 -3.96505 0
M  V30 6782 C 609.92 2.12392 -2.61518 0
M  V30 6783 O 610.45 3.2059 -2.42044 0
M  V30 6784 N 608.656 1.88563 -2.21116 0
M  V30 6785 H 608.203 1.00577 -2.37154 0
M  V30 6786 H 608.161 2.61651 -1.74316 0
M  V30 6787 N 611.933 1.52934 -0.380664 0
M  V30 6788 C 613.179 2.01765 0.20458 0
M  V30 6789 C 613.512 1.26696 1.47179 0
M  V30 6790 O 612.787 0.364936 1.91046 0
M  V30 6791 C 613.07 3.56869 0.481269 0
M  V30 6792 C 612.923 4.42617 -0.800629 0
M  V30 6793 C 614.242 4.2121 1.27554 0
M  V30 6794 H 611.361 0.733388 0.0728803 0
M  V30 6795 H 614.003 1.83068 -0.50853 0
M  V30 6796 H 612.153 3.72932 1.08875 0
M  V30 6797 H 613.825 4.38323 -1.43773 0
M  V30 6798 H 612.068 4.09977 -1.4178 0
M  V30 6799 H 612.739 5.49134 -0.561791 0
M  V30 6800 H 615.215 4.09072 0.761514 0
M  V30 6801 H 614.091 5.29732 1.43788 0
M  V30 6802 H 614.352 3.78269 2.28833 0
M  V30 6803 N 613.412 0.11024 1.57214 0
M  V30 6804 C 614.66 -0.548783 1.94506 0
M  V30 6805 C 614.981 -1.67772 0.99386 0
M  V30 6806 O 614.251 -1.9584 0.0485841 0
M  V30 6807 H 612.831 -0.205715 0.718116 0
M  V30 6808 H 615.493 0.177127 1.94093 0
M  V30 6809 H 614.589 -0.949096 2.97319 0
M  V30 6810 N 614.89 -1.56749 -0.16351 0
M  V30 6811 C 616.118 -1.86577 -0.894233 0
M  V30 6812 C 616.533 -0.696543 -1.75481 0
M  V30 6813 O 615.89 0.334161 -1.79415 0
M  V30 6814 C 615.941 -3.15508 -1.76456 0
M  V30 6815 O 615.662 -4.27926 -0.938685 0
M  V30 6816 C 617.163 -3.58737 -2.60428 0
M  V30 6817 H 614.383 -0.618829 -0.259405 0
M  V30 6818 H 616.927 -2.03863 -0.161259 0
M  V30 6819 H 615.082 -3.00025 -2.45079 0
M  V30 6820 H 615.496 -5.01546 -1.53465 0
M  V30 6821 H 616.97 -4.51832 -3.17099 0
M  V30 6822 H 617.447 -2.83229 -3.35675 0
M  V30 6823 H 618.053 -3.76858 -1.97125 0
M  V30 6824 N 616.368 0.432326 -1.51554 0
M  V30 6825 C 617.316 1.54572 -1.73811 0
M  V30 6826 C 618.31 1.58246 -0.604539 0
M  V30 6827 O 619.516 1.6193 -0.786041 0
M  V30 6828 H 615.891 0.513626 -0.549265 0
M  V30 6829 H 617.862 1.32977 -2.67132 0
M  V30 6830 C 616.611 2.92181 -1.88483 0
M  V30 6831 H 615.934 2.90088 -2.75116 0
M  V30 6832 H 617.374 3.69439 -2.08065 0
M  V30 6833 C 615.833 3.3065 -0.645909 0
M  V30 6834 O 616.363 4.01216 0.197093 0
M  V30 6835 N 614.569 2.86464 -0.488538 0
M  V30 6836 H 614.116 2.29209 -1.17562 0
M  V30 6837 H 614.074 3.12565 0.339156 0
M  V30 6838 N 617.846 1.41785 0.688094 0
M  V30 6839 C 618.779 1.38643 1.81255 0
M  V30 6840 C 619.757 0.252583 1.60626 0
M  V30 6841 O 620.941 0.440691 1.83276 0
M  V30 6842 C 618.068 1.16449 3.18053 0
M  V30 6843 C 617.114 2.32651 3.57457 0
M  V30 6844 S 617.947 3.95152 3.61407 0
M  V30 6845 C 619.103 3.75275 5.00919 0
M  V30 6846 H 619.336 2.33799 1.83644 0
M  V30 6847 H 616.869 1.28398 0.857513 0
M  V30 6848 H 618.827 1.0433 3.97021 0
M  V30 6849 H 617.488 0.229002 3.13264 0
M  V30 6850 H 616.681 2.12835 4.56856 0
M  V30 6851 H 616.283 2.41215 2.85817 0
M  V30 6852 H 618.575 3.35443 5.88629 0
M  V30 6853 H 619.518 4.74302 5.25778 0
M  V30 6854 H 619.926 3.08401 4.7281 0
M  V30 6855 N 619.324 -0.923095 1.27737 0
M  V30 6856 C 620.601 -1.64989 1.05062 0
M  V30 6857 C 620.981 -2.07018 -0.413124 0
M  V30 6858 O 620.329 -1.80797 -1.39731 0
M  V30 6859 C 620.539 -2.84847 2.01652 0
M  V30 6860 C 621.887 -3.56083 2.31279 0
M  V30 6861 O 622.911 -2.94981 1.99662 0
M  V30 6862 O 621.77 -4.66182 2.85196 0
M  V30 6863 H 618.864 -0.723357 0.400853 0
M  V30 6864 H 621.41 -0.973224 1.3902 0
M  V30 6865 H 620.182 -2.50814 3.00347 0
M  V30 6866 H 619.805 -3.60231 1.68284 0
M  V30 6867 N 620.802 -1.09834 -1.13024 0
M  V30 6868 C 622.03 -0.858902 -1.8823 0
M  V30 6869 C 622.445 0.590164 -1.79339 0
M  V30 6870 O 621.802 1.4065 -1.16292 0
M  V30 6871 C 621.853 -1.29066 -3.37675 0
M  V30 6872 O 621.574 -2.6829 -3.46341 0
M  V30 6873 C 623.075 -1.08421 -4.29837 0
M  V30 6874 H 620.295 -0.308713 -0.595766 0
M  V30 6875 H 622.839 -1.4614 -1.4305 0
M  V30 6876 H 620.994 -0.731961 -3.80422 0
M  V30 6877 H 621.408 -2.86598 -4.39274 0
M  V30 6878 H 622.882 -1.43553 -5.33007 0
M  V30 6879 H 623.359 -0.0223315 -4.39194 0
M  V30 6880 H 623.965 -1.62907 -3.92863 0
M  V30 6881 N 622.28 1.30327 -0.886154 0
M  V30 6882 C 623.212 2.27079 -0.311072 0
M  V30 6883 C 624.225 1.53758 0.53502 0
M  V30 6884 O 625.414 1.74947 0.354378 0
M  V30 6885 C 622.514 3.33965 0.576228 0
M  V30 6886 C 621.687 4.36735 -0.241064 0
M  V30 6887 C 620.746 5.23028 0.576916 0
M  V30 6888 O 619.772 5.692 -0.000802231 0
M  V30 6889 N 620.974 5.49016 1.88579 0
M  V30 6890 H 623.739 2.77065 -1.14259 0
M  V30 6891 H 621.3 1.43519 -0.749258 0
M  V30 6892 H 623.292 3.88618 1.12953 0
M  V30 6893 H 621.862 2.839 1.30842 0
M  V30 6894 H 621.082 3.81932 -0.975805 0
M  V30 6895 H 622.37 5.02451 -0.801272 0
M  V30 6896 H 621.768 5.13288 2.37806 0
M  V30 6897 H 620.325 6.06539 2.38651 0
M  V30 6898 N 623.758 0.647228 1.43697 0
M  V30 6899 C 624.705 -0.0480092 2.3075 0
M  V30 6900 C 625.675 -0.820705 1.44408 0
M  V30 6901 O 626.86 -0.798515 1.73287 0
M  V30 6902 C 624 -1.01259 3.2991 0
M  V30 6903 C 623.113 -0.236629 4.31351 0
M  V30 6904 C 622.248 -1.19447 5.17596 0
M  V30 6905 C 621.287 -0.408595 6.10735 0
M  V30 6906 N 620.424 -1.31772 6.89623 0
M  V30 6907 H 625.264 0.700238 2.89656 0
M  V30 6908 H 622.801 0.357082 1.427 0
M  V30 6909 H 624.759 -1.58538 3.85903 0
M  V30 6910 H 623.389 -1.72778 2.72667 0
M  V30 6911 H 622.441 0.452353 3.77701 0
M  V30 6912 H 623.753 0.374731 4.9739 0
M  V30 6913 H 622.907 -1.83809 5.78186 0
M  V30 6914 H 621.646 -1.83975 4.51669 0
M  V30 6915 H 620.651 0.24841 5.49239 0
M  V30 6916 H 621.876 0.232188 6.78703 0
M  V30 6917 H 619.822 -1.94991 6.2635 0
M  V30 6918 H 619.739 -0.760779 7.52162 0
M  V30 6919 H 621.007 -1.94967 7.54724 0
M  V30 6920 N 625.236 -1.5273 0.388769 0
M  V30 6921 C 626.484 -2.01174 -0.193208 0
M  V30 6922 C 626.805 -1.27705 -1.47365 0
M  V30 6923 O 626.075 -0.396966 -1.91836 0
M  V30 6924 H 624.655 -0.743287 -0.0743871 0
M  V30 6925 H 627.317 -1.87826 0.520336 0
M  V30 6926 H 626.413 -3.09477 -0.403803 0
M  V30 6927 N 626.714 -0.118576 -1.57153 0
M  V30 6928 C 627.963 0.539339 -1.94355 0
M  V30 6929 C 628.276 1.67858 -1.00415 0
M  V30 6930 O 629.482 2.39922 -1.27081 0
M  V30 6931 C 627.938 1.01082 -3.45414 0
M  V30 6932 C 627.546 -0.0999402 -4.47889 0
M  V30 6933 C 629.29 1.64013 -3.91535 0
M  V30 6934 C 627.197 0.388212 -5.90124 0
M  V30 6935 H 626.127 0.205247 -0.725527 0
M  V30 6936 H 628.778 -0.19836 -1.82425 0
M  V30 6937 H 627.16 1.80292 -3.52577 0
M  V30 6938 H 628.334 -0.876189 -4.52393 0
M  V30 6939 H 626.649 -0.635885 -4.11516 0
M  V30 6940 H 629.246 2.01649 -4.95219 0
M  V30 6941 H 629.589 2.51836 -3.31488 0
M  V30 6942 H 630.122 0.913439 -3.87171 0
M  V30 6943 H 626.861 -0.453963 -6.53926 0
M  V30 6944 H 626.381 1.13095 -5.89041 0
M  V30 6945 H 628.06 0.849574 -6.41398 0
M  V30 6946 N 628.193 1.56834 0.155195 0
M  V30 6947 C 629.421 1.87049 0.884326 0
M  V30 6948 C 629.836 0.705839 1.7511 0
M  V30 6949 O 629.193 -0.324641 1.79589 0
M  V30 6950 C 629.244 3.1644 1.74781 0
M  V30 6951 O 628.965 4.28417 0.915978 0
M  V30 6952 C 630.466 3.60113 2.58522 0
M  V30 6953 H 627.686 0.620196 0.25612 0
M  V30 6954 H 630.23 2.03946 0.150445 0
M  V30 6955 H 628.385 3.01321 2.43484 0
M  V30 6956 H 628.799 5.02353 1.50803 0
M  V30 6957 H 630.273 4.53508 3.14698 0
M  V30 6958 H 630.75 2.85005 3.34169 0
M  V30 6959 H 631.356 3.77898 1.95124 0
M  V30 6960 N 629.671 -0.424282 1.51781 0
M  V30 6961 C 630.619 -1.53649 1.74628 0
M  V30 6962 C 631.613 -1.57923 0.612922 0
M  V30 6963 O 632.819 -1.61511 0.794618 0
M  V30 6964 H 629.194 -0.510706 0.551981 0
M  V30 6965 H 631.165 -1.31558 2.67834 0
M  V30 6966 C 629.914 -2.91177 1.9003 0
M  V30 6967 H 629.237 -2.88625 2.76651 0
M  V30 6968 H 630.677 -3.6833 2.10021 0
M  V30 6969 C 629.136 -3.30303 0.663435 0
M  V30 6970 O 629.666 -4.01315 -0.175812 0
M  V30 6971 N 627.872 -2.86201 0.503723 0
M  V30 6972 H 627.419 -2.28583 1.18776 0
M  V30 6973 H 627.377 -3.12741 -0.322575 0
M  V30 6974 N 631.149 -1.42148 -0.680565 0
M  V30 6975 C 632.398 -1.41604 -1.43636 0
M  V30 6976 C 632.711 -0.0337887 -1.95571 0
M  V30 6977 O 633.917 0.0942588 -2.71336 0
M  V30 6978 C 632.373 -2.49056 -2.59806 0
M  V30 6979 C 631.981 -3.9326 -2.14594 0
M  V30 6980 C 633.725 -2.5767 -3.37352 0
M  V30 6981 C 631.632 -4.92232 -3.27813 0
M  V30 6982 H 630.562 -0.526656 -0.539583 0
M  V30 6983 H 633.213 -1.68033 -0.737369 0
M  V30 6984 H 631.595 -2.15782 -3.32045 0
M  V30 6985 H 632.769 -4.35858 -1.49546 0
M  V30 6986 H 631.084 -3.88443 -1.50002 0
M  V30 6987 H 633.681 -3.28794 -4.21662 0
M  V30 6988 H 634.024 -1.61837 -3.83555 0
M  V30 6989 H 634.557 -2.90109 -2.72179 0
M  V30 6990 H 631.296 -5.89522 -2.86607 0
M  V30 6991 H 630.816 -4.5427 -3.91661 0
M  V30 6992 H 632.495 -5.13684 -3.93367 0
M  V30 6993 N 632.627 0.916307 -1.28225 0
M  V30 6994 C 633.575 2.03977 -1.11786 0
M  V30 6995 C 634.569 1.69358 -0.0378265 0
M  V30 6996 O 635.775 1.78925 -0.196405 0
M  V30 6997 H 632.15 0.66829 -0.344809 0
M  V30 6998 H 634.121 2.14985 -2.06939 0
M  V30 6999 C 632.87 3.38518 -0.7938 0
M  V30 7000 H 632.193 3.65649 -1.61682 0
M  V30 7001 H 633.633 4.17864 -0.718719 0
M  V30 7002 C 632.092 3.33134 0.502353 0
M  V30 7003 O 632.622 3.71281 1.53341 0
M  V30 7004 N 630.828 2.86229 0.502147 0
M  V30 7005 H 630.375 2.55382 -0.337338 0
M  V30 7006 H 630.333 2.83009 1.36942 0
M  V30 7007 N 634.105 1.10431 1.1244 0
M  V30 7008 C 635.037 0.710945 2.17895 0
M  V30 7009 C 636.05 -0.252315 1.60833 0
M  V30 7010 O 637.239 -0.03679 1.78462 0
M  V30 7011 C 634.339 0.0284262 3.38888 0
M  V30 7012 C 633.512 1.01585 4.2544 0
M  V30 7013 C 632.571 0.364826 5.24934 0
M  V30 7014 O 631.597 1.01561 5.60066 0
M  V30 7015 N 632.799 -0.87674 5.73841 0
M  V30 7016 H 635.564 1.61826 2.52255 0
M  V30 7017 H 633.125 0.993132 1.27861 0
M  V30 7018 H 635.117 -0.418568 4.0253 0
M  V30 7019 H 633.687 -0.781294 3.02679 0
M  V30 7020 H 632.907 1.64111 3.58415 0
M  V30 7021 H 634.195 1.68425 4.80115 0
M  V30 7022 H 633.593 -1.42483 5.47462 0
M  V30 7023 H 632.15 -1.26688 6.39369 0
M  V30 7024 N 635.583 -1.29855 0.893053 0
M  V30 7025 C 636.531 -2.29867 0.355512 0
M  V30 7026 C 637.525 -1.60502 -0.541801 0
M  V30 7027 O 638.731 -1.74902 -0.425339 0
M  V30 7028 H 635.106 -0.745805 0.0963247 0
M  V30 7029 H 637.077 -2.72655 1.21252 0
M  V30 7030 C 635.826 -3.453 -0.407801 0
M  V30 7031 H 635.149 -3.98864 0.273426 0
M  V30 7032 H 636.589 -4.17334 -0.748887 0
M  V30 7033 C 635.048 -2.96051 -1.60795 0
M  V30 7034 O 635.578 -2.96763 -2.7073 0
M  V30 7035 N 633.784 -2.51963 -1.44786 0
M  V30 7036 H 633.331 -2.51583 -0.553498 0
M  V30 7037 H 633.289 -2.1937 -2.2522 0
M  V30 7038 N 637.061 -0.65484 -1.43351 0
M  V30 7039 C 638.338 -0.0987371 -1.95351 0
M  V30 7040 C 638.718 1.38161 -1.59608 0
M  V30 7041 O 638.066 2.10791 -0.882021 0
M  V30 7042 C 638.276 -0.346684 -3.47274 0
M  V30 7043 C 639.624 -0.25249 -4.23849 0
M  V30 7044 O 640.648 -0.279332 -3.55103 0
M  V30 7045 O 639.507 -0.177584 -5.46211 0
M  V30 7046 H 636.601 0.0086829 -0.826954 0
M  V30 7047 H 639.147 -0.728189 -1.53282 0
M  V30 7048 H 637.919 -1.37296 -3.66423 0
M  V30 7049 H 637.542 0.315757 -3.96344 0
M  V30 7050 N 638.539 1.52521 -0.396863 0
M  V30 7051 C 639.489 2.2348 0.451722 0
M  V30 7052 C 640.473 1.2415 1.0235 0
M  V30 7053 O 641.665 1.4945 0.948348 0
M  V30 7054 C 638.794 3.05067 1.57445 0
M  V30 7055 C 637.88 4.11799 1.01404 0
M  V30 7056 N 638.271 5.05482 0.179234 0
M  V30 7057 C 636.569 4.27064 1.28578 0
M  V30 7058 C 637.27 5.81552 -0.131202 0
M  V30 7059 N 636.246 5.41523 0.474735 0
M  V30 7060 H 640.048 2.93269 -0.192534 0
M  V30 7061 H 637.562 1.61081 -0.206591 0
M  V30 7062 H 639.559 3.54446 2.19485 0
M  V30 7063 H 638.219 2.36816 2.22145 0
M  V30 7064 H 639.23 5.17573 -0.18411 0
M  V30 7065 H 635.907 3.70042 1.93327 0
M  V30 7066 H 637.297 6.67023 -0.808061 0
M  V30 7067 N 640.017 0.126909 1.57088 0
M  V30 7068 C 640.949 -0.850973 2.12817 0
M  V30 7069 C 641.962 -1.22457 1.07276 0
M  V30 7070 O 643.151 -1.17215 1.34622 0
M  V30 7071 C 640.251 -2.15039 2.61938 0
M  V30 7072 C 639.424 -1.94726 3.91664 0
M  V30 7073 C 638.483 -3.0847 4.26301 0
M  V30 7074 O 637.509 -2.81038 4.94981 0
M  V30 7075 N 638.711 -4.35116 3.84259 0
M  V30 7076 H 641.476 -0.3748 2.97347 0
M  V30 7077 H 639.037 -0.0572793 1.61799 0
M  V30 7078 H 641.029 -2.90141 2.82135 0
M  V30 7079 H 639.599 -2.5398 1.82244 0
M  V30 7080 H 638.819 -1.03772 3.80296 0
M  V30 7081 H 640.107 -1.78469 4.76473 0
M  V30 7082 H 639.505 -4.60276 3.2888 0
M  V30 7083 H 638.062 -5.07064 4.09548 0
M  V30 7084 N 641.495 -1.56914 -0.146875 0
M  V30 7085 C 642.443 -1.99224 -1.20053 0
M  V30 7086 C 643.437 -0.884661 -1.44465 0
M  V30 7087 O 644.643 -1.06984 -1.44756 0
M  V30 7088 H 641.018 -0.634191 -0.404112 0
M  V30 7089 H 642.989 -2.86998 -0.816987 0
M  V30 7090 C 641.738 -2.38899 -2.52632 0
M  V30 7091 H 641.061 -3.23677 -2.34677 0
M  V30 7092 H 642.501 -2.72326 -3.24984 0
M  V30 7093 C 640.96 -1.2417 -3.13183 0
M  V30 7094 O 641.49 -0.542503 -3.9802 0
M  V30 7095 N 639.696 -1.00592 -2.72635 0
M  V30 7096 H 639.243 -1.57627 -2.03744 0
M  V30 7097 H 639.201 -0.240174 -3.13481 0
M  V30 7098 N 642.974 0.416227 -1.52004 0
M  V30 7099 C 644.251 1.17637 -1.56272 0
M  V30 7100 C 644.631 2.08352 -0.339493 0
M  V30 7101 O 643.979 2.1833 0.674124 0
M  V30 7102 C 644.189 1.95986 -2.88774 0
M  V30 7103 C 645.537 2.52299 -3.41512 0
M  V30 7104 O 646.561 2.06174 -2.90467 0
M  V30 7105 O 645.42 3.3648 -4.30631 0
M  V30 7106 H 642.514 0.536726 -0.629169 0
M  V30 7107 H 645.06 0.423583 -1.64329 0
M  V30 7108 H 643.832 1.29487 -3.69254 0
M  V30 7109 H 643.455 2.78285 -2.83978 0
M  V30 7110 N 644.452 1.42507 0.673017 0
M  V30 7111 C 645.729 1.33554 1.42908 0
M  V30 7112 C 646.109 -0.0262211 2.11084 0
M  V30 7113 O 645.457 -1.04181 2.03368 0
M  V30 7114 C 645.667 2.50498 2.43006 0
M  V30 7115 C 647.015 2.92694 3.07596 0
M  V30 7116 O 648.039 2.50401 2.53333 0
M  V30 7117 O 646.898 3.65899 4.05931 0
M  V30 7118 H 643.992 0.526785 0.637516 0
M  V30 7119 H 646.538 1.54518 0.701591 0
M  V30 7120 H 645.31 3.41272 1.9144 0
M  V30 7121 H 644.933 2.3153 3.23233 0
M  V30 7122 N 645.93 -0.909495 1.28709 0
M  V30 7123 C 646.84 -2.04558 1.14861 0
M  V30 7124 C 647.856 -1.73842 0.0741621 0
M  V30 7125 O 649.032 -1.99383 0.2843 0
M  V30 7126 C 646.097 -3.36957 0.816148 0
M  V30 7127 C 645.158 -3.81255 1.97341 0
M  V30 7128 C 644.391 -5.07335 1.65671 0
M  V30 7129 O 644.614 -5.67514 0.573053 0
M  V30 7130 O 643.548 -5.47449 2.50167 0
M  V30 7131 H 647.374 -2.19161 2.10243 0
M  V30 7132 H 644.959 -1.03159 1.08068 0
M  V30 7133 H 646.841 -4.16436 0.644873 0
M  V30 7134 H 645.516 -3.2352 -0.107983 0
M  V30 7135 H 644.423 -3.02584 2.19986 0
M  V30 7136 H 645.756 -3.99261 2.87839 0
M  V30 7137 N 647.408 -1.11026 -1.11852 0
M  V30 7138 C 648.355 -0.764662 -2.17765 0
M  V30 7139 C 649.325 0.261854 -1.64023 0
M  V30 7140 O 650.51 0.139748 -1.90288 0
M  V30 7141 C 647.65 -0.209317 -3.44465 0
M  V30 7142 C 646.763 -1.29187 -4.12231 0
M  V30 7143 C 645.898 -0.697523 -5.266 0
M  V30 7144 C 644.937 -1.76023 -5.86244 0
M  V30 7145 N 644.074 -1.18569 -6.92016 0
M  V30 7146 H 648.914 -1.67202 -2.46673 0
M  V30 7147 H 646.451 -0.835065 -1.21099 0
M  V30 7148 H 648.409 0.130599 -4.16996 0
M  V30 7149 H 647.039 0.661251 -3.15955 0
M  V30 7150 H 646.091 -1.74881 -3.37818 0
M  V30 7151 H 647.403 -2.09607 -4.52622 0
M  V30 7152 H 646.557 -0.307412 -6.05921 0
M  V30 7153 H 645.296 0.138044 -4.87505 0
M  V30 7154 H 644.301 -2.1597 -5.05606 0
M  V30 7155 H 645.526 -2.59875 -6.27409 0
M  V30 7156 H 643.472 -0.371695 -6.54946 0
M  V30 7157 H 643.389 -1.92666 -7.31038 0
M  V30 7158 H 644.657 -0.82233 -7.7515 0
M  V30 7159 N 648.886 1.2938 -0.899927 0
M  V30 7160 C 650.116 1.99402 -0.540601 0
M  V30 7161 C 650.524 1.67534 0.87914 0
M  V30 7162 O 649.867 0.916821 1.59186 0
M  V30 7163 C 649.929 3.53514 -0.653326 0
M  V30 7164 C 649.593 4.08937 -2.04009 0
M  V30 7165 C 650.59 4.23815 -3.01126 0
M  V30 7166 C 648.275 4.43962 -2.34953 0
M  V30 7167 C 650.269 4.72951 -4.27313 0
M  V30 7168 C 647.956 4.92795 -3.61382 0
M  V30 7169 C 648.954 5.07244 -4.57376 0
M  V30 7170 O 648.642 5.55017 -5.8156 0
M  V30 7171 H 648.374 0.64383 -0.206057 0
M  V30 7172 H 650.928 1.65878 -1.21134 0
M  V30 7173 H 649.158 3.86628 0.0744449 0
M  V30 7174 H 650.847 4.04767 -0.303118 0
M  V30 7175 H 651.613 3.97043 -2.78535 0
M  V30 7176 H 647.492 4.31974 -1.60994 0
M  V30 7177 H 651.036 4.84144 -5.02245 0
M  V30 7178 H 646.933 5.19004 -3.83804 0
M  V30 7179 H 647.701 5.73331 -5.84153 0
M  V30 7180 N 650.364 0.662433 1.43002 0
M  V30 7181 C 651.312 -0.035345 2.32573 0
M  V30 7182 C 652.306 -0.803505 1.49131 0
M  V30 7183 O 653.512 -0.712865 1.65282 0
M  V30 7184 H 649.887 -0.0302194 0.751393 0
M  V30 7185 H 651.858 0.737686 2.89138 0
M  V30 7186 C 650.607 -0.981575 3.33557 0
M  V30 7187 H 649.93 -0.399914 3.97795 0
M  V30 7188 H 651.37 -1.43873 3.98844 0
M  V30 7189 C 649.829 -2.08204 2.64863 0
M  V30 7190 O 650.359 -3.16698 2.47113 0
M  V30 7191 N 648.565 -1.85022 2.24088 0
M  V30 7192 H 648.112 -0.967909 2.38724 0
M  V30 7193 H 648.07 -2.58845 1.78457 0
M  V30 7194 N 651.842 -1.52309 0.404946 0
M  V30 7195 C 652.774 -2.24579 -0.45791 0
M  V30 7196 C 653.787 -1.2739 -1.01369 0
M  V30 7197 O 654.976 -1.53363 -0.91335 0
M  V30 7198 C 652.076 -2.9608 -1.64893 0
M  V30 7199 C 651.249 -4.20106 -1.21777 0
M  V30 7200 C 650.308 -4.74468 -2.27523 0
M  V30 7201 O 649.334 -5.37157 -1.88285 0
M  V30 7202 N 650.536 -4.55678 -3.59635 0
M  V30 7203 H 653.301 -2.99265 0.161341 0
M  V30 7204 H 650.862 -1.60228 0.232107 0
M  V30 7205 H 652.854 -3.29344 -2.35191 0
M  V30 7206 H 651.424 -2.24606 -2.17419 0
M  V30 7207 H 650.644 -3.92704 -0.343071 0
M  V30 7208 H 651.932 -5.00658 -0.906596 0
M  V30 7209 H 651.33 -4.05673 -3.94266 0
M  V30 7210 H 649.887 -4.9339 -4.25922 0
M  V30 7211 N 653.32 -0.135238 -1.57019 0
M  V30 7212 C 654.27 0.820408 -2.12728 0
M  V30 7213 C 655.254 1.21735 -1.05211 0
M  V30 7214 O 656.446 1.18574 -1.31413 0
M  V30 7215 C 653.575 2.06414 -2.74314 0
M  V30 7216 C 652.661 1.69083 -3.88937 0
M  V30 7217 N 653.052 1.0251 -4.95303 0
M  V30 7218 C 651.35 1.98434 -3.99425 0
M  V30 7219 C 652.051 0.846749 -5.75504 0
M  V30 7220 N 651.027 1.3769 -5.25873 0
M  V30 7221 H 654.829 0.302426 -2.9234 0
M  V30 7222 H 652.343 0.0667009 -1.62263 0
M  V30 7223 H 654.34 2.75863 -3.12579 0
M  V30 7224 H 653 2.58741 -1.96171 0
M  V30 7225 H 654.011 0.687207 -5.1332 0
M  V30 7226 H 650.688 2.52693 -3.32344 0
M  V30 7227 H 652.078 0.322949 -6.71123 0
M  V30 7228 N 654.798 1.5699 0.138552 0
M  V30 7229 C 655.708 2.02174 1.19008 0
M  V30 7230 C 656.724 0.938622 1.46512 0
M  V30 7231 O 657.9 1.24872 1.58016 0
M  V30 7232 C 654.965 2.40045 2.50159 0
M  V30 7233 C 654.026 3.62346 2.30226 0
M  V30 7234 C 653.259 3.98401 3.55123 0
M  V30 7235 O 653.482 3.35019 4.61647 0
M  V30 7236 O 652.416 4.91606 3.47285 0
M  V30 7237 H 656.242 2.91954 0.836452 0
M  V30 7238 H 653.827 1.45293 0.347907 0
M  V30 7239 H 655.709 2.65225 3.27465 0
M  V30 7240 H 654.384 1.53417 2.85035 0
M  V30 7241 H 653.291 3.42341 1.50843 0
M  V30 7242 H 654.624 4.49617 2.00262 0
M  V30 7243 N 656.276 -0.40816 1.52223 0
M  V30 7244 C 657.522 -1.15673 1.66576 0
M  V30 7245 C 657.855 -1.90141 0.394996 0
M  V30 7246 O 657.13 -1.84798 -0.606613 0
M  V30 7247 C 657.413 -2.15042 2.88841 0
M  V30 7248 C 657.266 -1.44465 4.25969 0
M  V30 7249 C 658.585 -3.15699 3.0663 0
M  V30 7250 H 655.704 -0.41916 0.606196 0
M  V30 7251 H 658.346 -0.442348 1.84779 0
M  V30 7252 H 656.496 -2.75964 2.73452 0
M  V30 7253 H 658.168 -0.866544 4.53088 0
M  V30 7254 H 656.411 -0.746612 4.27327 0
M  V30 7255 H 657.082 -2.16976 5.07568 0
M  V30 7256 H 659.558 -2.64854 3.20923 0
M  V30 7257 H 658.434 -3.82491 3.9369 0
M  V30 7258 H 658.695 -3.83481 2.19987 0
M  V30 7259 N 657.755 -1.42862 -0.66545 0
M  V30 7260 C 658.703 -1.47319 -1.8 0
M  V30 7261 C 659.697 -0.347963 -1.65788 0
M  V30 7262 O 660.903 -0.521406 -1.72283 0
M  V30 7263 H 657.278 -0.461588 -0.593667 0
M  V30 7264 H 659.249 -2.42876 -1.7336 0
M  V30 7265 C 657.998 -1.40152 -3.18203 0
M  V30 7266 H 657.321 -2.26035 -3.2977 0
M  V30 7267 H 658.761 -1.47331 -3.9758 0
M  V30 7268 C 657.22 -0.117493 -3.36695 0
M  V30 7269 O 657.75 0.826058 -3.93115 0
M  V30 7270 N 655.956 -0.0316218 -2.90583 0
M  V30 7271 H 655.503 -0.800247 -2.44855 0
M  V30 7272 H 655.461 0.826835 -3.03333 0
M  V30 7273 N 659.233 0.902656 -1.29189 0
M  V30 7274 C 660.181 2.0278 -1.13943 0
M  V30 7275 C 661.175 1.69308 -0.055787 0
M  V30 7276 O 662.381 1.78707 -0.215371 0
M  V30 7277 H 658.756 0.664595 -0.351877 0
M  V30 7278 H 660.727 2.12778 -2.09208 0
M  V30 7279 C 659.476 3.37657 -0.82966 0
M  V30 7280 H 658.799 3.63913 -1.65551 0
M  V30 7281 H 660.239 4.17078 -0.762998 0
M  V30 7282 C 658.698 3.33648 0.466991 0
M  V30 7283 O 659.228 3.72886 1.49395 0
M  V30 7284 N 657.434 2.86745 0.471761 0
M  V30 7285 H 656.981 2.55009 -0.364406 0
M  V30 7286 H 656.939 2.84446 1.33933 0
M  V30 7287 N 660.711 1.11618 1.11262 0
M  V30 7288 C 661.659 0.771291 2.1944 0
M  V30 7289 C 662.653 -0.238073 1.67719 0
M  V30 7290 O 663.859 -0.0971628 1.79738 0
M  V30 7291 H 660.234 0.231548 0.715465 0
M  V30 7292 H 662.205 1.69226 2.45775 0
M  V30 7293 C 660.954 0.232765 3.4692 0
M  V30 7294 H 660.277 1.00072 3.87073 0
M  V30 7295 H 661.717 0.0296561 4.2399 0
M  V30 7296 C 660.176 -1.03738 3.20531 0
M  V30 7297 O 660.706 -2.11675 3.41404 0
M  V30 7298 N 658.912 -0.960906 2.74253 0
M  V30 7299 H 658.459 -0.0824323 2.57468 0
M  V30 7300 H 658.417 -1.8114 2.56974 0
M  V30 7301 N 662.189 -1.289 0.906776 0
M  V30 7302 C 663.137 -2.29477 0.379873 0
M  V30 7303 C 664.131 -1.61068 -0.524747 0
M  V30 7304 O 665.337 -1.75344 -0.406765 0
M  V30 7305 H 661.712 -0.744742 0.10423 0
M  V30 7306 H 663.683 -2.71353 1.24137 0
M  V30 7307 C 662.432 -3.45713 -0.371154 0
M  V30 7308 H 661.755 -3.98551 0.315716 0
M  V30 7309 H 663.195 -4.18105 -0.704581 0
M  V30 7310 C 661.654 -2.9774 -1.57646 0
M  V30 7311 O 662.184 -2.99618 -2.67567 0
M  V30 7312 N 660.39 -2.53485 -1.42105 0
M  V30 7313 H 659.937 -2.52156 -0.526783 0
M  V30 7314 H 659.895 -2.21747 -2.22881 0
M  V30 7315 N 663.667 -0.670007 -1.42649 0
M  V30 7316 C 664.944 -0.119451 -1.95235 0
M  V30 7317 C 665.324 1.36461 -1.61064 0
M  V30 7318 O 664.672 2.09843 -0.904329 0
M  V30 7319 C 664.882 -0.383498 -3.46887 0
M  V30 7320 C 666.23 -0.297431 -4.23557 0
M  V30 7321 O 667.254 -0.31698 -3.54787 0
M  V30 7322 O 666.113 -0.235507 -5.45992 0
M  V30 7323 H 663.207 -8.85474e-05 -0.827 0
M  V30 7324 H 665.753 -0.744406 -1.52501 0
M  V30 7325 H 664.525 -1.41174 -3.64946 0
M  V30 7326 H 664.148 0.273702 -3.96657 0
M  V30 7327 N 665.145 1.52092 -0.413018 0
M  V30 7328 C 666.422 1.94356 0.22024 0
M  V30 7329 C 666.802 1.35017 1.62277 0
M  V30 7330 O 666.15 0.527511 2.22328 0
M  V30 7331 C 666.36 3.48289 0.222638 0
M  V30 7332 C 667.708 4.22313 0.440098 0
M  V30 7333 O 668.732 3.54919 0.301826 0
M  V30 7334 O 667.591 5.41829 0.712984 0
M  V30 7335 H 664.685 0.814536 0.14304 0
M  V30 7336 H 667.231 1.63083 -0.469242 0
M  V30 7337 H 666.003 3.83872 -0.758836 0
M  V30 7338 H 665.626 3.85934 0.956057 0
M  V30 7339 N 666.623 0.143563 1.56945 0
M  V30 7340 C 667.9 -0.553285 1.87612 0
M  V30 7341 C 668.28 -1.83195 1.04894 0
M  V30 7342 O 667.628 -2.28102 0.134773 0
M  V30 7343 C 667.838 -0.822055 3.3918 0
M  V30 7344 C 669.186 -1.16435 4.08324 0
M  V30 7345 O 670.21 -0.911522 3.4434 0
M  V30 7346 O 669.069 -1.63996 5.21313 0
M  V30 7347 H 666.163 -0.281851 0.777489 0
M  V30 7348 H 668.709 0.179916 1.68744 0
M  V30 7349 H 667.481 0.0830265 3.91212 0
M  V30 7350 H 667.104 -1.60956 3.63564 0
M  V30 7351 N 668.101 -1.57061 -0.130224 0
M  V30 7352 C 669.051 -1.95941 -1.16582 0
M  V30 7353 C 670.035 -0.832858 -1.37667 0
M  V30 7354 O 671.227 -1.09647 -1.38948 0
M  V30 7355 C 668.356 -2.35777 -2.49528 0
M  V30 7356 C 667.442 -3.5504 -2.31964 0
M  V30 7357 N 667.833 -4.71071 -1.84189 0
M  V30 7358 C 666.131 -3.60453 -2.62659 0
M  V30 7359 C 666.832 -5.53128 -1.80068 0
M  V30 7360 N 665.808 -4.95303 -2.24001 0
M  V30 7361 H 669.61 -2.83117 -0.788806 0
M  V30 7362 H 667.124 -1.58842 -0.3381 0
M  V30 7363 H 669.121 -2.61843 -3.24413 0
M  V30 7364 H 667.781 -1.49961 -2.87996 0
M  V30 7365 H 668.792 -4.94504 -1.53903 0
M  V30 7366 H 665.469 -2.85217 -3.0489 0
M  V30 7367 H 666.859 -6.56182 -1.4448 0
M  V30 7368 N 669.579 0.400081 -1.52437 0
M  V30 7369 C 670.529 1.48734 -1.72807 0
M  V30 7370 C 671.513 1.50004 -0.582032 0
M  V30 7371 O 672.705 1.55828 -0.839449 0
M  V30 7372 C 669.834 2.86568 -1.89034 0
M  V30 7373 C 668.92 2.8991 -3.09537 0
M  V30 7374 N 669.311 2.62937 -4.32086 0
M  V30 7375 C 667.609 3.21078 -3.09556 0
M  V30 7376 C 668.31 2.73079 -5.13617 0
M  V30 7377 N 667.286 3.06342 -4.49061 0
M  V30 7378 H 671.088 1.26689 -2.65193 0
M  V30 7379 H 668.602 0.607902 -1.50593 0
M  V30 7380 H 670.599 3.64834 -2.01746 0
M  V30 7381 H 669.259 3.09604 -0.978547 0
M  V30 7382 H 670.27 2.37163 -4.60406 0
M  V30 7383 H 666.947 3.49651 -2.28146 0
M  V30 7384 H 668.337 2.55863 -6.21276 0
M  V30 7385 N 671.057 1.43213 0.657864 0
M  V30 7386 C 672.007 1.44459 1.76396 0
M  V30 7387 C 672.991 0.313641 1.57814 0
M  V30 7388 O 674.183 0.557094 1.68004 0
M  V30 7389 C 671.312 1.36586 3.14959 0
M  V30 7390 C 670.398 2.54692 3.39106 0
M  V30 7391 N 670.789 3.80059 3.33749 0
M  V30 7392 C 669.087 2.49316 3.69807 0
M  V30 7393 C 669.788 4.58606 3.57849 0
M  V30 7394 N 668.764 3.89267 3.79437 0
M  V30 7395 H 672.566 2.39265 1.70673 0
M  V30 7396 H 670.08 1.378 0.859357 0
M  V30 7397 H 672.077 1.35561 3.94245 0
M  V30 7398 H 670.737 0.427956 3.21867 0
M  V30 7399 H 671.748 4.12414 3.13266 0
M  V30 7400 H 668.425 1.6419 3.83859 0
M  V30 7401 H 669.815 5.67619 3.59525 0
M  V30 7402 N 672.536 -0.895792 1.29666 0
M  V30 7403 C 673.486 -1.98736 1.1175 0
M  V30 7404 C 674.47 -1.6086 0.0357834 0
M  V30 7405 O 675.662 -1.75111 0.257926 0
M  V30 7406 C 672.791 -3.33845 0.800156 0
M  V30 7407 C 671.877 -3.78068 1.9216 0
M  V30 7408 N 672.268 -3.94489 3.16563 0
M  V30 7409 C 670.566 -4.07376 1.81552 0
M  V30 7410 C 671.267 -4.31819 3.89753 0
M  V30 7411 N 670.243 -4.41081 3.17724 0
M  V30 7412 H 674.045 -2.09507 2.06117 0
M  V30 7413 H 671.559 -1.08488 1.20848 0
M  V30 7414 H 673.556 -4.11757 0.652841 0
M  V30 7415 H 672.216 -3.24417 -0.135551 0
M  V30 7416 H 673.227 -3.79914 3.51974 0
M  V30 7417 H 669.904 -4.06483 0.952787 0
M  V30 7418 H 671.294 -4.52337 4.96831 0
M  V30 7419 N 674.014 -1.12206 -1.10668 0
M  V30 7420 C 674.964 -0.75669 -2.15077 0
M  V30 7421 C 675.948 0.243154 -1.59052 0
M  V30 7422 O 677.14 0.0490268 -1.76932 0
M  V30 7423 C 674.269 -0.210303 -3.42655 0
M  V30 7424 C 673.355 -1.23829 -4.05619 0
M  V30 7425 N 673.746 -2.43513 -4.43323 0
M  V30 7426 C 672.044 -1.08309 -4.32649 0
M  V30 7427 C 672.745 -3.09138 -4.92756 0
M  V30 7428 N 671.721 -2.36593 -4.89413 0
M  V30 7429 H 675.523 -1.66747 -2.42018 0
M  V30 7430 H 673.037 -1.00248 -1.27765 0
M  V30 7431 H 675.034 0.0696287 -4.16842 0
M  V30 7432 H 673.694 0.694967 -3.17176 0
M  V30 7433 H 674.705 -2.80912 -4.35097 0
M  V30 7434 H 671.382 -0.234919 -4.16839 0
M  V30 7435 H 672.772 -4.11049 -5.31496 0
M  V30 7436 N 675.492 1.28418 -0.913599 0
M  V30 7437 C 676.44 2.29272 -0.392037 0
M  V30 7438 C 677.434 1.61344 0.516198 0
M  V30 7439 O 678.64 1.75557 0.39746 0
M  V30 7440 H 675.015 0.744178 -0.108178 0
M  V30 7441 H 676.986 2.70691 -1.25574 0
M  V30 7442 C 675.735 3.45905 0.352815 0
M  V30 7443 H 675.058 3.98378 -0.336848 0
M  V30 7444 H 676.498 4.18473 0.682398 0
M  V30 7445 C 674.957 2.98572 1.56065 0
M  V30 7446 O 675.487 3.01033 2.65974 0
M  V30 7447 N 673.693 2.54235 1.40759 0
M  V30 7448 H 673.24 2.52432 0.513403 0
M  V30 7449 H 673.198 2.22925 2.21702 0
M  V30 7450 N 676.97 0.677563 1.42291 0
M  V30 7451 C 678.247 0.129803 1.95169 0
M  V30 7452 C 678.627 -1.35605 1.61786 0
M  V30 7453 O 677.975 -2.09361 0.915444 0
M  V30 7454 C 678.185 0.401889 3.46678 0
M  V30 7455 C 679.533 0.319889 4.23393 0
M  V30 7456 O 680.557 0.33579 3.54614 0
M  V30 7457 O 679.416 0.264459 5.4586 0
M  V30 7458 H 676.51 0.00447433 0.826988 0
M  V30 7459 H 679.056 0.752483 1.52105 0
M  V30 7460 H 677.828 1.43108 3.64192 0
M  V30 7461 H 677.451 -0.252662 3.96796 0
M  V30 7462 N 678.448 -1.51871 0.421078 0
M  V30 7463 C 679.725 -1.9447 -0.20993 0
M  V30 7464 C 680.105 -1.35875 -1.61558 0
M  V30 7465 O 679.453 -0.539294 -2.22045 0
M  V30 7466 C 679.663 -3.48402 -0.204165 0
M  V30 7467 C 681.011 -4.2254 -0.417696 0
M  V30 7468 O 682.035 -3.55074 -0.282999 0
M  V30 7469 O 680.894 -5.422 -0.684239 0
M  V30 7470 H 677.988 -0.815283 -0.138718 0
M  V30 7471 H 680.534 -1.62832 0.477884 0
M  V30 7472 H 679.306 -3.83464 0.779183 0
M  V30 7473 H 678.929 -3.86436 -0.935576 0
M  V30 7474 N 679.926 -0.151884 -1.56866 0
M  V30 7475 C 681.156 0.504081 -2.00356 0
M  V30 7476 C 681.564 1.58639 -1.03103 0
M  V30 7477 O 680.907 1.83688 -0.0207931 0
M  V30 7478 C 680.969 1.15975 -3.40279 0
M  V30 7479 C 680.633 0.221453 -4.56463 0
M  V30 7480 C 681.63 -0.552766 -5.16953 0
M  V30 7481 C 679.315 0.122936 -5.0215 0
M  V30 7482 C 681.309 -1.4129 -6.21543 0
M  V30 7483 C 678.996 -0.740801 -6.06593 0
M  V30 7484 C 679.994 -1.50732 -6.6616 0
M  V30 7485 O 679.682 -2.35666 -7.68581 0
M  V30 7486 H 679.414 0.135279 -0.662326 0
M  V30 7487 H 681.968 -0.244916 -2.03935 0
M  V30 7488 H 680.198 1.95649 -3.33554 0
M  V30 7489 H 681.887 1.71594 -3.67846 0
M  V30 7490 H 682.653 -0.486716 -4.82552 0
M  V30 7491 H 678.532 0.70931 -4.5551 0
M  V30 7492 H 682.076 -2.01166 -6.67966 0
M  V30 7493 H 677.973 -0.808125 -6.40421 0
M  V30 7494 H 678.741 -2.28967 -7.85822 0
M  V30 7495 N 681.404 1.57128 0.121893 0
M  V30 7496 C 682.644 1.86517 0.836113 0
M  V30 7497 C 683.008 0.739497 1.77188 0
M  V30 7498 O 684.209 0.91508 2.52744 0
M  V30 7499 C 682.48 3.21129 1.56878 0
M  V30 7500 S 684.039 3.72143 2.32497 0
M  V30 7501 H 680.857 0.653923 0.279115 0
M  V30 7502 H 683.459 1.95271 0.0946254 0
M  V30 7503 H 682.163 4.01002 0.873255 0
M  V30 7504 H 681.694 3.15446 2.35069 0
M  V30 7505 H 683.709 3.43413 3.58164 0
M  V30 7506 N 682.882 -0.391992 1.52647 0
M  V30 7507 C 683.829 -1.47866 1.77213 0
M  V30 7508 C 684.799 -1.54286 0.615223 0
M  V30 7509 O 685.984 -1.7059 0.854622 0
M  V30 7510 C 683.124 -2.85129 1.94411 0
M  V30 7511 C 682.237 -2.87883 3.22098 0
M  V30 7512 C 681.372 -4.16553 3.29631 0
M  V30 7513 C 680.411 -4.13348 4.51453 0
M  V30 7514 N 679.548 -5.33619 4.56284 0
M  V30 7515 H 684.388 -1.26219 2.6995 0
M  V30 7516 H 681.925 -0.612367 1.33748 0
M  V30 7517 H 683.883 -3.64833 2.02367 0
M  V30 7518 H 682.513 -3.05232 1.05038 0
M  V30 7519 H 681.565 -2.00567 3.23229 0
M  V30 7520 H 682.877 -2.81382 4.11856 0
M  V30 7521 H 682.031 -5.0466 3.36753 0
M  V30 7522 H 680.77 -4.25773 2.37842 0
M  V30 7523 H 679.775 -3.23629 4.44459 0
M  V30 7524 H 681 -4.05754 5.44555 0
M  V30 7525 H 678.946 -5.43474 3.67385 0
M  V30 7526 H 678.863 -5.29182 5.3991 0
M  V30 7527 H 680.131 -6.23632 4.67657 0
M  V30 7528 N 684.36 -1.4356 -0.65026 0
M  V30 7529 C 685.308 -1.49219 -1.78427 0
M  V30 7530 C 686.302 -0.365528 -1.65409 0
M  V30 7531 O 687.508 -0.539649 -1.7172 0
M  V30 7532 H 683.883 -0.467858 -0.588738 0
M  V30 7533 H 685.854 -2.44701 -1.70774 0
M  V30 7534 C 684.603 -1.43519 -3.16698 0
M  V30 7535 H 683.926 -2.2952 -3.27354 0
M  V30 7536 H 685.366 -1.5154 -3.95995 0
M  V30 7537 C 683.825 -0.153197 -3.36552 0
M  V30 7538 O 684.355 0.784317 -3.93969 0
M  V30 7539 N 682.561 -0.0624402 -2.90533 0
M  V30 7540 H 682.108 -0.826172 -2.43992 0
M  V30 7541 H 682.066 0.794616 -3.04193 0
M  V30 7542 N 685.838 0.888903 -1.30139 0
M  V30 7543 C 686.786 2.0156 -1.16088 0
M  V30 7544 C 687.78 1.69239 -0.0737413 0
M  V30 7545 O 688.986 1.78468 -0.234313 0
M  V30 7546 H 685.361 0.660825 -0.358907 0
M  V30 7547 H 687.332 2.10547 -2.11453 0
M  V30 7548 C 686.081 3.36758 -0.865426 0
M  V30 7549 H 685.404 3.62137 -1.69402 0
M  V30 7550 H 686.844 4.16246 -0.807192 0
M  V30 7551 C 685.303 3.34124 0.431577 0
M  V30 7552 O 685.833 3.7445 1.45431 0
M  V30 7553 N 684.039 2.87229 0.441321 0
M  V30 7554 H 683.586 2.54609 -0.391433 0
M  V30 7555 H 683.544 2.8585 1.30909 0
M  V30 7556 N 687.317 1.12792 1.10072 0
M  V30 7557 C 688.566 0.880232 1.81479 0
M  V30 7558 C 688.879 -0.595575 1.86312 0
M  V30 7559 O 690.085 -0.959979 2.53962 0
M  V30 7560 C 688.541 1.52514 3.25987 0
M  V30 7561 C 688.149 3.036 3.29441 0
M  V30 7562 C 689.893 1.35788 4.02196 0
M  V30 7563 C 687.8 3.61007 4.68431 0
M  V30 7564 H 686.73 0.325654 0.680048 0
M  V30 7565 H 689.381 1.35485 1.23758 0
M  V30 7566 H 687.763 0.978188 3.83728 0
M  V30 7567 H 688.937 3.64819 2.81502 0
M  V30 7568 H 687.252 3.19765 2.66719 0
M  V30 7569 H 689.849 1.76096 5.0487 0
M  V30 7570 H 690.192 0.301972 4.15203 0
M  V30 7571 H 690.725 1.87426 3.50879 0
M  V30 7572 H 687.464 4.66375 4.60625 0
M  V30 7573 H 686.984 3.04564 5.16721 0
M  V30 7574 H 688.663 3.60289 5.37402 0
M  V30 7575 N 688.795 -1.27931 0.920396 0
M  V30 7576 C 689.742 -2.27085 0.412422 0
M  V30 7577 C 690.712 -1.57858 -0.516725 0
M  V30 7578 O 691.897 -1.85717 -0.437475 0
M  V30 7579 C 689.037 -3.43466 -0.335399 0
M  V30 7580 C 688.15 -4.27425 0.627017 0
M  V30 7581 C 687.285 -5.31016 -0.139916 0
M  V30 7582 C 686.324 -6.06641 0.815683 0
M  V30 7583 N 685.461 -7.02052 0.0818439 0
M  V30 7584 H 690.301 -2.69913 1.26298 0
M  V30 7585 H 687.838 -1.32732 0.634076 0
M  V30 7586 H 689.796 -4.09744 -0.785226 0
M  V30 7587 H 688.426 -3.01611 -1.15025 0
M  V30 7588 H 687.478 -3.6113 1.19537 0
M  V30 7589 H 688.79 -4.79969 1.35763 0
M  V30 7590 H 687.944 -6.03208 -0.649998 0
M  V30 7591 H 686.683 -4.79257 -0.903543 0
M  V30 7592 H 685.688 -5.33294 1.33708 0
M  V30 7593 H 686.913 -6.60489 1.57897 0
M  V30 7594 H 684.859 -6.52634 -0.663671 0
M  V30 7595 H 684.776 -7.52249 0.752163 0
M  V30 7596 H 686.044 -7.78432 -0.407825 0
M  V30 7597 N 690.273 -0.685099 -1.4193 0
M  V30 7598 C 691.221 -0.00165985 -2.326 0
M  V30 7599 C 692.215 0.779678 -1.50391 0
M  V30 7600 O 693.421 0.68648 -1.66395 0
M  V30 7601 H 689.796 0.0182616 -0.751778 0
M  V30 7602 H 691.767 -0.783592 -2.87928 0
M  V30 7603 C 690.516 0.928385 -3.35077 0
M  V30 7604 H 689.839 0.336578 -3.98381 0
M  V30 7605 H 691.279 1.37509 -4.01083 0
M  V30 7606 C 689.738 2.03964 -2.68142 0
M  V30 7607 O 690.268 3.12727 -2.5212 0
M  V30 7608 N 688.474 1.81433 -2.27003 0
M  V30 7609 H 688.021 0.929807 -2.40234 0
M  V30 7610 H 687.979 2.55973 -1.82552 0
M  V30 7611 N 691.751 1.51645 -0.429126 0
M  V30 7612 C 693 2.01203 0.141538 0
M  V30 7613 C 693.313 1.31828 1.44502 0
M  V30 7614 O 694.519 1.7231 2.09813 0
M  V30 7615 C 692.975 3.58624 0.302786 0
M  V30 7616 C 692.583 4.3693 -0.989775 0
M  V30 7617 C 694.327 4.16353 0.827661 0
M  V30 7618 C 692.234 5.86037 -0.794619 0
M  V30 7619 H 691.164 0.751867 0.05667 0
M  V30 7620 H 693.815 1.74822 -0.557633 0
M  V30 7621 H 692.197 3.81417 1.06476 0
M  V30 7622 H 693.371 4.25887 -1.75945 0
M  V30 7623 H 691.686 3.90614 -1.44256 0
M  V30 7624 H 694.283 5.25455 0.990026 0
M  V30 7625 H 694.626 3.74995 1.80787 0
M  V30 7626 H 695.159 3.97606 0.124213 0
M  V30 7627 H 691.898 6.31792 -1.74697 0
M  V30 7628 H 691.418 5.99765 -0.0645968 0
M  V30 7629 H 693.097 6.45471 -0.444591 0
M  V30 7630 N 693.229 0.160201 1.56784 0
M  V30 7631 C 694.64 -0.358417 1.83227 0
M  V30 7632 C 694.991 -1.63831 1.07952 0
M  V30 7633 O 694.116 -2.13885 0.328995 0
M  V30 7634 C 694.711 -0.657058 3.32368 0
M  V30 7635 C 693.27 -1.12015 3.59346 0
M  V30 7636 C 692.417 -0.15015 2.76893 0
M  V30 7637 H 695.368 0.384669 1.53967 0
M  V30 7638 H 695.389 -1.51033 3.49241 0
M  V30 7639 H 694.901 0.274647 3.87127 0
M  V30 7640 H 693.002 -2.06734 3.09987 0
M  V30 7641 H 693.115 -1.037 4.67743 0
M  V30 7642 H 691.479 -0.645361 2.46388 0
M  V30 7643 H 692.262 0.775379 3.34429 0
M  V30 7644 N 694.707 -1.5719 -0.113559 0
M  V30 7645 C 695.947 -1.86958 -0.82621 0
M  V30 7646 C 696.311 -0.748884 -1.76793 0
M  V30 7647 O 697.512 -0.92847 -2.52256 0
M  V30 7648 C 695.783 -3.21957 -1.55173 0
M  V30 7649 S 697.342 -3.73371 -2.3052 0
M  V30 7650 H 694.16 -0.655394 -0.275643 0
M  V30 7651 H 696.762 -1.95318 -0.0842684 0
M  V30 7652 H 695.466 -4.01459 -0.851977 0
M  V30 7653 H 694.997 -3.16688 -2.33393 0
M  V30 7654 H 697.012 -3.45308 -3.56338 0
M  V30 7655 N 696.185 0.383891 -1.52853 0
M  V30 7656 C 697.133 1.48965 -1.7864 0
M  V30 7657 C 698.127 1.56242 -0.654577 0
M  V30 7658 O 699.333 1.59347 -0.83716 0
M  V30 7659 H 695.708 0.495892 -0.565328 0
M  V30 7660 H 697.679 1.24411 -2.71228 0
M  V30 7661 C 696.428 2.86036 -1.97683 0
M  V30 7662 H 695.751 2.81188 -2.84206 0
M  V30 7663 H 697.191 3.62632 -2.19713 0
M  V30 7664 C 695.65 3.28428 -0.750776 0
M  V30 7665 O 696.18 4.0164 0.0693491 0
M  V30 7666 N 694.386 2.84765 -0.579427 0
M  V30 7667 H 693.933 2.25353 -1.24795 0
M  V30 7668 H 693.891 3.13486 0.239544 0
M  V30 7669 N 697.663 1.43903 0.642637 0
M  V30 7670 C 698.611 1.50164 1.77634 0
M  V30 7671 C 699.605 0.374294 1.65213 0
M  V30 7672 O 700.811 0.548748 1.71431 0
M  V30 7673 H 697.186 0.470974 0.586249 0
M  V30 7674 H 699.157 2.45603 1.69474 0
M  V30 7675 C 697.906 1.45196 3.15933 0
M  V30 7676 H 697.229 2.31253 3.26132 0
M  V30 7677 H 698.669 1.53638 3.95185 0
M  V30 7678 C 697.128 0.171043 3.36466 0
M  V30 7679 O 697.658 -0.763413 3.94379 0
M  V30 7680 N 695.864 0.077847 2.90496 0
M  V30 7681 H 695.411 0.8391 2.43551 0
M  V30 7682 H 695.369 -0.778473 3.0461 0
M  V30 7683 N 699.141 -0.881989 1.30609 0
M  V30 7684 C 700.369 -1.66711 1.22536 0
M  V30 7685 C 700.784 -1.87614 -0.2113 0
M  V30 7686 O 700.141 -1.42576 -1.13923 0
M  V30 7687 C 700.192 -3.04182 1.95335 0
M  V30 7688 O 699.913 -2.8422 3.33393 0
M  V30 7689 C 701.414 -3.98617 1.93956 0
M  V30 7690 H 698.634 -0.520124 0.423925 0
M  V30 7691 H 701.178 -1.10174 1.72285 0
M  V30 7692 H 699.333 -3.57442 1.49378 0
M  V30 7693 H 699.747 -3.71452 3.70302 0
M  V30 7694 H 701.221 -4.92433 2.49426 0
M  V30 7695 H 701.698 -4.29473 0.919198 0
M  V30 7696 H 702.304 -3.51292 2.39738 0
M  V30 7697 N 700.619 -1.13374 -1.09472 0
M  V30 7698 C 701.551 -0.768466 -2.15933 0
M  V30 7699 C 702.564 0.209585 -1.61445 0
M  V30 7700 O 703.753 -0.010539 -1.78497 0
M  V30 7701 C 700.853 -0.118266 -3.38694 0
M  V30 7702 C 700.026 -1.12829 -4.22597 0
M  V30 7703 C 699.085 -0.503875 -5.23782 0
M  V30 7704 O 698.111 -1.16374 -5.57177 0
M  V30 7705 N 699.313 0.724288 -5.75964 0
M  V30 7706 H 702.078 -1.68457 -2.47876 0
M  V30 7707 H 699.639 -1.02668 -1.25183 0
M  V30 7708 H 701.631 0.311698 -4.03498 0
M  V30 7709 H 700.201 0.700769 -3.04644 0
M  V30 7710 H 699.421 -1.73556 -3.53938 0
M  V30 7711 H 700.709 -1.81095 -4.75481 0
M  V30 7712 H 700.107 1.27918 -5.51048 0
M  V30 7713 H 698.664 1.09692 -6.42504 0
M  V30 7714 N 702.098 1.27442 -0.927168 0
M  V30 7715 C 703.375 1.89473 -0.485742 0
M  V30 7716 C 703.755 1.83922 1.03614 0
M  V30 7717 O 703.103 1.28409 1.89007 0
M  V30 7718 C 703.313 3.33417 -1.03123 0
M  V30 7719 C 704.661 4.10333 -1.0914 0
M  V30 7720 O 705.685 3.4243 -0.98082 0
M  V30 7721 O 704.544 5.31737 -1.26165 0
M  V30 7722 H 701.638 0.812124 -0.156154 0
M  V30 7723 H 704.184 1.35713 -1.01882 0
M  V30 7724 H 702.956 3.31747 -2.07508 0
M  V30 7725 H 702.579 3.94695 -0.479767 0
M  V30 7726 N 703.576 0.692616 1.41565 0
M  V30 7727 C 704.524 0.0139952 2.32596 0
M  V30 7728 C 705.518 -0.771691 1.50802 0
M  V30 7729 O 706.724 -0.677646 1.66757 0
M  V30 7730 H 703.099 -0.0142745 0.751865 0
M  V30 7731 H 705.07 0.798851 2.87508 0
M  V30 7732 C 703.819 -0.910602 3.35564 0
M  V30 7733 H 703.142 -0.315446 3.98554 0
M  V30 7734 H 704.582 -1.3538 4.01806 0
M  V30 7735 C 703.041 -2.02539 2.6922 0
M  V30 7736 O 703.571 -3.11386 2.53775 0
M  V30 7737 N 701.777 -1.80227 2.27962 0
M  V30 7738 H 701.324 -0.917054 2.40724 0
M  V30 7739 H 701.282 -2.55001 1.83907 0
M  V30 7740 N 705.054 -1.51416 0.437162 0
M  V30 7741 C 706.001 -2.27743 -0.374374 0
M  V30 7742 C 706.971 -1.31327 -1.01698 0
M  V30 7743 O 708.156 -1.60229 -1.03592 0
M  V30 7744 C 705.296 -3.12241 -1.46969 0
M  V30 7745 C 704.409 -4.23651 -0.845236 0
M  V30 7746 C 703.544 -4.95458 -1.91559 0
M  V30 7747 C 702.583 -5.98789 -1.26956 0
M  V30 7748 N 701.72 -6.64005 -2.28126 0
M  V30 7749 H 706.56 -2.96654 0.282892 0
M  V30 7750 H 704.097 -1.46319 0.151352 0
M  V30 7751 H 706.055 -3.59556 -2.11602 0
M  V30 7752 H 704.685 -2.45445 -2.09659 0
M  V30 7753 H 703.737 -3.803 -0.0872059 0
M  V30 7754 H 705.049 -4.97683 -0.333582 0
M  V30 7755 H 704.203 -5.46321 -2.63854 0
M  V30 7756 H 702.942 -4.21055 -2.46097 0
M  V30 7757 H 701.947 -5.47219 -0.53207 0
M  V30 7758 H 703.172 -6.75149 -0.731509 0
M  V30 7759 H 701.118 -5.92415 -2.81745 0
M  V30 7760 H 701.035 -7.33802 -1.81852 0
M  V30 7761 H 702.303 -7.19498 -2.99905 0
M  V30 7762 N 706.532 -0.168513 -1.56696 0
M  V30 7763 C 707.48 0.779791 -2.19139 0
M  V30 7764 C 708.474 1.23957 -1.1546 0
M  V30 7765 O 709.68 1.20555 -1.33666 0
M  V30 7766 H 706.055 0.269739 -0.701958 0
M  V30 7767 H 708.026 0.229156 -2.97519 0
M  V30 7768 C 706.775 2.00003 -2.84419 0
M  V30 7769 H 706.098 1.65527 -3.63924 0
M  V30 7770 H 707.538 2.64251 -3.31583 0
M  V30 7771 C 705.997 2.82187 -1.84044 0
M  V30 7772 O 706.527 3.79247 -1.32418 0
M  V30 7773 N 704.733 2.47145 -1.52864 0
M  V30 7774 H 704.28 1.68277 -1.9504 0
M  V30 7775 H 704.238 3.02422 -0.859569 0
M  V30 7776 N 708.01 1.57248 0.105221 0
M  V30 7777 C 709.256 1.85845 0.811753 0
M  V30 7778 C 709.589 0.756219 1.78871 0
M  V30 7779 O 708.864 -0.236736 1.93054 0
M  V30 7780 C 709.147 3.25059 1.54947 0
M  V30 7781 C 709 4.45898 0.591185 0
M  V30 7782 C 710.319 3.6203 2.50245 0
M  V30 7783 H 707.438 0.675973 0.293649 0
M  V30 7784 H 710.08 1.89849 0.0756269 0
M  V30 7785 H 708.23 3.21776 2.17698 0
M  V30 7786 H 709.902 4.61291 -0.0285352 0
M  V30 7787 H 708.145 4.33693 -0.0962343 0
M  V30 7788 H 708.816 5.40009 1.1443 0
M  V30 7789 H 711.292 3.66192 1.97593 0
M  V30 7790 H 710.168 4.60389 2.98886 0
M  V30 7791 H 710.429 2.90176 3.33542 0
M  V30 7792 N 709.488 -0.375779 1.53054 0
M  V30 7793 C 710.418 -1.46598 1.81745 0
M  V30 7794 C 711.399 -1.56337 0.670286 0
M  V30 7795 O 712.584 -1.71071 0.919158 0
M  V30 7796 C 709.714 -2.84058 1.99821 0
M  V30 7797 C 708.668 -2.8915 3.15557 0
M  V30 7798 C 707.994 -4.29187 3.18908 0
M  V30 7799 C 709.294 -2.57595 4.54359 0
M  V30 7800 H 710.988 -1.22837 2.73041 0
M  V30 7801 H 708.534 -0.589485 1.31381 0
M  V30 7802 H 710.487 -3.60342 2.18475 0
M  V30 7803 H 709.211 -3.09184 1.05226 0
M  V30 7804 H 707.87 -2.15316 2.96706 0
M  V30 7805 H 707.518 -4.51374 2.2197 0
M  V30 7806 H 707.218 -4.33512 3.96662 0
M  V30 7807 H 708.742 -5.07359 3.39734 0
M  V30 7808 H 710.156 -3.23595 4.73243 0
M  V30 7809 H 708.553 -2.73252 5.34279 0
M  V30 7810 H 709.623 -1.52882 4.60169 0
M  V30 7811 N 710.966 -1.44241 -0.634997 0
M  V30 7812 C 711.913 -1.5081 -1.74714 0
M  V30 7813 C 712.883 -0.356147 -1.62237 0
M  V30 7814 O 714.068 -0.565848 -1.82216 0
M  V30 7815 C 711.208 -1.45458 -3.12947 0
M  V30 7816 C 710.321 -2.70998 -3.36428 0
M  V30 7817 C 709.456 -2.57507 -4.64611 0
M  V30 7818 C 708.495 -3.78229 -4.81258 0
M  V30 7819 N 707.632 -3.63438 -6.00714 0
M  V30 7820 H 712.472 -2.45832 -1.68436 0
M  V30 7821 H 710.009 -1.2201 -0.821706 0
M  V30 7822 H 711.967 -1.40347 -3.92885 0
M  V30 7823 H 710.597 -0.540058 -3.1825 0
M  V30 7824 H 709.649 -2.86312 -2.50458 0
M  V30 7825 H 710.961 -3.60619 -3.44609 0
M  V30 7826 H 710.115 -2.50207 -5.52703 0
M  V30 7827 H 708.854 -1.65441 -4.58782 0
M  V30 7828 H 707.859 -3.85918 -3.91596 0
M  V30 7829 H 709.084 -4.71327 -4.88904 0
M  V30 7830 H 707.03 -2.7412 -5.95982 0
M  V30 7831 H 706.947 -4.46672 -6.09934 0
M  V30 7832 H 708.215 -3.60022 -6.91378 0
M  V30 7833 N 712.444 0.87505 -1.31075 0
M  V30 7834 C 713.855 1.4433 -1.18431 0
M  V30 7835 C 714.206 1.9506 0.211189 0
M  V30 7836 O 713.331 1.85847 1.10859 0
M  V30 7837 C 713.926 2.62341 -2.14389 0
M  V30 7838 C 712.485 3.15225 -2.05694 0
M  V30 7839 C 711.632 1.87929 -2.03907 0
M  V30 7840 H 714.583 0.684061 -1.432 0
M  V30 7841 H 714.604 3.3887 -1.73053 0
M  V30 7842 H 714.116 2.25388 -3.15946 0
M  V30 7843 H 712.217 3.56812 -1.07314 0
M  V30 7844 H 712.33 3.77853 -2.94558 0
M  V30 7845 H 710.694 2.06679 -1.48849 0
M  V30 7846 H 711.477 1.53221 -3.07211 0
M  V30 7847 N 713.922 1.13953 1.08869 0
M  V30 7848 C 715.147 0.928559 1.85452 0
M  V30 7849 C 715.572 -0.517642 1.80837 0
M  V30 7850 O 714.93 -1.36779 1.19001 0
M  V30 7851 C 714.978 1.42814 3.31114 0
M  V30 7852 O 714.082 0.617129 4.07756 0
M  V30 7853 H 713.423 0.33235 0.574839 0
M  V30 7854 H 715.953 1.5156 1.37443 0
M  V30 7855 H 715.963 1.43425 3.8196 0
M  V30 7856 H 714.638 2.48109 3.33788 0
M  V30 7857 H 713.215 0.679365 3.66659 0
M  V30 7858 N 715.4 -1.26948 0.933913 0
M  V30 7859 C 716.348 -2.2862 0.428463 0
M  V30 7860 C 717.342 -1.62144 -0.490464 0
M  V30 7861 O 718.548 -1.76167 -0.36948 0
M  V30 7862 H 714.923 -0.742363 0.120003 0
M  V30 7863 H 716.894 -2.68659 1.29865 0
M  V30 7864 C 715.643 -3.46423 -0.29774 0
M  V30 7865 H 714.966 -3.97792 0.400183 0
M  V30 7866 H 716.406 -4.19505 -0.615736 0
M  V30 7867 C 714.865 -3.01017 -1.51295 0
M  V30 7868 O 715.395 -3.05226 -2.61151 0
M  V30 7869 N 713.601 -2.56442 -1.36696 0
M  V30 7870 H 713.148 -2.53217 -0.473178 0
M  V30 7871 H 713.106 -2.26424 -2.18127 0
M  V30 7872 N 716.879 -0.700114 -1.41195 0
M  V30 7873 C 717.789 -0.0382854 -2.34569 0
M  V30 7874 C 718.805 0.761036 -1.56474 0
M  V30 7875 O 719.981 0.697553 -1.88934 0
M  V30 7876 C 717.046 0.883522 -3.35253 0
M  V30 7877 C 716.107 0.0758957 -4.29233 0
M  V30 7878 C 715.34 0.9538 -5.25108 0
M  V30 7879 O 715.563 2.19326 -5.26547 0
M  V30 7880 O 714.497 0.401049 -6.00562 0
M  V30 7881 H 718.323 -0.808073 -2.92752 0
M  V30 7882 H 715.908 -0.460479 -1.42127 0
M  V30 7883 H 717.79 1.41199 -3.9704 0
M  V30 7884 H 716.465 1.63272 -2.79506 0
M  V30 7885 H 715.372 -0.497274 -3.7078 0
M  V30 7886 H 716.705 -0.634741 -4.8809 0
M  V30 7887 N 718.357 1.51182 -0.445186 0
M  V30 7888 C 719.304 2.27939 0.362291 0
M  V30 7889 C 720.274 1.31864 1.01 0
M  V30 7890 O 721.459 1.60776 1.02741 0
M  V30 7891 C 718.599 3.13016 1.45311 0
M  V30 7892 C 717.712 4.24093 0.822757 0
M  V30 7893 C 716.847 4.96467 1.88928 0
M  V30 7894 C 715.886 5.99454 1.23778 0
M  V30 7895 N 715.023 6.65206 2.24602 0
M  V30 7896 H 719.863 2.965 -0.29862 0
M  V30 7897 H 717.4 1.46237 -0.15911 0
M  V30 7898 H 719.358 3.60673 2.09692 0
M  V30 7899 H 717.988 2.46553 2.08354 0
M  V30 7900 H 717.04 3.80341 0.0670364 0
M  V30 7901 H 718.352 4.97853 0.307184 0
M  V30 7902 H 717.506 5.47712 2.60953 0
M  V30 7903 H 716.245 4.22355 2.4386 0
M  V30 7904 H 715.25 5.47494 0.503042 0
M  V30 7905 H 716.475 6.75527 0.695694 0
M  V30 7906 H 714.421 5.93901 2.78599 0
M  V30 7907 H 714.338 7.34756 1.77958 0
M  V30 7908 H 715.606 7.21078 2.96085 0
M  V30 7909 N 719.835 0.176821 1.56605 0
M  V30 7910 C 721.075 -0.469104 1.98944 0
M  V30 7911 C 721.439 -1.60048 1.06059 0
M  V30 7912 O 722.64 -2.30934 1.3756 0
M  V30 7913 C 720.911 -0.934571 3.44965 0
M  V30 7914 S 722.47 -1.58091 4.09332 0
M  V30 7915 H 719.288 -0.150695 0.694847 0
M  V30 7916 H 721.89 0.27558 1.93548 0
M  V30 7917 H 720.594 -0.100814 4.10276 0
M  V30 7918 H 720.125 -1.71316 3.54139 0
M  V30 7919 H 722.14 -2.86922 4.04834 0
M  V30 7920 N 721.313 -1.57302 -0.09688 0
M  V30 7921 C 722.261 -2.02942 -1.13654 0
M  V30 7922 C 723.255 -0.930173 -1.41577 0
M  V30 7923 O 724.461 -1.11535 -1.41279 0
M  V30 7924 H 720.836 -0.646726 -0.383731 0
M  V30 7925 H 722.807 -2.89452 -0.725267 0
M  V30 7926 C 721.556 -2.46815 -2.44903 0
M  V30 7927 H 720.879 -3.30979 -2.24261 0
M  V30 7928 H 722.319 -2.82527 -3.16156 0
M  V30 7929 C 720.778 -1.34071 -3.09074 0
M  V30 7930 O 721.308 -0.668856 -3.96092 0
M  V30 7931 N 719.514 -1.09214 -2.69296 0
M  V30 7932 H 719.061 -1.64029 -1.98626 0
M  V30 7933 H 719.019 -0.339785 -3.12559 0
M  V30 7934 N 722.791 0.367657 -1.53252 0
M  V30 7935 C 724.04 1.10782 -1.68554 0
M  V30 7936 C 724.353 1.90523 -0.442765 0
M  V30 7937 O 725.559 2.6729 -0.47629 0
M  V30 7938 C 724.015 2.01863 -2.97959 0
M  V30 7939 C 723.623 1.27443 -4.29491 0
M  V30 7940 C 725.367 2.75883 -3.22628 0
M  V30 7941 C 723.274 2.17414 -5.49987 0
M  V30 7942 H 722.204 0.417272 -0.628013 0
M  V30 7943 H 724.855 0.368971 -1.79752 0
M  V30 7944 H 723.237 2.7947 -2.80558 0
M  V30 7945 H 724.411 0.549138 -4.57516 0
M  V30 7946 H 722.726 0.652935 -4.11249 0
M  V30 7947 H 725.323 3.43421 -4.09837 0
M  V30 7948 H 725.666 3.41138 -2.38601 0
M  V30 7949 H 726.199 2.0536 -3.40693 0
M  V30 7950 H 722.938 1.5674 -6.36485 0
M  V30 7951 H 722.458 2.87799 -5.26243 0
M  V30 7952 H 724.137 2.77019 -5.84696 0
M  V30 7953 N 724.269 1.44576 0.627338 0
M  V30 7954 C 725.217 1.52039 1.76031 0
M  V30 7955 C 726.211 0.391796 1.64807 0
M  V30 7956 O 727.417 0.5669 1.7084 0
M  V30 7957 H 723.792 0.477165 0.581221 0
M  V30 7958 H 725.763 2.47387 1.6686 0
M  V30 7959 C 724.512 1.48539 3.14375 0
M  V30 7960 H 723.835 2.34699 3.23661 0
M  V30 7961 H 725.275 1.57821 3.93534 0
M  V30 7962 C 723.734 0.20672 3.36265 0
M  V30 7963 O 724.264 -0.72154 3.95167 0
M  V30 7964 N 722.47 0.108654 2.90397 0
M  V30 7965 H 722.017 0.864884 2.42647 0
M  V30 7966 H 721.975 -0.746121 3.05418 0
M  V30 7967 N 725.747 -0.868086 1.31537 0
M  V30 7968 C 726.993 -1.62367 1.2151 0
M  V30 7969 C 727.326 -1.92883 -0.225819 0
M  V30 7970 O 726.601 -1.56176 -1.15927 0
M  V30 7971 C 726.884 -2.95268 2.06129 0
M  V30 7972 C 726.737 -2.71619 3.58529 0
M  V30 7973 C 728.056 -3.96391 1.91212 0
M  V30 7974 H 725.175 -0.589178 0.442762 0
M  V30 7975 H 727.817 -1.00336 1.61347 0
M  V30 7976 H 725.967 -3.4821 1.72284 0
M  V30 7977 H 727.639 -2.25334 4.0252 0
M  V30 7978 H 725.882 -2.05817 3.81866 0
M  V30 7979 H 726.553 -3.66192 4.13047 0
M  V30 7980 H 729.029 -3.52663 2.20834 0
M  V30 7981 H 727.905 -4.87263 2.52718 0
M  V30 7982 H 728.166 -4.33335 0.875953 0
M  V30 7983 N 727.225 -1.14528 -1.08264 0
M  V30 7984 C 728.173 -0.829201 -2.17318 0
M  V30 7985 C 729.167 0.193521 -1.68291 0
M  V30 7986 O 730.373 0.0494744 -1.79932 0
M  V30 7987 H 726.748 -0.250435 -0.709074 0
M  V30 7988 H 728.719 -1.75683 -2.41201 0
M  V30 7989 C 727.468 -0.324663 -3.46181 0
M  V30 7990 H 726.791 -1.10299 -3.84284 0
M  V30 7991 H 728.231 -0.142059 -4.23762 0
M  V30 7992 C 726.69 0.952033 -3.23169 0
M  V30 7993 O 727.22 2.02549 -3.46896 0
M  V30 7994 N 725.426 0.887854 -2.76705 0
M  V30 7995 H 724.973 0.0141402 -2.57596 0
M  V30 7996 H 724.931 1.74263 -2.61686 0
M  V30 7997 N 728.703 1.26451 -0.940633 0
M  V30 7998 C 730.114 1.75726 -0.630653 0
M  V30 7999 C 730.465 1.76631 0.854167 0
M  V30 8000 O 729.59 1.37807 1.66848 0
M  V30 8001 C 730.185 3.19114 -1.13805 0
M  V30 8002 C 728.744 3.66005 -0.878497 0
M  V30 8003 C 727.891 2.45505 -1.28928 0
M  V30 8004 H 730.842 1.12535 -1.119 0
M  V30 8005 H 730.863 3.77311 -0.491625 0
M  V30 8006 H 730.375 3.18424 -2.21874 0
M  V30 8007 H 728.476 3.72126 0.187833 0
M  V30 8008 H 728.589 4.54844 -1.50512 0
M  V30 8009 H 726.953 2.4467 -0.707713 0
M  V30 8010 H 727.736 2.47516 -2.37888 0
M  V30 8011 N 730.181 0.707592 1.40822 0
M  V30 8012 C 731.406 0.251626 2.05868 0
M  V30 8013 C 731.831 -1.09503 1.5294 0
M  V30 8014 O 731.189 -1.68806 0.661385 0
M  V30 8015 C 731.237 0.23287 3.59847 0
M  V30 8016 O 730.341 -0.788477 4.04792 0
M  V30 8017 H 729.682 0.119936 0.653078 0
M  V30 8018 H 732.212 0.96583 1.80369 0
M  V30 8019 H 732.222 0.0678204 4.07944 0
M  V30 8020 H 730.897 1.21565 3.97737 0
M  V30 8021 H 729.474 -0.591802 3.68174 0
M  V30 8022 N 731.66 -1.50943 0.453197 0
M  V30 8023 C 732.608 -2.29728 -0.364419 0
M  V30 8024 C 733.602 -1.36246 -1.00664 0
M  V30 8025 O 734.808 -1.53518 -0.939794 0
M  V30 8026 H 731.183 -0.739536 -0.136347 0
M  V30 8027 H 733.154 -2.96672 0.320696 0
M  V30 8028 C 731.903 -3.1629 -1.44415 0
M  V30 8029 H 731.226 -3.88119 -0.959343 0
M  V30 8030 H 732.666 -3.74444 -1.98917 0
M  V30 8031 C 731.125 -2.32702 -2.43622 0
M  V30 8032 O 731.655 -1.99763 -3.48508 0
M  V30 8033 N 729.861 -1.95621 -2.14897 0
M  V30 8034 H 729.408 -2.22607 -1.29629 0
M  V30 8035 H 729.366 -1.39993 -2.81513 0
M  V30 8036 N 733.138 -0.185124 -1.56509 0
M  V30 8037 C 734.366 0.462139 -2.01673 0
M  V30 8038 C 734.781 1.55873 -1.06532 0
M  V30 8039 O 734.138 1.82371 -0.0684805 0
M  V30 8040 C 734.189 1.0277 -3.46584 0
M  V30 8041 O 733.91 -0.0251296 -4.38093 0
M  V30 8042 C 735.411 1.75183 -4.07217 0
M  V30 8043 H 732.631 0.117001 -0.660721 0
M  V30 8044 H 735.175 -0.290905 -2.0242 0
M  V30 8045 H 733.33 1.73118 -3.46568 0
M  V30 8046 H 733.744 0.394387 -5.23015 0
M  V30 8047 H 735.218 2.09999 -5.10494 0
M  V30 8048 H 735.695 2.6519 -3.50101 0
M  V30 8049 H 736.301 1.09445 -4.10977 0
M  V30 8050 N 734.616 1.57351 0.0885366 0
M  V30 8051 C 736.032 1.53331 0.442916 0
M  V30 8052 C 736.232 0.902831 1.80142 0
M  V30 8053 O 735.288 0.498147 2.47537 0
M  V30 8054 C 736.601 2.98036 0.399372 0
M  V30 8055 C 738.149 3.09286 0.480759 0
M  V30 8056 C 738.624 4.5561 0.467296 0
M  V30 8057 N 740.115 4.60182 0.52786 0
M  V30 8058 C 740.85 5.70857 0.539388 0
M  V30 8059 N 740.346 6.90944 0.506729 0
M  V30 8060 N 742.139 5.59051 0.584691 0
M  V30 8061 H 734.29 1.96709 -0.801215 0
M  V30 8062 H 736.553 0.899639 -0.298922 0
M  V30 8063 H 736.259 3.47656 -0.531806 0
M  V30 8064 H 736.133 3.57066 1.21589 0
M  V30 8065 H 738.52 2.5965 1.40236 0
M  V30 8066 H 738.601 2.53197 -0.364023 0
M  V30 8067 H 738.245 5.05899 -0.450384 0
M  V30 8068 H 738.175 5.09544 1.32938 0
M  V30 8069 H 740.666 3.73757 0.558028 0
M  V30 8070 H 740.979 7.71055 0.518989 0
M  V30 8071 H 739.324 6.93384 0.473675 0
M  V30 8072 H 742.515 4.64138 0.607781 0
M  V30 8073 H 742.688 6.45307 0.590206 0
M  V30 8074 N 736.094 -0.359525 1.53444 0
M  V30 8075 C 737.042 -1.46104 1.80987 0
M  V30 8076 C 738.036 -1.55181 0.679351 0
M  V30 8077 O 739.242 -1.57995 0.862405 0
M  V30 8078 H 735.617 -0.486835 0.573145 0
M  V30 8079 H 737.588 -1.2008 2.73173 0
M  V30 8080 C 736.337 -2.82855 2.02208 0
M  V30 8081 H 735.66 -2.76631 2.88644 0
M  V30 8082 H 737.1 -3.59091 2.25455 0
M  V30 8083 C 735.559 -3.27192 0.802931 0
M  V30 8084 O 736.089 -4.017 -0.00544286 0
M  V30 8085 N 734.295 -2.83807 0.624657 0
M  V30 8086 H 733.842 -2.23339 1.28364 0
M  V30 8087 H 733.8 -3.13828 -0.189641 0
M  V30 8088 N 737.572 -1.44907 -0.619662 0
M  V30 8089 C 738.849 -1.38766 -1.37852 0
M  V30 8090 C 739.229 -0.0521393 -2.11036 0
M  V30 8091 O 738.577 0.965613 -2.07095 0
M  V30 8092 C 738.787 -2.59344 -2.33541 0
M  V30 8093 C 740.135 -3.03909 -2.96521 0
M  V30 8094 O 741.159 -2.59631 -2.43865 0
M  V30 8095 O 740.018 -3.80713 -3.92071 0
M  V30 8096 H 737.112 -0.550083 -0.617525 0
M  V30 8097 H 739.658 -1.57015 -0.643759 0
M  V30 8098 H 738.43 -3.48142 -1.78642 0
M  V30 8099 H 738.053 -2.43367 -3.14417 0
M  V30 8100 N 739.05 0.861098 -1.31996 0
M  V30 8101 C 739.998 1.99052 -1.20337 0
M  V30 8102 C 740.992 1.69045 -0.109623 0
M  V30 8103 O 742.198 1.77931 -0.272117 0
M  V30 8104 H 738.573 0.653064 -0.372843 0
M  V30 8105 H 740.544 2.06015 -2.15872 0
M  V30 8106 C 739.293 3.34846 -0.936663 0
M  V30 8107 H 738.616 3.58462 -1.77045 0
M  V30 8108 H 740.056 4.1444 -0.895302 0
M  V30 8109 C 738.515 3.34965 0.360607 0
M  V30 8110 O 739.045 3.7745 1.37456 0
M  V30 8111 N 737.251 2.88101 0.380296 0
M  V30 8112 H 736.798 2.53721 -0.445351 0
M  V30 8113 H 736.756 2.88563 1.24816 0
M  V30 8114 N 740.528 1.15101 1.07655 0
M  V30 8115 C 741.777 0.918528 1.79572 0
M  V30 8116 C 742.09 -0.555922 1.87534 0
M  V30 8117 O 743.296 -0.905893 2.55941 0
M  V30 8118 C 741.752 1.59394 3.22679 0
M  V30 8119 C 741.36 3.1052 3.22927 0
M  V30 8120 C 743.104 1.44289 3.99225 0
M  V30 8121 C 741.011 3.70862 4.60668 0
M  V30 8122 H 739.941 0.340006 0.672987 0
M  V30 8123 H 742.592 1.38079 1.20857 0
M  V30 8124 H 740.974 1.05936 3.81567 0
M  V30 8125 H 742.148 3.70708 2.737 0
M  V30 8126 H 740.463 3.25351 2.59876 0
M  V30 8127 H 743.06 1.86766 5.01022 0
M  V30 8128 H 743.403 0.389975 4.14469 0
M  V30 8129 H 743.936 1.94826 3.46825 0
M  V30 8130 H 740.675 4.7604 4.50628 0
M  V30 8131 H 740.195 3.15456 5.10145 0
M  V30 8132 H 741.874 3.71607 5.29639 0
M  V30 8133 N 742.006 -1.2595 0.947325 0
M  V30 8134 C 742.953 -2.26159 0.460497 0
M  V30 8135 C 743.923 -1.58919 -0.483125 0
M  V30 8136 O 745.108 -1.86603 -0.397983 0
M  V30 8137 C 742.248 -3.441 -0.26247 0
M  V30 8138 C 741.361 -4.25999 0.717539 0
M  V30 8139 C 740.496 -5.31193 -0.0272486 0
M  V30 8140 C 739.535 -6.04774 0.944177 0
M  V30 8141 N 738.672 -7.01721 0.230741 0
M  V30 8142 H 743.512 -2.67173 1.31995 0
M  V30 8143 H 741.049 -1.31358 0.662088 0
M  V30 8144 H 743.007 -4.11317 -0.698137 0
M  V30 8145 H 741.637 -3.03983 -1.08602 0
M  V30 8146 H 740.689 -3.58513 1.27171 0
M  V30 8147 H 742.001 -4.76981 1.45913 0
M  V30 8148 H 741.155 -6.04451 -0.521903 0
M  V30 8149 H 739.894 -4.81066 -0.801682 0
M  V30 8150 H 738.899 -5.30338 1.4499 0
M  V30 8151 H 740.124 -6.56991 1.71872 0
M  V30 8152 H 738.07 -6.53895 -0.525088 0
M  V30 8153 H 737.987 -7.50484 0.911556 0
M  V30 8154 H 739.255 -7.79122 -0.242616 0
M  V30 8155 N 743.484 -0.715051 -1.40445 0
M  V30 8156 C 744.417 -0.0112426 -2.28197 0
M  V30 8157 C 745.395 0.768211 -1.43308 0
M  V30 8158 O 746.579 0.754961 -1.72721 0
M  V30 8159 C 743.706 0.991453 -3.23864 0
M  V30 8160 C 742.752 0.302873 -4.25423 0
M  V30 8161 S 743.585 -0.968852 -5.26663 0
M  V30 8162 C 744.741 0.0317538 -6.25892 0
M  V30 8163 H 744.974 -0.755467 -2.87541 0
M  V30 8164 H 742.507 -0.506054 -1.45871 0
M  V30 8165 H 744.465 1.56475 -3.79507 0
M  V30 8166 H 743.126 1.70838 -2.63578 0
M  V30 8167 H 742.319 1.06086 -4.92709 0
M  V30 8168 H 741.921 -0.197853 -3.73476 0
M  V30 8169 H 744.213 0.878764 -6.71777 0
M  V30 8170 H 745.156 -0.607698 -7.05488 0
M  V30 8171 H 745.564 0.39524 -5.63115 0
M  V30 8172 N 744.962 1.50701 -0.461195 0
M  V30 8173 C 745.91 2.29918 0.352231 0
M  V30 8174 C 746.904 1.36778 0.999403 0
M  V30 8175 O 748.11 1.54015 0.931639 0
M  V30 8176 H 744.485 0.740249 0.132423 0
M  V30 8177 H 746.456 2.96497 -0.336424 0
M  V30 8178 C 745.205 3.17052 1.42736 0
M  V30 8179 H 744.528 3.88623 0.938747 0
M  V30 8180 H 745.968 3.75493 1.96928 0
M  V30 8181 C 744.427 2.3399 2.42384 0
M  V30 8182 O 744.957 2.01608 3.47444 0
M  V30 8183 N 743.163 1.96758 2.13857 0
M  V30 8184 H 742.71 2.23292 1.28447 0
M  V30 8185 H 742.668 1.41484 2.80766 0
M  V30 8186 N 746.441 0.193421 1.56409 0
M  V30 8187 C 747.687 -0.446449 1.97825 0
M  V30 8188 C 748.02 -1.61386 1.08019 0
M  V30 8189 O 747.295 -1.94053 0.131839 0
M  V30 8190 C 747.578 -0.908199 3.48459 0
M  V30 8191 C 747.431 0.260914 4.49043 0
M  V30 8192 C 748.75 -1.77428 4.0275 0
M  V30 8193 H 745.869 -0.160807 0.719243 0
M  V30 8194 H 748.511 0.284006 1.87865 0
M  V30 8195 H 746.661 -1.53062 3.57077 0
M  V30 8196 H 748.333 0.898548 4.52464 0
M  V30 8197 H 746.576 0.912949 4.24085 0
M  V30 8198 H 747.247 -0.104657 5.51901 0
M  V30 8199 H 749.723 -1.24936 3.96901 0
M  V30 8200 H 748.599 -2.06633 5.08521 0
M  V30 8201 H 748.86 -2.72788 3.47907 0
M  V30 8202 N 747.919 -1.57396 -0.0801906 0
M  V30 8203 C 749.165 -1.87113 -0.782083 0
M  V30 8204 C 749.498 -0.78458 -1.77646 0
M  V30 8205 O 748.773 0.205993 -1.93406 0
M  V30 8206 C 749.056 -3.27483 -1.49756 0
M  V30 8207 C 748.909 -4.46782 -0.520171 0
M  V30 8208 C 750.228 -3.65965 -2.44454 0
M  V30 8209 H 747.347 -0.680559 -0.282858 0
M  V30 8210 H 749.989 -1.89946 -0.0454139 0
M  V30 8211 H 748.139 -3.25199 -2.12551 0
M  V30 8212 H 749.811 -4.61187 0.101919 0
M  V30 8213 H 748.054 -4.33485 0.165219 0
M  V30 8214 H 748.725 -5.41761 -1.05824 0
M  V30 8215 H 751.201 -3.69289 -1.91742 0
M  V30 8216 H 750.077 -4.65086 -2.91524 0
M  V30 8217 H 750.338 -2.95446 -3.28883 0
M  V30 8218 N 749.397 0.351382 -1.53633 0
M  V30 8219 C 750.36 1.41403 -1.80383 0
M  V30 8220 C 751.36 1.45963 -0.674635 0
M  V30 8221 O 752.55 1.46476 -0.942895 0
M  V30 8222 C 749.682 2.80401 -1.93876 0
M  V30 8223 H 750.875 1.18951 -2.75301 0
M  V30 8224 H 748.428 0.58533 -1.44926 0
M  V30 8225 H 749.163 3.08147 -1.01074 0
M  V30 8226 H 748.948 2.78488 -2.7602 0
M  V30 8227 H 750.438 3.57329 -2.16116 0
M  V30 8228 N 750.875 1.45233 0.611969 0
M  V30 8229 C 752.152 1.39495 1.37115 0
M  V30 8230 C 752.532 0.0633303 2.11005 0
M  V30 8231 O 751.88 -0.954617 2.07604 0
M  V30 8232 C 752.09 2.60579 2.32163 0
M  V30 8233 C 753.438 3.05477 2.94905 0
M  V30 8234 O 754.462 2.60921 2.42485 0
M  V30 8235 O 753.321 3.82787 3.90047 0
M  V30 8236 H 750.415 0.55335 0.614599 0
M  V30 8237 H 752.961 1.57355 0.635423 0
M  V30 8238 H 751.733 3.49085 1.76793 0
M  V30 8239 H 751.356 2.45031 3.13122 0
M  V30 8240 N 752.353 -0.854086 1.3245 0
M  V30 8241 C 753.602 -1.60318 1.22397 0
M  V30 8242 C 753.915 -1.9444 -0.212664 0
M  V30 8243 O 755.121 -2.67991 -0.435066 0
M  V30 8244 C 753.577 -2.8909 2.1437 0
M  V30 8245 C 753.185 -2.62391 3.63119 0
M  V30 8246 C 754.929 -3.67104 2.13155 0
M  V30 8247 C 752.836 -3.87167 4.47052 0
M  V30 8248 H 751.766 -0.601586 0.454544 0
M  V30 8249 H 754.417 -0.943023 1.57415 0
M  V30 8250 H 752.799 -3.56567 1.72268 0
M  V30 8251 H 753.973 -2.03222 4.13567 0
M  V30 8252 H 752.288 -1.97706 3.66471 0
M  V30 8253 H 754.885 -4.59696 2.731 0
M  V30 8254 H 755.228 -4.00876 1.12268 0
M  V30 8255 H 755.761 -3.06533 2.5354 0
M  V30 8256 H 752.5 -3.58536 5.48755 0
M  V30 8257 H 752.02 -4.45729 4.01355 0
M  V30 8258 H 753.699 -4.549 4.60081 0
M  V30 8259 N 753.831 -1.1567 -1.07043 0
M  V30 8260 C 755.059 -0.957471 -1.83412 0
M  V30 8261 C 755.474 0.494271 -1.82215 0
M  V30 8262 O 754.831 1.34288 -1.23584 0
M  V30 8263 C 754.882 -1.46784 -3.30359 0
M  V30 8264 O 754.603 -2.86271 -3.31633 0
M  V30 8265 C 756.104 -1.31054 -4.23485 0
M  V30 8266 H 753.324 -0.33986 -0.578564 0
M  V30 8267 H 755.868 -1.53518 -1.35102 0
M  V30 8268 H 754.023 -0.932586 -3.76007 0
M  V30 8269 H 754.437 -3.0948 -4.23465 0
M  V30 8270 H 755.911 -1.71605 -5.24648 0
M  V30 8271 H 756.388 -0.255107 -4.38458 0
M  V30 8272 H 756.994 -1.83503 -3.83676 0
M  V30 8273 N 755.309 1.25446 -0.953992 0
M  V30 8274 C 756.725 1.4539 -0.658316 0
M  V30 8275 C 756.925 1.85607 0.784356 0
M  V30 8276 O 755.981 1.98568 1.55972 0
M  V30 8277 C 757.294 2.52643 -1.6307 0
M  V30 8278 C 758.842 2.66484 -1.64181 0
M  V30 8279 C 759.317 3.76921 -2.60182 0
M  V30 8280 N 760.808 3.84331 -2.58542 0
M  V30 8281 C 761.543 4.69271 -3.29503 0
M  V30 8282 N 761.039 5.58503 -4.09934 0
M  V30 8283 N 762.832 4.6323 -3.18393 0
M  V30 8284 H 754.983 0.976337 -1.8863 0
M  V30 8285 H 757.246 0.490343 -0.811337 0
M  V30 8286 H 756.952 2.29949 -2.66114 0
M  V30 8287 H 756.826 3.50547 -1.39271 0
M  V30 8288 H 759.213 2.88545 -0.618552 0
M  V30 8289 H 759.294 1.68982 -1.92038 0
M  V30 8290 H 758.938 3.55612 -3.62633 0
M  V30 8291 H 758.868 4.73906 -2.29609 0
M  V30 8292 H 761.359 3.20544 -2.0015 0
M  V30 8293 H 761.672 6.20241 -4.61 0
M  V30 8294 H 760.017 5.58214 -4.14032 0
M  V30 8295 H 763.208 3.92527 -2.5503 0
M  V30 8296 H 763.381 5.29204 -3.73961 0
M  V30 8297 N 756.787 0.722489 1.40064 0
M  V30 8298 C 757.735 0.063329 2.32514 0
M  V30 8299 C 758.729 -0.73953 1.52405 0
M  V30 8300 O 759.935 -0.642122 1.68157 0
M  V30 8301 H 756.31 0.00167692 0.751998 0
M  V30 8302 H 758.281 0.859656 2.85749 0
M  V30 8303 C 757.03 -0.839219 3.3742 0
M  V30 8304 H 756.353 -0.230836 3.99133 0
M  V30 8305 H 757.793 -1.26827 4.04587 0
M  V30 8306 C 756.252 -1.96783 2.73456 0
M  V30 8307 O 756.782 -3.05933 2.60323 0
M  V30 8308 N 754.988 -1.75351 2.31734 0
M  V30 8309 H 754.535 -0.865787 2.42615 0
M  V30 8310 H 754.493 -2.51043 1.89275 0
M  V30 8311 N 758.265 -1.50454 0.469181 0
M  V30 8312 C 759.505 -2.04222 -0.0852381 0
M  V30 8313 C 759.869 -1.34357 -1.37158 0
M  V30 8314 O 761.07 -1.78669 -2.00825 0
M  V30 8315 C 759.341 -3.56403 -0.266778 0
M  V30 8316 S 760.9 -4.31811 -0.780028 0
M  V30 8317 H 757.718 -0.7108 -0.0168589 0
M  V30 8318 H 760.32 -1.8487 0.635883 0
M  V30 8319 H 759.024 -4.04807 0.67525 0
M  V30 8320 H 758.555 -3.80106 -1.01407 0
M  V30 8321 H 760.57 -4.51706 -2.05368 0
M  V30 8322 N 759.743 -0.201713 -1.56304 0
M  V30 8323 C 760.673 0.71155 -2.22394 0
M  V30 8324 C 761.654 1.21625 -1.18917 0
M  V30 8325 O 762.839 1.26388 -1.47444 0
M  V30 8326 C 759.969 1.92837 -2.88845 0
M  V30 8327 C 758.923 1.55831 -3.98623 0
M  V30 8328 C 758.249 2.85228 -4.52271 0
M  V30 8329 C 759.549 0.763249 -5.16693 0
M  V30 8330 H 761.243 0.160573 -2.98969 0
M  V30 8331 H 758.789 0.0757916 -1.438 0
M  V30 8332 H 760.742 2.57253 -3.33764 0
M  V30 8333 H 759.466 2.50398 -2.09686 0
M  V30 8334 H 758.125 0.9377 -3.54405 0
M  V30 8335 H 757.773 3.40893 -3.69866 0
M  V30 8336 H 757.473 2.6121 -5.26349 0
M  V30 8337 H 758.997 3.50622 -4.99897 0
M  V30 8338 H 760.411 1.31066 -5.58117 0
M  V30 8339 H 758.808 0.620935 -5.96879 0
M  V30 8340 H 759.878 -0.234322 -4.84334 0
M  V30 8341 N 761.222 1.57436 0.0718424 0
M  V30 8342 C 762.17 2.04725 1.10411 0
M  V30 8343 C 763.164 0.952579 1.4008 0
M  V30 8344 O 764.37 1.13769 1.39487 0
M  V30 8345 H 760.745 0.652749 0.373393 0
M  V30 8346 H 762.716 2.90569 0.679126 0
M  V30 8347 C 761.465 2.5068 2.40946 0
M  V30 8348 H 760.788 3.34505 2.18967 0
M  V30 8349 H 762.228 2.87521 3.11621 0
M  V30 8350 C 760.687 1.38971 3.06902 0
M  V30 8351 O 761.217 0.731786 3.94978 0
M  V30 8352 N 759.423 1.13485 2.67525 0
M  V30 8353 H 758.97 1.67168 1.95991 0
M  V30 8354 H 758.928 0.389467 3.11978 0
M  V30 8355 N 762.7 -0.34323 1.53817 0
M  V30 8356 C 763.61 -1.44493 1.84821 0
M  V30 8357 C 764.626 -1.57556 0.738381 0
M  V30 8358 O 765.802 -1.73026 1.03072 0
M  V30 8359 C 762.867 -2.79478 2.05166 0
M  V30 8360 C 761.928 -2.75756 3.29025 0
M  V30 8361 C 761.161 -4.04302 3.4839 0
M  V30 8362 O 761.384 -5.01595 2.71586 0
M  V30 8363 O 760.318 -4.08754 4.41819 0
M  V30 8364 H 764.144 -1.21209 2.78464 0
M  V30 8365 H 761.729 -0.535437 1.39476 0
M  V30 8366 H 763.611 -3.59419 2.19991 0
M  V30 8367 H 762.286 -3.02692 1.14713 0
M  V30 8368 H 761.193 -1.94434 3.19603 0
M  V30 8369 H 762.526 -2.57495 4.19472 0
M  V30 8370 N 764.178 -1.45556 -0.604258 0
M  V30 8371 C 765.424 -1.49968 -1.36519 0
M  V30 8372 C 765.757 -0.142236 -1.93678 0
M  V30 8373 O 765.032 0.843717 -1.75247 0
M  V30 8374 C 765.315 -2.58146 -2.51063 0
M  V30 8375 C 765.168 -4.03346 -1.99078 0
M  V30 8376 C 766.487 -2.62581 -3.53184 0
M  V30 8377 H 763.606 -0.545993 -0.495036 0
M  V30 8378 H 766.248 -1.77382 -0.680845 0
M  V30 8379 H 764.398 -2.34901 -3.09441 0
M  V30 8380 H 766.07 -4.37811 -1.45323 0
M  V30 8381 H 764.313 -4.13845 -1.30055 0
M  V30 8382 H 764.984 -4.74731 -2.81664 0
M  V30 8383 H 767.46 -2.83419 -3.04652 0
M  V30 8384 H 766.336 -3.40131 -4.30816 0
M  V30 8385 H 766.597 -1.67798 -4.09019 0
M  V30 8386 N 765.656 0.84705 -1.32902 0
M  V30 8387 C 766.886 1.63166 -1.26729 0
M  V30 8388 C 767.294 1.88474 0.165595 0
M  V30 8389 O 766.637 1.45947 1.11558 0
M  V30 8390 C 766.699 3.0103 -1.96522 0
M  V30 8391 C 766.363 2.9873 -3.45846 0
M  V30 8392 C 767.36 2.75032 -4.41196 0
M  V30 8393 C 765.045 3.19125 -3.87898 0
M  V30 8394 C 767.039 2.71743 -5.76571 0
M  V30 8395 C 764.726 3.15462 -5.2338 0
M  V30 8396 C 765.724 2.91801 -6.17528 0
M  V30 8397 O 765.412 2.88027 -7.5053 0
M  V30 8398 H 765.144 0.51469 -0.438258 0
M  V30 8399 H 767.698 1.06383 -1.75704 0
M  V30 8400 H 765.928 3.59634 -1.42128 0
M  V30 8401 H 767.617 3.61821 -1.83958 0
M  V30 8402 H 768.383 2.59034 -4.10032 0
M  V30 8403 H 764.262 3.36565 -3.15032 0
M  V30 8404 H 767.806 2.53194 -6.5003 0
M  V30 8405 H 763.703 3.31006 -5.54171 0
M  V30 8406 H 764.471 3.03927 -7.59981 0
M  V30 8407 N 767.134 1.16236 1.06428 0
M  V30 8408 C 768.044 0.881976 2.1739 0
M  V30 8409 C 769.06 -0.145259 1.73393 0
M  V30 8410 O 770.236 0.0310558 2.01376 0
M  V30 8411 C 767.301 0.385496 3.4455 0
M  V30 8412 C 766.362 1.47779 4.03063 0
M  V30 8413 C 765.595 1.0049 5.24154 0
M  V30 8414 O 765.818 -0.145889 5.70213 0
M  V30 8415 O 764.752 1.79265 5.74585 0
M  V30 8416 H 768.578 1.80983 2.43883 0
M  V30 8417 H 766.163 0.942226 1.15942 0
M  V30 8418 H 768.045 0.115536 4.21242 0
M  V30 8419 H 766.72 -0.514369 3.19587 0
M  V30 8420 H 765.627 1.80147 3.27869 0
M  V30 8421 H 766.96 2.35291 4.32318 0
M  V30 8422 N 768.612 -1.24939 0.960631 0
M  V30 8423 C 769.559 -2.25658 0.484459 0
M  V30 8424 C 770.529 -1.59422 -0.466242 0
M  V30 8425 O 771.714 -1.87015 -0.378169 0
M  V30 8426 C 768.854 -3.44359 -0.225958 0
M  V30 8427 C 767.967 -4.25214 0.762682 0
M  V30 8428 C 767.102 -5.31192 0.0290931 0
M  V30 8429 C 766.141 -6.03739 1.00827 0
M  V30 8430 N 765.278 -7.01437 0.305155 0
M  V30 8431 H 770.118 -2.65758 1.34821 0
M  V30 8432 H 767.655 -1.30648 0.675983 0
M  V30 8433 H 769.613 -4.12035 -0.654472 0
M  V30 8434 H 768.243 -3.05118 -1.05371 0
M  V30 8435 H 767.295 -3.57144 1.30966 0
M  V30 8436 H 768.607 -4.75406 1.50964 0
M  V30 8437 H 767.761 -6.04971 -0.457763 0
M  V30 8438 H 766.5 -4.81889 -0.750614 0
M  V30 8439 H 765.505 -5.2877 1.50607 0
M  V30 8440 H 766.73 -6.55131 1.7883 0
M  V30 8441 H 764.676 -6.54415 -0.455704 0
M  V30 8442 H 764.593 -7.49475 0.991104 0
M  V30 8443 H 765.861 -7.79336 -0.159966 0
M  V30 8444 N 770.09 -0.729906 -1.39679 0
M  V30 8445 C 771.501 -0.346241 -1.83461 0
M  V30 8446 C 771.852 1.1215 -1.60987 0
M  V30 8447 O 770.977 1.86456 -1.09832 0
M  V30 8448 C 771.572 -0.621656 -3.33048 0
M  V30 8449 C 770.131 -0.291543 -3.75269 0
M  V30 8450 C 769.278 -0.886844 -2.62736 0
M  V30 8451 H 772.229 -0.927949 -1.28743 0
M  V30 8452 H 772.25 0.108301 -3.80346 0
M  V30 8453 H 771.762 -1.68996 -3.49373 0
M  V30 8454 H 769.863 0.771133 -3.64533 0
M  V30 8455 H 769.976 -0.770544 -4.72863 0
M  V30 8456 H 768.34 -0.313839 -2.52759 0
M  V30 8457 H 769.123 -1.95971 -2.81869 0
M  V30 8458 N 771.568 1.50203 -0.477153 0
M  V30 8459 C 772.498 2.31517 0.303646 0
M  V30 8460 C 773.479 1.38696 0.984753 0
M  V30 8461 O 774.664 1.67615 0.980758 0
M  V30 8462 C 771.794 3.18598 1.38249 0
M  V30 8463 C 770.748 4.2002 0.822645 0
M  V30 8464 C 770.074 4.95878 2.00024 0
M  V30 8465 C 771.374 5.22023 -0.170185 0
M  V30 8466 H 773.068 2.97042 -0.375027 0
M  V30 8467 H 770.614 1.42848 -0.181802 0
M  V30 8468 H 772.567 3.74282 1.93625 0
M  V30 8469 H 771.291 2.5097 2.09002 0
M  V30 8470 H 769.95 3.65445 0.290813 0
M  V30 8471 H 769.598 4.24717 2.69489 0
M  V30 8472 H 769.298 5.64487 1.63183 0
M  V30 8473 H 770.822 5.54399 2.55878 0
M  V30 8474 H 772.236 5.72543 0.294606 0
M  V30 8475 H 770.633 5.98386 -0.453181 0
M  V30 8476 H 771.703 4.72396 -1.09408 0
M  V30 8477 N 773.046 0.209999 1.56195 0
M  V30 8478 C 773.994 -0.721416 2.2113 0
M  V30 8479 C 774.988 -1.20852 1.18706 0
M  V30 8480 O 776.194 -1.16968 1.36815 0
M  V30 8481 H 772.569 -0.251033 0.708863 0
M  V30 8482 H 774.54 -0.150193 2.98022 0
M  V30 8483 C 773.289 -1.92392 2.89621 0
M  V30 8484 H 772.612 -1.5582 3.68185 0
M  V30 8485 H 774.052 -2.55367 3.38473 0
M  V30 8486 C 772.511 -2.77208 1.91461 0
M  V30 8487 O 773.041 -3.75603 1.42426 0
M  V30 8488 N 771.247 -2.43006 1.59363 0
M  V30 8489 H 770.794 -1.63047 1.99433 0
M  V30 8490 H 770.752 -3.00036 0.939449 0
M  V30 8491 N 774.524 -1.57472 -0.0634922 0
M  V30 8492 C 775.457 -1.99571 -1.10664 0
M  V30 8493 C 776.435 -0.874015 -1.37112 0
M  V30 8494 O 777.619 -1.13702 -1.50347 0
M  V30 8495 C 774.746 -2.3395 -2.44918 0
M  V30 8496 C 773.792 -3.56213 -2.34551 0
M  V30 8497 S 774.625 -5.06727 -1.73169 0
M  V30 8498 C 775.781 -5.44316 -3.08984 0
M  V30 8499 H 776.014 -2.87739 -0.747905 0
M  V30 8500 H 773.547 -1.5198 -0.272316 0
M  V30 8501 H 775.505 -2.54431 -3.22141 0
M  V30 8502 H 774.166 -1.46297 -2.7795 0
M  V30 8503 H 773.359 -3.77812 -3.33578 0
M  V30 8504 H 772.961 -3.35406 -1.65466 0
M  V30 8505 H 775.253 -5.42894 -4.05305 0
M  V30 8506 H 776.196 -6.4502 -2.92156 0
M  V30 8507 H 776.604 -4.71781 -3.09972 0
M  V30 8508 N 776.003 0.335068 -1.53997 0
M  V30 8509 C 777.28 1.09188 -1.62288 0
M  V30 8510 C 777.66 2.0626 -0.449458 0
M  V30 8511 O 777.008 2.21596 0.557444 0
M  V30 8512 C 777.218 1.80403 -2.98757 0
M  V30 8513 C 778.566 2.33841 -3.54406 0
M  V30 8514 O 779.59 1.90487 -3.00987 0
M  V30 8515 O 778.449 3.1318 -4.47862 0
M  V30 8516 H 775.543 0.502621 -0.656736 0
M  V30 8517 H 778.089 0.33588 -1.66343 0
M  V30 8518 H 776.861 1.09732 -3.75599 0
M  V30 8519 H 776.484 2.62841 -2.9833 0
M  V30 8520 N 777.481 1.45874 0.596531 0
M  V30 8521 C 778.897 1.30524 0.918459 0
M  V30 8522 C 779.097 0.266429 1.99731 0
M  V30 8523 O 778.153 -0.335809 2.50257 0
M  V30 8524 C 779.466 2.68747 1.3489 0
M  V30 8525 C 781.014 2.7673 1.46251 0
M  V30 8526 C 781.489 4.15504 1.92667 0
M  V30 8527 N 782.98 4.17853 1.99883 0
M  V30 8528 C 783.715 5.22109 2.37044 0
M  V30 8529 N 783.211 6.36704 2.73094 0
M  V30 8530 N 785.004 5.09471 2.37479 0
M  V30 8531 H 777.155 2.12081 -0.116368 0
M  V30 8532 H 779.418 0.947941 0.0106033 0
M  V30 8533 H 779.124 3.46006 0.630288 0
M  V30 8534 H 778.998 2.97942 2.31323 0
M  V30 8535 H 781.385 1.99768 2.17202 0
M  V30 8536 H 781.466 2.51236 0.481054 0
M  V30 8537 H 781.11 4.92956 1.223 0
M  V30 8538 H 781.04 4.38396 2.91747 0
M  V30 8539 H 783.531 3.35163 1.74568 0
M  V30 8540 H 783.844 7.12041 3.00362 0
M  V30 8541 H 782.189 6.40087 2.70764 0
M  V30 8542 H 785.38 4.18987 2.08728 0
M  V30 8543 H 785.553 5.90837 2.66112 0
M  V30 8544 N 778.959 -0.83999 1.33349 0
M  V30 8545 C 779.889 -1.965 1.26135 0
M  V30 8546 C 780.87 -1.69505 0.142152 0
M  V30 8547 O 782.055 -1.91346 0.331743 0
M  V30 8548 C 779.185 -3.32632 0.99866 0
M  V30 8549 C 778.139 -3.74021 2.08068 0
M  V30 8550 C 777.465 -5.07947 1.67014 0
M  V30 8551 C 778.765 -3.87925 3.49731 0
M  V30 8552 H 780.459 -2.02793 2.20262 0
M  V30 8553 H 778.005 -0.974297 1.06035 0
M  V30 8554 H 779.958 -4.10903 0.934696 0
M  V30 8555 H 778.682 -3.26593 0.0217759 0
M  V30 8556 H 777.341 -2.98012 2.13505 0
M  V30 8557 H 776.989 -4.98378 0.680316 0
M  V30 8558 H 776.689 -5.36611 2.39422 0
M  V30 8559 H 778.213 -5.88695 1.62082 0
M  V30 8560 H 779.627 -4.5651 3.46802 0
M  V30 8561 H 778.024 -4.28023 4.20614 0
M  V30 8562 H 779.094 -2.90407 3.88319 0
M  V30 8563 N 780.437 -1.16799 -1.0581 0
M  V30 8564 C 781.384 -0.87902 -2.13405 0
M  V30 8565 C 782.354 0.174541 -1.6518 0
M  V30 8566 O 783.539 0.0386843 -1.90761 0
M  V30 8567 C 780.679 -0.391616 -3.42871 0
M  V30 8568 C 779.792 -1.50857 -4.04804 0
M  V30 8569 C 778.927 -0.975682 -5.22163 0
M  V30 8570 C 777.966 -2.06851 -5.76089 0
M  V30 8571 N 777.103 -1.55085 -6.84758 0
M  V30 8572 H 781.943 -1.80043 -2.37463 0
M  V30 8573 H 779.48 -0.898083 -1.16503 0
M  V30 8574 H 781.438 -0.0906247 -4.17102 0
M  V30 8575 H 780.068 0.49284 -3.19016 0
M  V30 8576 H 779.12 -1.92542 -3.28073 0
M  V30 8577 H 780.432 -2.33305 -4.40874 0
M  V30 8578 H 779.586 -0.628165 -6.03439 0
M  V30 8579 H 778.325 -0.120566 -4.87551 0
M  V30 8580 H 777.33 -2.42467 -4.93447 0
M  V30 8581 H 778.555 -2.92768 -6.12751 0
M  V30 8582 H 776.501 -0.718345 -6.52055 0
M  V30 8583 H 776.418 -2.31145 -7.19797 0
M  V30 8584 H 777.686 -1.23206 -7.69702 0
M  V30 8585 N 781.915 1.24427 -0.967243 0
M  V30 8586 C 782.863 2.27403 -0.488927 0
M  V30 8587 C 783.857 1.63388 0.447302 0
M  V30 8588 O 785.063 1.77085 0.322643 0
M  V30 8589 H 781.438 0.738921 -0.139643 0
M  V30 8590 H 783.409 2.65122 -1.36942 0
M  V30 8591 C 782.158 3.4709 0.205787 0
M  V30 8592 H 781.481 3.96591 -0.50551 0
M  V30 8593 H 782.921 4.2099 0.504296 0
M  V30 8594 C 781.38 3.04923 1.43261 0
M  V30 8595 O 781.91 3.12043 2.52967 0
M  V30 8596 N 780.116 2.59976 1.29849 0
M  V30 8597 H 779.663 2.54382 0.405876 0
M  V30 8598 H 779.621 2.32128 2.12047 0
M  V30 8599 N 783.393 0.737304 1.3929 0
M  V30 8600 C 784.642 0.283129 1.99703 0
M  V30 8601 C 784.955 -1.13677 1.59176 0
M  V30 8602 O 786.161 -1.69058 2.12442 0
M  V30 8603 C 784.617 0.455262 3.57009 0
M  V30 8604 C 784.225 1.88319 4.06497 0
M  V30 8605 C 785.969 0.0629786 4.24453 0
M  V30 8606 C 783.876 2.00475 5.56385 0
M  V30 8607 H 782.806 0.102106 0.747054 0
M  V30 8608 H 785.457 0.911515 1.5926 0
M  V30 8609 H 783.839 -0.242057 3.9526 0
M  V30 8610 H 785.013 2.61265 3.79575 0
M  V30 8611 H 783.328 2.2289 3.51723 0
M  V30 8612 H 785.925 0.132787 5.34535 0
M  V30 8613 H 786.268 -0.982128 4.04549 0
M  V30 8614 H 786.801 0.71154 3.91385 0
M  V30 8615 H 783.54 3.03182 5.81172 0
M  V30 8616 H 783.06 1.31969 5.85102 0
M  V30 8617 H 784.739 1.787 6.21832 0
M  V30 8618 N 784.871 -1.49948 0.485112 0
M  V30 8619 C 786.12 -2.01589 -0.066765 0
M  V30 8620 C 786.433 -1.371 -1.39509 0
M  V30 8621 O 787.639 -1.79978 -2.03274 0
M  V30 8622 C 786.095 -3.59501 -0.169476 0
M  V30 8623 C 785.703 -4.32955 1.15126 0
M  V30 8624 C 787.447 -4.19138 -0.672564 0
M  V30 8625 C 785.354 -5.82684 1.01158 0
M  V30 8626 H 784.284 -0.753453 -0.0287259 0
M  V30 8627 H 786.935 -1.72632 0.622132 0
M  V30 8628 H 785.317 -3.85106 -0.922471 0
M  V30 8629 H 786.491 -4.19064 1.9163 0
M  V30 8630 H 784.806 -3.84991 1.58654 0
M  V30 8631 H 787.403 -5.28767 -0.794325 0
M  V30 8632 H 787.746 -3.81447 -1.66745 0
M  V30 8633 H 788.279 -3.97793 0.0234415 0
M  V30 8634 H 785.018 -6.24873 1.98025 0
M  V30 8635 H 784.538 -5.99112 0.287151 0
M  V30 8636 H 786.217 -6.43376 0.683847 0
M  V30 8637 N 786.349 -0.21828 -1.56081 0
M  V30 8638 C 787.296 0.693189 -2.20144 0
M  V30 8639 C 788.266 1.19274 -1.15598 0
M  V30 8640 O 789.451 1.25243 -1.4394 0
M  V30 8641 C 786.591 1.89715 -2.88275 0
M  V30 8642 C 785.704 1.4368 -4.07407 0
M  V30 8643 C 784.839 2.59807 -4.63329 0
M  V30 8644 C 783.878 2.10492 -5.74769 0
M  V30 8645 N 783.015 3.1988 -6.24997 0
M  V30 8646 H 787.855 0.14016 -2.9767 0
M  V30 8647 H 785.392 0.0574292 -1.46988 0
M  V30 8648 H 787.35 2.60398 -3.25958 0
M  V30 8649 H 785.98 2.42311 -2.13273 0
M  V30 8650 H 785.032 0.625007 -3.7523 0
M  V30 8651 H 786.344 1.03517 -4.8794 0
M  V30 8652 H 785.498 3.38577 -5.03438 0
M  V30 8653 H 784.237 3.03256 -3.81951 0
M  V30 8654 H 783.242 1.30182 -5.34165 0
M  V30 8655 H 784.467 1.68045 -6.5798 0
M  V30 8656 H 782.413 3.62817 -5.46534 0
M  V30 8657 H 782.33 2.83958 -7.00645 0
M  V30 8658 H 783.598 3.98796 -6.69763 0
M  V30 8659 N 787.827 1.57504 0.0551401 0
M  V30 8660 C 789.243 1.54236 0.410292 0
M  V30 8661 C 789.443 0.940839 1.78187 0
M  V30 8662 O 788.499 0.550541 2.46425 0
M  V30 8663 C 789.812 2.98816 0.336064 0
M  V30 8664 C 791.36 3.10236 0.415047 0
M  V30 8665 C 791.835 4.56499 0.37055 0
M  V30 8666 N 793.326 4.61199 0.43013 0
M  V30 8667 C 794.061 5.71873 0.418179 0
M  V30 8668 N 793.557 6.91864 0.360056 0
M  V30 8669 N 795.35 5.60165 0.465977 0
M  V30 8670 H 787.501 1.94965 -0.842759 0
M  V30 8671 H 789.764 0.893096 -0.317937 0
M  V30 8672 H 789.47 3.4645 -0.605429 0
M  V30 8673 H 789.344 3.59564 1.13988 0
M  V30 8674 H 791.731 2.62566 1.34697 0
M  V30 8675 H 791.812 2.52367 -0.417648 0
M  V30 8676 H 791.456 5.0483 -0.557592 0
M  V30 8677 H 791.386 5.12249 1.221 0
M  V30 8678 H 793.877 3.74857 0.478623 0
M  V30 8679 H 794.19 7.71983 0.35532 0
M  V30 8680 H 792.535 6.94233 0.326492 0
M  V30 8681 H 795.726 4.65322 0.509194 0
M  V30 8682 H 795.899 6.46413 0.453194 0
M  V30 8683 N 789.305 -0.326896 1.54172 0
M  V30 8684 C 790.53 -1.08924 1.76494 0
M  V30 8685 C 790.955 -1.81039 0.510523 0
M  V30 8686 O 790.313 -1.73141 -0.537756 0
M  V30 8687 C 790.361 -2.06558 2.95578 0
M  V30 8688 O 789.465 -3.14394 2.6689 0
M  V30 8689 H 788.806 -0.314216 0.584948 0
M  V30 8690 H 791.336 -0.372207 2.01186 0
M  V30 8691 H 791.346 -2.49487 3.22832 0
M  V30 8692 H 790.021 -1.53469 3.86549 0
M  V30 8693 H 788.598 -2.76164 2.50576 0
M  V30 8694 N 790.784 -1.46188 -0.588786 0
M  V30 8695 C 792.014 -1.54519 -1.3714 0
M  V30 8696 C 792.422 -0.183075 -1.88312 0
M  V30 8697 O 791.765 0.828815 -1.6394 0
M  V30 8698 C 791.827 -2.48426 -2.59856 0
M  V30 8699 C 791.491 -3.94791 -2.30193 0
M  V30 8700 C 792.488 -4.84173 -1.894 0
M  V30 8701 C 790.173 -4.39872 -2.42525 0
M  V30 8702 C 792.167 -6.16647 -1.61325 0
M  V30 8703 C 789.854 -5.72381 -2.14063 0
M  V30 8704 C 790.852 -6.60589 -1.73527 0
M  V30 8705 O 790.54 -7.9064 -1.4541 0
M  V30 8706 H 790.272 -0.525264 -0.425527 0
M  V30 8707 H 792.826 -1.92242 -0.723344 0
M  V30 8708 H 791.056 -2.05709 -3.27446 0
M  V30 8709 H 792.745 -2.4723 -3.21919 0
M  V30 8710 H 793.511 -4.50603 -1.79393 0
M  V30 8711 H 789.39 -3.71444 -2.7304 0
M  V30 8712 H 792.934 -6.85454 -1.29611 0
M  V30 8713 H 788.831 -6.05501 -2.23693 0
M  V30 8714 H 789.599 -8.02847 -1.59306 0
M  V30 8715 N 792.262 0.832906 -1.33792 0
M  V30 8716 C 793.192 1.95828 -1.27176 0
M  V30 8717 C 794.173 1.69427 -0.15114 0
M  V30 8718 O 795.358 1.91167 -0.341886 0
M  V30 8719 C 792.488 3.32098 -1.01629 0
M  V30 8720 C 791.442 3.72912 -2.10049 0
M  V30 8721 C 790.768 5.07054 -1.69706 0
M  V30 8722 C 792.068 3.86064 -3.51783 0
M  V30 8723 H 793.762 2.01622 -2.21334 0
M  V30 8724 H 791.308 0.96866 -1.0655 0
M  V30 8725 H 793.261 4.10402 -0.956474 0
M  V30 8726 H 791.985 3.26577 -0.0390956 0
M  V30 8727 H 790.644 2.96876 -2.15082 0
M  V30 8728 H 790.292 4.9801 -0.706737 0
M  V30 8729 H 789.992 5.35333 -2.42264 0
M  V30 8730 H 791.516 5.87827 -1.65202 0
M  V30 8731 H 792.93 4.54665 -3.49218 0
M  V30 8732 H 791.327 4.25787 -4.22878 0
M  V30 8733 H 792.397 2.88344 -3.89854 0
M  V30 8734 N 793.74 1.17359 1.05189 0
M  V30 8735 C 794.672 0.848078 2.12933 0
M  V30 8736 C 795.685 -0.149521 1.62112 0
M  V30 8737 O 796.874 0.0767797 1.78335 0
M  V30 8738 C 793.974 0.243889 3.38021 0
M  V30 8739 C 793.147 1.28436 4.18118 0
M  V30 8740 C 792.206 0.697926 5.21551 0
M  V30 8741 O 791.232 1.36973 5.52473 0
M  V30 8742 N 792.434 -0.510024 5.78255 0
M  V30 8743 H 795.199 1.7754 2.41453 0
M  V30 8744 H 792.76 1.07244 1.21286 0
M  V30 8745 H 794.752 -0.161727 4.04377 0
M  V30 8746 H 793.322 -0.58722 3.07035 0
M  V30 8747 H 792.542 1.86573 3.47252 0
M  V30 8748 H 793.83 1.98617 4.68432 0
M  V30 8749 H 793.228 -1.07378 5.55416 0
M  V30 8750 H 791.785 -0.857705 6.46132 0
M  V30 8751 N 795.218 -1.23913 0.973828 0
M  V30 8752 C 796.168 -2.22892 0.479933 0
M  V30 8753 C 797.152 -1.54726 -0.441434 0
M  V30 8754 O 798.344 -1.74908 -0.271358 0
M  V30 8755 C 795.473 -3.42577 -0.222702 0
M  V30 8756 C 794.559 -4.17981 0.717851 0
M  V30 8757 N 794.95 -4.7045 1.8577 0
M  V30 8758 C 793.248 -4.42841 0.529858 0
M  V30 8759 C 793.949 -5.27751 2.44651 0
M  V30 8760 N 792.925 -5.15302 1.73104 0
M  V30 8761 H 796.727 -2.61083 1.34956 0
M  V30 8762 H 794.241 -1.39368 0.83368 0
M  V30 8763 H 796.238 -4.1265 -0.593793 0
M  V30 8764 H 794.898 -3.05904 -1.0887 0
M  V30 8765 H 795.909 -4.66997 2.23908 0
M  V30 8766 H 792.586 -4.1648 -0.291664 0
M  V30 8767 H 793.976 -5.79011 3.40875 0
M  V30 8768 N 796.696 -0.74468 -1.38897 0
M  V30 8769 C 797.626 -0.126355 -2.33158 0
M  V30 8770 C 798.607 0.713517 -1.54412 0
M  V30 8771 O 799.792 0.656523 -1.82766 0
M  V30 8772 C 796.922 0.774375 -3.38557 0
M  V30 8773 C 795.876 0.0379214 -4.27983 0
M  V30 8774 C 795.202 1.05631 -5.24162 0
M  V30 8775 C 796.502 -1.12523 -5.10035 0
M  V30 8776 H 798.196 -0.913744 -2.85116 0
M  V30 8777 H 795.742 -0.440847 -1.37086 0
M  V30 8778 H 797.695 1.21655 -4.03458 0
M  V30 8779 H 796.419 1.59399 -2.85061 0
M  V30 8780 H 795.078 -0.384733 -3.64576 0
M  V30 8781 H 794.726 1.86975 -4.66958 0
M  V30 8782 H 794.426 0.568261 -5.84846 0
M  V30 8783 H 795.95 1.49799 -5.9194 0
M  V30 8784 H 797.364 -0.761037 -5.68226 0
M  V30 8785 H 795.761 -1.54355 -5.79909 0
M  V30 8786 H 796.831 -1.94237 -4.44297 0
M  V30 8787 N 798.174 1.49689 -0.493057 0
M  V30 8788 C 799.59 1.58907 -0.148526 0
M  V30 8789 C 799.79 1.4991 1.34645 0
M  V30 8790 O 798.846 1.36893 2.12171 0
M  V30 8791 C 800.159 2.91996 -0.718265 0
M  V30 8792 C 801.707 3.05443 -0.683658 0
M  V30 8793 C 802.182 4.41138 -1.23132 0
M  V30 8794 N 803.673 4.47608 -1.19167 0
M  V30 8795 C 804.408 5.51038 -1.5857 0
M  V30 8796 N 803.904 6.61612 -2.05528 0
M  V30 8797 N 805.697 5.41706 -1.50036 0
M  V30 8798 H 797.848 1.5378 -1.46511 0
M  V30 8799 H 800.111 0.727996 -0.607228 0
M  V30 8800 H 799.817 3.04123 -1.7664 0
M  V30 8801 H 799.691 3.76798 -0.17419 0
M  V30 8802 H 802.078 2.92949 0.355626 0
M  V30 8803 H 802.159 2.22344 -1.26479 0
M  V30 8804 H 801.803 4.54382 -2.26935 0
M  V30 8805 H 801.733 5.22864 -0.626201 0
M  V30 8806 H 804.224 3.68274 -0.847524 0
M  V30 8807 H 804.537 7.36622 -2.33685 0
M  V30 8808 H 802.882 6.62674 -2.09497 0
M  V30 8809 H 806.073 4.54212 -1.13176 0
M  V30 8810 H 806.246 6.22188 -1.81068 0
M  V30 8811 N 799.652 0.226554 1.55963 0
M  V30 8812 C 800.929 -0.453058 1.90281 0
M  V30 8813 C 801.309 -1.77377 1.14458 0
M  V30 8814 O 800.657 -2.27067 0.255496 0
M  V30 8815 C 800.867 -0.641108 3.43061 0
M  V30 8816 C 802.215 -0.946265 4.13921 0
M  V30 8817 O 803.239 -0.727713 3.48687 0
M  V30 8818 O 802.098 -1.36131 5.29274 0
M  V30 8819 H 799.192 -0.240242 0.791336 0
M  V30 8820 H 801.738 0.26911 1.67553 0
M  V30 8821 H 800.51 0.290283 3.90222 0
M  V30 8822 H 800.133 -1.41458 3.71585 0
M  V30 8823 N 801.13 -1.57531 -0.0467866 0
M  V30 8824 C 802.06 -2.08425 -1.05268 0
M  V30 8825 C 803.041 -0.982941 -1.38825 0
M  V30 8826 O 804.226 -1.25716 -1.48018 0
M  V30 8827 C 801.356 -2.54897 -2.35891 0
M  V30 8828 C 800.31 -3.69132 -2.16623 0
M  V30 8829 C 799.636 -4.01747 -3.52851 0
M  V30 8830 C 800.936 -4.98243 -1.56689 0
M  V30 8831 H 802.63 -2.92716 -0.62908 0
M  V30 8832 H 800.176 -1.40816 -0.301156 0
M  V30 8833 H 802.129 -2.8912 -3.06574 0
M  V30 8834 H 800.853 -1.67666 -2.80278 0
M  V30 8835 H 799.512 -3.35231 -1.48377 0
M  V30 8836 H 799.16 -3.11608 -3.94853 0
M  V30 8837 H 798.86 -4.78681 -3.4079 0
M  V30 8838 H 800.384 -4.38487 -4.24925 0
M  V30 8839 H 801.798 -5.30535 -2.17268 0
M  V30 8840 H 800.195 -5.79669 -1.55255 0
M  V30 8841 H 801.265 -4.81986 -0.530827 0
M  V30 8842 N 802.608 0.318715 -1.54344 0
M  V30 8843 C 803.518 1.41535 -1.87097 0
M  V30 8844 C 804.534 1.56361 -0.763353 0
M  V30 8845 O 805.71 1.71365 -1.05811 0
M  V30 8846 C 802.775 2.76178 -2.09587 0
M  V30 8847 C 801.836 2.70486 -3.3337 0
M  V30 8848 C 801.069 3.98708 -3.54778 0
M  V30 8849 O 801.292 4.9721 -2.79532 0
M  V30 8850 O 800.226 4.01674 -4.48266 0
M  V30 8851 H 804.052 1.16764 -2.80357 0
M  V30 8852 H 801.637 0.51318 -1.4031 0
M  V30 8853 H 803.519 3.55873 -2.25682 0
M  V30 8854 H 802.194 3.00829 -1.19514 0
M  V30 8855 H 801.101 1.89325 -3.22656 0
M  V30 8856 H 802.434 2.50789 -4.23516 0
M  V30 8857 N 804.086 1.46499 0.581025 0
M  V30 8858 C 805.314 1.5547 1.36517 0
M  V30 8859 C 805.729 0.196407 1.87776 0
M  V30 8860 O 805.086 -0.806577 1.63709 0
M  V30 8861 C 805.137 2.56084 2.55154 0
M  V30 8862 O 804.858 3.86637 2.06018 0
M  V30 8863 C 806.359 2.75011 3.47683 0
M  V30 8864 H 803.579 0.525703 0.416986 0
M  V30 8865 H 806.123 1.9192 0.706177 0
M  V30 8866 H 804.278 2.22633 3.17039 0
M  V30 8867 H 804.692 4.41413 2.83292 0
M  V30 8868 H 806.166 3.49329 4.27403 0
M  V30 8869 H 806.643 1.81978 3.99726 0
M  V30 8870 H 807.249 3.09565 2.91632 0
M  V30 8871 N 805.565 -0.825799 1.34232 0
M  V30 8872 C 806.79 -1.61883 1.29648 0
M  V30 8873 C 807.215 -1.87669 -0.127295 0
M  V30 8874 O 806.573 -1.45016 -1.08813 0
M  V30 8875 C 806.621 -2.93846 2.09014 0
M  V30 8876 O 805.725 -3.85778 1.4577 0
M  V30 8877 H 805.066 -0.492454 0.445405 0
M  V30 8878 H 807.596 -1.02641 1.76992 0
M  V30 8879 H 807.606 -3.43435 2.20264 0
M  V30 8880 H 806.281 -2.74401 3.12533 0
M  V30 8881 H 804.858 -3.4429 1.43245 0
M  V30 8882 N 807.043 -1.17915 -1.04565 0
M  V30 8883 C 808.454 -0.976383 -1.59134 0
M  V30 8884 C 808.805 0.475267 -1.90357 0
M  V30 8885 O 807.93 1.35172 -1.6899 0
M  V30 8886 C 808.525 -1.76604 -2.89131 0
M  V30 8887 C 807.084 -1.60777 -3.40335 0
M  V30 8888 C 806.231 -1.76369 -2.13985 0
M  V30 8889 H 809.182 -1.32532 -0.872985 0
M  V30 8890 H 809.203 -1.25215 -3.59307 0
M  V30 8891 H 808.715 -2.82252 -2.66375 0
M  V30 8892 H 806.816 -0.576436 -3.68114 0
M  V30 8893 H 806.929 -2.40268 -4.14497 0
M  V30 8894 H 805.293 -1.19268 -2.25049 0
M  V30 8895 H 806.076 -2.83441 -1.9369 0
M  V30 8896 N 808.521 1.23394 -0.980386 0
M  V30 8897 C 809.471 2.22634 -0.491747 0
M  V30 8898 C 810.455 1.54958 0.433222 0
M  V30 8899 O 811.647 1.75049 0.262078 0
M  V30 8900 C 808.776 3.4269 0.204531 0
M  V30 8901 C 807.862 4.17594 -0.740007 0
M  V30 8902 N 808.253 4.69458 -1.88263 0
M  V30 8903 C 806.551 4.42554 -0.553335 0
M  V30 8904 C 807.252 5.26446 -2.47446 0
M  V30 8905 N 806.228 5.14377 -1.75834 0
M  V30 8906 H 810.03 2.60363 -1.36339 0
M  V30 8907 H 807.544 1.38924 -0.841059 0
M  V30 8908 H 809.541 4.12959 0.571901 0
M  V30 8909 H 808.201 3.06477 1.07246 0
M  V30 8910 H 809.212 4.65803 -2.26381 0
M  V30 8911 H 805.889 4.16629 0.269573 0
M  V30 8912 H 807.279 5.77195 -3.43941 0
M  V30 8913 N 809.999 0.752036 1.385 0
M  V30 8914 C 811.229 0.317812 2.04141 0
M  V30 8915 C 811.637 -1.05822 1.56839 0
M  V30 8916 O 810.98 -1.68311 0.736016 0
M  V30 8917 C 811.042 0.260205 3.58557 0
M  V30 8918 C 810.706 1.57753 4.28909 0
M  V30 8919 C 811.703 2.52642 4.54387 0
M  V30 8920 C 809.388 1.84653 4.67128 0
M  V30 8921 C 811.382 3.72653 5.17116 0
M  V30 8922 C 809.069 3.04938 5.29581 0
M  V30 8923 C 810.067 3.98759 5.54509 0
M  V30 8924 O 809.755 5.16929 6.15662 0
M  V30 8925 H 809.487 0.133931 0.6626 0
M  V30 8926 H 812.041 1.02138 1.78205 0
M  V30 8927 H 810.271 -0.499596 3.83459 0
M  V30 8928 H 811.96 -0.144295 4.05643 0
M  V30 8929 H 812.726 2.33135 4.25292 0
M  V30 8930 H 808.605 1.12464 4.47071 0
M  V30 8931 H 812.149 4.45898 5.36489 0
M  V30 8932 H 808.046 3.24339 5.58099 0
M  V30 8933 H 808.814 5.1749 6.3415 0
M  V30 8934 N 811.477 -1.49425 0.500989 0
M  V30 8935 C 812.407 -2.31971 -0.266775 0
M  V30 8936 C 813.388 -1.40245 -0.962563 0
M  V30 8937 O 814.573 -1.69154 -0.953968 0
M  V30 8938 C 811.703 -3.20757 -1.33163 0
M  V30 8939 C 810.657 -4.21275 -0.75572 0
M  V30 8940 C 809.983 -4.98997 -1.92109 0
M  V30 8941 C 811.283 -5.21686 0.253213 0
M  V30 8942 H 812.977 -2.96408 0.422237 0
M  V30 8943 H 810.523 -1.4254 0.204505 0
M  V30 8944 H 812.476 -3.77315 -1.87646 0
M  V30 8945 H 811.2 -2.54263 -2.04983 0
M  V30 8946 H 809.859 -3.65861 -0.232637 0
M  V30 8947 H 809.507 -4.28951 -2.62698 0
M  V30 8948 H 809.207 -5.67011 -1.54182 0
M  V30 8949 H 810.731 -5.584 -2.47026 0
M  V30 8950 H 812.145 -5.72939 -0.203483 0
M  V30 8951 H 810.542 -5.9759 0.548322 0
M  V30 8952 H 811.612 -4.70596 1.16909 0
M  V30 8953 N 812.955 -0.234822 -1.55841 0
M  V30 8954 C 813.885 0.664217 -2.23854 0
M  V30 8955 C 814.866 1.19076 -1.2147 0
M  V30 8956 O 816.051 1.23232 -1.50091 0
M  V30 8957 C 813.181 1.86666 -2.9287 0
M  V30 8958 C 812.135 1.47341 -4.01839 0
M  V30 8959 C 811.461 2.75571 -4.58219 0
M  V30 8960 C 812.761 0.653479 -5.18196 0
M  V30 8961 H 814.455 0.0971213 -2.99242 0
M  V30 8962 H 812.001 0.0452724 -1.43929 0
M  V30 8963 H 813.954 2.50116 -3.39146 0
M  V30 8964 H 812.678 2.45894 -2.1495 0
M  V30 8965 H 811.337 0.862314 -3.56314 0
M  V30 8966 H 810.985 3.32971 -3.77014 0
M  V30 8967 H 810.685 2.49987 -5.31771 0
M  V30 8968 H 812.209 3.39939 -5.07221 0
M  V30 8969 H 813.623 1.19198 -5.60771 0
M  V30 8970 H 812.02 0.494188 -5.98062 0
M  V30 8971 H 813.09 -0.337004 -4.83728 0
M  V30 8972 N 814.433 1.57553 0.0384317 0
M  V30 8973 C 815.381 2.07021 1.06043 0
M  V30 8974 C 816.375 0.982078 1.38028 0
M  V30 8975 O 817.581 1.16702 1.37042 0
M  V30 8976 H 813.956 0.660522 0.359464 0
M  V30 8977 H 815.927 2.91944 0.617339 0
M  V30 8978 C 814.676 2.55734 2.35574 0
M  V30 8979 H 813.999 3.39074 2.11822 0
M  V30 8980 H 815.439 2.94066 3.05452 0
M  V30 8981 C 813.898 1.45449 3.03885 0
M  V30 8982 O 814.428 0.815402 3.93337 0
M  V30 8983 N 812.634 1.19134 2.65058 0
M  V30 8984 H 812.181 1.71288 1.92401 0
M  V30 8985 H 812.139 0.455554 3.11082 0
M  V30 8986 N 815.911 -0.310526 1.54511 0
M  V30 8987 C 816.821 -1.4054 1.87844 0
M  V30 8988 C 817.837 -1.55954 0.771635 0
M  V30 8989 O 819.013 -1.70801 1.06719 0
M  V30 8990 C 816.078 -2.75063 2.11048 0
M  V30 8991 C 815.139 -2.68715 3.348 0
M  V30 8992 C 814.372 -3.96821 3.56887 0
M  V30 8993 O 814.595 -4.95721 2.82165 0
M  V30 8994 O 813.529 -3.99291 4.50389 0
M  V30 8995 H 817.355 -1.15275 2.80972 0
M  V30 8996 H 814.94 -0.505732 1.4058 0
M  V30 8997 H 816.822 -3.54671 2.27566 0
M  V30 8998 H 815.497 -3.00191 1.21108 0
M  V30 8999 H 814.404 -1.87611 3.23655 0
M  V30 9000 H 815.737 -2.4854 4.2484 0
M  V30 9001 N 817.389 -1.46805 -0.573248 0
M  V30 9002 C 818.638 -1.51868 -1.32736 0
M  V30 9003 C 818.951 -0.178765 -1.94781 0
M  V30 9004 O 820.157 -0.107272 -2.71288 0
M  V30 9005 C 818.613 -2.67641 -2.40616 0
M  V30 9006 C 818.221 -4.08094 -1.84832 0
M  V30 9007 C 819.965 -2.81984 -3.17309 0
M  V30 9008 C 817.872 -5.15193 -2.90397 0
M  V30 9009 H 816.802 -0.56523 -0.49903 0
M  V30 9010 H 819.453 -1.7304 -0.610695 0
M  V30 9011 H 817.835 -2.39818 -3.15124 0
M  V30 9012 H 819.009 -4.45751 -1.16803 0
M  V30 9013 H 817.324 -3.985 -1.20775 0
M  V30 9014 H 819.921 -3.59166 -3.96111 0
M  V30 9015 H 820.264 -1.89842 -3.70494 0
M  V30 9016 H 820.797 -3.095 -2.4991 0
M  V30 9017 H 817.536 -6.09158 -2.42088 0
M  V30 9018 H 817.056 -4.82071 -3.56886 0
M  V30 9019 H 818.735 -5.41448 -3.54179 0
M  V30 9020 N 818.867 0.818669 -1.34668 0
M  V30 9021 C 819.797 1.94468 -1.29245 0
M  V30 9022 C 820.778 1.69257 -0.169101 0
M  V30 9023 O 821.963 1.90794 -0.362143 0
M  V30 9024 C 819.093 3.31001 -1.05145 0
M  V30 9025 C 818.047 3.70663 -2.13992 0
M  V30 9026 C 817.373 5.05226 -1.75074 0
M  V30 9027 C 818.673 3.82312 -3.55858 0
M  V30 9028 H 820.367 1.99263 -2.2346 0
M  V30 9029 H 817.913 0.957304 -1.07572 0
M  V30 9030 H 819.866 4.09364 -0.999949 0
M  V30 9031 H 818.59 3.26517 -0.0737312 0
M  V30 9032 H 817.249 2.94578 -2.18219 0
M  V30 9033 H 816.897 4.97233 -0.759518 0
M  V30 9034 H 816.597 5.32734 -2.47928 0
M  V30 9035 H 818.121 5.86042 -1.71427 0
M  V30 9036 H 819.535 4.50935 -3.5402 0
M  V30 9037 H 817.932 4.21278 -4.2737 0
M  V30 9038 H 819.002 2.84193 -3.9289 0
M  V30 9039 N 820.346 1.18468 1.03938 0
M  V30 9040 C 821.595 0.975193 1.76558 0
M  V30 9041 C 821.908 -0.495978 1.89207 0
M  V30 9042 O 823.114 -0.824009 2.58694 0
M  V30 9043 C 821.57 1.69579 3.17444 0
M  V30 9044 C 821.178 3.20636 3.12884 0
M  V30 9045 C 822.922 1.56917 3.94433 0
M  V30 9046 C 820.829 3.8533 4.48636 0
M  V30 9047 H 819.759 0.361244 0.66183 0
M  V30 9048 H 822.41 1.41854 1.16403 0
M  V30 9049 H 820.792 1.18022 3.78004 0
M  V30 9050 H 821.966 3.79228 2.61768 0
M  V30 9051 H 820.281 3.33454 2.49394 0
M  V30 9052 H 822.878 2.02611 4.94826 0
M  V30 9053 H 823.221 0.521638 4.13019 0
M  V30 9054 H 823.754 2.05762 3.40451 0
M  V30 9055 H 820.493 4.90136 4.35255 0
M  V30 9056 H 820.013 3.31526 4.99851 0
M  V30 9057 H 821.692 3.88269 5.17549 0
M  V30 9058 N 821.824 -1.22873 0.986916 0
M  V30 9059 C 822.771 -2.2458 0.532215 0
M  V30 9060 C 823.741 -1.60375 -0.432322 0
M  V30 9061 O 824.926 -1.87775 -0.338416 0
M  V30 9062 C 822.066 -3.44761 -0.152864 0
M  V30 9063 C 821.179 -4.23501 0.852704 0
M  V30 9064 C 820.314 -5.31011 0.14176 0
M  V30 9065 C 819.353 -6.01464 1.1361 0
M  V30 9066 N 818.49 -7.00631 0.453871 0
M  V30 9067 H 823.33 -2.62838 1.40428 0
M  V30 9068 H 820.867 -1.29185 0.703543 0
M  V30 9069 H 822.825 -4.1333 -0.566926 0
M  V30 9070 H 821.455 -3.07284 -0.988756 0
M  V30 9071 H 820.507 -3.54286 1.38512 0
M  V30 9072 H 821.819 -4.72097 1.61014 0
M  V30 9073 H 820.973 -6.05805 -0.329337 0
M  V30 9074 H 819.712 -4.83373 -0.648229 0
M  V30 9075 H 818.717 -5.25456 1.61789 0
M  V30 9076 H 819.942 -6.5119 1.92686 0
M  V30 9077 H 817.888 -6.55235 -0.316791 0
M  V30 9078 H 817.805 -7.47204 1.14986 0
M  V30 9079 H 819.073 -7.795 0.00537823 0
M  V30 9080 N 823.302 -0.75937 -1.38099 0
M  V30 9081 C 824.532 -0.328634 -2.0397 0
M  V30 9082 C 824.94 1.04989 -1.57398 0
M  V30 9083 O 824.283 1.67918 -0.744932 0
M  V30 9084 C 824.345 -0.279216 -3.58414 0
M  V30 9085 C 824.009 -1.60025 -4.28067 0
M  V30 9086 C 825.006 -2.55048 -4.53041 0
M  V30 9087 C 822.691 -1.87128 -4.66142 0
M  V30 9088 C 824.685 -3.7539 -5.15132 0
M  V30 9089 C 822.372 -3.07742 -5.27956 0
M  V30 9090 C 823.37 -4.01694 -5.52387 0
M  V30 9091 O 823.058 -5.20186 -6.12912 0
M  V30 9092 H 822.79 -0.137443 -0.66188 0
M  V30 9093 H 825.344 -1.03082 -1.77661 0
M  V30 9094 H 823.574 0.479254 -3.83719 0
M  V30 9095 H 825.263 0.122781 -4.05714 0
M  V30 9096 H 826.029 -2.35387 -4.24049 0
M  V30 9097 H 821.908 -1.14833 -4.46469 0
M  V30 9098 H 825.452 -4.48737 -5.34117 0
M  V30 9099 H 821.349 -3.27294 -5.56371 0
M  V30 9100 H 822.117 -5.20846 -6.31397 0
M  V30 9101 N 824.78 1.49157 -0.508906 0
M  V30 9102 C 826.027 2.02473 0.0327983 0
M  V30 9103 C 826.355 1.38792 1.36261 0
M  V30 9104 O 825.61 0.515576 1.88786 0
M  V30 9105 C 825.909 3.56687 0.225717 0
M  V30 9106 C 825.575 4.39046 -1.02708 0
M  V30 9107 C 824.237 4.61271 -1.37048 0
M  V30 9108 C 826.589 4.86902 -1.85946 0
M  V30 9109 C 823.917 5.28598 -2.54562 0
M  V30 9110 C 826.269 5.55521 -3.0262 0
M  V30 9111 C 824.933 5.7599 -3.3733 0
M  V30 9112 H 824.203 0.740903 0.0120017 0
M  V30 9113 H 826.85 1.79372 -0.670665 0
M  V30 9114 H 825.155 3.78511 1.01177 0
M  V30 9115 H 826.852 3.95541 0.659433 0
M  V30 9116 H 823.442 4.21994 -0.749615 0
M  V30 9117 H 827.626 4.69553 -1.6073 0
M  V30 9118 H 822.882 5.42646 -2.81682 0
M  V30 9119 H 827.056 5.91576 -3.67438 0
M  V30 9120 H 824.683 6.27934 -4.2849 0
M  V30 9121 N 826.258 0.243083 1.55714 0
M  V30 9122 C 827.507 -0.383188 1.98027 0
M  V30 9123 C 827.82 -1.59347 1.13436 0
M  V30 9124 O 829.026 -2.29065 1.45745 0
M  V30 9125 C 827.482 -0.733135 3.52354 0
M  V30 9126 C 827.09 0.455539 4.45678 0
M  V30 9127 C 828.834 -1.32381 4.03331 0
M  V30 9128 C 826.741 0.0819591 5.91343 0
M  V30 9129 H 825.671 -0.146944 0.739543 0
M  V30 9130 H 828.322 0.342697 1.80272 0
M  V30 9131 H 826.704 -1.51704 3.65789 0
M  V30 9132 H 827.878 1.23291 4.44 0
M  V30 9133 H 826.193 0.960886 4.05162 0
M  V30 9134 H 828.79 -1.61658 5.09677 0
M  V30 9135 H 829.133 -2.24698 3.50452 0
M  V30 9136 H 829.666 -0.602885 3.93205 0
M  V30 9137 H 826.405 0.972171 6.48251 0
M  V30 9138 H 825.925 -0.659291 5.96166 0
M  V30 9139 H 827.604 -0.3372 6.46121 0
M  V30 9140 N 827.736 -1.57571 -0.0300757 0
M  V30 9141 C 828.966 -1.93204 -0.731828 0
M  V30 9142 C 829.374 -0.841156 -1.69473 0
M  V30 9143 O 828.717 0.191231 -1.82702 0
M  V30 9144 C 828.779 -3.2463 -1.54453 0
M  V30 9145 C 828.443 -4.50862 -0.746507 0
M  V30 9146 C 829.44 -5.19879 -0.0472309 0
M  V30 9147 C 827.125 -4.9738 -0.701347 0
M  V30 9148 C 829.119 -6.33692 0.686518 0
M  V30 9149 C 826.806 -6.11089 0.036148 0
M  V30 9150 C 827.804 -6.791 0.728841 0
M  V30 9151 O 827.492 -7.90635 1.45436 0
M  V30 9152 H 827.224 -0.6423 -0.210775 0
M  V30 9153 H 829.778 -2.05398 0.00804194 0
M  V30 9154 H 828.008 -3.0876 -2.32818 0
M  V30 9155 H 829.697 -3.45597 -2.1288 0
M  V30 9156 H 830.463 -4.84945 -0.0731582 0
M  V30 9157 H 826.342 -4.44288 -1.23001 0
M  V30 9158 H 829.886 -6.86711 1.22773 0
M  V30 9159 H 825.783 -6.45468 0.064002 0
M  V30 9160 H 826.551 -8.06988 1.36794 0
M  V30 9161 N 829.214 0.302327 -1.54673 0
M  V30 9162 C 830.462 1.03565 -1.73547 0
M  V30 9163 C 830.783 1.87843 -0.523448 0
M  V30 9164 O 830.053 1.90367 0.462295 0
M  V30 9165 H 828.633 0.385358 -0.639928 0
M  V30 9166 H 831.295 0.333632 -1.92023 0
M  V30 9167 H 830.391 1.68952 -2.62415 0
M  V30 9168 N 830.692 1.47107 0.565454 0
M  V30 9169 C 831.917 1.57153 1.35343 0
M  V30 9170 C 832.342 0.219247 1.86818 0
M  V30 9171 O 831.7 -0.803539 1.62521 0
M  V30 9172 C 831.748 2.59387 2.50501 0
M  V30 9173 O 830.852 2.14086 3.52478 0
M  V30 9174 H 830.193 0.528209 0.402357 0
M  V30 9175 H 832.723 1.92821 0.684189 0
M  V30 9176 H 832.733 2.79546 2.97184 0
M  V30 9177 H 831.408 3.57579 2.12391 0
M  V30 9178 H 829.985 2.03991 3.12157 0
M  V30 9179 N 832.17 -0.811516 1.35101 0
M  V30 9180 C 833.118 -1.94449 1.27642 0
M  V30 9181 C 834.112 -1.68522 0.172287 0
M  V30 9182 O 835.318 -1.76799 0.337967 0
M  V30 9183 H 831.693 -0.638776 0.396824 0
M  V30 9184 H 833.664 -1.97861 2.23369 0
M  V30 9185 C 832.413 -3.31139 1.06029 0
M  V30 9186 H 831.736 -3.51644 1.90227 0
M  V30 9187 H 833.176 -4.10831 1.0485 0
M  V30 9188 C 831.635 -3.36072 -0.236039 0
M  V30 9189 O 832.165 -3.82292 -1.23353 0
M  V30 9190 N 830.371 -2.89314 -0.273107 0
M  V30 9191 H 829.918 -2.51893 0.539211 0
M  V30 9192 H 829.876 -2.92996 -1.1402 0
M  V30 9193 N 833.648 -1.19017 -1.03309 0
M  V30 9194 C 834.897 -0.984542 -1.76039 0
M  V30 9195 C 835.21 0.485937 -1.89468 0
M  V30 9196 O 836.416 0.810278 -2.59127 0
M  V30 9197 C 834.872 -1.71261 -3.1654 0
M  V30 9198 C 834.48 -3.22291 -3.11179 0
M  V30 9199 C 836.224 -1.59007 -3.93595 0
M  V30 9200 C 834.131 -3.87704 -4.46587 0
M  V30 9201 H 833.061 -0.364749 -0.659905 0
M  V30 9202 H 835.712 -1.4247 -1.15649 0
M  V30 9203 H 834.094 -1.20025 -3.77373 0
M  V30 9204 H 835.268 -3.80611 -2.59753 0
M  V30 9205 H 833.583 -3.34772 -2.47622 0
M  V30 9206 H 836.18 -2.05232 -4.93745 0
M  V30 9207 H 836.523 -0.543534 -4.12736 0
M  V30 9208 H 837.056 -2.07564 -3.39355 0
M  V30 9209 H 833.795 -4.92437 -4.3265 0
M  V30 9210 H 833.315 -3.34172 -4.98085 0
M  V30 9211 H 834.994 -3.91008 -5.15482 0
M  V30 9212 N 835.127 1.22348 -0.993418 0
M  V30 9213 C 836.367 1.92835 -0.677779 0
M  V30 9214 C 836.731 1.75624 0.775893 0
M  V30 9215 O 837.932 2.40379 1.20297 0
M  V30 9216 C 836.203 3.40906 -1.07322 0
M  V30 9217 S 837.762 4.29966 -0.876032 0
M  V30 9218 H 834.58 0.666421 -0.247799 0
M  V30 9219 H 837.182 1.48133 -1.27581 0
M  V30 9220 H 835.886 3.50946 -2.12756 0
M  V30 9221 H 835.417 3.90618 -0.467015 0
M  V30 9222 H 837.432 4.95652 0.233162 0
M  V30 9223 N 836.605 0.766683 1.37694 0
M  V30 9224 C 837.882 0.25366 1.93948 0
M  V30 9225 C 838.262 -1.25041 1.70082 0
M  V30 9226 O 837.61 -2.03115 1.04674 0
M  V30 9227 C 837.82 0.621549 3.43421 0
M  V30 9228 C 839.168 0.588504 4.20502 0
M  V30 9229 O 840.192 0.560632 3.5176 0
M  V30 9230 O 839.051 0.61107 5.43073 0
M  V30 9231 H 836.145 0.0570586 0.825029 0
M  V30 9232 H 838.691 0.847693 1.47011 0
M  V30 9233 H 837.463 1.65979 3.54354 0
M  V30 9234 H 837.086 0.000197027 3.976 0
M  V30 9235 N 838.083 -1.48885 0.516809 0
M  V30 9236 C 839.013 -2.32241 -0.242157 0
M  V30 9237 C 839.994 -1.41258 -0.947633 0
M  V30 9238 O 841.179 -1.70156 -0.935973 0
M  V30 9239 C 838.309 -3.22151 -1.29754 0
M  V30 9240 C 837.263 -4.22053 -0.710995 0
M  V30 9241 C 836.589 -5.01007 -1.86806 0
M  V30 9242 C 837.889 -5.21388 0.30853 0
M  V30 9243 H 839.583 -2.95943 0.453651 0
M  V30 9244 H 837.129 -1.42316 0.219612 0
M  V30 9245 H 839.082 -3.79284 -1.83634 0
M  V30 9246 H 837.806 -2.56423 -2.02274 0
M  V30 9247 H 836.465 -3.66087 -0.193819 0
M  V30 9248 H 836.113 -4.31713 -2.58133 0
M  V30 9249 H 835.813 -5.68615 -1.48159 0
M  V30 9250 H 837.337 -5.60989 -2.4109 0
M  V30 9251 H 838.751 -5.73122 -0.142703 0
M  V30 9252 H 837.148 -5.96975 0.611673 0
M  V30 9253 H 838.218 -4.69329 1.21894 0
M  V30 9254 N 839.561 -0.251338 -1.55583 0
M  V30 9255 C 840.471 0.656978 -2.25213 0
M  V30 9256 C 841.487 1.18966 -1.26977 0
M  V30 9257 O 842.663 1.22499 -1.59862 0
M  V30 9258 C 839.728 1.83527 -2.94141 0
M  V30 9259 C 838.789 1.34162 -4.07798 0
M  V30 9260 C 838.022 2.46375 -4.73429 0
M  V30 9261 O 838.245 3.65205 -4.38157 0
M  V30 9262 O 837.179 2.15881 -5.61853 0
M  V30 9263 H 841.005 0.0936395 -3.03556 0
M  V30 9264 H 838.59 -0.0196638 -1.49387 0
M  V30 9265 H 840.472 2.52279 -3.3754 0
M  V30 9266 H 839.147 2.38614 -2.18735 0
M  V30 9267 H 838.054 0.621249 -3.68906 0
M  V30 9268 H 839.387 0.836779 -4.85035 0
M  V30 9269 N 841.039 1.57585 0.0217189 0
M  V30 9270 C 841.986 2.07036 1.02004 0
M  V30 9271 C 842.956 0.96106 1.35473 0
M  V30 9272 O 844.141 1.23211 1.45684 0
M  V30 9273 C 841.281 2.56056 2.31364 0
M  V30 9274 C 840.394 3.80805 2.03989 0
M  V30 9275 C 839.529 4.18409 3.27272 0
M  V30 9276 C 838.568 5.36055 2.95486 0
M  V30 9277 N 837.705 5.69056 4.11242 0
M  V30 9278 H 842.545 2.92073 0.591396 0
M  V30 9279 H 840.082 1.44403 0.280384 0
M  V30 9280 H 842.04 2.82548 3.06957 0
M  V30 9281 H 840.67 1.73925 2.71937 0
M  V30 9282 H 839.722 3.61354 1.1886 0
M  V30 9283 H 841.034 4.66512 1.76546 0
M  V30 9284 H 840.188 4.46068 4.11228 0
M  V30 9285 H 838.927 3.31369 3.57835 0
M  V30 9286 H 837.932 5.08142 2.09933 0
M  V30 9287 H 839.157 6.24755 2.66193 0
M  V30 9288 H 837.103 4.84974 4.41742 0
M  V30 9289 H 837.02 6.49288 3.87247 0
M  V30 9290 H 838.288 6.01295 4.96049 0
M  V30 9291 N 842.517 -0.29412 1.54831 0
M  V30 9292 C 843.757 -1.03635 1.76179 0
M  V30 9293 C 844.121 -1.84251 0.539953 0
M  V30 9294 O 845.322 -2.61282 0.631295 0
M  V30 9295 C 843.593 -1.91275 3.01909 0
M  V30 9296 S 845.152 -2.7205 3.44288 0
M  V30 9297 H 841.97 -0.349403 0.619224 0
M  V30 9298 H 844.572 -0.309006 1.93042 0
M  V30 9299 H 843.276 -1.30937 3.88952 0
M  V30 9300 H 842.807 -2.68365 2.87652 0
M  V30 9301 H 844.822 -3.93791 3.01899 0
M  V30 9302 N 843.995 -1.47404 -0.557645 0
M  V30 9303 C 844.925 -1.62736 -1.67449 0
M  V30 9304 C 845.906 -0.476824 -1.6328 0
M  V30 9305 O 847.091 -0.706108 -1.80908 0
M  V30 9306 C 844.221 -1.641 -3.06086 0
M  V30 9307 C 843.175 -2.78377 -3.25101 0
M  V30 9308 C 842.501 -2.64812 -4.6452 0
M  V30 9309 C 843.801 -4.19971 -3.10518 0
M  V30 9310 H 845.495 -2.56232 -1.54873 0
M  V30 9311 H 843.041 -1.23312 -0.743649 0
M  V30 9312 H 844.994 -1.73417 -3.84063 0
M  V30 9313 H 843.718 -0.671652 -3.19619 0
M  V30 9314 H 842.377 -2.6857 -2.49531 0
M  V30 9315 H 842.025 -1.65906 -4.74852 0
M  V30 9316 H 841.725 -3.41477 -4.78191 0
M  V30 9317 H 843.249 -2.76057 -5.44633 0
M  V30 9318 H 844.663 -4.30757 -3.78313 0
M  V30 9319 H 843.06 -4.97419 -3.35699 0
M  V30 9320 H 844.13 -4.38369 -2.0727 0
M  V30 9321 N 845.473 0.80434 -1.35529 0
M  V30 9322 C 846.421 1.93769 -1.28671 0
M  V30 9323 C 847.415 1.68428 -0.181222 0
M  V30 9324 O 848.621 1.76617 -0.347338 0
M  V30 9325 H 844.996 0.636663 -0.400206 0
M  V30 9326 H 846.967 1.96673 -2.24415 0
M  V30 9327 C 845.716 3.30572 -1.07784 0
M  V30 9328 H 845.039 3.5063 -1.9209 0
M  V30 9329 H 846.479 4.1027 -1.07027 0
M  V30 9330 C 844.938 3.36193 0.218213 0
M  V30 9331 O 845.468 3.82941 1.21323 0
M  V30 9332 N 843.674 2.89455 0.257761 0
M  V30 9333 H 843.221 2.51604 -0.552562 0
M  V30 9334 H 843.179 2.93597 1.12465 0
M  V30 9335 N 846.951 1.19563 1.02676 0
M  V30 9336 C 847.881 0.959024 2.12897 0
M  V30 9337 C 848.862 -0.108382 1.69754 0
M  V30 9338 O 850.047 0.0470698 1.94143 0
M  V30 9339 C 847.177 0.499211 3.43693 0
M  V30 9340 C 846.131 1.5087 4.00528 0
M  V30 9341 C 845.457 0.905884 5.2697 0
M  V30 9342 C 846.757 2.88954 4.3509 0
M  V30 9343 H 848.451 1.88084 2.32948 0
M  V30 9344 H 845.997 0.905731 1.11949 0
M  V30 9345 H 847.95 0.320965 4.20176 0
M  V30 9346 H 846.674 -0.458205 3.2337 0
M  V30 9347 H 845.333 1.67413 3.26142 0
M  V30 9348 H 844.981 -0.0591506 5.02965 0
M  V30 9349 H 844.681 1.58 5.65959 0
M  V30 9350 H 846.205 0.73848 6.06118 0
M  V30 9351 H 847.619 2.75981 5.02501 0
M  V30 9352 H 846.016 3.53177 4.85166 0
M  V30 9353 H 847.086 3.41447 3.44299 0
M  V30 9354 N 848.429 -1.21819 0.999893 0
M  V30 9355 C 849.376 -2.24003 0.556005 0
M  V30 9356 C 850.346 -1.60825 -0.415287 0
M  V30 9357 O 851.531 -1.88123 -0.318481 0
M  V30 9358 C 848.671 -3.44904 -0.116289 0
M  V30 9359 C 847.784 -4.22573 0.897574 0
M  V30 9360 C 846.919 -5.30831 0.198073 0
M  V30 9361 C 845.958 -6.00225 1.19983 0
M  V30 9362 N 845.095 -7.00111 0.528157 0
M  V30 9363 H 849.935 -2.61334 1.43208 0
M  V30 9364 H 847.472 -1.28431 0.717205 0
M  V30 9365 H 849.43 -4.13908 -0.523055 0
M  V30 9366 H 848.06 -3.08315 -0.956108 0
M  V30 9367 H 847.112 -3.52797 1.42262 0
M  V30 9368 H 848.424 -4.70363 1.66013 0
M  V30 9369 H 847.578 -6.06121 -0.265065 0
M  V30 9370 H 846.317 -4.84033 -0.596924 0
M  V30 9371 H 845.322 -5.23711 1.67353 0
M  V30 9372 H 846.547 -6.4911 1.99582 0
M  V30 9373 H 844.493 -6.55534 -0.247276 0
M  V30 9374 H 844.41 -7.45943 1.22904 0
M  V30 9375 H 845.678 -7.7945 0.0880543 0
M  V30 9376 N 849.908 -0.773975 -1.37286 0
M  V30 9377 C 850.855 -0.159938 -2.30245 0
M  V30 9378 C 851.825 0.687356 -1.51211 0
M  V30 9379 O 853.01 0.639255 -1.79773 0
M  V30 9380 C 850.15 0.711452 -3.37687 0
M  V30 9381 C 849.263 -0.152692 -4.3173 0
M  V30 9382 C 848.398 0.723613 -5.26248 0
M  V30 9383 C 847.437 -0.14293 -6.11933 0
M  V30 9384 N 846.574 0.691479 -6.98687 0
M  V30 9385 H 851.414 -0.958182 -2.82175 0
M  V30 9386 H 848.951 -0.48411 -1.38906 0
M  V30 9387 H 850.909 1.2315 -3.9861 0
M  V30 9388 H 849.539 1.47528 -2.87116 0
M  V30 9389 H 848.591 -0.790574 -3.72094 0
M  V30 9390 H 849.903 -0.821027 -4.91997 0
M  V30 9391 H 849.057 1.31006 -5.92387 0
M  V30 9392 H 847.796 1.42562 -4.66398 0
M  V30 9393 H 846.801 -0.7419 -5.44771 0
M  V30 9394 H 848.026 -0.842305 -6.73856 0
M  V30 9395 H 845.972 1.37806 -6.41362 0
M  V30 9396 H 845.889 0.0804911 -7.55957 0
M  V30 9397 H 847.157 1.26225 -7.69212 0
M  V30 9398 N 851.386 1.48609 -0.524698 0
M  V30 9399 C 852.635 2.01696 0.0132937 0
M  V30 9400 C 852.948 1.40751 1.35825 0
M  V30 9401 O 854.154 1.85304 1.9843 0
M  V30 9402 C 852.61 3.59824 0.0741012 0
M  V30 9403 C 852.218 4.2975 -1.26564 0
M  V30 9404 C 853.962 4.20774 0.5612 0
M  V30 9405 C 851.869 5.79798 -1.16571 0
M  V30 9406 H 850.799 0.753949 0.00873931 0
M  V30 9407 H 853.45 1.70922 -0.667684 0
M  V30 9408 H 851.832 3.87416 0.820043 0
M  V30 9409 H 853.006 4.13836 -2.02674 0
M  V30 9410 H 851.321 3.80649 -1.68806 0
M  V30 9411 H 853.918 5.30687 0.653853 0
M  V30 9412 H 854.261 3.85734 1.56573 0
M  V30 9413 H 854.794 3.97591 -0.128901 0
M  V30 9414 H 851.533 6.19403 -2.14523 0
M  V30 9415 H 851.053 5.9814 -0.445894 0
M  V30 9416 H 852.732 6.41337 -0.854186 0
M  V30 9417 N 852.864 0.259585 1.55447 0
M  V30 9418 C 854.094 -0.364863 2.03353 0
M  V30 9419 C 854.502 -1.5116 1.13786 0
M  V30 9420 O 853.845 -1.83109 0.147283 0
M  V30 9421 C 853.907 -0.922587 3.4746 0
M  V30 9422 C 853.571 0.0935207 4.56904 0
M  V30 9423 C 854.568 0.907571 5.11917 0
M  V30 9424 C 852.253 0.223276 5.01804 0
M  V30 9425 C 854.247 1.83771 6.10333 0
M  V30 9426 C 851.934 1.15691 6.00049 0
M  V30 9427 C 852.932 1.96264 6.54194 0
M  V30 9428 O 852.62 2.88052 7.50521 0
M  V30 9429 H 852.352 -0.0893313 0.670072 0
M  V30 9430 H 854.906 0.384821 2.01763 0
M  V30 9431 H 853.136 -1.72206 3.4624 0
M  V30 9432 H 854.825 -1.45846 3.78792 0
M  V30 9433 H 855.591 0.817979 4.78052 0
M  V30 9434 H 851.47 -0.393834 4.59315 0
M  V30 9435 H 855.014 2.46703 6.52521 0
M  V30 9436 H 850.911 1.24738 6.33333 0
M  V30 9437 H 851.679 2.82557 7.68182 0
M  V30 9438 N 854.342 -1.57594 -0.0133615 0
M  V30 9439 C 855.591 -1.8916 -0.700103 0
M  V30 9440 C 855.904 -0.860147 -1.75673 0
M  V30 9441 O 857.11 -1.06556 -2.49716 0
M  V30 9442 C 855.566 -3.35742 -1.29635 0
M  V30 9443 C 855.174 -4.47154 -0.275249 0
M  V30 9444 C 856.918 -3.76436 -1.96205 0
M  V30 9445 C 854.825 -5.84805 -0.880726 0
M  V30 9446 H 853.755 -0.705805 -0.265247 0
M  V30 9447 H 856.406 -1.83445 0.044993 0
M  V30 9448 H 854.788 -3.36252 -2.09167 0
M  V30 9449 H 855.962 -4.58139 0.494506 0
M  V30 9450 H 854.277 -4.15394 0.289256 0
M  V30 9451 H 856.874 -4.76606 -2.42386 0
M  V30 9452 H 857.217 -3.09249 -2.78695 0
M  V30 9453 H 857.75 -3.78168 -1.23426 0
M  V30 9454 H 854.489 -6.55431 -0.0949013 0
M  V30 9455 H 854.009 -5.7751 -1.61995 0
M  V30 9456 H 855.688 -6.32038 -1.38338 0
M  V30 9457 N 855.82 0.285905 -1.54985 0
M  V30 9458 C 856.752 1.37505 -1.83371 0
M  V30 9459 C 857.765 1.46138 -0.717454 0
M  V30 9460 O 858.954 1.48186 -0.995142 0
M  V30 9461 C 856.054 2.7575 -1.97016 0
M  V30 9462 C 855.227 2.89866 -3.27561 0
M  V30 9463 C 854.286 4.08704 -3.31433 0
M  V30 9464 O 853.312 4.00073 -4.04883 0
M  V30 9465 N 854.514 5.20062 -2.57907 0
M  V30 9466 H 857.279 1.13505 -2.77375 0
M  V30 9467 H 854.84 0.476006 -1.54744 0
M  V30 9468 H 856.832 3.5352 -1.96991 0
M  V30 9469 H 855.402 2.9263 -1.09938 0
M  V30 9470 H 854.622 1.99085 -3.40234 0
M  V30 9471 H 855.91 2.96219 -4.13681 0
M  V30 9472 H 855.308 5.29958 -1.97891 0
M  V30 9473 H 853.865 5.96111 -2.63619 0
M  V30 9474 N 857.298 1.47698 0.54982 0
M  V30 9475 C 858.228 1.63622 1.66583 0
M  V30 9476 C 859.209 0.485477 1.63025 0
M  V30 9477 O 860.394 0.715692 1.80531 0
M  V30 9478 C 857.524 1.65721 3.05211 0
M  V30 9479 C 856.478 2.80097 3.2362 0
M  V30 9480 C 855.804 2.67272 4.63109 0
M  V30 9481 C 857.104 4.21612 3.08286 0
M  V30 9482 H 858.798 2.57049 1.53512 0
M  V30 9483 H 856.344 1.23705 0.737099 0
M  V30 9484 H 858.297 1.75451 3.83138 0
M  V30 9485 H 857.021 0.688593 3.19258 0
M  V30 9486 H 855.68 2.69889 2.48104 0
M  V30 9487 H 855.328 1.68422 4.73965 0
M  V30 9488 H 855.028 3.44008 4.76374 0
M  V30 9489 H 856.552 2.78942 5.43161 0
M  V30 9490 H 857.966 4.32758 3.76024 0
M  V30 9491 H 856.363 4.99193 3.33057 0
M  V30 9492 H 857.433 4.39462 2.04942 0
M  V30 9493 N 858.776 -0.797141 1.35954 0
M  V30 9494 C 859.706 -1.92387 1.32323 0
M  V30 9495 C 860.687 -1.68967 0.196007 0
M  V30 9496 O 861.872 -1.90193 0.39245 0
M  V30 9497 C 859.002 -3.29286 1.10398 0
M  V30 9498 C 857.956 -3.67212 2.19862 0
M  V30 9499 C 857.282 -5.02377 1.8309 0
M  V30 9500 C 858.582 -3.76602 3.61896 0
M  V30 9501 H 860.276 -1.95683 2.26602 0
M  V30 9502 H 857.822 -0.94007 1.09081 0
M  V30 9503 H 859.775 -4.07721 1.06495 0
M  V30 9504 H 858.499 -3.26358 0.125668 0
M  V30 9505 H 857.158 -2.91069 2.22878 0
M  V30 9506 H 856.806 -4.95961 0.838527 0
M  V30 9507 H 856.506 -5.28722 2.56372 0
M  V30 9508 H 858.03 -5.8324 1.80729 0
M  V30 9509 H 859.444 -4.45246 3.6115 0
M  V30 9510 H 857.841 -4.14425 4.34018 0
M  V30 9511 H 858.911 -2.77906 3.97361 0
M  V30 9512 N 860.254 -1.20106 -1.0204 0
M  V30 9513 C 861.202 -0.943231 -2.12617 0
M  V30 9514 C 862.196 0.104042 -1.6908 0
M  V30 9515 O 863.402 -0.0459732 -1.79941 0
M  V30 9516 H 859.777 -0.28767 -0.694802 0
M  V30 9517 H 861.748 -1.88221 -2.3155 0
M  V30 9518 C 860.497 -0.50771 -3.43973 0
M  V30 9519 H 859.82 -1.30514 -3.77897 0
M  V30 9520 H 861.26 -0.366486 -4.22413 0
M  V30 9521 C 859.719 0.77939 -3.27761 0
M  V30 9522 O 860.249 1.83876 -3.57145 0
M  V30 9523 N 858.455 0.739931 -2.81022 0
M  V30 9524 H 858.002 -0.122426 -2.57309 0
M  V30 9525 H 857.96 1.60147 -2.70556 0
M  V30 9526 N 861.732 1.21287 -1.00634 0
M  V30 9527 C 862.642 2.27388 -0.577226 0
M  V30 9528 C 863.658 1.69791 0.380399 0
M  V30 9529 O 864.834 1.99918 0.2439 0
M  V30 9530 C 861.899 3.46588 0.0880532 0
M  V30 9531 C 860.96 4.19453 -0.914222 0
M  V30 9532 C 860.193 5.32962 -0.280596 0
M  V30 9533 O 860.416 5.62895 0.922265 0
M  V30 9534 O 859.35 5.93666 -0.992196 0
M  V30 9535 H 863.176 2.66289 -1.46028 0
M  V30 9536 H 860.761 1.2771 -0.775283 0
M  V30 9537 H 862.643 4.18881 0.460094 0
M  V30 9538 H 861.318 3.09585 0.945461 0
M  V30 9539 H 860.225 3.49376 -1.33744 0
M  V30 9540 H 861.558 4.6037 -1.74126 0
M  V30 9541 N 863.21 0.781244 1.36873 0
M  V30 9542 C 864.487 0.274217 1.93668 0
M  V30 9543 C 864.867 -1.2323 1.71399 0
M  V30 9544 O 864.215 -2.01993 1.06822 0
M  V30 9545 C 864.425 0.657939 3.42742 0
M  V30 9546 C 865.773 0.63307 4.19854 0
M  V30 9547 O 866.797 0.597909 3.51146 0
M  V30 9548 O 865.656 0.668636 5.42394 0
M  V30 9549 H 862.75 0.0658059 0.824378 0
M  V30 9550 H 865.296 0.863238 1.46104 0
M  V30 9551 H 864.068 1.69728 3.52573 0
M  V30 9552 H 863.691 0.0423678 3.97577 0
M  V30 9553 N 864.689 -1.48329 0.532571 0
M  V30 9554 C 865.599 -2.33445 -0.232546 0
M  V30 9555 C 866.615 -1.46651 -0.93645 0
M  V30 9556 O 867.791 -1.79627 -0.910834 0
M  V30 9557 C 864.856 -3.22824 -1.26434 0
M  V30 9558 C 863.917 -4.25492 -0.570511 0
M  V30 9559 C 863.15 -5.10601 -1.55315 0
M  V30 9560 O 863.373 -4.97733 -2.78599 0
M  V30 9561 O 862.307 -5.91927 -1.09112 0
M  V30 9562 H 866.133 -3.00119 0.464988 0
M  V30 9563 H 863.718 -1.46489 0.293462 0
M  V30 9564 H 865.6 -3.78103 -1.86055 0
M  V30 9565 H 864.275 -2.58807 -1.94424 0
M  V30 9566 H 863.182 -3.74041 0.0662587 0
M  V30 9567 H 864.515 -4.92154 0.0674904 0
M  V30 9568 N 866.167 -0.267825 -1.55308 0
M  V30 9569 C 867.114 0.6228 -2.22238 0
M  V30 9570 C 868.084 1.15536 -1.19334 0
M  V30 9571 O 869.269 1.206 -1.47852 0
M  V30 9572 C 866.409 1.80447 -2.94164 0
M  V30 9573 C 865.522 1.30646 -4.11771 0
M  V30 9574 C 864.657 2.44935 -4.7136 0
M  V30 9575 C 863.696 1.92099 -5.81175 0
M  V30 9576 N 862.833 2.99834 -6.34857 0
M  V30 9577 H 867.673 0.0453874 -2.97965 0
M  V30 9578 H 865.21 0.0106371 -1.47096 0
M  V30 9579 H 867.168 2.49896 -3.34078 0
M  V30 9580 H 865.798 2.35403 -2.20874 0
M  V30 9581 H 864.85 0.505314 -3.77029 0
M  V30 9582 H 866.162 0.879409 -4.90987 0
M  V30 9583 H 865.316 3.2239 -5.13955 0
M  V30 9584 H 864.055 2.90951 -3.91406 0
M  V30 9585 H 863.06 1.13122 -5.38037 0
M  V30 9586 H 864.285 1.47027 -6.62993 0
M  V30 9587 H 862.231 3.45246 -5.578 0
M  V30 9588 H 862.148 2.61524 -7.09324 0
M  V30 9589 H 863.416 3.77286 -6.82111 0
M  V30 9590 N 867.645 1.57599 0.00500368 0
M  V30 9591 C 868.875 1.94344 0.700998 0
M  V30 9592 C 869.283 0.868011 1.68114 0
M  V30 9593 O 868.626 -0.16214 1.82983 0
M  V30 9594 C 868.688 3.27046 1.49268 0
M  V30 9595 C 868.352 4.51992 0.674684 0
M  V30 9596 C 869.349 5.19888 -0.0354833 0
M  V30 9597 C 867.034 4.98432 0.622129 0
M  V30 9598 C 869.028 6.3252 -0.787246 0
M  V30 9599 C 866.715 6.10954 -0.133362 0
M  V30 9600 C 867.713 6.77855 -0.836788 0
M  V30 9601 O 867.401 7.88221 -1.57996 0
M  V30 9602 H 867.133 0.645572 0.20053 0
M  V30 9603 H 869.687 2.0536 -0.040718 0
M  V30 9604 H 867.917 3.12424 2.27877 0
M  V30 9605 H 869.606 3.4894 2.07355 0
M  V30 9606 H 870.372 4.85 -0.00400159 0
M  V30 9607 H 866.251 4.46189 1.15917 0
M  V30 9608 H 869.795 6.84671 -1.33683 0
M  V30 9609 H 865.692 6.45285 -0.166682 0
M  V30 9610 H 866.46 8.0471 -1.49615 0
M  V30 9611 N 869.123 -0.277682 1.55134 0
M  V30 9612 C 870.369 -1.00733 1.76704 0
M  V30 9613 C 870.724 -1.84107 0.55879 0
M  V30 9614 O 870.017 -1.86275 -0.448591 0
M  V30 9615 C 870.211 -1.92599 3.01065 0
M  V30 9616 C 870.04 -1.18266 4.3387 0
M  V30 9617 C 868.81 -0.900254 4.97216 0
M  V30 9618 C 871.008 -0.575419 5.11071 0
M  V30 9619 N 868.99 -0.129637 6.13763 0
M  V30 9620 C 870.361 0.0612637 6.1997 0
M  V30 9621 C 872.416 -0.482794 4.95554 0
M  V30 9622 C 871.119 0.781637 7.15041 0
M  V30 9623 C 873.145 0.223977 5.90976 0
M  V30 9624 C 872.507 0.849416 6.9926 0
M  V30 9625 H 868.606 -0.35075 0.698927 0
M  V30 9626 H 871.19 -0.283482 1.92625 0
M  V30 9627 H 869.361 -2.62214 2.86528 0
M  V30 9628 H 871.093 -2.5889 3.1106 0
M  V30 9629 H 867.848 -1.20434 4.58031 0
M  V30 9630 H 868.272 0.242865 6.76564 0
M  V30 9631 H 872.914 -0.952023 4.11942 0
M  V30 9632 H 870.632 1.26256 7.98176 0
M  V30 9633 H 874.218 0.2959 5.81047 0
M  V30 9634 H 873.098 1.3876 7.71826 0
M  V30 9635 N 870.601 -1.47988 -0.541979 0
M  V30 9636 C 871.548 -1.61615 -1.6477 0
M  V30 9637 C 872.518 -0.458602 -1.59644 0
M  V30 9638 O 873.703 -0.680585 -1.78249 0
M  V30 9639 C 870.843 -1.65066 -3.03063 0
M  V30 9640 C 869.956 -2.91845 -3.18513 0
M  V30 9641 C 869.091 -2.86534 -4.47294 0
M  V30 9642 C 868.13 -4.0807 -4.5623 0
M  V30 9643 N 867.267 -4.00905 -5.76385 0
M  V30 9644 H 872.107 -2.56046 -1.52461 0
M  V30 9645 H 869.644 -1.26989 -0.742449 0
M  V30 9646 H 871.602 -1.65049 -3.83164 0
M  V30 9647 H 870.232 -0.74136 -3.14171 0
M  V30 9648 H 869.284 -3.01661 -2.31743 0
M  V30 9649 H 870.596 -3.81804 -3.20978 0
M  V30 9650 H 869.75 -2.84851 -5.35672 0
M  V30 9651 H 868.489 -1.94283 -4.47332 0
M  V30 9652 H 867.494 -4.10041 -3.66261 0
M  V30 9653 H 868.719 -5.01465 -4.5794 0
M  V30 9654 H 866.665 -3.11467 -5.77342 0
M  V30 9655 H 866.582 -4.84557 -5.80293 0
M  V30 9656 H 867.85 -4.03263 -6.67083 0
M  V30 9657 N 872.079 0.78992 -1.36375 0
M  V30 9658 C 873.356 1.53584 -1.21126 0
M  V30 9659 C 873.736 2.10124 0.202785 0
M  V30 9660 O 873.084 1.93936 1.20835 0
M  V30 9661 C 873.294 2.63117 -2.29282 0
M  V30 9662 C 874.642 3.31013 -2.65924 0
M  V30 9663 O 875.666 2.734 -2.28321 0
M  V30 9664 O 874.525 4.35129 -3.30643 0
M  V30 9665 H 871.619 0.679366 -0.471583 0
M  V30 9666 H 874.165 0.828446 -1.48104 0
M  V30 9667 H 872.937 2.19329 -3.24053 0
M  V30 9668 H 872.56 3.41476 -2.03666 0
M  V30 9669 N 873.557 1.20646 1.01402 0
M  V30 9670 C 874.806 1.01242 1.7445 0
M  V30 9671 C 875.119 -0.455732 1.90217 0
M  V30 9672 O 876.325 -0.768951 2.60383 0
M  V30 9673 C 874.781 1.76275 3.13776 0
M  V30 9674 C 874.389 3.27201 3.06013 0
M  V30 9675 C 876.133 1.65248 3.91016 0
M  V30 9676 C 874.04 3.9476 4.40362 0
M  V30 9677 H 872.97 0.375202 0.654018 0
M  V30 9678 H 875.621 1.44292 1.13367 0
M  V30 9679 H 874.003 1.26013 3.75415 0
M  V30 9680 H 875.177 3.84695 2.53665 0
M  V30 9681 H 873.492 3.38669 2.42265 0
M  V30 9682 H 876.089 2.13061 4.90417 0
M  V30 9683 H 876.432 0.609128 4.1182 0
M  V30 9684 H 876.965 2.12937 3.3601 0
M  V30 9685 H 873.704 4.99258 4.24761 0
M  V30 9686 H 873.224 3.42054 4.92706 0
M  V30 9687 H 874.903 3.99159 5.09196 0
M  V30 9688 N 875.035 -1.20752 1.01276 0
M  V30 9689 C 875.965 -2.25658 0.600064 0
M  V30 9690 C 876.946 -1.65733 -0.38298 0
M  V30 9691 O 878.131 -1.92324 -0.269256 0
M  V30 9692 C 875.261 -3.47237 -0.0663197 0
M  V30 9693 C 874.215 -4.1973 0.83731 0
M  V30 9694 C 873.541 -5.34687 0.0369102 0
M  V30 9695 C 874.841 -4.76286 2.14357 0
M  V30 9696 H 876.535 -2.60432 1.477 0
M  V30 9697 H 874.081 -1.25187 0.711634 0
M  V30 9698 H 876.034 -4.19803 -0.366563 0
M  V30 9699 H 874.758 -3.11615 -0.977944 0
M  V30 9700 H 873.417 -3.49024 1.1215 0
M  V30 9701 H 873.065 -4.95309 -0.876244 0
M  V30 9702 H 872.765 -5.84119 0.63865 0
M  V30 9703 H 874.289 -6.10059 -0.256968 0
M  V30 9704 H 875.703 -5.40691 1.90595 0
M  V30 9705 H 874.1 -5.36139 2.69583 0
M  V30 9706 H 875.17 -3.9524 2.80916 0
M  V30 9707 N 876.513 -0.788492 -1.36457 0
M  V30 9708 C 877.46 -0.18435 -2.30063 0
M  V30 9709 C 878.43 0.67128 -1.51931 0
M  V30 9710 O 879.615 0.620152 -1.8044 0
M  V30 9711 C 876.755 0.675596 -3.38422 0
M  V30 9712 C 875.868 -0.198475 -4.31544 0
M  V30 9713 C 875.003 0.667757 -5.26986 0
M  V30 9714 C 874.042 -0.207825 -6.11747 0
M  V30 9715 N 873.179 0.617335 -6.99381 0
M  V30 9716 H 878.019 -0.988056 -2.81143 0
M  V30 9717 H 875.556 -0.498815 -1.38384 0
M  V30 9718 H 877.514 1.18916 -3.99894 0
M  V30 9719 H 876.144 1.44474 -2.88664 0
M  V30 9720 H 875.196 -0.829995 -3.71235 0
M  V30 9721 H 876.508 -0.873163 -4.91098 0
M  V30 9722 H 875.662 1.24716 -5.93743 0
M  V30 9723 H 874.401 1.37607 -4.67884 0
M  V30 9724 H 873.406 -0.799638 -5.43954 0
M  V30 9725 H 874.631 -0.913729 -6.72925 0
M  V30 9726 H 872.577 1.30996 -6.42788 0
M  V30 9727 H 872.494 0.000307255 -7.56 0
M  V30 9728 H 873.762 1.1806 -7.70508 0
M  V30 9729 N 877.991 1.48044 -0.54043 0
M  V30 9730 C 879.407 1.58354 -0.199006 0
M  V30 9731 C 879.607 1.54118 1.29807 0
M  V30 9732 O 878.663 1.43573 2.07709 0
M  V30 9733 C 879.976 2.89563 -0.810797 0
M  V30 9734 C 881.524 3.03113 -0.780486 0
M  V30 9735 C 881.999 4.36997 -1.37104 0
M  V30 9736 N 883.49 4.43591 -1.33347 0
M  V30 9737 C 884.225 5.45714 -1.76021 0
M  V30 9738 N 883.721 6.54738 -2.26473 0
M  V30 9739 N 885.514 5.36659 -1.67194 0
M  V30 9740 H 877.665 1.49041 -1.51329 0
M  V30 9741 H 879.928 0.708309 -0.630081 0
M  V30 9742 H 879.634 2.9835 -1.86227 0
M  V30 9743 H 879.508 3.76053 -0.293977 0
M  V30 9744 H 881.895 2.93932 0.262246 0
M  V30 9745 H 881.976 2.18207 -1.33489 0
M  V30 9746 H 881.62 4.46932 -2.41276 0
M  V30 9747 H 881.55 5.20607 -0.792229 0
M  V30 9748 H 884.041 3.65391 -0.964259 0
M  V30 9749 H 884.354 7.28814 -2.57002 0
M  V30 9750 H 882.699 6.55673 -2.30473 0
M  V30 9751 H 885.89 4.50382 -1.27569 0
M  V30 9752 H 886.063 6.16113 -2.00771 0
M  V30 9753 N 879.47 0.276058 1.55163 0
M  V30 9754 C 880.7 -0.343274 2.03728 0
M  V30 9755 C 881.108 -1.49945 1.15383 0
M  V30 9756 O 880.451 -1.82942 0.166696 0
M  V30 9757 C 880.513 -0.885683 3.48419 0
M  V30 9758 C 880.177 0.141976 4.56779 0
M  V30 9759 C 881.174 0.961816 5.10926 0
M  V30 9760 C 878.859 0.276487 5.01538 0
M  V30 9761 C 880.853 1.90234 6.0835 0
M  V30 9762 C 878.54 1.22049 5.98788 0
M  V30 9763 C 879.538 2.03192 6.52075 0
M  V30 9764 O 879.226 2.95996 7.47423 0
M  V30 9765 H 878.958 -0.0822192 0.670981 0
M  V30 9766 H 881.512 0.406199 2.01343 0
M  V30 9767 H 879.742 -1.68524 3.48047 0
M  V30 9768 H 881.431 -1.4182 3.80318 0
M  V30 9769 H 882.197 0.868637 4.77158 0
M  V30 9770 H 878.076 -0.345095 4.59707 0
M  V30 9771 H 881.62 2.5361 6.49867 0
M  V30 9772 H 877.517 1.31448 6.31974 0
M  V30 9773 H 878.285 2.90688 7.65142 0
M  V30 9774 N 880.948 -1.576 0.00335426 0
M  V30 9775 C 882.197 -1.89892 -0.680001 0
M  V30 9776 C 882.51 -0.878731 -1.7475 0
M  V30 9777 O 883.716 -1.09199 -2.48572 0
M  V30 9778 C 882.172 -3.37098 -1.26066 0
M  V30 9779 C 881.78 -4.4742 -0.227807 0
M  V30 9780 C 883.524 -3.78495 -1.92202 0
M  V30 9781 C 881.431 -5.85706 -0.81865 0
M  V30 9782 H 880.361 -0.708578 -0.257746 0
M  V30 9783 H 883.012 -1.83387 0.0644472 0
M  V30 9784 H 881.394 -3.38451 -2.05589 0
M  V30 9785 H 882.568 -4.57589 0.54307 0
M  V30 9786 H 880.883 -4.15064 0.333297 0
M  V30 9787 H 883.48 -4.7915 -2.37318 0
M  V30 9788 H 883.823 -3.12187 -2.75399 0
M  V30 9789 H 884.356 -3.79456 -1.19408 0
M  V30 9790 H 881.095 -6.55495 -0.0253787 0
M  V30 9791 H 880.615 -5.79196 -1.55861 0
M  V30 9792 H 882.294 -6.33469 -1.31627 0
M  V30 9793 N 882.426 0.269451 -1.5528 0
M  V30 9794 C 883.356 1.33729 -1.91413 0
M  V30 9795 C 884.337 1.51348 -0.776391 0
M  V30 9796 O 885.522 1.64332 -1.03482 0
M  V30 9797 C 882.652 2.69618 -2.18914 0
M  V30 9798 C 881.606 2.66725 -3.34726 0
M  V30 9799 C 880.932 4.06199 -3.47716 0
M  V30 9800 C 882.232 2.25684 -4.71025 0
M  V30 9801 H 883.926 1.03736 -2.80854 0
M  V30 9802 H 881.472 0.497579 -1.3513 0
M  V30 9803 H 883.425 3.44436 -2.42779 0
M  V30 9804 H 882.149 3.01201 -1.26275 0
M  V30 9805 H 880.808 1.94365 -3.10834 0
M  V30 9806 H 880.456 4.3501 -2.52537 0
M  V30 9807 H 880.156 4.05157 -4.25583 0
M  V30 9808 H 881.68 4.8275 -3.73877 0
M  V30 9809 H 883.094 2.90225 -4.94411 0
M  V30 9810 H 881.491 2.35797 -5.51833 0
M  V30 9811 H 882.561 1.20819 -4.69607 0
M  V30 9812 N 883.904 1.48273 0.534124 0
M  V30 9813 C 884.836 1.5857 1.65494 0
M  V30 9814 C 885.849 0.470266 1.5586 0
M  V30 9815 O 887.038 0.740928 1.62396 0
M  V30 9816 C 884.138 1.49554 3.04117 0
M  V30 9817 C 883.311 2.76066 3.39273 0
M  V30 9818 C 882.37 2.60562 4.57159 0
M  V30 9819 O 881.396 3.34438 4.60587 0
M  V30 9820 N 882.598 1.69906 5.55079 0
M  V30 9821 H 885.363 2.55226 1.57099 0
M  V30 9822 H 882.924 1.44944 0.721303 0
M  V30 9823 H 884.916 1.36882 3.80848 0
M  V30 9824 H 883.486 0.608895 3.06613 0
M  V30 9825 H 882.706 3.03332 2.51761 0
M  V30 9826 H 883.994 3.60006 3.59546 0
M  V30 9827 H 883.392 1.09079 5.55084 0
M  V30 9828 H 881.949 1.63175 6.31044 0
M  V30 9829 N 885.382 -0.782676 1.36792 0
M  V30 9830 C 886.33 -1.91698 1.31737 0
M  V30 9831 C 887.324 -1.68118 0.207994 0
M  V30 9832 O 888.53 -1.76042 0.375393 0
M  V30 9833 H 884.905 -0.630215 0.410284 0
M  V30 9834 H 886.876 -1.93078 2.27516 0
M  V30 9835 C 885.625 -3.28816 1.13029 0
M  V30 9836 H 884.948 -3.4753 1.97643 0
M  V30 9837 H 886.388 -4.08515 1.13541 0
M  V30 9838 C 884.847 -3.36497 -0.1647 0
M  V30 9839 O 885.377 -3.84822 -1.15216 0
M  V30 9840 N 883.583 -2.89828 -0.211678 0
M  V30 9841 H 883.13 -2.50693 0.59252 0
M  V30 9842 H 883.088 -2.95349 -1.07779 0
M  V30 9843 N 886.86 -1.21182 -1.00761 0
M  V30 9844 C 888.137 -0.936297 -1.71735 0
M  V30 9845 C 888.517 0.552585 -2.03739 0
M  V30 9846 O 887.865 1.51672 -1.70903 0
M  V30 9847 C 888.075 -1.81867 -2.97868 0
M  V30 9848 C 889.423 -2.06594 -3.7095 0
M  V30 9849 O 890.447 -1.79194 -3.07844 0
M  V30 9850 O 889.306 -2.5292 -4.84452 0
M  V30 9851 H 886.4 -0.350867 -0.74888 0
M  V30 9852 H 888.946 -1.32098 -1.06527 0
M  V30 9853 H 887.718 -2.82643 -2.70607 0
M  V30 9854 H 887.341 -1.43463 -3.70815 0
M  V30 9855 N 888.338 1.20213 -1.01915 0
M  V30 9856 C 889.568 1.93341 -0.728197 0
M  V30 9857 C 889.976 1.75151 0.715454 0
M  V30 9858 O 889.319 1.06437 1.49722 0
M  V30 9859 C 889.381 3.45677 -0.9873 0
M  V30 9860 C 889.045 3.8763 -2.42057 0
M  V30 9861 C 890.042 3.93184 -3.40151 0
M  V30 9862 C 887.727 4.19547 -2.76199 0
M  V30 9863 C 889.721 4.30069 -4.70446 0
M  V30 9864 C 887.408 4.56106 -4.06707 0
M  V30 9865 C 888.406 4.6134 -5.03641 0
M  V30 9866 O 888.094 4.97059 -6.31813 0
M  V30 9867 H 887.826 0.621258 -0.266485 0
M  V30 9868 H 890.38 1.53577 -1.36393 0
M  V30 9869 H 888.61 3.85578 -0.294405 0
M  V30 9870 H 890.299 4.00035 -0.687536 0
M  V30 9871 H 891.065 3.68687 -3.15111 0
M  V30 9872 H 886.944 4.14663 -2.01434 0
M  V30 9873 H 890.488 4.34069 -5.46105 0
M  V30 9874 H 886.385 4.80059 -4.31525 0
M  V30 9875 H 887.153 5.15043 -6.36139 0
M  V30 9876 N 889.816 0.795718 1.36037 0
M  V30 9877 C 891.062 0.371574 1.99367 0
M  V30 9878 C 891.395 -1.0557 1.62999 0
M  V30 9879 O 890.67 -1.73051 0.887895 0
M  V30 9880 C 890.953 0.542622 3.55988 0
M  V30 9881 C 890.806 2.01404 4.0219 0
M  V30 9882 C 892.125 -0.0384527 4.40083 0
M  V30 9883 H 889.244 0.136483 0.724252 0
M  V30 9884 H 891.886 1.00323 1.61355 0
M  V30 9885 H 890.036 0.0049053 3.885 0
M  V30 9886 H 891.708 2.6133 3.80137 0
M  V30 9887 H 889.951 2.51439 3.53498 0
M  V30 9888 H 890.622 2.08466 5.11122 0
M  V30 9889 H 893.098 0.420634 4.13968 0
M  V30 9890 H 891.974 0.111214 5.48787 0
M  V30 9891 H 892.235 -1.13116 4.27384 0
M  V30 9892 N 891.294 -1.47756 0.548274 0
M  V30 9893 C 892.204 -2.33678 -0.207773 0
M  V30 9894 C 893.22 -1.47636 -0.920843 0
M  V30 9895 O 894.396 -1.80583 -0.89173 0
M  V30 9896 C 891.461 -3.24147 -1.23003 0
M  V30 9897 C 890.522 -4.26073 -0.52535 0
M  V30 9898 C 889.755 -5.12219 -1.4989 0
M  V30 9899 O 889.978 -5.0066 -2.73305 0
M  V30 9900 O 888.912 -5.93051 -1.02828 0
M  V30 9901 H 892.738 -2.99609 0.496794 0
M  V30 9902 H 890.323 -1.4617 0.308982 0
M  V30 9903 H 892.205 -3.80055 -1.82034 0
M  V30 9904 H 890.88 -2.60855 -1.91668 0
M  V30 9905 H 889.787 -3.7395 0.105927 0
M  V30 9906 H 891.12 -4.92054 0.119686 0
M  V30 9907 N 892.772 -0.284283 -1.55015 0
M  V30 9908 C 894.018 0.330352 -2.00091 0
M  V30 9909 C 894.351 1.54814 -1.17244 0
M  V30 9910 O 893.626 1.92954 -0.244753 0
M  V30 9911 C 893.909 0.703492 -3.53161 0
M  V30 9912 C 893.762 -0.522275 -4.46758 0
M  V30 9913 C 895.081 1.53645 -4.12409 0
M  V30 9914 H 892.2 0.118599 -0.727395 0
M  V30 9915 H 894.842 -0.393054 -1.8589 0
M  V30 9916 H 892.992 1.31983 -3.65394 0
M  V30 9917 H 894.664 -1.16082 -4.46456 0
M  V30 9918 H 892.907 -1.15865 -4.1804 0
M  V30 9919 H 893.578 -0.217295 -5.51572 0
M  V30 9920 H 896.054 1.01583 -4.0351 0
M  V30 9921 H 894.93 1.76633 -5.19704 0
M  V30 9922 H 895.191 2.5204 -3.63219 0
M  V30 9923 N 894.251 1.57596 -0.0117121 0
M  V30 9924 C 895.667 1.55837 0.344506 0
M  V30 9925 C 895.867 1.01557 1.74036 0
M  V30 9926 O 894.923 0.654563 2.43868 0
M  V30 9927 C 896.236 2.99973 0.209023 0
M  V30 9928 C 897.784 3.11717 0.283092 0
M  V30 9929 C 898.259 4.57659 0.176599 0
M  V30 9930 N 899.75 4.62608 0.234133 0
M  V30 9931 C 900.485 5.73132 0.175252 0
M  V30 9932 N 899.981 6.92768 0.0662888 0
M  V30 9933 N 901.774 5.61638 0.227972 0
M  V30 9934 H 893.925 1.91215 -0.924692 0
M  V30 9935 H 896.188 0.878807 -0.355531 0
M  V30 9936 H 895.894 3.4357 -0.751826 0
M  V30 9937 H 895.768 3.64075 0.98635 0
M  V30 9938 H 898.155 2.68043 1.23439 0
M  V30 9939 H 898.236 2.50369 -0.52431 0
M  V30 9940 H 897.88 5.02011 -0.771205 0
M  V30 9941 H 897.81 5.16967 1.00264 0
M  V30 9942 H 900.301 3.76549 0.319203 0
M  V30 9943 H 900.614 7.72795 0.0275765 0
M  V30 9944 H 898.959 6.94993 0.0317502 0
M  V30 9945 H 902.15 4.67063 0.311377 0
M  V30 9946 H 902.323 6.47754 0.178621 0
M  V30 9947 N 895.729 -0.261212 1.5542 0
M  V30 9948 C 896.969 -0.998748 1.78338 0
M  V30 9949 C 897.333 -1.83064 0.578914 0
M  V30 9950 O 898.534 -2.59884 0.686575 0
M  V30 9951 C 896.805 -1.84828 3.05898 0
M  V30 9952 S 898.364 -2.64686 3.49981 0
M  V30 9953 H 895.182 -0.33619 0.626496 0
M  V30 9954 H 897.784 -0.26799 1.93655 0
M  V30 9955 H 896.488 -1.22658 3.91642 0
M  V30 9956 H 896.019 -2.62203 2.9328 0
M  V30 9957 H 898.034 -3.87299 3.10184 0
M  V30 9958 N 897.207 -1.48554 -0.526253 0
M  V30 9959 C 898.437 -1.60197 -1.30463 0
M  V30 9960 C 898.845 -0.26278 -1.87366 0
M  V30 9961 O 898.188 0.758537 -1.67308 0
M  V30 9962 C 898.25 -2.59223 -2.49085 0
M  V30 9963 C 897.914 -4.04199 -2.13241 0
M  V30 9964 C 898.911 -4.91771 -1.68694 0
M  V30 9965 C 896.596 -4.49762 -2.2365 0
M  V30 9966 C 898.59 -6.22934 -1.35026 0
M  V30 9967 C 896.277 -5.80945 -1.89594 0
M  V30 9968 C 897.275 -6.67354 -1.45353 0
M  V30 9969 O 896.963 -7.96096 -1.11745 0
M  V30 9970 H 896.695 -0.54284 -0.402866 0
M  V30 9971 H 899.249 -1.95137 -0.641157 0
M  V30 9972 H 897.479 -2.19412 -3.18426 0
M  V30 9973 H 899.168 -2.60661 -3.11144 0
M  V30 9974 H 899.934 -4.57806 -1.6012 0
M  V30 9975 H 895.813 -3.8269 -2.5704 0
M  V30 9976 H 899.357 -6.90334 -1.00422 0
M  V30 9977 H 895.254 -6.14444 -1.9781 0
M  V30 9978 H 896.022 -8.08882 -1.25111 0
M  V30 9979 N 898.685 0.775411 -1.37205 0
M  V30 9980 C 900.096 1.35147 -1.28811 0
M  V30 9981 C 900.447 1.96089 0.0659168 0
M  V30 9982 O 899.572 1.93558 0.967684 0
M  V30 9983 C 900.167 2.45715 -2.33258 0
M  V30 9984 C 898.726 2.99099 -2.2851 0
M  V30 9985 C 897.873 1.72286 -2.17285 0
M  V30 9986 H 900.824 0.575954 -1.4788 0
M  V30 9987 H 900.845 3.251 -1.97712 0
M  V30 9988 H 900.357 2.01331 -3.31795 0
M  V30 9989 H 898.458 3.47868 -1.33485 0
M  V30 9990 H 898.571 3.54962 -3.21774 0
M  V30 9991 H 896.935 1.95068 -1.6377 0
M  V30 9992 H 897.718 1.3001 -3.1773 0
M  V30 9993 N 900.163 1.21714 1.00117 0
M  V30 9994 C 901.388 1.06357 1.78054 0
M  V30 9995 C 901.813 -0.382075 1.84179 0
M  V30 9996 O 901.171 -1.27575 1.28819 0
M  V30 9997 C 901.219 1.66982 3.19608 0
M  V30 9998 O 900.323 0.917892 4.02055 0
M  V30 9999 H 899.664 0.374074 0.548602 0
M  V30 10000 H 902.194 1.61338 1.25822 0
M  V30 10001 H 902.204 1.71363 3.70268 0
M  V30 10002 H 900.879 2.72185 3.14465 0
M  V30 10003 H 899.456 0.949473 3.6061 0
M  V30 10004 N 901.641 -1.19671 1.02551 0
M  V30 10005 C 902.887 -1.89548 0.721069 0
M  V30 10006 C 903.22 -1.79209 -0.748176 0
M  V30 10007 O 902.495 -1.1822 -1.54448 0
M  V30 10008 C 902.778 -3.4061 1.16861 0
M  V30 10009 C 902.631 -3.59838 2.69883 0
M  V30 10010 C 903.95 -4.33718 0.746782 0
M  V30 10011 H 901.069 -0.688315 0.263422 0
M  V30 10012 H 903.711 -1.40883 1.27483 0
M  V30 10013 H 901.861 -3.82188 0.697477 0
M  V30 10014 H 903.533 -3.27454 3.24917 0
M  V30 10015 H 901.776 -3.03005 3.10435 0
M  V30 10016 H 902.447 -4.65766 2.96253 0
M  V30 10017 H 904.923 -3.99837 1.15195 0
M  V30 10018 H 903.799 -5.38012 1.08786 0
M  V30 10019 H 904.06 -4.40704 -0.351057 0
M  V30 10020 N 903.119 -0.802921 -1.35613 0
M  V30 10021 C 904.066 -0.20874 -2.29854 0
M  V30 10022 C 905.036 0.655128 -1.52634 0
M  V30 10023 O 906.221 0.600979 -1.81088 0
M  V30 10024 C 903.361 0.639663 -3.3912 0
M  V30 10025 C 902.474 -0.244234 -4.31309 0
M  V30 10026 C 901.609 0.611825 -5.27665 0
M  V30 10027 C 900.648 -0.272698 -6.11492 0
M  V30 10028 N 899.785 0.543122 -6.99996 0
M  V30 10029 H 904.625 -1.01782 -2.80079 0
M  V30 10030 H 902.162 -0.513465 -1.37848 0
M  V30 10031 H 904.12 1.14668 -4.01132 0
M  V30 10032 H 902.75 1.41404 -2.9018 0
M  V30 10033 H 901.802 -0.869322 -3.70334 0
M  V30 10034 H 903.114 -0.925202 -4.90144 0
M  V30 10035 H 902.268 1.18412 -5.95032 0
M  V30 10036 H 901.007 1.32637 -4.69317 0
M  V30 10037 H 900.012 -0.857287 -5.43075 0
M  V30 10038 H 901.237 -0.985051 -6.71918 0
M  V30 10039 H 899.183 1.24171 -6.44141 0
M  V30 10040 H 899.1 -0.0798767 -7.55958 0
M  V30 10041 H 900.368 1.09881 -7.71717 0
M  V30 10042 N 904.597 1.47463 -0.556102 0
M  V30 10043 C 905.544 2.29998 0.192213 0
M  V30 10044 C 906.514 1.38993 0.909403 0
M  V30 10045 O 907.699 1.67954 0.905316 0
M  V30 10046 C 904.839 3.22932 1.21692 0
M  V30 10047 C 903.952 4.29027 0.505908 0
M  V30 10048 C 903.087 5.09114 1.51581 0
M  V30 10049 C 902.126 6.06984 0.789714 0
M  V30 10050 N 901.263 6.80033 1.74639 0
M  V30 10051 H 906.103 2.93468 -0.517734 0
M  V30 10052 H 903.64 1.44654 -0.267147 0
M  V30 10053 H 905.598 3.75234 1.8236 0
M  V30 10054 H 904.228 2.61329 1.89491 0
M  V30 10055 H 903.28 3.7979 -0.215276 0
M  V30 10056 H 904.592 4.9876 -0.062958 0
M  V30 10057 H 903.746 5.6556 2.19606 0
M  V30 10058 H 902.485 4.3928 2.11859 0
M  V30 10059 H 901.49 5.49717 0.0955382 0
M  V30 10060 H 902.715 6.78827 0.192688 0
M  V30 10061 H 900.661 6.12931 2.33777 0
M  V30 10062 H 900.578 7.45933 1.22965 0
M  V30 10063 H 901.846 7.41054 2.41782 0
M  V30 10064 N 906.075 0.2925 1.54862 0
M  V30 10065 C 907.038 -0.574423 2.21885 0
M  V30 10066 C 908.038 -1.06791 1.20218 0
M  V30 10067 O 909.228 -0.9653 1.45009 0
M  V30 10068 C 906.36 -1.79438 2.89853 0
M  V30 10069 H 907.553 0.0110319 2.99898 0
M  V30 10070 H 905.106 0.043256 1.5624 0
M  V30 10071 H 905.841 -2.4199 2.15897 0
M  V30 10072 H 905.626 -1.44827 3.64373 0
M  V30 10073 H 907.116 -2.41048 3.41007 0
M  V30 10074 N 907.553 -1.57587 0.0200696 0
M  V30 10075 C 908.5 -2.09667 -0.964791 0
M  V30 10076 C 909.47 -0.99664 -1.32877 0
M  V30 10077 O 910.655 -1.2703 -1.42366 0
M  V30 10078 C 907.795 -2.62101 -2.24493 0
M  V30 10079 C 906.908 -3.8608 -1.93821 0
M  V30 10080 C 906.043 -4.26939 -3.16064 0
M  V30 10081 C 905.082 -5.43701 -2.81169 0
M  V30 10082 N 904.219 -5.79759 -3.9601 0
M  V30 10083 H 909.059 -2.93538 -0.513751 0
M  V30 10084 H 906.596 -1.45096 -0.242 0
M  V30 10085 H 908.554 -2.90587 -2.99358 0
M  V30 10086 H 907.184 -1.81074 -2.6723 0
M  V30 10087 H 906.236 -3.64378 -1.09237 0
M  V30 10088 H 907.548 -4.71028 -1.64115 0
M  V30 10089 H 906.702 -4.56814 -3.99257 0
M  V30 10090 H 905.441 -3.40739 -3.48924 0
M  V30 10091 H 904.446 -5.13529 -1.96387 0
M  V30 10092 H 905.671 -6.31593 -2.49535 0
M  V30 10093 H 903.617 -4.96516 -4.28729 0
M  V30 10094 H 903.534 -6.59327 -3.69896 0
M  V30 10095 H 904.802 -6.14235 -4.79933 0
M  V30 10096 N 909.032 0.252966 -1.55557 0
M  V30 10097 C 909.979 1.3131 -1.89806 0
M  V30 10098 C 910.949 1.48121 -0.751633 0
M  V30 10099 O 912.134 1.62202 -1.00474 0
M  V30 10100 C 909.274 2.66467 -2.19293 0
M  V30 10101 C 908.387 2.57714 -3.46709 0
M  V30 10102 C 907.522 3.85184 -3.65796 0
M  V30 10103 C 906.561 3.71023 -4.86835 0
M  V30 10104 N 905.698 4.90371 -5.02474 0
M  V30 10105 H 910.538 1.01402 -2.80217 0
M  V30 10106 H 908.075 0.489462 -1.38718 0
M  V30 10107 H 910.033 3.45132 -2.34392 0
M  V30 10108 H 908.663 2.94536 -1.32093 0
M  V30 10109 H 907.715 1.70651 -3.39974 0
M  V30 10110 H 909.027 2.43158 -4.35517 0
M  V30 10111 H 908.181 4.72292 -3.80822 0
M  V30 10112 H 906.92 4.0263 -2.7521 0
M  V30 10113 H 905.925 2.82299 -4.71792 0
M  V30 10114 H 907.15 3.55078 -5.78875 0
M  V30 10115 H 905.096 5.0819 -4.14824 0
M  V30 10116 H 905.013 4.78423 -5.85361 0
M  V30 10117 H 906.281 5.78995 -5.21905 0
M  V30 10118 N 910.51 1.48831 0.518367 0
M  V30 10119 C 911.759 1.5669 1.27008 0
M  V30 10120 C 912.072 0.250934 1.93984 0
M  V30 10121 O 913.278 0.207884 2.70703 0
M  V30 10122 C 911.734 2.76387 2.30517 0
M  V30 10123 C 911.342 4.14673 1.69559 0
M  V30 10124 C 913.086 2.93566 3.06625 0
M  V30 10125 C 910.993 5.25616 2.71076 0
M  V30 10126 H 909.923 0.583362 0.477708 0
M  V30 10127 H 912.574 1.75187 0.546052 0
M  V30 10128 H 910.956 2.51348 3.06006 0
M  V30 10129 H 912.13 4.49779 1.00179 0
M  V30 10130 H 910.445 4.02708 1.05902 0
M  V30 10131 H 913.042 3.7362 3.82508 0
M  V30 10132 H 913.385 2.03462 3.63193 0
M  V30 10133 H 913.918 3.18562 2.38251 0
M  V30 10134 H 910.657 6.17723 2.19313 0
M  V30 10135 H 910.177 4.94985 3.38748 0
M  V30 10136 H 911.856 5.5422 3.3384 0
M  V30 10137 N 911.988 -0.768124 1.37614 0
M  V30 10138 C 912.898 -1.91249 1.35871 0
M  V30 10139 C 913.914 -1.7208 0.257786 0
M  V30 10140 O 915.09 -1.95253 0.493782 0
M  V30 10141 C 912.155 -3.26423 1.16829 0
M  V30 10142 C 911.216 -3.5822 2.36594 0
M  V30 10143 C 910.449 -4.86945 2.1845 0
M  V30 10144 O 910.672 -5.58258 1.17064 0
M  V30 10145 O 909.606 -5.17888 3.06718 0
M  V30 10146 H 913.432 -1.95671 2.32264 0
M  V30 10147 H 911.017 -0.911382 1.18382 0
M  V30 10148 H 912.899 -4.07269 1.08212 0
M  V30 10149 H 911.574 -3.22845 0.235123 0
M  V30 10150 H 910.481 -2.77594 2.50783 0
M  V30 10151 H 911.814 -3.66545 3.2849 0
M  V30 10152 N 913.466 -1.22244 -0.994698 0
M  V30 10153 C 914.691 -1.07299 -1.77487 0
M  V30 10154 C 915.116 0.372302 -1.84379 0
M  V30 10155 O 914.474 1.2689 -1.29494 0
M  V30 10156 C 914.522 -1.68675 -3.18718 0
M  V30 10157 O 913.626 -0.939202 -4.01563 0
M  V30 10158 H 912.967 -0.376979 -0.546611 0
M  V30 10159 H 915.497 -1.62003 -1.24965 0
M  V30 10160 H 915.507 -1.73324 -3.69354 0
M  V30 10161 H 914.182 -2.73849 -3.13017 0
M  V30 10162 H 912.759 -0.968583 -3.60101 0
M  V30 10163 N 914.944 1.19125 -1.03184 0
M  V30 10164 C 916.191 1.88883 -0.730029 0
M  V30 10165 C 916.519 1.79807 0.741602 0
M  V30 10166 O 915.774 1.18686 1.55603 0
M  V30 10167 C 916.073 3.39052 -1.13041 0
M  V30 10168 C 915.739 3.68332 -2.60082 0
M  V30 10169 C 914.401 3.76033 -3.00254 0
M  V30 10170 C 916.753 3.81423 -3.55199 0
M  V30 10171 C 914.081 3.94296 -4.34451 0
M  V30 10172 C 916.433 4.012 -4.89103 0
M  V30 10173 C 915.097 4.07134 -5.28959 0
M  V30 10174 H 914.367 0.691172 -0.267137 0
M  V30 10175 H 917.014 1.41053 -1.29523 0
M  V30 10176 H 915.319 3.88801 -0.48386 0
M  V30 10177 H 917.016 3.91351 -0.874368 0
M  V30 10178 H 913.606 3.62948 -2.27961 0
M  V30 10179 H 917.79 3.74814 -3.25313 0
M  V30 10180 H 913.046 3.97131 -4.64863 0
M  V30 10181 H 917.22 4.10271 -5.62717 0
M  V30 10182 H 914.847 4.21038 -6.32954 0
M  V30 10183 N 916.422 0.810101 1.35185 0
M  V30 10184 C 917.332 0.224565 2.33523 0
M  V30 10185 C 918.348 -0.634287 1.62027 0
M  V30 10186 O 919.524 -0.545211 1.9388 0
M  V30 10187 C 916.589 -0.614319 3.41214 0
M  V30 10188 C 915.65 0.265435 4.28479 0
M  V30 10189 C 914.883 -0.533506 5.31027 0
M  V30 10190 O 915.106 -1.7679 5.42311 0
M  V30 10191 O 914.04 0.0774573 6.0185 0
M  V30 10192 H 917.866 1.03815 2.85405 0
M  V30 10193 H 915.451 0.571964 1.38018 0
M  V30 10194 H 917.333 -1.09201 4.07005 0
M  V30 10195 H 916.008 -1.40545 2.91597 0
M  V30 10196 H 914.915 0.790343 3.65656 0
M  V30 10197 H 916.248 1.0206 4.81503 0
M  V30 10198 N 917.9 -1.47166 0.563914 0
M  V30 10199 C 918.847 -2.30097 -0.180013 0
M  V30 10200 C 919.817 -1.39473 -0.902019 0
M  V30 10201 O 921.002 -1.68432 -0.896396 0
M  V30 10202 C 918.142 -3.23573 -1.19978 0
M  V30 10203 C 917.255 -4.2929 -0.483149 0
M  V30 10204 C 916.39 -5.0991 -1.48879 0
M  V30 10205 C 915.429 -6.07395 -0.757513 0
M  V30 10206 N 914.566 -6.8095 -1.71031 0
M  V30 10207 H 919.406 -2.93189 0.53329 0
M  V30 10208 H 916.943 -1.4451 0.274814 0
M  V30 10209 H 918.901 -3.76196 -1.80368 0
M  V30 10210 H 917.531 -2.6233 -1.88103 0
M  V30 10211 H 916.583 -3.79671 0.235414 0
M  V30 10212 H 917.895 -4.9872 0.0894075 0
M  V30 10213 H 917.049 -5.66717 -2.16603 0
M  V30 10214 H 915.788 -4.40397 -2.09527 0
M  V30 10215 H 914.793 -5.4976 -0.0663841 0
M  V30 10216 H 916.018 -6.78919 -0.156685 0
M  V30 10217 H 913.964 -6.14162 -2.30524 0
M  V30 10218 H 913.881 -7.46574 -1.19007 0
M  V30 10219 H 915.149 -7.42326 -2.37849 0
M  V30 10220 N 919.378 -0.300708 -1.54705 0
M  V30 10221 C 920.325 0.57552 -2.23509 0
M  V30 10222 C 921.295 1.12979 -1.21758 0
M  V30 10223 O 922.48 1.17437 -1.50377 0
M  V30 10224 C 919.62 1.74167 -2.97926 0
M  V30 10225 C 918.733 1.21882 -4.1445 0
M  V30 10226 C 917.868 2.34881 -4.7645 0
M  V30 10227 C 916.907 1.79729 -5.85119 0
M  V30 10228 N 916.044 2.863 -6.41075 0
M  V30 10229 H 920.884 -0.0178257 -2.97995 0
M  V30 10230 H 918.421 -0.0205666 -1.47086 0
M  V30 10231 H 920.379 2.42753 -3.39303 0
M  V30 10232 H 919.009 2.30665 -2.25817 0
M  V30 10233 H 918.061 0.425227 -3.78016 0
M  V30 10234 H 919.373 0.775065 -4.92741 0
M  V30 10235 H 918.527 3.11415 -5.20678 0
M  V30 10236 H 917.266 2.82584 -3.97489 0
M  V30 10237 H 916.271 1.01684 -5.40315 0
M  V30 10238 H 917.496 1.32931 -6.65963 0
M  V30 10239 H 915.442 3.33337 -5.64998 0
M  V30 10240 H 915.359 2.46419 -7.14712 0
M  V30 10241 H 916.627 3.62732 -6.89961 0
M  V30 10242 N 920.856 1.57574 -0.0284266 0
M  V30 10243 C 921.786 2.1321 0.952039 0
M  V30 10244 C 922.767 1.04806 1.33977 0
M  V30 10245 O 923.952 1.32635 1.41851 0
M  V30 10246 C 921.082 2.65862 2.23461 0
M  V30 10247 C 920.036 3.79047 1.98765 0
M  V30 10248 C 919.362 4.18124 3.33281 0
M  V30 10249 C 920.662 5.05151 1.32739 0
M  V30 10250 H 922.356 2.95385 0.488705 0
M  V30 10251 H 919.902 1.42092 0.233628 0
M  V30 10252 H 921.855 3.03417 2.92431 0
M  V30 10253 H 920.579 1.80848 2.71959 0
M  V30 10254 H 919.238 3.41929 1.32213 0
M  V30 10255 H 918.886 3.30092 3.79537 0
M  V30 10256 H 918.586 4.94396 3.17563 0
M  V30 10257 H 920.11 4.58262 4.0352 0
M  V30 10258 H 921.524 5.40297 1.91708 0
M  V30 10259 H 919.921 5.86416 1.27421 0
M  V30 10260 H 920.991 4.83969 0.300261 0
M  V30 10261 N 922.334 -0.244713 1.55689 0
M  V30 10262 C 923.583 -0.970373 1.76824 0
M  V30 10263 C 923.896 -1.86402 0.592764 0
M  V30 10264 O 925.102 -2.62659 0.687186 0
M  V30 10265 C 923.558 -1.77547 3.13058 0
M  V30 10266 C 923.166 -0.929104 4.3826 0
M  V30 10267 C 924.91 -2.49373 3.43531 0
M  V30 10268 C 922.817 -1.73021 5.65524 0
M  V30 10269 H 921.747 -0.366048 0.659185 0
M  V30 10270 H 924.398 -0.224964 1.82116 0
M  V30 10271 H 922.78 -2.56291 3.01879 0
M  V30 10272 H 923.954 -0.183836 4.60433 0
M  V30 10273 H 922.269 -0.324071 4.15137 0
M  V30 10274 H 924.866 -3.09767 4.35831 0
M  V30 10275 H 925.209 -3.21099 2.64955 0
M  V30 10276 H 925.742 -1.77637 3.55935 0
M  V30 10277 H 922.481 -1.05666 6.46927 0
M  V30 10278 H 922.001 -2.45071 5.47449 0
M  V30 10279 H 923.68 -2.2968 6.0486 0
M  V30 10280 N 923.813 -1.49104 -0.510467 0
M  V30 10281 C 924.723 -1.67792 -1.6396 0
M  V30 10282 C 925.739 -0.560454 -1.64727 0
M  V30 10283 O 926.915 -0.833985 -1.83321 0
M  V30 10284 C 923.98 -1.73154 -3.00364 0
M  V30 10285 C 923.041 -2.9667 -3.10299 0
M  V30 10286 C 922.274 -3.01767 -4.40196 0
M  V30 10287 O 922.497 -2.1472 -5.28443 0
M  V30 10288 O 921.431 -3.94137 -4.54906 0
M  V30 10289 H 925.257 -2.63428 -1.51126 0
M  V30 10290 H 922.842 -1.32734 -0.685719 0
M  V30 10291 H 924.724 -1.79089 -3.81451 0
M  V30 10292 H 923.399 -0.806952 -3.1348 0
M  V30 10293 H 922.306 -2.96257 -2.28435 0
M  V30 10294 H 923.639 -3.88578 -3.02106 0
M  V30 10295 N 925.291 0.760815 -1.38019 0
M  V30 10296 C 926.224 1.88212 -1.2904 0
M  V30 10297 C 927.202 1.61721 -0.168805 0
M  V30 10298 O 928.386 1.85318 -0.344893 0
M  V30 10299 C 925.513 3.23672 -0.997702 0
M  V30 10300 C 924.559 3.6906 -2.13769 0
M  V30 10301 S 925.392 3.81445 -3.75845 0
M  V30 10302 C 926.548 5.19736 -3.48748 0
M  V30 10303 H 926.781 1.95541 -2.23944 0
M  V30 10304 H 924.314 0.923051 -1.2377 0
M  V30 10305 H 926.272 4.01904 -0.835657 0
M  V30 10306 H 924.933 3.14031 -0.065967 0
M  V30 10307 H 924.126 4.67295 -1.88816 0
M  V30 10308 H 923.728 2.97961 -2.26043 0
M  V30 10309 H 926.02 6.05259 -3.04414 0
M  V30 10310 H 926.963 5.49706 -4.46351 0
M  V30 10311 H 927.371 4.88191 -2.83425 0
M  V30 10312 N 926.769 1.22769 0.988202 0
M  V30 10313 C 927.679 1.01844 2.11341 0
M  V30 10314 C 928.695 -0.0346937 1.73965 0
M  V30 10315 O 929.871 0.159061 2.00771 0
M  V30 10316 C 926.936 0.603837 3.41401 0
M  V30 10317 C 925.997 1.73113 3.92849 0
M  V30 10318 C 925.23 1.33621 5.16702 0
M  V30 10319 O 925.453 0.217041 5.69987 0
M  V30 10320 O 924.387 2.15444 5.62021 0
M  V30 10321 H 928.213 1.96127 2.31879 0
M  V30 10322 H 925.798 1.01405 1.09715 0
M  V30 10323 H 927.68 0.383196 4.19654 0
M  V30 10324 H 926.355 -0.310082 3.22211 0
M  V30 10325 H 925.262 2.00634 3.15748 0
M  V30 10326 H 926.595 2.62308 4.1648 0
M  V30 10327 N 928.247 -1.18576 1.03814 0
M  V30 10328 C 929.179 -2.21607 0.585055 0
M  V30 10329 C 930.192 -1.59125 -0.343963 0
M  V30 10330 O 931.381 -1.77959 -0.138882 0
M  V30 10331 C 928.481 -3.38495 -0.165602 0
M  V30 10332 C 927.654 -4.30557 0.770662 0
M  V30 10333 C 926.713 -5.26161 0.0637534 0
M  V30 10334 O 925.739 -5.64961 0.693359 0
M  V30 10335 N 926.941 -5.67882 -1.20377 0
M  V30 10336 H 929.706 -2.61104 1.47121 0
M  V30 10337 H 927.267 -1.33336 0.918316 0
M  V30 10338 H 929.259 -3.99474 -0.648292 0
M  V30 10339 H 927.829 -2.97711 -0.953268 0
M  V30 10340 H 927.049 -3.67221 1.43326 0
M  V30 10341 H 928.337 -4.88969 1.40667 0
M  V30 10342 H 927.735 -5.38409 -1.73586 0
M  V30 10343 H 926.292 -6.31069 -1.63079 0
M  V30 10344 N 929.725 -0.817259 -1.34754 0
M  V30 10345 C 930.657 -0.192695 -2.28389 0
M  V30 10346 C 931.67 0.614167 -1.50771 0
M  V30 10347 O 932.859 0.444776 -1.7287 0
M  V30 10348 C 929.959 0.748929 -3.30521 0
M  V30 10349 C 929.132 -0.0138762 -4.37398 0
M  V30 10350 C 928.191 0.847825 -5.19325 0
M  V30 10351 O 927.217 0.29487 -5.68436 0
M  V30 10352 N 928.419 2.16843 -5.38479 0
M  V30 10353 H 931.184 -0.997122 -2.82626 0
M  V30 10354 H 928.745 -0.673696 -1.47217 0
M  V30 10355 H 930.737 1.32987 -3.82226 0
M  V30 10356 H 929.307 1.45412 -2.7672 0
M  V30 10357 H 928.527 -0.776093 -3.86485 0
M  V30 10358 H 929.815 -0.539191 -5.05935 0
M  V30 10359 H 929.213 2.64148 -5.00242 0
M  V30 10360 H 927.77 2.69835 -5.93323 0
M  V30 10361 N 931.203 1.46865 -0.571711 0
M  V30 10362 C 932.15 2.30189 0.167808 0
M  V30 10363 C 933.12 1.3995 0.89461 0
M  V30 10364 O 934.305 1.68905 0.887451 0
M  V30 10365 C 931.445 3.24205 1.1826 0
M  V30 10366 C 930.558 4.2954 0.460376 0
M  V30 10367 C 929.693 5.10693 1.46173 0
M  V30 10368 C 928.732 6.07788 0.725291 0
M  V30 10369 N 927.869 6.81847 1.67417 0
M  V30 10370 H 932.709 2.92902 -0.548831 0
M  V30 10371 H 930.246 1.44362 -0.282474 0
M  V30 10372 H 932.204 3.77147 1.7837 0
M  V30 10373 H 930.834 2.63324 1.86709 0
M  V30 10374 H 929.886 3.79541 -0.255546 0
M  V30 10375 H 931.198 4.98665 -0.115855 0
M  V30 10376 H 930.352 5.67857 2.13595 0
M  V30 10377 H 929.091 4.41502 2.07188 0
M  V30 10378 H 928.096 5.49787 0.037228 0
M  V30 10379 H 929.321 6.78993 0.120678 0
M  V30 10380 H 927.267 6.15376 2.27263 0
M  V30 10381 H 927.184 7.47195 1.15046 0
M  V30 10382 H 928.452 7.43577 2.33908 0
M  V30 10383 N 932.681 0.308908 1.54543 0
M  V30 10384 C 933.911 -0.299983 2.04411 0
M  V30 10385 C 934.319 -1.47463 1.18538 0
M  V30 10386 O 933.662 -1.82547 0.205463 0
M  V30 10387 C 933.724 -0.811579 3.50219 0
M  V30 10388 C 933.388 0.238834 4.56375 0
M  V30 10389 C 934.385 1.06997 5.08771 0
M  V30 10390 C 932.07 0.382808 5.00839 0
M  V30 10391 C 934.064 2.03096 6.04178 0
M  V30 10392 C 931.751 1.34723 5.96065 0
M  V30 10393 C 932.749 2.16978 6.47618 0
M  V30 10394 O 932.437 3.11783 7.40977 0
M  V30 10395 H 932.169 -0.0679682 0.672574 0
M  V30 10396 H 934.723 0.448815 2.00437 0
M  V30 10397 H 932.953 -1.61104 3.51543 0
M  V30 10398 H 934.642 -1.33721 3.83241 0
M  V30 10399 H 935.408 0.969654 4.75208 0
M  V30 10400 H 931.287 -0.247507 4.60335 0
M  V30 10401 H 934.831 2.67338 6.44342 0
M  V30 10402 H 930.728 1.44824 6.29044 0
M  V30 10403 H 931.496 3.06853 7.58804 0
M  V30 10404 N 934.159 -1.57557 0.0367827 0
M  V30 10405 C 935.407 -1.91735 -0.63892 0
M  V30 10406 C 935.728 -0.914515 -1.72226 0
M  V30 10407 O 934.998 0.0428248 -1.95853 0
M  V30 10408 H 933.578 -0.707738 -0.23899 0
M  V30 10409 H 936.24 -1.94708 0.0863931 0
M  V30 10410 H 935.336 -2.92568 -1.08676 0
M  V30 10411 N 935.637 0.236453 -1.55816 0
M  V30 10412 C 936.57 1.3196 -1.86177 0
M  V30 10413 C 937.548 1.459 -0.717769 0
M  V30 10414 O 938.732 1.61949 -0.964606 0
M  V30 10415 C 935.859 2.69183 -2.05568 0
M  V30 10416 C 934.905 2.72338 -3.28229 0
M  V30 10417 S 935.738 2.27898 -4.84585 0
M  V30 10418 C 936.894 3.67025 -5.06994 0
M  V30 10419 H 937.127 1.06011 -2.77757 0
M  V30 10420 H 934.66 0.437961 -1.48058 0
M  V30 10421 H 936.618 3.48191 -2.17423 0
M  V30 10422 H 935.279 2.92365 -1.14811 0
M  V30 10423 H 934.472 3.7314 -3.38795 0
M  V30 10424 H 934.074 2.01382 -3.15153 0
M  V30 10425 H 936.366 4.62604 -4.94979 0
M  V30 10426 H 937.309 3.61385 -6.08939 0
M  V30 10427 H 937.717 3.60022 -4.34792 0
M  V30 10428 N 937.115 1.49373 0.502552 0
M  V30 10429 C 938.025 1.68659 1.63068 0
M  V30 10430 C 939.041 0.569182 1.64427 0
M  V30 10431 O 940.217 0.843695 1.82876 0
M  V30 10432 C 937.282 1.74745 2.99441 0
M  V30 10433 C 936.343 2.98311 3.08721 0
M  V30 10434 C 935.576 3.04097 4.38589 0
M  V30 10435 O 935.799 2.17519 5.27297 0
M  V30 10436 O 934.733 3.96544 4.52809 0
M  V30 10437 H 938.559 2.64226 1.49727 0
M  V30 10438 H 936.144 1.33096 0.67867 0
M  V30 10439 H 938.026 1.8111 3.80496 0
M  V30 10440 H 936.701 0.823565 3.13048 0
M  V30 10441 H 935.608 2.97465 2.2686 0
M  V30 10442 H 936.941 3.90174 3.00041 0
M  V30 10443 N 938.594 -0.753485 1.38421 0
M  V30 10444 C 939.541 -1.86723 1.35659 0
M  V30 10445 C 940.511 -1.64648 0.219121 0
M  V30 10446 O 941.696 -1.86313 0.411366 0
M  V30 10447 C 938.836 -3.24023 1.18758 0
M  V30 10448 C 937.949 -3.57928 2.41892 0
M  V30 10449 C 937.084 -4.84532 2.17721 0
M  V30 10450 C 936.123 -5.11224 3.36626 0
M  V30 10451 N 935.26 -6.29023 3.11889 0
M  V30 10452 H 940.1 -1.88419 2.30873 0
M  V30 10453 H 937.637 -0.920934 1.14705 0
M  V30 10454 H 939.595 -4.03252 1.06974 0
M  V30 10455 H 938.225 -3.21654 0.27182 0
M  V30 10456 H 937.277 -2.73541 2.64347 0
M  V30 10457 H 938.589 -3.73581 3.30513 0
M  V30 10458 H 937.743 -5.71704 2.03074 0
M  V30 10459 H 936.482 -4.71018 1.26465 0
M  V30 10460 H 935.487 -4.2252 3.51791 0
M  V30 10461 H 936.712 -5.26635 4.28757 0
M  V30 10462 H 934.658 -6.16832 2.2328 0
M  V30 10463 H 934.575 -6.45177 3.9406 0
M  V30 10464 H 935.843 -7.19083 3.00898 0
M  V30 10465 N 940.072 -1.23292 -0.981677 0
M  V30 10466 C 941.002 -1.03738 -2.09191 0
M  V30 10467 C 941.983 0.0453041 -1.7004 0
M  V30 10468 O 943.168 -0.119092 -1.93834 0
M  V30 10469 C 940.298 -0.626426 -3.41604 0
M  V30 10470 C 939.252 -1.65631 -3.94652 0
M  V30 10471 C 938.578 -1.10084 -5.23245 0
M  V30 10472 C 939.878 -3.04903 -4.24066 0
M  V30 10473 H 941.572 -1.966 -2.25807 0
M  V30 10474 H 939.118 -0.946656 -1.0851 0
M  V30 10475 H 941.071 -0.476689 -4.18695 0
M  V30 10476 H 939.795 0.337873 -3.24848 0
M  V30 10477 H 938.454 -1.79402 -3.19704 0
M  V30 10478 H 938.102 -0.127562 -5.02838 0
M  V30 10479 H 937.802 -1.78896 -5.59705 0
M  V30 10480 H 939.326 -0.962928 -6.02959 0
M  V30 10481 H 940.74 -2.94441 -4.91912 0
M  V30 10482 H 939.137 -3.70941 -4.71724 0
M  V30 10483 H 940.207 -3.53991 -3.31389 0
M  V30 10484 N 941.55 1.18024 -1.04442 0
M  V30 10485 C 942.498 2.23834 -0.632557 0
M  V30 10486 C 943.492 1.65902 0.342488 0
M  V30 10487 O 944.698 1.78778 0.20937 0
M  V30 10488 H 941.073 0.728544 -0.186353 0
M  V30 10489 H 943.044 2.55876 -1.53526 0
M  V30 10490 C 941.793 3.47697 -0.0153661 0
M  V30 10491 H 941.116 3.92574 -0.756704 0
M  V30 10492 H 942.556 4.23345 0.235541 0
M  V30 10493 C 941.015 3.13416 1.23579 0
M  V30 10494 O 941.545 3.27499 2.3261 0
M  V30 10495 N 939.751 2.67708 1.13053 0
M  V30 10496 H 939.298 2.56449 0.243277 0
M  V30 10497 H 939.256 2.45143 1.96855 0
M  V30 10498 N 943.028 0.824394 1.34319 0
M  V30 10499 C 943.975 0.245282 2.29493 0
M  V30 10500 C 944.945 -0.630762 1.53657 0
M  V30 10501 O 946.13 -0.572094 1.82021 0
M  V30 10502 C 943.27 -0.585631 3.40095 0
M  V30 10503 C 942.383 0.312821 4.30866 0
M  V30 10504 C 941.518 -0.527801 5.28571 0
M  V30 10505 C 940.557 0.369946 6.10981 0
M  V30 10506 N 939.694 -0.43169 7.00772 0
M  V30 10507 H 944.534 1.06225 2.78425 0
M  V30 10508 H 942.071 0.53533 1.37013 0
M  V30 10509 H 944.029 -1.08271 4.02906 0
M  V30 10510 H 942.659 -1.3677 2.92393 0
M  V30 10511 H 941.711 0.928129 3.68904 0
M  V30 10512 H 943.023 1.00306 4.8861 0
M  V30 10513 H 942.177 -1.0893 5.96841 0
M  V30 10514 H 940.916 -1.25154 4.71368 0
M  V30 10515 H 939.921 0.943577 5.41643 0
M  V30 10516 H 941.146 1.09182 6.70266 0
M  V30 10517 H 939.092 -1.13908 6.46035 0
M  V30 10518 H 939.009 0.200133 7.55735 0
M  V30 10519 H 940.277 -0.975894 7.73367 0
M  V30 10520 N 944.506 -1.46559 0.579492 0
M  V30 10521 C 945.439 -2.27287 -0.203894 0
M  V30 10522 C 946.417 -1.3543 -0.899865 0
M  V30 10523 O 947.601 -1.64836 -0.914398 0
M  V30 10524 C 944.728 -3.13077 -1.2923 0
M  V30 10525 C 943.774 -4.20675 -0.702505 0
M  V30 10526 S 944.607 -5.3345 0.468136 0
M  V30 10527 C 945.763 -6.22806 -0.621544 0
M  V30 10528 H 945.996 -2.93382 0.481083 0
M  V30 10529 H 943.529 -1.49992 0.366311 0
M  V30 10530 H 945.487 -3.63069 -1.91548 0
M  V30 10531 H 944.148 -2.46302 -1.94921 0
M  V30 10532 H 943.341 -4.80516 -1.52053 0
M  V30 10533 H 942.943 -3.73678 -0.155046 0
M  V30 10534 H 945.235 -6.60503 -1.50803 0
M  V30 10535 H 946.178 -7.08075 -0.059961 0
M  V30 10536 H 946.586 -5.56882 -0.924242 0
M  V30 10537 N 945.984 -0.3171 -1.54377 0
M  V30 10538 C 947.23 0.287836 -2.00747 0
M  V30 10539 C 947.563 1.52292 -1.20502 0
M  V30 10540 O 946.838 1.92391 -0.285626 0
M  V30 10541 C 947.121 0.628423 -3.54574 0
M  V30 10542 C 946.974 -0.616922 -4.45549 0
M  V30 10543 C 948.293 1.44862 -4.15575 0
M  V30 10544 H 945.412 0.103144 -0.729747 0
M  V30 10545 H 948.054 -0.432396 -1.85014 0
M  V30 10546 H 946.204 1.24203 -3.68111 0
M  V30 10547 H 947.876 -1.25526 -4.43893 0
M  V30 10548 H 946.119 -1.24706 -4.15489 0
M  V30 10549 H 946.79 -0.334243 -5.50987 0
M  V30 10550 H 949.266 0.930015 -4.05574 0
M  V30 10551 H 948.142 1.6557 -5.23333 0
M  V30 10552 H 948.403 2.44279 -3.68484 0
M  V30 10553 N 947.462 1.57535 -0.0451378 0
M  V30 10554 C 948.372 2.14653 0.946646 0
M  V30 10555 C 949.388 1.10279 1.3459 0
M  V30 10556 O 950.564 1.42417 1.42405 0
M  V30 10557 C 947.629 2.67533 2.20515 0
M  V30 10558 C 946.69 3.86682 1.86481 0
M  V30 10559 C 945.923 4.37031 3.06332 0
M  V30 10560 O 946.146 3.86481 4.1951 0
M  V30 10561 O 945.08 5.28691 2.87697 0
M  V30 10562 H 948.906 2.99706 0.49091 0
M  V30 10563 H 946.491 1.48355 0.17641 0
M  V30 10564 H 948.373 3.01542 2.94365 0
M  V30 10565 H 947.048 1.85554 2.65238 0
M  V30 10566 H 945.955 3.57573 1.09966 0
M  V30 10567 H 947.288 4.69873 1.46562 0
M  V30 10568 N 948.94 -0.228186 1.55939 0
M  V30 10569 C 949.888 -1.30239 1.92719 0
M  V30 10570 C 950.882 -1.48865 0.808424 0
M  V30 10571 O 952.088 -1.50118 0.993204 0
M  V30 10572 H 948.463 -0.436509 0.612343 0
M  V30 10573 H 950.434 -0.964965 2.82367 0
M  V30 10574 C 949.183 -2.647 2.25453 0
M  V30 10575 H 948.506 -2.51173 3.1105 0
M  V30 10576 H 949.946 -3.38691 2.55077 0
M  V30 10577 C 948.405 -3.1921 1.07734 0
M  V30 10578 O 948.935 -4.00301 0.335019 0
M  V30 10579 N 947.141 -2.77492 0.862938 0
M  V30 10580 H 946.688 -2.11657 1.4683 0
M  V30 10581 H 946.646 -3.14306 0.0770119 0
M  V30 10582 N 950.418 -1.49637 -0.494624 0
M  V30 10583 C 951.667 -1.58691 -1.24499 0
M  V30 10584 C 951.98 -0.281763 -1.9356 0
M  V30 10585 O 953.186 -0.250925 -2.70338 0
M  V30 10586 C 951.642 -2.8002 -2.26091 0
M  V30 10587 C 951.25 -4.17318 -1.6294 0
M  V30 10588 C 952.994 -2.98407 -3.01916 0
M  V30 10589 C 950.901 -5.29862 -2.62679 0
M  V30 10590 H 949.831 -0.590888 -0.468367 0
M  V30 10591 H 952.482 -1.76034 -0.518112 0
M  V30 10592 H 950.864 -2.56185 -3.01969 0
M  V30 10593 H 952.038 -4.51315 -0.930108 0
M  V30 10594 H 950.353 -4.04342 -0.994819 0
M  V30 10595 H 952.95 -3.79658 -3.76516 0
M  V30 10596 H 953.293 -2.09214 -3.5991 0
M  V30 10597 H 953.826 -3.22312 -2.33152 0
M  V30 10598 H 950.565 -6.21134 -2.09458 0
M  V30 10599 H 950.085 -5.00311 -3.3083 0
M  V30 10600 H 951.764 -5.59461 -3.2498 0
M  V30 10601 N 951.896 0.746133 -1.38819 0
M  V30 10602 C 952.843 1.86001 -1.36647 0
M  V30 10603 C 953.813 1.6453 -0.227849 0
M  V30 10604 O 954.998 1.86092 -0.421241 0
M  V30 10605 C 952.138 3.23388 -1.20474 0
M  V30 10606 C 951.251 3.5664 -2.43786 0
M  V30 10607 C 950.386 4.8337 -2.20287 0
M  V30 10608 C 949.425 5.09431 -3.39332 0
M  V30 10609 N 948.562 6.2736 -3.1522 0
M  V30 10610 H 953.402 1.87192 -2.31869 0
M  V30 10611 H 950.939 0.914838 -1.15192 0
M  V30 10612 H 952.897 4.02679 -1.09112 0
M  V30 10613 H 951.527 3.21505 -0.288874 0
M  V30 10614 H 950.579 2.72135 -2.65794 0
M  V30 10615 H 951.891 3.71823 -3.3249 0
M  V30 10616 H 951.045 5.70619 -2.06103 0
M  V30 10617 H 949.784 4.70341 -1.28961 0
M  V30 10618 H 948.789 4.20648 -3.54027 0
M  V30 10619 H 950.014 5.24354 -4.31544 0
M  V30 10620 H 947.96 6.15639 -2.26549 0
M  V30 10621 H 947.877 6.43078 -3.97476 0
M  V30 10622 H 949.145 7.17477 -3.04707 0
M  V30 10623 N 953.375 1.23811 0.975125 0
M  V30 10624 C 954.322 1.02394 2.06843 0
M  V30 10625 C 955.292 -0.060337 1.6599 0
M  V30 10626 O 956.477 0.0928187 1.90574 0
M  V30 10627 C 953.617 0.626882 3.39359 0
M  V30 10628 C 952.73 1.78385 3.9345 0
M  V30 10629 C 951.865 1.33307 5.14201 0
M  V30 10630 C 950.904 2.46045 5.60471 0
M  V30 10631 N 950.041 2.01888 6.72448 0
M  V30 10632 H 954.881 1.95973 2.24496 0
M  V30 10633 H 952.418 0.976206 1.10039 0
M  V30 10634 H 954.376 0.377742 4.15486 0
M  V30 10635 H 953.006 -0.271907 3.21653 0
M  V30 10636 H 952.058 2.14685 3.14029 0
M  V30 10637 H 953.37 2.63122 4.23755 0
M  V30 10638 H 952.524 1.04237 5.97678 0
M  V30 10639 H 951.263 0.456143 4.85562 0
M  V30 10640 H 950.268 2.75884 4.75571 0
M  V30 10641 H 951.493 3.34283 5.91127 0
M  V30 10642 H 949.439 1.16583 6.45558 0
M  V30 10643 H 949.356 2.80182 7.02164 0
M  V30 10644 H 950.624 1.75937 7.59386 0
M  V30 10645 N 954.853 -1.17469 1.05066 0
M  V30 10646 C 956.102 -1.87032 0.755114 0
M  V30 10647 C 956.415 -1.81844 -0.720572 0
M  V30 10648 O 957.621 -2.46866 -1.13002 0
M  V30 10649 C 956.077 -3.35581 1.30052 0
M  V30 10650 C 955.685 -3.49274 2.80556 0
M  V30 10651 C 957.429 -4.1048 1.08196 0
M  V30 10652 C 955.336 -4.91838 3.28404 0
M  V30 10653 H 954.266 -0.70057 0.278779 0
M  V30 10654 H 956.917 -1.32663 1.26779 0
M  V30 10655 H 955.299 -3.89479 0.715667 0
M  V30 10656 H 956.473 -3.05598 3.44886 0
M  V30 10657 H 954.788 -2.87793 3.00939 0
M  V30 10658 H 957.385 -5.15652 1.41447 0
M  V30 10659 H 957.728 -4.16295 0.0196603 0
M  V30 10660 H 958.261 -3.62784 1.63195 0
M  V30 10661 H 955 -4.91196 4.34058 0
M  V30 10662 H 954.52 -5.36189 2.68815 0
M  V30 10663 H 956.199 -5.60602 3.23009 0
M  V30 10664 N 956.331 -0.831506 -1.3388 0
M  V30 10665 C 957.278 -0.257449 -2.2936 0
M  V30 10666 C 958.248 0.622604 -1.5399 0
M  V30 10667 O 959.433 0.562432 -1.82322 0
M  V30 10668 C 956.573 0.567587 -3.404 0
M  V30 10669 C 955.686 -0.335666 -4.30694 0
M  V30 10670 C 954.821 0.499762 -5.28844 0
M  V30 10671 C 953.86 -0.402343 -6.10776 0
M  V30 10672 N 952.997 0.39452 -7.00991 0
M  V30 10673 H 957.837 -1.077 -2.77857 0
M  V30 10674 H 955.374 -0.542589 -1.36727 0
M  V30 10675 H 957.332 1.06133 -4.03474 0
M  V30 10676 H 955.962 1.35217 -2.93115 0
M  V30 10677 H 955.014 -0.94768 -3.68406 0
M  V30 10678 H 956.326 -1.02896 -4.88072 0
M  V30 10679 H 955.48 1.05763 -5.9741 0
M  V30 10680 H 954.219 1.22652 -4.72025 0
M  V30 10681 H 953.224 -0.972288 -5.41135 0
M  V30 10682 H 954.449 -1.12735 -6.69677 0
M  V30 10683 H 952.395 1.1048 -6.4663 0
M  V30 10684 H 952.312 -0.240209 -7.55618 0
M  V30 10685 H 953.58 0.934867 -7.73874 0
M  V30 10686 N 957.809 1.4625 -0.587256 0
M  V30 10687 C 958.719 2.34147 0.145744 0
M  V30 10688 C 959.735 1.50026 0.881376 0
M  V30 10689 O 960.911 1.82884 0.843539 0
M  V30 10690 C 957.976 3.27294 1.14366 0
M  V30 10691 C 957.037 4.27317 0.412199 0
M  V30 10692 C 956.27 5.16013 1.36257 0
M  V30 10693 O 956.493 5.0773 2.59934 0
M  V30 10694 O 955.427 5.95569 0.870681 0
M  V30 10695 H 959.253 2.98187 -0.576055 0
M  V30 10696 H 956.838 1.45299 -0.347628 0
M  V30 10697 H 958.72 3.84747 1.71894 0
M  V30 10698 H 957.395 2.65845 1.84684 0
M  V30 10699 H 956.302 3.73538 -0.205036 0
M  V30 10700 H 957.635 4.91564 -0.250104 0
M  V30 10701 N 959.287 0.325282 1.54207 0
M  V30 10702 C 960.235 -0.5554 2.25872 0
M  V30 10703 C 961.229 -1.11714 1.27344 0
M  V30 10704 O 962.435 -1.06498 1.45115 0
M  V30 10705 H 958.81 -0.19776 0.725531 0
M  V30 10706 H 960.781 0.0712858 2.98315 0
M  V30 10707 C 959.53 -1.70379 3.03095 0
M  V30 10708 H 958.853 -1.2808 3.78729 0
M  V30 10709 H 960.293 -2.29556 3.56483 0
M  V30 10710 C 958.752 -2.62242 2.11496 0
M  V30 10711 O 959.282 -3.64003 1.69895 0
M  V30 10712 N 957.488 -2.30515 1.7695 0
M  V30 10713 H 957.035 -1.47805 2.10978 0
M  V30 10714 H 956.993 -2.92241 1.15942 0
M  V30 10715 N 960.765 -1.57509 0.0534917 0
M  V30 10716 C 962.014 -1.91959 -0.619244 0
M  V30 10717 C 962.327 -0.933882 -1.71866 0
M  V30 10718 O 963.533 -1.17052 -2.44972 0
M  V30 10719 C 961.989 -3.40938 -1.15278 0
M  V30 10720 C 961.597 -4.47919 -0.085348 0
M  V30 10721 C 963.341 -3.84419 -1.80063 0
M  V30 10722 C 961.248 -5.88014 -0.631897 0
M  V30 10723 H 960.178 -0.71642 -0.235072 0
M  V30 10724 H 962.829 -1.83089 0.122758 0
M  V30 10725 H 961.211 -3.44821 -1.94717 0
M  V30 10726 H 962.385 -4.55629 0.688374 0
M  V30 10727 H 960.7 -4.13793 0.465178 0
M  V30 10728 H 963.297 -4.86457 -2.21954 0
M  V30 10729 H 963.64 -3.20791 -2.65328 0
M  V30 10730 H 964.173 -3.83062 -1.07275 0
M  V30 10731 H 960.912 -6.55244 0.183175 0
M  V30 10732 H 960.432 -5.83861 -1.37355 0
M  V30 10733 H 962.111 -6.37336 -1.11407 0
M  V30 10734 N 962.243 0.219913 -1.56058 0
M  V30 10735 C 963.153 1.29349 -1.95719 0
M  V30 10736 C 964.169 1.5119 -0.861248 0
M  V30 10737 O 965.345 1.64289 -1.16495 0
M  V30 10738 C 962.41 2.6229 -2.26726 0
M  V30 10739 C 961.471 2.48738 -3.49897 0
M  V30 10740 C 960.704 3.75339 -3.79416 0
M  V30 10741 O 960.927 4.78427 -3.10586 0
M  V30 10742 O 959.861 3.72352 -4.72903 0
M  V30 10743 H 963.687 0.986979 -2.87215 0
M  V30 10744 H 961.272 0.42291 -1.43289 0
M  V30 10745 H 963.154 3.408 -2.47857 0
M  V30 10746 H 961.829 2.92619 -1.38404 0
M  V30 10747 H 960.736 1.68422 -3.34043 0
M  V30 10748 H 962.069 2.23347 -4.38608 0
M  V30 10749 N 963.721 1.49897 0.486681 0
M  V30 10750 C 964.668 1.67619 1.58658 0
M  V30 10751 C 965.638 0.517537 1.57831 0
M  V30 10752 O 966.823 0.746272 1.756 0
M  V30 10753 C 963.963 1.762 2.96728 0
M  V30 10754 C 963.076 3.03465 3.07462 0
M  V30 10755 C 962.211 3.02937 4.36351 0
M  V30 10756 C 961.25 4.24721 4.4077 0
M  V30 10757 N 960.387 4.22021 5.61108 0
M  V30 10758 H 965.227 2.61528 1.42853 0
M  V30 10759 H 962.764 1.29657 0.694807 0
M  V30 10760 H 964.722 1.79156 3.76774 0
M  V30 10761 H 963.352 0.857452 3.11203 0
M  V30 10762 H 962.404 3.10054 2.20387 0
M  V30 10763 H 963.716 3.93454 3.06586 0
M  V30 10764 H 962.87 3.04536 5.24731 0
M  V30 10765 H 961.609 2.10751 4.39813 0
M  V30 10766 H 960.614 4.23352 3.5079 0
M  V30 10767 H 961.839 5.18116 4.39013 0
M  V30 10768 H 959.785 3.3268 5.65385 0
M  V30 10769 H 959.702 5.05761 5.61909 0
M  V30 10770 H 960.97 4.27743 6.51656 0
M  V30 10771 N 965.199 -0.738761 1.39212 0
M  V30 10772 C 966.146 -1.85273 1.37631 0
M  V30 10773 C 967.116 -1.64407 0.236572 0
M  V30 10774 O 968.301 -1.85866 0.431104 0
M  V30 10775 C 965.441 -3.22745 1.22188 0
M  V30 10776 C 964.554 -3.55342 2.45674 0
M  V30 10777 C 963.689 -4.82195 2.22847 0
M  V30 10778 C 962.728 -5.07625 3.42029 0
M  V30 10779 N 961.865 -6.25679 3.18543 0
M  V30 10780 H 966.705 -1.85959 2.32859 0
M  V30 10781 H 964.242 -0.908716 1.15675 0
M  V30 10782 H 966.2 -4.02095 1.11245 0
M  V30 10783 H 964.83 -3.21347 0.30592 0
M  V30 10784 H 963.882 -2.70722 2.67233 0
M  V30 10785 H 965.194 -3.70054 3.34457 0
M  V30 10786 H 964.348 -5.69518 2.09126 0
M  V30 10787 H 963.087 -4.6965 1.31454 0
M  V30 10788 H 962.092 -4.18765 3.56253 0
M  V30 10789 H 963.317 -5.22058 4.34319 0
M  V30 10790 H 961.263 -6.14429 2.2981 0
M  V30 10791 H 961.18 -6.40961 4.0088 0
M  V30 10792 H 962.448 -7.15851 3.08508 0
M  V30 10793 N 966.677 -1.24326 -0.968545 0
M  V30 10794 C 968.088 -1.07561 -1.52603 0
M  V30 10795 C 968.439 0.353245 -1.92994 0
M  V30 10796 O 967.564 1.24151 -1.77244 0
M  V30 10797 C 968.159 -1.94634 -2.77314 0
M  V30 10798 C 966.718 -1.82095 -3.29421 0
M  V30 10799 C 965.865 -1.8962 -2.02335 0
M  V30 10800 H 968.816 -1.37815 -0.786932 0
M  V30 10801 H 968.837 -1.47812 -3.50616 0
M  V30 10802 H 968.349 -2.98621 -2.47885 0
M  V30 10803 H 966.45 -0.809376 -3.63703 0
M  V30 10804 H 966.563 -2.66142 -3.98378 0
M  V30 10805 H 964.927 -1.33339 -2.17009 0
M  V30 10806 H 965.71 -2.95185 -1.75273 0
M  V30 10807 N 968.156 1.1691 -1.05688 0
M  V30 10808 C 969.567 1.68915 -0.795273 0
M  V30 10809 C 969.918 1.83968 0.681925 0
M  V30 10810 O 969.043 1.53083 1.52953 0
M  V30 10811 C 969.638 3.06814 -1.43703 0
M  V30 10812 C 968.197 3.55965 -1.22335 0
M  V30 10813 C 967.344 2.32099 -1.51741 0
M  V30 10814 H 970.295 1.01357 -1.22116 0
M  V30 10815 H 970.316 3.70907 -0.849016 0
M  V30 10816 H 969.828 2.95826 -2.51214 0
M  V30 10817 H 967.929 3.72222 -0.16771 0
M  V30 10818 H 968.042 4.38427 -1.9318 0
M  V30 10819 H 966.406 2.36811 -0.937696 0
M  V30 10820 H 967.189 2.23715 -2.60397 0
M  V30 10821 N 969.634 0.838594 1.33437 0
M  V30 10822 C 970.581 0.269609 2.2922 0
M  V30 10823 C 971.551 -0.614429 1.54318 0
M  V30 10824 O 972.736 -0.552756 1.82618 0
M  V30 10825 C 969.876 -0.549527 3.40697 0
M  V30 10826 C 968.989 0.358502 4.3051 0
M  V30 10827 C 968.124 -0.471709 5.29101 0
M  V30 10828 C 967.163 0.434728 6.10554 0
M  V30 10829 N 966.3 -0.357339 7.0119 0
M  V30 10830 H 971.14 1.09172 2.77282 0
M  V30 10831 H 968.677 0.549832 1.36438 0
M  V30 10832 H 970.635 -1.03992 4.04032 0
M  V30 10833 H 969.265 -1.33661 2.93828 0
M  V30 10834 H 968.317 0.967204 3.67899 0
M  V30 10835 H 969.629 1.05483 4.87519 0
M  V30 10836 H 968.783 -1.02594 5.97963 0
M  V30 10837 H 967.522 -1.20147 4.72669 0
M  V30 10838 H 966.527 1.00097 5.40611 0
M  V30 10839 H 967.752 1.16285 6.6907 0
M  V30 10840 H 965.698 -1.07049 6.47207 0
M  V30 10841 H 965.615 0.280277 7.5548 0
M  V30 10842 H 966.883 -0.893814 7.74359 0
M  V30 10843 N 971.112 -1.45937 0.595003 0
M  V30 10844 C 972.36 -2.01921 0.0851368 0
M  V30 10845 C 972.681 -1.46748 -1.28413 0
M  V30 10846 O 971.951 -0.656873 -1.84559 0
M  V30 10847 H 970.531 -0.746457 0.0284826 0
M  V30 10848 H 973.193 -1.78891 0.773561 0
M  V30 10849 H 972.289 -3.1209 0.0254002 0
M  V30 10850 N 972.59 -0.333456 -1.54032 0
M  V30 10851 C 973.815 0.270517 -2.05628 0
M  V30 10852 C 974.24 1.44231 -1.20744 0
M  V30 10853 O 973.598 1.79975 -0.218822 0
M  V30 10854 C 973.646 0.673251 -3.54259 0
M  V30 10855 O 972.75 1.77448 -3.72271 0
M  V30 10856 H 972.091 0.0469753 -0.662336 0
M  V30 10857 H 974.621 -0.484739 -1.98775 0
M  V30 10858 H 974.631 0.953194 -3.96709 0
M  V30 10859 H 973.306 -0.183747 -4.15494 0
M  V30 10860 H 971.883 1.49259 -3.41725 0
M  V30 10861 N 974.068 1.57479 -0.061844 0
M  V30 10862 C 975.317 1.92285 0.609055 0
M  V30 10863 C 975.63 0.942983 1.71369 0
M  V30 10864 O 976.836 1.18349 2.44348 0
M  V30 10865 C 975.292 3.41545 1.13468 0
M  V30 10866 C 974.9 4.47958 0.0615926 0
M  V30 10867 C 976.644 3.85368 1.78022 0
M  V30 10868 C 974.551 5.88341 0.600705 0
M  V30 10869 H 973.481 0.717656 0.23127 0
M  V30 10870 H 976.132 1.83021 -0.132466 0
M  V30 10871 H 974.514 3.45848 1.92886 0
M  V30 10872 H 975.688 4.55258 -0.712527 0
M  V30 10873 H 974.003 4.13541 -0.487116 0
M  V30 10874 H 976.6 4.87627 2.19371 0
M  V30 10875 H 976.943 3.22193 2.63623 0
M  V30 10876 H 977.476 3.83626 1.05242 0
M  V30 10877 H 974.215 6.55138 -0.217922 0
M  V30 10878 H 973.735 5.84581 1.34257 0
M  V30 10879 H 975.414 6.37918 1.08025 0
M  V30 10880 N 975.546 -0.211634 1.56173 0
M  V30 10881 C 976.823 -0.959467 1.70451 0
M  V30 10882 C 977.203 -2.02036 0.611942 0
M  V30 10883 O 976.551 -2.25325 -0.37959 0
M  V30 10884 C 976.761 -1.56092 3.12148 0
M  V30 10885 C 978.109 -2.04939 3.71867 0
M  V30 10886 O 979.133 -1.65966 3.15172 0
M  V30 10887 O 977.992 -2.766 4.71333 0
M  V30 10888 H 975.086 -0.448844 0.6946 0
M  V30 10889 H 977.632 -0.202633 1.68486 0
M  V30 10890 H 976.404 -0.79538 3.83131 0
M  V30 10891 H 976.027 -2.38303 3.18273 0
M  V30 10892 N 977.024 -1.50153 -0.478725 0
M  V30 10893 C 978.273 -1.60002 -1.22809 0
M  V30 10894 C 978.586 -0.302277 -1.9325 0
M  V30 10895 O 979.792 -0.279583 -2.70057 0
M  V30 10896 C 978.248 -2.82402 -2.23108 0
M  V30 10897 C 977.856 -4.19023 -1.58505 0
M  V30 10898 C 979.6 -3.01593 -2.98734 0
M  V30 10899 C 977.507 -5.32618 -2.57045 0
M  V30 10900 H 976.437 -0.595822 -0.462073 0
M  V30 10901 H 979.088 -1.76573 -0.499412 0
M  V30 10902 H 977.47 -2.59373 -2.99235 0
M  V30 10903 H 978.644 -4.52277 -0.882187 0
M  V30 10904 H 976.959 -4.05374 -0.951877 0
M  V30 10905 H 979.556 -3.8363 -3.72468 0
M  V30 10906 H 979.899 -2.1302 -3.57671 0
M  V30 10907 H 980.432 -3.24766 -2.29721 0
M  V30 10908 H 977.171 -6.23321 -2.02858 0
M  V30 10909 H 976.691 -5.03792 -3.25505 0
M  V30 10910 H 978.37 -5.62877 -3.19028 0
M  V30 10911 N 978.502 0.731368 -1.39602 0
M  V30 10912 C 979.748 1.49321 -1.37227 0
M  V30 10913 C 980.081 1.94176 0.0306502 0
M  V30 10914 O 979.356 1.67046 0.996294 0
M  V30 10915 C 979.639 2.73035 -2.34784 0
M  V30 10916 C 979.492 2.34176 -3.84033 0
M  V30 10917 C 980.811 3.75146 -2.30116 0
M  V30 10918 H 977.93 0.541652 -0.499783 0
M  V30 10919 H 980.572 0.835968 -1.70621 0
M  V30 10920 H 978.722 3.29114 -2.06437 0
M  V30 10921 H 980.394 1.83701 -4.23145 0
M  V30 10922 H 978.637 1.66361 -4.00633 0
M  V30 10923 H 979.308 3.22786 -4.47787 0
M  V30 10924 H 981.784 3.28661 -2.55189 0
M  V30 10925 H 980.66 4.5937 -3.00451 0
M  V30 10926 H 980.921 4.22326 -1.30741 0
M  V30 10927 N 979.98 1.24838 0.961938 0
M  V30 10928 C 980.89 1.06304 2.09133 0
M  V30 10929 C 981.906 0.00221475 1.74 0
M  V30 10930 O 983.082 0.201611 2.00388 0
M  V30 10931 C 980.147 0.676117 3.40043 0
M  V30 10932 C 979.208 1.81407 3.89089 0
M  V30 10933 C 978.441 1.44551 5.13752 0
M  V30 10934 O 978.664 0.337894 5.69398 0
M  V30 10935 O 977.598 2.27316 5.57325 0
M  V30 10936 H 981.424 2.01001 2.27667 0
M  V30 10937 H 979.009 1.0371 1.07539 0
M  V30 10938 H 980.891 0.472124 4.18747 0
M  V30 10939 H 979.566 -0.241667 3.22797 0
M  V30 10940 H 978.473 2.07286 3.11421 0
M  V30 10941 H 979.806 2.71083 4.10822 0
M  V30 10942 N 981.458 -1.16348 1.06306 0
M  V30 10943 C 982.683 -1.91323 0.800636 0
M  V30 10944 C 983.108 -1.7691 -0.639105 0
M  V30 10945 O 982.466 -1.0945 -1.44535 0
M  V30 10946 C 982.514 -3.40038 1.20027 0
M  V30 10947 O 981.618 -4.11003 0.339142 0
M  V30 10948 H 980.959 -0.596057 0.292595 0
M  V30 10949 H 983.489 -1.47406 1.41889 0
M  V30 10950 H 983.499 -3.90808 1.17188 0
M  V30 10951 H 982.174 -3.49848 2.24898 0
M  V30 10952 H 980.751 -3.70423 0.42911 0
M  V30 10953 N 982.937 -0.845659 -1.3299 0
M  V30 10954 C 983.9 -0.288905 -2.27372 0
M  V30 10955 C 984.9 0.546263 -1.51237 0
M  V30 10956 O 986.09 0.359072 -1.70459 0
M  V30 10957 C 983.222 0.59224 -3.35716 0
M  V30 10958 H 984.415 -1.12181 -2.78128 0
M  V30 10959 H 981.968 -0.619276 -1.43508 0
M  V30 10960 H 982.703 1.44732 -2.90212 0
M  V30 10961 H 982.488 -0.00543255 -3.921 0
M  V30 10962 H 983.978 0.974848 -4.06062 0
M  V30 10963 N 984.415 1.45619 -0.602734 0
M  V30 10964 C 985.362 2.30493 0.118944 0
M  V30 10965 C 986.332 1.41816 0.864723 0
M  V30 10966 O 987.517 1.7075 0.851424 0
M  V30 10967 C 984.657 3.2664 1.11356 0
M  V30 10968 C 983.77 4.3042 0.369161 0
M  V30 10969 C 982.905 5.13678 1.35307 0
M  V30 10970 C 981.944 6.09189 0.596207 0
M  V30 10971 N 981.081 6.85245 1.52916 0
M  V30 10972 H 985.921 2.91672 -0.610836 0
M  V30 10973 H 983.458 1.43731 -0.313032 0
M  V30 10974 H 985.416 3.80846 1.7033 0
M  V30 10975 H 984.046 2.67225 1.81081 0
M  V30 10976 H 983.098 3.78913 -0.335994 0
M  V30 10977 H 984.41 4.98307 -0.221603 0
M  V30 10978 H 983.564 5.7226 2.01502 0
M  V30 10979 H 982.303 4.45798 1.97777 0
M  V30 10980 H 981.308 5.49743 -0.0793984 0
M  V30 10981 H 982.533 6.79096 -0.0233734 0
M  V30 10982 H 980.479 6.20058 2.14159 0
M  V30 10983 H 980.396 7.49467 0.991713 0
M  V30 10984 H 981.664 7.48371 2.18083 0
M  V30 10985 N 985.893 0.34162 1.53853 0
M  V30 10986 C 987.304 -0.14269 1.86154 0
M  V30 10987 C 987.655 -1.50151 1.2629 0
M  V30 10988 O 986.78 -2.08601 0.575735 0
M  V30 10989 C 987.375 -0.265691 3.37757 0
M  V30 10990 C 985.934 -0.694231 3.69942 0
M  V30 10991 C 985.081 0.173195 2.76759 0
M  V30 10992 H 988.032 0.561284 1.48443 0
M  V30 10993 H 988.053 -1.09352 3.64448 0
M  V30 10994 H 987.565 0.723424 3.81298 0
M  V30 10995 H 985.666 -1.69244 3.31945 0
M  V30 10996 H 985.779 -0.485461 4.76634 0
M  V30 10997 H 984.143 -0.35416 2.52226 0
M  V30 10998 H 984.926 1.15941 3.23129 0
M  V30 10999 N 987.371 -1.57444 0.0701946 0
M  V30 11000 C 988.787 -1.57009 -0.286431 0
M  V30 11001 C 988.987 -1.07946 -1.70147 0
M  V30 11002 O 988.043 -0.744622 -2.41271 0
M  V30 11003 C 989.356 -3.00542 -0.0975466 0
M  V30 11004 C 990.904 -3.12553 -0.167205 0
M  V30 11005 C 991.379 -4.58 -0.00662047 0
M  V30 11006 N 992.87 -4.63158 -0.0622778 0
M  V30 11007 C 993.605 -5.73388 0.0375831 0
M  V30 11008 N 993.101 -6.92537 0.190873 0
M  V30 11009 N 994.894 -5.62097 -0.0193672 0
M  V30 11010 H 987.045 -1.87651 0.995023 0
M  V30 11011 H 989.308 -0.865006 0.387902 0
M  V30 11012 H 989.014 -3.40543 0.878822 0
M  V30 11013 H 988.888 -3.67485 -0.850547 0
M  V30 11014 H 991.275 -2.72439 -1.13406 0
M  V30 11015 H 991.356 -2.48251 0.616871 0
M  V30 11016 H 991 -4.98803 0.956992 0
M  V30 11017 H 990.93 -5.20332 -0.810081 0
M  V30 11018 H 993.421 -3.77475 -0.179229 0
M  V30 11019 H 993.734 -7.72365 0.25926 0
M  V30 11020 H 992.079 -6.94632 0.226214 0
M  V30 11021 H 995.27 -4.67897 -0.137815 0
M  V30 11022 H 995.443 -6.4797 0.0619121 0
M  V30 11023 N 988.849 0.203349 -1.56283 0
M  V30 11024 C 989.797 1.27157 -1.94766 0
M  V30 11025 C 990.791 1.4756 -0.832005 0
M  V30 11026 O 991.997 1.48519 -1.01696 0
M  V30 11027 H 988.372 0.426712 -0.61921 0
M  V30 11028 H 990.343 0.919921 -2.83866 0
M  V30 11029 C 989.092 2.6108 -2.29636 0
M  V30 11030 H 988.415 2.46193 -3.15006 0
M  V30 11031 H 989.855 3.34591 -2.60433 0
M  V30 11032 C 988.314 3.17456 -1.12799 0
M  V30 11033 O 988.844 3.99717 -0.398661 0
M  V30 11034 N 987.05 2.76084 -0.906975 0
M  V30 11035 H 986.597 2.09294 -1.50179 0
M  V30 11036 H 986.555 3.14143 -0.127005 0
M  V30 11037 N 990.327 1.50405 0.470755 0
M  V30 11038 C 991.573 1.6165 1.22462 0
M  V30 11039 C 991.906 0.316034 1.91611 0
M  V30 11040 O 991.181 -0.682509 1.82132 0
M  V30 11041 C 991.464 2.79702 2.26801 0
M  V30 11042 C 991.317 4.19631 1.61955 0
M  V30 11043 C 992.636 2.93313 3.28109 0
M  V30 11044 H 989.755 0.588345 0.443868 0
M  V30 11045 H 992.397 1.82792 0.518376 0
M  V30 11046 H 990.547 2.61807 2.87036 0
M  V30 11047 H 992.219 4.49117 1.05316 0
M  V30 11048 H 990.462 4.23874 0.922674 0
M  V30 11049 H 991.133 4.98162 2.37779 0
M  V30 11050 H 993.609 3.09697 2.77897 0
M  V30 11051 H 992.485 3.77537 3.98443 0
M  V30 11052 H 992.746 2.03942 3.9225 0
M  V30 11053 N 991.805 -0.723954 1.39988 0
M  V30 11054 C 993.035 -1.51094 1.40905 0
M  V30 11055 C 993.443 -1.89199 0.00476744 0
M  V30 11056 O 992.786 -1.55398 -0.979646 0
M  V30 11057 C 992.848 -2.82114 2.22827 0
M  V30 11058 C 992.512 -2.66379 3.71337 0
M  V30 11059 C 993.509 -2.34192 4.64166 0
M  V30 11060 C 991.194 -2.82905 4.15054 0
M  V30 11061 C 993.188 -2.18729 5.98696 0
M  V30 11062 C 990.875 -2.67059 5.49657 0
M  V30 11063 C 991.873 -2.35018 6.41292 0
M  V30 11064 O 991.561 -2.19284 7.73414 0
M  V30 11065 H 991.293 -0.473142 0.482818 0
M  V30 11066 H 993.847 -0.901321 1.84568 0
M  V30 11067 H 992.077 -3.45377 1.7393 0
M  V30 11068 H 993.766 -3.43789 2.15787 0
M  V30 11069 H 994.532 -2.21065 4.31689 0
M  V30 11070 H 990.411 -3.06834 3.44055 0
M  V30 11071 H 993.955 -1.93641 6.70186 0
M  V30 11072 H 989.852 -2.79768 5.81722 0
M  V30 11073 H 990.62 -2.34269 7.84258 0
M  V30 11074 N 993.283 -1.25346 -0.955304 0
M  V30 11075 C 994.532 -1.0945 -1.69421 0
M  V30 11076 C 994.845 0.364459 -1.92175 0
M  V30 11077 O 996.051 0.643843 -2.63755 0
M  V30 11078 C 994.507 -1.91045 -3.05008 0
M  V30 11079 C 994.115 -3.41428 -2.90053 0
M  V30 11080 C 995.859 -1.83716 -3.82686 0
M  V30 11081 C 993.766 -4.1532 -4.21026 0
M  V30 11082 H 992.696 -0.405978 -0.635372 0
M  V30 11083 H 995.347 -1.49536 -1.06354 0
M  V30 11084 H 993.729 -1.43781 -3.68975 0
M  V30 11085 H 994.903 -3.9636 -2.35022 0
M  V30 11086 H 993.218 -3.49842 -2.25831 0
M  V30 11087 H 995.815 -2.36217 -4.79693 0
M  V30 11088 H 996.158 -0.804919 -4.08444 0
M  V30 11089 H 996.691 -2.28726 -3.25468 0
M  V30 11090 H 993.43 -5.18955 -4.00457 0
M  V30 11091 H 992.95 -3.65172 -4.75825 0
M  V30 11092 H 994.629 -4.22999 -4.89572 0
M  V30 11093 N 994.761 1.15782 -1.06922 0
M  V30 11094 C 995.671 2.24008 -0.696948 0
M  V30 11095 C 996.687 1.71569 0.289862 0
M  V30 11096 O 997.863 2.00929 0.137585 0
M  V30 11097 C 994.928 3.46568 -0.0957895 0
M  V30 11098 C 993.989 4.14017 -1.13528 0
M  V30 11099 C 993.222 5.30725 -0.562713 0
M  V30 11100 O 993.445 5.66992 0.62259 0
M  V30 11101 O 992.379 5.87572 -1.30549 0
M  V30 11102 H 996.205 2.58174 -1.59938 0
M  V30 11103 H 993.79 1.2342 -0.841889 0
M  V30 11104 H 995.672 4.20731 0.237407 0
M  V30 11105 H 994.347 3.14161 0.780027 0
M  V30 11106 H 993.254 3.41795 -1.52076 0
M  V30 11107 H 994.587 4.50493 -1.98285 0
M  V30 11108 N 996.239 0.8527 1.3254 0
M  V30 11109 C 997.487 0.454224 1.96929 0
M  V30 11110 C 997.808 -0.993034 1.67821 0
M  V30 11111 O 997.078 -1.69371 0.984393 0
M  V30 11112 H 995.658 0.164977 0.728554 0
M  V30 11113 H 998.32 1.0887 1.61658 0
M  V30 11114 H 997.416 0.597667 3.06324 0
M  V30 11115 N 997.718 -1.45297 0.610449 0
M  V30 11116 C 998.967 -2.0143 0.104323 0
M  V30 11117 C 999.28 -1.48431 -1.27388 0
M  V30 11118 O 1000.49 -1.96558 -1.87289 0
M  V30 11119 C 998.942 -3.59644 0.135812 0
M  V30 11120 C 998.55 -4.2164 1.51405 0
M  V30 11121 C 1000.29 -4.2333 -0.314922 0
M  V30 11122 C 998.201 -5.72015 1.50176 0
M  V30 11123 H 997.131 -0.753176 0.035233 0
M  V30 11124 H 999.782 -1.66738 0.7662 0
M  V30 11125 H 998.164 -3.91538 -0.592773 0
M  V30 11126 H 999.338 -4.01315 2.26457 0
M  V30 11127 H 997.653 -3.70159 1.90712 0
M  V30 11128 H 1000.25 -5.33597 -0.343335 0
M  V30 11129 H 1000.59 -3.94206 -1.33817 0
M  V30 11130 H 1001.13 -3.96163 0.360489 0
M  V30 11131 H 997.865 -6.05842 2.50271 0
M  V30 11132 H 997.385 -5.94523 0.793869 0
M  V30 11133 H 999.064 -6.35266 1.22665 0
M  V30 11134 N 999.196 -0.349774 -1.5367 0
M  V30 11135 C 1000.42 0.246038 -2.05432 0
M  V30 11136 C 1000.84 1.43719 -1.22435 0
M  V30 11137 O 1000.2 1.80622 -0.261166 0
M  V30 11138 C 1000.25 0.65501 -3.55516 0
M  V30 11139 O 999.968 -0.488782 -4.35365 0
M  V30 11140 C 1001.47 1.31088 -4.23475 0
M  V30 11141 H 998.689 0.0463952 -0.669394 0
M  V30 11142 H 1001.23 -0.503566 -1.98203 0
M  V30 11143 H 999.388 1.35455 -3.62947 0
M  V30 11144 H 999.802 -0.161528 -5.24251 0
M  V30 11145 H 1001.28 1.54774 -5.29857 0
M  V30 11146 H 1001.75 2.26636 -3.76208 0
M  V30 11147 H 1002.36 0.653211 -4.20254 0
M  V30 11148 N 1000.67 1.57404 -0.0785433 0
M  V30 11149 C 1001.92 1.94031 0.589896 0
M  V30 11150 C 1002.25 0.959297 1.68852 0
M  V30 11151 O 1001.53 -0.0103978 1.94497 0
M  V30 11152 C 1001.81 3.40886 1.16055 0
M  V30 11153 C 1001.66 4.49748 0.0681072 0
M  V30 11154 C 1002.98 3.88699 2.06401 0
M  V30 11155 H 1000.1 0.70556 0.212965 0
M  V30 11156 H 1002.74 1.89439 -0.145886 0
M  V30 11157 H 1000.89 3.4493 1.78761 0
M  V30 11158 H 1002.57 4.57823 -0.565318 0
M  V30 11159 H 1000.81 4.29625 -0.600431 0
M  V30 11160 H 1001.48 5.49658 0.507906 0
M  V30 11161 H 1003.96 3.86703 1.53622 0
M  V30 11162 H 1002.83 4.92052 2.43261 0
M  V30 11163 H 1003.09 3.2703 2.97496 0
M  V30 11164 N 1002.15 -0.195058 1.56388 0
M  V30 11165 C 1003.4 -0.915444 1.80626 0
M  V30 11166 C 1003.73 -1.83255 0.651768 0
M  V30 11167 O 1002.98 -1.92314 -0.362464 0
M  V30 11168 C 1003.28 -1.7637 3.10851 0
M  V30 11169 C 1002.95 -0.997572 4.39726 0
M  V30 11170 C 1001.61 -0.786043 4.74737 0
M  V30 11171 C 1003.96 -0.45851 5.19179 0
M  V30 11172 C 1001.29 -0.023972 5.86695 0
M  V30 11173 C 1003.64 0.29035 6.31933 0
M  V30 11174 C 1002.3 0.512895 6.65527 0
M  V30 11175 H 1001.57 -0.334985 0.660959 0
M  V30 11176 H 1004.22 -0.181815 1.90635 0
M  V30 11177 H 1002.53 -2.566 2.9608 0
M  V30 11178 H 1004.22 -2.3237 3.26811 0
M  V30 11179 H 1000.81 -1.17245 4.12252 0
M  V30 11180 H 1005 -0.609334 4.92545 0
M  V30 11181 H 1000.25 0.158421 6.11195 0
M  V30 11182 H 1004.43 0.715429 6.92715 0
M  V30 11183 H 1002.05 1.10531 7.52122 0
M  V30 11184 N 1003.63 -1.50653 -0.462772 0
M  V30 11185 C 1005.05 -1.38263 -0.797213 0
M  V30 11186 C 1005.25 -0.445172 -1.96521 0
M  V30 11187 O 1004.3 0.10913 -2.52264 0
M  V30 11188 C 1005.61 -2.798 -1.10146 0
M  V30 11189 C 1007.16 -2.88774 -1.20742 0
M  V30 11190 C 1007.64 -4.31163 -1.54476 0
M  V30 11191 N 1009.13 -4.34152 -1.61451 0
M  V30 11192 C 1009.86 -5.4133 -1.89074 0
M  V30 11193 N 1009.36 -6.58705 -2.1466 0
M  V30 11194 N 1011.15 -5.28783 -1.90645 0
M  V30 11195 H 1003.3 -2.10172 0.30684 0
M  V30 11196 H 1005.57 -0.945046 0.0747862 0
M  V30 11197 H 1005.27 -3.50276 -0.316207 0
M  V30 11198 H 1005.15 -3.17559 -2.03559 0
M  V30 11199 H 1007.53 -2.18512 -1.98334 0
M  V30 11200 H 1007.61 -2.54547 -0.252904 0
M  V30 11201 H 1007.26 -5.01965 -0.774207 0
M  V30 11202 H 1007.19 -4.62883 -2.51092 0
M  V30 11203 H 1009.68 -3.49519 -1.43684 0
M  V30 11204 H 1009.99 -7.36192 -2.35035 0
M  V30 11205 H 1008.34 -6.61866 -2.12035 0
M  V30 11206 H 1011.53 -4.36078 -1.70158 0
M  V30 11207 H 1011.7 -6.12396 -2.11836 0
M  V30 11208 N 1005.11 0.71652 -1.4037 0
M  V30 11209 C 1006.06 1.85194 -1.40734 0
M  V30 11210 C 1007.05 1.66934 -0.287969 0
M  V30 11211 O 1008.26 1.74051 -0.458957 0
M  V30 11212 H 1004.63 0.609922 -0.439885 0
M  V30 11213 H 1006.6 1.82003 -2.36468 0
M  V30 11214 C 1005.35 3.23048 -1.28589 0
M  V30 11215 H 1004.67 3.37704 -2.13999 0
M  V30 11216 H 1006.11 4.02633 -1.32902 0
M  V30 11217 C 1004.57 3.369 0.00396512 0
M  V30 11218 O 1005.1 3.89881 0.967243 0
M  V30 11219 N 1003.31 2.90508 0.0731565 0
M  V30 11220 H 1002.86 2.4758 -0.711454 0
M  V30 11221 H 1002.81 3.00155 0.935652 0
M  V30 11222 N 1006.59 1.25851 0.948643 0
M  V30 11223 C 1007.83 1.10954 1.69397 0
M  V30 11224 C 1008.16 -0.348443 1.91353 0
M  V30 11225 O 1007.42 -1.27285 1.48651 0
M  V30 11226 C 1007.72 1.81565 3.07846 0
M  V30 11227 C 1007.38 3.31477 3.0567 0
M  V30 11228 C 1006.04 3.72371 3.04784 0
M  V30 11229 C 1008.4 4.27225 2.98543 0
M  V30 11230 C 1005.72 5.07416 2.94527 0
M  V30 11231 C 1008.08 5.62301 2.89828 0
M  V30 11232 C 1006.74 6.02516 2.87281 0
M  V30 11233 H 1006.01 0.406011 0.619868 0
M  V30 11234 H 1008.66 1.562 1.10787 0
M  V30 11235 H 1006.96 1.28767 3.70035 0
M  V30 11236 H 1008.66 1.67486 3.64348 0
M  V30 11237 H 1005.25 2.98941 3.07135 0
M  V30 11238 H 1009.43 3.96618 2.98342 0
M  V30 11239 H 1004.69 5.37746 2.90928 0
M  V30 11240 H 1008.86 6.36182 2.83276 0
M  V30 11241 H 1006.49 7.07116 2.79089 0
M  V30 11242 N 1008.06 -1.15214 1.07534 0
M  V30 11243 C 1009.01 -2.20013 0.697337 0
M  V30 11244 C 1009.98 -1.6314 -0.312168 0
M  V30 11245 O 1011.17 -1.89768 -0.198196 0
M  V30 11246 C 1008.31 -3.44945 0.103293 0
M  V30 11247 C 1007.42 -4.16009 1.1645 0
M  V30 11248 C 1006.55 -5.28496 0.535261 0
M  V30 11249 C 1005.59 -5.9138 1.57912 0
M  V30 11250 N 1004.73 -6.95335 0.972332 0
M  V30 11251 H 1009.57 -2.51698 1.59538 0
M  V30 11252 H 1007.11 -1.2361 0.797431 0
M  V30 11253 H 1009.07 -4.16397 -0.258766 0
M  V30 11254 H 1007.7 -3.13772 -0.758096 0
M  V30 11255 H 1006.75 -3.43035 1.64411 0
M  V30 11256 H 1008.06 -4.58853 1.9559 0
M  V30 11257 H 1007.21 -6.06579 0.120942 0
M  V30 11258 H 1005.95 -4.8685 -0.287889 0
M  V30 11259 H 1004.96 -5.12008 2.0032 0
M  V30 11260 H 1006.18 -6.35103 2.40459 0
M  V30 11261 H 1004.13 -6.55779 0.170119 0
M  V30 11262 H 1004.05 -7.36616 1.70095 0
M  V30 11263 H 1005.31 -7.77312 0.583577 0
M  V30 11264 N 1009.54 -0.859717 -1.32086 0
M  V30 11265 C 1010.77 -0.478865 -2.01796 0
M  V30 11266 C 1011.19 0.918274 -1.64163 0
M  V30 11267 O 1010.55 1.60409 -0.844896 0
M  V30 11268 C 1010.6 -0.631356 -3.5503 0
M  V30 11269 O 1009.7 0.333712 -4.11048 0
M  V30 11270 H 1009.04 -0.191775 -0.635703 0
M  V30 11271 H 1011.57 -1.16031 -1.68517 0
M  V30 11272 H 1011.58 -0.520783 -4.04663 0
M  V30 11273 H 1010.26 -1.65015 -3.81763 0
M  V30 11274 H 1008.84 0.178953 -3.7247 0
M  V30 11275 N 1011.02 1.44971 -0.618145 0
M  V30 11276 C 1011.95 2.33357 0.0815955 0
M  V30 11277 C 1012.93 1.47451 0.848072 0
M  V30 11278 O 1014.12 1.762 0.816532 0
M  V30 11279 C 1011.25 3.30324 1.07253 0
M  V30 11280 C 1010.2 4.25948 0.418563 0
M  V30 11281 C 1009.53 5.12685 1.51849 0
M  V30 11282 C 1010.83 5.18024 -0.66697 0
M  V30 11283 H 1012.52 2.92115 -0.656442 0
M  V30 11284 H 1010.07 1.40465 -0.317129 0
M  V30 11285 H 1012.02 3.91033 1.57069 0
M  V30 11286 H 1010.74 2.69748 1.8413 0
M  V30 11287 H 1009.4 3.66553 -0.0588308 0
M  V30 11288 H 1009.05 4.4847 2.2778 0
M  V30 11289 H 1008.75 5.7747 1.08637 0
M  V30 11290 H 1010.27 5.76264 2.01871 0
M  V30 11291 H 1011.69 5.72744 -0.252448 0
M  V30 11292 H 1010.09 5.91343 -1.02146 0
M  V30 11293 H 1011.16 4.59817 -1.53936 0
M  V30 11294 N 1012.5 0.357919 1.53482 0
M  V30 11295 C 1013.43 -0.535553 2.21827 0
M  V30 11296 C 1014.41 -1.08904 1.20742 0
M  V30 11297 O 1015.59 -1.14661 1.49616 0
M  V30 11298 C 1012.72 -1.73817 2.90698 0
M  V30 11299 C 1011.77 -1.31283 4.05792 0
M  V30 11300 S 1012.6 -0.320548 5.3454 0
M  V30 11301 C 1013.76 -1.52967 6.0692 0
M  V30 11302 H 1013.99 0.0449045 2.97266 0
M  V30 11303 H 1011.52 0.142009 1.53746 0
M  V30 11304 H 1013.48 -2.42803 3.30994 0
M  V30 11305 H 1012.14 -2.28987 2.14998 0
M  V30 11306 H 1011.33 -2.20989 4.52968 0
M  V30 11307 H 1010.94 -0.702275 3.67347 0
M  V30 11308 H 1013.23 -2.46191 6.31186 0
M  V30 11309 H 1014.17 -1.09943 6.99513 0
M  V30 11310 H 1014.58 -1.73224 5.37265 0
M  V30 11311 N 1013.98 -1.5736 0.0868897 0
M  V30 11312 C 1014.92 -2.14793 -0.892571 0
M  V30 11313 C 1015.92 -1.08866 -1.29787 0
M  V30 11314 O 1017.12 -1.27223 -1.27335 0
M  V30 11315 H 1013.5 -0.686998 -0.305838 0
M  V30 11316 H 1015.47 -2.95927 -0.383393 0
M  V30 11317 C 1014.22 -2.73646 -2.14507 0
M  V30 11318 H 1013.54 -3.54835 -1.84207 0
M  V30 11319 H 1014.98 -3.17409 -2.81118 0
M  V30 11320 C 1013.44 -1.69138 -2.91366 0
M  V30 11321 O 1013.97 -1.12539 -3.85614 0
M  V30 11322 N 1012.18 -1.3982 -2.54752 0
M  V30 11323 H 1011.72 -1.86035 -1.78182 0
M  V30 11324 H 1011.68 -0.701316 -3.06478 0
M  V30 11325 N 1015.45 0.186762 -1.56489 0
M  V30 11326 C 1016.36 1.25169 -1.98419 0
M  V30 11327 C 1017.38 1.49329 -0.893124 0
M  V30 11328 O 1018.56 1.61781 -1.19954 0
M  V30 11329 C 1015.62 2.57422 -2.32239 0
M  V30 11330 C 1014.68 2.4126 -3.55095 0
M  V30 11331 C 1013.92 3.67206 -3.87292 0
M  V30 11332 O 1014.14 4.71731 -3.20665 0
M  V30 11333 O 1013.07 3.62238 -4.80695 0
M  V30 11334 H 1016.9 0.925834 -2.89244 0
M  V30 11335 H 1014.48 0.392421 -1.44154 0
M  V30 11336 H 1016.37 3.35466 -2.5503 0
M  V30 11337 H 1015.04 2.89618 -1.44579 0
M  V30 11338 H 1013.95 1.61299 -3.37541 0
M  V30 11339 H 1015.28 2.13994 -4.43247 0
M  V30 11340 N 1016.93 1.50896 0.454776 0
M  V30 11341 C 1018.34 1.55372 1.0352 0
M  V30 11342 C 1018.69 0.366822 1.9274 0
M  V30 11343 O 1017.82 -0.518444 2.10098 0
M  V30 11344 C 1018.41 2.81574 1.88418 0
M  V30 11345 C 1016.97 2.88679 2.4154 0
M  V30 11346 C 1016.12 2.49847 1.20298 0
M  V30 11347 H 1019.07 1.56924 0.236729 0
M  V30 11348 H 1019.09 2.64352 2.73676 0
M  V30 11349 H 1018.6 3.67941 1.23455 0
M  V30 11350 H 1016.71 2.06702 3.10008 0
M  V30 11351 H 1016.82 3.91944 2.7553 0
M  V30 11352 H 1015.18 2.02651 1.54288 0
M  V30 11353 H 1015.97 3.3854 0.569723 0
M  V30 11354 N 1018.41 -0.709066 1.40748 0
M  V30 11355 C 1019.36 -1.84445 1.41714 0
M  V30 11356 C 1020.35 -1.66779 0.296818 0
M  V30 11357 O 1021.56 -1.73805 0.468181 0
M  V30 11358 H 1017.93 -0.607581 0.443114 0
M  V30 11359 H 1019.9 -1.80747 2.3743 0
M  V30 11360 C 1018.65 -3.22362 1.303 0
M  V30 11361 H 1017.98 -3.36565 2.15787 0
M  V30 11362 H 1019.42 -4.01922 1.35036 0
M  V30 11363 C 1017.88 -3.36897 0.0139015 0
M  V30 11364 O 1018.41 -3.90389 -0.946553 0
M  V30 11365 N 1016.61 -2.90543 -0.0577491 0
M  V30 11366 H 1016.16 -2.472 0.724574 0
M  V30 11367 H 1016.12 -3.00647 -0.919721 0
M  V30 11368 N 1019.89 -1.26353 -0.941956 0
M  V30 11369 C 1020.84 -1.07842 -2.04056 0
M  V30 11370 C 1021.81 0.0163064 -1.66092 0
M  V30 11371 O 1022.99 -0.143313 -1.90261 0
M  V30 11372 C 1020.13 -0.716636 -3.37577 0
M  V30 11373 C 1019.24 -1.88754 -3.88582 0
M  V30 11374 C 1018.38 -1.46893 -5.10486 0
M  V30 11375 C 1017.42 -2.60819 -5.53751 0
M  V30 11376 N 1016.56 -2.19646 -6.66858 0
M  V30 11377 H 1021.4 -2.01856 -2.19221 0
M  V30 11378 H 1018.93 -1.00504 -1.07412 0
M  V30 11379 H 1020.89 -0.487768 -4.14339 0
M  V30 11380 H 1019.52 0.18653 -3.22261 0
M  V30 11381 H 1018.57 -2.22936 -3.08227 0
M  V30 11382 H 1019.88 -2.74264 -4.1663 0
M  V30 11383 H 1019.04 -1.20047 -5.94705 0
M  V30 11384 H 1017.78 -0.584721 -4.84182 0
M  V30 11385 H 1016.78 -2.88396 -4.6809 0
M  V30 11386 H 1018.01 -3.49838 -5.82057 0
M  V30 11387 H 1015.95 -1.33657 -6.4224 0
M  V30 11388 H 1015.87 -2.987 -6.94489 0
M  V30 11389 H 1017.14 -1.96009 -7.54454 0
M  V30 11390 N 1021.37 1.14642 -1.08144 0
M  V30 11391 C 1022.6 1.89484 -0.830864 0
M  V30 11392 C 1023.01 1.78443 0.616722 0
M  V30 11393 O 1022.37 1.14191 1.42361 0
M  V30 11394 C 1022.42 3.39554 -1.24039 0
M  V30 11395 O 1022.14 3.50286 -2.63119 0
M  V30 11396 C 1023.64 4.31399 -1.02029 0
M  V30 11397 H 1020.86 0.600283 -0.299835 0
M  V30 11398 H 1023.4 1.45204 -1.44001 0
M  V30 11399 H 1021.56 3.81467 -0.675407 0
M  V30 11400 H 1021.97 4.43481 -2.80045 0
M  V30 11401 H 1023.45 5.35079 -1.35625 0
M  V30 11402 H 1023.92 4.39179 0.0428697 0
M  V30 11403 H 1024.53 3.95238 -1.57057 0
M  V30 11404 N 1022.85 0.866709 1.31628 0
M  V30 11405 C 1024.12 0.396828 1.91532 0
M  V30 11406 C 1024.5 -1.12081 1.78889 0
M  V30 11407 O 1023.85 -1.94791 1.19452 0
M  V30 11408 C 1024.06 0.874578 3.37864 0
M  V30 11409 C 1025.41 0.8988 4.14978 0
M  V30 11410 O 1026.43 0.820014 3.46633 0
M  V30 11411 O 1025.29 1.01223 5.37044 0
M  V30 11412 H 1022.39 0.1181 0.818524 0
M  V30 11413 H 1024.93 0.954407 1.40318 0
M  V30 11414 H 1023.7 1.91807 3.41066 0
M  V30 11415 H 1023.33 0.295126 3.96503 0
M  V30 11416 N 1024.32 -1.44642 0.625825 0
M  V30 11417 C 1025.23 -2.34451 -0.0836134 0
M  V30 11418 C 1026.25 -1.5231 -0.841289 0
M  V30 11419 O 1027.43 -1.85056 -0.794754 0
M  V30 11420 C 1024.49 -3.30211 -1.05648 0
M  V30 11421 C 1023.55 -4.28259 -0.298759 0
M  V30 11422 C 1022.78 -5.19444 -1.22528 0
M  V30 11423 O 1023.01 -5.14444 -2.46382 0
M  V30 11424 O 1021.94 -5.97668 -0.71247 0
M  V30 11425 H 1025.77 -2.96555 0.654912 0
M  V30 11426 H 1023.35 -1.44327 0.386029 0
M  V30 11427 H 1025.23 -3.8917 -1.61632 0
M  V30 11428 H 1023.91 -2.70648 -1.77571 0
M  V30 11429 H 1022.82 -3.72863 0.304001 0
M  V30 11430 H 1024.15 -4.90728 0.380345 0
M  V30 11431 N 1025.8 -0.366053 -1.5329 0
M  V30 11432 C 1026.73 0.514916 -2.23341 0
M  V30 11433 C 1027.75 1.04579 -1.24768 0
M  V30 11434 O 1028.94 0.952084 -1.50989 0
M  V30 11435 C 1026.04 1.72374 -2.91788 0
M  V30 11436 C 1025.21 1.32429 -4.16871 0
M  V30 11437 C 1024.27 2.39524 -4.68524 0
M  V30 11438 O 1023.29 2.01895 -5.32191 0
M  V30 11439 N 1024.5 3.71116 -4.46378 0
M  V30 11440 H 1027.26 -0.0851272 -2.99579 0
M  V30 11441 H 1024.82 -0.191255 -1.60766 0
M  V30 11442 H 1026.81 2.43496 -3.23252 0
M  V30 11443 H 1025.38 2.23064 -2.19 0
M  V30 11444 H 1024.6 0.442901 -3.91704 0
M  V30 11445 H 1025.89 1.03372 -4.98188 0
M  V30 11446 H 1025.29 4.04463 -3.95508 0
M  V30 11447 H 1023.85 4.38341 -4.82391 0
M  V30 11448 N 1027.28 1.57312 -0.0952337 0
M  V30 11449 C 1028.53 1.93533 0.568131 0
M  V30 11450 C 1028.84 0.979121 1.6933 0
M  V30 11451 O 1030.05 1.23506 2.41782 0
M  V30 11452 C 1028.5 3.43875 1.06198 0
M  V30 11453 C 1028.11 4.47988 -0.0334397 0
M  V30 11454 C 1029.86 3.89057 1.69807 0
M  V30 11455 C 1027.76 5.89483 0.475774 0
M  V30 11456 H 1026.69 0.7224 0.215995 0
M  V30 11457 H 1029.34 1.82699 -0.171257 0
M  V30 11458 H 1027.73 3.49862 1.85506 0
M  V30 11459 H 1028.9 4.53644 -0.808934 0
M  V30 11460 H 1027.21 4.12415 -0.574725 0
M  V30 11461 H 1029.81 4.92171 2.08978 0
M  V30 11462 H 1030.15 3.27713 2.5673 0
M  V30 11463 H 1030.69 3.85772 0.970815 0
M  V30 11464 H 1027.43 6.54528 -0.356837 0
M  V30 11465 H 1026.95 5.87297 1.21827 0
M  V30 11466 H 1028.63 6.40066 0.944697 0
M  V30 11467 N 1028.76 -0.17846 1.56586 0
M  V30 11468 C 1030 -0.896235 1.81587 0
M  V30 11469 C 1030.33 -1.82553 0.671168 0
M  V30 11470 O 1029.59 -1.92688 -0.342046 0
M  V30 11471 C 1029.89 -1.73063 3.12704 0
M  V30 11472 C 1029.55 -0.950877 4.4076 0
M  V30 11473 C 1028.21 -0.735647 4.75544 0
M  V30 11474 C 1030.57 -0.403419 5.19636 0
M  V30 11475 C 1027.89 0.0382562 5.86688 0
M  V30 11476 C 1030.25 0.357359 6.3159 0
M  V30 11477 C 1028.91 0.583455 6.64945 0
M  V30 11478 H 1028.18 -0.327956 0.664474 0
M  V30 11479 H 1030.83 -0.161586 1.90817 0
M  V30 11480 H 1029.13 -2.53446 2.98785 0
M  V30 11481 H 1030.83 -2.28891 3.29257 0
M  V30 11482 H 1027.42 -1.12866 4.13472 0
M  V30 11483 H 1031.6 -0.557059 4.93164 0
M  V30 11484 H 1026.86 0.223237 6.10992 0
M  V30 11485 H 1031.03 0.788861 6.91918 0
M  V30 11486 H 1028.66 1.18502 7.50907 0
M  V30 11487 N 1030.24 -1.51135 -0.446768 0
M  V30 11488 C 1031.2 -1.71187 -1.52406 0
M  V30 11489 C 1032.2 -0.582037 -1.49897 0
M  V30 11490 O 1033.39 -0.849452 -1.52085 0
M  V30 11491 C 1030.52 -1.75962 -2.91976 0
M  V30 11492 H 1031.71 -2.67324 -1.35934 0
M  V30 11493 H 1029.27 -1.40982 -0.674813 0
M  V30 11494 H 1030 -0.816065 -3.13864 0
M  V30 11495 H 1029.79 -2.58065 -2.95203 0
M  V30 11496 H 1031.28 -1.93347 -3.70144 0
M  V30 11497 N 1031.71 0.701592 -1.41122 0
M  V30 11498 C 1032.66 1.83691 -1.4269 0
M  V30 11499 C 1033.66 1.6662 -0.305658 0
M  V30 11500 O 1034.86 1.73554 -0.477392 0
M  V30 11501 H 1031.24 0.605222 -0.44633 0
M  V30 11502 H 1033.21 1.79485 -2.38386 0
M  V30 11503 C 1031.96 3.21666 -1.32008 0
M  V30 11504 H 1031.28 3.35416 -2.17569 0
M  V30 11505 H 1032.72 4.012 -1.37165 0
M  V30 11506 C 1031.18 3.36885 -0.0317678 0
M  V30 11507 O 1031.71 3.90885 0.925836 0
M  V30 11508 N 1029.91 2.90569 0.0423401 0
M  V30 11509 H 1029.46 2.46812 -0.737673 0
M  V30 11510 H 1029.42 3.0113 0.903764 0
M  V30 11511 N 1033.19 1.2685 0.935242 0
M  V30 11512 C 1034.44 1.12912 1.6846 0
M  V30 11513 C 1034.77 -0.325708 1.91449 0
M  V30 11514 O 1034.05 -1.23884 1.49944 0
M  V30 11515 C 1034.33 1.90513 3.05576 0
M  V30 11516 C 1034.18 3.43936 2.89876 0
M  V30 11517 C 1035.5 1.70363 4.05789 0
M  V30 11518 H 1032.62 0.411559 0.611382 0
M  V30 11519 H 1035.26 1.55917 1.08582 0
M  V30 11520 H 1033.41 1.53963 3.5669 0
M  V30 11521 H 1035.08 3.90272 2.45939 0
M  V30 11522 H 1033.33 3.70659 2.25376 0
M  V30 11523 H 1034 3.93467 3.87153 0
M  V30 11524 H 1036.47 2.02217 3.63659 0
M  V30 11525 H 1035.35 2.27066 4.99732 0
M  V30 11526 H 1035.61 0.649674 4.373 0
M  V30 11527 N 1034.67 -1.14067 1.0875 0
M  V30 11528 C 1035.62 -2.19261 0.720633 0
M  V30 11529 C 1036.59 -1.63462 -0.294847 0
M  V30 11530 O 1037.77 -1.89967 -0.178058 0
M  V30 11531 C 1034.91 -3.44816 0.139873 0
M  V30 11532 C 1034.03 -4.1475 1.20856 0
M  V30 11533 C 1033.16 -5.27899 0.591285 0
M  V30 11534 C 1032.2 -5.89672 1.64176 0
M  V30 11535 N 1031.34 -6.94264 1.04603 0
M  V30 11536 H 1036.18 -2.49991 1.62198 0
M  V30 11537 H 1033.71 -1.22757 0.810497 0
M  V30 11538 H 1035.67 -4.16648 -0.214587 0
M  V30 11539 H 1034.3 -3.14558 -0.724774 0
M  V30 11540 H 1033.35 -3.41272 1.6804 0
M  V30 11541 H 1034.67 -4.56753 2.00446 0
M  V30 11542 H 1033.82 -6.06417 0.185271 0
M  V30 11543 H 1032.56 -4.87128 -0.236236 0
M  V30 11544 H 1031.56 -5.09854 2.05739 0
M  V30 11545 H 1032.79 -6.32517 2.47182 0
M  V30 11546 H 1030.73 -6.55562 0.239664 0
M  V30 11547 H 1030.65 -7.34771 1.77898 0
M  V30 11548 H 1031.92 -7.7665 0.665989 0
M  V30 11549 N 1036.15 -0.873678 -1.31166 0
M  V30 11550 C 1037.11 -0.337069 -2.26708 0
M  V30 11551 C 1038.11 0.51406 -1.52362 0
M  V30 11552 O 1039.3 0.322834 -1.71182 0
M  V30 11553 C 1036.43 0.520897 -3.36897 0
M  V30 11554 H 1037.63 -1.18056 -2.75686 0
M  V30 11555 H 1035.18 -0.649577 -1.42163 0
M  V30 11556 H 1035.91 1.38543 -2.93217 0
M  V30 11557 H 1035.7 -0.0886015 -3.92 0
M  V30 11558 H 1037.19 0.888497 -4.08039 0
M  V30 11559 N 1037.63 1.44308 -0.633487 0
M  V30 11560 C 1038.85 2.06384 -0.146063 0
M  V30 11561 C 1039.27 1.47357 1.18031 0
M  V30 11562 O 1038.63 0.597334 1.72448 0
M  V30 11563 C 1038.68 3.61489 -0.0276722 0
M  V30 11564 O 1038.4 4.18318 -1.3016 0
M  V30 11565 C 1039.9 4.40604 0.488168 0
M  V30 11566 H 1037.12 0.666122 -0.0807632 0
M  V30 11567 H 1039.66 1.85139 -0.868557 0
M  V30 11568 H 1037.82 3.81988 0.645273 0
M  V30 11569 H 1038.23 5.11783 -1.14797 0
M  V30 11570 H 1039.71 5.49545 0.520013 0
M  V30 11571 H 1040.18 4.12218 1.51568 0
M  V30 11572 H 1040.79 4.2503 -0.151608 0
M  V30 11573 N 1039.1 0.374177 1.53094 0
M  V30 11574 C 1040.35 -0.213981 2.00562 0
M  V30 11575 C 1040.67 -1.4916 1.26533 0
M  V30 11576 O 1041.87 -2.15889 1.64634 0
M  V30 11577 C 1040.33 -0.431876 3.57299 0
M  V30 11578 C 1039.94 0.831615 4.40214 0
M  V30 11579 C 1041.68 -0.977222 4.13099 0
M  V30 11580 C 1039.59 0.582831 5.88521 0
M  V30 11581 H 1038.52 -0.0837386 0.749336 0
M  V30 11582 H 1041.17 0.494245 1.76719 0
M  V30 11583 H 1039.55 -1.20158 3.7733 0
M  V30 11584 H 1040.72 1.60477 4.31953 0
M  V30 11585 H 1039.04 1.30081 3.9556 0
M  V30 11586 H 1041.64 -1.17881 5.21544 0
M  V30 11587 H 1041.98 -1.94189 3.68234 0
M  V30 11588 H 1042.51 -0.267473 3.969 0
M  V30 11589 H 1039.25 1.51807 6.37679 0
M  V30 11590 H 1038.77 -0.151666 5.99608 0
M  V30 11591 H 1040.45 0.211604 6.46654 0
M  V30 11592 N 1040.58 -1.57259 0.103575 0
M  V30 11593 C 1041.81 -1.99 -0.566275 0
M  V30 11594 C 1042.23 -0.982909 -1.61197 0
M  V30 11595 O 1041.58 0.026345 -1.82481 0
M  V30 11596 C 1041.63 -3.40778 -1.20635 0
M  V30 11597 O 1041.35 -4.37632 -0.202472 0
M  V30 11598 C 1042.86 -3.97567 -1.961 0
M  V30 11599 H 1040.08 -0.653751 -0.151164 0
M  V30 11600 H 1042.62 -2.03658 0.185365 0
M  V30 11601 H 1040.77 -3.37107 -1.90886 0
M  V30 11602 H 1041.19 -5.2026 -0.665535 0
M  V30 11603 H 1042.66 -4.98897 -2.36233 0
M  V30 11604 H 1043.14 -3.35853 -2.83018 0
M  V30 11605 H 1043.75 -4.04737 -1.30645 0
M  V30 11606 N 1042.06 0.170153 -1.56679 0
M  V30 11607 C 1043.01 1.21064 -1.965 0
M  V30 11608 C 1043.98 1.43928 -0.829092 0
M  V30 11609 O 1045.16 1.56649 -1.08931 0
M  V30 11610 C 1042.3 2.54468 -2.33109 0
M  V30 11611 C 1041.42 2.38974 -3.59883 0
M  V30 11612 C 1040.55 3.65252 -3.857 0
M  V30 11613 C 1039.59 3.44696 -5.05817 0
M  V30 11614 N 1038.73 4.63047 -5.27761 0
M  V30 11615 H 1043.57 0.864055 -2.85198 0
M  V30 11616 H 1041.1 0.415243 -1.41117 0
M  V30 11617 H 1043.06 3.32222 -2.52358 0
M  V30 11618 H 1041.69 2.8712 -1.4752 0
M  V30 11619 H 1040.74 1.5239 -3.48542 0
M  V30 11620 H 1042.06 2.19731 -4.47794 0
M  V30 11621 H 1041.21 4.51441 -4.05322 0
M  V30 11622 H 1039.95 3.87475 -2.96166 0
M  V30 11623 H 1038.95 2.56893 -4.86092 0
M  V30 11624 H 1040.18 3.23894 -5.96883 0
M  V30 11625 H 1038.12 4.85487 -4.41179 0
M  V30 11626 H 1038.04 4.46722 -6.09898 0
M  V30 11627 H 1039.31 5.50516 -5.51863 0
M  V30 11628 N 1043.54 1.5137 0.438746 0
M  V30 11629 C 1044.82 1.54508 1.19944 0
M  V30 11630 C 1045.2 0.308525 2.08833 0
M  V30 11631 O 1044.54 -0.706461 2.17305 0
M  V30 11632 C 1044.75 2.85833 2.00251 0
M  V30 11633 C 1046.1 3.37729 2.5734 0
M  V30 11634 O 1047.13 2.87374 2.10463 0
M  V30 11635 O 1045.98 4.25589 3.42836 0
M  V30 11636 H 1043.08 0.621132 0.546007 0
M  V30 11637 H 1045.62 1.63682 0.447931 0
M  V30 11638 H 1044.4 3.67291 1.34955 0
M  V30 11639 H 1044.02 2.79815 2.8247 0
M  V30 11640 N 1045.02 -0.694098 1.41492 0
M  V30 11641 C 1046.29 -1.44875 1.31418 0
M  V30 11642 C 1046.67 -2.11022 -0.0575538 0
M  V30 11643 O 1046.02 -2.01799 -1.07188 0
M  V30 11644 C 1046.23 -2.46698 2.46863 0
M  V30 11645 C 1047.58 -3.11907 2.88095 0
M  V30 11646 O 1048.6 -2.57022 2.46613 0
M  V30 11647 O 1047.46 -4.11318 3.59833 0
M  V30 11648 H 1044.56 -0.645266 0.517263 0
M  V30 11649 H 1047.1 -0.724452 1.53459 0
M  V30 11650 H 1045.87 -1.96485 3.38392 0
M  V30 11651 H 1045.5 -3.26634 2.26706 0
M  V30 11652 N 1046.49 -1.27344 -0.928501 0
M  V30 11653 C 1047.44 -1.09835 -2.05034 0
M  V30 11654 C 1048.44 -0.0216643 -1.69386 0
M  V30 11655 O 1049.64 -0.179323 -1.79105 0
M  V30 11656 H 1046.02 -0.338416 -0.671549 0
M  V30 11657 H 1047.99 -2.04879 -2.1695 0
M  V30 11658 C 1046.74 -0.761462 -3.3926 0
M  V30 11659 H 1046.06 -1.58186 -3.67175 0
M  V30 11660 H 1047.5 -0.678812 -4.18531 0
M  V30 11661 C 1045.96 0.534118 -3.32639 0
M  V30 11662 O 1046.49 1.56877 -3.69801 0
M  V30 11663 N 1044.7 0.529437 -2.85736 0
M  V30 11664 H 1044.24 -0.312954 -2.55692 0
M  V30 11665 H 1044.2 1.39637 -2.81689 0
M  V30 11666 N 1047.97 1.13488 -1.09353 0
M  V30 11667 C 1048.9 2.18563 -0.69012 0
M  V30 11668 C 1049.92 1.60585 0.267651 0
M  V30 11669 O 1051.11 1.78419 0.0538176 0
M  V30 11670 C 1048.21 3.389 0.00391255 0
M  V30 11671 C 1047.38 4.2639 -0.975209 0
M  V30 11672 C 1046.44 5.25258 -0.314719 0
M  V30 11673 O 1045.46 5.6101 -0.962119 0
M  V30 11674 N 1046.67 5.72978 0.931458 0
M  V30 11675 H 1049.43 2.53788 -1.59411 0
M  V30 11676 H 1046.99 1.28803 -0.980886 0
M  V30 11677 H 1048.98 4.02112 0.45696 0
M  V30 11678 H 1047.55 3.0192 0.81014 0
M  V30 11679 H 1046.77 3.59964 -1.60684 0
M  V30 11680 H 1048.06 4.817 -1.63836 0
M  V30 11681 H 1047.46 5.46078 1.477 0
M  V30 11682 H 1046.02 6.38131 1.32784 0
M  V30 11683 N 1049.45 0.880621 1.30701 0
M  V30 11684 C 1050.68 0.51094 2.00182 0
M  V30 11685 C 1051.09 -0.903914 1.66211 0
M  V30 11686 O 1050.43 -1.60529 0.893089 0
M  V30 11687 C 1050.49 0.600775 3.54445 0
M  V30 11688 C 1050.16 1.97915 4.1192 0
M  V30 11689 C 1051.16 2.94802 4.28238 0
M  V30 11690 C 1048.84 2.28336 4.47401 0
M  V30 11691 C 1050.83 4.20245 4.79242 0
M  V30 11692 C 1048.52 3.54026 4.98105 0
M  V30 11693 C 1049.52 4.49796 5.13978 0
M  V30 11694 O 1049.21 5.73256 5.63589 0
M  V30 11695 H 1048.94 0.196477 0.646818 0
M  V30 11696 H 1051.49 1.18659 1.67658 0
M  V30 11697 H 1049.72 -0.131832 3.86475 0
M  V30 11698 H 1051.41 0.242996 4.05172 0
M  V30 11699 H 1052.18 2.7261 4.01134 0
M  V30 11700 H 1048.06 1.54564 4.34317 0
M  V30 11701 H 1051.6 4.95003 4.91546 0
M  V30 11702 H 1047.5 3.76057 5.24644 0
M  V30 11703 H 1048.27 5.75577 5.81939 0
M  V30 11704 N 1050.93 -1.4397 0.641131 0
M  V30 11705 C 1051.88 -2.32495 -0.0698668 0
M  V30 11706 C 1052.87 -1.47922 -0.825555 0
M  V30 11707 O 1054.08 -1.64206 -0.737323 0
M  V30 11708 H 1050.45 -0.750861 -0.0413706 0
M  V30 11709 H 1052.42 -2.90201 0.694682 0
M  V30 11710 C 1051.17 -3.32063 -1.03098 0
M  V30 11711 H 1050.5 -3.97157 -0.458923 0
M  V30 11712 H 1051.94 -3.96664 -1.49778 0
M  V30 11713 C 1050.39 -2.61743 -2.12113 0
M  V30 11714 O 1050.92 -2.42385 -3.20332 0
M  V30 11715 N 1049.13 -2.21316 -1.88328 0
M  V30 11716 H 1048.68 -2.37261 -1.00324 0
M  V30 11717 H 1048.64 -1.74594 -2.61465 0
M  V30 11718 N 1052.41 -0.382291 -1.52893 0
M  V30 11719 C 1053.34 0.491199 -2.23875 0
M  V30 11720 C 1054.35 1.03249 -1.25871 0
M  V30 11721 O 1055.54 0.936016 -1.5199 0
M  V30 11722 C 1052.64 1.6927 -2.936 0
M  V30 11723 C 1051.81 1.28 -4.18252 0
M  V30 11724 C 1050.87 2.34541 -4.71038 0
M  V30 11725 O 1049.9 1.96239 -5.34302 0
M  V30 11726 N 1051.1 3.6636 -4.50289 0
M  V30 11727 H 1053.87 -0.116897 -2.99472 0
M  V30 11728 H 1051.43 -0.208296 -1.60554 0
M  V30 11729 H 1053.42 2.40054 -3.25816 0
M  V30 11730 H 1051.99 2.20729 -2.21354 0
M  V30 11731 H 1051.21 0.40133 -3.92152 0
M  V30 11732 H 1052.5 0.98082 -4.99257 0
M  V30 11733 H 1051.9 4.00245 -3.99775 0
M  V30 11734 H 1050.45 4.332 -4.87013 0
M  V30 11735 N 1053.89 1.57202 -0.111913 0
M  V30 11736 C 1054.83 2.16186 0.858286 0
M  V30 11737 C 1055.83 1.10917 1.28039 0
M  V30 11738 O 1057.03 1.29233 1.25295 0
M  V30 11739 H 1053.41 0.691777 0.29487 0
M  V30 11740 H 1055.38 2.96499 0.336265 0
M  V30 11741 C 1054.13 2.77024 2.10127 0
M  V30 11742 H 1053.45 3.5772 1.78539 0
M  V30 11743 H 1054.89 3.21841 2.76033 0
M  V30 11744 C 1053.35 1.73752 2.88638 0
M  V30 11745 O 1053.88 1.18659 3.83774 0
M  V30 11746 N 1052.09 1.43855 2.52496 0
M  V30 11747 H 1051.63 1.88846 1.75199 0
M  V30 11748 H 1051.59 0.749985 3.05324 0
M  V30 11749 N 1055.36 -0.161842 1.56767 0
M  V30 11750 C 1056.31 -1.21948 1.98069 0
M  V30 11751 C 1057.31 -1.45303 0.870835 0
M  V30 11752 O 1058.51 -1.45771 1.05598 0
M  V30 11753 H 1054.89 -0.410145 0.630306 0
M  V30 11754 H 1056.86 -0.844336 2.86205 0
M  V30 11755 C 1055.61 -2.549 2.36477 0
M  V30 11756 H 1054.93 -2.37755 3.21423 0
M  V30 11757 H 1056.37 -3.27568 2.69212 0
M  V30 11758 C 1054.83 -3.14353 1.21176 0
M  V30 11759 O 1055.36 -3.98519 0.504499 0
M  V30 11760 N 1053.56 -2.73582 0.979855 0
M  V30 11761 H 1053.11 -2.05239 1.55675 0
M  V30 11762 H 1053.07 -3.13696 0.21025 0
M  V30 11763 N 1056.84 -1.516 -0.430713 0
M  V30 11764 C 1058.12 -1.55142 -1.19123 0
M  V30 11765 C 1058.5 -0.319596 -2.08667 0
M  V30 11766 O 1057.85 0.694927 -2.17676 0
M  V30 11767 C 1058.06 -2.86891 -1.98732 0
M  V30 11768 C 1059.4 -3.39089 -2.55546 0
M  V30 11769 O 1060.43 -2.88486 -2.08936 0
M  V30 11770 O 1059.29 -4.27401 -3.40574 0
M  V30 11771 H 1056.38 -0.624019 -0.542705 0
M  V30 11772 H 1058.93 -1.63917 -0.439244 0
M  V30 11773 H 1057.7 -3.68002 -1.33005 0
M  V30 11774 H 1057.32 -2.81309 -2.80982 0
M  V30 11775 N 1058.32 0.686584 -1.41858 0
M  V30 11776 C 1059.27 1.82167 -1.4463 0
M  V30 11777 C 1060.26 1.66286 -0.323313 0
M  V30 11778 O 1061.47 1.73038 -0.495773 0
M  V30 11779 H 1057.84 0.600454 -0.452724 0
M  V30 11780 H 1059.81 1.76947 -2.40276 0
M  V30 11781 C 1058.56 3.20248 -1.35412 0
M  V30 11782 H 1057.89 3.33089 -2.21115 0
M  V30 11783 H 1059.33 3.99723 -1.41413 0
M  V30 11784 C 1057.78 3.36832 -0.0674972 0
M  V30 11785 O 1058.31 3.91845 0.884325 0
M  V30 11786 N 1056.52 2.90598 0.011519 0
M  V30 11787 H 1056.07 2.46016 -0.76381 0
M  V30 11788 H 1056.03 3.02072 0.871774 0
M  V30 11789 N 1059.8 1.27835 0.921735 0
M  V30 11790 C 1061.03 1.17182 1.70153 0
M  V30 11791 C 1061.44 -0.273207 1.87217 0
M  V30 11792 O 1060.78 -1.19729 1.39322 0
M  V30 11793 C 1060.84 1.78969 3.11786 0
M  V30 11794 C 1060.5 3.28179 3.18037 0
M  V30 11795 C 1061.5 4.24729 2.99835 0
M  V30 11796 C 1059.19 3.68995 3.40805 0
M  V30 11797 C 1061.18 5.60071 3.04301 0
M  V30 11798 C 1058.87 5.04465 3.44904 0
M  V30 11799 C 1059.87 5.99813 3.2667 0
M  V30 11800 O 1059.55 7.32813 3.30515 0
M  V30 11801 H 1059.29 0.408079 0.538932 0
M  V30 11802 H 1061.84 1.69326 1.16266 0
M  V30 11803 H 1060.07 1.2131 3.6718 0
M  V30 11804 H 1061.76 1.62946 3.71757 0
M  V30 11805 H 1062.52 3.94533 2.8208 0
M  V30 11806 H 1058.4 2.9525 3.54045 0
M  V30 11807 H 1061.95 6.34471 2.89987 0
M  V30 11808 H 1057.84 5.34315 3.62185 0
M  V30 11809 H 1058.61 7.41338 3.4693 0
M  V30 11810 N 1061.28 -1.12907 1.09954 0
M  V30 11811 C 1062.5 -1.88679 0.861099 0
M  V30 11812 C 1062.93 -1.78853 -0.582499 0
M  V30 11813 O 1062.28 -1.13992 -1.4098 0
M  V30 11814 C 1062.33 -3.36047 1.30785 0
M  V30 11815 O 1061.44 -4.09716 0.469728 0
M  V30 11816 H 1060.78 -0.586447 0.31141 0
M  V30 11817 H 1063.31 -1.42818 1.46507 0
M  V30 11818 H 1063.32 -3.86882 1.29562 0
M  V30 11819 H 1061.99 -3.42516 2.35914 0
M  V30 11820 H 1060.57 -3.6887 0.54674 0
M  V30 11821 N 1062.75 -0.88754 -1.30232 0
M  V30 11822 C 1063.7 -0.345765 -2.30016 0
M  V30 11823 C 1064.7 0.5486 -1.60271 0
M  V30 11824 O 1065.9 0.43275 -1.74721 0
M  V30 11825 H 1062.28 -0.0931623 -0.746207 0
M  V30 11826 H 1064.25 -1.20095 -2.73166 0
M  V30 11827 C 1063 0.422435 -3.45124 0
M  V30 11828 H 1062.32 -0.256516 -3.98976 0
M  V30 11829 H 1063.76 0.766572 -4.17013 0
M  V30 11830 C 1062.22 1.62049 -2.95367 0
M  V30 11831 O 1062.75 2.71985 -2.95613 0
M  V30 11832 N 1060.95 1.45852 -2.51347 0
M  V30 11833 H 1060.5 0.564158 -2.51346 0
M  V30 11834 H 1060.46 2.26148 -2.18413 0
M  V30 11835 N 1064.23 1.43628 -0.648757 0
M  V30 11836 C 1065.18 2.32529 0.057536 0
M  V30 11837 C 1066.17 1.48358 0.817699 0
M  V30 11838 O 1067.38 1.64595 0.728605 0
M  V30 11839 H 1063.76 0.75107 0.037388 0
M  V30 11840 H 1065.73 2.89829 -0.710062 0
M  V30 11841 C 1064.48 3.32605 1.01336 0
M  V30 11842 H 1063.8 3.97395 0.437855 0
M  V30 11843 H 1065.24 3.97453 1.47672 0
M  V30 11844 C 1063.7 2.62865 2.10722 0
M  V30 11845 O 1064.23 2.4408 3.19042 0
M  V30 11846 N 1062.43 2.22312 1.87152 0
M  V30 11847 H 1061.98 2.3779 0.990644 0
M  V30 11848 H 1061.94 1.75979 2.60536 0
M  V30 11849 N 1065.71 0.390394 1.52688 0
M  V30 11850 C 1066.94 -0.194013 2.06491 0
M  V30 11851 C 1067.36 -1.3965 1.26014 0
M  V30 11852 O 1066.72 -1.79038 0.285468 0
M  V30 11853 C 1066.77 -0.541306 3.56514 0
M  V30 11854 O 1065.87 -1.63509 3.78601 0
M  V30 11855 H 1065.21 -0.0223608 0.663623 0
M  V30 11856 H 1067.74 0.558179 1.96839 0
M  V30 11857 H 1067.75 -0.805301 3.99974 0
M  V30 11858 H 1066.43 0.337828 4.14526 0
M  V30 11859 H 1065 -1.36473 3.4703 0
M  V30 11860 N 1067.19 -1.57141 0.120249 0
M  V30 11861 C 1068.41 -2.00017 -0.548454 0
M  V30 11862 C 1068.84 -0.999433 -1.59352 0
M  V30 11863 O 1068.2 0.0286978 -1.81277 0
M  V30 11864 C 1068.24 -3.41766 -1.15015 0
M  V30 11865 O 1067.35 -3.44589 -2.26566 0
M  V30 11866 H 1066.69 -0.649739 -0.136875 0
M  V30 11867 H 1069.22 -2.03529 0.209092 0
M  V30 11868 H 1069.23 -3.80001 -1.48537 0
M  V30 11869 H 1067.9 -4.14117 -0.384681 0
M  V30 11870 H 1066.48 -3.18174 -1.94473 0
M  V30 11871 N 1068.67 0.153526 -1.5685 0
M  V30 11872 C 1069.89 0.882335 -1.87143 0
M  V30 11873 C 1070.31 1.75034 -0.707702 0
M  V30 11874 O 1069.67 1.79624 0.32273 0
M  V30 11875 C 1069.72 1.74444 -3.16625 0
M  V30 11876 O 1069.44 0.911419 -4.28515 0
M  V30 11877 C 1070.94 2.58139 -3.60388 0
M  V30 11878 H 1068.16 0.25546 -0.620469 0
M  V30 11879 H 1070.7 0.148275 -2.03962 0
M  V30 11880 H 1068.86 2.43163 -3.0158 0
M  V30 11881 H 1069.27 1.50268 -5.02513 0
M  V30 11882 H 1070.75 3.14215 -4.53842 0
M  V30 11883 H 1071.22 3.33865 -2.85361 0
M  V30 11884 H 1071.83 1.94721 -3.78105 0
M  V30 11885 N 1070.14 1.51827 0.422667 0
M  V30 11886 C 1071.08 1.70409 1.53275 0
M  V30 11887 C 1072.09 0.584584 1.51942 0
M  V30 11888 O 1073.28 0.859349 1.56453 0
M  V30 11889 C 1070.38 1.717 2.92185 0
M  V30 11890 C 1069.55 3.00472 3.17861 0
M  V30 11891 C 1068.61 2.93755 4.36571 0
M  V30 11892 O 1067.64 3.67682 4.3451 0
M  V30 11893 N 1068.84 2.10612 5.40946 0
M  V30 11894 H 1071.6 2.66176 1.37734 0
M  V30 11895 H 1069.16 1.49895 0.611799 0
M  V30 11896 H 1071.16 1.64756 3.69645 0
M  V30 11897 H 1069.73 0.834655 3.01251 0
M  V30 11898 H 1068.95 3.21171 2.28567 0
M  V30 11899 H 1070.23 3.85684 3.31851 0
M  V30 11900 H 1069.63 1.49954 5.45463 0
M  V30 11901 H 1068.19 2.09535 6.17202 0
M  V30 11902 N 1071.62 -0.679052 1.4222 0
M  V30 11903 C 1072.57 -1.81398 1.45594 0
M  V30 11904 C 1073.56 -1.66112 0.332127 0
M  V30 11905 O 1074.77 -1.72772 0.504942 0
M  V30 11906 H 1071.15 -0.598045 0.455902 0
M  V30 11907 H 1073.12 -1.7567 2.41211 0
M  V30 11908 C 1071.87 -3.19525 1.37109 0
M  V30 11909 H 1071.19 -3.31912 2.22878 0
M  V30 11910 H 1072.63 -3.98967 1.43531 0
M  V30 11911 C 1071.09 -3.36792 0.0853593 0
M  V30 11912 O 1071.62 -3.92309 -0.863532 0
M  V30 11913 N 1069.82 -2.906 0.00389229 0
M  V30 11914 H 1069.37 -2.45607 0.776846 0
M  V30 11915 H 1069.33 -3.0253 -0.855742 0
M  V30 11916 N 1073.1 -1.28322 -0.914942 0
M  V30 11917 C 1074.35 -1.15407 -1.66396 0
M  V30 11918 C 1074.68 0.297587 -1.9221 0
M  V30 11919 O 1073.93 1.23299 -1.51973 0
M  V30 11920 C 1074.23 -1.89663 -3.02924 0
M  V30 11921 C 1073.9 -3.39464 -2.96774 0
M  V30 11922 C 1072.56 -3.80321 -2.94804 0
M  V30 11923 C 1074.91 -4.3499 -2.87111 0
M  V30 11924 C 1072.24 -5.15046 -2.8097 0
M  V30 11925 C 1074.59 -5.69788 -2.74818 0
M  V30 11926 C 1073.25 -6.09921 -2.71205 0
M  V30 11927 H 1072.52 -0.422303 -0.608885 0
M  V30 11928 H 1075.17 -1.59082 -1.06607 0
M  V30 11929 H 1073.48 -1.38533 -3.66491 0
M  V30 11930 H 1075.17 -1.77087 -3.59779 0
M  V30 11931 H 1071.76 -3.06979 -2.99101 0
M  V30 11932 H 1075.95 -4.04389 -2.87721 0
M  V30 11933 H 1071.2 -5.45271 -2.76568 0
M  V30 11934 H 1075.38 -6.43469 -2.66309 0
M  V30 11935 H 1073 -7.14267 -2.60243 0
M  V30 11936 N 1074.58 1.12322 -1.10551 0
M  V30 11937 C 1075.99 1.35858 -0.837543 0
M  V30 11938 C 1076.19 1.94062 0.54241 0
M  V30 11939 O 1075.25 2.1676 1.29505 0
M  V30 11940 C 1076.56 2.299 -1.9382 0
M  V30 11941 C 1078.11 2.43488 -1.96679 0
M  V30 11942 C 1078.59 3.40846 -3.05922 0
M  V30 11943 N 1080.08 3.48404 -3.05236 0
M  V30 11944 C 1080.81 4.2365 -3.86405 0
M  V30 11945 N 1080.31 5.01951 -4.77512 0
M  V30 11946 N 1082.1 4.19068 -3.74618 0
M  V30 11947 H 1074.25 0.729002 -1.99498 0
M  V30 11948 H 1076.52 0.38339 -0.867016 0
M  V30 11949 H 1076.22 1.94309 -2.9315 0
M  V30 11950 H 1076.1 3.30033 -1.82641 0
M  V30 11951 H 1078.48 2.78359 -0.979813 0
M  V30 11952 H 1078.56 1.43239 -2.11934 0
M  V30 11953 H 1078.21 3.06704 -4.04839 0
M  V30 11954 H 1078.14 4.40927 -2.87907 0
M  V30 11955 H 1080.63 2.92545 -2.39219 0
M  V30 11956 H 1080.94 5.56707 -5.36002 0
M  V30 11957 H 1079.29 5.01143 -4.8154 0
M  V30 11958 H 1082.48 3.5698 -3.02792 0
M  V30 11959 H 1082.65 4.77455 -4.38111 0
M  V30 11960 N 1076.06 0.894434 1.2976 0
M  V30 11961 C 1076.99 0.3847 2.30309 0
M  V30 11962 C 1077.97 -0.537486 1.61385 0
M  V30 11963 O 1079.15 -0.449332 1.8893 0
M  V30 11964 C 1076.28 -0.393311 3.45066 0
M  V30 11965 C 1075.24 0.437968 4.25753 0
M  V30 11966 C 1074.56 -0.467221 5.32655 0
M  V30 11967 C 1075.86 1.6851 4.9437 0
M  V30 11968 H 1077.56 1.22496 2.73194 0
M  V30 11969 H 1075.1 0.590471 1.31337 0
M  V30 11970 H 1077.06 -0.760614 4.14479 0
M  V30 11971 H 1075.78 -1.2673 3.0101 0
M  V30 11972 H 1074.44 0.787533 3.58041 0
M  V30 11973 H 1074.09 -1.33919 4.84845 0
M  V30 11974 H 1073.79 0.0852482 5.87538 0
M  V30 11975 H 1075.31 -0.830833 6.04921 0
M  V30 11976 H 1076.72 1.38784 5.56248 0
M  V30 11977 H 1075.12 2.17849 5.59162 0
M  V30 11978 H 1076.19 2.42412 4.19958 0
M  V30 11979 N 1077.53 -1.43282 0.656365 0
M  V30 11980 C 1078.46 -2.33492 -0.0196962 0
M  V30 11981 C 1079.45 -1.49647 -0.80868 0
M  V30 11982 O 1080.63 -1.78303 -0.769529 0
M  V30 11983 C 1077.76 -3.33052 -0.984574 0
M  V30 11984 C 1076.71 -4.26908 -0.305483 0
M  V30 11985 C 1076.04 -5.16531 -1.38202 0
M  V30 11986 C 1077.34 -5.16073 0.804081 0
M  V30 11987 H 1079.03 -2.90272 0.733661 0
M  V30 11988 H 1076.58 -1.39574 0.354259 0
M  V30 11989 H 1078.53 -3.9506 -1.46647 0
M  V30 11990 H 1077.26 -2.74535 -1.76913 0
M  V30 11991 H 1075.92 -3.66268 0.155995 0
M  V30 11992 H 1075.56 -4.54351 -2.1581 0
M  V30 11993 H 1075.26 -5.80148 -0.932878 0
M  V30 11994 H 1076.79 -5.81414 -1.86522 0
M  V30 11995 H 1078.2 -5.71873 0.404212 0
M  V30 11996 H 1076.6 -5.88427 1.17789 0
M  V30 11997 H 1077.67 -4.55574 1.66073 0
M  V30 11998 N 1079.01 -0.398486 -1.52479 0
M  V30 11999 C 1079.96 0.432212 -2.26717 0
M  V30 12000 C 1080.93 1.05007 -1.28696 0
M  V30 12001 O 1082.12 1.07636 -1.57541 0
M  V30 12002 C 1079.26 1.54868 -3.08399 0
M  V30 12003 C 1078.37 0.952779 -4.21362 0
M  V30 12004 C 1077.5 2.04106 -4.90423 0
M  V30 12005 C 1076.54 1.42153 -5.95364 0
M  V30 12006 N 1075.68 2.44951 -6.57984 0
M  V30 12007 H 1080.52 -0.207303 -2.97278 0
M  V30 12008 H 1078.06 -0.114066 -1.46657 0
M  V30 12009 H 1080.01 2.20684 -3.54054 0
M  V30 12010 H 1078.64 2.15837 -2.4003 0
M  V30 12011 H 1077.7 0.183962 -3.79955 0
M  V30 12012 H 1079.01 0.460131 -4.96673 0
M  V30 12013 H 1078.16 2.77672 -5.39429 0
M  V30 12014 H 1076.9 2.56733 -4.14656 0
M  V30 12015 H 1075.91 0.671161 -5.45688 0
M  V30 12016 H 1077.13 0.903093 -6.73068 0
M  V30 12017 H 1075.08 2.9673 -5.85053 0
M  V30 12018 H 1074.99 2.00468 -7.28937 0
M  V30 12019 H 1076.26 3.18119 -7.11632 0
M  V30 12020 N 1080.49 1.57075 -0.12858 0
M  V30 12021 C 1081.44 2.15816 0.818064 0
M  V30 12022 C 1082.41 1.08581 1.25696 0
M  V30 12023 O 1083.59 1.36535 1.33277 0
M  V30 12024 C 1080.73 2.76943 2.05905 0
M  V30 12025 C 1079.85 3.98514 1.66764 0
M  V30 12026 C 1078.98 4.47698 2.85902 0
M  V30 12027 C 1078.02 5.61778 2.43047 0
M  V30 12028 N 1077.16 6.05662 3.5513 0
M  V30 12029 H 1082 2.9638 0.310318 0
M  V30 12030 H 1079.53 1.46418 0.141472 0
M  V30 12031 H 1081.49 3.10519 2.78629 0
M  V30 12032 H 1080.12 1.99053 2.54122 0
M  V30 12033 H 1079.17 3.71038 0.838766 0
M  V30 12034 H 1080.49 4.81215 1.31277 0
M  V30 12035 H 1079.64 4.83233 3.66839 0
M  V30 12036 H 1078.38 3.63967 3.24622 0
M  V30 12037 H 1077.38 5.25838 1.60544 0
M  V30 12038 H 1078.61 6.47282 2.05433 0
M  V30 12039 H 1076.56 5.2487 3.93506 0
M  V30 12040 H 1076.47 6.83242 3.23598 0
M  V30 12041 H 1077.74 6.45838 4.36479 0
M  V30 12042 N 1081.97 -0.145205 1.5693 0
M  V30 12043 C 1082.9 -1.18096 2.01434 0
M  V30 12044 C 1083.88 -1.447 0.894204 0
M  V30 12045 O 1085.07 -1.55589 1.16214 0
M  V30 12046 C 1082.2 -2.51369 2.39647 0
M  V30 12047 C 1081.15 -2.39283 3.54863 0
M  V30 12048 C 1080.48 -3.77283 3.78895 0
M  V30 12049 C 1081.78 -1.8754 4.87469 0
M  V30 12050 H 1083.47 -0.810897 2.8821 0
M  V30 12051 H 1081.02 -0.388624 1.38657 0
M  V30 12052 H 1082.97 -3.24054 2.69382 0
M  V30 12053 H 1081.69 -2.90214 1.49811 0
M  V30 12054 H 1080.35 -1.6905 3.25296 0
M  V30 12055 H 1080 -4.13567 2.86307 0
M  V30 12056 H 1079.7 -3.70057 4.56433 0
M  V30 12057 H 1081.22 -4.51514 4.11057 0
M  V30 12058 H 1082.64 -2.50019 5.1591 0
M  V30 12059 H 1081.03 -1.912 5.68826 0
M  V30 12060 H 1082.1 -0.831194 4.77723 0
M  V30 12061 N 1083.45 -1.52049 -0.414609 0
M  V30 12062 C 1084.68 -1.69679 -1.18392 0
M  V30 12063 C 1085.09 -0.403881 -1.84429 0
M  V30 12064 O 1084.45 0.619636 -1.71659 0
M  V30 12065 C 1084.5 -2.82855 -2.25112 0
M  V30 12066 O 1084.22 -4.07138 -1.61772 0
M  V30 12067 C 1085.72 -3.11948 -3.14965 0
M  V30 12068 H 1082.94 -0.56879 -0.355977 0
M  V30 12069 H 1085.48 -1.9858 -0.488505 0
M  V30 12070 H 1083.64 -2.56488 -2.90332 0
M  V30 12071 H 1084.05 -4.70163 -2.32479 0
M  V30 12072 H 1085.53 -3.94665 -3.85932 0
M  V30 12073 H 1086 -2.25276 -3.77024 0
M  V30 12074 H 1086.61 -3.40059 -2.55421 0
M  V30 12075 N 1084.93 0.6715 -1.42579 0
M  V30 12076 C 1086.2 1.42766 -1.33706 0
M  V30 12077 C 1086.58 2.11086 0.0239748 0
M  V30 12078 O 1085.93 2.03479 1.03964 0
M  V30 12079 C 1086.14 2.42739 -2.50756 0
M  V30 12080 C 1087.49 3.07284 -2.93021 0
M  V30 12081 O 1088.51 2.53066 -2.50671 0
M  V30 12082 O 1087.37 4.05541 -3.66331 0
M  V30 12083 H 1084.47 0.636955 -0.527463 0
M  V30 12084 H 1087.01 0.699946 -1.54593 0
M  V30 12085 H 1085.78 1.91076 -3.41476 0
M  V30 12086 H 1085.41 3.22986 -2.31874 0
M  V30 12087 N 1086.4 1.28806 0.908124 0
M  V30 12088 C 1087.68 1.06981 1.63751 0
M  V30 12089 C 1088.06 -0.388936 2.07486 0
M  V30 12090 O 1087.41 -1.37611 1.82415 0
M  V30 12091 C 1087.62 2.04962 2.82474 0
M  V30 12092 C 1088.97 2.35418 3.5336 0
M  V30 12093 O 1089.99 2.03091 2.92631 0
M  V30 12094 O 1088.85 2.90617 4.62822 0
M  V30 12095 H 1085.94 0.409267 0.71863 0
M  V30 12096 H 1088.49 1.40146 0.956934 0
M  V30 12097 H 1087.26 3.03254 2.47291 0
M  V30 12098 H 1086.88 1.72476 3.58242 0
M  V30 12099 N 1087.88 -1.11734 1.11145 0
M  V30 12100 C 1088.81 -2.1976 0.789152 0
M  V30 12101 C 1089.79 -1.68382 -0.241143 0
M  V30 12102 O 1090.98 -1.93914 -0.105292 0
M  V30 12103 C 1088.11 -3.46549 0.228204 0
M  V30 12104 C 1087.06 -4.11123 1.19002 0
M  V30 12105 C 1086.39 -5.32451 0.489928 0
M  V30 12106 C 1087.69 -4.56406 2.53951 0
M  V30 12107 H 1089.38 -2.46978 1.69241 0
M  V30 12108 H 1086.93 -1.18705 0.81517 0
M  V30 12109 H 1088.88 -4.21399 -0.00945908 0
M  V30 12110 H 1087.6 -3.18782 -0.71033 0
M  V30 12111 H 1086.26 -3.38264 1.41326 0
M  V30 12112 H 1085.91 -5.00953 -0.453315 0
M  V30 12113 H 1085.61 -5.76605 1.1314 0
M  V30 12114 H 1087.14 -6.10042 0.260984 0
M  V30 12115 H 1088.55 -5.22592 2.35733 0
M  V30 12116 H 1086.95 -5.11363 3.14051 0
M  V30 12117 H 1088.02 -3.7001 3.13402 0
M  V30 12118 N 1089.36 -0.901303 -1.29284 0
M  V30 12119 C 1090.31 -0.378666 -2.27672 0
M  V30 12120 C 1091.28 0.540102 -1.57074 0
M  V30 12121 O 1092.46 0.464997 -1.85047 0
M  V30 12122 C 1089.6 0.38635 -3.42931 0
M  V30 12123 C 1088.71 -0.563496 -4.28309 0
M  V30 12124 C 1087.85 0.218731 -5.30749 0
M  V30 12125 C 1086.89 -0.725536 -6.07785 0
M  V30 12126 N 1086.03 0.0223854 -7.02096 0
M  V30 12127 H 1090.87 -1.22277 -2.71758 0
M  V30 12128 H 1088.4 -0.614302 -1.33659 0
M  V30 12129 H 1090.36 0.845967 -4.08533 0
M  V30 12130 H 1088.99 1.1949 -2.9987 0
M  V30 12131 H 1088.04 -1.14163 -3.62865 0
M  V30 12132 H 1089.35 -1.28623 -4.81931 0
M  V30 12133 H 1088.51 0.739473 -6.02177 0
M  V30 12134 H 1087.25 0.97459 -4.77863 0
M  V30 12135 H 1086.25 -1.25776 -5.3522 0
M  V30 12136 H 1087.48 -1.48075 -6.6276 0
M  V30 12137 H 1085.42 0.760482 -6.51577 0
M  V30 12138 H 1085.34 -0.640408 -7.53283 0
M  V30 12139 H 1086.61 0.523339 -7.77741 0
M  V30 12140 N 1090.84 1.42931 -0.663954 0
M  V30 12141 C 1092.25 1.56098 -0.332496 0
M  V30 12142 C 1092.45 1.64564 1.16279 0
M  V30 12143 O 1091.51 1.6066 1.94794 0
M  V30 12144 C 1092.82 2.81649 -1.05329 0
M  V30 12145 C 1094.37 2.95408 -1.03457 0
M  V30 12146 C 1094.85 4.23805 -1.73647 0
M  V30 12147 N 1096.34 4.30693 -1.70462 0
M  V30 12148 C 1097.07 5.28833 -2.21637 0
M  V30 12149 N 1096.57 6.33189 -2.81147 0
M  V30 12150 N 1098.36 5.20558 -2.12075 0
M  V30 12151 H 1090.51 1.3568 -1.63416 0
M  V30 12152 H 1092.77 0.652361 -0.687844 0
M  V30 12153 H 1092.48 2.81494 -2.10842 0
M  V30 12154 H 1092.35 3.72208 -0.611626 0
M  V30 12155 H 1094.74 2.95097 0.0121936 0
M  V30 12156 H 1094.82 2.06109 -1.51502 0
M  V30 12157 H 1094.47 4.24876 -2.78285 0
M  V30 12158 H 1094.4 5.12019 -1.2306 0
M  V30 12159 H 1096.89 3.55904 -1.27046 0
M  V30 12160 H 1097.2 7.04411 -3.17844 0
M  V30 12161 H 1095.55 6.33781 -2.85212 0
M  V30 12162 H 1098.74 4.3795 -1.6528 0
M  V30 12163 H 1098.91 5.96881 -2.52264 0
M  V30 12164 N 1092.32 0.406567 1.52266 0
M  V30 12165 C 1093.56 -0.171391 2.00971 0
M  V30 12166 C 1093.88 -1.46443 1.29668 0
M  V30 12167 O 1095.08 -2.12348 1.69176 0
M  V30 12168 C 1093.54 -0.35599 3.58135 0
M  V30 12169 C 1093.15 0.924803 4.38351 0
M  V30 12170 C 1094.89 -0.889378 4.15079 0
M  V30 12171 C 1092.8 0.707534 5.87152 0
M  V30 12172 H 1091.73 -0.0678253 0.750943 0
M  V30 12173 H 1094.38 0.531619 1.7563 0
M  V30 12174 H 1092.76 -1.12127 3.79794 0
M  V30 12175 H 1093.94 1.69603 4.28452 0
M  V30 12176 H 1092.25 1.38442 3.92712 0
M  V30 12177 H 1094.85 -1.06792 5.23927 0
M  V30 12178 H 1095.19 -1.86334 3.7227 0
M  V30 12179 H 1095.72 -0.183224 3.97378 0
M  V30 12180 H 1092.46 1.65299 6.34316 0
M  V30 12181 H 1091.98 -0.024446 5.99795 0
M  V30 12182 H 1093.66 0.348721 6.4606 0
M  V30 12183 N 1093.79 -1.57004 0.136909 0
M  V30 12184 C 1095.04 -1.94972 -0.51662 0
M  V30 12185 C 1095.36 -1.02367 -1.66674 0
M  V30 12186 O 1096.56 -1.29873 -2.38423 0
M  V30 12187 C 1095.02 -3.4657 -0.970435 0
M  V30 12188 C 1094.63 -4.47741 0.152204 0
M  V30 12189 C 1096.37 -3.93423 -1.59432 0
M  V30 12190 C 1094.28 -5.90537 -0.319315 0
M  V30 12191 H 1093.21 -0.727873 -0.196766 0
M  V30 12192 H 1095.86 -1.82181 0.219637 0
M  V30 12193 H 1094.24 -3.54657 -1.76165 0
M  V30 12194 H 1095.41 -4.5134 0.928925 0
M  V30 12195 H 1093.73 -4.10746 0.683867 0
M  V30 12196 H 1096.33 -4.97539 -1.95856 0
M  V30 12197 H 1096.67 -3.34404 -2.47951 0
M  V30 12198 H 1097.2 -3.8821 -0.868193 0
M  V30 12199 H 1093.94 -6.53352 0.530248 0
M  V30 12200 H 1093.46 -5.90321 -1.06213 0
M  V30 12201 H 1095.14 -6.42346 -0.774662 0
M  V30 12202 N 1095.27 0.136881 -1.57004 0
M  V30 12203 C 1096.52 0.847775 -1.83899 0
M  V30 12204 C 1096.85 1.80709 -0.719332 0
M  V30 12205 O 1096.1 1.93527 0.290838 0
M  V30 12206 C 1096.4 1.64711 -3.17183 0
M  V30 12207 C 1096.07 0.833683 -4.43126 0
M  V30 12208 C 1094.73 0.609306 -4.77327 0
M  V30 12209 C 1097.08 0.265504 -5.20523 0
M  V30 12210 C 1094.41 -0.193793 -5.8638 0
M  V30 12211 C 1096.76 -0.524688 -6.3042 0
M  V30 12212 C 1095.43 -0.759548 -6.63164 0
M  V30 12213 H 1094.7 0.310223 -0.672936 0
M  V30 12214 H 1097.34 0.110937 -1.91178 0
M  V30 12215 H 1095.65 2.45435 -3.054 0
M  V30 12216 H 1097.34 2.20081 -3.3521 0
M  V30 12217 H 1093.93 1.01864 -4.16319 0
M  V30 12218 H 1098.12 0.426109 -4.94467 0
M  V30 12219 H 1093.37 -0.385153 -6.10186 0
M  V30 12220 H 1097.55 -0.972033 -6.89583 0
M  V30 12221 H 1095.18 -1.38369 -7.47501 0
M  V30 12222 N 1096.75 1.52266 0.40654 0
M  V30 12223 C 1098.16 1.58587 0.985241 0
M  V30 12224 C 1098.51 0.427955 1.91476 0
M  V30 12225 O 1097.64 -0.451341 2.11641 0
M  V30 12226 C 1098.23 2.87426 1.79365 0
M  V30 12227 C 1096.79 2.96217 2.32233 0
M  V30 12228 C 1095.94 2.53548 1.12288 0
M  V30 12229 H 1098.89 1.57598 0.186685 0
M  V30 12230 H 1098.91 2.72925 2.65127 0
M  V30 12231 H 1098.42 3.71682 1.11687 0
M  V30 12232 H 1096.52 2.1646 3.03275 0
M  V30 12233 H 1096.64 4.00511 2.62922 0
M  V30 12234 H 1095 2.07457 1.47763 0
M  V30 12235 H 1095.78 3.40181 0.461731 0
M  V30 12236 N 1098.23 -0.663929 1.42933 0
M  V30 12237 C 1099.48 -1.41973 1.43271 0
M  V30 12238 C 1099.79 -1.95518 0.0566103 0
M  V30 12239 O 1101 -2.71428 -0.0625862 0
M  V30 12240 C 1099.45 -2.56882 2.52071 0
M  V30 12241 C 1099.06 -2.0999 3.95737 0
M  V30 12242 C 1100.8 -3.34322 2.61589 0
M  V30 12243 C 1098.71 -3.22046 4.96025 0
M  V30 12244 H 1097.64 -0.5334 0.532917 0
M  V30 12245 H 1100.29 -0.717709 1.68882 0
M  V30 12246 H 1098.67 -3.29504 2.19643 0
M  V30 12247 H 1099.85 -1.44449 4.37574 0
M  V30 12248 H 1098.16 -1.45459 3.90168 0
M  V30 12249 H 1100.76 -4.17796 3.33692 0
M  V30 12250 H 1101.1 -3.8164 1.66302 0
M  V30 12251 H 1101.64 -2.68775 2.93266 0
M  V30 12252 H 1098.38 -2.79708 5.92827 0
M  V30 12253 H 1097.9 -3.86333 4.5881 0
M  V30 12254 H 1099.57 -3.87345 5.1824 0
M  V30 12255 N 1099.71 -1.29285 -0.901281 0
M  V30 12256 C 1100.64 -1.10086 -2.01032 0
M  V30 12257 C 1101.65 -0.0488364 -1.62727 0
M  V30 12258 O 1102.84 -0.293194 -1.76076 0
M  V30 12259 C 1099.94 -0.653357 -3.32542 0
M  V30 12260 C 1099.11 -1.78355 -3.99385 0
M  V30 12261 C 1098.17 -1.32733 -5.09184 0
M  V30 12262 O 1097.2 -2.03177 -5.31703 0
M  V30 12263 N 1098.4 -0.197345 -5.80164 0
M  V30 12264 H 1101.17 -2.056 -2.18057 0
M  V30 12265 H 1098.73 -1.21204 -1.07337 0
M  V30 12266 H 1100.72 -0.331491 -4.0334 0
M  V30 12267 H 1099.29 0.209278 -3.11899 0
M  V30 12268 H 1098.51 -2.27438 -3.21972 0
M  V30 12269 H 1099.8 -2.54137 -4.40785 0
M  V30 12270 H 1099.19 0.390011 -5.64354 0
M  V30 12271 H 1097.75 0.0651642 -6.51767 0
M  V30 12272 N 1101.18 1.11143 -1.11736 0
M  V30 12273 C 1102.11 2.19339 -0.800795 0
M  V30 12274 C 1103.1 1.68508 0.23221 0
M  V30 12275 O 1104.28 1.93967 0.0950063 0
M  V30 12276 C 1101.41 3.46424 -0.246579 0
M  V30 12277 C 1100.36 4.10487 -1.21181 0
M  V30 12278 C 1099.69 5.32183 -0.518158 0
M  V30 12279 C 1100.99 4.55052 -2.56368 0
M  V30 12280 H 1102.68 2.46077 -1.70548 0
M  V30 12281 H 1100.23 1.18271 -0.821454 0
M  V30 12282 H 1102.18 4.21398 -0.0128889 0
M  V30 12283 H 1100.91 3.19154 0.693415 0
M  V30 12284 H 1099.57 3.3751 -1.43118 0
M  V30 12285 H 1099.21 5.01187 0.426742 0
M  V30 12286 H 1098.91 5.75997 -1.16196 0
M  V30 12287 H 1100.44 6.09895 -0.293333 0
M  V30 12288 H 1101.85 5.21335 -2.38501 0
M  V30 12289 H 1100.25 5.0969 -3.16758 0
M  V30 12290 H 1101.32 3.68343 -3.1536 0
M  V30 12291 N 1102.66 0.908147 1.28804 0
M  V30 12292 C 1103.89 0.553431 1.9988 0
M  V30 12293 C 1104.31 -0.856714 1.67458 0
M  V30 12294 O 1103.67 -1.57163 0.903849 0
M  V30 12295 C 1103.72 0.762688 3.52442 0
M  V30 12296 O 1102.82 -0.180924 4.12003 0
M  V30 12297 H 1102.16 0.215237 0.628147 0
M  V30 12298 H 1104.69 1.22205 1.64095 0
M  V30 12299 H 1104.7 0.670612 4.02451 0
M  V30 12300 H 1103.38 1.79071 3.75375 0
M  V30 12301 H 1101.96 -0.0405897 3.72878 0
M  V30 12302 N 1104.14 -1.42577 0.671525 0
M  V30 12303 C 1105.09 -2.32591 -0.0205354 0
M  V30 12304 C 1106.08 -1.4964 -0.793993 0
M  V30 12305 O 1107.29 -1.65733 -0.702327 0
M  V30 12306 H 1103.66 -0.75157 -0.0254344 0
M  V30 12307 H 1105.63 -2.88662 0.756082 0
M  V30 12308 C 1104.38 -3.34175 -0.960316 0
M  V30 12309 H 1103.71 -3.98041 -0.374577 0
M  V30 12310 H 1105.15 -3.99752 -1.4133 0
M  V30 12311 C 1103.61 -2.66184 -2.06513 0
M  V30 12312 O 1104.14 -2.49125 -3.15119 0
M  V30 12313 N 1102.34 -2.25261 -1.83591 0
M  V30 12314 H 1101.89 -2.39336 -0.952689 0
M  V30 12315 H 1101.85 -1.80101 -2.57703 0
M  V30 12316 N 1105.62 -0.414636 -1.52048 0
M  V30 12317 C 1106.87 0.16073 -2.01059 0
M  V30 12318 C 1107.18 1.45753 -1.30443 0
M  V30 12319 O 1108.39 2.11448 -1.703 0
M  V30 12320 C 1106.84 0.336993 -3.58319 0
M  V30 12321 C 1106.45 -0.948037 -4.37854 0
M  V30 12322 C 1108.19 0.867353 -4.15545 0
M  V30 12323 C 1106.1 -0.738662 -5.86769 0
M  V30 12324 H 1105.03 0.0638419 -0.751292 0
M  V30 12325 H 1107.68 -0.540925 -1.75346 0
M  V30 12326 H 1106.06 1.10111 -3.80383 0
M  V30 12327 H 1107.24 -1.71873 -4.27547 0
M  V30 12328 H 1105.55 -1.40522 -3.91972 0
M  V30 12329 H 1108.15 1.04012 -5.24486 0
M  V30 12330 H 1108.49 1.84358 -3.73253 0
M  V30 12331 H 1109.03 0.162148 -3.97469 0
M  V30 12332 H 1105.77 -1.6866 -6.3343 0
M  V30 12333 H 1105.29 -0.00736294 -5.998 0
M  V30 12334 H 1106.96 -0.382978 -6.45866 0
M  V30 12335 N 1107.1 1.56929 -0.145233 0
M  V30 12336 C 1108.33 2.00141 0.51257 0
M  V30 12337 C 1108.73 1.0243 1.59075 0
M  V30 12338 O 1108.08 0.0130063 1.83695 0
M  V30 12339 C 1108.14 3.39785 1.17417 0
M  V30 12340 C 1107.8 4.56365 0.240801 0
M  V30 12341 C 1108.8 5.17183 -0.530847 0
M  V30 12342 C 1106.49 5.02093 0.144221 0
M  V30 12343 C 1108.48 6.22136 -1.38654 0
M  V30 12344 C 1106.17 6.06902 -0.71508 0
M  V30 12345 C 1107.16 6.66793 -1.47907 0
M  V30 12346 O 1106.85 7.69573 -2.32405 0
M  V30 12347 H 1106.58 0.661747 0.138085 0
M  V30 12348 H 1109.14 2.04037 -0.236269 0
M  V30 12349 H 1107.37 3.32722 1.97061 0
M  V30 12350 H 1109.06 3.67115 1.73152 0
M  V30 12351 H 1109.82 4.82754 -0.466256 0
M  V30 12352 H 1105.7 4.55206 0.728613 0
M  V30 12353 H 1109.25 6.68812 -1.98333 0
M  V30 12354 H 1105.14 6.40758 -0.78097 0
M  V30 12355 H 1105.91 7.86786 -2.25634 0
M  V30 12356 N 1108.58 -0.128553 1.57075 0
M  V30 12357 C 1109.8 -0.8564 1.88893 0
M  V30 12358 C 1110.23 -1.73095 0.736196 0
M  V30 12359 O 1109.58 -1.78567 -0.313629 0
M  V30 12360 C 1109.63 -1.67368 3.19406 0
M  V30 12361 O 1108.74 -2.77973 3.04639 0
M  V30 12362 H 1108.08 -0.237424 0.620102 0
M  V30 12363 H 1110.61 -0.113821 2.04283 0
M  V30 12364 H 1110.62 -2.0649 3.51889 0
M  V30 12365 H 1109.29 -1.03161 4.02903 0
M  V30 12366 H 1107.87 -2.42123 2.83603 0
M  V30 12367 N 1110.05 -1.5248 -0.398459 0
M  V30 12368 C 1111 -1.77211 -1.50662 0
M  V30 12369 C 1112 -0.639638 -1.5686 0
M  V30 12370 O 1113.2 -0.821917 -1.60139 0
M  V30 12371 H 1109.58 -0.56057 -0.501264 0
M  V30 12372 H 1111.55 -2.70028 -1.26993 0
M  V30 12373 C 1110.3 -1.94944 -2.8791 0
M  V30 12374 H 1109.62 -2.8151 -2.83888 0
M  V30 12375 H 1111.06 -2.16243 -3.64712 0
M  V30 12376 C 1109.52 -0.719402 -3.29129 0
M  V30 12377 O 1110.05 0.107671 -4.01556 0
M  V30 12378 N 1108.25 -0.552228 -2.85305 0
M  V30 12379 H 1107.8 -1.22638 -2.26534 0
M  V30 12380 H 1107.76 0.269447 -3.13243 0
M  V30 12381 N 1111.53 0.65634 -1.43283 0
M  V30 12382 C 1112.78 1.41627 -1.44734 0
M  V30 12383 C 1113.11 1.94372 -0.0704893 0
M  V30 12384 O 1112.36 1.72511 0.924037 0
M  V30 12385 C 1112.66 2.61688 -2.43421 0
M  V30 12386 C 1112.33 2.2738 -3.8937 0
M  V30 12387 C 1110.99 2.17735 -4.29121 0
M  V30 12388 C 1113.34 1.99863 -4.81357 0
M  V30 12389 C 1110.67 1.78725 -5.58815 0
M  V30 12390 C 1113.02 1.62352 -6.11412 0
M  V30 12391 C 1111.68 1.51231 -6.50143 0
M  V30 12392 H 1110.95 0.51825 -0.529621 0
M  V30 12393 H 1113.6 0.746701 -1.76342 0
M  V30 12394 H 1111.91 3.33763 -2.05206 0
M  V30 12395 H 1113.6 3.19896 -2.41801 0
M  V30 12396 H 1110.19 2.35795 -3.57908 0
M  V30 12397 H 1114.38 2.06237 -4.5142 0
M  V30 12398 H 1109.63 1.68698 -5.87666 0
M  V30 12399 H 1113.81 1.40091 -6.82164 0
M  V30 12400 H 1111.43 1.20774 -7.50545 0
M  V30 12401 N 1113.01 1.29761 0.894412 0
M  V30 12402 C 1114.26 1.18214 1.64782 0
M  V30 12403 C 1114.59 -0.264635 1.92388 0
M  V30 12404 O 1113.86 -1.19051 1.53809 0
M  V30 12405 C 1114.15 2.00138 2.99361 0
M  V30 12406 C 1114 3.52984 2.78787 0
M  V30 12407 C 1115.32 1.83187 4.00163 0
M  V30 12408 H 1112.44 0.430802 0.597979 0
M  V30 12409 H 1115.08 1.59292 1.03566 0
M  V30 12410 H 1113.23 1.65233 3.51611 0
M  V30 12411 H 1114.9 3.97898 2.33398 0
M  V30 12412 H 1113.14 3.77642 2.13469 0
M  V30 12413 H 1113.82 4.05585 3.7444 0
M  V30 12414 H 1116.29 2.13684 3.57041 0
M  V30 12415 H 1115.17 2.42849 4.92255 0
M  V30 12416 H 1115.43 0.788469 4.35012 0
M  V30 12417 N 1114.49 -1.10549 1.12324 0
M  V30 12418 C 1115.73 -1.84108 0.887895 0
M  V30 12419 C 1116.09 -1.83159 -0.5759 0
M  V30 12420 O 1117.29 -2.52259 -0.928367 0
M  V30 12421 C 1115.56 -3.26866 1.44545 0
M  V30 12422 S 1117.12 -4.17567 1.34846 0
M  V30 12423 H 1113.94 -0.634752 0.320329 0
M  V30 12424 H 1116.54 -1.33036 1.43254 0
M  V30 12425 H 1115.25 -3.25126 2.50442 0
M  V30 12426 H 1114.78 -3.83008 0.89825 0
M  V30 12427 H 1116.79 -4.95173 0.319143 0
M  V30 12428 N 1115.97 -0.914965 -1.28321 0
M  V30 12429 C 1117.21 -0.544639 -1.94208 0
M  V30 12430 C 1117.53 0.916368 -1.72806 0
M  V30 12431 O 1118.73 1.39491 -2.32926 0
M  V30 12432 C 1117.19 -0.923209 -3.47858 0
M  V30 12433 C 1116.8 -2.40403 -3.78035 0
M  V30 12434 C 1118.54 -0.623526 -4.19896 0
M  V30 12435 C 1116.45 -2.72266 -5.25 0
M  V30 12436 H 1115.38 -0.199966 -0.727 0
M  V30 12437 H 1118.03 -1.11405 -1.45812 0
M  V30 12438 H 1116.41 -0.282576 -3.94991 0
M  V30 12439 H 1117.59 -3.09149 -3.41706 0
M  V30 12440 H 1115.9 -2.67429 -3.19172 0
M  V30 12441 H 1118.5 -0.838243 -5.28089 0
M  V30 12442 H 1118.84 0.438721 -4.13982 0
M  V30 12443 H 1119.37 -1.22268 -3.78544 0
M  V30 12444 H 1116.11 -3.77349 -5.35993 0
M  V30 12445 H 1115.63 -2.08157 -5.62522 0
M  V30 12446 H 1117.31 -2.59334 -5.92752 0
M  V30 12447 N 1117.44 1.42219 -0.679077 0
M  V30 12448 C 1118.39 2.27992 0.0194379 0
M  V30 12449 C 1119.38 1.41317 0.769313 0
M  V30 12450 O 1120.57 1.64731 0.647521 0
M  V30 12451 C 1117.7 3.29401 0.966945 0
M  V30 12452 C 1116.78 4.23559 0.214187 0
M  V30 12453 N 1117.18 4.99699 -0.783226 0
M  V30 12454 C 1115.47 4.43703 0.452026 0
M  V30 12455 C 1116.17 5.68496 -1.23237 0
M  V30 12456 N 1115.15 5.40692 -0.561484 0
M  V30 12457 H 1118.95 2.84287 -0.745542 0
M  V30 12458 H 1116.47 1.54234 -0.508504 0
M  V30 12459 H 1118.46 3.89655 1.48238 0
M  V30 12460 H 1117.12 2.74667 1.7317 0
M  V30 12461 H 1118.13 5.04675 -1.16291 0
M  V30 12462 H 1114.81 4.00004 1.19595 0
M  V30 12463 H 1116.2 6.3957 -2.05912 0
M  V30 12464 N 1118.92 0.422693 1.51826 0
M  V30 12465 C 1120.17 -0.148861 2.02253 0
M  V30 12466 C 1120.5 -1.43629 1.30707 0
M  V30 12467 O 1119.78 -1.89967 0.417482 0
M  V30 12468 C 1120.06 -0.382672 3.58061 0
M  V30 12469 C 1119.91 0.922386 4.40241 0
M  V30 12470 C 1121.23 -1.1589 4.24567 0
M  V30 12471 H 1118.35 -0.0526279 0.735119 0
M  V30 12472 H 1120.99 0.558821 1.81596 0
M  V30 12473 H 1119.14 -0.985495 3.75793 0
M  V30 12474 H 1120.81 1.55806 4.34191 0
M  V30 12475 H 1119.06 1.53032 4.05911 0
M  V30 12476 H 1119.73 0.713012 5.47376 0
M  V30 12477 H 1122.2 -0.648415 4.11017 0
M  V30 12478 H 1121.08 -1.29125 5.33496 0
M  V30 12479 H 1121.34 -2.18315 3.84436 0
M  V30 12480 N 1120.4 -1.5685 0.153553 0
M  V30 12481 C 1121.33 -2.20101 -0.779601 0
M  V30 12482 C 1122.31 -1.15121 -1.25225 0
M  V30 12483 O 1123.5 -1.43487 -1.30862 0
M  V30 12484 C 1120.63 -2.82778 -2.01628 0
M  V30 12485 C 1119.58 -3.93643 -1.68015 0
M  V30 12486 C 1118.91 -4.43286 -2.99001 0
M  V30 12487 C 1120.21 -5.14102 -0.921774 0
M  V30 12488 H 1121.9 -2.98334 -0.252432 0
M  V30 12489 H 1119.45 -1.43499 -0.119975 0
M  V30 12490 H 1121.4 -3.25696 -2.67395 0
M  V30 12491 H 1120.12 -2.01887 -2.56728 0
M  V30 12492 H 1118.78 -3.51354 -1.04624 0
M  V30 12493 H 1118.43 -3.59208 -3.52106 0
M  V30 12494 H 1118.13 -5.18068 -2.77272 0
M  V30 12495 H 1119.65 -4.88878 -3.65828 0
M  V30 12496 H 1121.07 -5.53823 -1.48167 0
M  V30 12497 H 1119.46 -5.94687 -0.804185 0
M  V30 12498 H 1120.53 -4.84825 0.0852757 0
M  V30 12499 N 1121.88 0.120221 -1.57141 0
M  V30 12500 C 1123.13 0.826791 -1.83976 0
M  V30 12501 C 1123.44 1.81102 -0.739014 0
M  V30 12502 O 1124.65 2.56368 -0.893736 0
M  V30 12503 C 1123.1 1.52108 -3.26176 0
M  V30 12504 C 1122.71 0.577902 -4.44257 0
M  V30 12505 C 1124.45 2.21286 -3.62261 0
M  V30 12506 C 1122.36 1.27535 -5.77485 0
M  V30 12507 H 1121.29 0.312508 -0.686189 0
M  V30 12508 H 1123.94 0.0795343 -1.83328 0
M  V30 12509 H 1122.32 2.31492 -3.2129 0
M  V30 12510 H 1123.5 -0.182629 -4.60438 0
M  V30 12511 H 1121.81 -0.00684348 -4.16399 0
M  V30 12512 H 1124.41 2.74154 -4.59068 0
M  V30 12513 H 1124.75 2.99029 -2.89634 0
M  V30 12514 H 1125.29 1.48791 -3.68925 0
M  V30 12515 H 1122.02 0.539237 -6.53278 0
M  V30 12516 H 1121.54 2.00792 -5.65192 0
M  V30 12517 H 1123.22 1.80888 -6.21199 0
M  V30 12518 N 1123.36 1.52689 0.390367 0
M  V30 12519 C 1124.3 1.78007 1.4972 0
M  V30 12520 C 1125.3 0.647948 1.56518 0
M  V30 12521 O 1126.5 0.830398 1.59701 0
M  V30 12522 H 1122.88 0.56322 0.498284 0
M  V30 12523 H 1124.85 2.70698 1.25559 0
M  V30 12524 C 1123.6 1.96469 2.86872 0
M  V30 12525 H 1122.92 2.83012 2.82391 0
M  V30 12526 H 1124.36 2.18174 3.6356 0
M  V30 12527 C 1122.82 0.736847 3.28743 0
M  V30 12528 O 1123.35 -0.0863743 4.01607 0
M  V30 12529 N 1121.56 0.56735 2.85008 0
M  V30 12530 H 1121.1 1.23838 2.2588 0
M  V30 12531 H 1121.06 -0.252831 3.13382 0
M  V30 12532 N 1124.83 -0.648732 1.43629 0
M  V30 12533 C 1126.06 -1.44117 1.49148 0
M  V30 12534 C 1126.48 -1.87767 0.111952 0
M  V30 12535 O 1125.84 -1.57655 -0.895249 0
M  V30 12536 C 1125.89 -2.64938 2.44623 0
M  V30 12537 O 1124.99 -3.64155 1.93559 0
M  V30 12538 H 1124.34 -0.431933 0.504312 0
M  V30 12539 H 1126.87 -0.793439 1.88589 0
M  V30 12540 H 1126.88 -3.12698 2.62076 0
M  V30 12541 H 1125.55 -2.3251 3.44836 0
M  V30 12542 H 1124.13 -3.23322 1.85789 0
M  V30 12543 N 1126.31 -1.30234 -0.887518 0
M  V30 12544 C 1127.26 -1.164 -1.99298 0
M  V30 12545 C 1128.23 -0.0541536 -1.66012 0
M  V30 12546 O 1129.41 -0.223881 -1.89482 0
M  V30 12547 C 1126.55 -0.859169 -3.34234 0
M  V30 12548 C 1125.67 -2.05065 -3.80227 0
M  V30 12549 C 1124.8 -1.68413 -5.03796 0
M  V30 12550 C 1123.84 -2.8407 -5.4219 0
M  V30 12551 N 1122.98 -2.47732 -6.56942 0
M  V30 12552 H 1127.82 -2.10973 -2.10463 0
M  V30 12553 H 1125.36 -1.04969 -1.03053 0
M  V30 12554 H 1127.31 -0.663064 -4.11897 0
M  V30 12555 H 1125.94 0.0496808 -3.22762 0
M  V30 12556 H 1125 -2.35808 -2.98494 0
M  V30 12557 H 1126.31 -2.91688 -4.04623 0
M  V30 12558 H 1125.46 -1.45162 -5.89078 0
M  V30 12559 H 1124.2 -0.789553 -4.81266 0
M  V30 12560 H 1123.21 -3.0799 -4.55437 0
M  V30 12561 H 1124.43 -3.74211 -5.66695 0
M  V30 12562 H 1122.38 -1.60777 -6.35993 0
M  V30 12563 H 1122.29 -3.27887 -6.81195 0
M  V30 12564 H 1123.56 -2.27831 -7.45462 0
M  V30 12565 N 1127.79 1.09952 -1.12909 0
M  V30 12566 C 1128.74 2.18525 -0.796849 0
M  V30 12567 C 1129.73 1.67985 0.218483 0
M  V30 12568 O 1130.94 1.79839 0.07618 0
M  V30 12569 H 1127.31 0.712714 -0.239882 0
M  V30 12570 H 1129.28 2.43783 -1.72083 0
M  V30 12571 C 1128.03 3.46625 -0.273237 0
M  V30 12572 H 1127.36 3.85879 -1.04582 0
M  V30 12573 H 1128.8 4.23926 -0.0791355 0
M  V30 12574 C 1127.26 3.2172 0.999903 0
M  V30 12575 O 1127.79 3.43851 2.07676 0
M  V30 12576 N 1125.99 2.75356 0.928833 0
M  V30 12577 H 1125.54 2.57547 0.052379 0
M  V30 12578 H 1125.5 2.5907 1.78129 0
M  V30 12579 N 1129.27 0.921757 1.27833 0
M  V30 12580 C 1130.52 0.55493 1.93916 0
M  V30 12581 C 1130.83 -0.907191 1.7329 0
M  V30 12582 O 1132.04 -1.38253 2.33663 0
M  V30 12583 C 1130.49 0.941644 3.47363 0
M  V30 12584 C 1130.1 2.42404 3.76755 0
M  V30 12585 C 1131.84 0.645785 4.19559 0
M  V30 12586 C 1129.75 2.75046 5.23549 0
M  V30 12587 H 1128.68 0.203818 0.72593 0
M  V30 12588 H 1131.33 1.12176 1.4522 0
M  V30 12589 H 1129.71 0.303519 3.94835 0
M  V30 12590 H 1130.89 3.10957 3.40062 0
M  V30 12591 H 1129.2 2.69118 3.17749 0
M  V30 12592 H 1131.8 0.866237 5.27637 0
M  V30 12593 H 1132.14 -0.41676 4.14209 0
M  V30 12594 H 1132.68 1.24274 3.7789 0
M  V30 12595 H 1129.42 3.80186 5.33984 0
M  V30 12596 H 1128.94 2.11138 5.6141 0
M  V30 12597 H 1130.61 2.62474 5.91368 0
M  V30 12598 N 1130.75 -1.41857 0.686609 0
M  V30 12599 C 1132.02 -1.95082 0.142228 0
M  V30 12600 C 1132.4 -1.62646 -1.34572 0
M  V30 12601 O 1131.75 -0.928757 -2.08773 0
M  V30 12602 C 1131.96 -3.46415 0.423955 0
M  V30 12603 C 1133.31 -4.23181 0.346842 0
M  V30 12604 O 1134.33 -3.54393 0.358363 0
M  V30 12605 O 1133.19 -5.4568 0.299211 0
M  V30 12606 H 1130.29 -0.826943 0.00974 0
M  V30 12607 H 1132.83 -1.51622 0.762153 0
M  V30 12608 H 1131.6 -3.63273 1.45424 0
M  V30 12609 H 1131.23 -3.96949 -0.227391 0
M  V30 12610 N 1132.22 -0.430739 -1.51599 0
M  V30 12611 C 1133.17 0.384024 -2.27583 0
M  V30 12612 C 1134.14 1.02254 -1.30895 0
M  V30 12613 O 1135.33 1.0427 -1.59789 0
M  V30 12614 C 1132.47 1.48291 -3.11615 0
M  V30 12615 C 1131.58 0.863187 -4.23288 0
M  V30 12616 C 1130.71 1.93657 -4.94642 0
M  V30 12617 C 1129.75 1.29493 -5.98246 0
M  V30 12618 N 1128.89 2.30939 -6.63032 0
M  V30 12619 H 1133.73 -0.270314 -2.96771 0
M  V30 12620 H 1131.27 -0.145148 -1.46382 0
M  V30 12621 H 1133.23 2.13124 -3.58656 0
M  V30 12622 H 1131.86 2.10697 -2.44554 0
M  V30 12623 H 1130.91 0.103326 -3.8026 0
M  V30 12624 H 1132.22 0.354676 -4.97537 0
M  V30 12625 H 1131.37 2.66167 -5.45197 0
M  V30 12626 H 1130.11 2.4788 -4.20008 0
M  V30 12627 H 1129.12 0.555262 -5.46989 0
M  V30 12628 H 1130.34 0.760122 -6.74833 0
M  V30 12629 H 1128.29 2.84254 -5.91216 0
M  V30 12630 H 1128.21 1.84961 -7.33025 0
M  V30 12631 H 1129.47 3.02953 -7.1822 0
M  V30 12632 N 1133.7 1.56767 -0.161869 0
M  V30 12633 C 1134.94 1.98487 0.488067 0
M  V30 12634 C 1135.31 1.04527 1.61053 0
M  V30 12635 O 1136.51 1.35351 2.32236 0
M  V30 12636 C 1134.78 3.44057 0.967446 0
M  V30 12637 S 1136.34 4.07805 1.61989 0
M  V30 12638 H 1133.16 0.693377 0.157318 0
M  V30 12639 H 1135.76 1.93802 -0.257099 0
M  V30 12640 H 1134.46 4.10161 0.139959 0
M  V30 12641 H 1133.99 3.52488 1.74688 0
M  V30 12642 H 1136.01 4.02078 2.90772 0
M  V30 12643 N 1135.18 -0.111886 1.57202 0
M  V30 12644 C 1136.11 -1.13796 2.03894 0
M  V30 12645 C 1137.09 -1.4277 0.924696 0
M  V30 12646 O 1138.28 -1.53089 1.19488 0
M  V30 12647 C 1135.41 -2.46229 2.44925 0
M  V30 12648 C 1134.36 -2.31702 3.59859 0
M  V30 12649 C 1133.69 -3.69161 3.86813 0
M  V30 12650 C 1134.99 -1.77158 4.91337 0
M  V30 12651 H 1136.68 -0.749581 2.89865 0
M  V30 12652 H 1134.23 -0.359126 1.3945 0
M  V30 12653 H 1136.18 -3.18267 2.76195 0
M  V30 12654 H 1134.9 -2.86971 1.55933 0
M  V30 12655 H 1133.56 -1.62112 3.28809 0
M  V30 12656 H 1133.21 -4.07401 2.95015 0
M  V30 12657 H 1132.91 -3.60292 4.6418 0
M  V30 12658 H 1134.43 -4.42693 4.20542 0
M  V30 12659 H 1135.85 -2.3902 5.21097 0
M  V30 12660 H 1134.25 -1.79091 5.72753 0
M  V30 12661 H 1135.32 -0.729675 4.79379 0
M  V30 12662 N 1136.66 -1.52894 -0.382264 0
M  V30 12663 C 1137.61 -1.78151 -1.46734 0
M  V30 12664 C 1138.58 -0.625034 -1.53891 0
M  V30 12665 O 1139.76 -0.865467 -1.70042 0
M  V30 12666 C 1136.9 -1.96223 -2.83885 0
M  V30 12667 C 1136.01 -3.23925 -2.85826 0
M  V30 12668 C 1135.15 -3.32277 -4.14446 0
M  V30 12669 C 1134.19 -4.54076 -4.10465 0
M  V30 12670 N 1133.32 -4.59672 -5.30703 0
M  V30 12671 H 1138.16 -2.70748 -1.24497 0
M  V30 12672 H 1135.7 -1.34135 -0.603838 0
M  V30 12673 H 1137.66 -2.04686 -3.63537 0
M  V30 12674 H 1136.29 -1.0698 -3.04557 0
M  V30 12675 H 1135.34 -3.245 -1.98505 0
M  V30 12676 H 1136.65 -4.1364 -2.78754 0
M  V30 12677 H 1135.81 -3.3996 -5.02506 0
M  V30 12678 H 1134.55 -2.40548 -4.2425 0
M  V30 12679 H 1133.55 -4.46511 -3.20793 0
M  V30 12680 H 1134.78 -5.47128 -4.02278 0
M  V30 12681 H 1132.72 -3.70838 -5.41124 0
M  V30 12682 H 1132.64 -5.43268 -5.25734 0
M  V30 12683 H 1133.91 -4.71618 -6.20642 0
M  V30 12684 N 1138.14 0.641106 -1.43971 0
M  V30 12685 C 1139.55 1.22254 -1.41106 0
M  V30 12686 C 1139.9 1.95825 -0.121284 0
M  V30 12687 O 1139.02 2.01901 0.77879 0
M  V30 12688 C 1139.62 2.22364 -2.55617 0
M  V30 12689 C 1138.18 2.75957 -2.55978 0
M  V30 12690 C 1137.33 1.50792 -2.32717 0
M  V30 12691 H 1140.28 0.432381 -1.52696 0
M  V30 12692 H 1140.3 3.04775 -2.27799 0
M  V30 12693 H 1139.81 1.68789 -3.49474 0
M  V30 12694 H 1137.91 3.33562 -1.66034 0
M  V30 12695 H 1138.02 3.22676 -3.54142 0
M  V30 12696 H 1136.39 1.7857 -1.81617 0
M  V30 12697 H 1137.17 0.991343 -3.28675 0
M  V30 12698 N 1139.62 1.30703 0.880598 0
M  V30 12699 C 1140.85 1.22536 1.66339 0
M  V30 12700 C 1141.25 -0.213507 1.87991 0
M  V30 12701 O 1140.6 -1.15236 1.43061 0
M  V30 12702 C 1140.66 1.88798 3.05934 0
M  V30 12703 C 1140.32 3.38131 3.07435 0
M  V30 12704 C 1141.32 4.34053 2.86171 0
M  V30 12705 C 1139 3.79651 3.28893 0
M  V30 12706 C 1141 5.69469 2.86328 0
M  V30 12707 C 1138.69 5.15182 3.2868 0
M  V30 12708 C 1139.68 6.09902 3.07423 0
M  V30 12709 O 1139.37 7.42957 3.07034 0
M  V30 12710 H 1139.1 0.425018 0.525677 0
M  V30 12711 H 1141.66 1.72939 1.1082 0
M  V30 12712 H 1139.89 1.3293 3.63134 0
M  V30 12713 H 1141.58 1.74691 3.66385 0
M  V30 12714 H 1142.34 4.03307 2.69385 0
M  V30 12715 H 1138.22 3.06365 3.44473 0
M  V30 12716 H 1141.77 6.43375 2.69655 0
M  V30 12717 H 1137.66 5.45567 3.45002 0
M  V30 12718 H 1138.43 7.52 3.23169 0
M  V30 12719 N 1141.09 -1.09351 1.1349 0
M  V30 12720 C 1142.02 -2.18037 0.835588 0
M  V30 12721 C 1143 -1.68856 -0.205373 0
M  V30 12722 O 1144.19 -1.94094 -0.0641357 0
M  V30 12723 C 1141.32 -3.45987 0.301661 0
M  V30 12724 C 1140.27 -4.08507 1.27696 0
M  V30 12725 C 1139.6 -5.31292 0.602758 0
M  V30 12726 C 1140.9 -4.50916 2.63575 0
M  V30 12727 H 1142.59 -2.43332 1.74441 0
M  V30 12728 H 1140.14 -1.1695 0.840166 0
M  V30 12729 H 1142.09 -4.21324 0.079928 0
M  V30 12730 H 1140.82 -3.20217 -0.642552 0
M  V30 12731 H 1139.48 -3.3519 1.4847 0
M  V30 12732 H 1139.12 -5.01802 -0.346953 0
M  V30 12733 H 1138.82 -5.74075 1.25345 0
M  V30 12734 H 1140.35 -6.09351 0.390325 0
M  V30 12735 H 1141.76 -5.17474 2.46765 0
M  V30 12736 H 1140.16 -5.04586 3.24827 0
M  V30 12737 H 1141.23 -3.63279 3.2118 0
M  V30 12738 N 1142.57 -0.928524 -1.27343 0
M  V30 12739 C 1143.98 -0.613856 -1.7632 0
M  V30 12740 C 1144.33 0.870983 -1.75808 0
M  V30 12741 O 1143.46 1.68155 -1.36209 0
M  V30 12742 C 1144.05 -1.10755 -3.20186 0
M  V30 12743 C 1142.61 -0.843532 -3.66826 0
M  V30 12744 C 1141.76 -1.26579 -2.46724 0
M  V30 12745 H 1144.71 -1.10821 -1.13598 0
M  V30 12746 H 1144.73 -0.455598 -3.77763 0
M  V30 12747 H 1144.24 -2.18825 -3.20526 0
M  V30 12748 H 1142.34 0.223334 -3.7193 0
M  V30 12749 H 1142.46 -1.46165 -4.56259 0
M  V30 12750 H 1140.82 -0.684334 -2.45334 0
M  V30 12751 H 1141.6 -2.35516 -2.49774 0
M  V30 12752 N 1144.05 1.41491 -0.694123 0
M  V30 12753 C 1144.98 2.33462 -0.0422169 0
M  V30 12754 C 1145.96 1.51739 0.76872 0
M  V30 12755 O 1147.15 1.8028 0.721985 0
M  V30 12756 C 1144.28 3.35545 0.895925 0
M  V30 12757 C 1143.23 4.27568 0.192188 0
M  V30 12758 C 1142.56 5.20014 1.24459 0
M  V30 12759 C 1143.86 5.1376 -0.940626 0
M  V30 12760 H 1145.55 2.88225 -0.810363 0
M  V30 12761 H 1143.1 1.38586 -0.39114 0
M  V30 12762 H 1145.05 3.9881 1.36121 0
M  V30 12763 H 1143.77 2.79129 1.69572 0
M  V30 12764 H 1142.43 3.65726 -0.25305 0
M  V30 12765 H 1142.08 4.59913 2.03687 0
M  V30 12766 H 1141.78 5.82417 0.778734 0
M  V30 12767 H 1143.3 5.86155 1.71041 0
M  V30 12768 H 1144.72 5.70601 -0.555692 0
M  V30 12769 H 1143.11 5.85097 -1.33349 0
M  V30 12770 H 1144.18 4.51011 -1.78093 0
M  V30 12771 N 1145.53 0.438773 1.51369 0
M  V30 12772 C 1146.46 -0.362467 2.3067 0
M  V30 12773 C 1147.44 -1.01973 1.36145 0
M  V30 12774 O 1148.62 -1.0231 1.65065 0
M  V30 12775 C 1145.75 -1.46313 3.14976 0
M  V30 12776 C 1144.71 -0.929272 4.1779 0
M  V30 12777 C 1144.03 -2.12579 4.90627 0
M  V30 12778 C 1145.33 0.0372782 5.22287 0
M  V30 12779 H 1147.03 0.29931 2.979 0
M  V30 12780 H 1144.57 0.14539 1.43264 0
M  V30 12781 H 1146.53 -2.03088 3.69233 0
M  V30 12782 H 1145.25 -2.15321 2.45569 0
M  V30 12783 H 1143.91 -0.383722 3.64586 0
M  V30 12784 H 1143.56 -2.8021 4.17722 0
M  V30 12785 H 1143.26 -1.77496 5.60151 0
M  V30 12786 H 1144.78 -2.69905 5.47708 0
M  V30 12787 H 1146.2 -0.44022 5.71607 0
M  V30 12788 H 1144.59 0.300748 5.99346 0
M  V30 12789 H 1145.66 0.973503 4.75027 0
M  V30 12790 N 1147.01 -1.56678 0.170181 0
M  V30 12791 C 1148.23 -2.0166 -0.484543 0
M  V30 12792 C 1148.66 -1.04962 -1.56091 0
M  V30 12793 O 1148.01 -0.0289887 -1.81277 0
M  V30 12794 C 1148.06 -3.45252 -1.04084 0
M  V30 12795 O 1147.17 -3.51623 -2.15488 0
M  V30 12796 H 1146.51 -0.653765 -0.116135 0
M  V30 12797 H 1149.04 -2.02761 0.273737 0
M  V30 12798 H 1149.05 -3.84534 -1.36373 0
M  V30 12799 H 1147.72 -4.15131 -0.252738 0
M  V30 12800 H 1146.3 -3.242 -1.84252 0
M  V30 12801 N 1148.48 0.103547 -1.57259 0
M  V30 12802 C 1149.71 0.821158 -1.8958 0
M  V30 12803 C 1150.12 1.73213 -0.761184 0
M  V30 12804 O 1149.46 1.81611 0.27625 0
M  V30 12805 C 1149.53 1.69428 -3.17072 0
M  V30 12806 C 1149.19 0.956014 -4.46889 0
M  V30 12807 C 1150.19 0.289694 -5.19092 0
M  V30 12808 C 1147.87 0.932602 -4.93566 0
M  V30 12809 C 1149.87 -0.390164 -6.36205 0
M  V30 12810 C 1147.55 0.248954 -6.10593 0
M  V30 12811 C 1148.55 -0.411259 -6.81761 0
M  V30 12812 O 1148.24 -1.08396 -7.96559 0
M  V30 12813 H 1147.97 0.240508 -0.631769 0
M  V30 12814 H 1150.53 0.0877817 -2.05212 0
M  V30 12815 H 1148.76 2.46968 -2.97563 0
M  V30 12816 H 1150.44 2.28769 -3.3529 0
M  V30 12817 H 1151.21 0.299297 -4.84076 0
M  V30 12818 H 1147.09 1.43592 -4.38067 0
M  V30 12819 H 1150.63 -0.906057 -6.91691 0
M  V30 12820 H 1146.53 0.237168 -6.45064 0
M  V30 12821 H 1147.3 -0.990002 -8.12491 0
M  V30 12822 N 1149.96 1.53094 0.37415 0
M  V30 12823 C 1150.89 1.81901 1.46404 0
M  V30 12824 C 1151.87 0.671949 1.56265 0
M  V30 12825 O 1153.06 0.920978 1.70973 0
M  V30 12826 C 1150.19 2.00123 2.83845 0
M  V30 12827 C 1149.14 3.15864 2.88814 0
M  V30 12828 C 1148.47 3.19364 4.28848 0
M  V30 12829 C 1149.77 4.54633 2.57112 0
M  V30 12830 H 1151.46 2.73172 1.22546 0
M  V30 12831 H 1149.01 1.31444 0.588087 0
M  V30 12832 H 1150.96 2.18859 3.6011 0
M  V30 12833 H 1149.68 1.05555 3.09072 0
M  V30 12834 H 1148.34 2.96935 2.15 0
M  V30 12835 H 1147.99 2.2245 4.51137 0
M  V30 12836 H 1147.69 3.97123 4.3309 0
M  V30 12837 H 1149.22 3.40273 5.06997 0
M  V30 12838 H 1150.63 4.73587 3.23091 0
M  V30 12839 H 1149.03 5.34569 2.72683 0
M  V30 12840 H 1150.1 4.60331 1.52392 0
M  V30 12841 N 1151.44 -0.633461 1.44309 0
M  V30 12842 C 1152.37 -1.7583 1.45462 0
M  V30 12843 C 1153.35 -1.59545 0.313723 0
M  V30 12844 O 1154.53 -1.8146 0.51034 0
M  V30 12845 C 1151.66 -3.13375 1.28506 0
M  V30 12846 C 1150.71 -3.48315 2.46128 0
M  V30 12847 S 1151.54 -3.46058 4.08662 0
M  V30 12848 C 1152.7 -4.86226 3.94125 0
M  V30 12849 H 1152.93 -1.74585 2.4064 0
M  V30 12850 H 1150.46 -0.807868 1.31578 0
M  V30 12851 H 1152.42 -3.92748 1.19411 0
M  V30 12852 H 1151.08 -3.12161 0.348432 0
M  V30 12853 H 1150.27 -4.48397 2.30122 0
M  V30 12854 H 1149.88 -2.76399 2.51951 0
M  V30 12855 H 1152.17 -5.75393 3.57671 0
M  V30 12856 H 1153.11 -5.07287 4.9403 0
M  V30 12857 H 1153.52 -4.60691 3.26227 0
M  V30 12858 N 1152.92 -1.31168 -0.873655 0
M  V30 12859 C 1154.17 -1.20642 -1.6264 0
M  V30 12860 C 1154.49 0.236286 -1.93059 0
M  V30 12861 O 1153.75 1.18401 -1.55819 0
M  V30 12862 C 1154.05 -1.99204 -2.96736 0
M  V30 12863 C 1153.71 -3.48734 -2.85824 0
M  V30 12864 C 1152.38 -3.89507 -2.82555 0
M  V30 12865 C 1154.73 -4.43905 -2.73127 0
M  V30 12866 C 1152.06 -5.23724 -2.64442 0
M  V30 12867 C 1154.41 -5.78242 -2.56551 0
M  V30 12868 C 1153.07 -6.18241 -2.51663 0
M  V30 12869 H 1152.34 -0.44146 -0.595142 0
M  V30 12870 H 1154.99 -1.62394 -1.01492 0
M  V30 12871 H 1153.29 -1.50122 -3.61899 0
M  V30 12872 H 1154.99 -1.88443 -3.53963 0
M  V30 12873 H 1151.58 -3.1634 -2.89184 0
M  V30 12874 H 1155.76 -4.13338 -2.7471 0
M  V30 12875 H 1151.02 -5.53794 -2.59081 0
M  V30 12876 H 1155.19 -6.51616 -2.45702 0
M  V30 12877 H 1152.82 -7.22185 -2.37387 0
M  V30 12878 N 1154.4 1.08748 -1.14068 0
M  V30 12879 C 1155.31 2.19123 -0.837998 0
M  V30 12880 C 1156.32 1.73065 0.180164 0
M  V30 12881 O 1157.5 2.01398 0.00952285 0
M  V30 12882 C 1154.56 3.45257 -0.316 0
M  V30 12883 C 1153.62 4.05959 -1.39628 0
M  V30 12884 C 1152.86 5.26072 -0.899095 0
M  V30 12885 O 1153.08 5.69804 0.260744 0
M  V30 12886 O 1152.01 5.7808 -1.67652 0
M  V30 12887 H 1155.84 2.4748 -1.76033 0
M  V30 12888 H 1153.43 1.17816 -0.918675 0
M  V30 12889 H 1155.31 4.21389 -0.0306425 0
M  V30 12890 H 1153.98 3.18486 0.578654 0
M  V30 12891 H 1152.89 3.31432 -1.73505 0
M  V30 12892 H 1154.22 4.36971 -2.26533 0
M  V30 12893 N 1155.87 0.935264 1.26849 0
M  V30 12894 C 1157.1 0.596249 1.98122 0
M  V30 12895 C 1157.52 -0.827452 1.69702 0
M  V30 12896 O 1156.87 -1.55095 0.961864 0
M  V30 12897 C 1156.93 0.821773 3.52036 0
M  V30 12898 O 1156.65 2.18947 3.79465 0
M  V30 12899 C 1158.15 0.492498 4.40556 0
M  V30 12900 H 1155.37 0.225242 0.632066 0
M  V30 12901 H 1157.91 1.25435 1.61512 0
M  V30 12902 H 1156.07 0.210363 3.86828 0
M  V30 12903 H 1156.48 2.24509 4.74021 0
M  V30 12904 H 1157.95 0.700953 5.47531 0
M  V30 12905 H 1158.43 -0.57228 4.35456 0
M  V30 12906 H 1159.04 1.08238 4.11296 0
M  V30 12907 N 1157.35 -1.41121 0.701616 0
M  V30 12908 C 1158.63 -1.9492 0.162911 0
M  V30 12909 C 1159.01 -1.64064 -1.32839 0
M  V30 12910 O 1158.36 -0.950848 -2.07777 0
M  V30 12911 C 1158.57 -3.45946 0.460673 0
M  V30 12912 C 1159.92 -4.22789 0.391706 0
M  V30 12913 O 1160.94 -3.53993 0.395931 0
M  V30 12914 O 1159.8 -5.45332 0.357071 0
M  V30 12915 H 1156.89 -0.826793 0.0185103 0
M  V30 12916 H 1159.44 -1.50805 0.778192 0
M  V30 12917 H 1158.21 -3.61711 1.49269 0
M  V30 12918 H 1157.83 -3.97168 -0.185277 0
M  V30 12919 N 1158.83 -0.446794 -1.51134 0
M  V30 12920 C 1160.08 0.118047 -2.01354 0
M  V30 12921 C 1160.39 1.42953 -1.33505 0
M  V30 12922 O 1161.6 2.07788 -1.74747 0
M  V30 12923 C 1160.05 0.260912 -3.58953 0
M  V30 12924 C 1159.66 -1.0407 -4.35745 0
M  V30 12925 C 1161.41 0.779014 -4.17291 0
M  V30 12926 C 1159.31 -0.862958 -5.8507 0
M  V30 12927 H 1158.24 0.0478915 -0.752478 0
M  V30 12928 H 1160.89 -0.577997 -1.74159 0
M  V30 12929 H 1159.28 1.02018 -3.82633 0
M  V30 12930 H 1160.45 -1.80903 -4.23805 0
M  V30 12931 H 1158.77 -1.48805 -3.88904 0
M  V30 12932 H 1161.36 0.928636 -5.26574 0
M  V30 12933 H 1161.71 1.76399 -3.7708 0
M  V30 12934 H 1162.24 0.0778022 -3.97724 0
M  V30 12935 H 1158.98 -1.82059 -6.2971 0
M  V30 12936 H 1158.5 -0.134588 -5.99649 0
M  V30 12937 H 1160.18 -0.51989 -6.44908 0
M  V30 12938 N 1160.31 1.56586 -0.178487 0
M  V30 12939 C 1161.55 1.9739 0.465306 0
M  V30 12940 C 1161.89 1.06474 1.6241 0
M  V30 12941 O 1161.16 0.113316 1.9417 0
M  V30 12942 C 1161.45 3.47577 0.941408 0
M  V30 12943 C 1161.3 4.49271 -0.218054 0
M  V30 12944 C 1162.62 4.01038 1.81263 0
M  V30 12945 H 1159.74 0.717676 0.167663 0
M  V30 12946 H 1162.38 1.88128 -0.266067 0
M  V30 12947 H 1160.53 3.556 1.56463 0
M  V30 12948 H 1162.2 4.53301 -0.855332 0
M  V30 12949 H 1160.44 4.24936 -0.872441 0
M  V30 12950 H 1161.11 5.51776 0.157315 0
M  V30 12951 H 1163.59 3.9569 1.28718 0
M  V30 12952 H 1162.47 5.06526 2.11476 0
M  V30 12953 H 1162.73 3.45288 2.76096 0
M  V30 12954 N 1161.79 -0.095206 1.57312 0
M  V30 12955 C 1163.03 -0.799903 1.86358 0
M  V30 12956 C 1163.37 -1.78386 0.767593 0
M  V30 12957 O 1162.64 -1.93201 -0.224439 0
M  V30 12958 C 1162.92 -1.52875 3.26039 0
M  V30 12959 C 1162.78 -0.562781 4.46265 0
M  V30 12960 C 1164.1 -2.47935 3.63616 0
M  V30 12961 H 1161.21 -0.289339 0.677829 0
M  V30 12962 H 1163.86 -0.0635369 1.89894 0
M  V30 12963 H 1162.01 -2.15645 3.23156 0
M  V30 12964 H 1163.68 0.0579068 4.61264 0
M  V30 12965 H 1161.92 0.123847 4.33623 0
M  V30 12966 H 1162.59 -1.10989 5.40727 0
M  V30 12967 H 1165.07 -1.95257 3.67442 0
M  V30 12968 H 1163.94 -2.95948 4.62283 0
M  V30 12969 H 1164.21 -3.31687 2.92294 0
M  V30 12970 N 1163.26 -1.53291 -0.366026 0
M  V30 12971 C 1164.21 -1.80367 -1.4687 0
M  V30 12972 C 1165.21 -0.672767 -1.55468 0
M  V30 12973 O 1166.41 -0.8557 -1.5836 0
M  V30 12974 H 1162.79 -0.571076 -0.48926 0
M  V30 12975 H 1164.76 -2.72661 -1.21237 0
M  V30 12976 C 1163.51 -2.01008 -2.8371 0
M  V30 12977 H 1162.83 -2.87468 -2.77853 0
M  V30 12978 H 1164.27 -2.2393 -3.60043 0
M  V30 12979 C 1162.73 -0.789054 -3.27529 0
M  V30 12980 O 1163.26 0.0224712 -4.01694 0
M  V30 12981 N 1161.47 -0.612621 -2.84069 0
M  V30 12982 H 1161.01 -1.27416 -2.23881 0
M  V30 12983 H 1160.97 0.202943 -3.13744 0
M  V30 12984 N 1164.74 0.6258 -1.44643 0
M  V30 12985 C 1165.69 1.75869 -1.52226 0
M  V30 12986 C 1166.68 1.64765 -0.39355 0
M  V30 12987 O 1167.89 1.70779 -0.568718 0
M  V30 12988 H 1164.27 0.580712 -0.477784 0
M  V30 12989 H 1166.24 1.66596 -2.47565 0
M  V30 12990 C 1164.99 3.14217 -1.48873 0
M  V30 12991 H 1164.31 3.23411 -2.35043 0
M  V30 12992 H 1165.75 3.93365 -1.58239 0
M  V30 12993 C 1164.21 3.36243 -0.210299 0
M  V30 12994 O 1164.74 3.95243 0.717335 0
M  V30 12995 N 1162.94 2.90385 -0.111744 0
M  V30 12996 H 1162.49 2.42555 -0.867466 0
M  V30 12997 H 1162.45 3.05498 0.742871 0
M  V30 12998 N 1166.22 1.31629 0.866686 0
M  V30 12999 C 1167.17 1.19556 1.97421 0
M  V30 13000 C 1168.14 0.0805578 1.65905 0
M  V30 13001 O 1169.32 0.253997 1.89102 0
M  V30 13002 C 1166.46 0.912234 3.32825 0
M  V30 13003 C 1165.58 2.11088 3.76916 0
M  V30 13004 C 1164.71 1.76406 5.01053 0
M  V30 13005 C 1163.75 2.9266 5.37602 0
M  V30 13006 N 1162.89 2.58152 6.52918 0
M  V30 13007 H 1167.73 2.14294 2.0708 0
M  V30 13008 H 1165.26 1.06595 1.0137 0
M  V30 13009 H 1167.22 0.72851 4.1079 0
M  V30 13010 H 1165.85 0.00167404 3.228 0
M  V30 13011 H 1164.9 2.40527 2.94705 0
M  V30 13012 H 1166.22 2.98089 3.99931 0
M  V30 13013 H 1165.37 1.54515 5.86694 0
M  V30 13014 H 1164.11 0.866018 4.79949 0
M  V30 13015 H 1163.11 3.15196 4.50479 0
M  V30 13016 H 1164.34 3.83179 5.6067 0
M  V30 13017 H 1162.28 1.70874 6.33355 0
M  V30 13018 H 1162.2 3.38682 6.75892 0
M  V30 13019 H 1163.47 2.39662 7.41743 0
M  V30 13020 N 1167.7 -1.08142 1.14644 0
M  V30 13021 C 1168.65 -2.17229 0.831513 0
M  V30 13022 C 1169.64 -1.68311 -0.19173 0
M  V30 13023 O 1170.85 -1.79937 -0.0475596 0
M  V30 13024 H 1167.22 -0.708807 0.25119 0
M  V30 13025 H 1169.19 -2.41014 1.75939 0
M  V30 13026 C 1167.94 -3.46146 0.328347 0
M  V30 13027 H 1167.27 -3.84166 1.10708 0
M  V30 13028 H 1168.71 -4.23747 0.146568 0
M  V30 13029 C 1167.16 -3.2327 -0.948594 0
M  V30 13030 O 1167.69 -3.47111 -2.0218 0
M  V30 13031 N 1165.9 -2.76799 -0.884909 0
M  V30 13032 H 1165.45 -2.57597 -0.011399 0
M  V30 13033 H 1165.41 -2.61871 -1.73985 0
M  V30 13034 N 1169.18 -0.941978 -1.26351 0
M  V30 13035 C 1170.43 -0.585711 -1.93009 0
M  V30 13036 C 1170.74 0.879507 -1.74711 0
M  V30 13037 O 1171.95 1.34518 -2.35833 0
M  V30 13038 C 1170.4 -0.996787 -3.45821 0
M  V30 13039 C 1170.01 -2.48367 -3.72851 0
M  V30 13040 C 1171.75 -0.712452 -4.18479 0
M  V30 13041 C 1169.66 -2.83341 -5.19107 0
M  V30 13042 H 1168.59 -0.215342 -0.722595 0
M  V30 13043 H 1171.24 -1.14472 -1.43417 0
M  V30 13044 H 1169.62 -0.366295 -3.94302 0
M  V30 13045 H 1170.8 -3.16328 -3.35072 0
M  V30 13046 H 1169.11 -2.74139 -3.13427 0
M  V30 13047 H 1171.71 -0.95007 -5.26192 0
M  V30 13048 H 1172.05 0.350811 -4.14819 0
M  V30 13049 H 1172.59 -1.3027 -3.75865 0
M  V30 13050 H 1169.32 -3.88633 -5.27868 0
M  V30 13051 H 1168.84 -2.20043 -5.5798 0
M  V30 13052 H 1170.52 -2.71849 -5.87118 0
M  V30 13053 N 1170.66 1.40747 -0.709091 0
M  V30 13054 C 1171.6 2.30741 -0.0523584 0
M  V30 13055 C 1172.57 1.4784 0.757145 0
M  V30 13056 O 1173.76 1.76595 0.72242 0
M  V30 13057 C 1170.9 3.34 0.868203 0
M  V30 13058 C 1170.01 4.31972 0.0488686 0
M  V30 13059 C 1169.15 5.223 0.968311 0
M  V30 13060 C 1168.18 6.11934 0.142682 0
M  V30 13061 N 1167.32 6.947 1.01665 0
M  V30 13062 H 1172.16 2.86338 -0.825509 0
M  V30 13063 H 1169.7 1.41013 -0.418785 0
M  V30 13064 H 1171.66 3.92431 1.41611 0
M  V30 13065 H 1170.29 2.79921 1.6076 0
M  V30 13066 H 1169.34 3.75377 -0.616137 0
M  V30 13067 H 1170.65 4.95291 -0.590625 0
M  V30 13068 H 1169.8 5.85631 1.58498 0
M  V30 13069 H 1168.54 4.5924 1.64164 0
M  V30 13070 H 1167.55 5.47639 -0.486965 0
M  V30 13071 H 1168.77 6.77052 -0.527046 0
M  V30 13072 H 1166.72 6.34236 1.67575 0
M  V30 13073 H 1166.64 7.54759 0.433045 0
M  V30 13074 H 1167.9 7.62487 1.6197 0
M  V30 13075 N 1172.13 0.454803 1.50895 0
M  V30 13076 C 1173.37 -0.104722 2.04132 0
M  V30 13077 C 1173.74 -1.38434 1.33042 0
M  V30 13078 O 1174.94 -2.02521 1.76745 0
M  V30 13079 C 1173.21 -0.300775 3.56132 0
M  V30 13080 S 1174.77 -0.821197 4.31047 0
M  V30 13081 H 1171.59 -0.0236407 0.710607 0
M  V30 13082 H 1174.19 0.618213 1.85468 0
M  V30 13083 H 1172.89 0.636592 4.05433 0
M  V30 13084 H 1172.42 -1.05029 3.79121 0
M  V30 13085 H 1174.44 -2.09669 4.49726 0
M  V30 13086 N 1173.61 -1.56489 0.186789 0
M  V30 13087 C 1174.52 -2.22304 -0.749543 0
M  V30 13088 C 1175.54 -1.21949 -1.24115 0
M  V30 13089 O 1176.71 -1.5466 -1.29005 0
M  V30 13090 C 1173.78 -2.863 -1.95533 0
M  V30 13091 C 1172.84 -4.01901 -1.5091 0
M  V30 13092 C 1172.07 -4.62837 -2.6574 0
M  V30 13093 O 1172.3 -4.22681 -3.8301 0
M  V30 13094 O 1171.23 -5.52446 -2.38929 0
M  V30 13095 H 1175.06 -3.02909 -0.21908 0
M  V30 13096 H 1172.64 -1.49341 -0.0421249 0
M  V30 13097 H 1174.52 -3.2682 -2.6602 0
M  V30 13098 H 1173.2 -2.08681 -2.47455 0
M  V30 13099 H 1172.1 -3.66021 -0.773261 0
M  V30 13100 H 1173.44 -4.8116 -1.03663 0
M  V30 13101 N 1175.09 0.086862 -1.5736 0
M  V30 13102 C 1176.04 1.12359 -2.03662 0
M  V30 13103 C 1177.03 1.40982 -0.939169 0
M  V30 13104 O 1178.24 1.40566 -1.12433 0
M  V30 13105 H 1174.61 0.379605 -0.649156 0
M  V30 13106 H 1176.58 0.706822 -2.89908 0
M  V30 13107 C 1175.33 2.43327 -2.48369 0
M  V30 13108 H 1174.66 2.22148 -3.324 0
M  V30 13109 H 1176.1 3.14351 -2.84534 0
M  V30 13110 C 1174.55 3.08214 -1.36036 0
M  V30 13111 O 1175.08 3.95659 -0.694063 0
M  V30 13112 N 1173.29 2.68596 -1.10927 0
M  V30 13113 H 1172.84 1.97578 -1.6529 0
M  V30 13114 H 1172.8 3.12336 -0.359679 0
M  V30 13115 N 1176.57 1.53483 0.357892 0
M  V30 13116 C 1177.81 1.70037 1.09971 0
M  V30 13117 C 1178.14 0.456112 1.89076 0
M  V30 13118 O 1177.4 -0.562029 1.87456 0
M  V30 13119 C 1177.7 2.90654 2.07978 0
M  V30 13120 C 1177.36 4.26849 1.45295 0
M  V30 13121 C 1176.02 4.63884 1.27928 0
M  V30 13122 C 1178.38 5.11514 1.00013 0
M  V30 13123 C 1175.7 5.83213 0.638745 0
M  V30 13124 C 1178.06 6.31496 0.373568 0
M  V30 13125 C 1176.72 6.67237 0.187457 0
M  V30 13126 H 1175.99 0.622209 0.402414 0
M  V30 13127 H 1178.64 1.87679 0.380615 0
M  V30 13128 H 1176.94 2.67556 2.86219 0
M  V30 13129 H 1178.64 3.00656 2.65343 0
M  V30 13130 H 1175.23 3.97693 1.59807 0
M  V30 13131 H 1179.41 4.83446 1.12221 0
M  V30 13132 H 1174.67 6.09489 0.483035 0
M  V30 13133 H 1178.84 6.96398 0.0145346 0
M  V30 13134 H 1176.47 7.59564 -0.310933 0
M  V30 13135 N 1178.05 -0.61812 1.44973 0
M  V30 13136 C 1179.29 -1.37343 1.47715 0
M  V30 13137 C 1179.61 -1.95239 0.118784 0
M  V30 13138 O 1180.81 -2.7149 0.0237981 0
M  V30 13139 C 1179.27 -2.48732 2.60116 0
M  V30 13140 C 1178.88 -1.97294 4.02218 0
M  V30 13141 C 1180.62 -3.25831 2.72093 0
M  V30 13142 C 1178.53 -3.06102 5.06019 0
M  V30 13143 H 1177.46 -0.516175 0.549617 0
M  V30 13144 H 1180.11 -0.663617 1.7108 0
M  V30 13145 H 1178.49 -3.2235 2.30014 0
M  V30 13146 H 1179.67 -1.30455 4.41948 0
M  V30 13147 H 1177.98 -1.32972 3.94598 0
M  V30 13148 H 1180.58 -4.06968 3.46815 0
M  V30 13149 H 1180.92 -3.76156 1.7836 0
M  V30 13150 H 1181.45 -2.59309 3.01668 0
M  V30 13151 H 1178.19 -2.60706 6.01426 0
M  V30 13152 H 1177.71 -3.71541 4.70869 0
M  V30 13153 H 1179.39 -3.70662 5.30301 0
M  V30 13154 N 1179.52 -1.32087 -0.859693 0
M  V30 13155 C 1180.43 -1.22587 -2.00024 0
M  V30 13156 C 1181.45 -0.140477 -1.73432 0
M  V30 13157 O 1182.63 -0.360213 -1.98153 0
M  V30 13158 C 1179.69 -0.944195 -3.33595 0
M  V30 13159 C 1178.75 -2.11752 -3.73443 0
M  V30 13160 C 1177.98 -1.84919 -5.0064 0
M  V30 13161 O 1178.21 -0.789299 -5.64913 0
M  V30 13162 O 1177.14 -2.70885 -5.37499 0
M  V30 13163 H 1180.97 -2.18457 -2.10974 0
M  V30 13164 H 1178.55 -1.11927 -0.989577 0
M  V30 13165 H 1180.43 -0.803389 -4.13671 0
M  V30 13166 H 1179.11 -0.0156083 -3.23696 0
M  V30 13167 H 1178.02 -2.31378 -2.93965 0
M  V30 13168 H 1179.35 -3.02872 -3.87981 0
M  V30 13169 N 1181 1.07532 -1.15215 0
M  V30 13170 C 1181.91 2.18222 -0.861192 0
M  V30 13171 C 1182.93 1.73246 0.161798 0
M  V30 13172 O 1184.1 2.01397 -0.0118386 0
M  V30 13173 C 1181.17 3.44902 -0.352601 0
M  V30 13174 C 1180.23 4.04455 -1.43926 0
M  V30 13175 C 1179.46 5.25089 -0.954841 0
M  V30 13176 O 1179.69 5.70048 0.200294 0
M  V30 13177 O 1178.62 5.76269 -1.73774 0
M  V30 13178 H 1182.45 2.45599 -1.78648 0
M  V30 13179 H 1180.03 1.16835 -0.93112 0
M  V30 13180 H 1181.91 4.21333 -0.0753347 0
M  V30 13181 H 1180.59 3.19082 0.544841 0
M  V30 13182 H 1179.49 3.29573 -1.7701 0
M  V30 13183 H 1180.83 4.34544 -2.31155 0
M  V30 13184 N 1182.48 0.948665 1.2585 0
M  V30 13185 C 1183.41 0.408398 2.24516 0
M  V30 13186 C 1184.39 -0.506954 1.54495 0
M  V30 13187 O 1185.58 -0.442695 1.83228 0
M  V30 13188 C 1182.7 -0.41241 3.3618 0
M  V30 13189 C 1181.75 0.442483 4.24198 0
M  V30 13190 S 1182.58 1.87106 5.01749 0
M  V30 13191 C 1183.74 1.05851 6.16884 0
M  V30 13192 H 1183.97 1.24458 2.69995 0
M  V30 13193 H 1181.5 0.752309 1.34832 0
M  V30 13194 H 1183.46 -0.880064 4.00955 0
M  V30 13195 H 1182.12 -1.22335 2.89297 0
M  V30 13196 H 1181.32 -0.186767 5.03654 0
M  V30 13197 H 1180.92 0.845113 3.64327 0
M  V30 13198 H 1183.21 0.304329 6.76816 0
M  V30 13199 H 1184.15 1.82678 6.8413 0
M  V30 13200 H 1184.56 0.591269 5.61395 0
M  V30 13201 N 1183.96 -1.40369 0.716545 0
M  V30 13202 C 1185.21 -2.00101 0.253452 0
M  V30 13203 C 1185.52 -1.57471 -1.16027 0
M  V30 13204 O 1186.73 -2.09909 -1.72193 0
M  V30 13205 C 1185.18 -3.57645 0.402213 0
M  V30 13206 C 1184.79 -4.09248 1.82264 0
M  V30 13207 C 1186.53 -4.245 -3.88526e-05 0
M  V30 13208 C 1184.44 -5.59299 1.92193 0
M  V30 13209 H 1183.37 -0.748488 0.0910047 0
M  V30 13210 H 1186.02 -1.60595 0.887772 0
M  V30 13211 H 1184.4 -3.94857 -0.300706 0
M  V30 13212 H 1185.58 -3.83412 2.55601 0
M  V30 13213 H 1183.89 -3.54993 2.17644 0
M  V30 13214 H 1186.49 -5.34673 0.0534202 0
M  V30 13215 H 1186.83 -4.03046 -1.04208 0
M  V30 13216 H 1187.37 -3.92398 0.65336 0
M  V30 13217 H 1184.11 -5.85608 2.94522 0
M  V30 13218 H 1183.63 -5.86997 1.23268 0
M  V30 13219 H 1185.3 -6.24416 1.6945 0
M  V30 13220 N 1185.44 -0.462799 -1.50652 0
M  V30 13221 C 1186.85 -0.11648 -1.59174 0
M  V30 13222 C 1187.05 1.37638 -1.47167 0
M  V30 13223 O 1186.11 2.14886 -1.3259 0
M  V30 13224 C 1187.42 -0.659289 -2.93383 0
M  V30 13225 C 1188.97 -0.62198 -3.06758 0
M  V30 13226 C 1189.44 -1.14219 -4.43529 0
M  V30 13227 N 1190.94 -1.10125 -4.49919 0
M  V30 13228 C 1191.67 -1.47436 -5.54121 0
M  V30 13229 N 1191.17 -1.92156 -6.65618 0
M  V30 13230 N 1192.96 -1.39091 -5.44619 0
M  V30 13231 H 1185.11 -1.43383 -1.56701 0
M  V30 13232 H 1187.37 -0.592438 -0.740082 0
M  V30 13233 H 1187.08 -1.70477 -3.07621 0
M  V30 13234 H 1186.95 -0.0982388 -3.77072 0
M  V30 13235 H 1189.34 0.414576 -2.92173 0
M  V30 13236 H 1189.42 -1.21974 -2.24847 0
M  V30 13237 H 1189.07 -2.17734 -4.58862 0
M  V30 13238 H 1189 -0.52073 -5.24019 0
M  V30 13239 H 1191.49 -0.773154 -3.69906 0
M  V30 13240 H 1191.8 -2.18796 -7.4118 0
M  V30 13241 H 1190.14 -1.96103 -6.6676 0
M  V30 13242 H 1193.34 -1.04001 -4.564 0
M  V30 13243 H 1193.51 -1.68496 -6.2571 0
M  V30 13244 N 1186.91 1.56388 -0.195085 0
M  V30 13245 C 1187.86 2.20431 0.742484 0
M  V30 13246 C 1188.86 1.17548 1.21979 0
M  V30 13247 O 1190.06 1.35693 1.18269 0
M  V30 13248 H 1186.44 0.706435 0.257786 0
M  V30 13249 H 1188.41 2.97865 0.178624 0
M  V30 13250 C 1187.16 2.87772 1.95147 0
M  V30 13251 H 1186.48 3.66681 1.59326 0
M  V30 13252 H 1187.92 3.36021 2.58585 0
M  V30 13253 C 1186.38 1.88807 2.79022 0
M  V30 13254 O 1186.91 1.38836 3.76945 0
M  V30 13255 N 1185.12 1.57037 2.44515 0
M  V30 13256 H 1184.66 1.97868 1.64943 0
M  V30 13257 H 1184.62 0.910776 3.00919 0
M  V30 13258 N 1188.39 -0.0785156 1.57404 0
M  V30 13259 C 1189.62 -0.792042 1.9114 0
M  V30 13260 C 1190.04 -1.71458 0.790408 0
M  V30 13261 O 1189.39 -1.80959 -0.236662 0
M  V30 13262 C 1189.44 -1.59138 3.24588 0
M  V30 13263 O 1189.16 -0.705931 4.32375 0
M  V30 13264 C 1190.67 -2.4065 3.72293 0
M  V30 13265 H 1187.89 -0.225566 0.63195 0
M  V30 13266 H 1190.43 -0.0507929 2.04437 0
M  V30 13267 H 1188.58 -2.28498 3.12838 0
M  V30 13268 H 1189 -1.26121 5.09111 0
M  V30 13269 H 1190.47 -2.92204 4.68317 0
M  V30 13270 H 1190.95 -3.1987 3.00965 0
M  V30 13271 H 1191.56 -1.7646 3.86965 0
M  V30 13272 N 1189.87 -1.5367 -0.349747 0
M  V30 13273 C 1191.12 -1.69835 -1.08807 0
M  V30 13274 C 1191.43 -0.46497 -1.89993 0
M  V30 13275 O 1192.64 -0.507452 -2.66716 0
M  V30 13276 C 1191.09 -3.00294 -1.98372 0
M  V30 13277 C 1190.7 -4.30949 -1.22422 0
M  V30 13278 C 1192.45 -3.25826 -2.72099 0
M  V30 13279 C 1190.35 -5.52486 -2.1098 0
M  V30 13280 H 1189.28 -0.63284 -0.409915 0
M  V30 13281 H 1191.93 -1.80171 -0.347968 0
M  V30 13282 H 1190.32 -2.838 -2.76176 0
M  V30 13283 H 1191.49 -4.58126 -0.495707 0
M  V30 13284 H 1189.81 -4.11983 -0.604896 0
M  V30 13285 H 1192.4 -4.13817 -3.38615 0
M  V30 13286 H 1192.75 -2.42566 -3.3833 0
M  V30 13287 H 1193.28 -3.43067 -2.0137 0
M  V30 13288 H 1190.02 -6.38271 -1.49301 0
M  V30 13289 H 1189.54 -5.29566 -2.81638 0
M  V30 13290 H 1191.22 -5.87889 -2.70176 0
M  V30 13291 N 1191.35 0.610423 -1.45298 0
M  V30 13292 C 1192.3 1.74245 -1.54083 0
M  V30 13293 C 1193.29 1.64338 -0.411003 0
M  V30 13294 O 1194.5 1.70167 -0.586799 0
M  V30 13295 H 1190.87 0.575612 -0.483916 0
M  V30 13296 H 1192.84 1.63961 -2.49318 0
M  V30 13297 C 1191.59 3.1262 -1.52198 0
M  V30 13298 H 1190.91 3.209 -2.3846 0
M  V30 13299 H 1192.35 3.91665 -1.62403 0
M  V30 13300 C 1190.81 3.36001 -0.24595 0
M  V30 13301 O 1191.34 3.95982 0.675374 0
M  V30 13302 N 1189.55 2.9025 -0.142537 0
M  V30 13303 H 1189.1 2.41621 -0.893143 0
M  V30 13304 H 1189.05 3.06268 0.710427 0
M  V30 13305 N 1192.83 1.32541 0.852676 0
M  V30 13306 C 1194.06 1.26037 1.63702 0
M  V30 13307 C 1194.46 -0.173583 1.88402 0
M  V30 13308 O 1193.81 -1.12175 1.45473 0
M  V30 13309 C 1193.87 1.95245 3.01861 0
M  V30 13310 C 1193.53 3.44576 3.00193 0
M  V30 13311 C 1194.53 4.40026 2.76899 0
M  V30 13312 C 1192.22 3.86541 3.20766 0
M  V30 13313 C 1194.21 5.75414 2.74185 0
M  V30 13314 C 1191.9 5.22038 3.17678 0
M  V30 13315 C 1192.89 6.16286 2.94416 0
M  V30 13316 O 1192.58 7.49303 2.91206 0
M  V30 13317 H 1192.31 0.436073 0.516543 0
M  V30 13318 H 1194.87 1.75251 1.07127 0
M  V30 13319 H 1193.1 1.40603 3.60233 0
M  V30 13320 H 1194.79 1.82423 3.62597 0
M  V30 13321 H 1195.55 4.0893 2.6077 0
M  V30 13322 H 1191.43 3.13603 3.37897 0
M  V30 13323 H 1194.98 6.4895 2.55947 0
M  V30 13324 H 1190.87 5.52762 3.33353 0
M  V30 13325 H 1191.64 7.58686 3.07146 0
M  V30 13326 N 1194.3 -1.0692 1.15784 0
M  V30 13327 C 1195.58 -1.76367 0.845825 0
M  V30 13328 C 1195.96 -2.00594 -0.657672 0
M  V30 13329 O 1195.31 -1.62794 -1.60345 0
M  V30 13330 C 1195.52 -3.06913 1.66149 0
M  V30 13331 C 1196.87 -3.81181 1.87046 0
M  V30 13332 O 1197.89 -3.16737 1.62961 0
M  V30 13333 O 1196.75 -4.96936 2.27413 0
M  V30 13334 H 1193.84 -0.766095 0.311493 0
M  V30 13335 H 1196.39 -1.13246 1.26386 0
M  V30 13336 H 1195.16 -2.84924 2.68205 0
M  V30 13337 H 1194.79 -3.77767 1.24007 0
M  V30 13338 N 1195.78 -0.955326 -1.25345 0
M  V30 13339 C 1197.02 -0.618161 -1.94828 0
M  V30 13340 C 1197.39 0.829532 -1.73155 0
M  V30 13341 O 1198.59 1.27632 -2.36566 0
M  V30 13342 C 1196.86 -0.967887 -3.44045 0
M  V30 13343 S 1198.42 -0.743401 -4.32457 0
M  V30 13344 H 1195.24 -0.227189 -0.673726 0
M  V30 13345 H 1197.84 -1.22965 -1.51986 0
M  V30 13346 H 1196.54 -2.01864 -3.57322 0
M  V30 13347 H 1196.07 -0.346677 -3.9187 0
M  V30 13348 H 1198.09 0.385467 -4.94701 0
M  V30 13349 N 1197.26 1.39987 -0.723979 0
M  V30 13350 C 1198.21 2.32507 -0.0658033 0
M  V30 13351 C 1199.2 1.52484 0.737908 0
M  V30 13352 O 1200.41 1.68225 0.640332 0
M  V30 13353 H 1196.78 0.751996 -0.00247717 0
M  V30 13354 H 1198.76 2.85657 -0.862696 0
M  V30 13355 C 1197.5 3.37509 0.835628 0
M  V30 13356 H 1196.83 3.99157 0.226589 0
M  V30 13357 H 1198.27 4.04722 1.26396 0
M  V30 13358 C 1196.73 2.73665 1.96492 0
M  V30 13359 O 1197.26 2.60649 3.05655 0
M  V30 13360 N 1195.46 2.3192 1.75104 0
M  V30 13361 H 1195.01 2.42707 0.863204 0
M  V30 13362 H 1194.97 1.89542 2.50841 0
M  V30 13363 N 1198.74 0.470782 1.50404 0
M  V30 13364 C 1199.99 -0.084316 2.02324 0
M  V30 13365 C 1200.31 -1.39749 1.35279 0
M  V30 13366 O 1199.57 -1.90037 0.467364 0
M  V30 13367 C 1199.87 -0.316419 3.55997 0
M  V30 13368 C 1199.53 0.915017 4.41518 0
M  V30 13369 C 1198.2 1.25265 4.6461 0
M  V30 13370 C 1200.55 1.73494 4.91477 0
M  V30 13371 C 1197.88 2.41027 5.34905 0
M  V30 13372 C 1200.23 2.88384 5.63043 0
M  V30 13373 C 1198.89 3.22562 5.84389 0
M  V30 13374 H 1198.16 -0.0308534 0.740357 0
M  V30 13375 H 1200.81 0.624799 1.81021 0
M  V30 13376 H 1199.11 -1.10778 3.75813 0
M  V30 13377 H 1200.81 -0.759882 3.93734 0
M  V30 13378 H 1197.4 0.641977 4.23765 0
M  V30 13379 H 1201.59 1.48728 4.73491 0
M  V30 13380 H 1196.84 2.67781 5.49639 0
M  V30 13381 H 1201.02 3.52264 6.00735 0
M  V30 13382 H 1198.64 4.1237 6.38635 0
M  V30 13383 N 1200.22 -1.56282 0.203376 0
M  V30 13384 C 1201.47 -1.97421 -0.432346 0
M  V30 13385 C 1201.79 -1.0917 -1.61576 0
M  V30 13386 O 1201.06 -0.164759 -1.95206 0
M  V30 13387 H 1199.64 -0.729062 -0.162721 0
M  V30 13388 H 1202.3 -1.927 0.292039 0
M  V30 13389 H 1201.39 -3.02429 -0.770918 0
M  V30 13390 N 1201.7 0.070167 -1.57444 0
M  V30 13391 C 1202.63 1.08351 -2.06839 0
M  V30 13392 C 1203.61 1.40269 -0.962224 0
M  V30 13393 O 1204.79 1.49867 -1.23505 0
M  V30 13394 C 1201.92 2.39649 -2.51368 0
M  V30 13395 C 1200.88 2.22079 -3.65875 0
M  V30 13396 C 1200.2 3.58776 -3.96464 0
M  V30 13397 C 1201.5 1.64069 -4.95862 0
M  V30 13398 H 1203.2 0.672465 -2.9175 0
M  V30 13399 H 1200.74 0.322027 -1.40353 0
M  V30 13400 H 1202.69 3.10833 -2.84537 0
M  V30 13401 H 1201.42 2.82736 -1.63487 0
M  V30 13402 H 1200.08 1.53337 -3.32992 0
M  V30 13403 H 1199.73 3.99436 -3.05712 0
M  V30 13404 H 1199.43 3.47859 -4.7357 0
M  V30 13405 H 1200.95 4.31387 -4.32131 0
M  V30 13406 H 1202.36 2.2512 -5.27251 0
M  V30 13407 H 1200.76 1.63843 -5.773 0
M  V30 13408 H 1201.83 0.60232 -4.81145 0
M  V30 13409 N 1203.17 1.53854 0.341593 0
M  V30 13410 C 1204.42 1.70856 1.07948 0
M  V30 13411 C 1204.74 0.475474 1.89114 0
M  V30 13412 O 1204.01 -0.510592 1.89129 0
M  V30 13413 H 1202.59 0.629914 0.401519 0
M  V30 13414 H 1205.25 1.91112 0.382393 0
M  V30 13415 H 1204.35 2.5803 1.75575 0
M  V30 13416 N 1204.65 -0.602709 1.4562 0
M  V30 13417 C 1205.56 -1.74132 1.5721 0
M  V30 13418 C 1206.58 -1.67909 0.456347 0
M  V30 13419 O 1207.75 -1.88178 0.717714 0
M  V30 13420 C 1204.82 -3.10604 1.54032 0
M  V30 13421 C 1203.88 -3.28244 2.76685 0
M  V30 13422 C 1203.11 -4.58205 2.73649 0
M  V30 13423 O 1203.34 -5.40836 1.81254 0
M  V30 13424 O 1202.27 -4.78663 3.64919 0
M  V30 13425 H 1206.1 -1.67304 2.53462 0
M  V30 13426 H 1203.68 -0.767381 1.28186 0
M  V30 13427 H 1205.56 -3.91904 1.54885 0
M  V30 13428 H 1204.24 -3.17913 0.60934 0
M  V30 13429 H 1203.14 -2.46514 2.81393 0
M  V30 13430 H 1204.48 -3.25814 3.68925 0
M  V30 13431 N 1206.13 -1.32992 -0.845635 0
M  V30 13432 C 1207.08 -1.22652 -1.97634 0
M  V30 13433 C 1208.07 -0.129344 -1.68905 0
M  V30 13434 O 1209.28 -0.292863 -1.77602 0
M  V30 13435 H 1205.65 -0.380439 -0.648668 0
M  V30 13436 H 1207.62 -2.18261 -2.03481 0
M  V30 13437 C 1206.37 -0.975677 -3.3373 0
M  V30 13438 H 1205.7 -1.81217 -3.56371 0
M  V30 13439 H 1207.14 -0.943608 -4.13367 0
M  V30 13440 C 1205.59 0.321491 -3.35363 0
M  V30 13441 O 1206.12 1.33042 -3.79029 0
M  V30 13442 N 1204.33 0.346648 -2.88525 0
M  V30 13443 H 1203.88 -0.474931 -2.53184 0
M  V30 13444 H 1203.84 1.2144 -2.9 0
M  V30 13445 N 1207.61 1.06304 -1.1635 0
M  V30 13446 C 1208.57 2.11947 -0.872419 0
M  V30 13447 C 1209.57 1.60253 0.132534 0
M  V30 13448 O 1210.76 1.73922 -0.0983441 0
M  V30 13449 C 1207.89 3.39536 -0.304646 0
M  V30 13450 H 1209.09 2.39201 -1.80894 0
M  V30 13451 H 1206.64 1.22367 -0.972419 0
M  V30 13452 H 1207.37 3.17931 0.639565 0
M  V30 13453 H 1207.16 3.78363 -1.02878 0
M  V30 13454 H 1208.65 4.17431 -0.118936 0
M  V30 13455 N 1209.09 0.96196 1.24836 0
M  V30 13456 C 1210.03 0.48686 2.25607 0
M  V30 13457 C 1211 -0.464546 1.59472 0
M  V30 13458 O 1212.19 -0.376179 1.87055 0
M  V30 13459 C 1209.33 -0.222294 3.44383 0
M  V30 13460 C 1208.44 0.767206 4.25133 0
M  V30 13461 C 1207.58 0.0347458 5.31189 0
M  V30 13462 C 1206.61 1.01469 6.03631 0
M  V30 13463 N 1205.75 0.312619 7.01404 0
M  V30 13464 H 1210.59 1.35104 2.65614 0
M  V30 13465 H 1208.13 0.677373 1.30576 0
M  V30 13466 H 1210.09 -0.650087 4.12104 0
M  V30 13467 H 1208.72 -1.05047 3.0523 0
M  V30 13468 H 1207.77 1.31346 3.57005 0
M  V30 13469 H 1209.08 1.5147 4.75245 0
M  V30 13470 H 1208.23 -0.451325 6.05019 0
M  V30 13471 H 1206.97 -0.745485 4.81969 0
M  V30 13472 H 1205.98 1.51169 5.28609 0
M  V30 13473 H 1207.2 1.79527 6.5494 0
M  V30 13474 H 1205.15 -0.44874 6.54463 0
M  V30 13475 H 1205.07 0.999079 7.49369 0
M  V30 13476 H 1206.33 -0.151673 7.79352 0
M  V30 13477 N 1210.56 -1.39601 0.731392 0
M  V30 13478 C 1211.51 -2.32469 0.0781328 0
M  V30 13479 C 1212.51 -1.52873 -0.729811 0
M  V30 13480 O 1213.71 -1.68563 -0.631402 0
M  V30 13481 H 1210.09 -0.751972 0.00646515 0
M  V30 13482 H 1212.06 -2.85196 0.877833 0
M  V30 13483 C 1210.81 -3.37948 -0.817717 0
M  V30 13484 H 1210.13 -3.99272 -0.205417 0
M  V30 13485 H 1211.57 -4.05387 -1.24248 0
M  V30 13486 C 1210.03 -2.74703 -1.95038 0
M  V30 13487 O 1210.56 -2.62266 -3.04269 0
M  V30 13488 N 1208.76 -2.32845 -1.73872 0
M  V30 13489 H 1208.31 -2.43161 -0.850321 0
M  V30 13490 H 1208.27 -1.90869 -2.49833 0
M  V30 13491 N 1212.04 -0.478751 -1.50152 0
M  V30 13492 C 1213.29 0.073585 -2.02366 0
M  V30 13493 C 1213.62 1.3903 -1.36018 0
M  V30 13494 O 1212.87 1.89787 -0.477435 0
M  V30 13495 C 1213.17 0.297535 -3.56159 0
M  V30 13496 C 1212.84 -0.938419 -4.41027 0
M  V30 13497 C 1211.5 -1.27727 -4.63939 0
M  V30 13498 C 1213.85 -1.76098 -4.9055 0
M  V30 13499 C 1211.18 -2.4386 -5.33619 0
M  V30 13500 C 1213.53 -2.91366 -5.61506 0
M  V30 13501 C 1212.2 -3.25657 -5.8267 0
M  V30 13502 H 1211.47 0.0269267 -0.740511 0
M  V30 13503 H 1214.11 -0.63439 -1.80687 0
M  V30 13504 H 1212.42 1.08783 -3.76395 0
M  V30 13505 H 1214.11 0.73899 -3.94132 0
M  V30 13506 H 1210.7 -0.664441 -4.23418 0
M  V30 13507 H 1214.89 -1.51237 -4.72696 0
M  V30 13508 H 1210.14 -2.70692 -5.48211 0
M  V30 13509 H 1214.32 -3.55445 -5.98859 0
M  V30 13510 H 1211.95 -4.15751 -6.36439 0
M  V30 13511 N 1213.52 1.56172 -0.211661 0
M  V30 13512 C 1214.47 2.19849 0.702515 0
M  V30 13513 C 1215.44 1.15091 1.19763 0
M  V30 13514 O 1216.62 1.43408 1.25852 0
M  V30 13515 C 1213.76 2.87468 1.90935 0
M  V30 13516 C 1212.88 4.06794 1.45406 0
M  V30 13517 C 1212.01 4.62224 2.61769 0
M  V30 13518 C 1211.05 5.73872 2.12926 0
M  V30 13519 N 1210.19 6.23635 3.22526 0
M  V30 13520 H 1215.03 2.97608 0.152777 0
M  V30 13521 H 1212.56 1.46962 0.0636596 0
M  V30 13522 H 1214.52 3.24851 2.61777 0
M  V30 13523 H 1213.15 2.12244 2.43213 0
M  V30 13524 H 1212.2 3.74962 0.640907 0
M  V30 13525 H 1213.52 4.87497 1.05584 0
M  V30 13526 H 1212.67 5.01999 3.40709 0
M  V30 13527 H 1211.41 3.80662 3.04873 0
M  V30 13528 H 1210.41 5.33609 1.32445 0
M  V30 13529 H 1211.64 6.57262 1.70833 0
M  V30 13530 H 1209.58 5.44991 3.65131 0
M  V30 13531 H 1209.5 6.99435 2.86926 0
M  V30 13532 H 1210.77 6.68066 4.01631 0
M  V30 13533 N 1215 -0.0618163 1.57479 0
M  V30 13534 C 1215.96 -1.05684 2.0338 0
M  V30 13535 C 1216.96 -1.31006 0.932423 0
M  V30 13536 O 1218.15 -1.26559 1.19702 0
M  V30 13537 C 1215.28 -2.39805 2.42294 0
M  V30 13538 H 1216.48 -0.661006 2.92525 0
M  V30 13539 H 1214.03 -0.307814 1.53239 0
M  V30 13540 H 1214.76 -2.84201 1.56207 0
M  V30 13541 H 1214.55 -2.22764 3.22674 0
M  V30 13542 H 1216.04 -3.11307 2.78349 0
M  V30 13543 N 1216.48 -1.54033 -0.333429 0
M  V30 13544 C 1217.72 -1.71426 -1.0704 0
M  V30 13545 C 1218.05 -0.485496 -1.8886 0
M  V30 13546 O 1217.32 0.500555 -1.89397 0
M  V30 13547 H 1215.9 -0.632034 -0.398173 0
M  V30 13548 H 1218.56 -1.91312 -0.372252 0
M  V30 13549 H 1217.65 -2.58958 -1.74205 0
M  V30 13550 N 1217.95 0.594978 -1.45938 0
M  V30 13551 C 1219.18 1.38482 -1.54394 0
M  V30 13552 C 1219.6 1.87222 -0.181563 0
M  V30 13553 O 1218.96 1.60869 0.836119 0
M  V30 13554 C 1219.01 2.55676 -2.54287 0
M  V30 13555 O 1218.11 3.5672 -2.06941 0
M  V30 13556 H 1217.46 0.412918 -0.519995 0
M  V30 13557 H 1219.99 0.722899 -1.91404 0
M  V30 13558 H 1220 3.02756 -2.73501 0
M  V30 13559 H 1218.67 2.19552 -3.53228 0
M  V30 13560 H 1217.25 3.16204 -1.97661 0
M  V30 13561 N 1219.43 1.33438 0.838571 0
M  V30 13562 C 1220.36 1.26344 1.96365 0
M  V30 13563 C 1221.34 0.143956 1.6949 0
M  V30 13564 O 1222.53 0.333779 1.9131 0
M  V30 13565 C 1219.66 1.0022 3.32526 0
M  V30 13566 C 1218.61 2.08466 3.73799 0
M  V30 13567 C 1217.94 1.67555 5.07769 0
M  V30 13568 C 1219.24 3.50144 3.87552 0
M  V30 13569 H 1220.93 2.20478 2.02558 0
M  V30 13570 H 1218.48 1.06139 0.973168 0
M  V30 13571 H 1220.43 0.939068 4.10803 0
M  V30 13572 H 1219.16 0.0252514 3.2659 0
M  V30 13573 H 1217.81 2.13822 2.97785 0
M  V30 13574 H 1217.46 0.685619 4.98305 0
M  V30 13575 H 1217.16 2.39993 5.36356 0
M  V30 13576 H 1218.69 1.62708 5.88522 0
M  V30 13577 H 1220.1 3.47287 4.56141 0
M  V30 13578 H 1218.5 4.21069 4.27575 0
M  V30 13579 H 1219.57 3.88628 2.89994 0
M  V30 13580 N 1220.91 -1.05686 1.16912 0
M  V30 13581 C 1222.16 -1.78244 0.95254 0
M  V30 13582 C 1222.48 -1.87924 -0.520525 0
M  V30 13583 O 1221.75 -1.39239 -1.37802 0
M  V30 13584 H 1220.33 -0.660228 0.349439 0
M  V30 13585 H 1222.99 -1.27634 1.47294 0
M  V30 13586 H 1222.09 -2.80102 1.37657 0
M  V30 13587 N 1222.39 -0.968567 -1.24324 0
M  V30 13588 C 1223.34 -0.491346 -2.27351 0
M  V30 13589 C 1224.33 0.445563 -1.63435 0
M  V30 13590 O 1225.54 0.320758 -1.77119 0
M  V30 13591 H 1221.91 -0.14043 -0.738772 0
M  V30 13592 H 1223.88 -1.37224 -2.64976 0
M  V30 13593 C 1222.63 0.202093 -3.47112 0
M  V30 13594 H 1221.95 -0.50973 -3.96537 0
M  V30 13595 H 1223.39 0.499815 -4.21044 0
M  V30 13596 C 1221.85 1.42937 -3.05075 0
M  V30 13597 O 1222.38 2.52635 -3.12312 0
M  V30 13598 N 1220.59 1.29572 -2.60114 0
M  V30 13599 H 1220.14 0.403169 -2.54425 0
M  V30 13600 H 1220.09 2.118 -2.32353 0
M  V30 13601 N 1223.87 1.39211 -0.738786 0
M  V30 13602 C 1225.12 1.99673 -0.285254 0
M  V30 13603 C 1225.43 1.59297 1.13507 0
M  V30 13604 O 1226.63 2.12622 1.68832 0
M  V30 13605 C 1225.09 3.5696 -0.45906 0
M  V30 13606 C 1224.7 4.06297 -1.88751 0
M  V30 13607 C 1226.44 4.24446 -0.0674954 0
M  V30 13608 C 1224.35 5.56171 -2.01067 0
M  V30 13609 H 1223.28 0.746945 -0.102901 0
M  V30 13610 H 1225.93 1.59163 -0.913209 0
M  V30 13611 H 1224.31 3.95285 0.23785 0
M  V30 13612 H 1225.49 3.79297 -2.61669 0
M  V30 13613 H 1223.8 3.51486 -2.23264 0
M  V30 13614 H 1226.4 5.34521 -0.138475 0
M  V30 13615 H 1226.74 4.04653 0.977823 0
M  V30 13616 H 1227.27 3.91309 -0.715704 0
M  V30 13617 H 1224.01 5.80849 -3.03801 0
M  V30 13618 H 1223.53 5.84961 -1.32591 0
M  V30 13619 H 1225.21 6.21642 -1.79362 0
M  V30 13620 N 1225.34 0.486708 1.49896 0
M  V30 13621 C 1226.59 -0.0646197 2.01596 0
M  V30 13622 C 1226.91 -1.39363 1.37249 0
M  V30 13623 O 1228.11 -2.03082 1.80194 0
M  V30 13624 C 1226.57 -0.16565 3.59519 0
M  V30 13625 C 1226.18 1.15586 4.32832 0
M  V30 13626 C 1227.92 -0.668103 4.1921 0
M  V30 13627 C 1225.83 1.01778 5.82576 0
M  V30 13628 H 1224.76 -0.0279241 0.753483 0
M  V30 13629 H 1227.41 0.623969 1.72566 0
M  V30 13630 H 1225.79 -0.918372 3.85204 0
M  V30 13631 H 1226.96 1.92076 4.1886 0
M  V30 13632 H 1225.28 1.59064 3.84822 0
M  V30 13633 H 1227.88 -0.788698 5.28851 0
M  V30 13634 H 1228.22 -1.66339 3.81624 0
M  V30 13635 H 1228.75 0.0276746 3.9779 0
M  V30 13636 H 1225.49 1.9869 6.24662 0
M  V30 13637 H 1225.01 0.293527 5.99081 0
M  V30 13638 H 1226.69 0.690693 6.43303 0
M  V30 13639 N 1226.82 -1.56058 0.219941 0
M  V30 13640 C 1228.06 -2.00162 -0.414063 0
M  V30 13641 C 1228.43 -1.10432 -1.57063 0
M  V30 13642 O 1229.63 -1.43877 -2.27053 0
M  V30 13643 C 1227.9 -3.47411 -0.839084 0
M  V30 13644 S 1229.46 -4.13536 -1.46742 0
M  V30 13645 H 1226.28 -0.698738 -0.131475 0
M  V30 13646 H 1228.88 -1.92714 0.32885 0
M  V30 13647 H 1227.58 -4.10398 0.0123666 0
M  V30 13648 H 1227.11 -3.58728 -1.61485 0
M  V30 13649 H 1229.13 -4.12592 -2.75648 0
M  V30 13650 N 1228.3 0.053464 -1.57509 0
M  V30 13651 C 1229.55 0.748016 -1.87317 0
M  V30 13652 C 1229.86 1.77805 -0.815161 0
M  V30 13653 O 1231.07 2.52347 -1.00167 0
M  V30 13654 C 1229.53 1.38137 -3.32334 0
M  V30 13655 C 1229.13 0.388958 -4.46308 0
M  V30 13656 C 1230.88 2.05722 -3.7132 0
M  V30 13657 C 1228.78 1.02927 -5.82374 0
M  V30 13658 H 1227.71 0.283123 -0.698826 0
M  V30 13659 H 1230.37 0.00170723 -1.835 0
M  V30 13660 H 1228.75 2.17656 -3.3082 0
M  V30 13661 H 1229.92 -0.377752 -4.59249 0
M  V30 13662 H 1228.24 -0.183447 -4.15996 0
M  V30 13663 H 1230.83 2.54437 -4.70283 0
M  V30 13664 H 1231.18 2.86475 -3.02056 0
M  V30 13665 H 1231.71 1.3301 -3.74904 0
M  V30 13666 H 1228.45 0.261674 -6.54977 0
M  V30 13667 H 1227.97 1.7664 -5.732 0
M  V30 13668 H 1229.65 1.54378 -6.28312 0
M  V30 13669 N 1229.78 1.54207 0.325255 0
M  V30 13670 C 1230.71 1.79812 1.42128 0
M  V30 13671 C 1231.72 0.68003 1.47917 0
M  V30 13672 O 1232.91 0.957107 1.50671 0
M  V30 13673 C 1230.01 1.89935 2.80674 0
M  V30 13674 C 1229.19 3.20078 2.98108 0
M  V30 13675 C 1228.25 3.20924 4.17006 0
M  V30 13676 O 1227.27 3.94571 4.10247 0
M  V30 13677 N 1228.47 2.44588 5.26457 0
M  V30 13678 H 1231.24 2.74396 1.20527 0
M  V30 13679 H 1228.8 1.53483 0.515233 0
M  V30 13680 H 1230.79 1.8793 3.58419 0
M  V30 13681 H 1229.36 1.02455 2.95333 0
M  V30 13682 H 1228.58 3.35057 2.07679 0
M  V30 13683 H 1229.87 4.06008 3.06651 0
M  V30 13684 H 1229.27 1.8434 5.34823 0
M  V30 13685 H 1227.82 2.48363 6.02627 0
M  V30 13686 N 1231.26 -0.58723 1.46251 0
M  V30 13687 C 1232.51 -1.34179 1.50595 0
M  V30 13688 C 1232.82 -1.94943 0.160171 0
M  V30 13689 O 1234.03 -2.71378 0.0813797 0
M  V30 13690 C 1232.48 -2.43159 2.65333 0
M  V30 13691 C 1232.09 -1.88718 4.06312 0
M  V30 13692 C 1233.83 -3.19986 2.78943 0
M  V30 13693 C 1231.74 -2.953 5.12398 0
M  V30 13694 H 1230.67 -0.504401 0.560442 0
M  V30 13695 H 1233.32 -0.627179 1.72449 0
M  V30 13696 H 1231.7 -3.17398 2.368 0
M  V30 13697 H 1232.88 -1.21051 4.44616 0
M  V30 13698 H 1231.19 -1.24572 3.97329 0
M  V30 13699 H 1233.79 -3.9952 3.5537 0
M  V30 13700 H 1234.13 -3.72288 1.86298 0
M  V30 13701 H 1234.67 -2.52852 3.07101 0
M  V30 13702 H 1231.4 -2.4789 6.0682 0
M  V30 13703 H 1230.92 -3.61469 4.78644 0
M  V30 13704 H 1232.6 -3.5933 5.38044 0
M  V30 13705 N 1232.74 -1.33881 -0.831482 0
M  V30 13706 C 1233.98 -1.25942 -1.58955 0
M  V30 13707 C 1234.31 0.172542 -1.93432 0
M  V30 13708 O 1233.59 1.11577 -1.59314 0
M  V30 13709 C 1233.87 -2.14193 -2.89471 0
M  V30 13710 C 1233.73 -3.65883 -2.61628 0
M  V30 13711 C 1235.04 -2.02071 -3.90967 0
M  V30 13712 H 1232.16 -0.458841 -0.576744 0
M  V30 13713 H 1234.81 -1.64052 -0.958482 0
M  V30 13714 H 1232.96 -1.81821 -3.43327 0
M  V30 13715 H 1234.63 -4.08581 -2.14148 0
M  V30 13716 H 1232.87 -3.87397 -1.95208 0
M  V30 13717 H 1233.54 -4.22988 -3.54662 0
M  V30 13718 H 1236.02 -2.30476 -3.46439 0
M  V30 13719 H 1234.89 -2.66059 -4.80108 0
M  V30 13720 H 1235.15 -0.995121 -4.30755 0
M  V30 13721 N 1234.21 1.05064 -1.1747 0
M  V30 13722 C 1235.46 1.77737 -0.961979 0
M  V30 13723 C 1235.78 1.88198 0.510551 0
M  V30 13724 O 1235.05 1.39968 1.37062 0
M  V30 13725 H 1233.63 0.658366 -0.352935 0
M  V30 13726 H 1236.29 1.26851 -1.47969 0
M  V30 13727 H 1235.39 2.79368 -1.39141 0
M  V30 13728 N 1235.69 0.975146 1.23809 0
M  V30 13729 C 1236.62 0.530389 2.27396 0
M  V30 13730 C 1237.6 -0.433763 1.64476 0
M  V30 13731 O 1238.79 -0.32827 1.91405 0
M  V30 13732 C 1235.92 -0.173066 3.46869 0
M  V30 13733 C 1234.87 0.707844 4.22106 0
M  V30 13734 C 1234.2 -0.127527 5.34548 0
M  V30 13735 C 1235.5 1.99609 4.82652 0
M  V30 13736 H 1237.19 1.39622 2.64851 0
M  V30 13737 H 1234.74 0.672802 1.27316 0
M  V30 13738 H 1236.69 -0.495481 4.18477 0
M  V30 13739 H 1235.41 -1.0733 3.0846 0
M  V30 13740 H 1234.07 1.01364 3.52308 0
M  V30 13741 H 1233.72 -1.02814 4.9238 0
M  V30 13742 H 1233.42 0.458728 5.85807 0
M  V30 13743 H 1234.95 -0.444443 6.0898 0
M  V30 13744 H 1236.36 1.73878 5.46296 0
M  V30 13745 H 1234.76 2.52969 5.44175 0
M  V30 13746 H 1235.83 2.68629 4.03691 0
M  V30 13747 N 1237.17 -1.38817 0.746158 0
M  V30 13748 C 1238.1 -2.33144 0.128836 0
M  V30 13749 C 1239.08 -1.54487 -0.711873 0
M  V30 13750 O 1240.27 -1.82836 -0.654577 0
M  V30 13751 C 1237.4 -3.38639 -0.770772 0
M  V30 13752 C 1236.35 -4.27987 -0.0333669 0
M  V30 13753 C 1235.68 -5.24274 -1.05073 0
M  V30 13754 C 1236.98 -5.09915 1.13066 0
M  V30 13755 H 1238.67 -2.85019 0.916778 0
M  V30 13756 H 1236.22 -1.37039 0.442306 0
M  V30 13757 H 1238.17 -4.03587 -1.21225 0
M  V30 13758 H 1236.89 -2.8523 -1.59095 0
M  V30 13759 H 1235.55 -3.64534 0.388612 0
M  V30 13760 H 1235.2 -4.67156 -1.86478 0
M  V30 13761 H 1234.9 -5.84906 -0.562037 0
M  V30 13762 H 1236.42 -5.92099 -1.49169 0
M  V30 13763 H 1237.84 -5.68145 0.767084 0
M  V30 13764 H 1236.23 -5.79744 1.54972 0
M  V30 13765 H 1237.3 -4.4409 1.94709 0
M  V30 13766 N 1238.65 -0.49465 -1.49636 0
M  V30 13767 C 1239.56 0.291881 -2.32777 0
M  V30 13768 C 1240.57 0.973468 -1.44221 0
M  V30 13769 O 1241.75 0.956252 -1.77251 0
M  V30 13770 C 1238.81 1.34609 -3.19502 0
M  V30 13771 C 1237.88 0.678611 -4.23903 0
M  V30 13772 C 1237.11 1.68259 -5.06483 0
M  V30 13773 O 1237.33 2.91176 -4.90482 0
M  V30 13774 O 1236.27 1.24141 -5.88959 0
M  V30 13775 H 1240.09 -0.388459 -3.01205 0
M  V30 13776 H 1237.68 -0.256086 -1.47189 0
M  V30 13777 H 1239.56 1.95617 -3.73245 0
M  V30 13778 H 1238.23 2.00947 -2.53775 0
M  V30 13779 H 1237.14 0.0289541 -3.74089 0
M  V30 13780 H 1238.47 0.0577817 -4.92166 0
M  V30 13781 N 1240.13 1.55939 -0.228214 0
M  V30 13782 C 1241.07 2.21957 0.69556 0
M  V30 13783 C 1242.07 1.20109 1.19458 0
M  V30 13784 O 1243.27 1.38171 1.15364 0
M  V30 13785 H 1239.65 0.711744 0.242744 0
M  V30 13786 H 1241.62 2.98177 0.115403 0
M  V30 13787 C 1240.37 2.91847 1.88999 0
M  V30 13788 H 1239.69 3.69978 1.51512 0
M  V30 13789 H 1241.13 3.4143 2.51399 0
M  V30 13790 C 1239.59 1.94683 2.74954 0
M  V30 13791 O 1240.12 1.468 3.73915 0
M  V30 13792 N 1238.33 1.62188 2.41129 0
M  V30 13793 H 1237.87 2.01322 1.60709 0
M  V30 13794 H 1237.83 0.9744 2.98919 0
M  V30 13795 N 1241.6 -0.0451101 1.57535 0
M  V30 13796 C 1242.83 -0.750231 1.92497 0
M  V30 13797 C 1243.24 -1.70268 0.824946 0
M  V30 13798 O 1242.59 -1.82511 -0.208656 0
M  V30 13799 C 1242.65 -1.57543 3.23141 0
M  V30 13800 C 1242.31 -0.789495 4.50129 0
M  V30 13801 C 1243.31 -0.0968367 5.1981 0
M  V30 13802 C 1240.99 -0.748776 4.96688 0
M  V30 13803 C 1242.99 0.626018 6.34318 0
M  V30 13804 C 1240.67 -0.0221652 6.11096 0
M  V30 13805 C 1241.67 0.664006 6.79765 0
M  V30 13806 O 1241.36 1.37885 7.91987 0
M  V30 13807 H 1241.09 -0.216895 0.64026 0
M  V30 13808 H 1243.65 -0.011558 2.05397 0
M  V30 13809 H 1241.88 -2.35754 3.06524 0
M  V30 13810 H 1243.57 -2.16168 3.4355 0
M  V30 13811 H 1244.33 -0.119429 4.84853 0
M  V30 13812 H 1240.21 -1.27235 4.43094 0
M  V30 13813 H 1243.75 1.16215 6.87852 0
M  V30 13814 H 1239.65 0.00240707 6.455 0
M  V30 13815 H 1240.42 1.29087 8.08257 0
M  V30 13816 N 1243.08 -1.54377 -0.317073 0
M  V30 13817 C 1243.99 -1.87247 -1.41335 0
M  V30 13818 C 1245.01 -0.765017 -1.5628 0
M  V30 13819 O 1246.18 -1.05994 -1.71252 0
M  V30 13820 C 1243.25 -2.0988 -2.75955 0
M  V30 13821 C 1242.31 -3.33658 -2.70131 0
M  V30 13822 C 1241.54 -3.55202 -3.9833 0
M  V30 13823 O 1241.77 -2.80061 -4.96913 0
M  V30 13824 O 1240.7 -4.48693 -4.01196 0
M  V30 13825 H 1244.53 -2.80481 -1.16465 0
M  V30 13826 H 1242.11 -1.40364 -0.511687 0
M  V30 13827 H 1243.99 -2.2606 -3.55633 0
M  V30 13828 H 1242.67 -1.19834 -3.00702 0
M  V30 13829 H 1241.58 -3.22857 -1.88981 0
M  V30 13830 H 1242.91 -4.23782 -2.50338 0
M  V30 13831 N 1244.56 0.579466 -1.4656 0
M  V30 13832 C 1245.51 1.68829 -1.5737 0
M  V30 13833 C 1246.48 1.60759 -0.417825 0
M  V30 13834 O 1247.66 1.79923 -0.635001 0
M  V30 13835 C 1244.8 3.07166 -1.573 0
M  V30 13836 C 1243.92 3.25837 -2.83645 0
M  V30 13837 C 1243.05 4.54441 -2.75057 0
M  V30 13838 C 1242.09 4.66467 -3.96327 0
M  V30 13839 N 1241.23 5.86401 -3.86107 0
M  V30 13840 H 1246.07 1.58928 -2.52083 0
M  V30 13841 H 1243.6 0.774526 -1.25058 0
M  V30 13842 H 1245.56 3.8724 -1.55245 0
M  V30 13843 H 1244.19 3.15956 -0.661166 0
M  V30 13844 H 1243.24 2.39345 -2.95666 0
M  V30 13845 H 1244.56 3.30591 -3.73512 0
M  V30 13846 H 1243.71 5.42748 -2.71126 0
M  V30 13847 H 1242.45 4.52131 -1.82836 0
M  V30 13848 H 1241.45 3.76577 -4.00587 0
M  V30 13849 H 1242.68 4.70554 -4.89649 0
M  V30 13850 H 1240.62 5.85082 -2.96673 0
M  V30 13851 H 1240.54 5.92437 -4.69632 0
M  V30 13852 H 1241.81 6.7713 -3.86155 0
M  V30 13853 N 1246.04 1.3432 0.824371 0
M  V30 13854 C 1246.97 1.2842 1.95014 0
M  V30 13855 C 1247.95 0.161925 1.69328 0
M  V30 13856 O 1249.13 0.354052 1.90945 0
M  V30 13857 C 1246.26 1.03741 3.31444 0
M  V30 13858 C 1245.22 2.12419 3.71567 0
M  V30 13859 C 1244.54 1.72931 5.05963 0
M  V30 13860 C 1245.84 3.54235 3.83817 0
M  V30 13861 H 1247.54 2.22614 2.00209 0
M  V30 13862 H 1245.08 1.07165 0.961856 0
M  V30 13863 H 1247.04 0.982586 4.09784 0
M  V30 13864 H 1245.76 0.0598892 3.26545 0
M  V30 13865 H 1244.42 2.16968 2.955 0
M  V30 13866 H 1244.07 0.738433 4.9755 0
M  V30 13867 H 1243.77 2.45668 5.3378 0
M  V30 13868 H 1245.29 1.68941 5.86763 0
M  V30 13869 H 1246.71 3.52106 4.52432 0
M  V30 13870 H 1245.1 4.25581 4.23085 0
M  V30 13871 H 1246.17 3.91682 2.85856 0
M  V30 13872 N 1247.52 -1.0444 1.18026 0
M  V30 13873 C 1248.76 -1.77575 0.973314 0
M  V30 13874 C 1249.09 -1.88032 -0.4974 0
M  V30 13875 O 1248.35 -1.38214 -1.38548 0
M  V30 13876 C 1248.65 -3.21134 1.56869 0
M  V30 13877 C 1248.31 -3.30718 3.0649 0
M  V30 13878 C 1246.97 -3.33041 3.47328 0
M  V30 13879 C 1249.33 -3.3112 4.02503 0
M  V30 13880 C 1246.65 -3.33404 4.82762 0
M  V30 13881 C 1249.01 -3.33023 5.37846 0
M  V30 13882 C 1247.67 -3.33636 5.78138 0
M  V30 13883 H 1246.94 -0.649793 0.356161 0
M  V30 13884 H 1249.59 -1.22693 1.47033 0
M  V30 13885 H 1247.89 -3.78992 0.993584 0
M  V30 13886 H 1249.59 -3.76358 1.38404 0
M  V30 13887 H 1246.18 -3.29628 2.7394 0
M  V30 13888 H 1250.36 -3.2852 3.72006 0
M  V30 13889 H 1245.62 -3.32194 5.13281 0
M  V30 13890 H 1249.79 -3.32283 6.12014 0
M  V30 13891 H 1247.42 -3.33671 6.83058 0
M  V30 13892 N 1248.99 -0.981699 -1.2329 0
M  V30 13893 C 1250.27 -0.567659 -1.87182 0
M  V30 13894 C 1250.65 0.955194 -1.88253 0
M  V30 13895 O 1250 1.83245 -1.36504 0
M  V30 13896 C 1250.21 -1.17522 -3.28618 0
M  V30 13897 C 1251.56 -1.26877 -4.052 0
M  V30 13898 O 1252.58 -1.12877 -3.37842 0
M  V30 13899 O 1251.44 -1.49163 -5.2575 0
M  V30 13900 H 1248.53 -0.191315 -0.804567 0
M  V30 13901 H 1251.08 -1.07686 -1.31155 0
M  V30 13902 H 1249.85 -2.21735 -3.22411 0
M  V30 13903 H 1249.48 -0.650913 -3.92236 0
M  V30 13904 N 1250.47 1.3842 -0.753509 0
M  V30 13905 C 1251.4 2.33073 -0.141198 0
M  V30 13906 C 1252.38 1.54863 0.70367 0
M  V30 13907 O 1253.57 1.8318 0.644872 0
M  V30 13908 C 1250.7 3.39043 0.752802 0
M  V30 13909 C 1249.65 4.27999 0.0106692 0
M  V30 13910 C 1248.98 5.24824 1.02291 0
M  V30 13911 C 1250.28 5.09308 -1.15768 0
M  V30 13912 H 1251.97 2.84528 -0.93188 0
M  V30 13913 H 1249.52 1.36802 -0.449567 0
M  V30 13914 H 1251.47 4.04224 1.19083 0
M  V30 13915 H 1250.2 2.8607 1.57581 0
M  V30 13916 H 1248.85 3.64323 -0.407939 0
M  V30 13917 H 1248.5 4.68139 1.83998 0
M  V30 13918 H 1248.2 5.85196 0.53101 0
M  V30 13919 H 1249.73 5.92882 1.46026 0
M  V30 13920 H 1251.14 5.6773 -0.797203 0
M  V30 13921 H 1249.54 5.78914 -1.58044 0
M  V30 13922 H 1250.61 4.43051 -1.97062 0
M  V30 13923 N 1251.95 0.502579 1.49372 0
M  V30 13924 C 1252.88 -0.264307 2.31999 0
M  V30 13925 C 1253.86 -0.96107 1.40348 0
M  V30 13926 O 1255.05 -0.952167 1.69255 0
M  V30 13927 C 1252.18 -1.32822 3.20898 0
M  V30 13928 C 1251.13 -0.751236 4.21355 0
M  V30 13929 C 1250.46 -1.91578 4.99201 0
M  V30 13930 C 1251.76 0.258764 5.21659 0
M  V30 13931 H 1253.45 0.425391 2.96363 0
M  V30 13932 H 1251 0.206022 1.42519 0
M  V30 13933 H 1252.95 -1.87245 3.77515 0
M  V30 13934 H 1251.67 -2.04712 2.54481 0
M  V30 13935 H 1250.33 -0.228743 3.65886 0
M  V30 13936 H 1249.98 -2.62241 4.2923 0
M  V30 13937 H 1249.68 -1.53578 5.67175 0
M  V30 13938 H 1251.2 -2.46432 5.58663 0
M  V30 13939 H 1252.62 -0.197385 5.7296 0
M  V30 13940 H 1251.02 0.554681 5.97531 0
M  V30 13941 H 1252.09 1.1741 4.70471 0
M  V30 13942 N 1253.43 -1.55816 0.23648 0
M  V30 13943 C 1254.68 -1.98686 -0.391146 0
M  V30 13944 C 1255 -1.12443 -1.58703 0
M  V30 13945 O 1254.26 -0.172805 -1.94936 0
M  V30 13946 C 1254.56 -3.47039 -0.85434 0
M  V30 13947 C 1254.22 -4.50299 0.232651 0
M  V30 13948 C 1252.89 -4.78259 0.531218 0
M  V30 13949 C 1255.24 -5.1215 0.967027 0
M  V30 13950 C 1252.57 -5.65347 1.56842 0
M  V30 13951 C 1254.92 -6.00363 1.99367 0
M  V30 13952 C 1253.58 -6.2666 2.299 0
M  V30 13953 H 1252.85 -0.727045 -0.14313 0
M  V30 13954 H 1255.5 -1.88419 0.342125 0
M  V30 13955 H 1253.8 -3.54585 -1.66663 0
M  V30 13956 H 1255.5 -3.7759 -1.35005 0
M  V30 13957 H 1252.09 -4.28599 -0.0102014 0
M  V30 13958 H 1256.27 -4.90606 0.749609 0
M  V30 13959 H 1251.53 -5.83981 1.81043 0
M  V30 13960 H 1255.7 -6.47335 2.56769 0
M  V30 13961 H 1253.33 -6.93938 3.1041 0
M  V30 13962 N 1254.91 0.036755 -1.57557 0
M  V30 13963 C 1255.84 1.03939 -2.09091 0
M  V30 13964 C 1256.82 1.38196 -0.991761 0
M  V30 13965 O 1258 1.47214 -1.26656 0
M  V30 13966 C 1255.13 2.34263 -2.56394 0
M  V30 13967 C 1254.09 2.14269 -3.70504 0
M  V30 13968 C 1253.41 3.50286 -4.03985 0
M  V30 13969 C 1254.71 1.53514 -4.9923 0
M  V30 13970 H 1256.41 0.610429 -2.93111 0
M  V30 13971 H 1253.95 0.292183 -1.41005 0
M  V30 13972 H 1255.91 3.04727 -2.91066 0
M  V30 13973 H 1254.63 2.79205 -1.69447 0
M  V30 13974 H 1253.29 1.46239 -3.36169 0
M  V30 13975 H 1252.94 3.92861 -3.14116 0
M  V30 13976 H 1252.64 3.37735 -4.80842 0
M  V30 13977 H 1254.16 4.22124 -4.41184 0
M  V30 13978 H 1255.57 2.13885 -5.31908 0
M  V30 13979 H 1253.97 1.51561 -5.80646 0
M  V30 13980 H 1255.04 0.500126 -4.82314 0
M  V30 13981 N 1256.39 1.54543 0.308881 0
M  V30 13982 C 1257.61 1.77753 1.06857 0
M  V30 13983 C 1258.04 0.531616 1.80431 0
M  V30 13984 O 1257.39 -0.517513 1.73757 0
M  V30 13985 C 1257.44 2.97968 2.03094 0
M  V30 13986 O 1256.55 2.70541 3.11257 0
M  V30 13987 H 1255.89 0.588576 0.307368 0
M  V30 13988 H 1258.42 2.01607 0.348703 0
M  V30 13989 H 1258.43 3.25722 2.45702 0
M  V30 13990 H 1257.1 3.88314 1.48948 0
M  V30 13991 H 1255.68 2.53781 2.7322 0
M  V30 13992 N 1257.86 -0.571685 1.46866 0
M  V30 13993 C 1259.11 -1.32574 1.5201 0
M  V30 13994 C 1259.43 -1.94762 0.180838 0
M  V30 13995 O 1260.63 -2.71276 0.110158 0
M  V30 13996 C 1259.09 -2.40331 2.67897 0
M  V30 13997 C 1258.7 -1.84398 4.08291 0
M  V30 13998 C 1260.44 -3.17009 2.82321 0
M  V30 13999 C 1258.35 -2.89849 5.15501 0
M  V30 14000 H 1257.28 -0.498428 0.565761 0
M  V30 14001 H 1259.93 -0.608853 1.73105 0
M  V30 14002 H 1258.31 -3.14869 2.40153 0
M  V30 14003 H 1259.48 -1.16329 4.45875 0
M  V30 14004 H 1257.8 -1.20351 3.98628 0
M  V30 14005 H 1260.4 -3.95729 3.59587 0
M  V30 14006 H 1260.74 -3.70292 1.90236 0
M  V30 14007 H 1261.27 -2.4958 3.09765 0
M  V30 14008 H 1258.01 -2.4144 6.09415 0
M  V30 14009 H 1257.53 -3.56372 4.82451 0
M  V30 14010 H 1259.21 -3.53603 5.41825 0
M  V30 14011 N 1259.34 -1.34755 -0.817236 0
M  V30 14012 C 1260.59 -1.27432 -1.57377 0
M  V30 14013 C 1260.92 0.15419 -1.93888 0
M  V30 14014 O 1260.17 1.11686 -1.60701 0
M  V30 14015 C 1260.47 -2.11611 -2.8802 0
M  V30 14016 C 1260.14 -3.60543 -2.70776 0
M  V30 14017 C 1258.8 -4.01141 -2.6578 0
M  V30 14018 C 1261.15 -4.55089 -2.54053 0
M  V30 14019 C 1258.48 -5.34469 -2.41991 0
M  V30 14020 C 1260.83 -5.88603 -2.31795 0
M  V30 14021 C 1259.49 -6.28358 -2.25215 0
M  V30 14022 H 1258.76 -0.466305 -0.575882 0
M  V30 14023 H 1261.41 -1.66552 -0.945128 0
M  V30 14024 H 1259.72 -1.65336 -3.55206 0
M  V30 14025 H 1261.41 -2.03287 -3.45652 0
M  V30 14026 H 1258 -3.2832 -2.75506 0
M  V30 14027 H 1262.19 -4.24617 -2.56932 0
M  V30 14028 H 1257.44 -5.64284 -2.35359 0
M  V30 14029 H 1261.62 -6.61451 -2.17844 0
M  V30 14030 H 1259.24 -7.31604 -2.06543 0
M  V30 14031 N 1260.82 1.03812 -1.18578 0
M  V30 14032 C 1261.77 2.11883 -0.915115 0
M  V30 14033 C 1262.74 1.65453 0.146479 0
M  V30 14034 O 1263.92 1.90799 0.00630058 0
M  V30 14035 C 1261.06 3.42157 -0.449755 0
M  V30 14036 C 1260.17 4.02185 -1.57706 0
M  V30 14037 C 1259.31 5.20431 -1.06417 0
M  V30 14038 C 1258.35 5.72496 -2.16599 0
M  V30 14039 N 1257.49 6.82027 -1.66685 0
M  V30 14040 H 1262.33 2.34373 -1.84047 0
M  V30 14041 H 1259.86 1.14962 -0.917728 0
M  V30 14042 H 1261.82 4.16888 -0.161407 0
M  V30 14043 H 1260.45 3.19806 0.438622 0
M  V30 14044 H 1259.5 3.24757 -1.98083 0
M  V30 14045 H 1260.81 4.36851 -2.40754 0
M  V30 14046 H 1259.97 6.02286 -0.730497 0
M  V30 14047 H 1258.71 4.87276 -0.203301 0
M  V30 14048 H 1257.71 4.8926 -2.50808 0
M  V30 14049 H 1258.94 6.07694 -3.03126 0
M  V30 14050 H 1256.88 6.50742 -0.828916 0
M  V30 14051 H 1256.8 7.1577 -2.43329 0
M  V30 14052 H 1258.07 7.67499 -1.36253 0
M  V30 14053 N 1262.3 0.988223 1.22768 0
M  V30 14054 C 1263.23 0.47962 2.23103 0
M  V30 14055 C 1264.21 -0.457546 1.5603 0
M  V30 14056 O 1265.39 -0.384178 1.84544 0
M  V30 14057 C 1262.52 -0.305248 3.37322 0
M  V30 14058 C 1261.57 0.577215 4.22576 0
M  V30 14059 S 1262.4 2.02974 4.95542 0
M  V30 14060 C 1263.55 1.25423 6.13205 0
M  V30 14061 H 1263.79 1.32985 2.65899 0
M  V30 14062 H 1261.32 0.794824 1.3237 0
M  V30 14063 H 1263.28 -0.752057 4.03552 0
M  V30 14064 H 1261.94 -1.1307 2.93043 0
M  V30 14065 H 1261.13 -0.0264391 5.03993 0
M  V30 14066 H 1260.73 0.960593 3.61453 0
M  V30 14067 H 1263.03 0.519499 6.75505 0
M  V30 14068 H 1263.97 2.04351 6.77972 0
M  V30 14069 H 1264.38 0.769573 5.5923 0
M  V30 14070 N 1263.78 -1.38018 0.760839 0
M  V30 14071 C 1264.72 -2.32251 0.127425 0
M  V30 14072 C 1265.72 -1.54387 -0.69722 0
M  V30 14073 O 1266.92 -1.69864 -0.595505 0
M  V30 14074 H 1263.3 -0.751666 0.0224141 0
M  V30 14075 H 1265.27 -2.8327 0.93813 0
M  V30 14076 C 1264.02 -3.39606 -0.745849 0
M  V30 14077 H 1263.34 -3.99618 -0.120679 0
M  V30 14078 H 1264.78 -4.07931 -1.15621 0
M  V30 14079 C 1263.24 -2.78778 -1.89167 0
M  V30 14080 O 1263.77 -2.68661 -2.98637 0
M  V30 14081 N 1261.98 -2.36481 -1.68894 0
M  V30 14082 H 1261.52 -2.4491 -0.798551 0
M  V30 14083 H 1261.48 -1.96126 -2.45728 0
M  V30 14084 N 1265.25 -0.510493 -1.49103 0
M  V30 14085 C 1266.18 0.251999 -2.32136 0
M  V30 14086 C 1267.16 0.953613 -1.40855 0
M  V30 14087 O 1268.35 0.943178 -1.69758 0
M  V30 14088 C 1265.48 1.31118 -3.21598 0
M  V30 14089 C 1264.43 0.72888 -4.21748 0
M  V30 14090 C 1263.76 1.88928 -5.0021 0
M  V30 14091 C 1265.06 -0.286425 -5.21514 0
M  V30 14092 H 1266.75 -0.441102 -2.96133 0
M  V30 14093 H 1264.3 -0.213577 -1.42407 0
M  V30 14094 H 1266.25 1.8524 -3.78503 0
M  V30 14095 H 1264.98 2.0336 -2.55563 0
M  V30 14096 H 1263.64 0.209336 -3.66002 0
M  V30 14097 H 1263.28 2.59961 -4.30615 0
M  V30 14098 H 1262.98 1.50568 -5.67981 0
M  V30 14099 H 1264.51 2.43465 -5.59962 0
M  V30 14100 H 1265.92 0.166997 -5.73057 0
M  V30 14101 H 1264.32 -0.586361 -5.97228 0
M  V30 14102 H 1265.39 -1.19904 -4.69842 0
M  V30 14103 N 1266.73 1.55688 -0.24474 0
M  V30 14104 C 1267.96 2.0329 0.384808 0
M  V30 14105 C 1268.37 1.12405 1.51692 0
M  V30 14106 O 1267.73 0.138056 1.81977 0
M  V30 14107 C 1267.78 3.50255 0.894635 0
M  V30 14108 O 1267.5 4.37677 -0.192365 0
M  V30 14109 C 1269 4.13608 1.59509 0
M  V30 14110 H 1266.22 0.664706 0.0916908 0
M  V30 14111 H 1268.77 2.01162 -0.367973 0
M  V30 14112 H 1266.92 3.52924 1.5976 0
M  V30 14113 H 1267.34 5.2414 0.194424 0
M  V30 14114 H 1268.81 5.1814 1.90356 0
M  V30 14115 H 1269.29 3.5997 2.51631 0
M  V30 14116 H 1269.89 4.14856 0.936749 0
M  V30 14117 N 1268.21 -0.0283989 1.57574 0
M  V30 14118 C 1269.14 -1.02828 2.09639 0
M  V30 14119 C 1270.12 -1.37668 0.999076 0
M  V30 14120 O 1271.31 -1.4654 1.27435 0
M  V30 14121 C 1268.44 -2.329 2.57633 0
M  V30 14122 C 1267.39 -2.12301 3.71635 0
M  V30 14123 C 1266.72 -3.48138 4.05837 0
M  V30 14124 C 1268.02 -1.50864 5.00037 0
M  V30 14125 H 1269.71 -0.594876 2.93431 0
M  V30 14126 H 1267.26 -0.284701 1.41158 0
M  V30 14127 H 1269.21 -3.03179 2.92678 0
M  V30 14128 H 1267.93 -2.78302 1.70926 0
M  V30 14129 H 1266.59 -1.44454 3.3694 0
M  V30 14130 H 1266.24 -3.9119 3.16195 0
M  V30 14131 H 1265.94 -3.3518 4.82626 0
M  V30 14132 H 1267.46 -4.19779 4.43417 0
M  V30 14133 H 1268.88 -2.11062 5.33035 0
M  V30 14134 H 1267.27 -1.48479 5.81441 0
M  V30 14135 H 1268.34 -0.474541 4.82572 0
M  V30 14136 N 1269.69 -1.54705 -0.300681 0
M  V30 14137 C 1270.64 -1.82062 -1.37249 0
M  V30 14138 C 1271.62 -0.677804 -1.45927 0
M  V30 14139 O 1272.81 -0.938447 -1.50074 0
M  V30 14140 C 1269.94 -2.07168 -2.73745 0
M  V30 14141 C 1269.03 -3.27634 -2.69289 0
M  V30 14142 N 1269.42 -4.48182 -2.34449 0
M  V30 14143 C 1267.72 -3.29668 -3.00391 0
M  V30 14144 C 1268.42 -5.30199 -2.39298 0
M  V30 14145 N 1267.39 -4.67929 -2.76665 0
M  V30 14146 H 1271.2 -2.72829 -1.09277 0
M  V30 14147 H 1268.71 -1.54209 -0.509259 0
M  V30 14148 H 1270.71 -2.24914 -3.51026 0
M  V30 14149 H 1269.37 -1.17668 -3.02629 0
M  V30 14150 H 1270.38 -4.74778 -2.06898 0
M  V30 14151 H 1267.06 -2.50276 -3.34168 0
M  V30 14152 H 1268.45 -6.36519 -2.15157 0
M  V30 14153 N 1271.17 0.563888 -1.47167 0
M  V30 14154 C 1272.58 0.889156 -1.32537 0
M  V30 14155 C 1272.78 1.99088 -0.310854 0
M  V30 14156 O 1271.84 2.50943 0.27998 0
M  V30 14157 C 1273.15 1.28871 -2.71685 0
M  V30 14158 C 1274.7 1.40051 -2.79919 0
M  V30 14159 C 1275.17 1.83364 -4.19692 0
M  V30 14160 N 1276.67 1.90526 -4.22201 0
M  V30 14161 C 1277.4 2.25355 -5.2726 0
M  V30 14162 N 1276.9 2.58844 -6.42629 0
M  V30 14163 N 1278.69 2.26071 -5.14634 0
M  V30 14164 H 1270.84 -0.163581 -2.11769 0
M  V30 14165 H 1273.1 -0.0105151 -0.947942 0
M  V30 14166 H 1272.81 0.553057 -3.47324 0
M  V30 14167 H 1272.68 2.24629 -3.03021 0
M  V30 14168 H 1275.07 2.12698 -2.04557 0
M  V30 14169 H 1275.15 0.424971 -2.52245 0
M  V30 14170 H 1274.8 1.11289 -4.95557 0
M  V30 14171 H 1274.73 2.81909 -4.44786 0
M  V30 14172 H 1277.22 1.67059 -3.38968 0
M  V30 14173 H 1277.53 2.84427 -7.18555 0
M  V30 14174 H 1275.87 2.56439 -6.4596 0
M  V30 14175 H 1279.07 1.99343 -4.23533 0
M  V30 14176 H 1279.24 2.52885 -5.96618 0
M  V30 14177 N 1272.64 1.35187 0.810078 0
M  V30 14178 C 1273.57 1.30481 1.93641 0
M  V30 14179 C 1274.56 0.179875 1.69146 0
M  V30 14180 O 1275.74 0.374284 1.90559 0
M  V30 14181 C 1272.87 1.07251 3.30325 0
M  V30 14182 C 1271.82 2.16348 3.69293 0
M  V30 14183 C 1271.15 1.78288 5.04101 0
M  V30 14184 C 1272.45 3.58285 3.80038 0
M  V30 14185 H 1274.14 2.24725 1.97836 0
M  V30 14186 H 1271.69 1.08179 0.950436 0
M  V30 14187 H 1273.64 1.02599 4.08719 0
M  V30 14188 H 1272.37 0.0945203 3.26463 0
M  V30 14189 H 1271.03 2.2009 2.93182 0
M  V30 14190 H 1270.67 0.791163 4.96739 0
M  V30 14191 H 1270.37 2.51315 5.31144 0
M  V30 14192 H 1271.9 1.75155 5.84938 0
M  V30 14193 H 1273.31 3.56884 4.48672 0
M  V30 14194 H 1271.71 4.30044 4.18548 0
M  V30 14195 H 1272.78 3.94691 2.81685 0
M  V30 14196 N 1274.12 -1.03182 1.19127 0
M  V30 14197 C 1275.03 -2.14875 0.94159 0
M  V30 14198 C 1276.05 -1.73727 -0.0973872 0
M  V30 14199 O 1277.22 -2.01214 0.0865775 0
M  V30 14200 C 1274.29 -3.43356 0.480366 0
M  V30 14201 C 1273.35 -3.98835 1.58838 0
M  V30 14202 C 1272.58 -5.21183 1.14907 0
M  V30 14203 O 1272.81 -5.70399 0.0114141 0
M  V30 14204 O 1271.74 -5.69423 1.95042 0
M  V30 14205 H 1275.57 -2.38799 1.8764 0
M  V30 14206 H 1273.15 -1.13299 0.973841 0
M  V30 14207 H 1275.03 -4.20763 0.231658 0
M  V30 14208 H 1273.71 -3.20884 -0.426041 0
M  V30 14209 H 1272.62 -3.22776 1.8912 0
M  V30 14210 H 1273.95 -4.25665 2.47123 0
M  V30 14211 N 1275.6 -0.99472 -1.22242 0
M  V30 14212 C 1276.85 -0.667045 -1.90351 0
M  V30 14213 C 1277.16 0.804615 -1.78284 0
M  V30 14214 O 1278.37 1.24395 -2.41326 0
M  V30 14215 C 1276.82 -1.14256 -3.41282 0
M  V30 14216 C 1276.43 -2.63958 -3.61981 0
M  V30 14217 C 1278.18 -0.889302 -4.1508 0
M  V30 14218 C 1276.08 -3.05103 -5.06622 0
M  V30 14219 H 1275.01 -0.245795 -0.712812 0
M  V30 14220 H 1277.66 -1.20452 -1.38432 0
M  V30 14221 H 1276.05 -0.533203 -3.92394 0
M  V30 14222 H 1277.22 -3.30255 -3.21354 0
M  V30 14223 H 1275.54 -2.87186 -3.01518 0
M  V30 14224 H 1278.13 -1.17239 -5.21689 0
M  V30 14225 H 1278.48 0.174556 -4.15934 0
M  V30 14226 H 1279.01 -1.46095 -3.70002 0
M  V30 14227 H 1275.75 -4.10672 -5.1091 0
M  V30 14228 H 1275.27 -2.4351 -5.48145 0
M  V30 14229 H 1276.95 -2.96506 -5.75059 0
M  V30 14230 N 1277.08 1.37613 -0.768148 0
M  V30 14231 C 1278.33 1.99023 -0.327543 0
M  V30 14232 C 1278.64 1.61669 1.10103 0
M  V30 14233 O 1279.85 2.16155 1.64284 0
M  V30 14234 C 1278.3 3.55906 -0.534674 0
M  V30 14235 C 1277.91 4.02201 -1.97327 0
M  V30 14236 C 1279.65 4.24208 -0.157512 0
M  V30 14237 C 1277.56 5.51781 -2.12819 0
M  V30 14238 H 1276.49 0.744595 -0.118722 0
M  V30 14239 H 1279.14 1.5719 -0.946764 0
M  V30 14240 H 1277.52 3.95701 0.153951 0
M  V30 14241 H 1278.7 3.73661 -2.69655 0
M  V30 14242 H 1277.01 3.46671 -2.30669 0
M  V30 14243 H 1279.61 5.34107 -0.251824 0
M  V30 14244 H 1279.95 4.06636 0.89177 0
M  V30 14245 H 1280.49 3.89703 -0.798546 0
M  V30 14246 H 1277.23 5.74274 -3.16053 0
M  V30 14247 H 1276.75 5.82017 -1.4497 0
M  V30 14248 H 1278.42 6.17697 -1.92508 0
M  V30 14249 N 1278.56 0.518393 1.4883 0
M  V30 14250 C 1279.49 -0.239685 2.32267 0
M  V30 14251 C 1280.47 -0.94613 1.41359 0
M  V30 14252 O 1281.65 -0.934162 1.70256 0
M  V30 14253 C 1278.78 -1.29411 3.22289 0
M  V30 14254 C 1277.74 -0.706504 4.22129 0
M  V30 14255 C 1277.06 -1.86273 5.01205 0
M  V30 14256 C 1278.36 0.314079 5.21355 0
M  V30 14257 H 1280.06 0.4568 2.95895 0
M  V30 14258 H 1277.6 0.221126 1.42292 0
M  V30 14259 H 1279.56 -1.8323 3.7948 0
M  V30 14260 H 1278.28 -2.02001 2.56638 0
M  V30 14261 H 1276.94 -0.189924 3.66108 0
M  V30 14262 H 1276.59 -2.57674 4.31988 0
M  V30 14263 H 1276.29 -1.47554 5.68772 0
M  V30 14264 H 1277.81 -2.40492 5.61245 0
M  V30 14265 H 1279.22 -0.136604 5.73137 0
M  V30 14266 H 1277.62 0.618026 5.96909 0
M  V30 14267 H 1278.69 1.22394 4.69199 0
M  V30 14268 N 1280.03 -1.55556 0.252993 0
M  V30 14269 C 1280.98 -2.21634 -0.643979 0
M  V30 14270 C 1281.95 -1.18226 -1.1667 0
M  V30 14271 O 1283.14 -1.46694 -1.22006 0
M  V30 14272 C 1280.28 -2.92429 -1.83246 0
M  V30 14273 C 1279.39 -4.10506 -1.34569 0
M  V30 14274 C 1278.52 -4.69001 -2.49421 0
M  V30 14275 C 1277.56 -5.79315 -1.97636 0
M  V30 14276 N 1276.7 -6.31967 -3.05878 0
M  V30 14277 H 1281.54 -2.97909 -0.0738178 0
M  V30 14278 H 1279.08 -1.47079 -0.0246728 0
M  V30 14279 H 1281.04 -3.31678 -2.53072 0
M  V30 14280 H 1279.67 -2.18617 -2.375 0
M  V30 14281 H 1278.72 -3.76529 -0.541268 0
M  V30 14282 H 1280.03 -4.90125 -0.92622 0
M  V30 14283 H 1279.18 -5.10855 -3.27279 0
M  V30 14284 H 1277.92 -3.88612 -2.94673 0
M  V30 14285 H 1276.93 -5.36933 -1.18251 0
M  V30 14286 H 1278.15 -6.6156 -1.53347 0
M  V30 14287 H 1276.1 -5.5448 -3.50553 0
M  V30 14288 H 1276.02 -7.06797 -2.68281 0
M  V30 14289 H 1277.28 -6.7848 -3.83777 0
M  V30 14290 N 1281.51 0.0200419 -1.57587 0
M  V30 14291 C 1282.74 0.724241 -1.94344 0
M  V30 14292 C 1283.16 1.67612 -0.853688 0
M  V30 14293 O 1282.52 1.80303 0.189873 0
M  V30 14294 C 1282.57 1.44967 -3.30177 0
M  V30 14295 O 1281.67 2.56326 -3.23064 0
M  V30 14296 H 1281.01 0.194142 -0.634984 0
M  V30 14297 H 1283.54 -0.0271756 -2.04582 0
M  V30 14298 H 1283.55 1.81758 -3.65278 0
M  V30 14299 H 1282.23 0.75161 -4.09052 0
M  V30 14300 H 1280.81 2.22011 -2.99609 0
M  V30 14301 N 1282.99 1.54862 0.292472 0
M  V30 14302 C 1283.95 1.8565 1.34413 0
M  V30 14303 C 1284.95 0.729868 1.43281 0
M  V30 14304 O 1286.14 0.998128 1.42769 0
M  V30 14305 C 1283.28 2.0444 2.72795 0
M  V30 14306 H 1284.47 2.79642 1.08354 0
M  V30 14307 H 1282.02 1.47055 0.529574 0
M  V30 14308 H 1282.76 1.12765 3.04063 0
M  V30 14309 H 1282.54 2.86451 2.67747 0
M  V30 14310 H 1284.03 2.296 3.48817 0
M  V30 14311 N 1284.47 -0.556076 1.47464 0
M  V30 14312 C 1285.7 -1.33664 1.57536 0
M  V30 14313 C 1286.11 -1.87858 0.224977 0
M  V30 14314 O 1285.45 -1.65746 -0.792091 0
M  V30 14315 C 1285.51 -2.54257 2.54152 0
M  V30 14316 C 1285.18 -2.21342 3.99821 0
M  V30 14317 C 1286.17 -1.78568 4.88272 0
M  V30 14318 C 1283.86 -2.32666 4.45165 0
M  V30 14319 C 1285.85 -1.47549 6.20087 0
M  V30 14320 C 1283.54 -2.0126 5.77008 0
M  V30 14321 C 1284.54 -1.58769 6.6429 0
M  V30 14322 O 1284.22 -1.27762 7.93683 0
M  V30 14323 H 1283.96 -0.413721 0.534613 0
M  V30 14324 H 1286.51 -0.680342 1.93805 0
M  V30 14325 H 1284.74 -3.22782 2.12952 0
M  V30 14326 H 1286.43 -3.16332 2.5434 0
M  V30 14327 H 1287.2 -1.69311 4.54487 0
M  V30 14328 H 1283.07 -2.64698 3.77433 0
M  V30 14329 H 1286.62 -1.1431 6.88171 0
M  V30 14330 H 1282.52 -2.10149 6.10334 0
M  V30 14331 H 1283.28 -1.41383 8.06197 0
M  V30 14332 N 1285.95 -1.35615 -0.802897 0
M  V30 14333 C 1286.88 -1.24695 -1.92312 0
M  V30 14334 C 1287.89 -0.169409 -1.61916 0
M  V30 14335 O 1289.08 -0.422995 -1.73416 0
M  V30 14336 C 1286.18 -0.898229 -3.2678 0
M  V30 14337 C 1285.35 -2.07489 -3.85054 0
M  V30 14338 C 1284.41 -1.70137 -4.97936 0
M  V30 14339 O 1283.44 -2.42057 -5.15167 0
M  V30 14340 N 1284.64 -0.627153 -5.77102 0
M  V30 14341 H 1287.41 -2.21208 -2.02205 0
M  V30 14342 H 1284.97 -1.28832 -0.980503 0
M  V30 14343 H 1286.96 -0.629766 -3.9977 0
M  V30 14344 H 1285.53 -0.0226571 -3.12592 0
M  V30 14345 H 1284.75 -2.50694 -3.04214 0
M  V30 14346 H 1286.04 -2.86133 -4.2072 0
M  V30 14347 H 1285.44 -0.0296879 -5.65692 0
M  V30 14348 H 1283.99 -0.41848 -6.50455 0
M  V30 14349 N 1287.43 1.02549 -1.19673 0
M  V30 14350 C 1288.37 2.13015 -0.934209 0
M  V30 14351 C 1289.37 1.69035 0.111208 0
M  V30 14352 O 1290.57 1.79959 -0.0383449 0
M  V30 14353 H 1286.95 0.696015 -0.284722 0
M  V30 14354 H 1288.92 2.32346 -1.87238 0
M  V30 14355 C 1287.67 3.44185 -0.493124 0
M  V30 14356 H 1286.99 3.78447 -1.28911 0
M  V30 14357 H 1288.43 4.22565 -0.348577 0
M  V30 14358 C 1286.89 3.27427 0.793277 0
M  V30 14359 O 1287.42 3.56362 1.85388 0
M  V30 14360 N 1285.63 2.80706 0.751837 0
M  V30 14361 H 1285.17 2.57359 -0.111517 0
M  V30 14362 H 1285.13 2.69874 1.61292 0
M  V30 14363 N 1288.9 1.00119 1.21713 0
M  V30 14364 C 1289.83 0.578504 2.2622 0
M  V30 14365 C 1290.81 -0.398777 1.6536 0
M  V30 14366 O 1292 -0.287596 1.92059 0
M  V30 14367 C 1289.13 -0.0994508 3.47158 0
M  V30 14368 C 1288.08 0.79722 4.2051 0
M  V30 14369 C 1287.41 -0.0141125 5.34698 0
M  V30 14370 C 1288.71 2.09802 4.7831 0
M  V30 14371 H 1290.4 1.45208 2.6183 0
M  V30 14372 H 1287.95 0.699656 1.2586 0
M  V30 14373 H 1289.9 -0.406605 4.19434 0
M  V30 14374 H 1288.63 -1.00763 3.10667 0
M  V30 14375 H 1287.29 1.08814 3.50079 0
M  V30 14376 H 1286.93 -0.923468 4.9445 0
M  V30 14377 H 1286.63 0.582883 5.84702 0
M  V30 14378 H 1288.16 -0.31517 6.09786 0
M  V30 14379 H 1289.57 1.85427 5.42485 0
M  V30 14380 H 1287.97 2.64455 5.38687 0
M  V30 14381 H 1289.04 2.77132 3.97902 0
M  V30 14382 N 1290.38 -1.37203 0.775435 0
M  V30 14383 C 1291.31 -2.32819 0.17826 0
M  V30 14384 C 1292.29 -1.55963 -0.678944 0
M  V30 14385 O 1293.48 -1.84183 -0.615648 0
M  V30 14386 C 1290.61 -3.40198 -0.698768 0
M  V30 14387 C 1289.56 -4.27961 0.057423 0
M  V30 14388 C 1288.89 -5.26385 -0.93929 0
M  V30 14389 C 1290.19 -5.07402 1.23856 0
M  V30 14390 H 1291.88 -2.8301 0.977028 0
M  V30 14391 H 1289.43 -1.3607 0.471274 0
M  V30 14392 H 1291.38 -4.06067 -1.12637 0
M  V30 14393 H 1290.1 -2.88541 -1.53009 0
M  V30 14394 H 1288.76 -3.63628 0.465848 0
M  V30 14395 H 1288.41 -4.71007 -1.76527 0
M  V30 14396 H 1288.11 -5.85966 -0.437844 0
M  V30 14397 H 1289.64 -5.9513 -1.36576 0
M  V30 14398 H 1291.05 -5.6639 0.887423 0
M  V30 14399 H 1289.45 -5.76327 1.67234 0
M  V30 14400 H 1290.52 -4.3986 2.04085 0
M  V30 14401 N 1291.86 -0.526279 -1.48553 0
M  V30 14402 C 1292.79 0.275579 -2.27537 0
M  V30 14403 C 1293.8 0.90782 -1.35139 0
M  V30 14404 O 1294.99 0.786887 -1.6022 0
M  V30 14405 C 1292.09 1.40515 -3.08397 0
M  V30 14406 C 1291.27 0.875523 -4.28548 0
M  V30 14407 C 1290.33 1.88577 -4.91249 0
M  V30 14408 O 1289.35 1.44419 -5.50574 0
M  V30 14409 N 1290.55 3.21774 -4.83158 0
M  V30 14410 H 1293.32 -0.401803 -2.96994 0
M  V30 14411 H 1290.88 -0.360378 -1.57838 0
M  V30 14412 H 1292.87 2.07907 -3.47213 0
M  V30 14413 H 1291.44 1.98626 -2.41384 0
M  V30 14414 H 1290.66 0.025728 -3.94192 0
M  V30 14415 H 1291.95 0.500493 -5.06332 0
M  V30 14416 H 1291.35 3.60319 -4.36104 0
M  V30 14417 H 1289.9 3.84808 -5.26085 0
M  V30 14418 N 1293.34 1.5542 -0.261239 0
M  V30 14419 C 1294.28 2.21972 0.632216 0
M  V30 14420 C 1295.25 1.18843 1.16041 0
M  V30 14421 O 1296.44 1.47339 1.21226 0
M  V30 14422 C 1293.58 2.93397 1.81693 0
M  V30 14423 C 1292.69 4.11214 1.3239 0
M  V30 14424 C 1291.83 4.70318 2.46931 0
M  V30 14425 C 1290.87 5.80355 1.94561 0
M  V30 14426 N 1290 6.33581 3.02523 0
M  V30 14427 H 1294.84 2.97944 0.058018 0
M  V30 14428 H 1292.38 1.4709 0.0168725 0
M  V30 14429 H 1294.34 3.33015 2.5131 0
M  V30 14430 H 1292.97 2.19874 2.36337 0
M  V30 14431 H 1292.02 3.76811 0.521292 0
M  V30 14432 H 1293.33 4.90609 0.900214 0
M  V30 14433 H 1292.49 5.12584 3.24565 0
M  V30 14434 H 1291.23 3.90169 2.92608 0
M  V30 14435 H 1290.23 5.37552 1.15402 0
M  V30 14436 H 1291.46 6.62364 1.49836 0
M  V30 14437 H 1289.4 5.56332 3.47608 0
M  V30 14438 H 1289.32 7.08209 2.64529 0
M  V30 14439 H 1290.59 6.80506 3.80174 0
M  V30 14440 N 1294.82 -0.0116844 1.57596 0
M  V30 14441 C 1295.76 -1.00684 2.07681 0
M  V30 14442 C 1296.73 -1.34858 0.969666 0
M  V30 14443 O 1297.92 -1.44896 1.24136 0
M  V30 14444 C 1295.06 -2.29729 2.57524 0
M  V30 14445 C 1294.17 -2.0156 3.82096 0
M  V30 14446 C 1293.31 -3.24601 4.20485 0
M  V30 14447 C 1292.34 -2.92066 5.37925 0
M  V30 14448 N 1291.48 -4.0761 5.71663 0
M  V30 14449 H 1296.32 -0.572787 2.92443 0
M  V30 14450 H 1293.86 -0.271184 1.44579 0
M  V30 14451 H 1295.82 -3.05152 2.84496 0
M  V30 14452 H 1294.45 -2.70824 1.75653 0
M  V30 14453 H 1293.5 -1.16556 3.62103 0
M  V30 14454 H 1294.81 -1.73572 4.67626 0
M  V30 14455 H 1293.96 -4.08379 4.48677 0
M  V30 14456 H 1292.7 -3.55718 3.3364 0
M  V30 14457 H 1291.71 -2.06693 5.09468 0
M  V30 14458 H 1292.93 -2.62209 6.26437 0
M  V30 14459 H 1290.88 -4.38645 4.87777 0
M  V30 14460 H 1290.8 -3.83105 6.51741 0
M  V30 14461 H 1292.06 -4.92211 6.04441 0
M  V30 14462 N 1296.29 -1.55015 -0.284256 0
M  V30 14463 C 1297.24 -1.87898 -1.37102 0
M  V30 14464 C 1298.24 -0.754231 -1.51683 0
M  V30 14465 O 1299.44 -0.93844 -1.53601 0
M  V30 14466 H 1295.82 -0.596208 -0.458301 0
M  V30 14467 H 1297.79 -2.78704 -1.06613 0
M  V30 14468 C 1296.54 -2.15764 -2.72656 0
M  V30 14469 H 1295.86 -3.01792 -2.62224 0
M  V30 14470 H 1297.3 -2.42701 -3.47667 0
M  V30 14471 C 1295.76 -0.961561 -3.22886 0
M  V30 14472 O 1296.29 -0.190489 -4.01248 0
M  V30 14473 N 1294.49 -0.762338 -2.80422 0
M  V30 14474 H 1294.04 -1.39104 -2.16813 0
M  V30 14475 H 1294 0.0363482 -3.14379 0
M  V30 14476 N 1297.77 0.548248 -1.47757 0
M  V30 14477 C 1298.72 1.65453 -1.60916 0
M  V30 14478 C 1299.69 1.59836 -0.451831 0
M  V30 14479 O 1300.87 1.78536 -0.673023 0
M  V30 14480 C 1298.01 3.0376 -1.6378 0
M  V30 14481 C 1297.13 3.19747 -2.90492 0
M  V30 14482 C 1296.26 4.48505 -2.84635 0
M  V30 14483 C 1295.3 4.57956 -4.06132 0
M  V30 14484 N 1294.44 5.78079 -3.98458 0
M  V30 14485 H 1299.28 1.53545 -2.55398 0
M  V30 14486 H 1296.81 0.747826 -1.26673 0
M  V30 14487 H 1298.77 3.8386 -1.63424 0
M  V30 14488 H 1297.4 3.14483 -0.728036 0
M  V30 14489 H 1296.45 2.3302 -3.00676 0
M  V30 14490 H 1297.77 3.22594 -3.8044 0
M  V30 14491 H 1296.92 5.36875 -2.82577 0
M  V30 14492 H 1295.66 4.48151 -1.92385 0
M  V30 14493 H 1294.66 3.67995 -4.08484 0
M  V30 14494 H 1295.89 4.60062 -4.9952 0
M  V30 14495 H 1293.84 5.78657 -3.09017 0
M  V30 14496 H 1293.75 5.82342 -4.82093 0
M  V30 14497 H 1295.02 6.68786 -4.00431 0
M  V30 14498 N 1299.25 1.36039 0.795694 0
M  V30 14499 C 1300.66 1.2679 1.37044 0
M  V30 14500 C 1301.01 -0.0950192 1.9597 0
M  V30 14501 O 1300.14 -0.996311 1.921 0
M  V30 14502 C 1300.73 2.29585 2.49151 0
M  V30 14503 C 1299.29 2.24044 3.02458 0
M  V30 14504 C 1298.44 2.14703 1.75493 0
M  V30 14505 H 1301.39 1.47009 0.597843 0
M  V30 14506 H 1301.41 1.92864 3.27999 0
M  V30 14507 H 1300.92 3.28769 2.06234 0
M  V30 14508 H 1299.02 1.28307 3.49812 0
M  V30 14509 H 1299.14 3.1647 3.597 0
M  V30 14510 H 1297.5 1.60856 1.97478 0
M  V30 14511 H 1298.28 3.15765 1.34713 0
M  V30 14512 N 1300.73 -1.01913 1.20215 0
M  V30 14513 C 1301.68 -2.104 0.948708 0
M  V30 14514 C 1302.65 -1.65665 -0.120139 0
M  V30 14515 O 1303.83 -1.90785 0.0240547 0
M  V30 14516 C 1300.97 -3.41398 0.504132 0
M  V30 14517 C 1300.08 -3.99625 1.64085 0
M  V30 14518 C 1299.22 -5.18673 1.14683 0
M  V30 14519 C 1298.26 -5.68977 2.2568 0
M  V30 14520 N 1297.39 -6.79289 1.77514 0
M  V30 14521 H 1302.23 -2.31415 1.87753 0
M  V30 14522 H 1299.77 -1.13487 0.935901 0
M  V30 14523 H 1301.73 -4.16578 0.22771 0
M  V30 14524 H 1300.36 -3.20463 -0.387689 0
M  V30 14525 H 1299.41 -3.21565 2.03225 0
M  V30 14526 H 1300.72 -4.32965 2.47674 0
M  V30 14527 H 1299.88 -6.01048 0.826223 0
M  V30 14528 H 1298.62 -4.86891 0.280797 0
M  V30 14529 H 1297.62 -4.85208 2.5856 0
M  V30 14530 H 1298.85 -6.02794 3.12755 0
M  V30 14531 H 1296.79 -6.49341 0.932338 0
M  V30 14532 H 1296.71 -7.11808 2.54686 0
M  V30 14533 H 1297.98 -7.65235 1.48446 0
M  V30 14534 N 1302.21 -1.00763 -1.2118 0
M  V30 14535 C 1303.43 -0.710746 -1.94309 0
M  V30 14536 C 1303.85 0.727103 -1.74237 0
M  V30 14537 O 1303.21 1.49223 -1.05065 0
M  V30 14538 C 1303.26 -1.02562 -3.46646 0
M  V30 14539 O 1302.98 -2.40699 -3.66054 0
M  V30 14540 C 1304.48 -0.748517 -4.36935 0
M  V30 14541 H 1301.7 -0.26171 -0.617858 0
M  V30 14542 H 1304.24 -1.34639 -1.53924 0
M  V30 14543 H 1302.4 -0.435537 -3.84944 0
M  V30 14544 H 1302.81 -2.51764 -4.60125 0
M  V30 14545 H 1304.29 -1.01899 -5.42513 0
M  V30 14546 H 1304.76 0.317423 -4.38051 0
M  V30 14547 H 1305.37 -1.32033 -4.04286 0
M  V30 14548 N 1303.68 1.3679 -0.7827 0
M  V30 14549 C 1304.61 2.32721 -0.190604 0
M  V30 14550 C 1305.6 1.56321 0.670663 0
M  V30 14551 O 1306.78 1.84507 0.605871 0
M  V30 14552 C 1303.91 3.40564 0.680717 0
M  V30 14553 C 1302.86 4.27925 -0.080118 0
M  V30 14554 C 1302.19 5.26876 0.911361 0
M  V30 14555 C 1303.49 5.06738 -1.26545 0
M  V30 14556 H 1305.18 2.82488 -0.992023 0
M  V30 14557 H 1302.73 1.35818 -0.478484 0
M  V30 14558 H 1304.68 4.06659 1.10482 0
M  V30 14559 H 1303.41 2.89348 1.51477 0
M  V30 14560 H 1302.07 3.63376 -0.485125 0
M  V30 14561 H 1301.71 4.71936 1.74026 0
M  V30 14562 H 1301.41 5.8619 0.406762 0
M  V30 14563 H 1302.94 5.95846 1.33418 0
M  V30 14564 H 1304.35 5.65911 -0.917448 0
M  V30 14565 H 1302.75 5.75432 -1.70289 0
M  V30 14566 H 1303.82 4.38772 -2.06415 0
M  V30 14567 N 1305.16 0.53415 1.48272 0
M  V30 14568 C 1306.41 0.00157492 2.028 0
M  V30 14569 C 1306.74 -1.33538 1.41001 0
M  V30 14570 O 1306.02 -1.86347 0.557245 0
M  V30 14571 C 1306.3 -0.116016 3.59913 0
M  V30 14572 C 1306.15 1.2464 4.32186 0
M  V30 14573 C 1307.47 -0.840775 4.31994 0
M  V30 14574 H 1304.59 0.00204634 0.736997 0
M  V30 14575 H 1307.23 0.691985 1.76951 0
M  V30 14576 H 1305.38 -0.704027 3.82068 0
M  V30 14577 H 1307.05 1.87584 4.21438 0
M  V30 14578 H 1305.3 1.8272 3.93441 0
M  V30 14579 H 1305.97 1.11708 5.40579 0
M  V30 14580 H 1308.44 -0.341746 4.14694 0
M  V30 14581 H 1307.32 -0.89196 5.41604 0
M  V30 14582 H 1307.58 -1.89197 3.99571 0
M  V30 14583 N 1306.64 -1.55279 0.269478 0
M  V30 14584 C 1307.89 -1.98649 -0.349522 0
M  V30 14585 C 1308.2 -1.16125 -1.57399 0
M  V30 14586 O 1309.41 -1.49612 -2.26558 0
M  V30 14587 C 1307.86 -3.53547 -0.673224 0
M  V30 14588 C 1307.47 -4.44841 0.531119 0
M  V30 14589 C 1309.22 -4.05519 -1.25516 0
M  V30 14590 C 1307.12 -5.91119 0.182317 0
M  V30 14591 H 1306.05 -0.74193 -0.13437 0
M  V30 14592 H 1308.7 -1.79664 0.373246 0
M  V30 14593 H 1307.09 -3.68311 -1.45474 0
M  V30 14594 H 1308.26 -4.41843 1.3081 0
M  V30 14595 H 1306.58 -4.03472 1.02952 0
M  V30 14596 H 1309.17 -5.12347 -1.52984 0
M  V30 14597 H 1309.52 -3.54215 -2.18718 0
M  V30 14598 H 1310.05 -3.94172 -0.536059 0
M  V30 14599 H 1306.79 -6.46507 1.08206 0
M  V30 14600 H 1306.31 -5.97199 -0.558008 0
M  V30 14601 H 1307.99 -6.466 -0.227484 0
M  V30 14602 N 1308.12 0.00332656 -1.576 0
M  V30 14603 C 1309.07 1.01406 -2.09331 0
M  V30 14604 C 1310.06 1.35806 -1.01258 0
M  V30 14605 O 1311.27 1.34409 -1.19726 0
M  V30 14606 H 1307.64 0.344661 -0.668366 0
M  V30 14607 H 1309.61 0.552154 -2.93247 0
M  V30 14608 C 1308.36 2.29819 -2.60918 0
M  V30 14609 H 1307.68 2.04216 -3.43709 0
M  V30 14610 H 1309.12 2.98826 -3.00797 0
M  V30 14611 C 1307.58 3.0057 -1.52182 0
M  V30 14612 O 1308.11 3.91423 -0.902817 0
M  V30 14613 N 1306.32 2.62338 -1.25009 0
M  V30 14614 H 1305.87 1.88538 -1.75531 0
M  V30 14615 H 1305.82 3.0999 -0.524736 0
M  V30 14616 N 1309.6 1.55164 0.276031 0
M  V30 14617 C 1310.53 1.90844 1.34539 0
M  V30 14618 C 1311.51 0.769968 1.51676 0
M  V30 14619 O 1312.69 1.02785 1.64769 0
M  V30 14620 C 1309.82 2.17769 2.70543 0
M  V30 14621 C 1308.78 3.33592 2.68142 0
M  V30 14622 C 1308.1 3.45991 4.07669 0
M  V30 14623 C 1309.4 4.70064 2.27678 0
M  V30 14624 H 1311.1 2.80412 1.04926 0
M  V30 14625 H 1308.64 1.34918 0.503303 0
M  V30 14626 H 1310.6 2.41317 3.45462 0
M  V30 14627 H 1309.32 1.24997 3.01734 0
M  V30 14628 H 1307.98 3.10007 1.95681 0
M  V30 14629 H 1307.63 2.50691 4.36077 0
M  V30 14630 H 1307.33 4.23862 4.06958 0
M  V30 14631 H 1308.85 3.71828 4.84331 0
M  V30 14632 H 1310.26 4.93176 2.92319 0
M  V30 14633 H 1308.66 5.50829 2.38134 0
M  V30 14634 H 1309.73 4.69091 1.22808 0
M  V30 14635 N 1311.07 -0.540404 1.48045 0
M  V30 14636 C 1311.98 -1.67308 1.64455 0
M  V30 14637 C 1313 -1.65823 0.527152 0
M  V30 14638 O 1314.18 -1.84964 0.796881 0
M  V30 14639 C 1311.24 -3.03792 1.67068 0
M  V30 14640 C 1310.3 -3.16213 2.90358 0
M  V30 14641 C 1309.54 -4.46187 2.92837 0
M  V30 14642 O 1309.76 -5.32662 2.04029 0
M  V30 14643 O 1308.69 -4.62754 3.84892 0
M  V30 14644 H 1312.52 -1.56403 2.6033 0
M  V30 14645 H 1310.1 -0.712323 1.31325 0
M  V30 14646 H 1311.99 -3.84982 1.71368 0
M  V30 14647 H 1310.66 -3.15043 0.74363 0
M  V30 14648 H 1309.57 -2.34357 2.91595 0
M  V30 14649 H 1310.9 -3.09874 3.82412 0
M  V30 14650 N 1312.55 -1.36459 -0.788468 0
M  V30 14651 C 1313.78 -1.33703 -1.57502 0
M  V30 14652 C 1314.19 0.0834961 -1.89016 0
M  V30 14653 O 1313.53 1.05107 -1.50659 0
M  V30 14654 C 1313.6 -2.09424 -2.92201 0
M  V30 14655 C 1313.26 -3.58507 -2.83411 0
M  V30 14656 C 1314.26 -4.52736 -2.5559 0
M  V30 14657 C 1311.94 -4.01405 -3.01959 0
M  V30 14658 C 1313.94 -5.87841 -2.46419 0
M  V30 14659 C 1311.62 -5.366 -2.92409 0
M  V30 14660 C 1312.62 -6.29631 -2.64677 0
M  V30 14661 O 1312.31 -7.62343 -2.55124 0
M  V30 14662 H 1312.04 -0.460221 -0.495149 0
M  V30 14663 H 1314.59 -1.80163 -0.986437 0
M  V30 14664 H 1312.82 -1.5763 -3.53114 0
M  V30 14665 H 1314.51 -1.99515 -3.53481 0
M  V30 14666 H 1315.28 -4.20906 -2.40962 0
M  V30 14667 H 1311.16 -3.29367 -3.2255 0
M  V30 14668 H 1314.7 -6.60423 -2.24694 0
M  V30 14669 H 1310.6 -5.68038 -3.066 0
M  V30 14670 H 1311.37 -7.72476 -2.70598 0
M  V30 14671 N 1314.03 1.01274 -1.20754 0
M  V30 14672 C 1314.99 2.08056 -0.961528 0
M  V30 14673 C 1315.99 1.60671 0.0644461 0
M  V30 14674 O 1317.18 1.73349 -0.172022 0
M  V30 14675 C 1314.32 3.37938 -0.448381 0
M  V30 14676 H 1315.51 2.31314 -1.90877 0
M  V30 14677 H 1313.06 1.18133 -1.02344 0
M  V30 14678 H 1313.8 3.20357 0.504144 0
M  V30 14679 H 1313.58 3.73659 -1.18833 0
M  V30 14680 H 1315.07 4.16551 -0.295876 0
M  V30 14681 N 1315.51 1.01404 1.20644 0
M  V30 14682 C 1316.44 0.602465 2.25594 0
M  V30 14683 C 1317.42 -0.381216 1.65773 0
M  V30 14684 O 1318.61 -0.267209 1.92353 0
M  V30 14685 C 1315.74 -0.0626245 3.47244 0
M  V30 14686 C 1314.69 0.841776 4.1964 0
M  V30 14687 C 1314.02 0.0426002 5.34683 0
M  V30 14688 C 1315.32 2.14864 4.76058 0
M  V30 14689 H 1317.01 1.47977 2.60275 0
M  V30 14690 H 1314.56 0.712966 1.25111 0
M  V30 14691 H 1316.51 -0.362095 4.19841 0
M  V30 14692 H 1315.23 -0.974627 3.11719 0
M  V30 14693 H 1313.89 1.12521 3.48905 0
M  V30 14694 H 1313.54 -0.870973 4.95402 0
M  V30 14695 H 1313.24 0.644866 5.84051 0
M  V30 14696 H 1314.76 -0.250476 6.10086 0
M  V30 14697 H 1316.18 1.9117 5.40488 0
M  V30 14698 H 1314.57 2.70153 5.35852 0
M  V30 14699 H 1315.64 2.81336 3.9494 0
M  V30 14700 N 1316.99 -1.36373 0.789944 0
M  V30 14701 C 1318.4 -1.52471 0.471686 0
M  V30 14702 C 1318.6 -1.74365 -1.0099 0
M  V30 14703 O 1317.66 -1.77546 -1.79538 0
M  V30 14704 C 1318.97 -2.71022 1.30259 0
M  V30 14705 C 1320.52 -2.84893 1.29633 0
M  V30 14706 C 1321 -4.0645 2.11098 0
M  V30 14707 N 1322.49 -4.13597 2.08547 0
M  V30 14708 C 1323.22 -5.06731 2.6835 0
M  V30 14709 N 1322.72 -6.05305 3.37013 0
M  V30 14710 N 1324.51 -4.9935 2.58081 0
M  V30 14711 H 1316.66 -1.20416 1.74968 0
M  V30 14712 H 1318.92 -0.587782 0.743785 0
M  V30 14713 H 1318.63 -2.61368 2.35329 0
M  V30 14714 H 1318.5 -3.6519 0.944254 0
M  V30 14715 H 1320.89 -2.94009 0.253542 0
M  V30 14716 H 1320.97 -1.91632 1.69443 0
M  V30 14717 H 1320.62 -3.98096 3.15408 0
M  V30 14718 H 1320.55 -4.98861 1.68659 0
M  V30 14719 H 1323.04 -3.4302 1.58573 0
M  V30 14720 H 1323.35 -6.72934 3.79974 0
M  V30 14721 H 1321.7 -6.05529 3.41116 0
M  V30 14722 H 1324.89 -4.21291 2.04039 0
M  V30 14723 H 1325.06 -5.71745 3.04979 0
M  V30 14724 N 1318.47 -0.542005 -1.47987 0
M  V30 14725 C 1319.7 -0.0166928 -2.06593 0
M  V30 14726 C 1320.1 1.27564 -1.39728 0
M  V30 14727 O 1319.45 1.77245 -0.48268 0
M  V30 14728 C 1319.51 0.265501 -3.58518 0
M  V30 14729 C 1319.17 -0.935133 -4.4733 0
M  V30 14730 C 1320.17 -1.83673 -4.86375 0
M  V30 14731 C 1317.85 -1.14552 -4.89063 0
M  V30 14732 C 1319.85 -2.93252 -5.65935 0
M  V30 14733 C 1317.54 -2.24443 -5.68391 0
M  V30 14734 C 1318.53 -3.13625 -6.06736 0
M  V30 14735 O 1318.22 -4.21613 -6.84469 0
M  V30 14736 H 1317.95 -0.0358651 -0.675048 0
M  V30 14737 H 1320.51 -0.750565 -1.91195 0
M  V30 14738 H 1318.74 1.0535 -3.72073 0
M  V30 14739 H 1320.43 0.734348 -3.99202 0
M  V30 14740 H 1321.19 -1.68618 -4.54745 0
M  V30 14741 H 1317.07 -0.460598 -4.58693 0
M  V30 14742 H 1320.62 -3.62888 -5.95783 0
M  V30 14743 H 1316.51 -2.39477 -5.99434 0
M  V30 14744 H 1317.28 -4.19472 -7.02841 0
M  V30 14745 N 1319.94 1.55134 -0.277709 0
M  V30 14746 C 1320.88 2.18745 0.650058 0
M  V30 14747 C 1321.85 1.14922 1.15029 0
M  V30 14748 O 1323.04 1.43458 1.22278 0
M  V30 14749 C 1320.17 2.81277 1.88683 0
M  V30 14750 C 1319.21 3.98425 1.52185 0
M  V30 14751 S 1320.04 5.32153 0.597782 0
M  V30 14752 C 1321.2 5.98155 1.84287 0
M  V30 14753 H 1321.43 2.97098 0.109571 0
M  V30 14754 H 1318.97 1.54276 -0.0619536 0
M  V30 14755 H 1320.92 3.17934 2.59669 0
M  V30 14756 H 1319.59 2.02813 2.39845 0
M  V30 14757 H 1318.78 4.40877 2.4422 0
M  V30 14758 H 1318.38 3.63203 0.892146 0
M  V30 14759 H 1320.67 6.17546 2.78646 0
M  V30 14760 H 1321.62 6.92857 1.46131 0
M  V30 14761 H 1322.02 5.27541 2.00899 0
M  V30 14762 N 1321.42 0.00503138 1.57599 0
M  V30 14763 C 1322.37 -0.984754 2.08737 0
M  V30 14764 C 1323.34 -1.33822 0.983915 0
M  V30 14765 O 1324.52 -1.43572 1.25665 0
M  V30 14766 C 1321.66 -2.26984 2.59946 0
M  V30 14767 C 1320.78 -1.97496 3.84212 0
M  V30 14768 C 1319.91 -3.20123 4.23904 0
M  V30 14769 C 1318.95 -2.86344 5.40993 0
M  V30 14770 N 1318.09 -4.01524 5.75954 0
M  V30 14771 H 1322.93 -0.541737 2.93034 0
M  V30 14772 H 1320.46 -0.255834 1.44858 0
M  V30 14773 H 1322.42 -3.02117 2.87717 0
M  V30 14774 H 1321.05 -2.68946 1.78516 0
M  V30 14775 H 1320.1 -1.12709 3.63319 0
M  V30 14776 H 1321.42 -1.68602 4.69441 0
M  V30 14777 H 1320.57 -4.03598 4.52983 0
M  V30 14778 H 1319.31 -3.5216 3.37394 0
M  V30 14779 H 1318.31 -2.01278 5.11632 0
M  V30 14780 H 1319.54 -2.5555 6.29183 0
M  V30 14781 H 1317.49 -4.33447 4.92402 0
M  V30 14782 H 1317.4 -3.76171 6.55768 0
M  V30 14783 H 1318.67 -4.85772 6.09628 0
M  V30 14784 N 1322.9 -1.55308 -0.267798 0
M  V30 14785 C 1323.85 -1.89342 -1.35102 0
M  V30 14786 C 1324.84 -0.770277 -1.50874 0
M  V30 14787 O 1326.05 -0.954679 -1.52597 0
M  V30 14788 H 1322.42 -0.601036 -0.451952 0
M  V30 14789 H 1324.39 -2.7982 -1.03651 0
M  V30 14790 C 1323.14 -2.18644 -2.70352 0
M  V30 14791 H 1322.47 -3.04557 -2.59008 0
M  V30 14792 H 1323.91 -2.46374 -3.45073 0
M  V30 14793 C 1322.36 -0.995753 -3.21848 0
M  V30 14794 O 1322.89 -0.233037 -4.01023 0
M  V30 14795 N 1321.1 -0.792038 -2.79598 0
M  V30 14796 H 1320.65 -1.41396 -2.15325 0
M  V30 14797 H 1320.61 0.00300201 -3.144 0
M  V30 14798 N 1324.38 0.532545 -1.4833 0
M  V30 14799 C 1325.6 1.31809 -1.60129 0
M  V30 14800 C 1326.03 1.86283 -0.260807 0
M  V30 14801 O 1325.39 1.6427 0.767137 0
M  V30 14802 C 1325.43 2.44661 -2.64903 0
M  V30 14803 O 1324.54 3.47622 -2.21885 0
M  V30 14804 H 1323.88 0.390492 -0.53704 0
M  V30 14805 H 1326.41 0.641068 -1.94297 0
M  V30 14806 H 1326.42 2.90883 -2.86096 0
M  V30 14807 H 1325.09 2.04373 -3.62222 0
M  V30 14808 H 1323.67 3.07536 -2.10894 0
M  V30 14809 N 1325.86 1.36875 0.78122 0
M  V30 14810 C 1326.8 1.31941 1.91557 0
M  V30 14811 C 1327.8 0.209783 1.68096 0
M  V30 14812 O 1329 0.377266 1.76002 0
M  V30 14813 H 1325.38 0.410955 0.629778 0
M  V30 14814 H 1327.35 2.27721 1.92836 0
M  V30 14815 C 1326.1 1.13379 3.28695 0
M  V30 14816 H 1325.42 1.98013 3.47319 0
M  V30 14817 H 1326.86 1.13976 4.08394 0
M  V30 14818 C 1325.32 -0.161119 3.36515 0
M  V30 14819 O 1325.85 -1.14806 3.84945 0
M  V30 14820 N 1324.06 -0.208594 2.8985 0
M  V30 14821 H 1323.6 0.595187 2.5063 0
M  V30 14822 H 1323.56 -1.07465 2.95463 0
M  V30 14823 N 1327.33 -1.00632 1.21289 0
M  V30 14824 C 1328.56 -1.78503 1.05601 0
M  V30 14825 C 1328.98 -1.84015 -0.389879 0
M  V30 14826 O 1328.34 -1.28277 -1.2812 0
M  V30 14827 C 1328.39 -3.20313 1.65626 0
M  V30 14828 O 1327.49 -4.02441 0.900841 0
M  V30 14829 H 1326.83 -0.550183 0.371746 0
M  V30 14830 H 1329.36 -1.26505 1.60803 0
M  V30 14831 H 1329.37 -3.70992 1.69792 0
M  V30 14832 H 1328.05 -3.15616 2.7085 0
M  V30 14833 H 1326.63 -3.61009 0.934178 0
M  V30 14834 N 1328.81 -1.02043 -1.20104 0
M  V30 14835 C 1330.06 -0.710566 -1.89197 0
M  V30 14836 C 1330.38 0.762471 -1.79475 0
M  V30 14837 O 1329.65 1.54871 -1.19965 0
M  V30 14838 H 1328.23 -0.259839 -0.700352 0
M  V30 14839 H 1330.89 -1.29285 -1.45848 0
M  V30 14840 H 1329.99 -0.997363 -2.95735 0
M  V30 14841 N 1330.29 1.35952 -0.797165 0
M  V30 14842 C 1331.22 2.32506 -0.215277 0
M  V30 14843 C 1332.2 1.57023 0.654046 0
M  V30 14844 O 1333.39 1.85139 0.586268 0
M  V30 14845 C 1330.52 3.41266 0.644557 0
M  V30 14846 C 1329.47 4.27816 -0.125501 0
M  V30 14847 C 1328.8 5.27813 0.855428 0
M  V30 14848 C 1330.1 5.05367 -1.31913 0
M  V30 14849 H 1331.79 2.8142 -1.02193 0
M  V30 14850 H 1329.34 1.35303 -0.492862 0
M  V30 14851 H 1331.29 4.07808 1.06163 0
M  V30 14852 H 1330.01 2.90938 1.484 0
M  V30 14853 H 1328.67 3.62841 -0.523639 0
M  V30 14854 H 1328.32 4.73755 1.69011 0
M  V30 14855 H 1328.02 5.86589 0.344566 0
M  V30 14856 H 1329.54 5.97227 1.2709 0
M  V30 14857 H 1330.96 5.64907 -0.977418 0
M  V30 14858 H 1329.36 5.73593 -1.76382 0
M  V30 14859 H 1330.43 4.36558 -2.11057 0
M  V30 14860 N 1331.77 0.549846 1.47697 0
M  V30 14861 C 1333.01 0.0230845 2.02787 0
M  V30 14862 C 1333.35 -1.32035 1.42409 0
M  V30 14863 O 1332.62 -1.85745 0.576978 0
M  V30 14864 C 1332.91 -0.0778363 3.60016 0
M  V30 14865 C 1332.76 1.29217 4.3084 0
M  V30 14866 C 1334.08 -0.794909 4.32862 0
M  V30 14867 H 1331.2 0.00986307 0.736934 0
M  V30 14868 H 1333.84 0.710714 1.76207 0
M  V30 14869 H 1331.99 -0.663464 3.82793 0
M  V30 14870 H 1333.66 1.92044 4.19424 0
M  V30 14871 H 1331.9 1.86883 3.91481 0
M  V30 14872 H 1332.57 1.17435 5.39364 0
M  V30 14873 H 1335.05 -0.297743 4.15033 0
M  V30 14874 H 1333.93 -0.834466 5.4252 0
M  V30 14875 H 1334.19 -1.84948 4.01555 0
M  V30 14876 N 1333.25 -1.54984 0.285932 0
M  V30 14877 C 1334.47 -2.04699 -0.333621 0
M  V30 14878 C 1334.9 -1.16252 -1.47875 0
M  V30 14879 O 1334.25 -0.163376 -1.80562 0
M  V30 14880 C 1334.3 -3.52022 -0.78187 0
M  V30 14881 O 1333.41 -3.66639 -1.88812 0
M  V30 14882 H 1332.75 -0.660579 -0.0673203 0
M  V30 14883 H 1335.28 -2.00171 0.423386 0
M  V30 14884 H 1335.29 -3.93591 -1.07473 0
M  V30 14885 H 1333.96 -4.15862 0.055893 0
M  V30 14886 H 1332.54 -3.36974 -1.59696 0
M  V30 14887 N 1334.72 -0.0133892 -1.57594 0
M  V30 14888 C 1335.97 0.667896 -1.90321 0
M  V30 14889 C 1336.29 1.74187 -0.88984 0
M  V30 14890 O 1337.49 2.47871 -1.10779 0
M  V30 14891 C 1335.95 1.23917 -3.37894 0
M  V30 14892 C 1335.56 0.199313 -4.47556 0
M  V30 14893 C 1337.3 1.89788 -3.79712 0
M  V30 14894 C 1335.21 0.781339 -5.86216 0
M  V30 14895 H 1334.14 0.253229 -0.710205 0
M  V30 14896 H 1336.79 -0.0761229 -1.83342 0
M  V30 14897 H 1335.17 2.03429 -3.39754 0
M  V30 14898 H 1336.34 -0.572196 -4.57234 0
M  V30 14899 H 1334.66 -0.359719 -4.14843 0
M  V30 14900 H 1337.26 2.34262 -4.80651 0
M  V30 14901 H 1337.6 2.73406 -3.13934 0
M  V30 14902 H 1338.13 1.16989 -3.80208 0
M  V30 14903 H 1334.87 -0.0163598 -6.55498 0
M  V30 14904 H 1334.39 1.5217 -5.80176 0
M  V30 14905 H 1336.07 1.2759 -6.34295 0
M  V30 14906 N 1336.2 1.55448 0.259558 0
M  V30 14907 C 1337.45 1.76337 0.987396 0
M  V30 14908 C 1337.77 0.57505 1.86328 0
M  V30 14909 O 1337.04 -0.409621 1.9157 0
M  V30 14910 H 1335.62 0.650312 0.367565 0
M  V30 14911 H 1338.28 1.9287 0.280551 0
M  V30 14912 H 1337.38 2.66975 1.61651 0
M  V30 14913 N 1337.68 -0.524672 1.4861 0
M  V30 14914 C 1338.61 -1.64481 1.59621 0
M  V30 14915 C 1339.63 -1.55557 0.480181 0
M  V30 14916 O 1340.81 -1.61921 0.751254 0
M  V30 14917 C 1337.91 -3.03158 1.51487 0
M  V30 14918 C 1337.09 -3.37509 2.78221 0
M  V30 14919 C 1336.15 -4.5549 2.63467 0
M  V30 14920 O 1335.17 -4.58448 3.37364 0
M  V30 14921 N 1336.37 -5.53986 1.73437 0
M  V30 14922 H 1339.14 -1.5547 2.56221 0
M  V30 14923 H 1336.7 -0.712059 1.45401 0
M  V30 14924 H 1338.69 -3.79969 1.39305 0
M  V30 14925 H 1337.26 -3.06219 0.628406 0
M  V30 14926 H 1336.48 -2.49824 3.04929 0
M  V30 14927 H 1337.77 -3.57246 3.62288 0
M  V30 14928 H 1337.17 -5.54378 1.12612 0
M  V30 14929 H 1335.73 -6.29993 1.6719 0
M  V30 14930 N 1339.16 -1.37287 -0.77395 0
M  V30 14931 C 1340.09 -1.28746 -1.89624 0
M  V30 14932 C 1341.1 -0.203715 -1.6152 0
M  V30 14933 O 1342.29 -0.459684 -1.72479 0
M  V30 14934 C 1339.39 -0.967342 -3.24801 0
M  V30 14935 C 1338.57 -2.1561 -3.80567 0
M  V30 14936 C 1337.62 -1.80661 -4.94215 0
M  V30 14937 O 1336.65 -2.5293 -5.09917 0
M  V30 14938 N 1337.85 -0.749424 -5.75642 0
M  V30 14939 H 1340.62 -2.25447 -1.97468 0
M  V30 14940 H 1338.18 -1.30883 -0.952956 0
M  V30 14941 H 1340.17 -0.714421 -3.98344 0
M  V30 14942 H 1338.74 -0.0889573 -3.12473 0
M  V30 14943 H 1337.96 -2.57091 -2.98828 0
M  V30 14944 H 1339.25 -2.94993 -4.14556 0
M  V30 14945 H 1338.65 -0.149673 -5.65502 0
M  V30 14946 H 1337.2 -0.556358 -6.49421 0
M  V30 14947 N 1340.64 0.999871 -1.21821 0
M  V30 14948 C 1341.55 2.12303 -0.99823 0
M  V30 14949 C 1342.56 1.73924 0.0512923 0
M  V30 14950 O 1343.74 2.00914 -0.139895 0
M  V30 14951 C 1340.8 3.41962 -0.571232 0
M  V30 14952 C 1339.86 3.94483 -1.69356 0
M  V30 14953 C 1339.1 5.17954 -1.28685 0
M  V30 14954 O 1339.32 5.70168 -0.162641 0
M  V30 14955 O 1338.25 5.64051 -2.10071 0
M  V30 14956 H 1342.08 2.3374 -1.93905 0
M  V30 14957 H 1339.67 1.10677 -1.00354 0
M  V30 14958 H 1341.55 4.20001 -0.343134 0
M  V30 14959 H 1340.22 3.21901 0.340814 0
M  V30 14960 H 1339.13 3.17648 -1.97612 0
M  V30 14961 H 1340.46 4.18964 -2.58322 0
M  V30 14962 N 1342.11 1.02678 1.19562 0
M  V30 14963 C 1343.04 0.626359 2.24942 0
M  V30 14964 C 1344.03 -0.363612 1.66168 0
M  V30 14965 O 1345.21 -0.246793 1.92625 0
M  V30 14966 C 1342.34 -0.0257912 3.4729 0
M  V30 14967 C 1341.29 0.886237 4.18724 0
M  V30 14968 C 1340.62 0.0993081 5.34608 0
M  V30 14969 C 1341.92 2.19901 4.73752 0
M  V30 14970 H 1343.61 1.50729 2.58691 0
M  V30 14971 H 1341.16 0.726195 1.24348 0
M  V30 14972 H 1343.11 -0.317545 4.20202 0
M  V30 14973 H 1341.84 -0.941511 3.12735 0
M  V30 14974 H 1340.5 1.16215 3.47692 0
M  V30 14975 H 1340.14 -0.81838 4.96298 0
M  V30 14976 H 1339.84 0.706776 5.83334 0
M  V30 14977 H 1341.37 -0.185754 6.10317 0
M  V30 14978 H 1342.78 1.96892 5.3843 0
M  V30 14979 H 1341.18 2.75821 5.32956 0
M  V30 14980 H 1342.25 2.85509 3.91934 0
M  V30 14981 N 1343.59 -1.35528 0.804364 0
M  V30 14982 C 1344.84 -1.98084 0.380196 0
M  V30 14983 C 1345.15 -1.64531 -1.05778 0
M  V30 14984 O 1346.36 -2.20435 -1.58495 0
M  V30 14985 C 1344.82 -3.54364 0.628848 0
M  V30 14986 C 1344.42 -3.96828 2.07921 0
M  V30 14987 C 1346.17 -4.23641 0.269927 0
M  V30 14988 C 1344.08 -5.45944 2.27374 0
M  V30 14989 H 1343.01 -0.741185 0.138422 0
M  V30 14990 H 1345.66 -1.54624 0.988107 0
M  V30 14991 H 1344.04 -3.9597 -0.0489837 0
M  V30 14992 H 1345.21 -3.6638 2.79467 0
M  V30 14993 H 1343.53 -3.40433 2.39779 0
M  V30 14994 H 1346.12 -5.33251 0.393344 0
M  V30 14995 H 1346.47 -4.08858 -0.783644 0
M  V30 14996 H 1347 -3.87448 0.901588 0
M  V30 14997 H 1343.74 -5.65693 3.31168 0
M  V30 14998 H 1343.26 -5.77969 1.6035 0
M  V30 14999 H 1344.94 -6.12376 2.08817 0
M  V30 15000 N 1345.07 -0.557671 -1.47404 0
M  V30 15001 C 1346 0.178019 -2.3282 0
M  V30 15002 C 1346.98 0.908318 -1.43818 0
M  V30 15003 O 1348.17 0.888693 -1.72673 0
M  V30 15004 C 1345.3 1.2082 -3.25607 0
M  V30 15005 C 1344.25 0.594335 -4.23853 0
M  V30 15006 C 1343.58 1.72919 -5.05968 0
M  V30 15007 C 1344.88 -0.452196 -5.20339 0
M  V30 15008 H 1346.57 -0.535091 -2.9458 0
M  V30 15009 H 1344.12 -0.258775 -1.41656 0
M  V30 15010 H 1346.07 1.73104 -3.84204 0
M  V30 15011 H 1344.79 1.95126 -2.61903 0
M  V30 15012 H 1343.45 0.0927898 -3.66483 0
M  V30 15013 H 1343.1 2.4613 -4.38668 0
M  V30 15014 H 1342.8 1.32422 -5.72484 0
M  V30 15015 H 1344.33 2.25527 -5.67424 0
M  V30 15016 H 1345.74 -0.0154011 -5.73298 0
M  V30 15017 H 1344.14 -0.776068 -5.95061 0
M  V30 15018 H 1345.21 -1.34791 -4.65789 0
M  V30 15019 N 1346.55 1.54831 -0.294147 0
M  V30 15020 C 1347.5 2.23263 0.58499 0
M  V30 15021 C 1348.47 1.21278 1.13494 0
M  V30 15022 O 1349.65 1.49878 1.18073 0
M  V30 15023 C 1346.79 2.97185 1.75429 0
M  V30 15024 C 1345.9 4.1393 1.23638 0
M  V30 15025 C 1345.04 4.7545 2.36899 0
M  V30 15026 C 1344.08 5.84352 1.82207 0
M  V30 15027 N 1343.22 6.39855 2.89015 0
M  V30 15028 H 1348.06 2.98 -0.00519329 0
M  V30 15029 H 1345.59 1.47093 -0.0143313 0
M  V30 15030 H 1347.55 3.38271 2.4419 0
M  V30 15031 H 1346.18 2.24837 2.3162 0
M  V30 15032 H 1345.23 3.77832 0.441247 0
M  V30 15033 H 1346.54 4.92409 0.795946 0
M  V30 15034 H 1345.7 5.19353 3.1362 0
M  V30 15035 H 1344.44 3.96288 2.84266 0
M  V30 15036 H 1343.44 5.39879 1.03974 0
M  V30 15037 H 1344.67 6.65393 1.35753 0
M  V30 15038 H 1342.61 5.6358 3.35729 0
M  V30 15039 H 1342.53 7.13661 2.49447 0
M  V30 15040 H 1343.8 6.88417 3.65654 0
M  V30 15041 N 1348.03 0.0217466 1.57585 0
M  V30 15042 C 1348.96 -0.961069 2.12804 0
M  V30 15043 C 1349.94 -1.3442 1.04237 0
M  V30 15044 O 1351.12 -1.42412 1.32032 0
M  V30 15045 C 1348.25 -2.24586 2.64912 0
M  V30 15046 C 1347.21 -2.0037 3.78201 0
M  V30 15047 C 1346.53 -3.35051 4.16708 0
M  V30 15048 C 1347.83 -1.34879 5.04584 0
M  V30 15049 H 1349.53 -0.501222 2.95175 0
M  V30 15050 H 1347.07 -0.239649 1.41992 0
M  V30 15051 H 1349.03 -2.93715 3.02175 0
M  V30 15052 H 1347.75 -2.72723 1.79693 0
M  V30 15053 H 1346.41 -1.33662 3.41365 0
M  V30 15054 H 1346.06 -3.80932 3.28481 0
M  V30 15055 H 1345.76 -3.19656 4.93045 0
M  V30 15056 H 1347.28 -4.05459 4.56547 0
M  V30 15057 H 1348.7 -1.93997 5.3948 0
M  V30 15058 H 1347.09 -1.29906 5.85871 0
M  V30 15059 H 1348.16 -0.320774 4.83838 0
M  V30 15060 N 1349.51 -1.55583 -0.251311 0
M  V30 15061 C 1350.75 -1.76411 -0.977859 0
M  V30 15062 C 1351.07 -0.584857 -1.86651 0
M  V30 15063 O 1352.27 -0.676046 -2.62948 0
M  V30 15064 C 1350.73 -3.12302 -1.78872 0
M  V30 15065 C 1350.34 -4.37862 -0.947674 0
M  V30 15066 C 1352.08 -3.42471 -2.50827 0
M  V30 15067 C 1349.99 -5.64786 -1.75417 0
M  V30 15068 H 1348.92 -0.657628 -0.368839 0
M  V30 15069 H 1351.57 -1.82019 -0.232682 0
M  V30 15070 H 1349.95 -3.0079 -2.57569 0
M  V30 15071 H 1351.13 -4.60351 -0.203352 0
M  V30 15072 H 1349.44 -4.14996 -0.341666 0
M  V30 15073 H 1352.04 -4.34514 -3.11612 0
M  V30 15074 H 1352.38 -2.63592 -3.22219 0
M  V30 15075 H 1352.91 -3.55179 -1.79145 0
M  V30 15076 H 1349.65 -6.46474 -1.08407 0
M  V30 15077 H 1349.17 -5.46405 -2.47389 0
M  V30 15078 H 1350.85 -6.03881 -2.32242 0
M  V30 15079 N 1350.98 0.516783 -1.48886 0
M  V30 15080 C 1351.89 1.6467 -1.67095 0
M  V30 15081 C 1352.91 1.64963 -0.553466 0
M  V30 15082 O 1354.09 1.83673 -0.826206 0
M  V30 15083 C 1351.15 3.01095 -1.71879 0
M  V30 15084 C 1350.21 3.11554 -2.95352 0
M  V30 15085 C 1349.44 4.41471 -2.99898 0
M  V30 15086 O 1349.67 5.29348 -2.12477 0
M  V30 15087 O 1348.6 4.56573 -3.92205 0
M  V30 15088 H 1352.43 1.52242 -2.62785 0
M  V30 15089 H 1350.01 0.69134 -1.32442 0
M  V30 15090 H 1351.89 3.82207 -1.77471 0
M  V30 15091 H 1350.57 3.1382 -0.793656 0
M  V30 15092 H 1349.48 2.29689 -2.95286 0
M  V30 15093 H 1350.81 3.03751 -3.87294 0
M  V30 15094 N 1352.46 1.37696 0.766659 0
M  V30 15095 C 1353.41 1.33966 1.90147 0
M  V30 15096 C 1354.4 0.2276 1.67864 0
M  V30 15097 O 1355.61 0.395912 1.75592 0
M  V30 15098 H 1351.98 0.417611 0.625384 0
M  V30 15099 H 1353.96 2.29753 1.9041 0
M  V30 15100 C 1352.7 1.16859 3.27474 0
M  V30 15101 H 1352.03 2.01686 3.452 0
M  V30 15102 H 1353.47 1.18301 4.07162 0
M  V30 15103 C 1351.93 -0.125418 3.36666 0
M  V30 15104 O 1352.46 -1.10717 3.86141 0
M  V30 15105 N 1350.66 -0.17784 2.90055 0
M  V30 15106 H 1350.21 0.621737 2.49984 0
M  V30 15107 H 1350.17 -1.04325 2.96587 0
M  V30 15108 N 1353.94 -0.993397 1.22349 0
M  V30 15109 C 1354.89 -2.0834 0.993123 0
M  V30 15110 C 1355.86 -1.65883 -0.0849717 0
M  V30 15111 O 1357.04 -1.90691 0.0645176 0
M  V30 15112 C 1354.18 -3.40252 0.576434 0
M  V30 15113 C 1353.29 -3.96055 1.72524 0
M  V30 15114 C 1352.43 -5.16123 1.25659 0
M  V30 15115 C 1351.47 -5.64062 2.37698 0
M  V30 15116 N 1350.61 -6.7537 1.91883 0
M  V30 15117 H 1355.45 -2.27381 1.92619 0
M  V30 15118 H 1352.98 -1.11476 0.959763 0
M  V30 15119 H 1354.94 -4.16001 0.316021 0
M  V30 15120 H 1353.57 -3.21214 -0.319626 0
M  V30 15121 H 1352.62 -3.17182 2.1 0
M  V30 15122 H 1353.93 -4.27614 2.56802 0
M  V30 15123 H 1353.09 -5.9916 0.953528 0
M  V30 15124 H 1351.83 -4.86186 0.384011 0
M  V30 15125 H 1350.83 -4.79614 2.68794 0
M  V30 15126 H 1352.06 -5.96025 3.25471 0
M  V30 15127 H 1350 -6.47217 1.06986 0
M  V30 15128 H 1349.92 -7.06246 2.69727 0
M  V30 15129 H 1351.19 -7.61914 1.64644 0
M  V30 15130 N 1355.42 -1.03311 -1.19015 0
M  V30 15131 C 1356.37 -0.611169 -2.24427 0
M  V30 15132 C 1357.36 0.358303 -1.65567 0
M  V30 15133 O 1358.57 0.22642 -1.7857 0
M  V30 15134 H 1354.94 -0.179393 -0.730289 0
M  V30 15135 H 1356.91 -1.51077 -2.57329 0
M  V30 15136 C 1355.66 0.0178126 -3.47695 0
M  V30 15137 H 1354.98 -0.71921 -3.93278 0
M  V30 15138 H 1356.42 0.275926 -4.23101 0
M  V30 15139 C 1354.88 1.26564 -3.12223 0
M  V30 15140 O 1355.41 2.35725 -3.25264 0
M  V30 15141 N 1353.62 1.15602 -2.66617 0
M  V30 15142 H 1353.17 0.267736 -2.56205 0
M  V30 15143 H 1353.12 1.99186 -2.43254 0
M  V30 15144 N 1356.9 1.35099 -0.81154 0
M  V30 15145 C 1357.84 2.31618 -0.213536 0
M  V30 15146 C 1358.84 1.56868 0.63944 0
M  V30 15147 O 1360.04 1.71957 0.532051 0
M  V30 15148 H 1356.42 0.750316 -0.0502963 0
M  V30 15149 H 1358.39 2.79593 -1.04262 0
M  V30 15150 C 1357.14 3.4214 0.619293 0
M  V30 15151 H 1356.46 3.9979 -0.0277192 0
M  V30 15152 H 1357.9 4.11941 1.00401 0
M  V30 15153 C 1356.36 2.85607 1.7869 0
M  V30 15154 O 1356.89 2.7956 2.8846 0
M  V30 15155 N 1355.1 2.42587 1.6 0
M  V30 15156 H 1354.64 2.47705 0.707105 0
M  V30 15157 H 1354.6 2.0511 2.38279 0
M  V30 15158 N 1358.37 0.56548 1.47106 0
M  V30 15159 C 1359.3 -0.16567 2.32912 0
M  V30 15160 C 1360.28 -0.900678 1.44298 0
M  V30 15161 O 1361.47 -0.879523 1.73142 0
M  V30 15162 C 1358.6 -1.19092 3.26243 0
M  V30 15163 C 1357.55 -0.571849 4.24163 0
M  V30 15164 C 1356.88 -1.70233 5.06878 0
M  V30 15165 C 1358.18 0.479785 5.20092 0
M  V30 15166 H 1359.87 0.550705 2.94292 0
M  V30 15167 H 1357.42 0.266284 1.41517 0
M  V30 15168 H 1359.37 -1.71064 3.85117 0
M  V30 15169 H 1358.1 -1.93734 2.62934 0
M  V30 15170 H 1356.76 -0.073353 3.66527 0
M  V30 15171 H 1356.4 -2.438 4.39967 0
M  V30 15172 H 1356.1 -1.29384 5.73178 0
M  V30 15173 H 1357.63 -2.22515 5.68612 0
M  V30 15174 H 1359.04 0.0458042 5.73282 0
M  V30 15175 H 1357.44 0.807615 5.94641 0
M  V30 15176 H 1358.51 1.37259 4.65068 0
M  V30 15177 N 1359.85 -1.54672 0.302354 0
M  V30 15178 C 1360.78 -2.2653 -0.566265 0
M  V30 15179 C 1361.76 -1.26532 -1.13682 0
M  V30 15180 O 1362.95 -1.55307 -1.1659 0
M  V30 15181 C 1360.08 -3.00709 -1.73757 0
M  V30 15182 C 1359.03 -4.07865 -1.29731 0
M  V30 15183 C 1358.36 -4.69767 -2.55388 0
M  V30 15184 C 1359.66 -5.20547 -0.427567 0
M  V30 15185 H 1361.35 -2.99382 0.033071 0
M  V30 15186 H 1358.9 -1.4399 0.0173458 0
M  V30 15187 H 1360.85 -3.497 -2.35134 0
M  V30 15188 H 1359.58 -2.25437 -2.36317 0
M  V30 15189 H 1358.23 -3.59726 -0.706586 0
M  V30 15190 H 1357.88 -3.91134 -3.16265 0
M  V30 15191 H 1357.58 -5.42137 -2.26631 0
M  V30 15192 H 1359.11 -5.21521 -3.17566 0
M  V30 15193 H 1360.52 -5.65424 -0.947053 0
M  V30 15194 H 1358.92 -5.99645 -0.233704 0
M  V30 15195 H 1359.99 -4.81805 0.546993 0
M  V30 15196 N 1361.33 -0.0301034 -1.57571 0
M  V30 15197 C 1362.61 0.68703 -1.83137 0
M  V30 15198 C 1362.99 1.90277 -0.914216 0
M  V30 15199 O 1362.34 2.2848 0.0299358 0
M  V30 15200 C 1362.55 1.06431 -3.32375 0
M  V30 15201 C 1363.89 1.45554 -3.98873 0
M  V30 15202 O 1364.92 1.15727 -3.36877 0
M  V30 15203 O 1363.78 2.01133 -5.08142 0
M  V30 15204 H 1360.87 0.337141 -0.755159 0
M  V30 15205 H 1363.42 -0.0578604 -1.69601 0
M  V30 15206 H 1362.19 0.199077 -3.90793 0
M  V30 15207 H 1361.81 1.86734 -3.51022 0
M  V30 15208 N 1362.81 1.55714 0.243056 0
M  V30 15209 C 1364.05 1.77989 0.971993 0
M  V30 15210 C 1364.39 0.596038 1.84827 0
M  V30 15211 O 1363.66 -0.40554 1.90225 0
M  V30 15212 C 1363.95 3.10178 1.82925 0
M  V30 15213 C 1363.8 4.38974 0.9809 0
M  V30 15214 C 1365.12 3.38628 2.81103 0
M  V30 15215 H 1362.24 0.64754 0.35194 0
M  V30 15216 H 1364.88 1.88449 0.242237 0
M  V30 15217 H 1363.03 3.01392 2.45143 0
M  V30 15218 H 1364.7 4.59756 0.377113 0
M  V30 15219 H 1362.94 4.3286 0.285414 0
M  V30 15220 H 1363.61 5.27858 1.61461 0
M  V30 15221 H 1366.09 3.47403 2.29021 0
M  V30 15222 H 1364.97 4.32331 3.38203 0
M  V30 15223 H 1365.23 2.5973 3.57761 0
M  V30 15224 N 1364.29 -0.50888 1.49158 0
M  V30 15225 C 1365.52 -1.28585 1.61708 0
M  V30 15226 C 1365.92 -1.87047 0.284629 0
M  V30 15227 O 1365.27 -1.68182 -0.738959 0
M  V30 15228 C 1365.33 -2.46043 2.62113 0
M  V30 15229 C 1364.99 -2.0851 4.0666 0
M  V30 15230 C 1365.99 -1.62943 4.93706 0
M  V30 15231 C 1363.68 -2.18386 4.52342 0
M  V30 15232 C 1365.67 -1.27747 6.24467 0
M  V30 15233 C 1363.36 -1.82801 5.83118 0
M  V30 15234 C 1364.35 -1.37555 6.69005 0
M  V30 15235 O 1364.04 -1.02447 7.97345 0
M  V30 15236 H 1363.77 -0.396504 0.547504 0
M  V30 15237 H 1366.33 -0.61834 1.95872 0
M  V30 15238 H 1364.56 -3.15844 2.23113 0
M  V30 15239 H 1366.25 -3.08081 2.64275 0
M  V30 15240 H 1367.01 -1.54766 4.59644 0
M  V30 15241 H 1362.89 -2.52556 3.85664 0
M  V30 15242 H 1366.44 -0.923589 6.91459 0
M  V30 15243 H 1362.33 -1.90626 6.16711 0
M  V30 15244 H 1363.1 -1.15663 8.10287 0
M  V30 15245 N 1365.76 -1.381 -0.759346 0
M  V30 15246 C 1366.71 -1.34972 -1.89434 0
M  V30 15247 C 1367.71 -0.236499 -1.67741 0
M  V30 15248 O 1368.91 -0.405218 -1.7538 0
M  V30 15249 H 1365.29 -0.420922 -0.62316 0
M  V30 15250 H 1367.26 -2.3076 -1.89189 0
M  V30 15251 C 1366.01 -1.18594 -3.2685 0
M  V30 15252 H 1365.33 -2.03514 -3.44125 0
M  V30 15253 H 1366.77 -1.20458 -4.06529 0
M  V30 15254 C 1365.23 0.107562 -3.36728 0
M  V30 15255 O 1365.76 1.08668 -3.86722 0
M  V30 15256 N 1363.97 0.162455 -2.90146 0
M  V30 15257 H 1363.51 -0.634985 -2.49651 0
M  V30 15258 H 1363.47 1.02751 -2.97136 0
M  V30 15259 N 1367.24 0.986894 -1.22875 0
M  V30 15260 C 1368.19 2.07811 -1.00416 0
M  V30 15261 C 1369.16 1.65925 0.0761734 0
M  V30 15262 O 1370.34 1.90654 -0.0746294 0
M  V30 15263 C 1367.48 3.39941 -0.594471 0
M  V30 15264 C 1366.6 3.95134 -1.74622 0
M  V30 15265 C 1365.73 5.1545 -1.28394 0
M  V30 15266 C 1364.77 5.62794 -2.40686 0
M  V30 15267 N 1363.91 6.74343 -1.95462 0
M  V30 15268 H 1368.75 2.26356 -1.93822 0
M  V30 15269 H 1366.29 1.10966 -0.965661 0
M  V30 15270 H 1368.24 4.15828 -0.338078 0
M  V30 15271 H 1366.87 3.21379 0.302587 0
M  V30 15272 H 1365.93 3.16064 -2.11679 0
M  V30 15273 H 1367.24 4.26247 -2.59066 0
M  V30 15274 H 1366.39 5.98646 -0.98529 0
M  V30 15275 H 1365.13 4.85975 -0.409789 0
M  V30 15276 H 1364.14 4.78182 -2.71333 0
M  V30 15277 H 1365.36 5.9429 -3.28627 0
M  V30 15278 H 1363.31 6.46641 -1.10417 0
M  V30 15279 H 1363.22 7.04806 -2.73469 0
M  V30 15280 H 1364.49 7.6103 -1.68683 0
M  V30 15281 N 1368.72 1.0394 1.18466 0
M  V30 15282 C 1369.65 0.650182 2.24265 0
M  V30 15283 C 1370.63 -0.345968 1.66545 0
M  V30 15284 O 1371.82 -0.226348 1.92876 0
M  V30 15285 C 1368.95 0.0110451 3.47298 0
M  V30 15286 C 1367.9 0.930599 4.17761 0
M  V30 15287 C 1367.23 0.156005 5.34472 0
M  V30 15288 C 1368.53 2.24913 4.71393 0
M  V30 15289 H 1370.22 1.53465 2.57078 0
M  V30 15290 H 1367.77 0.739343 1.23571 0
M  V30 15291 H 1369.72 -0.272959 4.20515 0
M  V30 15292 H 1368.44 -0.908288 3.13716 0
M  V30 15293 H 1367.1 1.19897 3.4644 0
M  V30 15294 H 1366.75 -0.765695 4.97138 0
M  V30 15295 H 1366.45 0.768606 5.82551 0
M  V30 15296 H 1367.97 -0.121011 6.1048 0
M  V30 15297 H 1369.39 2.02592 5.36311 0
M  V30 15298 H 1367.79 2.81459 5.30001 0
M  V30 15299 H 1368.86 2.8965 3.88884 0
M  V30 15300 N 1370.2 -1.34667 0.818693 0
M  V30 15301 C 1371.15 -2.31501 0.225816 0
M  V30 15302 C 1372.14 -1.57205 -0.631112 0
M  V30 15303 O 1373.35 -1.72237 -0.522924 0
M  V30 15304 H 1369.72 -0.750039 0.0542747 0
M  V30 15305 H 1371.69 -2.79036 1.05743 0
M  V30 15306 C 1370.44 -3.42464 -0.60114 0
M  V30 15307 H 1369.76 -3.9977 0.0489207 0
M  V30 15308 H 1371.2 -4.12468 -0.982154 0
M  V30 15309 C 1369.66 -2.86551 -1.77173 0
M  V30 15310 O 1370.19 -2.81085 -2.86974 0
M  V30 15311 N 1368.4 -2.43432 -1.58712 0
M  V30 15312 H 1367.95 -2.48077 -0.693958 0
M  V30 15313 H 1367.9 -2.06371 -2.37188 0
M  V30 15314 N 1371.68 -0.573274 -1.46804 0
M  V30 15315 C 1372.61 0.153316 -2.32996 0
M  V30 15316 C 1373.59 0.893013 -1.44773 0
M  V30 15317 O 1374.77 0.870329 -1.73606 0
M  V30 15318 C 1371.9 1.1736 -3.2687 0
M  V30 15319 C 1370.86 0.549347 -4.2446 0
M  V30 15320 C 1370.18 1.67542 -5.07773 0
M  V30 15321 C 1371.48 -0.50736 -5.1983 0
M  V30 15322 H 1373.18 -0.566305 -2.93995 0
M  V30 15323 H 1370.72 -0.273785 -1.41373 0
M  V30 15324 H 1372.68 1.6902 -3.86019 0
M  V30 15325 H 1371.4 1.92337 -2.63958 0
M  V30 15326 H 1370.06 0.0539142 -3.6656 0
M  V30 15327 H 1369.71 2.41463 -4.41253 0
M  V30 15328 H 1369.41 1.26343 -5.73856 0
M  V30 15329 H 1370.93 2.19496 -5.69784 0
M  V30 15330 H 1372.34 -0.0762061 -5.73249 0
M  V30 15331 H 1370.74 -0.839139 -5.94204 0
M  V30 15332 H 1371.81 -1.39723 -4.64333 0
M  V30 15333 N 1373.15 1.5451 -0.310553 0
M  V30 15334 C 1374.08 2.26827 0.554243 0
M  V30 15335 C 1375.07 1.27133 1.13009 0
M  V30 15336 O 1376.25 1.55923 1.15765 0
M  V30 15337 C 1373.38 3.01626 1.7216 0
M  V30 15338 C 1372.33 4.08547 1.27566 0
M  V30 15339 C 1371.66 4.71115 2.52893 0
M  V30 15340 C 1372.96 5.20766 0.399955 0
M  V30 15341 H 1374.65 2.9936 -0.0489475 0
M  V30 15342 H 1372.2 1.43978 -0.0249817 0
M  V30 15343 H 1374.15 3.50942 2.33276 0
M  V30 15344 H 1372.88 2.26688 2.35118 0
M  V30 15345 H 1371.54 3.60096 0.687499 0
M  V30 15346 H 1371.18 3.92805 3.14186 0
M  V30 15347 H 1370.88 5.43331 2.23752 0
M  V30 15348 H 1372.41 5.23198 3.14796 0
M  V30 15349 H 1373.82 5.65918 0.917054 0
M  V30 15350 H 1372.22 5.9976 0.2019 0
M  V30 15351 H 1373.29 4.81508 -0.572537 0
M  V30 15352 N 1374.63 0.0384594 1.57553 0
M  V30 15353 C 1375.58 -0.940256 2.10779 0
M  V30 15354 C 1376.55 -1.31705 1.01208 0
M  V30 15355 O 1377.74 -1.40874 1.28683 0
M  V30 15356 C 1374.88 -2.21419 2.64703 0
M  V30 15357 C 1373.99 -1.89302 3.88315 0
M  V30 15358 C 1373.12 -3.1106 4.30599 0
M  V30 15359 C 1372.16 -2.74805 5.46945 0
M  V30 15360 N 1371.3 -3.89217 5.84341 0
M  V30 15361 H 1376.14 -0.479458 2.94118 0
M  V30 15362 H 1373.68 -0.22505 1.45368 0
M  V30 15363 H 1375.63 -2.95946 2.94061 0
M  V30 15364 H 1374.26 -2.65099 1.84181 0
M  V30 15365 H 1373.32 -1.04977 3.65628 0
M  V30 15366 H 1374.63 -1.58607 4.72912 0
M  V30 15367 H 1373.78 -3.93898 4.61442 0
M  V30 15368 H 1372.52 -3.44924 3.44788 0
M  V30 15369 H 1371.53 -1.9038 5.15786 0
M  V30 15370 H 1372.75 -2.42147 6.34462 0
M  V30 15371 H 1370.7 -4.22905 5.01485 0
M  V30 15372 H 1370.61 -3.62177 6.63599 0
M  V30 15373 H 1371.88 -4.72732 6.19794 0
M  V30 15374 N 1376.11 -1.55841 -0.234795 0
M  V30 15375 C 1377.39 -1.69008 -0.984665 0
M  V30 15376 C 1377.77 -0.581882 -2.02922 0
M  V30 15377 O 1377.12 0.412998 -2.24737 0
M  V30 15378 C 1377.33 -3.09796 -1.60708 0
M  V30 15379 C 1378.67 -3.68784 -2.10436 0
M  V30 15380 O 1379.7 -3.12674 -1.70627 0
M  V30 15381 O 1378.56 -4.67175 -2.83567 0
M  V30 15382 H 1375.65 -0.68786 -0.459105 0
M  V30 15383 H 1378.2 -1.68166 -0.227623 0
M  V30 15384 H 1376.97 -3.81908 -0.852169 0
M  V30 15385 H 1376.59 -3.147 -2.43001 0
M  V30 15386 N 1377.59 0.500963 -1.49426 0
M  V30 15387 C 1378.5 1.62889 -1.68833 0
M  V30 15388 C 1379.52 1.64367 -0.570932 0
M  V30 15389 O 1380.69 1.82786 -0.845641 0
M  V30 15390 C 1377.76 2.99255 -1.75063 0
M  V30 15391 C 1376.82 3.08404 -2.9864 0
M  V30 15392 C 1376.05 4.38266 -3.04564 0
M  V30 15393 O 1376.27 5.27065 -2.1808 0
M  V30 15394 O 1375.21 4.52387 -3.97026 0
M  V30 15395 H 1379.03 1.49446 -2.64385 0
M  V30 15396 H 1376.62 0.677254 -1.33168 0
M  V30 15397 H 1378.5 3.80303 -1.81515 0
M  V30 15398 H 1377.18 3.1296 -0.826896 0
M  V30 15399 H 1376.08 2.26544 -2.97706 0
M  V30 15400 H 1377.42 2.99626 -3.90494 0
M  V30 15401 N 1379.07 1.38501 0.752011 0
M  V30 15402 C 1380 1.38577 1.87933 0
M  V30 15403 C 1380.98 0.251454 1.68231 0
M  V30 15404 O 1382.16 0.45477 1.888 0
M  V30 15405 C 1379.29 1.21164 3.25479 0
M  V30 15406 C 1378.25 2.31816 3.59785 0
M  V30 15407 C 1377.57 1.99508 4.96085 0
M  V30 15408 C 1378.87 3.74082 3.645 0
M  V30 15409 H 1380.57 2.32913 1.88127 0
M  V30 15410 H 1378.11 1.12113 0.903698 0
M  V30 15411 H 1380.07 1.19842 4.04 0
M  V30 15412 H 1378.79 0.232899 3.25769 0
M  V30 15413 H 1377.45 2.32327 2.83584 0
M  V30 15414 H 1377.1 1.00114 4.92936 0
M  V30 15415 H 1376.8 2.73617 5.20007 0
M  V30 15416 H 1378.32 1.99807 5.76983 0
M  V30 15417 H 1379.74 3.75593 4.33131 0
M  V30 15418 H 1378.13 4.47409 3.99931 0
M  V30 15419 H 1379.2 4.06284 2.64692 0
M  V30 15420 N 1380.55 -0.980364 1.23396 0
M  V30 15421 C 1381.79 -1.72166 1.06607 0
M  V30 15422 C 1382.12 -1.90405 -0.397029 0
M  V30 15423 O 1381.38 -1.45363 -1.31027 0
M  V30 15424 C 1381.67 -3.12367 1.73671 0
M  V30 15425 C 1381.34 -3.14007 3.2359 0
M  V30 15426 C 1380 -3.14162 3.64494 0
M  V30 15427 C 1382.35 -3.09319 4.19489 0
M  V30 15428 C 1379.68 -3.07345 4.99756 0
M  V30 15429 C 1382.03 -3.04044 5.54743 0
M  V30 15430 C 1380.7 -3.02521 5.9501 0
M  V30 15431 H 1379.97 -0.63 0.390104 0
M  V30 15432 H 1382.62 -1.14727 1.5333 0
M  V30 15433 H 1380.92 -3.73193 1.19308 0
M  V30 15434 H 1382.62 -3.68493 1.58159 0
M  V30 15435 H 1379.21 -3.14644 2.91028 0
M  V30 15436 H 1383.39 -3.08339 3.88897 0
M  V30 15437 H 1378.65 -3.04519 5.30168 0
M  V30 15438 H 1382.82 -2.99374 6.28767 0
M  V30 15439 H 1380.45 -2.96994 6.99785 0
M  V30 15440 N 1382.02 -1.04567 -1.17913 0
M  V30 15441 C 1382.97 -0.634939 -2.23766 0
M  V30 15442 C 1383.97 0.340723 -1.65938 0
M  V30 15443 O 1385.17 0.207467 -1.788 0
M  V30 15444 H 1381.55 -0.187129 -0.728345 0
M  V30 15445 H 1383.52 -1.53798 -2.55712 0
M  V30 15446 C 1382.27 -0.0190662 -3.47695 0
M  V30 15447 H 1381.59 -0.760881 -3.92493 0
M  V30 15448 H 1383.03 0.231035 -4.2337 0
M  V30 15449 C 1381.49 1.23246 -3.13548 0
M  V30 15450 O 1382.02 2.32262 -3.27746 0
M  V30 15451 N 1380.22 1.12768 -2.67828 0
M  V30 15452 H 1379.77 0.240547 -2.56474 0
M  V30 15453 H 1379.73 1.96594 -2.45353 0
M  V30 15454 N 1383.5 1.34231 -0.825823 0
M  V30 15455 C 1384.43 2.31997 -0.264546 0
M  V30 15456 C 1385.41 1.58375 0.620592 0
M  V30 15457 O 1386.6 1.86341 0.546865 0
M  V30 15458 C 1383.73 3.42557 0.572025 0
M  V30 15459 C 1382.68 4.27454 -0.216219 0
M  V30 15460 C 1382.01 5.29509 0.743279 0
M  V30 15461 C 1383.31 5.02456 -1.42603 0
M  V30 15462 H 1385 2.79189 -1.08139 0
M  V30 15463 H 1382.55 1.34227 -0.521451 0
M  V30 15464 H 1384.5 4.09968 0.974889 0
M  V30 15465 H 1383.22 2.94021 1.42195 0
M  V30 15466 H 1381.88 3.61649 -0.600485 0
M  V30 15467 H 1381.53 4.77234 1.58924 0
M  V30 15468 H 1381.23 5.87188 0.220064 0
M  V30 15469 H 1382.76 5.99789 1.14394 0
M  V30 15470 H 1384.17 5.62706 -1.09702 0
M  V30 15471 H 1382.57 5.69723 -1.88509 0
M  V30 15472 H 1383.64 4.31983 -2.2027 0
M  V30 15473 N 1384.98 0.581051 1.46498 0
M  V30 15474 C 1385.93 -0.153147 2.30291 0
M  V30 15475 C 1386.9 -0.885681 1.40517 0
M  V30 15476 O 1388.08 -0.876678 1.69467 0
M  V30 15477 C 1385.22 -1.16193 3.24951 0
M  V30 15478 C 1384.33 -0.433016 4.29824 0
M  V30 15479 C 1383.47 -1.42918 5.11613 0
M  V30 15480 C 1382.51 -0.686576 6.08237 0
M  V30 15481 N 1381.65 -1.63072 6.829 0
M  V30 15482 H 1386.49 0.56747 2.92547 0
M  V30 15483 H 1384.02 0.29166 1.4418 0
M  V30 15484 H 1385.98 -1.75965 3.78275 0
M  V30 15485 H 1384.61 -1.85028 2.64508 0
M  V30 15486 H 1383.66 0.279707 3.7937 0
M  V30 15487 H 1384.97 0.147604 4.98582 0
M  V30 15488 H 1384.13 -2.09975 5.69206 0
M  V30 15489 H 1382.87 -2.04373 4.42813 0
M  V30 15490 H 1381.87 -0.00222013 5.498 0
M  V30 15491 H 1383.1 -0.0774416 6.79056 0
M  V30 15492 H 1381.04 -2.2334 6.1681 0
M  V30 15493 H 1380.96 -1.10286 7.47912 0
M  V30 15494 H 1382.23 -2.29169 7.45052 0
M  V30 15495 N 1386.46 -1.54343 0.318742 0
M  V30 15496 C 1387.41 -2.25634 -0.56497 0
M  V30 15497 C 1388.4 -1.26869 -1.12252 0
M  V30 15498 O 1389.61 -1.44662 -1.07112 0
M  V30 15499 H 1385.98 -0.724686 -0.200834 0
M  V30 15500 H 1387.95 -2.98342 0.0586393 0
M  V30 15501 C 1386.7 -3.0237 -1.71662 0
M  V30 15502 H 1386.02 -3.78183 -1.29684 0
M  V30 15503 H 1387.46 -3.55507 -2.31065 0
M  V30 15504 C 1385.92 -2.10383 -2.63136 0
M  V30 15505 O 1386.45 -1.68351 -3.6472 0
M  V30 15506 N 1384.66 -1.75971 -2.31263 0
M  V30 15507 H 1384.21 -2.10349 -1.48698 0
M  V30 15508 H 1384.16 -1.14702 -2.9273 0
M  V30 15509 N 1387.94 -0.0468143 -1.5753 0
M  V30 15510 C 1389.18 0.627375 -1.91695 0
M  V30 15511 C 1389.5 1.72261 -0.926588 0
M  V30 15512 O 1390.7 2.45466 -1.16012 0
M  V30 15513 C 1389.16 1.16722 -3.40447 0
M  V30 15514 C 1388.77 0.104335 -4.47878 0
M  V30 15515 C 1390.51 1.81691 -3.83652 0
M  V30 15516 C 1388.42 0.656818 -5.87741 0
M  V30 15517 H 1387.35 0.238107 -0.715417 0
M  V30 15518 H 1390 -0.114995 -1.83139 0
M  V30 15519 H 1388.38 1.96177 -3.43992 0
M  V30 15520 H 1389.56 -0.669053 -4.55917 0
M  V30 15521 H 1387.87 -0.447633 -4.13987 0
M  V30 15522 H 1390.47 2.24014 -4.85512 0
M  V30 15523 H 1390.81 2.66686 -3.19663 0
M  V30 15524 H 1391.34 1.08898 -3.82604 0
M  V30 15525 H 1388.08 -0.155397 -6.55316 0
M  V30 15526 H 1387.6 1.39829 -5.83273 0
M  V30 15527 H 1389.28 1.14107 -6.36858 0
M  V30 15528 N 1389.41 1.55964 0.226527 0
M  V30 15529 C 1390.38 1.91184 1.26418 0
M  V30 15530 C 1391.38 0.789982 1.40057 0
M  V30 15531 O 1392.57 1.05778 1.38407 0
M  V30 15532 C 1389.7 2.15826 2.63878 0
M  V30 15533 H 1390.89 2.83986 0.963956 0
M  V30 15534 H 1388.45 1.49169 0.466726 0
M  V30 15535 H 1389.18 1.2556 2.99007 0
M  V30 15536 H 1388.97 2.97549 2.55356 0
M  V30 15537 H 1390.46 2.44188 3.38765 0
M  V30 15538 N 1390.89 -0.493031 1.4969 0
M  V30 15539 C 1391.82 -1.60215 1.69863 0
M  V30 15540 C 1392.8 -1.61053 0.547362 0
M  V30 15541 O 1393.99 -1.77667 0.784093 0
M  V30 15542 C 1391.12 -2.98662 1.77252 0
M  V30 15543 C 1390.07 -3.1269 2.92248 0
M  V30 15544 C 1389.4 -4.52567 2.84758 0
M  V30 15545 C 1390.7 -2.91965 4.33074 0
M  V30 15546 H 1392.39 -1.43587 2.62723 0
M  V30 15547 H 1389.94 -0.689334 1.26429 0
M  V30 15548 H 1391.89 -3.7616 1.89951 0
M  V30 15549 H 1390.62 -3.16397 0.809976 0
M  V30 15550 H 1389.27 -2.37619 2.79164 0
M  V30 15551 H 1388.92 -4.6719 1.86394 0
M  V30 15552 H 1388.62 -4.62893 3.61944 0
M  V30 15553 H 1390.15 -5.32116 2.99475 0
M  V30 15554 H 1391.56 -3.59228 4.46798 0
M  V30 15555 H 1389.96 -3.13756 5.11544 0
M  V30 15556 H 1391.03 -1.88015 4.46966 0
M  V30 15557 N 1392.37 -1.38898 -0.744656 0
M  V30 15558 C 1393.62 -1.35795 -1.50623 0
M  V30 15559 C 1393.95 0.0491775 -1.94138 0
M  V30 15560 O 1393.22 1.01219 -1.66087 0
M  V30 15561 C 1393.51 -2.32168 -2.75263 0
M  V30 15562 C 1393.36 -3.81781 -2.3783 0
M  V30 15563 C 1394.68 -2.26526 -3.77325 0
M  V30 15564 H 1391.8 -0.494591 -0.546396 0
M  V30 15565 H 1394.44 -1.69816 -0.852211 0
M  V30 15566 H 1392.59 -2.03287 -3.31069 0
M  V30 15567 H 1394.26 -4.21373 -1.8773 0
M  V30 15568 H 1392.51 -3.99027 -1.70176 0
M  V30 15569 H 1393.18 -4.44687 -3.27044 0
M  V30 15570 H 1395.65 -2.52041 -3.31081 0
M  V30 15571 H 1394.53 -2.96053 -4.62216 0
M  V30 15572 H 1394.79 -1.26705 -4.23554 0
M  V30 15573 N 1393.85 0.973806 -1.23914 0
M  V30 15574 C 1395.1 1.71027 -1.06923 0
M  V30 15575 C 1395.41 1.91612 0.392947 0
M  V30 15576 O 1396.62 2.62771 0.682927 0
M  V30 15577 C 1395.07 3.07811 -1.86496 0
M  V30 15578 C 1394.68 2.9509 -3.37085 0
M  V30 15579 C 1396.42 3.85371 -1.78015 0
M  V30 15580 C 1394.33 4.27145 -4.09024 0
M  V30 15581 H 1393.26 0.641329 -0.396501 0
M  V30 15582 H 1395.91 1.08562 -1.47941 0
M  V30 15583 H 1394.29 3.71069 -1.38288 0
M  V30 15584 H 1395.47 2.4088 -3.92827 0
M  V30 15585 H 1393.78 2.30999 -3.46451 0
M  V30 15586 H 1396.38 4.83147 -2.2907 0
M  V30 15587 H 1396.72 4.09594 -0.744196 0
M  V30 15588 H 1397.26 3.28827 -2.23869 0
M  V30 15589 H 1394 4.08117 -5.12953 0
M  V30 15590 H 1393.52 4.81194 -3.58068 0
M  V30 15591 H 1395.19 4.95798 -4.15685 0
M  V30 15592 N 1395.33 1.05191 1.17357 0
M  V30 15593 C 1396.6 0.675826 1.83554 0
M  V30 15594 C 1396.98 -0.843812 1.93502 0
M  V30 15595 O 1396.33 -1.74975 1.46956 0
M  V30 15596 C 1396.54 1.36481 3.21207 0
M  V30 15597 C 1397.89 1.50285 3.97114 0
M  V30 15598 O 1398.91 1.32382 3.30686 0
M  V30 15599 O 1397.77 1.79562 5.16159 0
M  V30 15600 H 1394.87 0.237898 0.792044 0
M  V30 15601 H 1397.41 1.1515 1.24654 0
M  V30 15602 H 1396.18 2.40156 3.08935 0
M  V30 15603 H 1395.81 0.878491 3.87774 0
M  V30 15604 N 1396.8 -1.33791 0.83293 0
M  V30 15605 C 1398.05 -1.97582 0.42494 0
M  V30 15606 C 1398.37 -1.66328 -1.01784 0
M  V30 15607 O 1397.64 -0.959141 -1.70814 0
M  V30 15608 H 1396.22 -0.730923 0.154143 0
M  V30 15609 H 1398.89 -1.63257 1.06458 0
M  V30 15610 H 1397.98 -3.07177 0.552127 0
M  V30 15611 N 1398.28 -0.588812 -1.46187 0
M  V30 15612 C 1399.23 0.153638 -2.32092 0
M  V30 15613 C 1400.22 0.878346 -1.4485 0
M  V30 15614 O 1401.43 0.796042 -1.61441 0
M  V30 15615 H 1397.81 0.0684129 -0.748882 0
M  V30 15616 H 1399.78 -0.58961 -2.92517 0
M  V30 15617 C 1398.53 1.15003 -3.28131 0
M  V30 15618 H 1397.85 0.601804 -3.95245 0
M  V30 15619 H 1399.29 1.6398 -3.91007 0
M  V30 15620 C 1397.75 2.21411 -2.53926 0
M  V30 15621 O 1398.28 3.28862 -2.30679 0
M  V30 15622 N 1396.48 1.96184 -2.14383 0
M  V30 15623 H 1396.03 1.08812 -2.3349 0
M  V30 15624 H 1395.99 2.6759 -1.65055 0
M  V30 15625 N 1399.76 1.54172 -0.326923 0
M  V30 15626 C 1401.01 2.00629 0.274641 0
M  V30 15627 C 1401.34 1.21505 1.51878 0
M  V30 15628 O 1400.59 0.286164 1.93596 0
M  V30 15629 C 1400.89 3.51429 0.650553 0
M  V30 15630 C 1400.56 4.48177 -0.494792 0
M  V30 15631 C 1399.22 4.74348 -0.809153 0
M  V30 15632 C 1401.57 5.05641 -1.26398 0
M  V30 15633 C 1398.9 5.55241 -1.89536 0
M  V30 15634 C 1401.25 5.87718 -2.34031 0
M  V30 15635 C 1399.91 6.1219 -2.66045 0
M  V30 15636 H 1399.18 0.734153 0.100498 0
M  V30 15637 H 1401.83 1.86104 -0.451397 0
M  V30 15638 H 1400.14 3.63699 1.45706 0
M  V30 15639 H 1401.83 3.84819 1.12761 0
M  V30 15640 H 1398.42 4.27929 -0.239701 0
M  V30 15641 H 1402.61 4.85401 -1.03437 0
M  V30 15642 H 1397.86 5.72432 -2.14783 0
M  V30 15643 H 1402.04 6.31264 -2.94074 0
M  V30 15644 H 1399.66 6.7466 -3.5034 0
M  V30 15645 N 1401.24 0.0551678 1.57503 0
M  V30 15646 C 1402.46 -0.630692 1.97578 0
M  V30 15647 C 1402.89 -1.63348 0.932686 0
M  V30 15648 O 1402.25 -1.81004 -0.103632 0
M  V30 15649 C 1402.29 -1.29049 3.36718 0
M  V30 15650 O 1401.4 -2.40621 3.34926 0
M  V30 15651 H 1400.74 -0.163625 0.643524 0
M  V30 15652 H 1403.27 0.124753 2.04219 0
M  V30 15653 H 1403.28 -1.64124 3.73534 0
M  V30 15654 H 1401.95 -0.55559 4.12172 0
M  V30 15655 H 1400.53 -2.07463 3.0986 0
M  V30 15656 N 1402.72 -1.56081 -0.218252 0
M  V30 15657 C 1403.66 -1.92684 -1.27049 0
M  V30 15658 C 1404.63 -0.784441 -1.46409 0
M  V30 15659 O 1405.82 -1.04062 -1.59924 0
M  V30 15660 C 1402.96 -2.25174 -2.61516 0
M  V30 15661 C 1402.07 -3.52364 -2.49927 0
M  V30 15662 C 1401.21 -3.74286 -3.7694 0
M  V30 15663 C 1400.25 -4.94979 -3.60087 0
M  V30 15664 N 1399.38 -5.13273 -4.79057 0
M  V30 15665 H 1404.22 -2.82406 -0.951347 0
M  V30 15666 H 1401.76 -1.39774 -0.458441 0
M  V30 15667 H 1403.72 -2.42022 -3.39825 0
M  V30 15668 H 1402.35 -1.38621 -2.9152 0
M  V30 15669 H 1401.4 -3.43691 -1.63036 0
M  V30 15670 H 1402.71 -4.40826 -2.33397 0
M  V30 15671 H 1401.87 -3.91248 -4.63692 0
M  V30 15672 H 1400.6 -2.84111 -3.96399 0
M  V30 15673 H 1399.61 -4.77963 -2.71719 0
M  V30 15674 H 1400.83 -5.86641 -3.42095 0
M  V30 15675 H 1398.78 -4.26041 -4.98824 0
M  V30 15676 H 1398.7 -5.95873 -4.65265 0
M  V30 15677 H 1399.97 -5.34673 -5.67226 0
M  V30 15678 N 1404.2 0.485086 -1.49949 0
M  V30 15679 C 1405.44 1.23999 -1.60474 0
M  V30 15680 C 1405.77 1.91904 -0.297736 0
M  V30 15681 O 1405.05 1.81472 0.699857 0
M  V30 15682 C 1405.33 2.2946 -2.77525 0
M  V30 15683 C 1405.19 1.65952 -4.18067 0
M  V30 15684 C 1406.5 3.30893 -2.90169 0
M  V30 15685 H 1403.62 0.449462 -0.584083 0
M  V30 15686 H 1406.27 0.535795 -1.82289 0
M  V30 15687 H 1404.42 2.89521 -2.59056 0
M  V30 15688 H 1406.09 1.09596 -4.48092 0
M  V30 15689 H 1404.33 0.963079 -4.22974 0
M  V30 15690 H 1405 2.42521 -4.9587 0
M  V30 15691 H 1407.48 2.8084 -3.07031 0
M  V30 15692 H 1406.35 4.02027 -3.73718 0
M  V30 15693 H 1406.61 3.94178 -2.0019 0
M  V30 15694 N 1405.67 1.39291 0.737279 0
M  V30 15695 C 1406.62 1.34321 1.84233 0
M  V30 15696 C 1407.61 0.224489 1.59326 0
M  V30 15697 O 1408.8 0.461832 1.70869 0
M  V30 15698 C 1405.93 1.18676 3.22135 0
M  V30 15699 C 1405.01 2.35239 3.52878 0
M  V30 15700 N 1405.41 3.6071 3.54573 0
M  V30 15701 C 1403.7 2.28147 3.83229 0
M  V30 15702 C 1404.4 4.37778 3.83047 0
M  V30 15703 N 1403.38 3.67336 4.00706 0
M  V30 15704 H 1407.18 2.29299 1.83845 0
M  V30 15705 H 1404.7 1.32755 0.935413 0
M  V30 15706 H 1406.69 1.13199 4.01238 0
M  V30 15707 H 1405.35 0.246461 3.23763 0
M  V30 15708 H 1406.36 3.94164 3.3594 0
M  V30 15709 H 1403.04 1.42366 3.92477 0
M  V30 15710 H 1404.43 5.46525 3.90845 0
M  V30 15711 N 1407.15 -0.967221 1.24429 0
M  V30 15712 C 1408.1 -2.08315 1.03478 0
M  V30 15713 C 1409.09 -1.69373 -0.0304332 0
M  V30 15714 O 1410.3 -1.79571 0.124162 0
M  V30 15715 H 1406.67 -0.681638 0.317605 0
M  V30 15716 H 1408.65 -2.23148 1.9811 0
M  V30 15717 C 1407.39 -3.41441 0.656778 0
M  V30 15718 H 1406.72 -3.71865 1.4682 0
M  V30 15719 H 1408.16 -4.2042 0.549791 0
M  V30 15720 C 1406.62 -3.30839 -0.636154 0
M  V30 15721 O 1407.15 -3.64802 -1.68175 0
M  V30 15722 N 1405.35 -2.83973 -0.617052 0
M  V30 15723 H 1404.9 -2.56533 0.234179 0
M  V30 15724 H 1404.86 -2.77262 -1.48233 0
M  V30 15725 N 1408.63 -1.05812 -1.16797 0
M  V30 15726 C 1409.88 -0.773066 -1.87487 0
M  V30 15727 C 1410.21 0.698471 -1.81204 0
M  V30 15728 O 1409.48 1.51129 -1.22434 0
M  V30 15729 C 1409.77 -1.2621 -3.37258 0
M  V30 15730 C 1409.62 -2.79704 -3.52258 0
M  V30 15731 C 1410.94 -0.866104 -4.31494 0
M  V30 15732 H 1408.06 -0.282304 -0.680789 0
M  V30 15733 H 1410.7 -1.3132 -1.37314 0
M  V30 15734 H 1408.85 -0.802608 -3.80119 0
M  V30 15735 H 1410.52 -3.33824 -3.1837 0
M  V30 15736 H 1408.76 -3.18673 -2.94329 0
M  V30 15737 H 1409.44 -3.08985 -4.57419 0
M  V30 15738 H 1411.91 -1.26178 -3.96508 0
M  V30 15739 H 1410.79 -1.23581 -5.34807 0
M  V30 15740 H 1411.05 0.229391 -4.41504 0
M  V30 15741 N 1410.11 1.33347 -0.840014 0
M  V30 15742 C 1411.35 1.97745 -0.436274 0
M  V30 15743 C 1411.68 1.66538 1.00475 0
M  V30 15744 O 1410.94 0.938137 1.71748 0
M  V30 15745 C 1411.24 3.52239 -0.605173 0
M  V30 15746 C 1410.9 4.03398 -2.01446 0
M  V30 15747 C 1409.56 4.1708 -2.39994 0
M  V30 15748 C 1411.92 4.3071 -2.93494 0
M  V30 15749 C 1409.24 4.55409 -3.69891 0
M  V30 15750 C 1411.6 4.70491 -4.22873 0
M  V30 15751 C 1410.26 4.82379 -4.61375 0
M  V30 15752 H 1409.53 0.723599 -0.159644 0
M  V30 15753 H 1412.18 1.59003 -1.06725 0
M  V30 15754 H 1410.48 3.91648 0.109116 0
M  V30 15755 H 1412.18 4.00069 -0.273056 0
M  V30 15756 H 1408.77 3.93224 -1.70508 0
M  V30 15757 H 1412.95 4.19661 -2.64949 0
M  V30 15758 H 1408.21 4.62806 -3.99525 0
M  V30 15759 H 1412.38 4.9058 -4.94271 0
M  V30 15760 H 1410.01 5.11835 -5.62075 0
M  V30 15761 N 1411.59 0.596556 1.45873 0
M  V30 15762 C 1412.81 0.0916466 2.07197 0
M  V30 15763 C 1413.24 -1.21004 1.44012 0
M  V30 15764 O 1412.59 -1.73415 0.528844 0
M  V30 15765 C 1412.64 -0.0461457 3.6057 0
M  V30 15766 O 1411.75 -1.09919 3.97481 0
M  V30 15767 H 1411.09 0.0690655 0.660398 0
M  V30 15768 H 1413.62 0.823434 1.87299 0
M  V30 15769 H 1413.63 -0.2479 4.07246 0
M  V30 15770 H 1412.3 0.904381 4.05948 0
M  V30 15771 H 1410.88 -0.874788 3.62494 0
M  V30 15772 N 1413.06 -1.53996 0.335095 0
M  V30 15773 C 1414.31 -2.01769 -0.257101 0
M  V30 15774 C 1414.66 -1.21883 -1.4887 0
M  V30 15775 O 1413.96 -0.295897 -1.89301 0
M  V30 15776 C 1414.15 -3.51769 -0.631907 0
M  V30 15777 C 1413.98 -4.46177 0.561818 0
M  V30 15778 C 1412.75 -4.9396 1.06451 0
M  V30 15779 C 1414.95 -4.94376 1.41763 0
M  V30 15780 N 1412.93 -5.72298 2.22144 0
M  V30 15781 C 1414.3 -5.70753 2.42158 0
M  V30 15782 C 1416.36 -4.76499 1.44406 0
M  V30 15783 C 1415.06 -6.31156 3.45014 0
M  V30 15784 C 1417.09 -5.37745 2.46139 0
M  V30 15785 C 1416.45 -6.13983 3.4526 0
M  V30 15786 H 1412.55 -0.779875 -0.0576132 0
M  V30 15787 H 1415.13 -1.88873 0.472746 0
M  V30 15788 H 1413.3 -3.64887 -1.33087 0
M  V30 15789 H 1415.03 -3.86295 -1.20656 0
M  V30 15790 H 1411.79 -4.69338 0.633942 0
M  V30 15791 H 1412.21 -6.16141 2.80534 0
M  V30 15792 H 1416.85 -4.17109 0.691369 0
M  V30 15793 H 1414.57 -6.89659 4.21184 0
M  V30 15794 H 1418.16 -5.25823 2.49 0
M  V30 15795 H 1417.04 -6.60532 4.2269 0
M  V30 15796 N 1414.54 -0.0635198 -1.57472 0
M  V30 15797 C 1415.77 0.615841 -1.97208 0
M  V30 15798 C 1416.18 1.64181 -0.940281 0
M  V30 15799 O 1415.52 1.83515 0.0824321 0
M  V30 15800 C 1415.58 1.34908 -3.33227 0
M  V30 15801 C 1415.25 0.477535 -4.54498 0
M  V30 15802 C 1416.25 -0.261479 -5.19242 0
M  V30 15803 C 1413.93 0.404839 -5.00666 0
M  V30 15804 C 1415.92 -1.0615 -6.28499 0
M  V30 15805 C 1413.61 -0.398859 -6.09797 0
M  V30 15806 C 1414.61 -1.1307 -6.73576 0
M  V30 15807 O 1414.3 -1.92116 -7.80607 0
M  V30 15808 H 1414.03 0.172273 -0.65368 0
M  V30 15809 H 1416.58 -0.129963 -2.04988 0
M  V30 15810 H 1414.81 2.14078 -3.22036 0
M  V30 15811 H 1416.5 1.91988 -3.57625 0
M  V30 15812 H 1417.27 -0.214859 -4.84524 0
M  V30 15813 H 1413.15 0.964087 -4.50806 0
M  V30 15814 H 1416.69 -1.63324 -6.78212 0
M  V30 15815 H 1412.59 -0.447073 -6.4395 0
M  V30 15816 H 1413.36 -1.84459 -7.97444 0
M  V30 15817 N 1416.02 1.56195 0.209972 0
M  V30 15818 C 1417.3 1.70553 0.957653 0
M  V30 15819 C 1417.68 0.614091 2.01971 0
M  V30 15820 O 1417.02 -0.377192 2.25365 0
M  V30 15821 C 1417.23 3.12314 1.55759 0
M  V30 15822 C 1418.58 3.72085 2.04543 0
M  V30 15823 O 1419.61 3.15349 1.65631 0
M  V30 15824 O 1418.47 4.71627 2.76099 0
M  V30 15825 H 1415.56 0.695077 0.448104 0
M  V30 15826 H 1418.11 1.68507 0.20084 0
M  V30 15827 H 1416.88 3.83215 0.791302 0
M  V30 15828 H 1416.5 3.18526 2.37964 0
M  V30 15829 N 1417.5 -0.477127 1.50204 0
M  V30 15830 C 1418.44 -1.57587 1.68626 0
M  V30 15831 C 1419.41 -1.57499 0.527576 0
M  V30 15832 O 1420.6 -1.75121 0.757438 0
M  V30 15833 C 1417.74 -2.956 1.78086 0
M  V30 15834 C 1416.85 -3.05523 3.05417 0
M  V30 15835 C 1415.99 -4.34414 3.05709 0
M  V30 15836 C 1415.03 -4.38057 4.27519 0
M  V30 15837 N 1414.16 -5.5841 4.25585 0
M  V30 15838 H 1419 -1.41185 2.62433 0
M  V30 15839 H 1416.54 -0.686537 1.30096 0
M  V30 15840 H 1418.5 -3.75626 1.81552 0
M  V30 15841 H 1417.13 -3.10651 0.877251 0
M  V30 15842 H 1416.18 -2.18409 3.11451 0
M  V30 15843 H 1417.49 -3.04075 3.95398 0
M  V30 15844 H 1416.65 -5.22782 3.07871 0
M  V30 15845 H 1415.39 -4.38462 2.13548 0
M  V30 15846 H 1414.39 -3.48087 4.25577 0
M  V30 15847 H 1415.62 -4.35705 5.20901 0
M  V30 15848 H 1413.56 -5.63255 3.36274 0
M  V30 15849 H 1413.48 -5.58677 5.09328 0
M  V30 15850 H 1414.75 -6.4892 4.31884 0
M  V30 15851 N 1418.98 -1.3968 -0.729882 0
M  V30 15852 C 1420.22 -1.38389 -1.49064 0
M  V30 15853 C 1420.58 0.0186997 -1.92391 0
M  V30 15854 O 1419.87 0.986266 -1.64266 0
M  V30 15855 C 1420.06 -2.29499 -2.7398 0
M  V30 15856 C 1419.89 -3.78478 -2.42868 0
M  V30 15857 C 1418.66 -4.47375 -2.34911 0
M  V30 15858 C 1420.86 -4.70329 -2.08074 0
M  V30 15859 N 1418.84 -5.81662 -1.96324 0
M  V30 15860 C 1420.21 -5.93305 -1.79971 0
M  V30 15861 C 1422.27 -4.58302 -1.94586 0
M  V30 15862 C 1420.97 -7.05596 -1.3974 0
M  V30 15863 C 1423 -5.7052 -1.55758 0
M  V30 15864 C 1422.36 -6.92572 -1.28544 0
M  V30 15865 H 1418.46 -0.56167 -0.544106 0
M  V30 15866 H 1421.04 -1.75273 -0.847782 0
M  V30 15867 H 1419.21 -1.94765 -3.36037 0
M  V30 15868 H 1420.95 -2.19166 -3.40218 0
M  V30 15869 H 1417.7 -4.00878 -2.52178 0
M  V30 15870 H 1418.13 -6.5274 -1.79608 0
M  V30 15871 H 1422.77 -3.6447 -2.14292 0
M  V30 15872 H 1420.49 -7.99323 -1.18776 0
M  V30 15873 H 1424.07 -5.63204 -1.45921 0
M  V30 15874 H 1422.95 -7.77932 -0.989491 0
M  V30 15875 N 1420.45 0.960609 -1.2494 0
M  V30 15876 C 1421.7 1.70448 -1.09333 0
M  V30 15877 C 1422.03 1.91012 0.366687 0
M  V30 15878 O 1421.28 1.4743 1.28697 0
M  V30 15879 C 1421.58 3.09564 -1.78619 0
M  V30 15880 C 1421.25 3.08819 -3.28545 0
M  V30 15881 C 1419.91 3.08323 -3.69446 0
M  V30 15882 C 1422.26 3.02606 -4.24357 0
M  V30 15883 C 1419.59 2.99356 -5.04582 0
M  V30 15884 C 1421.94 2.9518 -5.5951 0
M  V30 15885 C 1420.61 2.93017 -5.99748 0
M  V30 15886 H 1419.88 0.623714 -0.400078 0
M  V30 15887 H 1422.52 1.12273 -1.55136 0
M  V30 15888 H 1420.83 3.71247 -1.2523 0
M  V30 15889 H 1422.53 3.6593 -1.64001 0
M  V30 15890 H 1419.12 3.09974 -2.95997 0
M  V30 15891 H 1423.3 3.02113 -3.93753 0
M  V30 15892 H 1418.56 2.96046 -5.34946 0
M  V30 15893 H 1422.73 2.89333 -6.3345 0
M  V30 15894 H 1420.36 2.85824 -7.04421 0
M  V30 15895 N 1421.93 1.0643 1.16234 0
M  V30 15896 C 1423.16 0.802644 1.90697 0
M  V30 15897 C 1423.58 -0.643145 1.77508 0
M  V30 15898 O 1422.93 -1.4404 1.12065 0
M  V30 15899 C 1422.98 1.18984 3.41358 0
M  V30 15900 O 1422.7 2.5789 3.54153 0
M  V30 15901 C 1424.21 0.956132 4.32866 0
M  V30 15902 H 1421.43 0.290891 0.604668 0
M  V30 15903 H 1423.97 1.41829 1.47325 0
M  V30 15904 H 1422.12 0.618703 3.82428 0
M  V30 15905 H 1422.54 2.73431 4.47589 0
M  V30 15906 H 1424.01 1.27667 5.37034 0
M  V30 15907 H 1424.49 -0.108062 4.39067 0
M  V30 15908 H 1425.1 1.51172 3.97526 0
M  V30 15909 N 1423.41 -1.329 0.847073 0
M  V30 15910 C 1424.66 -1.96774 0.443022 0
M  V30 15911 C 1424.97 -1.67813 -1.0049 0
M  V30 15912 O 1426.18 -2.25366 -1.51402 0
M  V30 15913 C 1424.63 -3.52184 0.741268 0
M  V30 15914 C 1424.24 -3.90013 2.20441 0
M  V30 15915 C 1425.99 -4.22568 0.404569 0
M  V30 15916 C 1423.89 -5.38434 2.44627 0
M  V30 15917 H 1422.82 -0.736406 0.161932 0
M  V30 15918 H 1425.47 -1.51402 1.0368 0
M  V30 15919 H 1423.86 -3.95925 0.0770158 0
M  V30 15920 H 1425.03 -3.57304 2.90982 0
M  V30 15921 H 1423.35 -3.32633 2.50489 0
M  V30 15922 H 1425.94 -5.3173 0.562795 0
M  V30 15923 H 1426.29 -4.11144 -0.653172 0
M  V30 15924 H 1426.82 -3.84384 1.0244 0
M  V30 15925 H 1423.56 -5.5487 3.48997 0
M  V30 15926 H 1423.08 -5.72575 1.78656 0
M  V30 15927 H 1424.76 -6.05423 2.28194 0
M  V30 15928 N 1424.89 -0.604284 -1.45555 0
M  V30 15929 C 1425.84 0.116491 -2.30506 0
M  V30 15930 C 1426.81 0.863214 -1.41908 0
M  V30 15931 O 1427.99 0.849606 -1.7084 0
M  V30 15932 C 1425.13 1.11009 -3.26758 0
M  V30 15933 C 1424.24 0.36458 -4.30459 0
M  V30 15934 C 1423.38 1.34761 -5.13822 0
M  V30 15935 C 1422.42 0.589724 -6.09253 0
M  V30 15936 N 1421.55 1.52187 -6.85408 0
M  V30 15937 H 1426.39 -0.61394 -2.91607 0
M  V30 15938 H 1423.93 -0.314561 -1.43697 0
M  V30 15939 H 1425.89 1.69925 -3.81027 0
M  V30 15940 H 1424.52 1.80797 -2.67418 0
M  V30 15941 H 1423.57 -0.340026 -3.78877 0
M  V30 15942 H 1424.88 -0.226906 -4.98284 0
M  V30 15943 H 1424.04 2.00893 -5.72474 0
M  V30 15944 H 1422.78 1.97302 -4.46008 0
M  V30 15945 H 1421.78 -0.0852486 -5.49734 0
M  V30 15946 H 1423.01 -0.0306001 -6.79093 0
M  V30 15947 H 1420.95 2.13499 -6.20286 0
M  V30 15948 H 1420.87 0.983737 -7.49572 0
M  V30 15949 H 1422.14 2.17287 -7.48603 0
M  V30 15950 N 1426.37 1.53816 -0.343257 0
M  V30 15951 C 1427.31 2.26505 0.529002 0
M  V30 15952 C 1428.31 1.28639 1.1022 0
M  V30 15953 O 1429.51 1.46348 1.04797 0
M  V30 15954 H 1425.89 0.727789 0.189279 0
M  V30 15955 H 1427.86 2.98211 -0.106096 0
M  V30 15956 C 1426.61 3.05062 1.6683 0
M  V30 15957 H 1425.93 3.80198 1.23651 0
M  V30 15958 H 1427.37 3.59138 2.2538 0
M  V30 15959 C 1425.83 2.14543 2.59756 0
M  V30 15960 O 1426.36 1.74132 3.61996 0
M  V30 15961 N 1424.57 1.79628 2.28434 0
M  V30 15962 H 1424.11 2.12688 1.45332 0
M  V30 15963 H 1424.07 1.19345 2.90868 0
M  V30 15964 N 1427.84 0.0718701 1.57436 0
M  V30 15965 C 1428.78 -0.931304 2.08331 0
M  V30 15966 C 1429.76 -1.29106 0.988448 0
M  V30 15967 O 1430.94 -1.40035 1.26184 0
M  V30 15968 C 1428.07 -2.23939 2.54104 0
M  V30 15969 C 1427.11 -2.03119 3.75026 0
M  V30 15970 S 1427.95 -1.29048 5.19718 0
M  V30 15971 C 1429.1 -2.61136 5.68822 0
M  V30 15972 H 1429.33 -0.498236 2.93095 0
M  V30 15973 H 1426.87 -0.140897 1.53756 0
M  V30 15974 H 1428.83 -2.9912 2.81136 0
M  V30 15975 H 1427.49 -2.64371 1.69608 0
M  V30 15976 H 1426.68 -2.99927 4.05043 0
M  V30 15977 H 1426.28 -1.36074 3.48367 0
M  V30 15978 H 1428.57 -3.57224 5.75671 0
M  V30 15979 H 1429.52 -2.35729 6.67711 0
M  V30 15980 H 1429.92 -2.68345 4.9664 0
M  V30 15981 N 1429.32 -1.56304 -0.201686 0
M  V30 15982 C 1430.25 -1.90538 -1.27389 0
M  V30 15983 C 1431.27 -0.795422 -1.42045 0
M  V30 15984 O 1432.46 -1.07381 -1.42589 0
M  V30 15985 C 1429.56 -2.11638 -2.64694 0
M  V30 15986 C 1428.73 -3.42755 -2.71731 0
M  V30 15987 C 1427.79 -3.53047 -3.90185 0
M  V30 15988 O 1426.81 -4.25923 -3.77595 0
M  V30 15989 N 1428.02 -2.85649 -5.05356 0
M  V30 15990 H 1430.78 -2.83106 -0.983411 0
M  V30 15991 H 1428.34 -1.57092 -0.391638 0
M  V30 15992 H 1430.33 -2.15818 -3.42352 0
M  V30 15993 H 1428.9 -1.256 -2.86258 0
M  V30 15994 H 1428.12 -3.50501 -1.80397 0
M  V30 15995 H 1429.41 -4.29092 -2.73418 0
M  V30 15996 H 1428.81 -2.26256 -5.18483 0
M  V30 15997 H 1427.37 -2.95465 -5.80985 0
M  V30 15998 N 1430.8 0.469154 -1.50455 0
M  V30 15999 C 1432.03 1.24432 -1.653 0
M  V30 16000 C 1432.44 1.85766 -0.33713 0
M  V30 16001 O 1431.8 1.69313 0.681118 0
M  V30 16002 C 1431.85 2.35163 -2.74555 0
M  V30 16003 O 1431.57 1.76344 -4.01042 0
M  V30 16004 C 1433.07 3.26006 -3.00391 0
M  V30 16005 H 1430.29 0.376251 -0.555587 0
M  V30 16006 H 1432.84 0.559777 -1.96689 0
M  V30 16007 H 1430.99 2.99389 -2.45855 0
M  V30 16008 H 1431.41 2.49278 -4.61477 0
M  V30 16009 H 1432.88 3.99909 -3.80496 0
M  V30 16010 H 1433.36 3.84901 -2.11537 0
M  V30 16011 H 1433.96 2.67515 -3.3063 0
M  V30 16012 N 1432.28 1.40065 0.722464 0
M  V30 16013 C 1433.52 1.39414 1.49476 0
M  V30 16014 C 1433.88 -0.00655879 1.91999 0
M  V30 16015 O 1435.08 -0.138145 2.68445 0
M  V30 16016 C 1433.35 2.35014 2.69264 0
M  V30 16017 S 1434.91 2.52662 3.58758 0
M  V30 16018 H 1431.73 0.494229 0.511135 0
M  V30 16019 H 1434.33 1.76274 0.845447 0
M  V30 16020 H 1433.04 3.35627 2.36184 0
M  V30 16021 H 1432.57 1.99414 3.39113 0
M  V30 16022 H 1434.58 1.77389 4.63409 0
M  V30 16023 N 1433.76 -0.95397 1.25448 0
M  V30 16024 C 1434.67 -2.08452 1.07634 0
M  V30 16025 C 1435.68 -1.73995 0.013294 0
M  V30 16026 O 1436.86 -2.00256 0.214367 0
M  V30 16027 C 1433.92 -3.39606 0.697756 0
M  V30 16028 C 1432.99 -3.87926 1.83881 0
M  V30 16029 C 1432.22 -5.12821 1.47819 0
M  V30 16030 O 1432.44 -5.69172 0.374143 0
M  V30 16031 O 1431.38 -5.55866 2.3086 0
M  V30 16032 H 1435.2 -2.26382 2.02447 0
M  V30 16033 H 1432.79 -1.06877 1.04392 0
M  V30 16034 H 1434.67 -4.18438 0.498778 0
M  V30 16035 H 1433.34 -3.22944 -0.221108 0
M  V30 16036 H 1432.25 -3.10095 2.09265 0
M  V30 16037 H 1433.58 -4.09087 2.73694 0
M  V30 16038 N 1435.24 -1.07045 -1.15668 0
M  V30 16039 C 1436.47 -0.811567 -1.89992 0
M  V30 16040 C 1436.87 0.638628 -1.78096 0
M  V30 16041 O 1436.22 1.44953 -1.12846 0
M  V30 16042 C 1436.28 -1.13665 -3.41058 0
M  V30 16043 C 1435.94 -2.58681 -3.7674 0
M  V30 16044 C 1436.94 -3.56923 -3.78023 0
M  V30 16045 C 1434.62 -2.94178 -4.07142 0
M  V30 16046 C 1436.62 -4.88699 -4.09209 0
M  V30 16047 C 1434.31 -4.26152 -4.37993 0
M  V30 16048 C 1435.3 -5.23222 -4.39007 0
M  V30 16049 O 1434.99 -6.52826 -4.6912 0
M  V30 16050 H 1434.72 -0.293243 -0.609085 0
M  V30 16051 H 1437.28 -1.42941 -1.47502 0
M  V30 16052 H 1435.51 -0.461762 -3.83933 0
M  V30 16053 H 1437.2 -0.860808 -3.96667 0
M  V30 16054 H 1437.96 -3.30842 -3.54639 0
M  V30 16055 H 1433.84 -2.19272 -4.05513 0
M  V30 16056 H 1437.39 -5.6446 -4.09915 0
M  V30 16057 H 1433.28 -4.51988 -4.60844 0
M  V30 16058 H 1434.05 -6.5793 -4.86898 0
M  V30 16059 N 1436.71 1.32449 -0.85411 0
M  V30 16060 C 1437.94 2.01463 -0.471188 0
M  V30 16061 C 1438.36 1.64195 0.931954 0
M  V30 16062 O 1437.71 0.862994 1.60806 0
M  V30 16063 C 1437.76 3.56486 -0.600022 0
M  V30 16064 O 1437.49 3.92414 -1.94789 0
M  V30 16065 C 1438.99 4.42773 -0.216036 0
M  V30 16066 H 1436.21 0.644914 -0.185275 0
M  V30 16067 H 1438.75 1.6904 -1.1509 0
M  V30 16068 H 1436.91 3.87387 0.0319488 0
M  V30 16069 H 1437.32 4.87133 -1.94427 0
M  V30 16070 H 1438.79 5.50843 -0.357186 0
M  V30 16071 H 1439.27 4.31025 0.843468 0
M  V30 16072 H 1439.88 4.1726 -0.823058 0
M  V30 16073 N 1438.19 0.611994 1.45232 0
M  V30 16074 C 1439.44 0.106467 2.01419 0
M  V30 16075 C 1439.75 -1.2723 1.48566 0
M  V30 16076 O 1440.96 -1.8708 1.96757 0
M  V30 16077 C 1439.42 0.139639 3.59629 0
M  V30 16078 C 1439.02 1.51853 4.21479 0
M  V30 16079 C 1440.77 -0.310417 4.23364 0
M  V30 16080 C 1438.67 1.50785 5.71855 0
M  V30 16081 H 1437.6 0.0360345 0.753138 0
M  V30 16082 H 1440.26 0.767974 1.66657 0
M  V30 16083 H 1438.64 -0.588606 3.91601 0
M  V30 16084 H 1439.81 2.26884 4.01074 0
M  V30 16085 H 1438.13 1.91105 3.69956 0
M  V30 16086 H 1440.72 -0.337656 5.33633 0
M  V30 16087 H 1441.07 -1.33398 3.94348 0
M  V30 16088 H 1441.6 0.364704 3.96125 0
M  V30 16089 H 1438.34 2.50916 6.05575 0
M  V30 16090 H 1437.86 0.800195 5.94438 0
M  V30 16091 H 1439.54 1.23341 6.35135 0
M  V30 16092 N 1439.67 -1.53632 0.351409 0
M  V30 16093 C 1440.62 -2.26782 -0.516983 0
M  V30 16094 C 1441.61 -1.29222 -1.09536 0
M  V30 16095 O 1442.82 -1.46901 -1.04019 0
M  V30 16096 H 1439.19 -0.728783 -0.185417 0
M  V30 16097 H 1441.16 -2.98151 0.121909 0
M  V30 16098 C 1439.91 -3.05943 -1.6521 0
M  V30 16099 H 1439.24 -3.80848 -1.21633 0
M  V30 16100 H 1440.68 -3.60328 -2.23472 0
M  V30 16101 C 1439.13 -2.15917 -2.58614 0
M  V30 16102 O 1439.66 -1.76049 -3.61067 0
M  V30 16103 N 1437.87 -1.80837 -2.27478 0
M  V30 16104 H 1437.42 -2.13456 -1.44202 0
M  V30 16105 H 1437.38 -1.20886 -2.90231 0
M  V30 16106 N 1441.15 -0.0802183 -1.57396 0
M  V30 16107 C 1442.1 0.901668 -2.14412 0
M  V30 16108 C 1443.09 1.30247 -1.08314 0
M  V30 16109 O 1444.3 1.27873 -1.26682 0
M  V30 16110 H 1440.67 0.308748 -0.685696 0
M  V30 16111 H 1442.64 0.395934 -2.95762 0
M  V30 16112 C 1441.39 2.15665 -2.72734 0
M  V30 16113 H 1440.71 1.8571 -3.54051 0
M  V30 16114 H 1442.15 2.82461 -3.16214 0
M  V30 16115 C 1440.61 2.9208 -1.67901 0
M  V30 16116 O 1441.14 3.86087 -1.10903 0
M  V30 16117 N 1439.35 2.55343 -1.38739 0
M  V30 16118 H 1438.9 1.78969 -1.85278 0
M  V30 16119 H 1438.85 3.06773 -0.688317 0
M  V30 16120 N 1442.63 1.56409 0.193394 0
M  V30 16121 C 1444.04 1.70624 0.757915 0
M  V30 16122 C 1444.39 0.687074 1.83776 0
M  V30 16123 O 1443.51 -0.15616 2.15836 0
M  V30 16124 C 1444.11 3.09352 1.38156 0
M  V30 16125 C 1442.67 3.25326 1.89315 0
M  V30 16126 C 1441.81 2.66576 0.763727 0
M  V30 16127 H 1444.76 1.58668 -0.0317034 0
M  V30 16128 H 1444.79 3.06776 2.25098 0
M  V30 16129 H 1444.3 3.83506 0.595398 0
M  V30 16130 H 1442.4 2.5609 2.70644 0
M  V30 16131 H 1442.51 4.32848 2.05376 0
M  V30 16132 H 1440.88 2.25797 1.17846 0
M  V30 16133 H 1441.66 3.43298 -0.0102243 0
M  V30 16134 N 1444.1 -0.461169 1.50702 0
M  V30 16135 C 1445.35 -1.21431 1.62427 0
M  V30 16136 C 1445.68 -1.91406 0.328228 0
M  V30 16137 O 1444.96 -1.82563 -0.670898 0
M  V30 16138 C 1445.24 -2.25016 2.8114 0
M  V30 16139 C 1445.09 -1.5928 4.20654 0
M  V30 16140 C 1446.41 -3.26234 2.95397 0
M  V30 16141 H 1443.53 -0.440113 0.59116 0
M  V30 16142 H 1446.17 -0.506726 1.83118 0
M  V30 16143 H 1444.32 -2.85363 2.63629 0
M  V30 16144 H 1446 -1.02454 4.49779 0
M  V30 16145 H 1444.24 -0.895665 4.24453 0
M  V30 16146 H 1444.91 -2.34602 4.99666 0
M  V30 16147 H 1447.39 -2.7592 3.1146 0
M  V30 16148 H 1446.26 -3.96031 3.80067 0
M  V30 16149 H 1446.52 -3.90943 2.06436 0
M  V30 16150 N 1445.58 -1.40446 -0.715026 0
M  V30 16151 C 1446.83 -1.38059 -1.47046 0
M  V30 16152 C 1447.14 0.0139125 -1.95595 0
M  V30 16153 O 1448.35 0.160398 -2.71026 0
M  V30 16154 C 1446.81 -2.42646 -2.65802 0
M  V30 16155 C 1446.41 -3.8791 -2.2412 0
M  V30 16156 C 1448.16 -2.49367 -3.43535 0
M  V30 16157 C 1446.06 -4.84092 -3.39719 0
M  V30 16158 H 1444.99 -0.513341 -0.552265 0
M  V30 16159 H 1447.65 -1.66185 -0.778126 0
M  V30 16160 H 1446.03 -2.07621 -3.37208 0
M  V30 16161 H 1447.2 -4.32082 -1.6013 0
M  V30 16162 H 1445.52 -3.8467 -1.5943 0
M  V30 16163 H 1448.11 -3.18414 -4.29554 0
M  V30 16164 H 1448.46 -1.52436 -3.87388 0
M  V30 16165 H 1448.99 -2.83386 -2.79173 0
M  V30 16166 H 1445.73 -5.82358 -3.00898 0
M  V30 16167 H 1445.25 -4.44584 -4.02623 0
M  V30 16168 H 1446.93 -5.03939 -4.05776 0
M  V30 16169 N 1447.06 0.947303 -1.25952 0
M  V30 16170 C 1448.34 1.66964 -1.01894 0
M  V30 16171 C 1448.72 2.06192 0.452555 0
M  V30 16172 O 1448.06 1.78098 1.43156 0
M  V30 16173 C 1448.27 2.88643 -1.96179 0
M  V30 16174 C 1449.62 3.60432 -2.24441 0
M  V30 16175 O 1450.65 2.98737 -1.93996 0
M  V30 16176 O 1449.51 4.7154 -2.76247 0
M  V30 16177 H 1446.6 0.730875 -0.386976 0
M  V30 16178 H 1449.15 0.999577 -1.37137 0
M  V30 16179 H 1447.92 2.565 -2.95506 0
M  V30 16180 H 1447.54 3.63377 -1.61379 0
M  V30 16181 N 1448.54 1.07657 1.15099 0
M  V30 16182 C 1449.79 0.801609 1.85958 0
M  V30 16183 C 1450.11 -0.672415 1.82507 0
M  V30 16184 O 1449.37 -1.50958 1.2454 0
M  V30 16185 C 1449.67 1.25903 3.3449 0
M  V30 16186 C 1449.33 2.73954 3.58134 0
M  V30 16187 C 1448 3.14392 3.64296 0
M  V30 16188 C 1450.35 3.69502 3.67584 0
M  V30 16189 C 1447.68 4.49187 3.77422 0
M  V30 16190 C 1450.03 5.04063 3.82235 0
M  V30 16191 C 1448.69 5.44117 3.86643 0
M  V30 16192 H 1447.96 0.293329 0.68047 0
M  V30 16193 H 1450.61 1.34814 1.36005 0
M  V30 16194 H 1448.91 0.631943 3.8667 0
M  V30 16195 H 1450.61 1.02314 3.87728 0
M  V30 16196 H 1447.2 2.41652 3.53981 0
M  V30 16197 H 1451.38 3.39385 3.62121 0
M  V30 16198 H 1446.64 4.79685 3.79094 0
M  V30 16199 H 1450.81 5.7797 3.88489 0
M  V30 16200 H 1448.44 6.48567 3.96567 0
M  V30 16201 N 1450.02 -1.31994 0.861122 0
M  V30 16202 C 1450.96 -2.30666 0.299352 0
M  V30 16203 C 1451.96 -1.59133 -0.580779 0
M  V30 16204 O 1453.16 -1.73813 -0.467864 0
M  V30 16205 H 1449.54 -0.747932 0.0781091 0
M  V30 16206 H 1451.51 -2.7553 1.14567 0
M  V30 16207 C 1450.26 -3.44203 -0.491883 0
M  V30 16208 H 1449.58 -3.99412 0.17608 0
M  V30 16209 H 1451.02 -4.15384 -0.850434 0
M  V30 16210 C 1449.48 -2.92042 -1.67967 0
M  V30 16211 O 1450.01 -2.90073 -2.77886 0
M  V30 16212 N 1448.22 -2.48358 -1.50887 0
M  V30 16213 H 1447.76 -2.50159 -0.614683 0
M  V30 16214 H 1447.72 -2.13813 -2.30503 0
M  V30 16215 N 1451.49 -0.619688 -1.44906 0
M  V30 16216 C 1452.74 -0.119633 -2.02146 0
M  V30 16217 C 1453.07 1.25432 -1.48651 0
M  V30 16218 O 1452.32 1.84372 -0.656155 0
M  V30 16219 C 1452.62 -0.0432891 -3.57374 0
M  V30 16220 C 1452.29 -1.35451 -4.30074 0
M  V30 16221 C 1450.95 -1.71365 -4.49653 0
M  V30 16222 C 1453.3 -2.22053 -4.71532 0
M  V30 16223 C 1450.63 -2.93611 -5.07946 0
M  V30 16224 C 1452.98 -3.43559 -5.31178 0
M  V30 16225 C 1451.65 -3.7971 -5.48977 0
M  V30 16226 H 1450.92 -0.0437769 -0.739706 0
M  V30 16227 H 1453.56 -0.803722 -1.73818 0
M  V30 16228 H 1451.87 0.72412 -3.8505 0
M  V30 16229 H 1453.57 0.359964 -3.99381 0
M  V30 16230 H 1450.16 -1.06499 -4.15158 0
M  V30 16231 H 1454.34 -1.95603 -4.56129 0
M  V30 16232 H 1449.6 -3.21712 -5.19915 0
M  V30 16233 H 1453.77 -4.10906 -5.62254 0
M  V30 16234 H 1451.4 -4.7452 -5.93915 0
M  V30 16235 N 1452.97 1.53444 -0.359552 0
M  V30 16236 C 1454.25 1.93467 0.288106 0
M  V30 16237 C 1454.63 1.29256 1.66901 0
M  V30 16238 O 1453.98 0.449402 2.24037 0
M  V30 16239 C 1454.19 3.47297 0.344359 0
M  V30 16240 C 1455.54 4.20515 0.587585 0
M  V30 16241 O 1456.56 3.53646 0.425818 0
M  V30 16242 O 1455.42 5.39003 0.902119 0
M  V30 16243 H 1452.51 0.809033 0.171451 0
M  V30 16244 H 1455.06 1.64625 -0.411896 0
M  V30 16245 H 1453.83 3.86292 -0.624064 0
M  V30 16246 H 1453.45 3.82353 1.0905 0
M  V30 16247 N 1454.45 0.0885642 1.57351 0
M  V30 16248 C 1455.68 -0.588641 1.98871 0
M  V30 16249 C 1456.1 -1.61333 0.967125 0
M  V30 16250 O 1455.46 -1.81183 -0.0652149 0
M  V30 16251 C 1455.51 -1.21877 3.39379 0
M  V30 16252 O 1454.61 -2.33462 3.39955 0
M  V30 16253 H 1453.95 -0.149938 0.64685 0
M  V30 16254 H 1456.48 0.168043 2.03909 0
M  V30 16255 H 1456.49 -1.56163 3.76931 0
M  V30 16256 H 1455.17 -0.468037 4.13258 0
M  V30 16257 H 1453.74 -2.00844 3.14191 0
M  V30 16258 N 1455.93 -1.56509 -0.185096 0
M  V30 16259 C 1457.21 -1.72055 -0.930398 0
M  V30 16260 C 1457.59 -0.646145 -2.00968 0
M  V30 16261 O 1456.93 0.34129 -2.25937 0
M  V30 16262 C 1457.14 -3.14752 -1.50771 0
M  V30 16263 C 1458.49 -3.75292 -1.98597 0
M  V30 16264 O 1459.52 -3.17944 -1.60593 0
M  V30 16265 O 1458.37 -4.7596 -2.68561 0
M  V30 16266 H 1455.47 -0.702118 -0.436989 0
M  V30 16267 H 1458.01 -1.68806 -0.174007 0
M  V30 16268 H 1456.79 -3.84426 -0.730236 0
M  V30 16269 H 1456.41 -3.22272 -2.32866 0
M  V30 16270 N 1457.41 0.45317 -1.50944 0
M  V30 16271 C 1458.66 1.20076 -1.62064 0
M  V30 16272 C 1458.97 1.92709 -0.335034 0
M  V30 16273 O 1460.17 2.69543 -0.32538 0
M  V30 16274 C 1458.63 2.18283 -2.86148 0
M  V30 16275 C 1458.24 1.5137 -4.21653 0
M  V30 16276 C 1459.98 2.93572 -3.0662 0
M  V30 16277 C 1457.89 2.47968 -5.36904 0
M  V30 16278 H 1456.82 0.451894 -0.603579 0
M  V30 16279 H 1459.47 0.46937 -1.77396 0
M  V30 16280 H 1457.85 2.94789 -2.64415 0
M  V30 16281 H 1459.03 0.805295 -4.53709 0
M  V30 16282 H 1457.34 0.882935 -4.06931 0
M  V30 16283 H 1459.94 3.65903 -3.89897 0
M  V30 16284 H 1460.28 3.54003 -2.1906 0
M  V30 16285 H 1460.81 2.24175 -3.28619 0
M  V30 16286 H 1457.55 1.92249 -6.26674 0
M  V30 16287 H 1457.07 3.16907 -5.09244 0
M  V30 16288 H 1458.75 3.09428 -5.6821 0
M  V30 16289 N 1458.88 1.40823 0.707568 0
M  V30 16290 C 1460.13 1.39259 1.46463 0
M  V30 16291 C 1460.45 -0.00157854 1.95 0
M  V30 16292 O 1459.72 -0.957723 1.70893 0
M  V30 16293 H 1458.3 0.512558 0.543409 0
M  V30 16294 H 1460.97 1.75952 0.838269 0
M  V30 16295 H 1460.06 2.07243 2.3336 0
M  V30 16296 N 1460.36 -0.94061 1.26453 0
M  V30 16297 C 1461.31 -2.06073 1.07873 0
M  V30 16298 C 1462.3 -1.69399 0.0055001 0
M  V30 16299 O 1463.51 -1.79267 0.162224 0
M  V30 16300 H 1459.89 -0.674748 0.331993 0
M  V30 16301 H 1461.86 -2.18895 2.02799 0
M  V30 16302 C 1460.61 -3.39971 0.729054 0
M  V30 16303 H 1459.93 -3.68667 1.54675 0
M  V30 16304 H 1461.37 -4.1916 0.638844 0
M  V30 16305 C 1459.83 -3.32114 -0.565835 0
M  V30 16306 O 1460.36 -3.68287 -1.60399 0
M  V30 16307 N 1458.56 -2.85218 -0.556679 0
M  V30 16308 H 1458.11 -2.55979 0.288541 0
M  V30 16309 H 1458.07 -2.80344 -1.42318 0
M  V30 16310 N 1461.84 -1.08266 -1.14527 0
M  V30 16311 C 1463.07 -0.83288 -1.89396 0
M  V30 16312 C 1463.48 0.614823 -1.78509 0
M  V30 16313 O 1462.84 1.42239 -1.14343 0
M  V30 16314 C 1462.89 -1.244 -3.39421 0
M  V30 16315 O 1462.61 -2.63491 -3.50006 0
M  V30 16316 C 1464.11 -1.02488 -4.3129 0
M  V30 16317 H 1461.33 -0.300474 -0.599964 0
M  V30 16318 H 1463.88 -1.44155 -1.4505 0
M  V30 16319 H 1462.03 -0.679466 -3.81395 0
M  V30 16320 H 1462.45 -2.80517 -4.43182 0
M  V30 16321 H 1463.92 -1.36194 -5.34935 0
M  V30 16322 H 1464.4 0.0381961 -4.39183 0
M  V30 16323 H 1465 -1.57477 -3.95071 0
M  V30 16324 N 1463.32 1.31536 -0.86811 0
M  V30 16325 C 1464.56 1.98573 -0.484592 0
M  V30 16326 C 1464.92 1.6713 0.945066 0
M  V30 16327 O 1466.12 2.27364 1.43384 0
M  V30 16328 C 1464.4 3.49817 -0.732305 0
M  V30 16329 S 1465.95 4.36503 -0.448369 0
M  V30 16330 H 1462.77 0.687584 -0.180969 0
M  V30 16331 H 1465.37 1.59976 -1.12373 0
M  V30 16332 H 1464.08 3.70191 -1.77163 0
M  V30 16333 H 1463.61 3.93318 -0.0800886 0
M  V30 16334 H 1465.62 4.90947 0.720116 0
M  V30 16335 N 1464.8 0.627364 1.44575 0
M  V30 16336 C 1465.71 -0.0811184 2.3446 0
M  V30 16337 C 1466.72 -0.839668 1.52399 0
M  V30 16338 O 1467.9 -0.792784 1.8514 0
M  V30 16339 C 1464.96 -1.05296 3.30323 0
M  V30 16340 C 1464.03 -0.294201 4.28291 0
M  V30 16341 C 1463.26 -1.21975 5.19575 0
M  V30 16342 O 1463.48 -2.45834 5.14706 0
M  V30 16343 O 1462.42 -0.70611 5.97744 0
M  V30 16344 H 1466.24 0.658067 2.96485 0
M  V30 16345 H 1463.83 0.387565 1.44285 0
M  V30 16346 H 1465.71 -1.61218 3.89341 0
M  V30 16347 H 1464.38 -1.77283 2.70837 0
M  V30 16348 H 1463.29 0.307969 3.7283 0
M  V30 16349 H 1464.62 0.385567 4.90687 0
M  V30 16350 N 1466.28 -1.53251 0.367684 0
M  V30 16351 C 1467.5 -2.0618 -0.224645 0
M  V30 16352 C 1467.93 -1.23927 -1.41505 0
M  V30 16353 O 1467.28 -0.258858 -1.79443 0
M  V30 16354 C 1467.33 -3.55671 -0.594171 0
M  V30 16355 O 1466.44 -3.76132 -1.69112 0
M  V30 16356 H 1465.78 -0.663218 -0.0322099 0
M  V30 16357 H 1468.31 -1.97646 0.528897 0
M  V30 16358 H 1468.32 -3.98734 -0.864589 0
M  V30 16359 H 1466.99 -4.14982 0.276254 0
M  V30 16360 H 1465.57 -3.44965 -1.41609 0
M  V30 16361 N 1467.75 -0.0969077 -1.57302 0
M  V30 16362 C 1469 0.566373 -1.94418 0
M  V30 16363 C 1469.33 1.68078 -0.978769 0
M  V30 16364 O 1468.58 1.957 0.0013214 0
M  V30 16365 C 1468.88 1.15972 -3.38061 0
M  V30 16366 C 1468.55 0.16892 -4.50583 0
M  V30 16367 C 1467.21 -0.103587 -4.81088 0
M  V30 16368 C 1469.56 -0.507513 -5.18723 0
M  V30 16369 C 1466.89 -1.05919 -5.7706 0
M  V30 16370 C 1469.24 -1.4516 -6.1572 0
M  V30 16371 C 1467.91 -1.73232 -6.44629 0
M  V30 16372 H 1467.18 0.207251 -0.711427 0
M  V30 16373 H 1469.82 -0.173125 -1.90716 0
M  V30 16374 H 1468.13 1.97551 -3.3835 0
M  V30 16375 H 1469.83 1.68066 -3.64081 0
M  V30 16376 H 1466.42 0.391501 -4.26808 0
M  V30 16377 H 1470.6 -0.310127 -4.9533 0
M  V30 16378 H 1465.86 -1.28366 -5.97773 0
M  V30 16379 H 1470.03 -1.98155 -6.67613 0
M  V30 16380 H 1467.66 -2.47436 -7.18804 0
M  V30 16381 N 1469.23 1.56605 0.176793 0
M  V30 16382 C 1470.18 1.95985 1.21896 0
M  V30 16383 C 1471.15 0.822983 1.44278 0
M  V30 16384 O 1472.33 1.08266 1.57109 0
M  V30 16385 C 1469.47 2.32029 2.55454 0
M  V30 16386 C 1468.59 3.58867 2.40497 0
M  V30 16387 C 1467.72 3.84148 3.66884 0
M  V30 16388 C 1466.76 5.04352 3.46837 0
M  V30 16389 N 1465.9 5.25794 4.6528 0
M  V30 16390 H 1470.74 2.84829 0.876137 0
M  V30 16391 H 1468.27 1.4094 0.421221 0
M  V30 16392 H 1470.23 2.50947 3.33289 0
M  V30 16393 H 1468.86 1.46301 2.87743 0
M  V30 16394 H 1467.91 3.47893 1.53866 0
M  V30 16395 H 1469.23 4.46859 2.21627 0
M  V30 16396 H 1468.38 4.03404 4.53155 0
M  V30 16397 H 1467.12 2.9452 3.88727 0
M  V30 16398 H 1466.12 4.84999 2.58952 0
M  V30 16399 H 1467.35 5.95505 3.26421 0
M  V30 16400 H 1465.3 4.39117 4.87352 0
M  V30 16401 H 1465.21 6.07999 4.49303 0
M  V30 16402 H 1466.48 5.49524 5.5285 0
M  V30 16403 N 1470.71 -0.445159 1.51182 0
M  V30 16404 C 1471.94 -1.2161 1.67016 0
M  V30 16405 C 1472.35 -1.85671 0.363705 0
M  V30 16406 O 1471.69 -1.71165 -0.666963 0
M  V30 16407 C 1471.75 -2.34705 2.72312 0
M  V30 16408 C 1471.42 -1.91074 4.15138 0
M  V30 16409 C 1472.41 -1.41857 5.00173 0
M  V30 16410 C 1470.1 -1.99004 4.61197 0
M  V30 16411 C 1472.09 -1.01146 6.29324 0
M  V30 16412 C 1469.78 -1.57904 5.90347 0
M  V30 16413 C 1470.78 -1.09056 6.74237 0
M  V30 16414 O 1470.47 -0.685367 8.00973 0
M  V30 16415 H 1470.2 -0.372925 0.563829 0
M  V30 16416 H 1472.75 -0.534708 1.98318 0
M  V30 16417 H 1470.98 -3.06097 2.36309 0
M  V30 16418 H 1472.67 -2.96594 2.77104 0
M  V30 16419 H 1473.44 -1.35132 4.65794 0
M  V30 16420 H 1469.32 -2.35972 3.96028 0
M  V30 16421 H 1472.86 -0.629486 6.94754 0
M  V30 16422 H 1468.76 -1.64297 6.24241 0
M  V30 16423 H 1469.52 -0.811915 8.14463 0
M  V30 16424 N 1472.19 -1.41197 -0.700089 0
M  V30 16425 C 1473.12 -1.45456 -1.8266 0
M  V30 16426 C 1474.1 -0.313719 -1.67182 0
M  V30 16427 O 1475.28 -0.524528 -1.86982 0
M  V30 16428 C 1472.41 -1.33161 -3.20758 0
M  V30 16429 C 1471.37 -2.4501 -3.50933 0
M  V30 16430 C 1470.69 -2.17782 -4.88339 0
M  V30 16431 C 1471.99 -3.87352 -3.50365 0
M  V30 16432 H 1473.69 -2.39735 -1.79353 0
M  V30 16433 H 1471.23 -1.1539 -0.861465 0
M  V30 16434 H 1473.19 -1.34754 -3.99274 0
M  V30 16435 H 1471.91 -0.353646 -3.2468 0
M  V30 16436 H 1470.57 -2.42692 -2.74766 0
M  V30 16437 H 1470.22 -1.1834 -4.88881 0
M  V30 16438 H 1469.92 -2.92728 -5.09494 0
M  V30 16439 H 1471.44 -2.21083 -5.6917 0
M  V30 16440 H 1472.86 -3.9141 -4.18893 0
M  V30 16441 H 1471.25 -4.61944 -3.83051 0
M  V30 16442 H 1472.32 -4.15827 -2.4943 0
M  V30 16443 N 1473.67 0.933891 -1.2695 0
M  V30 16444 C 1474.94 1.65874 -1.0366 0
M  V30 16445 C 1475.32 2.0666 0.43066 0
M  V30 16446 O 1474.67 1.79606 1.41259 0
M  V30 16447 C 1474.88 2.86546 -1.99229 0
M  V30 16448 C 1476.23 3.58031 -2.28251 0
M  V30 16449 O 1477.25 2.96663 -1.97154 0
M  V30 16450 O 1476.11 4.68583 -2.81233 0
M  V30 16451 H 1473.21 0.72673 -0.394706 0
M  V30 16452 H 1475.75 0.984975 -1.38189 0
M  V30 16453 H 1474.52 2.53351 -2.9821 0
M  V30 16454 H 1474.15 3.61645 -1.65224 0
M  V30 16455 N 1475.14 1.08871 1.13951 0
M  V30 16456 C 1476.08 0.680849 2.18854 0
M  V30 16457 C 1477.09 -0.274456 1.6047 0
M  V30 16458 O 1478.28 -0.0613804 1.78394 0
M  V30 16459 C 1475.38 -0.0182788 3.38895 0
M  V30 16460 C 1474.55 0.957125 4.268 0
M  V30 16461 C 1473.61 0.29245 5.25387 0
M  V30 16462 O 1472.64 0.938329 5.61413 0
M  V30 16463 N 1473.84 -0.955738 5.72578 0
M  V30 16464 H 1476.6 1.58334 2.54461 0
M  V30 16465 H 1474.16 0.975417 1.29218 0
M  V30 16466 H 1476.16 -0.474001 4.01915 0
M  V30 16467 H 1474.73 -0.822932 3.01574 0
M  V30 16468 H 1473.95 1.59156 3.60642 0
M  V30 16469 H 1475.23 1.61792 4.82391 0
M  V30 16470 H 1474.63 -1.50014 5.45447 0
M  V30 16471 H 1473.19 -1.35488 6.37563 0
M  V30 16472 N 1476.62 -1.31073 0.875073 0
M  V30 16473 C 1477.85 -2.01223 0.502383 0
M  V30 16474 C 1478.27 -1.65223 -0.899053 0
M  V30 16475 O 1477.63 -0.863559 -1.59412 0
M  V30 16476 C 1477.68 -3.54269 0.672747 0
M  V30 16477 O 1476.78 -4.11409 -0.285718 0
M  V30 16478 H 1476.12 -0.633422 0.199181 0
M  V30 16479 H 1478.65 -1.67152 1.17989 0
M  V30 16480 H 1478.66 -4.04027 0.567973 0
M  V30 16481 H 1477.34 -3.79811 1.69459 0
M  V30 16482 H 1475.91 -3.72654 -0.135472 0
M  V30 16483 N 1478.1 -0.635022 -1.4424 0
M  V30 16484 C 1479.33 -0.14826 -2.06368 0
M  V30 16485 C 1479.74 1.17875 -1.47482 0
M  V30 16486 O 1479.1 1.72384 -0.599168 0
M  V30 16487 C 1479.15 -0.031519 -3.61486 0
M  V30 16488 O 1478.87 -1.30605 -4.18179 0
M  V30 16489 C 1480.37 0.483479 -4.40656 0
M  V30 16490 H 1477.59 -0.081472 -0.666036 0
M  V30 16491 H 1480.14 -0.870526 -1.85046 0
M  V30 16492 H 1478.29 0.641208 -3.82057 0
M  V30 16493 H 1478.71 -1.15341 -5.11661 0
M  V30 16494 H 1480.18 0.514164 -5.496 0
M  V30 16495 H 1480.66 1.51129 -4.12379 0
M  V30 16496 H 1481.26 -0.156131 -4.25013 0
M  V30 16497 N 1479.58 1.53054 -0.375806 0
M  V30 16498 C 1480.53 2.2605 0.46582 0
M  V30 16499 C 1481.5 1.27123 1.06906 0
M  V30 16500 O 1482.68 1.55926 1.09963 0
M  V30 16501 C 1479.82 3.06066 1.59429 0
M  V30 16502 C 1478.93 4.19901 1.01523 0
M  V30 16503 C 1478.07 4.87339 2.11363 0
M  V30 16504 C 1477.11 5.93189 1.50976 0
M  V30 16505 N 1476.24 6.54276 2.54692 0
M  V30 16506 H 1481.08 2.97553 -0.163149 0
M  V30 16507 H 1478.62 1.4681 -0.092282 0
M  V30 16508 H 1480.58 3.50739 2.25915 0
M  V30 16509 H 1479.21 2.36799 2.19377 0
M  V30 16510 H 1478.26 3.7964 0.240346 0
M  V30 16511 H 1479.57 4.95935 0.533812 0
M  V30 16512 H 1478.73 5.35247 2.85649 0
M  V30 16513 H 1477.47 4.10799 2.6286 0
M  V30 16514 H 1476.47 5.44632 0.752095 0
M  V30 16515 H 1477.7 6.71654 1.00291 0
M  V30 16516 H 1475.64 5.80584 3.05383 0
M  V30 16517 H 1475.56 7.2588 2.11267 0
M  V30 16518 H 1476.83 7.06831 3.28648 0
M  V30 16519 N 1481.06 0.105248 1.57248 0
M  V30 16520 C 1482.28 -0.564157 1.9906 0
M  V30 16521 C 1482.7 -1.61092 0.984624 0
M  V30 16522 O 1482.06 -1.82484 -0.0244031 0
M  V30 16523 C 1482.11 -1.20272 3.40906 0
M  V30 16524 O 1481.83 -0.197815 4.37653 0
M  V30 16525 C 1483.33 -1.95677 3.97776 0
M  V30 16526 H 1480.55 -0.150468 0.653912 0
M  V30 16527 H 1483.09 0.187532 2.03638 0
M  V30 16528 H 1481.25 -1.90528 3.3731 0
M  V30 16529 H 1481.66 -0.659998 5.20331 0
M  V30 16530 H 1483.14 -2.35702 4.99148 0
M  V30 16531 H 1483.61 -2.82661 3.36154 0
M  V30 16532 H 1484.22 -1.30215 4.04876 0
M  V30 16533 N 1482.53 -1.56697 -0.168486 0
M  V30 16534 C 1483.47 -1.93197 -1.23319 0
M  V30 16535 C 1484.48 -0.825373 -1.40326 0
M  V30 16536 O 1485.67 -1.10381 -1.40279 0
M  V30 16537 C 1482.77 -2.17205 -2.60145 0
M  V30 16538 C 1481.94 -3.48442 -2.64399 0
M  V30 16539 C 1481 -3.61244 -3.82609 0
M  V30 16540 O 1480.03 -4.33837 -3.68476 0
M  V30 16541 N 1481.23 -2.96304 -4.99183 0
M  V30 16542 H 1483.99 -2.85128 -0.923138 0
M  V30 16543 H 1481.55 -1.57887 -0.358229 0
M  V30 16544 H 1483.55 -2.23031 -3.37697 0
M  V30 16545 H 1482.12 -1.31643 -2.83529 0
M  V30 16546 H 1481.34 -3.54248 -1.72922 0
M  V30 16547 H 1482.62 -4.34795 -2.64255 0
M  V30 16548 H 1482.02 -2.37203 -5.13567 0
M  V30 16549 H 1480.58 -3.07722 -5.74587 0
M  V30 16550 N 1484.01 0.437135 -1.51416 0
M  V30 16551 C 1484.94 1.54894 -1.68939 0
M  V30 16552 C 1485.96 1.52493 -0.570059 0
M  V30 16553 O 1487.15 1.57266 -0.844381 0
M  V30 16554 C 1484.25 2.9381 -1.68904 0
M  V30 16555 C 1483.42 3.20714 -2.97425 0
M  V30 16556 C 1482.48 4.39355 -2.89575 0
M  V30 16557 O 1481.5 4.37999 -3.63519 0
M  V30 16558 N 1482.71 5.42931 -2.05441 0
M  V30 16559 H 1485.47 1.40267 -2.64849 0
M  V30 16560 H 1483.03 0.626075 -1.49305 0
M  V30 16561 H 1485.02 3.71201 -1.61221 0
M  V30 16562 H 1483.59 3.02034 -0.805871 0
M  V30 16563 H 1482.81 2.31621 -3.18975 0
M  V30 16564 H 1484.1 3.35516 -3.825 0
M  V30 16565 H 1483.5 5.4687 -1.44742 0
M  V30 16566 H 1482.06 6.19173 -2.03636 0
M  V30 16567 N 1485.49 1.41566 0.692592 0
M  V30 16568 C 1486.44 1.40114 1.79867 0
M  V30 16569 C 1487.42 0.275064 1.58531 0
M  V30 16570 O 1488.62 0.515959 1.69313 0
M  V30 16571 C 1485.75 1.28865 3.18196 0
M  V30 16572 C 1484.83 2.46347 3.45216 0
M  V30 16573 N 1485.22 3.71808 3.42918 0
M  V30 16574 C 1483.52 2.40224 3.75777 0
M  V30 16575 C 1484.22 4.49743 3.68926 0
M  V30 16576 N 1483.2 3.79898 3.88817 0
M  V30 16577 H 1487 2.35032 1.76457 0
M  V30 16578 H 1484.51 1.35663 0.892705 0
M  V30 16579 H 1486.51 1.25907 3.97433 0
M  V30 16580 H 1485.17 0.349339 3.22815 0
M  V30 16581 H 1486.18 4.04652 3.2323 0
M  V30 16582 H 1482.86 1.54781 3.87749 0
M  V30 16583 H 1484.25 5.58683 3.7326 0
M  V30 16584 N 1486.97 -0.927146 1.27443 0
M  V30 16585 C 1487.92 -2.02783 1.10216 0
M  V30 16586 C 1488.89 -1.661 0.00307842 0
M  V30 16587 O 1490.07 -1.90081 0.165508 0
M  V30 16588 C 1487.21 -3.36718 0.755984 0
M  V30 16589 C 1486.32 -3.86353 1.93276 0
M  V30 16590 C 1485.46 -5.08737 1.52841 0
M  V30 16591 C 1484.5 -5.50669 2.67263 0
M  V30 16592 N 1483.63 -6.6425 2.27413 0
M  V30 16593 H 1488.47 -2.16851 2.04401 0
M  V30 16594 H 1486.01 -1.06232 1.0175 0
M  V30 16595 H 1487.97 -4.13741 0.53609 0
M  V30 16596 H 1486.6 -3.22456 -0.148909 0
M  V30 16597 H 1485.65 -3.05604 2.26518 0
M  V30 16598 H 1486.96 -4.13401 2.79108 0
M  V30 16599 H 1486.12 -5.93263 1.26979 0
M  V30 16600 H 1484.86 -4.83467 0.641187 0
M  V30 16601 H 1483.86 -4.64692 2.93839 0
M  V30 16602 H 1485.09 -5.77934 3.56607 0
M  V30 16603 H 1483.03 -6.40636 1.41143 0
M  V30 16604 H 1482.95 -6.90955 3.06784 0
M  V30 16605 H 1484.22 -7.52115 2.048 0
M  V30 16606 N 1488.45 -1.09474 -1.13372 0
M  V30 16607 C 1489.69 -0.832323 -1.84933 0
M  V30 16608 C 1490.03 0.640469 -1.83335 0
M  V30 16609 O 1489.3 1.47158 -1.2718 0
M  V30 16610 C 1489.58 -1.36876 -3.33072 0
M  V30 16611 C 1489.44 -2.90769 -3.43181 0
M  V30 16612 C 1490.76 -1.00294 -4.2852 0
M  V30 16613 H 1487.87 -0.30382 -0.671463 0
M  V30 16614 H 1490.52 -1.35622 -1.33066 0
M  V30 16615 H 1488.67 -0.923134 -3.77373 0
M  V30 16616 H 1490.34 -3.43784 -3.07588 0
M  V30 16617 H 1488.58 -3.27876 -2.84042 0
M  V30 16618 H 1489.25 -3.23381 -4.47358 0
M  V30 16619 H 1491.73 -1.38729 -3.92293 0
M  V30 16620 H 1490.6 -1.40533 -5.30605 0
M  V30 16621 H 1490.87 0.0888133 -4.42011 0
M  V30 16622 N 1489.92 1.30607 -0.882012 0
M  V30 16623 C 1490.87 2.2821 -0.344826 0
M  V30 16624 C 1491.84 1.56254 0.563361 0
M  V30 16625 O 1493.03 1.84336 0.492416 0
M  V30 16626 C 1490.17 3.42319 0.437216 0
M  V30 16627 C 1489.28 4.29098 -0.499851 0
M  V30 16628 C 1488.41 5.30366 0.297497 0
M  V30 16629 C 1487.45 6.08795 -0.63523 0
M  V30 16630 N 1486.59 7.01986 0.12661 0
M  V30 16631 H 1491.43 2.73543 -1.18229 0
M  V30 16632 H 1488.97 1.34556 -0.594392 0
M  V30 16633 H 1490.93 4.07232 0.906521 0
M  V30 16634 H 1489.56 2.98063 1.23928 0
M  V30 16635 H 1488.61 3.6452 -1.08764 0
M  V30 16636 H 1489.92 4.83787 -1.21454 0
M  V30 16637 H 1489.07 6.01013 0.828786 0
M  V30 16638 H 1487.81 4.76364 1.04542 0
M  V30 16639 H 1486.82 5.37028 -1.17817 0
M  V30 16640 H 1488.04 6.64885 -1.3822 0
M  V30 16641 H 1485.99 6.50376 0.857125 0
M  V30 16642 H 1485.91 7.5415 -0.528512 0
M  V30 16643 H 1487.17 7.76879 0.638738 0
M  V30 16644 N 1491.4 0.642663 1.43901 0
M  V30 16645 C 1492.33 -0.0938945 2.29008 0
M  V30 16646 C 1493.35 -0.797561 1.41925 0
M  V30 16647 O 1494.54 -0.65708 1.65966 0
M  V30 16648 C 1491.64 -1.15564 3.18588 0
M  V30 16649 C 1490.81 -0.532208 4.3415 0
M  V30 16650 C 1489.87 -1.48943 5.0468 0
M  V30 16651 O 1488.89 -1.00211 5.60309 0
M  V30 16652 N 1490.1 -2.82362 5.072 0
M  V30 16653 H 1492.86 0.636539 2.92862 0
M  V30 16654 H 1490.42 0.484665 1.54475 0
M  V30 16655 H 1492.41 -1.79658 3.62636 0
M  V30 16656 H 1490.98 -1.78816 2.56405 0
M  V30 16657 H 1490.2 0.287598 3.93149 0
M  V30 16658 H 1491.49 -0.0965526 5.08708 0
M  V30 16659 H 1490.89 -3.24524 4.63358 0
M  V30 16660 H 1489.45 -3.41786 5.55001 0
M  V30 16661 N 1492.88 -1.52852 0.383918 0
M  V30 16662 C 1493.81 -2.23927 -0.488816 0
M  V30 16663 C 1494.83 -1.2598 -1.03115 0
M  V30 16664 O 1496.02 -1.5209 -0.934398 0
M  V30 16665 C 1493.12 -2.9378 -1.68957 0
M  V30 16666 C 1492.29 -4.18388 -1.27555 0
M  V30 16667 C 1491.35 -4.71287 -2.3404 0
M  V30 16668 O 1490.37 -5.34511 -1.9567 0
M  V30 16669 N 1491.58 -4.50679 -3.65881 0
M  V30 16670 H 1494.34 -2.99459 0.120084 0
M  V30 16671 H 1491.9 -1.60532 0.210004 0
M  V30 16672 H 1493.89 -3.26071 -2.39707 0
M  V30 16673 H 1492.46 -2.21588 -2.20493 0
M  V30 16674 H 1491.68 -3.92194 -0.397157 0
M  V30 16675 H 1492.97 -4.99361 -0.975506 0
M  V30 16676 H 1492.37 -4.00201 -3.9982 0
M  V30 16677 H 1490.93 -4.87473 -4.32681 0
M  V30 16678 N 1494.36 -0.113586 -1.5719 0
M  V30 16679 C 1495.64 0.588987 -1.86522 0
M  V30 16680 C 1496.02 1.85163 -1.01379 0
M  V30 16681 O 1495.36 2.28318 -0.0912188 0
M  V30 16682 C 1495.57 0.886633 -3.3755 0
M  V30 16683 C 1496.92 1.24206 -4.06027 0
M  V30 16684 O 1497.95 0.977068 -3.42537 0
M  V30 16685 O 1496.81 1.73914 -5.18089 0
M  V30 16686 H 1493.9 0.296637 -0.771968 0
M  V30 16687 H 1496.45 -0.147681 -1.69056 0
M  V30 16688 H 1495.22 -0.00835421 -3.91299 0
M  V30 16689 H 1494.84 1.67865 -3.60426 0
M  V30 16690 N 1495.84 1.56784 0.160173 0
M  V30 16691 C 1496.79 1.98199 1.21737 0
M  V30 16692 C 1497.78 0.872381 1.4521 0
M  V30 16693 O 1498.99 1.05753 1.45658 0
M  V30 16694 H 1495.36 0.630742 0.409474 0
M  V30 16695 H 1497.33 2.86295 0.841289 0
M  V30 16696 C 1496.08 2.36748 2.54648 0
M  V30 16697 H 1495.4 3.21676 2.37413 0
M  V30 16698 H 1496.84 2.69561 3.27281 0
M  V30 16699 C 1495.3 1.2151 3.14224 0
M  V30 16700 O 1495.83 0.508739 3.98465 0
M  V30 16701 N 1494.04 0.982766 2.73478 0
M  V30 16702 H 1493.59 1.55893 2.05073 0
M  V30 16703 H 1493.54 0.213589 3.13674 0
M  V30 16704 N 1497.32 -0.429099 1.51646 0
M  V30 16705 C 1498.56 -1.17958 1.64966 0
M  V30 16706 C 1498.89 -1.90667 0.368755 0
M  V30 16707 O 1498.17 -1.83945 -0.632023 0
M  V30 16708 C 1498.45 -2.19002 2.8585 0
M  V30 16709 C 1498.31 -1.50321 4.23938 0
M  V30 16710 C 1499.62 -3.19895 3.0225 0
M  V30 16711 H 1496.74 -0.427474 0.600362 0
M  V30 16712 H 1499.39 -0.46777 1.84152 0
M  V30 16713 H 1497.54 -2.79707 2.69623 0
M  V30 16714 H 1499.21 -0.928902 4.51851 0
M  V30 16715 H 1497.45 -0.805431 4.26257 0
M  V30 16716 H 1498.12 -2.2395 5.0453 0
M  V30 16717 H 1500.6 -2.69251 3.17243 0
M  V30 16718 H 1499.47 -3.8788 3.88381 0
M  V30 16719 H 1499.73 -3.86477 2.14682 0
M  V30 16720 N 1498.79 -1.41931 -0.685074 0
M  V30 16721 C 1499.7 -1.46985 -1.82846 0
M  V30 16722 C 1500.72 -0.359487 -1.70246 0
M  V30 16723 O 1501.9 -0.608824 -1.91977 0
M  V30 16724 C 1498.96 -1.36001 -3.18912 0
M  V30 16725 C 1498.02 -2.57442 -3.43543 0
M  V30 16726 C 1497.25 -2.46972 -4.73118 0
M  V30 16727 O 1497.48 -1.49999 -5.50324 0
M  V30 16728 O 1496.41 -3.36922 -4.98766 0
M  V30 16729 H 1500.24 -2.4347 -1.81538 0
M  V30 16730 H 1497.82 -1.23583 -0.839497 0
M  V30 16731 H 1499.7 -1.32198 -4.00127 0
M  V30 16732 H 1498.38 -0.426366 -3.2088 0
M  V30 16733 H 1497.29 -2.66821 -2.62217 0
M  V30 16734 H 1498.62 -3.49671 -3.46398 0
M  V30 16735 N 1500.27 0.920374 -1.27933 0
M  V30 16736 C 1501.2 2.02644 -1.07089 0
M  V30 16737 C 1502.22 1.62781 -0.024674 0
M  V30 16738 O 1503.41 1.76491 -0.267023 0
M  V30 16739 C 1500.51 3.33476 -0.603919 0
M  V30 16740 C 1499.68 4.01988 -1.72407 0
M  V30 16741 C 1498.74 5.11098 -1.25159 0
M  V30 16742 O 1497.76 5.3466 -1.95261 0
M  V30 16743 N 1498.97 5.80393 -0.111197 0
M  V30 16744 H 1501.73 2.21085 -2.0234 0
M  V30 16745 H 1499.29 1.09124 -1.19597 0
M  V30 16746 H 1501.28 4.03788 -0.271579 0
M  V30 16747 H 1499.85 3.11554 0.255557 0
M  V30 16748 H 1499.07 3.25312 -2.22633 0
M  V30 16749 H 1500.36 4.4451 -2.47566 0
M  V30 16750 H 1499.76 5.63713 0.473746 0
M  V30 16751 H 1498.32 6.51599 0.161912 0
M  V30 16752 N 1501.75 1.10074 1.1279 0
M  V30 16753 C 1502.68 0.704023 2.1812 0
M  V30 16754 C 1503.69 -0.25742 1.60752 0
M  V30 16755 O 1504.88 -0.0424559 1.7845 0
M  V30 16756 C 1501.98 0.0176666 3.38895 0
M  V30 16757 C 1501.16 1.00234 4.2576 0
M  V30 16758 C 1500.22 0.348158 5.25047 0
M  V30 16759 O 1499.24 0.997821 5.60386 0
M  V30 16760 N 1500.44 -0.894955 5.7356 0
M  V30 16761 H 1503.21 1.61024 2.52767 0
M  V30 16762 H 1500.77 0.989068 1.28176 0
M  V30 16763 H 1502.76 -0.431346 4.02395 0
M  V30 16764 H 1501.33 -0.7909 3.02429 0
M  V30 16765 H 1500.55 1.62972 3.58934 0
M  V30 16766 H 1501.84 1.669 4.80647 0
M  V30 16767 H 1501.24 -1.4422 5.47007 0
M  V30 16768 H 1499.79 -1.28718 6.38964 0
M  V30 16769 N 1503.23 -1.30138 0.888926 0
M  V30 16770 C 1504.5 -1.90831 0.42928 0
M  V30 16771 C 1504.88 -1.80765 -1.09028 0
M  V30 16772 O 1504.23 -1.22741 -1.92735 0
M  V30 16773 C 1504.44 -3.36331 0.931798 0
M  V30 16774 C 1505.79 -4.13393 0.969106 0
M  V30 16775 O 1506.81 -3.45191 0.878731 0
M  V30 16776 O 1505.67 -5.35249 1.10323 0
M  V30 16777 H 1502.77 -0.816401 0.131976 0
M  V30 16778 H 1505.31 -1.38678 0.978086 0
M  V30 16779 H 1504.09 -3.37761 1.97568 0
M  V30 16780 H 1503.71 -3.95945 0.362383 0
M  V30 16781 N 1504.71 -0.650285 -1.43559 0
M  V30 16782 C 1505.65 0.0550615 -2.32535 0
M  V30 16783 C 1506.65 0.81612 -1.48445 0
M  V30 16784 O 1507.85 0.726853 -1.64672 0
M  V30 16785 H 1504.23 0.0365887 -0.751109 0
M  V30 16786 H 1506.2 -0.713146 -2.89753 0
M  V30 16787 C 1504.95 1.00982 -3.32713 0
M  V30 16788 H 1504.27 0.433626 -3.97441 0
M  V30 16789 H 1505.71 1.47249 -3.9761 0
M  V30 16790 C 1504.17 2.10442 -2.63089 0
M  V30 16791 O 1504.7 3.18782 -2.44419 0
M  V30 16792 N 1502.91 1.86915 -2.22511 0
M  V30 16793 H 1502.45 0.988113 -2.37895 0
M  V30 16794 H 1502.41 2.60348 -1.76256 0
M  V30 16795 N 1506.18 1.52647 -0.392018 0
M  V30 16796 C 1507.43 2.01912 0.18958 0
M  V30 16797 C 1507.76 1.27786 1.46234 0
M  V30 16798 O 1507.04 0.379124 1.90769 0
M  V30 16799 C 1507.32 3.57217 0.454734 0
M  V30 16800 C 1507.17 4.4201 -0.833501 0
M  V30 16801 C 1508.49 4.22146 1.24421 0
M  V30 16802 H 1505.61 0.733909 0.0674281 0
M  V30 16803 H 1508.25 1.82685 -0.52212 0
M  V30 16804 H 1506.4 3.73731 1.06101 0
M  V30 16805 H 1508.08 4.37242 -1.47027 0
M  V30 16806 H 1506.32 4.08912 -1.44823 0
M  V30 16807 H 1506.99 5.48701 -0.602585 0
M  V30 16808 H 1509.47 4.09627 0.731093 0
M  V30 16809 H 1508.34 5.30786 1.39848 0
M  V30 16810 H 1508.6 3.7996 2.26016 0
M  V30 16811 N 1507.66 0.121921 1.57128 0
M  V30 16812 C 1508.61 -0.827205 2.15467 0
M  V30 16813 C 1509.58 -1.26155 1.08047 0
M  V30 16814 O 1510.76 -1.33855 1.35969 0
M  V30 16815 C 1507.9 -2.07077 2.76067 0
M  V30 16816 C 1507.02 -1.68452 3.97804 0
M  V30 16817 C 1506.15 -2.87797 4.46482 0
M  V30 16818 C 1505.19 -2.45426 5.60743 0
M  V30 16819 N 1504.33 -3.57695 6.04151 0
M  V30 16820 H 1509.17 -0.322879 2.96246 0
M  V30 16821 H 1506.71 -0.147677 1.46357 0
M  V30 16822 H 1508.66 -2.79943 3.09335 0
M  V30 16823 H 1507.29 -2.54963 1.97974 0
M  V30 16824 H 1506.35 -0.854487 3.70679 0
M  V30 16825 H 1507.66 -1.33316 4.80654 0
M  V30 16826 H 1506.81 -3.68885 4.81673 0
M  V30 16827 H 1505.55 -3.26162 3.62587 0
M  V30 16828 H 1504.56 -1.62772 5.25153 0
M  V30 16829 H 1505.78 -2.08175 6.46405 0
M  V30 16830 H 1503.73 -3.95728 5.23197 0
M  V30 16831 H 1503.64 -3.26491 6.81865 0
M  V30 16832 H 1504.91 -4.39213 6.43981 0
M  V30 16833 N 1509.14 -1.56867 -0.151857 0
M  V30 16834 C 1510.07 -1.94494 -1.21263 0
M  V30 16835 C 1511.09 -0.84021 -1.39443 0
M  V30 16836 O 1512.27 -1.11863 -1.391 0
M  V30 16837 C 1509.37 -2.19952 -2.57826 0
M  V30 16838 C 1508.55 -3.51227 -2.60689 0
M  V30 16839 C 1507.61 -3.65282 -3.78756 0
M  V30 16840 O 1506.63 -4.3772 -3.63854 0
M  V30 16841 N 1507.83 -3.01582 -4.96012 0
M  V30 16842 H 1510.6 -2.86092 -0.892845 0
M  V30 16843 H 1508.16 -1.58258 -0.341463 0
M  V30 16844 H 1510.15 -2.266 -3.35312 0
M  V30 16845 H 1508.72 -1.34643 -2.82117 0
M  V30 16846 H 1507.94 -3.56062 -1.69155 0
M  V30 16847 H 1509.23 -4.37574 -2.59628 0
M  V30 16848 H 1508.63 -2.42637 -5.11022 0
M  V30 16849 H 1507.19 -3.13799 -5.71291 0
M  V30 16850 N 1510.62 0.421051 -1.51871 0
M  V30 16851 C 1511.55 1.53094 -1.70572 0
M  V30 16852 C 1512.56 1.5188 -0.586201 0
M  V30 16853 O 1513.75 1.56361 -0.861013 0
M  V30 16854 C 1510.85 2.92002 -1.72011 0
M  V30 16855 C 1510.03 3.17541 -3.0081 0
M  V30 16856 C 1509.08 4.36259 -2.94219 0
M  V30 16857 O 1508.11 4.34118 -3.68144 0
M  V30 16858 N 1509.31 5.40722 -2.11188 0
M  V30 16859 H 1512.08 1.3745 -2.66322 0
M  V30 16860 H 1509.64 0.610204 -1.4996 0
M  V30 16861 H 1511.63 3.6947 -1.65149 0
M  V30 16862 H 1510.2 3.01162 -0.837861 0
M  V30 16863 H 1509.42 2.28225 -3.21414 0
M  V30 16864 H 1510.71 3.3144 -3.86037 0
M  V30 16865 H 1510.11 5.45304 -1.50534 0
M  V30 16866 H 1508.66 6.16979 -2.10192 0
M  V30 16867 N 1512.1 1.42293 0.677538 0
M  V30 16868 C 1513.37 1.331 1.43331 0
M  V30 16869 C 1513.75 -0.0329227 2.11074 0
M  V30 16870 O 1513.1 -1.04826 2.03036 0
M  V30 16871 C 1513.31 2.49725 2.438 0
M  V30 16872 C 1514.66 2.91716 3.08524 0
M  V30 16873 O 1515.68 2.49596 2.54127 0
M  V30 16874 O 1514.54 3.64609 4.07091 0
M  V30 16875 H 1511.64 0.524758 0.639185 0
M  V30 16876 H 1514.18 1.54294 0.706493 0
M  V30 16877 H 1512.95 3.40663 1.92522 0
M  V30 16878 H 1512.58 2.30503 3.23966 0
M  V30 16879 N 1513.57 -0.913576 1.28419 0
M  V30 16880 C 1514.52 -2.03739 1.1222 0
M  V30 16881 C 1515.52 -1.69349 0.0414309 0
M  V30 16882 O 1516.72 -1.78883 0.200213 0
M  V30 16883 H 1513.1 -0.667554 0.34623 0
M  V30 16884 H 1515.07 -2.14544 2.07397 0
M  V30 16885 C 1513.82 -3.38348 0.801003 0
M  V30 16886 H 1513.14 -3.65304 1.6246 0
M  V30 16887 H 1514.58 -4.1771 0.727611 0
M  V30 16888 C 1513.04 -3.3324 -0.495261 0
M  V30 16889 O 1513.57 -3.71606 -1.52551 0
M  V30 16890 N 1511.78 -2.86335 -0.496054 0
M  V30 16891 H 1511.32 -2.55309 0.342773 0
M  V30 16892 H 1511.28 -2.833 -1.3634 0
M  V30 16893 N 1515.05 -1.1067 -1.12204 0
M  V30 16894 C 1516.3 -0.85189 -1.8404 0
M  V30 16895 C 1516.63 0.620988 -1.84004 0
M  V30 16896 O 1515.91 1.45801 -1.28734 0
M  V30 16897 C 1516.19 -1.40401 -3.31602 0
M  V30 16898 C 1516.04 -2.94392 -3.40078 0
M  V30 16899 C 1517.36 -1.04834 -4.27432 0
M  V30 16900 H 1514.48 -0.310924 -0.668203 0
M  V30 16901 H 1517.12 -1.37026 -1.3162 0
M  V30 16902 H 1515.27 -0.963107 -3.76373 0
M  V30 16903 H 1516.94 -3.47027 -3.03924 0
M  V30 16904 H 1515.19 -3.3087 -2.80548 0
M  V30 16905 H 1515.86 -3.28107 -4.43903 0
M  V30 16906 H 1518.33 -1.42882 -3.90799 0
M  V30 16907 H 1517.21 -1.46153 -5.29085 0
M  V30 16908 H 1517.47 0.0419272 -4.4208 0
M  V30 16909 N 1516.53 1.29665 -0.895815 0
M  V30 16910 C 1517.48 2.27831 -0.369011 0
M  V30 16911 C 1518.45 1.56843 0.546756 0
M  V30 16912 O 1519.63 1.84848 0.472837 0
M  V30 16913 C 1516.77 3.42764 0.400884 0
M  V30 16914 C 1515.89 4.28544 -0.545335 0
M  V30 16915 C 1515.02 5.30652 0.241228 0
M  V30 16916 C 1514.06 6.08087 -0.699765 0
M  V30 16917 N 1513.2 7.02081 0.0521477 0
M  V30 16918 H 1518.04 2.72274 -1.21124 0
M  V30 16919 H 1515.57 1.33918 -0.608631 0
M  V30 16920 H 1517.53 4.08171 0.863277 0
M  V30 16921 H 1516.16 2.99361 1.2076 0
M  V30 16922 H 1515.21 3.63346 -1.12624 0
M  V30 16923 H 1516.53 4.82472 -1.26579 0
M  V30 16924 H 1515.68 6.01858 0.764994 0
M  V30 16925 H 1514.42 4.77446 0.994838 0
M  V30 16926 H 1513.42 5.35748 -1.23507 0
M  V30 16927 H 1514.65 6.63382 -1.45264 0
M  V30 16928 H 1512.59 6.51249 0.788096 0
M  V30 16929 H 1512.51 7.53547 -0.60847 0
M  V30 16930 H 1513.78 7.77512 0.556304 0
M  V30 16931 N 1518.01 0.657889 1.43212 0
M  V30 16932 C 1518.94 -0.0695999 2.29094 0
M  V30 16933 C 1519.95 -0.782463 1.42763 0
M  V30 16934 O 1521.14 -0.63944 1.66654 0
M  V30 16935 C 1518.24 -1.12178 3.19796 0
M  V30 16936 C 1517.42 -0.486131 4.3469 0
M  V30 16937 C 1516.47 -1.43582 5.06232 0
M  V30 16938 O 1515.5 -0.942622 5.61341 0
M  V30 16939 N 1516.7 -2.76966 5.10167 0
M  V30 16940 H 1519.47 0.667565 2.92171 0
M  V30 16941 H 1517.03 0.501022 1.53953 0
M  V30 16942 H 1519.02 -1.75801 3.64522 0
M  V30 16943 H 1517.59 -1.76087 2.58287 0
M  V30 16944 H 1516.81 0.329281 3.92822 0
M  V30 16945 H 1518.1 -0.0425918 5.08782 0
M  V30 16946 H 1517.5 -3.19592 4.66774 0
M  V30 16947 H 1516.05 -3.3588 5.58595 0
M  V30 16948 N 1519.49 -1.52437 0.400108 0
M  V30 16949 C 1520.42 -2.24433 -0.465038 0
M  V30 16950 C 1521.43 -1.27067 -1.01773 0
M  V30 16951 O 1522.62 -1.53072 -0.918215 0
M  V30 16952 C 1519.72 -2.95555 -1.65832 0
M  V30 16953 C 1518.89 -4.19717 -1.2311 0
M  V30 16954 C 1517.95 -4.73743 -2.29028 0
M  V30 16955 O 1516.98 -5.36556 -1.8999 0
M  V30 16956 N 1518.18 -4.54534 -3.6108 0
M  V30 16957 H 1520.95 -2.99315 0.151839 0
M  V30 16958 H 1518.51 -1.603 0.227019 0
M  V30 16959 H 1520.5 -3.28595 -2.36235 0
M  V30 16960 H 1519.07 -2.23915 -2.18131 0
M  V30 16961 H 1518.29 -3.92593 -0.355537 0
M  V30 16962 H 1519.58 -5.00367 -0.922487 0
M  V30 16963 H 1518.97 -4.04419 -3.95552 0
M  V30 16964 H 1517.53 -4.92035 -4.27486 0
M  V30 16965 N 1520.96 -0.130252 -1.57061 0
M  V30 16966 C 1522.24 0.569171 -1.87136 0
M  V30 16967 C 1522.62 1.84078 -1.03337 0
M  V30 16968 O 1521.97 2.28208 -0.11543 0
M  V30 16969 C 1522.18 0.850782 -3.38471 0
M  V30 16970 C 1523.53 1.19892 -4.07322 0
M  V30 16971 O 1524.55 0.940682 -3.43554 0
M  V30 16972 O 1523.41 1.6841 -5.19904 0
M  V30 16973 H 1520.5 0.288433 -0.775071 0
M  V30 16974 H 1523.05 -0.165603 -1.6889 0
M  V30 16975 H 1521.82 -0.0498562 -3.91268 0
M  V30 16976 H 1521.45 1.64032 -3.62187 0
M  V30 16977 N 1522.44 1.56945 0.143535 0
M  V30 16978 C 1523.39 1.99479 1.19628 0
M  V30 16979 C 1524.39 0.887733 1.44276 0
M  V30 16980 O 1525.59 1.07292 1.44528 0
M  V30 16981 H 1521.97 0.635049 0.402761 0
M  V30 16982 H 1523.94 2.87171 0.810877 0
M  V30 16983 C 1522.69 2.39436 2.52123 0
M  V30 16984 H 1522.01 3.24176 2.33987 0
M  V30 16985 H 1523.45 2.73017 3.24404 0
M  V30 16986 C 1521.91 1.24836 3.12918 0
M  V30 16987 O 1522.44 0.550973 3.97903 0
M  V30 16988 N 1520.64 1.01172 2.7242 0
M  V30 16989 H 1520.19 1.5806 2.03408 0
M  V30 16990 H 1520.15 0.246846 3.13429 0
M  V30 16991 N 1523.92 -0.412991 1.52093 0
M  V30 16992 C 1525.17 -1.16202 1.66208 0
M  V30 16993 C 1525.5 -1.90265 0.388957 0
M  V30 16994 O 1524.78 -1.84605 -0.612477 0
M  V30 16995 C 1525.06 -2.15958 2.88157 0
M  V30 16996 C 1524.91 -1.45817 4.25509 0
M  V30 16997 C 1526.23 -3.16671 3.05626 0
M  V30 16998 H 1523.35 -0.421083 0.604862 0
M  V30 16999 H 1525.99 -0.448212 1.84638 0
M  V30 17000 H 1524.14 -2.76831 2.72574 0
M  V30 17001 H 1525.81 -0.880925 4.52811 0
M  V30 17002 H 1524.06 -0.760175 4.27088 0
M  V30 17003 H 1524.73 -2.18587 5.06877 0
M  V30 17004 H 1527.2 -2.65871 3.20081 0
M  V30 17005 H 1526.08 -3.83739 3.92474 0
M  V30 17006 H 1526.34 -3.84178 2.18769 0
M  V30 17007 N 1525.4 -1.4265 -0.669982 0
M  V30 17008 C 1526.35 -1.46504 -1.7834 0
M  V30 17009 C 1527.32 -0.316478 -1.63057 0
M  V30 17010 O 1528.5 -0.521245 -1.83542 0
M  V30 17011 C 1525.64 -1.37784 -3.16401 0
M  V30 17012 C 1524.75 -2.62714 -3.42937 0
M  V30 17013 C 1523.89 -2.46101 -4.70752 0
M  V30 17014 C 1522.93 -3.66381 -4.90338 0
M  V30 17015 N 1522.07 -3.48681 -6.09398 0
M  V30 17016 H 1526.91 -2.41651 -1.74381 0
M  V30 17017 H 1524.44 -1.1997 -0.851215 0
M  V30 17018 H 1526.4 -1.30725 -3.9619 0
M  V30 17019 H 1525.03 -0.462291 -3.19473 0
M  V30 17020 H 1524.08 -2.8012 -2.57366 0
M  V30 17021 H 1525.39 -3.52108 -3.53301 0
M  V30 17022 H 1524.55 -2.36655 -5.58641 0
M  V30 17023 H 1523.29 -1.54204 -4.6268 0
M  V30 17024 H 1522.29 -3.76254 -4.00891 0
M  V30 17025 H 1523.52 -4.59265 -5.00253 0
M  V30 17026 H 1521.46 -2.59505 -6.02489 0
M  V30 17027 H 1521.38 -4.31666 -6.20645 0
M  V30 17028 H 1522.65 -3.43056 -6.99952 0
M  V30 17029 N 1526.88 0.906753 -1.28902 0
M  V30 17030 C 1527.81 2.01497 -1.09233 0
M  V30 17031 C 1528.82 1.62746 -0.0419378 0
M  V30 17032 O 1530.01 1.76198 -0.285728 0
M  V30 17033 C 1527.11 3.32816 -0.639255 0
M  V30 17034 C 1526.28 4.00137 -1.76661 0
M  V30 17035 C 1525.34 5.09742 -1.30573 0
M  V30 17036 O 1524.37 5.32559 -2.00921 0
M  V30 17037 N 1525.57 5.80243 -0.17275 0
M  V30 17038 H 1528.34 2.18927 -2.04673 0
M  V30 17039 H 1525.9 1.0785 -1.20748 0
M  V30 17040 H 1527.89 4.03477 -0.31439 0
M  V30 17041 H 1526.46 3.11807 0.222498 0
M  V30 17042 H 1525.68 3.22933 -2.26071 0
M  V30 17043 H 1526.97 4.41859 -2.52266 0
M  V30 17044 H 1526.37 5.64184 0.413931 0
M  V30 17045 H 1524.92 6.51734 0.0927926 0
M  V30 17046 N 1528.36 1.11264 1.11616 0
M  V30 17047 C 1529.29 0.727118 2.17361 0
M  V30 17048 C 1530.3 -0.240356 1.61016 0
M  V30 17049 O 1531.49 -0.0235265 1.78484 0
M  V30 17050 C 1528.59 0.05361 3.38858 0
M  V30 17051 C 1527.76 1.04744 4.24673 0
M  V30 17052 C 1526.82 0.403827 5.24648 0
M  V30 17053 O 1525.85 1.0572 5.59296 0
M  V30 17054 N 1527.05 -0.834071 5.74477 0
M  V30 17055 H 1529.81 1.63696 2.51045 0
M  V30 17056 H 1527.38 1.00261 1.2712 0
M  V30 17057 H 1529.37 -0.388643 4.0283 0
M  V30 17058 H 1527.94 -0.758778 3.03251 0
M  V30 17059 H 1527.16 1.6677 3.57185 0
M  V30 17060 H 1528.45 1.71988 4.7885 0
M  V30 17061 H 1527.84 -1.3841 5.48506 0
M  V30 17062 H 1526.4 -1.21933 6.40293 0
M  V30 17063 N 1529.83 -1.29188 0.902679 0
M  V30 17064 C 1531.11 -1.90365 0.449496 0
M  V30 17065 C 1531.49 -1.81911 -1.07105 0
M  V30 17066 O 1530.84 -1.24778 -1.91423 0
M  V30 17067 C 1531.05 -3.35324 0.967418 0
M  V30 17068 C 1532.4 -4.12342 1.0129 0
M  V30 17069 O 1533.42 -3.44239 0.915293 0
M  V30 17070 O 1532.28 -5.34048 1.15994 0
M  V30 17071 H 1529.37 -0.814956 0.140628 0
M  V30 17072 H 1531.92 -1.37633 0.992739 0
M  V30 17073 H 1530.69 -3.35646 2.0114 0
M  V30 17074 H 1530.31 -3.95539 0.404358 0
M  V30 17075 N 1531.31 -0.665475 -1.42861 0
M  V30 17076 C 1532.26 0.030395 -2.3258 0
M  V30 17077 C 1533.25 0.800329 -1.49302 0
M  V30 17078 O 1534.46 0.709346 -1.65434 0
M  V30 17079 H 1530.83 0.0286201 -0.751455 0
M  V30 17080 H 1532.81 -0.743838 -2.8898 0
M  V30 17081 C 1531.55 0.974474 -3.33765 0
M  V30 17082 H 1530.88 0.391447 -3.97879 0
M  V30 17083 H 1532.32 1.43023 -3.99149 0
M  V30 17084 C 1530.78 2.0764 -2.65306 0
M  V30 17085 O 1531.31 3.16172 -2.47787 0
M  V30 17086 N 1529.51 1.84544 -2.24481 0
M  V30 17087 H 1529.06 0.962826 -2.3893 0
M  V30 17088 H 1529.02 2.58464 -1.79007 0
M  V30 17089 N 1532.79 1.52222 -0.408187 0
M  V30 17090 C 1534.04 2.02102 0.168154 0
M  V30 17091 C 1534.37 1.2933 1.4487 0
M  V30 17092 O 1533.64 0.399336 1.90356 0
M  V30 17093 C 1533.93 3.57679 0.416821 0
M  V30 17094 C 1533.78 4.41101 -0.880335 0
M  V30 17095 C 1535.1 4.23442 1.19936 0
M  V30 17096 H 1532.22 0.734583 0.0596402 0
M  V30 17097 H 1534.86 1.82121 -0.541467 0
M  V30 17098 H 1533.01 3.74835 1.02131 0
M  V30 17099 H 1534.68 4.35658 -1.51656 0
M  V30 17100 H 1532.92 4.07353 -1.49152 0
M  V30 17101 H 1533.6 5.48031 -0.660748 0
M  V30 17102 H 1536.07 4.10379 0.687605 0
M  V30 17103 H 1534.95 5.32239 1.3421 0
M  V30 17104 H 1535.21 3.82335 2.21973 0
M  V30 17105 N 1534.27 0.138579 1.5699 0
M  V30 17106 C 1535.18 -0.817548 2.19894 0
M  V30 17107 C 1536.19 -1.27806 1.18075 0
M  V30 17108 O 1537.37 -1.33699 1.5062 0
M  V30 17109 C 1534.43 -2.04244 2.80152 0
M  V30 17110 C 1533.5 -1.63197 3.97071 0
M  V30 17111 C 1532.73 -2.79847 4.54446 0
M  V30 17112 O 1532.95 -3.95827 4.10703 0
M  V30 17113 O 1531.89 -2.55804 5.44838 0
M  V30 17114 H 1535.71 -0.312123 3.02092 0
M  V30 17115 H 1533.3 -0.0880281 1.4914 0
M  V30 17116 H 1535.18 -2.75945 3.18485 0
M  V30 17117 H 1533.85 -2.53755 2.00973 0
M  V30 17118 H 1532.76 -0.885448 3.6347 0
M  V30 17119 H 1534.09 -1.1841 4.77745 0
M  V30 17120 N 1535.75 -1.57019 -0.13521 0
M  V30 17121 C 1536.68 -1.95769 -1.19193 0
M  V30 17122 C 1537.69 -0.854953 -1.38544 0
M  V30 17123 O 1538.88 -1.13332 -1.37906 0
M  V30 17124 C 1535.98 -2.22674 -2.55479 0
M  V30 17125 C 1535.15 -3.53972 -2.56949 0
M  V30 17126 C 1534.21 -3.69278 -3.7486 0
M  V30 17127 O 1533.24 -4.41555 -3.59191 0
M  V30 17128 N 1534.44 -3.06826 -4.92786 0
M  V30 17129 H 1537.2 -2.87022 -0.862451 0
M  V30 17130 H 1534.77 -1.58611 -0.324658 0
M  V30 17131 H 1536.76 -2.30144 -3.3289 0
M  V30 17132 H 1535.33 -1.37628 -2.80673 0
M  V30 17133 H 1534.55 -3.57836 -1.65368 0
M  V30 17134 H 1535.84 -4.40303 -2.54973 0
M  V30 17135 H 1535.23 -2.48043 -5.0842 0
M  V30 17136 H 1533.79 -3.19841 -5.67931 0
M  V30 17137 N 1537.22 0.404919 -1.52309 0
M  V30 17138 C 1538.16 1.51276 -1.72186 0
M  V30 17139 C 1539.17 1.5125 -0.602276 0
M  V30 17140 O 1540.36 1.55439 -0.877549 0
M  V30 17141 C 1537.46 2.90162 -1.75099 0
M  V30 17142 C 1536.63 3.14333 -3.04161 0
M  V30 17143 C 1535.69 4.33113 -2.9883 0
M  V30 17144 O 1534.72 4.30189 -3.72728 0
M  V30 17145 N 1535.92 5.38451 -2.16911 0
M  V30 17146 H 1538.68 1.34618 -2.67765 0
M  V30 17147 H 1536.24 0.594264 -1.50599 0
M  V30 17148 H 1538.24 3.67697 -1.69058 0
M  V30 17149 H 1536.81 3.00257 -0.869756 0
M  V30 17150 H 1536.03 2.24803 -3.23817 0
M  V30 17151 H 1537.31 3.27327 -3.89531 0
M  V30 17152 H 1536.71 5.43676 -1.56309 0
M  V30 17153 H 1535.27 6.14715 -2.16724 0
M  V30 17154 N 1538.7 1.43003 0.662408 0
M  V30 17155 C 1539.98 1.34613 1.41911 0
M  V30 17156 C 1540.36 -0.0105336 2.11097 0
M  V30 17157 O 1539.71 -1.02667 2.04137 0
M  V30 17158 C 1539.92 2.52297 2.41137 0
M  V30 17159 C 1541.27 2.94972 3.05412 0
M  V30 17160 O 1542.29 2.52277 2.51465 0
M  V30 17161 O 1541.15 3.68906 4.03201 0
M  V30 17162 H 1538.24 0.531508 0.633583 0
M  V30 17163 H 1540.79 1.55035 0.690088 0
M  V30 17164 H 1539.56 3.42685 1.88898 0
M  V30 17165 H 1539.18 2.33926 3.21503 0
M  V30 17166 N 1540.18 -0.899904 1.29381 0
M  V30 17167 C 1541.13 -2.02537 1.14375 0
M  V30 17168 C 1542.12 -1.69296 0.0593904 0
M  V30 17169 O 1543.33 -1.78661 0.219174 0
M  V30 17170 H 1539.7 -0.663844 0.353291 0
M  V30 17171 H 1541.67 -2.12332 2.0966 0
M  V30 17172 C 1540.42 -3.37479 0.836845 0
M  V30 17173 H 1539.75 -3.6356 1.66326 0
M  V30 17174 H 1541.19 -4.16915 0.771873 0
M  V30 17175 C 1539.65 -3.33746 -0.459889 0
M  V30 17176 O 1540.18 -3.73203 -1.48601 0
M  V30 17177 N 1538.38 -2.86845 -0.465657 0
M  V30 17178 H 1537.93 -2.54931 0.369833 0
M  V30 17179 H 1537.89 -2.8473 -1.33327 0
M  V30 17180 N 1541.66 -1.11854 -1.11024 0
M  V30 17181 C 1542.9 -0.871362 -1.83126 0
M  V30 17182 C 1543.24 0.601437 -1.84652 0
M  V30 17183 O 1542.51 1.44427 -1.30273 0
M  V30 17184 C 1542.8 -1.4391 -3.30094 0
M  V30 17185 C 1542.65 -2.97983 -3.36937 0
M  V30 17186 C 1543.97 -1.09361 -4.26296 0
M  V30 17187 H 1541.09 -0.317994 -0.664867 0
M  V30 17188 H 1543.73 -1.38414 -1.3016 0
M  V30 17189 H 1541.88 -1.00297 -3.7533 0
M  V30 17190 H 1543.55 -3.50231 -3.00227 0
M  V30 17191 H 1541.79 -3.33827 -2.77023 0
M  V30 17192 H 1542.46 -3.32797 -4.40398 0
M  V30 17193 H 1544.94 -1.47018 -3.89262 0
M  V30 17194 H 1543.82 -1.51756 -5.27505 0
M  V30 17195 H 1544.08 -0.0049637 -4.421 0
M  V30 17196 N 1543.14 1.28707 -0.909517 0
M  V30 17197 C 1544.08 2.27427 -0.393155 0
M  V30 17198 C 1545.05 1.57414 0.53009 0
M  V30 17199 O 1546.24 1.85339 0.453205 0
M  V30 17200 C 1543.38 3.4317 0.364507 0
M  V30 17201 C 1542.49 4.27942 -0.590757 0
M  V30 17202 C 1541.63 5.30878 0.184931 0
M  V30 17203 C 1540.67 6.07311 -0.764222 0
M  V30 17204 N 1539.8 7.02096 -0.0223203 0
M  V30 17205 H 1544.64 2.70974 -1.24005 0
M  V30 17206 H 1542.18 1.33265 -0.6228 0
M  V30 17207 H 1544.14 4.09063 0.819937 0
M  V30 17208 H 1542.77 3.00625 1.17578 0
M  V30 17209 H 1541.82 3.62131 -1.16471 0
M  V30 17210 H 1543.13 4.81102 -1.31689 0
M  V30 17211 H 1542.29 6.02635 0.701116 0
M  V30 17212 H 1541.02 4.78474 0.944143 0
M  V30 17213 H 1540.03 5.34408 -1.29182 0
M  V30 17214 H 1541.25 6.61804 -1.52292 0
M  V30 17215 H 1539.2 6.52048 0.718978 0
M  V30 17216 H 1539.12 7.5286 -0.688359 0
M  V30 17217 H 1540.39 7.78059 0.473807 0
M  V30 17218 N 1544.61 0.673042 1.42506 0
M  V30 17219 C 1545.55 -0.0452975 2.29155 0
M  V30 17220 C 1546.56 -0.767277 1.43585 0
M  V30 17221 O 1547.75 -0.621728 1.67322 0
M  V30 17222 C 1544.85 -1.0878 3.20967 0
M  V30 17223 C 1544.02 -0.439999 4.35181 0
M  V30 17224 C 1543.08 -1.38205 5.07726 0
M  V30 17225 O 1542.11 -0.883031 5.62309 0
M  V30 17226 N 1543.31 -2.7154 5.13075 0
M  V30 17227 H 1546.07 0.698517 2.91446 0
M  V30 17228 H 1543.63 0.517322 1.53412 0
M  V30 17229 H 1545.63 -1.71925 3.66366 0
M  V30 17230 H 1544.2 -1.73337 2.6014 0
M  V30 17231 H 1543.42 0.370926 3.92451 0
M  V30 17232 H 1544.7 0.0113738 5.08799 0
M  V30 17233 H 1544.1 -3.14623 4.70137 0
M  V30 17234 H 1542.66 -3.29937 5.62126 0
M  V30 17235 N 1546.09 -1.52004 0.416254 0
M  V30 17236 C 1547.02 -2.24913 -0.441208 0
M  V30 17237 C 1548.04 -1.28139 -1.0042 0
M  V30 17238 O 1549.23 -1.54037 -0.901928 0
M  V30 17239 C 1546.33 -2.97298 -1.62688 0
M  V30 17240 C 1545.5 -4.20999 -1.18652 0
M  V30 17241 C 1544.56 -4.76146 -2.2399 0
M  V30 17242 O 1543.58 -5.38541 -1.84288 0
M  V30 17243 N 1544.79 -4.58338 -3.56239 0
M  V30 17244 H 1547.55 -2.99137 0.183576 0
M  V30 17245 H 1545.11 -1.60051 0.244008 0
M  V30 17246 H 1547.1 -3.31082 -2.32737 0
M  V30 17247 H 1545.67 -2.26216 -2.15744 0
M  V30 17248 H 1544.89 -3.92948 -0.313877 0
M  V30 17249 H 1546.18 -5.01318 -0.869365 0
M  V30 17250 H 1545.58 -4.08592 -3.91241 0
M  V30 17251 H 1544.14 -4.96542 -4.22244 0
M  V30 17252 N 1547.57 -0.146903 -1.56914 0
M  V30 17253 C 1548.85 0.549291 -1.87729 0
M  V30 17254 C 1549.23 1.82971 -1.05284 0
M  V30 17255 O 1548.58 2.28073 -0.139628 0
M  V30 17256 C 1548.79 0.814835 -3.39354 0
M  V30 17257 C 1550.13 1.15565 -4.0857 0
M  V30 17258 O 1551.16 0.904191 -3.44533 0
M  V30 17259 O 1550.02 1.62886 -5.21661 0
M  V30 17260 H 1547.11 0.280196 -0.778087 0
M  V30 17261 H 1549.66 -0.183507 -1.68705 0
M  V30 17262 H 1548.43 -0.0913527 -3.91193 0
M  V30 17263 H 1548.05 1.60182 -3.63906 0
M  V30 17264 N 1549.05 1.57088 0.126881 0
M  V30 17265 C 1550 2.00736 1.17506 0
M  V30 17266 C 1550.99 0.902986 1.43327 0
M  V30 17267 O 1552.2 1.08819 1.43382 0
M  V30 17268 H 1548.57 0.639285 0.396003 0
M  V30 17269 H 1550.54 2.88015 0.780373 0
M  V30 17270 C 1549.29 2.42096 2.49569 0
M  V30 17271 H 1548.61 3.26639 2.30536 0
M  V30 17272 H 1550.05 2.76442 3.2149 0
M  V30 17273 C 1548.51 1.28148 3.11576 0
M  V30 17274 O 1549.04 0.593145 3.97297 0
M  V30 17275 N 1547.25 1.04055 2.71332 0
M  V30 17276 H 1546.8 1.60208 2.0172 0
M  V30 17277 H 1546.75 0.280075 3.1315 0
M  V30 17278 N 1550.53 -0.396836 1.52522 0
M  V30 17279 C 1551.77 -1.14432 1.67431 0
M  V30 17280 C 1552.11 -1.89842 0.409115 0
M  V30 17281 O 1551.38 -1.85244 -0.592863 0
M  V30 17282 C 1551.66 -2.12889 2.90431 0
M  V30 17283 C 1551.52 -1.41295 4.27031 0
M  V30 17284 C 1552.84 -3.13412 3.08967 0
M  V30 17285 H 1549.95 -0.414643 0.609295 0
M  V30 17286 H 1552.6 -0.428604 1.85103 0
M  V30 17287 H 1550.75 -2.73924 2.75495 0
M  V30 17288 H 1552.42 -0.832848 4.53719 0
M  V30 17289 H 1550.66 -0.714834 4.2787 0
M  V30 17290 H 1551.33 -2.13198 5.09167 0
M  V30 17291 H 1553.81 -2.62462 3.22883 0
M  V30 17292 H 1552.68 -3.79555 3.96522 0
M  V30 17293 H 1552.95 -3.81836 2.22831 0
M  V30 17294 N 1552.01 -1.43353 -0.654814 0
M  V30 17295 C 1552.95 -1.48387 -1.76776 0
M  V30 17296 C 1553.92 -0.333755 -1.62712 0
M  V30 17297 O 1555.11 -0.540683 -1.82979 0
M  V30 17298 C 1552.25 -1.41132 -3.14922 0
M  V30 17299 C 1551.36 -2.66336 -3.40131 0
M  V30 17300 C 1550.5 -2.5108 -4.68116 0
M  V30 17301 C 1549.53 -3.71561 -4.86425 0
M  V30 17302 N 1548.67 -3.55125 -6.05666 0
M  V30 17303 H 1553.51 -2.43487 -1.71808 0
M  V30 17304 H 1551.05 -1.20866 -0.838442 0
M  V30 17305 H 1553.01 -1.3492 -3.94782 0
M  V30 17306 H 1551.64 -0.496149 -3.18964 0
M  V30 17307 H 1550.69 -2.82834 -2.5438 0
M  V30 17308 H 1552 -3.55835 -3.49546 0
M  V30 17309 H 1551.15 -2.42567 -5.56099 0
M  V30 17310 H 1549.89 -1.59103 -4.61018 0
M  V30 17311 H 1548.9 -3.80484 -3.96877 0
M  V30 17312 H 1550.12 -4.64545 -4.95353 0
M  V30 17313 H 1548.07 -2.65881 -5.99703 0
M  V30 17314 H 1547.99 -4.38224 -6.16032 0
M  V30 17315 H 1549.25 -3.5046 -6.96274 0
M  V30 17316 N 1553.48 0.89303 -1.29857 0
M  V30 17317 C 1554.42 2.00327 -1.11364 0
M  V30 17318 C 1555.43 1.62692 -0.0591968 0
M  V30 17319 O 1556.62 1.75885 -0.3044 0
M  V30 17320 C 1553.72 3.3212 -0.674518 0
M  V30 17321 C 1552.89 3.98241 -1.80895 0
M  V30 17322 C 1551.95 5.08329 -1.35972 0
M  V30 17323 O 1550.98 5.30398 -2.06558 0
M  V30 17324 N 1552.18 5.80027 -0.234282 0
M  V30 17325 H 1554.94 2.16743 -2.06984 0
M  V30 17326 H 1552.5 1.06563 -1.21885 0
M  V30 17327 H 1554.5 4.03121 -0.357167 0
M  V30 17328 H 1553.07 3.12026 0.189414 0
M  V30 17329 H 1552.29 3.20517 -2.29483 0
M  V30 17330 H 1553.57 4.39158 -2.56939 0
M  V30 17331 H 1552.97 5.64591 0.354068 0
M  V30 17332 H 1551.53 6.51796 0.0236623 0
M  V30 17333 N 1554.96 1.12442 1.10429 0
M  V30 17334 C 1555.89 0.750131 2.16577 0
M  V30 17335 C 1556.91 -0.223265 1.61262 0
M  V30 17336 O 1558.1 -0.00459454 1.78499 0
M  V30 17337 C 1555.2 0.0895474 3.38782 0
M  V30 17338 C 1554.37 1.09242 4.23539 0
M  V30 17339 C 1553.43 0.45945 5.2419 0
M  V30 17340 O 1552.45 1.11646 5.58143 0
M  V30 17341 N 1553.66 -0.773093 5.75329 0
M  V30 17342 H 1556.42 1.66349 2.49295 0
M  V30 17343 H 1553.98 1.01603 1.26049 0
M  V30 17344 H 1555.97 -0.345895 4.03219 0
M  V30 17345 H 1554.54 -0.726572 3.04039 0
M  V30 17346 H 1553.76 1.70549 3.55396 0
M  V30 17347 H 1555.05 1.77057 4.76999 0
M  V30 17348 H 1554.45 -1.32585 5.49943 0
M  V30 17349 H 1553.01 -1.15135 6.41551 0
M  V30 17350 N 1556.44 -1.28223 0.91633 0
M  V30 17351 C 1557.72 -1.89878 0.469661 0
M  V30 17352 C 1558.1 -1.83037 -1.05169 0
M  V30 17353 O 1557.44 -1.26801 -1.90088 0
M  V30 17354 C 1557.65 -3.34279 1.00293 0
M  V30 17355 C 1559 -4.11244 1.05657 0
M  V30 17356 O 1560.03 -3.43249 0.951753 0
M  V30 17357 O 1558.89 -5.32788 1.21652 0
M  V30 17358 H 1555.98 -0.813418 0.149263 0
M  V30 17359 H 1558.53 -1.36572 1.00728 0
M  V30 17360 H 1557.3 -3.33494 2.04688 0
M  V30 17361 H 1556.92 -3.95087 0.446287 0
M  V30 17362 N 1557.92 -0.68059 -1.42147 0
M  V30 17363 C 1558.87 0.00572503 -2.32599 0
M  V30 17364 C 1559.86 0.784449 -1.50142 0
M  V30 17365 O 1561.07 0.69176 -1.66177 0
M  V30 17366 H 1557.44 0.0206483 -0.751716 0
M  V30 17367 H 1559.41 -0.774447 -2.88175 0
M  V30 17368 C 1558.16 0.939019 -3.3478 0
M  V30 17369 H 1557.48 0.349225 -3.98272 0
M  V30 17370 H 1558.92 1.38782 -4.00644 0
M  V30 17371 C 1557.38 2.04814 -2.67493 0
M  V30 17372 O 1557.91 3.13526 -2.51126 0
M  V30 17373 N 1556.12 1.82153 -2.26426 0
M  V30 17374 H 1555.67 0.93743 -2.39938 0
M  V30 17375 H 1555.62 2.56551 -1.81738 0
M  V30 17376 N 1559.4 1.51781 -0.424309 0
M  V30 17377 C 1560.64 2.02269 0.146709 0
M  V30 17378 C 1560.97 1.30859 1.4349 0
M  V30 17379 O 1560.25 0.419504 1.89922 0
M  V30 17380 C 1560.53 3.58101 0.378861 0
M  V30 17381 C 1560.39 4.40143 -0.92707 0
M  V30 17382 C 1561.7 4.2469 1.15438 0
M  V30 17383 H 1558.82 0.735174 0.0518456 0
M  V30 17384 H 1561.47 1.81537 -0.560753 0
M  V30 17385 H 1559.62 3.75897 0.981496 0
M  V30 17386 H 1561.29 4.34025 -1.56268 0
M  V30 17387 H 1559.53 4.05748 -1.53464 0
M  V30 17388 H 1560.2 5.47299 -0.718837 0
M  V30 17389 H 1562.68 4.11086 0.644041 0
M  V30 17390 H 1561.55 5.33633 1.28557 0
M  V30 17391 H 1561.81 3.84668 2.17905 0
M  V30 17392 N 1560.87 0.155222 1.56834 0
M  V30 17393 C 1561.82 -0.781315 2.17173 0
M  V30 17394 C 1562.79 -1.23835 1.10699 0
M  V30 17395 O 1563.98 -1.3094 1.38778 0
M  V30 17396 C 1561.12 -2.01174 2.80398 0
M  V30 17397 C 1560.23 -1.59976 4.01287 0
M  V30 17398 C 1559.36 -2.78262 4.52486 0
M  V30 17399 C 1558.4 -2.33477 5.65822 0
M  V30 17400 N 1557.54 -3.44799 6.11603 0
M  V30 17401 H 1562.38 -0.259968 2.96864 0
M  V30 17402 H 1559.92 -0.116599 1.46637 0
M  V30 17403 H 1561.87 -2.73318 3.15203 0
M  V30 17404 H 1560.5 -2.50706 2.03338 0
M  V30 17405 H 1559.56 -0.775668 3.72408 0
M  V30 17406 H 1560.87 -1.2309 4.83374 0
M  V30 17407 H 1560.02 -3.58585 4.89389 0
M  V30 17408 H 1558.76 -3.18398 3.69424 0
M  V30 17409 H 1557.77 -1.51596 5.28487 0
M  V30 17410 H 1558.99 -1.94417 6.50676 0
M  V30 17411 H 1556.94 -3.84541 5.31474 0
M  V30 17412 H 1556.85 -3.11955 6.88637 0
M  V30 17413 H 1558.12 -4.25454 6.53153 0
M  V30 17414 N 1562.35 -1.57153 -0.118549 0
M  V30 17415 C 1563.28 -1.97022 -1.1711 0
M  V30 17416 C 1564.3 -0.869599 -1.37629 0
M  V30 17417 O 1565.49 -1.14788 -1.36696 0
M  V30 17418 C 1562.59 -2.25371 -2.53103 0
M  V30 17419 C 1561.76 -3.56677 -2.5318 0
M  V30 17420 C 1560.82 -3.73233 -3.70922 0
M  V30 17421 O 1559.84 -4.4534 -3.54487 0
M  V30 17422 N 1561.05 -3.12036 -4.89504 0
M  V30 17423 H 1563.81 -2.87921 -0.831959 0
M  V30 17424 H 1561.37 -1.58947 -0.307817 0
M  V30 17425 H 1563.36 -2.33662 -3.3043 0
M  V30 17426 H 1561.93 -1.40597 -2.79197 0
M  V30 17427 H 1561.15 -3.5957 -1.61564 0
M  V30 17428 H 1562.44 -4.42982 -2.50288 0
M  V30 17429 H 1561.84 -2.53422 -5.05761 0
M  V30 17430 H 1560.4 -3.25846 -5.64506 0
M  V30 17431 N 1563.83 0.388742 -1.5273 0
M  V30 17432 C 1564.76 1.49441 -1.73781 0
M  V30 17433 C 1565.77 1.50602 -0.618285 0
M  V30 17434 O 1566.96 1.545 -0.893986 0
M  V30 17435 C 1564.06 2.88288 -1.78166 0
M  V30 17436 C 1563.24 3.11089 -3.07478 0
M  V30 17437 C 1562.3 4.2992 -3.03407 0
M  V30 17438 O 1561.32 4.26212 -3.77269 0
M  V30 17439 N 1562.52 5.36121 -2.2261 0
M  V30 17440 H 1565.29 1.3177 -2.69178 0
M  V30 17441 H 1562.85 0.578258 -1.51221 0
M  V30 17442 H 1564.84 3.65884 -1.72949 0
M  V30 17443 H 1563.41 2.99317 -0.901553 0
M  V30 17444 H 1562.63 2.21356 -3.26183 0
M  V30 17445 H 1563.92 3.23177 -3.92981 0
M  V30 17446 H 1563.32 5.41988 -1.62067 0
M  V30 17447 H 1561.87 6.12381 -2.23232 0
M  V30 17448 N 1565.31 1.43698 0.647203 0
M  V30 17449 C 1566.58 1.3611 1.40476 0
M  V30 17450 C 1566.96 0.0118567 2.11097 0
M  V30 17451 O 1566.31 -1.00496 2.05214 0
M  V30 17452 C 1566.52 2.5484 2.38448 0
M  V30 17453 C 1567.87 2.98195 3.02267 0
M  V30 17454 O 1568.89 2.5493 2.48775 0
M  V30 17455 O 1567.75 3.73162 3.99265 0
M  V30 17456 H 1564.85 0.538198 0.62791 0
M  V30 17457 H 1567.39 1.55758 0.673606 0
M  V30 17458 H 1566.17 3.4467 1.85253 0
M  V30 17459 H 1565.79 2.37323 3.19004 0
M  V30 17460 N 1566.79 -0.886131 1.30328 0
M  V30 17461 C 1567.73 -2.01312 1.16516 0
M  V30 17462 C 1568.73 -1.69223 0.0773431 0
M  V30 17463 O 1569.93 -1.78418 0.238111 0
M  V30 17464 H 1566.31 -0.66006 0.360312 0
M  V30 17465 H 1568.28 -2.10097 2.11901 0
M  V30 17466 C 1567.03 -3.36573 0.872592 0
M  V30 17467 H 1566.35 -3.61775 1.70172 0
M  V30 17468 H 1567.79 -4.16073 0.816049 0
M  V30 17469 C 1566.25 -3.34215 -0.424465 0
M  V30 17470 O 1566.78 -3.74758 -1.44634 0
M  V30 17471 N 1564.99 -2.87323 -0.435207 0
M  V30 17472 H 1564.53 -2.54525 0.396851 0
M  V30 17473 H 1564.49 -2.86128 -1.303 0
M  V30 17474 N 1568.26 -1.13026 -1.09832 0
M  V30 17475 C 1569.51 -0.890736 -1.82191 0
M  V30 17476 C 1569.84 0.581818 -1.8528 0
M  V30 17477 O 1569.12 1.43037 -1.31798 0
M  V30 17478 C 1569.4 -1.47403 -3.28549 0
M  V30 17479 C 1569.25 -3.0154 -3.33757 0
M  V30 17480 C 1570.57 -1.13876 -4.25112 0
M  V30 17481 H 1567.69 -0.325028 -0.661457 0
M  V30 17482 H 1570.33 -1.39787 -1.28684 0
M  V30 17483 H 1568.48 -1.04272 -3.74245 0
M  V30 17484 H 1570.16 -3.53395 -2.96495 0
M  V30 17485 H 1568.4 -3.36746 -2.73467 0
M  V30 17486 H 1569.07 -3.37449 -4.36843 0
M  V30 17487 H 1571.55 -1.51139 -3.87681 0
M  V30 17488 H 1570.42 -1.57343 -5.25865 0
M  V30 17489 H 1570.68 -0.051854 -4.4207 0
M  V30 17490 N 1569.74 1.27735 -0.923117 0
M  V30 17491 C 1570.69 2.26997 -0.417254 0
M  V30 17492 C 1571.66 1.57968 0.513364 0
M  V30 17493 O 1572.84 1.8581 0.433521 0
M  V30 17494 C 1569.98 3.43537 0.328089 0
M  V30 17495 C 1569.1 4.27291 -0.636112 0
M  V30 17496 C 1568.23 5.31044 0.128614 0
M  V30 17497 C 1567.27 6.06466 -0.828592 0
M  V30 17498 N 1566.41 7.02033 -0.0967858 0
M  V30 17499 H 1571.25 2.69643 -1.26872 0
M  V30 17500 H 1568.79 1.32597 -0.6369 0
M  V30 17501 H 1570.74 4.0991 0.776504 0
M  V30 17502 H 1569.37 3.01855 1.14383 0
M  V30 17503 H 1568.43 3.60875 -1.20306 0
M  V30 17504 H 1569.74 4.79679 -1.36784 0
M  V30 17505 H 1568.89 6.03345 0.637159 0
M  V30 17506 H 1567.63 4.79448 0.893341 0
M  V30 17507 H 1566.64 5.33008 -1.34843 0
M  V30 17508 H 1567.86 6.60151 -1.59303 0
M  V30 17509 H 1565.81 6.52774 0.649779 0
M  V30 17510 H 1565.72 7.52087 -0.768171 0
M  V30 17511 H 1566.99 7.78517 0.391257 0
M  V30 17512 N 1571.22 0.688118 1.41784 0
M  V30 17513 C 1572.15 -0.02099 2.2919 0
M  V30 17514 C 1573.17 -0.752005 1.44391 0
M  V30 17515 O 1574.35 -0.603947 1.67972 0
M  V30 17516 C 1571.45 -1.0537 3.22103 0
M  V30 17517 C 1570.63 -0.393817 4.35624 0
M  V30 17518 C 1569.69 -1.32812 5.09163 0
M  V30 17519 O 1568.71 -0.823341 5.63214 0
M  V30 17520 N 1569.91 -2.66083 5.15927 0
M  V30 17521 H 1572.68 0.729389 2.90689 0
M  V30 17522 H 1570.24 0.533564 1.52855 0
M  V30 17523 H 1572.23 -1.6803 3.68169 0
M  V30 17524 H 1570.8 -1.70568 2.61964 0
M  V30 17525 H 1570.02 0.41253 3.92035 0
M  V30 17526 H 1571.31 0.065338 5.08758 0
M  V30 17527 H 1570.71 -3.09619 4.73448 0
M  V30 17528 H 1569.27 -3.23956 5.65593 0
M  V30 17529 N 1572.7 -1.51554 0.432352 0
M  V30 17530 C 1573.63 -2.25369 -0.417328 0
M  V30 17531 C 1574.64 -1.29197 -0.990551 0
M  V30 17532 O 1575.83 -1.54985 -0.885539 0
M  V30 17533 C 1572.93 -2.99006 -1.59526 0
M  V30 17534 C 1572.11 -4.22234 -1.1418 0
M  V30 17535 C 1571.16 -4.78495 -2.18928 0
M  V30 17536 O 1570.19 -5.40465 -1.78566 0
M  V30 17537 N 1571.39 -4.62091 -3.51358 0
M  V30 17538 H 1574.16 -2.98926 0.215294 0
M  V30 17539 H 1571.72 -1.59783 0.26097 0
M  V30 17540 H 1573.71 -3.33532 -2.29212 0
M  V30 17541 H 1572.28 -2.28491 -2.13332 0
M  V30 17542 H 1571.5 -3.93259 -0.272182 0
M  V30 17543 H 1572.79 -5.02212 -0.816145 0
M  V30 17544 H 1572.19 -4.12718 -3.86885 0
M  V30 17545 H 1570.74 -5.00992 -4.16953 0
M  V30 17546 N 1574.18 -0.163538 -1.56749 0
M  V30 17547 C 1575.45 0.529349 -1.88301 0
M  V30 17548 C 1575.83 1.81844 -1.07219 0
M  V30 17549 O 1575.18 2.27912 -0.16381 0
M  V30 17550 C 1575.39 0.778796 -3.402 0
M  V30 17551 C 1576.74 1.11225 -4.09773 0
M  V30 17552 O 1577.76 0.867598 -3.45472 0
M  V30 17553 O 1576.62 1.57344 -5.2336 0
M  V30 17554 H 1573.72 0.271928 -0.781015 0
M  V30 17555 H 1576.26 -0.20139 -1.68501 0
M  V30 17556 H 1575.03 -0.132839 -3.91074 0
M  V30 17557 H 1574.66 1.56313 -3.65584 0
M  V30 17558 N 1575.65 1.57214 0.110213 0
M  V30 17559 C 1576.6 2.01971 1.1537 0
M  V30 17560 C 1577.6 0.918137 1.42361 0
M  V30 17561 O 1578.8 1.10334 1.4222 0
M  V30 17562 H 1575.18 0.64345 0.3892 0
M  V30 17563 H 1577.15 2.88827 0.749781 0
M  V30 17564 C 1575.9 2.4473 2.46987 0
M  V30 17565 H 1575.22 3.29066 2.27059 0
M  V30 17566 H 1576.66 2.79836 3.1854 0
M  V30 17567 C 1575.12 1.31445 3.10199 0
M  V30 17568 O 1575.65 0.635251 3.96645 0
M  V30 17569 N 1573.86 1.06927 2.70213 0
M  V30 17570 H 1573.4 1.62339 2.0001 0
M  V30 17571 H 1573.36 0.313273 3.12835 0
M  V30 17572 N 1577.13 -0.380637 1.52934 0
M  V30 17573 C 1578.38 -1.1265 1.68635 0
M  V30 17574 C 1578.71 -1.89397 0.429227 0
M  V30 17575 O 1577.99 -1.85863 -0.573182 0
M  V30 17576 C 1578.27 -2.09797 2.92673 0
M  V30 17577 C 1578.12 -1.36758 4.28506 0
M  V30 17578 C 1579.44 -3.10117 3.12274 0
M  V30 17579 H 1576.56 -0.408158 0.613658 0
M  V30 17580 H 1579.2 -0.408947 1.85547 0
M  V30 17581 H 1577.35 -2.70987 2.78385 0
M  V30 17582 H 1579.02 -0.784679 4.54577 0
M  V30 17583 H 1577.27 -0.669413 4.28604 0
M  V30 17584 H 1577.94 -2.07786 5.11399 0
M  V30 17585 H 1580.41 -2.59022 3.25648 0
M  V30 17586 H 1579.29 -3.75328 4.00525 0
M  V30 17587 H 1579.55 -3.79451 2.26868 0
M  V30 17588 N 1578.61 -1.44039 -0.639573 0
M  V30 17589 C 1579.56 -1.50254 -1.75192 0
M  V30 17590 C 1580.53 -0.350994 -1.62349 0
M  V30 17591 O 1581.71 -0.56006 -1.82395 0
M  V30 17592 C 1578.85 -1.44464 -3.13407 0
M  V30 17593 C 1577.97 -2.69929 -3.37287 0
M  V30 17594 C 1577.1 -2.56031 -4.65426 0
M  V30 17595 C 1576.14 -3.76699 -4.82456 0
M  V30 17596 N 1575.28 -3.61529 -6.01865 0
M  V30 17597 H 1580.12 -2.45296 -1.69216 0
M  V30 17598 H 1577.65 -1.21748 -0.825576 0
M  V30 17599 H 1579.61 -1.39099 -3.93328 0
M  V30 17600 H 1578.24 -0.529951 -3.1842 0
M  V30 17601 H 1577.29 -2.85516 -2.51366 0
M  V30 17602 H 1578.61 -3.59523 -3.45753 0
M  V30 17603 H 1577.76 -2.48451 -5.53495 0
M  V30 17604 H 1576.5 -1.63983 -4.59305 0
M  V30 17605 H 1575.5 -3.84672 -3.92819 0
M  V30 17606 H 1576.73 -4.69772 -4.90398 0
M  V30 17607 H 1574.67 -2.72226 -5.96849 0
M  V30 17608 H 1574.59 -4.44733 -6.1135 0
M  V30 17609 H 1575.86 -3.57826 -6.92518 0
M  V30 17610 N 1580.09 0.879207 -1.30796 0
M  V30 17611 C 1581.02 1.99134 -1.13482 0
M  V30 17612 C 1582.03 1.6262 -0.0764492 0
M  V30 17613 O 1583.22 1.75553 -0.323038 0
M  V30 17614 C 1580.32 3.31386 -0.709706 0
M  V30 17615 C 1579.5 3.963 -1.85108 0
M  V30 17616 C 1578.55 5.06858 -1.41356 0
M  V30 17617 O 1577.58 5.28178 -2.12172 0
M  V30 17618 N 1578.78 5.79746 -0.295789 0
M  V30 17619 H 1581.55 2.14536 -2.09271 0
M  V30 17620 H 1579.11 1.05264 -1.23009 0
M  V30 17621 H 1581.1 4.02719 -0.399903 0
M  V30 17622 H 1579.67 3.12209 0.156309 0
M  V30 17623 H 1578.89 3.18065 -2.3287 0
M  V30 17624 H 1580.18 4.36408 -2.61582 0
M  V30 17625 H 1579.58 5.64935 0.294166 0
M  V30 17626 H 1578.13 6.51784 -0.0454707 0
M  V30 17627 N 1581.57 1.13606 1.09231 0
M  V30 17628 C 1582.5 0.77306 2.15769 0
M  V30 17629 C 1583.51 -0.206148 1.6149 0
M  V30 17630 O 1584.7 0.014338 1.78494 0
M  V30 17631 C 1581.8 0.125475 3.38668 0
M  V30 17632 C 1580.97 1.13728 4.22356 0
M  V30 17633 C 1580.03 0.515021 5.23674 0
M  V30 17634 O 1579.06 1.1756 5.56928 0
M  V30 17635 N 1580.26 -0.712028 5.76117 0
M  V30 17636 H 1583.03 1.68984 2.47517 0
M  V30 17637 H 1580.59 1.02935 1.24964 0
M  V30 17638 H 1582.58 -0.303109 4.03563 0
M  V30 17639 H 1581.15 -0.694284 3.04792 0
M  V30 17640 H 1580.37 1.74309 3.53568 0
M  V30 17641 H 1581.66 1.82106 4.75094 0
M  V30 17642 H 1581.06 -1.26745 5.51319 0
M  V30 17643 H 1579.61 -1.08324 6.42736 0
M  V30 17644 N 1583.05 -1.27244 0.929878 0
M  V30 17645 C 1584.32 -1.89369 0.489774 0
M  V30 17646 C 1584.7 -1.84142 -1.03222 0
M  V30 17647 O 1584.05 -1.2881 -1.88733 0
M  V30 17648 C 1584.26 -3.33196 1.03833 0
M  V30 17649 C 1585.61 -4.101 1.10013 0
M  V30 17650 O 1586.63 -3.42221 0.988106 0
M  V30 17651 O 1585.49 -5.31468 1.27296 0
M  V30 17652 H 1582.59 -0.811789 0.157882 0
M  V30 17653 H 1585.13 -1.35496 1.02171 0
M  V30 17654 H 1583.9 -3.31304 2.08214 0
M  V30 17655 H 1583.53 -3.94592 0.488167 0
M  V30 17656 N 1584.52 -0.695628 -1.41417 0
M  V30 17657 C 1585.47 -0.0189456 -2.32592 0
M  V30 17658 C 1586.47 0.76848 -1.50966 0
M  V30 17659 O 1587.67 0.674096 -1.66901 0
M  V30 17660 H 1584.05 0.0126742 -0.751893 0
M  V30 17661 H 1586.02 -0.804968 -2.87337 0
M  V30 17662 C 1584.77 0.903458 -3.35757 0
M  V30 17663 H 1584.09 0.306963 -3.9862 0
M  V30 17664 H 1585.53 1.34525 -4.02093 0
M  V30 17665 C 1583.99 2.01966 -2.69651 0
M  V30 17666 O 1584.52 3.10845 -2.54438 0
M  V30 17667 N 1582.72 1.79741 -2.28345 0
M  V30 17668 H 1582.27 0.911929 -2.40918 0
M  V30 17669 H 1582.23 2.54609 -1.84449 0
M  V30 17670 N 1586 1.51322 -0.440383 0
M  V30 17671 C 1587.25 2.02413 0.125248 0
M  V30 17672 C 1587.58 1.32374 1.42094 0
M  V30 17673 O 1586.86 0.439624 1.89467 0
M  V30 17674 C 1587.14 3.58483 0.340858 0
M  V30 17675 C 1586.99 4.39134 -0.973701 0
M  V30 17676 C 1588.31 4.25891 1.10927 0
M  V30 17677 H 1585.43 0.735683 0.0440452 0
M  V30 17678 H 1588.07 1.80932 -0.579976 0
M  V30 17679 H 1586.22 3.76917 0.941572 0
M  V30 17680 H 1587.89 4.32343 -1.60863 0
M  V30 17681 H 1586.14 4.04097 -1.57759 0
M  V30 17682 H 1586.81 5.46506 -0.776845 0
M  V30 17683 H 1589.28 4.11746 0.600403 0
M  V30 17684 H 1588.16 5.34967 1.2289 0
M  V30 17685 H 1588.42 3.86958 2.13813 0
M  V30 17686 N 1587.48 0.171848 1.5666 0
M  V30 17687 C 1588.43 -0.758237 2.17989 0
M  V30 17688 C 1589.4 -1.22654 1.12006 0
M  V30 17689 O 1590.58 -1.29461 1.40159 0
M  V30 17690 C 1587.72 -1.98189 2.82516 0
M  V30 17691 C 1586.83 -1.55711 4.02962 0
M  V30 17692 C 1585.97 -2.73447 4.55412 0
M  V30 17693 C 1585.01 -2.27462 5.68267 0
M  V30 17694 N 1584.15 -3.38293 6.15225 0
M  V30 17695 H 1588.99 -0.228467 2.97123 0
M  V30 17696 H 1586.52 -0.10104 1.46753 0
M  V30 17697 H 1588.48 -2.6996 3.18084 0
M  V30 17698 H 1587.11 -2.48536 2.05985 0
M  V30 17699 H 1586.16 -0.736126 3.7321 0
M  V30 17700 H 1587.47 -1.17957 4.84652 0
M  V30 17701 H 1586.63 -3.53374 4.93165 0
M  V30 17702 H 1585.37 -3.14462 3.7278 0
M  V30 17703 H 1584.37 -1.45982 5.30065 0
M  V30 17704 H 1585.6 -1.87505 6.52701 0
M  V30 17705 H 1583.54 -3.78882 5.35522 0
M  V30 17706 H 1583.46 -3.04633 6.91907 0
M  V30 17707 H 1584.73 -4.18503 6.57629 0
M  V30 17708 N 1588.96 -1.5727 -0.101874 0
M  V30 17709 C 1589.89 -1.98253 -1.15014 0
M  V30 17710 C 1590.9 -0.884147 -1.36699 0
M  V30 17711 O 1592.09 -1.16232 -1.35471 0
M  V30 17712 C 1589.19 -2.28043 -2.50698 0
M  V30 17713 C 1588.36 -3.59343 -2.49383 0
M  V30 17714 C 1587.42 -3.77147 -3.66943 0
M  V30 17715 O 1586.45 -4.49075 -3.49744 0
M  V30 17716 N 1587.65 -3.1721 -4.86167 0
M  V30 17717 H 1590.42 -2.88787 -0.801375 0
M  V30 17718 H 1587.98 -1.59264 -0.290941 0
M  V30 17719 H 1589.97 -2.37153 -3.27934 0
M  V30 17720 H 1588.54 -1.4355 -2.77691 0
M  V30 17721 H 1587.76 -3.61264 -1.57741 0
M  V30 17722 H 1589.05 -4.45612 -2.45576 0
M  V30 17723 H 1588.45 -2.58772 -5.03044 0
M  V30 17724 H 1587 -3.31816 -5.61018 0
M  V30 17725 N 1590.44 0.372521 -1.53134 0
M  V30 17726 C 1591.37 1.4759 -1.75357 0
M  V30 17727 C 1592.38 1.49938 -0.634223 0
M  V30 17728 O 1593.57 1.53543 -0.910322 0
M  V30 17729 C 1590.67 2.86382 -1.81214 0
M  V30 17730 C 1589.84 3.0781 -3.1076 0
M  V30 17731 C 1588.9 4.26677 -3.07949 0
M  V30 17732 O 1587.93 4.22186 -3.81769 0
M  V30 17733 N 1589.13 5.33729 -2.28283 0
M  V30 17734 H 1591.89 1.28908 -2.7056 0
M  V30 17735 H 1589.46 0.562186 -1.51826 0
M  V30 17736 H 1591.45 3.64029 -1.7682 0
M  V30 17737 H 1590.02 2.98344 -0.933249 0
M  V30 17738 H 1589.24 2.17884 -3.28512 0
M  V30 17739 H 1590.53 3.18991 -3.96386 0
M  V30 17740 H 1589.92 5.40238 -1.67806 0
M  V30 17741 H 1588.48 6.09979 -2.29714 0
M  V30 17742 N 1591.91 1.44376 0.631925 0
M  V30 17743 C 1593.19 1.37592 1.39024 0
M  V30 17744 C 1593.57 0.0342456 2.11072 0
M  V30 17745 O 1592.92 -0.983136 2.06268 0
M  V30 17746 C 1593.13 2.57355 2.35732 0
M  V30 17747 C 1594.48 3.01384 2.99087 0
M  V30 17748 O 1595.5 2.57554 2.46057 0
M  V30 17749 O 1594.36 3.77375 3.95285 0
M  V30 17750 H 1591.45 0.544828 0.622167 0
M  V30 17751 H 1594 1.56464 0.657048 0
M  V30 17752 H 1592.77 3.46615 1.81587 0
M  V30 17753 H 1592.39 2.40693 3.16469 0
M  V30 17754 N 1593.39 -0.872258 1.31261 0
M  V30 17755 C 1594.34 -2.00065 1.18645 0
M  V30 17756 C 1595.33 -1.69132 0.0952872 0
M  V30 17757 O 1596.54 -1.78156 0.257022 0
M  V30 17758 H 1592.91 -0.656201 0.367293 0
M  V30 17759 H 1594.89 -2.07837 2.14117 0
M  V30 17760 C 1593.63 -3.35628 0.908241 0
M  V30 17761 H 1592.96 -3.5995 1.74 0
M  V30 17762 H 1594.4 -4.15184 0.860134 0
M  V30 17763 C 1592.86 -3.34647 -0.388993 0
M  V30 17764 O 1593.39 -3.76271 -1.40651 0
M  V30 17765 N 1591.59 -2.87768 -0.404708 0
M  V30 17766 H 1591.14 -2.5409 0.423824 0
M  V30 17767 H 1591.1 -2.87494 -1.27258 0
M  V30 17768 N 1594.87 -1.14184 -1.08627 0
M  V30 17769 C 1596.12 -0.91001 -1.81236 0
M  V30 17770 C 1596.45 0.562134 -1.85886 0
M  V30 17771 O 1595.72 1.41631 -1.33307 0
M  V30 17772 C 1596.01 -1.50879 -3.26967 0
M  V30 17773 C 1595.86 -3.05063 -3.3054 0
M  V30 17774 C 1597.18 -1.18379 -4.2388 0
M  V30 17775 H 1594.3 -0.332025 -0.657973 0
M  V30 17776 H 1596.94 -1.41144 -1.27194 0
M  V30 17777 H 1595.09 -1.08236 -3.73118 0
M  V30 17778 H 1596.76 -3.5652 -2.9273 0
M  V30 17779 H 1595 -3.39628 -2.6988 0
M  V30 17780 H 1595.68 -3.42064 -4.33239 0
M  V30 17781 H 1598.15 -1.55242 -3.86056 0
M  V30 17782 H 1597.03 -1.62911 -5.24167 0
M  V30 17783 H 1597.29 -0.0987385 -4.4199 0
M  V30 17784 N 1596.35 1.26749 -0.936613 0
M  V30 17785 C 1597.3 2.26542 -0.441307 0
M  V30 17786 C 1598.27 1.58503 0.496581 0
M  V30 17787 O 1599.45 1.86259 0.41379 0
M  V30 17788 C 1596.59 3.43866 0.291633 0
M  V30 17789 C 1595.7 4.26592 -0.681397 0
M  V30 17790 C 1594.84 5.31151 0.0722826 0
M  V30 17791 C 1593.88 6.05553 -0.892869 0
M  V30 17792 N 1593.01 7.01891 -0.17124 0
M  V30 17793 H 1597.85 2.68282 -1.29725 0
M  V30 17794 H 1595.39 1.31914 -0.650928 0
M  V30 17795 H 1597.35 4.10711 0.732984 0
M  V30 17796 H 1595.98 3.03051 1.11175 0
M  V30 17797 H 1595.03 3.59579 -1.24126 0
M  V30 17798 H 1596.34 4.78201 -1.41864 0
M  V30 17799 H 1595.5 6.03987 0.57313 0
M  V30 17800 H 1594.24 4.80369 0.842439 0
M  V30 17801 H 1593.24 5.31548 -1.40488 0
M  V30 17802 H 1594.47 6.58424 -1.66296 0
M  V30 17803 H 1592.41 6.53426 0.580507 0
M  V30 17804 H 1592.33 7.5123 -0.847897 0
M  V30 17805 H 1593.6 7.78889 0.308662 0
M  V30 17806 N 1597.83 0.703118 1.41046 0
M  V30 17807 C 1598.76 0.00331992 2.292 0
M  V30 17808 C 1599.77 -0.736648 1.4518 0
M  V30 17809 O 1600.96 -0.586097 1.68604 0
M  V30 17810 C 1598.06 -1.01948 3.23203 0
M  V30 17811 C 1597.23 -0.347591 4.36017 0
M  V30 17812 C 1596.29 -1.27404 5.10543 0
M  V30 17813 O 1595.32 -0.763558 5.64055 0
M  V30 17814 N 1596.52 -2.60596 5.1872 0
M  V30 17815 H 1599.29 0.760179 2.89899 0
M  V30 17816 H 1596.85 0.549747 1.52281 0
M  V30 17817 H 1598.84 -1.64115 3.6993 0
M  V30 17818 H 1597.41 -1.6778 2.63758 0
M  V30 17819 H 1596.63 0.454088 3.91576 0
M  V30 17820 H 1597.92 0.119295 5.0866 0
M  V30 17821 H 1597.31 -3.0458 4.76705 0
M  V30 17822 H 1595.87 -3.17939 5.68998 0
M  V30 17823 N 1599.3 -1.51086 0.448402 0
M  V30 17824 C 1600.24 -2.25799 -0.393401 0
M  V30 17825 C 1601.25 -1.30241 -0.976792 0
M  V30 17826 O 1602.44 -1.55916 -0.869051 0
M  V30 17827 C 1599.54 -3.00682 -1.56345 0
M  V30 17828 C 1598.71 -4.23421 -1.09695 0
M  V30 17829 C 1597.77 -4.8079 -2.1384 0
M  V30 17830 O 1596.8 -5.42329 -1.72823 0
M  V30 17831 N 1598 -4.65792 -3.46437 0
M  V30 17832 H 1600.76 -2.98681 0.246986 0
M  V30 17833 H 1598.32 -1.59497 0.277902 0
M  V30 17834 H 1600.32 -3.35945 -2.25662 0
M  V30 17835 H 1598.89 -2.30741 -2.10897 0
M  V30 17836 H 1598.11 -3.93526 -0.230457 0
M  V30 17837 H 1599.39 -5.03049 -0.762832 0
M  V30 17838 H 1598.79 -4.16799 -3.82486 0
M  V30 17839 H 1597.35 -5.05386 -4.11616 0
M  V30 17840 N 1600.78 -0.180154 -1.56567 0
M  V30 17841 C 1602.06 0.509347 -1.88852 0
M  V30 17842 C 1602.44 1.80697 -1.09141 0
M  V30 17843 O 1601.79 2.27726 -0.187974 0
M  V30 17844 C 1602 0.742669 -3.41006 0
M  V30 17845 C 1603.35 1.06873 -4.1093 0
M  V30 17846 O 1604.37 0.830907 -3.46373 0
M  V30 17847 O 1603.23 1.51784 -5.24999 0
M  V30 17848 H 1600.32 0.263629 -0.783855 0
M  V30 17849 H 1602.87 -0.219251 -1.68278 0
M  V30 17850 H 1601.64 -0.17431 -3.90912 0
M  V30 17851 H 1601.26 1.52427 -3.67222 0
M  V30 17852 N 1602.26 1.57322 0.0935319 0
M  V30 17853 C 1603.17 2.05499 1.13169 0
M  V30 17854 C 1604.19 0.980199 1.43764 0
M  V30 17855 O 1605.36 1.29347 1.54374 0
M  V30 17856 C 1602.43 2.47111 2.43181 0
M  V30 17857 C 1601.49 3.68791 2.19754 0
M  V30 17858 C 1600.72 4.08408 3.43567 0
M  V30 17859 O 1600.94 3.48104 4.51863 0
M  V30 17860 O 1599.88 5.01351 3.33062 0
M  V30 17861 H 1603.7 2.9423 0.752491 0
M  V30 17862 H 1601.29 1.4623 0.306151 0
M  V30 17863 H 1603.17 2.74495 3.19735 0
M  V30 17864 H 1601.85 1.61518 2.80524 0
M  V30 17865 H 1600.75 3.46521 1.40976 0
M  V30 17866 H 1602.09 4.55169 1.87303 0
M  V30 17867 N 1603.74 -0.364395 1.53329 0
M  V30 17868 C 1604.65 -1.47027 1.82812 0
M  V30 17869 C 1605.66 -1.58559 0.716598 0
M  V30 17870 O 1606.84 -1.7443 1.00678 0
M  V30 17871 C 1603.91 -2.82278 2.01295 0
M  V30 17872 C 1602.97 -2.80264 3.25193 0
M  V30 17873 C 1602.2 -4.09065 3.42785 0
M  V30 17874 O 1602.42 -5.0529 2.64648 0
M  V30 17875 O 1601.36 -4.14804 4.36144 0
M  V30 17876 H 1605.18 -1.25035 2.76767 0
M  V30 17877 H 1602.77 -0.554608 1.38724 0
M  V30 17878 H 1604.65 -3.62416 2.15017 0
M  V30 17879 H 1603.32 -3.04244 1.10531 0
M  V30 17880 H 1602.23 -1.9882 3.16893 0
M  V30 17881 H 1603.56 -2.63252 4.15884 0
M  V30 17882 N 1605.22 -1.44709 -0.62426 0
M  V30 17883 C 1606.15 -1.48097 -1.74928 0
M  V30 17884 C 1607.16 -0.373567 -1.58456 0
M  V30 17885 O 1608.35 -0.639699 -1.66644 0
M  V30 17886 C 1605.45 -1.30576 -3.12735 0
M  V30 17887 C 1604.62 -2.54688 -3.55602 0
M  V30 17888 C 1603.68 -2.31966 -4.72311 0
M  V30 17889 O 1602.71 -3.05492 -4.80274 0
M  V30 17890 N 1603.91 -1.35463 -5.64473 0
M  V30 17891 H 1606.68 -2.45086 -1.72491 0
M  V30 17892 H 1604.24 -1.40236 -0.809039 0
M  V30 17893 H 1606.23 -1.13212 -3.88542 0
M  V30 17894 H 1604.8 -0.419262 -3.09776 0
M  V30 17895 H 1604.02 -2.87282 -2.69931 0
M  V30 17896 H 1605.31 -3.37223 -3.80996 0
M  V30 17897 H 1604.7 -0.747509 -5.60739 0
M  V30 17898 H 1603.26 -1.24075 -6.39882 0
M  V30 17899 N 1606.69 0.865285 -1.31722 0
M  V30 17900 C 1607.64 1.99433 -1.19704 0
M  V30 17901 C 1608.64 1.69079 -0.104255 0
M  V30 17902 O 1609.84 1.78017 -0.266466 0
M  V30 17903 H 1606.22 0.654244 -0.370768 0
M  V30 17904 H 1608.19 2.06699 -2.15216 0
M  V30 17905 C 1606.94 3.35142 -0.926027 0
M  V30 17906 H 1606.26 3.59022 -1.75906 0
M  V30 17907 H 1607.7 4.14722 -0.88214 0
M  V30 17908 C 1606.16 3.34848 0.37124 0
M  V30 17909 O 1606.69 3.77012 1.38654 0
M  V30 17910 N 1604.9 2.87979 0.389441 0
M  V30 17911 H 1604.44 2.53861 -0.437293 0
M  V30 17912 H 1604.4 2.88165 1.25731 0
M  V30 17913 N 1608.17 1.14759 1.0802 0
M  V30 17914 C 1609.12 0.833824 2.17141 0
M  V30 17915 C 1610.11 -0.189939 1.68332 0
M  V30 17916 O 1611.32 -0.0456447 1.79942 0
M  V30 17917 H 1607.7 0.251944 0.70854 0
M  V30 17918 H 1609.67 1.76196 2.40827 0
M  V30 17919 C 1608.42 0.33203 3.46111 0
M  V30 17920 H 1607.74 1.11117 3.84048 0
M  V30 17921 H 1609.18 0.151078 4.23731 0
M  V30 17922 C 1607.64 -0.945153 3.2337 0
M  V30 17923 O 1608.17 -2.0181 3.47326 0
M  V30 17924 N 1606.37 -0.881963 2.76893 0
M  V30 17925 H 1605.92 -0.00865768 2.57599 0
M  V30 17926 H 1605.88 -1.73706 2.62056 0
M  V30 17927 N 1609.65 -1.26251 0.943322 0
M  V30 17928 C 1610.93 -1.88839 0.509831 0
M  V30 17929 C 1611.31 -1.85227 -1.01263 0
M  V30 17930 O 1610.66 -1.30805 -1.87356 0
M  V30 17931 C 1610.87 -3.32076 1.07361 0
M  V30 17932 C 1612.21 -4.0891 1.14357 0
M  V30 17933 O 1613.24 -3.41153 1.02435 0
M  V30 17934 O 1612.1 -5.30088 1.32926 0
M  V30 17935 H 1609.19 -0.810069 0.166484 0
M  V30 17936 H 1611.74 -1.34405 1.03602 0
M  V30 17937 H 1610.51 -3.29077 2.11716 0
M  V30 17938 H 1610.13 -3.94052 0.529991 0
M  V30 17939 N 1611.13 -0.710588 -1.40671 0
M  V30 17940 C 1612.41 -0.175319 -1.94813 0
M  V30 17941 C 1612.79 1.31792 -1.64906 0
M  V30 17942 O 1612.13 2.07167 -0.964058 0
M  V30 17943 C 1612.34 -0.482691 -3.45646 0
M  V30 17944 C 1613.69 -0.418619 -4.22531 0
M  V30 17945 O 1614.72 -0.418463 -3.53733 0
M  V30 17946 O 1613.58 -0.391787 -5.45094 0
M  V30 17947 H 1610.67 -0.0237744 -0.826658 0
M  V30 17948 H 1613.22 -0.787778 -1.50307 0
M  V30 17949 H 1611.99 -1.51569 -3.60753 0
M  V30 17950 H 1611.61 0.159984 -3.97278 0
M  V30 17951 N 1612.61 1.50847 -0.456408 0
M  V30 17952 C 1613.86 2.01425 0.105223 0
M  V30 17953 C 1614.17 1.34413 1.421 0
M  V30 17954 O 1615.38 1.76066 2.06671 0
M  V30 17955 C 1613.83 3.59112 0.238051 0
M  V30 17956 C 1613.44 4.35073 -1.06842 0
M  V30 17957 C 1615.18 4.17778 0.752428 0
M  V30 17958 C 1613.09 5.84509 -0.900194 0
M  V30 17959 H 1612.02 0.752767 0.0430992 0
M  V30 17960 H 1614.67 1.73788 -0.589075 0
M  V30 17961 H 1613.05 3.83275 0.995795 0
M  V30 17962 H 1614.23 4.22645 -1.83598 0
M  V30 17963 H 1612.54 3.87948 -1.51278 0
M  V30 17964 H 1615.14 5.27155 0.895088 0
M  V30 17965 H 1615.48 3.78195 1.73994 0
M  V30 17966 H 1616.02 3.97765 0.052476 0
M  V30 17967 H 1612.75 6.28538 -1.86064 0
M  V30 17968 H 1612.27 5.99551 -0.172767 0
M  V30 17969 H 1613.95 6.44564 -0.560943 0
M  V30 17970 N 1614.09 0.188454 1.56469 0
M  V30 17971 C 1615.03 -0.751822 2.20115 0
M  V30 17972 C 1616.03 -1.22476 1.1703 0
M  V30 17973 O 1617.23 -1.18843 1.3519 0
M  V30 17974 H 1613.61 -0.260778 0.705336 0
M  V30 17975 H 1615.58 -0.191249 2.97786 0
M  V30 17976 C 1614.33 -1.96365 2.86943 0
M  V30 17977 H 1613.65 -1.60879 3.66003 0
M  V30 17978 H 1615.09 -2.60007 3.34921 0
M  V30 17979 C 1613.55 -2.7982 1.87623 0
M  V30 17980 O 1614.08 -3.7753 1.37237 0
M  V30 17981 N 1612.29 -2.45179 1.55999 0
M  V30 17982 H 1611.83 -1.6578 1.97167 0
M  V30 17983 H 1611.79 -3.01302 0.898012 0
M  V30 17984 N 1615.56 -1.5737 -0.0851874 0
M  V30 17985 C 1616.79 -1.91183 -0.803983 0
M  V30 17986 C 1617.21 -0.78365 -1.70999 0
M  V30 17987 O 1616.57 0.264266 -1.79364 0
M  V30 17988 C 1616.62 -3.239 -1.58496 0
M  V30 17989 O 1615.72 -3.12189 -2.69466 0
M  V30 17990 H 1615.06 -0.626413 -0.220233 0
M  V30 17991 H 1617.59 -2.04519 -0.0574426 0
M  V30 17992 H 1617.6 -3.5745 -1.96707 0
M  V30 17993 H 1616.28 -4.05594 -0.920111 0
M  V30 17994 H 1614.86 -2.90173 -2.3421 0
M  V30 17995 N 1617.04 0.356258 -1.53521 0
M  V30 17996 C 1618.27 1.11666 -1.73823 0
M  V30 17997 C 1618.68 1.83235 -0.471338 0
M  V30 17998 O 1618.02 1.74762 0.566035 0
M  V30 17999 C 1618.08 2.18429 -2.85533 0
M  V30 18000 C 1617.75 1.66545 -4.25572 0
M  V30 18001 C 1618.75 1.12454 -5.07592 0
M  V30 18002 C 1616.43 1.71776 -4.72015 0
M  V30 18003 C 1618.42 0.642826 -6.3415 0
M  V30 18004 C 1616.11 1.23217 -5.98549 0
M  V30 18005 C 1617.11 0.695609 -6.79449 0
M  V30 18006 O 1616.8 0.217211 -8.03606 0
M  V30 18007 H 1616.53 0.339418 -0.584612 0
M  V30 18008 H 1619.08 0.418173 -2.01098 0
M  V30 18009 H 1617.31 2.91798 -2.53753 0
M  V30 18010 H 1619 2.79934 -2.93925 0
M  V30 18011 H 1619.77 1.07745 -4.72881 0
M  V30 18012 H 1615.65 2.12481 -4.09112 0
M  V30 18013 H 1619.19 0.223354 -6.97242 0
M  V30 18014 H 1615.09 1.27623 -6.32758 0
M  V30 18015 H 1615.86 0.335679 -8.17811 0
M  V30 18016 N 1618.52 1.45038 0.616577 0
M  V30 18017 C 1619.47 1.53343 1.74896 0
M  V30 18018 C 1620.46 0.404033 1.64511 0
M  V30 18019 O 1621.67 0.57958 1.70414 0
M  V30 18020 H 1618.04 0.481471 0.577658 0
M  V30 18021 H 1620.01 2.4862 1.65017 0
M  V30 18022 C 1618.76 1.50871 3.13262 0
M  V30 18023 H 1618.09 2.37098 3.21908 0
M  V30 18024 H 1619.53 1.60741 3.9235 0
M  V30 18025 C 1617.98 0.231704 3.36102 0
M  V30 18026 O 1618.51 -0.692154 3.95692 0
M  V30 18027 N 1616.72 0.130232 2.90308 0
M  V30 18028 H 1616.27 0.882893 2.41997 0
M  V30 18029 H 1616.23 -0.723403 3.05964 0
M  V30 18030 N 1620 -0.858287 1.32179 0
M  V30 18031 C 1621.23 -1.64235 1.25341 0
M  V30 18032 C 1621.64 -1.88327 -0.181568 0
M  V30 18033 O 1620.98 -1.44996 -1.12791 0
M  V30 18034 C 1621.04 -3.02686 1.93963 0
M  V30 18035 C 1620.7 -3.01651 3.43301 0
M  V30 18036 C 1621.7 -2.78762 4.38848 0
M  V30 18037 C 1619.39 -3.22402 3.85178 0
M  V30 18038 C 1621.38 -2.76621 5.74247 0
M  V30 18039 C 1619.07 -3.19888 5.20687 0
M  V30 18040 C 1620.07 -2.97026 6.15032 0
M  V30 18041 O 1619.75 -2.94379 7.48061 0
M  V30 18042 H 1619.49 -0.518387 0.433879 0
M  V30 18043 H 1622.04 -1.07869 1.74795 0
M  V30 18044 H 1620.27 -3.60826 1.39074 0
M  V30 18045 H 1621.96 -3.63367 1.80884 0
M  V30 18046 H 1622.72 -2.62501 4.07821 0
M  V30 18047 H 1618.6 -3.39223 3.12167 0
M  V30 18048 H 1622.15 -2.58696 6.4786 0
M  V30 18049 H 1618.04 -3.35693 5.51344 0
M  V30 18050 H 1618.81 -3.10359 7.57377 0
M  V30 18051 N 1621.48 -1.1533 -1.07409 0
M  V30 18052 C 1622.72 -0.938329 -1.8159 0
M  V30 18053 C 1623.08 0.525171 -1.84678 0
M  V30 18054 O 1624.28 0.858449 -2.54724 0
M  V30 18055 C 1622.55 -1.53504 -3.22756 0
M  V30 18056 S 1624.11 -1.4631 -4.13689 0
M  V30 18057 H 1620.93 -0.337711 -0.625677 0
M  V30 18058 H 1623.53 -1.46868 -1.29035 0
M  V30 18059 H 1622.23 -2.59313 -3.18096 0
M  V30 18060 H 1621.77 -1.00353 -3.80385 0
M  V30 18061 H 1623.78 -0.455576 -4.94104 0
M  V30 18062 N 1622.95 1.25748 -0.950004 0
M  V30 18063 C 1623.9 2.28056 -0.457542 0
M  V30 18064 C 1624.9 1.62756 0.469776 0
M  V30 18065 O 1626.1 1.76623 0.347016 0
M  V30 18066 H 1622.48 0.740775 -0.129447 0
M  V30 18067 H 1624.45 2.66984 -1.33275 0
M  V30 18068 C 1623.2 3.46774 0.2536 0
M  V30 18069 H 1622.52 3.9725 -0.450808 0
M  V30 18070 H 1623.96 4.20255 0.562264 0
M  V30 18071 C 1622.42 3.02919 1.4745 0
M  V30 18072 O 1622.95 3.08527 2.57243 0
M  V30 18073 N 1621.15 2.58162 1.33419 0
M  V30 18074 H 1620.7 2.53799 0.440894 0
M  V30 18075 H 1620.66 2.29184 2.15226 0
M  V30 18076 N 1624.43 0.718038 1.40292 0
M  V30 18077 C 1625.38 0.0434428 2.27959 0
M  V30 18078 C 1626.37 -0.730049 1.43384 0
M  V30 18079 O 1627.56 -0.601847 1.66454 0
M  V30 18080 C 1624.69 -0.875738 3.31942 0
M  V30 18081 C 1623.77 -0.0973011 4.23988 0
M  V30 18082 N 1624.16 0.92073 4.97349 0
M  V30 18083 C 1622.46 -0.329494 4.44781 0
M  V30 18084 C 1623.16 1.38868 5.64881 0
M  V30 18085 N 1622.14 0.710377 5.38938 0
M  V30 18086 H 1625.94 0.823656 2.82123 0
M  V30 18087 H 1623.45 0.550843 1.52773 0
M  V30 18088 H 1625.45 -1.37436 3.93595 0
M  V30 18089 H 1624.11 -1.6553 2.79338 0
M  V30 18090 H 1625.12 1.30164 5.01276 0
M  V30 18091 H 1621.8 -1.08519 4.0315 0
M  V30 18092 H 1623.19 2.23471 6.33648 0
M  V30 18093 N 1625.91 -1.50602 0.464402 0
M  V30 18094 C 1626.84 -2.25029 -0.379075 0
M  V30 18095 C 1627.82 -1.28064 -1.00192 0
M  V30 18096 O 1629.01 -1.5727 -1.03915 0
M  V30 18097 C 1626.13 -3.02144 -1.53057 0
M  V30 18098 C 1625.18 -4.13981 -1.02576 0
M  V30 18099 S 1626.01 -5.35473 0.0541453 0
M  V30 18100 C 1627.17 -6.16133 -1.10138 0
M  V30 18101 H 1627.4 -2.96224 0.252731 0
M  V30 18102 H 1624.93 -1.52376 0.249205 0
M  V30 18103 H 1626.89 -3.47167 -2.19056 0
M  V30 18104 H 1625.55 -2.30489 -2.13387 0
M  V30 18105 H 1624.75 -4.67316 -1.88763 0
M  V30 18106 H 1624.35 -3.7136 -0.443597 0
M  V30 18107 H 1626.64 -6.46861 -2.01437 0
M  V30 18108 H 1627.58 -7.0549 -0.60743 0
M  V30 18109 H 1627.99 -5.48066 -1.35218 0
M  V30 18110 N 1627.39 -0.19675 -1.56367 0
M  V30 18111 C 1628.63 0.443732 -1.99525 0
M  V30 18112 C 1628.99 1.58685 -1.08088 0
M  V30 18113 O 1630.19 2.29164 -1.4049 0
M  V30 18114 C 1628.46 0.890565 -3.46127 0
M  V30 18115 S 1630.02 1.52865 -4.11312 0
M  V30 18116 H 1626.84 0.141834 -0.69671 0
M  V30 18117 H 1629.44 -0.300205 -1.93181 0
M  V30 18118 H 1628.15 0.0485587 -4.10371 0
M  V30 18119 H 1627.68 1.66793 -3.56292 0
M  V30 18120 H 1629.69 2.81743 -4.08455 0
M  V30 18121 N 1628.87 1.57413 0.0768405 0
M  V30 18122 C 1629.81 2.04373 1.1106 0
M  V30 18123 C 1630.81 0.948127 1.40381 0
M  V30 18124 O 1632.01 1.13325 1.39848 0
M  V30 18125 H 1628.39 0.65156 0.375464 0
M  V30 18126 H 1630.36 2.90352 0.688348 0
M  V30 18127 C 1629.11 2.49914 2.41741 0
M  V30 18128 H 1628.43 3.33808 2.20027 0
M  V30 18129 H 1629.87 2.8653 3.12532 0
M  V30 18130 C 1628.33 1.37996 3.07341 0
M  V30 18131 O 1628.86 0.719242 3.95209 0
M  V30 18132 N 1627.07 1.12635 2.67884 0
M  V30 18133 H 1626.61 1.66545 1.96521 0
M  V30 18134 H 1626.57 0.37956 3.121 0
M  V30 18135 N 1630.34 -0.348112 1.53707 0
M  V30 18136 C 1631.29 -1.44755 1.82068 0
M  V30 18137 C 1632.29 -1.54672 0.690865 0
M  V30 18138 O 1633.49 -1.5735 0.874123 0
M  V30 18139 H 1629.87 -0.482562 0.576747 0
M  V30 18140 H 1631.84 -1.18047 2.74058 0
M  V30 18141 C 1630.59 -2.81345 2.04305 0
M  V30 18142 H 1629.91 -2.74479 2.90691 0
M  V30 18143 H 1631.35 -3.57405 2.28117 0
M  V30 18144 C 1629.81 -3.26586 0.827224 0
M  V30 18145 O 1630.34 -4.01693 0.0244098 0
M  V30 18146 N 1628.55 -2.83335 0.645731 0
M  V30 18147 H 1628.09 -2.22379 1.3002 0
M  V30 18148 H 1628.05 -3.1396 -0.166313 0
M  V30 18149 N 1631.82 -1.45363 -0.608876 0
M  V30 18150 C 1632.77 -1.53936 -1.71966 0
M  V30 18151 C 1633.74 -0.385352 -1.61568 0
M  V30 18152 O 1634.92 -0.598622 -1.81166 0
M  V30 18153 C 1632.06 -1.51079 -3.10272 0
M  V30 18154 C 1631.18 -2.77022 -3.31486 0
M  V30 18155 C 1630.31 -2.65846 -4.59891 0
M  V30 18156 C 1629.35 -3.86848 -4.74357 0
M  V30 18157 N 1628.49 -3.74214 -5.94061 0
M  V30 18158 H 1633.33 -2.4883 -1.63974 0
M  V30 18159 H 1630.87 -1.23472 -0.799565 0
M  V30 18160 H 1632.82 -1.47411 -3.90289 0
M  V30 18161 H 1631.45 -0.597374 -3.17224 0
M  V30 18162 H 1630.51 -2.90783 -2.45253 0
M  V30 18163 H 1631.82 -3.66776 -3.38049 0
M  V30 18164 H 1630.97 -2.60136 -5.48101 0
M  V30 18165 H 1629.71 -1.73689 -4.55723 0
M  V30 18166 H 1628.72 -3.92918 -3.84572 0
M  V30 18167 H 1629.94 -4.80069 -4.80324 0
M  V30 18168 H 1627.89 -2.84825 -5.9094 0
M  V30 18169 H 1627.8 -4.57601 -6.01779 0
M  V30 18170 H 1629.07 -3.72434 -6.84772 0
M  V30 18171 N 1633.3 0.851265 -1.32632 0
M  V30 18172 C 1634.21 1.99239 -1.23858 0
M  V30 18173 C 1635.23 1.73339 -0.151517 0
M  V30 18174 O 1636.4 1.97919 -0.372822 0
M  V30 18175 C 1633.47 3.32987 -0.965417 0
M  V30 18176 C 1632.53 3.72087 -2.14126 0
M  V30 18177 C 1631.76 4.99453 -1.88103 0
M  V30 18178 O 1631.98 5.64399 -0.825253 0
M  V30 18179 O 1630.92 5.35763 -2.74302 0
M  V30 18180 H 1634.74 2.09579 -2.19796 0
M  V30 18181 H 1632.33 0.98243 -1.12555 0
M  V30 18182 H 1634.21 4.13151 -0.829713 0
M  V30 18183 H 1632.89 3.2368 -0.036219 0
M  V30 18184 H 1631.79 2.92485 -2.33245 0
M  V30 18185 H 1633.13 3.86045 -3.05336 0
M  V30 18186 N 1634.78 1.15898 1.06796 0
M  V30 18187 C 1635.71 0.818654 2.14081 0
M  V30 18188 C 1636.72 -0.171847 1.6189 0
M  V30 18189 O 1637.91 0.052196 1.78424 0
M  V30 18190 C 1635.01 0.197283 3.38325 0
M  V30 18191 C 1634.19 1.22662 4.19849 0
M  V30 18192 C 1633.24 0.625985 5.22463 0
M  V30 18193 O 1632.27 1.29347 5.54309 0
M  V30 18194 N 1633.47 -0.589665 5.77497 0
M  V30 18195 H 1636.24 1.74196 2.43877 0
M  V30 18196 H 1633.8 1.05562 1.22753 0
M  V30 18197 H 1635.79 -0.217439 4.04115 0
M  V30 18198 H 1634.36 -0.629476 3.06197 0
M  V30 18199 H 1633.58 1.8177 3.49791 0
M  V30 18200 H 1634.87 1.92143 4.71125 0
M  V30 18201 H 1634.27 -1.15022 5.53883 0
M  V30 18202 H 1632.82 -0.946667 6.44889 0
M  V30 18203 N 1636.26 -1.25243 0.956659 0
M  V30 18204 C 1637.17 -2.29529 0.48515 0
M  V30 18205 C 1638.18 -1.68121 -0.448494 0
M  V30 18206 O 1639.36 -1.98773 -0.324243 0
M  V30 18207 C 1636.42 -3.45952 -0.227611 0
M  V30 18208 C 1635.48 -4.22795 0.744495 0
M  V30 18209 C 1634.72 -5.3366 0.0656539 0
M  V30 18210 O 1634.94 -5.58722 -1.14829 0
M  V30 18211 O 1633.87 -5.97181 0.75222 0
M  V30 18212 H 1637.7 -2.71955 1.35181 0
M  V30 18213 H 1635.29 -1.30729 0.723203 0
M  V30 18214 H 1637.17 -4.16687 -0.628474 0
M  V30 18215 H 1635.84 -3.05524 -1.06942 0
M  V30 18216 H 1634.75 -3.5448 1.1956 0
M  V30 18217 H 1636.08 -4.67012 1.55438 0
M  V30 18218 N 1637.73 -0.725468 -1.3991 0
M  V30 18219 C 1638.68 -0.0682776 -2.325 0
M  V30 18220 C 1639.68 0.736285 -1.52562 0
M  V30 18221 O 1640.88 0.638542 -1.68293 0
M  V30 18222 H 1637.26 -0.00327742 -0.751993 0
M  V30 18223 H 1639.23 -0.865735 -2.85565 0
M  V30 18224 C 1637.98 0.832036 -3.37598 0
M  V30 18225 H 1637.3 0.222341 -3.99181 0
M  V30 18226 H 1638.74 1.25965 -4.04856 0
M  V30 18227 C 1637.2 1.96201 -2.73874 0
M  V30 18228 O 1637.73 3.05378 -2.60974 0
M  V30 18229 N 1635.94 1.74857 -2.32106 0
M  V30 18230 H 1635.48 0.860621 -2.42798 0
M  V30 18231 H 1635.44 2.50639 -1.89808 0
M  V30 18232 N 1639.21 1.50354 -0.472382 0
M  V30 18233 C 1640.12 2.32318 0.326405 0
M  V30 18234 C 1641.14 1.4276 0.994771 0
M  V30 18235 O 1642.31 1.75811 0.98246 0
M  V30 18236 C 1639.38 3.17468 1.39337 0
M  V30 18237 C 1638.44 4.22848 0.741465 0
M  V30 18238 C 1637.67 5.03929 1.75759 0
M  V30 18239 O 1637.9 4.86105 2.98425 0
M  V30 18240 O 1636.83 5.87051 1.32871 0
M  V30 18241 H 1640.66 3.01749 -0.343702 0
M  V30 18242 H 1638.24 1.47553 -0.234207 0
M  V30 18243 H 1640.12 3.703 2.01136 0
M  V30 18244 H 1638.8 2.50764 2.04692 0
M  V30 18245 H 1637.71 3.74005 0.0844848 0
M  V30 18246 H 1639.04 4.92026 0.130838 0
M  V30 18247 N 1640.69 0.205039 1.56261 0
M  V30 18248 C 1641.92 -0.439502 2.0269 0
M  V30 18249 C 1642.34 -1.53715 1.08413 0
M  V30 18250 O 1641.7 -1.81167 0.0693616 0
M  V30 18251 C 1641.75 -0.963672 3.47485 0
M  V30 18252 O 1640.85 -2.07602 3.56336 0
M  V30 18253 H 1640.19 -0.101543 0.65619 0
M  V30 18254 H 1642.72 0.318835 2.021 0
M  V30 18255 H 1642.73 -1.27773 3.87476 0
M  V30 18256 H 1641.41 -0.160203 4.15591 0
M  V30 18257 H 1639.98 -1.76985 3.28224 0
M  V30 18258 N 1642.17 -1.57451 -0.0684915 0
M  V30 18259 C 1643.39 -1.92025 -0.78366 0
M  V30 18260 C 1643.82 -0.801743 -1.70158 0
M  V30 18261 O 1643.18 0.245227 -1.79634 0
M  V30 18262 C 1643.23 -3.25563 -1.55051 0
M  V30 18263 O 1642.33 -3.15029 -2.6614 0
M  V30 18264 H 1641.67 -0.628714 -0.213576 0
M  V30 18265 H 1644.2 -2.04569 -0.0357474 0
M  V30 18266 H 1644.21 -3.59516 -1.92905 0
M  V30 18267 H 1642.89 -4.06547 -0.87704 0
M  V30 18268 H 1641.46 -2.9264 -2.31119 0
M  V30 18269 N 1643.65 0.339955 -1.5389 0
M  V30 18270 C 1644.59 1.41765 -1.8213 0
M  V30 18271 C 1645.56 1.52109 -0.667235 0
M  V30 18272 O 1646.75 1.67591 -0.91203 0
M  V30 18273 C 1643.89 2.78366 -2.03977 0
M  V30 18274 C 1643 2.76785 -3.31684 0
M  V30 18275 C 1642.14 4.05125 -3.4358 0
M  V30 18276 C 1641.18 3.97787 -4.65223 0
M  V30 18277 N 1640.31 5.17825 -4.74133 0
M  V30 18278 H 1645.15 1.16984 -2.74078 0
M  V30 18279 H 1642.69 0.566618 -1.35749 0
M  V30 18280 H 1644.65 3.57755 -2.14633 0
M  V30 18281 H 1643.28 3.01491 -1.15338 0
M  V30 18282 H 1642.33 1.89481 -3.2985 0
M  V30 18283 H 1643.64 2.67241 -4.2117 0
M  V30 18284 H 1642.8 4.9294 -3.53688 0
M  V30 18285 H 1641.54 4.17455 -2.52157 0
M  V30 18286 H 1640.54 3.08357 -4.55188 0
M  V30 18287 H 1641.77 3.87037 -5.58014 0
M  V30 18288 H 1639.71 5.30691 -3.8562 0
M  V30 18289 H 1639.63 5.10552 -5.5756 0
M  V30 18290 H 1640.9 6.074 -4.88554 0
M  V30 18291 N 1645.13 1.45684 0.601159 0
M  V30 18292 C 1646.36 1.53351 1.38445 0
M  V30 18293 C 1646.76 0.167103 1.88461 0
M  V30 18294 O 1646.11 -0.842684 1.63231 0
M  V30 18295 C 1646.17 2.46214 2.61952 0
M  V30 18296 C 1645.83 3.92826 2.33532 0
M  V30 18297 C 1646.83 4.8255 1.93498 0
M  V30 18298 C 1644.51 4.378 2.46245 0
M  V30 18299 C 1646.51 6.15257 1.66547 0
M  V30 18300 C 1644.2 5.70546 2.18908 0
M  V30 18301 C 1645.19 6.59094 1.79121 0
M  V30 18302 O 1644.88 7.89378 1.52108 0
M  V30 18303 H 1644.61 0.521638 0.429965 0
M  V30 18304 H 1647.17 1.91622 0.739617 0
M  V30 18305 H 1645.4 2.02926 3.29178 0
M  V30 18306 H 1647.09 2.44492 3.24004 0
M  V30 18307 H 1647.85 4.49066 1.83207 0
M  V30 18308 H 1643.73 3.69115 2.76179 0
M  V30 18309 H 1647.28 6.8433 1.35418 0
M  V30 18310 H 1643.17 6.03583 2.28818 0
M  V30 18311 H 1643.94 8.01468 1.66107 0
M  V30 18312 N 1646.6 -0.84422 1.33082 0
M  V30 18313 C 1647.85 -1.59404 1.23585 0
M  V30 18314 C 1648.17 -1.94593 -0.198208 0
M  V30 18315 O 1649.37 -2.68307 -0.415138 0
M  V30 18316 C 1647.83 -2.87489 2.16513 0
M  V30 18317 C 1647.44 -2.59685 3.65059 0
M  V30 18318 C 1649.18 -3.6551 2.15877 0
M  V30 18319 C 1647.09 -3.83834 4.49917 0
M  V30 18320 H 1646.02 -0.598191 0.459003 0
M  V30 18321 H 1648.67 -0.931299 1.58111 0
M  V30 18322 H 1647.05 -3.55276 1.74913 0
M  V30 18323 H 1648.22 -2.00143 4.15065 0
M  V30 18324 H 1646.54 -1.94977 3.6793 0
M  V30 18325 H 1649.14 -4.57654 2.76509 0
M  V30 18326 H 1649.48 -4.00031 1.15244 0
M  V30 18327 H 1650.01 -3.0464 2.55811 0
M  V30 18328 H 1646.75 -3.54448 5.51404 0
M  V30 18329 H 1646.27 -4.42734 4.04656 0
M  V30 18330 H 1647.95 -4.51468 4.63449 0
M  V30 18331 N 1648.08 -1.16463 -1.0618 0
M  V30 18332 C 1649.31 -0.97159 -1.83235 0
M  V30 18333 C 1649.73 0.475295 -1.81996 0
M  V30 18334 O 1649.09 1.33964 -1.22161 0
M  V30 18335 C 1649.14 -1.50504 -3.2769 0
M  V30 18336 O 1648.24 -0.712128 -4.06205 0
M  V30 18337 H 1647.58 -0.345676 -0.566925 0
M  V30 18338 H 1650.11 -1.54727 -1.33868 0
M  V30 18339 H 1650.12 -1.52301 -3.78508 0
M  V30 18340 H 1648.8 -2.55832 -3.27907 0
M  V30 18341 H 1647.37 -0.764756 -3.64974 0
M  V30 18342 N 1649.56 1.24734 -0.963288 0
M  V30 18343 C 1650.49 2.27892 -0.508667 0
M  V30 18344 C 1651.47 1.64055 0.449438 0
M  V30 18345 O 1652.66 1.91083 0.346519 0
M  V30 18346 C 1649.79 3.46688 0.206157 0
M  V30 18347 C 1648.74 4.22762 -0.667534 0
M  V30 18348 C 1648.07 5.34402 0.178529 0
M  V30 18349 C 1649.37 4.84535 -1.94995 0
M  V30 18350 H 1651.06 2.66171 -1.37088 0
M  V30 18351 H 1648.61 1.27952 -0.660622 0
M  V30 18352 H 1650.56 4.17985 0.535391 0
M  V30 18353 H 1649.28 3.07422 1.10269 0
M  V30 18354 H 1647.94 3.53259 -0.979976 0
M  V30 18355 H 1647.59 4.91377 1.07508 0
M  V30 18356 H 1647.29 5.86218 -0.402808 0
M  V30 18357 H 1648.81 6.08529 0.502533 0
M  V30 18358 H 1650.23 5.4793 -1.68658 0
M  V30 18359 H 1648.62 5.46564 -2.47765 0
M  V30 18360 H 1649.69 4.06236 -2.64765 0
M  V30 18361 N 1651.04 0.732878 1.39523 0
M  V30 18362 C 1652.29 0.279338 2.0016 0
M  V30 18363 C 1652.61 -1.13673 1.58441 0
M  V30 18364 O 1651.88 -1.77369 0.831681 0
M  V30 18365 H 1650.46 0.100288 0.740237 0
M  V30 18366 H 1653.12 0.942363 1.70603 0
M  V30 18367 H 1652.21 0.326053 3.10392 0
M  V30 18368 N 1652.52 -1.50101 0.480349 0
M  V30 18369 C 1653.93 -1.8668 0.0274773 0
M  V30 18370 C 1654.28 -1.39442 -1.38023 0
M  V30 18371 O 1653.4 -0.763363 -2.02489 0
M  V30 18372 C 1654 -3.38773 0.043087 0
M  V30 18373 C 1652.56 -3.74728 -0.354352 0
M  V30 18374 C 1651.7 -2.7403 0.424583 0
M  V30 18375 H 1654.65 -1.42713 0.694172 0
M  V30 18376 H 1654.68 -3.72894 -0.756989 0
M  V30 18377 H 1654.19 -3.73123 1.06775 0
M  V30 18378 H 1652.29 -3.45981 -1.38303 0
M  V30 18379 H 1652.4 -4.79075 -0.0492608 0
M  V30 18380 H 1650.77 -2.54403 -0.122927 0
M  V30 18381 H 1651.55 -3.11225 1.44894 0
M  V30 18382 N 1653.99 -0.213323 -1.5615 0
M  V30 18383 C 1654.94 0.716708 -2.21283 0
M  V30 18384 C 1655.94 1.20599 -1.18963 0
M  V30 18385 O 1657.14 1.16677 -1.37064 0
M  V30 18386 H 1653.52 0.249524 -0.709395 0
M  V30 18387 H 1655.49 0.14385 -2.98053 0
M  V30 18388 C 1654.24 1.91775 -2.9003 0
M  V30 18389 H 1653.56 1.55036 -3.68516 0
M  V30 18390 H 1655 2.54646 -3.39016 0
M  V30 18391 C 1653.46 2.768 -1.92051 0
M  V30 18392 O 1653.99 3.75299 -1.43225 0
M  V30 18393 N 1652.19 2.42666 -1.5988 0
M  V30 18394 H 1651.74 1.62622 -1.99779 0
M  V30 18395 H 1651.7 2.99836 -0.945833 0
M  V30 18396 N 1655.47 1.57485 0.0601405 0
M  V30 18397 C 1656.4 2.01233 1.09717 0
M  V30 18398 C 1657.42 0.92008 1.34307 0
M  V30 18399 O 1658.61 1.19783 1.32342 0
M  V30 18400 C 1655.71 2.3461 2.44564 0
M  V30 18401 C 1654.88 3.65828 2.39768 0
M  V30 18402 C 1653.94 3.86743 3.56814 0
M  V30 18403 O 1652.96 4.5819 3.37714 0
M  V30 18404 N 1654.17 3.29988 4.77586 0
M  V30 18405 H 1656.93 2.9081 0.724526 0
M  V30 18406 H 1654.49 1.5998 0.248613 0
M  V30 18407 H 1656.48 2.45764 3.21531 0
M  V30 18408 H 1655.05 1.50862 2.73787 0
M  V30 18409 H 1654.27 3.65319 1.48107 0
M  V30 18410 H 1655.56 4.51966 2.33675 0
M  V30 18411 H 1654.96 2.72018 4.96007 0
M  V30 18412 H 1653.52 3.46573 5.52024 0
M  V30 18413 N 1656.95 -0.331789 1.54068 0
M  V30 18414 C 1657.9 -1.40889 1.7926 0
M  V30 18415 C 1658.88 -1.47263 0.648266 0
M  V30 18416 O 1660.08 -1.51934 0.908021 0
M  V30 18417 C 1657.21 -2.77864 2.0161 0
M  V30 18418 C 1656.29 -2.75835 3.22142 0
M  V30 18419 N 1656.68 -2.43431 4.43368 0
M  V30 18420 C 1654.98 -3.06972 3.23549 0
M  V30 18421 C 1655.68 -2.49932 5.2527 0
M  V30 18422 N 1654.66 -2.86037 4.6226 0
M  V30 18423 H 1658.46 -1.14751 2.70572 0
M  V30 18424 H 1655.97 -0.540225 1.53151 0
M  V30 18425 H 1657.97 -3.55486 2.17796 0
M  V30 18426 H 1656.63 -3.04938 1.11547 0
M  V30 18427 H 1657.64 -2.16421 4.70513 0
M  V30 18428 H 1654.32 -3.39142 2.43493 0
M  V30 18429 H 1655.71 -2.27938 6.32055 0
M  V30 18430 N 1658.43 -1.46001 -0.593424 0
M  V30 18431 C 1659.38 -1.55752 -1.70323 0
M  V30 18432 C 1660.35 -0.402466 -1.6115 0
M  V30 18433 O 1661.53 -0.617804 -1.80521 0
M  V30 18434 C 1658.67 -1.54362 -3.08653 0
M  V30 18435 C 1657.78 -2.80523 -3.28529 0
M  V30 18436 C 1656.92 -2.70709 -4.57045 0
M  V30 18437 C 1655.96 -3.91857 -4.70228 0
M  V30 18438 N 1655.09 -3.80494 -5.90059 0
M  V30 18439 H 1659.93 -2.50555 -1.61326 0
M  V30 18440 H 1657.47 -1.24313 -0.786425 0
M  V30 18441 H 1659.43 -1.51542 -3.88704 0
M  V30 18442 H 1658.06 -0.630986 -3.16573 0
M  V30 18443 H 1657.11 -2.93368 -2.42155 0
M  V30 18444 H 1658.42 -3.70341 -3.3414 0
M  V30 18445 H 1657.58 -2.65935 -5.45311 0
M  V30 18446 H 1656.32 -1.78513 -4.53855 0
M  V30 18447 H 1655.32 -3.96975 -3.80383 0
M  V30 18448 H 1656.55 -4.85136 -4.75205 0
M  V30 18449 H 1654.49 -2.91077 -5.87886 0
M  V30 18450 H 1654.41 -4.63958 -5.96891 0
M  V30 18451 H 1655.68 -3.79676 -6.80783 0
M  V30 18452 N 1659.91 0.83715 -1.33527 0
M  V30 18453 C 1661.13 1.62976 -1.28271 0
M  V30 18454 C 1661.56 1.87554 0.143201 0
M  V30 18455 O 1660.91 1.44088 1.10038 0
M  V30 18456 C 1660.96 2.95607 -2.06516 0
M  V30 18457 O 1660.07 3.87 -1.42494 0
M  V30 18458 H 1659.41 0.496212 -0.441214 0
M  V30 18459 H 1661.94 1.04137 -1.76115 0
M  V30 18460 H 1661.95 3.4529 -2.17344 0
M  V30 18461 H 1660.62 2.77041 -3.10195 0
M  V30 18462 H 1659.2 3.45492 -1.40321 0
M  V30 18463 N 1661.38 1.17024 1.05561 0
M  V30 18464 C 1662.31 0.906823 2.15172 0
M  V30 18465 C 1663.3 -0.149745 1.6944 0
M  V30 18466 O 1664.48 -0.000287092 1.942 0
M  V30 18467 C 1661.61 0.415251 3.44809 0
M  V30 18468 C 1660.56 1.41058 4.04088 0
M  V30 18469 C 1659.89 0.777109 5.29023 0
M  V30 18470 C 1661.19 2.78258 4.42007 0
M  V30 18471 H 1662.88 1.82347 2.37466 0
M  V30 18472 H 1660.43 0.878162 1.14124 0
M  V30 18473 H 1662.38 0.218407 4.20834 0
M  V30 18474 H 1661.11 -0.536924 3.22156 0
M  V30 18475 H 1659.77 1.5941 3.30127 0
M  V30 18476 H 1659.41 -0.181784 5.02671 0
M  V30 18477 H 1659.11 1.44151 5.69644 0
M  V30 18478 H 1660.64 0.590455 6.07738 0
M  V30 18479 H 1662.05 2.63645 5.09082 0
M  V30 18480 H 1660.45 3.41241 4.93634 0
M  V30 18481 H 1661.52 3.3295 3.52523 0
M  V30 18482 N 1662.86 -1.24221 0.969889 0
M  V30 18483 C 1663.81 -2.25292 0.501215 0
M  V30 18484 C 1664.78 -1.59764 -0.454382 0
M  V30 18485 O 1665.96 -1.87291 -0.364261 0
M  V30 18486 C 1663.1 -3.44518 -0.200361 0
M  V30 18487 C 1662.22 -4.24636 0.79426 0
M  V30 18488 C 1661.35 -5.31156 0.068568 0
M  V30 18489 C 1660.39 -6.02973 1.05311 0
M  V30 18490 N 1659.53 -7.0119 0.357274 0
M  V30 18491 H 1664.37 -2.64749 1.36792 0
M  V30 18492 H 1661.91 -1.30142 0.685673 0
M  V30 18493 H 1663.86 -4.1251 -0.623833 0
M  V30 18494 H 1662.49 -3.05892 -1.03101 0
M  V30 18495 H 1661.55 -3.56161 1.33616 0
M  V30 18496 H 1662.86 -4.74271 1.54493 0
M  V30 18497 H 1662.01 -6.05294 -0.412792 0
M  V30 18498 H 1660.75 -4.82434 -0.714781 0
M  V30 18499 H 1659.76 -5.27636 1.54532 0
M  V30 18500 H 1660.98 -6.53784 1.83694 0
M  V30 18501 H 1658.93 -6.54736 -0.407059 0
M  V30 18502 H 1658.84 -7.48718 1.04677 0
M  V30 18503 H 1660.11 -7.79433 -0.102045 0
M  V30 18504 N 1664.34 -0.740267 -1.39132 0
M  V30 18505 C 1665.25 -0.105452 -2.34363 0
M  V30 18506 C 1666.27 0.715908 -1.5859 0
M  V30 18507 O 1667.44 0.643155 -1.90855 0
M  V30 18508 C 1664.51 0.787141 -3.37646 0
M  V30 18509 C 1663.57 -0.047071 -4.29274 0
M  V30 18510 C 1662.8 0.803014 -5.27624 0
M  V30 18511 O 1663.02 2.04155 -5.32613 0
M  V30 18512 O 1661.96 0.228879 -6.01465 0
M  V30 18513 H 1665.78 -0.891588 -2.90318 0
M  V30 18514 H 1663.37 -0.500996 -1.40749 0
M  V30 18515 H 1665.25 1.29769 -4.00921 0
M  V30 18516 H 1663.93 1.552 -2.84068 0
M  V30 18517 H 1662.83 -0.603265 -3.69204 0
M  V30 18518 H 1664.17 -0.774273 -4.86072 0
M  V30 18519 N 1665.82 1.49844 -0.488302 0
M  V30 18520 C 1667.05 2.06519 0.0577968 0
M  V30 18521 C 1667.46 1.35039 1.32519 0
M  V30 18522 O 1666.8 0.418468 1.7887 0
M  V30 18523 C 1666.86 3.57328 0.394577 0
M  V30 18524 C 1666.53 4.50411 -0.773259 0
M  V30 18525 C 1667.52 4.9268 -1.66019 0
M  V30 18526 C 1665.21 4.92875 -0.968465 0
M  V30 18527 C 1667.2 5.76139 -2.72659 0
M  V30 18528 C 1664.89 5.76113 -2.03806 0
M  V30 18529 C 1665.89 6.17648 -2.91548 0
M  V30 18530 O 1665.57 6.99224 -3.96663 0
M  V30 18531 H 1665.31 0.675902 -0.0115057 0
M  V30 18532 H 1667.86 1.93777 -0.681149 0
M  V30 18533 H 1666.09 3.68033 1.18695 0
M  V30 18534 H 1667.78 3.96295 0.877786 0
M  V30 18535 H 1668.55 4.60528 -1.52114 0
M  V30 18536 H 1664.42 4.60056 -0.294936 0
M  V30 18537 H 1667.97 6.08478 -3.41174 0
M  V30 18538 H 1663.87 6.07678 -2.17711 0
M  V30 18539 H 1664.63 7.17507 -3.93861 0
M  V30 18540 N 1667.3 0.221601 1.56034 0
M  V30 18541 C 1668.23 -0.683171 2.23282 0
M  V30 18542 C 1669.21 -1.20101 1.20456 0
M  V30 18543 O 1670.39 -1.245 1.49041 0
M  V30 18544 C 1667.52 -1.89143 2.91277 0
M  V30 18545 C 1666.48 -1.50742 4.00576 0
M  V30 18546 C 1665.8 -2.79446 4.55867 0
M  V30 18547 C 1667.1 -0.697388 5.17623 0
M  V30 18548 H 1668.8 -0.122488 2.99149 0
M  V30 18549 H 1666.34 -0.0574732 1.43885 0
M  V30 18550 H 1668.3 -2.52982 3.37013 0
M  V30 18551 H 1667.02 -2.47708 2.12858 0
M  V30 18552 H 1665.68 -0.892492 3.5557 0
M  V30 18553 H 1665.33 -3.36155 3.74177 0
M  V30 18554 H 1665.03 -2.54486 5.29633 0
M  V30 18555 H 1666.55 -3.44228 5.04321 0
M  V30 18556 H 1667.96 -1.23948 5.59741 0
M  V30 18557 H 1666.36 -0.544875 5.97621 0
M  V30 18558 H 1667.43 0.295981 4.83996 0
M  V30 18559 N 1668.77 -1.57515 -0.0517878 0
M  V30 18560 C 1670.05 -1.79321 -0.781233 0
M  V30 18561 C 1670.43 -0.814142 -1.94769 0
M  V30 18562 O 1669.78 0.14858 -2.28016 0
M  V30 18563 C 1669.99 -3.26398 -1.23553 0
M  V30 18564 C 1671.34 -3.90773 -1.66077 0
M  V30 18565 O 1672.36 -3.3041 -1.33069 0
M  V30 18566 O 1671.22 -4.97008 -2.27257 0
M  V30 18567 H 1668.31 -0.736627 -0.375912 0
M  V30 18568 H 1670.86 -1.69673 -0.0303173 0
M  V30 18569 H 1669.63 -3.89232 -0.401806 0
M  V30 18570 H 1669.26 -3.40848 -2.04716 0
M  V30 18571 N 1670.25 0.323614 -1.54242 0
M  V30 18572 C 1671.48 1.0811 -1.76408 0
M  V30 18573 C 1671.9 1.81707 -0.512656 0
M  V30 18574 O 1671.25 1.75035 0.516638 0
M  V30 18575 C 1671.3 2.07923 -2.9572 0
M  V30 18576 O 1671.03 1.37317 -4.16024 0
M  V30 18577 C 1672.53 2.95891 -3.30096 0
M  V30 18578 H 1669.75 0.321583 -0.588919 0
M  V30 18579 H 1672.29 0.369756 -2.01129 0
M  V30 18580 H 1670.45 2.74593 -2.73272 0
M  V30 18581 H 1670.86 2.04158 -4.83135 0
M  V30 18582 H 1672.33 3.61822 -4.1688 0
M  V30 18583 H 1672.81 3.62986 -2.47261 0
M  V30 18584 H 1673.42 2.34783 -3.54622 0
M  V30 18585 N 1671.73 1.46313 0.585673 0
M  V30 18586 C 1672.66 1.52683 1.7094 0
M  V30 18587 C 1673.68 0.415447 1.5741 0
M  V30 18588 O 1674.87 0.683657 1.64889 0
M  V30 18589 C 1671.97 1.38822 3.09163 0
M  V30 18590 C 1671.14 2.64027 3.48724 0
M  V30 18591 C 1670.2 2.44407 4.65995 0
M  V30 18592 O 1669.22 3.18118 4.72006 0
M  V30 18593 N 1670.43 1.50381 5.60683 0
M  V30 18594 H 1673.19 2.49573 1.65932 0
M  V30 18595 H 1670.75 1.42332 0.771573 0
M  V30 18596 H 1672.74 1.23474 3.85404 0
M  V30 18597 H 1671.31 0.501247 3.08555 0
M  V30 18598 H 1670.53 2.94338 2.62219 0
M  V30 18599 H 1671.82 3.47206 3.71921 0
M  V30 18600 H 1671.22 0.895917 5.5856 0
M  V30 18601 H 1669.78 1.40997 6.36367 0
M  V30 18602 N 1673.21 -0.830057 1.33969 0
M  V30 18603 C 1674.46 -1.58586 1.25924 0
M  V30 18604 C 1674.78 -1.93732 -0.172685 0
M  V30 18605 O 1674.04 -1.59628 -1.13214 0
M  V30 18606 C 1674.34 -2.90026 2.08853 0
M  V30 18607 C 1674 -2.74204 3.57943 0
M  V30 18608 C 1672.67 -2.69596 3.98587 0
M  V30 18609 C 1675.02 -2.58384 4.52644 0
M  V30 18610 C 1672.35 -2.4708 5.32135 0
M  V30 18611 C 1674.7 -2.37401 5.86365 0
M  V30 18612 C 1673.36 -2.31201 6.26181 0
M  V30 18613 H 1672.63 -0.580306 0.460789 0
M  V30 18614 H 1675.28 -0.960978 1.65643 0
M  V30 18615 H 1673.58 -3.56767 1.6194 0
M  V30 18616 H 1675.28 -3.47576 1.99979 0
M  V30 18617 H 1671.87 -2.78627 3.25676 0
M  V30 18618 H 1676.06 -2.60972 4.22146 0
M  V30 18619 H 1671.31 -2.40733 5.62012 0
M  V30 18620 H 1675.49 -2.24146 6.59342 0
M  V30 18621 H 1673.11 -2.13515 7.29599 0
M  V30 18622 N 1674.69 -1.17582 -1.04939 0
M  V30 18623 C 1675.6 -0.909588 -2.16249 0
M  V30 18624 C 1676.61 0.123166 -1.73564 0
M  V30 18625 O 1677.79 -0.0566976 -2.0132 0
M  V30 18626 C 1674.85 -0.429342 -3.44031 0
M  V30 18627 C 1673.92 -1.529 -4.01149 0
M  V30 18628 C 1673.15 -1.07157 -5.22832 0
M  V30 18629 O 1673.37 0.0732634 -5.70353 0
M  V30 18630 O 1672.31 -1.86567 -5.72255 0
M  V30 18631 H 1676.13 -1.84074 -2.41558 0
M  V30 18632 H 1673.72 -0.956914 -1.14732 0
M  V30 18633 H 1675.6 -0.16917 -4.2106 0
M  V30 18634 H 1674.27 0.473629 -3.20216 0
M  V30 18635 H 1673.18 -1.84308 -3.25548 0
M  V30 18636 H 1674.51 -2.40777 -4.29287 0
M  V30 18637 N 1676.17 1.23705 -0.976463 0
M  V30 18638 C 1677.13 2.23257 -0.518533 0
M  V30 18639 C 1678.13 1.56006 0.3897 0
M  V30 18640 O 1679.32 1.73226 0.18394 0
M  V30 18641 C 1676.45 3.39997 0.247916 0
M  V30 18642 H 1677.64 2.65284 -1.39872 0
M  V30 18643 H 1675.2 1.3647 -0.761946 0
M  V30 18644 H 1675.93 3.03421 1.14482 0
M  V30 18645 H 1675.72 3.90013 -0.403975 0
M  V30 18646 H 1677.21 4.13868 0.557034 0
M  V30 18647 N 1677.64 0.747635 1.38738 0
M  V30 18648 C 1678.92 0.226908 1.94279 0
M  V30 18649 C 1679.3 -1.27373 1.68343 0
M  V30 18650 O 1678.65 -2.04538 1.01865 0
M  V30 18651 C 1678.86 0.574164 3.44245 0
M  V30 18652 C 1680.21 0.530498 4.21273 0
M  V30 18653 O 1681.23 0.512102 3.525 0
M  V30 18654 O 1680.09 0.536171 5.43863 0
M  V30 18655 H 1677.18 0.0456834 0.825737 0
M  V30 18656 H 1679.73 0.827353 1.48165 0
M  V30 18657 H 1678.5 1.6108 3.56607 0
M  V30 18658 H 1678.12 -0.0545964 3.97563 0
M  V30 18659 N 1679.12 -1.49583 0.496242 0
M  V30 18660 C 1680.4 -1.95275 -0.112751 0
M  V30 18661 C 1680.78 -1.43758 -1.54586 0
M  V30 18662 O 1680.13 -0.649285 -2.19081 0
M  V30 18663 C 1680.34 -3.48987 -0.0302774 0
M  V30 18664 C 1681.68 -4.24097 -0.206595 0
M  V30 18665 O 1682.71 -3.56043 -0.105689 0
M  V30 18666 O 1681.57 -5.44936 -0.413172 0
M  V30 18667 H 1678.66 -0.821183 -0.0979145 0
M  V30 18668 H 1681.21 -1.60248 0.558441 0
M  V30 18669 H 1679.98 -3.79104 0.969322 0
M  V30 18670 H 1679.6 -3.90618 -0.741825 0
M  V30 18671 N 1680.6 -0.229873 -1.55915 0
M  V30 18672 C 1681.55 0.676809 -2.20653 0
M  V30 18673 C 1682.52 1.18412 -1.16481 0
M  V30 18674 O 1683.7 1.2417 -1.44867 0
M  V30 18675 C 1680.84 1.87567 -2.89677 0
M  V30 18676 C 1679.95 1.40648 -4.08463 0
M  V30 18677 C 1679.09 2.56356 -4.65247 0
M  V30 18678 C 1678.13 2.06215 -5.76318 0
M  V30 18679 N 1677.27 3.15226 -6.27357 0
M  V30 18680 H 1682.11 0.118035 -2.97766 0
M  V30 18681 H 1679.64 0.0465042 -1.47026 0
M  V30 18682 H 1681.6 2.57968 -3.27884 0
M  V30 18683 H 1680.23 2.40719 -2.15067 0
M  V30 18684 H 1679.28 0.597104 -3.75684 0
M  V30 18685 H 1680.59 0.998877 -4.88696 0
M  V30 18686 H 1679.75 3.34827 -5.05941 0
M  V30 18687 H 1678.49 3.0041 -3.84194 0
M  V30 18688 H 1677.49 1.26209 -5.35118 0
M  V30 18689 H 1678.72 1.63151 -6.59211 0
M  V30 18690 H 1676.66 3.58746 -5.49215 0
M  V30 18691 H 1676.58 2.78744 -7.02736 0
M  V30 18692 H 1677.85 3.93807 -6.72708 0
M  V30 18693 N 1682.08 1.5754 0.0434337 0
M  V30 18694 C 1683.03 2.0207 1.05602 0
M  V30 18695 C 1684.01 0.907491 1.32866 0
M  V30 18696 O 1685.2 1.17141 1.32692 0
M  V30 18697 C 1682.33 2.49176 2.36149 0
M  V30 18698 C 1681.42 3.67289 2.12037 0
M  V30 18699 N 1681.81 4.8051 1.57937 0
M  V30 18700 C 1680.11 3.74386 2.42387 0
M  V30 18701 C 1680.81 5.62214 1.49298 0
M  V30 18702 N 1679.78 5.06899 1.96353 0
M  V30 18703 H 1683.59 2.87035 0.631515 0
M  V30 18704 H 1681.1 1.60464 0.250012 0
M  V30 18705 H 1683.1 2.79331 3.09483 0
M  V30 18706 H 1681.76 1.65611 2.79291 0
M  V30 18707 H 1682.77 5.02237 1.26405 0
M  V30 18708 H 1679.45 3.01592 2.88701 0
M  V30 18709 H 1680.84 6.6315 1.08082 0
M  V30 18710 N 1683.56 -0.31543 1.54411 0
M  V30 18711 C 1684.8 -1.0524 1.73005 0
M  V30 18712 C 1685.13 -1.87747 0.50808 0
M  V30 18713 O 1684.39 -1.88935 -0.51012 0
M  V30 18714 C 1684.68 -1.99884 2.96279 0
M  V30 18715 C 1684.35 -1.33468 4.30694 0
M  V30 18716 C 1683.01 -1.15087 4.67235 0
M  V30 18717 C 1685.36 -0.858688 5.14078 0
M  V30 18718 C 1682.69 -0.47767 5.84752 0
M  V30 18719 C 1685.04 -0.199278 6.32286 0
M  V30 18720 C 1683.71 -0.00338158 6.675 0
M  V30 18721 H 1682.98 -0.385102 0.63307 0
M  V30 18722 H 1685.63 -0.328714 1.88658 0
M  V30 18723 H 1683.93 -2.78732 2.75347 0
M  V30 18724 H 1685.63 -2.56951 3.07859 0
M  V30 18725 H 1682.22 -1.48779 4.01949 0
M  V30 18726 H 1686.4 -0.98846 4.86357 0
M  V30 18727 H 1681.66 -0.314772 6.10589 0
M  V30 18728 H 1685.83 0.177517 6.96174 0
M  V30 18729 H 1683.46 0.52028 7.58418 0
M  V30 18730 N 1685.03 -1.46622 -0.577906 0
M  V30 18731 C 1685.94 -1.60143 -1.71439 0
M  V30 18732 C 1686.96 -0.484781 -1.6711 0
M  V30 18733 O 1688.14 -0.749551 -1.86932 0
M  V30 18734 C 1685.2 -1.59282 -3.07945 0
M  V30 18735 C 1684.26 -2.82216 -3.235 0
M  V30 18736 C 1683.5 -2.81387 -4.53495 0
M  V30 18737 O 1683.72 -1.90407 -5.37681 0
M  V30 18738 O 1682.65 -3.72991 -4.724 0
M  V30 18739 H 1686.48 -2.56265 -1.62978 0
M  V30 18740 H 1684.06 -1.2947 -0.745514 0
M  V30 18741 H 1685.95 -1.61515 -3.89218 0
M  V30 18742 H 1684.62 -0.663212 -3.16833 0
M  V30 18743 H 1683.53 -2.85536 -2.41702 0
M  V30 18744 H 1684.86 -3.74402 -3.19506 0
M  V30 18745 N 1686.51 0.822941 -1.34408 0
M  V30 18746 C 1687.45 1.93899 -1.20326 0
M  V30 18747 C 1688.42 1.62323 -0.0949083 0
M  V30 18748 O 1689.61 1.86698 -0.260056 0
M  V30 18749 C 1686.73 3.27884 -0.849118 0
M  V30 18750 C 1685.78 3.78421 -1.96723 0
M  V30 18751 S 1686.61 3.98182 -3.58066 0
M  V30 18752 C 1687.77 5.35094 -3.24693 0
M  V30 18753 H 1688 2.05547 -2.14797 0
M  V30 18754 H 1685.54 0.978513 -1.19434 0
M  V30 18755 H 1687.49 4.05296 -0.651579 0
M  V30 18756 H 1686.15 3.14005 0.0772533 0
M  V30 18757 H 1685.35 4.75416 -1.67318 0
M  V30 18758 H 1684.95 3.07955 -2.12225 0
M  V30 18759 H 1687.24 6.18507 -2.76507 0
M  V30 18760 H 1688.18 5.69482 -4.20828 0
M  V30 18761 H 1688.59 5.00604 -2.60876 0
M  V30 18762 N 1687.99 1.18137 1.04314 0
M  V30 18763 C 1688.94 0.902484 2.14378 0
M  V30 18764 C 1689.93 -0.136289 1.68851 0
M  V30 18765 O 1691.14 0.0116256 1.79996 0
M  V30 18766 H 1687.51 0.274358 0.700165 0
M  V30 18767 H 1689.48 1.83768 2.35099 0
M  V30 18768 C 1688.23 0.441975 3.4488 0
M  V30 18769 H 1687.56 1.23279 3.80319 0
M  V30 18770 H 1689 0.285808 4.23036 0
M  V30 18771 C 1687.46 -0.841797 3.26214 0
M  V30 18772 O 1687.99 -1.90658 3.53571 0
M  V30 18773 N 1686.19 -0.793425 2.79559 0
M  V30 18774 H 1685.74 0.0732997 2.57496 0
M  V30 18775 H 1685.7 -1.65281 2.6745 0
M  V30 18776 N 1689.47 -1.23186 0.98301 0
M  V30 18777 C 1690.7 -1.95418 0.670479 0
M  V30 18778 C 1691.11 -1.7295 -0.767135 0
M  V30 18779 O 1690.45 -1.01946 -1.52816 0
M  V30 18780 C 1690.51 -3.48456 0.884244 0
M  V30 18781 C 1690.18 -3.94645 2.30443 0
M  V30 18782 C 1691.17 -4.03108 3.28328 0
M  V30 18783 C 1688.86 -4.27561 2.63622 0
M  V30 18784 C 1690.85 -4.43845 4.57471 0
M  V30 18785 C 1688.54 -4.67979 3.92987 0
M  V30 18786 C 1689.54 -4.76088 4.89723 0
M  V30 18787 O 1689.22 -5.15597 6.16778 0
M  V30 18788 H 1688.96 -0.628896 0.247924 0
M  V30 18789 H 1691.51 -1.57559 1.31774 0
M  V30 18790 H 1689.74 -3.86282 0.179809 0
M  V30 18791 H 1691.43 -4.01899 0.568475 0
M  V30 18792 H 1692.2 -3.77879 3.04027 0
M  V30 18793 H 1688.07 -4.2046 1.89036 0
M  V30 18794 H 1691.62 -4.5009 5.32978 0
M  V30 18795 H 1687.52 -4.92658 4.17083 0
M  V30 18796 H 1688.28 -5.33701 6.20569 0
M  V30 18797 N 1690.95 -0.754982 -1.38339 0
M  V30 18798 C 1692.2 -0.308537 -1.99326 0
M  V30 18799 C 1692.51 1.1164 -1.60611 0
M  V30 18800 O 1693.71 1.66339 -2.14578 0
M  V30 18801 C 1692.17 -0.500688 -3.564 0
M  V30 18802 C 1691.78 -1.9348 -4.04066 0
M  V30 18803 C 1693.52 -0.117026 -4.24339 0
M  V30 18804 C 1691.43 -2.07544 -5.53786 0
M  V30 18805 H 1690.36 -0.111611 -0.745694 0
M  V30 18806 H 1693.01 -0.931722 -1.58086 0
M  V30 18807 H 1691.39 0.191702 -3.95536 0
M  V30 18808 H 1692.57 -2.66077 -3.76217 0
M  V30 18809 H 1690.88 -2.27351 -3.48856 0
M  V30 18810 H 1693.48 -0.200847 -5.34323 0
M  V30 18811 H 1693.82 0.930531 -4.05767 0
M  V30 18812 H 1694.35 -0.761323 -3.90447 0
M  V30 18813 H 1691.09 -3.10559 -5.77264 0
M  V30 18814 H 1690.61 -1.39409 -5.83374 0
M  V30 18815 H 1692.29 -1.86605 -6.19506 0
M  V30 18816 N 1692.42 1.49318 -0.504168 0
M  V30 18817 C 1693.37 2.29185 0.272566 0
M  V30 18818 C 1694.34 1.35726 0.957476 0
M  V30 18819 O 1695.53 1.64684 0.963524 0
M  V30 18820 C 1692.67 3.18477 1.32916 0
M  V30 18821 C 1691.78 4.26995 0.655704 0
M  V30 18822 C 1690.91 5.03498 1.69301 0
M  V30 18823 C 1689.95 6.0385 1.0016 0
M  V30 18824 N 1689.09 6.73507 1.98325 0
M  V30 18825 H 1693.93 2.951 -0.41474 0
M  V30 18826 H 1691.47 1.455 -0.216372 0
M  V30 18827 H 1693.43 3.68624 1.95377 0
M  V30 18828 H 1692.06 2.54539 1.98519 0
M  V30 18829 H 1691.11 3.80311 -0.0822653 0
M  V30 18830 H 1692.42 4.98675 0.111584 0
M  V30 18831 H 1691.57 5.5753 2.39259 0
M  V30 18832 H 1690.31 4.31599 2.27099 0
M  V30 18833 H 1689.32 5.49046 0.287811 0
M  V30 18834 H 1690.54 6.77737 0.430073 0
M  V30 18835 H 1688.49 6.04376 2.55079 0
M  V30 18836 H 1688.41 7.41174 1.48988 0
M  V30 18837 H 1689.67 7.32141 2.67561 0
M  V30 18838 N 1693.9 0.238138 1.5579 0
M  V30 18839 C 1695.18 -0.438905 1.90612 0
M  V30 18840 C 1695.56 -1.76522 1.15773 0
M  V30 18841 O 1694.91 -2.26871 0.272363 0
M  V30 18842 C 1695.12 -0.615595 3.43528 0
M  V30 18843 C 1696.47 -0.915478 4.14613 0
M  V30 18844 O 1697.49 -0.70178 3.49218 0
M  V30 18845 O 1696.35 -1.32194 5.30271 0
M  V30 18846 H 1693.44 -0.234355 0.7931 0
M  V30 18847 H 1695.99 0.281555 1.67348 0
M  V30 18848 H 1694.76 0.319274 3.89995 0
M  V30 18849 H 1694.38 -1.38692 3.72626 0
M  V30 18850 N 1695.38 -1.57561 -0.0350783 0
M  V30 18851 C 1696.33 -2.06163 -1.03756 0
M  V30 18852 C 1697.3 -0.94954 -1.36283 0
M  V30 18853 O 1698.48 -1.21971 -1.46723 0
M  V30 18854 C 1695.62 -2.54086 -2.33526 0
M  V30 18855 C 1694.74 -3.79062 -2.0721 0
M  V30 18856 C 1693.87 -4.1562 -3.30808 0
M  V30 18857 C 1692.91 -5.3353 -3.0002 0
M  V30 18858 N 1692.05 -5.65549 -4.16051 0
M  V30 18859 H 1696.89 -2.91561 -0.616137 0
M  V30 18860 H 1694.42 -1.4416 -0.292617 0
M  V30 18861 H 1696.38 -2.79935 -3.09342 0
M  V30 18862 H 1695.01 -1.71614 -2.73402 0
M  V30 18863 H 1694.06 -3.60333 -1.21919 0
M  V30 18864 H 1695.38 -4.64998 -1.80495 0
M  V30 18865 H 1694.53 -4.42565 -4.14995 0
M  V30 18866 H 1693.27 -3.28323 -3.60632 0
M  V30 18867 H 1692.27 -5.06344 -2.14234 0
M  V30 18868 H 1693.5 -6.22475 -2.7148 0
M  V30 18869 H 1691.44 -4.81211 -4.45838 0
M  V30 18870 H 1691.36 -6.45982 -3.92738 0
M  V30 18871 H 1692.63 -5.97068 -5.01129 0
M  V30 18872 N 1696.86 0.307236 -1.54576 0
M  V30 18873 C 1697.82 1.36178 -1.84359 0
M  V30 18874 C 1698.82 1.43971 -0.716163 0
M  V30 18875 O 1700.01 1.43715 -0.98446 0
M  V30 18876 C 1697.14 2.74733 -2.01828 0
M  V30 18877 H 1698.34 1.11017 -2.78595 0
M  V30 18878 H 1695.89 0.543582 -1.46543 0
M  V30 18879 H 1696.62 3.05126 -1.09858 0
M  V30 18880 H 1696.41 2.70468 -2.83883 0
M  V30 18881 H 1697.9 3.50992 -2.26261 0
M  V30 18882 N 1698.34 1.46926 0.570122 0
M  V30 18883 C 1699.57 1.56253 1.35161 0
M  V30 18884 C 1699.97 0.207041 1.88064 0
M  V30 18885 O 1699.32 -0.807871 1.64982 0
M  V30 18886 C 1699.38 2.51715 2.56671 0
M  V30 18887 C 1699.04 3.97691 2.25147 0
M  V30 18888 C 1700.04 4.86546 1.83219 0
M  V30 18889 C 1697.73 4.42924 2.36904 0
M  V30 18890 C 1699.72 6.18651 1.53459 0
M  V30 18891 C 1697.41 5.75061 2.06757 0
M  V30 18892 C 1698.4 6.62745 1.65101 0
M  V30 18893 O 1698.09 7.92427 1.3533 0
M  V30 18894 H 1697.82 0.53064 0.418804 0
M  V30 18895 H 1700.38 1.93147 0.698804 0
M  V30 18896 H 1698.61 2.09862 3.24799 0
M  V30 18897 H 1700.3 2.5131 3.18745 0
M  V30 18898 H 1701.06 4.52851 1.7364 0
M  V30 18899 H 1696.94 3.7489 2.68287 0
M  V30 18900 H 1700.49 6.87049 1.20872 0
M  V30 18901 H 1696.38 6.08301 2.15964 0
M  V30 18902 H 1697.15 8.04811 1.49069 0
M  V30 18903 N 1699.82 -0.815801 1.34842 0
M  V30 18904 C 1700.76 -1.94853 1.27024 0
M  V30 18905 C 1701.76 -1.68575 0.166936 0
M  V30 18906 O 1702.96 -1.76905 0.332352 0
M  V30 18907 H 1699.34 -0.640033 0.394794 0
M  V30 18908 H 1701.31 -1.98569 2.2274 0
M  V30 18909 C 1700.06 -3.31474 1.04977 0
M  V30 18910 H 1699.38 -3.52246 1.8911 0
M  V30 18911 H 1700.82 -4.11162 1.03545 0
M  V30 18912 C 1699.28 -3.35995 -0.246708 0
M  V30 18913 O 1699.81 -3.81898 -1.24566 0
M  V30 18914 N 1698.02 -2.89226 -0.282292 0
M  V30 18915 H 1697.56 -2.52063 0.531211 0
M  V30 18916 H 1697.52 -2.92633 -1.1495 0
M  V30 18917 N 1701.29 -1.18689 -1.03686 0
M  V30 18918 C 1702.54 -0.982656 -1.76602 0
M  V30 18919 C 1702.86 0.488553 -1.88781 0
M  V30 18920 O 1702.13 1.35419 -1.41558 0
M  V30 18921 H 1700.71 -0.360595 -0.654202 0
M  V30 18922 H 1703.37 -1.49439 -1.25115 0
M  V30 18923 H 1702.47 -1.42392 -2.77725 0
M  V30 18924 N 1702.77 1.22662 -0.989529 0
M  V30 18925 C 1704.02 1.91605 -0.66448 0
M  V30 18926 C 1704.35 1.76909 0.801048 0
M  V30 18927 O 1703.63 1.13583 1.5789 0
M  V30 18928 C 1703.91 3.43929 -1.06698 0
M  V30 18929 C 1703.76 3.67691 -2.59082 0
M  V30 18930 C 1705.08 4.35744 -0.617695 0
M  V30 18931 H 1702.2 0.695832 -0.242872 0
M  V30 18932 H 1704.84 1.44605 -1.23245 0
M  V30 18933 H 1702.99 3.8409 -0.58371 0
M  V30 18934 H 1704.66 3.36956 -3.15053 0
M  V30 18935 H 1702.91 3.12088 -3.01303 0
M  V30 18936 H 1703.58 4.74356 -2.82295 0
M  V30 18937 H 1706.05 4.0308 -1.03275 0
M  V30 18938 H 1704.93 5.41004 -0.927659 0
M  V30 18939 H 1705.19 4.39468 0.481734 0
M  V30 18940 N 1704.25 0.762308 1.37937 0
M  V30 18941 C 1705.5 0.322846 2.00214 0
M  V30 18942 C 1705.83 -1.09513 1.60376 0
M  V30 18943 O 1705.1 -1.75165 0.845432 0
M  V30 18944 C 1705.39 0.455651 3.57206 0
M  V30 18945 C 1705.24 1.91537 4.06981 0
M  V30 18946 C 1706.56 -0.145758 4.39859 0
M  V30 18947 H 1703.68 0.118781 0.727365 0
M  V30 18948 H 1706.32 0.963585 1.63753 0
M  V30 18949 H 1704.47 -0.0898341 3.88396 0
M  V30 18950 H 1706.14 2.51983 3.86397 0
M  V30 18951 H 1704.38 2.42744 3.59524 0
M  V30 18952 H 1705.06 1.9594 5.16054 0
M  V30 18953 H 1707.53 0.31956 4.14871 0
M  V30 18954 H 1706.41 -0.0226441 5.48895 0
M  V30 18955 H 1706.67 -1.23504 4.24499 0
M  V30 18956 N 1705.73 -1.49049 0.51208 0
M  V30 18957 C 1706.97 -2.04383 -0.0267124 0
M  V30 18958 C 1707.33 -1.3823 -1.33253 0
M  V30 18959 O 1708.53 -1.84348 -1.95625 0
M  V30 18960 C 1706.8 -3.57021 -0.164593 0
M  V30 18961 S 1708.36 -4.33868 -0.656034 0
M  V30 18962 H 1705.18 -0.710991 0.00350589 0
M  V30 18963 H 1707.78 -1.82973 0.68857 0
M  V30 18964 H 1706.49 -4.02707 0.790913 0
M  V30 18965 H 1706.02 -3.82854 -0.904787 0
M  V30 18966 H 1708.03 -4.57403 -1.92347 0
M  V30 18967 N 1707.21 -0.246397 -1.55662 0
M  V30 18968 C 1708.45 0.377739 -1.98539 0
M  V30 18969 C 1708.77 1.58504 -1.13585 0
M  V30 18970 O 1708.04 1.94677 -0.218528 0
M  V30 18971 H 1706.62 0.142554 -0.733272 0
M  V30 18972 H 1709.29 -0.345069 -1.91821 0
M  V30 18973 H 1708.38 0.687224 -3.0444 0
M  V30 18974 N 1708.68 1.57577 0.026722 0
M  V30 18975 C 1709.93 1.8856 0.716115 0
M  V30 18976 C 1710.25 0.845223 1.76395 0
M  V30 18977 O 1711.45 1.04435 2.5061 0
M  V30 18978 C 1709.91 3.34631 1.32476 0
M  V30 18979 C 1709.52 4.46904 0.313149 0
M  V30 18980 C 1711.26 3.74759 1.9939 0
M  V30 18981 C 1709.17 5.84038 0.930274 0
M  V30 18982 H 1708.1 0.703531 0.271221 0
M  V30 18983 H 1710.75 1.83476 -0.0294388 0
M  V30 18984 H 1709.13 3.34466 2.1201 0
M  V30 18985 H 1710.3 4.58542 -0.455647 0
M  V30 18986 H 1708.62 4.15624 -0.254028 0
M  V30 18987 H 1711.22 4.74534 2.46418 0
M  V30 18988 H 1711.56 3.06875 2.81307 0
M  V30 18989 H 1712.09 3.77108 1.26628 0
M  V30 18990 H 1708.83 6.55327 0.150466 0
M  V30 18991 H 1708.35 5.76116 1.66886 0
M  V30 18992 H 1710.03 6.30842 1.43692 0
M  V30 18993 N 1710.16 -0.299034 1.54737 0
M  V30 18994 C 1711.11 -1.36887 1.85824 0
M  V30 18995 C 1712.08 -1.50287 0.70733 0
M  V30 18996 O 1713.26 -1.65114 0.956143 0
M  V30 18997 C 1710.4 -2.7286 2.11286 0
M  V30 18998 C 1709.52 -2.67893 3.38906 0
M  V30 18999 C 1708.65 -3.95873 3.542 0
M  V30 19000 C 1707.69 -3.85312 4.75606 0
M  V30 19001 N 1706.83 -5.05072 4.87695 0
M  V30 19002 H 1711.67 -1.09676 2.77083 0
M  V30 19003 H 1709.2 -0.530427 1.37204 0
M  V30 19004 H 1711.16 -3.51938 2.24043 0
M  V30 19005 H 1709.79 -2.98327 1.23291 0
M  V30 19006 H 1708.84 -1.80669 3.34758 0
M  V30 19007 H 1710.16 -2.5598 4.28107 0
M  V30 19008 H 1709.31 -4.83389 3.66633 0
M  V30 19009 H 1708.05 -4.10622 2.63136 0
M  V30 19010 H 1707.05 -2.9618 4.63203 0
M  V30 19011 H 1708.28 -3.72106 5.68079 0
M  V30 19012 H 1706.23 -5.20281 3.99554 0
M  V30 19013 H 1706.14 -4.9559 5.709 0
M  V30 19014 H 1707.41 -5.94233 5.04487 0
M  V30 19015 N 1711.64 -1.47227 -0.562322 0
M  V30 19016 C 1712.86 -1.5744 -1.35008 0
M  V30 19017 C 1713.29 -0.223223 -1.86771 0
M  V30 19018 O 1712.65 0.800078 -1.62691 0
M  V30 19019 C 1712.7 -2.5992 -2.49948 0
M  V30 19020 O 1711.8 -2.14836 -3.52022 0
M  V30 19021 H 1711.14 -0.529064 -0.401232 0
M  V30 19022 H 1713.67 -1.92966 -0.680084 0
M  V30 19023 H 1713.68 -2.80177 -2.96588 0
M  V30 19024 H 1712.36 -3.58031 -2.11629 0
M  V30 19025 H 1710.93 -2.04655 -3.11722 0
M  V30 19026 N 1713.12 0.808639 -1.35273 0
M  V30 19027 C 1714.35 1.59701 -1.31541 0
M  V30 19028 C 1714.76 1.88493 0.107541 0
M  V30 19029 O 1714.12 1.4864 1.05889 0
M  V30 19030 C 1714.17 2.9295 -2.11808 0
M  V30 19031 O 1713.89 2.65407 -3.48555 0
M  V30 19032 C 1715.39 3.87318 -2.15638 0
M  V30 19033 H 1712.61 0.495961 -0.451956 0
M  V30 19034 H 1715.15 1.00507 -1.78097 0
M  V30 19035 H 1713.31 3.48663 -1.68858 0
M  V30 19036 H 1713.72 3.50471 -3.90218 0
M  V30 19037 H 1715.2 4.77933 -2.76196 0
M  V30 19038 H 1715.67 4.23752 -1.15458 0
M  V30 19039 H 1716.28 3.3754 -2.58741 0
M  V30 19040 N 1714.6 1.19237 1.03055 0
M  V30 19041 C 1715.87 0.903353 1.7349 0
M  V30 19042 C 1716.25 -0.591365 2.02648 0
M  V30 19043 O 1715.6 -1.54906 1.67978 0
M  V30 19044 C 1715.81 1.7615 3.01284 0
M  V30 19045 C 1717.16 1.99477 3.74825 0
M  V30 19046 O 1718.18 1.73287 3.11207 0
M  V30 19047 O 1717.04 2.43628 4.89191 0
M  V30 19048 H 1714.14 0.336512 0.755439 0
M  V30 19049 H 1716.68 1.30041 1.09029 0
M  V30 19050 H 1715.45 2.77428 2.75952 0
M  V30 19051 H 1715.08 1.36361 3.73486 0
M  V30 19052 N 1716.07 -1.22136 0.99602 0
M  V30 19053 C 1717.32 -1.9125 0.674632 0
M  V30 19054 C 1717.65 -1.77331 -0.791655 0
M  V30 19055 O 1716.93 -1.14419 -1.57285 0
M  V30 19056 C 1717.21 -3.43359 1.08521 0
M  V30 19057 C 1717.06 -3.66312 2.61028 0
M  V30 19058 C 1718.38 -4.3541 0.640795 0
M  V30 19059 H 1715.5 -0.694534 0.246559 0
M  V30 19060 H 1718.14 -1.4395 1.2401 0
M  V30 19061 H 1716.29 -3.83775 0.604071 0
M  V30 19062 H 1717.97 -3.3528 3.16836 0
M  V30 19063 H 1716.21 -3.10485 3.02954 0
M  V30 19064 H 1716.88 -4.72852 2.84807 0
M  V30 19065 H 1719.36 -4.02527 1.05411 0
M  V30 19066 H 1718.23 -5.40505 0.956337 0
M  V30 19067 H 1718.49 -4.39717 -0.458421 0
M  V30 19068 N 1717.55 -0.769612 -1.37531 0
M  V30 19069 C 1718.78 -0.343069 -2.04543 0
M  V30 19070 C 1719.2 1.02583 -1.57665 0
M  V30 19071 O 1718.56 1.65692 -0.735915 0
M  V30 19072 C 1718.61 -0.392914 -3.58453 0
M  V30 19073 O 1717.71 0.607401 -4.07902 0
M  V30 19074 H 1717.05 -0.148905 -0.647088 0
M  V30 19075 H 1719.58 -1.04521 -1.75888 0
M  V30 19076 H 1719.59 -0.24945 -4.07237 0
M  V30 19077 H 1718.27 -1.39159 -3.91928 0
M  V30 19078 H 1716.85 0.427231 -3.70445 0
M  V30 19079 N 1719.03 1.48775 -0.519977 0
M  V30 19080 C 1720.26 2.06595 0.013978 0
M  V30 19081 C 1720.67 1.37819 1.29624 0
M  V30 19082 O 1720.01 0.456315 1.77942 0
M  V30 19083 C 1720.07 3.58085 0.318694 0
M  V30 19084 C 1719.74 4.48669 -0.868623 0
M  V30 19085 C 1720.73 4.89048 -1.76432 0
M  V30 19086 C 1718.42 4.9071 -1.07279 0
M  V30 19087 C 1720.41 5.70226 -2.84818 0
M  V30 19088 C 1718.1 5.7166 -2.15981 0
M  V30 19089 C 1719.1 6.11325 -3.04583 0
M  V30 19090 O 1718.79 6.90653 -4.11405 0
M  V30 19091 H 1718.52 0.675506 -0.02584 0
M  V30 19092 H 1721.07 1.92289 -0.722099 0
M  V30 19093 H 1719.3 3.70468 1.10861 0
M  V30 19094 H 1720.99 3.98068 0.793529 0
M  V30 19095 H 1721.76 4.57198 -1.61848 0
M  V30 19096 H 1717.64 4.59326 -0.392454 0
M  V30 19097 H 1721.18 6.01105 -3.54004 0
M  V30 19098 H 1717.08 6.02923 -2.30552 0
M  V30 19099 H 1717.85 7.08991 -4.08992 0
M  V30 19100 N 1720.51 0.254649 1.55529 0
M  V30 19101 C 1721.44 -0.635656 2.24681 0
M  V30 19102 C 1722.42 -1.17519 1.22977 0
M  V30 19103 O 1723.6 -1.21311 1.51649 0
M  V30 19104 C 1720.73 -1.82922 2.95224 0
M  V30 19105 C 1719.69 -1.42212 4.03683 0
M  V30 19106 C 1719.01 -2.69713 4.61691 0
M  V30 19107 C 1720.31 -0.587436 5.18986 0
M  V30 19108 H 1722.01 -0.0590063 2.99342 0
M  V30 19109 H 1719.55 -0.02694 1.43975 0
M  V30 19110 H 1721.51 -2.45777 3.42304 0
M  V30 19111 H 1720.23 -2.43137 2.18064 0
M  V30 19112 H 1718.89 -0.81687 3.57383 0
M  V30 19113 H 1718.54 -3.28143 3.81223 0
M  V30 19114 H 1718.24 -2.43194 5.34911 0
M  V30 19115 H 1719.76 -3.33453 5.11509 0
M  V30 19116 H 1721.18 -1.12048 5.62244 0
M  V30 19117 H 1719.57 -0.417988 5.98643 0
M  V30 19118 H 1720.64 0.398577 4.83259 0
M  V30 19119 N 1721.99 -1.57589 -0.0183649 0
M  V30 19120 C 1722.93 -2.07252 -1.01563 0
M  V30 19121 C 1723.9 -0.963941 -1.35268 0
M  V30 19122 O 1725.09 -1.2352 -1.45421 0
M  V30 19123 C 1722.23 -2.56548 -2.30818 0
M  V30 19124 C 1721.34 -3.81238 -2.03178 0
M  V30 19125 C 1720.48 -4.19105 -3.26381 0
M  V30 19126 C 1719.52 -5.36682 -2.94344 0
M  V30 19127 N 1718.65 -5.6993 -4.1003 0
M  V30 19128 H 1723.49 -2.92198 -0.585179 0
M  V30 19129 H 1721.03 -1.44462 -0.27731 0
M  V30 19130 H 1722.99 -2.832 -3.06355 0
M  V30 19131 H 1721.62 -1.74504 -2.71566 0
M  V30 19132 H 1720.67 -3.61606 -1.1809 0
M  V30 19133 H 1721.98 -4.66886 -1.75552 0
M  V30 19134 H 1721.14 -4.46942 -4.10278 0
M  V30 19135 H 1719.87 -3.32129 -3.57129 0
M  V30 19136 H 1718.88 -5.08587 -2.08851 0
M  V30 19137 H 1720.1 -6.2532 -2.64862 0
M  V30 19138 H 1718.05 -4.85913 -4.40709 0
M  V30 19139 H 1717.97 -6.50111 -3.85865 0
M  V30 19140 H 1719.24 -6.02349 -4.94768 0
M  V30 19141 N 1723.46 0.290824 -1.54893 0
M  V30 19142 C 1724.39 1.36354 -1.89551 0
M  V30 19143 C 1725.38 1.52403 -0.75546 0
M  V30 19144 O 1726.56 1.65743 -1.01208 0
M  V30 19145 C 1723.69 2.72609 -2.15178 0
M  V30 19146 C 1722.64 2.71313 -3.31019 0
M  V30 19147 C 1721.97 4.10952 -3.42085 0
M  V30 19148 C 1723.27 2.32153 -4.6787 0
M  V30 19149 H 1724.96 1.07597 -2.79398 0
M  V30 19150 H 1722.51 0.516154 -1.34432 0
M  V30 19151 H 1724.46 3.47749 -2.3801 0
M  V30 19152 H 1723.19 3.02913 -1.22112 0
M  V30 19153 H 1721.85 1.9863 -3.08126 0
M  V30 19154 H 1721.49 4.38449 -2.46518 0
M  V30 19155 H 1721.19 4.10984 -4.1996 0
M  V30 19156 H 1722.72 4.87857 -3.67189 0
M  V30 19157 H 1724.13 2.97011 -4.90364 0
M  V30 19158 H 1722.53 2.4338 -5.48531 0
M  V30 19159 H 1723.6 1.27279 -4.67897 0
M  V30 19160 N 1724.94 1.47523 0.554506 0
M  V30 19161 C 1726.17 1.57907 1.3369 0
M  V30 19162 C 1726.59 0.230244 1.87391 0
M  V30 19163 O 1725.94 -0.776917 1.65137 0
M  V30 19164 C 1725.99 2.60644 2.50493 0
M  V30 19165 O 1725.71 3.9029 1.99011 0
M  V30 19166 C 1727.22 2.81238 3.42666 0
M  V30 19167 H 1724.44 0.533139 0.407436 0
M  V30 19168 H 1726.98 1.93163 0.671445 0
M  V30 19169 H 1725.13 2.28315 3.12971 0
M  V30 19170 H 1725.55 4.46451 2.75285 0
M  V30 19171 H 1727.02 3.56981 4.21033 0
M  V30 19172 H 1727.5 1.89159 3.96378 0
M  V30 19173 H 1728.11 3.14775 2.86001 0
M  V30 19174 N 1726.42 -0.801453 1.357 0
M  V30 19175 C 1727.67 -1.55392 1.28594 0
M  V30 19176 C 1727.98 -1.95125 -0.136199 0
M  V30 19177 O 1729.19 -2.69492 -0.329568 0
M  V30 19178 C 1727.64 -2.80456 2.2555 0
M  V30 19179 C 1727.25 -2.47939 3.73135 0
M  V30 19180 C 1729 -3.58457 2.27396 0
M  V30 19181 C 1726.9 -3.69326 4.61901 0
M  V30 19182 H 1725.83 -0.583286 0.477801 0
M  V30 19183 H 1728.48 -0.880525 1.60994 0
M  V30 19184 H 1726.87 -3.49532 1.86127 0
M  V30 19185 H 1728.04 -1.86837 4.21223 0
M  V30 19186 H 1726.36 -1.83173 3.73947 0
M  V30 19187 H 1728.95 -4.48625 2.90929 0
M  V30 19188 H 1729.3 -3.96162 1.27912 0
M  V30 19189 H 1729.83 -2.96348 2.65373 0
M  V30 19190 H 1726.57 -3.36726 5.62402 0
M  V30 19191 H 1726.09 -4.29636 4.18536 0
M  V30 19192 H 1727.77 -4.36496 4.77578 0
M  V30 19193 N 1727.9 -1.19782 -1.02421 0
M  V30 19194 C 1728.85 -0.93978 -2.108 0
M  V30 19195 C 1729.82 0.12716 -1.65613 0
M  V30 19196 O 1731 -0.0159669 -1.90793 0
M  V30 19197 C 1728.14 -0.489656 -3.41609 0
M  V30 19198 C 1727.25 -1.62389 -4.00317 0
M  V30 19199 C 1726.39 -1.12483 -5.19154 0
M  V30 19200 C 1725.43 -2.23266 -5.69929 0
M  V30 19201 N 1724.56 -1.74633 -6.80035 0
M  V30 19202 H 1729.4 -1.8677 -2.32209 0
M  V30 19203 H 1726.94 -0.931082 -1.13883 0
M  V30 19204 H 1728.9 -0.210049 -4.16671 0
M  V30 19205 H 1727.53 0.40127 -3.20296 0
M  V30 19206 H 1726.58 -2.0186 -3.22423 0
M  V30 19207 H 1727.89 -2.45836 -4.34011 0
M  V30 19208 H 1727.05 -0.800737 -6.01393 0
M  V30 19209 H 1725.79 -0.260155 -4.87006 0
M  V30 19210 H 1724.79 -2.56501 -4.863 0
M  V30 19211 H 1726.02 -3.10197 -6.04115 0
M  V30 19212 H 1723.96 -0.904804 -6.4973 0
M  V30 19213 H 1723.88 -2.51666 -7.12882 0
M  V30 19214 H 1725.15 -1.45201 -7.65857 0
M  V30 19215 N 1729.38 1.21606 -1.00248 0
M  V30 19216 C 1730.34 2.22107 -0.565772 0
M  V30 19217 C 1731.34 1.56798 0.356521 0
M  V30 19218 O 1732.53 1.73577 0.147154 0
M  V30 19219 C 1729.66 3.40447 0.175742 0
M  V30 19220 H 1730.86 2.62258 -1.45468 0
M  V30 19221 H 1728.41 1.34823 -0.790721 0
M  V30 19222 H 1729.14 3.05781 1.0802 0
M  V30 19223 H 1728.93 3.89069 -0.486612 0
M  V30 19224 H 1730.42 4.14957 0.469122 0
M  V30 19225 N 1730.86 0.776895 1.37121 0
M  V30 19226 C 1732.27 0.408311 1.8218 0
M  V30 19227 C 1732.62 -1.06621 1.64701 0
M  V30 19228 O 1731.74 -1.82621 1.16097 0
M  V30 19229 C 1732.34 0.734339 3.30746 0
M  V30 19230 C 1730.9 0.418746 3.74063 0
M  V30 19231 C 1730.04 0.97551 2.59575 0
M  V30 19232 H 1732.99 0.971111 1.25519 0
M  V30 19233 H 1733.02 0.0208557 3.80494 0
M  V30 19234 H 1732.53 1.80757 3.43436 0
M  V30 19235 H 1730.63 -0.646961 3.6694 0
M  V30 19236 H 1730.74 0.930597 4.69975 0
M  V30 19237 H 1729.11 0.399449 2.51548 0
M  V30 19238 H 1729.89 2.05425 2.75056 0
M  V30 19239 N 1732.33 -1.48497 0.527859 0
M  V30 19240 C 1733.56 -2.07399 -0.00510725 0
M  V30 19241 C 1733.98 -1.38211 -1.2759 0
M  V30 19242 O 1733.34 -0.447373 -1.75694 0
M  V30 19243 C 1733.39 -3.59963 -0.214295 0
M  V30 19244 O 1732.49 -3.91921 -1.28342 0
M  V30 19245 H 1731.83 -0.662901 0.0381838 0
M  V30 19246 H 1734.36 -1.90936 0.735166 0
M  V30 19247 H 1734.37 -4.05646 -0.437604 0
M  V30 19248 H 1733.05 -4.09725 0.714028 0
M  V30 19249 H 1731.63 -3.58019 -1.04293 0
M  V30 19250 N 1733.81 -0.262893 -1.55392 0
M  V30 19251 C 1735.06 0.35666 -1.98928 0
M  V30 19252 C 1735.38 1.5729 -1.1526 0
M  V30 19253 O 1734.65 1.94435 -0.239164 0
M  V30 19254 H 1733.23 0.134768 -0.734742 0
M  V30 19255 H 1735.89 -0.365394 -1.91444 0
M  V30 19256 H 1734.99 0.654895 -3.05152 0
M  V30 19257 N 1735.29 1.57597 0.0100073 0
M  V30 19258 C 1736.52 1.9412 0.707165 0
M  V30 19259 C 1736.93 0.862669 1.68388 0
M  V30 19260 O 1736.27 -0.167949 1.82931 0
M  V30 19261 C 1736.33 3.26571 1.50306 0
M  V30 19262 C 1736 4.51776 0.689031 0
M  V30 19263 C 1736.99 5.19897 -0.018977 0
M  V30 19264 C 1734.68 4.98232 0.637951 0
M  V30 19265 C 1736.67 6.32766 -0.76716 0
M  V30 19266 C 1734.36 6.10994 -0.113964 0
M  V30 19267 C 1735.36 6.78117 -0.815262 0
M  V30 19268 O 1735.05 7.88719 -1.55493 0
M  V30 19269 H 1734.78 0.644932 0.202579 0
M  V30 19270 H 1737.33 2.05372 -0.0341978 0
M  V30 19271 H 1735.56 3.11699 2.28868 0
M  V30 19272 H 1737.25 3.4828 2.08461 0
M  V30 19273 H 1738.02 4.84999 0.0113968 0
M  V30 19274 H 1733.9 4.45818 1.17333 0
M  V30 19275 H 1737.44 6.85092 -1.31508 0
M  V30 19276 H 1733.34 6.45334 -0.146194 0
M  V30 19277 H 1734.1 8.05181 -1.47059 0
M  V30 19278 N 1736.77 -0.282606 1.55045 0
M  V30 19279 C 1738.04 -1.03617 1.659 0
M  V30 19280 C 1738.42 -2.04615 0.519207 0
M  V30 19281 O 1737.77 -2.2336 -0.48191 0
M  V30 19282 C 1737.98 -1.70159 3.04708 0
M  V30 19283 C 1739.33 -2.21677 3.62139 0
M  V30 19284 O 1740.35 -1.80161 3.07279 0
M  V30 19285 O 1739.21 -2.97799 4.58234 0
M  V30 19286 H 1736.31 -0.48004 0.673417 0
M  V30 19287 H 1738.85 -0.279228 1.67387 0
M  V30 19288 H 1737.63 -0.969205 3.79107 0
M  V30 19289 H 1737.25 -2.52564 3.07079 0
M  V30 19290 N 1738.25 -1.47815 -0.546675 0
M  V30 19291 C 1739.19 -1.61513 -1.67381 0
M  V30 19292 C 1740.19 -0.482064 -1.62396 0
M  V30 19293 O 1741.39 -0.660227 -1.67454 0
M  V30 19294 H 1737.77 -0.508484 -0.554029 0
M  V30 19295 H 1739.74 -2.5621 -1.52967 0
M  V30 19296 C 1738.49 -1.65645 -3.05707 0
M  V30 19297 H 1737.81 -2.52186 -3.10229 0
M  V30 19298 H 1739.25 -1.79277 -3.84234 0
M  V30 19299 C 1737.71 -0.391799 -3.34614 0
M  V30 19300 O 1738.24 0.502576 -3.98544 0
M  V30 19301 N 1736.45 -0.268593 -2.89356 0
M  V30 19302 H 1735.99 -0.997347 -2.37509 0
M  V30 19303 H 1735.95 0.5766 -3.09067 0
M  V30 19304 N 1739.72 0.794246 -1.36123 0
M  V30 19305 C 1740.67 1.90668 -1.30056 0
M  V30 19306 C 1741.64 1.65226 -0.170145 0
M  V30 19307 O 1742.83 1.87452 -0.355874 0
M  V30 19308 C 1739.97 3.27405 -1.09086 0
M  V30 19309 C 1739.08 3.64951 -2.31159 0
M  V30 19310 C 1738.21 4.90782 -2.0324 0
M  V30 19311 C 1737.25 5.20992 -3.21301 0
M  V30 19312 N 1736.39 6.38005 -2.93078 0
M  V30 19313 H 1741.23 1.9519 -2.25178 0
M  V30 19314 H 1738.77 0.95458 -1.1192 0
M  V30 19315 H 1740.72 4.0625 -0.94956 0
M  V30 19316 H 1739.35 3.22319 -0.176211 0
M  V30 19317 H 1738.41 2.81268 -2.5611 0
M  V30 19318 H 1739.72 3.83228 -3.19277 0
M  V30 19319 H 1738.87 5.77481 -1.86012 0
M  V30 19320 H 1737.61 4.74565 -1.12426 0
M  V30 19321 H 1736.62 4.32777 -3.39093 0
M  V30 19322 H 1737.84 5.39131 -4.12934 0
M  V30 19323 H 1735.79 6.23189 -2.0487 0
M  V30 19324 H 1735.7 6.56591 -3.74733 0
M  V30 19325 H 1736.97 7.27699 -2.79418 0
M  V30 19326 N 1741.2 1.20323 1.01785 0
M  V30 19327 C 1742.43 1.03671 1.78706 0
M  V30 19328 C 1742.84 -0.417188 1.84543 0
M  V30 19329 O 1742.18 -1.30146 1.29645 0
M  V30 19330 C 1742.24 1.54318 3.24694 0
M  V30 19331 C 1741.91 3.02598 3.42466 0
M  V30 19332 C 1742.91 4.00267 3.31787 0
M  V30 19333 C 1740.59 3.41531 3.68323 0
M  V30 19334 C 1742.58 5.34858 3.46707 0
M  V30 19335 C 1740.27 4.76278 3.82887 0
M  V30 19336 C 1741.27 5.7275 3.72083 0
M  V30 19337 O 1740.96 7.05055 3.86203 0
M  V30 19338 H 1740.69 0.365174 0.56888 0
M  V30 19339 H 1743.24 1.59826 1.29014 0
M  V30 19340 H 1741.47 0.925474 3.75462 0
M  V30 19341 H 1743.16 1.33705 3.83246 0
M  V30 19342 H 1743.93 3.71534 3.11749 0
M  V30 19343 H 1739.81 2.66983 3.75821 0
M  V30 19344 H 1743.35 6.10142 3.3819 0
M  V30 19345 H 1739.25 5.04702 4.02425 0
M  V30 19346 H 1740.02 7.12284 4.03228 0
M  V30 19347 N 1742.68 -1.21073 1.00892 0
M  V30 19348 C 1743.91 -1.93952 0.71178 0
M  V30 19349 C 1744.32 -1.74538 -0.730278 0
M  V30 19350 O 1743.66 -1.05164 -1.50619 0
M  V30 19351 C 1743.72 -3.46502 0.957957 0
M  V30 19352 C 1743.39 -3.89669 2.38762 0
M  V30 19353 C 1744.38 -3.96053 3.36805 0
M  V30 19354 C 1742.07 -4.21873 2.72632 0
M  V30 19355 C 1744.06 -4.34042 4.66783 0
M  V30 19356 C 1741.75 -4.59538 4.02825 0
M  V30 19357 C 1742.75 -4.65593 4.99712 0
M  V30 19358 O 1742.44 -5.02398 6.27576 0
M  V30 19359 H 1742.17 -0.623495 0.261208 0
M  V30 19360 H 1744.72 -1.54728 1.35086 0
M  V30 19361 H 1742.95 -3.85813 0.261704 0
M  V30 19362 H 1744.64 -4.00603 0.653596 0
M  V30 19363 H 1745.41 -3.71346 3.11974 0
M  V30 19364 H 1741.29 -4.16356 1.97912 0
M  V30 19365 H 1744.83 -4.38683 5.42405 0
M  V30 19366 H 1740.73 -4.837 4.27439 0
M  V30 19367 H 1741.49 -5.20417 6.3175 0
M  V30 19368 N 1744.16 -0.784156 -1.36707 0
M  V30 19369 C 1745.4 -0.359468 -2.01214 0
M  V30 19370 C 1745.76 1.04773 -1.60893 0
M  V30 19371 O 1746.96 1.57321 -2.17953 0
M  V30 19372 C 1745.23 -0.512117 -3.53712 0
M  V30 19373 S 1746.79 -0.174528 -4.38453 0
M  V30 19374 H 1743.61 -0.137618 -0.697555 0
M  V30 19375 H 1746.21 -1.02149 -1.66691 0
M  V30 19376 H 1744.92 -1.53667 -3.80545 0
M  V30 19377 H 1744.45 0.166027 -3.9305 0
M  V30 19378 H 1746.46 1.02572 -4.85483 0
M  V30 19379 N 1745.64 1.48215 -0.535727 0
M  V30 19380 C 1746.88 2.04399 -0.0058065 0
M  V30 19381 C 1747.24 1.40332 1.31037 0
M  V30 19382 O 1748.44 1.87437 1.92668 0
M  V30 19383 C 1746.71 3.57237 0.107773 0
M  V30 19384 S 1748.27 4.34857 0.586926 0
M  V30 19385 H 1745.09 0.710846 -0.0148167 0
M  V30 19386 H 1747.69 1.81854 -0.717592 0
M  V30 19387 H 1746.4 4.01398 -0.85488 0
M  V30 19388 H 1745.93 3.84245 0.843764 0
M  V30 19389 H 1747.94 4.60405 1.85045 0
M  V30 19390 N 1747.11 0.27113 1.5525 0
M  V30 19391 C 1748.04 -0.61179 2.25343 0
M  V30 19392 C 1749.03 -1.16208 1.24216 0
M  V30 19393 O 1750.21 -1.19696 1.52927 0
M  V30 19394 C 1747.34 -1.7978 2.97147 0
M  V30 19395 C 1746.29 -1.37922 4.05169 0
M  V30 19396 C 1745.62 -2.64801 4.64526 0
M  V30 19397 C 1746.92 -0.532357 5.1958 0
M  V30 19398 H 1748.61 -0.0272538 2.99388 0
M  V30 19399 H 1746.16 -0.0116681 1.43995 0
M  V30 19400 H 1748.11 -2.42132 3.44891 0
M  V30 19401 H 1746.84 -2.40811 2.20631 0
M  V30 19402 H 1745.5 -0.778918 3.5823 0
M  V30 19403 H 1745.14 -3.24081 3.84682 0
M  V30 19404 H 1744.84 -2.37507 5.37461 0
M  V30 19405 H 1746.37 -3.28009 5.15017 0
M  V30 19406 H 1747.78 -1.06078 5.63401 0
M  V30 19407 H 1746.18 -0.35447 5.99052 0
M  V30 19408 H 1747.25 0.44981 4.82809 0
M  V30 19409 N 1748.59 -1.576 -0.00164943 0
M  V30 19410 C 1749.52 -2.11354 -0.992554 0
M  V30 19411 C 1750.5 -1.0223 -1.35952 0
M  V30 19412 O 1751.69 -1.29904 -1.44356 0
M  V30 19413 C 1748.82 -2.61549 -2.28494 0
M  V30 19414 C 1747.77 -3.75185 -2.05962 0
M  V30 19415 C 1747.1 -4.11688 -3.412 0
M  V30 19416 C 1748.4 -5.02526 -1.42355 0
M  V30 19417 H 1750.09 -2.94398 -0.544986 0
M  V30 19418 H 1747.64 -1.4162 -0.260702 0
M  V30 19419 H 1749.59 -2.97782 -2.98168 0
M  V30 19420 H 1748.32 -1.75625 -2.75361 0
M  V30 19421 H 1746.97 -3.39343 -1.38714 0
M  V30 19422 H 1746.62 -3.22789 -3.85767 0
M  V30 19423 H 1746.32 -4.88246 -3.2694 0
M  V30 19424 H 1747.85 -4.50478 -4.12192 0
M  V30 19425 H 1749.26 -5.3654 -2.01984 0
M  V30 19426 H 1747.66 -5.83878 -1.38589 0
M  V30 19427 H 1748.73 -4.83308 -0.392565 0
M  V30 19428 N 1750.07 0.274379 -1.55193 0
M  V30 19429 C 1751.32 1.00766 -1.75995 0
M  V30 19430 C 1751.65 1.8599 -0.558679 0
M  V30 19431 O 1750.92 1.8937 0.443784 0
M  V30 19432 C 1751.21 1.89137 -3.0643 0
M  V30 19433 C 1751.06 1.06914 -4.36909 0
M  V30 19434 C 1752.38 2.87869 -3.32896 0
M  V30 19435 H 1749.5 0.364915 -0.640317 0
M  V30 19436 H 1752.14 0.280156 -1.87923 0
M  V30 19437 H 1750.29 2.51166 -2.96391 0
M  V30 19438 H 1751.96 0.469666 -4.58903 0
M  V30 19439 H 1750.21 0.372566 -4.32197 0
M  V30 19440 H 1750.88 1.72063 -5.24498 0
M  V30 19441 H 1753.35 2.35974 -3.42718 0
M  V30 19442 H 1752.23 3.46845 -4.25429 0
M  V30 19443 H 1752.49 3.62921 -2.52469 0
M  V30 19444 N 1751.55 1.48103 0.538828 0
M  V30 19445 C 1752.48 1.64856 1.65363 0
M  V30 19446 C 1753.46 0.497579 1.6266 0
M  V30 19447 O 1754.64 0.729088 1.79994 0
M  V30 19448 C 1751.77 1.67984 3.03971 0
M  V30 19449 C 1750.73 2.82494 3.21529 0
M  V30 19450 C 1750.05 2.70706 4.6111 0
M  V30 19451 C 1751.35 4.23892 3.05145 0
M  V30 19452 H 1753.05 2.58183 1.51598 0
M  V30 19453 H 1750.59 1.24249 0.727886 0
M  V30 19454 H 1752.55 1.78294 3.81824 0
M  V30 19455 H 1751.27 0.712299 3.18738 0
M  V30 19456 H 1749.93 2.71725 2.46091 0
M  V30 19457 H 1749.58 1.7194 4.727 0
M  V30 19458 H 1749.28 3.47539 4.73804 0
M  V30 19459 H 1750.8 2.82971 5.41073 0
M  V30 19460 H 1752.22 4.3554 3.72797 0
M  V30 19461 H 1750.61 5.01654 3.29338 0
M  V30 19462 H 1751.68 4.40973 2.01671 0
M  V30 19463 N 1753.03 -0.787016 1.36542 0
M  V30 19464 C 1754.44 -1.08541 1.17008 0
M  V30 19465 C 1754.64 -2.015 -0.00419378 0
M  V30 19466 O 1753.7 -2.43481 -0.668826 0
M  V30 19467 C 1755.01 -1.69758 2.48199 0
M  V30 19468 C 1756.56 -1.82088 2.54584 0
M  V30 19469 C 1757.03 -2.46719 3.85868 0
M  V30 19470 N 1758.53 -2.54185 3.87227 0
M  V30 19471 C 1759.26 -3.05008 4.85549 0
M  V30 19472 N 1758.76 -3.56121 5.94264 0
M  V30 19473 N 1760.55 -3.03742 4.72966 0
M  V30 19474 H 1752.7 -0.16948 2.11723 0
M  V30 19475 H 1754.96 -0.137802 0.937931 0
M  V30 19476 H 1754.67 -1.08922 3.34408 0
M  V30 19477 H 1754.54 -2.69237 2.6418 0
M  V30 19478 H 1756.93 -2.42061 1.68792 0
M  V30 19479 H 1757.01 -0.814071 2.42501 0
M  V30 19480 H 1756.66 -1.87389 4.72068 0
M  V30 19481 H 1756.59 -3.47975 3.95248 0
M  V30 19482 H 1759.08 -2.17995 3.08685 0
M  V30 19483 H 1759.39 -3.93259 6.65257 0
M  V30 19484 H 1757.73 -3.54266 5.9793 0
M  V30 19485 H 1760.93 -2.63102 3.87163 0
M  V30 19486 H 1761.1 -3.43043 5.49751 0
M  V30 19487 N 1754.5 -1.20861 -1.01145 0
M  V30 19488 C 1755.41 -0.977926 -2.13246 0
M  V30 19489 C 1756.43 0.0678862 -1.73868 0
M  V30 19490 O 1757.61 -0.120717 -2.01038 0
M  V30 19491 C 1754.67 -0.538575 -3.42491 0
M  V30 19492 C 1753.73 -1.65584 -3.96081 0
M  V30 19493 C 1752.97 -1.23736 -5.19158 0
M  V30 19494 O 1753.19 -0.108227 -5.70297 0
M  V30 19495 O 1752.12 -2.04679 -5.6603 0
M  V30 19496 H 1755.95 -1.91666 -2.3558 0
M  V30 19497 H 1753.53 -0.992931 -1.1163 0
M  V30 19498 H 1755.42 -0.303041 -4.20309 0
M  V30 19499 H 1754.09 0.371515 -3.21561 0
M  V30 19500 H 1753 -1.94572 -3.19519 0
M  V30 19501 H 1754.33 -2.54313 -4.21409 0
M  V30 19502 N 1755.98 1.20536 -1.01532 0
M  V30 19503 C 1757.23 1.89871 -0.70393 0
M  V30 19504 C 1757.56 1.78768 0.76631 0
M  V30 19505 O 1756.81 1.1653 1.57224 0
M  V30 19506 C 1757.11 3.40578 -1.08358 0
M  V30 19507 C 1756.78 3.71881 -2.54981 0
M  V30 19508 C 1755.44 3.80135 -2.95044 0
M  V30 19509 C 1757.79 3.86282 -3.49909 0
M  V30 19510 C 1755.12 4.00246 -4.28976 0
M  V30 19511 C 1757.47 4.07902 -4.83527 0
M  V30 19512 C 1756.14 4.14385 -5.23298 0
M  V30 19513 H 1755.41 0.694788 -0.257586 0
M  V30 19514 H 1758.05 1.42825 -1.27567 0
M  V30 19515 H 1756.36 3.89431 -0.430234 0
M  V30 19516 H 1758.05 3.92519 -0.820353 0
M  V30 19517 H 1754.64 3.66055 -2.22938 0
M  V30 19518 H 1758.83 3.79261 -3.20117 0
M  V30 19519 H 1754.08 4.03499 -4.59345 0
M  V30 19520 H 1758.26 4.17987 -5.5701 0
M  V30 19521 H 1755.89 4.29721 -6.27092 0
M  V30 19522 N 1757.46 0.791395 1.36289 0
M  V30 19523 C 1758.71 0.364702 1.99189 0
M  V30 19524 C 1759.04 -1.06414 1.62808 0
M  V30 19525 O 1758.29 -1.75019 0.875611 0
M  V30 19526 C 1758.59 0.477795 3.54192 0
M  V30 19527 C 1758.26 1.86773 4.10398 0
M  V30 19528 C 1756.92 2.24802 4.25461 0
M  V30 19529 C 1759.27 2.77776 4.4101 0
M  V30 19530 C 1756.6 3.53233 4.68448 0
M  V30 19531 C 1758.95 4.05636 4.8543 0
M  V30 19532 C 1757.61 4.43685 4.98698 0
M  V30 19533 H 1756.88 0.133454 0.728883 0
M  V30 19534 H 1759.53 1.00924 1.62747 0
M  V30 19535 H 1757.84 -0.250238 3.91 0
M  V30 19536 H 1759.53 0.12865 4.00794 0
M  V30 19537 H 1756.12 1.56221 3.99115 0
M  V30 19538 H 1760.31 2.49648 4.2894 0
M  V30 19539 H 1755.56 3.82581 4.76908 0
M  V30 19540 H 1759.74 4.76264 5.0808 0
M  V30 19541 H 1757.36 5.43258 5.31766 0
M  V30 19542 N 1758.94 -1.47929 0.54358 0
M  V30 19543 C 1760.16 -2.07393 0.0168905 0
M  V30 19544 C 1760.59 -1.39557 -1.26117 0
M  V30 19545 O 1759.95 -0.465983 -1.75209 0
M  V30 19546 C 1760 -3.6017 -0.176105 0
M  V30 19547 O 1759.1 -3.9326 -1.24178 0
M  V30 19548 H 1758.44 -0.662459 0.0452126 0
M  V30 19549 H 1760.97 -1.90145 0.755376 0
M  V30 19550 H 1760.98 -4.06088 -0.394555 0
M  V30 19551 H 1759.66 -4.08944 0.757445 0
M  V30 19552 H 1758.23 -3.59105 -1.0049 0
M  V30 19553 N 1760.42 -0.27936 -1.55104 0
M  V30 19554 C 1761.35 0.64773 -2.18814 0
M  V30 19555 C 1762.33 1.14907 -1.15044 0
M  V30 19556 O 1763.51 1.22126 -1.43588 0
M  V30 19557 C 1760.64 1.88383 -2.81477 0
M  V30 19558 C 1759.69 1.51761 -3.98586 0
M  V30 19559 S 1760.52 0.592119 -5.32216 0
M  V30 19560 C 1761.67 1.8365 -5.98351 0
M  V30 19561 H 1761.91 0.10641 -2.9711 0
M  V30 19562 H 1759.44 -0.0635953 -1.54269 0
M  V30 19563 H 1761.4 2.5933 -3.18211 0
M  V30 19564 H 1760.06 2.39629 -2.03068 0
M  V30 19565 H 1759.25 2.43751 -4.41137 0
M  V30 19566 H 1758.85 0.88828 -3.63298 0
M  V30 19567 H 1761.15 2.77989 -6.17842 0
M  V30 19568 H 1762.09 1.45393 -6.93013 0
M  V30 19569 H 1762.5 2.00337 -5.27755 0
M  V30 19570 N 1761.9 1.57599 -0.0067085 0
M  V30 19571 C 1763.12 1.95142 0.687533 0
M  V30 19572 C 1763.54 0.88196 1.66934 0
M  V30 19573 O 1762.9 -0.13847 1.81974 0
M  V30 19574 C 1762.95 3.32718 1.41355 0
M  V30 19575 O 1762.67 4.3556 0.471111 0
M  V30 19576 C 1764.17 3.84761 2.20168 0
M  V30 19577 H 1761.39 0.643222 0.191066 0
M  V30 19578 H 1763.93 2.04412 -0.0598214 0
M  V30 19579 H 1762.09 3.24735 2.11248 0
M  V30 19580 H 1762.5 5.15185 0.984091 0
M  V30 19581 H 1763.98 4.83432 2.66454 0
M  V30 19582 H 1764.45 3.1782 3.03129 0
M  V30 19583 H 1765.06 3.9594 1.55278 0
M  V30 19584 N 1763.37 -0.266145 1.55336 0
M  V30 19585 C 1764.28 -1.35103 1.91793 0
M  V30 19586 C 1765.3 -1.5368 0.815985 0
M  V30 19587 O 1766.48 -1.67675 1.11567 0
M  V30 19588 C 1763.54 -2.68905 2.1884 0
M  V30 19589 C 1762.6 -2.59015 3.42359 0
M  V30 19590 C 1761.83 -3.86437 3.68106 0
M  V30 19591 O 1762.06 -4.87436 2.96247 0
M  V30 19592 O 1760.99 -3.86227 4.61641 0
M  V30 19593 H 1764.82 -1.07181 2.84158 0
M  V30 19594 H 1762.4 -0.465262 1.41971 0
M  V30 19595 H 1764.28 -3.48008 2.3763 0
M  V30 19596 H 1762.96 -2.96599 1.29656 0
M  V30 19597 H 1761.87 -1.78264 3.28896 0
M  V30 19598 H 1763.2 -2.3627 4.31784 0
M  V30 19599 N 1764.85 -1.48386 -0.530967 0
M  V30 19600 C 1766.1 -1.56045 -1.28431 0
M  V30 19601 C 1766.42 -0.235695 -1.9357 0
M  V30 19602 O 1765.69 0.742677 -1.81276 0
M  V30 19603 H 1764.27 -0.574868 -0.477007 0
M  V30 19604 H 1766.93 -1.84844 -0.617955 0
M  V30 19605 H 1766.03 -2.34096 -2.0641 0
M  V30 19606 N 1766.33 0.779763 -1.36958 0
M  V30 19607 C 1767.74 1.35555 -1.28381 0
M  V30 19608 C 1768.09 1.96067 0.0721422 0
M  V30 19609 O 1767.22 1.9325 0.973824 0
M  V30 19610 C 1767.81 2.46454 -2.32477 0
M  V30 19611 C 1766.37 2.99823 -2.27559 0
M  V30 19612 C 1765.52 1.72975 -2.16737 0
M  V30 19613 H 1768.47 0.580646 -1.47696 0
M  V30 19614 H 1768.49 3.25726 -1.96679 0
M  V30 19615 H 1768 2.02383 -3.31154 0
M  V30 19616 H 1766.1 3.4829 -1.3238 0
M  V30 19617 H 1766.22 3.55982 -3.20646 0
M  V30 19618 H 1764.58 1.95587 -1.6315 0
M  V30 19619 H 1765.36 1.31018 -3.17315 0
M  V30 19620 N 1767.81 1.21396 1.00503 0
M  V30 19621 C 1768.74 0.997268 2.11132 0
M  V30 19622 C 1769.72 -0.0777455 1.69922 0
M  V30 19623 O 1770.9 0.08208 1.94026 0
M  V30 19624 C 1768.03 0.561122 3.42737 0
M  V30 19625 C 1766.99 1.58069 3.97741 0
M  V30 19626 C 1766.31 1.00079 5.25251 0
M  V30 19627 C 1767.61 2.96754 4.29807 0
M  V30 19628 H 1769.31 1.92255 2.29518 0
M  V30 19629 H 1766.85 0.925776 1.10297 0
M  V30 19630 H 1768.81 0.396701 4.19529 0
M  V30 19631 H 1767.53 -0.399804 3.24144 0
M  V30 19632 H 1766.19 1.73268 3.23069 0
M  V30 19633 H 1765.84 0.0315797 5.0299 0
M  V30 19634 H 1765.54 1.68182 5.63017 0
M  V30 19635 H 1767.06 0.847687 6.04687 0
M  V30 19636 H 1768.48 2.85 4.97441 0
M  V30 19637 H 1766.87 3.61871 4.78717 0
M  V30 19638 H 1767.94 3.47602 3.38084 0
M  V30 19639 N 1769.29 -1.19996 1.0217 0
M  V30 19640 C 1770.52 -1.93186 0.732311 0
M  V30 19641 C 1770.92 -1.75303 -0.711724 0
M  V30 19642 O 1770.27 -1.06756 -1.49495 0
M  V30 19643 C 1770.33 -3.45466 0.994655 0
M  V30 19644 C 1769.99 -3.87114 2.42882 0
M  V30 19645 C 1770.99 -3.92459 3.40987 0
M  V30 19646 C 1768.67 -4.18958 2.77091 0
M  V30 19647 C 1770.67 -4.29067 4.7136 0
M  V30 19648 C 1768.36 -4.5524 4.07676 0
M  V30 19649 C 1769.35 -4.60267 5.04622 0
M  V30 19650 O 1769.04 -4.95713 6.32869 0
M  V30 19651 H 1768.77 -0.62069 0.267806 0
M  V30 19652 H 1771.33 -1.53287 1.3672 0
M  V30 19653 H 1769.56 -3.85514 0.30261 0
M  V30 19654 H 1771.25 -3.99887 0.696049 0
M  V30 19655 H 1772.01 -3.68016 3.15895 0
M  V30 19656 H 1767.89 -4.14233 2.02317 0
M  V30 19657 H 1771.44 -4.32905 5.47027 0
M  V30 19658 H 1767.33 -4.7914 4.32545 0
M  V30 19659 H 1768.1 -5.13687 6.37234 0
M  V30 19660 N 1770.76 -0.798611 -1.35867 0
M  V30 19661 C 1771.71 -0.191425 -2.31811 0
M  V30 19662 C 1772.71 0.65438 -1.56251 0
M  V30 19663 O 1773.91 0.548435 -1.71441 0
M  V30 19664 H 1770.29 -0.0431343 -0.750762 0
M  V30 19665 H 1772.26 -1.01589 -2.80575 0
M  V30 19666 C 1771.01 0.651912 -3.41534 0
M  V30 19667 H 1770.33 0.0104309 -3.99799 0
M  V30 19668 H 1771.77 1.04328 -4.10964 0
M  V30 19669 C 1770.23 1.81407 -2.83889 0
M  V30 19670 O 1770.76 2.91115 -2.76794 0
M  V30 19671 N 1768.96 1.62308 -2.41049 0
M  V30 19672 H 1768.51 0.730709 -2.47019 0
M  V30 19673 H 1768.47 2.40226 -2.02827 0
M  V30 19674 N 1772.24 1.47639 -0.551417 0
M  V30 19675 C 1773.47 2.07381 -0.0278888 0
M  V30 19676 C 1773.89 1.40223 1.25375 0
M  V30 19677 O 1773.25 0.475268 1.7496 0
M  V30 19678 C 1773.3 3.60258 0.157001 0
M  V30 19679 O 1772.4 3.93913 1.2209 0
M  V30 19680 H 1771.74 0.66221 -0.0487252 0
M  V30 19681 H 1774.27 1.89742 -0.765449 0
M  V30 19682 H 1774.28 4.06291 0.373013 0
M  V30 19683 H 1772.96 4.08537 -0.779122 0
M  V30 19684 H 1771.53 3.59633 0.985843 0
M  V30 19685 N 1773.72 0.287581 1.54954 0
M  V30 19686 C 1774.97 -0.326315 1.99043 0
M  V30 19687 C 1775.28 -1.56033 1.17954 0
M  V30 19688 O 1776.49 -2.24797 1.52246 0
M  V30 19689 C 1774.94 -0.631918 3.54309 0
M  V30 19690 C 1774.55 0.582998 4.4419 0
M  V30 19691 C 1776.3 -1.20775 4.06957 0
M  V30 19692 C 1774.2 0.251291 5.90866 0
M  V30 19693 H 1773.13 -0.125703 0.743448 0
M  V30 19694 H 1775.78 0.394188 1.79216 0
M  V30 19695 H 1774.17 -1.41166 3.69984 0
M  V30 19696 H 1775.34 1.35957 4.40287 0
M  V30 19697 H 1773.66 1.07653 4.02243 0
M  V30 19698 H 1776.25 -1.46995 5.14098 0
M  V30 19699 H 1776.6 -2.14569 3.56743 0
M  V30 19700 H 1777.13 -0.490021 3.9477 0
M  V30 19701 H 1773.87 1.15744 6.452 0
M  V30 19702 H 1773.39 -0.488274 5.97809 0
M  V30 19703 H 1775.07 -0.152008 6.46821 0
M  V30 19704 N 1775.2 -1.57593 0.0150662 0
M  V30 19705 C 1776.61 -1.5591 -0.341189 0
M  V30 19706 C 1776.81 -1.01927 -1.73819 0
M  V30 19707 O 1775.87 -0.659752 -2.43728 0
M  V30 19708 C 1777.18 -3.00016 -0.202639 0
M  V30 19709 C 1778.73 -3.11777 -0.276457 0
M  V30 19710 C 1779.21 -4.57696 -0.166859 0
M  V30 19711 N 1780.7 -4.62657 -0.224287 0
M  V30 19712 C 1781.43 -5.73168 -0.163053 0
M  V30 19713 N 1780.93 -6.92781 -0.0515442 0
M  V30 19714 N 1782.72 -5.61685 -0.216018 0
M  V30 19715 H 1774.87 -1.91018 0.92876 0
M  V30 19716 H 1777.14 -0.878048 0.3574 0
M  V30 19717 H 1776.84 -3.43409 0.759136 0
M  V30 19718 H 1776.72 -3.64285 -0.978599 0
M  V30 19719 H 1779.1 -2.68305 -1.22868 0
M  V30 19720 H 1779.18 -2.50257 0.529637 0
M  V30 19721 H 1778.83 -5.01846 0.781888 0
M  V30 19722 H 1778.76 -5.17179 -0.991635 0
M  V30 19723 H 1781.25 -3.76617 -0.311188 0
M  V30 19724 H 1781.56 -7.72799 -0.0111287 0
M  V30 19725 H 1779.91 -6.94998 -0.0169584 0
M  V30 19726 H 1783.1 -4.67128 -0.301435 0
M  V30 19727 H 1783.27 -6.4779 -0.164834 0
M  V30 19728 N 1776.68 0.257904 -1.55475 0
M  V30 19729 C 1777.92 0.985519 -1.76442 0
M  V30 19730 C 1778.25 1.86267 -0.577033 0
M  V30 19731 O 1777.52 1.91613 0.407582 0
M  V30 19732 H 1776.1 0.366872 -0.650702 0
M  V30 19733 H 1778.76 0.278498 -1.929 0
M  V30 19734 H 1777.85 1.61367 -2.67146 0
M  V30 19735 N 1778.15 1.48666 0.52309 0
M  V30 19736 C 1779.4 1.56724 1.27601 0
M  V30 19737 C 1779.72 0.245958 1.93443 0
M  V30 19738 O 1778.99 -0.733053 1.81668 0
M  V30 19739 H 1777.57 0.57739 0.473952 0
M  V30 19740 H 1780.24 1.85169 0.608144 0
M  V30 19741 H 1779.33 2.35188 2.05166 0
M  V30 19742 N 1779.63 -0.772489 1.37369 0
M  V30 19743 C 1780.88 -1.528 1.32275 0
M  V30 19744 C 1781.2 -1.9478 -0.092541 0
M  V30 19745 O 1780.47 -1.6624 -1.0364 0
M  V30 19746 H 1779.05 -0.566727 0.486651 0
M  V30 19747 H 1781.71 -0.919435 1.7185 0
M  V30 19748 H 1780.81 -2.42774 1.96131 0
M  V30 19749 N 1781.11 -1.21927 -0.998575 0
M  V30 19750 C 1782.36 -1.0404 -1.7373 0
M  V30 19751 C 1782.69 0.425251 -1.89794 0
M  V30 19752 O 1781.94 1.3317 -1.43402 0
M  V30 19753 C 1782.24 -1.69015 -3.1491 0
M  V30 19754 C 1781.91 -3.18893 -3.18776 0
M  V30 19755 C 1780.57 -3.5979 -3.19538 0
M  V30 19756 C 1782.92 -4.14851 -3.15512 0
M  V30 19757 C 1780.25 -4.95138 -3.1473 0
M  V30 19758 C 1782.6 -5.50168 -3.12246 0
M  V30 19759 C 1781.26 -5.90454 -3.11321 0
M  V30 19760 H 1780.53 -0.380709 -0.635721 0
M  V30 19761 H 1783.18 -1.5161 -1.1699 0
M  V30 19762 H 1781.49 -1.13755 -3.74923 0
M  V30 19763 H 1783.18 -1.52671 -3.708 0
M  V30 19764 H 1779.77 -2.86325 -3.18929 0
M  V30 19765 H 1783.96 -3.84277 -3.14078 0
M  V30 19766 H 1779.21 -5.25589 -3.12356 0
M  V30 19767 H 1783.39 -6.24254 -3.08675 0
M  V30 19768 H 1781.01 -6.95299 -3.0735 0
M  V30 19769 N 1782.59 1.19452 -1.02805 0
M  V30 19770 C 1783.55 2.20857 -0.612757 0
M  V30 19771 C 1784.55 1.57519 0.323182 0
M  V30 19772 O 1785.74 1.7385 0.110303 0
M  V30 19773 C 1782.87 3.40743 0.103488 0
M  V30 19774 H 1784.07 2.59113 -1.50998 0
M  V30 19775 H 1781.62 1.33116 -0.819142 0
M  V30 19776 H 1782.35 3.08004 1.0151 0
M  V30 19777 H 1782.14 3.87949 -0.56903 0
M  V30 19778 H 1783.63 4.15858 0.380998 0
M  V30 19779 N 1784.07 0.805805 1.35442 0
M  V30 19780 C 1785.3 0.397675 2.02737 0
M  V30 19781 C 1785.7 -0.99586 1.6087 0
M  V30 19782 O 1785.05 -1.65293 0.801496 0
M  V30 19783 C 1785.11 0.400706 3.5726 0
M  V30 19784 C 1784.77 1.74462 4.22388 0
M  V30 19785 C 1785.77 2.70278 4.44123 0
M  V30 19786 C 1783.46 2.02841 4.59522 0
M  V30 19787 C 1785.45 3.92658 5.02094 0
M  V30 19788 C 1783.14 3.25485 5.17207 0
M  V30 19789 C 1784.13 4.20211 5.38435 0
M  V30 19790 O 1783.82 5.4069 5.94903 0
M  V30 19791 H 1783.55 0.159829 0.656834 0
M  V30 19792 H 1786.11 1.09052 1.7406 0
M  V30 19793 H 1784.34 -0.348738 3.85124 0
M  V30 19794 H 1786.03 0.0149949 4.05897 0
M  V30 19795 H 1786.79 2.49645 4.15815 0
M  V30 19796 H 1782.67 1.29921 4.42314 0
M  V30 19797 H 1786.22 4.66607 5.18578 0
M  V30 19798 H 1782.11 3.45989 5.44942 0
M  V30 19799 H 1782.88 5.41976 6.13355 0
M  V30 19800 N 1785.54 -1.47344 0.559239 0
M  V30 19801 C 1786.45 -2.33826 -0.190402 0
M  V30 19802 C 1787.47 -1.48317 -0.909846 0
M  V30 19803 O 1788.65 -1.8124 -0.878286 0
M  V30 19804 C 1785.71 -3.25052 -1.20591 0
M  V30 19805 C 1784.77 -4.26452 -0.493671 0
M  V30 19806 C 1784.01 -5.13319 -1.4608 0
M  V30 19807 O 1784.23 -5.02678 -2.69576 0
M  V30 19808 O 1783.16 -5.93799 -0.984178 0
M  V30 19809 H 1786.99 -2.99232 0.519046 0
M  V30 19810 H 1784.57 -1.45936 0.319836 0
M  V30 19811 H 1786.46 -3.81397 -1.79205 0
M  V30 19812 H 1785.13 -2.62272 -1.89724 0
M  V30 19813 H 1784.04 -3.73861 0.133714 0
M  V30 19814 H 1785.37 -4.91952 0.15625 0
M  V30 19815 N 1787.02 -0.295795 -1.54799 0
M  V30 19816 C 1788.26 0.315943 -2.01943 0
M  V30 19817 C 1788.63 1.5149 -1.17961 0
M  V30 19818 O 1789.83 2.19765 -1.5478 0
M  V30 19819 C 1788.1 0.668639 -3.5109 0
M  V30 19820 S 1789.66 1.26398 -4.20201 0
M  V30 19821 H 1786.48 0.0972386 -0.704319 0
M  V30 19822 H 1789.08 -0.422454 -1.90881 0
M  V30 19823 H 1787.78 -0.21252 -4.09849 0
M  V30 19824 H 1787.31 1.43796 -3.66178 0
M  V30 19825 H 1789.33 2.55196 -4.25546 0
M  V30 19826 N 1788.5 1.57583 -0.0234236 0
M  V30 19827 C 1789.46 2.08797 0.945325 0
M  V30 19828 C 1790.46 1.00189 1.25773 0
M  V30 19829 O 1791.65 1.2637 1.19901 0
M  V30 19830 C 1788.79 2.54906 2.26353 0
M  V30 19831 H 1789.98 2.95671 0.50187 0
M  V30 19832 H 1787.53 1.54679 0.224507 0
M  V30 19833 H 1788.27 1.71345 2.75339 0
M  V30 19834 H 1788.05 3.34247 2.04991 0
M  V30 19835 H 1789.54 2.94774 2.95801 0
M  V30 19836 N 1789.98 -0.249655 1.5561 0
M  V30 19837 C 1790.91 -1.31281 1.931 0
M  V30 19838 C 1791.89 -1.50347 0.795601 0
M  V30 19839 O 1793.08 -1.63001 1.05566 0
M  V30 19840 C 1790.21 -2.66808 2.2233 0
M  V30 19841 C 1789.16 -2.62441 3.38096 0
M  V30 19842 C 1788.49 -4.01738 3.52861 0
M  V30 19843 C 1789.79 -2.19667 4.7386 0
M  V30 19844 H 1791.48 -1.00151 2.82153 0
M  V30 19845 H 1789.03 -0.480331 1.35753 0
M  V30 19846 H 1790.98 -3.41316 2.47146 0
M  V30 19847 H 1789.7 -2.99569 1.30101 0
M  V30 19848 H 1788.36 -1.90391 3.13284 0
M  V30 19849 H 1788.01 -4.31759 2.58056 0
M  V30 19850 H 1787.71 -3.99705 4.30708 0
M  V30 19851 H 1789.23 -4.7795 3.79995 0
M  V30 19852 H 1790.65 -2.83906 4.98067 0
M  V30 19853 H 1789.04 -2.28751 5.54791 0
M  V30 19854 H 1790.11 -1.14829 4.71108 0
M  V30 19855 N 1791.46 -1.48941 -0.515198 0
M  V30 19856 C 1792.37 -1.67271 -1.64492 0
M  V30 19857 C 1793.38 -0.555222 -1.64904 0
M  V30 19858 O 1794.56 -0.828161 -1.83585 0
M  V30 19859 C 1791.62 -1.722 -3.00912 0
M  V30 19860 C 1790.69 -2.95683 -3.11239 0
M  V30 19861 C 1789.92 -3.00368 -4.41152 0
M  V30 19862 O 1790.14 -2.13041 -5.29122 0
M  V30 19863 O 1789.08 -3.92691 -4.56155 0
M  V30 19864 H 1792.9 -2.62947 -1.51962 0
M  V30 19865 H 1790.49 -1.32515 -0.68993 0
M  V30 19866 H 1792.37 -1.77877 -3.82018 0
M  V30 19867 H 1791.04 -0.796995 -3.13735 0
M  V30 19868 H 1789.95 -2.95531 -2.29374 0
M  V30 19869 H 1791.28 -3.87617 -3.03338 0
M  V30 19870 N 1792.94 0.765193 -1.37777 0
M  V30 19871 C 1794.17 1.5521 -1.36358 0
M  V30 19872 C 1794.57 1.8913 0.0514021 0
M  V30 19873 O 1793.92 1.52422 1.02535 0
M  V30 19874 C 1793.98 2.88605 -2.14354 0
M  V30 19875 C 1793.64 2.77286 -3.63265 0
M  V30 19876 C 1794.64 2.47869 -4.57009 0
M  V30 19877 C 1792.32 2.95102 -4.06473 0
M  V30 19878 C 1794.32 2.36406 -5.91938 0
M  V30 19879 C 1792.01 2.83259 -5.41486 0
M  V30 19880 C 1793 2.53952 -6.34032 0
M  V30 19881 O 1792.69 2.42148 -7.66564 0
M  V30 19882 H 1792.42 0.487266 -0.468559 0
M  V30 19883 H 1794.98 0.955716 -1.81811 0
M  V30 19884 H 1793.21 3.50388 -1.636 0
M  V30 19885 H 1794.9 3.50043 -2.05486 0
M  V30 19886 H 1795.66 2.33784 -4.24936 0
M  V30 19887 H 1791.54 3.16913 -3.34794 0
M  V30 19888 H 1795.09 2.13452 -6.64142 0
M  V30 19889 H 1790.98 2.96914 -5.7316 0
M  V30 19890 H 1791.75 2.57448 -7.76957 0
M  V30 19891 N 1794.41 1.22455 0.992094 0
M  V30 19892 C 1795.36 0.992597 2.10357 0
M  V30 19893 C 1796.36 -0.0645514 1.69277 0
M  V30 19894 O 1797.56 0.0879577 1.79785 0
M  V30 19895 H 1793.94 0.303808 0.687899 0
M  V30 19896 H 1795.91 1.93574 2.27094 0
M  V30 19897 C 1794.66 0.587852 3.42695 0
M  V30 19898 H 1793.98 1.39298 3.74748 0
M  V30 19899 H 1795.42 0.464975 4.21443 0
M  V30 19900 C 1793.88 -0.702681 3.29491 0
M  V30 19901 O 1794.41 -1.7549 3.61339 0
M  V30 19902 N 1792.61 -0.674141 2.82672 0
M  V30 19903 H 1792.16 0.182446 2.56953 0
M  V30 19904 H 1792.12 -1.53789 2.7422 0
M  V30 19905 N 1795.89 -1.18905 1.03437 0
M  V30 19906 C 1797.13 -1.90424 0.74284 0
M  V30 19907 C 1797.5 -1.78157 -0.715837 0
M  V30 19908 O 1798.7 -2.44323 -1.12069 0
M  V30 19909 C 1796.97 -3.37067 1.18831 0
M  V30 19910 S 1798.53 -4.26745 1.02146 0
M  V30 19911 H 1795.34 -0.657626 0.270275 0
M  V30 19912 H 1797.95 -1.43717 1.32535 0
M  V30 19913 H 1796.65 -3.43522 2.24545 0
M  V30 19914 H 1796.18 -3.88808 0.599328 0
M  V30 19915 H 1798.2 -4.96158 -0.0647961 0
M  V30 19916 N 1797.37 -0.812977 -1.35013 0
M  V30 19917 C 1798.62 -0.392801 -1.97838 0
M  V30 19918 C 1798.93 1.04728 -1.65201 0
M  V30 19919 O 1800.14 1.57088 -2.2144 0
M  V30 19920 C 1798.59 -0.651399 -3.53956 0
M  V30 19921 C 1798.2 -2.10444 -3.95496 0
M  V30 19922 C 1799.95 -0.296897 -4.2346 0
M  V30 19923 C 1797.85 -2.30845 -5.44485 0
M  V30 19924 H 1796.78 -0.143138 -0.740289 0
M  V30 19925 H 1799.43 -0.997933 -1.53992 0
M  V30 19926 H 1797.82 0.0237698 -3.95993 0
M  V30 19927 H 1798.99 -2.81795 -3.64593 0
M  V30 19928 H 1797.3 -2.41942 -3.389 0
M  V30 19929 H 1799.9 -0.427291 -5.3299 0
M  V30 19930 H 1800.24 0.757594 -4.09349 0
M  V30 19931 H 1800.78 -0.92624 -3.86866 0
M  V30 19932 H 1797.52 -3.34763 -5.63572 0
M  V30 19933 H 1797.04 -1.64027 -5.76936 0
M  V30 19934 H 1798.72 -2.12712 -6.11034 0
M  V30 19935 N 1798.85 1.47045 -0.567045 0
M  V30 19936 C 1799.78 2.32929 0.163191 0
M  V30 19937 C 1800.76 1.44393 0.899142 0
M  V30 19938 O 1801.94 1.73235 0.87768 0
M  V30 19939 C 1799.07 3.26369 1.18745 0
M  V30 19940 C 1798.03 4.24223 0.567335 0
M  V30 19941 C 1797.35 5.07058 1.69693 0
M  V30 19942 C 1798.65 5.2004 -0.485319 0
M  V30 19943 H 1800.35 2.94233 -0.553837 0
M  V30 19944 H 1797.89 1.41488 -0.267789 0
M  V30 19945 H 1799.85 3.85299 1.70654 0
M  V30 19946 H 1798.57 2.6314 1.93455 0
M  V30 19947 H 1797.23 3.66534 0.0694525 0
M  V30 19948 H 1796.88 4.40226 2.43331 0
M  V30 19949 H 1796.58 5.73316 1.28774 0
M  V30 19950 H 1798.1 5.68848 2.2191 0
M  V30 19951 H 1799.52 5.73277 -0.0519049 0
M  V30 19952 H 1797.91 5.94554 -0.813942 0
M  V30 19953 H 1798.98 4.64921 -1.37754 0
M  V30 19954 N 1800.33 0.304 1.5464 0
M  V30 19955 C 1801.57 -0.303793 1.99804 0
M  V30 19956 C 1801.89 -1.54179 1.19389 0
M  V30 19957 O 1801.16 -1.93732 0.290631 0
M  V30 19958 H 1799.74 -0.115241 0.738057 0
M  V30 19959 H 1802.41 0.416024 1.90408 0
M  V30 19960 H 1801.5 -0.573759 3.06781 0
M  V30 19961 N 1801.8 -1.57568 0.0317802 0
M  V30 19962 C 1802.71 -2.13842 -0.964811 0
M  V30 19963 C 1803.73 -1.09134 -1.3552 0
M  V30 19964 O 1804.91 -1.41205 -1.43608 0
M  V30 19965 C 1801.97 -2.65654 -2.22775 0
M  V30 19966 C 1801.03 -3.85087 -1.89753 0
M  V30 19967 C 1800.26 -4.34419 -3.10026 0
M  V30 19968 O 1800.49 -3.8291 -4.22772 0
M  V30 19969 O 1799.42 -5.26233 -2.92169 0
M  V30 19970 H 1803.25 -2.99279 -0.516302 0
M  V30 19971 H 1800.83 -1.482 -0.188982 0
M  V30 19972 H 1802.71 -2.99035 -2.96911 0
M  V30 19973 H 1801.39 -1.83299 -2.66802 0
M  V30 19974 H 1800.3 -3.56628 -1.12994 0
M  V30 19975 H 1801.63 -4.68613 -1.50541 0
M  V30 19976 N 1803.28 0.241399 -1.5574 0
M  V30 19977 C 1804.53 0.970098 -1.78093 0
M  V30 19978 C 1804.86 1.84763 -0.598005 0
M  V30 19979 O 1804.14 1.90268 0.403516 0
M  V30 19980 C 1804.42 1.82594 -3.10373 0
M  V30 19981 C 1804.27 0.976228 -4.39078 0
M  V30 19982 C 1805.59 2.80743 -3.38927 0
M  V30 19983 H 1802.71 0.35125 -0.647914 0
M  V30 19984 H 1805.35 0.240232 -1.88475 0
M  V30 19985 H 1803.5 2.44823 -3.01652 0
M  V30 19986 H 1805.17 0.37222 -4.59796 0
M  V30 19987 H 1803.42 0.280807 -4.3289 0
M  V30 19988 H 1804.09 1.60899 -5.2803 0
M  V30 19989 H 1806.56 2.28651 -3.47646 0
M  V30 19990 H 1805.44 3.37743 -4.3269 0
M  V30 19991 H 1805.7 3.57484 -2.6011 0
M  V30 19992 N 1804.76 1.49212 0.507292 0
M  V30 19993 C 1805.99 1.62343 1.29072 0
M  V30 19994 C 1806.41 0.292387 1.85814 0
M  V30 19995 O 1805.77 -0.739145 1.65549 0
M  V30 19996 C 1805.82 2.69017 2.40129 0
M  V30 19997 O 1804.92 2.27753 3.43806 0
M  V30 19998 H 1804.26 0.543591 0.38132 0
M  V30 19999 H 1806.79 1.95358 0.607997 0
M  V30 20000 H 1806.8 2.90992 2.85985 0
M  V30 20001 H 1805.48 3.65638 1.98195 0
M  V30 20002 H 1804.05 2.16084 3.03912 0
M  V30 20003 N 1806.24 -0.757876 1.38181 0
M  V30 20004 C 1807.17 -1.88519 1.37779 0
M  V30 20005 C 1808.15 -1.68336 0.24432 0
M  V30 20006 O 1809.33 -1.88991 0.446762 0
M  V30 20007 C 1806.46 -3.2599 1.19784 0
M  V30 20008 C 1805.42 -3.60764 2.30289 0
M  V30 20009 C 1804.74 -4.96927 1.97403 0
M  V30 20010 C 1806.04 -3.66082 3.72533 0
M  V30 20011 H 1807.74 -1.89112 2.32114 0
M  V30 20012 H 1805.28 -0.908442 1.11729 0
M  V30 20013 H 1807.24 -4.04504 1.18129 0
M  V30 20014 H 1805.96 -3.25864 0.219088 0
M  V30 20015 H 1804.62 -2.84566 2.31123 0
M  V30 20016 H 1804.27 -4.93356 0.98023 0
M  V30 20017 H 1803.97 -5.21162 2.7141 0
M  V30 20018 H 1805.49 -5.77825 1.97359 0
M  V30 20019 H 1806.91 -4.3472 3.73754 0
M  V30 20020 H 1805.3 -4.01824 4.4571 0
M  V30 20021 H 1806.37 -2.66412 4.05158 0
M  V30 20022 N 1807.72 -1.22979 -0.985586 0
M  V30 20023 C 1809.13 -0.991329 -1.25079 0
M  V30 20024 C 1809.33 0.310701 -1.9909 0
M  V30 20025 O 1808.39 1.03147 -2.30471 0
M  V30 20026 C 1809.7 -2.19483 -2.05542 0
M  V30 20027 C 1811.25 -2.23918 -2.187 0
M  V30 20028 C 1811.72 -3.43841 -3.02552 0
M  V30 20029 N 1813.22 -3.44048 -3.10137 0
M  V30 20030 C 1813.95 -4.33493 -3.75328 0
M  V30 20031 N 1813.45 -5.33167 -4.42385 0
M  V30 20032 N 1815.24 -4.2125 -3.72163 0
M  V30 20033 H 1807.39 -2.0668 -0.489617 0
M  V30 20034 H 1809.65 -0.906048 -0.278892 0
M  V30 20035 H 1809.36 -3.13945 -1.5853 0
M  V30 20036 H 1809.23 -2.20144 -3.06295 0
M  V30 20037 H 1811.62 -1.3 -2.64923 0
M  V30 20038 H 1811.7 -2.27293 -1.17353 0
M  V30 20039 H 1811.35 -4.38063 -2.57027 0
M  V30 20040 H 1811.28 -3.37707 -4.04056 0
M  V30 20041 H 1813.77 -2.71927 -2.6242 0
M  V30 20042 H 1814.08 -5.97684 -4.89892 0
M  V30 20043 H 1812.42 -5.37073 -4.4111 0
M  V30 20044 H 1815.62 -3.42629 -3.18941 0
M  V30 20045 H 1815.79 -4.91162 -4.22687 0
M  V30 20046 N 1809.19 1.18355 -1.04066 0
M  V30 20047 C 1810.44 1.87665 -0.73923 0
M  V30 20048 C 1810.76 1.81226 0.735963 0
M  V30 20049 O 1811.96 2.45899 1.15091 0
M  V30 20050 C 1810.42 3.36671 -1.27203 0
M  V30 20051 C 1810.03 3.5164 -2.77585 0
M  V30 20052 C 1811.77 4.11383 -1.04712 0
M  V30 20053 C 1809.68 4.94605 -3.24222 0
M  V30 20054 H 1808.61 0.702908 -0.27283 0
M  V30 20055 H 1811.26 1.33733 -1.25649 0
M  V30 20056 H 1809.64 3.90072 -0.682621 0
M  V30 20057 H 1810.81 3.08511 -3.42283 0
M  V30 20058 H 1809.13 2.90334 -2.98488 0
M  V30 20059 H 1811.73 5.16832 -1.37071 0
M  V30 20060 H 1812.07 4.16297 0.0156344 0
M  V30 20061 H 1812.6 3.64154 -1.60114 0
M  V30 20062 H 1809.34 4.94859 -4.29878 0
M  V30 20063 H 1808.86 5.38449 -2.6426 0
M  V30 20064 H 1810.54 5.6332 -3.18245 0
M  V30 20065 N 1810.67 0.820125 1.3458 0
M  V30 20066 C 1811.9 0.419155 2.02303 0
M  V30 20067 C 1812.31 -0.978742 1.61918 0
M  V30 20068 O 1811.65 -1.64433 0.818983 0
M  V30 20069 C 1811.72 0.438576 3.56815 0
M  V30 20070 C 1811.38 1.78932 4.20514 0
M  V30 20071 C 1812.38 2.74974 4.41232 0
M  V30 20072 C 1810.06 2.07704 4.57345 0
M  V30 20073 C 1812.06 3.97961 4.97901 0
M  V30 20074 C 1809.74 3.30952 5.13726 0
M  V30 20075 C 1810.74 4.25898 5.33947 0
M  V30 20076 O 1810.43 5.46969 5.89135 0
M  V30 20077 H 1810.16 0.166787 0.655102 0
M  V30 20078 H 1812.71 1.10892 1.72893 0
M  V30 20079 H 1810.94 -0.307871 3.85472 0
M  V30 20080 H 1812.63 0.0580448 4.05858 0
M  V30 20081 H 1813.4 2.54041 4.13144 0
M  V30 20082 H 1809.28 1.34605 4.40911 0
M  V30 20083 H 1812.82 4.72081 5.136 0
M  V30 20084 H 1808.72 3.5175 5.41242 0
M  V30 20085 H 1809.49 5.48451 6.07572 0
M  V30 20086 N 1812.15 -1.46743 0.574835 0
M  V30 20087 C 1813.57 -1.57847 0.23591 0
M  V30 20088 C 1813.77 -1.57105 -1.26175 0
M  V30 20089 O 1812.82 -1.48382 -2.04301 0
M  V30 20090 C 1814.14 -2.87591 0.878158 0
M  V30 20091 C 1815.68 -3.01209 0.851018 0
M  V30 20092 C 1816.16 -4.33678 1.47266 0
M  V30 20093 N 1817.65 -4.40358 1.43664 0
M  V30 20094 C 1818.38 -5.41458 1.8871 0
M  V30 20095 N 1817.88 -6.49274 2.41692 0
M  V30 20096 N 1819.67 -5.3261 1.79674 0
M  V30 20097 H 1811.82 -1.45469 1.54766 0
M  V30 20098 H 1814.09 -0.69341 0.646441 0
M  V30 20099 H 1813.79 -2.93922 1.93139 0
M  V30 20100 H 1813.67 -3.75264 0.381665 0
M  V30 20101 H 1816.05 -2.94464 -0.193573 0
M  V30 20102 H 1816.14 -2.15032 1.38545 0
M  V30 20103 H 1815.78 -4.41179 2.51641 0
M  V30 20104 H 1815.71 -5.18616 0.913519 0
M  V30 20105 H 1818.2 -3.63041 1.04928 0
M  V30 20106 H 1818.51 -7.22617 2.73942 0
M  V30 20107 H 1816.86 -6.50115 2.45713 0
M  V30 20108 H 1820.05 -4.47282 1.38045 0
M  V30 20109 H 1820.22 -6.11259 2.15096 0
M  V30 20110 N 1813.63 -0.312197 -1.54477 0
M  V30 20111 C 1814.85 0.298829 -2.05236 0
M  V30 20112 C 1815.28 1.45881 -1.18745 0
M  V30 20113 O 1814.64 1.80259 -0.193999 0
M  V30 20114 C 1814.68 0.722008 -3.53298 0
M  V30 20115 O 1813.79 1.82562 -3.6979 0
M  V30 20116 H 1813.13 0.0560985 -0.661626 0
M  V30 20117 H 1815.66 -0.4573 -1.99424 0
M  V30 20118 H 1815.67 1.00777 -3.95358 0
M  V30 20119 H 1814.34 -0.12647 -4.15708 0
M  V30 20120 H 1812.92 1.53954 -3.39636 0
M  V30 20121 N 1815.11 1.57549 -0.040136 0
M  V30 20122 C 1816.33 1.96967 0.649517 0
M  V30 20123 C 1816.76 0.917056 1.64231 0
M  V30 20124 O 1816.11 -0.120899 1.80896 0
M  V30 20125 C 1816.16 3.35471 1.32256 0
M  V30 20126 O 1815.27 3.32615 2.43806 0
M  V30 20127 H 1814.61 0.641933 0.169758 0
M  V30 20128 H 1817.14 2.04329 -0.105261 0
M  V30 20129 H 1817.15 3.71951 1.6768 0
M  V30 20130 H 1815.82 4.11623 0.594895 0
M  V30 20131 H 1814.4 3.07867 2.10411 0
M  V30 20132 N 1816.58 -0.233136 1.55866 0
M  V30 20133 C 1817.86 -0.982866 1.69113 0
M  V30 20134 C 1818.24 -2.0286 0.584041 0
M  V30 20135 O 1817.59 -2.24781 -0.410606 0
M  V30 20136 C 1817.8 -1.60378 3.09967 0
M  V30 20137 C 1819.15 -2.10044 3.69008 0
M  V30 20138 O 1820.17 -1.70294 3.12855 0
M  V30 20139 O 1819.03 -2.8307 4.67476 0
M  V30 20140 H 1816.12 -0.458373 0.688348 0
M  V30 20141 H 1818.67 -0.225833 1.68191 0
M  V30 20142 H 1817.44 -0.848104 3.81999 0
M  V30 20143 H 1817.07 -2.42666 3.14959 0
M  V30 20144 N 1818.06 -1.49479 -0.499372 0
M  V30 20145 C 1819.31 -1.58295 -1.25003 0
M  V30 20146 C 1819.63 -0.275616 -1.93648 0
M  V30 20147 O 1820.83 -0.24234 -2.70416 0
M  V30 20148 C 1819.29 -2.793 -2.26979 0
M  V30 20149 C 1818.9 -4.16799 -1.64264 0
M  V30 20150 C 1820.64 -2.97447 -3.02862 0
M  V30 20151 C 1818.55 -5.29025 -2.6436 0
M  V30 20152 H 1817.48 -0.589398 -0.470241 0
M  V30 20153 H 1820.13 -1.75868 -0.523698 0
M  V30 20154 H 1818.51 -2.55225 -3.02781 0
M  V30 20155 H 1819.68 -4.51018 -0.944432 0
M  V30 20156 H 1818 -4.04024 -1.00765 0
M  V30 20157 H 1820.6 -3.78461 -3.77719 0
M  V30 20158 H 1820.94 -2.08071 -3.60572 0
M  V30 20159 H 1821.47 -3.2157 -2.34175 0
M  V30 20160 H 1818.21 -6.20466 -2.11429 0
M  V30 20161 H 1817.73 -4.99258 -3.32417 0
M  V30 20162 H 1819.41 -5.58427 -3.26755 0
M  V30 20163 N 1819.54 0.750537 -1.38581 0
M  V30 20164 C 1820.79 1.50512 -1.34272 0
M  V30 20165 C 1821.1 1.95496 0.0636858 0
M  V30 20166 O 1822.31 2.7053 0.22932 0
M  V30 20167 C 1820.77 2.71891 -2.35803 0
M  V30 20168 C 1820.37 2.3392 -3.8208 0
M  V30 20169 C 1822.12 3.4977 -2.40543 0
M  V30 20170 C 1820.02 3.51928 -4.7529 0
M  V30 20171 H 1818.95 0.56515 -0.49912 0
M  V30 20172 H 1821.61 0.820167 -1.64151 0
M  V30 20173 H 1819.99 3.42383 -1.98972 0
M  V30 20174 H 1821.16 1.71075 -4.27867 0
M  V30 20175 H 1819.48 1.69168 -3.80488 0
M  V30 20176 H 1822.07 4.37519 -3.07379 0
M  V30 20177 H 1822.42 3.91141 -1.42527 0
M  V30 20178 H 1822.95 2.86294 -2.76189 0
M  V30 20179 H 1819.69 3.15621 -5.74512 0
M  V30 20180 H 1819.21 4.13807 -4.34194 0
M  V30 20181 H 1820.89 4.1847 -4.93449 0
M  V30 20182 N 1821.02 1.235 0.979051 0
M  V30 20183 C 1822.24 1.09551 1.76106 0
M  V30 20184 C 1822.67 -0.348792 1.84838 0
M  V30 20185 O 1822.03 -1.25231 1.31099 0
M  V30 20186 C 1822.08 1.7272 3.16544 0
M  V30 20187 O 1821.18 0.990263 4.00334 0
M  V30 20188 H 1820.52 0.383909 0.541766 0
M  V30 20189 H 1823.05 1.63581 1.22892 0
M  V30 20190 H 1823.06 1.78014 3.67117 0
M  V30 20191 H 1821.74 2.77813 3.09504 0
M  V30 20192 H 1820.31 1.01436 3.58839 0
M  V30 20193 N 1822.5 -1.17802 1.04693 0
M  V30 20194 C 1823.46 -2.19854 0.647816 0
M  V30 20195 C 1824.46 -1.58013 -0.298081 0
M  V30 20196 O 1825.65 -1.74004 -0.0826309 0
M  V30 20197 C 1822.78 -3.40864 -0.0492661 0
M  V30 20198 H 1823.98 -2.56678 1.55101 0
M  V30 20199 H 1821.53 -1.31796 0.840215 0
M  V30 20200 H 1822.26 -3.0958 -0.965967 0
M  V30 20201 H 1822.05 -3.86995 0.630677 0
M  V30 20202 H 1823.54 -4.16412 -0.31479 0
M  V30 20203 N 1823.98 -0.827251 -1.34143 0
M  V30 20204 C 1824.91 -0.267015 -2.31968 0
M  V30 20205 C 1825.89 0.618906 -1.58441 0
M  V30 20206 O 1827.07 0.544882 -1.86399 0
M  V30 20207 C 1824.2 0.568379 -3.42617 0
M  V30 20208 C 1823.16 -0.220767 -4.2743 0
M  V30 20209 C 1822.48 0.737643 -5.29587 0
M  V30 20210 C 1823.78 -1.43137 -5.02304 0
M  V30 20211 H 1825.48 -1.08436 -2.79073 0
M  V30 20212 H 1823.02 -0.522879 -1.34171 0
M  V30 20213 H 1824.97 0.970525 -4.10072 0
M  V30 20214 H 1823.7 1.41882 -2.94172 0
M  V30 20215 H 1822.36 -0.604333 -3.61585 0
M  V30 20216 H 1822.01 1.58416 -4.77403 0
M  V30 20217 H 1821.71 0.213815 -5.87211 0
M  V30 20218 H 1823.23 1.13755 -5.9991 0
M  V30 20219 H 1824.64 -1.10301 -5.62589 0
M  V30 20220 H 1823.04 -1.89115 -5.69522 0
M  V30 20221 H 1824.11 -2.2073 -4.31748 0
M  V30 20222 N 1825.45 1.46436 -0.582609 0
M  V30 20223 C 1826.87 1.5772 -0.244278 0
M  V30 20224 C 1827.07 1.57772 1.2534 0
M  V30 20225 O 1826.13 1.49463 2.03512 0
M  V30 20226 C 1827.44 2.87122 -0.893398 0
M  V30 20227 C 1828.99 3.00753 -0.866979 0
M  V30 20228 C 1829.46 4.32891 -1.49564 0
M  V30 20229 N 1830.95 4.3959 -1.45998 0
M  V30 20230 C 1831.69 5.40449 -1.91578 0
M  V30 20231 N 1831.18 6.47983 -2.45132 0
M  V30 20232 N 1832.98 5.3165 -1.82496 0
M  V30 20233 H 1825.13 1.44646 -1.55536 0
M  V30 20234 H 1827.39 0.689972 -0.650109 0
M  V30 20235 H 1827.1 2.92894 -1.94695 0
M  V30 20236 H 1826.97 3.75056 -0.40156 0
M  V30 20237 H 1829.36 2.94563 0.177954 0
M  V30 20238 H 1829.44 2.14295 -1.39684 0
M  V30 20239 H 1829.08 4.39839 -2.53977 0
M  V30 20240 H 1829.01 5.18124 -0.94101 0
M  V30 20241 H 1831.5 3.62479 -1.06851 0
M  V30 20242 H 1831.82 7.21154 -2.7777 0
M  V30 20243 H 1830.16 6.48803 -2.49157 0
M  V30 20244 H 1833.35 4.46543 -1.40416 0
M  V30 20245 H 1833.53 6.1011 -2.18334 0
M  V30 20246 N 1826.93 0.320385 1.54309 0
M  V30 20247 C 1827.84 -0.556017 2.27916 0
M  V30 20248 C 1828.86 -1.13192 1.32149 0
M  V30 20249 O 1830.03 -1.15257 1.6516 0
M  V30 20250 C 1827.1 -1.70244 3.02023 0
M  V30 20251 C 1826.16 -1.15866 4.13369 0
M  V30 20252 C 1825.39 -2.25044 4.83933 0
M  V30 20253 O 1825.62 -3.45327 4.53988 0
M  V30 20254 O 1824.55 -1.90642 5.70911 0
M  V30 20255 H 1828.38 0.0416563 3.03671 0
M  V30 20256 H 1825.96 0.0861809 1.49151 0
M  V30 20257 H 1827.84 -2.36995 3.48442 0
M  V30 20258 H 1826.52 -2.28635 2.29146 0
M  V30 20259 H 1825.42 -0.456323 3.71306 0
M  V30 20260 H 1826.76 -0.619916 4.88281 0
M  V30 20261 N 1828.41 -1.57525 0.0484906 0
M  V30 20262 C 1829.37 -2.10275 -0.911987 0
M  V30 20263 C 1830.37 -1.02178 -1.24163 0
M  V30 20264 O 1831.56 -1.28262 -1.17875 0
M  V30 20265 C 1828.69 -2.58475 -2.22269 0
M  V30 20266 H 1829.89 -2.96432 -0.454768 0
M  V30 20267 H 1827.44 -1.55017 -0.19987 0
M  V30 20268 H 1828.18 -1.75704 -2.72578 0
M  V30 20269 H 1827.96 -3.37466 -1.99648 0
M  V30 20270 H 1829.45 -2.99443 -2.91074 0
M  V30 20271 N 1829.89 0.224867 -1.55988 0
M  V30 20272 C 1831.14 0.947776 -1.78045 0
M  V30 20273 C 1831.45 1.85632 -0.616454 0
M  V30 20274 O 1832.66 2.61763 -0.720579 0
M  V30 20275 C 1831.11 1.73546 -3.15293 0
M  V30 20276 C 1830.72 0.873219 -4.39407 0
M  V30 20277 C 1832.46 2.44978 -3.46679 0
M  V30 20278 C 1830.37 1.65806 -5.67682 0
M  V30 20279 H 1829.3 0.357623 -0.663793 0
M  V30 20280 H 1831.95 0.201754 -1.82388 0
M  V30 20281 H 1830.33 2.52426 -3.05118 0
M  V30 20282 H 1831.51 0.125187 -4.6063 0
M  V30 20283 H 1829.82 0.271179 -4.15516 0
M  V30 20284 H 1832.42 3.04192 -4.3974 0
M  V30 20285 H 1832.76 3.17699 -2.69023 0
M  V30 20286 H 1833.3 1.7309 -3.58168 0
M  V30 20287 H 1830.03 0.974191 -6.4822 0
M  V30 20288 H 1829.55 2.38079 -5.50526 0
M  V30 20289 H 1831.23 2.21959 -6.07736 0
M  V30 20290 N 1831.37 1.49742 0.491438 0
M  V30 20291 C 1832.31 1.67115 1.59189 0
M  V30 20292 C 1833.28 0.512523 1.57995 0
M  V30 20293 O 1834.47 0.740693 1.75836 0
M  V30 20294 C 1831.61 1.75258 2.97286 0
M  V30 20295 C 1830.72 3.02488 3.08424 0
M  V30 20296 C 1829.86 3.0155 4.37311 0
M  V30 20297 C 1828.89 4.2332 4.42116 0
M  V30 20298 N 1828.03 4.20238 5.62445 0
M  V30 20299 H 1832.87 2.61073 1.43683 0
M  V30 20300 H 1830.41 1.29435 0.69892 0
M  V30 20301 H 1832.37 1.77959 3.77341 0
M  V30 20302 H 1831 0.847568 3.11474 0
M  V30 20303 H 1830.05 3.09353 2.21371 0
M  V30 20304 H 1831.36 3.92479 3.07834 0
M  V30 20305 H 1830.51 3.02868 5.25695 0
M  V30 20306 H 1829.25 2.09354 4.4048 0
M  V30 20307 H 1828.26 4.22236 3.52132 0
M  V30 20308 H 1829.48 5.1672 4.40656 0
M  V30 20309 H 1827.43 3.30884 5.66438 0
M  V30 20310 H 1827.35 5.03974 5.63512 0
M  V30 20311 H 1828.61 4.25672 6.53011 0
M  V30 20312 N 1832.84 -0.743177 1.38977 0
M  V30 20313 C 1834.09 -1.49798 1.35069 0
M  V30 20314 C 1834.41 -1.95527 -0.0533172 0
M  V30 20315 O 1835.61 -2.70648 -0.21497 0
M  V30 20316 C 1834.07 -2.70637 2.37242 0
M  V30 20317 C 1833.68 -2.3189 3.83316 0
M  V30 20318 C 1835.42 -3.4849 2.42395 0
M  V30 20319 C 1833.33 -3.49403 4.77149 0
M  V30 20320 H 1832.26 -0.562495 0.50211 0
M  V30 20321 H 1834.91 -0.81145 1.64584 0
M  V30 20322 H 1833.29 -3.41323 2.00785 0
M  V30 20323 H 1834.46 -1.68803 4.28768 0
M  V30 20324 H 1832.78 -1.67148 3.8138 0
M  V30 20325 H 1835.38 -4.35882 3.09694 0
M  V30 20326 H 1835.72 -3.9038 1.446 0
M  V30 20327 H 1836.25 -2.84825 2.77704 0
M  V30 20328 H 1832.99 -3.1257 5.76177 0
M  V30 20329 H 1832.51 -4.11498 4.36382 0
M  V30 20330 H 1834.19 -4.15847 4.95661 0
M  V30 20331 N 1834.32 -1.24018 -0.972487 0
M  V30 20332 C 1835.25 -1.0529 -2.08414 0
M  V30 20333 C 1836.23 0.0326663 -1.70069 0
M  V30 20334 O 1837.42 -0.133494 -1.93741 0
M  V30 20335 C 1834.55 -0.651796 -3.41129 0
M  V30 20336 C 1833.5 -1.68559 -3.9341 0
M  V30 20337 C 1832.83 -1.1397 -5.22413 0
M  V30 20338 C 1834.13 -3.08046 -4.21788 0
M  V30 20339 H 1835.82 -1.98272 -2.2434 0
M  V30 20340 H 1833.37 -0.954694 -1.07804 0
M  V30 20341 H 1835.32 -0.507792 -4.18329 0
M  V30 20342 H 1834.05 0.313722 -3.2509 0
M  V30 20343 H 1832.7 -1.81773 -3.18362 0
M  V30 20344 H 1832.35 -0.164928 -5.0273 0
M  V30 20345 H 1832.05 -1.83051 -5.5836 0
M  V30 20346 H 1833.58 -1.00771 -6.02227 0
M  V30 20347 H 1834.99 -2.98088 -4.8971 0
M  V30 20348 H 1833.39 -3.74436 -4.68954 0
M  V30 20349 H 1834.46 -3.56444 -3.28749 0
M  V30 20350 N 1835.8 1.17245 -1.05316 0
M  V30 20351 C 1836.75 2.21304 -0.655223 0
M  V30 20352 C 1837.72 1.62515 0.343244 0
M  V30 20353 O 1838.9 1.89355 0.234375 0
M  V30 20354 C 1836.04 3.4508 -0.037446 0
M  V30 20355 C 1835.16 4.18155 -1.0849 0
M  V30 20356 C 1834.29 5.29422 -0.434307 0
M  V30 20357 C 1833.33 5.94286 -1.46598 0
M  V30 20358 N 1832.47 6.97063 -0.839461 0
M  V30 20359 H 1837.31 2.54696 -1.54705 0
M  V30 20360 H 1834.84 1.25109 -0.773697 0
M  V30 20361 H 1836.8 4.15827 0.338182 0
M  V30 20362 H 1835.43 3.12268 0.817837 0
M  V30 20363 H 1834.48 3.46111 -1.57834 0
M  V30 20364 H 1835.8 4.62502 -1.86798 0
M  V30 20365 H 1834.95 6.067 -0.00516288 0
M  V30 20366 H 1833.69 4.86212 0.380745 0
M  V30 20367 H 1832.69 5.15737 -1.90513 0
M  V30 20368 H 1833.92 6.39576 -2.28295 0
M  V30 20369 H 1831.86 6.55985 -0.0449421 0
M  V30 20370 H 1831.78 7.39728 -1.56006 0
M  V30 20371 H 1833.05 7.78285 -0.435132 0
M  V30 20372 N 1837.28 0.834353 1.33702 0
M  V30 20373 C 1838.51 0.440589 2.01847 0
M  V30 20374 C 1838.92 -0.961513 1.62947 0
M  V30 20375 O 1838.26 -1.63556 0.836377 0
M  V30 20376 C 1838.32 0.476396 3.5633 0
M  V30 20377 C 1837.99 1.83382 4.18593 0
M  V30 20378 C 1838.98 2.79638 4.3829 0
M  V30 20379 C 1836.67 2.12543 4.55116 0
M  V30 20380 C 1838.66 4.0322 4.93652 0
M  V30 20381 C 1836.35 3.36382 5.10187 0
M  V30 20382 C 1837.35 4.31537 5.294 0
M  V30 20383 O 1837.03 5.53187 5.833 0
M  V30 20384 H 1836.77 0.173726 0.653296 0
M  V30 20385 H 1839.32 1.1272 1.71707 0
M  V30 20386 H 1837.55 -0.266969 3.85777 0
M  V30 20387 H 1839.24 0.101088 4.05774 0
M  V30 20388 H 1840.01 2.58409 4.10427 0
M  V30 20389 H 1835.88 1.39274 4.39459 0
M  V30 20390 H 1839.43 4.77502 5.08564 0
M  V30 20391 H 1835.33 3.5747 5.3748 0
M  V30 20392 H 1836.09 5.54864 6.01721 0
M  V30 20393 N 1838.76 -1.46125 0.590367 0
M  V30 20394 C 1839.99 -2.06427 0.0846072 0
M  V30 20395 C 1840.39 -1.43847 -1.22901 0
M  V30 20396 O 1839.74 -0.540694 -1.75562 0
M  V30 20397 C 1839.8 -3.59197 -0.147484 0
M  V30 20398 C 1839.46 -4.44014 1.0817 0
M  V30 20399 C 1840.46 -4.80073 1.99564 0
M  V30 20400 C 1838.15 -4.85033 1.3057 0
M  V30 20401 C 1840.14 -5.55987 3.117 0
M  V30 20402 C 1837.83 -5.60705 2.43009 0
M  V30 20403 C 1838.82 -5.96097 3.33403 0
M  V30 20404 O 1838.51 -6.70237 4.43889 0
M  V30 20405 H 1838.24 -0.673504 0.0580399 0
M  V30 20406 H 1840.8 -1.88624 0.81302 0
M  V30 20407 H 1839.03 -3.75336 -0.930597 0
M  V30 20408 H 1840.72 -4.014 -0.602702 0
M  V30 20409 H 1841.48 -4.48955 1.83478 0
M  V30 20410 H 1837.36 -4.56931 0.611158 0
M  V30 20411 H 1840.91 -5.8353 3.8228 0
M  V30 20412 H 1836.8 -5.91236 2.59056 0
M  V30 20413 H 1837.57 -6.8867 4.42353 0
M  V30 20414 N 1840.23 -0.328564 -1.54137 0
M  V30 20415 C 1841.47 0.273037 -2.02568 0
M  V30 20416 C 1841.84 1.48953 -1.21148 0
M  V30 20417 O 1843.04 2.16433 -1.59406 0
M  V30 20418 C 1841.31 0.594017 -3.52429 0
M  V30 20419 S 1842.87 1.17456 -4.22788 0
M  V30 20420 H 1839.69 0.0822771 -0.706223 0
M  V30 20421 H 1842.29 -0.462847 -1.89942 0
M  V30 20422 H 1840.99 -0.299408 -4.09306 0
M  V30 20423 H 1840.52 1.35997 -3.69146 0
M  V30 20424 H 1842.54 2.46113 -4.30863 0
M  V30 20425 N 1841.71 1.57497 -0.0568439 0
M  V30 20426 C 1842.66 2.1305 0.933398 0
M  V30 20427 C 1843.65 1.06369 1.31841 0
M  V30 20428 O 1844.86 1.2477 1.2974 0
M  V30 20429 H 1841.24 0.681037 0.318893 0
M  V30 20430 H 1843.21 2.95141 0.439796 0
M  V30 20431 C 1841.96 2.69502 2.1969 0
M  V30 20432 H 1841.28 3.51255 1.90945 0
M  V30 20433 H 1842.72 3.11986 2.87124 0
M  V30 20434 C 1841.18 1.63547 2.94541 0
M  V30 20435 O 1841.71 1.0516 3.87691 0
M  V30 20436 N 1839.91 1.34933 2.57374 0
M  V30 20437 H 1839.46 1.82601 1.81699 0
M  V30 20438 H 1839.42 0.642701 3.07761 0
M  V30 20439 N 1843.19 -0.216591 1.56105 0
M  V30 20440 C 1844.14 -1.28803 1.93681 0
M  V30 20441 C 1845.13 -1.4826 0.819464 0
M  V30 20442 O 1846.34 -1.49376 1.00433 0
M  V30 20443 H 1842.71 -0.431947 0.61557 0
M  V30 20444 H 1844.68 -0.943954 2.83076 0
M  V30 20445 C 1843.43 -2.63017 2.27414 0
M  V30 20446 H 1842.76 -2.48855 3.12908 0
M  V30 20447 H 1844.2 -3.36787 2.57587 0
M  V30 20448 C 1842.66 -3.18401 1.10103 0
M  V30 20449 O 1843.19 -4.00041 0.364758 0
M  V30 20450 N 1841.39 -2.76843 0.883536 0
M  V30 20451 H 1840.94 -2.1056 1.48399 0
M  V30 20452 H 1840.9 -3.1424 0.100368 0
M  V30 20453 N 1844.67 -1.5 -0.48349 0
M  V30 20454 C 1845.58 -1.70722 -1.60907 0
M  V30 20455 C 1846.59 -0.590075 -1.63689 0
M  V30 20456 O 1847.77 -0.866915 -1.81787 0
M  V30 20457 C 1844.84 -1.78544 -2.97192 0
M  V30 20458 C 1843.9 -3.02218 -3.04898 0
M  V30 20459 C 1843.13 -3.09658 -4.34681 0
M  V30 20460 O 1843.35 -2.24216 -5.24484 0
M  V30 20461 O 1842.29 -4.02278 -4.47723 0
M  V30 20462 H 1846.11 -2.66111 -1.4635 0
M  V30 20463 H 1843.7 -1.33949 -0.661666 0
M  V30 20464 H 1845.58 -1.85941 -3.78159 0
M  V30 20465 H 1844.25 -0.863364 -3.11974 0
M  V30 20466 H 1843.16 -3.00329 -2.23054 0
M  V30 20467 H 1844.49 -3.93964 -2.95048 0
M  V30 20468 N 1846.15 0.735796 -1.39369 0
M  V30 20469 C 1847.08 1.85854 -1.32414 0
M  V30 20470 C 1848.06 1.61391 -0.197947 0
M  V30 20471 O 1849.24 1.84666 -0.378263 0
M  V30 20472 C 1846.37 3.2182 -1.05592 0
M  V30 20473 C 1845.41 3.65144 -2.20391 0
M  V30 20474 S 1846.25 3.74604 -3.82664 0
M  V30 20475 C 1847.4 5.13361 -3.58066 0
M  V30 20476 H 1847.64 1.9147 -2.27435 0
M  V30 20477 H 1845.17 0.900577 -1.25415 0
M  V30 20478 H 1847.13 4.00332 -0.908013 0
M  V30 20479 H 1845.79 3.13861 -0.122598 0
M  V30 20480 H 1844.98 4.63813 -1.97214 0
M  V30 20481 H 1844.58 2.93835 -2.3138 0
M  V30 20482 H 1846.88 5.9967 -3.15282 0
M  V30 20483 H 1847.82 5.41566 -4.56193 0
M  V30 20484 H 1848.23 4.83 -2.92184 0
M  V30 20485 N 1847.63 1.24532 0.965897 0
M  V30 20486 C 1848.57 1.03929 2.06076 0
M  V30 20487 C 1849.54 -0.0479997 1.66031 0
M  V30 20488 O 1850.73 0.106979 1.905 0
M  V30 20489 C 1847.87 0.652084 3.38883 0
M  V30 20490 C 1846.98 1.81304 3.92113 0
M  V30 20491 C 1846.12 1.37125 5.13196 0
M  V30 20492 C 1845.15 2.50204 5.58627 0
M  V30 20493 N 1844.29 2.0688 6.70929 0
M  V30 20494 H 1849.13 1.97636 2.23033 0
M  V30 20495 H 1846.67 0.984356 1.09311 0
M  V30 20496 H 1848.63 0.408608 4.15194 0
M  V30 20497 H 1847.26 -0.247995 3.21846 0
M  V30 20498 H 1846.31 2.17013 3.12425 0
M  V30 20499 H 1847.62 2.66264 4.21788 0
M  V30 20500 H 1846.77 1.08676 5.96887 0
M  V30 20501 H 1845.51 0.492215 4.8521 0
M  V30 20502 H 1844.52 2.7941 4.73508 0
M  V30 20503 H 1845.74 3.38667 5.88627 0
M  V30 20504 H 1843.69 1.21377 6.44673 0
M  V30 20505 H 1843.61 2.85392 7.00062 0
M  V30 20506 H 1844.87 1.81575 7.58057 0
M  V30 20507 N 1849.1 -1.16685 1.05936 0
M  V30 20508 C 1850.01 -2.24591 0.677931 0
M  V30 20509 C 1851.03 -1.71317 -0.304397 0
M  V30 20510 O 1852.21 -2.00806 -0.154615 0
M  V30 20511 C 1849.27 -3.46636 0.0664037 0
M  V30 20512 C 1848.33 -4.14964 1.10014 0
M  V30 20513 C 1847.56 -5.31183 0.517697 0
M  V30 20514 O 1847.79 -5.66444 -0.670637 0
M  V30 20515 O 1846.72 -5.88657 1.25563 0
M  V30 20516 H 1850.55 -2.5952 1.57743 0
M  V30 20517 H 1848.13 -1.2413 0.831395 0
M  V30 20518 H 1850.01 -4.20514 -0.273069 0
M  V30 20519 H 1848.69 -3.13489 -0.806634 0
M  V30 20520 H 1847.6 -3.43072 1.49173 0
M  V30 20521 H 1848.93 -4.52158 1.94458 0
M  V30 20522 N 1850.58 -0.841432 -1.33258 0
M  V30 20523 C 1851.53 -0.265077 -2.31085 0
M  V30 20524 C 1852.52 0.604339 -1.58253 0
M  V30 20525 O 1853.73 0.493615 -1.731 0
M  V30 20526 H 1850.1 -0.0669974 -0.74901 0
M  V30 20527 H 1852.08 -1.10464 -2.77201 0
M  V30 20528 C 1850.82 0.542926 -3.43435 0
M  V30 20529 H 1850.15 -0.116767 -3.99629 0
M  V30 20530 H 1851.59 0.912004 -4.14075 0
M  V30 20531 C 1850.05 1.72284 -2.89517 0
M  V30 20532 O 1850.58 2.82161 -2.85916 0
M  V30 20533 N 1848.78 1.54557 -2.4609 0
M  V30 20534 H 1848.33 0.651752 -2.49219 0
M  V30 20535 H 1848.29 2.33651 -2.10367 0
M  V30 20536 N 1852.06 1.4581 -0.598108 0
M  V30 20537 C 1852.97 2.34249 0.12834 0
M  V30 20538 C 1853.99 1.50677 0.870202 0
M  V30 20539 O 1855.16 1.83505 0.829924 0
M  V30 20540 C 1852.23 3.28135 1.1193 0
M  V30 20541 C 1851.29 4.27611 0.380432 0
M  V30 20542 C 1850.52 5.17012 1.32419 0
M  V30 20543 O 1850.74 5.09648 2.56154 0
M  V30 20544 O 1849.68 5.962 0.826397 0
M  V30 20545 H 1853.5 2.9775 -0.598199 0
M  V30 20546 H 1851.09 1.45037 -0.358416 0
M  V30 20547 H 1852.97 3.86014 1.6903 0
M  V30 20548 H 1851.65 2.6721 1.82703 0
M  V30 20549 H 1850.55 3.73375 -0.23279 0
M  V30 20550 H 1851.89 4.91365 -0.286627 0
M  V30 20551 N 1853.54 0.336733 1.53961 0
M  V30 20552 C 1854.47 -0.515664 2.27735 0
M  V30 20553 C 1855.45 -1.10835 1.29033 0
M  V30 20554 O 1856.63 -1.13102 1.57866 0
M  V30 20555 C 1853.76 -1.67015 3.04505 0
M  V30 20556 C 1852.72 -1.20613 4.10654 0
M  V30 20557 C 1852.04 -2.44861 4.75339 0
M  V30 20558 C 1853.34 -0.311507 5.2137 0
M  V30 20559 H 1855.04 0.0997513 2.99234 0
M  V30 20560 H 1852.58 0.0494157 1.43915 0
M  V30 20561 H 1854.54 -2.27286 3.54851 0
M  V30 20562 H 1853.26 -2.31236 2.30646 0
M  V30 20563 H 1851.92 -0.62628 3.61211 0
M  V30 20564 H 1851.57 -3.07474 3.98081 0
M  V30 20565 H 1851.27 -2.14498 5.47051 0
M  V30 20566 H 1852.79 -3.0587 5.28466 0
M  V30 20567 H 1854.21 -0.820868 5.67393 0
M  V30 20568 H 1852.6 -0.100073 6.00017 0
M  V30 20569 H 1853.67 0.654181 4.80467 0
M  V30 20570 N 1855.02 -1.57465 0.0651956 0
M  V30 20571 C 1856.24 -1.97975 -0.618099 0
M  V30 20572 C 1856.67 -0.943068 -1.62751 0
M  V30 20573 O 1856.02 0.0921045 -1.81066 0
M  V30 20574 C 1856.07 -3.37533 -1.26902 0
M  V30 20575 O 1855.18 -3.36451 -2.38483 0
M  V30 20576 H 1854.52 -0.644553 -0.159524 0
M  V30 20577 H 1857.05 -2.04136 0.137754 0
M  V30 20578 H 1857.06 -3.74571 -1.61742 0
M  V30 20579 H 1855.73 -4.12518 -0.529334 0
M  V30 20580 H 1854.31 -3.11175 -2.05486 0
M  V30 20581 N 1856.49 0.20831 -1.56217 0
M  V30 20582 C 1857.74 0.928839 -1.7904 0
M  V30 20583 C 1858.06 1.84968 -0.636108 0
M  V30 20584 O 1859.26 2.60984 -0.748302 0
M  V30 20585 C 1857.72 1.70192 -3.17116 0
M  V30 20586 C 1857.33 0.826564 -4.40309 0
M  V30 20587 C 1859.07 2.41287 -3.49257 0
M  V30 20588 C 1856.98 1.59775 -5.69408 0
M  V30 20589 H 1855.91 0.350563 -0.667549 0
M  V30 20590 H 1858.56 0.182398 -1.82591 0
M  V30 20591 H 1856.94 2.49176 -3.07778 0
M  V30 20592 H 1858.11 0.076324 -4.60737 0
M  V30 20593 H 1856.43 0.227092 -4.1578 0
M  V30 20594 H 1859.03 2.99511 -4.42942 0
M  V30 20595 H 1859.37 3.14827 -2.72377 0
M  V30 20596 H 1859.9 1.69282 -3.59984 0
M  V30 20597 H 1856.64 0.905384 -6.49217 0
M  V30 20598 H 1856.16 2.32227 -5.5302 0
M  V30 20599 H 1857.84 2.155 -6.10056 0
M  V30 20600 N 1857.97 1.50255 0.475528 0
M  V30 20601 C 1858.93 1.68248 1.55645 0
M  V30 20602 C 1859.93 0.553326 1.5098 0
M  V30 20603 O 1861.12 0.820274 1.53679 0
M  V30 20604 C 1858.26 1.70358 2.95281 0
M  V30 20605 H 1859.45 2.64681 1.4101 0
M  V30 20606 H 1857 1.39669 0.701594 0
M  V30 20607 H 1857.74 0.75602 3.15365 0
M  V30 20608 H 1857.52 2.52384 3.00074 0
M  V30 20609 H 1859.01 1.86249 3.73766 0
M  V30 20610 N 1859.45 -0.728395 1.39758 0
M  V30 20611 C 1860.4 -1.84245 1.39005 0
M  V30 20612 C 1861.37 -1.64226 0.248783 0
M  V30 20613 O 1862.55 -1.8554 0.444904 0
M  V30 20614 C 1859.69 -3.21828 1.24583 0
M  V30 20615 C 1858.8 -3.53507 2.48308 0
M  V30 20616 C 1857.94 -4.80526 2.26425 0
M  V30 20617 C 1856.98 -5.05069 3.45792 0
M  V30 20618 N 1856.12 -6.23295 3.23184 0
M  V30 20619 H 1860.96 -1.84224 2.34234 0
M  V30 20620 H 1858.49 -0.900094 1.16347 0
M  V30 20621 H 1860.45 -4.01257 1.14231 0
M  V30 20622 H 1859.08 -3.21111 0.329793 0
M  V30 20623 H 1858.13 -2.68729 2.69238 0
M  V30 20624 H 1859.44 -3.67558 3.37198 0
M  V30 20625 H 1858.6 -5.67949 2.13353 0
M  V30 20626 H 1857.34 -4.6866 1.3494 0
M  V30 20627 H 1856.34 -4.16106 3.59355 0
M  V30 20628 H 1857.57 -5.18815 4.38186 0
M  V30 20629 H 1855.51 -6.12704 2.3437 0
M  V30 20630 H 1855.43 -6.37964 4.05633 0
M  V30 20631 H 1856.7 -7.13539 3.13819 0
M  V30 20632 N 1860.93 -1.25042 -0.959279 0
M  V30 20633 C 1862.15 -1.12339 -1.74341 0
M  V30 20634 C 1862.58 0.319342 -1.85369 0
M  V30 20635 O 1861.94 1.23129 -1.33075 0
M  V30 20636 C 1861.98 -1.77734 -3.13756 0
M  V30 20637 O 1861.09 -1.05383 -3.98708 0
M  V30 20638 H 1860.43 -0.392479 -0.535589 0
M  V30 20639 H 1862.96 -1.65516 -1.20274 0
M  V30 20640 H 1862.97 -1.83832 -3.64239 0
M  V30 20641 H 1861.64 -2.82702 -3.05045 0
M  V30 20642 H 1860.22 -1.07132 -3.57179 0
M  V30 20643 N 1862.41 1.16121 -1.06553 0
M  V30 20644 C 1863.63 1.91152 -0.804706 0
M  V30 20645 C 1864.06 1.77045 0.635338 0
M  V30 20646 O 1863.41 1.09757 1.44302 0
M  V30 20647 C 1863.46 3.39782 -1.20751 0
M  V30 20648 O 1862.57 4.1093 -0.347889 0
M  V30 20649 H 1861.91 0.595433 -0.293863 0
M  V30 20650 H 1864.44 1.47104 -1.42203 0
M  V30 20651 H 1864.45 3.90558 -1.1802 0
M  V30 20652 H 1863.12 3.49369 -2.25642 0
M  V30 20653 H 1861.7 3.70331 -0.436993 0
M  V30 20654 N 1863.88 0.848487 1.3281 0
M  V30 20655 C 1864.85 0.293744 2.2731 0
M  V30 20656 C 1865.85 -0.543043 1.51353 0
M  V30 20657 O 1867.04 -0.355443 1.70535 0
M  V30 20658 C 1864.17 -0.585094 3.35841 0
M  V30 20659 H 1865.36 1.12773 2.77889 0
M  V30 20660 H 1862.92 0.622329 1.43376 0
M  V30 20661 H 1863.65 -1.44114 2.9052 0
M  V30 20662 H 1863.44 0.0137777 3.92098 0
M  V30 20663 H 1864.93 -0.966203 4.06269 0
M  V30 20664 N 1865.36 -1.4549 0.605832 0
M  V30 20665 C 1866.59 -2.06325 0.106497 0
M  V30 20666 C 1867 -1.45142 -1.21369 0
M  V30 20667 O 1866.34 -0.559284 -1.74979 0
M  V30 20668 C 1866.41 -3.59334 -0.109378 0
M  V30 20669 C 1866.07 -4.42842 1.12873 0
M  V30 20670 C 1867.07 -4.77929 2.04645 0
M  V30 20671 C 1864.75 -4.83621 1.35707 0
M  V30 20672 C 1866.75 -5.5265 3.1758 0
M  V30 20673 C 1864.43 -5.58096 2.48943 0
M  V30 20674 C 1865.43 -5.92527 3.39707 0
M  V30 20675 O 1865.12 -6.65492 4.50973 0
M  V30 20676 H 1864.85 -0.67285 0.06518 0
M  V30 20677 H 1867.4 -1.87751 0.83298 0
M  V30 20678 H 1865.63 -3.76301 -0.890735 0
M  V30 20679 H 1867.32 -4.02017 -0.560094 0
M  V30 20680 H 1868.09 -4.46984 1.88229 0
M  V30 20681 H 1863.97 -4.56257 0.659587 0
M  V30 20682 H 1867.51 -5.79443 3.88448 0
M  V30 20683 H 1863.41 -5.88455 2.65312 0
M  V30 20684 H 1864.18 -6.8394 4.49632 0
M  V30 20685 N 1866.84 -0.344893 -1.5378 0
M  V30 20686 C 1868.07 0.252193 -2.05055 0
M  V30 20687 C 1868.48 1.44657 -1.21947 0
M  V30 20688 O 1867.82 1.82018 -0.248012 0
M  V30 20689 C 1867.88 0.729619 -3.52018 0
M  V30 20690 C 1867.55 -0.345284 -4.55694 0
M  V30 20691 C 1868.54 -1.18843 -5.06135 0
M  V30 20692 C 1866.23 -0.499596 -4.99809 0
M  V30 20693 C 1868.22 -2.17141 -5.99273 0
M  V30 20694 C 1865.91 -1.48598 -5.92758 0
M  V30 20695 C 1866.91 -2.32033 -6.42378 0
M  V30 20696 O 1866.6 -3.28992 -7.33498 0
M  V30 20697 H 1866.33 0.0522523 -0.673978 0
M  V30 20698 H 1868.88 -0.495473 -1.99334 0
M  V30 20699 H 1867.11 1.52855 -3.55207 0
M  V30 20700 H 1868.8 1.2474 -3.86257 0
M  V30 20701 H 1869.57 -1.0803 -4.72816 0
M  V30 20702 H 1865.45 0.14 -4.60787 0
M  V30 20703 H 1868.99 -2.82303 -6.37927 0
M  V30 20704 H 1864.89 -1.59466 -6.25493 0
M  V30 20705 H 1865.66 -3.24479 -7.51436 0
M  V30 20706 N 1868.32 1.57428 -0.0735454 0
M  V30 20707 C 1869.54 1.98301 0.607591 0
M  V30 20708 C 1869.97 0.951686 1.62248 0
M  V30 20709 O 1869.33 -0.0825008 1.81112 0
M  V30 20710 C 1869.37 3.38201 1.2511 0
M  V30 20711 O 1868.48 3.37711 2.36696 0
M  V30 20712 H 1867.82 0.64539 0.156104 0
M  V30 20713 H 1870.35 2.0406 -0.148578 0
M  V30 20714 H 1870.36 3.75424 1.59753 0
M  V30 20715 H 1869.03 4.12793 0.50745 0
M  V30 20716 H 1867.61 3.1226 2.03833 0
M  V30 20717 N 1869.8 -0.200022 1.56326 0
M  V30 20718 C 1871.05 -0.919331 1.7953 0
M  V30 20719 C 1871.36 -1.84628 0.645908 0
M  V30 20720 O 1872.56 -2.60584 0.762132 0
M  V30 20721 C 1871.02 -1.68508 3.18014 0
M  V30 20722 C 1870.63 -0.803202 4.40741 0
M  V30 20723 C 1872.37 -2.39432 3.50532 0
M  V30 20724 C 1870.28 -1.56753 5.70248 0
M  V30 20725 H 1869.21 -0.347018 0.669399 0
M  V30 20726 H 1871.86 -0.172713 1.82685 0
M  V30 20727 H 1870.24 -2.4754 3.09095 0
M  V30 20728 H 1871.42 -0.0518889 4.60771 0
M  V30 20729 H 1869.73 -0.205039 4.15895 0
M  V30 20730 H 1872.33 -2.97158 4.44524 0
M  V30 20731 H 1872.67 -3.13378 2.74043 0
M  V30 20732 H 1873.2 -1.6737 3.60877 0
M  V30 20733 H 1869.94 -0.870942 6.49688 0
M  V30 20734 H 1869.46 -2.29291 5.54243 0
M  V30 20735 H 1871.14 -2.12262 6.11191 0
M  V30 20736 N 1871.27 -1.50505 -0.467553 0
M  V30 20737 C 1872.52 -1.61671 -1.21938 0
M  V30 20738 C 1872.85 -0.318688 -1.91871 0
M  V30 20739 O 1872.1 0.695639 -1.82919 0
M  V30 20740 C 1872.4 -2.74913 -2.28381 0
M  V30 20741 C 1872.07 -4.1527 -1.75674 0
M  V30 20742 C 1870.73 -4.5346 -1.6102 0
M  V30 20743 C 1873.08 -5.02978 -1.3661 0
M  V30 20744 C 1870.41 -5.77094 -1.05732 0
M  V30 20745 C 1872.76 -6.27163 -0.827621 0
M  V30 20746 C 1871.43 -6.64152 -0.667746 0
M  V30 20747 H 1870.7 -0.591596 -0.446201 0
M  V30 20748 H 1873.34 -1.84449 -0.514858 0
M  V30 20749 H 1871.65 -2.46237 -3.04754 0
M  V30 20750 H 1873.35 -2.80756 -2.86317 0
M  V30 20751 H 1869.94 -3.85144 -1.88047 0
M  V30 20752 H 1874.12 -4.74103 -1.46764 0
M  V30 20753 H 1869.38 -6.04424 -0.920946 0
M  V30 20754 H 1873.55 -6.94484 -0.516286 0
M  V30 20755 H 1871.18 -7.5983 -0.237178 0
M  V30 20756 N 1872.75 0.720973 -1.40142 0
M  V30 20757 C 1873.7 1.8564 -1.40145 0
M  V30 20758 C 1874.69 1.67025 -0.282667 0
M  V30 20759 O 1875.9 1.74195 -0.453429 0
M  V30 20760 H 1872.28 0.611316 -0.437947 0
M  V30 20761 H 1874.25 1.82753 -2.35889 0
M  V30 20762 C 1873 3.23455 -1.27563 0
M  V30 20763 H 1872.32 3.38382 -2.12926 0
M  V30 20764 H 1873.76 4.03052 -1.31623 0
M  V30 20765 C 1872.22 3.36897 0.0146614 0
M  V30 20766 O 1872.75 3.89572 0.979616 0
M  V30 20767 N 1870.95 2.90483 0.0823795 0
M  V30 20768 H 1870.5 2.47805 -0.70359 0
M  V30 20769 H 1870.46 2.99856 0.945177 0
M  V30 20770 N 1874.23 1.25549 0.952634 0
M  V30 20771 C 1875.18 1.05902 2.07093 0
M  V30 20772 C 1876.17 -0.0106646 1.69397 0
M  V30 20773 O 1877.38 0.14511 1.79414 0
M  V30 20774 H 1873.75 0.325539 0.677885 0
M  V30 20775 H 1875.72 2.00701 2.2082 0
M  V30 20776 C 1874.47 0.696581 3.40651 0
M  V30 20777 H 1873.8 1.5115 3.70127 0
M  V30 20778 H 1875.24 0.598818 4.1975 0
M  V30 20779 C 1873.7 -0.5975 3.31559 0
M  V30 20780 O 1874.23 -1.63906 3.66739 0
M  V30 20781 N 1872.43 -0.583869 2.84674 0
M  V30 20782 H 1871.98 0.264102 2.56243 0
M  V30 20783 H 1871.94 -1.44987 2.78973 0
M  V30 20784 N 1875.71 -1.15554 1.07168 0
M  V30 20785 C 1876.64 -2.19841 0.648285 0
M  V30 20786 C 1877.65 -1.60045 -0.298247 0
M  V30 20787 O 1878.84 -1.78284 -0.0878565 0
M  V30 20788 C 1875.94 -3.38831 -0.068586 0
M  V30 20789 C 1875.12 -4.28173 0.89366 0
M  V30 20790 C 1874.17 -5.25763 0.214424 0
M  V30 20791 O 1873.2 -5.62744 0.854883 0
M  V30 20792 N 1874.4 -5.71096 -1.04063 0
M  V30 20793 H 1877.17 -2.56784 1.54539 0
M  V30 20794 H 1874.73 -1.30652 0.956127 0
M  V30 20795 H 1876.72 -4.01167 -0.533614 0
M  V30 20796 H 1875.29 -3.00319 -0.86761 0
M  V30 20797 H 1874.51 -3.62965 1.53785 0
M  V30 20798 H 1875.8 -4.84739 1.54613 0
M  V30 20799 H 1875.2 -5.4316 -1.58095 0
M  V30 20800 H 1873.75 -6.35481 -1.44937 0
M  V30 20801 N 1877.19 -0.855519 -1.32358 0
M  V30 20802 C 1878.1 -0.303696 -2.32626 0
M  V30 20803 C 1879.11 0.578927 -1.64087 0
M  V30 20804 O 1880.29 0.479091 -1.95619 0
M  V30 20805 C 1877.35 0.498152 -3.43103 0
M  V30 20806 C 1876.42 -0.410714 -4.27331 0
M  V30 20807 C 1875.65 0.35296 -5.32532 0
M  V30 20808 O 1875.87 1.58282 -5.47999 0
M  V30 20809 O 1874.81 -0.281689 -6.0124 0
M  V30 20810 H 1878.63 -1.13443 -2.81717 0
M  V30 20811 H 1876.22 -0.618479 -1.35997 0
M  V30 20812 H 1878.1 0.95324 -4.10477 0
M  V30 20813 H 1876.77 1.30567 -2.96199 0
M  V30 20814 H 1875.68 -0.913997 -3.62763 0
M  V30 20815 H 1877.01 -1.18344 -4.77761 0
M  V30 20816 N 1878.67 1.45167 -0.61354 0
M  V30 20817 C 1879.89 2.06565 -0.117608 0
M  V30 20818 C 1880.31 1.45716 1.20051 0
M  V30 20819 O 1879.67 0.573512 1.73254 0
M  V30 20820 C 1879.72 3.61493 0.0221474 0
M  V30 20821 O 1879.44 4.20072 -1.24383 0
M  V30 20822 C 1880.94 4.39889 0.548841 0
M  V30 20823 H 1878.16 0.667172 -0.0715756 0
M  V30 20824 H 1880.7 1.86318 -0.84296 0
M  V30 20825 H 1878.86 3.81063 0.697854 0
M  V30 20826 H 1879.27 5.13317 -1.07733 0
M  V30 20827 H 1880.75 5.48776 0.595696 0
M  V30 20828 H 1881.22 4.1009 1.57234 0
M  V30 20829 H 1881.83 4.25198 -0.0930203 0
M  V30 20830 N 1880.14 0.353044 1.53595 0
M  V30 20831 C 1881.39 -0.240904 2.01364 0
M  V30 20832 C 1881.72 -1.49438 1.24023 0
M  V30 20833 O 1881 -1.91672 0.330451 0
M  V30 20834 C 1881.28 -0.545497 3.55944 0
M  V30 20835 C 1881.13 0.720742 4.43988 0
M  V30 20836 C 1882.45 -1.35124 4.18843 0
M  V30 20837 H 1879.57 -0.0860838 0.731955 0
M  V30 20838 H 1882.21 0.475459 1.83955 0
M  V30 20839 H 1880.36 -1.15578 3.7091 0
M  V30 20840 H 1882.04 1.35852 4.40842 0
M  V30 20841 H 1880.28 1.34369 4.12465 0
M  V30 20842 H 1880.95 0.462749 5.50057 0
M  V30 20843 H 1883.43 -0.835104 4.07634 0
M  V30 20844 H 1882.3 -1.53311 5.27055 0
M  V30 20845 H 1882.56 -2.35612 3.74085 0
M  V30 20846 N 1881.62 -1.57387 0.0818932 0
M  V30 20847 C 1882.85 -1.9862 -0.597066 0
M  V30 20848 C 1883.27 -0.960277 -1.61741 0
M  V30 20849 O 1882.63 0.0728948 -1.81153 0
M  V30 20850 C 1882.68 -3.3886 -1.23315 0
M  V30 20851 O 1881.78 -3.38962 -2.34901 0
M  V30 20852 H 1881.12 -0.646208 -0.152679 0
M  V30 20853 H 1883.65 -2.03978 0.159398 0
M  V30 20854 H 1883.66 -3.76266 -1.5776 0
M  V30 20855 H 1882.34 -4.13056 -0.485551 0
M  V30 20856 H 1880.91 -3.13337 -2.02174 0
M  V30 20857 N 1883.1 0.191729 -1.56429 0
M  V30 20858 C 1884.38 0.937684 -1.71659 0
M  V30 20859 C 1884.76 2.0124 -0.63762 0
M  V30 20860 O 1884.1 2.2579 0.350865 0
M  V30 20861 C 1884.31 1.52104 -3.14111 0
M  V30 20862 C 1885.66 2.00186 -3.74447 0
M  V30 20863 O 1886.69 1.61939 -3.1726 0
M  V30 20864 O 1885.55 2.70576 -4.74817 0
M  V30 20865 H 1882.64 0.439962 -0.700259 0
M  V30 20866 H 1885.19 0.181161 -1.6873 0
M  V30 20867 H 1883.96 0.746526 -3.84113 0
M  V30 20868 H 1883.58 2.3423 -3.21282 0
M  V30 20869 N 1884.58 1.50751 0.459565 0
M  V30 20870 C 1885.99 1.38432 0.794269 0
M  V30 20871 C 1886.19 0.449353 1.96426 0
M  V30 20872 O 1885.25 -0.103761 2.52287 0
M  V30 20873 C 1886.56 2.80034 1.09551 0
M  V30 20874 C 1888.11 2.8903 1.20127 0
M  V30 20875 C 1888.59 4.3149 1.53558 0
M  V30 20876 N 1890.08 4.34494 1.60527 0
M  V30 20877 C 1890.81 5.41732 1.87921 0
M  V30 20878 N 1890.31 6.59161 2.13258 0
M  V30 20879 N 1892.1 5.29187 1.89519 0
M  V30 20880 H 1884.25 2.10106 -0.311312 0
M  V30 20881 H 1886.51 0.944884 -0.0767974 0
M  V30 20882 H 1886.22 3.50342 0.308751 0
M  V30 20883 H 1886.09 3.17992 2.02882 0
M  V30 20884 H 1888.48 2.18934 1.97869 0
M  V30 20885 H 1888.56 2.546 0.247486 0
M  V30 20886 H 1888.21 5.02128 0.763522 0
M  V30 20887 H 1888.14 4.63416 2.50106 0
M  V30 20888 H 1890.63 3.49824 1.42939 0
M  V30 20889 H 1890.94 7.3669 2.33468 0
M  V30 20890 H 1889.29 6.62315 2.10626 0
M  V30 20891 H 1892.48 4.36439 1.69229 0
M  V30 20892 H 1892.65 6.12846 2.10532 0
M  V30 20893 N 1886.06 -0.713531 1.40522 0
M  V30 20894 C 1887.02 -1.80932 1.40699 0
M  V30 20895 C 1888.02 -1.57968 0.30045 0
M  V30 20896 O 1889.21 -1.64972 0.559456 0
M  V30 20897 C 1886.34 -3.19053 1.20075 0
M  V30 20898 H 1887.53 -1.82174 2.38228 0
M  V30 20899 H 1885.09 -0.919374 1.26401 0
M  V30 20900 H 1885.82 -3.23461 0.233137 0
M  V30 20901 H 1885.61 -3.37121 2.00229 0
M  V30 20902 H 1887.1 -3.99078 1.22991 0
M  V30 20903 N 1887.53 -1.26053 -0.945962 0
M  V30 20904 C 1888.76 -1.14181 -1.7314 0
M  V30 20905 C 1889.18 0.299663 -1.85698 0
M  V30 20906 O 1888.54 1.21711 -1.34373 0
M  V30 20907 C 1888.59 -1.81052 -3.11854 0
M  V30 20908 O 1887.69 -1.09606 -3.97568 0
M  V30 20909 H 1887.03 -0.398138 -0.531397 0
M  V30 20910 H 1889.56 -1.66782 -1.18511 0
M  V30 20911 H 1889.57 -1.87685 -3.62269 0
M  V30 20912 H 1888.25 -2.85921 -3.0203 0
M  V30 20913 H 1886.83 -1.10915 -3.56023 0
M  V30 20914 N 1889.01 1.14984 -1.07779 0
M  V30 20915 C 1889.94 2.19494 -0.659934 0
M  V30 20916 C 1890.96 1.60201 0.289756 0
M  V30 20917 O 1892.15 1.78328 0.0784004 0
M  V30 20918 C 1889.25 3.38862 0.0506161 0
M  V30 20919 C 1888.42 4.27693 -0.916355 0
M  V30 20920 C 1887.48 5.25642 -0.242303 0
M  V30 20921 O 1886.5 5.62282 -0.884715 0
M  V30 20922 N 1887.71 5.7164 1.01033 0
M  V30 20923 H 1890.47 2.5596 -1.55899 0
M  V30 20924 H 1888.03 1.30143 -0.963043 0
M  V30 20925 H 1890.02 4.01444 0.512331 0
M  V30 20926 H 1888.59 3.00775 0.851671 0
M  V30 20927 H 1887.81 3.62145 -1.55708 0
M  V30 20928 H 1889.1 4.83913 -1.57182 0
M  V30 20929 H 1888.5 5.43991 1.55212 0
M  V30 20930 H 1887.06 6.36241 1.41565 0
M  V30 20931 N 1890.49 0.862526 1.31902 0
M  V30 20932 C 1891.72 0.484006 2.01159 0
M  V30 20933 C 1892.13 -0.92148 1.64785 0
M  V30 20934 O 1891.49 -1.60254 0.873216 0
M  V30 20935 C 1891.54 0.622709 3.56096 0
M  V30 20936 O 1891.26 1.97284 3.91166 0
M  V30 20937 C 1892.76 0.244225 4.42627 0
M  V30 20938 H 1889.98 0.189378 0.643721 0
M  V30 20939 H 1892.53 1.16164 1.68304 0
M  V30 20940 H 1890.68 -0.00728166 3.87399 0
M  V30 20941 H 1891.1 1.97525 4.85885 0
M  V30 20942 H 1892.57 0.392254 5.50605 0
M  V30 20943 H 1893.05 -0.816006 4.31553 0
M  V30 20944 H 1893.65 0.84961 4.16727 0
M  V30 20945 N 1891.97 -1.4484 0.62123 0
M  V30 20946 C 1893.22 -2.01347 0.11929 0
M  V30 20947 C 1893.53 -1.49373 -1.26282 0
M  V30 20948 O 1894.74 -1.97945 -1.85823 0
M  V30 20949 C 1893.19 -3.59533 0.162536 0
M  V30 20950 C 1892.8 -4.20504 1.54534 0
M  V30 20951 C 1894.54 -4.23553 -0.283454 0
M  V30 20952 C 1892.45 -5.70883 1.54423 0
M  V30 20953 H 1891.38 -0.752894 0.0408293 0
M  V30 20954 H 1894.03 -1.66164 0.778571 0
M  V30 20955 H 1892.41 -3.91968 -0.563659 0
M  V30 20956 H 1893.59 -3.99621 2.29433 0
M  V30 20957 H 1891.9 -3.68732 1.93457 0
M  V30 20958 H 1894.5 -5.33837 -0.303671 0
M  V30 20959 H 1894.84 -3.9519 -1.30884 0
M  V30 20960 H 1895.38 -3.95884 0.38992 0
M  V30 20961 H 1892.12 -6.03965 2.54767 0
M  V30 20962 H 1891.64 -5.93917 0.838029 0
M  V30 20963 H 1893.31 -6.34336 1.27383 0
M  V30 20964 N 1893.45 -0.361184 -1.53405 0
M  V30 20965 C 1894.69 0.229881 -2.01191 0
M  V30 20966 C 1895.02 1.49133 -1.24858 0
M  V30 20967 O 1894.28 1.92911 -0.329218 0
M  V30 20968 C 1894.58 0.572109 -3.52791 0
M  V30 20969 C 1894.24 -0.594503 -4.46964 0
M  V30 20970 C 1892.9 -0.914615 -4.72428 0
M  V30 20971 C 1895.26 -1.3763 -5.027 0
M  V30 20972 C 1892.58 -2.01858 -5.50881 0
M  V30 20973 C 1894.94 -2.47064 -5.82359 0
M  V30 20974 C 1893.6 -2.79615 -6.06112 0
M  V30 20975 H 1892.87 0.0841196 -0.73621 0
M  V30 20976 H 1895.52 -0.49274 -1.85052 0
M  V30 20977 H 1893.82 1.37569 -3.66854 0
M  V30 20978 H 1895.52 1.04161 -3.87236 0
M  V30 20979 H 1892.11 -0.334965 -4.27289 0
M  V30 20980 H 1896.29 -1.14224 -4.82977 0
M  V30 20981 H 1891.55 -2.27481 -5.67505 0
M  V30 20982 H 1895.72 -3.08062 -6.24556 0
M  V30 20983 H 1893.35 -3.65282 -6.66688 0
M  V30 20984 N 1894.92 1.57341 -0.0902386 0
M  V30 20985 C 1895.85 2.16782 0.86764 0
M  V30 20986 C 1896.84 1.09982 1.29761 0
M  V30 20987 O 1898.02 1.38099 1.36537 0
M  V30 20988 C 1895.15 2.74426 2.12856 0
M  V30 20989 C 1894.1 3.86555 1.83738 0
M  V30 20990 C 1893.43 4.3088 3.16617 0
M  V30 20991 C 1894.73 5.09971 1.12814 0
M  V30 20992 H 1896.42 2.97075 0.372417 0
M  V30 20993 H 1893.97 1.42899 0.177689 0
M  V30 20994 H 1895.92 3.14659 2.80299 0
M  V30 20995 H 1894.65 1.9138 2.64653 0
M  V30 20996 H 1893.31 3.46853 1.18694 0
M  V30 20997 H 1892.95 3.44732 3.66291 0
M  V30 20998 H 1892.65 5.06477 2.97918 0
M  V30 20999 H 1894.18 4.73743 3.85227 0
M  V30 21000 H 1895.59 5.47404 1.70358 0
M  V30 21001 H 1893.99 5.90965 1.04311 0
M  V30 21002 H 1895.06 4.84775 0.110114 0
M  V30 21003 N 1896.4 -0.183431 1.56529 0
M  V30 21004 C 1897.63 -0.921964 1.85781 0
M  V30 21005 C 1898.05 -1.75564 0.675184 0
M  V30 21006 O 1897.41 -1.7736 -0.375913 0
M  V30 21007 C 1897.46 -1.7844 3.13355 0
M  V30 21008 O 1896.56 -2.88461 2.94727 0
M  V30 21009 H 1895.9 -0.258974 0.611415 0
M  V30 21010 H 1898.43 -0.185225 2.0376 0
M  V30 21011 H 1898.44 -2.18675 3.44449 0
M  V30 21012 H 1897.12 -1.17195 3.99047 0
M  V30 21013 H 1895.7 -2.51897 2.74959 0
M  V30 21014 N 1897.88 -1.50992 -0.451564 0
M  V30 21015 C 1898.81 -1.74216 -1.5547 0
M  V30 21016 C 1899.79 -0.591568 -1.59482 0
M  V30 21017 O 1900.98 -0.83279 -1.75437 0
M  V30 21018 C 1898.11 -1.85421 -2.9366 0
M  V30 21019 C 1897.06 -3.0076 -3.04512 0
M  V30 21020 C 1896.39 -2.9713 -4.44542 0
M  V30 21021 C 1897.69 -4.40961 -2.79911 0
M  V30 21022 H 1899.38 -2.66582 -1.36287 0
M  V30 21023 H 1896.93 -1.28281 -0.654207 0
M  V30 21024 H 1898.88 -2.00252 -3.70779 0
M  V30 21025 H 1897.6 -0.896921 -3.14043 0
M  V30 21026 H 1896.26 -2.85611 -2.2983 0
M  V30 21027 H 1895.91 -1.99207 -4.61872 0
M  V30 21028 H 1895.61 -3.74572 -4.52736 0
M  V30 21029 H 1897.13 -3.14035 -5.23655 0
M  V30 21030 H 1898.55 -4.56534 -3.4677 0
M  V30 21031 H 1896.95 -5.20002 -2.9953 0
M  V30 21032 H 1898.02 -4.51981 -1.75618 0
M  V30 21033 N 1899.36 0.706069 -1.40899 0
M  V30 21034 C 1900.31 1.82011 -1.41918 0
M  V30 21035 C 1901.28 1.6381 -0.274879 0
M  V30 21036 O 1902.46 1.84809 -0.474366 0
M  V30 21037 C 1899.6 3.19805 -1.29687 0
M  V30 21038 C 1898.71 3.49512 -2.53901 0
M  V30 21039 C 1897.85 4.76863 -2.34041 0
M  V30 21040 C 1896.89 4.99504 -3.53783 0
M  V30 21041 N 1896.02 6.18074 -3.33059 0
M  V30 21042 H 1900.86 1.80474 -2.37135 0
M  V30 21043 H 1898.4 0.881471 -1.17765 0
M  V30 21044 H 1900.36 3.99389 -1.206 0
M  V30 21045 H 1898.99 3.20546 -0.380837 0
M  V30 21046 H 1898.04 2.64411 -2.73479 0
M  V30 21047 H 1899.35 3.62147 -3.43002 0
M  V30 21048 H 1898.51 5.64482 -2.22361 0
M  V30 21049 H 1897.25 4.66454 -1.42379 0
M  V30 21050 H 1896.25 4.10336 -3.65929 0
M  V30 21051 H 1897.48 5.11779 -4.46385 0
M  V30 21052 H 1895.42 6.08898 -2.44088 0
M  V30 21053 H 1895.34 6.3143 -4.15731 0
M  V30 21054 H 1896.61 7.08456 -3.25131 0
M  V30 21055 N 1900.84 1.26553 0.939264 0
M  V30 21056 C 1901.78 1.08092 2.05958 0
M  V30 21057 C 1902.78 0.00730279 1.69398 0
M  V30 21058 O 1903.98 0.164131 1.7925 0
M  V30 21059 H 1900.36 0.33271 0.674394 0
M  V30 21060 H 1902.33 2.03032 2.18679 0
M  V30 21061 C 1901.08 0.732672 3.39893 0
M  V30 21062 H 1900.4 1.55067 3.68503 0
M  V30 21063 H 1901.84 0.643305 4.19091 0
M  V30 21064 C 1900.3 -0.5623 3.32174 0
M  V30 21065 O 1900.83 -1.60007 3.68457 0
M  V30 21066 N 1899.04 -0.553643 2.85277 0
M  V30 21067 H 1898.58 0.291265 2.55948 0
M  V30 21068 H 1898.54 -1.4202 2.80495 0
M  V30 21069 N 1902.31 -1.14411 1.08387 0
M  V30 21070 C 1903.24 -2.21619 0.735327 0
M  V30 21071 C 1904.23 -1.67744 -0.282132 0
M  V30 21072 O 1905.41 -1.936 -0.152547 0
M  V30 21073 C 1902.54 -3.47003 0.143628 0
M  V30 21074 C 1901.49 -4.13903 1.08941 0
M  V30 21075 C 1900.82 -5.33487 0.359941 0
M  V30 21076 C 1902.12 -4.62463 2.42746 0
M  V30 21077 H 1903.81 -2.51031 1.63168 0
M  V30 21078 H 1901.36 -1.20658 0.785981 0
M  V30 21079 H 1903.31 -4.21251 -0.112217 0
M  V30 21080 H 1902.04 -3.16955 -0.787856 0
M  V30 21081 H 1900.7 -3.4161 1.33035 0
M  V30 21082 H 1900.34 -4.99699 -0.57534 0
M  V30 21083 H 1900.04 -5.79192 0.990451 0
M  V30 21084 H 1901.57 -6.10497 0.112145 0
M  V30 21085 H 1902.98 -5.28185 2.22919 0
M  V30 21086 H 1901.38 -5.18869 3.01488 0
M  V30 21087 H 1902.45 -3.77542 3.04286 0
M  V30 21088 N 1903.79 -0.869509 -1.31443 0
M  V30 21089 C 1904.74 -0.314033 -2.3047 0
M  V30 21090 C 1905.73 0.570635 -1.595 0
M  V30 21091 O 1906.94 0.456787 -1.74108 0
M  V30 21092 H 1903.32 -0.0828699 -0.74742 0
M  V30 21093 H 1905.29 -1.16319 -2.74795 0
M  V30 21094 C 1904.04 0.469956 -3.44509 0
M  V30 21095 H 1903.36 -0.201508 -3.99292 0
M  V30 21096 H 1904.8 0.823967 -4.15917 0
M  V30 21097 C 1903.26 1.66104 -2.93106 0
M  V30 21098 O 1903.79 2.76033 -2.91836 0
M  V30 21099 N 1901.99 1.49302 -2.49313 0
M  V30 21100 H 1901.54 0.598742 -2.50545 0
M  V30 21101 H 1901.5 2.29137 -2.15276 0
M  V30 21102 N 1905.27 1.44508 -0.628902 0
M  V30 21103 C 1906.2 2.33412 0.0642512 0
M  V30 21104 C 1907.18 1.48077 0.837091 0
M  V30 21105 O 1908.37 1.76802 0.803415 0
M  V30 21106 C 1905.5 3.31112 1.04795 0
M  V30 21107 C 1904.45 4.26248 0.386897 0
M  V30 21108 C 1903.78 5.13799 1.48035 0
M  V30 21109 C 1905.08 5.17514 -0.705449 0
M  V30 21110 H 1906.77 2.91619 -0.678133 0
M  V30 21111 H 1904.32 1.40225 -0.327558 0
M  V30 21112 H 1906.27 3.9219 1.54159 0
M  V30 21113 H 1904.99 2.71109 1.8212 0
M  V30 21114 H 1903.65 3.66499 -0.0860697 0
M  V30 21115 H 1903.3 4.5015 2.24441 0
M  V30 21116 H 1903 5.78262 1.04342 0
M  V30 21117 H 1904.52 5.77748 1.97583 0
M  V30 21118 H 1905.94 5.7254 -0.295004 0
M  V30 21119 H 1904.34 5.90567 -1.06538 0
M  V30 21120 H 1905.41 4.5866 -1.57349 0
M  V30 21121 N 1906.75 0.369315 1.53212 0
M  V30 21122 C 1907.7 -0.490481 2.2737 0
M  V30 21123 C 1908.69 -1.08021 1.30491 0
M  V30 21124 O 1909.9 -1.02298 1.48105 0
M  V30 21125 H 1906.27 -0.176899 0.730897 0
M  V30 21126 H 1908.24 0.156696 2.97988 0
M  V30 21127 C 1906.99 -1.61628 3.0785 0
M  V30 21128 H 1906.32 -1.1718 3.82242 0
M  V30 21129 H 1907.76 -2.19252 3.62911 0
M  V30 21130 C 1906.21 -2.56077 2.18921 0
M  V30 21131 O 1906.74 -3.58988 1.80251 0
M  V30 21132 N 1904.95 -2.25352 1.83479 0
M  V30 21133 H 1904.5 -1.41701 2.15124 0
M  V30 21134 H 1904.46 -2.888 1.24264 0
M  V30 21135 N 1908.23 -1.57291 0.0985816 0
M  V30 21136 C 1909.47 -1.94478 -0.564304 0
M  V30 21137 C 1909.8 -0.980557 -1.67974 0
M  V30 21138 O 1909.06 -0.000761176 -1.957 0
M  V30 21139 C 1909.36 -3.38184 -1.15613 0
M  V30 21140 C 1909.02 -4.50601 -0.164125 0
M  V30 21141 C 1907.68 -4.81077 0.108706 0
M  V30 21142 C 1910.04 -5.18669 0.513033 0
M  V30 21143 C 1907.36 -5.76947 1.06533 0
M  V30 21144 C 1909.72 -6.15565 1.45815 0
M  V30 21145 C 1908.38 -6.44445 1.73918 0
M  V30 21146 H 1907.65 -0.711647 -0.206493 0
M  V30 21147 H 1910.3 -1.90697 0.175155 0
M  V30 21148 H 1908.6 -3.3856 -1.97191 0
M  V30 21149 H 1910.3 -3.6426 -1.67678 0
M  V30 21150 H 1906.89 -4.2685 -0.386958 0
M  V30 21151 H 1911.07 -4.95297 0.315398 0
M  V30 21152 H 1906.33 -5.97636 1.29002 0
M  V30 21153 H 1910.5 -6.67402 1.98865 0
M  V30 21154 H 1908.13 -7.1854 2.48201 0
M  V30 21155 N 1909.71 0.175127 -1.56624 0
M  V30 21156 C 1910.94 0.906725 -1.8564 0
M  V30 21157 C 1911.34 1.76502 -0.681433 0
M  V30 21158 O 1910.69 1.80163 0.358751 0
M  V30 21159 C 1910.75 1.83706 -3.09019 0
M  V30 21160 C 1910.41 1.15874 -4.42066 0
M  V30 21161 C 1911.41 0.526022 -5.17232 0
M  V30 21162 C 1909.09 1.15663 -4.88802 0
M  V30 21163 C 1911.09 -0.0997423 -6.37322 0
M  V30 21164 C 1908.78 0.527036 -6.08823 0
M  V30 21165 C 1909.77 -0.100049 -6.82927 0
M  V30 21166 O 1909.46 -0.719723 -8.00672 0
M  V30 21167 H 1909.19 0.269058 -0.620148 0
M  V30 21168 H 1911.75 0.181237 -2.04599 0
M  V30 21169 H 1909.98 2.60276 -2.85995 0
M  V30 21170 H 1911.67 2.43816 -3.24513 0
M  V30 21171 H 1912.43 0.519653 -4.82208 0
M  V30 21172 H 1908.31 1.63412 -4.31065 0
M  V30 21173 H 1911.86 -0.589806 -6.95102 0
M  V30 21174 H 1907.75 0.530975 -6.43312 0
M  V30 21175 H 1908.52 -0.618596 -8.16159 0
M  V30 21176 N 1911.18 1.5123 0.44355 0
M  V30 21177 C 1912.12 1.68281 1.55609 0
M  V30 21178 C 1913.13 0.563589 1.52733 0
M  V30 21179 O 1914.32 0.837706 1.57622 0
M  V30 21180 C 1911.42 1.67657 2.94524 0
M  V30 21181 C 1910.59 2.96063 3.21971 0
M  V30 21182 C 1909.65 2.8771 4.40578 0
M  V30 21183 O 1908.68 3.61659 4.39536 0
M  V30 21184 N 1909.88 2.03137 5.43797 0
M  V30 21185 H 1912.64 2.64252 1.41389 0
M  V30 21186 H 1910.2 1.49038 0.632398 0
M  V30 21187 H 1912.2 1.59646 3.71881 0
M  V30 21188 H 1910.77 0.79306 3.02373 0
M  V30 21189 H 1909.99 3.17991 2.32971 0
M  V30 21190 H 1911.27 3.81074 3.37135 0
M  V30 21191 H 1910.67 1.42422 5.47478 0
M  V30 21192 H 1909.23 2.0101 6.20031 0
M  V30 21193 N 1912.66 -0.698586 1.41271 0
M  V30 21194 C 1913.57 -1.8424 1.45234 0
M  V30 21195 C 1914.59 -1.70581 0.343225 0
M  V30 21196 O 1915.76 -1.9255 0.590477 0
M  V30 21197 C 1912.83 -3.20195 1.32951 0
M  V30 21198 C 1911.89 -3.45984 2.54152 0
M  V30 21199 C 1911.12 -4.75453 2.42446 0
M  V30 21200 O 1911.35 -5.5173 1.44741 0
M  V30 21201 O 1910.28 -5.01958 3.32147 0
M  V30 21202 H 1914.11 -1.83853 2.41727 0
M  V30 21203 H 1911.69 -0.851252 1.22776 0
M  V30 21204 H 1913.57 -4.0137 1.28374 0
M  V30 21205 H 1912.25 -3.21272 0.395728 0
M  V30 21206 H 1911.15 -2.64751 2.64306 0
M  V30 21207 H 1912.49 -3.49718 3.46349 0
M  V30 21208 N 1914.14 -1.27049 -0.93254 0
M  V30 21209 C 1915.07 -1.11867 -2.04959 0
M  V30 21210 C 1916.05 -0.0214563 -1.70086 0
M  V30 21211 O 1917.24 -0.195063 -1.93218 0
M  V30 21212 C 1914.37 -0.759993 -3.38883 0
M  V30 21213 C 1913.32 -1.8099 -3.87849 0
M  V30 21214 C 1912.65 -1.30532 -5.18522 0
M  V30 21215 C 1913.95 -3.21309 -4.11774 0
M  V30 21216 H 1915.64 -2.05309 -2.17918 0
M  V30 21217 H 1913.19 -0.988507 -1.04712 0
M  V30 21218 H 1915.14 -0.640623 -4.16502 0
M  V30 21219 H 1913.86 0.210139 -3.25923 0
M  V30 21220 H 1912.52 -1.91809 -3.12418 0
M  V30 21221 H 1912.17 -0.324784 -5.0195 0
M  V30 21222 H 1911.87 -2.00722 -5.52254 0
M  V30 21223 H 1913.39 -1.19879 -5.98716 0
M  V30 21224 H 1914.81 -3.13517 -4.79979 0
M  V30 21225 H 1913.2 -3.89166 -4.56804 0
M  V30 21226 H 1914.27 -3.66722 -3.17243 0
M  V30 21227 N 1915.62 1.13835 -1.08993 0
M  V30 21228 C 1916.55 2.21226 -0.74707 0
M  V30 21229 C 1917.53 1.67891 0.273232 0
M  V30 21230 O 1918.71 1.93678 0.142278 0
M  V30 21231 C 1915.84 3.46922 -0.162028 0
M  V30 21232 C 1914.8 4.1332 -1.11135 0
M  V30 21233 C 1914.12 5.33289 -0.388228 0
M  V30 21234 C 1915.42 4.61169 -2.45195 0
M  V30 21235 H 1917.12 2.50162 -1.64497 0
M  V30 21236 H 1914.66 1.20239 -0.792368 0
M  V30 21237 H 1916.62 4.21304 0.0898753 0
M  V30 21238 H 1915.34 3.17368 0.771036 0
M  V30 21239 H 1914 3.40899 -1.34845 0
M  V30 21240 H 1913.65 4.99997 0.548832 0
M  V30 21241 H 1913.35 5.78659 -1.02115 0
M  V30 21242 H 1914.87 6.10429 -0.144519 0
M  V30 21243 H 1916.29 5.26996 -2.25717 0
M  V30 21244 H 1914.68 5.17263 -3.04235 0
M  V30 21245 H 1915.75 3.75923 -3.06284 0
M  V30 21246 N 1917.1 0.876467 1.3098 0
M  V30 21247 C 1918.32 0.504524 2.0117 0
M  V30 21248 C 1918.75 -0.897295 1.65319 0
M  V30 21249 O 1918.1 -1.59321 0.865255 0
M  V30 21250 C 1918.15 0.676516 3.54197 0
M  V30 21251 O 1917.26 -0.28134 4.11439 0
M  V30 21252 H 1916.6 0.199855 0.633209 0
M  V30 21253 H 1919.13 1.18167 1.67026 0
M  V30 21254 H 1919.14 0.572273 4.03967 0
M  V30 21255 H 1917.81 1.69864 3.7963 0
M  V30 21256 H 1916.39 -0.131506 3.72668 0
M  V30 21257 N 1918.57 -1.44173 0.636557 0
M  V30 21258 C 1919.52 -2.32472 -0.077248 0
M  V30 21259 C 1920.52 -1.47659 -0.830248 0
M  V30 21260 O 1921.72 -1.63971 -0.742533 0
M  V30 21261 H 1918.1 -0.750726 -0.0437543 0
M  V30 21262 H 1920.07 -2.9042 0.685465 0
M  V30 21263 C 1918.82 -3.31734 -1.04152 0
M  V30 21264 H 1918.14 -3.9701 -0.471531 0
M  V30 21265 H 1919.58 -3.96187 -1.51036 0
M  V30 21266 C 1918.04 -2.61069 -2.12943 0
M  V30 21267 O 1918.57 -2.41366 -3.211 0
M  V30 21268 N 1916.77 -2.20717 -1.8903 0
M  V30 21269 H 1916.32 -2.36941 -1.01077 0
M  V30 21270 H 1916.28 -1.73763 -2.62018 0
M  V30 21271 N 1920.05 -0.377435 -1.53014 0
M  V30 21272 C 1921.3 0.208838 -2.01722 0
M  V30 21273 C 1921.63 1.47446 -1.26385 0
M  V30 21274 O 1920.91 1.91122 -0.360903 0
M  V30 21275 C 1921.19 0.4888 -3.56767 0
M  V30 21276 C 1921.04 -0.791285 -4.42785 0
M  V30 21277 C 1922.36 1.28443 -4.2094 0
M  V30 21278 H 1919.48 0.0744281 -0.733232 0
M  V30 21279 H 1922.12 -0.504664 -1.83175 0
M  V30 21280 H 1920.27 1.09662 -3.72702 0
M  V30 21281 H 1921.94 -1.42848 -4.38625 0
M  V30 21282 H 1920.19 -1.40914 -4.10275 0
M  V30 21283 H 1920.86 -0.550199 -5.49251 0
M  V30 21284 H 1923.33 0.770147 -4.08911 0
M  V30 21285 H 1922.21 1.44906 -5.29427 0
M  V30 21286 H 1922.47 2.29631 -3.77786 0
M  V30 21287 N 1921.53 1.57237 -0.106922 0
M  V30 21288 C 1922.44 2.18202 0.861685 0
M  V30 21289 C 1923.46 1.15476 1.30159 0
M  V30 21290 O 1924.63 1.47896 1.36707 0
M  V30 21291 C 1921.7 2.7598 2.09847 0
M  V30 21292 C 1920.76 3.93702 1.71164 0
M  V30 21293 C 1919.99 4.48716 2.88946 0
M  V30 21294 O 1920.21 4.02645 4.04021 0
M  V30 21295 O 1919.15 5.39573 2.66729 0
M  V30 21296 H 1922.97 3.01402 0.372924 0
M  V30 21297 H 1920.56 1.48933 0.118058 0
M  V30 21298 H 1922.44 3.12861 2.82305 0
M  V30 21299 H 1921.12 1.9582 2.57753 0
M  V30 21300 H 1920.02 3.61613 0.958499 0
M  V30 21301 H 1921.36 4.75262 1.28011 0
M  V30 21302 N 1923.01 -0.166818 1.56715 0
M  V30 21303 C 1923.96 -1.20646 1.96757 0
M  V30 21304 C 1924.93 -1.43751 0.832153 0
M  V30 21305 O 1926.11 -1.56416 1.09264 0
M  V30 21306 C 1923.25 -2.53971 2.3365 0
M  V30 21307 C 1922.36 -2.38207 3.60391 0
M  V30 21308 C 1921.5 -3.6443 3.86476 0
M  V30 21309 C 1920.54 -3.43618 5.0655 0
M  V30 21310 N 1919.67 -4.61923 5.28746 0
M  V30 21311 H 1924.51 -0.857983 2.85382 0
M  V30 21312 H 1922.05 -0.412238 1.41206 0
M  V30 21313 H 1924.01 -3.31684 2.53064 0
M  V30 21314 H 1922.64 -2.86805 1.48131 0
M  V30 21315 H 1921.69 -1.51648 3.48866 0
M  V30 21316 H 1923 -2.18777 4.48261 0
M  V30 21317 H 1922.16 -4.50578 4.06282 0
M  V30 21318 H 1920.9 -3.86844 2.9699 0
M  V30 21319 H 1919.9 -2.55858 4.86638 0
M  V30 21320 H 1921.13 -3.22623 5.97571 0
M  V30 21321 H 1919.07 -4.84547 4.42211 0
M  V30 21322 H 1918.99 -4.45423 6.10848 0
M  V30 21323 H 1920.26 -5.4934 5.53033 0
M  V30 21324 N 1924.49 -1.51463 -0.435524 0
M  V30 21325 C 1925.74 -1.63454 -1.18176 0
M  V30 21326 C 1926.05 -0.357501 -1.92305 0
M  V30 21327 O 1927.25 -0.356815 -2.69145 0
M  V30 21328 C 1925.71 -2.88676 -2.14928 0
M  V30 21329 C 1925.32 -4.23391 -1.46438 0
M  V30 21330 C 1927.06 -3.10025 -2.89974 0
M  V30 21331 C 1924.97 -5.39761 -2.41685 0
M  V30 21332 H 1923.9 -0.608812 -0.444819 0
M  V30 21333 H 1926.55 -1.77931 -0.448635 0
M  V30 21334 H 1924.93 -2.67837 -2.91683 0
M  V30 21335 H 1926.11 -4.54618 -0.75229 0
M  V30 21336 H 1924.42 -4.07934 -0.835385 0
M  V30 21337 H 1927.02 -3.9414 -3.61327 0
M  V30 21338 H 1927.36 -2.23177 -3.51423 0
M  V30 21339 H 1927.89 -3.31213 -2.20325 0
M  V30 21340 H 1924.63 -6.28875 -1.84922 0
M  V30 21341 H 1924.15 -5.12908 -3.10943 0
M  V30 21342 H 1925.83 -5.71783 -3.02776 0
M  V30 21343 N 1925.96 0.691085 -1.4164 0
M  V30 21344 C 1927.19 1.47978 -1.44603 0
M  V30 21345 C 1927.61 1.88727 -0.0525951 0
M  V30 21346 O 1926.96 1.57079 0.929107 0
M  V30 21347 C 1927.02 2.73945 -2.35874 0
M  V30 21348 O 1926.74 2.34912 -3.69795 0
M  V30 21349 C 1928.24 3.67649 -2.47688 0
M  V30 21350 H 1925.46 0.455873 -0.492363 0
M  V30 21351 H 1928 0.850521 -1.85974 0
M  V30 21352 H 1926.16 3.33098 -1.97799 0
M  V30 21353 H 1926.57 3.16139 -4.18517 0
M  V30 21354 H 1928.04 4.52806 -3.15707 0
M  V30 21355 H 1928.52 4.12443 -1.50956 0
M  V30 21356 H 1929.13 3.14397 -2.86417 0
M  V30 21357 N 1927.44 1.27542 0.925789 0
M  V30 21358 C 1928.67 1.1681 1.70772 0
M  V30 21359 C 1929.09 -0.274824 1.86789 0
M  V30 21360 O 1928.44 -1.18694 1.38629 0
M  V30 21361 C 1928.49 1.84904 3.10633 0
M  V30 21362 O 1928.21 3.23559 2.95366 0
M  V30 21363 C 1929.72 1.80322 4.04968 0
M  V30 21364 H 1926.94 0.406036 0.534206 0
M  V30 21365 H 1929.48 1.68448 1.15955 0
M  V30 21366 H 1927.63 1.37166 3.62304 0
M  V30 21367 H 1928.05 3.57488 3.838 0
M  V30 21368 H 1929.52 2.32577 5.00611 0
M  V30 21369 H 1930 0.772975 4.32344 0
M  V30 21370 H 1930.61 2.27683 3.59222 0
M  V30 21371 N 1928.92 -1.13255 1.09595 0
M  V30 21372 C 1929.87 -2.1872 0.736907 0
M  V30 21373 C 1930.84 -1.63677 -0.282692 0
M  V30 21374 O 1932.02 -1.90094 -0.163936 0
M  V30 21375 C 1929.16 -3.44703 0.165494 0
M  V30 21376 C 1928.28 -4.13841 1.23934 0
M  V30 21377 C 1927.41 -5.27445 0.630499 0
M  V30 21378 C 1926.45 -5.88435 1.68554 0
M  V30 21379 N 1925.59 -6.93468 1.09759 0
M  V30 21380 H 1930.43 -2.48779 1.64052 0
M  V30 21381 H 1927.96 -1.22152 0.819597 0
M  V30 21382 H 1929.92 -4.16796 -0.183618 0
M  V30 21383 H 1928.55 -3.15088 -0.701377 0
M  V30 21384 H 1927.6 -3.40014 1.70571 0
M  V30 21385 H 1928.92 -4.5525 2.03834 0
M  V30 21386 H 1928.07 -6.06263 0.230332 0
M  V30 21387 H 1926.81 -4.8729 -0.200028 0
M  V30 21388 H 1925.81 -5.08311 2.09523 0
M  V30 21389 H 1927.04 -6.30663 2.51876 0
M  V30 21390 H 1924.98 -6.55366 0.288376 0
M  V30 21391 H 1924.9 -7.33429 1.83353 0
M  V30 21392 H 1926.17 -7.76133 0.723688 0
M  V30 21393 N 1930.4 -0.883401 -1.30514 0
M  V30 21394 C 1931.68 -0.421186 -1.91011 0
M  V30 21395 C 1932.06 1.09793 -1.80301 0
M  V30 21396 O 1931.4 1.93254 -1.21923 0
M  V30 21397 C 1931.61 -0.917533 -3.36723 0
M  V30 21398 C 1932.96 -0.951573 -4.138 0
M  V30 21399 O 1933.99 -0.86409 -3.4556 0
M  V30 21400 O 1932.84 -1.08053 -5.35711 0
M  V30 21401 H 1929.94 -0.128514 -0.816954 0
M  V30 21402 H 1932.48 -0.972198 -1.39091 0
M  V30 21403 H 1931.26 -1.96135 -3.38595 0
M  V30 21404 H 1930.88 -0.345595 -3.96095 0
M  V30 21405 N 1931.88 1.43833 -0.644194 0
M  V30 21406 C 1932.81 2.2797 0.102458 0
M  V30 21407 C 1933.79 1.39303 0.838652 0
M  V30 21408 O 1934.97 1.68745 0.840073 0
M  V30 21409 C 1932.1 3.18522 1.15157 0
M  V30 21410 C 1931.14 4.23386 0.51444 0
M  V30 21411 S 1931.98 5.30835 -0.705268 0
M  V30 21412 C 1933.13 6.24957 0.343531 0
M  V30 21413 H 1933.37 2.90948 -0.611277 0
M  V30 21414 H 1930.9 1.48211 -0.432753 0
M  V30 21415 H 1932.86 3.71241 1.75187 0
M  V30 21416 H 1931.52 2.54739 1.83757 0
M  V30 21417 H 1930.71 4.86812 1.305 0
M  V30 21418 H 1930.31 3.73998 -0.0115435 0
M  V30 21419 H 1932.61 6.66565 1.21235 0
M  V30 21420 H 1933.55 7.07639 -0.255473 0
M  V30 21421 H 1933.96 5.60446 0.675291 0
M  V30 21422 N 1933.35 0.385544 1.52811 0
M  V30 21423 C 1934.28 -0.442951 2.2926 0
M  V30 21424 C 1935.27 -1.06674 1.32494 0
M  V30 21425 O 1936.45 -1.08022 1.61384 0
M  V30 21426 C 1933.58 -1.57243 3.09664 0
M  V30 21427 C 1932.53 -1.07488 4.14283 0
M  V30 21428 C 1931.86 -2.29614 4.82889 0
M  V30 21429 C 1933.16 -0.145479 5.22097 0
M  V30 21430 H 1934.85 0.1949 2.98765 0
M  V30 21431 H 1932.4 0.0951762 1.43685 0
M  V30 21432 H 1934.35 -2.15882 3.61902 0
M  V30 21433 H 1933.08 -2.23781 2.37885 0
M  V30 21434 H 1931.74 -0.511047 3.6302 0
M  V30 21435 H 1931.38 -2.94653 4.07662 0
M  V30 21436 H 1931.08 -1.96985 5.53598 0
M  V30 21437 H 1932.61 -2.88902 5.37929 0
M  V30 21438 H 1934.02 -0.639941 5.69717 0
M  V30 21439 H 1932.42 0.0908687 6.00031 0
M  V30 21440 H 1933.49 0.806707 4.78142 0
M  V30 21441 N 1934.83 -1.57178 0.115259 0
M  V30 21442 C 1936.06 -1.99126 -0.550671 0
M  V30 21443 C 1936.47 -0.993751 -1.61001 0
M  V30 21444 O 1935.81 0.0220518 -1.83687 0
M  V30 21445 C 1935.88 -3.37482 -1.2388 0
M  V30 21446 C 1935.54 -4.55823 -0.327848 0
M  V30 21447 C 1936.54 -5.18102 0.432054 0
M  V30 21448 C 1934.22 -5.01726 -0.240012 0
M  V30 21449 C 1936.22 -6.24669 1.26756 0
M  V30 21450 C 1933.9 -6.08156 0.599131 0
M  V30 21451 C 1934.9 -6.69494 1.35155 0
M  V30 21452 O 1934.59 -7.73868 2.17677 0
M  V30 21453 H 1934.32 -0.658991 -0.150689 0
M  V30 21454 H 1936.87 -2.0445 0.197288 0
M  V30 21455 H 1935.1 -3.28901 -2.03375 0
M  V30 21456 H 1936.79 -3.63744 -1.80126 0
M  V30 21457 H 1937.56 -4.83555 0.374044 0
M  V30 21458 H 1933.44 -4.53732 -0.81535 0
M  V30 21459 H 1936.98 -6.72475 1.85533 0
M  V30 21460 H 1932.88 -6.42132 0.658548 0
M  V30 21461 H 1933.65 -7.90948 2.10578 0
M  V30 21462 N 1936.31 0.158505 -1.56801 0
M  V30 21463 C 1937.56 0.874331 -1.82984 0
M  V30 21464 C 1937.89 1.81334 -0.695103 0
M  V30 21465 O 1937.17 1.9214 0.302091 0
M  V30 21466 C 1937.45 1.65886 -3.19615 0
M  V30 21467 C 1937.3 0.74211 -4.43636 0
M  V30 21468 C 1938.62 2.62382 -3.53332 0
M  V30 21469 H 1935.74 0.316412 -0.665622 0
M  V30 21470 H 1938.38 0.139988 -1.89484 0
M  V30 21471 H 1936.53 2.28488 -3.14206 0
M  V30 21472 H 1938.2 0.127969 -4.61122 0
M  V30 21473 H 1936.45 0.0509465 -4.3377 0
M  V30 21474 H 1937.12 1.32683 -5.35816 0
M  V30 21475 H 1939.59 2.09902 -3.59278 0
M  V30 21476 H 1938.47 3.14332 -4.49985 0
M  V30 21477 H 1938.73 3.43194 -2.78694 0
M  V30 21478 N 1937.79 1.51692 0.427485 0
M  V30 21479 C 1939.03 1.66512 1.18545 0
M  V30 21480 C 1939.39 0.377884 1.88245 0
M  V30 21481 O 1940.59 0.401977 2.65777 0
M  V30 21482 C 1938.87 2.84155 2.16774 0
M  V30 21483 S 1940.42 3.19359 3.00925 0
M  V30 21484 H 1937.24 0.586537 0.401865 0
M  V30 21485 H 1939.84 1.89629 0.475503 0
M  V30 21486 H 1938.55 3.7611 1.64224 0
M  V30 21487 H 1938.08 2.63256 2.92335 0
M  V30 21488 H 1940.09 2.66556 4.18524 0
M  V30 21489 N 1939.27 -0.683564 1.42004 0
M  V30 21490 C 1940.2 -1.80902 1.40737 0
M  V30 21491 C 1941.21 -1.59865 0.307725 0
M  V30 21492 O 1942.4 -1.69146 0.570244 0
M  V30 21493 C 1939.5 -3.17867 1.17533 0
M  V30 21494 C 1938.67 -3.65829 2.39766 0
M  V30 21495 C 1937.73 -4.81499 2.12238 0
M  V30 21496 O 1936.76 -4.92495 2.85371 0
M  V30 21497 N 1937.96 -5.69592 1.12006 0
M  V30 21498 H 1940.73 -1.82478 2.37744 0
M  V30 21499 H 1938.29 -0.866335 1.36771 0
M  V30 21500 H 1940.28 -3.92891 0.970489 0
M  V30 21501 H 1938.85 -3.11244 0.290811 0
M  V30 21502 H 1938.07 -2.81579 2.75874 0
M  V30 21503 H 1939.36 -3.94615 3.2118 0
M  V30 21504 H 1938.76 -5.63351 0.515003 0
M  V30 21505 H 1937.31 -6.44465 0.975098 0
M  V30 21506 N 1940.75 -1.28031 -0.919012 0
M  V30 21507 C 1941.97 -1.17714 -1.7015 0
M  V30 21508 C 1942.39 0.264914 -1.86932 0
M  V30 21509 O 1941.75 1.17957 -1.39256 0
M  V30 21510 C 1941.8 -1.86548 -3.09648 0
M  V30 21511 O 1941.52 -3.25121 -2.93646 0
M  V30 21512 C 1943.02 -1.82467 -4.04006 0
M  V30 21513 H 1940.24 -0.408863 -0.532045 0
M  V30 21514 H 1942.78 -1.69061 -1.1506 0
M  V30 21515 H 1940.94 -1.39085 -3.61572 0
M  V30 21516 H 1941.35 -3.59518 -3.81899 0
M  V30 21517 H 1942.83 -2.35229 -4.99371 0
M  V30 21518 H 1943.3 -0.795892 -4.31928 0
M  V30 21519 H 1943.91 -2.29585 -3.5801 0
M  V30 21520 N 1942.22 1.12672 -1.10194 0
M  V30 21521 C 1943.45 1.87682 -0.863653 0
M  V30 21522 C 1943.86 1.79789 0.589271 0
M  V30 21523 O 1943.2 1.16801 1.41786 0
M  V30 21524 C 1943.27 3.37794 -1.23028 0
M  V30 21525 C 1942.93 3.69463 -2.68972 0
M  V30 21526 C 1943.93 3.68037 -3.67212 0
M  V30 21527 C 1941.61 3.98875 -3.05294 0
M  V30 21528 C 1943.61 3.95576 -4.99798 0
M  V30 21529 C 1941.29 4.26074 -4.38068 0
M  V30 21530 C 1942.29 4.24411 -5.3513 0
M  V30 21531 O 1941.98 4.50939 -6.65515 0
M  V30 21532 H 1941.71 0.600767 -0.309928 0
M  V30 21533 H 1944.27 1.43504 -1.46955 0
M  V30 21534 H 1942.5 3.82514 -0.567464 0
M  V30 21535 H 1944.18 3.94143 -0.969869 0
M  V30 21536 H 1944.95 3.4538 -3.40496 0
M  V30 21537 H 1940.83 3.99312 -2.30372 0
M  V30 21538 H 1944.37 3.94193 -5.7555 0
M  V30 21539 H 1940.27 4.48204 -4.64525 0
M  V30 21540 H 1941.04 4.68569 -6.71107 0
M  V30 21541 N 1943.7 0.89031 1.30043 0
M  V30 21542 C 1944.63 0.377386 2.3043 0
M  V30 21543 C 1945.61 -0.542607 1.61213 0
M  V30 21544 O 1946.8 -0.455328 1.88787 0
M  V30 21545 C 1943.93 -0.404264 3.44939 0
M  V30 21546 C 1942.88 0.424448 4.2589 0
M  V30 21547 C 1942.21 -0.48413 5.32504 0
M  V30 21548 C 1943.51 1.6694 4.94902 0
M  V30 21549 H 1945.2 1.21628 2.73582 0
M  V30 21550 H 1942.75 0.586299 1.31524 0
M  V30 21551 H 1944.7 -0.773769 4.14235 0
M  V30 21552 H 1943.42 -1.27685 3.00606 0
M  V30 21553 H 1942.08 0.776162 3.58289 0
M  V30 21554 H 1941.73 -1.35458 4.84417 0
M  V30 21555 H 1941.43 0.0665939 5.87562 0
M  V30 21556 H 1942.96 -0.850034 6.04654 0
M  V30 21557 H 1944.37 1.37017 5.56686 0
M  V30 21558 H 1942.77 2.16073 5.59851 0
M  V30 21559 H 1943.84 2.41077 4.20725 0
M  V30 21560 N 1945.18 -1.43489 0.651812 0
M  V30 21561 C 1946.4 -2.06696 0.170683 0
M  V30 21562 C 1946.83 -1.48527 -1.15418 0
M  V30 21563 O 1946.19 -0.594665 -1.7127 0
M  V30 21564 C 1946.24 -3.60484 0.0915457 0
M  V30 21565 O 1945.34 -4.01388 -0.946644 0
M  V30 21566 H 1944.68 -0.65728 0.0942276 0
M  V30 21567 H 1947.21 -1.84018 0.89434 0
M  V30 21568 H 1947.22 -4.07896 -0.0922419 0
M  V30 21569 H 1945.9 -4.02199 1.0587 0
M  V30 21570 H 1944.47 -3.65569 -0.735758 0
M  V30 21571 N 1946.66 -0.393643 -1.52605 0
M  V30 21572 C 1947.6 0.439408 -2.26579 0
M  V30 21573 C 1948.57 1.05415 -1.28362 0
M  V30 21574 O 1949.76 1.08136 -1.57198 0
M  V30 21575 C 1946.9 1.55846 -3.07906 0
M  V30 21576 C 1946.01 0.966152 -4.21058 0
M  V30 21577 C 1945.15 2.05662 -4.89772 0
M  V30 21578 C 1944.19 1.44043 -5.9491 0
M  V30 21579 N 1943.32 2.47039 -6.57203 0
M  V30 21580 H 1948.16 -0.197864 -2.97342 0
M  V30 21581 H 1945.7 -0.109409 -1.46693 0
M  V30 21582 H 1947.66 2.21807 -3.53352 0
M  V30 21583 H 1946.29 2.16598 -2.39343 0
M  V30 21584 H 1945.34 0.196024 -3.79895 0
M  V30 21585 H 1946.65 0.475898 -4.96525 0
M  V30 21586 H 1945.81 2.79383 -5.38544 0
M  V30 21587 H 1944.55 2.58048 -4.13839 0
M  V30 21588 H 1943.55 0.688483 -5.45472 0
M  V30 21589 H 1944.78 0.924458 -6.72778 0
M  V30 21590 H 1942.72 2.98586 -5.84108 0
M  V30 21591 H 1942.64 2.02781 -7.28297 0
M  V30 21592 H 1943.91 3.20377 -7.10619 0
M  V30 21593 N 1948.14 1.57115 -0.123593 0
M  V30 21594 C 1949.38 1.94527 0.533131 0
M  V30 21595 C 1949.7 1.0095 1.67536 0
M  V30 21596 O 1950.9 1.27846 2.39515 0
M  V30 21597 C 1949.36 3.45735 0.999783 0
M  V30 21598 C 1948.97 4.47854 -0.114238 0
M  V30 21599 C 1950.71 3.92057 1.62762 0
M  V30 21600 C 1948.62 5.90245 0.36937 0
M  V30 21601 H 1947.55 0.726179 0.20293 0
M  V30 21602 H 1950.2 1.8236 -0.204183 0
M  V30 21603 H 1948.58 3.53151 1.79166 0
M  V30 21604 H 1949.76 4.52111 -0.890627 0
M  V30 21605 H 1948.07 4.11311 -0.649019 0
M  V30 21606 H 1950.67 4.9586 2.00067 0
M  V30 21607 H 1951.01 3.3229 2.50777 0
M  V30 21608 H 1951.54 3.8746 0.901074 0
M  V30 21609 H 1948.28 6.53778 -0.474837 0
M  V30 21610 H 1947.8 5.89399 1.11214 0
M  V30 21611 H 1949.48 6.41666 0.829093 0
M  V30 21612 N 1949.61 -0.150187 1.56883 0
M  V30 21613 C 1950.86 -0.864615 1.83446 0
M  V30 21614 C 1951.19 -1.80963 0.70471 0
M  V30 21615 O 1950.47 -1.92297 -0.291897 0
M  V30 21616 C 1950.75 -1.64188 3.20491 0
M  V30 21617 C 1950.6 -0.718573 4.44023 0
M  V30 21618 C 1951.92 -2.60505 3.54719 0
M  V30 21619 H 1949.04 -0.312878 0.66729 0
M  V30 21620 H 1951.68 -0.129937 1.89555 0
M  V30 21621 H 1949.83 -2.26819 3.15413 0
M  V30 21622 H 1951.51 -0.103513 4.61184 0
M  V30 21623 H 1949.75 -0.0279419 4.33791 0
M  V30 21624 H 1950.42 -1.29839 5.36513 0
M  V30 21625 H 1952.9 -2.07993 3.60386 0
M  V30 21626 H 1951.77 -3.11941 4.51646 0
M  V30 21627 H 1952.03 -3.41711 2.8051 0
M  V30 21628 N 1951.09 -1.51916 -0.419434 0
M  V30 21629 C 1952.04 -1.75117 -1.5309 0
M  V30 21630 C 1953.03 -0.617961 -1.57726 0
M  V30 21631 O 1954.24 -0.79977 -1.61257 0
M  V30 21632 H 1950.62 -0.553609 -0.508941 0
M  V30 21633 H 1952.59 -2.68253 -1.30702 0
M  V30 21634 C 1951.34 -1.90958 -2.90569 0
M  V30 21635 H 1950.66 -2.77571 -2.8774 0
M  V30 21636 H 1952.1 -2.11196 -3.67658 0
M  V30 21637 C 1950.56 -0.673977 -3.3009 0
M  V30 21638 O 1951.09 0.163 -4.01369 0
M  V30 21639 N 1949.29 -0.512857 -2.86039 0
M  V30 21640 H 1948.84 -1.19505 -2.28202 0
M  V30 21641 H 1948.8 0.312589 -3.12842 0
M  V30 21642 N 1952.57 0.676023 -1.42365 0
M  V30 21643 C 1953.82 1.43608 -1.42769 0
M  V30 21644 C 1954.15 1.94451 -0.0436961 0
M  V30 21645 O 1953.4 1.71221 0.947723 0
M  V30 21646 C 1953.7 2.65018 -2.39792 0
M  V30 21647 C 1953.37 2.32724 -3.862 0
M  V30 21648 C 1952.03 2.23628 -4.2608 0
M  V30 21649 C 1954.38 2.06477 -4.78557 0
M  V30 21650 C 1951.71 1.86409 -5.56299 0
M  V30 21651 C 1954.06 1.70763 -6.09116 0
M  V30 21652 C 1952.72 1.60176 -6.47997 0
M  V30 21653 H 1951.99 0.525499 -0.522428 0
M  V30 21654 H 1954.64 0.770932 -1.75297 0
M  V30 21655 H 1952.95 3.36559 -2.00587 0
M  V30 21656 H 1954.64 3.23198 -2.37369 0
M  V30 21657 H 1951.23 2.40705 -3.54625 0
M  V30 21658 H 1955.42 2.12439 -4.48535 0
M  V30 21659 H 1950.67 1.7678 -5.85285 0
M  V30 21660 H 1954.85 1.49479 -6.80168 0
M  V30 21661 H 1952.47 1.31106 -7.48809 0
M  V30 21662 N 1954.05 1.28517 0.912209 0
M  V30 21663 C 1955 1.12575 2.01483 0
M  V30 21664 C 1955.97 0.0224628 1.66085 0
M  V30 21665 O 1957.15 0.18768 1.89875 0
M  V30 21666 C 1954.29 0.795229 3.35813 0
M  V30 21667 C 1953.4 1.97772 3.84071 0
M  V30 21668 C 1952.54 1.58768 5.06918 0
M  V30 21669 C 1951.58 2.73672 5.47513 0
M  V30 21670 N 1950.71 2.3515 6.6155 0
M  V30 21671 H 1955.55 2.06918 2.1445 0
M  V30 21672 H 1953.09 1.02983 1.05037 0
M  V30 21673 H 1955.05 0.584339 4.13088 0
M  V30 21674 H 1953.68 -0.111266 3.22608 0
M  V30 21675 H 1952.73 2.30069 3.0294 0
M  V30 21676 H 1954.04 2.83913 4.10115 0
M  V30 21677 H 1953.2 1.33894 5.91741 0
M  V30 21678 H 1951.94 0.697566 4.82686 0
M  V30 21679 H 1950.94 2.99242 4.61231 0
M  V30 21680 H 1952.17 3.63328 5.73733 0
M  V30 21681 H 1950.11 1.4861 6.38945 0
M  V30 21682 H 1950.03 3.14827 6.87328 0
M  V30 21683 H 1951.3 2.13564 7.49674 0
M  V30 21684 N 1955.53 -1.12086 1.1079 0
M  V30 21685 C 1956.78 -1.83036 0.847387 0
M  V30 21686 C 1957.09 -1.85209 -0.629051 0
M  V30 21687 O 1958.29 -2.52191 -1.00559 0
M  V30 21688 C 1956.75 -3.28682 1.46615 0
M  V30 21689 C 1956.36 -3.34858 2.97614 0
M  V30 21690 C 1958.1 -4.04578 1.28519 0
M  V30 21691 C 1956.01 -4.7486 3.52508 0
M  V30 21692 H 1954.94 -0.685806 0.313347 0
M  V30 21693 H 1957.59 -1.2618 1.33233 0
M  V30 21694 H 1955.97 -3.85429 0.908883 0
M  V30 21695 H 1957.15 -2.8803 3.59688 0
M  V30 21696 H 1955.46 -2.72438 3.14907 0
M  V30 21697 H 1958.06 -5.07962 1.6697 0
M  V30 21698 H 1958.4 -4.1568 0.227105 0
M  V30 21699 H 1958.93 -3.542 1.81073 0
M  V30 21700 H 1955.67 -4.68954 4.57999 0
M  V30 21701 H 1955.19 -5.22125 2.95203 0
M  V30 21702 H 1956.87 -5.43807 3.50546 0
M  V30 21703 N 1957 -0.897194 -1.29569 0
M  V30 21704 C 1958.28 -0.441422 -1.90554 0
M  V30 21705 C 1958.66 1.07875 -1.81456 0
M  V30 21706 O 1958.01 1.9195 -1.23966 0
M  V30 21707 C 1958.22 -0.953195 -3.35731 0
M  V30 21708 C 1959.57 -0.995408 -4.12767 0
M  V30 21709 O 1960.59 -0.900693 -3.44624 0
M  V30 21710 O 1959.45 -1.13729 -5.34535 0
M  V30 21711 H 1956.54 -0.137172 -0.815545 0
M  V30 21712 H 1959.09 -0.986896 -1.38052 0
M  V30 21713 H 1957.86 -1.99715 -3.36496 0
M  V30 21714 H 1957.49 -0.387587 -3.95706 0
M  V30 21715 N 1958.48 1.43142 -0.659413 0
M  V30 21716 C 1959.43 2.30783 0.0284037 0
M  V30 21717 C 1960.4 1.451 0.808407 0
M  V30 21718 O 1961.58 1.73959 0.783764 0
M  V30 21719 C 1958.72 3.30758 0.984529 0
M  V30 21720 C 1957.84 4.31537 0.199975 0
M  V30 21721 C 1956.97 5.18592 1.15046 0
M  V30 21722 C 1956.01 6.1106 0.356695 0
M  V30 21723 N 1955.15 6.90718 1.25909 0
M  V30 21724 H 1959.99 2.89051 -0.724821 0
M  V30 21725 H 1957.53 1.42392 -0.369192 0
M  V30 21726 H 1959.48 3.87236 1.55254 0
M  V30 21727 H 1958.11 2.74125 1.70456 0
M  V30 21728 H 1957.17 3.77303 -0.484425 0
M  V30 21729 H 1958.48 4.97054 -0.416974 0
M  V30 21730 H 1957.63 5.79727 1.7889 0
M  V30 21731 H 1956.37 4.53215 1.80131 0
M  V30 21732 H 1955.38 5.49008 -0.295063 0
M  V30 21733 H 1956.6 6.78481 -0.28984 0
M  V30 21734 H 1954.55 6.27984 1.89662 0
M  V30 21735 H 1954.46 7.52782 0.69685 0
M  V30 21736 H 1955.73 7.56353 1.88549 0
M  V30 21737 N 1959.96 0.40173 1.52394 0
M  V30 21738 C 1960.91 -0.427385 2.26808 0
M  V30 21739 C 1961.88 -1.04733 1.28919 0
M  V30 21740 O 1963.06 -1.073 1.5777 0
M  V30 21741 C 1960.2 -1.54211 3.08728 0
M  V30 21742 C 1959.32 -0.943809 4.21564 0
M  V30 21743 C 1958.45 -2.03061 4.90856 0
M  V30 21744 C 1957.49 -1.40886 5.95666 0
M  V30 21745 N 1956.63 -2.4355 6.58504 0
M  V30 21746 H 1961.47 0.21363 2.97233 0
M  V30 21747 H 1959 0.117187 1.46632 0
M  V30 21748 H 1960.96 -2.1993 3.54523 0
M  V30 21749 H 1959.59 -2.15326 2.40488 0
M  V30 21750 H 1958.64 -0.175875 3.79993 0
M  V30 21751 H 1959.96 -0.449559 4.9677 0
M  V30 21752 H 1959.11 -2.76523 5.40018 0
M  V30 21753 H 1957.85 -2.5585 4.15201 0
M  V30 21754 H 1956.85 -0.659546 5.4583 0
M  V30 21755 H 1958.08 -0.888766 6.73259 0
M  V30 21756 H 1956.02 -2.95484 5.85683 0
M  V30 21757 H 1955.94 -1.98916 7.29362 0
M  V30 21758 H 1957.21 -3.16604 7.12308 0
M  V30 21759 N 1961.44 -1.57047 0.131923 0
M  V30 21760 C 1962.39 -2.17261 -0.830686 0
M  V30 21761 C 1963.38 -1.12538 -1.26616 0
M  V30 21762 O 1964.59 -1.30818 -1.23639 0
M  V30 21763 H 1960.96 -0.695476 -0.286037 0
M  V30 21764 H 1962.93 -2.96903 -0.29848 0
M  V30 21765 C 1961.68 -2.79677 -2.06582 0
M  V30 21766 H 1961 -3.59965 -1.73969 0
M  V30 21767 H 1962.44 -3.2533 -2.71912 0
M  V30 21768 C 1960.9 -1.77413 -2.86402 0
M  V30 21769 O 1961.43 -1.23537 -3.82232 0
M  V30 21770 N 1959.64 -1.47059 -2.50643 0
M  V30 21771 H 1959.19 -1.91062 -1.7278 0
M  V30 21772 H 1959.14 -0.788806 -3.04344 0
M  V30 21773 N 1962.92 0.141865 -1.5696 0
M  V30 21774 C 1963.88 1.15896 -1.97739 0
M  V30 21775 C 1964.88 1.3558 -0.864556 0
M  V30 21776 O 1966.07 1.32485 -1.13107 0
M  V30 21777 C 1963.2 2.51822 -2.29779 0
M  V30 21778 H 1964.39 0.808993 -2.88782 0
M  V30 21779 H 1961.95 0.385387 -1.51474 0
M  V30 21780 H 1962.68 2.91781 -1.41543 0
M  V30 21781 H 1962.47 2.38894 -3.10921 0
M  V30 21782 H 1963.96 3.25066 -2.62148 0
M  V30 21783 N 1964.39 1.52136 0.411372 0
M  V30 21784 C 1965.32 1.78277 1.50796 0
M  V30 21785 C 1966.31 0.633643 1.57857 0
M  V30 21786 O 1967.49 0.879011 1.73168 0
M  V30 21787 C 1964.62 1.93142 2.88641 0
M  V30 21788 C 1963.57 3.08727 2.96431 0
M  V30 21789 C 1962.9 3.08812 4.36508 0
M  V30 21790 C 1964.2 4.48228 2.68122 0
M  V30 21791 H 1965.89 2.70102 1.29171 0
M  V30 21792 H 1963.44 1.29971 0.619965 0
M  V30 21793 H 1965.39 2.10012 3.65339 0
M  V30 21794 H 1964.12 0.979869 3.11554 0
M  V30 21795 H 1962.78 2.91604 2.22177 0
M  V30 21796 H 1962.42 2.11383 4.56428 0
M  V30 21797 H 1962.12 3.86444 4.42645 0
M  V30 21798 H 1963.65 3.27809 5.15144 0
M  V30 21799 H 1965.06 4.65568 3.34544 0
M  V30 21800 H 1963.46 5.27761 2.85638 0
M  V30 21801 H 1964.53 4.56478 1.63572 0
M  V30 21802 N 1965.87 -0.668464 1.42721 0
M  V30 21803 C 1966.81 -1.79325 1.41131 0
M  V30 21804 C 1967.78 -1.60262 0.274724 0
M  V30 21805 O 1968.97 -1.82651 0.465938 0
M  V30 21806 C 1966.1 -3.16415 1.20826 0
M  V30 21807 C 1965.14 -3.54213 2.37561 0
M  V30 21808 S 1965.97 -3.5592 4.00101 0
M  V30 21809 C 1967.13 -4.95693 3.82151 0
M  V30 21810 H 1967.36 -1.80401 2.36311 0
M  V30 21811 H 1964.9 -0.839714 1.29569 0
M  V30 21812 H 1966.85 -3.95543 1.09798 0
M  V30 21813 H 1965.52 -3.12918 0.272206 0
M  V30 21814 H 1964.71 -4.53876 2.19119 0
M  V30 21815 H 1964.31 -2.82461 2.45136 0
M  V30 21816 H 1966.6 -5.83944 3.43534 0
M  V30 21817 H 1967.55 -5.19183 4.81512 0
M  V30 21818 H 1967.95 -4.68509 3.14896 0
M  V30 21819 N 1967.35 -1.28999 -0.905381 0
M  V30 21820 C 1968.6 -1.1641 -1.65207 0
M  V30 21821 C 1968.92 0.285952 -1.92892 0
M  V30 21822 O 1968.19 1.19672 -1.55098 0
M  V30 21823 H 1966.77 -0.427826 -0.612351 0
M  V30 21824 H 1969.43 -1.61845 -1.08592 0
M  V30 21825 H 1968.53 -1.70993 -2.6109 0
M  V30 21826 N 1968.83 1.11497 -1.11383 0
M  V30 21827 C 1970.05 1.87567 -0.885056 0
M  V30 21828 C 1970.48 1.79581 0.559675 0
M  V30 21829 O 1969.84 1.15779 1.39517 0
M  V30 21830 C 1969.89 3.34354 -1.35053 0
M  V30 21831 O 1968.99 4.09085 -0.521865 0
M  V30 21832 H 1968.33 0.582433 -0.318853 0
M  V30 21833 H 1970.86 1.4094 -1.48314 0
M  V30 21834 H 1970.87 3.85201 -1.34478 0
M  V30 21835 H 1969.55 3.39484 -2.40257 0
M  V30 21836 H 1968.12 3.68144 -0.593669 0
M  V30 21837 N 1970.31 0.904053 1.29092 0
M  V30 21838 C 1971.54 0.547758 1.99517 0
M  V30 21839 C 1971.95 -0.868589 1.67633 0
M  V30 21840 O 1971.31 -1.57394 0.923758 0
M  V30 21841 C 1971.36 0.735683 3.53935 0
M  V30 21842 O 1971.08 2.09629 3.84691 0
M  V30 21843 C 1972.58 0.38492 4.41626 0
M  V30 21844 H 1969.8 0.209762 0.63737 0
M  V30 21845 H 1972.34 1.2146 1.64523 0
M  V30 21846 H 1970.5 0.11597 3.87226 0
M  V30 21847 H 1970.91 2.12883 4.79355 0
M  V30 21848 H 1972.39 0.567226 5.49078 0
M  V30 21849 H 1972.86 -0.678298 4.33931 0
M  V30 21850 H 1973.47 0.981759 4.13813 0
M  V30 21851 N 1971.79 -1.4279 0.666995 0
M  V30 21852 C 1972.72 -2.335 -0.00234362 0
M  V30 21853 C 1973.7 -1.50244 -0.797537 0
M  V30 21854 O 1974.88 -1.7887 -0.756257 0
M  V30 21855 C 1972.01 -3.33774 -0.959795 0
M  V30 21856 C 1970.97 -4.27124 -0.273749 0
M  V30 21857 C 1970.29 -5.17544 -1.3436 0
M  V30 21858 C 1971.59 -5.15462 0.842411 0
M  V30 21859 H 1973.29 -2.89719 0.755212 0
M  V30 21860 H 1970.83 -1.39307 0.364622 0
M  V30 21861 H 1972.78 -3.96139 -1.43707 0
M  V30 21862 H 1971.51 -2.75842 -1.74868 0
M  V30 21863 H 1970.17 -3.66142 0.18321 0
M  V30 21864 H 1969.82 -4.55943 -2.12427 0
M  V30 21865 H 1969.52 -5.80825 -0.889738 0
M  V30 21866 H 1971.04 -5.82784 -1.82196 0
M  V30 21867 H 1972.45 -5.71557 0.4467 0
M  V30 21868 H 1970.85 -5.87535 1.22158 0
M  V30 21869 H 1971.92 -4.54327 1.69454 0
M  V30 21870 N 1973.26 -0.409806 -1.52179 0
M  V30 21871 C 1974.49 0.167702 -2.06721 0
M  V30 21872 C 1974.91 1.38034 -1.27782 0
M  V30 21873 O 1974.27 1.7866 -0.308244 0
M  V30 21874 C 1974.32 0.495862 -3.57174 0
M  V30 21875 O 1973.42 1.58675 -3.80652 0
M  V30 21876 H 1972.76 0.013908 -0.663854 0
M  V30 21877 H 1975.29 -0.583201 -1.96112 0
M  V30 21878 H 1975.3 0.754301 -4.00967 0
M  V30 21879 H 1973.98 -0.390588 -4.14062 0
M  V30 21880 H 1972.56 1.32042 -3.48739 0
M  V30 21881 N 1974.74 1.56975 -0.14025 0
M  V30 21882 C 1975.99 1.95081 0.512469 0
M  V30 21883 C 1976.3 1.02722 1.66456 0
M  V30 21884 O 1977.51 1.3038 2.38146 0
M  V30 21885 C 1975.97 3.46775 0.963057 0
M  V30 21886 C 1975.57 4.47708 -0.161733 0
M  V30 21887 C 1977.32 3.93761 1.58595 0
M  V30 21888 C 1975.22 5.90604 0.306746 0
M  V30 21889 H 1974.15 0.72829 0.195216 0
M  V30 21890 H 1976.81 1.82134 -0.223514 0
M  V30 21891 H 1975.19 3.55032 1.7541 0
M  V30 21892 H 1976.36 4.51141 -0.938529 0
M  V30 21893 H 1974.68 4.10599 -0.692608 0
M  V30 21894 H 1977.27 4.97954 1.94796 0
M  V30 21895 H 1977.62 3.34931 2.47238 0
M  V30 21896 H 1978.15 3.88394 0.859928 0
M  V30 21897 H 1974.89 6.53238 -0.544152 0
M  V30 21898 H 1974.41 5.90546 1.04956 0
M  V30 21899 H 1976.09 6.42509 0.760989 0
M  V30 21900 N 1976.22 -0.133539 1.57033 0
M  V30 21901 C 1977.47 -0.842358 1.83268 0
M  V30 21902 C 1977.78 -1.81722 0.723634 0
M  V30 21903 O 1978.99 -2.57117 0.871969 0
M  V30 21904 C 1977.44 -1.54868 3.24875 0
M  V30 21905 C 1977.05 -0.615546 4.43751 0
M  V30 21906 C 1978.8 -2.24349 3.60372 0
M  V30 21907 C 1976.7 -1.32426 5.76383 0
M  V30 21908 H 1975.63 -0.318314 0.683515 0
M  V30 21909 H 1978.28 -0.0950741 1.83254 0
M  V30 21910 H 1976.67 -2.34207 3.19316 0
M  V30 21911 H 1977.84 0.143586 4.60576 0
M  V30 21912 H 1976.15 -0.0284595 4.1639 0
M  V30 21913 H 1978.75 -2.78037 4.56727 0
M  V30 21914 H 1979.09 -3.01473 2.87088 0
M  V30 21915 H 1979.63 -1.51914 3.67651 0
M  V30 21916 H 1976.37 -0.594603 6.52798 0
M  V30 21917 H 1975.89 -2.05577 5.6347 0
M  V30 21918 H 1977.57 -1.86148 6.19643 0
M  V30 21919 N 1977.7 -1.52352 -0.403298 0
M  V30 21920 C 1978.94 -1.68377 -1.15881 0
M  V30 21921 C 1979.3 -0.407785 -1.8762 0
M  V30 21922 O 1980.5 -0.444209 -2.65104 0
M  V30 21923 C 1978.77 -2.87568 -2.12226 0
M  V30 21924 S 1980.33 -3.24106 -2.95806 0
M  V30 21925 H 1977.15 -0.592856 -0.392482 0
M  V30 21926 H 1979.75 -1.90362 -0.445274 0
M  V30 21927 H 1978.46 -3.78675 -1.5822 0
M  V30 21928 H 1977.99 -2.67874 -2.8811 0
M  V30 21929 H 1980 -2.73181 -4.1423 0
M  V30 21930 N 1979.18 0.660885 -1.43074 0
M  V30 21931 C 1980.42 1.43273 -1.45781 0
M  V30 21932 C 1980.78 1.91846 -0.076922 0
M  V30 21933 O 1981.98 2.68792 0.0213041 0
M  V30 21934 C 1980.25 2.58792 -2.46499 0
M  V30 21935 S 1981.81 3.47434 -2.6802 0
M  V30 21936 H 1978.63 0.489164 -0.515984 0
M  V30 21937 H 1981.23 0.76801 -1.79783 0
M  V30 21938 H 1979.93 2.21369 -3.45578 0
M  V30 21939 H 1979.47 3.30122 -2.13969 0
M  V30 21940 H 1981.48 4.55258 -1.97369 0
M  V30 21941 N 1980.65 1.29477 0.898527 0
M  V30 21942 C 1981.88 1.20529 1.68783 0
M  V30 21943 C 1982.3 -0.230536 1.86682 0
M  V30 21944 O 1981.66 -1.1664 1.38798 0
M  V30 21945 C 1981.71 1.92501 3.04919 0
M  V30 21946 O 1980.81 1.24286 3.93226 0
M  V30 21947 H 1980.16 0.417586 0.516254 0
M  V30 21948 H 1982.69 1.71066 1.1224 0
M  V30 21949 H 1982.7 2.01001 3.55053 0
M  V30 21950 H 1981.37 2.96934 2.9121 0
M  V30 21951 H 1979.95 1.24052 3.51661 0
M  V30 21952 N 1982.13 -1.10905 1.11972 0
M  V30 21953 C 1983.04 -2.20682 0.796029 0
M  V30 21954 C 1984.06 -1.72689 -0.213158 0
M  V30 21955 O 1985.23 -2.01343 -0.047955 0
M  V30 21956 C 1982.3 -3.45797 0.250055 0
M  V30 21957 C 1981.36 -4.08549 1.31855 0
M  V30 21958 C 1980.59 -5.27692 0.798538 0
M  V30 21959 O 1980.82 -5.69202 -0.369435 0
M  V30 21960 O 1979.75 -5.81174 1.5659 0
M  V30 21961 H 1983.58 -2.50794 1.71278 0
M  V30 21962 H 1981.16 -1.19548 0.896024 0
M  V30 21963 H 1983.04 -4.21371 -0.0497791 0
M  V30 21964 H 1981.72 -3.17324 -0.639327 0
M  V30 21965 H 1980.63 -3.34682 1.67148 0
M  V30 21966 H 1981.96 -4.41215 2.18153 0
M  V30 21967 N 1983.61 -0.910886 -1.2861 0
M  V30 21968 C 1984.56 -0.395575 -2.27385 0
M  V30 21969 C 1985.53 0.528415 -1.57471 0
M  V30 21970 O 1986.71 0.451232 -1.85388 0
M  V30 21971 C 1983.85 0.360855 -3.43208 0
M  V30 21972 C 1982.97 -0.59531 -4.27879 0
M  V30 21973 C 1982.1 0.179282 -5.30897 0
M  V30 21974 C 1981.14 -0.770684 -6.07229 0
M  V30 21975 N 1980.28 -0.0297918 -7.02094 0
M  V30 21976 H 1985.12 -1.24293 -2.70842 0
M  V30 21977 H 1982.65 -0.624218 -1.33199 0
M  V30 21978 H 1984.61 0.815583 -4.0915 0
M  V30 21979 H 1983.24 1.17258 -3.0075 0
M  V30 21980 H 1982.29 -1.16857 -3.62006 0
M  V30 21981 H 1983.61 -1.32201 -4.80962 0
M  V30 21982 H 1982.76 0.694702 -6.0271 0
M  V30 21983 H 1981.5 0.93905 -4.78574 0
M  V30 21984 H 1980.5 -1.29751 -5.3427 0
M  V30 21985 H 1981.73 -1.52996 -6.61641 0
M  V30 21986 H 1979.67 0.712039 -6.52124 0
M  V30 21987 H 1979.59 -0.69637 -7.52786 0
M  V30 21988 H 1980.86 0.465527 -7.78109 0
M  V30 21989 N 1985.09 1.42434 -0.674558 0
M  V30 21990 C 1986.32 2.05881 -0.205113 0
M  V30 21991 C 1986.73 1.50677 1.13763 0
M  V30 21992 O 1986.09 0.646479 1.70666 0
M  V30 21993 C 1986.14 3.61262 -0.131194 0
M  V30 21994 O 1985.86 4.14419 -1.42087 0
M  V30 21995 C 1987.36 4.41821 0.361775 0
M  V30 21996 H 1984.58 0.663535 -0.0998083 0
M  V30 21997 H 1987.13 1.82575 -0.921226 0
M  V30 21998 H 1985.28 3.8368 0.535604 0
M  V30 21999 H 1985.69 5.08285 -1.29407 0
M  V30 22000 H 1987.17 5.50809 0.362405 0
M  V30 22001 H 1987.65 4.1639 1.39699 0
M  V30 22002 H 1988.25 4.24421 -0.273278 0
M  V30 22003 N 1986.57 0.417871 1.51959 0
M  V30 22004 C 1987.48 -0.409946 2.3099 0
M  V30 22005 C 1988.49 -1.04559 1.39081 0
M  V30 22006 O 1989.67 -1.0452 1.72155 0
M  V30 22007 C 1986.73 -1.50691 3.12239 0
M  V30 22008 C 1985.79 -0.893424 4.199 0
M  V30 22009 C 1985.03 -1.93812 4.97265 0
M  V30 22010 O 1985.25 -3.15756 4.75031 0
M  V30 22011 O 1984.18 -1.53948 5.81879 0
M  V30 22012 H 1988.01 0.234696 3.02792 0
M  V30 22013 H 1985.6 0.180861 1.48301 0
M  V30 22014 H 1987.48 -2.14355 3.62808 0
M  V30 22015 H 1986.15 -2.136 2.43222 0
M  V30 22016 H 1985.06 -0.219262 3.73457 0
M  V30 22017 H 1986.39 -0.308133 4.91235 0
M  V30 22018 N 1988.04 -1.56898 0.148573 0
M  V30 22019 C 1988.95 -2.2041 -0.80353 0
M  V30 22020 C 1989.97 -1.18886 -1.27052 0
M  V30 22021 O 1991.15 -1.51468 -1.32738 0
M  V30 22022 C 1988.21 -2.81447 -2.02456 0
M  V30 22023 C 1987.27 -3.98102 -1.60665 0
M  V30 22024 C 1986.51 -4.56219 -2.76948 0
M  V30 22025 O 1986.73 -4.13215 -3.93204 0
M  V30 22026 O 1985.66 -5.46455 -2.52329 0
M  V30 22027 H 1989.49 -3.02284 -0.292881 0
M  V30 22028 H 1987.07 -1.49193 -0.0785299 0
M  V30 22029 H 1988.96 -3.20235 -2.73911 0
M  V30 22030 H 1987.63 -2.02585 -2.5247 0
M  V30 22031 H 1986.54 -3.64027 -0.862287 0
M  V30 22032 H 1987.87 -4.78489 -1.15365 0
M  V30 22033 N 1989.52 0.125209 -1.57102 0
M  V30 22034 C 1990.77 0.832627 -1.83712 0
M  V30 22035 C 1991.08 1.81336 -0.733261 0
M  V30 22036 O 1992.29 2.56651 -0.885592 0
M  V30 22037 C 1990.75 1.53143 -3.25692 0
M  V30 22038 C 1990.35 0.592004 -4.44071 0
M  V30 22039 C 1992.1 2.22435 -3.61556 0
M  V30 22040 C 1990.01 1.29368 -5.77077 0
M  V30 22041 H 1988.94 0.314685 -0.685193 0
M  V30 22042 H 1991.59 0.0853544 -1.83301 0
M  V30 22043 H 1989.97 2.32511 -3.20554 0
M  V30 22044 H 1991.14 -0.16801 -4.60494 0
M  V30 22045 H 1989.46 0.00637692 -4.164 0
M  V30 22046 H 1992.05 2.75611 -4.58195 0
M  V30 22047 H 1992.4 2.99947 -2.88683 0
M  V30 22048 H 1992.93 1.49962 -3.68451 0
M  V30 22049 H 1989.67 0.559975 -6.53104 0
M  V30 22050 H 1989.19 2.02586 -5.64552 0
M  V30 22051 H 1990.87 1.8286 -6.20622 0
M  V30 22052 N 1991 1.52564 0.395213 0
M  V30 22053 C 1992.25 1.67552 1.14254 0
M  V30 22054 C 1992.58 0.411135 1.89798 0
M  V30 22055 O 1991.85 -0.590891 1.85307 0
M  V30 22056 C 1992.14 2.90657 2.1258 0
M  V30 22057 C 1991.99 4.27181 1.40841 0
M  V30 22058 C 1993.31 3.09301 3.13083 0
M  V30 22059 H 1990.43 0.609735 0.413995 0
M  V30 22060 H 1993.07 1.85148 0.426634 0
M  V30 22061 H 1991.22 2.75787 2.73631 0
M  V30 22062 H 1992.89 4.53808 0.82802 0
M  V30 22063 H 1991.14 4.27946 0.71028 0
M  V30 22064 H 1991.81 5.09393 2.12656 0
M  V30 22065 H 1994.28 3.23162 2.62118 0
M  V30 22066 H 1993.16 3.96925 3.79133 0
M  V30 22067 H 1993.42 2.23237 3.81599 0
M  V30 22068 N 1992.48 -0.653289 1.43422 0
M  V30 22069 C 1993.43 -1.78742 1.48842 0
M  V30 22070 C 1994.42 -1.65486 0.362035 0
M  V30 22071 O 1995.63 -1.71834 0.536023 0
M  V30 22072 H 1992 -0.589724 0.466614 0
M  V30 22073 H 1993.97 -1.7129 2.4434 0
M  V30 22074 C 1992.72 -3.17 1.4285 0
M  V30 22075 H 1992.04 -3.27838 2.28828 0
M  V30 22076 H 1993.48 -3.96314 1.50704 0
M  V30 22077 C 1991.94 -3.36583 0.146093 0
M  V30 22078 O 1992.47 -3.93802 -0.792631 0
M  V30 22079 N 1990.68 -2.90545 0.0563076 0
M  V30 22080 H 1990.23 -2.44166 0.82102 0
M  V30 22081 H 1990.18 -3.04024 -0.801035 0
M  V30 22082 N 1993.96 -1.29952 -0.891648 0
M  V30 22083 C 1994.92 -1.15756 -1.97821 0
M  V30 22084 C 1995.92 -0.0906975 -1.60544 0
M  V30 22085 O 1997.11 -0.338283 -1.70884 0
M  V30 22086 C 1994.24 -0.771976 -3.32044 0
M  V30 22087 H 1995.43 -2.12281 -2.11842 0
M  V30 22088 H 1992.99 -1.13253 -1.07719 0
M  V30 22089 H 1993.72 0.193059 -3.23725 0
M  V30 22090 H 1993.51 -1.54291 -3.60467 0
M  V30 22091 H 1995 -0.695941 -4.1176 0
M  V30 22092 N 1995.44 1.1031 -1.12559 0
M  V30 22093 C 1996.37 2.18738 -0.817073 0
M  V30 22094 C 1997.35 1.68675 0.219681 0
M  V30 22095 O 1998.53 1.94033 0.0805889 0
M  V30 22096 C 1995.66 3.46231 -0.272317 0
M  V30 22097 C 1994.62 4.09575 -1.24228 0
M  V30 22098 C 1993.94 5.31784 -0.557693 0
M  V30 22099 C 1995.24 4.53135 -2.59743 0
M  V30 22100 H 1996.94 2.44802 -1.72372 0
M  V30 22101 H 1994.48 1.17658 -0.830221 0
M  V30 22102 H 1996.43 4.21377 -0.0442049 0
M  V30 22103 H 1995.16 3.19661 0.669677 0
M  V30 22104 H 1993.82 3.36437 -1.45622 0
M  V30 22105 H 1993.47 5.0149 0.389484 0
M  V30 22106 H 1993.17 5.75117 -1.20473 0
M  V30 22107 H 1994.69 6.0966 -0.338649 0
M  V30 22108 H 1996.1 5.19548 -2.42369 0
M  V30 22109 H 1994.5 5.07322 -3.20537 0
M  V30 22110 H 1995.57 3.65989 -3.18088 0
M  V30 22111 N 1996.91 0.917694 1.28125 0
M  V30 22112 C 1997.86 0.407628 2.27172 0
M  V30 22113 C 1998.83 -0.520056 1.57749 0
M  V30 22114 O 2000.02 -0.441394 1.85624 0
M  V30 22115 C 1997.16 -0.342648 3.43395 0
M  V30 22116 C 1996.27 0.617993 4.27557 0
M  V30 22117 C 1995.4 -0.151124 5.30985 0
M  V30 22118 C 1994.44 0.802876 6.06812 0
M  V30 22119 N 1993.58 0.0670251 7.02068 0
M  V30 22120 H 1998.42 1.25728 2.70179 0
M  V30 22121 H 1995.96 0.631273 1.32866 0
M  V30 22122 H 1997.91 -0.793873 4.09577 0
M  V30 22123 H 1996.54 -1.15661 3.01367 0
M  V30 22124 H 1995.6 1.18775 3.61382 0
M  V30 22125 H 1996.91 1.3475 4.80254 0
M  V30 22126 H 1996.06 -0.662729 6.03069 0
M  V30 22127 H 1994.8 -0.913657 4.79065 0
M  V30 22128 H 1993.81 1.32582 5.33575 0
M  V30 22129 H 1995.03 1.56503 6.6082 0
M  V30 22130 H 1992.98 -0.677445 6.52493 0
M  V30 22131 H 1992.89 0.736283 7.52406 0
M  V30 22132 H 1994.16 -0.424255 7.78345 0
M  V30 22133 N 1998.39 -1.42074 0.682102 0
M  V30 22134 C 1999.32 -2.29179 -0.0307054 0
M  V30 22135 C 2000.34 -1.44071 -0.758119 0
M  V30 22136 O 2001.53 -1.67715 -0.611062 0
M  V30 22137 C 1998.63 -3.21654 -1.06734 0
M  V30 22138 C 1997.8 -4.35453 -0.41228 0
M  V30 22139 C 1996.86 -5.08596 -1.34969 0
M  V30 22140 O 1995.88 -5.6286 -0.847209 0
M  V30 22141 N 1997.09 -5.14794 -2.68267 0
M  V30 22142 H 1999.85 -2.90995 0.71706 0
M  V30 22143 H 1997.41 -1.5308 0.52708 0
M  V30 22144 H 1999.4 -3.67453 -1.69589 0
M  V30 22145 H 1997.97 -2.61239 -1.71677 0
M  V30 22146 H 1997.19 -3.92207 0.395908 0
M  V30 22147 H 1998.48 -5.08781 0.0437707 0
M  V30 22148 H 1997.88 -4.72131 -3.11623 0
M  V30 22149 H 1996.44 -5.64215 -3.26351 0
M  V30 22150 N 1999.87 -0.425924 -1.51735 0
M  V30 22151 C 2000.82 0.391248 -2.2746 0
M  V30 22152 C 2001.79 1.02669 -1.30569 0
M  V30 22153 O 2002.97 1.04777 -1.59457 0
M  V30 22154 C 2000.11 1.4928 -3.11142 0
M  V30 22155 C 1999.22 0.876622 -4.23012 0
M  V30 22156 C 1998.36 1.95227 -4.94024 0
M  V30 22157 C 1997.4 1.31392 -5.97832 0
M  V30 22158 N 1996.54 2.33043 -6.62296 0
M  V30 22159 H 2001.38 -0.26089 -2.96856 0
M  V30 22160 H 1998.91 -0.1405 -1.46427 0
M  V30 22161 H 2000.87 2.14262 -3.57977 0
M  V30 22162 H 1999.5 2.11473 -2.43884 0
M  V30 22163 H 1998.55 0.115399 -3.80225 0
M  V30 22164 H 1999.86 0.370471 -4.97422 0
M  V30 22165 H 1999.02 2.67897 -5.44349 0
M  V30 22166 H 1997.76 2.49212 -4.19219 0
M  V30 22167 H 1996.76 0.572626 -5.4681 0
M  V30 22168 H 1997.99 0.781544 -6.74588 0
M  V30 22169 H 1995.93 2.86129 -5.9031 0
M  V30 22170 H 1995.85 1.87287 -7.32434 0
M  V30 22171 H 1997.12 3.05231 -7.17255 0
M  V30 22172 N 2001.35 1.56817 -0.156891 0
M  V30 22173 C 2002.3 2.18555 0.796017 0
M  V30 22174 C 2003.29 1.14538 1.24809 0
M  V30 22175 O 2004.5 1.32768 1.21542 0
M  V30 22176 H 2000.87 0.699939 0.274936 0
M  V30 22177 H 2002.84 2.97341 0.251207 0
M  V30 22178 C 2001.59 2.82928 2.02106 0
M  V30 22179 H 2000.91 3.62687 1.6822 0
M  V30 22180 H 2002.35 3.29615 2.66702 0
M  V30 22181 C 2000.81 1.81947 2.83543 0
M  V30 22182 O 2001.34 1.29602 3.80219 0
M  V30 22183 N 1999.55 1.51028 2.48272 0
M  V30 22184 H 1999.1 1.93787 1.69719 0
M  V30 22185 H 1999.05 0.837124 3.0305 0
M  V30 22186 N 2002.83 -0.116876 1.57166 0
M  V30 22187 C 2004.1 -0.854715 1.75937 0
M  V30 22188 C 2004.48 -1.97969 0.732908 0
M  V30 22189 O 2003.83 -2.27207 -0.242738 0
M  V30 22190 C 2004.04 -1.36944 3.2101 0
M  V30 22191 C 2005.39 -1.82093 3.83572 0
M  V30 22192 O 2006.41 -1.46618 3.24625 0
M  V30 22193 O 2005.27 -2.47614 4.87186 0
M  V30 22194 H 2002.37 -0.40605 0.720453 0
M  V30 22195 H 2004.91 -0.100451 1.69402 0
M  V30 22196 H 2003.68 -0.56241 3.87237 0
M  V30 22197 H 2003.31 -2.18635 3.32091 0
M  V30 22198 N 2004.3 -1.52772 -0.387116 0
M  V30 22199 C 2005.55 -1.67131 -1.12916 0
M  V30 22200 C 2005.87 -0.418501 -1.9107 0
M  V30 22201 O 2007.07 -0.442261 -2.67874 0
M  V30 22202 C 2005.53 -2.95368 -2.05635 0
M  V30 22203 C 2005.14 -4.27835 -1.32895 0
M  V30 22204 C 2006.88 -3.19093 -2.79964 0
M  V30 22205 C 2004.79 -5.47177 -2.2439 0
M  V30 22206 H 2003.72 -0.622655 -0.425225 0
M  V30 22207 H 2006.37 -1.79268 -0.391801 0
M  V30 22208 H 2004.75 -2.76981 -2.83015 0
M  V30 22209 H 2005.92 -4.56781 -0.607276 0
M  V30 22210 H 2004.24 -4.10385 -0.705181 0
M  V30 22211 H 2006.84 -4.05436 -3.48605 0
M  V30 22212 H 2007.18 -2.34244 -3.44145 0
M  V30 22213 H 2007.71 -3.38054 -2.09676 0
M  V30 22214 H 2004.45 -6.3444 -1.64822 0
M  V30 22215 H 2003.97 -5.22541 -2.94468 0
M  V30 22216 H 2005.65 -5.81126 -2.84432 0
M  V30 22217 N 2005.78 0.645673 -1.43767 0
M  V30 22218 C 2007.03 1.40137 -1.45067 0
M  V30 22219 C 2007.34 1.9543 -0.0815041 0
M  V30 22220 O 2008.55 2.71486 0.0280161 0
M  V30 22221 C 2007.01 2.53651 -2.55322 0
M  V30 22222 C 2006.61 2.04934 -3.98379 0
M  V30 22223 C 2008.36 3.30964 -2.65826 0
M  V30 22224 C 2006.26 3.15703 -5.00086 0
M  V30 22225 H 2005.19 0.52657 -0.539667 0
M  V30 22226 H 2007.85 0.696144 -1.69782 0
M  V30 22227 H 2006.23 3.26681 -2.23821 0
M  V30 22228 H 2007.4 1.38865 -4.39378 0
M  V30 22229 H 2005.72 1.40478 -3.91988 0
M  V30 22230 H 2008.31 4.13513 -3.38986 0
M  V30 22231 H 2008.66 3.79492 -1.71149 0
M  V30 22232 H 2009.19 2.65018 -2.96665 0
M  V30 22233 H 2005.93 2.72136 -5.96341 0
M  V30 22234 H 2005.45 3.80459 -4.63693 0
M  V30 22235 H 2007.13 3.80714 -5.23131 0
M  V30 22236 N 2007.26 1.30423 0.884744 0
M  V30 22237 C 2008.21 1.1673 2.01188 0
M  V30 22238 C 2009.2 0.0791439 1.69215 0
M  V30 22239 O 2010.41 0.24001 1.78393 0
M  V30 22240 H 2006.78 0.361014 0.659676 0
M  V30 22241 H 2008.75 2.12124 2.09871 0
M  V30 22242 C 2007.5 0.876173 3.3648 0
M  V30 22243 H 2006.83 1.70557 3.61594 0
M  V30 22244 H 2008.27 0.820477 4.15986 0
M  V30 22245 C 2006.72 -0.420908 3.3426 0
M  V30 22246 O 2007.25 -1.44235 3.74912 0
M  V30 22247 N 2005.46 -0.432149 2.87369 0
M  V30 22248 H 2005.01 0.399559 2.54482 0
M  V30 22249 H 2004.97 -1.29995 2.86267 0
M  V30 22250 N 2008.74 -1.09711 1.13142 0
M  V30 22251 C 2009.98 -1.81827 0.891354 0
M  V30 22252 C 2010.31 -1.8557 -0.582598 0
M  V30 22253 O 2009.57 -1.31754 -1.44704 0
M  V30 22254 C 2009.87 -3.27951 1.42067 0
M  V30 22255 C 2009.53 -3.44346 2.91096 0
M  V30 22256 C 2008.19 -3.48528 3.31786 0
M  V30 22257 C 2010.55 -3.49124 3.86991 0
M  V30 22258 C 2007.87 -3.55064 4.67061 0
M  V30 22259 C 2010.23 -3.57194 5.22106 0
M  V30 22260 C 2008.89 -3.59644 5.62328 0
M  V30 22261 H 2008.16 -0.665353 0.32617 0
M  V30 22262 H 2010.81 -1.29268 1.41287 0
M  V30 22263 H 2009.11 -3.83128 0.819786 0
M  V30 22264 H 2010.81 -3.82276 1.21103 0
M  V30 22265 H 2007.4 -3.41773 2.58629 0
M  V30 22266 H 2011.58 -3.45136 3.56643 0
M  V30 22267 H 2006.84 -3.55246 4.97604 0
M  V30 22268 H 2011.01 -3.59836 5.9623 0
M  V30 22269 H 2008.64 -3.64461 6.67137 0
M  V30 22270 N 2010.22 -0.924476 -1.27637 0
M  V30 22271 C 2011.46 -0.562107 -1.94126 0
M  V30 22272 C 2011.79 0.898999 -1.7304 0
M  V30 22273 O 2011.06 1.63686 -1.07627 0
M  V30 22274 H 2009.64 -0.204894 -0.718351 0
M  V30 22275 H 2012.3 -1.17617 -1.5541 0
M  V30 22276 H 2011.39 -0.765644 -3.02563 0
M  V30 22277 N 2011.69 1.41711 -0.689627 0
M  V30 22278 C 2012.97 1.95052 -0.146379 0
M  V30 22279 C 2013.35 1.62932 1.34225 0
M  V30 22280 O 2012.7 0.933198 2.08575 0
M  V30 22281 C 2012.91 3.46324 -0.431327 0
M  V30 22282 C 2014.26 4.23106 -0.355847 0
M  V30 22283 O 2015.28 3.54316 -0.365905 0
M  V30 22284 O 2014.14 5.45615 -0.310824 0
M  V30 22285 H 2011.23 0.82692 -0.0115 0
M  V30 22286 H 2013.78 1.5146 -0.765378 0
M  V30 22287 H 2012.55 3.62963 -1.46197 0
M  V30 22288 H 2012.18 3.96997 0.218942 0
M  V30 22289 N 2013.17 0.433965 1.51507 0
M  V30 22290 C 2014.42 -0.135114 2.01247 0
M  V30 22291 C 2014.73 -1.4408 1.32289 0
M  V30 22292 O 2015.94 -2.09262 1.72979 0
M  V30 22293 C 2014.4 -0.291335 3.58719 0
M  V30 22294 C 2014 1.00372 4.36611 0
M  V30 22295 C 2015.75 -0.814365 4.16615 0
M  V30 22296 C 2013.66 0.813324 5.85781 0
M  V30 22297 H 2012.59 -0.0542694 0.752044 0
M  V30 22298 H 2015.24 0.563211 1.74643 0
M  V30 22299 H 2013.62 -1.05258 3.81755 0
M  V30 22300 H 2014.79 1.77304 4.25323 0
M  V30 22301 H 2013.11 1.45503 3.90151 0
M  V30 22302 H 2015.7 -0.973246 5.25768 0
M  V30 22303 H 2016.05 -1.79589 3.75571 0
M  V30 22304 H 2016.58 -0.111519 3.97644 0
M  V30 22305 H 2013.32 1.76713 6.31231 0
M  V30 22306 H 2012.84 0.083744 5.99742 0
M  V30 22307 H 2014.52 0.465195 6.45325 0
M  V30 22308 N 2014.65 -1.56732 0.165206 0
M  V30 22309 C 2015.89 -1.98591 -0.483841 0
M  V30 22310 C 2016.25 -1.04869 -1.6083 0
M  V30 22311 O 2017.46 -1.35844 -2.31948 0
M  V30 22312 C 2015.73 -3.44262 -0.960121 0
M  V30 22313 S 2017.29 -4.08149 -1.61121 0
M  V30 22314 H 2014.1 -0.693711 -0.155842 0
M  V30 22315 H 2016.71 -1.93747 0.261223 0
M  V30 22316 H 2015.41 -4.1019 -0.131229 0
M  V30 22317 H 2014.94 -3.52859 -1.73937 0
M  V30 22318 H 2016.96 -4.02695 -2.89915 0
M  V30 22319 N 2016.13 0.10854 -1.57226 0
M  V30 22320 C 2017.08 1.15155 -2.02094 0
M  V30 22321 C 2018.07 1.42263 -0.919651 0
M  V30 22322 O 2019.28 1.42102 -1.10485 0
M  V30 22323 H 2015.65 0.388515 -0.643863 0
M  V30 22324 H 2017.62 0.746707 -2.88906 0
M  V30 22325 C 2016.37 2.46727 -2.44992 0
M  V30 22326 H 2015.69 2.26708 -3.29307 0
M  V30 22327 H 2017.13 3.18242 -2.80175 0
M  V30 22328 C 2015.59 3.10059 -1.31776 0
M  V30 22329 O 2016.12 3.96577 -0.639471 0
M  V30 22330 N 2014.33 2.70099 -1.07215 0
M  V30 22331 H 2013.88 1.99837 -1.62552 0
M  V30 22332 H 2013.83 3.12802 -0.316602 0
M  V30 22333 N 2017.61 1.52975 0.379009 0
M  V30 22334 C 2018.85 1.68755 1.12471 0
M  V30 22335 C 2019.19 0.431242 1.89351 0
M  V30 22336 O 2018.46 -0.571204 1.85923 0
M  V30 22337 C 2018.74 2.92896 2.09485 0
M  V30 22338 C 2018.6 4.28651 1.36302 0
M  V30 22339 C 2019.92 3.12604 3.09785 0
M  V30 22340 H 2017.03 0.614092 0.407504 0
M  V30 22341 H 2019.68 1.8559 0.406972 0
M  V30 22342 H 2017.83 2.78673 2.70691 0
M  V30 22343 H 2019.5 4.54661 0.779841 0
M  V30 22344 H 2017.74 4.28675 0.664851 0
M  V30 22345 H 2018.41 5.1162 2.07241 0
M  V30 22346 H 2020.89 3.25924 2.58675 0
M  V30 22347 H 2019.76 4.00924 3.74901 0
M  V30 22348 H 2020.03 2.27272 3.79209 0
M  V30 22349 N 2019.08 -0.63804 1.44107 0
M  V30 22350 C 2020.36 -1.39606 1.37002 0
M  V30 22351 C 2020.74 -2.11085 0.0252978 0
M  V30 22352 O 2020.09 -2.0585 -0.991871 0
M  V30 22353 C 2020.3 -2.3682 2.56353 0
M  V30 22354 C 2021.65 -3.00362 3.00113 0
M  V30 22355 O 2022.67 -2.47147 2.56509 0
M  V30 22356 O 2021.53 -3.96881 3.75696 0
M  V30 22357 H 2018.62 -0.624471 0.542186 0
M  V30 22358 H 2021.17 -0.663674 1.56184 0
M  V30 22359 H 2019.94 -1.83054 3.45842 0
M  V30 22360 H 2019.57 -3.17487 2.39349 0
M  V30 22361 N 2020.56 -1.3089 -0.877815 0
M  V30 22362 C 2021.81 -1.20303 -1.63264 0
M  V30 22363 C 2022.14 0.240114 -1.9271 0
M  V30 22364 O 2021.42 1.17082 -1.55313 0
M  V30 22365 C 2021.7 -2.03934 -2.96788 0
M  V30 22366 C 2021.55 -3.56506 -2.74269 0
M  V30 22367 C 2022.87 -1.88268 -3.97798 0
M  V30 22368 H 2019.99 -0.438382 -0.592445 0
M  V30 22369 H 2022.63 -1.60598 -1.01529 0
M  V30 22370 H 2020.78 -1.69698 -3.49478 0
M  V30 22371 H 2022.45 -4.00838 -2.28312 0
M  V30 22372 H 2020.7 -3.8033 -2.08643 0
M  V30 22373 H 2021.37 -4.1032 -3.69244 0
M  V30 22374 H 2023.84 -2.18214 -3.54291 0
M  V30 22375 H 2022.72 -2.49098 -4.89123 0
M  V30 22376 H 2022.98 -0.843802 -4.33973 0
M  V30 22377 N 2022.04 1.0911 -1.13723 0
M  V30 22378 C 2023.27 1.85108 -0.924265 0
M  V30 22379 C 2023.68 1.81295 0.527025 0
M  V30 22380 O 2023.04 1.21144 1.36493 0
M  V30 22381 C 2023.09 3.3295 -1.40807 0
M  V30 22382 O 2022.81 3.36738 -2.80249 0
M  V30 22383 C 2024.31 4.25778 -1.23401 0
M  V30 22384 H 2021.53 0.584594 -0.329379 0
M  V30 22385 H 2024.08 1.37847 -1.51058 0
M  V30 22386 H 2022.23 3.77627 -0.864679 0
M  V30 22387 H 2022.65 4.28973 -3.01799 0
M  V30 22388 H 2024.12 5.27655 -1.62123 0
M  V30 22389 H 2024.6 4.38847 -0.176058 0
M  V30 22390 H 2025.2 3.8692 -1.76559 0
M  V30 22391 N 2023.52 0.931232 1.27145 0
M  V30 22392 C 2024.45 0.39037 2.25851 0
M  V30 22393 C 2025.46 -0.480869 1.55536 0
M  V30 22394 O 2026.65 -0.292921 1.7608 0
M  V30 22395 C 2023.75 -0.458971 3.35778 0
M  V30 22396 C 2022.93 0.393796 4.35624 0
M  V30 22397 C 2021.98 -0.393477 5.24727 0
M  V30 22398 O 2021.01 0.20005 5.68848 0
M  V30 22399 N 2022.21 -1.69245 5.55281 0
M  V30 22400 H 2024.98 1.23887 2.72896 0
M  V30 22401 H 2022.54 0.799038 1.40808 0
M  V30 22402 H 2024.53 -0.992799 3.92334 0
M  V30 22403 H 2023.1 -1.20824 2.88306 0
M  V30 22404 H 2022.32 1.1089 3.78282 0
M  V30 22405 H 2023.61 0.976663 4.99338 0
M  V30 22406 H 2023.01 -2.19693 5.21298 0
M  V30 22407 H 2021.56 -2.17273 6.14521 0
M  V30 22408 N 2025 -1.41343 0.697132 0
M  V30 22409 C 2025.93 -2.33452 0.0471857 0
M  V30 22410 C 2026.91 -1.51902 -0.765488 0
M  V30 22411 O 2028.09 -1.80434 -0.718146 0
M  V30 22412 C 2025.22 -3.35735 -0.888781 0
M  V30 22413 C 2024.18 -4.27608 -0.183088 0
M  V30 22414 C 2023.5 -5.20277 -1.23352 0
M  V30 22415 C 2024.8 -5.13559 0.951558 0
M  V30 22416 H 2026.5 -2.88052 0.816496 0
M  V30 22417 H 2024.04 -1.38502 0.394089 0
M  V30 22418 H 2026 -3.99098 -1.35272 0
M  V30 22419 H 2024.72 -2.79489 -1.68977 0
M  V30 22420 H 2023.38 -3.65671 0.260833 0
M  V30 22421 H 2023.03 -4.60346 -2.02708 0
M  V30 22422 H 2022.73 -5.82581 -0.766336 0
M  V30 22423 H 2024.25 -5.86517 -1.69793 0
M  V30 22424 H 2025.67 -5.70481 0.567835 0
M  V30 22425 H 2024.06 -5.84812 1.34593 0
M  V30 22426 H 2025.13 -4.50631 1.79053 0
M  V30 22427 N 2026.48 -0.441993 -1.51275 0
M  V30 22428 C 2027.71 0.121275 -2.06244 0
M  V30 22429 C 2028.11 1.36608 -1.309 0
M  V30 22430 O 2027.46 1.80072 -0.363267 0
M  V30 22431 C 2027.52 0.504271 -3.55946 0
M  V30 22432 C 2027.18 -0.634389 -4.52575 0
M  V30 22433 C 2028.18 -1.5079 -4.97552 0
M  V30 22434 C 2025.86 -0.816445 -4.9562 0
M  V30 22435 C 2027.86 -2.54813 -5.84251 0
M  V30 22436 C 2025.55 -1.85994 -5.82108 0
M  V30 22437 C 2026.54 -2.72417 -6.26321 0
M  V30 22438 O 2026.23 -3.74974 -7.11091 0
M  V30 22439 H 2025.96 0.00928409 -0.675936 0
M  V30 22440 H 2028.52 -0.62124 -1.9578 0
M  V30 22441 H 2026.75 1.29956 -3.64209 0
M  V30 22442 H 2028.44 0.999234 -3.93408 0
M  V30 22443 H 2029.2 -1.37881 -4.64988 0
M  V30 22444 H 2025.08 -0.153327 -4.60745 0
M  V30 22445 H 2028.63 -3.22302 -6.18682 0
M  V30 22446 H 2024.52 -1.98922 -6.14085 0
M  V30 22447 H 2025.29 -3.71611 -7.29279 0
M  V30 22448 N 2027.95 1.56642 -0.173515 0
M  V30 22449 C 2028.89 2.15251 0.787381 0
M  V30 22450 C 2029.9 1.10866 1.19217 0
M  V30 22451 O 2031.09 1.38044 1.13164 0
M  V30 22452 C 2028.19 2.6821 2.07163 0
M  V30 22453 C 2027.36 3.97275 1.83006 0
M  V30 22454 C 2026.42 4.35276 2.95671 0
M  V30 22455 O 2025.45 5.03111 2.6621 0
M  V30 22456 N 2026.65 3.97014 4.23509 0
M  V30 22457 H 2029.41 2.98329 0.28631 0
M  V30 22458 H 2026.97 1.61897 0.00919258 0
M  V30 22459 H 2028.97 2.90629 2.81632 0
M  V30 22460 H 2027.54 1.89708 2.48454 0
M  V30 22461 H 2026.76 3.83211 0.924298 0
M  V30 22462 H 2028.04 4.81564 1.64237 0
M  V30 22463 H 2027.44 3.42407 4.50304 0
M  V30 22464 H 2026 4.24429 4.94675 0
M  V30 22465 N 2029.43 -0.1002 1.57281 0
M  V30 22466 C 2030.68 -0.804623 1.85828 0
M  V30 22467 C 2031.01 -1.78981 0.761313 0
M  V30 22468 O 2030.26 -1.94153 -0.245591 0
M  V30 22469 C 2030.56 -1.57263 3.20941 0
M  V30 22470 C 2030.23 -0.730033 4.44951 0
M  V30 22471 C 2028.89 -0.497735 4.78619 0
M  V30 22472 C 2031.24 -0.143946 5.21001 0
M  V30 22473 C 2028.57 0.330597 5.85768 0
M  V30 22474 C 2030.92 0.671681 6.29024 0
M  V30 22475 C 2029.58 0.914119 6.61211 0
M  V30 22476 H 2028.85 -0.294433 0.679993 0
M  V30 22477 H 2031.5 -0.0662872 1.91385 0
M  V30 22478 H 2029.81 -2.3824 3.11045 0
M  V30 22479 H 2031.5 -2.12197 3.40255 0
M  V30 22480 H 2028.09 -0.921196 4.18583 0
M  V30 22481 H 2032.28 -0.310588 4.95327 0
M  V30 22482 H 2027.53 0.527461 6.09121 0
M  V30 22483 H 2031.71 1.13271 6.87126 0
M  V30 22484 H 2029.33 1.55777 7.44068 0
M  V30 22485 N 2030.91 -1.53174 -0.370891 0
M  V30 22486 C 2032.16 -1.69098 -1.11409 0
M  V30 22487 C 2032.48 -0.440066 -1.89456 0
M  V30 22488 O 2031.74 0.577901 -1.86973 0
M  V30 22489 C 2032.04 -2.88881 -2.10435 0
M  V30 22490 C 2031.7 -4.25602 -1.48908 0
M  V30 22491 C 2030.37 -4.62782 -1.31856 0
M  V30 22492 C 2032.72 -5.10648 -1.04346 0
M  V30 22493 C 2030.05 -5.8265 -0.688168 0
M  V30 22494 C 2032.4 -6.31157 -0.427093 0
M  V30 22495 C 2031.06 -6.67054 -0.244019 0
M  V30 22496 H 2030.33 -0.618775 -0.407674 0
M  V30 22497 H 2032.98 -1.8735 -0.396513 0
M  V30 22498 H 2031.28 -2.65119 -2.88477 0
M  V30 22499 H 2032.98 -2.98396 -2.67882 0
M  V30 22500 H 2029.57 -3.96324 -1.63173 0
M  V30 22501 H 2033.76 -4.82477 -1.16315 0
M  V30 22502 H 2029.01 -6.09057 -0.53469 0
M  V30 22503 H 2033.19 -6.96361 -0.0735755 0
M  V30 22504 H 2030.81 -7.598 0.246525 0
M  V30 22505 N 2032.39 0.630389 -1.44443 0
M  V30 22506 C 2033.33 1.74232 -1.51367 0
M  V30 22507 C 2034.3 1.62122 -0.361324 0
M  V30 22508 O 2035.49 1.82035 -0.571662 0
M  V30 22509 C 2032.63 3.12481 -1.46457 0
M  V30 22510 C 2031.74 3.35561 -2.72071 0
M  V30 22511 C 2030.88 4.63787 -2.58989 0
M  V30 22512 C 2029.92 4.80048 -3.79764 0
M  V30 22513 N 2029.05 5.99551 -3.65354 0
M  V30 22514 H 2033.89 1.6765 -2.46368 0
M  V30 22515 H 2031.43 0.817807 -1.22272 0
M  V30 22516 H 2033.39 3.92435 -1.41601 0
M  V30 22517 H 2032.02 3.18076 -0.550216 0
M  V30 22518 H 2031.07 2.49543 -2.8711 0
M  V30 22519 H 2032.38 3.43456 -3.61717 0
M  V30 22520 H 2031.54 5.51902 -2.51971 0
M  V30 22521 H 2030.28 4.58251 -1.66905 0
M  V30 22522 H 2029.28 3.90362 -3.87166 0
M  V30 22523 H 2030.51 4.87397 -4.72886 0
M  V30 22524 H 2028.45 5.95104 -2.76021 0
M  V30 22525 H 2028.37 6.08505 -4.48617 0
M  V30 22526 H 2029.64 6.90226 -3.62228 0
M  V30 22527 N 2033.87 1.31354 0.870861 0
M  V30 22528 C 2035.09 1.23948 1.65664 0
M  V30 22529 C 2035.51 -0.195353 1.87787 0
M  V30 22530 O 2034.87 -1.12708 1.43538 0
M  V30 22531 C 2034.92 1.97912 3.02511 0
M  V30 22532 O 2034.64 3.35795 2.81377 0
M  V30 22533 C 2036.14 1.97336 3.96955 0
M  V30 22534 H 2033.36 0.428328 0.516504 0
M  V30 22535 H 2035.9 1.73214 1.08706 0
M  V30 22536 H 2034.06 1.52409 3.5616 0
M  V30 22537 H 2034.47 3.73444 3.68293 0
M  V30 22538 H 2035.95 2.53601 4.90297 0
M  V30 22539 H 2036.42 0.955651 4.28677 0
M  V30 22540 H 2037.03 2.42714 3.49242 0
M  V30 22541 N 2035.34 -1.08505 1.143 0
M  V30 22542 C 2036.57 -1.84347 0.932715 0
M  V30 22543 C 2036.98 -1.81853 -0.522138 0
M  V30 22544 O 2036.32 -1.21982 -1.37354 0
M  V30 22545 C 2036.39 -3.32995 1.3548 0
M  V30 22546 C 2036.05 -3.59226 2.82499 0
M  V30 22547 C 2037.05 -3.54154 3.80619 0
M  V30 22548 C 2034.73 -3.87269 3.19888 0
M  V30 22549 C 2036.73 -3.76754 5.14135 0
M  V30 22550 C 2034.41 -4.09522 4.5358 0
M  V30 22551 C 2035.41 -4.04258 5.50513 0
M  V30 22552 O 2035.1 -4.25928 6.81792 0
M  V30 22553 H 2034.83 -0.58885 0.332012 0
M  V30 22554 H 2037.39 -1.37951 1.5218 0
M  V30 22555 H 2035.62 -3.80144 0.70904 0
M  V30 22556 H 2037.3 -3.90271 1.11548 0
M  V30 22557 H 2038.07 -3.32505 3.5308 0
M  V30 22558 H 2033.95 -3.90487 2.45033 0
M  V30 22559 H 2037.49 -3.72561 5.89783 0
M  V30 22560 H 2033.39 -4.30655 4.80839 0
M  V30 22561 H 2034.16 -4.43339 6.88036 0
M  V30 22562 N 2036.82 -0.937962 -1.26649 0
M  V30 22563 C 2038.1 -0.501822 -1.89053 0
M  V30 22564 C 2038.48 1.02047 -1.84796 0
M  V30 22565 O 2037.83 1.87909 -1.3001 0
M  V30 22566 C 2038.04 -1.05952 -3.32528 0
M  V30 22567 C 2039.38 -1.12622 -4.09391 0
M  V30 22568 O 2040.41 -1.00988 -3.41584 0
M  V30 22569 O 2039.27 -1.30677 -5.30646 0
M  V30 22570 H 2036.36 -0.163048 -0.810768 0
M  V30 22571 H 2038.91 -1.03032 -1.34843 0
M  V30 22572 H 2037.68 -2.10319 -3.29972 0
M  V30 22573 H 2037.3 -0.513282 -3.94273 0
M  V30 22574 N 2038.3 1.40971 -0.704618 0
M  V30 22575 C 2039.55 2.00309 -0.236478 0
M  V30 22576 C 2039.86 1.56482 1.17358 0
M  V30 22577 O 2041.07 2.08442 1.73966 0
M  V30 22578 C 2039.52 3.57974 -0.371877 0
M  V30 22579 C 2039.13 4.10779 -1.78788 0
M  V30 22580 C 2040.88 4.24485 0.0360284 0
M  V30 22581 C 2038.78 5.60909 -1.87445 0
M  V30 22582 H 2037.71 0.749233 -0.0846557 0
M  V30 22583 H 2040.36 1.61342 -0.874125 0
M  V30 22584 H 2038.75 3.94587 0.334172 0
M  V30 22585 H 2039.92 3.85565 -2.52342 0
M  V30 22586 H 2038.23 3.56826 -2.14626 0
M  V30 22587 H 2040.83 5.34699 -0.00808813 0
M  V30 22588 H 2041.17 4.02149 1.07621 0
M  V30 22589 H 2041.71 3.92938 -0.620069 0
M  V30 22590 H 2038.45 5.88084 -2.89546 0
M  V30 22591 H 2037.97 5.88021 -1.18287 0
M  V30 22592 H 2039.65 6.25831 -1.6415 0
M  V30 22593 N 2039.78 0.45001 1.51039 0
M  V30 22594 C 2041.03 -0.113761 2.01379 0
M  V30 22595 C 2041.34 -1.42669 1.33809 0
M  V30 22596 O 2042.55 -2.07416 1.75188 0
M  V30 22597 C 2041 -0.253272 3.59008 0
M  V30 22598 C 2040.61 1.04997 4.35522 0
M  V30 22599 C 2042.35 -0.770131 4.17456 0
M  V30 22600 C 2040.26 0.875408 5.84885 0
M  V30 22601 H 2039.19 -0.0462899 0.752578 0
M  V30 22602 H 2041.84 0.581702 1.74036 0
M  V30 22603 H 2040.22 -1.01203 3.8285 0
M  V30 22604 H 2041.4 1.81805 4.23419 0
M  V30 22605 H 2039.71 1.49632 3.88586 0
M  V30 22606 H 2042.31 -0.917427 5.26771 0
M  V30 22607 H 2042.65 -1.75596 3.77454 0
M  V30 22608 H 2043.19 -0.0693371 3.9774 0
M  V30 22609 H 2039.93 1.83398 6.29321 0
M  V30 22610 H 2039.45 0.14735 5.99619 0
M  V30 22611 H 2041.12 0.533614 6.44796 0
M  V30 22612 N 2041.26 -1.56548 0.18182 0
M  V30 22613 C 2042.48 -2.02015 -0.469543 0
M  V30 22614 C 2042.91 -1.06119 -1.55307 0
M  V30 22615 O 2042.26 -0.0424595 -1.8125 0
M  V30 22616 C 2042.31 -3.46016 -1.01515 0
M  V30 22617 O 2041.42 -3.53215 -2.12869 0
M  V30 22618 H 2040.76 -0.65461 -0.111273 0
M  V30 22619 H 2043.29 -2.02552 0.288798 0
M  V30 22620 H 2043.3 -3.85537 -1.33511 0
M  V30 22621 H 2041.97 -4.15308 -0.22188 0
M  V30 22622 H 2040.55 -3.2556 -1.81838 0
M  V30 22623 N 2042.73 0.0918577 -1.57332 0
M  V30 22624 C 2043.7 1.09546 -2.01326 0
M  V30 22625 C 2044.7 1.32761 -0.907252 0
M  V30 22626 O 2045.89 1.2882 -1.17265 0
M  V30 22627 C 2043.02 2.44385 -2.37674 0
M  V30 22628 H 2044.21 0.71671 -2.9121 0
M  V30 22629 H 2041.77 0.337001 -1.52624 0
M  V30 22630 H 2042.5 2.8713 -1.50755 0
M  V30 22631 H 2042.29 2.28882 -3.18364 0
M  V30 22632 H 2043.78 3.16562 -2.72357 0
M  V30 22633 N 2044.21 1.53368 0.362763 0
M  V30 22634 C 2045.14 1.82984 1.45048 0
M  V30 22635 C 2046.12 0.683544 1.55762 0
M  V30 22636 O 2047.31 0.933658 1.70283 0
M  V30 22637 C 2044.44 2.02227 2.8235 0
M  V30 22638 C 2043.39 3.18002 2.86459 0
M  V30 22639 C 2042.72 3.22543 4.26463 0
M  V30 22640 C 2044.02 4.56531 2.53726 0
M  V30 22641 H 2045.71 2.74075 1.20513 0
M  V30 22642 H 2043.26 1.31877 0.578302 0
M  V30 22643 H 2045.21 2.21529 3.58473 0
M  V30 22644 H 2043.94 1.07849 3.08279 0
M  V30 22645 H 2042.59 2.98525 2.12787 0
M  V30 22646 H 2042.24 2.25797 4.49472 0
M  V30 22647 H 2041.94 4.00331 4.30127 0
M  V30 22648 H 2043.47 3.44032 5.04455 0
M  V30 22649 H 2044.88 4.75975 3.19563 0
M  V30 22650 H 2043.28 5.36581 2.68703 0
M  V30 22651 H 2044.35 4.61451 1.48967 0
M  V30 22652 N 2045.69 -0.62272 1.44776 0
M  V30 22653 C 2046.64 -1.73427 1.52288 0
M  V30 22654 C 2047.61 -1.61928 0.369917 0
M  V30 22655 O 2048.79 -1.81729 0.581308 0
M  V30 22656 C 2045.93 -3.117 1.48112 0
M  V30 22657 C 2045.05 -3.34114 2.73847 0
M  V30 22658 C 2044.18 -4.62407 2.61445 0
M  V30 22659 C 2043.22 -4.78027 3.82304 0
M  V30 22660 N 2042.36 -5.97605 3.68528 0
M  V30 22661 H 2047.2 -1.66341 2.47254 0
M  V30 22662 H 2044.73 -0.811311 1.22704 0
M  V30 22663 H 2046.69 -3.91678 1.4368 0
M  V30 22664 H 2045.32 -3.1778 0.567076 0
M  V30 22665 H 2044.37 -2.48017 2.8843 0
M  V30 22666 H 2045.69 -3.41533 3.63533 0
M  V30 22667 H 2044.84 -5.50558 2.54894 0
M  V30 22668 H 2043.58 -4.5736 1.69333 0
M  V30 22669 H 2042.58 -3.88303 3.89231 0
M  V30 22670 H 2043.81 -4.84883 4.75464 0
M  V30 22671 H 2041.75 -5.93631 2.79173 0
M  V30 22672 H 2041.67 -6.06118 4.51838 0
M  V30 22673 H 2042.94 -6.88295 3.65883 0
M  V30 22674 N 2047.17 -1.31814 -0.863883 0
M  V30 22675 C 2048.1 -1.22574 -1.98741 0
M  V30 22676 C 2049.08 -0.111585 -1.69734 0
M  V30 22677 O 2050.26 -0.29721 -1.91912 0
M  V30 22678 C 2047.39 -0.938559 -3.34378 0
M  V30 22679 C 2046.35 -2.01295 -3.7771 0
M  V30 22680 C 2045.67 -1.57834 -5.10874 0
M  V30 22681 C 2046.97 -3.42684 -3.94164 0
M  V30 22682 H 2048.67 -2.16572 -2.06729 0
M  V30 22683 H 2046.21 -1.04262 -0.993246 0
M  V30 22684 H 2048.17 -0.860501 -4.12521 0
M  V30 22685 H 2046.89 0.0370783 -3.26579 0
M  V30 22686 H 2045.55 -2.081 -3.01811 0
M  V30 22687 H 2045.2 -0.5904 -4.99523 0
M  V30 22688 H 2044.9 -2.29713 -5.40838 0
M  V30 22689 H 2046.42 -1.51448 -5.9152 0
M  V30 22690 H 2047.84 -3.38519 -4.62685 0
M  V30 22691 H 2046.23 -4.12833 -4.35533 0
M  V30 22692 H 2047.3 -3.83023 -2.97358 0
M  V30 22693 N 2048.65 1.07897 -1.14873 0
M  V30 22694 C 2049.87 1.84657 -0.944281 0
M  V30 22695 C 2050.3 1.8127 0.50226 0
M  V30 22696 O 2049.65 1.20159 1.35763 0
M  V30 22697 C 2049.7 3.29889 -1.45622 0
M  V30 22698 O 2048.81 4.07217 -0.651748 0
M  V30 22699 H 2048.15 0.571994 -0.337222 0
M  V30 22700 H 2050.68 1.36151 -1.52723 0
M  V30 22701 H 2050.69 3.80727 -1.46665 0
M  V30 22702 H 2049.36 3.31668 -2.50936 0
M  V30 22703 H 2047.94 3.66069 -0.710491 0
M  V30 22704 N 2050.12 0.944665 1.2615 0
M  V30 22705 C 2051.35 0.610451 1.98213 0
M  V30 22706 C 2051.77 -0.808401 1.69843 0
M  V30 22707 O 2051.13 -1.5451 0.948491 0
M  V30 22708 C 2051.18 0.863318 3.50113 0
M  V30 22709 O 2050.28 -0.062849 4.12352 0
M  V30 22710 H 2049.63 0.233139 0.621725 0
M  V30 22711 H 2052.16 1.26855 1.60527 0
M  V30 22712 H 2052.17 0.785602 4.00365 0
M  V30 22713 H 2050.84 1.89748 3.70092 0
M  V30 22714 H 2049.42 0.066222 3.72841 0
M  V30 22715 N 2051.6 -1.40596 0.712085 0
M  V30 22716 C 2052.83 -2.04967 0.25925 0
M  V30 22717 C 2053.24 -1.53745 -1.10268 0
M  V30 22718 O 2052.58 -0.687539 -1.70348 0
M  V30 22719 C 2052.65 -3.59155 0.157468 0
M  V30 22720 C 2052.31 -4.33249 1.45411 0
M  V30 22721 C 2053.31 -4.61433 2.39533 0
M  V30 22722 C 2050.99 -4.72222 1.71207 0
M  V30 22723 C 2052.99 -5.2757 3.57699 0
M  V30 22724 C 2050.67 -5.38092 2.89655 0
M  V30 22725 C 2051.67 -5.65696 3.82723 0
M  V30 22726 O 2051.36 -6.30206 4.99095 0
M  V30 22727 H 2051.09 -0.666162 0.114911 0
M  V30 22728 H 2053.64 -1.81055 0.969955 0
M  V30 22729 H 2051.87 -3.81872 -0.60915 0
M  V30 22730 H 2053.56 -4.05064 -0.260344 0
M  V30 22731 H 2054.33 -4.3179 2.20867 0
M  V30 22732 H 2050.21 -4.50107 0.99621 0
M  V30 22733 H 2053.75 -5.49032 4.30359 0
M  V30 22734 H 2049.65 -5.67154 3.08231 0
M  V30 22735 H 2050.42 -6.48703 4.99126 0
M  V30 22736 N 2053.08 -0.458013 -1.50798 0
M  V30 22737 C 2054.03 0.342913 -2.28238 0
M  V30 22738 C 2055 0.99876 -1.32718 0
M  V30 22739 O 2056.18 1.01371 -1.61643 0
M  V30 22740 C 2053.32 1.42646 -3.14239 0
M  V30 22741 C 2052.44 0.786698 -4.24776 0
M  V30 22742 C 2051.57 1.84704 -4.98054 0
M  V30 22743 C 2050.61 1.18681 -6.00484 0
M  V30 22744 N 2049.75 2.18942 -6.6709 0
M  V30 22745 H 2054.59 -0.323799 -2.96236 0
M  V30 22746 H 2052.12 -0.171528 -1.46097 0
M  V30 22747 H 2054.08 2.0662 -3.62442 0
M  V30 22748 H 2052.71 2.06252 -2.48314 0
M  V30 22749 H 2051.76 0.0347215 -3.80384 0
M  V30 22750 H 2053.08 0.264877 -4.98096 0
M  V30 22751 H 2052.23 2.5629 -5.49909 0
M  V30 22752 H 2050.97 2.40263 -4.24411 0
M  V30 22753 H 2049.97 0.45651 -5.47901 0
M  V30 22754 H 2051.2 0.638278 -6.76094 0
M  V30 22755 H 2049.14 2.73543 -5.96247 0
M  V30 22756 H 2049.06 1.71709 -7.36242 0
M  V30 22757 H 2050.33 2.89949 -7.23568 0
M  V30 22758 N 2054.56 1.56449 -0.190119 0
M  V30 22759 C 2055.84 1.89172 0.497312 0
M  V30 22760 C 2056.22 1.1029 1.79998 0
M  V30 22761 O 2055.56 0.202471 2.27601 0
M  V30 22762 C 2055.77 3.41472 0.720941 0
M  V30 22763 C 2057.12 4.11602 1.04254 0
M  V30 22764 O 2058.15 3.46895 0.808835 0
M  V30 22765 O 2057.01 5.25955 1.48438 0
M  V30 22766 H 2054.1 0.785518 0.258632 0
M  V30 22767 H 2056.65 1.68135 -0.229961 0
M  V30 22768 H 2055.42 3.90793 -0.199197 0
M  V30 22769 H 2055.04 3.68185 1.50085 0
M  V30 22770 N 2056.04 -0.0835127 1.57379 0
M  V30 22771 C 2056.99 -1.11925 2.03901 0
M  V30 22772 C 2057.98 -1.40782 0.942168 0
M  V30 22773 O 2059.19 -1.40327 1.12732 0
M  V30 22774 H 2055.56 -0.378223 0.649963 0
M  V30 22775 H 2057.53 -0.70065 2.90058 0
M  V30 22776 C 2056.28 -2.42798 2.48887 0
M  V30 22777 H 2055.6 -2.21441 3.32873 0
M  V30 22778 H 2057.04 -3.13744 2.85203 0
M  V30 22779 C 2055.5 -3.07924 1.36692 0
M  V30 22780 O 2056.03 -3.9551 0.702482 0
M  V30 22781 N 2054.24 -2.68359 1.11498 0
M  V30 22782 H 2053.79 -1.97225 1.6571 0
M  V30 22783 H 2053.74 -3.12259 0.366326 0
M  V30 22784 N 2057.52 -1.53558 -0.354624 0
M  V30 22785 C 2058.45 -1.83751 -1.44076 0
M  V30 22786 C 2059.43 -0.691795 -1.55397 0
M  V30 22787 O 2060.61 -0.942676 -1.69786 0
M  V30 22788 C 2057.74 -2.03721 -2.81274 0
M  V30 22789 C 2056.7 -3.19517 -2.84769 0
M  V30 22790 C 2056.02 -3.248 -4.24746 0
M  V30 22791 C 2057.32 -4.5787 -2.51301 0
M  V30 22792 H 2059.02 -2.7471 -1.19058 0
M  V30 22793 H 2056.56 -1.32182 -0.5713 0
M  V30 22794 H 2058.51 -2.23427 -3.57293 0
M  V30 22795 H 2057.24 -1.09482 -3.07703 0
M  V30 22796 H 2055.9 -2.99649 -2.11201 0
M  V30 22797 H 2055.55 -2.28177 -4.48268 0
M  V30 22798 H 2055.25 -4.02606 -4.27998 0
M  V30 22799 H 2056.77 -3.46702 -5.02623 0
M  V30 22800 H 2058.18 -4.77663 -3.17034 0
M  V30 22801 H 2056.58 -5.37998 -2.65853 0
M  V30 22802 H 2057.65 -4.62234 -1.46518 0
M  V30 22803 N 2058.99 0.615033 -1.45104 0
M  V30 22804 C 2060.22 1.39902 -1.52023 0
M  V30 22805 C 2060.63 1.88611 -0.149112 0
M  V30 22806 O 2059.97 1.6242 0.858222 0
M  V30 22807 C 2060.04 2.6429 -2.43703 0
M  V30 22808 C 2059.7 2.3727 -3.90579 0
M  V30 22809 C 2060.7 1.98094 -4.80682 0
M  V30 22810 C 2058.38 2.50412 -4.3543 0
M  V30 22811 C 2060.38 1.72411 -6.13639 0
M  V30 22812 C 2058.06 2.24342 -5.68431 0
M  V30 22813 C 2059.06 1.85402 -6.57354 0
M  V30 22814 O 2058.75 1.59633 -7.87891 0
M  V30 22815 H 2058.48 0.434923 -0.517511 0
M  V30 22816 H 2061.04 0.757868 -1.90907 0
M  V30 22817 H 2059.27 3.31099 -1.99775 0
M  V30 22818 H 2060.95 3.26322 -2.41389 0
M  V30 22819 H 2061.72 1.87483 -4.47297 0
M  V30 22820 H 2057.6 2.79689 -3.66463 0
M  V30 22821 H 2061.14 1.41942 -6.83007 0
M  V30 22822 H 2057.04 2.34567 -6.01372 0
M  V30 22823 H 2057.81 1.73747 -7.99846 0
M  V30 22824 N 2060.47 1.3227 0.85688 0
M  V30 22825 C 2061.72 1.22461 1.60772 0
M  V30 22826 C 2062.04 -0.214164 1.9382 0
M  V30 22827 O 2061.31 -1.13833 1.59433 0
M  V30 22828 H 2059.89 0.450259 0.596051 0
M  V30 22829 H 2062.55 1.65764 1.0251 0
M  V30 22830 H 2061.65 1.80566 2.54563 0
M  V30 22831 N 2061.95 -1.07287 1.15444 0
M  V30 22832 C 2062.9 -2.16605 0.847634 0
M  V30 22833 C 2063.89 -1.68449 -0.179217 0
M  V30 22834 O 2065.1 -1.79968 -0.0341862 0
M  V30 22835 H 2061.47 -0.706921 0.25645 0
M  V30 22836 H 2063.44 -2.397 1.77726 0
M  V30 22837 C 2062.19 -3.45893 0.354062 0
M  V30 22838 H 2061.52 -3.83333 1.1356 0
M  V30 22839 H 2062.96 -4.23626 0.178055 0
M  V30 22840 C 2061.41 -3.23966 -0.924544 0
M  V30 22841 O 2061.94 -3.48604 -1.99594 0
M  V30 22842 N 2060.15 -2.77449 -0.864314 0
M  V30 22843 H 2059.7 -2.57599 0.00774481 0
M  V30 22844 H 2059.66 -2.63157 -1.72034 0
M  V30 22845 N 2063.43 -0.951342 -1.25647 0
M  V30 22846 C 2064.38 -0.439691 -2.2372 0
M  V30 22847 C 2065.36 0.469243 -1.53906 0
M  V30 22848 O 2066.55 0.302832 -1.7439 0
M  V30 22849 C 2063.68 0.284397 -3.4212 0
M  V30 22850 C 2062.77 -0.642416 -4.19206 0
M  V30 22851 N 2063.16 -1.77263 -4.73721 0
M  V30 22852 C 2061.46 -0.449973 -4.43724 0
M  V30 22853 C 2062.16 -2.35101 -5.32074 0
M  V30 22854 N 2061.13 -1.6379 -5.18337 0
M  V30 22855 H 2064.94 -1.30229 -2.63472 0
M  V30 22856 H 2062.45 -0.808431 -1.40848 0
M  V30 22857 H 2064.45 0.668054 -4.11513 0
M  V30 22858 H 2063.11 1.14364 -3.03893 0
M  V30 22859 H 2064.12 -2.15456 -4.70955 0
M  V30 22860 H 2060.8 0.366665 -4.15887 0
M  V30 22861 H 2062.19 -3.30386 -5.8506 0
M  V30 22862 N 2064.91 1.40216 -0.719531 0
M  V30 22863 C 2066.32 1.83713 -0.33263 0
M  V30 22864 C 2066.67 1.60151 1.1334 0
M  V30 22865 O 2065.79 1.08447 1.87265 0
M  V30 22866 C 2066.39 3.335 -0.596947 0
M  V30 22867 C 2064.95 3.75475 -0.263712 0
M  V30 22868 C 2064.09 2.63387 -0.867341 0
M  V30 22869 H 2067.04 1.29428 -0.918378 0
M  V30 22870 H 2067.07 3.80255 0.136497 0
M  V30 22871 H 2066.58 3.50617 -1.66402 0
M  V30 22872 H 2064.68 3.63951 0.798139 0
M  V30 22873 H 2064.79 4.73421 -0.735465 0
M  V30 22874 H 2063.16 2.52985 -0.295091 0
M  V30 22875 H 2063.94 2.83315 -1.93876 0
M  V30 22876 N 2066.38 0.466004 1.50553 0
M  V30 22877 C 2067.33 -0.344889 2.30029 0
M  V30 22878 C 2068.33 -0.995031 1.37097 0
M  V30 22879 O 2069.53 -0.926717 1.54311 0
M  V30 22880 H 2065.91 -0.130059 0.740668 0
M  V30 22881 H 2067.88 0.345888 2.96389 0
M  V30 22882 C 2066.63 -1.41723 3.17506 0
M  V30 22883 H 2065.95 -0.926335 3.8892 0
M  V30 22884 H 2067.39 -1.95728 3.7612 0
M  V30 22885 C 2065.85 -2.41636 2.34763 0
M  V30 22886 O 2066.38 -3.46798 2.02716 0
M  V30 22887 N 2064.58 -2.13228 1.97439 0
M  V30 22888 H 2064.13 -1.27733 2.23701 0
M  V30 22889 H 2064.09 -2.80313 1.4238 0
M  V30 22890 N 2067.86 -1.56346 0.198413 0
M  V30 22891 C 2068.79 -2.15154 -0.760519 0
M  V30 22892 C 2069.77 -1.0892 -1.20728 0
M  V30 22893 O 2070.96 -1.37051 -1.29419 0
M  V30 22894 C 2068.08 -2.71312 -2.0275 0
M  V30 22895 C 2067.13 -3.90165 -1.7226 0
M  V30 22896 S 2067.96 -5.28422 -0.86778 0
M  V30 22897 C 2069.12 -5.88003 -2.14483 0
M  V30 22898 H 2069.35 -2.96156 -0.2606 0
M  V30 22899 H 2066.88 -1.54391 -0.0166257 0
M  V30 22900 H 2068.84 -3.0431 -2.7551 0
M  V30 22901 H 2067.5 -1.90346 -2.49854 0
M  V30 22902 H 2066.7 -4.2788 -2.66336 0
M  V30 22903 H 2066.3 -3.58194 -1.0758 0
M  V30 22904 H 2068.59 -6.02568 -3.09707 0
M  V30 22905 H 2069.53 -6.84524 -1.81196 0
M  V30 22906 H 2069.94 -5.16636 -2.27481 0
M  V30 22907 N 2069.34 0.0751653 -1.57421 0
M  V30 22908 C 2070.27 1.09007 -2.06494 0
M  V30 22909 C 2071.25 1.40573 -0.957766 0
M  V30 22910 O 2072.44 1.50259 -1.23028 0
M  V30 22911 C 2069.57 2.40446 -2.50605 0
M  V30 22912 C 2068.52 2.2324 -3.65168 0
M  V30 22913 C 2067.85 3.60033 -3.95323 0
M  V30 22914 C 2069.15 1.65642 -4.95338 0
M  V30 22915 H 2070.84 0.681725 -2.91535 0
M  V30 22916 H 2068.39 0.326481 -1.4025 0
M  V30 22917 H 2070.34 3.11734 -2.83548 0
M  V30 22918 H 2069.06 2.83254 -1.62588 0
M  V30 22919 H 2067.72 1.54393 -3.32503 0
M  V30 22920 H 2067.37 4.00404 -3.04443 0
M  V30 22921 H 2067.07 3.4936 -4.72463 0
M  V30 22922 H 2068.59 4.32757 -4.30759 0
M  V30 22923 H 2070.01 2.26793 -5.26534 0
M  V30 22924 H 2068.41 1.65675 -5.76777 0
M  V30 22925 H 2069.48 0.617593 -4.80951 0
M  V30 22926 N 2070.82 1.53744 0.346476 0
M  V30 22927 C 2071.77 1.82222 1.44561 0
M  V30 22928 C 2072.76 0.69251 1.54598 0
M  V30 22929 O 2073.97 0.875797 1.57257 0
M  V30 22930 H 2070.34 0.577261 0.481948 0
M  V30 22931 H 2072.31 2.74183 1.17755 0
M  V30 22932 C 2071.06 2.04604 2.81127 0
M  V30 22933 H 2070.38 2.90983 2.74169 0
M  V30 22934 H 2071.82 2.28497 3.57162 0
M  V30 22935 C 2070.28 0.830699 3.26498 0
M  V30 22936 O 2070.81 0.0286844 4.0169 0
M  V30 22937 N 2069.02 0.648746 2.83266 0
M  V30 22938 H 2068.57 1.30257 2.22241 0
M  V30 22939 H 2068.52 -0.162972 3.13977 0
M  V30 22940 N 2072.3 -0.607329 1.45428 0
M  V30 22941 C 2073.57 -1.36669 1.39932 0
M  V30 22942 C 2073.95 -2.10984 0.0700663 0
M  V30 22943 O 2073.3 -2.07907 -0.947984 0
M  V30 22944 C 2073.51 -2.3133 2.61319 0
M  V30 22945 C 2074.86 -2.93928 3.06417 0
M  V30 22946 O 2075.88 -2.4165 2.61694 0
M  V30 22947 O 2074.74 -3.88823 3.8403 0
M  V30 22948 H 2071.84 -0.61283 0.55531 0
M  V30 22949 H 2074.38 -0.630396 1.57557 0
M  V30 22950 H 2073.15 -1.75677 3.49647 0
M  V30 22951 H 2072.78 -3.12338 2.4603 0
M  V30 22952 N 2073.77 -1.32722 -0.849853 0
M  V30 22953 C 2075.05 -1.14168 -1.58824 0
M  V30 22954 C 2075.43 0.296136 -2.09013 0
M  V30 22955 O 2074.78 1.2935 -1.88364 0
M  V30 22956 C 2074.99 -2.1734 -2.73065 0
M  V30 22957 C 2076.34 -2.50923 -3.42524 0
M  V30 22958 O 2077.36 -2.15923 -2.83295 0
M  V30 22959 O 2076.22 -3.10942 -4.49419 0
M  V30 22960 H 2073.31 -0.440869 -0.699688 0
M  V30 22961 H 2075.86 -1.44269 -0.893563 0
M  V30 22962 H 2074.63 -3.13967 -2.33539 0
M  V30 22963 H 2074.26 -1.88261 -3.50205 0
M  V30 22964 N 2075.25 1.06673 -1.16011 0
M  V30 22965 C 2076.2 2.16153 -0.859109 0
M  V30 22966 C 2077.19 1.68542 0.170281 0
M  V30 22967 O 2078.4 1.79983 0.0246416 0
M  V30 22968 H 2074.78 0.705551 -0.260196 0
M  V30 22969 H 2076.75 2.38754 -1.78994 0
M  V30 22970 C 2075.5 3.457 -0.3724 0
M  V30 22971 H 2074.82 3.82725 -1.15591 0
M  V30 22972 H 2076.26 4.23526 -0.200519 0
M  V30 22973 C 2074.72 3.24451 0.90735 0
M  V30 22974 O 2075.25 3.49658 1.97743 0
M  V30 22975 N 2073.45 2.77904 0.849588 0
M  V30 22976 H 2073 2.57591 -0.0214058 0
M  V30 22977 H 2072.96 2.64066 1.70636 0
M  V30 22978 N 2076.73 0.957992 1.25141 0
M  V30 22979 C 2077.98 0.610242 1.92247 0
M  V30 22980 C 2078.29 -0.857187 1.75817 0
M  V30 22981 O 2079.5 -1.31504 2.37527 0
M  V30 22982 C 2077.95 1.04075 3.44524 0
M  V30 22983 C 2077.56 2.53095 3.69658 0
M  V30 22984 C 2079.31 0.765685 4.17537 0
M  V30 22985 C 2077.21 2.89928 5.15457 0
M  V30 22986 H 2076.14 0.224526 0.719794 0
M  V30 22987 H 2078.79 1.1629 1.41947 0
M  V30 22988 H 2077.18 0.416478 3.93804 0
M  V30 22989 H 2078.35 3.20569 3.31017 0
M  V30 22990 H 2076.67 2.78108 3.09911 0
M  V30 22991 H 2079.26 1.017 5.24939 0
M  V30 22992 H 2079.61 -0.297957 4.15232 0
M  V30 22993 H 2080.14 1.35046 3.74176 0
M  V30 22994 H 2076.88 3.95324 5.22876 0
M  V30 22995 H 2076.4 2.2713 5.55132 0
M  V30 22996 H 2078.08 2.79304 5.83608 0
M  V30 22997 N 2078.21 -1.39832 0.726957 0
M  V30 22998 C 2079.14 -2.333 0.0966938 0
M  V30 22999 C 2080.12 -1.53492 -0.733095 0
M  V30 23000 O 2081.3 -1.81916 -0.679712 0
M  V30 23001 C 2078.43 -3.37545 -0.817367 0
M  V30 23002 C 2077.39 -4.279 -0.0923447 0
M  V30 23003 C 2076.71 -5.22777 -1.12288 0
M  V30 23004 C 2078.01 -5.11425 1.06028 0
M  V30 23005 H 2079.71 -2.86255 0.877412 0
M  V30 23006 H 2077.25 -1.37635 0.423378 0
M  V30 23007 H 2079.21 -4.01878 -1.26776 0
M  V30 23008 H 2077.93 -2.83011 -1.63011 0
M  V30 23009 H 2076.59 -3.65035 0.338339 0
M  V30 23010 H 2076.24 -4.64542 -1.92898 0
M  V30 23011 H 2075.94 -5.84076 -0.64259 0
M  V30 23012 H 2077.46 -5.89987 -1.57314 0
M  V30 23013 H 2078.88 -5.69148 0.688715 0
M  V30 23014 H 2077.27 -5.81825 1.46968 0
M  V30 23015 H 2078.34 -4.46731 1.88571 0
M  V30 23016 N 2079.69 -0.473982 -1.50304 0
M  V30 23017 C 2080.6 0.323933 -2.32353 0
M  V30 23018 C 2081.61 0.993251 -1.42865 0
M  V30 23019 O 2082.79 0.980589 -1.75916 0
M  V30 23020 C 2079.85 1.38999 -3.17616 0
M  V30 23021 C 2078.91 0.736965 -4.22927 0
M  V30 23022 C 2078.15 1.75223 -5.04116 0
M  V30 23023 O 2078.37 2.97908 -4.86423 0
M  V30 23024 O 2077.3 1.32246 -5.87192 0
M  V30 23025 H 2081.13 -0.346913 -3.01712 0
M  V30 23026 H 2078.72 -0.235777 -1.47528 0
M  V30 23027 H 2080.6 2.00742 -3.70514 0
M  V30 23028 H 2079.27 2.04425 -2.50982 0
M  V30 23029 H 2078.18 0.0805047 -3.74013 0
M  V30 23030 H 2079.51 0.125602 -4.9204 0
M  V30 23031 N 2081.16 1.56239 -0.206702 0
M  V30 23032 C 2082.07 2.2324 0.721172 0
M  V30 23033 C 2083.09 1.2352 1.22552 0
M  V30 23034 O 2084.27 1.56291 1.27025 0
M  V30 23035 C 2081.33 2.88767 1.91871 0
M  V30 23036 C 2080.39 4.03791 1.45779 0
M  V30 23037 C 2079.63 4.66183 2.59825 0
M  V30 23038 O 2079.85 4.27524 3.77597 0
M  V30 23039 O 2078.78 5.55444 2.31874 0
M  V30 23040 H 2082.61 3.03163 0.180488 0
M  V30 23041 H 2080.19 1.49382 0.0231036 0
M  V30 23042 H 2082.08 3.30181 2.61837 0
M  V30 23043 H 2080.75 2.11815 2.44777 0
M  V30 23044 H 2079.66 3.66976 0.726587 0
M  V30 23045 H 2080.99 4.82441 0.975269 0
M  V30 23046 N 2082.64 -0.0668159 1.57458 0
M  V30 23047 C 2083.92 -0.798309 1.78568 0
M  V30 23048 C 2084.3 -1.95537 0.79552 0
M  V30 23049 O 2083.65 -2.27864 -0.170331 0
M  V30 23050 C 2083.86 -1.26662 3.25204 0
M  V30 23051 C 2085.21 -1.69798 3.89171 0
M  V30 23052 O 2086.23 -1.36216 3.29125 0
M  V30 23053 O 2085.09 -2.31989 4.94817 0
M  V30 23054 H 2082.18 -0.382924 0.733006 0
M  V30 23055 H 2084.73 -0.0465065 1.69636 0
M  V30 23056 H 2083.5 -0.438929 3.8883 0
M  V30 23057 H 2083.12 -2.07959 3.38879 0
M  V30 23058 N 2084.12 -1.53926 -0.338317 0
M  V30 23059 C 2085.07 -1.82986 -1.43592 0
M  V30 23060 C 2086.06 -0.700699 -1.54229 0
M  V30 23061 O 2087.27 -0.884124 -1.5679 0
M  V30 23062 H 2083.64 -0.579808 -0.47888 0
M  V30 23063 H 2085.62 -2.74804 -1.16299 0
M  V30 23064 C 2084.36 -2.06092 -2.80038 0
M  V30 23065 H 2083.69 -2.92433 -2.72622 0
M  V30 23066 H 2085.13 -2.30388 -3.55946 0
M  V30 23067 C 2083.59 -0.848002 -3.26053 0
M  V30 23068 O 2084.12 -0.0499866 -4.01669 0
M  V30 23069 N 2082.32 -0.663759 -2.82918 0
M  V30 23070 H 2081.87 -1.31433 -2.21547 0
M  V30 23071 H 2081.83 0.146319 -3.14059 0
M  V30 23072 N 2085.6 0.599608 -1.45748 0
M  V30 23073 C 2086.85 1.3604 -1.50403 0
M  V30 23074 C 2087.18 1.93632 -0.148419 0
M  V30 23075 O 2086.45 1.75516 0.838118 0
M  V30 23076 C 2086.74 2.50237 -2.58946 0
M  V30 23077 C 2086.59 1.9779 -4.03979 0
M  V30 23078 C 2087.91 3.52344 -2.63708 0
M  V30 23079 H 2085.03 0.49329 -0.547571 0
M  V30 23080 H 2087.67 0.675178 -1.77599 0
M  V30 23081 H 2085.82 3.0869 -2.35888 0
M  V30 23082 H 2087.49 1.43925 -4.38273 0
M  V30 23083 H 2085.73 1.28734 -4.14258 0
M  V30 23084 H 2086.41 2.80147 -4.75628 0
M  V30 23085 H 2088.88 3.03746 -2.8439 0
M  V30 23086 H 2087.76 4.29728 -3.41504 0
M  V30 23087 H 2088.02 4.08481 -1.69103 0
M  V30 23088 N 2087.08 1.33171 0.842803 0
M  V30 23089 C 2088.01 1.2572 1.96766 0
M  V30 23090 C 2088.99 0.138574 1.69535 0
M  V30 23091 O 2090.17 0.327704 1.91415 0
M  V30 23092 C 2087.3 0.991637 3.32842 0
M  V30 23093 C 2086.26 2.07278 3.74459 0
M  V30 23094 C 2085.58 1.65942 5.08299 0
M  V30 23095 C 2086.88 3.48911 3.88662 0
M  V30 23096 H 2088.58 2.19834 2.03257 0
M  V30 23097 H 2086.12 1.05829 0.976533 0
M  V30 23098 H 2088.08 0.926021 4.111 0
M  V30 23099 H 2086.8 0.0148823 3.26597 0
M  V30 23100 H 2085.46 2.12875 2.98462 0
M  V30 23101 H 2085.11 0.669795 4.98521 0
M  V30 23102 H 2084.81 2.38288 5.37115 0
M  V30 23103 H 2086.33 1.60839 5.89036 0
M  V30 23104 H 2087.75 3.45837 4.57241 0
M  V30 23105 H 2086.14 4.1971 4.2891 0
M  V30 23106 H 2087.21 3.87705 2.91226 0
M  V30 23107 N 2088.56 -1.06056 1.16576 0
M  V30 23108 C 2089.47 -2.17107 0.888912 0
M  V30 23109 C 2090.48 -1.73438 -0.139723 0
M  V30 23110 O 2091.66 -2.01365 0.0374846 0
M  V30 23111 C 2088.72 -3.44425 0.396494 0
M  V30 23112 C 2087.78 -4.02589 1.49065 0
M  V30 23113 C 2087.02 -5.2383 1.02163 0
M  V30 23114 O 2087.24 -5.70257 -0.127684 0
M  V30 23115 O 2086.17 -5.7401 1.81098 0
M  V30 23116 H 2090 -2.43304 1.81761 0
M  V30 23117 H 2087.58 -1.1564 0.945923 0
M  V30 23118 H 2089.47 -4.21203 0.128983 0
M  V30 23119 H 2088.14 -3.1975 -0.504164 0
M  V30 23120 H 2087.05 -3.27292 1.81193 0
M  V30 23121 H 2088.38 -4.31565 2.3667 0
M  V30 23122 N 2090.03 -0.964615 -1.24631 0
M  V30 23123 C 2090.94 -0.499755 -2.29215 0
M  V30 23124 C 2091.96 0.43778 -1.68403 0
M  V30 23125 O 2093.14 0.311579 -1.98975 0
M  V30 23126 C 2090.2 0.205579 -3.4609 0
M  V30 23127 C 2089.26 -0.771401 -4.22313 0
M  V30 23128 C 2088.49 -0.0996328 -5.33607 0
M  V30 23129 O 2088.72 1.11269 -5.59442 0
M  V30 23130 O 2087.65 -0.79023 -5.9669 0
M  V30 23131 H 2091.48 -1.3691 -2.71089 0
M  V30 23132 H 2089.06 -0.731512 -1.30266 0
M  V30 23133 H 2090.94 0.601929 -4.17079 0
M  V30 23134 H 2089.62 1.04994 -3.06199 0
M  V30 23135 H 2088.53 -1.21815 -3.53712 0
M  V30 23136 H 2089.86 -1.58408 -4.66012 0
M  V30 23137 N 2091.51 1.39445 -0.734362 0
M  V30 23138 C 2092.79 1.94487 -0.208359 0
M  V30 23139 C 2093.17 1.6712 1.28974 0
M  V30 23140 O 2092.52 0.999082 2.05501 0
M  V30 23141 C 2092.73 3.44777 -0.541289 0
M  V30 23142 C 2094.07 4.2176 -0.490275 0
M  V30 23143 O 2095.1 3.52972 -0.478443 0
M  V30 23144 O 2093.96 5.4435 -0.48425 0
M  V30 23145 H 2091.05 0.826136 -0.037802 0
M  V30 23146 H 2093.6 1.48948 -0.813177 0
M  V30 23147 H 2092.37 3.58128 -1.5767 0
M  V30 23148 H 2091.99 3.97492 0.0925302 0
M  V30 23149 N 2092.99 0.481946 1.5005 0
M  V30 23150 C 2093.94 -0.320472 2.30382 0
M  V30 23151 C 2094.93 -0.980434 1.38144 0
M  V30 23152 O 2096.14 -0.910298 1.55285 0
M  V30 23153 H 2092.51 -0.122196 0.742006 0
M  V30 23154 H 2094.48 0.377305 2.96005 0
M  V30 23155 C 2093.23 -1.38347 3.18991 0
M  V30 23156 H 2092.56 -0.885033 3.89881 0
M  V30 23157 H 2094 -1.91728 3.78175 0
M  V30 23158 C 2092.45 -2.39133 2.37313 0
M  V30 23159 O 2092.98 -3.44629 2.06383 0
M  V30 23160 N 2091.19 -2.11122 1.9969 0
M  V30 23161 H 2090.74 -1.25354 2.25043 0
M  V30 23162 H 2090.7 -2.78787 1.45345 0
M  V30 23163 N 2094.47 -1.56127 0.214985 0
M  V30 23164 C 2095.72 -1.97304 -0.41881 0
M  V30 23165 C 2096.03 -1.10547 -1.61366 0
M  V30 23166 O 2097.24 -1.41593 -2.31654 0
M  V30 23167 C 2095.69 -3.50975 -0.796509 0
M  V30 23168 C 2095.3 -4.46426 0.375156 0
M  V30 23169 C 2097.04 -4.0088 -1.39627 0
M  V30 23170 C 2094.95 -5.91395 -0.0246118 0
M  V30 23171 H 2093.88 -0.736775 -0.160246 0
M  V30 23172 H 2096.53 -1.8086 0.310157 0
M  V30 23173 H 2094.91 -3.62996 -1.58271 0
M  V30 23174 H 2096.09 -4.46149 1.15271 0
M  V30 23175 H 2094.4 -4.06827 0.887721 0
M  V30 23176 H 2097 -5.06681 -1.70816 0
M  V30 23177 H 2097.34 -3.46346 -2.30977 0
M  V30 23178 H 2097.88 -3.92055 -0.673641 0
M  V30 23179 H 2094.61 -6.49897 0.855201 0
M  V30 23180 H 2094.13 -5.94881 -0.766611 0
M  V30 23181 H 2095.81 -6.45408 -0.453573 0
M  V30 23182 N 2095.95 0.0584645 -1.57492 0
M  V30 23183 C 2096.88 1.0681 -2.07639 0
M  V30 23184 C 2097.86 1.3955 -0.972622 0
M  V30 23185 O 2099.04 1.48946 -1.24615 0
M  V30 23186 C 2096.17 2.37774 -2.53142 0
M  V30 23187 C 2095.13 2.19354 -3.67516 0
M  V30 23188 C 2094.45 3.5582 -3.9912 0
M  V30 23189 C 2095.75 1.60379 -4.97067 0
M  V30 23190 H 2097.45 0.650765 -2.92242 0
M  V30 23191 H 2094.99 0.311587 -1.40589 0
M  V30 23192 H 2096.94 3.08709 -2.86839 0
M  V30 23193 H 2095.67 2.81513 -1.65583 0
M  V30 23194 H 2094.33 1.50858 -3.34122 0
M  V30 23195 H 2093.98 3.97153 -3.08672 0
M  V30 23196 H 2093.68 3.4433 -4.76142 0
M  V30 23197 H 2095.2 4.28164 -4.35325 0
M  V30 23198 H 2096.61 2.21195 -5.2891 0
M  V30 23199 H 2095.01 1.59548 -5.78502 0
M  V30 23200 H 2096.08 0.566547 -4.81579 0
M  V30 23201 N 2097.42 1.54103 0.330149 0
M  V30 23202 C 2098.33 1.86042 1.42918 0
M  V30 23203 C 2099.35 0.75174 1.56923 0
M  V30 23204 O 2100.53 1.04538 1.72145 0
M  V30 23205 C 2097.59 2.07533 2.77724 0
M  V30 23206 C 2096.65 3.31356 2.7295 0
M  V30 23207 C 2095.88 3.51812 4.01328 0
M  V30 23208 O 2096.11 2.75838 4.99269 0
M  V30 23209 O 2095.04 4.45275 4.04986 0
M  V30 23210 H 2098.87 2.79483 1.18839 0
M  V30 23211 H 2096.45 1.39925 0.523569 0
M  V30 23212 H 2098.33 2.23037 3.57537 0
M  V30 23213 H 2097.01 1.1728 3.01707 0
M  V30 23214 H 2095.92 3.21243 1.91712 0
M  V30 23215 H 2097.25 4.21645 2.53922 0
M  V30 23216 N 2098.9 -0.59187 1.46064 0
M  V30 23217 C 2099.81 -1.72959 1.585 0
M  V30 23218 C 2100.83 -1.67565 0.468813 0
M  V30 23219 O 2102 -1.87639 0.731679 0
M  V30 23220 C 2099.07 -3.09451 1.56336 0
M  V30 23221 C 2098.13 -3.26179 2.79117 0
M  V30 23222 C 2097.36 -4.56159 2.77046 0
M  V30 23223 O 2097.59 -5.39474 1.85268 0
M  V30 23224 O 2096.52 -4.75937 3.68466 0
M  V30 23225 H 2100.35 -1.65416 2.54699 0
M  V30 23226 H 2097.93 -0.757834 1.28753 0
M  V30 23227 H 2099.81 -3.90742 1.57793 0
M  V30 23228 H 2098.49 -3.17451 0.632949 0
M  V30 23229 H 2097.4 -2.44416 2.83217 0
M  V30 23230 H 2098.73 -3.23064 3.71336 0
M  V30 23231 N 2100.38 -1.33616 -0.835729 0
M  V30 23232 C 2101.66 -1.15846 -1.57604 0
M  V30 23233 C 2102.04 0.273951 -2.09315 0
M  V30 23234 O 2101.39 1.27345 -1.89725 0
M  V30 23235 C 2101.6 -2.20224 -2.70744 0
M  V30 23236 C 2102.94 -2.54542 -3.39843 0
M  V30 23237 O 2103.97 -2.18915 -2.80989 0
M  V30 23238 O 2102.83 -3.15692 -4.46095 0
M  V30 23239 H 2099.92 -0.448265 -0.694973 0
M  V30 23240 H 2102.47 -1.45209 -0.878211 0
M  V30 23241 H 2101.24 -3.16426 -2.30196 0
M  V30 23242 H 2100.86 -1.91965 -3.48188 0
M  V30 23243 N 2101.86 1.05436 -1.17136 0
M  V30 23244 C 2102.81 2.1523 -0.881986 0
M  V30 23245 C 2103.8 1.68713 0.152395 0
M  V30 23246 O 2105.01 1.79999 0.00555059 0
M  V30 23247 H 2101.38 0.702752 -0.267664 0
M  V30 23248 H 2103.35 2.36842 -1.81517 0
M  V30 23249 C 2102.1 3.45286 -0.409046 0
M  V30 23250 H 2101.42 3.81478 -1.19644 0
M  V30 23251 H 2102.86 4.23289 -0.245428 0
M  V30 23252 C 2101.32 3.25396 0.872886 0
M  V30 23253 O 2101.85 3.51736 1.94023 0
M  V30 23254 N 2100.06 2.78789 0.820065 0
M  V30 23255 H 2099.61 2.57554 -0.0487256 0
M  V30 23256 H 2099.56 2.65861 1.67826 0
M  V30 23257 N 2103.34 0.971211 1.24118 0
M  V30 23258 C 2104.56 0.652748 1.96333 0
M  V30 23259 C 2104.98 -0.778509 1.72002 0
M  V30 23260 O 2104.34 -1.52276 1.00589 0
M  V30 23261 C 2104.39 0.922262 3.49538 0
M  V30 23262 O 2104.11 2.29726 3.73039 0
M  V30 23263 C 2105.61 0.618475 4.38964 0
M  V30 23264 H 2102.83 0.243252 0.625355 0
M  V30 23265 H 2105.37 1.3001 1.57853 0
M  V30 23266 H 2103.53 0.321067 3.86067 0
M  V30 23267 H 2103.94 2.37994 4.67396 0
M  V30 23268 H 2105.42 0.857482 5.45299 0
M  V30 23269 H 2105.89 -0.447327 4.36916 0
M  V30 23270 H 2106.5 1.19973 4.08028 0
M  V30 23271 N 2104.81 -1.39054 0.741747 0
M  V30 23272 C 2106.04 -2.05193 0.301789 0
M  V30 23273 C 2106.46 -1.55567 -1.05739 0
M  V30 23274 O 2105.82 -0.702382 -1.67141 0
M  V30 23275 C 2105.87 -3.59172 0.320615 0
M  V30 23276 O 2104.97 -4.06596 -0.68946 0
M  V30 23277 H 2104.32 -0.649957 0.135837 0
M  V30 23278 H 2106.85 -1.77958 1.00956 0
M  V30 23279 H 2106.86 -4.07657 0.167351 0
M  V30 23280 H 2105.53 -3.94652 1.31234 0
M  V30 23281 H 2104.11 -3.69509 -0.50178 0
M  V30 23282 N 2106.29 -0.489897 -1.49792 0
M  V30 23283 C 2107.57 0.121028 -1.95225 0
M  V30 23284 C 2107.95 1.55194 -1.43101 0
M  V30 23285 O 2107.3 2.19354 -0.639992 0
M  V30 23286 C 2107.51 0.045071 -3.48971 0
M  V30 23287 C 2108.86 0.224571 -4.24006 0
M  V30 23288 O 2109.88 0.120781 -3.55995 0
M  V30 23289 O 2108.74 0.436269 -5.44756 0
M  V30 23290 H 2105.83 0.101395 -0.820761 0
M  V30 23291 H 2108.38 -0.551643 -1.60484 0
M  V30 23292 H 2107.15 -0.953242 -3.79512 0
M  V30 23293 H 2106.77 0.758377 -3.903 0
M  V30 23294 N 2107.77 1.56011 -0.223262 0
M  V30 23295 C 2108.68 2.23993 0.697454 0
M  V30 23296 C 2109.7 1.24812 1.21235 0
M  V30 23297 O 2110.87 1.57629 1.2536 0
M  V30 23298 C 2107.94 2.90786 1.88797 0
M  V30 23299 C 2107 4.05314 1.41489 0
M  V30 23300 C 2106.23 4.68913 2.54866 0
M  V30 23301 O 2106.45 4.31505 3.73041 0
M  V30 23302 O 2105.39 5.57872 2.2597 0
M  V30 23303 H 2109.21 3.03338 0.148324 0
M  V30 23304 H 2106.8 1.49398 0.00725836 0
M  V30 23305 H 2108.68 3.32939 2.5832 0
M  V30 23306 H 2107.36 2.144 2.42517 0
M  V30 23307 H 2106.26 3.67726 0.687623 0
M  V30 23308 H 2107.6 4.83448 0.924045 0
M  V30 23309 N 2109.25 -0.0501116 1.5752 0
M  V30 23310 C 2110.53 -0.779325 1.79404 0
M  V30 23311 C 2110.91 -1.94682 0.816214 0
M  V30 23312 O 2110.25 -2.28032 -0.146153 0
M  V30 23313 C 2110.46 -1.23206 3.26529 0
M  V30 23314 C 2111.81 -1.65661 3.9095 0
M  V30 23315 O 2112.84 -1.32718 3.30552 0
M  V30 23316 O 2111.69 -2.26728 4.97249 0
M  V30 23317 H 2108.79 -0.375128 0.737026 0
M  V30 23318 H 2111.33 -0.0285117 1.69676 0
M  V30 23319 H 2110.11 -0.397664 3.89274 0
M  V30 23320 H 2109.73 -2.04353 3.41065 0
M  V30 23321 N 2110.73 -1.54276 -0.321972 0
M  V30 23322 C 2111.67 -1.84499 -1.41644 0
M  V30 23323 C 2112.67 -0.717018 -1.53477 0
M  V30 23324 O 2113.87 -0.900704 -1.55844 0
M  V30 23325 H 2110.25 -0.584855 -0.472704 0
M  V30 23326 H 2112.22 -2.76022 -1.13378 0
M  V30 23327 C 2110.97 -2.09051 -2.77836 0
M  V30 23328 H 2110.29 -2.95308 -2.69505 0
M  V30 23329 H 2111.73 -2.3415 -3.53482 0
M  V30 23330 C 2110.19 -0.882537 -3.25135 0
M  V30 23331 O 2110.72 -0.0925862 -4.01593 0
M  V30 23332 N 2108.93 -0.693729 -2.82198 0
M  V30 23333 H 2108.47 -1.33776 -2.2014 0
M  V30 23334 H 2108.43 0.113 -3.14197 0
M  V30 23335 N 2112.2 0.584116 -1.46376 0
M  V30 23336 C 2113.43 1.36845 -1.55181 0
M  V30 23337 C 2113.85 1.87817 -0.192443 0
M  V30 23338 O 2113.2 1.63538 0.81003 0
M  V30 23339 C 2113.26 2.55694 -2.55545 0
M  V30 23340 O 2112.98 2.06834 -3.86201 0
M  V30 23341 C 2114.48 3.48263 -2.74277 0
M  V30 23342 H 2111.7 0.418095 -0.524822 0
M  V30 23343 H 2114.24 0.710227 -1.91771 0
M  V30 23344 H 2112.4 3.17508 -2.21963 0
M  V30 23345 H 2112.81 2.84224 -4.40814 0
M  V30 23346 H 2114.28 4.2814 -3.48426 0
M  V30 23347 H 2114.76 4.00109 -1.81134 0
M  V30 23348 H 2115.37 2.92285 -3.08949 0
M  V30 23349 N 2113.68 1.34058 0.828631 0
M  V30 23350 C 2114.61 1.278 1.95421 0
M  V30 23351 C 2115.59 0.156548 1.69378 0
M  V30 23352 O 2116.78 0.347987 1.91057 0
M  V30 23353 C 2113.91 1.02688 3.31772 0
M  V30 23354 C 2112.86 2.11238 3.7224 0
M  V30 23355 C 2112.19 1.71324 5.0651 0
M  V30 23356 C 2113.49 3.53014 3.84939 0
M  V30 23357 H 2115.18 2.21977 2.00914 0
M  V30 23358 H 2112.73 1.06859 0.965253 0
M  V30 23359 H 2114.68 0.969571 4.10094 0
M  V30 23360 H 2113.41 0.0495214 3.26562 0
M  V30 23361 H 2112.07 2.16029 2.96188 0
M  V30 23362 H 2111.71 0.722632 4.97782 0
M  V30 23363 H 2111.41 2.43972 5.34557 0
M  V30 23364 H 2112.94 1.67077 5.87297 0
M  V30 23365 H 2114.35 3.50667 4.53547 0
M  V30 23366 H 2112.75 4.24235 4.24434 0
M  V30 23367 H 2113.82 3.90772 2.87098 0
M  V30 23368 N 2115.16 -1.04814 1.17694 0
M  V30 23369 C 2116.44 -1.74812 0.877499 0
M  V30 23370 C 2116.82 -2.01747 -0.621383 0
M  V30 23371 O 2116.17 -1.6566 -1.57382 0
M  V30 23372 C 2116.38 -3.03866 1.71658 0
M  V30 23373 C 2117.72 -3.77745 1.93891 0
M  V30 23374 O 2118.75 -3.13746 1.68648 0
M  V30 23375 O 2117.61 -4.92753 2.3634 0
M  V30 23376 H 2114.7 -0.760352 0.32526 0
M  V30 23377 H 2117.25 -1.10947 1.28409 0
M  V30 23378 H 2116.02 -2.8004 2.73301 0
M  V30 23379 H 2115.64 -3.75469 1.30801 0
M  V30 23380 N 2116.64 -0.977779 -1.23601 0
M  V30 23381 C 2117.92 -0.561714 -1.87361 0
M  V30 23382 C 2118.3 0.961166 -1.87949 0
M  V30 23383 O 2117.64 1.83678 -1.35922 0
M  V30 23384 C 2117.85 -1.16478 -3.28989 0
M  V30 23385 C 2119.2 -1.2559 -4.05601 0
M  V30 23386 O 2120.23 -1.11804 -3.38199 0
M  V30 23387 O 2119.09 -1.47493 -5.2622 0
M  V30 23388 H 2116.18 -0.18876 -0.80517 0
M  V30 23389 H 2118.73 -1.07269 -1.31497 0
M  V30 23390 H 2117.5 -2.20711 -3.23114 0
M  V30 23391 H 2117.12 -0.638457 -3.9244 0
M  V30 23392 N 2118.12 1.38658 -0.749111 0
M  V30 23393 C 2119.39 1.94255 -0.228976 0
M  V30 23394 C 2119.77 1.68478 1.27194 0
M  V30 23395 O 2119.12 1.02082 2.0443 0
M  V30 23396 C 2119.33 3.44183 -0.577827 0
M  V30 23397 C 2120.68 4.21216 -0.534981 0
M  V30 23398 O 2121.7 3.52445 -0.515853 0
M  V30 23399 O 2120.56 5.43806 -0.541959 0
M  V30 23400 H 2117.66 0.825688 -0.0465621 0
M  V30 23401 H 2120.2 1.48077 -0.828929 0
M  V30 23402 H 2118.98 3.56436 -1.6146 0
M  V30 23403 H 2118.6 3.97568 0.0503656 0
M  V30 23404 N 2119.6 0.497834 1.49531 0
M  V30 23405 C 2120.54 -0.296019 2.30709 0
M  V30 23406 C 2121.54 -0.965727 1.39176 0
M  V30 23407 O 2122.74 -0.893777 1.56242 0
M  V30 23408 H 2119.12 -0.114319 0.74326 0
M  V30 23409 H 2121.09 0.408679 2.95588 0
M  V30 23410 C 2119.84 -1.34956 3.20441 0
M  V30 23411 H 2119.16 -0.843631 3.90798 0
M  V30 23412 H 2120.6 -1.87706 3.80187 0
M  V30 23413 C 2119.06 -2.36602 2.39836 0
M  V30 23414 O 2119.59 -3.4242 2.10027 0
M  V30 23415 N 2117.8 -2.08992 2.01918 0
M  V30 23416 H 2117.34 -1.2296 2.2636 0
M  V30 23417 H 2117.3 -2.7723 1.48293 0
M  V30 23418 N 2121.07 -1.5589 0.231532 0
M  V30 23419 C 2122.3 -2.02956 -0.40203 0
M  V30 23420 C 2122.72 -1.11115 -1.5264 0
M  V30 23421 O 2122.07 -0.122623 -1.82088 0
M  V30 23422 C 2122.12 -3.49484 -0.924297 0
M  V30 23423 O 2121.85 -4.37825 0.155252 0
M  V30 23424 C 2123.35 -4.12241 -1.6301 0
M  V30 23425 H 2120.57 -0.663905 -0.097323 0
M  V30 23426 H 2123.11 -2.01467 0.350905 0
M  V30 23427 H 2121.27 -3.51557 -1.62747 0
M  V30 23428 H 2121.68 -5.23956 -0.238854 0
M  V30 23429 H 2123.15 -5.16507 -1.94742 0
M  V30 23430 H 2123.63 -3.57824 -2.54674 0
M  V30 23431 H 2124.24 -4.14046 -0.971887 0
M  V30 23432 N 2122.55 0.0417572 -1.57545 0
M  V30 23433 C 2123.78 0.750955 -1.93327 0
M  V30 23434 C 2124.2 1.68773 -0.830508 0
M  V30 23435 O 2123.56 1.80024 0.214702 0
M  V30 23436 C 2123.61 1.49503 -3.28148 0
M  V30 23437 O 2122.71 2.60754 -3.19501 0
M  V30 23438 H 2122.05 0.202874 -0.632248 0
M  V30 23439 H 2124.58 0.00102047 -2.046 0
M  V30 23440 H 2124.59 1.86775 -3.62738 0
M  V30 23441 H 2123.27 0.80791 -4.07977 0
M  V30 23442 H 2121.84 2.26119 -2.96521 0
M  V30 23443 N 2124.03 1.54445 0.313786 0
M  V30 23444 C 2125.31 1.63779 1.06939 0
M  V30 23445 C 2125.69 0.477876 2.0562 0
M  V30 23446 O 2125.03 -0.526814 2.22344 0
M  V30 23447 C 2125.24 3.01218 1.76263 0
M  V30 23448 C 2126.59 3.57599 2.28928 0
M  V30 23449 O 2127.62 3.03587 1.86316 0
M  V30 23450 O 2126.48 4.52141 3.06971 0
M  V30 23451 H 2123.57 0.663608 0.493511 0
M  V30 23452 H 2126.12 1.6679 0.312895 0
M  V30 23453 H 2124.89 3.77077 1.04539 0
M  V30 23454 H 2124.51 3.01928 2.58699 0
M  V30 23455 N 2125.51 -0.576345 1.46683 0
M  V30 23456 C 2126.78 -1.3367 1.428 0
M  V30 23457 C 2127.16 -2.10788 0.114803 0
M  V30 23458 O 2126.51 -2.09871 -0.903671 0
M  V30 23459 C 2126.72 -2.25735 2.66167 0
M  V30 23460 C 2128.07 -2.87363 3.12583 0
M  V30 23461 O 2129.09 -2.36045 2.6676 0
M  V30 23462 O 2127.95 -3.80589 3.92191 0
M  V30 23463 H 2125.05 -0.600913 0.568184 0
M  V30 23464 H 2127.59 -0.596834 1.58858 0
M  V30 23465 H 2126.37 -1.68221 3.53295 0
M  V30 23466 H 2125.99 -3.07049 2.52599 0
M  V30 23467 N 2126.99 -1.34495 -0.82151 0
M  V30 23468 C 2128.26 -1.17511 -1.56367 0
M  V30 23469 C 2128.64 0.251735 -2.09594 0
M  V30 23470 O 2127.99 1.25325 -1.91065 0
M  V30 23471 C 2128.2 -2.23083 -2.68393 0
M  V30 23472 C 2129.55 -2.58132 -3.37124 0
M  V30 23473 O 2130.57 -2.21883 -2.78651 0
M  V30 23474 O 2129.43 -3.20405 -4.42722 0
M  V30 23475 H 2126.53 -0.455611 -0.690179 0
M  V30 23476 H 2129.07 -1.46132 -0.862761 0
M  V30 23477 H 2127.84 -3.1885 -2.26827 0
M  V30 23478 H 2127.47 -1.95647 -3.46133 0
M  V30 23479 N 2128.46 1.04188 -1.18248 0
M  V30 23480 C 2129.41 2.14282 -0.904765 0
M  V30 23481 C 2130.41 1.68865 0.134493 0
M  V30 23482 O 2131.61 1.79995 -0.013541 0
M  V30 23483 H 2127.99 0.699873 -0.275103 0
M  V30 23484 H 2129.96 2.34904 -1.84018 0
M  V30 23485 C 2128.71 3.44832 -0.445645 0
M  V30 23486 H 2128.03 3.80187 -1.23683 0
M  V30 23487 H 2129.47 4.23005 -0.29031 0
M  V30 23488 C 2127.93 3.26303 0.838325 0
M  V30 23489 O 2128.46 3.53774 1.90282 0
M  V30 23490 N 2126.67 2.79643 0.79045 0
M  V30 23491 H 2126.21 2.57488 -0.0760399 0
M  V30 23492 H 2126.17 2.67626 1.64996 0
M  V30 23493 N 2129.94 0.98432 1.23081 0
M  V30 23494 C 2131.17 0.673535 1.9563 0
M  V30 23495 C 2131.59 -0.760222 1.72818 0
M  V30 23496 O 2130.94 -1.51201 1.02198 0
M  V30 23497 C 2130.99 0.959283 3.4854 0
M  V30 23498 O 2130.71 2.33669 3.70581 0
M  V30 23499 C 2132.22 0.664998 4.38284 0
M  V30 23500 H 2129.44 0.249871 0.62274 0
M  V30 23501 H 2131.98 1.31677 1.56466 0
M  V30 23502 H 2130.13 0.361997 3.85705 0
M  V30 23503 H 2130.55 2.42938 4.64846 0
M  V30 23504 H 2132.02 0.915271 5.44359 0
M  V30 23505 H 2132.5 -0.400961 4.37366 0
M  V30 23506 H 2133.11 1.24294 4.06732 0
M  V30 23507 N 2131.42 -1.38259 0.756453 0
M  V30 23508 C 2132.65 -2.04861 0.323535 0
M  V30 23509 C 2133.07 -1.56679 -1.04083 0
M  V30 23510 O 2132.43 -0.72007 -1.66387 0
M  V30 23511 C 2132.48 -3.58812 0.358692 0
M  V30 23512 O 2131.58 -4.07304 -0.646296 0
M  V30 23513 H 2130.92 -0.64848 0.142723 0
M  V30 23514 H 2133.45 -1.76877 1.02838 0
M  V30 23515 H 2133.46 -4.07456 0.210579 0
M  V30 23516 H 2132.14 -3.93238 1.35413 0
M  V30 23517 H 2130.71 -3.7002 -0.462561 0
M  V30 23518 N 2132.9 -0.505757 -1.49264 0
M  V30 23519 C 2134.18 0.100315 -1.95343 0
M  V30 23520 C 2134.56 1.53667 -1.44739 0
M  V30 23521 O 2133.9 2.18663 -0.663221 0
M  V30 23522 C 2134.11 0.00805543 -3.48999 0
M  V30 23523 C 2135.46 0.179587 -4.2422 0
M  V30 23524 O 2136.49 0.0830161 -3.56103 0
M  V30 23525 O 2135.34 0.378466 -5.45188 0
M  V30 23526 H 2132.44 0.0926837 -0.82179 0
M  V30 23527 H 2134.98 -0.568634 -1.59889 0
M  V30 23528 H 2133.76 -0.993441 -3.78479 0
M  V30 23529 H 2133.38 0.716938 -3.91083 0
M  V30 23530 N 2134.38 1.55765 -0.239796 0
M  V30 23531 C 2135.65 1.90659 0.436876 0
M  V30 23532 C 2136.03 1.1596 1.76398 0
M  V30 23533 O 2135.38 0.274778 2.26842 0
M  V30 23534 C 2135.59 3.43593 0.611939 0
M  V30 23535 C 2136.94 4.1471 0.911065 0
M  V30 23536 O 2137.96 3.49293 0.698064 0
M  V30 23537 O 2136.82 5.30411 1.3163 0
M  V30 23538 H 2133.92 0.793348 0.233511 0
M  V30 23539 H 2136.46 1.67318 -0.283335 0
M  V30 23540 H 2135.23 3.89961 -0.323424 0
M  V30 23541 H 2134.86 3.72773 1.38296 0
M  V30 23542 N 2135.85 -0.0334016 1.57565 0
M  V30 23543 C 2137.13 -0.760253 1.80221 0
M  V30 23544 C 2137.51 -1.93806 0.836817 0
M  V30 23545 O 2136.86 -2.28174 -0.121959 0
M  V30 23546 C 2137.07 -1.19735 3.27818 0
M  V30 23547 C 2138.42 -1.61505 3.92685 0
M  V30 23548 O 2139.44 -1.29204 3.31941 0
M  V30 23549 O 2138.3 -2.21441 4.99626 0
M  V30 23550 H 2135.39 -0.36729 0.740964 0
M  V30 23551 H 2137.94 -0.0105137 1.69697 0
M  V30 23552 H 2136.71 -0.356354 3.89674 0
M  V30 23553 H 2136.34 -2.00724 3.43214 0
M  V30 23554 N 2137.33 -1.54609 -0.305591 0
M  V30 23555 C 2138.28 -1.85991 -1.39679 0
M  V30 23556 C 2139.27 -0.733256 -1.52708 0
M  V30 23557 O 2140.48 -0.917183 -1.5488 0
M  V30 23558 H 2136.86 -0.589836 -0.466474 0
M  V30 23559 H 2138.83 -2.77209 -1.10444 0
M  V30 23560 C 2137.58 -2.11986 -2.75604 0
M  V30 23561 H 2136.9 -2.9815 -2.66358 0
M  V30 23562 H 2138.34 -2.37886 -3.50979 0
M  V30 23563 C 2136.8 -0.916972 -3.24181 0
M  V30 23564 O 2137.33 -0.135175 -4.01472 0
M  V30 23565 N 2135.53 -0.723621 -2.81446 0
M  V30 23566 H 2135.08 -1.36103 -2.18709 0
M  V30 23567 H 2135.04 0.0796694 -3.14299 0
M  V30 23568 N 2138.81 0.568558 -1.46987 0
M  V30 23569 C 2140.04 1.35191 -1.56624 0
M  V30 23570 C 2140.45 1.87602 -0.212353 0
M  V30 23571 O 2139.81 1.64388 0.792639 0
M  V30 23572 C 2139.86 2.52969 -2.58242 0
M  V30 23573 O 2139.58 2.02726 -3.88373 0
M  V30 23574 C 2141.08 3.45334 -2.77955 0
M  V30 23575 H 2138.3 0.412505 -0.529227 0
M  V30 23576 H 2140.85 0.689847 -1.92513 0
M  V30 23577 H 2139 3.15136 -2.25318 0
M  V30 23578 H 2139.42 2.79532 -4.43804 0
M  V30 23579 H 2140.89 4.2442 -3.52947 0
M  V30 23580 H 2141.37 3.98165 -1.85368 0
M  V30 23581 H 2141.97 2.88992 -3.12032 0
M  V30 23582 N 2140.29 1.34929 0.814366 0
M  V30 23583 C 2141.51 1.31019 1.60776 0
M  V30 23584 C 2141.94 -0.111347 1.8777 0
M  V30 23585 O 2141.3 -1.07577 1.45935 0
M  V30 23586 C 2141.34 2.11503 2.92059 0
M  V30 23587 O 2140.45 1.49042 3.84526 0
M  V30 23588 H 2139.79 0.449572 0.488652 0
M  V30 23589 H 2142.32 1.77857 1.01133 0
M  V30 23590 H 2142.33 2.23174 3.41552 0
M  V30 23591 H 2141 3.14853 2.71736 0
M  V30 23592 H 2139.58 1.46165 3.4306 0
M  V30 23593 N 2141.77 -1.0356 1.18799 0
M  V30 23594 C 2143.01 -1.76497 0.984535 0
M  V30 23595 C 2143.34 -1.88833 -0.486544 0
M  V30 23596 O 2142.61 -1.41702 -1.35268 0
M  V30 23597 H 2141.19 -0.653818 0.36129 0
M  V30 23598 H 2143.85 -1.24956 1.49573 0
M  V30 23599 H 2142.94 -2.77573 1.42687 0
M  V30 23600 N 2143.25 -0.990834 -1.22557 0
M  V30 23601 C 2144.52 -0.581554 -1.86755 0
M  V30 23602 C 2144.9 0.941178 -1.88958 0
M  V30 23603 O 2144.25 1.82226 -1.37862 0
M  V30 23604 C 2144.46 -1.19961 -3.27735 0
M  V30 23605 C 2145.81 -1.29885 -4.04246 0
M  V30 23606 O 2146.83 -1.15385 -3.36994 0
M  V30 23607 O 2145.69 -1.53066 -5.24626 0
M  V30 23608 H 2142.79 -0.197289 -0.803123 0
M  V30 23609 H 2145.33 -1.08658 -1.30351 0
M  V30 23610 H 2144.1 -2.24125 -3.20755 0
M  V30 23611 H 2143.73 -0.680045 -3.91741 0
M  V30 23612 N 2144.72 1.37856 -0.763775 0
M  V30 23613 C 2146 1.94001 -0.249566 0
M  V30 23614 C 2146.38 1.69818 1.254 0
M  V30 23615 O 2145.73 1.04245 2.03335 0
M  V30 23616 C 2145.94 3.43551 -0.614299 0
M  V30 23617 C 2147.29 4.20625 -0.579627 0
M  V30 23618 O 2148.31 3.51878 -0.553206 0
M  V30 23619 O 2147.17 5.43201 -0.599606 0
M  V30 23620 H 2144.26 0.825148 -0.055317 0
M  V30 23621 H 2146.81 1.4719 -0.844588 0
M  V30 23622 H 2145.58 3.54703 -1.65231 0
M  V30 23623 H 2145.2 3.97599 0.00819535 0
M  V30 23624 N 2146.2 0.513665 1.48994 0
M  V30 23625 C 2147.15 -0.271533 2.3101 0
M  V30 23626 C 2148.14 -0.950911 1.40193 0
M  V30 23627 O 2149.35 -0.877155 1.57181 0
M  V30 23628 H 2145.72 -0.106429 0.744431 0
M  V30 23629 H 2147.7 0.440007 2.95138 0
M  V30 23630 C 2146.44 -1.3155 3.21854 0
M  V30 23631 H 2145.77 -0.802134 3.91671 0
M  V30 23632 H 2147.21 -1.83663 3.82157 0
M  V30 23633 C 2145.67 -2.34045 2.42332 0
M  V30 23634 O 2146.2 -3.40173 2.13647 0
M  V30 23635 N 2144.4 -2.06838 2.04123 0
M  V30 23636 H 2143.95 -1.20552 2.27651 0
M  V30 23637 H 2143.91 -2.75641 1.51225 0
M  V30 23638 N 2147.68 -1.55636 0.248053 0
M  V30 23639 C 2148.91 -2.03371 -0.380481 0
M  V30 23640 C 2149.32 -1.12727 -1.51453 0
M  V30 23641 O 2148.68 -0.141929 -1.81947 0
M  V30 23642 C 2148.73 -3.50445 -0.887178 0
M  V30 23643 O 2148.45 -4.37636 0.20168 0
M  V30 23644 C 2149.95 -4.13947 -1.58628 0
M  V30 23645 H 2147.17 -0.664899 -0.0902759 0
M  V30 23646 H 2149.72 -2.01083 0.372253 0
M  V30 23647 H 2147.87 -3.53263 -1.59009 0
M  V30 23648 H 2148.29 -5.2418 -0.183268 0
M  V30 23649 H 2149.76 -5.18543 -1.89253 0
M  V30 23650 H 2150.24 -3.60505 -2.50864 0
M  V30 23651 H 2150.84 -4.15054 -0.927917 0
M  V30 23652 N 2149.16 0.0250451 -1.5758 0
M  V30 23653 C 2150.38 0.730408 -1.94113 0
M  V30 23654 C 2150.81 1.67882 -0.848362 0
M  V30 23655 O 2150.17 1.80242 0.195596 0
M  V30 23656 C 2150.21 1.46014 -3.29715 0
M  V30 23657 O 2149.32 2.57351 -3.22249 0
M  V30 23658 H 2148.66 0.196157 -0.634365 0
M  V30 23659 H 2151.19 -0.0206802 -2.0459 0
M  V30 23660 H 2151.2 1.82917 -3.64699 0
M  V30 23661 H 2149.87 0.764593 -4.08811 0
M  V30 23662 H 2148.45 2.22961 -2.98903 0
M  V30 23663 N 2150.64 1.54769 0.297388 0
M  V30 23664 C 2151.91 1.64904 1.05195 0
M  V30 23665 C 2152.29 0.499658 2.05102 0
M  V30 23666 O 2151.64 -0.503202 2.2289 0
M  V30 23667 C 2151.85 3.03071 1.73058 0
M  V30 23668 C 2153.2 3.60007 2.25123 0
M  V30 23669 O 2154.22 3.05546 1.83085 0
M  V30 23670 O 2153.08 4.55371 3.02158 0
M  V30 23671 H 2150.18 0.668805 0.486444 0
M  V30 23672 H 2152.72 1.67113 0.295187 0
M  V30 23673 H 2151.49 3.78165 1.00534 0
M  V30 23674 H 2151.12 3.04655 2.55482 0
M  V30 23675 N 2152.11 -0.560755 1.47286 0
M  V30 23676 C 2153.39 -1.32148 1.4421 0
M  V30 23677 C 2153.77 -2.10654 0.137154 0
M  V30 23678 O 2153.12 -2.10818 -0.88136 0
M  V30 23679 C 2153.33 -2.22899 2.68546 0
M  V30 23680 C 2154.68 -2.84031 3.15613 0
M  V30 23681 O 2155.7 -2.33202 2.69249 0
M  V30 23682 O 2154.56 -3.76408 3.96206 0
M  V30 23683 H 2151.65 -0.594853 0.574525 0
M  V30 23684 H 2154.2 -0.579952 1.59482 0
M  V30 23685 H 2152.97 -1.64465 3.55059 0
M  V30 23686 H 2152.59 -3.04353 2.55842 0
M  V30 23687 N 2153.59 -1.35359 -0.807199 0
M  V30 23688 C 2154.87 -1.19163 -1.55111 0
M  V30 23689 C 2155.25 0.22949 -2.09849 0
M  V30 23690 O 2154.6 1.23292 -1.92383 0
M  V30 23691 C 2154.81 -2.25917 -2.66012 0
M  V30 23692 C 2156.15 -2.61693 -3.34368 0
M  V30 23693 O 2157.18 -2.24826 -2.76282 0
M  V30 23694 O 2156.04 -3.25083 -4.39299 0
M  V30 23695 H 2153.13 -0.462906 -0.685308 0
M  V30 23696 H 2155.68 -1.47039 -0.847213 0
M  V30 23697 H 2154.45 -3.21238 -2.23432 0
M  V30 23698 H 2154.07 -1.99307 -3.44038 0
M  V30 23699 N 2155.07 1.02928 -1.19346 0
M  V30 23700 C 2156.02 2.1331 -0.927441 0
M  V30 23701 C 2157.01 1.68998 0.116575 0
M  V30 23702 O 2158.22 1.7997 -0.0326311 0
M  V30 23703 H 2154.59 0.696916 -0.282511 0
M  V30 23704 H 2156.56 2.32939 -1.865 0
M  V30 23705 C 2155.31 3.4434 -0.482194 0
M  V30 23706 H 2154.64 3.78854 -1.27709 0
M  V30 23707 H 2156.08 4.22673 -0.335159 0
M  V30 23708 C 2154.53 3.27174 0.803669 0
M  V30 23709 O 2155.06 3.55772 1.86519 0
M  V30 23710 N 2153.27 2.80466 0.760745 0
M  V30 23711 H 2152.82 2.57393 -0.103346 0
M  V30 23712 H 2152.78 2.69361 1.62149 0
M  V30 23713 N 2156.55 0.997319 1.2203 0
M  V30 23714 C 2157.78 0.694247 1.94905 0
M  V30 23715 C 2158.19 -0.741849 1.73615 0
M  V30 23716 O 2157.55 -1.50108 1.03796 0
M  V30 23717 C 2157.6 0.996196 3.47503 0
M  V30 23718 O 2157.32 2.37587 3.68082 0
M  V30 23719 C 2158.82 0.711446 4.37554 0
M  V30 23720 H 2156.04 0.256462 0.620055 0
M  V30 23721 H 2158.58 1.33329 1.5506 0
M  V30 23722 H 2156.74 0.402886 3.85299 0
M  V30 23723 H 2157.15 2.47854 4.62243 0
M  V30 23724 H 2158.63 0.972956 5.43358 0
M  V30 23725 H 2159.1 -0.35455 4.37767 0
M  V30 23726 H 2159.71 1.28601 4.05391 0
M  V30 23727 N 2158.03 -1.37449 0.771075 0
M  V30 23728 C 2159.25 -2.04506 0.345245 0
M  V30 23729 C 2159.68 -1.57774 -1.02415 0
M  V30 23730 O 2159.03 -0.737677 -1.65614 0
M  V30 23731 C 2159.08 -3.58411 0.396728 0
M  V30 23732 O 2158.19 -4.07967 -0.60306 0
M  V30 23733 H 2157.53 -0.64693 0.149593 0
M  V30 23734 H 2160.06 -1.75777 1.04708 0
M  V30 23735 H 2160.07 -4.0721 0.253784 0
M  V30 23736 H 2158.74 -3.9178 1.39576 0
M  V30 23737 H 2157.32 -3.7049 -0.423289 0
M  V30 23738 N 2159.5 -0.52156 -1.4872 0
M  V30 23739 C 2160.78 0.0795904 -1.95438 0
M  V30 23740 C 2161.16 1.52124 -1.46361 0
M  V30 23741 O 2160.51 2.17948 -0.686376 0
M  V30 23742 C 2160.72 -0.028961 -3.48988 0
M  V30 23743 C 2162.07 0.134582 -4.24387 0
M  V30 23744 O 2163.09 0.0452419 -3.56171 0
M  V30 23745 O 2161.95 0.32062 -5.45559 0
M  V30 23746 H 2159.04 0.0839623 -0.822727 0
M  V30 23747 H 2161.59 -0.58556 -1.59277 0
M  V30 23748 H 2160.36 -1.03353 -3.77404 0
M  V30 23749 H 2159.99 0.675418 -3.91821 0
M  V30 23750 N 2160.98 1.55502 -0.256304 0
M  V30 23751 C 2161.89 2.25422 0.649785 0
M  V30 23752 C 2162.91 1.27356 1.1856 0
M  V30 23753 O 2164.08 1.60253 1.21988 0
M  V30 23754 C 2161.15 2.94725 1.82587 0
M  V30 23755 C 2160.21 4.08224 1.32859 0
M  V30 23756 C 2159.44 4.74213 2.44862 0
M  V30 23757 O 2159.67 4.39321 3.63804 0
M  V30 23758 O 2158.6 5.6254 2.14086 0
M  V30 23759 H 2162.43 3.03584 0.083948 0
M  V30 23760 H 2160.01 1.4938 -0.0244329 0
M  V30 23761 H 2161.89 3.38344 2.512 0
M  V30 23762 H 2160.57 2.19495 2.37915 0
M  V30 23763 H 2159.48 3.69102 0.609468 0
M  V30 23764 H 2160.81 4.853 0.82129 0
M  V30 23765 N 2162.46 -0.0166879 1.57591 0
M  V30 23766 C 2163.7 -0.709687 1.91684 0
M  V30 23767 C 2164.06 -1.71854 0.856176 0
M  V30 23768 O 2165.27 -2.46069 1.08182 0
M  V30 23769 C 2163.54 -1.35082 3.30889 0
M  V30 23770 S 2165.1 -2.07126 3.86839 0
M  V30 23771 H 2161.91 -0.234822 0.671103 0
M  V30 23772 H 2164.52 0.0359916 1.95467 0
M  V30 23773 H 2163.22 -0.603509 4.05938 0
M  V30 23774 H 2162.75 -2.13479 3.3044 0
M  V30 23775 H 2164.77 -3.34431 3.66566 0
M  V30 23776 N 2163.94 -1.54924 -0.289176 0
M  V30 23777 C 2165.19 -1.74766 -1.02289 0
M  V30 23778 C 2165.51 -0.539873 -1.86857 0
M  V30 23779 O 2164.77 0.477978 -1.89773 0
M  V30 23780 C 2165.07 -2.99629 -1.94826 0
M  V30 23781 C 2164.73 -4.32897 -1.26139 0
M  V30 23782 C 2163.4 -4.69121 -1.0714 0
M  V30 23783 C 2165.75 -5.15461 -0.771309 0
M  V30 23784 C 2163.08 -5.85479 -0.37835 0
M  V30 23785 C 2165.43 -6.32533 -0.0919302 0
M  V30 23786 C 2164.09 -6.67409 0.109915 0
M  V30 23787 H 2163.36 -0.639515 -0.374301 0
M  V30 23788 H 2166.01 -1.89188 -0.296646 0
M  V30 23789 H 2164.31 -2.80038 -2.74018 0
M  V30 23790 H 2166.01 -3.12176 -2.51688 0
M  V30 23791 H 2162.6 -4.04416 -1.41935 0
M  V30 23792 H 2166.78 -4.87965 -0.905767 0
M  V30 23793 H 2162.04 -6.11035 -0.211091 0
M  V30 23794 H 2166.21 -6.95772 0.295654 0
M  V30 23795 H 2163.84 -7.57425 0.648932 0
M  V30 23796 N 2165.42 0.552936 -1.47582 0
M  V30 23797 C 2166.69 1.31381 -1.44908 0
M  V30 23798 C 2167.07 2.10578 -0.148323 0
M  V30 23799 O 2166.42 2.11283 0.870167 0
M  V30 23800 C 2166.63 2.21471 -2.69725 0
M  V30 23801 C 2167.98 2.82353 -3.17115 0
M  V30 23802 O 2169 2.31771 -2.70482 0
M  V30 23803 O 2167.86 3.74302 -3.98196 0
M  V30 23804 H 2164.96 0.591798 -0.577672 0
M  V30 23805 H 2167.5 0.571486 -1.59788 0
M  V30 23806 H 2166.27 1.62579 -3.55926 0
M  V30 23807 H 2165.9 3.02992 -2.57452 0
M  V30 23808 N 2166.89 1.35785 0.800009 0
M  V30 23809 C 2168.14 1.28759 1.55255 0
M  V30 23810 C 2168.46 -0.134123 1.9514 0
M  V30 23811 O 2169.66 -0.3267 2.69527 0
M  V30 23812 C 2168.12 2.25848 2.80215 0
M  V30 23813 C 2167.73 3.73399 2.47542 0
M  V30 23814 C 2169.47 2.27777 3.58215 0
M  V30 23815 C 2167.38 4.62293 3.68834 0
M  V30 23816 H 2166.31 0.478422 0.582777 0
M  V30 23817 H 2168.96 1.61087 0.878812 0
M  V30 23818 H 2167.34 1.86499 3.49334 0
M  V30 23819 H 2168.51 4.21421 1.86389 0
M  V30 23820 H 2166.83 3.74142 1.82775 0
M  V30 23821 H 2169.43 2.91406 4.48315 0
M  V30 23822 H 2169.77 1.28334 3.96025 0
M  V30 23823 H 2170.3 2.65688 2.96065 0
M  V30 23824 H 2167.04 5.6276 3.36127 0
M  V30 23825 H 2166.56 4.18993 4.29191 0
M  V30 23826 H 2168.24 4.78042 4.35987 0
M  V30 23827 N 2168.37 -1.02294 1.19891 0
M  V30 23828 C 2169.6 -1.79941 1.03131 0
M  V30 23829 C 2170.02 -1.8346 -0.415201 0
M  V30 23830 O 2169.38 -1.26499 -1.29876 0
M  V30 23831 C 2169.43 -3.22565 1.61196 0
M  V30 23832 O 2168.53 -4.03644 0.845295 0
M  V30 23833 H 2167.87 -0.555254 0.364128 0
M  V30 23834 H 2170.4 -1.28709 1.59045 0
M  V30 23835 H 2170.41 -3.73296 1.64663 0
M  V30 23836 H 2169.09 -3.19318 2.66474 0
M  V30 23837 H 2167.67 -3.62262 0.884338 0
M  V30 23838 N 2169.85 -1.00378 -1.21499 0
M  V30 23839 C 2171.09 -0.694137 -1.92253 0
M  V30 23840 C 2171.45 0.760945 -1.76277 0
M  V30 23841 O 2172.66 1.18251 -2.41392 0
M  V30 23842 C 2170.93 -1.10215 -3.39982 0
M  V30 23843 S 2172.49 -0.912529 -4.29207 0
M  V30 23844 H 2169.3 -0.253452 -0.664292 0
M  V30 23845 H 2171.91 -1.28835 -1.47044 0
M  V30 23846 H 2170.61 -2.1573 -3.49126 0
M  V30 23847 H 2170.14 -0.500184 -3.90207 0
M  V30 23848 H 2172.16 0.191044 -4.95832 0
M  V30 23849 N 2171.33 1.37038 -0.778354 0
M  V30 23850 C 2172.57 2.01365 -0.350935 0
M  V30 23851 C 2172.93 1.60448 1.05454 0
M  V30 23852 O 2174.13 2.17284 1.58244 0
M  V30 23853 C 2172.4 3.53926 -0.497118 0
M  V30 23854 S 2173.96 4.38523 -0.15594 0
M  V30 23855 H 2170.78 0.698132 -0.134659 0
M  V30 23856 H 2173.38 1.67122 -1.01442 0
M  V30 23857 H 2172.09 3.81193 -1.52052 0
M  V30 23858 H 2171.62 3.92976 0.182687 0
M  V30 23859 H 2173.63 4.85044 1.04629 0
M  V30 23860 N 2172.81 0.529439 1.48441 0
M  V30 23861 C 2174.03 -0.00290016 2.074 0
M  V30 23862 C 2174.46 -1.27443 1.38347 0
M  V30 23863 O 2173.82 -1.75646 0.449242 0
M  V30 23864 C 2173.86 -0.210465 3.59985 0
M  V30 23865 O 2172.97 -1.27924 3.92057 0
M  V30 23866 H 2172.31 0.0388892 0.66286 0
M  V30 23867 H 2174.84 0.737197 1.90857 0
M  V30 23868 H 2174.85 -0.433287 4.05693 0
M  V30 23869 H 2173.52 0.718388 4.09649 0
M  V30 23870 H 2172.1 -1.03912 3.58129 0
M  V30 23871 N 2174.29 -1.55364 0.264547 0
M  V30 23872 C 2175.53 -1.99655 -0.355771 0
M  V30 23873 C 2175.86 -1.15266 -1.56293 0
M  V30 23874 O 2175.14 -0.220196 -1.9325 0
M  V30 23875 C 2175.42 -3.52238 -0.748347 0
M  V30 23876 C 2175.28 -4.47386 0.465419 0
M  V30 23877 C 2176.59 -4.10422 -1.58877 0
M  V30 23878 H 2173.71 -0.725828 -0.12784 0
M  V30 23879 H 2176.36 -1.86375 0.369383 0
M  V30 23880 H 2174.51 -3.63686 -1.36619 0
M  V30 23881 H 2176.18 -4.47896 1.10395 0
M  V30 23882 H 2174.42 -4.1948 1.10539 0
M  V30 23883 H 2175.09 -5.51804 0.147135 0
M  V30 23884 H 2177.57 -4.02185 -1.06707 0
M  V30 23885 H 2176.44 -5.17415 -1.83228 0
M  V30 23886 H 2176.7 -3.59985 -2.56639 0
M  V30 23887 N 2175.76 0.00833021 -1.57598 0
M  V30 23888 C 2176.71 1.01074 -2.04372 0
M  V30 23889 C 2177.7 1.30812 -0.936863 0
M  V30 23890 O 2178.89 1.30049 -1.20067 0
M  V30 23891 C 2176.02 2.3054 -2.54374 0
M  V30 23892 C 2175.1 2.03803 -3.71921 0
M  V30 23893 N 2175.5 1.47194 -4.83908 0
M  V30 23894 C 2173.79 2.33987 -3.79692 0
M  V30 23895 C 2174.49 1.36737 -5.65401 0
M  V30 23896 N 2173.47 1.85013 -5.11147 0
M  V30 23897 H 2177.27 0.56742 -2.88371 0
M  V30 23898 H 2174.79 0.214206 -1.60981 0
M  V30 23899 H 2176.78 3.03184 -2.86155 0
M  V30 23900 H 2175.44 2.75532 -1.71791 0
M  V30 23901 H 2176.45 1.15186 -5.04928 0
M  V30 23902 H 2173.13 2.81911 -3.07948 0
M  V30 23903 H 2174.52 0.932837 -6.65393 0
M  V30 23904 N 2177.24 1.55075 0.280956 0
M  V30 23905 C 2178.47 1.79652 1.03634 0
M  V30 23906 C 2178.89 0.564074 1.79443 0
M  V30 23907 O 2178.25 -0.486088 1.74662 0
M  V30 23908 C 2178.3 3.01583 1.97687 0
M  V30 23909 O 2177.4 2.76111 3.06327 0
M  V30 23910 H 2176.74 0.594024 0.296701 0
M  V30 23911 H 2179.27 2.02203 0.312282 0
M  V30 23912 H 2179.28 3.301 2.39787 0
M  V30 23913 H 2177.96 3.90937 1.41919 0
M  V30 23914 H 2176.53 2.58668 2.68598 0
M  V30 23915 N 2178.72 -0.545102 1.47873 0
M  V30 23916 C 2179.63 -1.67829 1.63922 0
M  V30 23917 C 2180.65 -1.65989 0.521885 0
M  V30 23918 O 2181.82 -1.85216 0.791005 0
M  V30 23919 C 2178.89 -3.0432 1.66102 0
M  V30 23920 C 2177.95 -3.17134 2.89352 0
M  V30 23921 C 2177.18 -4.47114 2.91419 0
M  V30 23922 O 2177.4 -5.33307 2.02337 0
M  V30 23923 O 2176.34 -4.63974 3.83421 0
M  V30 23924 H 2180.16 -1.57229 2.59832 0
M  V30 23925 H 2177.75 -0.716489 1.31098 0
M  V30 23926 H 2179.63 -3.85524 1.70145 0
M  V30 23927 H 2178.31 -3.15277 0.733623 0
M  V30 23928 H 2177.21 -2.35282 2.90849 0
M  V30 23929 H 2178.55 -3.11086 3.81426 0
M  V30 23930 N 2180.2 -1.36208 -0.792797 0
M  V30 23931 C 2181.47 -1.20801 -1.53839 0
M  V30 23932 C 2181.85 0.20722 -2.1008 0
M  V30 23933 O 2181.2 1.21244 -1.9368 0
M  V30 23934 C 2181.41 -2.28726 -2.63601 0
M  V30 23935 C 2182.76 -2.65225 -3.31573 0
M  V30 23936 O 2183.78 -2.27744 -2.73882 0
M  V30 23937 O 2182.64 -3.29724 -4.35826 0
M  V30 23938 H 2179.74 -0.470148 -0.68036 0
M  V30 23939 H 2182.28 -1.47929 -0.83157 0
M  V30 23940 H 2181.06 -3.2359 -2.20013 0
M  V30 23941 H 2180.68 -2.02945 -3.41905 0
M  V30 23942 N 2181.68 1.01656 -1.20431 0
M  V30 23943 C 2182.95 1.72424 -0.923539 0
M  V30 23944 C 2183.33 2.03324 0.567675 0
M  V30 23945 O 2182.68 1.69774 1.52935 0
M  V30 23946 C 2182.89 2.99208 -1.79654 0
M  V30 23947 C 2184.24 3.72472 -2.03838 0
M  V30 23948 O 2185.26 3.09164 -1.76907 0
M  V30 23949 O 2184.12 4.86314 -2.49321 0
M  V30 23950 H 2181.22 0.751461 -0.345305 0
M  V30 23951 H 2183.76 1.07504 -1.31305 0
M  V30 23952 H 2182.53 2.72695 -2.80629 0
M  V30 23953 H 2182.16 3.71869 -1.4071 0
M  V30 23954 N 2183.15 1.01021 1.20965 0
M  V30 23955 C 2184.38 0.714661 1.94698 0
M  V30 23956 C 2184.8 -0.717235 1.73889 0
M  V30 23957 O 2184.16 -1.49265 1.02906 0
M  V30 23958 C 2184.21 1.04769 3.45045 0
M  V30 23959 O 2183.31 0.155818 4.12106 0
M  V30 23960 H 2182.65 0.265768 0.608493 0
M  V30 23961 H 2185.18 1.35186 1.53577 0
M  V30 23962 H 2185.19 0.996722 3.95638 0
M  V30 23963 H 2183.87 2.09099 3.59514 0
M  V30 23964 H 2182.45 0.263764 3.71966 0
M  V30 23965 N 2184.63 -1.36623 0.78561 0
M  V30 23966 C 2185.86 -2.03305 0.367534 0
M  V30 23967 C 2186.27 -1.59374 -1.01963 0
M  V30 23968 O 2185.61 -0.77687 -1.66464 0
M  V30 23969 C 2185.67 -3.57815 0.347627 0
M  V30 23970 C 2185.34 -4.24932 1.68172 0
M  V30 23971 C 2186.34 -4.48087 2.63656 0
M  V30 23972 C 2184.02 -4.62483 1.95997 0
M  V30 23973 C 2186.01 -5.07868 3.85161 0
M  V30 23974 C 2183.7 -5.21982 3.17771 0
M  V30 23975 C 2184.7 -5.44613 4.12172 0
M  V30 23976 O 2184.39 -6.02864 5.31799 0
M  V30 23977 H 2184.12 -0.659134 0.150061 0
M  V30 23978 H 2186.67 -1.75659 1.06456 0
M  V30 23979 H 2184.9 -3.84564 -0.405872 0
M  V30 23980 H 2186.59 -4.05875 -0.0452626 0
M  V30 23981 H 2187.36 -4.19476 2.43444 0
M  V30 23982 H 2183.24 -4.44194 1.2334 0
M  V30 23983 H 2186.78 -5.25448 4.58857 0
M  V30 23984 H 2182.68 -5.50018 3.37861 0
M  V30 23985 H 2183.45 -6.21333 5.32811 0
M  V30 23986 N 2186.11 -0.537304 -1.48158 0
M  V30 23987 C 2187.52 -0.0987274 -1.86439 0
M  V30 23988 C 2187.87 1.32599 -1.4461 0
M  V30 23989 O 2187 1.99427 -0.840112 0
M  V30 23990 C 2187.59 -0.172391 -3.38361 0
M  V30 23991 C 2186.15 0.211031 -3.75808 0
M  V30 23992 C 2185.3 -0.528892 -2.7221 0
M  V30 23993 H 2188.25 -0.74815 -1.39959 0
M  V30 23994 H 2188.27 0.614074 -3.75512 0
M  V30 23995 H 2187.78 -1.20942 -3.68774 0
M  V30 23996 H 2185.88 1.24993 -3.51009 0
M  V30 23997 H 2186 -0.133675 -4.78913 0
M  V30 23998 H 2184.36 0.0257117 -2.54687 0
M  V30 23999 H 2185.14 -1.5667 -3.05466 0
M  V30 24000 N 2187.59 1.55221 -0.272782 0
M  V30 24001 C 2188.84 1.99151 0.343986 0
M  V30 24002 C 2189.16 1.16259 1.56553 0
M  V30 24003 O 2188.43 0.25154 1.94278 0
M  V30 24004 H 2187.01 0.735586 0.130087 0
M  V30 24005 H 2189.67 1.91208 -0.377577 0
M  V30 24006 H 2188.77 3.05562 0.635452 0
M  V30 24007 N 2189.07 2.77022e-05 1.576 0
M  V30 24008 C 2190.29 -0.699433 1.9525 0
M  V30 24009 C 2190.72 -1.66511 0.874964 0
M  V30 24010 O 2190.07 -1.8053 -0.166897 0
M  V30 24011 C 2190.12 -1.4075 3.31996 0
M  V30 24012 O 2189.23 -2.52192 3.26302 0
M  V30 24013 H 2188.57 -0.18604 0.637405 0
M  V30 24014 H 2191.1 0.053226 2.04531 0
M  V30 24015 H 2191.11 -1.77092 3.67563 0
M  V30 24016 H 2189.78 -0.699458 4.09976 0
M  V30 24017 H 2188.36 -2.18177 3.02412 0
M  V30 24018 N 2190.54 -1.55222 -0.272728 0
M  V30 24019 C 2191.77 -1.80199 -1.02679 0
M  V30 24020 C 2192.19 -0.573583 -1.79141 0
M  V30 24021 O 2191.55 0.476818 -1.74918 0
M  V30 24022 C 2191.6 -3.02627 -1.96084 0
M  V30 24023 O 2190.7 -2.77732 -3.04858 0
M  V30 24024 H 2190.05 -0.595589 -0.293547 0
M  V30 24025 H 2192.58 -2.02366 -0.301554 0
M  V30 24026 H 2192.59 -3.31367 -2.38033 0
M  V30 24027 H 2191.26 -3.91684 -1.39844 0
M  V30 24028 H 2189.84 -2.60089 -2.67223 0
M  V30 24029 N 2192.02 0.537252 -1.4816 0
M  V30 24030 C 2193.3 1.29837 -1.46294 0
M  V30 24031 C 2193.68 2.10409 -0.17065 0
M  V30 24032 O 2193.03 2.12194 0.847709 0
M  V30 24033 C 2193.24 2.18598 -2.72058 0
M  V30 24034 C 2194.59 2.78974 -3.20092 0
M  V30 24035 O 2195.61 2.28889 -2.72925 0
M  V30 24036 O 2194.47 3.70057 -4.02144 0
M  V30 24037 H 2191.56 0.585637 -0.583916 0
M  V30 24038 H 2194.11 0.554506 -1.60385 0
M  V30 24039 H 2192.88 1.58795 -3.57631 0
M  V30 24040 H 2192.5 3.00244 -2.60651 0
M  V30 24041 N 2193.5 1.36626 0.785562 0
M  V30 24042 C 2194.45 1.27793 1.8882 0
M  V30 24043 C 2195.43 0.168607 1.60014 0
M  V30 24044 O 2196.63 0.401767 1.7238 0
M  V30 24045 C 2193.76 1.07333 3.2609 0
M  V30 24046 C 2192.84 2.22749 3.60893 0
M  V30 24047 N 2193.23 3.48083 3.66976 0
M  V30 24048 C 2191.53 2.14599 3.90977 0
M  V30 24049 C 2192.23 4.24108 3.98129 0
M  V30 24050 N 2191.21 3.53091 4.13313 0
M  V30 24051 H 2195.01 2.22727 1.91755 0
M  V30 24052 H 2192.52 1.29401 0.981288 0
M  V30 24053 H 2194.52 0.990913 4.04952 0
M  V30 24054 H 2193.18 0.133034 3.24427 0
M  V30 24055 H 2194.19 3.82169 3.49525 0
M  V30 24056 H 2190.87 1.28547 3.97218 0
M  V30 24057 H 2192.26 5.32516 4.09727 0
M  V30 24058 N 2194.98 -1.01016 1.20969 0
M  V30 24059 C 2195.89 -2.13142 0.980194 0
M  V30 24060 C 2196.9 -1.73875 -0.0660359 0
M  V30 24061 O 2198.08 -2.01025 0.122857 0
M  V30 24062 C 2195.15 -3.42434 0.54222 0
M  V30 24063 C 2194.21 -3.95905 1.66006 0
M  V30 24064 C 2193.44 -5.19026 1.24289 0
M  V30 24065 O 2193.66 -5.70285 0.114296 0
M  V30 24066 O 2192.6 -5.65812 2.05281 0
M  V30 24067 H 2196.42 -2.35376 1.91917 0
M  V30 24068 H 2194.01 -1.11524 0.994118 0
M  V30 24069 H 2195.89 -4.20276 0.307514 0
M  V30 24070 H 2194.56 -3.216 -0.368093 0
M  V30 24071 H 2193.47 -3.19312 1.94912 0
M  V30 24072 H 2194.8 -4.21139 2.54761 0
M  V30 24073 N 2196.46 -1.01661 -1.20428 0
M  V30 24074 C 2197.4 -0.586861 -2.23214 0
M  V30 24075 C 2198.37 0.393056 -1.61382 0
M  V30 24076 O 2199.56 0.292492 -1.88545 0
M  V30 24077 C 2196.7 0.0686858 -3.45032 0
M  V30 24078 C 2195.81 -0.955798 -4.21294 0
M  V30 24079 C 2194.95 -0.271301 -5.30507 0
M  V30 24080 C 2193.99 -1.28254 -5.98513 0
M  V30 24081 N 2193.12 -0.624713 -6.99315 0
M  V30 24082 H 2197.96 -1.468 -2.59333 0
M  V30 24083 H 2195.5 -0.734859 -1.27429 0
M  V30 24084 H 2197.46 0.465892 -4.14591 0
M  V30 24085 H 2196.09 0.913474 -3.09605 0
M  V30 24086 H 2195.14 -1.47116 -3.508 0
M  V30 24087 H 2196.45 -1.72487 -4.68027 0
M  V30 24088 H 2195.61 0.181403 -6.06429 0
M  V30 24089 H 2194.34 0.530078 -4.84811 0
M  V30 24090 H 2193.35 -1.74563 -5.21352 0
M  V30 24091 H 2194.57 -2.0852 -6.46294 0
M  V30 24092 H 2192.52 0.156798 -6.55813 0
M  V30 24093 H 2192.44 -1.33185 -7.44176 0
M  V30 24094 H 2193.71 -0.195599 -7.79255 0
M  V30 24095 N 2197.93 1.36205 -0.792844 0
M  V30 24096 C 2198.86 2.32573 -0.207894 0
M  V30 24097 C 2199.85 1.56815 0.659028 0
M  V30 24098 O 2201.03 1.84952 0.592143 0
M  V30 24099 C 2198.16 3.4106 0.655389 0
M  V30 24100 C 2197.11 4.27854 -0.111917 0
M  V30 24101 C 2196.44 5.27539 0.872181 0
M  V30 24102 C 2197.74 5.05784 -1.30308 0
M  V30 24103 H 2199.43 2.81743 -1.01299 0
M  V30 24104 H 2196.98 1.35459 -0.488564 0
M  V30 24105 H 2198.93 4.07469 1.07457 0
M  V30 24106 H 2197.66 2.90466 1.49323 0
M  V30 24107 H 2196.32 3.63005 -0.512116 0
M  V30 24108 H 2195.96 4.73217 1.70514 0
M  V30 24109 H 2195.66 5.86477 0.363188 0
M  V30 24110 H 2197.19 5.96821 1.28986 0
M  V30 24111 H 2198.6 5.65214 -0.959478 0
M  V30 24112 H 2197 5.7415 -1.7456 0
M  V30 24113 H 2198.07 4.37226 -2.0967 0
M  V30 24114 O 2199.45 0.686355 1.4619 0
M  V30 24115 H 2200.14 0.222165 1.92422 0
M  V30 END ATOM
M  V30 BEGIN BOND
M  V30 END BOND
M  V30 END CTAB
M  END
$$$$
