drugbank_target|Q8IJ74 Haloacid dehalogenase-like hydrolase (DB11638)
 OpenBabel12092121113D

  0  0  0     0  0            999 V3000
M  V30 BEGIN CTAB
M  V30 COUNTS 4598 4634 0 0 0
M  V30 BEGIN ATOM
M  V30 1 H -0.908 1.98254 -0.117106 0
M  V30 2 N 0 1.576 0 0
M  V30 3 C 0.933 2.03868 1.02534 0
M  V30 4 C 1.911 0.928543 1.3348 0
M  V30 5 O 3.095 1.19667 1.45644 0
M  V30 6 C 0.222 2.43627 2.35294 0
M  V30 7 C -0.732 3.65373 2.2001 0
M  V30 8 S 0.101 5.13292 1.52614 0
M  V30 9 C 1.257 5.56322 2.86805 0
M  V30 10 H 1.49 2.90518 0.631377 0
M  V30 11 H -0.977 1.52953 0.210867 0
M  V30 12 H 0.981 2.67203 3.11629 0
M  V30 13 H -0.358 1.57376 2.7183 0
M  V30 14 H -1.165 3.90944 3.18086 0
M  V30 15 H -1.563 3.418 1.51819 0
M  V30 16 H 0.729 5.58782 3.83104 0
M  V30 17 H 1.672 6.56266 2.65933 0
M  V30 18 H 2.08 4.83886 2.90714 0
M  V30 19 N 1.4781 -0.272755 1.55222 0
M  V30 20 C 2.4281 -1.33946 1.84506 0
M  V30 21 C 3.4121 -1.44682 0.70399 0
M  V30 22 O 4.6041 -1.48358 0.965338 0
M  V30 23 C 1.7331 -2.69968 2.12067 0
M  V30 24 C 0.8191 -2.63341 3.32434 0
M  V30 25 N 1.2101 -2.26335 4.52334 0
M  V30 26 C -0.4919 -2.94402 3.35028 0
M  V30 27 C 0.2091 -2.29705 5.34425 0
M  V30 28 N -0.8149 -2.68188 4.72838 0
M  V30 29 H 2.9871 -1.04343 2.74754 0
M  V30 30 H 0.5011 -0.481389 1.55101 0
M  V30 31 H 2.4981 -3.46916 2.31202 0
M  V30 32 H 1.1581 -3.00459 1.23103 0
M  V30 33 H 2.1691 -1.98309 4.78429 0
M  V30 34 H -1.1539 -3.29603 2.56257 0
M  V30 35 H 0.2361 -2.03653 6.40293 0
M  V30 36 N 2.9562 -1.48159 -0.537278 0
M  V30 37 C 3.8662 -1.64807 -1.6696 0
M  V30 38 C 4.8822 -0.530651 -1.65711 0
M  V30 39 O 6.0582 -0.800784 -1.84796 0
M  V30 40 C 3.1232 -1.67708 -3.03438 0
M  V30 41 C 2.1842 -2.91025 -3.156 0
M  V30 42 C 1.4172 -2.93778 -4.45567 0
M  V30 43 O 1.6402 -2.05153 -5.3223 0
M  V30 44 O 0.5742 -3.85868 -4.61941 0
M  V30 45 H 4.4002 -2.6066 -1.55853 0
M  V30 46 H 1.9852 -1.31475 -0.709549 0
M  V30 47 H 3.8672 -1.7218 -3.84619 0
M  V30 48 H 2.5422 -0.750278 -3.14885 0
M  V30 49 H 1.4492 -2.92089 -2.33741 0
M  V30 50 H 2.7822 -3.83065 -3.09066 0
M  V30 51 N 4.4343 0.785586 -1.36625 0
M  V30 52 C 5.6833 1.53883 -1.30396 0
M  V30 53 C 5.9963 1.95271 0.113452 0
M  V30 54 O 7.2023 2.69858 0.298142 0
M  V30 55 C 5.6583 2.77808 -2.28802 0
M  V30 56 C 5.2663 2.43574 -3.75999 0
M  V30 57 C 7.0103 3.55783 -2.31558 0
M  V30 58 C 4.9173 3.63919 -4.66173 0
M  V30 59 H 3.8473 0.577678 -0.484566 0
M  V30 60 H 6.4983 0.861705 -1.62009 0
M  V30 61 H 4.8803 3.47339 -1.90188 0
M  V30 62 H 6.0543 1.81916 -4.23371 0
M  V30 63 H 4.3693 1.78803 -3.76056 0
M  V30 64 H 6.9663 4.45205 -2.96137 0
M  V30 65 H 7.3093 3.94644 -1.3252 0
M  V30 66 H 7.8423 2.93235 -2.68809 0
M  V30 67 H 4.5813 3.3015 -5.66287 0
M  V30 68 H 4.1013 4.2473 -4.23515 0
M  V30 69 H 5.7803 4.30901 -4.82632 0
M  V30 70 N 5.9124 1.20967 1.01018 0
M  V30 71 C 7.1584 1.02526 1.74975 0
M  V30 72 C 7.4914 -0.4408 1.89131 0
M  V30 73 O 6.7664 -1.32718 1.42184 0
M  V30 74 C 7.0494 1.71699 3.1653 0
M  V30 75 C 6.9024 3.25791 3.10129 0
M  V30 76 C 8.2214 1.45531 4.15342 0
M  V30 77 H 5.3404 0.373863 0.635134 0
M  V30 78 H 7.9824 1.49071 1.17805 0
M  V30 79 H 6.1324 1.32128 3.65341 0
M  V30 80 H 7.8044 3.74697 2.69072 0
M  V30 81 H 6.0474 3.56363 2.47362 0
M  V30 82 H 6.7184 3.69353 4.10222 0
M  V30 83 H 9.1944 1.79872 3.75213 0
M  V30 84 H 8.0704 1.96453 5.1254 0
M  V30 85 H 8.3314 0.384237 4.40427 0
M  V30 86 N 7.3905 -1.2043 1.01659 0
M  V30 87 C 8.6675 -1.8548 0.621004 0
M  V30 88 C 9.0475 -1.9091 -0.900919 0
M  V30 89 O 8.3955 -1.41694 -1.79263 0
M  V30 90 C 8.6055 -3.25119 1.2688 0
M  V30 91 C 9.9535 -4.01403 1.38423 0
M  V30 92 O 10.9775 -3.34473 1.22501 0
M  V30 93 O 9.8365 -5.21265 1.64151 0
M  V30 94 H 6.9305 -0.798761 0.214266 0
M  V30 95 H 9.4765 -1.28019 1.11396 0
M  V30 96 H 8.2485 -3.15932 2.30873 0
M  V30 97 H 7.8715 -3.90212 0.762917 0
M  V30 98 N 8.8686 -0.792821 -1.36206 0
M  V30 99 C 9.8156 -0.191653 -2.30003 0
M  V30 100 C 10.7856 0.666453 -1.52143 0
M  V30 101 O 11.9706 0.61442 -1.80636 0
M  V30 102 C 9.1106 0.664848 -3.38635 0
M  V30 103 C 8.2236 -0.212175 -4.31479 0
M  V30 104 C 7.3586 0.651022 -5.27196 0
M  V30 105 C 6.3976 -0.227247 -6.11678 0
M  V30 106 N 5.5346 0.595127 -6.99573 0
M  V30 107 H 10.3746 -0.996978 -2.80828 0
M  V30 108 H 7.9116 -0.503206 -1.38225 0
M  V30 109 H 9.8696 1.17645 -4.00269 0
M  V30 110 H 8.4996 1.43557 -2.89122 0
M  V30 111 H 7.5516 -0.841777 -3.70969 0
M  V30 112 H 8.8636 -0.888751 -4.90818 0
M  V30 113 H 8.0176 1.2283 -5.94136 0
M  V30 114 H 6.7566 1.36121 -4.68319 0
M  V30 115 H 5.7616 -0.816904 -5.43697 0
M  V30 116 H 6.9866 -0.93509 -6.72631 0
M  V30 117 H 4.9326 1.28955 -6.432 0
M  V30 118 H 4.8496 -0.0236952 -7.55996 0
M  V30 119 H 6.1176 1.15613 -7.70879 0
M  V30 120 N 10.3467 1.47872 -0.545128 0
M  V30 121 C 11.2947 2.31533 0.222512 0
M  V30 122 C 12.2887 1.42177 0.920985 0
M  V30 123 O 13.4947 1.59005 0.843645 0
M  V30 124 H 9.8697 0.746519 0.0906278 0
M  V30 125 H 11.8407 2.94139 -0.50246 0
M  V30 126 C 10.5897 3.2457 1.24699 0
M  V30 127 H 9.9127 3.93283 0.718944 0
M  V30 128 H 11.3527 3.85963 1.75523 0
M  V30 129 C 9.8117 2.47237 2.28856 0
M  V30 130 O 10.3417 2.20808 3.35569 0
M  V30 131 N 8.5477 2.08461 2.02466 0
M  V30 132 H 8.0947 2.30155 1.157 0
M  V30 133 H 8.0527 1.57033 2.72375 0
M  V30 134 N 11.8248 0.280983 1.55075 0
M  V30 135 C 13.0728 -0.333455 1.9933 0
M  V30 136 C 13.3938 -1.55937 1.17085 0
M  V30 137 O 12.6638 -1.94143 0.261805 0
M  V30 138 H 11.2438 -0.126197 0.736263 0
M  V30 139 H 13.9058 0.387678 1.91005 0
M  V30 140 H 13.0018 -0.619292 3.05894 0
M  V30 141 N 13.3029 -1.57598 0.00835791 0
M  V30 142 C 14.2499 -2.08945 -0.980346 0
M  V30 143 C 15.2199 -0.986738 -1.33614 0
M  V30 144 O 16.4049 -1.25968 -1.43306 0
M  V30 145 C 13.5449 -2.60425 -2.26435 0
M  V30 146 C 12.6579 -3.84628 -1.96685 0
M  V30 147 C 11.7929 -4.24579 -3.19228 0
M  V30 148 C 10.8319 -5.41596 -2.85202 0
M  V30 149 N 9.9689 -5.768 -4.00307 0
M  V30 150 H 14.8089 -2.93148 -0.535551 0
M  V30 151 H 12.3459 -1.44912 -0.252776 0
M  V30 152 H 14.3039 -2.88354 -3.01509 0
M  V30 153 H 12.9339 -1.79083 -2.68568 0
M  V30 154 H 11.9859 -3.63556 -1.11942 0
M  V30 155 H 13.2979 -4.69796 -1.67611 0
M  V30 156 H 12.4519 -4.53834 -4.02641 0
M  V30 157 H 11.1909 -3.38137 -3.51447 0
M  V30 158 H 10.1959 -5.12056 -2.00198 0
M  V30 159 H 11.4209 -6.29721 -2.54222 0
M  V30 160 H 9.3669 -4.93316 -4.32407 0
M  V30 161 H 9.2839 -6.5656 -3.74786 0
M  V30 162 H 10.5519 -6.10652 -4.84484 0
M  V30 163 N 14.781 0.264519 -1.55364 0
M  V30 164 C 15.728 1.32717 -1.88825 0
M  V30 165 C 16.698 1.48675 -0.740605 0
M  V30 166 O 17.883 1.62945 -0.992657 0
M  V30 167 C 15.023 2.68089 -2.17307 0
M  V30 168 C 14.136 2.60284 -3.44785 0
M  V30 169 C 13.271 3.87892 -3.62924 0
M  V30 170 C 12.31 3.74631 -4.84064 0
M  V30 171 N 11.447 4.94092 -4.98816 0
M  V30 172 H 16.287 1.03481 -2.79456 0
M  V30 173 H 13.824 0.499757 -1.3835 0
M  V30 174 H 15.782 3.46864 -2.31821 0
M  V30 175 H 14.412 2.95509 -1.299 0
M  V30 176 H 13.464 1.73173 -3.38697 0
M  V30 177 H 14.776 2.46388 -4.33698 0
M  V30 178 H 13.93 4.75109 -3.77302 0
M  V30 179 H 12.669 4.04664 -2.7221 0
M  V30 180 H 11.674 2.85797 -4.69681 0
M  V30 181 H 12.899 3.5937 -5.76221 0
M  V30 182 H 10.845 5.11259 -4.11036 0
M  V30 183 H 10.762 4.8276 -5.81789 0
M  V30 184 H 12.03 5.82857 -5.17588 0
M  V30 185 N 16.2591 1.48442 0.529413 0
M  V30 186 C 17.5051 1.5672 1.28711 0
M  V30 187 C 17.8381 0.2406 1.92704 0
M  V30 188 O 17.1131 -0.753454 1.79313 0
M  V30 189 C 17.3961 2.70587 2.37603 0
M  V30 190 C 17.2491 4.12953 1.78297 0
M  V30 191 C 18.5681 2.80212 3.39366 0
M  V30 192 H 15.6871 0.570474 0.466613 0
M  V30 193 H 18.3291 1.80617 0.589706 0
M  V30 194 H 16.4791 2.50342 2.97088 0
M  V30 195 H 18.1511 4.44639 1.22858 0
M  V30 196 H 16.3941 4.19927 1.0883 0
M  V30 197 H 17.0651 4.88448 2.57144 0
M  V30 198 H 19.5411 2.98553 2.89836 0
M  V30 199 H 18.4171 3.61611 4.12951 0
M  V30 200 H 18.6781 1.88393 3.99951 0
M  V30 201 N 17.7372 -0.778329 1.37039 0
M  V30 202 C 18.6692 -1.90034 1.2814 0
M  V30 203 C 19.6822 -1.61585 0.198558 0
M  V30 204 O 20.8712 -1.72625 0.454175 0
M  V30 205 C 17.9712 -3.25108 0.956968 0
M  V30 206 C 17.1442 -3.81253 2.14394 0
M  V30 207 C 16.2032 -4.94789 1.79082 0
M  V30 208 O 15.2292 -5.10721 2.51301 0
M  V30 209 N 16.4312 -5.75878 0.731043 0
M  V30 210 H 19.1962 -1.98186 2.24816 0
M  V30 211 H 16.7572 -0.957129 1.30578 0
M  V30 212 H 18.7492 -3.9857 0.701701 0
M  V30 213 H 17.3192 -3.125 0.0789812 0
M  V30 214 H 16.5392 -2.99647 2.56135 0
M  V30 215 H 17.8272 -4.15495 2.93668 0
M  V30 216 H 17.2252 -5.65547 0.131618 0
M  V30 217 H 15.7822 -6.49596 0.535622 0
M  V30 218 N 19.2153 -1.21501 -1.00376 0
M  V30 219 C 20.1623 -0.975387 -2.09177 0
M  V30 220 C 21.1323 0.0990615 -1.65804 0
M  V30 221 O 22.3173 -0.0483147 -1.90739 0
M  V30 222 C 19.4573 -0.547507 -3.40729 0
M  V30 223 C 18.5703 -1.69153 -3.97506 0
M  V30 224 C 17.7053 -1.2127 -5.17172 0
M  V30 225 C 16.7443 -2.32897 -5.66061 0
M  V30 226 N 15.8813 -1.86138 -6.76976 0
M  V30 227 H 20.7213 -1.9068 -2.29009 0
M  V30 228 H 18.2583 -0.950257 -1.12288 0
M  V30 229 H 20.2163 -0.280667 -4.16255 0
M  V30 230 H 18.8463 0.346904 -3.20931 0
M  V30 231 H 17.8983 -2.07298 -3.18954 0
M  V30 232 H 19.2103 -2.5316 -4.29781 0
M  V30 233 H 18.3643 -0.902591 -5.99948 0
M  V30 234 H 17.1033 -0.342692 -4.86495 0
M  V30 235 H 16.1083 -2.64709 -4.81881 0
M  V30 236 H 17.3333 -3.20396 -5.98768 0
M  V30 237 H 15.2793 -1.01484 -6.48103 0
M  V30 238 H 15.1963 -2.63717 -7.08512 0
M  V30 239 H 16.4643 -1.58165 -7.63285 0
M  V30 240 N 20.6934 1.19889 -1.02296 0
M  V30 241 C 21.6414 2.24938 -0.592081 0
M  V30 242 C 22.6354 1.65257 0.372357 0
M  V30 243 O 23.8414 1.78371 0.241583 0
M  V30 244 H 20.2164 0.731787 -0.173182 0
M  V30 245 H 22.1874 2.58603 -1.48885 0
M  V30 246 C 20.9364 3.47668 0.047351 0
M  V30 247 H 20.2594 3.93875 -0.685772 0
M  V30 248 H 21.6994 4.22852 0.311862 0
M  V30 249 C 20.1584 3.11136 1.29212 0
M  V30 250 O 20.6884 3.2325 2.38479 0
M  V30 251 N 18.8944 2.65625 1.17863 0
M  V30 252 H 18.4414 2.55968 0.289493 0
M  V30 253 H 18.3994 2.41553 2.01245 0
M  V30 254 N 22.1715 0.800033 1.35784 0
M  V30 255 C 23.1195 0.193851 2.31791 0
M  V30 256 C 24.1135 -0.652744 1.56319 0
M  V30 257 O 25.3195 -0.546641 1.71499 0
M  V30 258 H 21.6945 0.04392 0.750716 0
M  V30 259 H 23.6655 1.01883 2.80468 0
M  V30 260 C 22.4145 -0.648338 3.41602 0
M  V30 261 H 21.7375 -0.00624665 3.998 0
M  V30 262 H 23.1775 -1.03898 4.11073 0
M  V30 263 C 21.6365 -1.8111 2.84079 0
M  V30 264 O 22.1665 -2.90825 2.77099 0
M  V30 265 N 20.3725 -1.62056 2.41218 0
M  V30 266 H 19.9195 -0.728123 2.47095 0
M  V30 267 H 19.8775 -2.40013 2.03079 0
M  V30 268 N 23.6496 -1.47581 0.552962 0
M  V30 269 C 24.5796 -2.32762 -0.185451 0
M  V30 270 C 25.5606 -1.43527 -0.912905 0
M  V30 271 O 26.7456 -1.72388 -0.894201 0
M  V30 272 C 23.8756 -3.25219 -1.21859 0
M  V30 273 C 22.8296 -4.23661 -0.607864 0
M  V30 274 C 22.1556 -5.05413 -1.74533 0
M  V30 275 C 23.4556 -5.20481 0.435582 0
M  V30 276 H 25.1496 -2.94749 0.525684 0
M  V30 277 H 22.6956 -1.41738 0.254251 0
M  V30 278 H 24.6486 -3.8365 -1.7433 0
M  V30 279 H 23.3726 -2.61279 -1.95961 0
M  V30 280 H 22.0316 -3.66451 -0.104489 0
M  V30 281 H 21.6796 -4.3788 -2.47529 0
M  V30 282 H 21.3796 -5.72059 -1.34249 0
M  V30 283 H 22.9036 -5.66701 -2.27338 0
M  V30 284 H 24.3176 -5.733 -0.00290157 0
M  V30 285 H 22.7146 -5.95305 0.757067 0
M  V30 286 H 23.7846 -4.66217 1.33303 0
M  V30 287 N 25.1277 -0.289203 -1.54924 0
M  V30 288 C 26.0757 0.607966 -2.24514 0
M  V30 289 C 27.0697 1.14655 -1.24702 0
M  V30 290 O 28.2757 1.09856 -1.4259 0
M  V30 291 H 24.6507 0.21464 -0.720718 0
M  V30 292 H 26.6217 -0.00164182 -2.984 0
M  V30 293 C 25.3707 1.77406 -2.99036 0
M  V30 294 H 24.6937 1.36884 -3.75637 0
M  V30 295 H 26.1337 2.37814 -3.51028 0
M  V30 296 C 24.5927 2.67107 -2.05318 0
M  V30 297 O 25.1227 3.6787 -1.61353 0
M  V30 298 N 23.3287 2.34582 -1.71521 0
M  V30 299 H 22.8757 1.52688 -2.07471 0
M  V30 300 H 22.8337 2.94867 -1.0909 0
M  V30 301 N 26.6058 1.57591 -0.0167156 0
M  V30 302 C 27.8828 1.82547 0.702564 0
M  V30 303 C 28.2628 0.898018 1.91047 0
M  V30 304 O 27.6108 -0.0493456 2.28447 0
M  V30 305 C 27.8208 3.31459 1.09251 0
M  V30 306 C 29.1688 3.97622 1.48937 0
M  V30 307 O 30.1928 3.35881 1.18584 0
M  V30 308 O 29.0518 5.06415 2.05442 0
M  V30 309 H 26.1458 0.752268 0.343544 0
M  V30 310 H 28.6918 1.69644 -0.0434495 0
M  V30 311 H 27.4638 3.9061 0.23227 0
M  V30 312 H 27.0868 3.49422 1.89709 0
M  V30 313 N 28.0839 -0.256276 1.55502 0
M  V30 314 C 28.9939 -1.33882 1.92647 0
M  V30 315 C 30.0099 -1.53159 0.825727 0
M  V30 316 O 31.1859 -1.66963 1.12629 0
M  V30 317 C 28.2509 -2.6751 2.20543 0
M  V30 318 C 27.3119 -2.56836 3.43997 0
M  V30 319 C 26.5449 -3.84092 3.70553 0
M  V30 320 O 26.7679 -4.85545 2.99336 0
M  V30 321 O 25.7019 -3.83288 4.64084 0
M  V30 322 H 29.5279 -1.05374 2.84833 0
M  V30 323 H 27.1129 -0.456237 1.42263 0
M  V30 324 H 28.9949 -3.46492 2.39835 0
M  V30 325 H 27.6699 -2.9577 1.31536 0
M  V30 326 H 26.5769 -1.76172 3.30021 0
M  V30 327 H 27.9099 -2.33523 4.33275 0
M  V30 328 N 29.562 -1.4872 -0.521534 0
M  V30 329 C 30.811 -1.56419 -1.27341 0
M  V30 330 C 31.124 -0.246805 -1.94037 0
M  V30 331 O 32.33 -0.202122 -2.70747 0
M  V30 332 C 30.786 -2.75896 -2.31105 0
M  V30 333 C 30.394 -4.14311 -1.70441 0
M  V30 334 C 32.138 -2.92913 -3.07249 0
M  V30 335 C 30.045 -5.25038 -2.72194 0
M  V30 336 H 28.975 -0.582344 -0.478949 0
M  V30 337 H 31.626 -1.75071 -0.549779 0
M  V30 338 H 30.008 -2.50697 -3.06541 0
M  V30 339 H 31.182 -4.49564 -1.01136 0
M  V30 340 H 29.497 -4.02482 -1.06759 0
M  V30 341 H 32.094 -3.72805 -3.83302 0
M  V30 342 H 32.437 -2.02689 -3.63625 0
M  V30 343 H 32.97 -3.18054 -2.38928 0
M  V30 344 H 29.709 -6.17255 -2.20627 0
M  V30 345 H 29.229 -4.94263 -3.39801 0
M  V30 346 H 30.908 -5.53508 -3.35019 0
M  V30 347 N 31.0401 0.771051 -1.3745 0
M  V30 348 C 31.9871 1.88435 -1.3327 0
M  V30 349 C 32.9571 1.64914 -0.198136 0
M  V30 350 O 34.1421 1.86821 -0.387606 0
M  V30 351 C 31.2821 3.25509 -1.14622 0
M  V30 352 C 30.3951 3.60979 -2.37314 0
M  V30 353 C 29.5301 4.87265 -2.11533 0
M  V30 354 C 28.5691 5.15469 -3.30088 0
M  V30 355 N 27.7061 6.32944 -3.03853 0
M  V30 356 H 32.5461 1.91344 -2.28455 0
M  V30 357 H 30.0831 0.935466 -1.13523 0
M  V30 358 H 32.0411 4.04582 -1.01831 0
M  V30 359 H 30.6711 3.21974 -0.230837 0
M  V30 360 H 29.7231 2.76885 -2.60842 0
M  V30 361 H 31.0351 3.77759 -3.25729 0
M  V30 362 H 30.1891 5.74244 -1.95777 0
M  V30 363 H 28.9281 4.7259 -1.20457 0
M  V30 364 H 27.9331 4.26966 -3.46382 0
M  V30 365 H 29.1581 5.32052 -4.22016 0
M  V30 366 H 27.1041 6.19625 -2.15407 0
M  V30 367 H 27.0211 6.50143 -3.85812 0
M  V30 368 H 28.2891 7.22857 -2.91716 0
M  V30 369 N 32.5182 1.22032 0.997298 0
M  V30 370 C 33.7672 1.03637 1.73038 0
M  V30 371 C 34.0802 -0.429475 1.90827 0
M  V30 372 O 35.2862 -0.732995 2.61418 0
M  V30 373 C 33.7422 1.80582 3.11317 0
M  V30 374 C 33.3502 3.31387 3.01474 0
M  V30 375 C 35.0942 1.70621 3.88701 0
M  V30 376 C 33.0012 4.00791 4.3488 0
M  V30 377 H 31.9312 0.384179 0.648785 0
M  V30 378 H 34.5822 1.4584 1.11368 0
M  V30 379 H 32.9642 1.31175 3.73643 0
M  V30 380 H 34.1382 3.88155 2.4834 0
M  V30 381 H 32.4532 3.41976 2.37575 0
M  V30 382 H 35.0502 2.19799 4.87434 0
M  V30 383 H 35.3932 0.665823 4.10941 0
M  V30 384 H 35.9262 2.17547 3.33044 0
M  V30 385 H 32.6652 5.05064 4.1784 0
M  V30 386 H 32.1852 3.48811 4.87945 0
M  V30 387 H 33.8642 4.06139 5.03647 0
M  V30 388 N 33.9963 -1.19345 1.0293 0
M  V30 389 C 35.2453 -1.88363 0.721256 0
M  V30 390 C 35.5583 -1.80514 -0.753254 0
M  V30 391 O 36.7643 -2.44788 -1.17436 0
M  V30 392 C 35.2203 -3.37872 1.23978 0
M  V30 393 C 34.8283 -3.54278 2.74211 0
M  V30 394 C 36.5723 -4.12365 1.00775 0
M  V30 395 C 34.4793 -4.97682 3.19479 0
M  V30 396 H 33.4093 -0.705484 0.266098 0
M  V30 397 H 36.0603 -1.34928 1.24365 0
M  V30 398 H 34.4423 -3.90707 0.6453 0
M  V30 399 H 35.6163 -3.11769 3.39318 0
M  V30 400 H 33.9313 -2.93174 2.95699 0
M  V30 401 H 36.5283 -5.18119 1.32123 0
M  V30 402 H 36.8713 -4.16263 -0.0554308 0
M  V30 403 H 37.4043 -3.65668 1.56625 0
M  V30 404 H 34.1433 -4.98945 4.25128 0
M  V30 405 H 33.6633 -5.4095 2.591 0
M  V30 406 H 35.3423 -5.66337 3.12845 0
M  V30 407 N 35.4744 -0.807222 -1.35358 0
M  V30 408 C 36.7214 -0.387888 -1.9875 0
M  V30 409 C 37.0494 1.04509 -1.64037 0
M  V30 410 O 36.3044 1.73986 -0.895946 0
M  V30 411 C 36.6034 -0.519036 -3.53611 0
M  V30 412 C 36.2694 -1.91542 -4.08194 0
M  V30 413 C 34.9314 -2.29745 -4.22813 0
M  V30 414 C 37.2834 -2.82896 -4.37744 0
M  V30 415 C 34.6114 -3.58668 -4.643 0
M  V30 416 C 36.9634 -4.11265 -4.8067 0
M  V30 417 C 35.6274 -4.49466 -4.93494 0
M  V30 418 H 34.8974 -0.141938 -0.727279 0
M  V30 419 H 37.5444 -1.02814 -1.6156 0
M  V30 420 H 35.8494 0.204658 -3.91265 0
M  V30 421 H 37.5464 -0.175345 -4.00616 0
M  V30 422 H 34.1364 -1.60862 -3.97268 0
M  V30 423 H 38.3204 -2.54629 -4.26002 0
M  V30 424 H 33.5764 -3.88113 -4.72418 0
M  V30 425 H 37.7504 -4.82153 -5.02496 0
M  V30 426 H 35.3774 -5.49418 -5.25399 0
M  V30 427 N 36.9525 1.47285 -0.560781 0
M  V30 428 C 38.1805 2.06855 -0.0430262 0
M  V30 429 C 38.5955 1.41291 1.25229 0
M  V30 430 O 37.9525 0.510648 1.7521 0
M  V30 431 C 38.0035 3.61178 0.152518 0
M  V30 432 O 37.7245 4.24285 -1.0915 0
M  V30 433 C 39.2255 4.37624 0.707145 0
M  V30 434 H 36.4455 0.669319 -0.0474652 0
M  V30 435 H 38.9895 1.89237 -0.77521 0
M  V30 436 H 37.1445 3.78298 0.834843 0
M  V30 437 H 37.5585 5.16868 -0.891482 0
M  V30 438 H 39.0325 5.46271 0.793244 0
M  V30 439 H 39.5095 4.04152 1.71923 0
M  V30 440 H 40.1155 4.25257 0.0604027 0
M  V30 441 N 38.4306 0.297415 1.54768 0
M  V30 442 C 39.7076 -0.365847 1.92148 0
M  V30 443 C 40.0876 -1.71975 1.22424 0
M  V30 444 O 39.4356 -2.25666 0.358739 0
M  V30 445 C 39.6456 -0.484056 3.45627 0
M  V30 446 C 40.9936 -0.756594 4.17805 0
M  V30 447 O 42.0176 -0.568007 3.51642 0
M  V30 448 O 40.8766 -1.11863 5.34929 0
M  V30 449 H 37.9706 -0.203919 0.801465 0
M  V30 450 H 40.5166 0.34521 1.66152 0
M  V30 451 H 39.2886 0.467865 3.88493 0
M  V30 452 H 38.9116 -1.24372 3.77647 0
M  V30 453 N 39.9087 -1.5758 0.0250728 0
M  V30 454 C 40.8387 -2.13007 -0.956575 0
M  V30 455 C 41.8197 -1.0452 -1.342 0
M  V30 456 O 43.0047 -1.32332 -1.42133 0
M  V30 457 C 40.1347 -2.65386 -2.24026 0
M  V30 458 C 39.0887 -3.78623 -1.99571 0
M  V30 459 C 38.4147 -4.17414 -3.3417 0
M  V30 460 C 39.7147 -5.04867 -1.33814 0
M  V30 461 H 41.4087 -2.9528 -0.494991 0
M  V30 462 H 38.9547 -1.42042 -0.236651 0
M  V30 463 H 40.9077 -3.02794 -2.93076 0
M  V30 464 H 39.6317 -1.80268 -2.72343 0
M  V30 465 H 38.2907 -3.41646 -1.32941 0
M  V30 466 H 37.9387 -3.29284 -3.80238 0
M  V30 467 H 37.6387 -4.93719 -3.18615 0
M  V30 468 H 39.1627 -4.57402 -4.04495 0
M  V30 469 H 40.5767 -5.39888 -1.92857 0
M  V30 470 H 38.9737 -5.86144 -1.28669 0
M  V30 471 H 40.0437 -4.83904 -0.310561 0
M  V30 472 N 41.3868 0.248026 -1.55636 0
M  V30 473 C 42.6638 0.998988 -1.68165 0
M  V30 474 C 43.0438 2.03409 -0.564621 0
M  V30 475 O 42.3918 2.24378 0.432076 0
M  V30 476 C 42.6018 1.63334 -3.0842 0
M  V30 477 C 43.9498 2.13562 -3.66983 0
M  V30 478 O 44.9738 1.73277 -3.11213 0
M  V30 479 O 43.8328 2.87526 -4.64749 0
M  V30 480 H 40.9268 0.464933 -0.683935 0
M  V30 481 H 43.4728 0.241902 -1.67967 0
M  V30 482 H 42.2448 0.884583 -3.8117 0
M  V30 483 H 41.8678 2.45666 -3.12624 0
M  V30 484 N 42.8649 1.48995 0.513639 0
M  V30 485 C 44.1129 1.57531 1.26604 0
M  V30 486 C 44.4339 0.258236 1.93283 0
M  V30 487 O 43.7039 -0.721502 1.8213 0
M  V30 488 H 42.2839 0.580387 0.470276 0
M  V30 489 H 44.9459 1.85552 0.596373 0
M  V30 490 H 44.0419 2.36486 2.03669 0
M  V30 491 N 44.343 -0.763751 1.37857 0
M  V30 492 C 45.571 -1.55293 1.36718 0
M  V30 493 C 45.986 -1.88745 -0.0455434 0
M  V30 494 O 45.343 -1.52039 -1.00947 0
M  V30 495 C 45.394 -2.85831 2.2132 0
M  V30 496 O 45.115 -2.5381 3.57089 0
M  V30 497 C 46.616 -3.80023 2.28249 0
M  V30 498 H 43.836 -0.480841 0.468009 0
M  V30 499 H 46.38 -0.946009 1.81303 0
M  V30 500 H 44.535 -3.42926 1.80223 0
M  V30 501 H 44.949 -3.37459 4.01524 0
M  V30 502 H 46.423 -4.68599 2.91752 0
M  V30 503 H 46.9 -4.1973 1.2932 0
M  V30 504 H 47.506 -3.28855 2.69693 0
M  V30 505 N 45.8211 -1.22559 -0.990812 0
M  V30 506 C 46.7511 -1.0218 -2.09956 0
M  V30 507 C 47.7321 0.0579394 -1.70001 0
M  V30 508 O 48.9171 -0.104684 -1.93918 0
M  V30 509 C 46.0471 -0.601023 -3.4206 0
M  V30 510 C 45.0011 -1.62694 -3.95872 0
M  V30 511 C 44.3271 -1.06193 -5.24049 0
M  V30 512 C 45.6271 -3.01743 -4.2632 0
M  V30 513 H 47.3211 -1.94916 -2.27262 0
M  V30 514 H 44.8671 -0.938566 -1.09211 0
M  V30 515 H 46.8201 -0.445561 -4.19038 0
M  V30 516 H 45.5441 0.362005 -3.24588 0
M  V30 517 H 44.2031 -1.77021 -3.21028 0
M  V30 518 H 43.8511 -0.0901903 -5.02919 0
M  V30 519 H 43.5511 -1.74732 -5.61019 0
M  V30 520 H 45.0751 -0.918092 -6.03658 0
M  V30 521 H 46.4891 -2.90777 -4.94087 0
M  V30 522 H 44.8861 -3.67425 -4.74467 0
M  V30 523 H 45.9561 -3.51518 -3.34011 0
M  V30 524 N 47.2992 1.18797 -1.03562 0
M  V30 525 C 48.2292 2.24472 -0.643019 0
M  V30 526 C 49.2102 1.66433 0.351283 0
M  V30 527 O 50.3952 1.92803 0.232505 0
M  V30 528 C 47.5252 3.473 4.24935e-05 0
M  V30 529 C 46.4792 4.18055 -0.917257 0
M  V30 530 C 45.8052 5.34519 -0.138941 0
M  V30 531 C 47.1052 4.72109 -2.23407 0
M  V30 532 H 48.7992 2.57566 -1.52643 0
M  V30 533 H 46.3452 1.23806 -0.735394 0
M  V30 534 H 48.2982 4.20426 0.286383 0
M  V30 535 H 47.0222 3.13424 0.918299 0
M  V30 536 H 45.6812 3.46821 -1.1879 0
M  V30 537 H 45.3292 4.96891 0.781562 0
M  V30 538 H 45.0292 5.82794 -0.750005 0
M  V30 539 H 46.5532 6.10438 0.1405 0
M  V30 540 H 47.9672 5.36955 -2.00879 0
M  V30 541 H 46.3642 5.30897 -2.79765 0
M  V30 542 H 47.4342 3.89807 -2.88407 0
M  V30 543 N 48.7773 0.814389 1.34928 0
M  V30 544 C 49.7253 0.218424 2.31572 0
M  V30 545 C 50.7193 -0.636128 1.57002 0
M  V30 546 O 51.9253 -0.52842 1.72069 0
M  V30 547 H 48.3003 0.0518799 0.750208 0
M  V30 548 H 50.2713 1.04852 2.79372 0
M  V30 549 C 49.0203 -0.61207 3.4227 0
M  V30 550 H 48.3433 0.0361578 3.99784 0
M  V30 551 H 49.7833 -0.995317 4.12152 0
M  V30 552 C 48.2423 -1.78087 2.85984 0
M  V30 553 O 48.7723 -2.8787 2.80168 0
M  V30 554 N 46.9783 -1.59488 2.42924 0
M  V30 555 H 46.5253 -0.701874 2.47854 0
M  V30 556 H 46.4833 -2.37846 2.05613 0
M  V30 557 N 50.2554 -1.46986 0.568584 0
M  V30 558 C 51.4804 -2.07335 0.0520528 0
M  V30 559 C 51.9054 -1.41675 -1.23733 0
M  V30 560 O 51.2634 -0.495623 -1.74394 0
M  V30 561 C 51.3114 -3.60417 -0.11501 0
M  V30 562 O 50.4154 -3.95309 -1.17492 0
M  V30 563 H 49.7564 -0.661597 0.0564385 0
M  V30 564 H 52.2864 -1.88837 0.787507 0
M  V30 565 H 52.2964 -4.06698 -0.325644 0
M  V30 566 H 50.9714 -4.07601 0.826675 0
M  V30 567 H 49.5484 -3.60757 -0.943869 0
M  V30 568 N 51.7335 -0.305618 -1.54608 0
M  V30 569 C 52.6435 0.57778 -2.27374 0
M  V30 570 C 53.6595 1.14451 -1.31061 0
M  V30 571 O 54.8355 1.16831 -1.6405 0
M  V30 572 C 51.9005 1.73123 -3.00382 0
M  V30 573 C 50.9615 1.19812 -4.12242 0
M  V30 574 C 50.1945 2.2966 -4.81759 0
M  V30 575 O 50.4175 3.49651 -4.50666 0
M  V30 576 O 49.3515 1.96091 -5.69062 0
M  V30 577 H 53.1775 -0.012624 -3.03697 0
M  V30 578 H 50.7625 -0.0719184 -1.49227 0
M  V30 579 H 52.6445 2.40315 -3.4616 0
M  V30 580 H 51.3195 2.30815 -2.26949 0
M  V30 581 H 50.2265 0.491798 -3.70853 0
M  V30 582 H 51.5595 0.666566 -4.87666 0
M  V30 583 N 53.2116 1.57565 -0.0334293 0
M  V30 584 C 54.1596 2.1164 0.96496 0
M  V30 585 C 55.1536 1.04398 1.33407 0
M  V30 586 O 56.3596 1.22828 1.3158 0
M  V30 587 H 52.7346 0.676222 0.32898 0
M  V30 588 H 54.7056 2.94455 0.483614 0
M  V30 589 C 53.4546 2.66207 2.23672 0
M  V30 590 H 52.7776 3.48378 1.96145 0
M  V30 591 H 54.2176 3.07685 2.9173 0
M  V30 592 C 52.6766 1.59151 2.96939 0
M  V30 593 O 53.2066 0.993858 3.89211 0
M  V30 594 N 51.4126 1.31093 2.59351 0
M  V30 595 H 50.9596 1.7988 1.84393 0
M  V30 596 H 50.9176 0.596889 3.08682 0
M  V30 597 N 54.6897 -0.239769 1.55765 0
M  V30 598 C 55.6367 -1.29696 1.90913 0
M  V30 599 C 56.6067 -1.47478 0.764164 0
M  V30 600 O 57.7917 -1.61345 1.01845 0
M  V30 601 C 54.9317 -2.64598 2.21544 0
M  V30 602 C 54.0447 -2.54765 3.48882 0
M  V30 603 C 53.1797 -3.82069 3.69049 0
M  V30 604 C 52.2187 -3.66883 4.89963 0
M  V30 605 N 51.3557 -4.86094 5.06614 0
M  V30 606 H 56.1957 -0.990224 2.81067 0
M  V30 607 H 53.7327 -0.477684 1.39128 0
M  V30 608 H 55.6907 -3.43132 2.3731 0
M  V30 609 H 54.3207 -2.93405 1.34585 0
M  V30 610 H 53.3727 -1.67763 3.41409 0
M  V30 611 H 54.6847 -2.39457 4.37563 0
M  V30 612 H 53.8387 -4.69046 3.84812 0
M  V30 613 H 52.5777 -4.00282 2.78614 0
M  V30 614 H 51.5827 -2.78289 4.74168 0
M  V30 615 H 52.8077 -3.50157 5.81865 0
M  V30 616 H 50.7537 -5.04655 4.19117 0
M  V30 617 H 50.6707 -4.73443 5.89396 0
M  V30 618 H 51.9387 -5.74549 5.26795 0
M  V30 619 N 56.1678 -1.49265 -0.50573 0
M  V30 620 C 57.4138 -1.58748 -1.26202 0
M  V30 621 C 57.7468 -0.271227 -1.92297 0
M  V30 622 O 57.0218 0.724831 -1.80489 0
M  V30 623 C 57.3048 -2.74332 -2.33268 0
M  V30 624 C 57.1578 -4.15737 -1.71705 0
M  V30 625 C 58.4768 -2.85576 -3.34865 0
M  V30 626 H 55.5958 -0.577826 -0.457478 0
M  V30 627 H 58.2378 -1.81532 -0.560897 0
M  V30 628 H 56.3878 -2.55036 -2.93068 0
M  V30 629 H 58.0598 -4.46537 -1.15769 0
M  V30 630 H 56.3028 -4.21605 -1.02135 0
M  V30 631 H 56.9738 -4.92477 -2.49341 0
M  V30 632 H 59.4498 -3.03127 -2.8505 0
M  V30 633 H 58.3258 -3.68135 -4.07146 0
M  V30 634 H 58.5868 -1.94732 -3.96903 0
M  V30 635 N 57.6459 0.756429 -1.3826 0
M  V30 636 C 58.8709 1.55077 -1.37717 0
M  V30 637 C 59.2959 1.88073 0.03164 0
M  V30 638 O 58.6539 1.50364 1.01293 0
M  V30 639 C 58.7019 2.8283 -2.23695 0
M  V30 640 O 57.8059 3.77862 -1.6521 0
M  V30 641 H 57.1469 0.469152 -0.469885 0
M  V30 642 H 59.6769 0.935019 -1.81985 0
M  V30 643 H 59.6869 3.31783 -2.37453 0
M  V30 644 H 58.3619 2.58144 -3.2609 0
M  V30 645 H 56.9389 3.36555 -1.60578 0
M  V30 646 N 59.124 1.23083 0.984299 0
M  V30 647 C 60.034 1.02515 2.11016 0
M  V30 648 C 61.05 -0.0291702 1.73976 0
M  V30 649 O 62.226 0.165434 2.00719 0
M  V30 650 C 59.291 0.614673 3.41208 0
M  V30 651 C 58.352 1.74359 3.92297 0
M  V30 652 C 57.585 1.35261 5.16275 0
M  V30 653 O 57.808 0.235136 5.69915 0
M  V30 654 O 56.742 2.17227 5.61334 0
M  V30 655 H 60.568 1.96862 2.31255 0
M  V30 656 H 58.153 1.01753 1.09392 0
M  V30 657 H 60.035 0.396518 4.1953 0
M  V30 658 H 58.71 -0.299851 3.22308 0
M  V30 659 H 57.617 2.01635 3.1511 0
M  V30 660 H 58.95 2.63629 4.15645 0
M  V30 661 N 60.6021 -1.18246 1.0419 0
M  V30 662 C 61.5341 -2.2142 0.592088 0
M  V30 663 C 62.5471 -1.59233 -0.338909 0
M  V30 664 O 63.7361 -1.78002 -0.133231 0
M  V30 665 C 60.8361 -3.38546 -0.154854 0
M  V30 666 C 60.0091 -4.3031 0.784328 0
M  V30 667 C 59.0681 -5.26138 0.0804583 0
M  V30 668 O 58.0941 -5.64738 0.711292 0
M  V30 669 N 59.2961 -5.68261 -1.18574 0
M  V30 670 H 62.0611 -2.60636 1.47949 0
M  V30 671 H 59.6221 -1.33044 0.922544 0
M  V30 672 H 61.6141 -3.99678 -0.635606 0
M  V30 673 H 60.1841 -2.98012 -0.943811 0
M  V30 674 H 59.4041 -3.66764 1.44491 0
M  V30 675 H 60.6921 -4.8852 1.42218 0
M  V30 676 H 60.0901 -5.38957 -1.71876 0
M  V30 677 H 58.6471 -6.31584 -1.61074 0
M  V30 678 N 62.0802 -0.821533 -1.34494 0
M  V30 679 C 63.0282 -0.230702 -2.31453 0
M  V30 680 C 64.0222 0.627793 -1.57338 0
M  V30 681 O 65.2282 0.519288 -1.72347 0
M  V30 682 H 61.6032 -0.0558577 -0.749923 0
M  V30 683 H 63.5742 -1.06332 -2.78812 0
M  V30 684 C 62.3232 0.59391 -3.4259 0
M  V30 685 H 61.6462 -0.0573588 -3.99759 0
M  V30 686 H 63.0862 0.973446 -4.12674 0
M  V30 687 C 61.5452 1.76568 -2.86924 0
M  V30 688 O 62.0752 2.8638 -2.81691 0
M  V30 689 N 60.2812 1.58198 -2.43766 0
M  V30 690 H 59.8282 0.68872 -2.48222 0
M  V30 691 H 59.7862 2.36752 -2.06871 0
M  V30 692 N 63.5583 1.46682 -0.576371 0
M  V30 693 C 64.4883 2.33028 0.148397 0
M  V30 694 C 65.4693 1.44961 0.889956 0
M  V30 695 O 66.6543 1.73789 0.866662 0
M  V30 696 C 63.7843 3.27117 1.1667 0
M  V30 697 C 62.7383 4.24575 0.540386 0
M  V30 698 C 62.0643 5.08126 1.6647 0
M  V30 699 C 63.3643 5.19722 -0.518331 0
M  V30 700 H 65.0583 2.93875 -0.572509 0
M  V30 701 H 62.6043 1.41315 -0.276768 0
M  V30 702 H 64.5573 3.86374 1.68204 0
M  V30 703 H 63.2813 2.64364 1.9178 0
M  V30 704 H 61.9403 3.66571 0.0461769 0
M  V30 705 H 61.5883 4.41762 2.40531 0
M  V30 706 H 61.2883 5.74122 1.25131 0
M  V30 707 H 62.8123 5.70246 2.18293 0
M  V30 708 H 64.2263 5.73232 -0.0883058 0
M  V30 709 H 62.6233 5.94026 -0.851679 0
M  V30 710 H 63.6933 4.64037 -1.40703 0
M  V30 711 N 65.0364 0.313813 1.54444 0
M  V30 712 C 65.9464 -0.565714 2.27677 0
M  V30 713 C 66.9624 -1.13754 1.31666 0
M  V30 714 O 68.1384 -1.15959 1.64668 0
M  V30 715 C 65.2034 -1.71528 3.01296 0
M  V30 716 C 64.2644 -1.17624 4.12872 0
M  V30 717 C 63.4974 -2.27102 4.8297 0
M  V30 718 O 63.7204 -3.47256 4.52514 0
M  V30 719 O 62.6544 -1.9307 5.70094 0
M  V30 720 H 66.4804 0.0287296 3.03686 0
M  V30 721 H 64.0654 0.0798312 1.49187 0
M  V30 722 H 65.9474 -2.38476 3.4743 0
M  V30 723 H 64.6224 -2.29608 2.2817 0
M  V30 724 H 63.5294 -0.472124 3.71109 0
M  V30 725 H 64.8624 -0.640695 4.88012 0
M  V30 726 N 66.5145 -1.57545 0.0417849 0
M  V30 727 C 67.7395 -1.97035 -0.647455 0
M  V30 728 C 68.1645 -0.918775 -1.64135 0
M  V30 729 O 67.5225 0.119006 -1.80909 0
M  V30 730 C 67.5705 -3.35609 -1.31905 0
M  V30 731 O 66.6745 -3.3287 -2.43457 0
M  V30 732 H 66.0155 -0.64211 -0.169086 0
M  V30 733 H 68.5455 -2.04318 0.107399 0
M  V30 734 H 68.5555 -3.72126 -1.67291 0
M  V30 735 H 67.2305 -4.11685 -0.590586 0
M  V30 736 H 65.8075 -3.08087 -2.10088 0
M  V30 737 N 67.9926 0.231505 -1.5589 0
M  V30 738 C 68.9226 1.29022 -1.94617 0
M  V30 739 C 69.9036 1.4941 -0.813067 0
M  V30 740 O 71.0886 1.6176 -1.07459 0
M  V30 741 C 68.2186 2.64199 -2.25424 0
M  V30 742 C 67.1726 2.58484 -3.41131 0
M  V30 743 C 66.4986 3.97599 -3.57518 0
M  V30 744 C 67.7986 2.1413 -4.76388 0
M  V30 745 H 69.4926 0.968563 -2.83301 0
M  V30 746 H 67.0386 0.464479 -1.36303 0
M  V30 747 H 68.9916 3.38413 -2.51107 0
M  V30 748 H 67.7156 2.98032 -1.33583 0
M  V30 749 H 66.3746 1.86727 -3.15481 0
M  V30 750 H 66.0226 4.28723 -2.6307 0
M  V30 751 H 65.7226 3.94659 -4.35337 0
M  V30 752 H 67.2466 4.7349 -3.85538 0
M  V30 753 H 68.6606 2.78083 -5.01341 0
M  V30 754 H 67.0576 2.2227 -5.57419 0
M  V30 755 H 68.1276 1.09331 -4.72414 0
M  V30 756 N 69.4707 1.49531 0.497807 0
M  V30 757 C 70.7197 1.58426 1.24837 0
M  V30 758 C 71.0327 0.277643 1.93619 0
M  V30 759 O 72.2387 0.24517 2.70391 0
M  V30 760 C 70.6947 2.79538 2.26686 0
M  V30 761 C 70.3027 4.16971 1.63828 0
M  V30 762 C 72.0467 2.97764 3.0255 0
M  V30 763 C 69.9537 5.29301 2.63807 0
M  V30 764 H 68.8837 0.58989 0.469623 0
M  V30 765 H 71.5347 1.75923 0.521857 0
M  V30 766 H 69.9167 2.55542 3.02514 0
M  V30 767 H 71.0907 4.51116 0.939711 0
M  V30 768 H 69.4057 4.04129 1.00342 0
M  V30 769 H 72.0027 3.78856 3.77323 0
M  V30 770 H 72.3457 2.08448 3.60354 0
M  V30 771 H 72.8787 3.21815 2.33838 0
M  V30 772 H 69.6177 6.20687 2.10779 0
M  V30 773 H 69.1377 4.99606 3.31894 0
M  V30 774 H 70.8167 5.58768 3.2617 0
M  V30 775 N 70.9488 -0.749086 1.3866 0
M  V30 776 C 72.3648 -1.05276 1.19955 0
M  V30 777 C 72.5648 -2.01435 0.05134 0
M  V30 778 O 71.6208 -2.45232 -0.60147 0
M  V30 779 C 72.9338 -1.62853 2.52783 0
M  V30 780 C 74.4818 -1.75002 2.59506 0
M  V30 781 C 74.9568 -2.35991 3.92521 0
M  V30 782 N 76.4478 -2.43416 3.94085 0
M  V30 783 C 77.1828 -2.91511 4.9377 0
M  V30 784 N 76.6788 -3.39608 6.03853 0
M  V30 785 N 78.4718 -2.90592 4.81157 0
M  V30 786 H 70.6228 -0.111066 2.12109 0
M  V30 787 H 72.8858 -0.111901 0.941373 0
M  V30 788 H 72.5918 -0.99664 3.37283 0
M  V30 789 H 72.4658 -2.61854 2.715 0
M  V30 790 H 74.8528 -2.37317 1.75398 0
M  V30 791 H 74.9338 -0.74693 2.44652 0
M  V30 792 H 74.5778 -1.74308 4.77053 0
M  V30 793 H 74.5078 -3.3695 4.04688 0
M  V30 794 H 76.9988 -2.09405 3.14576 0
M  V30 795 H 77.3118 -3.74775 6.75843 0
M  V30 796 H 75.6568 -3.37653 6.07466 0
M  V30 797 H 78.8478 -2.52332 3.94267 0
M  V30 798 H 79.0208 -3.27762 5.58996 0
M  V30 799 N 72.4269 -1.23603 -0.977757 0
M  V30 800 C 73.3899 -1.02069 -2.05218 0
M  V30 801 C 74.3899 0.0184305 -1.60789 0
M  V30 802 O 75.5799 -0.221569 -1.72785 0
M  V30 803 C 72.7119 -0.544926 -3.36517 0
M  V30 804 H 73.9049 -1.9742 -2.25755 0
M  V30 805 H 71.4579 -1.05684 -1.15155 0
M  V30 806 H 72.1929 0.412241 -3.21669 0
M  V30 807 H 71.9779 -1.2948 -3.70105 0
M  V30 808 H 73.4679 -0.414985 -4.15533 0
M  V30 809 N 73.905 1.17692 -1.04816 0
M  V30 810 C 74.837 2.21103 -0.603822 0
M  V30 811 C 75.85 1.59411 0.33046 0
M  V30 812 O 77.039 1.7807 0.12379 0
M  V30 813 C 74.139 3.38623 0.136898 0
M  V30 814 C 73.312 4.29888 -0.807137 0
M  V30 815 C 72.371 5.26088 -0.10836 0
M  V30 816 O 71.397 5.64353 -0.741232 0
M  V30 817 N 72.599 5.68882 1.15558 0
M  V30 818 H 75.364 2.59848 -1.49329 0
M  V30 819 H 72.925 1.32553 -0.929587 0
M  V30 820 H 74.917 4.00009 0.614401 0
M  V30 821 H 73.487 2.98508 0.927993 0
M  V30 822 H 72.707 3.65993 -1.46434 0
M  V30 823 H 73.995 4.87759 -1.44807 0
M  V30 824 H 73.393 5.39861 1.69015 0
M  V30 825 H 71.95 6.32429 1.57722 0
M  V30 826 N 75.3831 0.828654 1.34056 0
M  V30 827 C 76.2931 0.256725 2.33191 0
M  V30 828 C 77.3091 -0.611898 1.62886 0
M  V30 829 O 78.4851 -0.51844 1.94613 0
M  V30 830 C 75.5501 -0.567238 3.42028 0
M  V30 831 C 74.6111 0.324458 4.28072 0
M  V30 832 C 73.8441 -0.460274 5.31712 0
M  V30 833 O 74.0671 -1.693 5.44696 0
M  V30 834 O 73.0011 0.160391 6.01686 0
M  V30 835 H 76.8271 1.07739 2.83947 0
M  V30 836 H 74.4121 0.59093 1.37217 0
M  V30 837 H 76.2941 -1.03582 4.08471 0
M  V30 838 H 74.9691 -1.36513 2.93506 0
M  V30 839 H 73.8761 0.840659 3.64532 0
M  V30 840 H 75.2091 1.08685 4.8005 0
M  V30 841 N 76.8612 -1.46375 0.584142 0
M  V30 842 C 77.8082 -2.30323 -0.148286 0
M  V30 843 C 78.7782 -1.40703 -0.882713 0
M  V30 844 O 79.9632 -1.69651 -0.873099 0
M  V30 845 C 77.1032 -3.25196 -1.15507 0
M  V30 846 C 76.2162 -4.29915 -0.423943 0
M  V30 847 C 75.3512 -5.11914 -1.41838 0
M  V30 848 C 74.3902 -6.08381 -0.673736 0
M  V30 849 N 73.5272 -6.83242 -1.6163 0
M  V30 850 H 78.3672 -2.92427 0.573644 0
M  V30 851 H 75.9042 -1.44118 0.294703 0
M  V30 852 H 77.8622 -3.78646 -1.75166 0
M  V30 853 H 76.4922 -2.64898 -1.8447 0
M  V30 854 H 75.5442 -3.7931 0.287714 0
M  V30 855 H 76.8562 -4.98549 0.158128 0
M  V30 856 H 76.0102 -5.69648 -2.08773 0
M  V30 857 H 74.7492 -4.43243 -2.03438 0
M  V30 858 H 73.7542 -5.49799 0.00938483 0
M  V30 859 H 74.9792 -6.79071 -0.0631082 0
M  V30 860 H 72.9252 -6.1728 -2.22038 0
M  V30 861 H 72.8422 -7.48144 -1.08707 0
M  V30 862 H 74.1102 -7.45534 -2.27596 0
M  V30 863 N 78.3393 -0.321999 -1.54275 0
M  V30 864 C 79.5873 0.280489 -2.00144 0
M  V30 865 C 79.9083 1.52777 -1.21178 0
M  V30 866 O 79.1783 1.9338 -0.313187 0
M  V30 867 H 77.7583 0.106632 -0.73935 0
M  V30 868 H 80.4203 -0.438184 -1.8991 0
M  V30 869 H 79.5163 0.537972 -3.07428 0
M  V30 870 N 79.8174 1.5752 -0.0501392 0
M  V30 871 C 81.0664 1.91827 0.623328 0
M  V30 872 C 81.3794 0.930222 1.72065 0
M  V30 873 O 82.5854 1.1653 2.4522 0
M  V30 874 C 81.0414 3.40692 1.16003 0
M  V30 875 C 80.6494 4.479 0.0948811 0
M  V30 876 C 82.3934 3.84034 1.80881 0
M  V30 877 C 80.3004 5.87879 0.644411 0
M  V30 878 H 79.2304 0.715918 0.236596 0
M  V30 879 H 81.8814 1.83115 -0.118861 0
M  V30 880 H 80.2634 3.44405 1.9545 0
M  V30 881 H 81.4374 4.55775 -0.678675 0
M  V30 882 H 79.7524 4.13892 -0.45637 0
M  V30 883 H 82.3494 4.85984 2.22988 0
M  V30 884 H 82.6924 3.20225 2.6601 0
M  V30 885 H 83.2254 3.82833 1.0809 0
M  V30 886 H 79.9644 6.55282 -0.169229 0
M  V30 887 H 79.4844 5.83567 1.38598 0
M  V30 888 H 81.1634 6.37098 1.12763 0
M  V30 889 N 81.2955 -0.223234 1.56011 0
M  V30 890 C 82.2425 -1.27664 1.92277 0
M  V30 891 C 83.2125 -1.46659 0.779763 0
M  V30 892 O 84.3975 -1.60256 1.03551 0
M  V30 893 C 81.5375 -2.62234 2.24338 0
M  V30 894 C 80.6505 -2.51051 3.51564 0
M  V30 895 C 79.7855 -3.78133 3.7308 0
M  V30 896 C 78.8245 -3.61665 4.93827 0
M  V30 897 N 77.9615 -4.80693 5.11741 0
M  V30 898 H 82.8015 -0.960358 2.82101 0
M  V30 899 H 80.3385 -0.462901 1.39627 0
M  V30 900 H 82.2965 -3.40596 2.40936 0
M  V30 901 H 80.9265 -2.91961 1.3769 0
M  V30 902 H 79.9785 -1.64132 3.43169 0
M  V30 903 H 81.2905 -2.34803 4.40079 0
M  V30 904 H 80.4445 -4.64938 3.89766 0
M  V30 905 H 79.1835 -3.97304 2.82844 0
M  V30 906 H 78.1885 -2.73244 4.77093 0
M  V30 907 H 79.4135 -3.43966 5.85546 0
M  V30 908 H 77.3595 -5.00181 4.24446 0
M  V30 909 H 77.2765 -4.67165 5.94384 0
M  V30 910 H 78.5445 -5.6893 5.3286 0
M  V30 911 N 82.7736 -1.49793 -0.48987 0
M  V30 912 C 84.0196 -1.60078 -1.24511 0
M  V30 913 C 84.3526 -0.291608 -1.91998 0
M  V30 914 O 83.6276 0.705647 -1.81248 0
M  V30 915 C 83.9106 -2.76791 -2.30345 0
M  V30 916 C 83.7636 -4.17535 -1.67286 0
M  V30 917 C 85.0826 -2.89111 -3.31817 0
M  V30 918 H 82.2016 -0.582645 -0.451324 0
M  V30 919 H 84.8436 -1.82117 -0.541612 0
M  V30 920 H 82.9936 -2.5813 -2.90346 0
M  V30 921 H 84.6656 -4.4774 -1.11026 0
M  V30 922 H 82.9086 -4.22665 -0.976577 0
M  V30 923 H 83.5796 -4.95094 -2.44103 0
M  V30 924 H 86.0556 -3.06133 -2.81819 0
M  V30 925 H 84.9316 -3.72433 -4.03219 0
M  V30 926 H 85.1926 -1.9893 -3.94815 0
M  V30 927 N 84.2517 0.741722 -1.39055 0
M  V30 928 C 85.4977 1.50336 -1.36113 0
M  V30 929 C 85.8307 1.94148 0.0450796 0
M  V30 930 O 85.1057 1.66301 1.00868 0
M  V30 931 C 85.3887 2.74773 -2.32749 0
M  V30 932 C 85.2417 2.37023 -3.82283 0
M  V30 933 C 86.5607 3.76846 -2.27322 0
M  V30 934 H 83.6797 0.545351 -0.495743 0
M  V30 935 H 86.3217 0.848624 -1.69995 0
M  V30 936 H 84.4717 3.30639 -2.03986 0
M  V30 937 H 86.1437 1.8684 -4.21768 0
M  V30 938 H 84.3867 1.69334 -3.99385 0
M  V30 939 H 85.0577 3.26104 -4.45376 0
M  V30 940 H 87.5337 3.30548 -2.5274 0
M  V30 941 H 86.4097 4.6159 -2.97028 0
M  V30 942 H 86.6707 4.23286 -1.27599 0
M  V30 943 N 85.7298 1.2412 0.971189 0
M  V30 944 C 86.9788 1.07284 1.70801 0
M  V30 945 C 87.2918 -0.388902 1.91695 0
M  V30 946 O 88.4978 -0.677379 2.62914 0
M  V30 947 C 86.9538 1.87145 3.07416 0
M  V30 948 C 86.5618 3.37707 2.94377 0
M  V30 949 C 88.3058 1.78828 3.84995 0
M  V30 950 C 86.2128 4.09925 4.26281 0
M  V30 951 H 85.1428 0.397854 0.64049 0
M  V30 952 H 87.7938 1.4817 1.0825 0
M  V30 953 H 86.1758 1.39071 3.70777 0
M  V30 954 H 87.3498 3.93335 2.4005 0
M  V30 955 H 85.6648 3.46938 2.30267 0
M  V30 956 H 88.2618 2.30089 4.82662 0
M  V30 957 H 88.6048 0.75284 4.09436 0
M  V30 958 H 89.1378 2.24563 3.28354 0
M  V30 959 H 85.8768 5.13813 4.07033 0
M  V30 960 H 85.3968 3.59083 4.80437 0
M  V30 961 H 87.0758 4.1673 4.94919 0
M  V30 962 N 87.2079 -1.17134 1.05439 0
M  V30 963 C 88.1709 -2.19439 0.661764 0
M  V30 964 C 89.1709 -1.58199 -0.288042 0
M  V30 965 O 90.3609 -1.74053 -0.0715803 0
M  V30 966 C 87.4929 -3.40889 -0.0276209 0
M  V30 967 H 88.6859 -2.55688 1.56728 0
M  V30 968 H 86.2389 -1.31259 0.848567 0
M  V30 969 H 86.9739 -3.10187 -0.94629 0
M  V30 970 H 86.7589 -3.86586 0.655238 0
M  V30 971 H 88.2489 -4.16603 -0.288342 0
M  V30 972 N 88.686 -0.835752 -1.33615 0
M  V30 973 C 89.914 -0.443344 -2.02094 0
M  V30 974 C 90.329 0.954522 -1.62894 0
M  V30 975 O 89.686 1.61982 -0.840723 0
M  V30 976 C 89.737 -0.550775 -3.5728 0
M  V30 977 O 89.458 -1.89356 -3.95065 0
M  V30 978 C 90.959 -0.154919 -4.43029 0
M  V30 979 H 88.179 -0.176359 -0.647409 0
M  V30 980 H 90.723 -1.12746 -1.70612 0
M  V30 981 H 88.878 0.0853997 -3.87306 0
M  V30 982 H 89.292 -1.87687 -4.89769 0
M  V30 983 H 90.766 -0.281144 -5.51284 0
M  V30 984 H 91.243 0.902863 -4.2982 0
M  V30 985 H 91.849 -0.765404 -4.18356 0
M  V30 986 N 90.1641 1.46063 -0.591896 0
M  V30 987 C 91.4121 2.01938 -0.0808391 0
M  V30 988 C 91.7331 1.46475 1.28725 0
M  V30 989 O 91.0031 0.652944 1.84698 0
M  V30 990 H 89.5831 0.746516 -0.0268938 0
M  V30 991 H 92.2451 1.79055 -0.769752 0
M  V30 992 H 91.3411 3.12094 -0.0187578 0
M  V30 993 N 91.6422 0.330177 1.54103 0
M  V30 994 C 93.0582 -0.0222371 1.59585 0
M  V30 995 C 93.2582 -1.49902 1.34654 0
M  V30 996 O 92.3142 -2.25592 1.13421 0
M  V30 997 C 93.6272 0.401932 2.98002 0
M  V30 998 C 95.1752 0.353145 3.11001 0
M  V30 999 C 95.6502 0.752576 4.51775 0
M  V30 1000 N 97.1412 0.706239 4.57784 0
M  V30 1001 C 97.8762 0.987417 5.64834 0
M  V30 1002 N 97.3722 1.33607 6.79795 0
M  V30 1003 N 99.1652 0.91254 5.54643 0
M  V30 1004 H 91.3162 1.29228 1.68564 0
M  V30 1005 H 93.5792 0.525906 0.78875 0
M  V30 1006 H 93.2852 1.4311 3.21267 0
M  V30 1007 H 93.1592 -0.229699 3.765 0
M  V30 1008 H 95.5462 -0.666822 2.87467 0
M  V30 1009 H 95.6272 1.0198 2.34593 0
M  V30 1010 H 95.2712 1.77049 4.76042 0
M  V30 1011 H 95.2012 0.0635409 5.26562 0
M  V30 1012 H 97.6922 0.44889 3.75224 0
M  V30 1013 H 98.0052 1.53582 7.57385 0
M  V30 1014 H 96.3502 1.37439 6.81275 0
M  V30 1015 H 99.5412 0.639601 4.6371 0
M  V30 1016 H 99.7142 1.13503 6.37982 0
M  V30 1017 N 93.1203 -1.57491 0.0584922 0
M  V30 1018 C 94.3453 -1.97711 -0.62652 0
M  V30 1019 C 94.7703 -0.936132 -1.63151 0
M  V30 1020 O 94.1283 0.099811 -1.81025 0
M  V30 1021 C 94.1763 -3.36989 -1.28338 0
M  V30 1022 O 93.2803 -3.35433 -2.39913 0
M  V30 1023 H 92.6213 -0.643868 -0.162266 0
M  V30 1024 H 95.1513 -2.04193 0.129064 0
M  V30 1025 H 95.1613 -3.73879 -1.63335 0
M  V30 1026 H 93.8363 -4.12289 -0.546889 0
M  V30 1027 H 92.4133 -3.10298 -2.06809 0
M  V30 1028 N 94.5984 0.214957 -1.56127 0
M  V30 1029 C 95.8474 0.936451 -1.78643 0
M  V30 1030 C 96.1604 1.85237 -0.628229 0
M  V30 1031 O 97.3664 2.613 -0.737186 0
M  V30 1032 C 95.8224 1.7154 -3.16389 0
M  V30 1033 C 95.4304 0.845299 -4.39953 0
M  V30 1034 C 97.1744 2.42772 -3.48227 0
M  V30 1035 C 95.0814 1.62198 -5.68723 0
M  V30 1036 H 94.0114 0.353401 -0.666051 0
M  V30 1037 H 96.6624 0.190169 -1.82512 0
M  V30 1038 H 95.0444 2.50484 -3.06715 0
M  V30 1039 H 96.2184 0.0959353 -4.607 0
M  V30 1040 H 94.5334 0.244789 -4.1568 0
M  V30 1041 H 97.1304 3.01394 -4.41663 0
M  V30 1042 H 97.4734 3.15984 -2.71035 0
M  V30 1043 H 98.0064 1.70813 -3.5926 0
M  V30 1044 H 94.7454 0.933011 -6.48826 0
M  V30 1045 H 94.2654 2.34579 -5.52026 0
M  V30 1046 H 95.9444 2.18095 -6.09133 0
M  V30 1047 N 96.0765 1.50051 0.48192 0
M  V30 1048 C 97.3235 1.60498 1.23477 0
M  V30 1049 C 97.6515 0.300331 1.92167 0
M  V30 1050 O 96.9065 -0.713094 1.82246 0
M  V30 1051 C 97.2055 2.72717 2.30998 0
M  V30 1052 C 96.8715 4.13572 1.79636 0
M  V30 1053 C 95.5335 4.519 1.65348 0
M  V30 1054 C 97.8855 5.01649 1.41412 0
M  V30 1055 C 95.2135 5.76057 1.11244 0
M  V30 1056 C 97.5655 6.26343 0.887538 0
M  V30 1057 C 96.2295 6.63483 0.731207 0
M  V30 1058 H 95.4995 0.587303 0.451836 0
M  V30 1059 H 98.1465 1.83948 0.532468 0
M  V30 1060 H 96.4515 2.43312 3.07094 0
M  V30 1061 H 98.1485 2.78006 2.88988 0
M  V30 1062 H 94.7385 3.83329 1.91721 0
M  V30 1063 H 98.9225 4.72679 1.51289 0
M  V30 1064 H 94.1785 6.03516 0.978686 0
M  V30 1065 H 98.3525 6.93958 0.582654 0
M  V30 1066 H 95.9795 7.59568 0.309806 0
M  V30 1067 N 97.5546 -0.734337 1.39446 0
M  V30 1068 C 98.7796 -1.52866 1.40167 0
M  V30 1069 C 99.2046 -1.881 -0.00171513 0
M  V30 1070 O 98.5626 -1.51957 -0.988879 0
M  V30 1071 C 98.6106 -2.79235 2.28167 0
M  V30 1072 O 97.7146 -3.75185 1.71201 0
M  V30 1073 H 97.0556 -0.461618 0.477289 0
M  V30 1074 H 99.5856 -0.905949 1.8345 0
M  V30 1075 H 99.5956 -3.27963 2.42702 0
M  V30 1076 H 98.2706 -2.52923 3.30156 0
M  V30 1077 H 96.8476 -3.33958 1.65912 0
M  V30 1078 N 99.0327 -1.24633 -0.964593 0
M  V30 1079 C 100.279 -1.08949 -1.71049 0
M  V30 1080 C 100.612 0.370302 -1.90637 0
M  V30 1081 O 99.8867 1.27349 -1.47011 0
M  V30 1082 C 100.17 -1.83329 -3.0994 0
M  V30 1083 C 100.023 -3.37077 -2.97824 0
M  V30 1084 C 101.342 -1.60846 -4.09654 0
M  V30 1085 H 98.4607 -0.397178 -0.620821 0
M  V30 1086 H 101.103 -1.5334 -1.12191 0
M  V30 1087 H 99.2527 -1.45597 -3.60186 0
M  V30 1088 H 100.925 -3.84425 -2.5498 0
M  V30 1089 H 99.1677 -3.65298 -2.33965 0
M  V30 1090 H 99.8387 -3.84324 -3.96231 0
M  V30 1091 H 102.315 -1.93674 -3.68279 0
M  V30 1092 H 101.191 -2.1534 -5.04896 0
M  V30 1093 H 101.452 -0.547434 -4.38698 0
M  V30 1094 N 100.511 1.16574 -1.06058 0
M  V30 1095 C 101.421 2.2452 -0.680282 0
M  V30 1096 C 102.437 1.71348 0.302604 0
M  V30 1097 O 103.613 2.00822 0.152513 0
M  V30 1098 C 100.678 3.46629 -0.0700315 0
M  V30 1099 C 99.7388 4.14849 -1.10448 0
M  V30 1100 C 98.9718 5.31129 -0.523256 0
M  V30 1101 O 99.1948 5.66514 0.664709 0
M  V30 1102 O 98.1288 5.88526 -1.26179 0
M  V30 1103 H 101.955 2.59355 -1.58015 0
M  V30 1104 H 99.5398 1.24043 -0.832694 0
M  V30 1105 H 101.422 4.20543 0.268667 0
M  V30 1106 H 100.097 3.13573 0.803353 0
M  V30 1107 H 99.0038 3.42916 -1.49532 0
M  V30 1108 H 100.337 4.51954 -1.94931 0
M  V30 1109 N 101.989 0.842826 1.3317 0
M  V30 1110 C 102.937 0.267495 2.31057 0
M  V30 1111 C 103.931 -0.602682 1.58316 0
M  V30 1112 O 105.137 -0.491803 1.73151 0
M  V30 1113 H 101.512 0.0677813 0.748939 0
M  V30 1114 H 103.483 1.10754 2.77085 0
M  V30 1115 C 102.232 -0.539331 3.43492 0
M  V30 1116 H 101.555 0.12095 3.99617 0
M  V30 1117 H 102.995 -0.90767 4.14171 0
M  V30 1118 C 101.454 -1.71981 2.89697 0
M  V30 1119 O 101.984 -2.81862 2.86211 0
M  V30 1120 N 100.19 -1.54299 2.46252 0
M  V30 1121 H 99.7369 -0.649143 2.49287 0
M  V30 1122 H 99.6949 -2.33431 2.10612 0
M  V30 1123 N 103.467 -1.45747 0.599634 0
M  V30 1124 C 104.713 -2.02592 0.0918643 0
M  V30 1125 C 105.046 -1.46806 -1.27128 0
M  V30 1126 O 104.321 -0.639658 -1.83681 0
M  V30 1127 C 104.604 -3.60073 0.0443398 0
M  V30 1128 C 104.457 -4.26208 1.43759 0
M  V30 1129 C 105.776 -4.35309 -0.647608 0
M  V30 1130 H 102.895 -0.736175 0.034857 0
M  V30 1131 H 105.537 -1.73694 0.770081 0
M  V30 1132 H 103.687 -3.84823 -0.533224 0
M  V30 1133 H 105.359 -4.12668 2.06162 0
M  V30 1134 H 103.602 -3.84916 2.00056 0
M  V30 1135 H 104.273 -5.35069 1.35665 0
M  V30 1136 H 106.749 -4.15805 -0.156776 0
M  V30 1137 H 105.625 -5.45038 -0.649942 0
M  V30 1138 H 105.886 -4.07598 -1.71219 0
M  V30 1139 N 104.945 -0.338344 -1.53925 0
M  V30 1140 C 106.194 0.260732 -2.00008 0
M  V30 1141 C 106.507 1.52073 -1.23017 0
M  V30 1142 O 107.713 2.19672 -1.5955 0
M  V30 1143 C 106.169 0.51515 -3.56194 0
M  V30 1144 C 105.777 -0.728645 -4.42035 0
M  V30 1145 C 107.521 1.07337 -4.10706 0
M  V30 1146 C 105.428 -0.445315 -5.89721 0
M  V30 1147 H 104.358 0.101205 -0.747177 0
M  V30 1148 H 107.009 -0.452866 -1.77824 0
M  V30 1149 H 105.391 1.28932 -3.74423 0
M  V30 1150 H 106.565 -1.50352 -4.35581 0
M  V30 1151 H 104.88 -1.20813 -3.98489 0
M  V30 1152 H 107.477 1.30022 -5.18651 0
M  V30 1153 H 107.82 2.0273 -3.63602 0
M  V30 1154 H 108.353 0.360034 -3.96167 0
M  V30 1155 H 105.092 -1.36883 -6.41049 0
M  V30 1156 H 104.612 0.291569 -5.99091 0
M  V30 1157 H 106.291 -0.0606218 -6.46972 0
M  V30 1158 N 106.423 1.57458 -0.0668435 0
M  V30 1159 C 107.671 1.92919 0.602214 0
M  V30 1160 C 107.992 0.947215 1.70449 0
M  V30 1161 O 107.262 -0.00544117 1.95899 0
M  V30 1162 H 105.842 0.71217 0.22544 0
M  V30 1163 H 108.504 1.94508 -0.123535 0
M  V30 1164 H 107.6 2.94589 1.03073 0
M  V30 1165 N 107.901 -0.206675 1.56239 0
M  V30 1166 C 108.811 -1.27686 1.96808 0
M  V30 1167 C 109.827 -1.50455 0.874035 0
M  V30 1168 O 111.003 -1.63295 1.17884 0
M  V30 1169 C 108.068 -2.60358 2.28942 0
M  V30 1170 C 107.129 -2.45762 3.51994 0
M  V30 1171 C 106.362 -3.72108 3.82585 0
M  V30 1172 O 106.585 -4.75776 3.14631 0
M  V30 1173 O 105.519 -3.6833 4.76043 0
M  V30 1174 H 109.345 -0.962593 2.88041 0
M  V30 1175 H 106.93 -0.410746 1.43643 0
M  V30 1176 H 108.812 -3.38687 2.50737 0
M  V30 1177 H 107.487 -2.91435 1.4088 0
M  V30 1178 H 106.394 -1.65584 3.35459 0
M  V30 1179 H 107.727 -2.19621 4.40486 0
M  V30 1180 N 109.379 -1.50304 -0.473955 0
M  V30 1181 C 110.329 -1.65347 -1.56985 0
M  V30 1182 C 111.313 -0.508176 -1.52664 0
M  V30 1183 O 112.505 -0.762446 -1.59737 0
M  V30 1184 C 109.634 -1.74832 -2.95447 0
M  V30 1185 C 108.72 -2.95028 -3.04662 0
M  V30 1186 N 109.111 -4.18747 -2.83698 0
M  V30 1187 C 107.409 -2.93527 -3.35795 0
M  V30 1188 C 108.11 -4.99687 -2.97805 0
M  V30 1189 N 107.086 -4.33585 -3.2788 0
M  V30 1190 H 110.888 -2.58698 -1.39472 0
M  V30 1191 H 108.402 -1.47449 -0.680629 0
M  V30 1192 H 110.399 -1.83712 -3.7424 0
M  V30 1193 H 109.059 -0.826376 -3.14008 0
M  V30 1194 H 110.07 -4.48291 -2.59337 0
M  V30 1195 H 106.747 -2.10821 -3.60362 0
M  V30 1196 H 108.137 -6.08057 -2.85861 0
M  V30 1197 N 110.857 0.726932 -1.39834 0
M  V30 1198 C 112.103 1.48884 -1.377 0
M  V30 1199 C 112.436 1.94185 0.0244852 0
M  V30 1200 O 111.711 1.67361 0.990986 0
M  V30 1201 C 111.994 2.72288 -2.3565 0
M  V30 1202 C 111.847 2.32956 -3.84775 0
M  V30 1203 C 113.166 3.74414 -2.31306 0
M  V30 1204 H 110.285 0.540062 -0.5015 0
M  V30 1205 H 112.927 0.830547 -1.70886 0
M  V30 1206 H 111.077 3.28457 -2.07481 0
M  V30 1207 H 112.749 1.82356 -4.23726 0
M  V30 1208 H 110.992 1.65088 -4.01159 0
M  V30 1209 H 111.663 3.21362 -4.4881 0
M  V30 1210 H 114.139 3.27849 -2.56231 0
M  V30 1211 H 113.015 4.58414 -3.01907 0
M  V30 1212 H 113.276 4.21909 -1.32081 0
M  V30 1213 N 112.336 1.25143 0.95797 0
M  V30 1214 C 113.283 1.05235 2.05412 0
M  V30 1215 C 114.253 -0.0374561 1.66058 0
M  V30 1216 O 115.438 0.119073 1.90428 0
M  V30 1217 C 112.578 0.673589 3.38462 0
M  V30 1218 C 111.691 1.8379 3.90954 0
M  V30 1219 C 110.826 1.40381 5.12315 0
M  V30 1220 C 109.865 2.53746 5.57027 0
M  V30 1221 N 109.002 2.11136 6.69601 0
M  V30 1222 H 113.842 1.99048 2.21774 0
M  V30 1223 H 111.379 0.991277 1.08683 0
M  V30 1224 H 113.337 0.434964 4.14926 0
M  V30 1225 H 111.967 -0.227554 3.21997 0
M  V30 1226 H 111.019 2.18992 3.11041 0
M  V30 1227 H 112.331 2.68937 4.20089 0
M  V30 1228 H 111.485 1.12464 5.96185 0
M  V30 1229 H 110.224 0.523015 4.84887 0
M  V30 1230 H 109.229 2.82412 4.71724 0
M  V30 1231 H 110.454 3.42398 5.86464 0
M  V30 1232 H 108.4 1.25468 6.4389 0
M  V30 1233 H 108.317 2.89832 6.98236 0
M  V30 1234 H 109.585 1.86385 7.56889 0
M  V30 1235 N 113.814 -1.1601 1.06675 0
M  V30 1236 C 114.761 -2.20525 0.680967 0
M  V30 1237 C 115.731 -1.62904 -0.324283 0
M  V30 1238 O 116.916 -1.89615 -0.212294 0
M  V30 1239 C 114.056 -3.45013 0.0776551 0
M  V30 1240 C 113.169 -4.16863 1.13355 0
M  V30 1241 C 112.304 -5.2888 0.49597 0
M  V30 1242 C 111.343 -5.92537 1.53513 0
M  V30 1243 N 110.48 -6.96038 0.920631 0
M  V30 1244 H 115.32 -2.52876 1.57663 0
M  V30 1245 H 112.857 -1.24199 0.788223 0
M  V30 1246 H 114.815 -4.16193 -0.289704 0
M  V30 1247 H 113.445 -3.132 -0.781393 0
M  V30 1248 H 112.497 -3.44248 1.61857 0
M  V30 1249 H 113.809 -4.60294 1.92174 0
M  V30 1250 H 112.963 -6.06653 0.0758604 0
M  V30 1251 H 111.702 -4.86622 -0.324062 0
M  V30 1252 H 110.707 -5.13482 1.9651 0
M  V30 1253 H 111.932 -6.36873 2.35733 0
M  V30 1254 H 109.878 -6.55888 0.12138 0
M  V30 1255 H 109.795 -7.3786 1.64616 0
M  V30 1256 H 111.063 -7.77725 0.525795 0
M  V30 1257 N 115.292 -0.849877 -1.32721 0
M  V30 1258 C 116.24 -0.279745 -2.30912 0
M  V30 1259 C 117.234 0.594278 -1.58634 0
M  V30 1260 O 118.44 0.482613 -1.73409 0
M  V30 1261 H 114.815 -0.0717521 -0.748569 0
M  V30 1262 H 116.786 -1.12222 -2.76494 0
M  V30 1263 C 115.535 0.521108 -3.43773 0
M  V30 1264 H 114.858 -0.142141 -3.99547 0
M  V30 1265 H 116.298 0.885693 -4.14646 0
M  V30 1266 C 114.757 1.70442 -2.90605 0
M  V30 1267 O 115.287 2.8034 -2.87702 0
M  V30 1268 N 113.493 1.52991 -2.47067 0
M  V30 1269 H 113.04 0.635914 -2.49628 0
M  V30 1270 H 112.998 2.32311 -2.11847 0
M  V30 1271 N 116.77 1.45427 -0.607355 0
M  V30 1272 C 118.186 1.57283 -0.270985 0
M  V30 1273 C 118.386 1.59875 1.22647 0
M  V30 1274 O 117.442 1.52893 2.00948 0
M  V30 1275 C 118.755 2.85566 -0.941952 0
M  V30 1276 C 120.303 2.9924 -0.917849 0
M  V30 1277 C 120.778 4.30293 -1.56882 0
M  V30 1278 N 122.269 4.37051 -1.5343 0
M  V30 1279 C 123.004 5.37123 -2.00715 0
M  V30 1280 N 122.5 6.43734 -2.56084 0
M  V30 1281 N 124.293 5.28479 -1.91484 0
M  V30 1282 H 116.444 1.41988 -1.57966 0
M  V30 1283 H 118.707 0.67885 -0.661715 0
M  V30 1284 H 118.413 2.8955 -1.99633 0
M  V30 1285 H 118.287 3.74322 -0.465096 0
M  V30 1286 H 120.674 2.94822 0.127984 0
M  V30 1287 H 120.755 2.11895 -1.43297 0
M  V30 1288 H 120.399 4.35469 -2.61398 0
M  V30 1289 H 120.329 5.16454 -1.02873 0
M  V30 1290 H 122.82 3.60615 -1.12982 0
M  V30 1291 H 123.133 7.16341 -2.89958 0
M  V30 1292 H 121.478 6.44485 -2.60122 0
M  V30 1293 H 124.669 4.44098 -1.47967 0
M  V30 1294 H 124.842 6.0632 -2.28648 0
M  V30 1295 N 118.248 0.346503 1.53744 0
M  V30 1296 C 119.497 -0.250122 2.00143 0
M  V30 1297 C 119.81 -1.51418 1.23822 0
M  V30 1298 O 121.016 -2.18823 1.60713 0
M  V30 1299 C 119.472 -0.496252 3.56462 0
M  V30 1300 C 119.08 0.752077 4.41642 0
M  V30 1301 C 120.824 -1.05157 4.11269 0
M  V30 1302 C 118.731 0.476583 5.89477 0
M  V30 1303 H 117.661 -0.0972409 0.747703 0
M  V30 1304 H 120.312 0.46229 1.77581 0
M  V30 1305 H 118.694 -1.26944 3.75102 0
M  V30 1306 H 119.868 1.5266 4.34778 0
M  V30 1307 H 118.183 1.22925 3.97842 0
M  V30 1308 H 120.78 -1.27269 5.19333 0
M  V30 1309 H 121.123 -2.00799 3.64672 0
M  V30 1310 H 121.656 -0.339019 3.96353 0
M  V30 1311 H 118.395 1.4028 6.40314 0
M  V30 1312 H 117.915 -0.259794 5.99237 0
M  V30 1313 H 119.594 0.0949315 6.4693 0
M  V30 1314 N 119.726 -1.57421 0.075193 0
M  V30 1315 C 120.951 -1.98364 -0.605515 0
M  V30 1316 C 121.376 -0.953383 -1.62149 0
M  V30 1317 O 120.734 0.0806053 -1.81121 0
M  V30 1318 C 120.782 -3.38332 -1.24756 0
M  V30 1319 O 119.886 -3.37959 -2.36342 0
M  V30 1320 H 119.227 -0.645553 -0.155428 0
M  V30 1321 H 121.757 -2.04044 0.150714 0
M  V30 1322 H 121.767 -3.75591 -1.5936 0
M  V30 1323 H 120.442 -4.12846 -0.503129 0
M  V30 1324 H 119.019 -3.12474 -2.03506 0
M  V30 1325 N 121.204 0.198386 -1.56346 0
M  V30 1326 C 122.134 1.24865 -1.9731 0
M  V30 1327 C 123.115 1.47651 -0.844576 0
M  V30 1328 O 124.3 1.59444 -1.10866 0
M  V30 1329 C 121.43 2.59358 -2.30977 0
M  V30 1330 C 120.384 2.5119 -3.46537 0
M  V30 1331 C 119.71 3.89926 -3.65871 0
M  V30 1332 C 121.01 2.03977 -4.80823 0
M  V30 1333 H 122.704 0.908252 -2.85291 0
M  V30 1334 H 120.25 0.435462 -1.37258 0
M  V30 1335 H 122.203 3.33011 -2.58228 0
M  V30 1336 H 120.927 2.95132 -1.39874 0
M  V30 1337 H 119.586 1.79993 -3.19371 0
M  V30 1338 H 119.234 4.23046 -2.72105 0
M  V30 1339 H 118.934 3.85336 -4.4361 0
M  V30 1340 H 120.458 4.65205 -3.95495 0
M  V30 1341 H 121.872 2.67386 -5.07127 0
M  V30 1342 H 120.269 2.10397 -5.62008 0
M  V30 1343 H 121.339 0.992861 -4.74626 0
M  V30 1344 N 122.682 1.50554 0.465978 0
M  V30 1345 C 123.612 1.72722 1.57128 0
M  V30 1346 C 124.593 0.576294 1.6004 0
M  V30 1347 O 125.778 0.81598 1.76225 0
M  V30 1348 C 122.908 1.82605 2.95419 0
M  V30 1349 C 121.862 2.97835 3.07373 0
M  V30 1350 C 121.188 2.92867 4.47363 0
M  V30 1351 C 122.488 4.38265 2.84114 0
M  V30 1352 H 124.182 2.65267 1.38829 0
M  V30 1353 H 121.728 1.2765 0.666441 0
M  V30 1354 H 123.681 1.96698 3.72677 0
M  V30 1355 H 122.405 0.866858 3.14886 0
M  V30 1356 H 121.064 2.83401 2.3255 0
M  V30 1357 H 120.712 1.94783 4.63755 0
M  V30 1358 H 120.412 3.70227 4.56296 0
M  V30 1359 H 121.936 3.09015 5.26633 0
M  V30 1360 H 123.35 4.53198 3.51118 0
M  V30 1361 H 121.747 5.17115 3.04487 0
M  V30 1362 H 122.817 4.50281 1.7993 0
M  V30 1363 N 124.16 -0.719506 1.40217 0
M  V30 1364 C 125.571 -1.29848 1.34151 0
M  V30 1365 C 125.922 -1.96196 0.0131349 0
M  V30 1366 O 125.047 -1.973 -0.88892 0
M  V30 1367 C 125.642 -2.36118 2.42968 0
M  V30 1368 C 124.201 -2.8965 2.40374 0
M  V30 1369 C 123.348 -1.63393 2.24049 0
M  V30 1370 H 126.299 -0.51591 1.5008 0
M  V30 1371 H 126.32 -3.16871 2.10649 0
M  V30 1372 H 125.832 -1.878 3.39636 0
M  V30 1373 H 123.933 -3.42208 1.47392 0
M  V30 1374 H 124.046 -3.4171 3.35814 0
M  V30 1375 H 122.41 -1.88312 1.71495 0
M  V30 1376 H 123.193 -1.17104 3.2271 0
M  V30 1377 N 125.638 -1.25649 -0.95132 0
M  V30 1378 C 126.886 -1.10375 -1.69298 0
M  V30 1379 C 127.207 0.355339 -1.91735 0
M  V30 1380 O 126.477 1.25188 -1.50681 0
M  V30 1381 H 125.057 -0.405461 -0.627384 0
M  V30 1382 H 127.719 -1.57823 -1.14358 0
M  V30 1383 H 126.815 -1.61465 -2.67087 0
M  V30 1384 N 127.117 1.15442 -1.07289 0
M  V30 1385 C 128.366 1.85557 -0.790669 0
M  V30 1386 C 128.679 1.83186 0.685739 0
M  V30 1387 O 129.885 2.48977 1.0827 0
M  V30 1388 C 128.341 3.33038 -1.36433 0
M  V30 1389 C 127.949 3.43856 -2.8717 0
M  V30 1390 C 129.693 4.0834 -1.1601 0
M  V30 1391 C 127.6 4.85482 -3.3773 0
M  V30 1392 H 126.53 0.695122 -0.292098 0
M  V30 1393 H 129.181 1.30219 -1.29287 0
M  V30 1394 H 127.563 3.88043 -0.789864 0
M  V30 1395 H 128.737 2.98961 -3.50655 0
M  V30 1396 H 127.052 2.81998 -3.06376 0
M  V30 1397 H 129.649 5.12859 -1.51262 0
M  V30 1398 H 129.992 4.16182 -0.0991007 0
M  V30 1399 H 130.525 3.59603 -1.70089 0
M  V30 1400 H 127.264 4.82823 -4.43353 0
M  V30 1401 H 126.784 5.30961 -2.78999 0
M  V30 1402 H 128.463 5.54335 -3.33648 0
M  V30 1403 N 128.595 0.856903 1.32268 0
M  V30 1404 C 129.825 0.47475 2.01071 0
M  V30 1405 C 130.233 -0.933746 1.64553 0
M  V30 1406 O 129.576 -1.62114 0.863989 0
M  V30 1407 C 129.638 0.536746 3.55471 0
M  V30 1408 C 129.302 1.90453 4.15423 0
M  V30 1409 C 130.299 2.87029 4.33486 0
M  V30 1410 C 127.984 2.20229 4.51447 0
M  V30 1411 C 129.978 4.11532 4.86744 0
M  V30 1412 C 127.665 3.44984 5.0441 0
M  V30 1413 C 128.663 4.40452 5.22007 0
M  V30 1414 O 128.351 5.62998 5.73837 0
M  V30 1415 H 128.083 0.184778 0.650256 0
M  V30 1416 H 130.637 1.15615 1.69771 0
M  V30 1417 H 128.867 -0.20152 3.86175 0
M  V30 1418 H 130.556 0.169875 4.05544 0
M  V30 1419 H 131.322 2.6533 4.05986 0
M  V30 1420 H 127.201 1.46705 4.37034 0
M  V30 1421 H 130.745 4.86056 5.00395 0
M  V30 1422 H 126.642 3.66532 5.31342 0
M  V30 1423 H 127.41 5.64987 5.92226 0
M  V30 1424 N 130.073 -1.45103 0.615059 0
M  V30 1425 C 131.006 -2.27717 -0.148408 0
M  V30 1426 C 131.984 -1.37584 -0.866572 0
M  V30 1427 O 133.168 -1.67017 -0.87393 0
M  V30 1428 C 130.295 -3.16136 -1.21557 0
M  V30 1429 C 129.341 -4.22263 -0.599712 0
M  V30 1430 S 130.174 -5.3215 0.598081 0
M  V30 1431 C 131.33 -6.24137 -0.469484 0
M  V30 1432 H 131.563 -2.92121 0.552483 0
M  V30 1433 H 129.096 -1.49054 0.402778 0
M  V30 1434 H 131.054 -3.67633 -1.82638 0
M  V30 1435 H 129.715 -2.50982 -1.88857 0
M  V30 1436 H 128.908 -4.84081 -1.4029 0
M  V30 1437 H 128.51 -3.73945 -0.063876 0
M  V30 1438 H 130.802 -6.63984 -1.34652 0
M  V30 1439 H 131.745 -7.0801 0.112725 0
M  V30 1440 H 132.153 -5.58971 -0.788168 0
M  V30 1441 N 131.551 -0.354651 -1.53558 0
M  V30 1442 C 132.499 0.512195 -2.26891 0
M  V30 1443 C 133.493 1.09263 -1.29452 0
M  V30 1444 O 134.699 1.03709 -1.47121 0
M  V30 1445 H 131.074 0.183878 -0.729173 0
M  V30 1446 H 133.045 -0.128202 -2.98124 0
M  V30 1447 C 131.794 1.64563 -3.06291 0
M  V30 1448 H 131.117 1.20829 -3.81104 0
M  V30 1449 H 132.557 2.22711 -3.60799 0
M  V30 1450 C 131.016 2.58158 -2.16462 0
M  V30 1451 O 131.546 3.60695 -1.76811 0
M  V30 1452 N 129.752 2.27096 -1.81317 0
M  V30 1453 H 129.299 1.43751 -2.1376 0
M  V30 1454 H 129.257 2.89975 -1.21498 0
M  V30 1455 N 133.029 1.57378 -0.0835403 0
M  V30 1456 C 134.277 1.93547 0.581718 0
M  V30 1457 C 134.598 0.96524 1.69435 0
M  V30 1458 O 133.868 0.0153369 1.95894 0
M  V30 1459 H 132.448 0.714521 0.217874 0
M  V30 1460 H 135.11 1.94366 -0.144158 0
M  V30 1461 H 134.206 2.95665 0.999423 0
M  V30 1462 N 134.507 -0.190092 1.56449 0
M  V30 1463 C 135.747 -0.916414 1.82705 0
M  V30 1464 C 136.111 -1.80235 0.661763 0
M  V30 1465 O 137.312 -2.56484 0.80433 0
M  V30 1466 C 135.583 -1.70691 3.14005 0
M  V30 1467 S 137.142 -2.48457 3.61683 0
M  V30 1468 H 133.96 -0.307281 0.64117 0
M  V30 1469 H 136.562 -0.179433 1.94675 0
M  V30 1470 H 135.266 -1.04677 3.96826 0
M  V30 1471 H 134.797 -2.48562 3.04927 0
M  V30 1472 H 136.812 -3.72756 3.27517 0
M  V30 1473 N 135.985 -1.50799 -0.457987 0
M  V30 1474 C 137.231 -1.62683 -1.21088 0
M  V30 1475 C 137.564 -0.332268 -1.91336 0
M  V30 1476 O 136.839 0.667043 -1.82704 0
M  V30 1477 C 137.122 -2.81615 -2.24422 0
M  V30 1478 C 136.975 -4.20989 -1.58392 0
M  V30 1479 C 138.294 -2.96085 -3.2561 0
M  V30 1480 H 135.413 -0.592087 -0.438864 0
M  V30 1481 H 138.055 -1.83225 -0.50286 0
M  V30 1482 H 136.205 -2.64231 -2.84806 0
M  V30 1483 H 137.877 -4.49994 -1.01504 0
M  V30 1484 H 136.12 -4.24641 -0.886704 0
M  V30 1485 H 136.791 -5.0016 -2.33547 0
M  V30 1486 H 139.267 -3.12042 -2.75262 0
M  V30 1487 H 138.143 -3.80902 -3.95228 0
M  V30 1488 H 138.404 -2.0726 -3.90507 0
M  V30 1489 N 137.463 0.71206 -1.40597 0
M  V30 1490 C 138.691 1.50111 -1.42388 0
M  V30 1491 C 139.106 1.88784 -0.0245395 0
M  V30 1492 O 138.463 1.55681 0.952351 0
M  V30 1493 C 138.514 2.7742 -2.31776 0
M  V30 1494 O 138.235 2.40382 -3.66262 0
M  V30 1495 C 139.736 3.7129 -2.42196 0
M  V30 1496 H 136.956 0.46314 -0.485533 0
M  V30 1497 H 139.5 0.878068 -1.8469 0
M  V30 1498 H 137.655 3.36001 -1.92827 0
M  V30 1499 H 138.069 3.22324 -4.13772 0
M  V30 1500 H 139.543 4.57448 -3.08943 0
M  V30 1501 H 140.02 4.14641 -1.44809 0
M  V30 1502 H 140.626 3.18619 -2.81712 0
M  V30 1503 N 138.941 1.26152 0.944643 0
M  V30 1504 C 140.188 1.11492 1.69044 0
M  V30 1505 C 140.516 -0.342366 1.91463 0
M  V30 1506 O 139.771 -1.26812 1.49054 0
M  V30 1507 C 140.07 1.82541 3.07268 0
M  V30 1508 C 139.736 3.32445 3.04616 0
M  V30 1509 C 138.398 3.73337 3.036 0
M  V30 1510 C 140.75 4.28171 2.97185 0
M  V30 1511 C 138.078 5.08348 2.92915 0
M  V30 1512 C 140.43 5.63218 2.88041 0
M  V30 1513 C 139.094 6.03426 2.85366 0
M  V30 1514 H 138.364 0.407977 0.618576 0
M  V30 1515 H 141.011 1.56551 1.10291 0
M  V30 1516 H 139.316 1.29941 3.69625 0
M  V30 1517 H 141.013 1.68642 3.63815 0
M  V30 1518 H 137.603 2.99915 3.06185 0
M  V30 1519 H 141.787 3.97563 2.97081 0
M  V30 1520 H 137.043 5.38667 2.89219 0
M  V30 1521 H 141.217 6.37078 2.81254 0
M  V30 1522 H 138.844 7.07999 2.76842 0
M  V30 1523 N 140.419 -1.14872 1.07899 0
M  V30 1524 C 141.696 -1.81928 0.71845 0
M  V30 1525 C 142.076 -1.95417 -0.798455 0
M  V30 1526 O 141.424 -1.50997 -1.715 0
M  V30 1527 C 141.634 -3.17937 1.43935 0
M  V30 1528 C 142.982 -3.93501 1.59506 0
M  V30 1529 O 144.006 -3.27509 1.40058 0
M  V30 1530 O 142.865 -5.1183 1.91551 0
M  V30 1531 H 139.959 -0.78628 0.256305 0
M  V30 1532 H 142.505 -1.21934 1.18026 0
M  V30 1533 H 141.277 -3.0325 2.47295 0
M  V30 1534 H 140.9 -3.85619 0.968687 0
M  V30 1535 N 141.898 -0.863906 -1.31812 0
M  V30 1536 C 142.808 -0.318461 -2.32428 0
M  V30 1537 C 143.824 0.568496 -1.64451 0
M  V30 1538 O 145 0.46666 -1.95919 0
M  V30 1539 C 142.065 0.476355 -3.43412 0
M  V30 1540 C 141.126 -0.43784 -4.27061 0
M  V30 1541 C 140.359 0.319138 -5.32745 0
M  V30 1542 O 140.582 1.54799 -5.48993 0
M  V30 1543 O 139.516 -0.319861 -6.01049 0
M  V30 1544 H 143.342 -1.15229 -2.80991 0
M  V30 1545 H 140.927 -0.627103 -1.35602 0
M  V30 1546 H 142.809 0.927156 -4.11074 0
M  V30 1547 H 141.484 1.28683 -2.97022 0
M  V30 1548 H 140.391 -0.937013 -3.62175 0
M  V30 1549 H 141.724 -1.21375 -4.77 0
M  V30 1550 N 143.376 1.44774 -0.622745 0
M  V30 1551 C 144.323 2.30635 0.0871679 0
M  V30 1552 C 145.293 1.42994 0.845097 0
M  V30 1553 O 146.478 1.71907 0.827812 0
M  V30 1554 C 143.618 3.28144 1.06844 0
M  V30 1555 C 142.731 4.30888 0.309809 0
M  V30 1556 C 141.866 5.15494 1.28215 0
M  V30 1557 C 140.905 6.09953 0.512198 0
M  V30 1558 N 140.042 6.87287 1.43458 0
M  V30 1559 H 144.882 2.90803 -0.650974 0
M  V30 1560 H 142.419 1.43286 -0.33281 0
M  V30 1561 H 144.377 3.83157 1.65066 0
M  V30 1562 H 143.007 2.69695 1.77382 0
M  V30 1563 H 142.059 3.78414 -0.388181 0
M  V30 1564 H 143.371 4.97955 -0.290254 0
M  V30 1565 H 142.525 5.74983 1.93596 0
M  V30 1566 H 141.264 4.48481 1.91614 0
M  V30 1567 H 140.269 5.49581 -0.155151 0
M  V30 1568 H 141.494 6.78999 -0.116958 0
M  V30 1569 H 139.44 6.2295 2.05594 0
M  V30 1570 H 139.357 7.50763 0.888335 0
M  V30 1571 H 140.625 7.51306 2.07749 0
M  V30 1572 N 144.854 0.36279 1.53368 0
M  V30 1573 C 146.102 -0.227326 2.00817 0
M  V30 1574 C 146.423 -1.49511 1.25186 0
M  V30 1575 O 145.693 -1.92482 0.364348 0
M  V30 1576 H 144.273 -0.0869923 0.741917 0
M  V30 1577 H 146.935 0.488381 1.88682 0
M  V30 1578 H 146.031 -0.456273 3.08747 0
M  V30 1579 N 146.332 -1.57332 0.0918853 0
M  V30 1580 C 147.557 -1.98995 -0.584442 0
M  V30 1581 C 147.982 -0.970528 -1.61128 0
M  V30 1582 O 147.34 0.0613904 -1.81196 0
M  V30 1583 C 147.388 -3.39636 -1.21161 0
M  V30 1584 O 146.492 -3.40447 -2.32744 0
M  V30 1585 H 145.833 -0.647165 -0.148572 0
M  V30 1586 H 148.363 -2.03873 0.172347 0
M  V30 1587 H 148.373 -3.7726 -1.55367 0
M  V30 1588 H 147.048 -4.13356 -0.459313 0
M  V30 1589 H 145.625 -3.14614 -2.0018 0
M  V30 1590 N 147.81 0.181792 -1.56548 0
M  V30 1591 C 149.226 0.53316 -1.50431 0
M  V30 1592 C 149.426 1.85184 -0.794297 0
M  V30 1593 O 148.482 2.50058 -0.350318 0
M  V30 1594 C 149.795 0.575597 -2.9514 0
M  V30 1595 C 151.343 0.663519 -3.05886 0
M  V30 1596 C 151.818 0.736946 -4.52032 0
M  V30 1597 N 153.309 0.800118 -4.56237 0
M  V30 1598 C 154.044 0.877327 -5.66649 0
M  V30 1599 N 153.54 0.916016 -6.86718 0
M  V30 1600 N 155.333 0.915542 -5.54594 0
M  V30 1601 H 147.484 -0.683025 -2.01118 0
M  V30 1602 H 149.747 -0.244988 -0.915797 0
M  V30 1603 H 149.453 -0.324482 -3.502 0
M  V30 1604 H 149.327 1.42572 -3.49218 0
M  V30 1605 H 151.714 1.55403 -2.50867 0
M  V30 1606 H 151.795 -0.21307 -2.54911 0
M  V30 1607 H 151.439 -0.149262 -5.07681 0
M  V30 1608 H 151.369 1.62953 -5.00753 0
M  V30 1609 H 153.86 0.778926 -3.69785 0
M  V30 1610 H 154.173 0.975813 -7.66614 0
M  V30 1611 H 152.518 0.884469 -6.89349 0
M  V30 1612 H 155.709 0.882245 -4.59711 0
M  V30 1613 H 155.882 0.972253 -6.40665 0
M  V30 1614 N 149.288 1.51039 0.449983 0
M  V30 1615 C 150.534 1.63322 1.20223 0
M  V30 1616 C 150.867 0.34241 1.91158 0
M  V30 1617 O 150.142 -0.657344 1.83055 0
M  V30 1618 C 150.425 2.82801 2.22925 0
M  V30 1619 C 150.278 4.21823 1.56157 0
M  V30 1620 C 151.597 2.97807 3.24035 0
M  V30 1621 H 148.716 0.594407 0.435718 0
M  V30 1622 H 151.358 1.83489 0.493136 0
M  V30 1623 H 149.508 2.65738 2.834 0
M  V30 1624 H 151.18 4.50526 0.991162 0
M  V30 1625 H 149.423 4.25105 0.864172 0
M  V30 1626 H 150.094 5.01391 2.30891 0
M  V30 1627 H 152.57 3.13497 2.73603 0
M  V30 1628 H 151.446 3.82992 3.93202 0
M  V30 1629 H 151.707 2.09328 3.89402 0
M  V30 1630 N 150.766 -0.704594 1.40972 0
M  V30 1631 C 152.015 -1.46018 1.39146 0
M  V30 1632 C 152.328 -1.956 0.000589254 0
M  V30 1633 O 153.534 -2.71137 -0.1403 0
M  V30 1634 C 151.99 -2.63996 2.4461 0
M  V30 1635 C 151.598 -2.21238 3.89561 0
M  V30 1636 C 153.342 -3.41677 2.51907 0
M  V30 1637 C 151.249 -3.3612 4.86598 0
M  V30 1638 H 150.179 -0.548444 0.517422 0
M  V30 1639 H 152.83 -0.765784 1.66757 0
M  V30 1640 H 151.212 -3.3566 2.10115 0
M  V30 1641 H 152.386 -1.56923 4.33257 0
M  V30 1642 H 150.701 -1.56574 3.85841 0
M  V30 1643 H 153.298 -4.27182 3.2159 0
M  V30 1644 H 153.641 -3.86247 1.55303 0
M  V30 1645 H 154.174 -2.77064 2.85448 0
M  V30 1646 H 150.913 -2.96572 5.84573 0
M  V30 1647 H 150.433 -3.99315 4.47557 0
M  V30 1648 H 152.112 -4.02029 5.06934 0
M  V30 1649 N 152.244 -1.26651 -0.937939 0
M  V30 1650 C 153.521 -1.0313 -1.66204 0
M  V30 1651 C 153.901 0.437256 -2.06522 0
M  V30 1652 O 153.249 1.41831 -1.79154 0
M  V30 1653 C 153.459 -1.98314 -2.87181 0
M  V30 1654 C 154.807 -2.27107 -3.58758 0
M  V30 1655 O 155.831 -1.96205 -2.97291 0
M  V30 1656 O 154.69 -2.79736 -4.69479 0
M  V30 1657 H 151.784 -0.392384 -0.727986 0
M  V30 1658 H 154.33 -1.37874 -0.989382 0
M  V30 1659 H 153.102 -2.97399 -2.54302 0
M  V30 1660 H 152.725 -1.64068 -3.6217 0
M  V30 1661 N 153.722 1.14298 -1.08507 0
M  V30 1662 C 155.138 1.37347 -0.812901 0
M  V30 1663 C 155.338 1.93052 0.577325 0
M  V30 1664 O 154.394 2.14389 1.33393 0
M  V30 1665 C 155.707 2.33359 -1.89642 0
M  V30 1666 C 157.255 2.46996 -1.92255 0
M  V30 1667 C 157.73 3.46309 -2.99724 0
M  V30 1668 N 159.221 3.53853 -2.98902 0
M  V30 1669 C 159.956 4.3055 -3.787 0
M  V30 1670 N 159.452 5.10482 -4.6838 0
M  V30 1671 N 161.245 4.25757 -3.66998 0
M  V30 1672 H 153.396 0.764867 -1.9815 0
M  V30 1673 H 155.659 0.398966 -0.859959 0
M  V30 1674 H 155.365 1.99565 -2.89597 0
M  V30 1675 H 155.239 3.33274 -1.76659 0
M  V30 1676 H 157.626 2.80081 -0.929445 0
M  V30 1677 H 157.707 1.47039 -2.09316 0
M  V30 1678 H 157.351 3.13957 -3.99241 0
M  V30 1679 H 157.281 4.46049 -2.79907 0
M  V30 1680 H 159.772 2.96812 -2.33904 0
M  V30 1681 H 160.085 5.66284 -5.25873 0
M  V30 1682 H 158.43 5.09747 -4.72422 0
M  V30 1683 H 161.621 3.62383 -2.96304 0
M  V30 1684 H 161.794 4.85279 -4.29427 0
M  V30 1685 N 155.201 0.870884 1.31352 0
M  V30 1686 C 156.45 0.478408 1.95944 0
M  V30 1687 C 156.763 -0.974493 1.69597 0
M  V30 1688 O 157.969 -1.47316 2.28058 0
M  V30 1689 C 156.425 0.804609 3.50791 0
M  V30 1690 C 156.033 2.27433 3.85977 0
M  V30 1691 C 157.777 0.480648 4.2177 0
M  V30 1692 C 155.684 2.5429 5.33939 0
M  V30 1693 H 154.614 0.175175 0.733369 0
M  V30 1694 H 157.265 1.06391 1.4951 0
M  V30 1695 H 155.647 0.148347 3.95722 0
M  V30 1696 H 156.821 2.97373 3.52002 0
M  V30 1697 H 155.136 2.56442 3.28065 0
M  V30 1698 H 157.733 0.658519 5.30629 0
M  V30 1699 H 158.076 -0.578979 4.12254 0
M  V30 1700 H 158.609 1.09349 3.82476 0
M  V30 1701 H 155.348 3.58939 5.48491 0
M  V30 1702 H 154.868 1.88945 5.69263 0
M  V30 1703 H 156.547 2.39066 6.01212 0
M  V30 1704 N 156.679 -1.44442 0.630414 0
M  V30 1705 C 157.612 -2.27862 -0.124247 0
M  V30 1706 C 158.59 -1.38495 -0.851931 0
M  V30 1707 O 159.774 -1.67935 -0.856166 0
M  V30 1708 C 156.901 -3.17407 -1.18197 0
M  V30 1709 C 155.947 -4.22875 -0.554892 0
M  V30 1710 S 156.78 -5.31485 0.654489 0
M  V30 1711 C 157.936 -6.246 -0.40326 0
M  V30 1712 H 158.169 -2.91519 0.583435 0
M  V30 1713 H 155.702 -1.48618 0.418565 0
M  V30 1714 H 157.66 -3.69549 -1.78728 0
M  V30 1715 H 156.321 -2.52971 -1.86184 0
M  V30 1716 H 155.514 -4.85542 -1.35148 0
M  V30 1717 H 155.116 -3.73992 -0.0242105 0
M  V30 1718 H 157.408 -6.65375 -1.27602 0
M  V30 1719 H 158.351 -7.07851 0.187813 0
M  V30 1720 H 158.759 -5.59775 -0.728837 0
M  V30 1721 N 158.157 -0.370918 -1.53173 0
M  V30 1722 C 159.105 0.488101 -2.27421 0
M  V30 1723 C 160.099 1.07884 -1.30604 0
M  V30 1724 O 161.305 1.02143 -1.48212 0
M  V30 1725 H 157.68 0.176134 -0.731082 0
M  V30 1726 H 159.651 -0.159815 -2.97972 0
M  V30 1727 C 158.4 1.61306 -3.08019 0
M  V30 1728 H 157.723 1.1678 -3.82364 0
M  V30 1729 H 159.163 2.18872 -3.63141 0
M  V30 1730 C 157.622 2.55848 -2.19188 0
M  V30 1731 O 158.152 3.58799 -1.80626 0
M  V30 1732 N 156.358 2.2516 -1.83715 0
M  V30 1733 H 155.905 1.41476 -2.15273 0
M  V30 1734 H 155.863 2.8867 -1.24567 0
M  V30 1735 N 159.635 1.57281 -0.100228 0
M  V30 1736 C 160.583 2.15542 0.874328 0
M  V30 1737 C 161.577 1.09962 1.28859 0
M  V30 1738 O 162.783 1.28298 1.26252 0
M  V30 1739 H 159.158 0.689567 0.300003 0
M  V30 1740 H 161.129 2.96241 0.35829 0
M  V30 1741 C 159.878 2.75454 2.1218 0
M  V30 1742 H 159.201 3.56384 1.81193 0
M  V30 1743 H 160.641 3.19781 2.78417 0
M  V30 1744 C 159.1 1.71602 2.89921 0
M  V30 1745 O 159.63 1.15804 3.84646 0
M  V30 1746 N 157.836 1.41975 2.53558 0
M  V30 1747 H 157.383 1.87539 1.76598 0
M  V30 1748 H 157.341 0.727274 3.05873 0
M  V30 1749 N 161.113 -0.173488 1.56642 0
M  V30 1750 C 162.39 -0.917617 1.7274 0
M  V30 1751 C 162.77 -2.00484 0.661027 0
M  V30 1752 O 162.118 -2.26184 -0.32453 0
M  V30 1753 C 162.328 -1.48433 3.15862 0
M  V30 1754 C 163.676 -1.95809 3.76754 0
M  V30 1755 O 164.7 -1.58231 3.19126 0
M  V30 1756 O 163.559 -2.65024 4.77938 0
M  V30 1757 H 160.653 -0.431772 0.705338 0
M  V30 1758 H 163.199 -0.161487 1.6893 0
M  V30 1759 H 161.971 -0.701715 3.84957 0
M  V30 1760 H 161.594 -2.30471 3.23989 0
M  V30 1761 N 162.591 -1.51276 -0.441967 0
M  V30 1762 C 163.521 -1.752 -1.54361 0
M  V30 1763 C 164.502 -0.601682 -1.59103 0
M  V30 1764 O 165.687 -0.843913 -1.74905 0
M  V30 1765 C 162.817 -1.87282 -2.92477 0
M  V30 1766 C 161.771 -3.02687 -3.02596 0
M  V30 1767 C 161.097 -2.99947 -4.42647 0
M  V30 1768 C 162.397 -4.4273 -2.77106 0
M  V30 1769 H 164.091 -2.67442 -1.34592 0
M  V30 1770 H 161.637 -1.28694 -0.646048 0
M  V30 1771 H 163.59 -2.02602 -3.695 0
M  V30 1772 H 162.314 -0.916844 -3.13467 0
M  V30 1773 H 160.973 -2.87065 -2.28012 0
M  V30 1774 H 160.621 -2.02136 -4.60597 0
M  V30 1775 H 160.321 -3.77439 -4.50348 0
M  V30 1776 H 161.845 -3.17354 -5.2165 0
M  V30 1777 H 163.259 -4.58727 -3.43864 0
M  V30 1778 H 161.656 -5.21893 -2.96222 0
M  V30 1779 H 162.726 -4.53087 -1.72744 0
M  V30 1780 N 164.069 0.697108 -1.41344 0
M  V30 1781 C 165.016 1.81106 -1.43071 0
M  V30 1782 C 165.986 1.63632 -0.285275 0
M  V30 1783 O 167.171 1.84504 -0.486091 0
M  V30 1784 C 164.311 3.18975 -1.31715 0
M  V30 1785 C 163.424 3.47892 -2.56115 0
M  V30 1786 C 162.559 4.75367 -2.37064 0
M  V30 1787 C 161.598 4.97247 -3.56948 0
M  V30 1788 N 160.735 6.15947 -3.36977 0
M  V30 1789 H 165.575 1.78965 -2.38276 0
M  V30 1790 H 163.112 0.873975 -1.18322 0
M  V30 1791 H 165.07 3.98615 -1.23133 0
M  V30 1792 H 163.7 3.20297 -0.401183 0
M  V30 1793 H 162.752 2.62669 -2.75153 0
M  V30 1794 H 164.064 3.59962 -3.45295 0
M  V30 1795 H 163.218 5.63059 -2.25941 0
M  V30 1796 H 161.957 4.65541 -1.45338 0
M  V30 1797 H 160.962 4.08004 -3.68527 0
M  V30 1798 H 162.187 5.08934 -4.49626 0
M  V30 1799 H 160.133 6.07336 -2.47949 0
M  V30 1800 H 160.05 6.28777 -4.19732 0
M  V30 1801 H 161.318 7.06377 -3.29623 0
M  V30 1802 N 165.547 1.27147 0.931209 0
M  V30 1803 C 166.48 1.0389 2.0318 0
M  V30 1804 C 167.458 -0.0395716 1.62552 0
M  V30 1805 O 168.642 0.104867 1.88208 0
M  V30 1806 C 165.769 0.575227 3.3378 0
M  V30 1807 C 164.815 1.64774 3.93385 0
M  V30 1808 S 165.648 3.23933 4.26413 0
M  V30 1809 C 166.804 2.79358 5.60098 0
M  V30 1810 H 167.037 1.97075 2.22596 0
M  V30 1811 H 164.57 1.10938 1.07387 0
M  V30 1812 H 166.528 0.314385 4.09294 0
M  V30 1813 H 165.189 -0.336505 3.12292 0
M  V30 1814 H 164.382 1.27454 4.87618 0
M  V30 1815 H 163.984 1.86048 3.24441 0
M  V30 1816 H 166.276 2.24443 6.39243 0
M  V30 1817 H 167.219 3.72322 6.02314 0
M  V30 1818 H 167.627 2.1861 5.20452 0
M  V30 1819 N 167.025 -1.13721 1.09112 0
M  V30 1820 C 167.935 -2.22638 0.73957 0
M  V30 1821 C 168.951 -1.72091 -0.257068 0
M  V30 1822 O 170.127 -2.01155 -0.0992154 0
M  V30 1823 C 167.192 -3.46322 0.16191 0
M  V30 1824 C 166.253 -4.11775 1.21408 0
M  V30 1825 C 165.486 -5.29555 0.663891 0
M  V30 1826 O 165.709 -5.68077 -0.514274 0
M  V30 1827 O 164.643 -5.84973 1.41738 0
M  V30 1828 H 168.469 -2.55074 1.64836 0
M  V30 1829 H 166.054 -1.21791 0.865289 0
M  V30 1830 H 167.936 -4.21107 -0.157073 0
M  V30 1831 H 166.611 -3.15593 -0.719932 0
M  V30 1832 H 165.518 -3.3883 1.58571 0
M  V30 1833 H 166.851 -4.46627 2.06845 0
M  V30 1834 N 168.503 -0.877838 -1.30888 0
M  V30 1835 C 169.752 -0.488793 -1.95688 0
M  V30 1836 C 170.065 0.965485 -1.70111 0
M  V30 1837 O 171.271 1.46104 -2.28836 0
M  V30 1838 C 169.727 -0.823201 -3.50359 0
M  V30 1839 C 169.335 -2.29477 -3.84765 0
M  V30 1840 C 171.079 -0.503009 -4.21509 0
M  V30 1841 C 168.986 -2.57118 -5.32583 0
M  V30 1842 H 167.916 -0.179062 -0.732429 0
M  V30 1843 H 170.567 -1.07183 -1.48943 0
M  V30 1844 H 168.949 -0.169331 -3.95638 0
M  V30 1845 H 170.123 -2.99236 -3.5042 0
M  V30 1846 H 168.438 -2.58178 -3.267 0
M  V30 1847 H 171.035 -0.68665 -5.30273 0
M  V30 1848 H 171.378 0.557109 -4.12555 0
M  V30 1849 H 171.911 -1.11376 -3.8189 0
M  V30 1850 H 168.65 -3.61843 -5.4658 0
M  V30 1851 H 168.17 -1.91961 -5.68253 0
M  V30 1852 H 169.849 -2.42251 -5.99936 0
M  V30 1853 N 169.982 1.44106 -0.638065 0
M  V30 1854 C 170.932 2.27843 0.0847285 0
M  V30 1855 C 171.916 1.39055 0.809471 0
M  V30 1856 O 173.108 1.62808 0.694435 0
M  V30 1857 C 170.237 3.26497 1.06089 0
M  V30 1858 C 169.323 4.22772 0.33541 0
M  V30 1859 N 169.714 5.01737 -0.639787 0
M  V30 1860 C 168.012 4.42227 0.578921 0
M  V30 1861 C 168.713 5.71792 -1.06904 0
M  V30 1862 N 167.689 5.42079 -0.406395 0
M  V30 1863 H 171.491 2.86305 -0.663814 0
M  V30 1864 H 169.005 1.55627 -0.464122 0
M  V30 1865 H 171.002 3.8525 1.59337 0
M  V30 1866 H 169.662 2.69595 1.80966 0
M  V30 1867 H 170.673 5.07799 -1.01789 0
M  V30 1868 H 167.35 3.96415 1.31003 0
M  V30 1869 H 168.74 6.45205 -1.8751 0
M  V30 1870 N 171.46 0.379036 1.52974 0
M  V30 1871 C 172.37 -0.468639 2.29872 0
M  V30 1872 C 173.386 -1.08067 1.36373 0
M  V30 1873 O 174.562 -1.08871 1.69438 0
M  V30 1874 C 171.627 -1.58594 3.083 0
M  V30 1875 C 170.688 -1.00007 4.17489 0
M  V30 1876 C 169.921 -2.06413 4.92168 0
M  V30 1877 O 170.144 -3.27751 4.66835 0
M  V30 1878 O 169.078 -1.68717 5.7777 0
M  V30 1879 H 172.904 0.157508 3.03291 0
M  V30 1880 H 170.489 0.143035 1.48714 0
M  V30 1881 H 172.371 -2.23525 3.57232 0
M  V30 1882 H 171.046 -2.19724 2.37703 0
M  V30 1883 H 169.953 -0.314299 3.72777 0
M  V30 1884 H 171.286 -0.433135 4.90291 0
M  V30 1885 N 172.938 -1.57226 0.108567 0
M  V30 1886 C 174.185 -1.94833 -0.551943 0
M  V30 1887 C 174.513 -0.991204 -1.67348 0
M  V30 1888 O 173.768 -0.0131878 -1.95696 0
M  V30 1889 C 174.067 -3.38911 -1.13463 0
M  V30 1890 C 173.733 -4.50696 -0.135509 0
M  V30 1891 C 172.395 -4.80998 0.139252 0
M  V30 1892 C 174.747 -5.18333 0.545957 0
M  V30 1893 C 172.075 -5.76259 1.10194 0
M  V30 1894 C 174.427 -6.14627 1.49721 0
M  V30 1895 C 173.091 -6.43327 1.78006 0
M  V30 1896 H 172.361 -0.712944 -0.20197 0
M  V30 1897 H 175.008 -1.90582 0.18726 0
M  V30 1898 H 173.313 -3.39805 -1.95037 0
M  V30 1899 H 175.01 -3.65317 -1.65362 0
M  V30 1900 H 171.6 -4.27087 -0.359846 0
M  V30 1901 H 175.784 -4.95087 0.346842 0
M  V30 1902 H 171.04 -5.96804 1.32795 0
M  V30 1903 H 175.214 -6.66126 2.03099 0
M  V30 1904 H 172.841 -7.1695 2.52759 0
M  V30 1905 N 174.416 0.165178 -1.56732 0
M  V30 1906 C 175.641 0.900253 -1.86843 0
M  V30 1907 C 176.066 1.74766 -0.695596 0
M  V30 1908 O 175.424 1.77786 0.35522 0
M  V30 1909 C 175.472 1.74777 -3.15413 0
M  V30 1910 O 174.576 2.85007 -2.98068 0
M  V30 1911 H 173.917 0.251832 -0.614391 0
M  V30 1912 H 176.447 0.161468 -2.03962 0
M  V30 1913 H 176.457 2.14646 -3.46974 0
M  V30 1914 H 175.132 1.12537 -4.00385 0
M  V30 1915 H 173.709 2.48676 -2.77875 0
M  V30 1916 N 175.894 1.51508 0.433938 0
M  V30 1917 C 176.841 1.73068 1.52696 0
M  V30 1918 C 177.811 0.572441 1.55924 0
M  V30 1919 O 178.996 0.807253 1.72882 0
M  V30 1920 C 176.136 1.86474 2.90381 0
M  V30 1921 C 175.249 3.14037 2.96656 0
M  V30 1922 C 174.384 3.18019 4.25485 0
M  V30 1923 C 173.423 4.39882 4.2564 0
M  V30 1924 N 172.56 4.41394 5.45999 0
M  V30 1925 H 177.4 2.66366 1.33615 0
M  V30 1926 H 174.937 1.32008 0.649018 0
M  V30 1927 H 176.895 1.92229 3.70275 0
M  V30 1928 H 175.525 0.965809 3.08013 0
M  V30 1929 H 174.577 3.17575 2.09404 0
M  V30 1930 H 175.889 4.0394 2.92633 0
M  V30 1931 H 175.043 3.22708 5.13755 0
M  V30 1932 H 173.782 2.2601 4.3217 0
M  V30 1933 H 172.787 4.35366 3.35763 0
M  V30 1934 H 174.012 5.33159 4.20617 0
M  V30 1935 H 171.958 3.52258 5.53399 0
M  V30 1936 H 171.875 5.25111 5.4387 0
M  V30 1937 H 173.143 4.50281 6.36292 0
M  V30 1938 N 177.372 -0.689602 1.41712 0
M  V30 1939 C 178.304 -1.815 1.39966 0
M  V30 1940 C 179.317 -1.59995 0.300917 0
M  V30 1941 O 180.506 -1.69387 0.563039 0
M  V30 1942 C 177.606 -3.18364 1.16179 0
M  V30 1943 C 176.779 -3.66847 2.38206 0
M  V30 1944 C 175.838 -4.82398 2.10186 0
M  V30 1945 O 174.864 -4.93706 2.83272 0
M  V30 1946 N 176.066 -5.70064 1.0958 0
M  V30 1947 H 178.831 -1.83488 2.36965 0
M  V30 1948 H 176.392 -0.872149 1.36401 0
M  V30 1949 H 178.384 -3.93301 0.953756 0
M  V30 1950 H 176.954 -3.11365 0.27756 0
M  V30 1951 H 176.174 -2.82751 2.74673 0
M  V30 1952 H 177.462 -3.95978 3.19498 0
M  V30 1953 H 176.86 -5.63565 0.491019 0
M  V30 1954 H 175.417 -6.44874 0.947656 0
M  V30 1955 N 178.85 -1.27639 -0.924453 0
M  V30 1956 C 180.099 -1.13549 -1.66702 0
M  V30 1957 C 180.412 0.317487 -1.93006 0
M  V30 1958 O 181.618 0.579333 -2.65247 0
M  V30 1959 C 180.074 -1.98426 -3.00259 0
M  V30 1960 C 179.682 -3.484 -2.81641 0
M  V30 1961 C 181.426 -1.92993 -3.78092 0
M  V30 1962 C 179.333 -4.25464 -4.10773 0
M  V30 1963 H 178.263 -0.421351 -0.625283 0
M  V30 1964 H 180.914 -1.52085 -1.02676 0
M  V30 1965 H 179.296 -1.52736 -3.6536 0
M  V30 1966 H 180.47 -4.01973 -2.25287 0
M  V30 1967 H 178.785 -3.55245 -2.17232 0
M  V30 1968 H 181.382 -2.47844 -4.7379 0
M  V30 1969 H 181.725 -0.904281 -4.0636 0
M  V30 1970 H 182.258 -2.36595 -3.19793 0
M  V30 1971 H 178.997 -5.28566 -3.87683 0
M  V30 1972 H 178.517 -3.76667 -4.66779 0
M  V30 1973 H 180.196 -4.34812 -4.79111 0
M  V30 1974 N 180.328 1.1314 -1.09713 0
M  V30 1975 C 181.276 2.20717 -0.733934 0
M  V30 1976 C 182.27 1.6729 0.266506 0
M  V30 1977 O 183.476 1.79547 0.127656 0
M  V30 1978 H 179.851 0.719292 -0.21937 0
M  V30 1979 H 181.822 2.48611 -1.6503 0
M  V30 1980 C 180.571 3.47265 -0.173849 0
M  V30 1981 H 179.894 3.88716 -0.934873 0
M  V30 1982 H 181.334 4.23979 0.0423126 0
M  V30 1983 C 179.793 3.18724 1.09164 0
M  V30 1984 O 180.323 3.37762 2.17439 0
M  V30 1985 N 178.529 2.72583 1.00732 0
M  V30 1986 H 178.076 2.57291 0.126121 0
M  V30 1987 H 178.034 2.53862 1.85476 0
M  V30 1988 N 181.806 0.884767 1.30421 0
M  V30 1989 C 183.055 0.499164 1.95426 0
M  V30 1990 C 183.368 -0.95645 1.70621 0
M  V30 1991 O 184.574 -1.44889 2.29607 0
M  V30 1992 C 183.03 0.84177 3.49917 0
M  V30 1993 C 182.638 2.31514 3.83543 0
M  V30 1994 C 184.382 0.525355 4.21237 0
M  V30 1995 C 182.289 2.59939 5.31212 0
M  V30 1996 H 181.219 0.182944 0.73147 0
M  V30 1997 H 183.87 1.07971 1.48373 0
M  V30 1998 H 182.252 0.190311 3.95542 0
M  V30 1999 H 183.426 3.0109 3.48829 0
M  V30 2000 H 181.741 2.59907 3.25326 0
M  V30 2001 H 184.338 0.714762 5.29901 0
M  V30 2002 H 184.681 -0.535222 4.12845 0
M  V30 2003 H 185.214 1.134 3.81294 0
M  V30 2004 H 181.953 3.64736 5.44654 0
M  V30 2005 H 181.473 1.94972 5.67227 0
M  V30 2006 H 183.152 2.45429 5.98643 0
M  V30 2007 N 183.284 -1.43765 0.645699 0
M  V30 2008 C 184.509 -2.06767 0.161883 0
M  V30 2009 C 184.934 -1.48034 -1.16049 0
M  V30 2010 O 184.292 -0.587369 -1.71522 0
M  V30 2011 C 184.34 -3.60519 0.0762003 0
M  V30 2012 O 183.444 -4.00982 -0.963721 0
M  V30 2013 H 182.785 -0.657675 0.091429 0
M  V30 2014 H 185.315 -1.84397 0.886499 0
M  V30 2015 H 185.325 -4.07853 -0.109604 0
M  V30 2016 H 184 -4.02646 1.04157 0
M  V30 2017 H 182.577 -3.65253 -0.751312 0
M  V30 2018 N 184.763 -0.387143 -1.52771 0
M  V30 2019 C 185.71 0.449048 -2.26389 0
M  V30 2020 C 186.68 1.05961 -1.27912 0
M  V30 2021 O 187.865 1.08804 -1.56737 0
M  V30 2022 C 185.005 1.57155 -3.0724 0
M  V30 2023 C 184.118 0.984066 -4.20643 0
M  V30 2024 C 183.253 2.07745 -4.88892 0
M  V30 2025 C 182.292 1.46574 -5.94292 0
M  V30 2026 N 181.429 2.49834 -6.56146 0
M  V30 2027 H 186.269 -0.185205 -2.97424 0
M  V30 2028 H 183.806 -0.103164 -1.46738 0
M  V30 2029 H 185.764 2.23309 -3.52405 0
M  V30 2030 H 184.394 2.17615 -2.38419 0
M  V30 2031 H 183.446 0.212193 -3.79808 0
M  V30 2032 H 184.758 0.497029 -4.96318 0
M  V30 2033 H 183.912 2.81673 -5.3735 0
M  V30 2034 H 182.651 2.59807 -4.12737 0
M  V30 2035 H 181.656 0.711696 -5.45174 0
M  V30 2036 H 182.881 0.953088 -6.72379 0
M  V30 2037 H 180.827 3.0107 -5.82832 0
M  V30 2038 H 180.744 2.05879 -7.27427 0
M  V30 2039 H 182.012 3.23399 -7.09249 0
M  V30 2040 N 186.241 1.57166 -0.116904 0
M  V30 2041 C 187.471 1.99184 0.548586 0
M  V30 2042 C 187.879 0.995436 1.60897 0
M  V30 2043 O 187.222 -0.0201293 1.83689 0
M  V30 2044 C 187.284 3.37611 1.23526 0
M  V30 2045 C 186.948 4.55857 0.323077 0
M  V30 2046 C 187.945 5.18056 -0.437476 0
M  V30 2047 C 185.63 5.01751 0.234761 0
M  V30 2048 C 187.624 6.24536 -1.2741 0
M  V30 2049 C 185.311 6.08093 -0.605496 0
M  V30 2050 C 186.309 6.69352 -1.35856 0
M  V30 2051 O 185.997 7.7364 -2.18487 0
M  V30 2052 H 185.729 0.659148 0.149999 0
M  V30 2053 H 188.283 2.0443 -0.199428 0
M  V30 2054 H 186.513 3.29113 2.0303 0
M  V30 2055 H 188.202 3.63932 1.79745 0
M  V30 2056 H 188.968 4.83516 -0.379105 0
M  V30 2057 H 184.847 4.53817 0.810601 0
M  V30 2058 H 188.391 6.72281 -1.86237 0
M  V30 2059 H 184.288 6.42063 -0.665268 0
M  V30 2060 H 185.056 7.90727 -2.11406 0
M  V30 2061 N 187.719 -0.156864 1.56817 0
M  V30 2062 C 188.682 -1.17781 1.96622 0
M  V30 2063 C 189.682 -1.36401 0.851555 0
M  V30 2064 O 190.872 -1.33561 1.11836 0
M  V30 2065 C 188.004 -2.54008 2.27361 0
M  V30 2066 H 189.197 -0.836564 2.87996 0
M  V30 2067 H 186.75 -0.39985 1.51099 0
M  V30 2068 H 187.485 -2.9312 1.38748 0
M  V30 2069 H 187.27 -2.41856 3.08623 0
M  V30 2070 H 188.76 -3.27558 2.59029 0
M  V30 2071 N 189.197 -1.51736 -0.425897 0
M  V30 2072 C 190.446 -1.64201 -1.17136 0
M  V30 2073 C 190.759 -0.369705 -1.92074 0
M  V30 2074 O 191.965 -0.373898 -2.68913 0
M  V30 2075 C 190.421 -2.90035 -2.13091 0
M  V30 2076 C 190.029 -4.24312 -1.43747 0
M  V30 2077 C 191.773 -3.1186 -2.87999 0
M  V30 2078 C 189.68 -5.41285 -2.38253 0
M  V30 2079 H 188.61 -0.611624 -0.440944 0
M  V30 2080 H 191.261 -1.78212 -0.437328 0
M  V30 2081 H 189.643 -2.69684 -2.89977 0
M  V30 2082 H 190.817 -4.55086 -0.723408 0
M  V30 2083 H 189.132 -4.08456 -0.809465 0
M  V30 2084 H 191.729 -3.96427 -3.58817 0
M  V30 2085 H 192.072 -2.25403 -3.49999 0
M  V30 2086 H 192.605 -3.32605 -2.18217 0
M  V30 2087 H 189.344 -6.30037 -1.80925 0
M  V30 2088 H 188.864 -5.14872 -3.0768 0
M  V30 2089 H 190.543 -5.73694 -2.99139 0
M  V30 2090 N 190.675 0.682077 -1.42076 0
M  V30 2091 C 191.921 1.44283 -1.43366 0
M  V30 2092 C 192.276 1.92344 -0.0465775 0
M  V30 2093 O 191.569 1.67517 0.929973 0
M  V30 2094 C 191.763 2.66036 -2.38662 0
M  V30 2095 C 191.592 2.29889 -3.86499 0
M  V30 2096 C 190.362 2.19599 -4.55087 0
M  V30 2097 C 192.56 1.91999 -4.77117 0
M  V30 2098 N 190.542 1.76478 -5.87987 0
M  V30 2099 C 191.913 1.59741 -5.99068 0
M  V30 2100 C 193.968 1.78927 -4.64639 0
M  V30 2101 C 192.671 1.15723 -7.0993 0
M  V30 2102 C 194.697 1.36314 -5.75476 0
M  V30 2103 C 194.059 1.04975 -6.96534 0
M  V30 2104 H 190.158 0.524739 -0.579805 0
M  V30 2105 H 192.742 0.787834 -1.78048 0
M  V30 2106 H 190.913 3.29237 -2.06053 0
M  V30 2107 H 192.645 3.32588 -2.30581 0
M  V30 2108 H 189.4 2.38433 -4.09202 0
M  V30 2109 H 189.824 1.57362 -6.58458 0
M  V30 2110 H 194.466 2.01805 -3.7153 0
M  V30 2111 H 192.184 0.91591 -8.02893 0
M  V30 2112 H 195.77 1.26731 -5.6783 0
M  V30 2113 H 194.65 0.725017 -7.80841 0
M  V30 2114 N 192.153 1.28127 0.917671 0
M  V30 2115 C 193.4 1.15052 1.66641 0
M  V30 2116 C 193.728 -0.301677 1.92146 0
M  V30 2117 O 192.983 -1.23622 1.51711 0
M  V30 2118 C 193.282 1.89018 3.03327 0
M  V30 2119 C 192.948 3.38832 2.97496 0
M  V30 2120 C 191.61 3.79693 2.95613 0
M  V30 2121 C 193.962 4.34378 2.88036 0
M  V30 2122 C 191.29 5.14447 2.82066 0
M  V30 2123 C 193.642 5.69201 2.7603 0
M  V30 2124 C 192.306 6.09343 2.72502 0
M  V30 2125 H 191.576 0.421006 0.609783 0
M  V30 2126 H 194.223 1.58855 1.06945 0
M  V30 2127 H 192.528 1.37752 3.66785 0
M  V30 2128 H 194.225 1.76321 3.60156 0
M  V30 2129 H 190.815 3.06342 2.99754 0
M  V30 2130 H 194.999 4.03775 2.88581 0
M  V30 2131 H 190.255 5.44681 2.77728 0
M  V30 2132 H 194.429 6.42901 2.67678 0
M  V30 2133 H 192.056 7.13712 2.61762 0
M  V30 2134 N 193.631 -1.12557 1.10312 0
M  V30 2135 C 194.871 -1.8568 0.854543 0
M  V30 2136 C 195.235 -1.82091 -0.608843 0
M  V30 2137 O 196.436 -2.50544 -0.973717 0
M  V30 2138 C 194.707 -3.2942 1.38626 0
M  V30 2139 S 196.266 -4.19931 1.27293 0
M  V30 2140 H 193.084 -0.640427 0.308827 0
M  V30 2141 H 195.686 -1.35599 1.40831 0
M  V30 2142 H 194.39 -3.2959 2.44537 0
M  V30 2143 H 193.921 -3.84566 0.82902 0
M  V30 2144 H 195.936 -4.95668 0.229776 0
M  V30 2145 N 195.109 -0.891671 -1.2995 0
M  V30 2146 C 196.039 -0.379797 -2.30391 0
M  V30 2147 C 197.02 0.540919 -1.6127 0
M  V30 2148 O 198.205 0.453352 -1.88834 0
M  V30 2149 C 195.335 0.400654 -3.44981 0
M  V30 2150 C 194.289 -0.428905 -4.25846 0
M  V30 2151 C 193.615 0.478557 -5.32554 0
M  V30 2152 C 194.915 -1.67458 -4.94727 0
M  V30 2153 H 196.609 -1.21914 -2.73454 0
M  V30 2154 H 194.155 -0.587675 -1.31462 0
M  V30 2155 H 196.108 0.769434 -4.14316 0
M  V30 2156 H 194.832 1.27371 -3.0074 0
M  V30 2157 H 193.491 -0.779911 -3.58208 0
M  V30 2158 H 193.139 1.34951 -4.84559 0
M  V30 2159 H 192.839 -0.0727433 -5.87555 0
M  V30 2160 H 194.363 0.843705 -6.04743 0
M  V30 2161 H 195.777 -1.376 -5.56542 0
M  V30 2162 H 194.174 -2.16659 -5.59624 0
M  V30 2163 H 195.244 -2.41518 -4.20473 0
M  V30 2164 N 196.587 1.43421 -0.653314 0
M  V30 2165 C 197.497 2.34568 0.0388565 0
M  V30 2166 C 198.513 1.53888 0.81207 0
M  V30 2167 O 199.689 1.86539 0.759294 0
M  V30 2168 C 196.754 3.32167 0.993269 0
M  V30 2169 C 195.815 4.28751 0.216977 0
M  V30 2170 C 195.048 5.21688 1.12593 0
M  V30 2171 O 195.271 5.19052 2.36519 0
M  V30 2172 O 194.205 5.98919 0.598284 0
M  V30 2173 H 198.031 2.95251 -0.711386 0
M  V30 2174 H 195.616 1.43564 -0.413502 0
M  V30 2175 H 197.498 3.92183 1.54176 0
M  V30 2176 H 196.173 2.73987 1.72374 0
M  V30 2177 H 195.08 3.72215 -0.375101 0
M  V30 2178 H 196.413 4.89913 -0.473924 0
M  V30 2179 N 198.065 0.39524 1.52563 0
M  V30 2180 C 199.012 -0.437036 2.26624 0
M  V30 2181 C 199.982 -1.05281 1.28472 0
M  V30 2182 O 201.167 -1.07971 1.57311 0
M  V30 2183 C 198.307 -1.55524 3.08069 0
M  V30 2184 C 197.42 -0.961745 4.21158 0
M  V30 2185 C 196.555 -2.05149 4.89987 0
M  V30 2186 C 195.594 -1.4342 5.95061 0
M  V30 2187 N 194.731 -2.46351 6.57462 0
M  V30 2188 H 199.571 0.200976 2.97322 0
M  V30 2189 H 197.108 0.110944 1.46681 0
M  V30 2190 H 199.066 -2.21437 3.53584 0
M  V30 2191 H 197.696 -2.16348 2.3957 0
M  V30 2192 H 196.748 -0.192048 3.79915 0
M  V30 2193 H 198.06 -0.470701 4.96574 0
M  V30 2194 H 197.214 -2.78819 5.38837 0
M  V30 2195 H 195.953 -2.57615 4.14109 0
M  V30 2196 H 194.958 -0.682774 5.45544 0
M  V30 2197 H 196.183 -0.917416 6.72875 0
M  V30 2198 H 194.129 -2.97975 5.8442 0
M  V30 2199 H 194.046 -2.02019 7.28508 0
M  V30 2200 H 195.314 -3.19633 7.10954 0
M  V30 2201 N 199.544 -1.57102 0.125237 0
M  V30 2202 C 200.772 -1.99761 -0.538797 0
M  V30 2203 C 201.187 -1.00503 -1.59827 0
M  V30 2204 O 200.544 0.00119474 -1.825 0
M  V30 2205 C 200.595 -3.42408 -1.15927 0
M  V30 2206 O 200.316 -4.37869 -0.142143 0
M  V30 2207 C 201.817 -4.00232 -1.90602 0
M  V30 2208 H 199.037 -0.655772 -0.14214 0
M  V30 2209 H 201.581 -2.03383 0.213413 0
M  V30 2210 H 199.736 -3.39706 -1.86223 0
M  V30 2211 H 200.15 -5.21128 -0.593775 0
M  V30 2212 H 201.624 -5.02105 -2.29335 0
M  V30 2213 H 202.101 -3.39721 -2.78363 0
M  V30 2214 H 202.707 -4.06499 -1.25055 0
M  V30 2215 N 201.022 0.148545 -1.56898 0
M  V30 2216 C 202.252 0.875118 -1.8715 0
M  V30 2217 C 202.66 1.75322 -0.711262 0
M  V30 2218 O 202.003 1.80745 0.328151 0
M  V30 2219 C 202.065 1.7844 -3.12089 0
M  V30 2220 C 201.729 1.08361 -4.43967 0
M  V30 2221 C 202.726 0.438247 -5.1805 0
M  V30 2222 C 200.411 1.07358 -4.90693 0
M  V30 2223 C 202.405 -0.20779 -6.37061 0
M  V30 2224 C 200.092 0.42373 -6.09629 0
M  V30 2225 C 201.09 -0.215829 -6.82659 0
M  V30 2226 O 200.778 -0.855378 -7.99336 0
M  V30 2227 H 200.51 0.258504 -0.624621 0
M  V30 2228 H 203.064 0.14652 -2.04877 0
M  V30 2229 H 201.294 2.55389 -2.90367 0
M  V30 2230 H 202.983 2.38279 -3.286 0
M  V30 2231 H 203.749 0.437817 -4.8302 0
M  V30 2232 H 199.628 1.5608 -4.33774 0
M  V30 2233 H 203.172 -0.70758 -6.94002 0
M  V30 2234 H 199.069 0.421822 -6.4412 0
M  V30 2235 H 199.837 -0.756892 -8.14993 0
M  V30 2236 N 202.5 1.5196 0.417844 0
M  V30 2237 C 203.74 1.67262 1.17486 0
M  V30 2238 C 204.104 0.38983 1.88001 0
M  V30 2239 O 205.305 0.418845 2.65517 0
M  V30 2240 C 203.576 2.85526 2.14965 0
M  V30 2241 S 205.135 3.21263 2.98891 0
M  V30 2242 H 201.953 0.589077 0.398132 0
M  V30 2243 H 204.555 1.89927 0.463452 0
M  V30 2244 H 203.259 3.77145 1.61833 0
M  V30 2245 H 202.79 2.65107 2.90657 0
M  V30 2246 H 204.805 2.69208 4.16823 0
M  V30 2247 N 203.978 -0.674533 1.42435 0
M  V30 2248 C 205.225 -1.43459 1.42919 0
M  V30 2249 C 205.553 -1.94446 0.0457312 0
M  V30 2250 O 204.808 -1.7132 -0.94593 0
M  V30 2251 C 205.107 -2.64767 2.40069 0
M  V30 2252 C 204.773 -2.3232 3.86443 0
M  V30 2253 C 203.435 -2.23182 4.26314 0
M  V30 2254 C 205.787 -2.05977 4.78773 0
M  V30 2255 C 203.115 -1.85827 5.56494 0
M  V30 2256 C 205.467 -1.70125 6.09295 0
M  V30 2257 C 204.131 -1.59498 6.48164 0
M  V30 2258 H 203.401 -0.524952 0.522978 0
M  V30 2259 H 206.048 -0.769097 1.75377 0
M  V30 2260 H 204.353 -3.36349 2.00939 0
M  V30 2261 H 206.05 -3.22949 2.37707 0
M  V30 2262 H 202.64 -2.40334 3.54877 0
M  V30 2263 H 206.824 -2.11969 4.48757 0
M  V30 2264 H 202.08 -1.76168 5.8547 0
M  V30 2265 H 206.254 -1.48767 6.80324 0
M  V30 2266 H 203.881 -1.30322 7.48946 0
M  V30 2267 N 205.456 -1.28612 -0.910864 0
M  V30 2268 C 206.366 -1.14643 -2.0468 0
M  V30 2269 C 207.382 -0.0723121 -1.7385 0
M  V30 2270 O 208.558 -0.282178 -1.99413 0
M  V30 2271 C 205.623 -0.812561 -3.37044 0
M  V30 2272 C 204.684 -1.96935 -3.81465 0
M  V30 2273 C 203.917 -1.65131 -5.07511 0
M  V30 2274 O 204.14 -0.567013 -5.67575 0
M  V30 2275 O 203.074 -2.49585 -5.47714 0
M  V30 2276 H 206.9 -2.1001 -2.19384 0
M  V30 2277 H 204.485 -1.07958 -1.03274 0
M  V30 2278 H 206.367 -0.640441 -4.16505 0
M  V30 2279 H 205.042 0.111426 -3.23508 0
M  V30 2280 H 203.949 -2.19664 -3.02818 0
M  V30 2281 H 205.282 -2.87414 -3.99567 0
M  V30 2282 N 206.934 1.1197 -1.10907 0
M  V30 2283 C 208.183 1.82947 -0.849302 0
M  V30 2284 C 208.496 1.85275 0.627112 0
M  V30 2285 O 209.702 2.52296 1.00295 0
M  V30 2286 C 208.158 3.28529 -1.46959 0
M  V30 2287 C 207.766 3.34546 -2.97965 0
M  V30 2288 C 209.51 4.04443 -1.28942 0
M  V30 2289 C 207.417 4.74491 -3.53004 0
M  V30 2290 H 206.347 0.685477 -0.314065 0
M  V30 2291 H 208.998 1.2604 -1.33365 0
M  V30 2292 H 207.38 3.85333 -0.912917 0
M  V30 2293 H 208.554 2.87654 -3.59989 0
M  V30 2294 H 206.869 2.72108 -3.15192 0
M  V30 2295 H 209.466 5.07787 -1.67502 0
M  V30 2296 H 209.809 4.15656 -0.231456 0
M  V30 2297 H 210.342 3.5401 -1.81443 0
M  V30 2298 H 207.081 4.68474 -4.58489 0
M  V30 2299 H 206.601 5.21816 -2.9575 0
M  V30 2300 H 208.28 5.4344 -3.51115 0
M  V30 2301 N 208.412 0.89855 1.29475 0
M  V30 2302 C 209.36 0.365253 2.29714 0
M  V30 2303 C 210.354 -0.534993 1.6073 0
M  V30 2304 O 211.56 -0.417921 1.75081 0
M  V30 2305 H 207.935 0.0994853 0.74539 0
M  V30 2306 H 209.906 1.22406 2.72138 0
M  V30 2307 C 208.655 -0.393159 3.4547 0
M  V30 2308 H 207.978 0.290332 3.98744 0
M  V30 2309 H 209.418 -0.731189 4.17648 0
M  V30 2310 C 207.877 -1.59539 2.9673 0
M  V30 2311 O 208.407 -2.69469 2.97908 0
M  V30 2312 N 206.613 -1.43716 2.52575 0
M  V30 2313 H 206.16 -0.542828 2.51816 0
M  V30 2314 H 206.118 -2.24288 2.20323 0
M  V30 2315 N 209.89 -1.43072 0.660911 0
M  V30 2316 C 211.167 -1.95307 0.107017 0
M  V30 2317 C 211.547 -1.60192 -1.37484 0
M  V30 2318 O 210.895 -0.890949 -2.10415 0
M  V30 2319 C 211.105 -3.47124 0.361402 0
M  V30 2320 C 212.453 -4.23738 0.270455 0
M  V30 2321 O 213.477 -3.54981 0.294382 0
M  V30 2322 O 212.336 -5.46131 0.200737 0
M  V30 2323 H 209.43 -0.826984 -0.00517729 0
M  V30 2324 H 211.976 -1.52972 0.734681 0
M  V30 2325 H 210.748 -3.65837 1.38848 0
M  V30 2326 H 210.371 -3.96475 -0.298953 0
M  V30 2327 N 211.368 -0.403325 -1.52352 0
M  V30 2328 C 212.608 0.173946 -2.03659 0
M  V30 2329 C 212.972 1.42869 -1.28267 0
M  V30 2330 O 214.173 2.08403 -1.69769 0
M  V30 2331 C 212.444 0.421478 -3.54906 0
M  V30 2332 S 214.003 0.967027 -4.28012 0
M  V30 2333 H 210.821 0.0477461 -0.709395 0
M  V30 2334 H 213.423 -0.554906 -1.87459 0
M  V30 2335 H 212.127 -0.498616 -4.0736 0
M  V30 2336 H 211.658 1.17837 -3.75337 0
M  V30 2337 H 213.673 2.24812 -4.4235 0
M  V30 2338 N 212.846 1.57033 -0.133567 0
M  V30 2339 C 214.095 1.94861 0.520768 0
M  V30 2340 C 214.408 1.02012 1.66892 0
M  V30 2341 O 215.614 1.29365 2.38699 0
M  V30 2342 C 214.07 3.46362 0.977809 0
M  V30 2343 C 213.678 4.47773 -0.142674 0
M  V30 2344 C 215.422 3.93083 1.60269 0
M  V30 2345 C 213.329 5.90468 0.331883 0
M  V30 2346 H 212.259 0.727453 0.198315 0
M  V30 2347 H 214.91 1.82227 -0.215759 0
M  V30 2348 H 213.292 3.54282 1.7692 0
M  V30 2349 H 214.466 4.51536 -0.919317 0
M  V30 2350 H 212.781 4.10891 -0.675124 0
M  V30 2351 H 215.378 4.97121 1.96914 0
M  V30 2352 H 215.721 3.33876 2.48662 0
M  V30 2353 H 216.254 3.88025 0.876453 0
M  V30 2354 H 212.993 6.53463 -0.516341 0
M  V30 2355 H 212.513 5.90094 1.07469 0
M  V30 2356 H 214.192 6.42179 0.788332 0
M  V30 2357 N 214.325 -0.140222 1.56975 0
M  V30 2358 C 215.741 -0.493088 1.51792 0
M  V30 2359 C 215.941 -1.83013 0.843116 0
M  V30 2360 O 214.997 -2.49041 0.416493 0
M  V30 2361 C 216.31 -0.497144 2.96562 0
M  V30 2362 C 217.858 -0.582186 3.07538 0
M  V30 2363 C 218.333 -0.616838 4.53827 0
M  V30 2364 N 219.824 -0.678873 4.58198 0
M  V30 2365 C 220.559 -0.726782 5.68775 0
M  V30 2366 N 220.055 -0.733623 6.88905 0
M  V30 2367 N 221.848 -0.768179 5.56826 0
M  V30 2368 H 213.999 0.736108 1.99237 0
M  V30 2369 H 216.262 0.269182 0.90898 0
M  V30 2370 H 215.968 0.417217 3.49217 0
M  V30 2371 H 215.842 -1.33263 3.52875 0
M  V30 2372 H 218.229 -1.48697 2.54899 0
M  V30 2373 H 218.31 0.280581 2.54257 0
M  V30 2374 H 217.954 0.283812 5.07106 0
M  V30 2375 H 217.884 -1.49619 5.04898 0
M  V30 2376 H 220.375 -0.68061 3.7172 0
M  V30 2377 H 220.688 -0.772215 7.68932 0
M  V30 2378 H 219.033 -0.701389 6.91452 0
M  V30 2379 H 222.224 -0.760051 4.61888 0
M  V30 2380 H 222.397 -0.80205 6.43017 0
M  V30 2381 N 215.803 -1.52179 -0.40978 0
M  V30 2382 C 216.713 -1.78364 -1.52392 0
M  V30 2383 C 217.729 -0.669183 -1.60617 0
M  V30 2384 O 218.905 -0.954518 -1.77344 0
M  V30 2385 C 215.97 -1.92822 -2.88133 0
M  V30 2386 C 215.031 -3.16725 -2.898 0
M  V30 2387 C 214.264 -3.30483 -4.19067 0
M  V30 2388 O 214.487 -2.49522 -5.12928 0
M  V30 2389 O 213.421 -4.2363 -4.27576 0
M  V30 2390 H 217.247 -2.72931 -1.33201 0
M  V30 2391 H 214.832 -1.37016 -0.59557 0
M  V30 2392 H 216.714 -2.04157 -3.68643 0
M  V30 2393 H 215.389 -1.01444 -3.07393 0
M  V30 2394 H 214.296 -3.10848 -2.08146 0
M  V30 2395 H 215.629 -4.07881 -2.75489 0
M  V30 2396 N 217.281 0.66697 -1.42791 0
M  V30 2397 C 218.511 1.45294 -1.46878 0
M  V30 2398 C 218.919 1.89027 -0.0809861 0
M  V30 2399 O 218.262 1.59219 0.916246 0
M  V30 2400 C 218.324 2.72908 -2.34012 0
M  V30 2401 C 217.988 2.51203 -3.81767 0
M  V30 2402 C 218.985 2.15302 -4.73224 0
M  V30 2403 C 216.67 2.65954 -4.26115 0
M  V30 2404 C 218.664 1.94431 -6.07022 0
M  V30 2405 C 216.351 2.44699 -5.59969 0
M  V30 2406 C 217.349 2.08992 -6.5024 0
M  V30 2407 O 217.037 1.87948 -7.81621 0
M  V30 2408 H 216.769 0.453306 -0.501487 0
M  V30 2409 H 219.323 0.826232 -1.88049 0
M  V30 2410 H 217.553 3.38089 -1.87703 0
M  V30 2411 H 219.242 3.34816 -2.29462 0
M  V30 2412 H 220.008 2.03495 -4.40244 0
M  V30 2413 H 215.887 2.92724 -3.56137 0
M  V30 2414 H 219.431 1.66484 -6.77443 0
M  V30 2415 H 215.328 2.56105 -5.9252 0
M  V30 2416 H 216.096 2.02483 -7.93059 0
M  V30 2417 N 218.759 1.29093 0.90403 0
M  V30 2418 C 219.692 1.08176 2.00931 0
M  V30 2419 C 220.67 -0.005083 1.62599 0
M  V30 2420 O 221.854 0.144765 1.87943 0
M  V30 2421 C 218.981 0.645897 3.32484 0
M  V30 2422 C 218.027 1.73081 3.89801 0
M  V30 2423 S 218.86 3.32905 4.19446 0
M  V30 2424 C 220.016 2.91176 5.54046 0
M  V30 2425 H 220.249 2.01752 2.18365 0
M  V30 2426 H 217.782 1.13191 1.0501 0
M  V30 2427 H 219.74 0.401131 4.08535 0
M  V30 2428 H 218.401 -0.270188 3.12936 0
M  V30 2429 H 217.594 1.37768 4.84805 0
M  V30 2430 H 217.196 1.92888 3.20422 0
M  V30 2431 H 219.488 2.37952 6.34338 0
M  V30 2432 H 220.431 3.85014 5.94281 0
M  V30 2433 H 220.839 2.296 5.15698 0
M  V30 2434 N 220.237 -1.11381 1.11499 0
M  V30 2435 C 221.147 -2.21019 0.786628 0
M  V30 2436 C 222.163 -1.72597 -0.220507 0
M  V30 2437 O 223.339 -2.01321 -0.0565251 0
M  V30 2438 C 220.404 -3.459 0.235333 0
M  V30 2439 C 219.465 -4.09107 1.30115 0
M  V30 2440 C 218.698 -5.28027 0.776068 0
M  V30 2441 O 218.921 -5.6904 -0.393661 0
M  V30 2442 O 217.855 -5.81835 1.54114 0
M  V30 2443 H 221.681 -2.51521 1.70209 0
M  V30 2444 H 219.266 -1.19928 0.890928 0
M  V30 2445 H 221.148 -4.21346 -0.067715 0
M  V30 2446 H 219.823 -3.17049 -0.652828 0
M  V30 2447 H 218.73 -3.35391 1.65722 0
M  V30 2448 H 220.063 -4.42139 2.16273 0
M  V30 2449 N 221.715 -0.905404 -1.28997 0
M  V30 2450 C 222.961 -0.535039 -1.95615 0
M  V30 2451 C 223.294 0.917404 -1.71165 0
M  V30 2452 O 222.569 1.65123 -1.02785 0
M  V30 2453 C 222.852 -0.834918 -3.50287 0
M  V30 2454 C 222.705 -2.33948 -3.84172 0
M  V30 2455 C 224.024 -0.325318 -4.38896 0
M  V30 2456 H 221.143 -0.195861 -0.710498 0
M  V30 2457 H 223.785 -1.13313 -1.52513 0
M  V30 2458 H 221.935 -0.325904 -3.87131 0
M  V30 2459 H 223.607 -2.91847 -3.57243 0
M  V30 2460 H 221.85 -2.79789 -3.31513 0
M  V30 2461 H 222.521 -2.49987 -4.92149 0
M  V30 2462 H 224.997 -0.761256 -4.09077 0
M  V30 2463 H 223.873 -0.564295 -5.45992 0
M  V30 2464 H 224.134 0.774144 -4.35269 0
M  V30 2465 N 223.193 1.4272 -0.668489 0
M  V30 2466 C 224.103 2.34596 0.0139753 0
M  V30 2467 C 225.119 1.5474 0.795703 0
M  V30 2468 O 226.295 1.87334 0.739466 0
M  V30 2469 C 223.36 3.33202 0.957982 0
M  V30 2470 C 222.421 4.28957 0.17149 0
M  V30 2471 C 221.654 5.22853 1.07053 0
M  V30 2472 O 221.877 5.21531 2.31001 0
M  V30 2473 O 220.811 5.9952 0.534727 0
M  V30 2474 H 224.637 2.9448 -0.742661 0
M  V30 2475 H 222.222 1.43117 -0.428705 0
M  V30 2476 H 224.104 3.93796 1.50008 0
M  V30 2477 H 222.779 2.758 1.69458 0
M  V30 2478 H 221.686 3.71796 -0.414558 0
M  V30 2479 H 223.019 4.89383 -0.52586 0
M  V30 2480 N 224.671 0.411399 1.52136 0
M  V30 2481 C 225.634 -0.401089 2.25663 0
M  V30 2482 C 226.634 -0.971732 1.28117 0
M  V30 2483 O 227.824 -0.850254 1.52041 0
M  V30 2484 C 224.956 -1.56483 3.02863 0
M  V30 2485 H 226.149 0.24295 2.98914 0
M  V30 2486 H 223.702 0.163968 1.55438 0
M  V30 2487 H 224.437 -2.24567 2.33967 0
M  V30 2488 H 224.222 -1.16211 3.74483 0
M  V30 2489 H 225.712 -2.13951 3.58629 0
M  V30 2490 N 226.149 -1.5696 0.141893 0
M  V30 2491 C 227.079 -2.19516 -0.795936 0
M  V30 2492 C 228.06 -1.14187 -1.26077 0
M  V30 2493 O 229.245 -1.42511 -1.31925 0
M  V30 2494 C 226.375 -2.81272 -2.03723 0
M  V30 2495 C 225.329 -3.92384 -1.70936 0
M  V30 2496 C 224.655 -4.41052 -3.02287 0
M  V30 2497 C 225.955 -5.13403 -0.959954 0
M  V30 2498 H 227.649 -2.98138 -0.274596 0
M  V30 2499 H 225.195 -1.43406 -0.130636 0
M  V30 2500 H 227.148 -3.237 -2.69808 0
M  V30 2501 H 225.872 -1.99973 -2.58221 0
M  V30 2502 H 224.531 -3.50566 -1.07232 0
M  V30 2503 H 224.179 -3.56582 -3.54765 0
M  V30 2504 H 223.879 -5.15993 -2.81114 0
M  V30 2505 H 225.403 -4.86146 -3.69451 0
M  V30 2506 H 226.817 -5.52706 -1.52279 0
M  V30 2507 H 225.214 -5.94073 -0.848357 0
M  V30 2508 H 226.284 -4.84875 0.0492434 0
M  V30 2509 N 227.627 0.131896 -1.57047 0
M  V30 2510 C 228.575 1.18146 -2.0036 0
M  V30 2511 C 229.569 1.43614 -0.898406 0
M  V30 2512 O 230.775 1.43729 -1.08361 0
M  V30 2513 H 227.15 0.398042 -0.638018 0
M  V30 2514 H 229.121 0.789564 -2.87765 0
M  V30 2515 C 227.87 2.50341 -2.41298 0
M  V30 2516 H 227.193 2.31578 -3.25902 0
M  V30 2517 H 228.633 3.22371 -2.75414 0
M  V30 2518 C 227.092 3.11984 -1.27153 0
M  V30 2519 O 227.622 3.97484 -0.580459 0
M  V30 2520 N 225.828 2.71662 -1.03189 0
M  V30 2521 H 225.375 2.02231 -1.59564 0
M  V30 2522 H 225.333 3.13238 -0.270077 0
M  V30 2523 N 229.106 1.52395 0.401703 0
M  V30 2524 C 230.517 1.58899 0.980202 0
M  V30 2525 C 230.868 0.434032 1.91339 0
M  V30 2526 O 229.993 -0.444619 2.11783 0
M  V30 2527 C 230.588 2.87994 1.78451 0
M  V30 2528 C 229.147 2.96953 2.31292 0
M  V30 2529 C 228.294 2.53903 1.11483 0
M  V30 2530 H 231.245 1.57657 0.18168 0
M  V30 2531 H 231.266 2.73765 2.64259 0
M  V30 2532 H 230.778 3.72035 1.10506 0
M  V30 2533 H 228.879 2.17422 3.02586 0
M  V30 2534 H 228.992 4.01344 2.61649 0
M  V30 2535 H 227.356 2.07925 1.47104 0
M  V30 2536 H 228.139 3.40326 0.450928 0
M  V30 2537 N 230.584 -0.659388 1.43143 0
M  V30 2538 C 231.861 -1.41627 1.34912 0
M  V30 2539 C 232.241 -2.11099 -0.00607785 0
M  V30 2540 O 231.589 -2.04353 -1.02236 0
M  V30 2541 C 231.799 -2.40604 2.52805 0
M  V30 2542 C 233.147 -3.04789 2.95616 0
M  V30 2543 O 234.171 -2.50932 2.52807 0
M  V30 2544 O 233.03 -4.02421 3.69756 0
M  V30 2545 H 230.124 -0.63246 0.532844 0
M  V30 2546 H 232.67 -0.686814 1.5518 0
M  V30 2547 H 231.442 -1.88174 3.43083 0
M  V30 2548 H 231.065 -3.21009 2.34604 0
M  V30 2549 N 232.062 -1.29571 -0.897171 0
M  V30 2550 C 233.308 -1.17863 -1.65034 0
M  V30 2551 C 233.641 0.268729 -1.92332 0
M  V30 2552 O 232.916 1.19378 -1.53555 0
M  V30 2553 C 233.199 -1.995 -2.99786 0
M  V30 2554 C 233.052 -3.5239 -2.79538 0
M  V30 2555 C 234.371 -1.82335 -4.00552 0
M  V30 2556 H 231.49 -0.429528 -0.598895 0
M  V30 2557 H 234.132 -1.59072 -1.03905 0
M  V30 2558 H 232.282 -1.64485 -3.51962 0
M  V30 2559 H 233.954 -3.97401 -2.34244 0
M  V30 2560 H 232.197 -3.77187 -2.14273 0
M  V30 2561 H 232.868 -4.04787 -3.75302 0
M  V30 2562 H 235.344 -2.12924 -3.57495 0
M  V30 2563 H 234.22 -2.41801 -4.92771 0
M  V30 2564 H 234.481 -0.779209 -4.35179 0
M  V30 2565 N 233.54 1.10788 -1.12088 0
M  V30 2566 C 234.789 1.82036 -0.868659 0
M  V30 2567 C 235.102 1.85929 0.607426 0
M  V30 2568 O 236.308 2.53346 0.97613 0
M  V30 2569 C 234.764 3.26951 -1.50435 0
M  V30 2570 C 234.372 3.31367 -3.01496 0
M  V30 2571 C 236.116 4.03053 -1.33225 0
M  V30 2572 C 234.023 4.7072 -3.58017 0
M  V30 2573 H 232.953 0.682108 -0.321318 0
M  V30 2574 H 235.604 1.24618 -1.34694 0
M  V30 2575 H 233.986 3.84343 -0.953735 0
M  V30 2576 H 235.16 2.83819 -3.6302 0
M  V30 2577 H 233.475 2.6875 -3.18061 0
M  V30 2578 H 236.072 5.05981 -1.72878 0
M  V30 2579 H 236.415 4.15387 -0.275529 0
M  V30 2580 H 236.948 3.52066 -1.85188 0
M  V30 2581 H 233.687 4.63585 -4.63432 0
M  V30 2582 H 233.207 5.1865 -3.01268 0
M  V30 2583 H 234.886 5.39685 -3.56859 0
M  V30 2584 N 235.018 0.912232 1.28515 0
M  V30 2585 C 235.928 0.404506 2.31086 0
M  V30 2586 C 236.944 -0.50707 1.66448 0
M  V30 2587 O 238.12 -0.393624 1.97516 0
M  V30 2588 C 235.185 -0.348572 3.44943 0
M  V30 2589 C 234.246 0.59604 4.25142 0
M  V30 2590 C 233.479 -0.121194 5.33562 0
M  V30 2591 O 233.702 -1.34317 5.5436 0
M  V30 2592 O 232.636 0.542716 5.99448 0
M  V30 2593 H 236.462 1.25579 2.76521 0
M  V30 2594 H 234.047 0.676998 1.33181 0
M  V30 2595 H 235.929 -0.77395 4.14232 0
M  V30 2596 H 234.604 -1.17571 3.01594 0
M  V30 2597 H 233.511 1.07079 3.58448 0
M  V30 2598 H 234.844 1.38995 4.72167 0
M  V30 2599 N 236.496 -1.42363 0.676048 0
M  V30 2600 C 237.773 -1.95183 0.127726 0
M  V30 2601 C 238.153 -1.61641 -1.35777 0
M  V30 2602 O 237.501 -0.913216 -2.09458 0
M  V30 2603 C 237.711 -3.46721 0.398199 0
M  V30 2604 C 239.059 -4.23427 0.315383 0
M  V30 2605 O 240.083 -3.54649 0.332016 0
M  V30 2606 O 238.942 -5.45888 0.25865 0
M  V30 2607 H 236.036 -0.826992 0.00359427 0
M  V30 2608 H 238.582 -1.52184 0.750864 0
M  V30 2609 H 237.354 -3.64344 1.4272 0
M  V30 2610 H 236.977 -3.96769 -0.256885 0
M  V30 2611 N 237.974 -0.419461 -1.51915 0
M  V30 2612 C 238.922 0.415502 -2.28859 0
M  V30 2613 C 239.916 1.03674 -1.3397 0
M  V30 2614 O 241.122 0.973757 -1.51387 0
M  V30 2615 H 237.497 0.152786 -0.736315 0
M  V30 2616 H 239.468 -0.254531 -2.97312 0
M  V30 2617 C 238.217 1.51425 -3.12995 0
M  V30 2618 H 237.54 1.04556 -3.85886 0
M  V30 2619 H 238.98 2.07208 -3.6992 0
M  V30 2620 C 237.439 2.48745 -2.27217 0
M  V30 2621 O 237.969 3.52871 -1.9195 0
M  V30 2622 N 236.175 2.19202 -1.90785 0
M  V30 2623 H 235.722 1.34556 -2.19664 0
M  V30 2624 H 235.68 2.84561 -1.33687 0
M  V30 2625 N 239.452 1.56882 -0.150215 0
M  V30 2626 C 240.385 2.12712 0.826358 0
M  V30 2627 C 241.363 1.05154 1.24022 0
M  V30 2628 O 242.547 1.33004 1.33575 0
M  V30 2629 C 239.674 2.64945 2.11002 0
M  V30 2630 C 238.72 3.8468 1.84183 0
M  V30 2631 S 239.553 5.25502 1.02995 0
M  V30 2632 C 240.709 5.81125 2.32474 0
M  V30 2633 H 240.942 2.95214 0.351598 0
M  V30 2634 H 238.475 1.54267 0.0641211 0
M  V30 2635 H 240.433 2.95689 2.84742 0
M  V30 2636 H 239.094 1.82568 2.55593 0
M  V30 2637 H 238.287 4.19482 2.79375 0
M  V30 2638 H 237.889 3.54714 1.1855 0
M  V30 2639 H 240.181 5.92753 3.281 0
M  V30 2640 H 241.124 6.78625 2.02171 0
M  V30 2641 H 241.532 5.09392 2.43269 0
M  V30 2642 N 240.93 -0.123565 1.57115 0
M  V30 2643 C 241.86 -1.15309 2.03042 0
M  V30 2644 C 242.841 -1.43454 0.914061 0
M  V30 2645 O 244.026 -1.53973 1.18347 0
M  V30 2646 C 241.156 -2.48043 2.43089 0
M  V30 2647 C 240.11 -2.3437 3.58127 0
M  V30 2648 C 239.436 -3.72026 3.84059 0
M  V30 2649 C 240.736 -1.80804 4.90007 0
M  V30 2650 H 242.43 -0.771102 2.893 0
M  V30 2651 H 239.976 -0.369479 1.39179 0
M  V30 2652 H 241.929 -3.20311 2.73823 0
M  V30 2653 H 240.653 -2.88122 1.53796 0
M  V30 2654 H 239.312 -1.64551 3.27595 0
M  V30 2655 H 238.96 -4.09582 2.91979 0
M  V30 2656 H 238.66 -3.63732 4.6149 0
M  V30 2657 H 240.184 -4.45806 4.1724 0
M  V30 2658 H 241.598 -2.42886 5.19307 0
M  V30 2659 H 239.995 -1.83343 5.71407 0
M  V30 2660 H 241.065 -0.76528 4.78823 0
M  V30 2661 N 242.408 -1.52605 -0.393616 0
M  V30 2662 C 243.318 -1.79971 -1.50492 0
M  V30 2663 C 244.334 -0.686181 -1.59899 0
M  V30 2664 O 245.51 -0.973274 -1.76322 0
M  V30 2665 C 242.575 -1.95867 -2.86072 0
M  V30 2666 C 241.636 -3.19781 -2.86424 0
M  V30 2667 C 240.869 -3.34909 -4.15538 0
M  V30 2668 O 241.092 -2.54948 -5.10253 0
M  V30 2669 O 240.026 -4.28141 -4.23059 0
M  V30 2670 H 243.852 -2.74328 -1.30299 0
M  V30 2671 H 241.437 -1.3764 -0.581005 0
M  V30 2672 H 243.319 -2.08056 -3.66457 0
M  V30 2673 H 241.994 -1.04699 -3.063 0
M  V30 2674 H 240.901 -3.13038 -2.04837 0
M  V30 2675 H 242.234 -4.1078 -2.71147 0
M  V30 2676 N 243.887 0.651787 -1.4349 0
M  V30 2677 C 245.135 1.40888 -1.44897 0
M  V30 2678 C 245.456 1.94856 -0.0749086 0
M  V30 2679 O 244.726 1.74518 0.889956 0
M  V30 2680 H 243.306 0.522887 -0.533478 0
M  V30 2681 H 245.968 0.768609 -1.79104 0
M  V30 2682 H 245.064 2.25052 -2.16236 0
M  V30 2683 N 245.365 1.30045 0.890287 0
M  V30 2684 C 246.295 1.18541 2.01172 0
M  V30 2685 C 247.276 0.0773356 1.69924 0
M  V30 2686 O 248.461 0.25845 1.92473 0
M  V30 2687 C 245.591 0.870941 3.36202 0
M  V30 2688 C 244.545 1.93637 3.81692 0
M  V30 2689 C 243.871 1.475 5.13953 0
M  V30 2690 C 245.171 3.34666 4.00994 0
M  V30 2691 H 246.865 2.12359 2.11054 0
M  V30 2692 H 244.411 1.02238 1.01407 0
M  V30 2693 H 246.364 0.777141 4.14172 0
M  V30 2694 H 245.088 -0.102926 3.26438 0
M  V30 2695 H 243.747 2.01972 3.05946 0
M  V30 2696 H 243.395 0.489551 5.00612 0
M  V30 2697 H 243.095 2.1876 5.4536 0
M  V30 2698 H 244.619 1.39489 5.94454 0
M  V30 2699 H 246.033 3.2912 4.69417 0
M  V30 2700 H 244.43 4.03966 4.43769 0
M  V30 2701 H 245.5 3.76949 3.05021 0
M  V30 2702 N 246.843 -1.10192 1.12674 0
M  V30 2703 C 248.071 -1.85983 0.906527 0
M  V30 2704 C 248.486 -1.80783 -0.544333 0
M  V30 2705 O 247.843 -1.19834 -1.37645 0
M  V30 2706 C 247.894 -3.34281 1.37618 0
M  V30 2707 O 247.615 -3.39401 2.77017 0
M  V30 2708 C 249.116 -4.26938 1.19325 0
M  V30 2709 H 246.336 -0.587716 0.323775 0
M  V30 2710 H 248.88 -1.39284 1.49734 0
M  V30 2711 H 247.035 -3.78436 0.828539 0
M  V30 2712 H 247.449 -4.31838 2.97684 0
M  V30 2713 H 248.923 -5.29181 1.57071 0
M  V30 2714 H 249.4 -4.38995 0.134097 0
M  V30 2715 H 250.006 -3.8859 1.72852 0
M  V30 2716 N 248.321 -0.919034 -1.28029 0
M  V30 2717 C 249.567 -0.555757 -1.95036 0
M  V30 2718 C 249.9 0.899198 -1.72128 0
M  V30 2719 O 249.175 1.64023 -1.04531 0
M  V30 2720 C 249.458 -0.872024 -3.49382 0
M  V30 2721 C 249.311 -2.3801 -3.81669 0
M  V30 2722 C 250.63 -0.37185 -4.38526 0
M  V30 2723 H 247.749 -0.203386 -0.708381 0
M  V30 2724 H 250.391 -1.14924 -1.51303 0
M  V30 2725 H 248.541 -0.366946 -3.86763 0
M  V30 2726 H 250.213 -2.9562 -3.54128 0
M  V30 2727 H 248.456 -2.83289 -3.28526 0
M  V30 2728 H 249.127 -2.55192 -4.8947 0
M  V30 2729 H 251.603 -0.804602 -4.08247 0
M  V30 2730 H 250.479 -0.622173 -5.45362 0
M  V30 2731 H 250.74 0.727934 -4.36066 0
M  V30 2732 N 249.799 1.42003 -0.683588 0
M  V30 2733 C 251.029 2.05448 -0.217866 0
M  V30 2734 C 251.437 1.51491 1.13346 0
M  V30 2735 O 250.78 0.653048 1.717 0
M  V30 2736 C 250.842 3.59399 -0.0850118 0
M  V30 2737 C 250.506 4.36093 -1.36645 0
M  V30 2738 C 251.503 4.66169 -2.30179 0
M  V30 2739 C 249.188 4.75578 -1.61649 0
M  V30 2740 C 251.182 5.34676 -3.46988 0
M  V30 2741 C 248.869 5.43824 -2.78745 0
M  V30 2742 C 249.867 5.73299 -3.71238 0
M  V30 2743 O 249.555 6.40142 -4.86285 0
M  V30 2744 H 249.287 0.668344 -0.101454 0
M  V30 2745 H 251.841 1.82974 -0.933248 0
M  V30 2746 H 250.071 3.80566 0.686031 0
M  V30 2747 H 251.76 4.04457 0.341973 0
M  V30 2748 H 252.526 4.36156 -2.12115 0
M  V30 2749 H 248.405 4.52025 -0.905243 0
M  V30 2750 H 251.949 5.57599 -4.19201 0
M  V30 2751 H 247.846 5.73254 -2.96732 0
M  V30 2752 H 248.614 6.58636 -4.85944 0
M  V30 2753 N 251.277 0.427512 1.51691 0
M  V30 2754 C 252.224 -0.388867 2.275 0
M  V30 2755 C 253.194 -1.02532 1.30677 0
M  V30 2756 O 254.379 -1.0461 1.59566 0
M  V30 2757 C 251.519 -1.48954 3.11298 0
M  V30 2758 C 250.632 -0.872194 4.23104 0
M  V30 2759 C 249.767 -1.94709 4.94228 0
M  V30 2760 C 248.806 -1.30766 5.97969 0
M  V30 2761 N 247.943 -2.32349 6.62539 0
M  V30 2762 H 252.783 0.263997 2.96828 0
M  V30 2763 H 250.32 0.142033 1.46413 0
M  V30 2764 H 252.278 -2.13887 3.58201 0
M  V30 2765 H 250.908 -2.11217 2.44105 0
M  V30 2766 H 249.96 -0.111419 3.80237 0
M  V30 2767 H 251.272 -0.365264 4.97461 0
M  V30 2768 H 250.426 -2.67327 5.44629 0
M  V30 2769 H 249.165 -2.48773 4.1948 0
M  V30 2770 H 248.17 -0.566902 5.4687 0
M  V30 2771 H 249.395 -0.774483 6.74669 0
M  V30 2772 H 247.341 -2.85511 5.90609 0
M  V30 2773 H 247.258 -1.8652 7.3263 0
M  V30 2774 H 248.526 -3.04481 7.17574 0
M  V30 2775 N 252.755 -1.56801 0.158532 0
M  V30 2776 C 254.001 -1.96781 -0.490405 0
M  V30 2777 C 254.334 -1.04397 -1.63753 0
M  V30 2778 O 253.609 -0.0885805 -1.94298 0
M  V30 2779 C 253.892 -3.4635 -0.985594 0
M  V30 2780 C 253.745 -4.49512 0.160824 0
M  V30 2781 C 255.064 -3.98697 -1.86355 0
M  V30 2782 H 252.183 -0.715482 -0.176788 0
M  V30 2783 H 254.825 -1.88451 0.242088 0
M  V30 2784 H 252.975 -3.53579 -1.60978 0
M  V30 2785 H 254.647 -4.54353 0.797537 0
M  V30 2786 H 252.89 -4.26013 0.818256 0
M  V30 2787 H 253.561 -5.51531 -0.227569 0
M  V30 2788 H 256.037 -3.94019 -1.33746 0
M  V30 2789 H 254.913 -5.03792 -2.17909 0
M  V30 2790 H 255.174 -3.41744 -2.8047 0
M  V30 2791 N 254.233 0.115231 -1.57178 0
M  V30 2792 C 255.163 1.1423 -2.03651 0
M  V30 2793 C 256.144 1.42967 -0.921655 0
M  V30 2794 O 257.329 1.53343 -1.19162 0
M  V30 2795 C 254.459 2.4675 -2.44401 0
M  V30 2796 C 253.413 2.32467 -3.59365 0
M  V30 2797 C 252.739 3.69984 -3.86026 0
M  V30 2798 C 254.039 1.78203 -4.90959 0
M  V30 2799 H 255.733 0.755749 -2.89705 0
M  V30 2800 H 253.279 0.362093 -1.39373 0
M  V30 2801 H 255.232 3.18854 -2.75517 0
M  V30 2802 H 253.956 2.87302 -1.55322 0
M  V30 2803 H 252.615 1.62811 -3.28463 0
M  V30 2804 H 252.263 4.08028 -2.94147 0
M  V30 2805 H 251.963 3.61279 -4.63412 0
M  V30 2806 H 253.487 4.43587 -4.19599 0
M  V30 2807 H 254.901 2.40128 -5.20587 0
M  V30 2808 H 253.298 1.8031 -5.72371 0
M  V30 2809 H 254.368 0.739876 -4.79222 0
M  V30 2810 N 255.711 1.52812 0.385517 0
M  V30 2811 C 256.958 1.68026 1.1302 0
M  V30 2812 C 257.286 0.421934 1.89868 0
M  V30 2813 O 256.541 -0.595749 1.86412 0
M  V30 2814 C 256.84 2.86856 2.13187 0
M  V30 2815 C 256.506 4.24159 1.5297 0
M  V30 2816 C 255.168 4.61501 1.36274 0
M  V30 2817 C 257.52 5.09627 1.09223 0
M  V30 2818 C 254.848 5.81966 0.743837 0
M  V30 2819 C 257.2 6.30719 0.487411 0
M  V30 2820 C 255.864 6.6679 0.307777 0
M  V30 2821 H 255.134 0.614849 0.413571 0
M  V30 2822 H 257.781 1.86962 0.414405 0
M  V30 2823 H 256.086 2.6235 2.90998 0
M  V30 2824 H 257.783 2.95821 2.70722 0
M  V30 2825 H 254.373 3.94746 1.66954 0
M  V30 2826 H 258.557 4.81343 1.20922 0
M  V30 2827 H 253.813 6.08519 0.592891 0
M  V30 2828 H 257.987 6.96259 0.140143 0
M  V30 2829 H 255.614 7.60001 -0.173879 0
M  V30 2830 N 257.189 -0.644168 1.43834 0
M  V30 2831 C 258.414 -1.43642 1.49605 0
M  V30 2832 C 258.839 -1.8773 0.117913 0
M  V30 2833 O 258.197 -1.57938 -0.890239 0
M  V30 2834 C 258.245 -2.6416 2.45463 0
M  V30 2835 O 257.349 -3.63538 1.94714 0
M  V30 2836 H 256.69 -0.430329 0.50568 0
M  V30 2837 H 259.22 -0.787448 1.8884 0
M  V30 2838 H 259.23 -3.11864 2.63068 0
M  V30 2839 H 257.905 -2.31414 3.45572 0
M  V30 2840 H 256.482 -3.2273 1.86814 0
M  V30 2841 N 258.668 -1.30515 -0.883378 0
M  V30 2842 C 259.598 -1.19607 -2.00541 0
M  V30 2843 C 260.579 -0.086346 -1.69881 0
M  V30 2844 O 261.764 -0.268654 -1.92333 0
M  V30 2845 C 258.894 -0.888758 -3.35736 0
M  V30 2846 C 257.848 -1.95659 -3.8066 0
M  V30 2847 C 257.174 -1.50224 -5.13164 0
M  V30 2848 C 258.474 -3.36788 -3.99213 0
M  V30 2849 H 260.168 -2.13476 -2.09925 0
M  V30 2850 H 257.714 -1.02775 -1.00863 0
M  V30 2851 H 259.667 -0.799094 -4.13754 0
M  V30 2852 H 258.391 0.0856125 -3.26488 0
M  V30 2853 H 257.05 -2.03591 -3.04871 0
M  V30 2854 H 256.698 -0.516092 -5.00345 0
M  V30 2855 H 256.398 -2.2165 -5.44192 0
M  V30 2856 H 257.922 -1.42639 -5.93706 0
M  V30 2857 H 259.336 -3.31605 -4.67665 0
M  V30 2858 H 257.733 -4.06314 -4.41621 0
M  V30 2859 H 258.803 -3.78561 -3.03017 0
M  V30 2860 N 260.146 1.09593 -1.13257 0
M  V30 2861 C 261.557 1.63229 -0.906274 0
M  V30 2862 C 261.908 1.8811 0.557578 0
M  V30 2863 O 261.033 1.62953 1.42391 0
M  V30 2864 C 261.628 2.96535 -1.63867 0
M  V30 2865 C 260.187 3.47003 -1.45828 0
M  V30 2866 C 259.334 2.2145 -1.66898 0
M  V30 2867 H 262.285 0.92978 -1.28611 0
M  V30 2868 H 262.306 3.64411 -1.09476 0
M  V30 2869 H 261.818 2.78394 -2.70404 0
M  V30 2870 H 259.919 3.70272 -0.415848 0
M  V30 2871 H 260.032 4.24551 -2.2202 0
M  V30 2872 H 258.396 2.30022 -1.09371 0
M  V30 2873 H 259.179 2.0583 -2.74752 0
M  V30 2874 N 261.624 0.925811 1.2754 0
M  V30 2875 C 262.534 0.428993 2.30644 0
M  V30 2876 C 263.55 -0.489387 1.66976 0
M  V30 2877 O 264.726 -0.372653 1.97922 0
M  V30 2878 C 261.791 -0.311967 3.45294 0
M  V30 2879 C 260.852 0.641098 4.24486 0
M  V30 2880 C 260.085 -0.0645955 5.33661 0
M  V30 2881 O 260.308 -1.28429 5.55754 0
M  V30 2882 O 259.242 0.606265 5.98839 0
M  V30 2883 H 263.068 1.28504 2.75173 0
M  V30 2884 H 260.653 0.691086 1.32455 0
M  V30 2885 H 262.535 -0.729972 4.15029 0
M  V30 2886 H 261.21 -1.14365 3.02824 0
M  V30 2887 H 260.117 1.10874 3.57292 0
M  V30 2888 H 261.45 1.43995 4.70666 0
M  V30 2889 N 263.102 -1.41638 0.69111 0
M  V30 2890 C 264.05 -2.32597 0.0115199 0
M  V30 2891 C 265.044 -1.5072 -0.773296 0
M  V30 2892 O 266.25 -1.66685 -0.67942 0
M  V30 2893 H 262.625 -0.751849 -0.0150746 0
M  V30 2894 H 264.596 -2.87593 0.795791 0
M  V30 2895 C 263.345 -3.35467 -0.914172 0
M  V30 2896 H 262.668 -3.9852 -0.319687 0
M  V30 2897 H 264.108 -4.01662 -1.35808 0
M  V30 2898 C 262.567 -2.69004 -2.02826 0
M  V30 2899 O 263.097 -2.53444 -3.11655 0
M  V30 2900 N 261.303 -2.2777 -1.80469 0
M  V30 2901 H 260.85 -2.40626 -0.919615 0
M  V30 2902 H 260.808 -1.83635 -2.55197 0
M  V30 2903 N 264.58 -0.43555 -1.51462 0
M  V30 2904 C 265.829 0.133007 -2.01261 0
M  V30 2905 C 266.142 1.43942 -1.32439 0
M  V30 2906 O 267.348 2.09081 -1.73198 0
M  V30 2907 C 265.804 0.287581 -3.58749 0
M  V30 2908 C 265.412 -1.00829 -4.36506 0
M  V30 2909 C 267.156 0.810004 -4.167 0
M  V30 2910 C 265.063 -0.819454 -5.85695 0
M  V30 2911 H 263.993 0.0534822 -0.752101 0
M  V30 2912 H 266.644 -0.565038 -1.74584 0
M  V30 2913 H 265.026 1.04859 -3.81865 0
M  V30 2914 H 266.2 -1.77749 -4.25138 0
M  V30 2915 H 264.515 -1.45911 -3.89999 0
M  V30 2916 H 267.112 0.967743 -5.2587 0
M  V30 2917 H 267.455 1.79196 -3.75758 0
M  V30 2918 H 267.988 0.107357 -3.97655 0
M  V30 2919 H 264.727 -1.77374 -6.31046 0
M  V30 2920 H 264.247 -0.0900208 -5.99732 0
M  V30 2921 H 265.926 -0.471949 -6.45276 0
M  V30 2922 N 266.058 1.56714 -0.166846 0
M  V30 2923 C 266.988 2.20754 0.760913 0
M  V30 2924 C 267.969 1.16178 1.24244 0
M  V30 2925 O 269.154 1.44592 1.29641 0
M  V30 2926 C 266.284 2.84478 1.99223 0
M  V30 2927 C 265.238 3.95053 1.64672 0
M  V30 2928 C 264.564 4.45805 2.95232 0
M  V30 2929 C 265.864 5.14865 0.878155 0
M  V30 2930 H 267.558 2.98537 0.22713 0
M  V30 2931 H 265.104 1.43596 0.107805 0
M  V30 2932 H 267.057 3.27951 2.64624 0
M  V30 2933 H 265.781 2.04056 2.55007 0
M  V30 2934 H 264.44 3.52228 1.01641 0
M  V30 2935 H 264.088 3.62181 3.49047 0
M  V30 2936 H 263.788 5.204 2.7287 0
M  V30 2937 H 265.312 4.91962 3.6167 0
M  V30 2938 H 266.726 5.55059 1.43466 0
M  V30 2939 H 265.123 5.95348 0.753738 0
M  V30 2940 H 266.193 4.84735 -0.126377 0
M  V30 2941 N 267.536 -0.106894 1.57237 0
M  V30 2942 C 268.446 -1.14911 2.0453 0
M  V30 2943 C 269.462 -1.44592 0.96795 0
M  V30 2944 O 270.638 -1.55468 1.2803 0
M  V30 2945 C 267.703 -2.45272 2.45036 0
M  V30 2946 C 266.764 -2.22879 3.66911 0
M  V30 2947 C 265.997 -3.47024 4.05475 0
M  V30 2948 O 266.22 -4.54804 3.44252 0
M  V30 2949 O 265.154 -3.3731 4.98504 0
M  V30 2950 H 268.98 -0.777461 2.9358 0
M  V30 2951 H 266.565 -0.318563 1.45964 0
M  V30 2952 H 268.447 -3.22055 2.71769 0
M  V30 2953 H 267.122 -2.81886 1.59129 0
M  V30 2954 H 266.029 -1.43915 3.45311 0
M  V30 2955 H 267.362 -1.91163 4.53561 0
M  V30 2956 N 269.014 -1.53014 -0.377408 0
M  V30 2957 C 269.962 -1.7927 -1.48206 0
M  V30 2958 C 270.956 -0.661195 -1.55963 0
M  V30 2959 O 272.162 -0.843908 -1.58991 0
M  V30 2960 H 268.537 -0.567425 -0.493491 0
M  V30 2961 H 270.508 -2.71753 -1.2326 0
M  V30 2962 C 269.257 -1.98894 -2.85196 0
M  V30 2963 H 268.58 -2.85395 -2.79981 0
M  V30 2964 H 270.02 -2.21249 -3.61698 0
M  V30 2965 C 268.479 -0.764691 -3.28107 0
M  V30 2966 O 269.009 0.0523226 -4.01666 0
M  V30 2967 N 267.215 -0.591493 -2.84517 0
M  V30 2968 H 266.762 -1.25749 -2.24822 0
M  V30 2969 H 266.72 0.226253 -3.13585 0
M  V30 2970 N 270.492 0.636531 -1.44174 0
M  V30 2971 C 271.72 1.42353 -1.50144 0
M  V30 2972 C 272.135 1.88389 -0.124575 0
M  V30 2973 O 271.492 1.6051 0.868489 0
M  V30 2974 C 271.543 2.64744 -2.46156 0
M  V30 2975 O 271.264 2.20629 -3.7849 0
M  V30 2976 C 272.765 3.57929 -2.61537 0
M  V30 2977 H 269.985 0.436752 -0.5094 0
M  V30 2978 H 272.529 0.778933 -1.89084 0
M  V30 2979 H 270.684 3.25307 -2.10366 0
M  V30 2980 H 271.098 2.99938 -4.30276 0
M  V30 2981 H 272.572 4.40428 -3.32757 0
M  V30 2982 H 273.049 4.06382 -1.66585 0
M  V30 2983 H 273.655 3.03238 -2.98206 0
M  V30 2984 N 271.97 1.30982 0.876444 0
M  V30 2985 C 272.9 1.20668 1.99903 0
M  V30 2986 C 273.881 0.095354 1.69833 0
M  V30 2987 O 275.066 0.27885 1.92188 0
M  V30 2988 C 272.196 0.90655 3.3526 0
M  V30 2989 C 271.15 1.97675 3.79617 0
M  V30 2990 C 270.476 1.52943 5.1236 0
M  V30 2991 C 271.776 3.389 3.97422 0
M  V30 2992 H 273.47 2.14586 2.0879 0
M  V30 2993 H 271.016 1.03308 1.00317 0
M  V30 2994 H 272.969 0.821025 4.13324 0
M  V30 2995 H 271.693 -0.0682969 3.26529 0
M  V30 2996 H 270.352 2.05205 3.03787 0
M  V30 2997 H 270 0.54262 5.00065 0
M  V30 2998 H 269.7 2.24532 5.43009 0
M  V30 2999 H 271.224 1.45786 5.92941 0
M  V30 3000 H 272.638 3.34081 4.659 0
M  V30 3001 H 271.035 4.0865 4.3946 0
M  V30 3002 H 272.105 3.80163 3.01006 0
M  V30 3003 N 273.449 -1.08991 1.13837 0
M  V30 3004 C 274.396 -2.15748 0.819835 0
M  V30 3005 C 275.366 -1.64636 -0.220026 0
M  V30 3006 O 276.551 -1.90582 -0.0912757 0
M  V30 3007 C 273.691 -3.4382 0.296913 0
M  V30 3008 C 272.804 -4.0881 1.39636 0
M  V30 3009 C 271.939 -5.24655 0.831314 0
M  V30 3010 C 270.978 -5.81575 1.90886 0
M  V30 3011 N 270.115 -6.88774 1.36142 0
M  V30 3012 H 274.955 -2.42338 1.73426 0
M  V30 3013 H 272.492 -1.18935 0.865613 0
M  V30 3014 H 274.45 -4.17193 -0.0244339 0
M  V30 3015 H 273.08 -3.17535 -0.580628 0
M  V30 3016 H 272.132 -3.33258 1.83422 0
M  V30 3017 H 273.444 -4.47141 2.21058 0
M  V30 3018 H 272.598 -6.04942 0.461515 0
M  V30 3019 H 271.337 -4.87698 -0.013932 0
M  V30 3020 H 270.342 -4.99946 2.28767 0
M  V30 3021 H 271.567 -6.20592 2.75758 0
M  V30 3022 H 269.513 -6.53788 0.538254 0
M  V30 3023 H 269.43 -7.25898 2.11208 0
M  V30 3024 H 270.698 -7.72806 1.01933 0
M  V30 3025 N 274.927 -0.932562 -1.27047 0
M  V30 3026 C 275.857 -0.452902 -2.29066 0
M  V30 3027 C 276.838 0.489338 -1.62909 0
M  V30 3028 O 278.023 0.393046 -1.90181 0
M  V30 3029 C 275.153 0.290698 -3.46081 0
M  V30 3030 C 274.107 -0.564168 -4.24265 0
M  V30 3031 C 273.433 0.308886 -5.33807 0
M  V30 3032 C 274.733 -1.83112 -4.89149 0
M  V30 3033 H 276.427 -1.30552 -2.69437 0
M  V30 3034 H 273.973 -0.629201 -1.29526 0
M  V30 3035 H 275.926 0.637233 -4.16554 0
M  V30 3036 H 274.65 1.17738 -3.0464 0
M  V30 3037 H 273.309 -0.893477 -3.55545 0
M  V30 3038 H 272.957 1.19467 -4.88607 0
M  V30 3039 H 272.657 -0.259633 -5.87026 0
M  V30 3040 H 274.181 0.650884 -6.07121 0
M  V30 3041 H 275.595 -1.55236 -5.51883 0
M  V30 3042 H 273.992 -2.34353 -5.52448 0
M  V30 3043 H 275.062 -2.54772 -4.12576 0
M  V30 3044 N 276.405 1.4127 -0.698611 0
M  V30 3045 C 277.645 2.03044 -0.235062 0
M  V30 3046 C 278.009 1.54146 1.14468 0
M  V30 3047 O 279.21 2.07867 1.70425 0
M  V30 3048 C 277.481 3.56192 -0.293651 0
M  V30 3049 S 279.04 4.38696 0.0954053 0
M  V30 3050 H 275.858 0.704697 -0.0944648 0
M  V30 3051 H 278.46 1.72656 -0.917064 0
M  V30 3052 H 277.164 3.89274 -1.29977 0
M  V30 3053 H 276.695 3.91285 0.407397 0
M  V30 3054 H 278.71 4.78257 1.3223 0
M  V30 3055 N 277.883 0.443576 1.51229 0
M  V30 3056 C 279.299 0.0962001 1.5931 0
M  V30 3057 C 279.499 -1.39501 1.45402 0
M  V30 3058 O 278.555 -2.16557 1.29843 0
M  V30 3059 C 279.868 0.621875 2.94199 0
M  V30 3060 C 281.416 0.582865 3.07525 0
M  V30 3061 C 281.891 1.08562 4.44948 0
M  V30 3062 N 283.382 1.04387 4.51284 0
M  V30 3063 C 284.117 1.40368 5.55954 0
M  V30 3064 N 283.613 1.83664 6.68011 0
M  V30 3065 N 285.406 1.32145 5.46346 0
M  V30 3066 H 277.557 1.41376 1.58514 0
M  V30 3067 H 279.82 0.582965 0.747567 0
M  V30 3068 H 279.526 1.66546 3.09767 0
M  V30 3069 H 279.4 0.0502125 3.77167 0
M  V30 3070 H 281.787 -0.451749 2.91622 0
M  V30 3071 H 281.868 1.191 2.26382 0
M  V30 3072 H 281.512 2.11873 4.61598 0
M  V30 3073 H 281.442 0.453956 5.2464 0
M  V30 3074 H 283.933 0.725986 3.70861 0
M  V30 3075 H 284.246 2.0934 7.43906 0
M  V30 3076 H 282.591 1.87596 6.69203 0
M  V30 3077 H 285.782 0.981808 4.57688 0
M  V30 3078 H 285.955 1.60514 6.27805 0
M  V30 3079 N 279.361 -1.56624 0.175154 0
M  V30 3080 C 280.271 -2.21741 -0.766042 0
M  V30 3081 C 281.287 -1.21023 -1.25018 0
M  V30 3082 O 282.463 -1.53697 -1.3015 0
M  V30 3083 C 279.528 -2.84839 -1.97655 0
M  V30 3084 C 278.589 -4.00769 -1.53892 0
M  V30 3085 C 277.822 -4.60849 -2.69173 0
M  V30 3086 O 278.045 -4.19823 -3.86141 0
M  V30 3087 O 276.979 -5.50655 -2.43028 0
M  V30 3088 H 280.805 -3.02738 -0.241585 0
M  V30 3089 H 278.39 -1.49305 -0.053222 0
M  V30 3090 H 280.272 -3.24834 -2.68442 0
M  V30 3091 H 278.947 -2.06836 -2.48999 0
M  V30 3092 H 277.854 -3.65436 -0.80044 0
M  V30 3093 H 279.187 -4.80376 -1.07236 0
M  V30 3094 N 280.839 0.0985539 -1.57292 0
M  V30 3095 C 281.786 1.11981 -2.01814 0
M  V30 3096 C 282.756 1.39999 -0.89384 0
M  V30 3097 O 283.941 1.5152 -1.15958 0
M  V30 3098 C 281.081 2.43577 -2.44467 0
M  V30 3099 C 280.194 2.2232 -3.70402 0
M  V30 3100 C 279.329 3.4729 -4.01949 0
M  V30 3101 C 278.368 3.2128 -5.21005 0
M  V30 3102 N 277.505 4.38507 -5.48321 0
M  V30 3103 H 282.345 0.733149 -2.88841 0
M  V30 3104 H 279.882 0.350482 -1.42864 0
M  V30 3105 H 281.84 3.20373 -2.6724 0
M  V30 3106 H 280.47 2.80097 -1.60455 0
M  V30 3107 H 279.522 1.36343 -3.55126 0
M  V30 3108 H 280.834 1.99089 -4.57345 0
M  V30 3109 H 279.988 4.32495 -4.25479 0
M  V30 3110 H 278.727 3.73572 -3.13521 0
M  V30 3111 H 277.732 2.34468 -4.97298 0
M  V30 3112 H 278.957 2.96348 -6.11028 0
M  V30 3113 H 276.903 4.64871 -4.62851 0
M  V30 3114 H 276.82 4.18455 -6.29628 0
M  V30 3115 H 278.088 5.24787 -5.76385 0
M  V30 3116 N 282.317 1.53212 0.369288 0
M  V30 3117 C 283.564 1.69215 1.11232 0
M  V30 3118 C 283.892 0.442048 1.8941 0
M  V30 3119 O 283.147 -0.575944 1.87033 0
M  V30 3120 C 283.446 2.89101 2.10132 0
M  V30 3121 C 283.112 4.25758 1.48463 0
M  V30 3122 C 281.774 4.6292 1.31372 0
M  V30 3123 C 284.126 5.10757 1.03811 0
M  V30 3124 C 281.454 5.82722 0.68207 0
M  V30 3125 C 283.806 6.31201 0.420487 0
M  V30 3126 C 282.47 6.67079 0.237038 0
M  V30 3127 H 281.74 0.619201 0.407027 0
M  V30 3128 H 284.387 1.87391 0.394552 0
M  V30 3129 H 282.692 2.65421 2.88199 0
M  V30 3130 H 284.389 2.98676 2.6757 0
M  V30 3131 H 280.979 3.96494 1.62758 0
M  V30 3132 H 285.163 4.82599 1.1581 0
M  V30 3133 H 280.419 6.09113 0.528316 0
M  V30 3134 H 284.593 6.96368 0.0662874 0
M  V30 3135 H 282.22 7.59774 -0.254477 0
M  V30 3136 N 283.795 -0.628877 1.44509 0
M  V30 3137 C 285.02 -1.42048 1.5112 0
M  V30 3138 C 285.445 -1.87594 0.137818 0
M  V30 3139 O 284.803 -1.58873 -0.873437 0
M  V30 3140 C 284.851 -2.61541 2.48251 0
M  V30 3141 O 283.955 -3.61453 1.98559 0
M  V30 3142 H 283.296 -0.424942 0.510216 0
M  V30 3143 H 285.826 -0.767374 1.89664 0
M  V30 3144 H 285.836 -3.09057 2.66361 0
M  V30 3145 H 284.511 -2.27736 3.48007 0
M  V30 3146 H 283.088 -3.20731 1.90227 0
M  V30 3147 N 285.273 -1.31445 -0.869486 0
M  V30 3148 C 286.223 -1.15731 -1.96444 0
M  V30 3149 C 287.207 -0.0681855 -1.60755 0
M  V30 3150 O 288.399 -0.293154 -1.74555 0
M  V30 3151 C 285.528 -0.867255 -3.32165 0
M  V30 3152 C 284.614 -1.99738 -3.74119 0
M  V30 3153 N 285.005 -3.24447 -3.88031 0
M  V30 3154 C 283.303 -1.89723 -4.03635 0
M  V30 3155 C 284.004 -3.98374 -4.23879 0
M  V30 3156 N 282.98 -3.26547 -4.3459 0
M  V30 3157 H 286.782 -2.10296 -2.05312 0
M  V30 3158 H 284.296 -1.23009 -1.06031 0
M  V30 3159 H 286.293 -0.735668 -4.10358 0
M  V30 3160 H 284.953 0.0701614 -3.24624 0
M  V30 3161 H 285.964 -3.59557 -3.72746 0
M  V30 3162 H 282.641 -1.03449 -4.04481 0
M  V30 3163 H 284.031 -5.05844 -4.42235 0
M  V30 3164 N 286.751 1.08385 -1.14413 0
M  V30 3165 C 288.167 1.32844 -0.884563 0
M  V30 3166 C 288.367 1.95841 0.474181 0
M  V30 3167 O 287.423 2.21158 1.21842 0
M  V30 3168 C 288.736 2.22978 -2.01745 0
M  V30 3169 C 290.284 2.36458 -2.05077 0
M  V30 3170 C 290.759 3.29934 -3.1766 0
M  V30 3171 N 292.25 3.37511 -3.17239 0
M  V30 3172 C 292.985 4.09871 -4.0099 0
M  V30 3173 N 292.481 4.84936 -4.94781 0
M  V30 3174 N 294.274 4.05704 -3.89051 0
M  V30 3175 H 286.425 0.658756 -2.01926 0
M  V30 3176 H 288.688 0.352821 -0.879899 0
M  V30 3177 H 288.394 1.83934 -2.99769 0
M  V30 3178 H 288.268 3.23441 -1.94077 0
M  V30 3179 H 290.655 2.7476 -1.0766 0
M  V30 3180 H 290.736 1.35736 -2.16816 0
M  V30 3181 H 290.38 2.92352 -4.15322 0
M  V30 3182 H 290.31 4.30584 -3.03158 0
M  V30 3183 H 292.801 2.83996 -2.49308 0
M  V30 3184 H 293.114 5.37612 -5.55151 0
M  V30 3185 H 291.459 4.83988 -4.98779 0
M  V30 3186 H 294.65 3.46167 -3.15097 0
M  V30 3187 H 294.823 4.61834 -4.54547 0
M  V30 3188 N 288.23 0.939286 1.26551 0
M  V30 3189 C 289.479 0.581601 1.93133 0
M  V30 3190 C 289.792 -0.883224 1.74524 0
M  V30 3191 O 290.998 -1.3502 2.35546 0
M  V30 3192 C 289.454 0.989425 3.46032 0
M  V30 3193 C 289.062 2.47573 3.73379 0
M  V30 3194 C 290.806 0.703544 4.18629 0
M  V30 3195 C 288.713 2.82235 5.19709 0
M  V30 3196 H 287.643 0.213803 0.723052 0
M  V30 3197 H 290.294 1.14167 1.4366 0
M  V30 3198 H 288.676 0.357902 3.94379 0
M  V30 3199 H 289.85 3.15614 3.35744 0
M  V30 3200 H 288.165 2.73471 3.1401 0
M  V30 3201 H 290.762 0.938869 5.26393 0
M  V30 3202 H 291.105 -0.359639 4.14744 0
M  V30 3203 H 291.638 1.2947 3.76141 0
M  V30 3204 H 288.377 3.87509 5.28694 0
M  V30 3205 H 287.897 2.18854 5.58447 0
M  V30 3206 H 289.576 2.70599 5.87695 0
M  V30 3207 N 289.708 -1.40897 0.706093 0
M  V30 3208 C 290.656 -2.32572 0.0361893 0
M  V30 3209 C 291.65 -1.51532 -0.757266 0
M  V30 3210 O 292.856 -1.67396 -0.661703 0
M  V30 3211 H 289.231 -0.751966 -0.00709935 0
M  V30 3212 H 291.202 -2.86733 0.826249 0
M  V30 3213 C 289.951 -3.36418 -0.87854 0
M  V30 3214 H 289.274 -3.98836 -0.277401 0
M  V30 3215 H 290.714 -4.0308 -1.3154 0
M  V30 3216 C 289.173 -2.71141 -1.99961 0
M  V30 3217 O 289.703 -2.56735 -3.0895 0
M  V30 3218 N 287.909 -2.29671 -1.78043 0
M  V30 3219 H 287.456 -2.41588 -0.894042 0
M  V30 3220 H 287.414 -1.86332 -2.53235 0
M  V30 3221 N 291.186 -0.45159 -1.50991 0
M  V30 3222 C 292.432 0.110237 -2.025 0
M  V30 3223 C 292.765 1.41109 -1.33424 0
M  V30 3224 O 292.04 1.89135 -0.453659 0
M  V30 3225 C 292.323 0.314271 -3.58726 0
M  V30 3226 C 292.176 -1.00623 -4.38401 0
M  V30 3227 C 293.495 1.07767 -4.26702 0
M  V30 3228 H 290.614 0.0385897 -0.735989 0
M  V30 3229 H 293.256 -0.593374 -1.80497 0
M  V30 3230 H 291.406 0.913601 -3.77605 0
M  V30 3231 H 293.078 -1.64064 -4.31139 0
M  V30 3232 H 291.321 -1.6075 -4.02917 0
M  V30 3233 H 291.992 -0.817341 -5.45915 0
M  V30 3234 H 294.468 0.56986 -4.12179 0
M  V30 3235 H 293.344 1.18921 -5.35863 0
M  V30 3236 H 293.605 2.10939 -3.88532 0
M  V30 3237 N 292.664 1.56529 -0.183458 0
M  V30 3238 C 293.627 2.17324 0.728223 0
M  V30 3239 C 294.627 1.12453 1.14939 0
M  V30 3240 O 295.817 1.37902 1.06437 0
M  V30 3241 C 292.949 2.76591 1.99274 0
M  V30 3242 H 294.142 2.99241 0.198772 0
M  V30 3243 H 291.695 1.5616 0.0661391 0
M  V30 3244 H 292.43 1.98441 2.56499 0
M  V30 3245 H 292.215 3.5335 1.69959 0
M  V30 3246 H 293.705 3.23311 2.6431 0
M  V30 3247 N 294.142 -0.090211 1.57342 0
M  V30 3248 C 295.09 -1.12792 2.03422 0
M  V30 3249 C 296.084 -1.41182 0.936166 0
M  V30 3250 O 297.29 -1.40805 1.12133 0
M  V30 3251 H 293.665 -0.380986 0.648347 0
M  V30 3252 H 295.636 -0.71299 2.89757 0
M  V30 3253 C 294.385 -2.43855 2.47851 0
M  V30 3254 H 293.708 -2.22855 3.31927 0
M  V30 3255 H 295.148 -3.14955 2.83865 0
M  V30 3256 C 293.607 -3.08503 1.3538 0
M  V30 3257 O 294.137 -3.95805 0.685641 0
M  V30 3258 N 292.343 -2.68831 1.10355 0
M  V30 3259 H 291.89 -1.97929 1.64869 0
M  V30 3260 H 291.848 -3.12412 0.353031 0
M  V30 3261 N 295.62 -1.53406 -0.361157 0
M  V30 3262 C 296.848 -1.73717 -1.12383 0
M  V30 3263 C 297.263 -0.468161 -1.82904 0
M  V30 3264 O 296.62 0.559198 -1.73722 0
M  V30 3265 C 296.671 -2.90558 -2.15078 0
M  V30 3266 O 296.392 -4.12549 -1.47428 0
M  V30 3267 C 297.893 -3.22777 -3.03858 0
M  V30 3268 H 295.113 -0.580896 -0.335858 0
M  V30 3269 H 297.657 -2.00167 -0.418728 0
M  V30 3270 H 295.812 -2.66489 -2.8118 0
M  V30 3271 H 296.226 -4.78009 -2.15887 0
M  V30 3272 H 297.7 -4.07927 -3.71887 0
M  V30 3273 H 298.177 -2.38329 -3.68912 0
M  V30 3274 H 298.783 -3.48787 -2.43367 0
M  V30 3275 N 297.098 0.621204 -1.44841 0
M  V30 3276 C 298.345 1.38055 -1.48145 0
M  V30 3277 C 298.673 1.94143 -0.117867 0
M  V30 3278 O 297.928 1.74713 0.881694 0
M  V30 3279 C 298.227 2.55675 -2.4973 0
M  V30 3280 C 297.893 2.17817 -3.94799 0
M  V30 3281 C 296.555 2.07205 -4.34303 0
M  V30 3282 C 298.907 1.88065 -4.86087 0
M  V30 3283 C 296.235 1.65045 -5.63007 0
M  V30 3284 C 298.587 1.47394 -6.15189 0
M  V30 3285 C 297.251 1.35331 -6.53637 0
M  V30 3286 H 296.521 0.505181 -0.542101 0
M  V30 3287 H 299.168 0.703477 -1.78111 0
M  V30 3288 H 297.473 3.2866 -2.13284 0
M  V30 3289 H 299.17 3.13904 -2.4953 0
M  V30 3290 H 295.76 2.26998 -3.63552 0
M  V30 3291 H 299.944 1.95168 -4.56315 0
M  V30 3292 H 295.2 1.54317 -5.91605 0
M  V30 3293 H 299.374 1.23415 -6.85377 0
M  V30 3294 H 297.001 1.02435 -7.53267 0
M  V30 3295 N 298.576 1.31904 0.862503 0
M  V30 3296 C 299.508 1.16005 1.97675 0
M  V30 3297 C 300.521 0.0971234 1.6251 0
M  V30 3298 O 301.71 0.345337 1.75128 0
M  V30 3299 C 298.81 0.751791 3.30456 0
M  V30 3300 C 297.983 1.90133 3.93914 0
M  V30 3301 C 297.042 1.4779 5.05019 0
M  V30 3302 O 296.068 2.18872 5.25437 0
M  V30 3303 N 297.27 0.369491 5.79323 0
M  V30 3304 H 300.035 2.11982 2.11857 0
M  V30 3305 H 297.596 1.24337 1.03691 0
M  V30 3306 H 299.588 0.451084 4.02178 0
M  V30 3307 H 298.158 -0.116593 3.12382 0
M  V30 3308 H 297.378 2.36896 3.15078 0
M  V30 3309 H 298.666 2.67111 4.33047 0
M  V30 3310 H 298.064 -0.222299 5.65263 0
M  V30 3311 H 296.621 0.128354 6.51674 0
M  V30 3312 N 300.054 -1.07777 1.14986 0
M  V30 3313 C 301.279 -1.84558 0.946213 0
M  V30 3314 C 301.704 -1.81323 -0.500362 0
M  V30 3315 O 301.062 -1.20301 -1.35637 0
M  V30 3316 C 301.11 -3.29736 1.45968 0
M  V30 3317 O 300.214 -4.07149 0.65601 0
M  V30 3318 H 299.555 -0.571641 0.33782 0
M  V30 3319 H 302.085 -1.35991 1.52865 0
M  V30 3320 H 302.095 -3.80574 1.47063 0
M  V30 3321 H 300.77 -3.31406 2.51283 0
M  V30 3322 H 299.347 -3.65994 0.714322 0
M  V30 3323 N 301.532 -0.945985 -1.26051 0
M  V30 3324 C 302.762 -0.612136 -1.97323 0
M  V30 3325 C 303.17 0.818171 -1.70595 0
M  V30 3326 O 302.513 1.55777 -0.973613 0
M  V30 3327 C 302.575 -0.780347 -3.50929 0
M  V30 3328 C 302.239 -2.18619 -4.01317 0
M  V30 3329 C 303.236 -3.16209 -4.12683 0
M  V30 3330 C 300.921 -2.50805 -4.35203 0
M  V30 3331 C 302.915 -4.44085 -4.57238 0
M  V30 3332 C 300.602 -3.78912 -4.79446 0
M  V30 3333 C 301.6 -4.75365 -4.90425 0
M  V30 3334 O 301.288 -6.01191 -5.3369 0
M  V30 3335 H 301.02 -0.229134 -0.635982 0
M  V30 3336 H 303.574 -1.27036 -1.61404 0
M  V30 3337 H 301.804 -0.0649864 -3.86645 0
M  V30 3338 H 303.493 -0.448842 -4.03411 0
M  V30 3339 H 304.259 -2.92668 -3.86744 0
M  V30 3340 H 300.138 -1.76463 -4.2589 0
M  V30 3341 H 303.682 -5.19373 -4.65723 0
M  V30 3342 H 299.579 -4.02265 -5.0483 0
M  V30 3343 H 300.347 -6.04442 -5.51899 0
M  V30 3344 N 303.011 1.40521 -0.713556 0
M  V30 3345 C 304.257 2.01221 -0.252564 0
M  V30 3346 C 304.59 1.56444 1.1506 0
M  V30 3347 O 303.865 0.783597 1.78017 0
M  V30 3348 C 304.148 3.58582 -0.330332 0
M  V30 3349 C 304.001 4.13437 -1.77173 0
M  V30 3350 C 305.32 4.39079 0.299641 0
M  V30 3351 H 302.439 0.731077 -0.0932471 0
M  V30 3352 H 305.081 1.67026 -0.905673 0
M  V30 3353 H 303.231 3.87844 0.225737 0
M  V30 3354 H 304.903 3.9498 -2.38303 0
M  V30 3355 H 303.146 3.67801 -2.3001 0
M  V30 3356 H 303.817 5.22597 -1.77755 0
M  V30 3357 H 306.293 4.15735 -0.174139 0
M  V30 3358 H 305.169 5.4848 0.214771 0
M  V30 3359 H 305.43 4.19915 1.38288 0
M  V30 3360 N 304.489 0.459591 1.5075 0
M  V30 3361 C 305.399 -0.34613 2.32033 0
M  V30 3362 C 306.415 -1.00686 1.41909 0
M  V30 3363 O 307.591 -0.997361 1.7497 0
M  V30 3364 C 304.656 -1.42029 3.16273 0
M  V30 3365 C 303.717 -0.777362 4.22203 0
M  V30 3366 C 302.95 -1.80034 5.02418 0
M  V30 3367 O 303.173 -3.02544 4.83553 0
M  V30 3368 O 302.107 -1.37853 5.85901 0
M  V30 3369 H 305.933 0.318054 3.0203 0
M  V30 3370 H 303.518 0.221663 1.47746 0
M  V30 3371 H 305.4 -2.04275 3.68578 0
M  V30 3372 H 304.075 -2.06815 2.49016 0
M  V30 3373 H 302.982 -0.116256 3.73919 0
M  V30 3374 H 304.315 -0.172634 4.91897 0
M  V30 3375 N 305.967 -1.56429 0.191757 0
M  V30 3376 C 306.897 -2.21937 -0.725696 0
M  V30 3377 C 307.878 -1.1814 -1.2238 0
M  V30 3378 O 309.063 -1.46636 -1.27325 0
M  V30 3379 C 306.193 -2.87611 -1.94672 0
M  V30 3380 C 305.147 -3.97623 -1.58366 0
M  V30 3381 C 304.473 -4.50446 -2.88102 0
M  V30 3382 C 305.773 -5.16197 -0.796133 0
M  V30 3383 H 307.467 -2.98861 -0.179606 0
M  V30 3384 H 305.013 -1.43749 -0.0849464 0
M  V30 3385 H 306.966 -3.3212 -2.59373 0
M  V30 3386 H 305.69 -2.08087 -2.51728 0
M  V30 3387 H 304.349 -3.53801 -0.960247 0
M  V30 3388 H 303.997 -3.67688 -3.43241 0
M  V30 3389 H 303.697 -5.24675 -2.64556 0
M  V30 3390 H 305.221 -4.97654 -3.53798 0
M  V30 3391 H 306.635 -5.57271 -1.34618 0
M  V30 3392 H 305.032 -5.96471 -0.658928 0
M  V30 3393 H 306.102 -4.84473 0.203478 0
M  V30 3394 N 307.445 0.0818655 -1.57387 0
M  V30 3395 C 308.692 0.782914 -1.86753 0
M  V30 3396 C 309.02 1.78082 -0.782118 0
M  V30 3397 O 308.275 1.94426 0.22295 0
M  V30 3398 C 308.574 1.53513 -3.22752 0
M  V30 3399 C 308.24 0.678134 -4.45771 0
M  V30 3400 C 306.902 0.441929 -4.79166 0
M  V30 3401 C 309.254 0.0832243 -5.21134 0
M  V30 3402 C 306.582 -0.398833 -5.85343 0
M  V30 3403 C 308.934 -0.744935 -6.28199 0
M  V30 3404 C 307.598 -0.991107 -6.60101 0
M  V30 3405 H 306.868 0.286489 -0.683378 0
M  V30 3406 H 309.515 0.0439808 -1.91449 0
M  V30 3407 H 307.82 2.34599 -3.138 0
M  V30 3408 H 309.517 2.08218 -3.42705 0
M  V30 3409 H 306.107 0.872357 -4.19628 0
M  V30 3410 H 310.291 0.252847 -4.95655 0
M  V30 3411 H 305.547 -0.598405 -6.08465 0
M  V30 3412 H 309.721 -1.21271 -6.8576 0
M  V30 3413 H 307.348 -1.64437 -7.42202 0
M  V30 3414 N 308.923 1.53595 0.353017 0
M  V30 3415 C 309.873 1.77299 1.43349 0
M  V30 3416 C 310.857 0.627884 1.48143 0
M  V30 3417 O 312.049 0.88697 1.53173 0
M  V30 3418 C 309.178 1.97757 2.80619 0
M  V30 3419 C 308.264 3.18305 2.80254 0
M  V30 3420 N 308.655 4.39967 2.49526 0
M  V30 3421 C 306.953 3.19283 3.11407 0
M  V30 3422 C 307.654 5.21772 2.57156 0
M  V30 3423 N 306.63 4.58269 2.92388 0
M  V30 3424 H 310.432 2.68963 1.18474 0
M  V30 3425 H 307.946 1.52391 0.561306 0
M  V30 3426 H 309.943 2.1287 3.58458 0
M  V30 3427 H 308.603 1.07329 3.06448 0
M  V30 3428 H 309.614 4.67482 2.22893 0
M  V30 3429 H 306.291 2.3879 3.4247 0
M  V30 3430 H 307.681 6.2885 2.36638 0
M  V30 3431 N 310.401 -0.613514 1.45168 0
M  V30 3432 C 311.333 -1.73825 1.4939 0
M  V30 3433 C 312.346 -1.58175 0.385304 0
M  V30 3434 O 313.535 -1.66165 0.652036 0
M  V30 3435 C 310.635 -3.11758 1.32891 0
M  V30 3436 C 309.808 -3.53704 2.57317 0
M  V30 3437 C 308.867 -4.70579 2.35462 0
M  V30 3438 O 307.893 -4.77996 3.09044 0
M  V30 3439 N 309.095 -5.63454 1.39644 0
M  V30 3440 H 311.86 -1.70669 2.46358 0
M  V30 3441 H 309.421 -0.79862 1.40832 0
M  V30 3442 H 311.413 -3.87692 1.1609 0
M  V30 3443 H 309.983 -3.09456 0.442218 0
M  V30 3444 H 309.203 -2.67794 2.89275 0
M  V30 3445 H 310.491 -3.78486 3.40038 0
M  V30 3446 H 309.889 -5.6017 0.789062 0
M  V30 3447 H 308.446 -6.38944 1.28816 0
M  V30 3448 N 311.879 -1.3236 -0.855495 0
M  V30 3449 C 312.829 -1.17809 -1.95205 0
M  V30 3450 C 313.813 -0.0852319 -1.60674 0
M  V30 3451 O 315.005 -0.311651 -1.74235 0
M  V30 3452 C 312.134 -0.902437 -3.31226 0
M  V30 3453 C 311.22 -2.03695 -3.7198 0
M  V30 3454 N 311.611 -3.28544 -3.84568 0
M  V30 3455 C 309.909 -1.93993 -4.016 0
M  V30 3456 C 310.61 -4.02847 -4.19629 0
M  V30 3457 N 309.586 -3.31138 -4.31102 0
M  V30 3458 H 313.388 -2.12462 -2.0307 0
M  V30 3459 H 310.902 -1.24127 -1.0472 0
M  V30 3460 H 312.899 -0.77915 -4.09554 0
M  V30 3461 H 311.559 0.0357267 -3.2468 0
M  V30 3462 H 312.57 -3.6349 -3.68911 0
M  V30 3463 H 309.247 -1.07733 -4.03361 0
M  V30 3464 H 310.637 -5.10506 -4.36845 0
M  V30 3465 N 313.357 1.07166 -1.15556 0
M  V30 3466 C 314.585 1.83514 -0.955519 0
M  V30 3467 C 315 1.82163 0.49621 0
M  V30 3468 O 314.357 1.23441 1.34419 0
M  V30 3469 C 314.408 3.30515 -1.46432 0
M  V30 3470 O 314.129 3.31937 -2.85918 0
M  V30 3471 C 315.63 4.23625 -1.30603 0
M  V30 3472 H 312.85 0.578926 -0.339244 0
M  V30 3473 H 315.394 1.35265 -1.53374 0
M  V30 3474 H 313.549 3.76106 -0.928584 0
M  V30 3475 H 313.963 4.23794 -3.09029 0
M  V30 3476 H 315.437 5.24831 -1.71047 0
M  V30 3477 H 315.914 4.38485 -0.250441 0
M  V30 3478 H 316.52 3.83871 -1.83094 0
M  V30 3479 N 314.835 0.952656 1.25548 0
M  V30 3480 C 315.783 0.462354 2.27958 0
M  V30 3481 C 316.777 -0.46634 1.62855 0
M  V30 3482 O 317.983 -0.343287 1.76696 0
M  V30 3483 H 314.358 0.13101 0.7405 0
M  V30 3484 H 316.329 1.33839 2.66702 0
M  V30 3485 C 315.078 -0.24628 3.46827 0
M  V30 3486 H 314.401 0.459192 3.97154 0
M  V30 3487 H 315.841 -0.553393 4.20373 0
M  V30 3488 C 314.3 -1.4681 3.0323 0
M  V30 3489 O 314.83 -2.56591 3.09069 0
M  V30 3490 N 313.036 -1.32874 2.58443 0
M  V30 3491 H 312.583 -0.435536 2.53891 0
M  V30 3492 H 312.541 -2.14742 2.29637 0
M  V30 3493 N 316.313 -1.40141 0.720998 0
M  V30 3494 C 317.26 -2.30688 0.071919 0
M  V30 3495 C 318.23 -1.48476 -0.744584 0
M  V30 3496 O 319.415 -1.77201 -0.707423 0
M  V30 3497 C 316.555 -3.34724 -0.839855 0
M  V30 3498 C 315.668 -4.31998 -0.0122438 0
M  V30 3499 C 314.803 -5.23102 -0.923995 0
M  V30 3500 C 313.842 -6.12033 -0.0907969 0
M  V30 3501 N 312.979 -6.95537 -0.957718 0
M  V30 3502 H 317.819 -2.85628 0.849755 0
M  V30 3503 H 315.356 -1.40653 0.430726 0
M  V30 3504 H 317.314 -3.93618 -1.38279 0
M  V30 3505 H 315.944 -2.81274 -1.58381 0
M  V30 3506 H 314.996 -3.74841 0.64794 0
M  V30 3507 H 316.308 -4.94772 0.632595 0
M  V30 3508 H 315.462 -5.86953 -1.53527 0
M  V30 3509 H 314.201 -4.60615 -1.60264 0
M  V30 3510 H 313.206 -5.47207 0.533377 0
M  V30 3511 H 314.431 -6.76581 0.584428 0
M  V30 3512 H 312.377 -6.35633 -1.62192 0
M  V30 3513 H 312.294 -7.55099 -0.36904 0
M  V30 3514 H 313.562 -7.63832 -1.555 0
M  V30 3515 N 317.792 -0.46758 -1.50504 0
M  V30 3516 C 319.039 0.0886219 -2.02306 0
M  V30 3517 C 319.367 1.40037 -1.34981 0
M  V30 3518 O 318.622 1.90136 -0.463318 0
M  V30 3519 C 318.921 0.323995 -3.55928 0
M  V30 3520 C 318.587 -0.905618 -4.41712 0
M  V30 3521 C 317.249 -1.24275 -4.64875 0
M  V30 3522 C 319.601 -1.72448 -4.91845 0
M  V30 3523 C 316.929 -2.39888 -5.35417 0
M  V30 3524 C 319.281 -2.87185 -5.63656 0
M  V30 3525 C 317.945 -3.21317 -5.85074 0
M  V30 3526 H 317.215 0.0324291 -0.74029 0
M  V30 3527 H 319.862 -0.620945 -1.81153 0
M  V30 3528 H 318.167 1.11577 -3.75577 0
M  V30 3529 H 319.864 0.76826 -3.93572 0
M  V30 3530 H 316.454 -0.632956 -4.239 0
M  V30 3531 H 320.638 -1.4772 -4.73806 0
M  V30 3532 H 315.894 -2.66611 -5.50208 0
M  V30 3533 H 320.068 -3.50985 -6.01484 0
M  V30 3534 H 317.695 -4.1101 -6.39511 0
M  V30 3535 N 319.27 1.56325 -0.20005 0
M  V30 3536 C 320.18 2.22931 0.730668 0
M  V30 3537 C 321.196 1.22997 1.23076 0
M  V30 3538 O 322.372 1.55748 1.27689 0
M  V30 3539 C 319.437 2.87948 1.93098 0
M  V30 3540 C 318.498 4.03166 1.47497 0
M  V30 3541 C 317.731 4.65073 2.61807 0
M  V30 3542 O 317.954 4.25913 3.79413 0
M  V30 3543 O 316.888 5.54452 2.34237 0
M  V30 3544 H 320.714 3.03084 0.193391 0
M  V30 3545 H 318.299 1.49371 0.0294621 0
M  V30 3546 H 320.181 3.29063 2.6324 0
M  V30 3547 H 318.856 2.10771 2.45677 0
M  V30 3548 H 317.763 3.66664 0.742201 0
M  V30 3549 H 319.096 4.82022 0.995796 0
M  V30 3550 N 320.748 -0.0735177 1.57428 0
M  V30 3551 C 321.996 -0.771472 1.86796 0
M  V30 3552 C 322.317 -1.78201 0.791804 0
M  V30 3553 O 321.587 -1.95074 -0.179718 0
M  V30 3554 H 320.167 -0.28791 0.689287 0
M  V30 3555 H 322.829 -0.0500161 1.94836 0
M  V30 3556 H 321.925 -1.28874 2.8425 0
M  V30 3557 N 322.226 -1.5378 -0.344866 0
M  V30 3558 C 323.472 -1.71216 -1.08687 0
M  V30 3559 C 323.805 -0.473281 -1.88345 0
M  V30 3560 O 323.08 0.52968 -1.87149 0
M  V30 3561 C 323.363 -2.97486 -2.02914 0
M  V30 3562 C 323.216 -4.31579 -1.26727 0
M  V30 3563 C 324.535 -3.19422 -3.0275 0
M  V30 3564 H 321.654 -0.62301 -0.393735 0
M  V30 3565 H 324.296 -1.8645 -0.365563 0
M  V30 3566 H 322.446 -2.84629 -2.64421 0
M  V30 3567 H 324.118 -4.56284 -0.67845 0
M  V30 3568 H 322.361 -4.30049 -0.569273 0
M  V30 3569 H 323.032 -5.16106 -1.95803 0
M  V30 3570 H 325.508 -3.316 -2.51357 0
M  V30 3571 H 324.384 -4.09169 -3.65885 0
M  V30 3572 H 324.645 -2.35656 -3.74057 0
M  V30 3573 N 323.704 0.605807 -1.45491 0
M  V30 3574 C 324.651 1.7164 -1.54299 0
M  V30 3575 C 325.621 1.61486 -0.388761 0
M  V30 3576 O 326.806 1.81039 -0.602445 0
M  V30 3577 C 323.946 3.09953 -1.51734 0
M  V30 3578 C 323.059 3.309 -2.77721 0
M  V30 3579 C 322.194 4.59329 -2.66816 0
M  V30 3580 C 321.233 4.7354 -3.87848 0
M  V30 3581 N 320.37 5.9327 -3.75467 0
M  V30 3582 H 325.21 1.63449 -2.49176 0
M  V30 3583 H 322.747 0.796957 -1.23641 0
M  V30 3584 H 324.705 3.89977 -1.48235 0
M  V30 3585 H 323.335 3.17098 -0.604068 0
M  V30 3586 H 322.387 2.44639 -2.913 0
M  V30 3587 H 323.699 3.37274 -3.67488 0
M  V30 3588 H 322.853 5.4755 -2.61292 0
M  V30 3589 H 321.592 4.55355 -1.74651 0
M  V30 3590 H 320.597 3.83741 -3.93729 0
M  V30 3591 H 321.822 4.79309 -4.81082 0
M  V30 3592 H 319.768 5.90338 -2.86072 0
M  V30 3593 H 319.685 6.00811 -4.5887 0
M  V30 3594 H 320.953 6.83984 -3.73879 0
M  V30 3595 N 325.182 1.32811 0.848464 0
M  V30 3596 C 326.092 1.24278 1.98978 0
M  V30 3597 C 327.108 0.155176 1.73307 0
M  V30 3598 O 328.284 0.376999 1.9784 0
M  V30 3599 C 325.349 0.972444 3.32783 0
M  V30 3600 C 324.41 2.14911 3.71634 0
M  V30 3601 C 323.643 1.89157 4.99054 0
M  V30 3602 O 323.866 0.837165 5.64223 0
M  V30 3603 O 322.8 2.75433 5.35183 0
M  V30 3604 H 326.626 2.20238 2.09115 0
M  V30 3605 H 324.211 1.12762 0.980052 0
M  V30 3606 H 326.093 0.838432 4.12975 0
M  V30 3607 H 324.768 0.043051 3.23671 0
M  V30 3608 H 323.675 2.33862 2.91992 0
M  V30 3609 H 325.008 3.06151 3.85399 0
M  V30 3610 N 326.66 -1.06551 1.16123 0
M  V30 3611 C 327.909 -1.78687 0.935622 0
M  V30 3612 C 328.222 -1.88056 -0.538001 0
M  V30 3613 O 329.428 -2.56794 -0.88143 0
M  V30 3614 C 327.884 -3.21143 1.62466 0
M  V30 3615 C 327.492 -3.19949 3.13587 0
M  V30 3616 C 329.236 -3.9783 1.48092 0
M  V30 3617 C 327.143 -4.57108 3.75241 0
M  V30 3618 H 326.073 -0.669712 0.346412 0
M  V30 3619 H 328.724 -1.19534 1.39226 0
M  V30 3620 H 327.106 -3.80539 1.09572 0
M  V30 3621 H 328.28 -2.70151 3.73303 0
M  V30 3622 H 326.595 -2.5676 3.27816 0
M  V30 3623 H 329.192 -4.99217 1.91538 0
M  V30 3624 H 329.535 -4.14078 0.429507 0
M  V30 3625 H 330.068 -3.4495 1.98127 0
M  V30 3626 H 326.807 -4.46065 4.80319 0
M  V30 3627 H 326.327 -5.07111 3.20309 0
M  V30 3628 H 328.006 -5.26069 3.76644 0
M  V30 3629 N 328.138 -0.959301 -1.25041 0
M  V30 3630 C 329.378 -0.624343 -1.94631 0
M  V30 3631 C 329.742 0.82403 -1.73418 0
M  V30 3632 O 330.943 1.26881 -2.3697 0
M  V30 3633 C 329.214 -0.978805 -3.43736 0
M  V30 3634 S 330.773 -0.757127 -4.32219 0
M  V30 3635 H 327.591 -0.229327 -0.673001 0
M  V30 3636 H 330.193 -1.23447 -1.51595 0
M  V30 3637 H 328.897 -2.02997 -3.56679 0
M  V30 3638 H 328.428 -0.359117 -3.91757 0
M  V30 3639 H 330.443 0.369759 -4.9482 0
M  V30 3640 N 329.616 1.39756 -0.72842 0
M  V30 3641 C 330.563 2.30647 -0.0841519 0
M  V30 3642 C 331.533 1.48869 0.7367 0
M  V30 3643 O 332.718 1.77574 0.698015 0
M  V30 3644 C 329.858 3.35165 0.822091 0
M  V30 3645 C 328.971 4.31999 -0.0106663 0
M  V30 3646 C 328.106 5.23585 0.896241 0
M  V30 3647 C 327.145 6.12072 0.0583381 0
M  V30 3648 N 326.282 6.96035 0.920818 0
M  V30 3649 H 331.122 2.85173 -0.864891 0
M  V30 3650 H 328.659 1.40422 -0.438179 0
M  V30 3651 H 330.617 3.94345 1.36189 0
M  V30 3652 H 329.247 2.8211 1.56888 0
M  V30 3653 H 328.299 3.74492 -0.66781 0
M  V30 3654 H 329.611 4.9443 -0.658825 0
M  V30 3655 H 328.765 5.87759 1.50412 0
M  V30 3656 H 327.504 4.61459 1.57819 0
M  V30 3657 H 326.509 5.46916 -0.562389 0
M  V30 3658 H 327.734 6.76261 -0.6203 0
M  V30 3659 H 325.68 6.36485 1.58818 0
M  V30 3660 H 325.597 7.55284 0.32899 0
M  V30 3661 H 326.865 7.64646 1.51447 0
M  V30 3662 N 331.094 0.475555 1.50254 0
M  V30 3663 C 332.324 -0.0753399 2.06463 0
M  V30 3664 C 332.732 -1.33661 1.33908 0
M  V30 3665 O 332.075 -1.79219 0.403257 0
M  V30 3666 C 332.137 -0.424921 3.5698 0
M  V30 3667 C 331.801 0.734965 4.51051 0
M  V30 3668 C 332.798 1.61827 4.94073 0
M  V30 3669 C 330.483 0.926557 4.9368 0
M  V30 3670 C 332.477 2.67754 5.78434 0
M  V30 3671 C 330.164 1.98904 5.77824 0
M  V30 3672 C 331.162 2.8629 6.20103 0
M  V30 3673 O 330.85 3.90708 7.02568 0
M  V30 3674 H 330.582 0.00576308 0.675975 0
M  V30 3675 H 333.136 0.664662 1.94349 0
M  V30 3676 H 331.366 -1.21817 3.67012 0
M  V30 3677 H 333.055 -0.911422 3.95535 0
M  V30 3678 H 333.821 1.48196 4.61804 0
M  V30 3679 H 329.7 0.25584 4.6029 0
M  V30 3680 H 333.244 3.35992 6.11355 0
M  V30 3681 H 329.141 2.12541 6.09505 0
M  V30 3682 H 329.909 3.87751 7.20827 0
M  V30 3683 N 332.573 -1.56217 0.208337 0
M  V30 3684 C 333.803 -2.02043 -0.431523 0
M  V30 3685 C 334.211 -1.08755 -1.54819 0
M  V30 3686 O 333.554 -0.0870009 -1.83494 0
M  V30 3687 C 333.616 -3.44239 -1.03633 0
M  V30 3688 C 333.28 -4.56965 -0.0567502 0
M  V30 3689 C 334.277 -5.14624 0.738773 0
M  V30 3690 C 331.962 -5.02266 0.0581736 0
M  V30 3691 C 333.956 -6.16045 1.63605 0
M  V30 3692 C 331.643 -6.03528 0.959001 0
M  V30 3693 C 332.641 -6.60293 1.7465 0
M  V30 3694 O 332.329 -7.59586 2.6322 0
M  V30 3695 H 332.061 -0.666772 -0.111313 0
M  V30 3696 H 334.615 -2.02919 0.318277 0
M  V30 3697 H 332.845 -3.40391 -1.83497 0
M  V30 3698 H 334.534 -3.73793 -1.58221 0
M  V30 3699 H 335.3 -4.80483 0.660364 0
M  V30 3700 H 331.179 -4.57771 -0.544633 0
M  V30 3701 H 334.723 -6.60279 2.25116 0
M  V30 3702 H 330.62 -6.37092 1.03848 0
M  V30 3703 H 331.388 -7.77057 2.57148 0
M  V30 3704 N 334.051 0.0651679 -1.57465 0
M  V30 3705 C 334.999 1.09542 -2.05191 0
M  V30 3706 C 335.993 1.39675 -0.958509 0
M  V30 3707 O 337.199 1.39003 -1.14359 0
M  V30 3708 H 333.574 0.370623 -0.654326 0
M  V30 3709 H 335.545 0.666802 -2.90854 0
M  V30 3710 C 334.294 2.39881 -2.51699 0
M  V30 3711 H 333.617 2.17547 -3.3543 0
M  V30 3712 H 335.057 3.104 -2.88839 0
M  V30 3713 C 333.516 3.0631 -1.40271 0
M  V30 3714 O 334.046 3.94664 -0.748523 0
M  V30 3715 N 332.252 2.67041 -1.14618 0
M  V30 3716 H 331.799 1.95281 -1.67997 0
M  V30 3717 H 331.757 3.1181 -0.402688 0
M  V30 3718 N 335.529 1.53961 0.336706 0
M  V30 3719 C 336.778 1.70751 1.07363 0
M  V30 3720 C 337.091 0.481061 1.89592 0
M  V30 3721 O 338.297 0.530046 2.66276 0
M  V30 3722 C 336.753 3.01965 1.95818 0
M  V30 3723 C 336.361 4.31971 1.18764 0
M  V30 3724 C 338.105 3.28121 2.69327 0
M  V30 3725 C 336.012 5.54255 2.06289 0
M  V30 3726 H 334.942 0.636292 0.404535 0
M  V30 3727 H 337.593 1.80459 0.332681 0
M  V30 3728 H 335.975 2.86132 2.7376 0
M  V30 3729 H 337.149 4.5853 0.456849 0
M  V30 3730 H 335.464 4.12481 0.569946 0
M  V30 3731 H 338.061 4.16673 3.35094 0
M  V30 3732 H 338.404 2.45426 3.36261 0
M  V30 3733 H 338.937 3.44762 1.98454 0
M  V30 3734 H 335.676 6.39513 1.43885 0
M  V30 3735 H 335.196 5.31935 2.77138 0
M  V30 3736 H 336.875 5.90159 2.65182 0
M  V30 3737 N 337.007 -0.598083 1.45811 0
M  V30 3738 C 338.232 -1.3881 1.54099 0
M  V30 3739 C 338.657 -1.8726 0.177578 0
M  V30 3740 O 338.015 -1.6069 -0.839541 0
M  V30 3741 C 338.063 -2.56217 2.53743 0
M  V30 3742 O 337.167 -3.5716 2.06182 0
M  V30 3743 H 336.508 -0.414024 0.519115 0
M  V30 3744 H 339.038 -0.726971 1.91249 0
M  V30 3745 H 339.048 -3.03337 2.72856 0
M  V30 3746 H 337.723 -2.20303 3.5276 0
M  V30 3747 H 336.3 -3.16624 1.96987 0
M  V30 3748 N 338.485 -1.33259 -0.841409 0
M  V30 3749 C 339.415 -1.25926 -1.96634 0
M  V30 3750 C 340.396 -0.140349 -1.6952 0
M  V30 3751 O 341.581 -0.329707 -1.91381 0
M  V30 3752 C 338.711 -0.99512 -3.32738 0
M  V30 3753 C 337.665 -2.0767 -3.74242 0
M  V30 3754 C 336.991 -1.66474 -5.08125 0
M  V30 3755 C 338.291 -3.49318 -3.88297 0
M  V30 3756 H 339.985 -2.20046 -2.03027 0
M  V30 3757 H 337.531 -1.05931 -0.975425 0
M  V30 3758 H 339.484 -0.930323 -4.11002 0
M  V30 3759 H 338.208 -0.0183004 -3.26595 0
M  V30 3760 H 336.867 -2.13187 -2.98239 0
M  V30 3761 H 336.515 -0.675012 -4.9845 0
M  V30 3762 H 336.215 -2.3885 -5.36865 0
M  V30 3763 H 337.739 -1.61455 -5.88867 0
M  V30 3764 H 339.153 -3.46316 -4.56879 0
M  V30 3765 H 337.55 -4.20158 -4.28471 0
M  V30 3766 H 338.62 -3.8801 -2.9082 0
M  V30 3767 N 339.963 1.05934 -1.16686 0
M  V30 3768 C 340.911 2.15603 -0.872817 0
M  V30 3769 C 341.905 1.68647 0.159576 0
M  V30 3770 O 343.111 1.79995 0.0132125 0
M  V30 3771 H 339.486 0.703885 -0.264671 0
M  V30 3772 H 341.457 2.37613 -1.80507 0
M  V30 3773 C 340.206 3.45457 -0.394344 0
M  V30 3774 H 339.529 3.81984 -1.18019 0
M  V30 3775 H 340.969 4.2339 -0.227408 0
M  V30 3776 C 339.428 3.25021 0.88673 0
M  V30 3777 O 339.958 3.50906 1.95519 0
M  V30 3778 N 338.164 2.78437 0.831925 0
M  V30 3779 H 337.711 2.57572 -0.0377619 0
M  V30 3780 H 337.669 2.65144 1.68956 0
M  V30 3781 N 341.441 0.965919 1.2453 0
M  V30 3782 C 342.389 0.486506 2.27455 0
M  V30 3783 C 343.383 -0.449041 1.6334 0
M  V30 3784 O 344.589 -0.324527 1.7705 0
M  V30 3785 H 340.964 0.138857 0.739069 0
M  V30 3786 H 342.935 1.3666 2.65267 0
M  V30 3787 C 341.684 -0.209481 3.47068 0
M  V30 3788 H 341.007 0.50129 3.96645 0
M  V30 3789 H 342.447 -0.508775 4.20936 0
M  V30 3790 C 340.906 -1.43586 3.0477 0
M  V30 3791 O 341.436 -2.53299 3.11773 0
M  V30 3792 N 339.642 -1.30126 2.59838 0
M  V30 3793 H 339.189 -0.408583 2.54339 0
M  V30 3794 H 339.147 -2.12294 2.31902 0
M  V30 3795 N 342.919 -1.39368 0.735821 0
M  V30 3796 C 343.882 -2.2896 0.104874 0
M  V30 3797 C 344.882 -1.46347 -0.666274 0
M  V30 3798 O 346.072 -1.67014 -0.49517 0
M  V30 3799 C 343.204 -3.29857 -0.860656 0
M  V30 3800 H 344.397 -2.86259 0.894205 0
M  V30 3801 H 341.95 -1.48029 0.501704 0
M  V30 3802 H 342.685 -2.77615 -1.67631 0
M  V30 3803 H 342.47 -3.9087 -0.310327 0
M  V30 3804 H 343.96 -3.96893 -1.29867 0
M  V30 3805 N 344.397 -0.483516 -1.5 0
M  V30 3806 C 345.327 0.293829 -2.31644 0
M  V30 3807 C 346.308 0.978864 -1.39112 0
M  V30 3808 O 347.493 0.973644 -1.68029 0
M  V30 3809 C 344.623 1.36897 -3.19181 0
M  V30 3810 C 343.577 0.804833 -4.20365 0
M  V30 3811 C 342.903 1.9792 -4.96721 0
M  V30 3812 C 344.203 -0.192313 -5.21946 0
M  V30 3813 H 345.897 -0.387616 -2.9688 0
M  V30 3814 H 343.443 -0.187856 -1.42769 0
M  V30 3815 H 345.396 1.92037 -3.751 0
M  V30 3816 H 344.12 2.07936 -2.51853 0
M  V30 3817 H 342.779 0.275319 -3.65565 0
M  V30 3818 H 342.427 2.67686 -4.25856 0
M  V30 3819 H 342.127 1.60789 -5.65173 0
M  V30 3820 H 343.651 2.53526 -5.55479 0
M  V30 3821 H 345.065 0.270333 -5.72662 0
M  V30 3822 H 343.462 -0.478543 -5.98189 0
M  V30 3823 H 344.532 -1.11409 -4.71928 0
M  V30 3824 N 345.875 1.56104 -0.216619 0
M  V30 3825 C 346.838 2.18819 0.681962 0
M  V30 3826 C 347.838 1.14866 1.12528 0
M  V30 3827 O 349.028 1.40128 1.03488 0
M  V30 3828 C 346.16 2.80756 1.93362 0
M  V30 3829 H 347.353 2.99595 0.135254 0
M  V30 3830 H 344.906 1.56265 0.0330003 0
M  V30 3831 H 345.641 2.03837 2.52232 0
M  V30 3832 H 345.426 3.56876 1.62426 0
M  V30 3833 H 346.916 3.28844 2.57393 0
M  V30 3834 N 347.353 -0.0568162 1.57498 0
M  V30 3835 C 348.286 -1.09817 2.00039 0
M  V30 3836 C 349.264 -1.3674 0.879819 0
M  V30 3837 O 350.448 -1.49863 1.14338 0
M  V30 3838 C 347.575 -2.43924 2.34986 0
M  V30 3839 C 346.621 -2.33039 3.57204 0
M  V30 3840 S 347.454 -1.7102 5.07457 0
M  V30 3841 C 348.61 -3.06674 5.45621 0
M  V30 3842 H 348.843 -0.735701 2.88053 0
M  V30 3843 H 346.376 -0.265871 1.52094 0
M  V30 3844 H 348.334 -3.2106 2.55795 0
M  V30 3845 H 346.995 -2.77327 1.47474 0
M  V30 3846 H 346.188 -3.31973 3.79223 0
M  V30 3847 H 345.79 -1.64043 3.36104 0
M  V30 3848 H 348.082 -4.03 5.44608 0
M  V30 3849 H 349.025 -2.8942 6.46252 0
M  V30 3850 H 349.433 -3.07969 4.73091 0
M  V30 3851 N 348.832 -1.54138 -0.328536 0
M  V30 3852 C 350.08 -1.71765 -1.06496 0
M  V30 3853 C 350.401 -0.49149 -1.88704 0
M  V30 3854 O 349.671 0.494539 -1.89555 0
M  V30 3855 H 348.251 -0.633295 -0.396164 0
M  V30 3856 H 350.913 -1.91429 -0.366176 0
M  V30 3857 H 350.009 -2.5951 -1.73381 0
M  V30 3858 N 350.31 0.590341 -1.46126 0
M  V30 3859 C 351.587 1.35029 -1.41515 0
M  V30 3860 C 351.967 2.10888 -0.0946472 0
M  V30 3861 O 351.315 2.08998 0.923693 0
M  V30 3862 C 351.525 2.28269 -2.63997 0
M  V30 3863 C 352.873 2.90338 -3.09821 0
M  V30 3864 O 353.897 2.38585 -2.64492 0
M  V30 3865 O 352.756 3.84321 -3.88535 0
M  V30 3866 H 349.85 0.606317 -0.562413 0
M  V30 3867 H 352.396 0.611994 -1.58281 0
M  V30 3868 H 351.168 1.71591 -3.51671 0
M  V30 3869 H 350.791 3.0945 -2.49652 0
M  V30 3870 N 351.788 1.33704 0.83433 0
M  V30 3871 C 353.036 1.25169 1.58673 0
M  V30 3872 C 353.357 -0.18127 1.94156 0
M  V30 3873 O 352.627 -1.11113 1.6134 0
M  V30 3874 H 351.207 0.4603 0.58833 0
M  V30 3875 H 353.869 1.67478 0.996847 0
M  V30 3876 H 352.965 1.84856 2.51465 0
M  V30 3877 N 353.266 -1.05314 1.17247 0
M  V30 3878 C 354.176 -2.16538 0.90268 0
M  V30 3879 C 355.192 -1.73523 -0.128707 0
M  V30 3880 O 356.368 -2.01337 0.0502701 0
M  V30 3881 C 353.433 -3.44167 0.418356 0
M  V30 3882 C 352.494 -4.01635 1.51618 0
M  V30 3883 C 351.727 -5.23171 1.05487 0
M  V30 3884 O 351.95 -5.70327 -0.0914715 0
M  V30 3885 O 350.884 -5.72848 1.8474 0
M  V30 3886 H 354.71 -2.42145 1.83302 0
M  V30 3887 H 352.295 -1.15037 0.953246 0
M  V30 3888 H 354.177 -4.21112 0.155726 0
M  V30 3889 H 352.852 -3.20063 -0.48385 0
M  V30 3890 H 351.759 -3.26135 1.83268 0
M  V30 3891 H 353.092 -4.30053 2.39405 0
M  V30 3892 N 354.744 -0.972509 -1.24016 0
M  V30 3893 C 355.692 -0.498562 -2.27194 0
M  V30 3894 C 356.686 0.440372 -1.63576 0
M  V30 3895 O 357.892 0.315133 -1.7722 0
M  V30 3896 H 354.267 -0.142775 -0.738322 0
M  V30 3897 H 356.238 -1.38065 -2.64539 0
M  V30 3898 C 354.987 0.191072 -3.47175 0
M  V30 3899 H 354.31 -0.522318 -3.96373 0
M  V30 3900 H 355.75 0.486445 -4.212 0
M  V30 3901 C 354.209 1.41967 -3.05527 0
M  V30 3902 O 354.739 2.51642 -3.13112 0
M  V30 3903 N 352.945 1.28746 -2.60524 0
M  V30 3904 H 352.492 0.395089 -2.54552 0
M  V30 3905 H 352.45 2.11061 -2.33025 0
M  V30 3906 N 356.222 1.38976 -0.743202 0
M  V30 3907 C 357.499 1.94351 -0.220705 0
M  V30 3908 C 357.879 1.67935 1.2791 0
M  V30 3909 O 357.227 1.01211 2.04862 0
M  V30 3910 C 357.437 3.44426 -0.563171 0
M  V30 3911 C 358.785 4.2144 -0.517046 0
M  V30 3912 O 359.809 3.52661 -0.500846 0
M  V30 3913 O 358.668 5.44032 -0.518806 0
M  V30 3914 H 355.762 0.825879 -0.043047 0
M  V30 3915 H 358.308 1.48429 -0.822618 0
M  V30 3916 H 357.08 3.5712 -1.59941 0
M  V30 3917 H 356.703 3.97543 0.0672883 0
M  V30 3918 N 357.7 0.491464 1.49741 0
M  V30 3919 C 358.949 -0.0582189 2.01616 0
M  V30 3920 C 359.262 -1.38927 1.3769 0
M  V30 3921 O 360.468 -2.02509 1.80838 0
M  V30 3922 C 358.924 -0.154235 3.59569 0
M  V30 3923 C 358.532 1.1696 4.32463 0
M  V30 3924 C 360.276 -0.65479 4.1942 0
M  V30 3925 C 358.183 1.03627 5.8225 0
M  V30 3926 H 357.113 -0.0255317 0.753568 0
M  V30 3927 H 359.764 0.629445 1.72367 0
M  V30 3928 H 358.146 -0.906138 3.85493 0
M  V30 3929 H 359.32 1.93405 4.18248 0
M  V30 3930 H 357.635 1.60285 3.84315 0
M  V30 3931 H 360.232 -0.771903 5.29099 0
M  V30 3932 H 360.575 -1.65127 3.8215 0
M  V30 3933 H 361.108 0.040304 3.9778 0
M  V30 3934 H 357.847 2.00672 6.24028 0
M  V30 3935 H 357.367 0.312546 5.98985 0
M  V30 3936 H 359.046 0.711114 6.4308 0
M  V30 3937 N 359.178 -1.55987 0.224894 0
M  V30 3938 C 360.088 -2.24066 -0.69511 0
M  V30 3939 C 361.104 -1.24939 -1.21104 0
M  V30 3940 O 362.28 -1.5776 -1.25195 0
M  V30 3941 C 359.345 -2.90983 -1.88493 0
M  V30 3942 C 358.406 -4.05462 -1.41064 0
M  V30 3943 C 357.639 -4.69179 -2.54375 0
M  V30 3944 O 357.862 -4.31895 -3.72589 0
M  V30 3945 O 356.796 -5.58108 -2.25386 0
M  V30 3946 H 360.622 -3.03353 -0.145149 0
M  V30 3947 H 358.207 -1.49399 -0.00569476 0
M  V30 3948 H 360.089 -3.33209 -2.57972 0
M  V30 3949 H 358.764 -2.14653 -2.42293 0
M  V30 3950 H 357.671 -3.67798 -0.683774 0
M  V30 3951 H 359.004 -4.83545 -0.918985 0
M  V30 3952 N 360.656 0.0484629 -1.57525 0
M  V30 3953 C 361.589 1.08755 -2.00618 0
M  V30 3954 C 362.567 1.36272 -0.887058 0
M  V30 3955 O 363.751 1.49255 -1.15131 0
M  V30 3956 C 360.878 2.42675 -2.36277 0
M  V30 3957 C 359.924 2.31142 -3.58435 0
M  V30 3958 S 360.757 1.68326 -5.08357 0
M  V30 3959 C 361.913 3.03776 -5.47239 0
M  V30 3960 H 362.146 0.720415 -2.88439 0
M  V30 3961 H 359.679 0.257801 -1.52233 0
M  V30 3962 H 361.637 3.19699 -2.57494 0
M  V30 3963 H 360.298 2.76541 -1.48942 0
M  V30 3964 H 359.491 3.29957 -3.80978 0
M  V30 3965 H 359.093 1.62258 -3.36969 0
M  V30 3966 H 361.385 4.00106 -5.46737 0
M  V30 3967 H 362.328 2.85988 -6.47778 0
M  V30 3968 H 362.736 3.05456 -4.74718 0
M  V30 3969 N 362.134 1.5431 0.320358 0
M  V30 3970 C 363.064 1.86912 1.3995 0
M  V30 3971 C 364.045 0.726211 1.53819 0
M  V30 3972 O 365.23 0.980233 1.67646 0
M  V30 3973 C 362.36 2.09932 2.7667 0
M  V30 3974 C 361.314 3.25776 2.77586 0
M  V30 3975 C 360.64 3.34173 4.17412 0
M  V30 3976 C 361.94 4.6335 2.41048 0
M  V30 3977 H 363.634 2.77292 1.12914 0
M  V30 3978 H 361.18 1.33421 0.541738 0
M  V30 3979 H 363.133 2.31324 3.52232 0
M  V30 3980 H 361.857 1.16304 3.0519 0
M  V30 3981 H 360.516 3.04276 2.04479 0
M  V30 3982 H 360.164 2.38098 4.43078 0
M  V30 3983 H 359.864 4.12033 4.18931 0
M  V30 3984 H 361.388 3.57803 4.94782 0
M  V30 3985 H 362.802 4.84602 3.06324 0
M  V30 3986 H 361.199 5.43782 2.53813 0
M  V30 3987 H 362.269 4.65381 1.36193 0
M  V30 3988 N 363.613 -0.582584 1.46437 0
M  V30 3989 C 364.838 -1.37168 1.55563 0
M  V30 3990 C 365.263 -1.87061 0.19743 0
M  V30 3991 O 364.621 -1.61572 -0.822451 0
M  V30 3992 C 364.669 -2.53511 2.56446 0
M  V30 3993 O 363.773 -3.54953 2.09958 0
M  V30 3994 H 363.114 -0.408494 0.523477 0
M  V30 3995 H 365.644 -0.706646 1.9201 0
M  V30 3996 H 365.654 -3.00426 2.76058 0
M  V30 3997 H 364.329 -2.16549 3.55076 0
M  V30 3998 H 362.906 -3.14516 2.00334 0
M  V30 3999 N 365.091 -1.34144 -0.827227 0
M  V30 4000 C 366.339 -1.26009 -1.58007 0
M  V30 4001 C 366.66 0.170971 -1.94249 0
M  V30 4002 O 365.93 1.10256 -1.61927 0
M  V30 4003 H 364.51 -0.463414 -0.585881 0
M  V30 4004 H 367.172 -1.68005 -0.987951 0
M  V30 4005 H 366.268 -1.86187 -2.50481 0
M  V30 4006 N 366.569 1.04691 -1.17803 0
M  V30 4007 C 367.499 2.14494 -0.92275 0
M  V30 4008 C 368.48 1.69546 0.137179 0
M  V30 4009 O 369.665 1.94195 -0.0141108 0
M  V30 4010 C 366.795 3.44491 -0.440803 0
M  V30 4011 C 365.749 4.03031 -1.4405 0
M  V30 4012 C 365.075 5.28432 -0.81631 0
M  V30 4013 C 366.375 4.39932 -2.81527 0
M  V30 4014 H 368.069 2.36107 -1.84103 0
M  V30 4015 H 365.615 1.1347 -0.886599 0
M  V30 4016 H 367.568 4.2066 -0.249602 0
M  V30 4017 H 366.292 3.22546 0.513025 0
M  V30 4018 H 364.951 3.28937 -1.61853 0
M  V30 4019 H 364.599 5.02792 0.144511 0
M  V30 4020 H 364.299 5.68559 -1.48371 0
M  V30 4021 H 365.823 6.07284 -0.635496 0
M  V30 4022 H 367.237 5.07113 -2.67412 0
M  V30 4023 H 365.634 4.9109 -3.44892 0
M  V30 4024 H 366.704 3.50045 -3.35554 0
M  V30 4025 N 368.047 0.979072 1.23499 0
M  V30 4026 C 369.275 0.665202 1.95915 0
M  V30 4027 C 369.69 -0.767571 1.72493 0
M  V30 4028 O 369.047 -1.51635 1.01554 0
M  V30 4029 C 369.098 0.944438 3.48945 0
M  V30 4030 O 368.819 2.3209 3.71572 0
M  V30 4031 C 370.32 0.646336 4.38563 0
M  V30 4032 H 367.54 0.247218 0.623798 0
M  V30 4033 H 370.084 1.31009 1.57025 0
M  V30 4034 H 368.239 0.345575 3.85856 0
M  V30 4035 H 368.653 2.40957 4.65876 0
M  V30 4036 H 370.127 0.892091 5.44744 0
M  V30 4037 H 370.604 -0.419575 4.37191 0
M  V30 4038 H 371.21 1.22562 4.07258 0
M  V30 4039 N 369.525 -1.3858 0.750561 0
M  V30 4040 C 370.475 -2.27795 0.0965949 0
M  V30 4041 C 371.459 -1.45048 -0.696411 0
M  V30 4042 O 372.651 -1.67812 -0.562863 0
M  V30 4043 C 369.78 -3.33894 -0.798085 0
M  V30 4044 C 368.866 -4.241 0.0016067 0
M  V30 4045 N 369.257 -4.95067 1.03647 0
M  V30 4046 C 367.555 -4.45429 -0.225674 0
M  V30 4047 C 368.256 -5.61489 1.52004 0
M  V30 4048 N 367.232 -5.37135 0.835874 0
M  V30 4049 H 371.034 -2.80125 0.889228 0
M  V30 4050 H 368.548 -1.51446 0.586323 0
M  V30 4051 H 370.545 -3.96693 -1.28219 0
M  V30 4052 H 369.205 -2.83123 -1.5897 0
M  V30 4053 H 370.216 -4.98104 1.41819 0
M  V30 4054 H 366.893 -4.05571 -0.990872 0
M  V30 4055 H 368.283 -6.28264 2.38188 0
M  V30 4056 N 371.003 -0.499398 -1.49478 0
M  V30 4057 C 372.228 0.044722 -2.07352 0
M  V30 4058 C 372.653 1.30207 -1.35749 0
M  V30 4059 O 372.011 1.76516 -0.413732 0
M  V30 4060 C 372.059 0.283013 -3.59488 0
M  V30 4061 O 371.163 1.35804 -3.89398 0
M  V30 4062 H 370.504 -0.0255147 -0.66351 0
M  V30 4063 H 373.034 -0.698561 -1.92305 0
M  V30 4064 H 373.044 0.515007 -4.04737 0
M  V30 4065 H 371.719 -0.635636 -4.11014 0
M  V30 4066 H 370.296 1.11113 -3.55961 0
M  V30 4067 N 372.481 1.55866 -0.233164 0
M  V30 4068 C 373.727 1.98897 0.395959 0
M  V30 4069 C 374.06 1.12091 1.58585 0
M  V30 4070 O 373.335 0.181182 1.93654 0
M  V30 4071 C 373.618 3.50658 0.819224 0
M  V30 4072 C 373.471 4.48233 -0.375109 0
M  V30 4073 C 374.79 4.07135 1.67121 0
M  V30 4074 H 371.909 0.723102 0.142451 0
M  V30 4075 H 374.551 1.87082 -0.331725 0
M  V30 4076 H 372.701 3.60857 1.43925 0
M  V30 4077 H 374.373 4.50031 -1.01341 0
M  V30 4078 H 372.616 4.21624 -1.02058 0
M  V30 4079 H 373.287 5.51988 -0.0358328 0
M  V30 4080 H 375.763 3.99952 1.14795 0
M  V30 4081 H 374.639 5.13615 1.93625 0
M  V30 4082 H 374.9 3.54736 2.63846 0
M  V30 4083 N 373.959 -0.0401083 1.57549 0
M  V30 4084 C 375.207 -0.731677 1.8839 0
M  V30 4085 C 375.528 -1.76481 0.829425 0
M  V30 4086 O 374.798 -1.95411 -0.1383 0
M  V30 4087 H 373.378 -0.273225 0.695239 0
M  V30 4088 H 376.04 -0.00867725 1.94898 0
M  V30 4089 H 375.136 -1.22816 2.86919 0
M  V30 4090 N 375.437 -1.54477 -0.31217 0
M  V30 4091 C 376.683 -1.73483 -1.0503 0
M  V30 4092 C 377.016 -0.513125 -1.87298 0
M  V30 4093 O 376.291 0.489864 -1.8823 0
M  V30 4094 C 376.574 -3.01723 -1.96558 0
M  V30 4095 C 376.427 -4.3417 -1.17545 0
M  V30 4096 C 377.746 -3.25772 -2.95907 0
M  V30 4097 H 374.865 -0.631222 -0.380432 0
M  V30 4098 H 377.507 -1.87184 -0.325932 0
M  V30 4099 H 375.657 -2.90174 -2.58324 0
M  V30 4100 H 377.329 -4.5762 -0.581513 0
M  V30 4101 H 375.572 -4.31159 -0.477925 0
M  V30 4102 H 376.243 -5.20143 -1.84811 0
M  V30 4103 H 378.719 -3.36857 -2.44267 0
M  V30 4104 H 377.595 -4.16838 -3.57123 0
M  V30 4105 H 377.856 -2.43537 -3.68974 0
M  V30 4106 N 376.915 0.57481 -1.46744 0
M  V30 4107 C 377.865 1.67838 -1.54319 0
M  V30 4108 C 378.849 1.55759 -0.40346 0
M  V30 4109 O 380.041 1.6454 -0.652347 0
M  V30 4110 C 377.17 3.06624 -1.5439 0
M  V30 4111 C 376.256 3.23971 -2.73685 0
M  V30 4112 N 376.647 3.11447 -3.9854 0
M  V30 4113 C 374.945 3.5493 -2.70075 0
M  V30 4114 C 375.646 3.31011 -4.78337 0
M  V30 4115 N 374.622 3.56533 -4.10348 0
M  V30 4116 H 378.424 1.56698 -2.48642 0
M  V30 4117 H 375.938 0.779071 -1.42493 0
M  V30 4118 H 377.935 3.85839 -1.57905 0
M  V30 4119 H 376.595 3.1889 -0.611493 0
M  V30 4120 H 377.606 2.89145 -4.29669 0
M  V30 4121 H 374.283 3.73832 -1.85893 0
M  V30 4122 H 375.673 3.26445 -5.87268 0
M  V30 4123 N 378.394 1.34581 0.820102 0
M  V30 4124 C 379.342 1.26401 1.95258 0
M  V30 4125 C 380.336 0.161553 1.68628 0
M  V30 4126 O 381.542 0.326703 1.7701 0
M  V30 4127 H 377.917 0.392749 0.64129 0
M  V30 4128 H 379.888 2.22105 1.99279 0
M  V30 4129 C 378.637 1.03919 3.31807 0
M  V30 4130 H 377.96 1.87984 3.52848 0
M  V30 4131 H 379.4 1.02232 4.11491 0
M  V30 4132 C 377.859 -0.257433 3.35915 0
M  V30 4133 O 378.389 -1.25784 3.81499 0
M  V30 4134 N 376.595 -0.291524 2.89134 0
M  V30 4135 H 376.142 0.523161 2.52232 0
M  V30 4136 H 376.1 -1.15883 2.92264 0
M  V30 4137 N 379.872 -1.04064 1.18357 0
M  V30 4138 C 380.835 -2.10243 0.912707 0
M  V30 4139 C 381.835 -1.60477 -0.101928 0
M  V30 4140 O 383.025 -1.73703 0.131517 0
M  V30 4141 C 380.157 -3.38893 0.369387 0
M  V30 4142 H 381.35 -2.35706 1.85426 0
M  V30 4143 H 378.903 -1.20489 0.995594 0
M  V30 4144 H 379.638 -3.19094 -0.578776 0
M  V30 4145 H 379.423 -3.76331 1.1008 0
M  V30 4146 H 380.913 -4.17128 0.198575 0
M  V30 4147 N 381.35 -0.985608 -1.22978 0
M  V30 4148 C 382.575 -0.675254 -1.961 0
M  V30 4149 C 383 0.752154 -1.72407 0
M  V30 4150 O 382.358 1.5131 -0.998751 0
M  V30 4151 C 382.406 -0.977899 -3.47087 0
M  V30 4152 O 381.51 -0.072685 -4.12336 0
M  V30 4153 H 380.851 -0.253443 -0.613728 0
M  V30 4154 H 383.381 -1.32061 -1.56272 0
M  V30 4155 H 383.391 -0.916739 -3.97567 0
M  V30 4156 H 382.066 -2.01807 -3.63657 0
M  V30 4157 H 380.643 -0.188703 -3.72422 0
M  V30 4158 N 382.828 1.3818 -0.7579 0
M  V30 4159 C 383.738 2.3421 -0.135247 0
M  V30 4160 C 384.754 1.59487 0.695683 0
M  V30 4161 O 385.93 1.91657 0.618832 0
M  V30 4162 C 382.995 3.3862 0.744139 0
M  V30 4163 C 382.056 4.2918 -0.101658 0
M  V30 4164 C 381.289 5.28603 0.735851 0
M  V30 4165 O 381.512 5.35166 1.97366 0
M  V30 4166 O 380.446 6.01707 0.152372 0
M  V30 4167 H 384.272 2.8916 -0.928436 0
M  V30 4168 H 381.857 1.40101 -0.518855 0
M  V30 4169 H 383.739 4.02539 1.2466 0
M  V30 4170 H 382.414 2.86019 1.51575 0
M  V30 4171 H 381.321 3.68407 -0.650167 0
M  V30 4172 H 382.654 4.85048 -0.836024 0
M  V30 4173 N 384.306 0.507319 1.49211 0
M  V30 4174 C 385.253 -0.267728 2.29242 0
M  V30 4175 C 386.223 -0.954609 1.35928 0
M  V30 4176 O 387.408 -0.960046 1.64887 0
M  V30 4177 C 384.548 -1.32243 3.18756 0
M  V30 4178 C 383.661 -0.64669 4.27132 0
M  V30 4179 C 382.796 -1.68238 5.03855 0
M  V30 4180 C 381.835 -0.98885 6.0406 0
M  V30 4181 N 380.972 -1.96903 6.73924 0
M  V30 4182 H 385.812 0.420968 2.95012 0
M  V30 4183 H 383.349 0.219443 1.45454 0
M  V30 4184 H 385.307 -1.94599 3.69036 0
M  V30 4185 H 383.937 -1.97981 2.54958 0
M  V30 4186 H 382.989 0.0902926 3.80293 0
M  V30 4187 H 384.301 -0.101058 4.98698 0
M  V30 4188 H 383.455 -2.38081 5.58034 0
M  V30 4189 H 382.194 -2.26187 4.32077 0
M  V30 4190 H 381.199 -0.276222 5.49106 0
M  V30 4191 H 382.424 -0.415767 6.77826 0
M  V30 4192 H 380.37 -2.53803 6.04913 0
M  V30 4193 H 380.287 -1.47423 7.41487 0
M  V30 4194 H 381.555 -2.66015 7.32705 0
M  V30 4195 N 385.784 -1.5574 0.241426 0
M  V30 4196 C 387.03 -1.99104 -0.385406 0
M  V30 4197 C 387.363 -1.1293 -1.57988 0
M  V30 4198 O 386.638 -0.191449 -1.93555 0
M  V30 4199 C 386.921 -3.51087 -0.800616 0
M  V30 4200 C 386.774 -4.48028 0.398874 0
M  V30 4201 C 388.093 -4.08015 -1.64959 0
M  V30 4202 H 385.212 -0.723848 -0.138614 0
M  V30 4203 H 387.854 -1.86903 0.341642 0
M  V30 4204 H 386.004 -3.61615 -1.4201 0
M  V30 4205 H 387.676 -4.49487 1.03726 0
M  V30 4206 H 385.919 -4.21077 1.04293 0
M  V30 4207 H 386.59 -5.51962 0.0651056 0
M  V30 4208 H 389.066 -4.00555 -1.12672 0
M  V30 4209 H 387.942 -5.14635 -1.90898 0
M  V30 4210 H 388.203 -3.56131 -2.61961 0
M  V30 4211 N 387.262 0.0317525 -1.57568 0
M  V30 4212 C 388.209 1.0332 -2.06382 0
M  V30 4213 C 389.179 1.36082 -0.952414 0
M  V30 4214 O 390.364 1.46466 -1.2228 0
M  V30 4215 C 387.504 2.32989 -2.54578 0
M  V30 4216 C 386.617 2.0641 -3.79498 0
M  V30 4217 C 385.752 3.2993 -4.16317 0
M  V30 4218 C 384.791 2.98893 -5.34162 0
M  V30 4219 N 383.928 4.14857 -5.66426 0
M  V30 4220 H 388.768 0.609982 -2.9169 0
M  V30 4221 H 386.305 0.289573 -1.44222 0
M  V30 4222 H 388.263 3.0875 -2.80587 0
M  V30 4223 H 386.893 2.73039 -1.7219 0
M  V30 4224 H 385.945 1.21158 -3.6059 0
M  V30 4225 H 387.257 1.79513 -4.65378 0
M  V30 4226 H 386.411 4.1406 -4.4344 0
M  V30 4227 H 385.15 3.59938 -3.29083 0
M  V30 4228 H 384.155 2.13164 -5.06795 0
M  V30 4229 H 385.38 2.70165 -6.23047 0
M  V30 4230 H 383.326 4.44821 -4.82151 0
M  V30 4231 H 383.243 3.91374 -6.4681 0
M  V30 4232 H 384.511 4.99868 -5.98124 0
M  V30 4233 N 388.74 1.54641 0.303973 0
M  V30 4234 C 389.688 1.86137 1.39484 0
M  V30 4235 C 390.682 0.734854 1.52631 0
M  V30 4236 O 391.888 0.918803 1.54784 0
M  V30 4237 H 388.263 0.590324 0.465856 0
M  V30 4238 H 390.234 2.77324 1.10154 0
M  V30 4239 C 388.983 2.12274 2.75382 0
M  V30 4240 H 388.306 2.98429 2.66046 0
M  V30 4241 H 389.746 2.38254 3.5073 0
M  V30 4242 C 388.205 0.920365 3.24085 0
M  V30 4243 O 388.735 0.139377 4.01458 0
M  V30 4244 N 386.941 0.726566 2.81371 0
M  V30 4245 H 386.488 1.36332 2.18567 0
M  V30 4246 H 386.446 -0.0763799 3.14307 0
M  V30 4247 N 390.218 -0.567019 1.47046 0
M  V30 4248 C 391.443 -1.3551 1.57009 0
M  V30 4249 C 391.868 -1.86841 0.217259 0
M  V30 4250 O 391.226 -1.62435 -0.805268 0
M  V30 4251 C 391.274 -2.50777 2.5912 0
M  V30 4252 O 390.378 -3.52706 2.13711 0
M  V30 4253 H 389.719 -0.402919 0.52778 0
M  V30 4254 H 392.249 -0.686241 1.92748 0
M  V30 4255 H 392.259 -2.97481 2.79229 0
M  V30 4256 H 390.934 -2.12771 3.57353 0
M  V30 4257 H 389.511 -3.12374 2.03659 0
M  V30 4258 N 391.696 -1.35014 -0.812953 0
M  V30 4259 C 392.659 -1.27292 -1.90602 0
M  V30 4260 C 393.659 -0.185817 -1.59723 0
M  V30 4261 O 394.849 -0.439102 -1.68575 0
M  V30 4262 C 391.981 -0.967676 -3.26877 0
M  V30 4263 H 393.174 -2.24479 -1.9887 0
M  V30 4264 H 390.727 -1.19446 -1.00808 0
M  V30 4265 H 391.462 0.0005954 -3.243 0
M  V30 4266 H 391.247 -1.75412 -3.50675 0
M  V30 4267 H 392.737 -0.939085 -4.06904 0
M  V30 4268 N 393.175 1.03435 -1.18907 0
M  V30 4269 C 394.138 2.09756 -0.923844 0
M  V30 4270 C 395.138 1.60528 0.093416 0
M  V30 4271 O 396.328 1.73631 -0.140727 0
M  V30 4272 C 393.46 3.38692 -0.387354 0
M  V30 4273 H 394.653 2.34719 -1.86674 0
M  V30 4274 H 392.206 1.19959 -1.00197 0
M  V30 4275 H 392.941 3.19396 0.561845 0
M  V30 4276 H 392.726 3.75742 -1.12074 0
M  V30 4277 H 394.216 4.17016 -0.220694 0
M  V30 4278 N 394.653 0.992116 1.22453 0
M  V30 4279 C 395.883 0.684949 1.94915 0
M  V30 4280 C 396.291 -0.754292 1.73514 0
M  V30 4281 O 395.634 -1.52056 1.03076 0
M  V30 4282 C 395.696 0.910054 3.47791 0
M  V30 4283 C 395.36 2.33363 3.92926 0
M  V30 4284 C 396.357 3.31308 4.00663 0
M  V30 4285 C 394.042 2.66785 4.25595 0
M  V30 4286 C 396.036 4.6075 4.40441 0
M  V30 4287 C 393.723 3.96446 4.65053 0
M  V30 4288 C 394.721 4.9324 4.72444 0
M  V30 4289 O 394.409 6.20584 5.1101 0
M  V30 4290 H 394.141 0.25258 0.62704 0
M  V30 4291 H 396.695 1.32939 1.56577 0
M  V30 4292 H 394.925 0.208443 3.86138 0
M  V30 4293 H 396.614 0.598257 4.01467 0
M  V30 4294 H 397.38 3.0682 3.75615 0
M  V30 4295 H 393.259 1.92148 4.19047 0
M  V30 4296 H 396.803 5.363 4.46126 0
M  V30 4297 H 392.7 4.20724 4.89552 0
M  V30 4298 H 393.468 6.24509 5.29085 0
M  V30 4299 N 396.131 -1.37776 0.765217 0
M  V30 4300 C 397.377 -2.00145 0.327072 0
M  V30 4301 C 397.71 -1.60607 -1.09175 0
M  V30 4302 O 396.985 -0.849127 -1.74986 0
M  V30 4303 C 397.268 -3.57109 0.46319 0
M  V30 4304 C 397.121 -4.06576 1.92395 0
M  V30 4305 C 398.44 -4.39888 -0.136473 0
M  V30 4306 H 395.559 -0.727113 0.120316 0
M  V30 4307 H 398.201 -1.63549 0.967039 0
M  V30 4308 H 396.351 -3.88414 -0.0816358 0
M  V30 4309 H 398.023 -3.85864 2.52798 0
M  V30 4310 H 396.266 -3.59011 2.43503 0
M  V30 4311 H 396.937 -5.15639 1.97028 0
M  V30 4312 H 399.413 -4.14803 0.328317 0
M  V30 4313 H 398.289 -5.48899 -0.0110582 0
M  V30 4314 H 398.55 -4.24758 -1.22608 0
M  V30 4315 N 397.609 -0.515225 -1.4894 0
M  V30 4316 C 398.857 0.0241671 -2.02086 0
M  V30 4317 C 399.178 1.3616 -1.3959 0
M  V30 4318 O 398.448 1.87841 -0.556121 0
M  V30 4319 H 397.028 0.0119203 -0.746905 0
M  V30 4320 H 399.69 -0.675702 -1.82812 0
M  V30 4321 H 398.786 0.143385 -3.1177 0
M  V30 4322 N 399.087 1.5561 -0.249682 0
M  V30 4323 C 400.498 1.84979 0.252949 0
M  V30 4324 C 400.849 1.17153 1.57384 0
M  V30 4325 O 399.974 0.450884 2.11651 0
M  V30 4326 C 400.569 3.35584 0.465732 0
M  V30 4327 C 399.128 3.65169 0.912624 0
M  V30 4328 C 398.275 2.77299 -0.00859085 0
M  V30 4329 H 401.226 1.51513 -0.47217 0
M  V30 4330 H 401.247 3.57313 1.30795 0
M  V30 4331 H 400.759 3.8492 -0.49579 0
M  V30 4332 H 398.86 3.21312 1.88652 0
M  V30 4333 H 398.973 4.72912 0.767559 0
M  V30 4334 H 397.337 2.49678 0.50327 0
M  V30 4335 H 398.12 3.29442 -0.965537 0
M  V30 4336 N 400.565 -0.0233959 1.57583 0
M  V30 4337 C 401.79 -0.728376 1.94189 0
M  V30 4338 C 402.215 -1.67793 0.850119 0
M  V30 4339 O 401.573 -1.80262 -0.19371 0
M  V30 4340 C 401.621 -1.45669 3.29868 0
M  V30 4341 O 400.725 -2.57013 3.22518 0
M  V30 4342 H 400.066 -0.195493 0.63457 0
M  V30 4343 H 402.596 0.0228214 2.04587 0
M  V30 4344 H 402.606 -1.82535 3.6489 0
M  V30 4345 H 401.281 -0.760314 4.08891 0
M  V30 4346 H 399.858 -2.22648 2.99136 0
M  V30 4347 N 402.043 -1.548 -0.295768 0
M  V30 4348 C 402.991 -1.86874 -1.38495 0
M  V30 4349 C 403.985 -0.742938 -1.52239 0
M  V30 4350 O 405.191 -0.926999 -1.54294 0
M  V30 4351 H 401.566 -0.592786 -0.462719 0
M  V30 4352 H 403.537 -2.77904 -1.08682 0
M  V30 4353 C 402.286 -2.13732 -2.74252 0
M  V30 4354 H 401.609 -2.99835 -2.64459 0
M  V30 4355 H 403.049 -2.4011 -3.49461 0
M  V30 4356 C 401.508 -0.937539 -3.23592 0
M  V30 4357 O 402.038 -0.160665 -4.01379 0
M  V30 4358 N 400.244 -0.741478 -2.80981 0
M  V30 4359 H 399.791 -1.37489 -2.1784 0
M  V30 4360 H 399.749 0.0597103 -3.14343 0
M  V30 4361 N 403.521 0.559213 -1.47345 0
M  V30 4362 C 404.469 1.68747 -1.60085 0
M  V30 4363 C 405.463 1.628 -0.46825 0
M  V30 4364 O 406.669 1.68009 -0.645977 0
M  V30 4365 H 403.044 0.558329 -0.503759 0
M  V30 4366 H 405.015 1.55138 -2.54902 0
M  V30 4367 C 403.764 3.07103 -1.63042 0
M  V30 4368 H 403.087 3.12361 -2.49541 0
M  V30 4369 H 404.527 3.85743 -1.76006 0
M  V30 4370 C 402.986 3.34935 -0.363357 0
M  V30 4371 O 403.516 3.98102 0.536416 0
M  V30 4372 N 401.722 2.89574 -0.244 0
M  V30 4373 H 401.269 2.38348 -0.977133 0
M  V30 4374 H 401.227 3.08566 0.602836 0
M  V30 4375 N 404.999 1.35443 0.805782 0
M  V30 4376 C 405.909 1.30546 1.94923 0
M  V30 4377 C 406.925 0.210233 1.72725 0
M  V30 4378 O 408.101 0.43975 1.9654 0
M  V30 4379 C 405.166 1.07782 3.29521 0
M  V30 4380 C 404.227 2.26625 3.64609 0
M  V30 4381 C 403.46 2.04938 4.92784 0
M  V30 4382 O 403.683 1.01624 5.61274 0
M  V30 4383 O 402.617 2.9232 5.26149 0
M  V30 4384 H 406.443 2.26779 2.02002 0
M  V30 4385 H 404.028 1.15823 0.943682 0
M  V30 4386 H 405.91 0.969392 4.10098 0
M  V30 4387 H 404.585 0.146003 3.23371 0
M  V30 4388 H 403.492 2.43033 2.84404 0
M  V30 4389 H 404.825 3.18257 3.75464 0
M  V30 4390 N 406.477 -1.02803 1.19454 0
M  V30 4391 C 407.427 -2.0945 0.900827 0
M  V30 4392 C 408.411 -1.60335 -0.134715 0
M  V30 4393 O 409.603 -1.76857 0.0710924 0
M  V30 4394 C 406.732 -3.4044 0.442229 0
M  V30 4395 C 405.818 -3.96286 1.51056 0
M  V30 4396 N 406.209 -4.25785 2.73021 0
M  V30 4397 C 404.507 -4.24307 1.37404 0
M  V30 4398 C 405.208 -4.70654 3.41848 0
M  V30 4399 N 404.184 -4.72238 2.69243 0
M  V30 4400 H 407.986 -2.3015 1.82779 0
M  V30 4401 H 405.5 -1.20672 1.08683 0
M  V30 4402 H 407.497 -4.16354 0.21326 0
M  V30 4403 H 406.157 -3.21159 -0.478238 0
M  V30 4404 H 407.168 -4.15041 3.09776 0
M  V30 4405 H 403.845 -4.14285 0.517103 0
M  V30 4406 H 405.235 -5.02392 4.46152 0
M  V30 4407 N 407.956 -0.998596 -1.21925 0
M  V30 4408 C 408.919 -0.558679 -2.22287 0
M  V30 4409 C 409.919 0.361525 -1.56683 0
M  V30 4410 O 411.109 0.152695 -1.73529 0
M  V30 4411 C 408.241 0.18661 -3.40389 0
M  V30 4412 H 409.434 -1.4463 -2.62721 0
M  V30 4413 H 406.987 -0.786413 -1.35075 0
M  V30 4414 H 407.722 1.08996 -3.05435 0
M  V30 4415 H 407.507 -0.474188 -3.89222 0
M  V30 4416 H 408.997 0.482367 -4.14805 0
M  V30 4417 N 409.434 1.37368 -0.772513 0
M  V30 4418 C 410.683 1.98918 -0.333861 0
M  V30 4419 C 410.996 1.62017 1.09589 0
M  V30 4420 O 412.202 2.16676 1.63596 0
M  V30 4421 C 410.658 3.55735 -0.545971 0
M  V30 4422 C 410.266 4.01573 -1.98603 0
M  V30 4423 C 412.01 4.24156 -0.170979 0
M  V30 4424 C 409.917 5.51102 -2.1457 0
M  V30 4425 H 408.847 0.744214 -0.121085 0
M  V30 4426 H 411.498 1.56888 -0.95175 0
M  V30 4427 H 409.88 3.95748 0.141387 0
M  V30 4428 H 411.054 3.72803 -2.7084 0
M  V30 4429 H 409.369 3.45937 -2.31769 0
M  V30 4430 H 411.966 5.34024 -0.26878 0
M  V30 4431 H 412.309 4.06917 0.878855 0
M  V30 4432 H 412.842 3.89447 -0.810914 0
M  V30 4433 H 409.581 5.73268 -3.17875 0
M  V30 4434 H 409.101 5.81554 -1.46817 0
M  V30 4435 H 410.78 6.17083 -1.94468 0
M  V30 4436 N 410.912 0.523116 1.48665 0
M  V30 4437 C 412.137 -0.0117284 2.07397 0
M  V30 4438 C 412.562 -1.28031 1.37803 0
M  V30 4439 O 411.92 -1.75836 0.441762 0
M  V30 4440 C 411.968 -0.225786 3.59892 0
M  V30 4441 O 411.072 -1.29592 3.91509 0
M  V30 4442 H 410.413 0.0360673 0.66302 0
M  V30 4443 H 412.943 0.729066 1.9117 0
M  V30 4444 H 412.953 -0.450552 4.05505 0
M  V30 4445 H 411.628 0.700944 4.09951 0
M  V30 4446 H 410.205 -1.05436 3.57684 0
M  V30 4447 N 412.39 -1.55475 0.257931 0
M  V30 4448 C 413.34 -2.18506 -0.651094 0
M  V30 4449 C 414.324 -1.14431 -1.13112 0
M  V30 4450 O 415.516 -1.40305 -1.07905 0
M  V30 4451 C 412.645 -2.89653 -1.84272 0
M  V30 4452 C 411.731 -4.00996 -1.38068 0
M  V30 4453 N 412.122 -5.01816 -0.633609 0
M  V30 4454 C 410.42 -4.13753 -1.66506 0
M  V30 4455 C 411.121 -5.80371 -0.392922 0
M  V30 4456 N 410.097 -5.3505 -0.960359 0
M  V30 4457 H 413.899 -2.93811 -0.0722883 0
M  V30 4458 H 411.413 -1.62286 0.0607256 0
M  V30 4459 H 413.41 -3.33245 -2.50506 0
M  V30 4460 H 412.07 -2.15854 -2.42564 0
M  V30 4461 H 413.081 -5.17128 -0.282626 0
M  V30 4462 H 409.758 -3.51133 -2.25858 0
M  V30 4463 H 411.148 -6.7159 0.204235 0
M  V30 4464 N 413.868 0.0150385 -1.57593 0
M  V30 4465 C 415.114 0.704043 -1.90187 0
M  V30 4466 C 415.447 1.74249 -0.857366 0
M  V30 4467 O 414.722 1.94092 0.125843 0
M  V30 4468 C 415.005 1.36087 -3.33395 0
M  V30 4469 C 414.858 0.334981 -4.48551 0
M  V30 4470 C 416.177 2.29112 -3.7576 0
M  V30 4471 H 413.296 0.254475 -0.691673 0
M  V30 4472 H 415.938 -0.0331678 -1.89971 0
M  V30 4473 H 414.088 1.98922 -3.3371 0
M  V30 4474 H 415.76 -0.292534 -4.60372 0
M  V30 4475 H 414.003 -0.344325 -4.32431 0
M  V30 4476 H 414.674 0.833316 -5.45674 0
M  V30 4477 H 417.15 1.76308 -3.76902 0
M  V30 4478 H 416.026 2.72043 -4.76743 0
M  V30 4479 H 416.287 3.16385 -3.08793 0
M  V30 4480 N 415.346 1.54954 0.287554 0
M  V30 4481 C 416.276 1.89839 1.35954 0
M  V30 4482 C 417.257 0.758675 1.52244 0
M  V30 4483 O 418.442 1.01557 1.65529 0
M  V30 4484 C 415.572 2.15753 2.72154 0
M  V30 4485 C 414.526 3.3159 2.70614 0
M  V30 4486 C 413.852 3.42952 4.10229 0
M  V30 4487 C 415.152 4.68359 2.31165 0
M  V30 4488 H 416.846 2.79625 1.07007 0
M  V30 4489 H 414.392 1.3454 0.513316 0
M  V30 4490 H 416.345 2.38743 3.47246 0
M  V30 4491 H 415.069 1.22752 3.02654 0
M  V30 4492 H 413.728 3.08545 1.97979 0
M  V30 4493 H 413.376 2.47443 4.37928 0
M  V30 4494 H 413.076 4.20826 4.10097 0
M  V30 4495 H 414.6 3.68218 4.87081 0
M  V30 4496 H 416.014 4.9099 2.95976 0
M  V30 4497 H 414.411 5.49044 2.42221 0
M  V30 4498 H 415.481 4.68165 1.26291 0
M  V30 4499 N 416.824 -0.551391 1.4764 0
M  V30 4500 C 417.771 -1.65796 1.60563 0
M  V30 4501 C 418.741 -1.59932 0.448428 0
M  V30 4502 O 419.926 -1.78679 0.669222 0
M  V30 4503 C 417.066 -3.04108 1.63133 0
M  V30 4504 C 416.179 -3.20365 2.89811 0
M  V30 4505 C 415.314 -4.49109 2.8368 0
M  V30 4506 C 414.353 -4.58819 4.05156 0
M  V30 4507 N 413.49 -5.78926 3.97227 0
M  V30 4508 H 418.33 -1.54088 2.5507 0
M  V30 4509 H 415.867 -0.75052 1.26513 0
M  V30 4510 H 417.825 -3.84207 1.62606 0
M  V30 4511 H 416.455 -3.14637 0.721341 0
M  V30 4512 H 415.507 -2.33659 3.00179 0
M  V30 4513 H 416.819 -3.23402 3.79753 0
M  V30 4514 H 415.973 -5.37475 2.81434 0
M  V30 4515 H 414.712 -4.4856 1.91431 0
M  V30 4516 H 413.717 -3.68864 4.077 0
M  V30 4517 H 414.942 -4.61124 4.98539 0
M  V30 4518 H 412.888 -5.79314 3.07785 0
M  V30 4519 H 412.805 -5.83367 4.80853 0
M  V30 4520 H 414.073 -6.69637 3.99007 0
M  V30 4521 N 418.302 -1.35869 -0.798587 0
M  V30 4522 C 419.53 -1.32722 -1.58722 0
M  V30 4523 C 419.945 0.0935631 -1.88568 0
M  V30 4524 O 419.302 1.04784 -1.49421 0
M  V30 4525 C 419.353 -2.13974 -2.91371 0
M  V30 4526 O 419.074 -3.50514 -2.62815 0
M  V30 4527 C 420.575 -2.18504 -3.85708 0
M  V30 4528 H 417.795 -0.45562 -0.492596 0
M  V30 4529 H 420.339 -1.78837 -0.991843 0
M  V30 4530 H 418.494 -1.71438 -3.47402 0
M  V30 4531 H 418.908 -3.92806 -3.47568 0
M  V30 4532 H 420.382 -2.79732 -4.75872 0
M  V30 4533 H 420.859 -1.18597 -4.22885 0
M  V30 4534 H 421.465 -2.61236 -3.35612 0
M  V30 4535 N 419.78 1.02168 -1.19998 0
M  V30 4536 C 421.027 1.75685 -1.00702 0
M  V30 4537 C 421.355 1.88947 0.461426 0
M  V30 4538 O 420.61 1.40832 1.35885 0
M  V30 4539 C 420.909 3.18081 -1.62969 0
M  V30 4540 C 420.575 3.24809 -3.12746 0
M  V30 4541 C 419.237 3.26352 -3.53621 0
M  V30 4542 C 421.589 3.23379 -4.08749 0
M  V30 4543 C 418.917 3.2413 -4.89036 0
M  V30 4544 C 421.269 3.22698 -5.44104 0
M  V30 4545 C 419.933 3.22542 -5.84399 0
M  V30 4546 H 419.203 0.642877 -0.368496 0
M  V30 4547 H 421.85 1.19865 -1.49348 0
M  V30 4548 H 420.155 3.77027 -1.06573 0
M  V30 4549 H 421.852 3.73648 -1.45561 0
M  V30 4550 H 418.442 3.2434 -2.80181 0
M  V30 4551 H 422.626 3.21361 -3.78207 0
M  V30 4552 H 417.882 3.22338 -5.19527 0
M  V30 4553 H 422.056 3.20543 -6.18244 0
M  V30 4554 H 419.683 3.20575 -6.89301 0
M  V30 4555 N 421.258 1.00505 1.21394 0
M  V30 4556 C 422.498 0.696149 1.9218 0
M  V30 4557 C 422.862 -0.759099 1.76357 0
M  V30 4558 O 424.063 -1.17998 2.41516 0
M  V30 4559 C 422.334 1.10571 3.39866 0
M  V30 4560 S 423.893 0.91702 4.29111 0
M  V30 4561 H 420.711 0.254147 0.664026 0
M  V30 4562 H 423.313 1.28988 1.46909 0
M  V30 4563 H 422.017 2.16096 3.489 0
M  V30 4564 H 421.548 0.504268 3.90155 0
M  V30 4565 H 423.563 -0.185855 4.95852 0
M  V30 4566 N 422.737 -1.36956 0.779787 0
M  V30 4567 C 424.014 -1.93697 0.272156 0
M  V30 4568 C 424.394 -1.71267 -1.23413 0
M  V30 4569 O 423.742 -1.06607 -2.02107 0
M  V30 4570 C 423.952 -3.42812 0.654291 0
M  V30 4571 C 425.3 -4.19921 0.628602 0
M  V30 4572 O 426.324 -3.51209 0.594172 0
M  V30 4573 O 425.183 -5.42465 0.662864 0
M  V30 4574 H 422.277 -0.824447 0.0649286 0
M  V30 4575 H 424.823 -1.46196 0.861682 0
M  V30 4576 H 423.595 -3.52754 1.69353 0
M  V30 4577 H 423.218 -3.97582 0.0381369 0
M  V30 4578 N 424.215 -0.530993 -1.48385 0
M  V30 4579 C 425.464 0.00474348 -2.01699 0
M  V30 4580 C 425.777 1.35227 -1.41325 0
M  V30 4581 O 426.983 1.97643 -1.86144 0
M  V30 4582 C 425.439 0.0588473 -3.59852 0
M  V30 4583 C 425.047 -1.28385 -4.2921 0
M  V30 4584 C 426.791 0.543358 -4.21008 0
M  V30 4585 C 424.698 -1.19028 -5.79298 0
M  V30 4586 H 423.628 0.00554317 -0.75398 0
M  V30 4587 H 426.279 -0.674924 -1.70637 0
M  V30 4588 H 424.661 0.803612 -3.8776 0
M  V30 4589 H 425.835 -2.04426 -4.12973 0
M  V30 4590 H 424.15 -1.70418 -3.7993 0
M  V30 4591 H 426.747 0.631351 -5.3096 0
M  V30 4592 H 427.09 1.54937 -3.86394 0
M  V30 4593 H 427.623 -0.145754 -3.97533 0
M  V30 4594 H 424.362 -2.17147 -6.18488 0
M  V30 4595 H 423.882 -0.471246 -5.97946 0
M  V30 4596 H 425.561 -0.881365 -6.40969 0
M  V30 4597 O 425.732 1.56259 -0.408071 0
M  V30 4598 H 426.423 1.93245 0.132688 0
M  V30 END ATOM
M  V30 BEGIN BOND
M  V30 END BOND
M  V30 END CTAB
M  END
$$$$
