drugbank_target|Q8IJN7 Enolase (DB11638)
 OpenBabel12092121103D

  0  0  0     0  0            999 V3000
M  V30 BEGIN CTAB
M  V30 COUNTS 6896 6945 0 0 0
M  V30 BEGIN ATOM
M  V30 1 H -0.908 1.98254 -0.117106 0
M  V30 2 N 0 1.576 0 0
M  V30 3 C 0.933 2.03868 1.02534 0
M  V30 4 C 1.911 0.928543 1.3348 0
M  V30 5 O 3.095 1.19667 1.45644 0
M  V30 6 C 0.222 2.43627 2.35294 0
M  V30 7 C -0.732 3.65373 2.2001 0
M  V30 8 S 0.101 5.13292 1.52614 0
M  V30 9 C 1.257 5.56322 2.86805 0
M  V30 10 H 1.49 2.90518 0.631377 0
M  V30 11 H -0.977 1.52953 0.210867 0
M  V30 12 H 0.981 2.67203 3.11629 0
M  V30 13 H -0.358 1.57376 2.7183 0
M  V30 14 H -1.165 3.90944 3.18086 0
M  V30 15 H -1.563 3.418 1.51819 0
M  V30 16 H 0.729 5.58782 3.83104 0
M  V30 17 H 1.672 6.56266 2.65933 0
M  V30 18 H 2.08 4.83886 2.90714 0
M  V30 19 N 1.4781 -0.272755 1.55222 0
M  V30 20 C 2.4411 -1.32041 1.87344 0
M  V30 21 C 3.4411 -1.42342 0.74803 0
M  V30 22 O 4.6311 -1.41488 1.0162 0
M  V30 23 C 1.7631 -2.70173 2.07893 0
M  V30 24 H 2.9561 -1.04789 2.80997 0
M  V30 25 H 0.5091 -0.51083 1.47717 0
M  V30 26 H 1.2441 -3.02605 1.16622 0
M  V30 27 H 1.0291 -2.64082 2.89833 0
M  V30 28 H 2.5191 -3.45869 2.34017 0
M  V30 29 N 2.9562 -1.48159 -0.537278 0
M  V30 30 C 3.9062 -1.5854 -1.63857 0
M  V30 31 C 4.8902 -0.442969 -1.54682 0
M  V30 32 O 6.0822 -0.69401 -1.62827 0
M  V30 33 C 3.2112 -1.62144 -3.02596 0
M  V30 34 C 2.2972 -2.81841 -3.16901 0
M  V30 35 N 2.6882 -4.06337 -3.01204 0
M  V30 36 C 0.9862 -2.79021 -3.47942 0
M  V30 37 C 1.6872 -4.86606 -3.18731 0
M  V30 38 N 0.6632 -4.19288 -3.45974 0
M  V30 39 H 4.4652 -2.5255 -1.50319 0
M  V30 40 H 1.9792 -1.4443 -0.742555 0
M  V30 41 H 3.9762 -1.67674 -3.81695 0
M  V30 42 H 2.6362 -0.69245 -3.17231 0
M  V30 43 H 3.6472 -4.36888 -2.78117 0
M  V30 44 H 0.3242 -1.95347 -3.6898 0
M  V30 45 H 1.7142 -5.95385 -3.11394 0
M  V30 46 N 4.4343 0.785586 -1.36625 0
M  V30 47 C 5.6803 1.54591 -1.31261 0
M  V30 48 C 6.0133 1.93906 0.106823 0
M  V30 49 O 5.2883 1.63007 1.06108 0
M  V30 50 C 5.5713 2.82038 -2.23889 0
M  V30 51 C 5.4243 2.49066 -3.74548 0
M  V30 52 C 6.7433 3.83887 -2.15217 0
M  V30 53 H 3.8623 0.560846 -0.478143 0
M  V30 54 H 6.5043 0.902278 -1.67209 0
M  V30 55 H 4.6543 3.36961 -1.93363 0
M  V30 56 H 6.3263 2.00164 -4.15611 0
M  V30 57 H 4.5693 1.81954 -3.93796 0
M  V30 58 H 5.2403 3.40109 -4.34776 0
M  V30 59 H 7.7163 3.38421 -2.42096 0
M  V30 60 H 6.5923 4.70806 -2.82193 0
M  V30 61 H 6.8533 4.27131 -1.14068 0
M  V30 62 N 5.9124 1.20967 1.01018 0
M  V30 63 C 7.1614 1.01796 1.74128 0
M  V30 64 C 7.4744 -0.449691 1.90361 0
M  V30 65 O 8.6804 -0.76068 2.60626 0
M  V30 66 C 7.1364 1.7727 3.13215 0
M  V30 67 C 6.7444 3.28171 3.04972 0
M  V30 68 C 8.4884 1.66489 3.90489 0
M  V30 69 C 6.3954 3.96156 4.39107 0
M  V30 70 H 5.3254 0.377276 0.652824 0
M  V30 71 H 7.9764 1.44651 1.12909 0
M  V30 72 H 6.3584 1.27205 3.75013 0
M  V30 73 H 7.5324 3.85499 2.52443 0
M  V30 74 H 5.8474 3.39437 2.41188 0
M  V30 75 H 8.4444 2.14617 4.89738 0
M  V30 76 H 8.7874 0.6222 4.11624 0
M  V30 77 H 9.3204 2.14003 3.35332 0
M  V30 78 H 6.0594 5.00604 4.23174 0
M  V30 79 H 5.5794 3.43617 4.91617 0
M  V30 80 H 7.2584 4.00774 5.07926 0
M  V30 81 N 7.3905 -1.2043 1.01659 0
M  V30 82 C 8.6185 -1.93777 0.725132 0
M  V30 83 C 9.0335 -1.74772 -0.714166 0
M  V30 84 O 8.3905 -1.06169 -1.4844 0
M  V30 85 C 8.4415 -3.45876 1.05129 0
M  V30 86 O 8.1625 -3.6426 2.43406 0
M  V30 87 C 9.6635 -4.36368 0.780891 0
M  V30 88 H 6.8835 -0.615901 0.266284 0
M  V30 89 H 9.4275 -1.52922 1.35776 0
M  V30 90 H 7.5825 -3.8461 0.464065 0
M  V30 91 H 7.9965 -4.58246 2.55169 0
M  V30 92 H 9.4705 -5.41743 1.05918 0
M  V30 93 H 9.9475 -4.38275 -0.284937 0
M  V30 94 H 10.5535 -4.03296 1.35027 0
M  V30 95 N 8.8686 -0.792821 -1.36206 0
M  V30 96 C 10.2846 -0.474903 -1.52371 0
M  V30 97 C 10.4846 1.00622 -1.74578 0
M  V30 98 O 9.5406 1.79162 -1.77924 0
M  V30 99 C 10.8536 -1.3083 -2.70747 0
M  V30 100 C 12.4016 -1.30234 -2.84619 0
M  V30 101 C 12.8766 -2.11956 -4.06004 0
M  V30 102 N 14.3676 -2.09419 -4.13156 0
M  V30 103 C 15.1026 -2.69419 -5.06163 0
M  V30 104 N 14.5986 -3.3829 -6.04592 0
M  V30 105 N 16.3916 -2.59134 -4.98804 0
M  V30 106 H 8.5426 -1.75222 -1.20046 0
M  V30 107 H 10.8056 -0.745024 -0.586211 0
M  V30 108 H 10.5116 -2.35881 -2.6087 0
M  V30 109 H 10.3856 -0.95196 -3.6499 0
M  V30 110 H 12.7726 -0.259748 -2.93955 0
M  V30 111 H 12.8536 -1.69847 -1.91274 0
M  V30 112 H 12.4976 -3.16248 -3.97429 0
M  V30 113 H 12.4276 -1.69711 -4.98503 0
M  V30 114 H 14.9186 -1.59297 -3.42685 0
M  V30 115 H 15.2316 -3.81394 -6.7213 0
M  V30 116 H 13.5766 -3.42393 -6.04807 0
M  V30 117 H 16.7676 -2.04927 -4.20859 0
M  V30 118 H 16.9406 -3.06185 -5.711 0
M  V30 119 N 10.3467 1.47872 -0.545128 0
M  V30 120 C 11.5957 2.01695 -0.0145033 0
M  V30 121 C 11.9087 1.42609 1.33873 0
M  V30 122 O 13.1147 1.88021 1.95858 0
M  V30 123 C 11.5707 3.59892 0.0245068 0
M  V30 124 C 11.1787 4.27966 -1.32475 0
M  V30 125 C 12.9227 4.21507 0.50316 0
M  V30 126 C 10.8297 5.78136 -1.2455 0
M  V30 127 H 9.7597 0.753998 -0.00165172 0
M  V30 128 H 12.4107 1.69985 -0.691175 0
M  V30 129 H 10.7927 3.88509 0.766575 0
M  V30 130 H 11.9667 4.11003 -2.08357 0
M  V30 131 H 10.2817 3.78286 -1.74036 0
M  V30 132 H 12.8787 5.31538 0.580656 0
M  V30 133 H 13.2217 3.87855 1.51243 0
M  V30 134 H 13.7547 3.97376 -0.183681 0
M  V30 135 H 10.4937 6.16388 -2.23039 0
M  V30 136 H 10.0137 5.97469 -0.528282 0
M  V30 137 H 11.6927 6.40099 -0.942488 0
M  V30 138 N 11.8248 0.280983 1.55075 0
M  V30 139 C 12.7728 -0.619864 2.24188 0
M  V30 140 C 13.7668 -1.15315 1.24092 0
M  V30 141 O 14.9728 -1.1061 1.42005 0
M  V30 142 H 11.3478 -0.218459 0.719569 0
M  V30 143 H 13.3188 -0.0141831 2.98397 0
M  V30 144 C 12.0678 -1.7899 2.98091 0
M  V30 145 H 11.3908 -1.38874 3.74905 0
M  V30 146 H 12.8308 -2.39672 3.49762 0
M  V30 147 C 11.2898 -2.68192 2.03899 0
M  V30 148 O 11.8198 -3.6872 1.594 0
M  V30 149 N 10.0258 -2.35488 1.70275 0
M  V30 150 H 9.5728 -1.53787 2.06658 0
M  V30 151 H 9.5308 -2.95442 1.07524 0
M  V30 152 N 13.3029 -1.57598 0.00835791 0
M  V30 153 C 14.2659 -2.07884 -0.965242 0
M  V30 154 C 15.2659 -0.989825 -1.26725 0
M  V30 155 O 16.4559 -1.25218 -1.21104 0
M  V30 156 C 13.5879 -2.52731 -2.28779 0
M  V30 157 H 14.7809 -2.95178 -0.530112 0
M  V30 158 H 12.3339 -1.54458 -0.239283 0
M  V30 159 H 13.0689 -1.68705 -2.76964 0
M  V30 160 H 12.8539 -3.32272 -2.08177 0
M  V30 161 H 14.3439 -2.91933 -2.98605 0
M  V30 162 N 14.781 0.264519 -1.55364 0
M  V30 163 C 16.197 0.61215 -1.47394 0
M  V30 164 C 16.397 1.89134 -0.695018 0
M  V30 165 O 15.453 2.51563 -0.217275 0
M  V30 166 C 16.766 0.731235 -2.91674 0
M  V30 167 C 18.314 0.82473 -3.01939 0
M  V30 168 C 18.789 0.975522 -4.4749 0
M  V30 169 N 20.28 1.04083 -4.51354 0
M  V30 170 C 21.015 1.17646 -5.61201 0
M  V30 171 N 20.511 1.27874 -6.80896 0
M  V30 172 N 22.304 1.20823 -5.48961 0
M  V30 173 H 14.455 -0.575456 -2.04456 0
M  V30 174 H 16.718 -0.196099 -0.927496 0
M  V30 175 H 16.424 -0.138392 -3.51428 0
M  V30 176 H 16.298 1.60883 -3.41169 0
M  V30 177 H 18.685 1.68482 -2.42276 0
M  V30 178 H 18.766 -0.0776479 -2.55682 0
M  V30 179 H 18.41 0.120058 -5.07758 0
M  V30 180 H 18.34 1.89268 -4.91412 0
M  V30 181 H 20.831 0.973846 -3.65136 0
M  V30 182 H 21.144 1.38081 -7.60364 0
M  V30 183 H 19.489 1.24863 -6.83692 0
M  V30 184 H 22.68 1.12469 -4.54388 0
M  V30 185 H 22.853 1.31049 -6.3461 0
M  V30 186 N 16.2591 1.48442 0.529413 0
M  V30 187 C 17.1691 1.6569 1.66084 0
M  V30 188 C 18.1851 0.539432 1.65427 0
M  V30 189 O 19.3611 0.810572 1.84368 0
M  V30 190 C 16.4261 1.69315 3.02545 0
M  V30 191 C 15.4871 2.92694 3.14052 0
M  V30 192 C 14.7201 2.96137 4.44003 0
M  V30 193 O 14.9431 2.07973 5.31134 0
M  V30 194 O 13.8771 3.88312 4.59888 0
M  V30 195 H 17.7031 2.61483 1.54469 0
M  V30 196 H 15.2881 1.3185 0.702567 0
M  V30 197 H 17.1701 1.74217 3.83701 0
M  V30 198 H 15.8451 0.766966 3.14483 0
M  V30 199 H 14.7521 2.93324 2.32189 0
M  V30 200 H 16.0851 3.84699 3.0703 0
M  V30 201 N 17.7372 -0.778329 1.37039 0
M  V30 202 C 18.9862 -1.53189 1.3121 0
M  V30 203 C 19.2992 -1.95328 -0.103095 0
M  V30 204 O 20.5052 -2.70012 -0.283826 0
M  V30 205 C 18.9612 -2.76591 2.30272 0
M  V30 206 C 18.5692 -2.41577 3.77286 0
M  V30 207 C 20.3132 -3.5455 2.33441 0
M  V30 208 C 18.2202 -3.61441 4.68096 0
M  V30 209 H 17.1502 -0.5751 0.487622 0
M  V30 210 H 19.8012 -0.853101 1.62464 0
M  V30 211 H 18.1832 -3.46326 1.92027 0
M  V30 212 H 19.3572 -1.79668 4.2433 0
M  V30 213 H 17.6722 -1.76806 3.76999 0
M  V30 214 H 20.2692 -4.43628 2.98493 0
M  V30 215 H 20.6122 -3.93936 1.34611 0
M  V30 216 H 21.1452 -2.91805 2.7036 0
M  V30 217 H 17.8842 -3.27142 5.6803 0
M  V30 218 H 17.4042 -4.22478 4.25761 0
M  V30 219 H 19.0832 -4.28335 4.8491 0
M  V30 220 N 19.2153 -1.21501 -1.00376 0
M  V30 221 C 20.1453 -0.999478 -2.11028 0
M  V30 222 C 21.1263 0.0759671 -1.6993 0
M  V30 223 O 22.3113 -0.0841106 -1.94018 0
M  V30 224 C 19.4413 -0.564709 -3.42678 0
M  V30 225 C 18.3953 -1.58486 -3.97576 0
M  V30 226 C 17.7213 -1.00628 -5.25146 0
M  V30 227 C 19.0213 -2.97204 -4.29496 0
M  V30 228 H 20.7153 -1.92495 -2.29317 0
M  V30 229 H 18.2613 -0.92693 -1.102 0
M  V30 230 H 20.2143 -0.401091 -4.19487 0
M  V30 231 H 18.9383 0.396411 -3.24185 0
M  V30 232 H 17.5973 -1.73606 -3.22888 0
M  V30 233 H 17.2453 -0.0368439 -5.02987 0
M  V30 234 H 16.9453 -1.68771 -5.62841 0
M  V30 235 H 18.4693 -0.854015 -6.04598 0
M  V30 236 H 19.8833 -2.8552 -4.97143 0
M  V30 237 H 18.2803 -3.62372 -4.78338 0
M  V30 238 H 19.3503 -3.47956 -3.3772 0
M  V30 239 N 20.6934 1.19889 -1.02296 0
M  V30 240 C 21.9704 1.85148 -0.630832 0
M  V30 241 C 22.3504 1.91385 0.890782 0
M  V30 242 O 21.6984 1.42642 1.78509 0
M  V30 243 C 21.9084 3.24442 -1.28602 0
M  V30 244 C 23.2564 4.00663 -1.4055 0
M  V30 245 O 24.2804 3.33818 -1.24273 0
M  V30 246 O 23.1394 5.20387 -1.66913 0
M  V30 247 H 20.2334 0.797613 -0.218499 0
M  V30 248 H 22.7794 1.27427 -1.12074 0
M  V30 249 H 21.5514 3.14704 -2.32545 0
M  V30 250 H 21.1744 3.89802 -0.7836 0
M  V30 251 N 22.1715 0.800033 1.35784 0
M  V30 252 C 23.3965 0.388511 2.03729 0
M  V30 253 C 23.8215 -0.990481 1.5991 0
M  V30 254 O 23.1795 -1.64013 0.772612 0
M  V30 255 C 23.2275 0.4726 3.5749 0
M  V30 256 O 22.3315 -0.51646 4.09153 0
M  V30 257 H 21.6725 0.163271 0.643614 0
M  V30 258 H 24.2025 1.0841 1.73518 0
M  V30 259 H 24.2125 0.34003 4.06581 0
M  V30 260 H 22.8875 1.47848 3.88734 0
M  V30 261 H 21.4645 -0.344673 3.71304 0
M  V30 262 N 23.6496 -1.47581 0.552962 0
M  V30 263 C 25.0656 -1.5818 0.212424 0
M  V30 264 C 25.2656 -1.55213 -1.28496 0
M  V30 265 O 24.3216 -1.45329 -2.06484 0
M  V30 266 C 25.6346 -2.88865 0.835318 0
M  V30 267 C 27.1826 -3.0244 0.806156 0
M  V30 268 C 27.6576 -4.35819 1.40804 0
M  V30 269 N 29.1486 -4.42444 1.37103 0
M  V30 270 C 29.8836 -5.44202 1.80641 0
M  V30 271 N 29.3796 -6.52795 2.32015 0
M  V30 272 N 31.1726 -5.35222 1.71738 0
M  V30 273 H 23.3236 -1.47753 1.52587 0
M  V30 274 H 25.5866 -0.702941 0.636064 0
M  V30 275 H 25.2926 -2.9676 1.88749 0
M  V30 276 H 25.1666 -3.7579 0.325848 0
M  V30 277 H 27.5536 -2.94144 -0.237317 0
M  V30 278 H 27.6346 -2.17068 1.35334 0
M  V30 279 H 27.2786 -4.44871 2.45056 0
M  V30 280 H 27.2086 -5.19916 0.836338 0
M  V30 281 H 29.6996 -3.6456 0.995202 0
M  V30 282 H 30.0126 -7.26609 2.63171 0
M  V30 283 H 28.3576 -6.53696 2.36023 0
M  V30 284 H 31.5486 -4.49284 1.31382 0
M  V30 285 H 31.7216 -6.14389 2.05987 0
M  V30 286 N 25.1277 -0.289203 -1.54924 0
M  V30 287 C 26.3757 0.322879 -1.99504 0
M  V30 288 C 26.6967 1.55313 -1.1791 0
M  V30 289 O 25.9667 1.94001 -0.272097 0
M  V30 290 H 24.5467 0.122291 -0.736922 0
M  V30 291 H 27.2087 -0.397802 -1.90797 0
M  V30 292 H 26.3047 0.603061 -3.06218 0
M  V30 293 N 26.6058 1.57591 -0.0167156 0
M  V30 294 C 27.5538 2.10604 0.987353 0
M  V30 295 C 28.5478 1.02977 1.34507 0
M  V30 296 O 29.7538 1.21425 1.32875 0
M  V30 297 H 26.1288 0.672695 0.336134 0
M  V30 298 H 28.0998 2.93925 0.514817 0
M  V30 299 C 26.8488 2.6382 2.26483 0
M  V30 300 H 26.1718 3.46278 1.99829 0
M  V30 301 H 27.6118 3.04573 2.94977 0
M  V30 302 C 26.0708 1.55992 2.9861 0
M  V30 303 O 26.6008 0.952521 3.90243 0
M  V30 304 N 24.8068 1.28335 2.60727 0
M  V30 305 H 24.3538 1.77914 1.86291 0
M  V30 306 H 24.3118 0.564115 3.09298 0
M  V30 307 N 28.0839 -0.256276 1.55502 0
M  V30 308 C 29.4949 -0.826068 1.67431 0
M  V30 309 C 29.8459 -1.86396 0.612446 0
M  V30 310 O 28.9709 -2.15031 -0.243025 0
M  V30 311 C 29.5659 -1.50512 3.03532 0
M  V30 312 C 28.1249 -2.02273 3.17431 0
M  V30 313 C 27.2719 -0.870548 2.63281 0
M  V30 314 H 30.2229 -0.0322728 1.58667 0
M  V30 315 H 30.2439 -2.37279 2.97454 0
M  V30 316 H 29.7559 -0.749484 3.80794 0
M  V30 317 H 27.8569 -2.80746 2.44974 0
M  V30 318 H 27.9699 -2.22655 4.24219 0
M  V30 319 H 26.3339 -1.26851 2.20864 0
M  V30 320 H 27.1169 -0.128149 3.43061 0
M  V30 321 N 29.562 -1.4872 -0.521534 0
M  V30 322 C 30.79 -1.60843 -1.30142 0
M  V30 323 C 31.205 -0.271897 -1.86832 0
M  V30 324 O 30.562 0.739969 -1.66825 0
M  V30 325 C 30.613 -2.66155 -2.4463 0
M  V30 326 O 30.334 -3.94623 -1.90275 0
M  V30 327 C 31.835 -2.88795 -3.36322 0
M  V30 328 H 29.055 -0.542075 -0.395468 0
M  V30 329 H 31.599 -1.94609 -0.628285 0
M  V30 330 H 29.754 -2.35224 -3.07812 0
M  V30 331 H 30.168 -4.52468 -2.65279 0
M  V30 332 H 31.642 -3.66264 -4.12983 0
M  V30 333 H 32.119 -1.97934 -3.9207 0
M  V30 334 H 32.725 -3.21063 -2.78924 0
M  V30 335 N 31.0401 0.771051 -1.3745 0
M  V30 336 C 32.2861 1.5319 -1.32894 0
M  V30 337 C 32.6191 1.94008 0.0862511 0
M  V30 338 O 31.8941 1.64124 1.04373 0
M  V30 339 C 32.1771 2.79648 -2.26868 0
M  V30 340 C 32.0301 2.45079 -3.77169 0
M  V30 341 C 33.3491 3.81583 -2.19277 0
M  V30 342 H 30.4681 0.555744 -0.484064 0
M  V30 343 H 33.1101 0.884492 -1.68157 0
M  V30 344 H 31.2601 3.34891 -1.96926 0
M  V30 345 H 32.9321 1.95745 -4.1771 0
M  V30 346 H 31.1751 1.77767 -3.95704 0
M  V30 347 H 31.8461 3.35478 -4.38359 0
M  V30 348 H 34.3221 3.35835 -2.45671 0
M  V30 349 H 33.1981 4.67787 -2.87171 0
M  V30 350 H 33.4591 4.25897 -1.18592 0
M  V30 351 N 32.5182 1.22032 0.997298 0
M  V30 352 C 33.4282 1.00271 2.12092 0
M  V30 353 C 34.4442 -0.047621 1.73935 0
M  V30 354 O 35.6202 0.144136 2.00884 0
M  V30 355 C 32.6852 0.578449 3.4184 0
M  V30 356 C 31.7462 1.70189 3.94125 0
M  V30 357 C 30.9792 1.29778 5.17681 0
M  V30 358 O 31.2022 0.174676 5.70132 0
M  V30 359 O 30.1362 2.11261 5.63607 0
M  V30 360 H 33.9622 1.94398 2.3333 0
M  V30 361 H 31.5472 1.00587 1.10465 0
M  V30 362 H 33.4292 0.351998 4.19927 0
M  V30 363 H 32.1042 -0.334019 3.21972 0
M  V30 364 H 31.0112 1.98282 3.1723 0
M  V30 365 H 32.3442 2.59206 4.18417 0
M  V30 366 N 33.9963 -1.19345 1.0293 0
M  V30 367 C 35.2423 -1.89318 0.727083 0
M  V30 368 C 35.5753 -1.79446 -0.742483 0
M  V30 369 O 34.8503 -1.1871 -1.54072 0
M  V30 370 C 35.1333 -3.40238 1.17942 0
M  V30 371 C 34.9863 -3.58979 2.71024 0
M  V30 372 C 36.3053 -4.33479 0.760548 0
M  V30 373 H 33.4243 -0.687475 0.265606 0
M  V30 374 H 36.0663 -1.40477 1.2793 0
M  V30 375 H 34.2163 -3.81964 0.709608 0
M  V30 376 H 35.8883 -3.26421 3.25955 0
M  V30 377 H 34.1313 -3.02018 3.11396 0
M  V30 378 H 34.8023 -4.64823 2.9773 0
M  V30 379 H 37.2783 -3.99469 1.16464 0
M  V30 380 H 36.1543 -5.37664 1.10493 0
M  V30 381 H 36.4153 -4.40813 -0.337063 0
M  V30 382 N 35.4744 -0.807222 -1.35358 0
M  V30 383 C 36.7514 -0.311126 -1.9311 0
M  V30 384 C 37.1314 1.19937 -1.73719 0
M  V30 385 O 36.4794 1.99918 -1.10657 0
M  V30 386 C 36.6894 -0.723226 -3.41424 0
M  V30 387 C 38.0374 -0.713078 -4.18569 0
M  V30 388 O 39.0614 -0.664811 -3.49941 0
M  V30 389 O 37.9204 -0.772022 -5.41019 0
M  V30 390 H 35.0144 -0.081526 -0.822972 0
M  V30 391 H 37.5604 -0.890962 -1.4443 0
M  V30 392 H 36.3324 -1.76426 -3.4927 0
M  V30 393 H 35.9554 -0.118232 -3.97424 0
M  V30 394 N 36.9525 1.47285 -0.560781 0
M  V30 395 C 37.8825 2.32857 0.173105 0
M  V30 396 C 38.8635 1.44009 0.905281 0
M  V30 397 O 40.0485 1.7286 0.885046 0
M  V30 398 C 37.1785 3.25861 1.20133 0
M  V30 399 C 36.1325 4.23978 0.585388 0
M  V30 400 C 35.4585 5.06332 1.7185 0
M  V30 401 C 36.7585 5.20242 -0.463178 0
M  V30 402 H 38.4525 2.94466 -0.541307 0
M  V30 403 H 35.9985 1.41601 -0.261764 0
M  V30 404 H 37.9515 3.84569 1.72293 0
M  V30 405 H 36.6755 2.62315 1.94573 0
M  V30 406 H 35.3345 3.66501 0.085054 0
M  V30 407 H 34.9825 4.39186 2.45203 0
M  V30 408 H 34.6825 5.72762 1.31213 0
M  V30 409 H 36.2065 5.67899 2.24329 0
M  V30 410 H 37.6205 5.73293 -0.027502 0
M  V30 411 H 36.0175 5.94896 -0.788627 0
M  V30 412 H 37.0875 4.65504 -1.35773 0
M  V30 413 N 38.4306 0.297415 1.54768 0
M  V30 414 C 39.3406 -0.58983 2.27064 0
M  V30 415 C 40.3566 -1.15144 1.30453 0
M  V30 416 O 41.5326 -1.17699 1.63428 0
M  V30 417 C 38.5976 -1.74714 2.9946 0
M  V30 418 C 37.6586 -1.21997 4.11601 0
M  V30 419 C 36.8916 -2.32212 4.80535 0
M  V30 420 O 37.1146 -3.52036 4.48806 0
M  V30 421 O 36.0486 -1.99106 5.68014 0
M  V30 422 H 39.8746 -0.00348199 3.037 0
M  V30 423 H 37.4596 0.0640035 1.49263 0
M  V30 424 H 39.3416 -2.42147 3.44881 0
M  V30 425 H 38.0166 -2.32016 2.25722 0
M  V30 426 H 36.9236 -0.511458 3.70587 0
M  V30 427 H 38.2566 -0.692419 4.87305 0
M  V30 428 N 39.9087 -1.5758 0.0250728 0
M  V30 429 C 41.1367 -1.9593 -0.664747 0
M  V30 430 C 41.5517 -0.901352 -1.65895 0
M  V30 431 O 40.9087 0.117255 -1.82123 0
M  V30 432 C 40.9597 -3.34342 -1.37468 0
M  V30 433 O 40.6807 -4.36079 -0.420324 0
M  V30 434 C 42.1817 -3.873 -2.1567 0
M  V30 435 H 39.4017 -0.645405 -0.183557 0
M  V30 436 H 41.9457 -2.04329 0.0836372 0
M  V30 437 H 40.1007 -3.27175 -2.0745 0
M  V30 438 H 40.5147 -5.16297 -0.923991 0
M  V30 439 H 41.9887 -4.86504 -2.60803 0
M  V30 440 H 42.4657 -3.21331 -2.99405 0
M  V30 441 H 43.0717 -3.97723 -1.50654 0
M  V30 442 N 41.3868 0.248026 -1.55636 0
M  V30 443 C 42.3348 1.32683 -1.91045 0
M  V30 444 C 43.3288 1.49883 -0.789401 0
M  V30 445 O 44.5348 1.51371 -0.974007 0
M  V30 446 H 40.9098 0.444272 -0.606734 0
M  V30 447 H 42.8808 1.00085 -2.81115 0
M  V30 448 C 41.6298 2.6755 -2.22064 0
M  V30 449 H 40.9528 2.55114 -3.07826 0
M  V30 450 H 42.3928 3.41912 -2.50743 0
M  V30 451 C 40.8518 3.20556 -1.0366 0
M  V30 452 O 41.3818 4.00695 -0.284016 0
M  V30 453 N 39.5878 2.78568 -0.82753 0
M  V30 454 H 39.1348 2.1351 -1.44123 0
M  V30 455 H 39.0928 3.14378 -0.0369803 0
M  V30 456 N 42.8649 1.48995 0.513639 0
M  V30 457 C 43.7949 1.67636 1.62544 0
M  V30 458 C 44.7759 0.525087 1.61793 0
M  V30 459 O 45.9609 0.759502 1.78732 0
M  V30 460 C 43.0909 1.73114 3.01079 0
M  V30 461 C 42.0449 2.87905 3.16693 0
M  V30 462 C 41.3709 2.78486 4.56453 0
M  V30 463 C 42.6709 4.29005 2.97913 0
M  V30 464 H 44.3649 2.60716 1.47198 0
M  V30 465 H 41.9109 1.25465 0.706714 0
M  V30 466 H 43.8639 1.84742 3.78746 0
M  V30 467 H 42.5879 0.766241 3.17484 0
M  V30 468 H 41.2469 2.75859 2.41448 0
M  V30 469 H 40.8949 1.7993 4.69717 0
M  V30 470 H 40.5949 3.55523 4.67843 0
M  V30 471 H 42.1189 2.92104 5.36197 0
M  V30 472 H 43.5329 4.41798 3.65359 0
M  V30 473 H 41.9299 5.07166 3.20785 0
M  V30 474 H 42.9999 4.44329 1.94165 0
M  V30 475 N 44.343 -0.763751 1.37857 0
M  V30 476 C 45.591 -1.51957 1.33243 0
M  V30 477 C 45.912 -1.94835 -0.0801709 0
M  V30 478 O 45.182 -1.66894 -1.02582 0
M  V30 479 H 43.762 -0.563626 0.49024 0
M  V30 480 H 46.424 -0.908504 1.7243 0
M  V30 481 H 45.52 -2.41523 1.97669 0
M  V30 482 N 45.8211 -1.22559 -0.990812 0
M  V30 483 C 47.0701 -1.04553 -1.72486 0
M  V30 484 C 47.3831 0.419349 -1.91052 0
M  V30 485 O 48.5891 0.719121 -2.61803 0
M  V30 486 C 47.0451 -1.82231 -3.10355 0
M  V30 487 C 46.6531 -3.32981 -2.99713 0
M  V30 488 C 48.3971 -1.7268 -3.87791 0
M  V30 489 C 46.3041 -4.03091 -4.32748 0
M  V30 490 H 45.2341 -0.387614 -0.646739 0
M  V30 491 H 47.8851 -1.46429 -1.10593 0
M  V30 492 H 46.2671 -1.33155 -3.72942 0
M  V30 493 H 47.4411 -3.89466 -2.46278 0
M  V30 494 H 45.7561 -3.43231 -2.35758 0
M  V30 495 H 48.3531 -2.22381 -4.86262 0
M  V30 496 H 48.6961 -0.687607 -4.10582 0
M  V30 497 H 49.2291 -2.1931 -3.31885 0
M  V30 498 H 45.9681 -5.07273 -4.15156 0
M  V30 499 H 45.4881 -3.51394 -4.86089 0
M  V30 500 H 47.1671 -4.08804 -5.01486 0
M  V30 501 N 47.2992 1.18797 -1.03562 0
M  V30 502 C 48.5462 1.8865 -0.736023 0
M  V30 503 C 48.8742 1.80041 0.735889 0
M  V30 504 O 48.1292 1.19179 1.55225 0
M  V30 505 C 48.4282 3.38692 -1.14117 0
M  V30 506 C 48.0942 3.67504 -2.6125 0
M  V30 507 C 46.7562 3.75078 -3.01447 0
M  V30 508 C 49.1082 3.80293 -3.56408 0
M  V30 509 C 46.4362 3.92915 -4.35701 0
M  V30 510 C 48.7882 3.99645 -4.90374 0
M  V30 511 C 47.4522 4.05453 -5.30249 0
M  V30 512 H 46.7222 0.690321 -0.26933 0
M  V30 513 H 49.3692 1.40641 -1.29971 0
M  V30 514 H 47.6742 3.88645 -0.496202 0
M  V30 515 H 49.3712 3.91072 -0.886789 0
M  V30 516 H 45.9612 3.62223 -2.29113 0
M  V30 517 H 50.1452 3.73779 -3.26501 0
M  V30 518 H 45.4012 3.95653 -4.66121 0
M  V30 519 H 49.5752 4.08482 -5.64017 0
M  V30 520 H 47.2022 4.19027 -6.34288 0
M  V30 521 N 48.7773 0.814389 1.34928 0
M  V30 522 C 50.1933 0.499084 1.51596 0
M  V30 523 C 50.3933 -0.978319 1.76157 0
M  V30 524 O 49.4493 -1.76309 1.80752 0
M  V30 525 C 50.7623 1.35121 2.68631 0
M  V30 526 C 52.3103 1.34746 2.82511 0
M  V30 527 C 52.7853 2.18388 4.0258 0
M  V30 528 N 54.2763 2.15966 4.09772 0
M  V30 529 C 55.0113 2.77437 5.01813 0
M  V30 530 N 54.5073 3.47866 5.99134 0
M  V30 531 N 56.3003 2.67037 4.94619 0
M  V30 532 H 48.4513 1.7711 1.17243 0
M  V30 533 H 50.7143 0.754256 0.574284 0
M  V30 534 H 50.4203 2.40001 2.57085 0
M  V30 535 H 50.2943 1.00991 3.63429 0
M  V30 536 H 52.6813 0.30648 2.93504 0
M  V30 537 H 52.7623 1.72869 1.88547 0
M  V30 538 H 52.4063 3.2253 3.92347 0
M  V30 539 H 52.3363 1.77621 4.9574 0
M  V30 540 H 54.8273 1.64729 3.40107 0
M  V30 541 H 55.1403 3.92038 6.65977 0
M  V30 542 H 53.4853 3.51972 5.99284 0
M  V30 543 H 56.6763 2.11597 4.17546 0
M  V30 544 H 56.8493 3.15232 5.66156 0
M  V30 545 N 50.2554 -1.46986 0.568584 0
M  V30 546 C 51.2184 -2.28624 -0.162366 0
M  V30 547 C 52.2184 -1.37596 -0.832103 0
M  V30 548 O 53.4084 -1.60115 -0.68622 0
M  V30 549 C 50.5404 -3.17596 -1.23878 0
M  V30 550 H 51.7334 -2.94722 0.554899 0
M  V30 551 H 49.2864 -1.52863 0.325976 0
M  V30 552 H 50.0214 -2.56214 -1.98808 0
M  V30 553 H 49.8064 -3.846 -0.763219 0
M  V30 554 H 51.2964 -3.79078 -1.75185 0
M  V30 555 N 51.7335 -0.305618 -1.54608 0
M  V30 556 C 52.6965 0.555591 -2.22364 0
M  V30 557 C 53.6965 1.05768 -1.21119 0
M  V30 558 O 54.8865 0.952972 -1.45822 0
M  V30 559 C 52.0185 1.76974 -2.91364 0
M  V30 560 H 53.2115 -0.0364572 -2.99878 0
M  V30 561 H 50.7645 -0.0565007 -1.56198 0
M  V30 562 H 51.4995 2.40151 -2.17941 0
M  V30 563 H 51.2845 1.41732 -3.65588 0
M  V30 564 H 52.7745 2.38148 -3.43038 0
M  V30 565 N 53.2116 1.57565 -0.0334293 0
M  V30 566 C 54.4576 1.92262 0.645226 0
M  V30 567 C 54.7906 0.910543 1.71531 0
M  V30 568 O 54.0656 -0.066099 1.94388 0
M  V30 569 C 54.3486 3.37422 1.2577 0
M  V30 570 C 54.2016 4.49369 0.196891 0
M  V30 571 C 55.5206 3.82628 2.17449 0
M  V30 572 H 52.6396 0.699171 0.233085 0
M  V30 573 H 55.2816 1.89779 -0.0915694 0
M  V30 574 H 53.4316 3.39669 1.88566 0
M  V30 575 H 55.1036 4.59254 -0.433962 0
M  V30 576 H 53.3466 4.31168 -0.477137 0
M  V30 577 H 54.0176 5.47978 0.665124 0
M  V30 578 H 56.4936 3.82145 1.64634 0
M  V30 579 H 55.3696 4.84883 2.57254 0
M  V30 580 H 55.6306 3.18376 3.0674 0
M  V30 581 N 54.6897 -0.239769 1.55765 0
M  V30 582 C 56.1007 -0.808263 1.68297 0
M  V30 583 C 56.4517 -1.85736 0.632181 0
M  V30 584 O 55.5767 -2.15277 -0.220204 0
M  V30 585 C 56.1717 -1.47284 3.05111 0
M  V30 586 C 54.7307 -1.98895 3.19559 0
M  V30 587 C 53.8777 -0.842575 2.64189 0
M  V30 588 H 56.8287 -0.0154422 1.58692 0
M  V30 589 H 56.8497 -2.34111 2.99954 0
M  V30 590 H 56.3617 -0.709053 3.81568 0
M  V30 591 H 54.4627 -2.78132 2.47938 0
M  V30 592 H 54.5757 -2.18143 4.26556 0
M  V30 593 H 52.9397 -1.24501 2.22197 0
M  V30 594 H 53.7227 -0.0917552 3.43177 0
M  V30 595 N 56.1678 -1.49265 -0.50573 0
M  V30 596 C 57.3928 -1.62478 -1.28902 0
M  V30 597 C 57.8178 -0.294332 -1.85783 0
M  V30 598 O 57.1758 0.737412 -1.65626 0
M  V30 599 C 57.2238 -2.69268 -2.39848 0
M  V30 600 O 56.3278 -2.28113 -3.43567 0
M  V30 601 H 55.6688 -0.54399 -0.380751 0
M  V30 602 H 58.1988 -1.95421 -0.605952 0
M  V30 603 H 58.2088 -2.91291 -2.85681 0
M  V30 604 H 56.8838 -3.65846 -1.97812 0
M  V30 605 H 55.4608 -2.16401 -3.03685 0
M  V30 606 N 57.6459 0.756429 -1.3826 0
M  V30 607 C 58.8939 1.51248 -1.34047 0
M  V30 608 C 59.2149 1.94875 0.0698372 0
M  V30 609 O 58.4849 1.67436 1.01696 0
M  V30 610 H 57.0649 0.561018 -0.493222 0
M  V30 611 H 59.7269 0.899347 -1.7291 0
M  V30 612 H 58.8229 2.40472 -1.98947 0
M  V30 613 N 59.124 1.23083 0.984299 0
M  V30 614 C 60.087 1.00979 2.05757 0
M  V30 615 C 61.087 -0.0269573 1.60777 0
M  V30 616 O 62.277 0.212403 1.729 0
M  V30 617 C 59.409 0.527072 3.36801 0
M  V30 618 H 60.602 1.9622 2.26799 0
M  V30 619 H 58.155 1.05072 1.15714 0
M  V30 620 H 58.89 -0.429294 3.21446 0
M  V30 621 H 58.675 1.27515 3.70786 0
M  V30 622 H 60.165 0.392942 4.15747 0
M  V30 623 N 60.6021 -1.18246 1.0419 0
M  V30 624 C 61.8271 -1.92736 0.765996 0
M  V30 625 C 62.2521 -1.75728 -0.67091 0
M  V30 626 O 61.6101 -1.06825 -1.46486 0
M  V30 627 C 61.6581 -3.42148 1.13875 0
M  V30 628 O 60.7621 -4.11548 0.264954 0
M  V30 629 H 60.1031 -0.601238 0.281797 0
M  V30 630 H 62.6331 -1.49942 1.39207 0
M  V30 631 H 62.6431 -3.92858 1.1012 0
M  V30 632 H 61.3181 -3.53848 2.18551 0
M  V30 633 H 59.8951 -3.71137 0.362226 0
M  V30 634 N 62.0802 -0.821533 -1.34494 0
M  V30 635 C 63.3082 -0.421884 -2.02553 0
M  V30 636 C 63.7232 0.971745 -1.61872 0
M  V30 637 O 63.0802 1.62864 -0.823496 0
M  V30 638 C 63.1312 -0.51285 -3.57844 0
M  V30 639 O 62.8522 -1.85155 -3.97051 0
M  V30 640 C 64.3532 -0.107921 -4.43169 0
M  V30 641 H 61.5732 -0.169482 -0.649243 0
M  V30 642 H 64.1172 -1.1093 -1.71798 0
M  V30 643 H 62.2722 0.126474 -3.87193 0
M  V30 644 H 62.6862 -1.82482 -4.91732 0
M  V30 645 H 64.1602 -0.222657 -5.51551 0
M  V30 646 H 64.6372 0.948401 -4.28838 0
M  V30 647 H 65.2432 -0.720989 -4.19144 0
M  V30 648 N 63.5583 1.46682 -0.576371 0
M  V30 649 C 64.8063 2.02013 -0.0594163 0
M  V30 650 C 65.1273 1.45101 1.30271 0
M  V30 651 O 64.3973 0.633317 1.8538 0
M  V30 652 H 62.9773 0.746759 -0.0189745 0
M  V30 653 H 65.6393 1.79862 -0.750717 0
M  V30 654 H 64.7353 3.12097 0.014345 0
M  V30 655 N 65.0364 0.313813 1.54444 0
M  V30 656 C 66.2854 -0.292519 1.99568 0
M  V30 657 C 66.5984 -1.54011 1.20582 0
M  V30 658 O 67.8044 -2.22183 1.56035 0
M  V30 659 C 66.2604 -0.571752 3.55329 0
M  V30 660 C 65.8684 0.658229 4.43138 0
M  V30 661 C 67.6124 -1.13857 4.08946 0
M  V30 662 C 65.5194 0.351439 5.90355 0
M  V30 663 H 64.4494 -0.113079 0.745472 0
M  V30 664 H 67.1004 0.424518 1.78522 0
M  V30 665 H 65.4824 -1.34872 3.72325 0
M  V30 666 H 66.6564 1.43403 4.37918 0
M  V30 667 H 64.9714 1.14458 4.0036 0
M  V30 668 H 67.5684 -1.38257 5.16516 0
M  V30 669 H 67.9114 -2.08489 3.6033 0
M  V30 670 H 68.4444 -0.423015 3.95544 0
M  V30 671 H 65.1834 1.26667 6.43145 0
M  V30 672 H 64.7034 -0.386842 5.98551 0
M  V30 673 H 66.3824 -0.0423134 6.46986 0
M  V30 674 N 66.5145 -1.57545 0.0417849 0
M  V30 675 C 67.7445 -1.96339 -0.642995 0
M  V30 676 C 68.1525 -0.917536 -1.65463 0
M  V30 677 O 67.4955 0.107747 -1.83384 0
M  V30 678 C 67.5575 -3.31333 -1.39494 0
M  V30 679 C 67.2215 -4.53796 -0.540204 0
M  V30 680 C 68.2185 -5.19553 0.189806 0
M  V30 681 C 65.9035 -5.0006 -0.473886 0
M  V30 682 C 67.8975 -6.29904 0.974674 0
M  V30 683 C 65.5845 -6.10289 0.314677 0
M  V30 684 C 66.5825 -6.75072 1.03765 0
M  V30 685 O 66.2705 -7.83183 1.81327 0
M  V30 686 H 66.0025 -0.651241 -0.181277 0
M  V30 687 H 68.5565 -2.05148 0.101665 0
M  V30 688 H 66.7865 -3.19052 -2.18502 0
M  V30 689 H 68.4755 -3.54942 -1.96904 0
M  V30 690 H 69.2415 -4.84774 0.147981 0
M  V30 691 H 65.1205 -4.49433 -1.0262 0
M  V30 692 H 68.6645 -6.80401 1.5395 0
M  V30 693 H 64.5615 -6.44506 0.358174 0
M  V30 694 H 65.3295 -7.99913 1.73438 0
M  V30 695 N 67.9926 0.231505 -1.5589 0
M  V30 696 C 68.9026 1.308 -1.94752 0
M  V30 697 C 69.9186 1.51826 -0.849989 0
M  V30 698 O 71.0946 1.6515 -1.15271 0
M  V30 699 C 68.1596 2.63968 -2.24771 0
M  V30 700 C 67.2206 2.51331 -3.48039 0
M  V30 701 C 66.4536 3.78148 -3.76616 0
M  V30 702 O 66.6766 4.80722 -3.07022 0
M  V30 703 O 65.6106 3.75857 -4.70123 0
M  V30 704 H 69.4366 1.0083 -2.86474 0
M  V30 705 H 67.0216 0.433547 -1.42971 0
M  V30 706 H 68.9036 3.42633 -2.45318 0
M  V30 707 H 67.5786 2.9364 -1.36225 0
M  V30 708 H 66.4856 1.709 -3.32782 0
M  V30 709 H 67.8186 2.26601 -4.36936 0
M  V30 710 N 69.4707 1.49531 0.497807 0
M  V30 711 C 70.4337 1.65916 1.58128 0
M  V30 712 C 71.4337 0.530825 1.51786 0
M  V30 713 O 72.6237 0.797342 1.54881 0
M  V30 714 C 69.7557 1.65951 2.9778 0
M  V30 715 H 70.9487 2.62556 1.44929 0
M  V30 716 H 68.5017 1.38611 0.722275 0
M  V30 717 H 69.2367 0.709065 3.16453 0
M  V30 718 H 69.0217 2.47897 3.03792 0
M  V30 719 H 70.5117 1.80673 3.76493 0
M  V30 720 N 70.9488 -0.749086 1.3866 0
M  V30 721 C 71.8788 -1.8764 1.38973 0
M  V30 722 C 72.8598 -1.68178 0.255004 0
M  V30 723 O 74.0448 -1.88704 0.458754 0
M  V30 724 C 71.1748 -3.25222 1.21851 0
M  V30 725 C 70.1288 -3.59295 2.32575 0
M  V30 726 C 69.4548 -4.95663 2.00555 0
M  V30 727 C 70.7548 -3.63709 3.7485 0
M  V30 728 H 72.4488 -1.87635 2.3331 0
M  V30 729 H 69.9948 -0.901329 1.12303 0
M  V30 730 H 71.9478 -4.03746 1.20695 0
M  V30 731 H 70.6718 -3.25719 0.239775 0
M  V30 732 H 69.3308 -2.83093 2.32925 0
M  V30 733 H 68.9788 -4.92724 1.01154 0
M  V30 734 H 68.6788 -5.19429 2.74714 0
M  V30 735 H 70.2028 -5.7656 2.01024 0
M  V30 736 H 71.6168 -4.32338 3.76506 0
M  V30 737 H 70.0138 -3.98986 4.48252 0
M  V30 738 H 71.0838 -2.63834 4.06841 0
M  V30 739 N 72.4269 -1.23603 -0.977757 0
M  V30 740 C 73.3369 -1.03632 -2.1047 0
M  V30 741 C 74.3529 0.0199435 -1.73989 0
M  V30 742 O 75.5289 -0.176076 -2.00629 0
M  V30 743 C 72.5939 -0.63276 -3.40877 0
M  V30 744 C 71.6549 -1.76437 -3.91367 0
M  V30 745 C 70.8879 -1.37997 -5.15551 0
M  V30 746 O 71.1109 -0.265357 -5.69782 0
M  V30 747 O 70.0449 -2.20201 -5.60174 0
M  V30 748 H 73.8709 -1.98086 -2.30208 0
M  V30 749 H 71.4559 -1.02332 -1.08851 0
M  V30 750 H 73.3379 -0.418761 -4.19314 0
M  V30 751 H 72.0129 0.282754 -3.22463 0
M  V30 752 H 70.9199 -2.03304 -3.14036 0
M  V30 753 H 72.2529 -2.6583 -4.14241 0
M  V30 754 N 73.905 1.17692 -1.04816 0
M  V30 755 C 74.835 2.23777 -0.666791 0
M  V30 756 C 75.816 1.66796 0.33361 0
M  V30 757 O 77.001 1.93039 0.212042 0
M  V30 758 C 74.131 3.47281 -0.0367933 0
M  V30 759 C 73.085 4.17059 -0.961546 0
M  V30 760 C 72.411 5.34342 -0.195626 0
M  V30 761 C 73.711 4.69713 -2.28402 0
M  V30 762 H 75.405 2.55933 -1.55367 0
M  V30 763 H 72.951 1.23019 -0.748484 0
M  V30 764 H 74.904 4.20706 0.241775 0
M  V30 765 H 73.628 3.14381 0.885004 0
M  V30 766 H 72.287 3.45541 -1.22462 0
M  V30 767 H 71.935 4.97692 0.728816 0
M  V30 768 H 71.635 5.81966 -0.811775 0
M  V30 769 H 73.159 6.10553 0.0757473 0
M  V30 770 H 74.573 5.34794 -2.06563 0
M  V30 771 H 72.97 5.279 -2.8538 0
M  V30 772 H 74.04 3.86726 -2.92525 0
M  V30 773 N 75.3831 0.828654 1.34056 0
M  V30 774 C 76.7991 0.515135 1.51058 0
M  V30 775 C 76.9991 -0.959581 1.77184 0
M  V30 776 O 76.0551 -1.74382 1.82612 0
M  V30 777 C 77.3681 1.37963 2.67183 0
M  V30 778 C 78.9161 1.37735 2.81066 0
M  V30 779 C 79.3911 2.22645 4.00241 0
M  V30 780 N 80.8821 2.203 4.07458 0
M  V30 781 C 81.6171 2.82744 4.98842 0
M  V30 782 N 81.1131 3.54201 5.9541 0
M  V30 783 N 82.9061 2.72268 4.91759 0
M  V30 784 H 75.0571 1.78343 1.15358 0
M  V30 785 H 77.3201 0.760304 0.566252 0
M  V30 786 H 77.0261 2.42714 2.54525 0
M  V30 787 H 76.9001 1.0484 3.62338 0
M  V30 788 H 79.2871 0.337593 2.93163 0
M  V30 789 H 79.3681 1.74859 1.86703 0
M  V30 790 H 79.0121 3.26674 3.88905 0
M  V30 791 H 78.9421 1.82869 4.93829 0
M  V30 792 H 81.4331 1.68327 3.38341 0
M  V30 793 H 81.7461 3.9908 6.61782 0
M  V30 794 H 80.0911 3.58308 5.95517 0
M  V30 795 H 83.2821 2.16014 4.15278 0
M  V30 796 H 83.4551 3.21219 5.62781 0
M  V30 797 N 76.8612 -1.46375 0.584142 0
M  V30 798 C 78.1382 -1.956 0.0033388 0
M  V30 799 C 78.5182 -1.52679 -1.45782 0
M  V30 800 O 77.8662 -0.77816 -2.14842 0
M  V30 801 C 78.0762 -3.48551 0.176891 0
M  V30 802 C 79.4242 -4.24576 0.0454609 0
M  V30 803 O 80.4482 -3.56043 0.105801 0
M  V30 804 O 79.3072 -5.46427 -0.0890376 0
M  V30 805 H 76.4012 -0.825547 -0.0490066 0
M  V30 806 H 78.9472 -1.56652 0.65256 0
M  V30 807 H 77.7192 -3.72683 1.1926 0
M  V30 808 H 77.3422 -3.94332 -0.508695 0
M  V30 809 N 78.3393 -0.321999 -1.54275 0
M  V30 810 C 79.2873 0.560206 -2.25753 0
M  V30 811 C 80.2813 1.11984 -1.27106 0
M  V30 812 O 81.4873 1.06806 -1.44888 0
M  V30 813 H 77.8623 0.199304 -0.725108 0
M  V30 814 H 79.8333 -0.0649365 -2.98329 0
M  V30 815 C 78.5823 1.71023 -3.02731 0
M  V30 816 H 77.9053 1.28885 -3.78456 0
M  V30 817 H 79.3453 2.30314 -3.55993 0
M  V30 818 C 77.8043 2.62692 -2.10938 0
M  V30 819 O 78.3343 3.64364 -1.6912 0
M  V30 820 N 76.5403 2.30891 -1.76459 0
M  V30 821 H 76.0873 1.48253 -2.10663 0
M  V30 822 H 76.0453 2.92487 -1.1532 0
M  V30 823 N 79.8174 1.5752 -0.0501392 0
M  V30 824 C 81.0944 1.83996 0.663685 0
M  V30 825 C 81.4744 0.938339 1.89099 0
M  V30 826 O 80.8224 -0.00087759 2.285 0
M  V30 827 C 81.0324 3.33702 1.02196 0
M  V30 828 C 82.3804 4.00691 1.40469 0
M  V30 829 O 83.4044 3.38321 1.11433 0
M  V30 830 O 82.2634 5.10658 1.94654 0
M  V30 831 H 79.3574 0.759385 0.32751 0
M  V30 832 H 81.9034 1.69514 -0.0794238 0
M  V30 833 H 80.6754 3.91015 0.149364 0
M  V30 834 H 80.2984 3.53368 1.82255 0
M  V30 835 N 81.2955 -0.223234 1.56011 0
M  V30 836 C 82.2425 -1.27664 1.92277 0
M  V30 837 C 83.2125 -1.46659 0.779763 0
M  V30 838 O 84.3975 -1.60256 1.03551 0
M  V30 839 C 81.5375 -2.62234 2.24338 0
M  V30 840 C 80.6505 -2.51051 3.51564 0
M  V30 841 C 79.7855 -3.78133 3.7308 0
M  V30 842 C 78.8245 -3.61665 4.93827 0
M  V30 843 N 77.9615 -4.80693 5.11741 0
M  V30 844 H 82.8015 -0.960358 2.82101 0
M  V30 845 H 80.3385 -0.462901 1.39627 0
M  V30 846 H 82.2965 -3.40596 2.40936 0
M  V30 847 H 80.9265 -2.91961 1.3769 0
M  V30 848 H 79.9785 -1.64132 3.43169 0
M  V30 849 H 81.2905 -2.34803 4.40079 0
M  V30 850 H 80.4445 -4.64938 3.89766 0
M  V30 851 H 79.1835 -3.97304 2.82844 0
M  V30 852 H 78.1885 -2.73244 4.77093 0
M  V30 853 H 79.4135 -3.43966 5.85546 0
M  V30 854 H 77.3595 -5.00181 4.24446 0
M  V30 855 H 77.2765 -4.67165 5.94384 0
M  V30 856 H 78.5445 -5.6893 5.3286 0
M  V30 857 N 82.7736 -1.49793 -0.48987 0
M  V30 858 C 83.9986 -1.63836 -1.27172 0
M  V30 859 C 84.4236 -0.31402 -1.8546 0
M  V30 860 O 83.7816 0.719803 -1.66399 0
M  V30 861 C 83.8296 -2.71797 -2.36978 0
M  V30 862 O 82.9336 -2.31744 -3.41128 0
M  V30 863 H 82.2746 -0.547997 -0.37496 0
M  V30 864 H 84.8046 -1.96053 -0.585191 0
M  V30 865 H 84.8146 -2.94305 -2.82575 0
M  V30 866 H 83.4896 -3.67923 -1.93921 0
M  V30 867 H 82.0666 -2.1961 -3.01373 0
M  V30 868 N 84.2517 0.741722 -1.39055 0
M  V30 869 C 85.6677 1.04638 -1.20512 0
M  V30 870 C 85.8677 2.01405 -0.0620218 0
M  V30 871 O 84.9237 2.45547 0.588457 0
M  V30 872 C 86.2367 1.6151 -2.53643 0
M  V30 873 C 87.7847 1.73623 -2.6043 0
M  V30 874 C 88.2597 2.33906 -3.93767 0
M  V30 875 N 89.7507 2.41323 -3.9537 0
M  V30 876 C 90.4857 2.88888 -4.95309 0
M  V30 877 N 89.9817 3.36401 -6.05645 0
M  V30 878 N 91.7747 2.88037 -4.82692 0
M  V30 879 H 83.9257 0.0998155 -2.12165 0
M  V30 880 H 86.1887 0.106907 -0.941953 0
M  V30 881 H 85.8947 0.978739 -3.37807 0
M  V30 882 H 85.7687 2.60411 -2.72885 0
M  V30 883 H 88.1557 2.36384 -1.76655 0
M  V30 884 H 88.2367 0.733945 -2.45045 0
M  V30 885 H 87.8807 1.71776 -4.7797 0
M  V30 886 H 87.8107 3.34799 -4.06469 0
M  V30 887 H 90.3017 2.07734 -3.15682 0
M  V30 888 H 90.6147 3.71186 -6.77821 0
M  V30 889 H 88.9597 3.34427 -6.09248 0
M  V30 890 H 92.1507 2.50237 -3.95599 0
M  V30 891 H 92.3237 3.24792 -5.60726 0
M  V30 892 N 85.7298 1.2412 0.971189 0
M  V30 893 C 86.9598 1.10415 1.7462 0
M  V30 894 C 87.3678 -0.346462 1.86001 0
M  V30 895 O 86.7108 -1.25104 1.34517 0
M  V30 896 C 86.7728 1.66596 3.18568 0
M  V30 897 C 86.4368 3.15446 3.3067 0
M  V30 898 C 87.4338 4.12636 3.16271 0
M  V30 899 C 85.1188 3.55337 3.55022 0
M  V30 900 C 87.1128 5.47699 3.26044 0
M  V30 901 C 84.7998 4.90542 3.64434 0
M  V30 902 C 85.7978 5.86532 3.49956 0
M  V30 903 O 85.4858 7.19279 3.59017 0
M  V30 904 H 85.2178 0.386616 0.55453 0
M  V30 905 H 87.7718 1.64633 1.22821 0
M  V30 906 H 86.0018 1.06808 3.71657 0
M  V30 907 H 87.6908 1.48232 3.77865 0
M  V30 908 H 88.4568 3.8316 2.97344 0
M  V30 909 H 84.3358 2.8113 3.65359 0
M  V30 910 H 87.8798 6.22603 3.14661 0
M  V30 911 H 83.7768 5.19691 3.82873 0
M  V30 912 H 84.5448 7.27153 3.75754 0
M  V30 913 N 87.2079 -1.17134 1.05439 0
M  V30 914 C 88.1379 -2.2342 0.678649 0
M  V30 915 C 89.1189 -1.66971 -0.32476 0
M  V30 916 O 90.3039 -1.93149 -0.201802 0
M  V30 917 C 87.4339 -3.47256 0.0552099 0
M  V30 918 C 86.3879 -4.16543 0.98365 0
M  V30 919 C 85.7139 -5.34231 0.223961 0
M  V30 920 C 87.0139 -4.68495 2.3089 0
M  V30 921 H 88.7079 -2.55105 1.56722 0
M  V30 922 H 86.2539 -1.2262 0.754998 0
M  V30 923 H 88.2069 -4.20828 -0.21946 0
M  V30 924 H 86.9309 -3.14846 -0.868319 0
M  V30 925 H 85.5899 -3.44887 1.24293 0
M  V30 926 H 85.2379 -4.98071 -0.702412 0
M  V30 927 H 84.9379 -5.81527 0.842627 0
M  V30 928 H 86.4619 -6.10585 -0.0433671 0
M  V30 929 H 87.8759 -5.33691 2.09396 0
M  V30 930 H 86.2729 -5.26379 2.88176 0
M  V30 931 H 87.3429 -3.85169 2.94572 0
M  V30 932 N 88.686 -0.835752 -1.33615 0
M  V30 933 C 89.934 -0.429109 -1.97492 0
M  V30 934 C 90.255 1.01433 -1.66543 0
M  V30 935 O 89.525 1.70611 -0.962744 0
M  V30 936 H 88.105 -0.155686 -0.730596 0
M  V30 937 H 90.767 -1.06802 -1.63031 0
M  V30 938 H 89.863 -0.55861 -3.0706 0
M  V30 939 N 90.1641 1.46063 -0.591896 0
M  V30 940 C 91.1111 2.30399 0.136069 0
M  V30 941 C 92.0811 1.41169 0.875238 0
M  V30 942 O 93.2661 1.70112 0.86409 0
M  V30 943 C 90.4061 3.25804 1.13781 0
M  V30 944 C 89.5191 4.30134 0.401137 0
M  V30 945 C 88.6541 5.12659 1.39121 0
M  V30 946 C 87.6931 6.0873 0.641462 0
M  V30 947 N 86.8301 6.8409 1.58004 0
M  V30 948 H 91.6701 2.92118 -0.589144 0
M  V30 949 H 89.2071 1.43959 -0.302342 0
M  V30 950 H 91.1651 3.79569 1.73156 0
M  V30 951 H 89.7951 2.65872 1.83062 0
M  V30 952 H 88.8471 3.79152 -0.307826 0
M  V30 953 H 90.1591 4.98458 -0.184565 0
M  V30 954 H 89.3131 5.70747 2.05749 0
M  V30 955 H 88.0521 4.44316 2.01084 0
M  V30 956 H 87.0571 5.49786 -0.0385419 0
M  V30 957 H 88.2821 6.79095 0.0270945 0
M  V30 958 H 86.2281 6.18449 2.18761 0
M  V30 959 H 86.1451 7.48709 1.04738 0
M  V30 960 H 87.4131 7.4673 2.23639 0
M  V30 961 N 91.6422 0.330177 1.54103 0
M  V30 962 C 92.8902 -0.269871 2.0029 0
M  V30 963 C 93.2112 -1.52133 1.21986 0
M  V30 964 O 92.4812 -1.93212 0.323438 0
M  V30 965 H 91.0612 -0.10271 0.739905 0
M  V30 966 H 93.7232 0.448249 1.89675 0
M  V30 967 H 92.8192 -0.52166 3.07709 0
M  V30 968 N 93.1203 -1.57491 0.0584922 0
M  V30 969 C 94.3663 -1.93264 -0.614558 0
M  V30 970 C 94.6993 -0.937717 -1.7006 0
M  V30 971 O 93.9743 0.0351652 -1.94468 0
M  V30 972 C 94.2573 -3.3938 -1.20386 0
M  V30 973 C 94.1103 -4.49625 -0.125375 0
M  V30 974 C 95.4293 -3.86039 -2.11334 0
M  V30 975 H 92.5483 -0.702791 -0.221933 0
M  V30 976 H 95.1903 -1.8961 0.12175 0
M  V30 977 H 93.3403 -3.42626 -1.83139 0
M  V30 978 H 95.0123 -4.58506 0.506971 0
M  V30 979 H 93.2553 -4.30354 0.545672 0
M  V30 980 H 93.9263 -5.48967 -0.577861 0
M  V30 981 H 96.4023 -3.84716 -1.58534 0
M  V30 982 H 95.2783 -4.88914 -2.49507 0
M  V30 983 H 95.5393 -3.23215 -3.01636 0
M  V30 984 N 94.5984 0.214957 -1.56127 0
M  V30 985 C 95.5304 1.29004 -1.89448 0
M  V30 986 C 96.5434 1.42716 -0.783326 0
M  V30 987 O 97.7324 1.43496 -1.06166 0
M  V30 988 C 94.8324 2.66482 -2.09381 0
M  V30 989 C 94.0054 2.74633 -3.40434 0
M  V30 990 C 93.0644 3.9317 -3.49719 0
M  V30 991 O 92.0904 3.812 -4.227 0
M  V30 992 N 93.2924 5.07765 -2.81346 0
M  V30 993 H 96.0574 1.00743 -2.82261 0
M  V30 994 H 93.6184 0.40497 -1.56753 0
M  V30 995 H 95.6104 3.44173 -2.12901 0
M  V30 996 H 94.1804 2.87314 -1.23163 0
M  V30 997 H 93.4004 1.83368 -3.48955 0
M  V30 998 H 94.6884 2.77054 -4.26754 0
M  V30 999 H 94.0864 5.20386 -2.21843 0
M  V30 1000 H 92.6434 5.83474 -2.90519 0
M  V30 1001 N 96.0765 1.50051 0.48192 0
M  V30 1002 C 97.0235 1.68122 1.58125 0
M  V30 1003 C 97.9935 0.522545 1.57666 0
M  V30 1004 O 99.1785 0.751844 1.75362 0
M  V30 1005 C 96.3185 1.77142 2.96167 0
M  V30 1006 C 95.4315 3.0444 3.06497 0
M  V30 1007 C 94.5665 3.04321 4.35387 0
M  V30 1008 C 93.6055 4.26118 4.3942 0
M  V30 1009 N 92.7425 4.238 5.59766 0
M  V30 1010 H 97.5825 2.6198 1.42022 0
M  V30 1011 H 95.1195 1.29877 0.690687 0
M  V30 1012 H 97.0775 1.80352 3.76203 0
M  V30 1013 H 95.7075 0.867329 3.1093 0
M  V30 1014 H 94.7595 3.10752 2.19402 0
M  V30 1015 H 96.0715 3.94426 3.05336 0
M  V30 1016 H 95.2255 3.062 5.23762 0
M  V30 1017 H 93.9645 2.12147 4.39141 0
M  V30 1018 H 92.9695 4.24463 3.49444 0
M  V30 1019 H 94.1945 5.19507 4.37366 0
M  V30 1020 H 92.1405 3.34474 5.64326 0
M  V30 1021 H 92.0575 5.07542 5.60301 0
M  V30 1022 H 93.3255 4.2981 6.50295 0
M  V30 1023 N 97.5546 -0.734337 1.39446 0
M  V30 1024 C 98.5176 -1.83004 1.37994 0
M  V30 1025 C 99.5176 -1.58397 0.276938 0
M  V30 1026 O 100.708 -1.65785 0.534875 0
M  V30 1027 C 97.8396 -3.20802 1.1532 0
M  V30 1028 H 99.0326 -1.85694 2.35494 0
M  V30 1029 H 96.5856 -0.938059 1.25021 0
M  V30 1030 H 97.3206 -3.23772 0.185036 0
M  V30 1031 H 97.1056 -3.4006 1.95197 0
M  V30 1032 H 98.5956 -4.00862 1.17046 0
M  V30 1033 N 99.0327 -1.24633 -0.964593 0
M  V30 1034 C 100.282 -1.08188 -1.7023 0
M  V30 1035 C 100.595 0.37873 -1.91898 0
M  V30 1036 O 101.801 0.663427 -2.6327 0
M  V30 1037 C 100.257 -1.88773 -3.06419 0
M  V30 1038 C 99.8647 -3.39263 -2.92582 0
M  V30 1039 C 101.609 -1.80867 -3.84041 0
M  V30 1040 C 99.5157 -4.1218 -4.24101 0
M  V30 1041 H 98.4457 -0.401245 -0.638372 0
M  V30 1042 H 101.097 -1.48742 -1.07462 0
M  V30 1043 H 99.4787 -1.41035 -3.70034 0
M  V30 1044 H 100.653 -3.94603 -2.37961 0
M  V30 1045 H 98.9677 -3.48154 -2.28424 0
M  V30 1046 H 101.565 -2.32646 -4.81435 0
M  V30 1047 H 101.908 -0.774543 -4.09031 0
M  V30 1048 H 102.441 -2.26301 -3.27159 0
M  V30 1049 H 99.1797 -5.15965 -4.04303 0
M  V30 1050 H 98.6997 -3.61626 -4.78526 0
M  V30 1051 H 100.379 -4.19349 -4.92702 0
M  V30 1052 N 100.511 1.16574 -1.06058 0
M  V30 1053 C 101.458 2.20883 -0.669263 0
M  V30 1054 C 102.428 1.62729 0.332918 0
M  V30 1055 O 103.613 1.895 0.222346 0
M  V30 1056 C 100.753 3.45049 -0.0593572 0
M  V30 1057 C 99.8658 4.17458 -1.11143 0
M  V30 1058 C 99.0008 5.29135 -0.467916 0
M  V30 1059 C 98.0398 5.93343 -1.50369 0
M  V30 1060 N 97.1768 6.96516 -0.883706 0
M  V30 1061 H 102.017 2.53709 -1.5632 0
M  V30 1062 H 99.5538 1.24616 -0.781625 0
M  V30 1063 H 101.512 4.16033 0.311771 0
M  V30 1064 H 100.142 3.12781 0.797992 0
M  V30 1065 H 99.1938 3.45101 -1.60029 0
M  V30 1066 H 100.506 4.61307 -1.89731 0
M  V30 1067 H 99.6598 6.06684 -0.0436871 0
M  V30 1068 H 98.3988 4.86443 0.349864 0
M  V30 1069 H 97.4038 5.14517 -1.93784 0
M  V30 1070 H 98.6288 6.38114 -2.32352 0
M  V30 1071 H 96.5748 6.55943 -0.086595 0
M  V30 1072 H 96.4918 7.38723 -1.607 0
M  V30 1073 H 97.7598 7.77993 -0.484543 0
M  V30 1074 N 101.989 0.842826 1.3317 0
M  V30 1075 C 102.937 0.267495 2.31057 0
M  V30 1076 C 103.931 -0.602682 1.58316 0
M  V30 1077 O 105.137 -0.491803 1.73151 0
M  V30 1078 H 101.512 0.0677813 0.748939 0
M  V30 1079 H 103.483 1.10754 2.77085 0
M  V30 1080 C 102.232 -0.539331 3.43492 0
M  V30 1081 H 101.555 0.12095 3.99617 0
M  V30 1082 H 102.995 -0.90767 4.14171 0
M  V30 1083 C 101.454 -1.71981 2.89697 0
M  V30 1084 O 101.984 -2.81862 2.86211 0
M  V30 1085 N 100.19 -1.54299 2.46252 0
M  V30 1086 H 99.7369 -0.649143 2.49287 0
M  V30 1087 H 99.6949 -2.33431 2.10612 0
M  V30 1088 N 103.467 -1.45747 0.599634 0
M  V30 1089 C 104.716 -2.01502 0.0893511 0
M  V30 1090 C 105.029 -1.4748 -1.28488 0
M  V30 1091 O 106.235 -1.95161 -1.88745 0
M  V30 1092 C 104.691 -3.59735 0.109082 0
M  V30 1093 C 104.299 -4.22754 1.48267 0
M  V30 1094 C 106.043 -4.23085 -0.346374 0
M  V30 1095 C 103.95 -5.73115 1.45921 0
M  V30 1096 H 102.88 -0.753417 0.0296347 0
M  V30 1097 H 105.531 -1.67303 0.753788 0
M  V30 1098 H 103.913 -3.91087 -0.621854 0
M  V30 1099 H 105.087 -4.02987 2.23468 0
M  V30 1100 H 103.402 -3.71567 1.87955 0
M  V30 1101 H 105.999 -5.33327 -0.38298 0
M  V30 1102 H 106.342 -3.93201 -1.36743 0
M  V30 1103 H 106.875 -3.9642 0.331038 0
M  V30 1104 H 103.614 -6.07685 2.45762 0
M  V30 1105 H 103.134 -5.95097 0.749665 0
M  V30 1106 H 104.813 -6.3616 1.17941 0
M  V30 1107 N 104.945 -0.338344 -1.53925 0
M  V30 1108 C 105.893 0.536231 -2.26335 0
M  V30 1109 C 106.887 1.1063 -1.28286 0
M  V30 1110 O 108.093 1.05264 -1.46012 0
M  V30 1111 H 104.468 0.191602 -0.727181 0
M  V30 1112 H 106.439 -0.0965747 -2.98244 0
M  V30 1113 C 105.188 1.67803 -3.04528 0
M  V30 1114 H 104.511 1.24864 -3.79801 0
M  V30 1115 H 105.951 2.26526 -3.58416 0
M  V30 1116 C 104.41 2.60439 -2.13712 0
M  V30 1117 O 104.94 3.6255 -1.72975 0
M  V30 1118 N 103.146 2.29006 -1.78898 0
M  V30 1119 H 102.693 1.46011 -2.12223 0
M  V30 1120 H 102.651 2.91248 -1.18416 0
M  V30 1121 N 106.423 1.57458 -0.0668435 0
M  V30 1122 C 107.333 2.15937 0.916975 0
M  V30 1123 C 108.349 1.12123 1.33058 0
M  V30 1124 O 109.525 1.44366 1.40429 0
M  V30 1125 C 106.59 2.70547 2.16807 0
M  V30 1126 C 105.651 3.89215 1.81135 0
M  V30 1127 C 104.884 4.41211 3.0028 0
M  V30 1128 O 105.107 3.92225 4.14144 0
M  V30 1129 O 104.041 5.32605 2.80384 0
M  V30 1130 H 107.867 3.00354 0.449561 0
M  V30 1131 H 105.452 1.48584 0.155949 0
M  V30 1132 H 107.334 3.0557 2.90181 0
M  V30 1133 H 106.009 1.89192 2.62656 0
M  V30 1134 H 104.916 3.59054 1.05028 0
M  V30 1135 H 106.249 4.71848 1.40073 0
M  V30 1136 N 107.901 -0.206675 1.56239 0
M  V30 1137 C 109.15 -0.926964 1.79138 0
M  V30 1138 C 109.463 -1.84901 0.638043 0
M  V30 1139 O 110.669 -2.60906 0.751033 0
M  V30 1140 C 109.125 -1.6986 3.17294 0
M  V30 1141 C 108.733 -0.821956 4.40395 0
M  V30 1142 C 110.477 -2.40922 3.4951 0
M  V30 1143 C 108.384 -1.59179 5.69575 0
M  V30 1144 H 107.314 -0.349864 0.667915 0
M  V30 1145 H 109.965 -0.180487 1.8261 0
M  V30 1146 H 108.347 -2.48853 3.08039 0
M  V30 1147 H 109.521 -0.0715019 4.60745 0
M  V30 1148 H 107.836 -0.222741 4.15804 0
M  V30 1149 H 110.433 -2.99047 4.43255 0
M  V30 1150 H 110.776 -3.14542 2.72707 0
M  V30 1151 H 111.309 -1.68905 3.60161 0
M  V30 1152 H 108.048 -0.898589 6.49312 0
M  V30 1153 H 107.568 -2.31648 5.53262 0
M  V30 1154 H 109.247 -2.14862 6.10281 0
M  V30 1155 N 109.379 -1.50304 -0.473955 0
M  V30 1156 C 110.628 -1.60392 -1.22301 0
M  V30 1157 C 110.941 -0.308411 -1.93153 0
M  V30 1158 O 112.147 -0.288156 -2.69966 0
M  V30 1159 C 110.603 -2.83109 -2.2221 0
M  V30 1160 C 110.211 -4.19524 -1.57173 0
M  V30 1161 C 111.955 -3.0254 -2.97775 0
M  V30 1162 C 109.862 -5.33431 -2.55353 0
M  V30 1163 H 108.792 -0.597286 -0.460179 0
M  V30 1164 H 111.443 -1.76731 -0.493803 0
M  V30 1165 H 109.825 -2.60322 -2.9841 0
M  V30 1166 H 110.999 -4.52554 -0.867824 0
M  V30 1167 H 109.314 -4.05674 -0.939002 0
M  V30 1168 H 111.911 -3.84811 -3.71248 0
M  V30 1169 H 112.254 -2.14154 -3.56992 0
M  V30 1170 H 112.787 -3.25494 -2.28688 0
M  V30 1171 H 109.526 -6.23962 -2.00878 0
M  V30 1172 H 109.046 -5.04823 -3.23904 0
M  V30 1173 H 110.725 -5.63887 -3.17239 0
M  V30 1174 N 110.857 0.726932 -1.39834 0
M  V30 1175 C 111.82 1.82269 -1.38962 0
M  V30 1176 C 112.82 1.58248 -0.285334 0
M  V30 1177 O 114.01 1.65499 -0.54366 0
M  V30 1178 C 111.142 3.20186 -1.17019 0
M  V30 1179 H 112.335 1.84443 -2.36476 0
M  V30 1180 H 109.888 0.931416 -1.25516 0
M  V30 1181 H 110.623 3.23669 -0.202204 0
M  V30 1182 H 110.408 3.3902 -1.96998 0
M  V30 1183 H 111.898 4.00235 -1.1917 0
M  V30 1184 N 112.336 1.25143 0.95797 0
M  V30 1185 C 113.747 1.08851 1.51685 0
M  V30 1186 C 114.098 -0.33687 1.93286 0
M  V30 1187 O 113.223 -1.22644 1.7829 0
M  V30 1188 C 113.818 1.96978 2.75654 0
M  V30 1189 C 112.377 1.84881 3.27866 0
M  V30 1190 C 111.524 1.91329 2.0072 0
M  V30 1191 H 114.475 1.38478 0.77522 0
M  V30 1192 H 114.496 1.5078 3.4935 0
M  V30 1193 H 114.008 3.00712 2.45345 0
M  V30 1194 H 112.109 0.840182 3.63004 0
M  V30 1195 H 112.222 2.6951 3.96107 0
M  V30 1196 H 110.586 1.35174 2.15871 0
M  V30 1197 H 111.369 2.96661 1.72764 0
M  V30 1198 N 113.814 -1.1601 1.06675 0
M  V30 1199 C 114.761 -2.20525 0.680967 0
M  V30 1200 C 115.731 -1.62904 -0.324283 0
M  V30 1201 O 116.916 -1.89615 -0.212294 0
M  V30 1202 C 114.056 -3.45013 0.0776551 0
M  V30 1203 C 113.169 -4.16863 1.13355 0
M  V30 1204 C 112.304 -5.2888 0.49597 0
M  V30 1205 C 111.343 -5.92537 1.53513 0
M  V30 1206 N 110.48 -6.96038 0.920631 0
M  V30 1207 H 115.32 -2.52876 1.57663 0
M  V30 1208 H 112.857 -1.24199 0.788223 0
M  V30 1209 H 114.815 -4.16193 -0.289704 0
M  V30 1210 H 113.445 -3.132 -0.781393 0
M  V30 1211 H 112.497 -3.44248 1.61857 0
M  V30 1212 H 113.809 -4.60294 1.92174 0
M  V30 1213 H 112.963 -6.06653 0.0758604 0
M  V30 1214 H 111.702 -4.86622 -0.324062 0
M  V30 1215 H 110.707 -5.13482 1.9651 0
M  V30 1216 H 111.932 -6.36873 2.35733 0
M  V30 1217 H 109.878 -6.55888 0.12138 0
M  V30 1218 H 109.795 -7.3786 1.64616 0
M  V30 1219 H 111.063 -7.77725 0.525795 0
M  V30 1220 N 115.292 -0.849877 -1.32721 0
M  V30 1221 C 116.222 -0.306308 -2.31482 0
M  V30 1222 C 117.203 0.591952 -1.59468 0
M  V30 1223 O 118.388 0.513199 -1.87296 0
M  V30 1224 C 115.518 0.510204 -3.43532 0
M  V30 1225 C 114.472 -0.293209 -4.26994 0
M  V30 1226 C 113.798 0.647743 -5.30762 0
M  V30 1227 C 115.098 -1.51634 -4.99804 0
M  V30 1228 H 116.792 -1.13153 -2.77195 0
M  V30 1229 H 114.338 -0.545553 -1.33266 0
M  V30 1230 H 116.291 0.900856 -4.11658 0
M  V30 1231 H 115.015 1.36874 -2.96535 0
M  V30 1232 H 113.674 -0.665555 -3.60508 0
M  V30 1233 H 113.322 1.50299 -4.8002 0
M  V30 1234 H 113.022 0.11422 -5.87489 0
M  V30 1235 H 114.546 1.03567 -6.01753 0
M  V30 1236 H 115.96 -1.19824 -5.60638 0
M  V30 1237 H 114.357 -1.98745 -5.66234 0
M  V30 1238 H 115.427 -2.28018 -4.27943 0
M  V30 1239 N 116.77 1.45427 -0.607355 0
M  V30 1240 C 118.019 2.01452 -0.100036 0
M  V30 1241 C 118.332 1.48159 1.27704 0
M  V30 1242 O 119.538 1.96159 1.87707 0
M  V30 1243 C 117.994 3.59672 -0.128158 0
M  V30 1244 C 117.602 4.21962 -1.50507 0
M  V30 1245 C 119.346 4.23262 0.323932 0
M  V30 1246 C 117.253 5.72333 -1.48959 0
M  V30 1247 H 116.183 0.75325 -0.0336299 0
M  V30 1248 H 118.834 1.66901 -0.76265 0
M  V30 1249 H 117.216 3.91411 0.601105 0
M  V30 1250 H 118.39 4.01796 -2.25602 0
M  V30 1251 H 116.705 3.70565 -1.89923 0
M  V30 1252 H 119.302 5.33522 0.354691 0
M  V30 1253 H 119.645 3.93921 1.34656 0
M  V30 1254 H 120.178 3.96239 -0.352056 0
M  V30 1255 H 116.917 6.06373 -2.48981 0
M  V30 1256 H 116.437 5.94691 -0.781214 0
M  V30 1257 H 118.116 6.35525 -1.21313 0
M  V30 1258 N 118.248 0.346503 1.53744 0
M  V30 1259 C 119.496 -0.248612 2.00565 0
M  V30 1260 C 119.817 -1.5083 1.23593 0
M  V30 1261 O 119.087 -1.92858 0.343912 0
M  V30 1262 H 117.667 -0.0948564 0.740953 0
M  V30 1263 H 120.329 0.468341 1.89189 0
M  V30 1264 H 119.425 -0.488994 3.08245 0
M  V30 1265 N 119.726 -1.57421 0.075193 0
M  V30 1266 C 120.659 -2.08528 -0.926904 0
M  V30 1267 C 121.637 -0.991171 -1.28898 0
M  V30 1268 O 122.821 -1.26479 -1.39769 0
M  V30 1269 C 119.948 -2.54576 -2.23402 0
M  V30 1270 C 118.994 -3.75454 -2.02327 0
M  V30 1271 S 119.827 -5.19989 -1.27951 0
M  V30 1272 C 120.983 -5.69372 -2.59935 0
M  V30 1273 H 121.216 -2.932 -0.492048 0
M  V30 1274 H 118.749 -1.53785 -0.137651 0
M  V30 1275 H 120.707 -2.81767 -2.98526 0
M  V30 1276 H 119.368 -1.70166 -2.64012 0
M  V30 1277 H 118.561 -4.05675 -2.99071 0
M  V30 1278 H 118.163 -3.48654 -1.35339 0
M  V30 1279 H 120.455 -5.76424 -3.56008 0
M  V30 1280 H 121.398 -6.68207 -2.34319 0
M  V30 1281 H 121.806 -4.97205 -2.67296 0
M  V30 1282 N 121.204 0.198386 -1.56346 0
M  V30 1283 C 122.152 1.26538 -1.95169 0
M  V30 1284 C 123.146 1.47295 -0.836685 0
M  V30 1285 O 124.352 1.48195 -1.02167 0
M  V30 1286 H 120.727 0.424744 -0.620561 0
M  V30 1287 H 122.698 0.910904 -2.84157 0
M  V30 1288 C 121.447 2.6035 -2.30463 0
M  V30 1289 H 120.77 2.45192 -3.15786 0
M  V30 1290 H 122.21 3.33762 -2.61494 0
M  V30 1291 C 120.669 3.17096 -1.13806 0
M  V30 1292 O 121.199 3.99588 -0.41135 0
M  V30 1293 N 119.405 2.75795 -0.915736 0
M  V30 1294 H 118.952 2.08816 -1.50843 0
M  V30 1295 H 118.91 3.14101 -0.136979 0
M  V30 1296 N 122.682 1.50554 0.465978 0
M  V30 1297 C 123.922 1.63439 1.22747 0
M  V30 1298 C 124.286 0.329822 1.89146 0
M  V30 1299 O 125.487 0.334161 2.66715 0
M  V30 1300 C 123.758 2.78542 2.2394 0
M  V30 1301 S 125.317 3.11591 3.0896 0
M  V30 1302 H 122.135 0.576113 0.416672 0
M  V30 1303 H 124.737 1.88357 0.523641 0
M  V30 1304 H 123.441 3.71805 1.7375 0
M  V30 1305 H 122.972 2.55726 2.98944 0
M  V30 1306 H 124.987 2.55811 4.25176 0
M  V30 1307 N 124.16 -0.719506 1.40217 0
M  V30 1308 C 125.388 -1.50864 1.41589 0
M  V30 1309 C 125.803 -1.88794 0.0145275 0
M  V30 1310 O 125.16 -1.55174 -0.960594 0
M  V30 1311 C 125.211 -2.78646 2.30302 0
M  V30 1312 O 124.932 -2.42321 3.64983 0
M  V30 1313 C 126.433 -3.72569 2.40224 0
M  V30 1314 H 123.653 -0.465709 0.48307 0
M  V30 1315 H 126.197 -0.88785 1.84221 0
M  V30 1316 H 124.352 -3.37019 1.91042 0
M  V30 1317 H 124.766 -3.24514 4.12057 0
M  V30 1318 H 126.24 -4.5908 3.06512 0
M  V30 1319 H 126.717 -4.15403 1.42608 0
M  V30 1320 H 127.323 -3.20109 2.80019 0
M  V30 1321 N 125.638 -1.25649 -0.95132 0
M  V30 1322 C 126.548 -1.08073 -2.08224 0
M  V30 1323 C 127.564 -0.0169666 -1.73992 0
M  V30 1324 O 128.74 -0.218593 -2.0021 0
M  V30 1325 C 125.805 -0.704922 -3.39458 0
M  V30 1326 C 124.866 -1.84699 -3.87537 0
M  V30 1327 C 124.099 -1.48902 -5.12508 0
M  V30 1328 O 124.322 -0.386156 -5.69091 0
M  V30 1329 O 123.256 -2.32033 -5.55378 0
M  V30 1330 H 127.082 -2.02924 -2.25954 0
M  V30 1331 H 124.667 -1.04618 -1.06656 0
M  V30 1332 H 126.549 -0.507609 -4.18332 0
M  V30 1333 H 125.224 0.214291 -3.2299 0
M  V30 1334 H 124.131 -2.09919 -3.09653 0
M  V30 1335 H 125.464 -2.74557 -4.08509 0
M  V30 1336 N 127.117 1.15442 -1.07289 0
M  V30 1337 C 128.049 2.19773 -0.650585 0
M  V30 1338 C 129.062 1.60076 0.296572 0
M  V30 1339 O 130.251 1.78293 0.0859905 0
M  V30 1340 C 127.351 3.38838 0.0650398 0
M  V30 1341 C 126.524 4.2808 -0.898141 0
M  V30 1342 C 125.583 5.2574 -0.219926 0
M  V30 1343 O 124.609 5.62654 -0.860773 0
M  V30 1344 N 125.811 5.71205 1.03466 0
M  V30 1345 H 128.576 2.56622 -1.54808 0
M  V30 1346 H 126.137 1.30551 -0.957494 0
M  V30 1347 H 128.129 4.01222 0.529415 0
M  V30 1348 H 126.699 3.00409 0.864466 0
M  V30 1349 H 125.919 3.62804 -1.54165 0
M  V30 1350 H 127.207 4.84577 -1.5512 0
M  V30 1351 H 126.605 5.43325 1.57526 0
M  V30 1352 H 125.162 6.35633 1.44272 0
M  V30 1353 N 128.595 0.856903 1.32268 0
M  V30 1354 C 129.542 0.301172 2.28827 0
M  V30 1355 C 130.512 -0.593104 1.5515 0
M  V30 1356 O 131.697 -0.527537 1.83362 0
M  V30 1357 C 128.837 -0.502523 3.41422 0
M  V30 1358 C 127.95 0.417797 4.29975 0
M  V30 1359 C 127.085 -0.398749 5.29701 0
M  V30 1360 C 126.124 0.518827 6.09897 0
M  V30 1361 N 125.261 -0.260674 7.01616 0
M  V30 1362 H 130.101 1.12983 2.75751 0
M  V30 1363 H 127.638 0.568582 1.35667 0
M  V30 1364 H 129.596 -0.984141 4.05426 0
M  V30 1365 H 128.226 -1.29599 2.95642 0
M  V30 1366 H 127.278 1.01781 3.66531 0
M  V30 1367 H 128.59 1.12191 4.86019 0
M  V30 1368 H 127.744 -0.943435 5.9932 0
M  V30 1369 H 126.483 -1.13622 4.7428 0
M  V30 1370 H 125.488 1.07538 5.39181 0
M  V30 1371 H 126.713 1.25495 6.67404 0
M  V30 1372 H 124.659 -0.981198 6.4862 0
M  V30 1373 H 124.576 0.384364 7.55022 0
M  V30 1374 H 125.844 -0.787014 7.75517 0
M  V30 1375 N 130.073 -1.45103 0.615059 0
M  V30 1376 C 131.02 -2.30586 -0.0993978 0
M  V30 1377 C 131.99 -1.42544 -0.852669 0
M  V30 1378 O 133.175 -1.71465 -0.836917 0
M  V30 1379 C 130.315 -3.27572 -1.08583 0
M  V30 1380 C 129.428 -4.30717 -0.332656 0
M  V30 1381 C 128.563 -5.14807 -1.30947 0
M  V30 1382 C 127.602 -6.09673 -0.544538 0
M  V30 1383 N 126.739 -6.86517 -1.47101 0
M  V30 1384 H 131.579 -2.91144 0.635542 0
M  V30 1385 H 129.116 -1.4346 0.325206 0
M  V30 1386 H 131.074 -3.82276 -1.67095 0
M  V30 1387 H 129.704 -2.68751 -1.78809 0
M  V30 1388 H 128.756 -3.78615 0.368107 0
M  V30 1389 H 130.068 -4.98102 0.263842 0
M  V30 1390 H 129.222 -5.73948 -1.96643 0
M  V30 1391 H 127.961 -4.47458 -1.9399 0
M  V30 1392 H 126.966 -5.49656 0.126003 0
M  V30 1393 H 128.191 -6.79052 0.080947 0
M  V30 1394 H 126.137 -6.21851 -2.08895 0
M  V30 1395 H 126.054 -7.50281 -0.928137 0
M  V30 1396 H 127.322 -7.50194 -2.11731 0
M  V30 1397 N 131.551 -0.354651 -1.53558 0
M  V30 1398 C 132.8 0.239504 -2.00273 0
M  V30 1399 C 133.113 1.50759 -1.24623 0
M  V30 1400 O 134.319 2.17968 -1.61871 0
M  V30 1401 C 132.775 0.477341 -3.5672 0
M  V30 1402 C 132.383 -0.775488 -4.41237 0
M  V30 1403 C 134.127 1.02975 -4.11821 0
M  V30 1404 C 132.034 -0.507838 -5.89216 0
M  V30 1405 H 130.964 0.0932743 -0.748208 0
M  V30 1406 H 133.615 -0.471701 -1.77334 0
M  V30 1407 H 131.997 1.24953 -3.7577 0
M  V30 1408 H 133.171 -1.54963 -4.33962 0
M  V30 1409 H 131.486 -1.25033 -3.97185 0
M  V30 1410 H 134.083 1.24513 -5.2 0
M  V30 1411 H 134.426 1.98862 -3.65731 0
M  V30 1412 H 134.959 0.317994 -3.96527 0
M  V30 1413 H 131.698 -1.43674 -6.39561 0
M  V30 1414 H 131.218 0.228011 -5.99366 0
M  V30 1415 H 132.897 -0.129238 -6.46871 0
M  V30 1416 N 133.029 1.57378 -0.0835403 0
M  V30 1417 C 134.306 1.85363 0.624507 0
M  V30 1418 C 134.686 0.978239 1.87066 0
M  V30 1419 O 134.034 0.0475908 2.2845 0
M  V30 1420 C 134.244 3.35795 0.950947 0
M  V30 1421 C 135.592 4.03581 1.31939 0
M  V30 1422 O 136.616 3.40609 1.04232 0
M  V30 1423 O 135.475 5.14672 1.83779 0
M  V30 1424 H 132.569 0.766162 0.311329 0
M  V30 1425 H 135.115 1.69307 -0.115362 0
M  V30 1426 H 133.887 3.91244 0.0663899 0
M  V30 1427 H 133.51 3.57154 1.74719 0
M  V30 1428 N 134.507 -0.190092 1.56449 0
M  V30 1429 C 135.455 -1.25501 1.95837 0
M  V30 1430 C 136.449 -1.4685 0.844485 0
M  V30 1431 O 137.655 -1.47651 1.02952 0
M  V30 1432 H 134.03 -0.421447 0.622805 0
M  V30 1433 H 136.001 -0.895821 2.84636 0
M  V30 1434 C 134.75 -2.59124 2.31841 0
M  V30 1435 H 134.073 -2.43514 3.17082 0
M  V30 1436 H 135.513 -3.32371 2.6326 0
M  V30 1437 C 133.972 -3.16488 1.15486 0
M  V30 1438 O 134.502 -3.99365 0.432535 0
M  V30 1439 N 132.708 -2.75305 0.930349 0
M  V30 1440 H 132.255 -2.08013 1.51948 0
M  V30 1441 H 132.213 -3.14024 0.153634 0
M  V30 1442 N 135.985 -1.50799 -0.457987 0
M  V30 1443 C 136.915 -1.73553 -1.5621 0
M  V30 1444 C 137.896 -0.584774 -1.59732 0
M  V30 1445 O 139.081 -0.825314 -1.7579 0
M  V30 1446 C 136.211 -1.84169 -2.94447 0
M  V30 1447 C 135.165 -2.99461 -3.0579 0
M  V30 1448 C 134.491 -2.95235 -4.45803 0
M  V30 1449 C 135.791 -4.39766 -2.81786 0
M  V30 1450 H 137.485 -2.66 -1.37421 0
M  V30 1451 H 135.031 -1.28002 -0.659662 0
M  V30 1452 H 136.984 -1.98672 -3.71628 0
M  V30 1453 H 135.708 -0.883545 -3.14422 0
M  V30 1454 H 134.367 -2.8463 -2.31044 0
M  V30 1455 H 134.015 -1.97239 -4.62715 0
M  V30 1456 H 133.715 -3.72642 -4.54326 0
M  V30 1457 H 135.239 -3.11803 -5.24987 0
M  V30 1458 H 136.653 -4.55054 -3.4871 0
M  V30 1459 H 135.05 -5.18722 -3.0174 0
M  V30 1460 H 136.12 -4.51229 -1.7754 0
M  V30 1461 N 137.463 0.71206 -1.40597 0
M  V30 1462 C 138.396 1.83582 -1.35546 0
M  V30 1463 C 139.374 1.61032 -0.225284 0
M  V30 1464 O 140.558 1.83998 -0.409519 0
M  V30 1465 C 137.685 3.19983 -1.11034 0
M  V30 1466 C 136.731 3.61355 -2.2655 0
M  V30 1467 S 137.564 3.68062 -3.88961 0
M  V30 1468 C 138.72 5.07216 -3.66719 0
M  V30 1469 H 138.953 1.87586 -2.30648 0
M  V30 1470 H 136.486 0.879182 -1.26924 0
M  V30 1471 H 138.444 3.98734 -0.975761 0
M  V30 1472 H 137.105 3.13608 -0.175798 0
M  V30 1473 H 136.298 4.60403 -2.0505 0
M  V30 1474 H 135.9 2.8987 -2.36329 0
M  V30 1475 H 138.192 5.94238 -3.25404 0
M  V30 1476 H 139.135 5.33753 -4.6531 0
M  V30 1477 H 139.543 4.77976 -3.00332 0
M  V30 1478 N 138.941 1.26152 0.944643 0
M  V30 1479 C 140.187 1.11657 1.69294 0
M  V30 1480 C 140.52 -0.339926 1.91202 0
M  V30 1481 O 139.795 -1.24994 1.49019 0
M  V30 1482 C 140.078 1.88236 3.06984 0
M  V30 1483 C 139.931 3.41772 2.92424 0
M  V30 1484 C 141.25 1.67343 4.07043 0
M  V30 1485 H 138.369 0.407004 0.614424 0
M  V30 1486 H 141.011 1.55106 1.09737 0
M  V30 1487 H 139.161 1.51308 3.57824 0
M  V30 1488 H 140.833 3.88433 2.48832 0
M  V30 1489 H 139.076 3.68974 2.28124 0
M  V30 1490 H 139.747 3.90579 3.90067 0
M  V30 1491 H 142.223 1.99509 3.65151 0
M  V30 1492 H 141.099 2.23346 5.01406 0
M  V30 1493 H 141.36 0.617158 4.37771 0
M  V30 1494 N 140.419 -1.14872 1.07899 0
M  V30 1495 C 141.329 -2.2341 0.715915 0
M  V30 1496 C 142.345 -1.71808 -0.275306 0
M  V30 1497 O 143.521 -2.01039 -0.120545 0
M  V30 1498 C 140.586 -3.46474 0.125168 0
M  V30 1499 C 139.647 -4.13039 1.17034 0
M  V30 1500 C 138.88 -5.30229 0.607688 0
M  V30 1501 O 139.103 -5.675 -0.574497 0
M  V30 1502 O 138.037 -5.86444 1.35526 0
M  V30 1503 H 141.863 -2.56808 1.62121 0
M  V30 1504 H 139.448 -1.22702 0.852322 0
M  V30 1505 H 141.33 -4.20917 -0.201729 0
M  V30 1506 H 140.005 -3.14811 -0.753364 0
M  V30 1507 H 138.912 -3.40493 1.54968 0
M  V30 1508 H 140.245 -4.48796 2.02097 0
M  V30 1509 N 141.898 -0.863906 -1.31812 0
M  V30 1510 C 142.808 -0.318461 -2.32428 0
M  V30 1511 C 143.824 0.568496 -1.64451 0
M  V30 1512 O 145 0.46666 -1.95919 0
M  V30 1513 C 142.065 0.476355 -3.43412 0
M  V30 1514 C 141.126 -0.43784 -4.27061 0
M  V30 1515 C 140.359 0.319138 -5.32745 0
M  V30 1516 O 140.582 1.54799 -5.48993 0
M  V30 1517 O 139.516 -0.319861 -6.01049 0
M  V30 1518 H 143.342 -1.15229 -2.80991 0
M  V30 1519 H 140.927 -0.627103 -1.35602 0
M  V30 1520 H 142.809 0.927156 -4.11074 0
M  V30 1521 H 141.484 1.28683 -2.97022 0
M  V30 1522 H 140.391 -0.937013 -3.62175 0
M  V30 1523 H 141.724 -1.21375 -4.77 0
M  V30 1524 N 143.376 1.44774 -0.622745 0
M  V30 1525 C 144.306 2.33382 0.0741861 0
M  V30 1526 C 145.287 1.47719 0.843387 0
M  V30 1527 O 146.472 1.76458 0.810934 0
M  V30 1528 C 143.602 3.30663 1.06204 0
M  V30 1529 C 142.556 4.26079 0.405037 0
M  V30 1530 C 141.882 5.13165 1.5022 0
M  V30 1531 C 143.182 5.1781 -0.683414 0
M  V30 1532 H 144.876 2.91905 -0.665713 0
M  V30 1533 H 142.422 1.40363 -0.321587 0
M  V30 1534 H 144.375 3.9153 1.55827 0
M  V30 1535 H 143.099 2.70331 1.83272 0
M  V30 1536 H 141.758 3.66532 -0.0704683 0
M  V30 1537 H 141.406 4.49191 2.26355 0
M  V30 1538 H 141.106 5.77812 1.06803 0
M  V30 1539 H 142.63 5.76902 2.00041 0
M  V30 1540 H 144.044 5.72661 -0.270631 0
M  V30 1541 H 142.441 5.91015 -1.04023 0
M  V30 1542 H 143.511 4.59326 -1.55395 0
M  V30 1543 N 144.854 0.36279 1.53368 0
M  V30 1544 C 146.131 -0.284021 1.93527 0
M  V30 1545 C 146.511 -1.66628 1.29608 0
M  V30 1546 O 145.859 -2.23942 0.45413 0
M  V30 1547 C 146.069 -0.337028 3.47369 0
M  V30 1548 C 147.417 -0.578708 4.20638 0
M  V30 1549 O 148.441 -0.418352 3.53735 0
M  V30 1550 O 147.3 -0.89074 5.39192 0
M  V30 1551 H 144.394 -0.169743 0.809393 0
M  V30 1552 H 146.94 0.41537 1.64538 0
M  V30 1553 H 145.712 0.632217 3.86159 0
M  V30 1554 H 145.335 -1.08243 3.82582 0
M  V30 1555 N 146.332 -1.57332 0.0918853 0
M  V30 1556 C 147.58 -1.93853 -0.571446 0
M  V30 1557 C 147.901 -0.974212 -1.6892 0
M  V30 1558 O 147.171 -0.0257254 -1.95883 0
M  V30 1559 H 145.751 -0.715666 -0.214082 0
M  V30 1560 H 148.413 -1.94287 0.154464 0
M  V30 1561 H 147.509 -2.96191 -0.983729 0
M  V30 1562 N 147.81 0.181792 -1.56548 0
M  V30 1563 C 149.035 0.920019 -1.85877 0
M  V30 1564 C 149.46 1.75494 -0.677021 0
M  V30 1565 O 148.818 1.77399 0.374056 0
M  V30 1566 C 148.866 1.78112 -3.13542 0
M  V30 1567 O 147.97 2.88152 -2.95029 0
M  V30 1568 H 147.311 0.258334 -0.611686 0
M  V30 1569 H 149.841 0.183092 -2.03779 0
M  V30 1570 H 149.851 2.18314 -3.44678 0
M  V30 1571 H 148.526 1.16777 -3.99169 0
M  V30 1572 H 147.103 2.51609 -2.75222 0
M  V30 1573 N 149.288 1.51039 0.449983 0
M  V30 1574 C 150.235 1.71439 1.54523 0
M  V30 1575 C 151.205 0.555871 1.56522 0
M  V30 1576 O 152.39 0.788871 1.73728 0
M  V30 1577 C 149.53 1.83384 2.92343 0
M  V30 1578 C 148.643 3.10873 2.9997 0
M  V30 1579 C 147.778 3.13488 4.28834 0
M  V30 1580 C 146.817 4.35343 4.30282 0
M  V30 1581 N 145.954 4.35579 5.5065 0
M  V30 1582 H 150.794 2.64934 1.36433 0
M  V30 1583 H 148.331 1.31312 0.662982 0
M  V30 1584 H 150.289 1.88291 3.72293 0
M  V30 1585 H 148.919 0.933086 3.0902 0
M  V30 1586 H 147.971 3.15336 2.12761 0
M  V30 1587 H 149.283 4.00814 2.96901 0
M  V30 1588 H 148.437 3.17241 5.17149 0
M  V30 1589 H 147.176 2.21414 4.34543 0
M  V30 1590 H 146.181 4.3178 3.40362 0
M  V30 1591 H 147.406 5.28668 4.26248 0
M  V30 1592 H 145.352 3.46369 5.57104 0
M  V30 1593 H 145.269 5.19313 5.49409 0
M  V30 1594 H 146.537 4.43507 6.41032 0
M  V30 1595 N 150.766 -0.704594 1.40972 0
M  V30 1596 C 151.714 -1.83994 1.42299 0
M  V30 1597 C 152.708 -1.66684 0.302111 0
M  V30 1598 O 153.914 -1.73655 0.473697 0
M  V30 1599 H 150.289 -0.606171 0.44504 0
M  V30 1600 H 152.26 -1.79992 2.38003 0
M  V30 1601 C 151.009 -3.21946 1.31323 0
M  V30 1602 H 150.332 -3.35878 2.16855 0
M  V30 1603 H 151.772 -4.01491 1.36311 0
M  V30 1604 C 150.231 -3.36891 0.0245977 0
M  V30 1605 O 150.761 -3.90687 -0.934153 0
M  V30 1606 N 148.967 -2.90559 -0.0485243 0
M  V30 1607 H 148.514 -2.46968 0.732419 0
M  V30 1608 H 148.472 -3.00937 -0.910171 0
M  V30 1609 N 152.244 -1.26651 -0.937939 0
M  V30 1610 C 153.154 -1.10276 -2.07066 0
M  V30 1611 C 154.17 -0.0354197 -1.73964 0
M  V30 1612 O 155.346 -0.239816 -1.99967 0
M  V30 1613 C 152.411 -0.740887 -3.38691 0
M  V30 1614 C 151.472 -1.88799 -3.85556 0
M  V30 1615 C 150.705 -1.54329 -5.10899 0
M  V30 1616 O 150.928 -0.446494 -5.6865 0
M  V30 1617 O 149.862 -2.37911 -5.52885 0
M  V30 1618 H 153.688 -2.05309 -2.23789 0
M  V30 1619 H 151.273 -1.05743 -1.0554 0
M  V30 1620 H 153.155 -0.55195 -4.1777 0
M  V30 1621 H 151.83 0.180022 -3.23199 0
M  V30 1622 H 150.737 -2.13191 -3.07409 0
M  V30 1623 H 152.07 -2.78874 -4.05574 0
M  V30 1624 N 153.722 1.14298 -1.08507 0
M  V30 1625 C 154.968 1.85854 -0.826438 0
M  V30 1626 C 155.323 1.81413 0.640878 0
M  V30 1627 O 154.616 1.23463 1.46518 0
M  V30 1628 C 154.81 3.33547 -1.28379 0
M  V30 1629 C 154.639 3.52369 -2.79403 0
M  V30 1630 C 153.409 3.67159 -3.47164 0
M  V30 1631 C 155.607 3.49203 -3.77573 0
M  V30 1632 N 153.589 3.74149 -4.86709 0
M  V30 1633 C 154.96 3.6245 -5.03021 0
M  V30 1634 C 157.015 3.32547 -3.70563 0
M  V30 1635 C 155.718 3.60761 -6.2229 0
M  V30 1636 C 157.744 3.32162 -4.89308 0
M  V30 1637 C 157.106 3.45949 -6.13595 0
M  V30 1638 H 153.205 0.696705 -0.355143 0
M  V30 1639 H 155.789 1.36981 -1.38362 0
M  V30 1640 H 153.96 3.81008 -0.754166 0
M  V30 1641 H 155.692 3.92867 -0.971469 0
M  V30 1642 H 152.447 3.68433 -2.9758 0
M  V30 1643 H 152.871 3.81359 -5.5937 0
M  V30 1644 H 157.513 3.20797 -2.75407 0
M  V30 1645 H 155.231 3.71286 -7.17755 0
M  V30 1646 H 158.817 3.20485 -4.85573 0
M  V30 1647 H 157.697 3.456 -7.03939 0
M  V30 1648 N 155.201 0.870884 1.31352 0
M  V30 1649 C 156.449 0.48132 1.96285 0
M  V30 1650 C 156.77 -0.969813 1.69173 0
M  V30 1651 O 156.04 -1.67998 1.00764 0
M  V30 1652 H 154.62 0.175002 0.726212 0
M  V30 1653 H 157.282 1.11087 1.60143 0
M  V30 1654 H 156.378 0.639825 3.05471 0
M  V30 1655 N 156.679 -1.44442 0.630414 0
M  V30 1656 C 157.925 -2.02894 0.143332 0
M  V30 1657 C 158.28 -1.48697 -1.22094 0
M  V30 1658 O 157.573 -0.661171 -1.79831 0
M  V30 1659 C 157.767 -3.57332 0.0697835 0
M  V30 1660 C 157.596 -4.26512 1.42539 0
M  V30 1661 C 156.366 -4.63516 2.01198 0
M  V30 1662 C 158.564 -4.57004 2.35907 0
M  V30 1663 N 156.546 -5.17661 3.30001 0
M  V30 1664 C 157.917 -5.12223 3.49324 0
M  V30 1665 C 159.972 -4.38955 2.34995 0
M  V30 1666 C 158.675 -5.51295 4.62024 0
M  V30 1667 C 160.701 -4.79075 3.46758 0
M  V30 1668 C 160.063 -5.34407 4.58899 0
M  V30 1669 H 156.162 -0.776041 0.0963523 0
M  V30 1670 H 158.746 -1.75945 0.833752 0
M  V30 1671 H 156.917 -3.83894 -0.589915 0
M  V30 1672 H 158.649 -4.02451 -0.42606 0
M  V30 1673 H 155.404 -4.47811 1.54151 0
M  V30 1674 H 155.828 -5.4921 3.95851 0
M  V30 1675 H 160.47 -3.95469 1.49545 0
M  V30 1676 H 158.188 -5.93736 5.48182 0
M  V30 1677 H 161.774 -4.66824 3.47227 0
M  V30 1678 H 160.654 -5.64878 5.4395 0
M  V30 1679 N 158.157 -0.370918 -1.53173 0
M  V30 1680 C 159.382 0.220293 -2.06227 0
M  V30 1681 C 159.807 1.41243 -1.24225 0
M  V30 1682 O 159.165 1.79387 -0.262645 0
M  V30 1683 C 159.213 0.586663 -3.55796 0
M  V30 1684 O 158.317 1.68317 -3.76488 0
M  V30 1685 H 157.658 0.0308099 -0.663285 0
M  V30 1686 H 160.188 -0.533068 -1.97534 0
M  V30 1687 H 160.198 0.85617 -3.98916 0
M  V30 1688 H 158.873 -0.285013 -4.14922 0
M  V30 1689 H 157.45 1.40881 -3.45264 0
M  V30 1690 N 159.635 1.57281 -0.100228 0
M  V30 1691 C 160.582 2.14305 0.856858 0
M  V30 1692 C 161.552 1.06296 1.27634 0
M  V30 1693 O 162.737 1.34109 1.35718 0
M  V30 1694 C 159.877 2.73184 2.10866 0
M  V30 1695 C 158.99 3.95442 1.73925 0
M  V30 1696 C 158.125 4.42468 2.93931 0
M  V30 1697 C 157.164 5.57303 2.5314 0
M  V30 1698 N 156.301 5.99158 3.65997 0
M  V30 1699 H 161.141 2.95772 0.363726 0
M  V30 1700 H 158.678 1.46139 0.167858 0
M  V30 1701 H 160.636 3.05442 2.84185 0
M  V30 1702 H 159.266 1.94437 2.57671 0
M  V30 1703 H 158.318 3.69464 0.905554 0
M  V30 1704 H 159.63 4.78769 1.39935 0
M  V30 1705 H 158.784 4.76537 3.75496 0
M  V30 1706 H 157.523 3.58052 3.31134 0
M  V30 1707 H 156.528 5.22857 1.70003 0
M  V30 1708 H 157.753 6.43471 2.17075 0
M  V30 1709 H 155.699 5.17687 4.02909 0
M  V30 1710 H 155.616 6.77295 3.35869 0
M  V30 1711 H 156.884 6.3786 4.48057 0
M  V30 1712 N 161.113 -0.173488 1.56642 0
M  V30 1713 C 162.338 -0.910149 1.86363 0
M  V30 1714 C 162.763 -1.75132 0.686318 0
M  V30 1715 O 162.121 -1.77595 -0.364643 0
M  V30 1716 C 162.169 -1.76447 3.14482 0
M  V30 1717 O 161.273 -2.86584 2.96553 0
M  V30 1718 H 160.614 -0.255086 0.613047 0
M  V30 1719 H 163.144 -0.172283 2.03873 0
M  V30 1720 H 163.154 -2.16483 3.45831 0
M  V30 1721 H 161.829 -1.14658 3.99783 0
M  V30 1722 H 160.406 -2.50146 2.76553 0
M  V30 1723 N 162.591 -1.51276 -0.441967 0
M  V30 1724 C 163.538 -1.72256 -1.53612 0
M  V30 1725 C 164.508 -0.564164 -1.56225 0
M  V30 1726 O 165.693 -0.798074 -1.73307 0
M  V30 1727 C 162.833 -1.84932 -2.91366 0
M  V30 1728 C 161.946 -3.12459 -2.98317 0
M  V30 1729 C 161.081 -3.15758 -4.27166 0
M  V30 1730 C 160.12 -4.37619 -4.27967 0
M  V30 1731 N 159.257 -4.38493 -5.48333 0
M  V30 1732 H 164.097 -2.65654 -1.35026 0
M  V30 1733 H 161.634 -1.31662 -0.656009 0
M  V30 1734 H 163.592 -1.90263 -3.7129 0
M  V30 1735 H 162.222 -0.949461 -3.08521 0
M  V30 1736 H 161.274 -3.1646 -2.11086 0
M  V30 1737 H 162.586 -4.02382 -2.94771 0
M  V30 1738 H 161.74 -3.19979 -5.15459 0
M  V30 1739 H 160.479 -2.23715 -4.33362 0
M  V30 1740 H 159.484 -4.33579 -3.38067 0
M  V30 1741 H 160.709 -5.30921 -4.23438 0
M  V30 1742 H 158.655 -3.49318 -5.55259 0
M  V30 1743 H 158.572 -5.22219 -5.46647 0
M  V30 1744 H 159.84 -4.469 -6.38671 0
M  V30 1745 N 164.069 0.697108 -1.41344 0
M  V30 1746 C 164.999 1.82353 -1.45841 0
M  V30 1747 C 165.98 1.67115 -0.317247 0
M  V30 1748 O 167.165 1.86871 -0.528474 0
M  V30 1749 C 164.295 3.20476 -1.33838 0
M  V30 1750 C 163.249 3.50415 -2.4575 0
M  V30 1751 C 162.575 4.87878 -2.18813 0
M  V30 1752 C 163.875 3.49546 -3.88091 0
M  V30 1753 H 165.569 1.78846 -2.40113 0
M  V30 1754 H 163.115 0.859028 -1.15571 0
M  V30 1755 H 165.068 3.98988 -1.35596 0
M  V30 1756 H 163.792 3.24604 -0.360498 0
M  V30 1757 H 162.451 2.74253 -2.43271 0
M  V30 1758 H 162.099 4.8863 -1.19371 0
M  V30 1759 H 161.799 5.08875 -2.93803 0
M  V30 1760 H 163.323 5.68702 -2.22284 0
M  V30 1761 H 164.737 4.18066 -3.92293 0
M  V30 1762 H 163.134 3.82075 -4.62751 0
M  V30 1763 H 164.204 2.48552 -4.16353 0
M  V30 1764 N 165.547 1.27147 0.931209 0
M  V30 1765 C 166.795 1.13055 1.6752 0
M  V30 1766 C 167.116 -0.324791 1.92276 0
M  V30 1767 O 166.386 -1.22775 1.52654 0
M  V30 1768 H 164.966 0.415391 0.620854 0
M  V30 1769 H 167.628 1.59623 1.11833 0
M  V30 1770 H 166.724 1.65694 2.64485 0
M  V30 1771 N 167.025 -1.13721 1.09112 0
M  V30 1772 C 167.988 -2.17222 0.731241 0
M  V30 1773 C 168.988 -1.59035 -0.237566 0
M  V30 1774 O 170.178 -1.74192 -0.0161704 0
M  V30 1775 C 167.31 -3.40804 0.0808443 0
M  V30 1776 H 168.503 -2.50573 1.64783 0
M  V30 1777 H 166.056 -1.28493 0.889897 0
M  V30 1778 H 166.791 -3.1304 -0.847127 0
M  V30 1779 H 166.576 -3.84306 0.777896 0
M  V30 1780 H 168.066 -4.1731 -0.155657 0
M  V30 1781 N 168.503 -0.877838 -1.30888 0
M  V30 1782 C 169.451 -0.328662 -2.30266 0
M  V30 1783 C 170.445 0.560496 -1.59859 0
M  V30 1784 O 171.651 0.445722 -1.74394 0
M  V30 1785 H 168.026 -0.0876142 -0.746879 0
M  V30 1786 H 169.997 -1.18061 -2.74051 0
M  V30 1787 C 168.746 0.448071 -3.44801 0
M  V30 1788 H 168.069 -0.226859 -3.99156 0
M  V30 1789 H 169.509 0.797541 -4.16432 0
M  V30 1790 C 167.968 1.64239 -2.94155 0
M  V30 1791 O 168.498 2.74175 -2.93583 0
M  V30 1792 N 166.704 1.47716 -2.50256 0
M  V30 1793 H 166.251 0.582821 -2.5092 0
M  V30 1794 H 166.209 2.27765 -2.16727 0
M  V30 1795 N 169.982 1.44106 -0.638065 0
M  V30 1796 C 170.945 2.29138 0.0531013 0
M  V30 1797 C 171.945 1.41409 0.765506 0
M  V30 1798 O 173.135 1.63206 0.609046 0
M  V30 1799 C 170.267 3.23144 1.08584 0
M  V30 1800 H 171.46 2.91739 -0.694883 0
M  V30 1801 H 169.013 1.51134 -0.398538 0
M  V30 1802 H 169.748 2.65408 1.86357 0
M  V30 1803 H 169.533 3.87804 0.578852 0
M  V30 1804 H 171.023 3.87004 1.56899 0
M  V30 1805 N 171.46 0.379036 1.52974 0
M  V30 1806 C 172.709 -0.207612 2.00629 0
M  V30 1807 C 173.022 -1.48758 1.27006 0
M  V30 1808 O 174.228 -2.15365 1.65318 0
M  V30 1809 C 172.684 -0.42053 3.57435 0
M  V30 1810 C 172.292 0.845587 4.39948 0
M  V30 1811 C 174.036 -0.964102 4.13407 0
M  V30 1812 C 171.943 0.601513 5.88333 0
M  V30 1813 H 170.873 -0.0813591 0.749598 0
M  V30 1814 H 173.524 0.499853 1.76561 0
M  V30 1815 H 171.906 -1.18959 3.7771 0
M  V30 1816 H 173.08 1.61848 4.31442 0
M  V30 1817 H 171.395 1.31336 3.95145 0
M  V30 1818 H 173.992 -1.16225 5.21916 0
M  V30 1819 H 174.335 -1.93019 3.68849 0
M  V30 1820 H 174.868 -0.25487 3.96983 0
M  V30 1821 H 171.607 1.53831 6.37194 0
M  V30 1822 H 171.127 -0.132628 5.99653 0
M  V30 1823 H 172.806 0.232134 6.46583 0
M  V30 1824 N 172.938 -1.57226 0.108567 0
M  V30 1825 C 173.868 -2.17778 -0.84232 0
M  V30 1826 C 174.849 -1.11487 -1.2847 0
M  V30 1827 O 176.034 -1.39681 -1.34918 0
M  V30 1828 C 173.164 -2.76888 -2.09644 0
M  V30 1829 C 172.118 -3.88669 -1.79221 0
M  V30 1830 C 171.444 -4.34541 -3.11574 0
M  V30 1831 C 172.744 -5.11251 -1.06864 0
M  V30 1832 H 174.438 -2.97489 -0.337774 0
M  V30 1833 H 171.984 -1.43097 -0.161025 0
M  V30 1834 H 173.937 -3.17904 -2.76614 0
M  V30 1835 H 172.661 -1.94451 -2.62405 0
M  V30 1836 H 171.32 -3.48213 -1.14644 0
M  V30 1837 H 170.968 -3.48977 -3.62249 0
M  V30 1838 H 170.668 -5.09914 -2.91996 0
M  V30 1839 H 172.192 -4.782 -3.7968 0
M  V30 1840 H 173.606 -5.49352 -1.63968 0
M  V30 1841 H 172.003 -5.9214 -0.974178 0
M  V30 1842 H 173.073 -4.8487 -0.0536168 0
M  V30 1843 N 174.416 0.165178 -1.56732 0
M  V30 1844 C 175.379 1.18822 -1.95995 0
M  V30 1845 C 176.379 1.3685 -0.84431 0
M  V30 1846 O 177.569 1.34152 -1.11126 0
M  V30 1847 C 174.701 2.5521 -2.26011 0
M  V30 1848 H 175.894 0.851825 -2.87548 0
M  V30 1849 H 173.447 0.407857 -1.50885 0
M  V30 1850 H 174.182 2.93852 -1.37191 0
M  V30 1851 H 173.967 2.43489 -3.07336 0
M  V30 1852 H 175.457 3.28927 -2.57288 0
M  V30 1853 N 175.894 1.51508 0.433938 0
M  V30 1854 C 177.143 1.63578 1.18005 0
M  V30 1855 C 177.456 0.359514 1.92268 0
M  V30 1856 O 178.662 0.359632 2.69108 0
M  V30 1857 C 177.118 2.88901 2.14626 0
M  V30 1858 C 176.726 4.23544 1.45995 0
M  V30 1859 C 178.47 3.10328 2.89649 0
M  V30 1860 C 176.377 5.40014 2.4112 0
M  V30 1861 H 175.307 0.609277 0.444182 0
M  V30 1862 H 177.958 1.77978 0.446773 0
M  V30 1863 H 176.34 2.68142 2.91403 0
M  V30 1864 H 177.514 4.54696 0.747532 0
M  V30 1865 H 175.829 4.08021 0.831115 0
M  V30 1866 H 178.426 3.94518 3.60915 0
M  V30 1867 H 178.769 2.23544 3.51189 0
M  V30 1868 H 179.302 3.31443 2.19978 0
M  V30 1869 H 176.041 6.29068 1.84264 0
M  V30 1870 H 175.561 5.13233 3.10406 0
M  V30 1871 H 177.24 5.72099 3.02177 0
M  V30 1872 N 177.372 -0.689602 1.41712 0
M  V30 1873 C 178.597 -1.48329 1.44959 0
M  V30 1874 C 179.022 -1.8801 0.0581283 0
M  V30 1875 O 178.38 -1.55026 -0.940035 0
M  V30 1876 C 178.428 -2.71835 2.36935 0
M  V30 1877 O 177.532 -3.69549 1.8305 0
M  V30 1878 H 176.873 -0.446199 0.491734 0
M  V30 1879 H 179.403 -0.847127 1.86239 0
M  V30 1880 H 179.413 -3.20076 2.53013 0
M  V30 1881 H 178.088 -2.42291 3.38035 0
M  V30 1882 H 176.665 -3.2851 1.76452 0
M  V30 1883 N 178.85 -1.27639 -0.924453 0
M  V30 1884 C 179.783 -1.04966 -2.02626 0
M  V30 1885 C 180.761 0.0309505 -1.62571 0
M  V30 1886 O 181.945 -0.114846 -1.8815 0
M  V30 1887 C 179.072 -0.59292 -3.3347 0
M  V30 1888 C 178.118 -1.66858 -3.92506 0
M  V30 1889 S 178.951 -3.2619 -4.24689 0
M  V30 1890 C 180.107 -2.82325 -5.58609 0
M  V30 1891 H 180.34 -1.98252 -2.21547 0
M  V30 1892 H 177.873 -1.11506 -1.06798 0
M  V30 1893 H 179.831 -0.336086 -4.09122 0
M  V30 1894 H 178.492 0.319939 -3.12466 0
M  V30 1895 H 177.685 -1.30038 -4.86935 0
M  V30 1896 H 177.287 -1.87766 -3.2345 0
M  V30 1897 H 179.579 -2.2783 -6.38044 0
M  V30 1898 H 180.522 -3.75511 -6.00331 0
M  V30 1899 H 180.93 -2.21367 -5.19285 0
M  V30 1900 N 180.328 1.1314 -1.09713 0
M  V30 1901 C 181.291 2.16831 -0.742751 0
M  V30 1902 C 182.291 1.59159 0.229129 0
M  V30 1903 O 183.481 1.74199 0.00693237 0
M  V30 1904 C 180.613 3.40756 -0.0989168 0
M  V30 1905 H 181.806 2.49695 -1.66109 0
M  V30 1906 H 179.359 1.2802 -0.896699 0
M  V30 1907 H 180.094 3.13485 0.830514 0
M  V30 1908 H 179.879 3.83888 -0.798265 0
M  V30 1909 H 181.369 4.17386 0.133524 0
M  V30 1910 N 181.806 0.884767 1.30421 0
M  V30 1911 C 183.052 0.503851 1.96441 0
M  V30 1912 C 183.385 -0.944518 1.69684 0
M  V30 1913 O 182.66 -1.66737 1.00145 0
M  V30 1914 C 182.943 0.779085 3.51571 0
M  V30 1915 C 182.796 2.27807 3.87846 0
M  V30 1916 C 184.115 0.255452 4.39358 0
M  V30 1917 H 181.234 0.184533 0.713524 0
M  V30 1918 H 183.876 1.10872 1.54297 0
M  V30 1919 H 182.026 0.264274 3.876 0
M  V30 1920 H 183.698 2.86127 3.61841 0
M  V30 1921 H 181.941 2.74479 3.35922 0
M  V30 1922 H 182.612 2.42125 4.96064 0
M  V30 1923 H 185.088 0.696079 4.10236 0
M  V30 1924 H 183.964 0.477361 5.4682 0
M  V30 1925 H 184.225 -0.843293 4.33983 0
M  V30 1926 N 183.284 -1.43765 0.645699 0
M  V30 1927 C 184.524 -2.03776 0.159542 0
M  V30 1928 C 184.888 -1.49792 -1.2011 0
M  V30 1929 O 186.089 -2.01398 -1.78023 0
M  V30 1930 C 184.36 -3.57036 0.161251 0
M  V30 1931 S 185.919 -4.3804 -0.258159 0
M  V30 1932 H 182.737 -0.707717 0.0682454 0
M  V30 1933 H 185.339 -1.75941 0.852352 0
M  V30 1934 H 184.043 -3.9383 1.15439 0
M  V30 1935 H 183.574 -3.89503 -0.552339 0
M  V30 1936 H 185.589 -4.7302 -1.49889 0
M  V30 1937 N 184.763 -0.387143 -1.52771 0
M  V30 1938 C 186.179 -0.037007 -1.59557 0
M  V30 1939 C 186.379 1.44801 -1.40124 0
M  V30 1940 O 185.435 2.21227 -1.21716 0
M  V30 1941 C 186.748 -0.512256 -2.96305 0
M  V30 1942 C 188.296 -0.468328 -3.09476 0
M  V30 1943 C 188.771 -0.919731 -4.4867 0
M  V30 1944 N 190.262 -0.875656 -4.54848 0
M  V30 1945 C 190.997 -1.19637 -5.6078 0
M  V30 1946 N 190.493 -1.58745 -6.74368 0
M  V30 1947 N 192.286 -1.11776 -5.50874 0
M  V30 1948 H 184.437 -1.35395 -1.63652 0
M  V30 1949 H 186.7 -0.554818 -0.768688 0
M  V30 1950 H 186.406 -1.54935 -3.15734 0
M  V30 1951 H 186.28 0.089805 -3.77093 0
M  V30 1952 H 188.667 0.559671 -2.89744 0
M  V30 1953 H 188.748 -1.10616 -2.30646 0
M  V30 1954 H 188.392 -1.94595 -4.69143 0
M  V30 1955 H 188.322 -0.258927 -5.25963 0
M  V30 1956 H 190.813 -0.587843 -3.733 0
M  V30 1957 H 191.126 -1.81586 -7.51163 0
M  V30 1958 H 189.471 -1.6263 -6.75705 0
M  V30 1959 H 192.662 -0.811264 -4.61016 0
M  V30 1960 H 192.835 -1.37103 -6.3333 0
M  V30 1961 N 186.241 1.57166 -0.116904 0
M  V30 1962 C 187.204 2.14039 0.819742 0
M  V30 1963 C 188.204 1.07477 1.19605 0
M  V30 1964 O 189.394 1.33263 1.1219 0
M  V30 1965 C 186.526 2.67891 2.10826 0
M  V30 1966 H 187.719 2.98128 0.325511 0
M  V30 1967 H 185.272 1.55739 0.132312 0
M  V30 1968 H 186.007 1.87384 2.64685 0
M  V30 1969 H 185.792 3.45823 1.84793 0
M  V30 1970 H 187.282 3.11809 2.77785 0
M  V30 1971 N 187.719 -0.156864 1.56817 0
M  V30 1972 C 188.967 -0.869404 1.82444 0
M  V30 1973 C 189.288 -1.82147 0.69623 0
M  V30 1974 O 188.558 -1.93847 -0.28287 0
M  V30 1975 H 187.138 -0.324043 0.673056 0
M  V30 1976 H 189.8 -0.153224 1.94297 0
M  V30 1977 H 188.896 -1.43761 2.77019 0
M  V30 1978 N 189.197 -1.51736 -0.425897 0
M  V30 1979 C 190.16 -1.73271 -1.50032 0
M  V30 1980 C 191.16 -0.602639 -1.4908 0
M  V30 1981 O 192.35 -0.87033 -1.509 0
M  V30 1982 C 189.482 -1.79969 -2.89523 0
M  V30 1983 H 190.675 -2.69172 -1.32237 0
M  V30 1984 H 188.228 -1.41899 -0.65532 0
M  V30 1985 H 188.963 -0.859241 -3.1271 0
M  V30 1986 H 188.748 -2.62109 -2.91619 0
M  V30 1987 H 190.238 -1.9843 -3.67444 0
M  V30 1988 N 190.675 0.682077 -1.42076 0
M  V30 1989 C 191.638 1.77756 -1.44691 0
M  V30 1990 C 192.638 1.5726 -0.335535 0
M  V30 1991 O 193.828 1.63686 -0.596037 0
M  V30 1992 C 190.96 3.16301 -1.27146 0
M  V30 1993 H 192.153 1.76826 -2.42224 0
M  V30 1994 H 189.706 0.891012 -1.28416 0
M  V30 1995 H 190.441 3.22862 -0.305075 0
M  V30 1996 H 190.226 3.32581 -2.07683 0
M  V30 1997 H 191.716 3.96241 -1.31843 0
M  V30 1998 N 192.153 1.28127 0.917671 0
M  V30 1999 C 193.116 1.11744 2.00115 0
M  V30 2000 C 194.116 0.0583052 1.60694 0
M  V30 2001 O 195.306 0.303755 1.71531 0
M  V30 2002 C 192.438 0.704862 3.33533 0
M  V30 2003 H 193.631 2.07966 2.16079 0
M  V30 2004 H 191.184 1.11058 1.09981 0
M  V30 2005 H 191.919 -0.258299 3.2327 0
M  V30 2006 H 191.704 1.4699 3.63505 0
M  V30 2007 H 193.194 0.612768 4.1308 0
M  V30 2008 N 193.631 -1.12557 1.10312 0
M  V30 2009 C 194.579 -2.20325 0.745629 0
M  V30 2010 C 195.573 -1.67429 -0.25763 0
M  V30 2011 O 196.779 -1.79612 -0.118132 0
M  V30 2012 H 193.154 -0.718118 0.223182 0
M  V30 2013 H 195.125 -2.47733 1.66346 0
M  V30 2014 C 193.874 -3.47168 0.192262 0
M  V30 2015 H 193.197 -3.88215 0.955475 0
M  V30 2016 H 194.637 -4.23995 -0.0198274 0
M  V30 2017 C 193.096 -3.19298 -1.07472 0
M  V30 2018 O 193.626 -3.3891 -2.15645 0
M  V30 2019 N 191.832 -2.73113 -0.992847 0
M  V30 2020 H 191.379 -2.57354 -0.112474 0
M  V30 2021 H 191.337 -2.54842 -1.84127 0
M  V30 2022 N 195.109 -0.891671 -1.2995 0
M  V30 2023 C 196.056 -0.361736 -2.27948 0
M  V30 2024 C 197.026 0.551761 -1.56668 0
M  V30 2025 O 198.211 0.478736 -1.84696 0
M  V30 2026 C 195.351 0.411825 -3.42634 0
M  V30 2027 C 194.464 -0.531651 -4.28716 0
M  V30 2028 C 193.599 0.258167 -5.30572 0
M  V30 2029 C 192.638 -0.680349 -6.08307 0
M  V30 2030 N 191.775 0.0745613 -7.0206 0
M  V30 2031 H 196.615 -1.20254 -2.72659 0
M  V30 2032 H 194.152 -0.604352 -1.34112 0
M  V30 2033 H 196.11 0.876304 -4.07893 0
M  V30 2034 H 194.74 1.21715 -2.98974 0
M  V30 2035 H 193.792 -1.11463 -3.63703 0
M  V30 2036 H 195.104 -1.25038 -4.82874 0
M  V30 2037 H 194.258 0.784204 -6.0161 0
M  V30 2038 H 192.997 1.01008 -4.77126 0
M  V30 2039 H 192.002 -1.21796 -5.3614 0
M  V30 2040 H 193.227 -1.43145 -6.63842 0
M  V30 2041 H 191.173 0.808883 -6.50994 0
M  V30 2042 H 191.09 -0.584409 -7.53738 0
M  V30 2043 H 192.358 0.581123 -7.77331 0
M  V30 2044 N 196.587 1.43421 -0.653314 0
M  V30 2045 C 197.833 2.02111 -0.166992 0
M  V30 2046 C 198.166 1.51423 1.21592 0
M  V30 2047 O 197.441 0.707389 1.8118 0
M  V30 2048 C 197.724 3.5966 -0.177948 0
M  V30 2049 C 197.577 4.20579 -1.59478 0
M  V30 2050 C 198.896 4.37413 0.4856 0
M  V30 2051 H 196.015 0.734374 -0.0621557 0
M  V30 2052 H 198.657 1.70717 -0.834016 0
M  V30 2053 H 196.807 3.86537 0.390032 0
M  V30 2054 H 198.479 4.04732 -2.21336 0
M  V30 2055 H 196.722 3.77226 -2.14204 0
M  V30 2056 H 197.393 5.29665 -1.5543 0
M  V30 2057 H 199.869 4.161 0.00234528 0
M  V30 2058 H 198.745 5.47075 0.447207 0
M  V30 2059 H 199.006 4.13672 1.55974 0
M  V30 2060 N 198.065 0.39524 1.52563 0
M  V30 2061 C 199.29 -0.187456 2.06551 0
M  V30 2062 C 199.715 -1.39249 1.26457 0
M  V30 2063 O 199.073 -1.78947 0.291151 0
M  V30 2064 C 199.121 -0.529985 3.56684 0
M  V30 2065 O 198.225 -1.62307 3.79118 0
M  V30 2066 H 197.566 -0.0202537 0.663691 0
M  V30 2067 H 200.096 0.564426 1.96661 0
M  V30 2068 H 200.106 -0.792598 4.00227 0
M  V30 2069 H 198.781 0.350987 4.14416 0
M  V30 2070 H 197.358 -1.3537 3.47461 0
M  V30 2071 N 199.544 -1.57102 0.125237 0
M  V30 2072 C 200.474 -2.18659 -0.819174 0
M  V30 2073 C 201.455 -1.12843 -1.27281 0
M  V30 2074 O 202.64 -1.41104 -1.33429 0
M  V30 2075 C 199.77 -2.79096 -2.06695 0
M  V30 2076 C 198.724 -3.90548 -1.75088 0
M  V30 2077 C 198.05 -4.37821 -3.06948 0
M  V30 2078 C 199.35 -5.12356 -1.01435 0
M  V30 2079 H 201.044 -2.9783 -0.306202 0
M  V30 2080 H 198.59 -1.4326 -0.145839 0
M  V30 2081 H 200.543 -3.2082 -2.73226 0
M  V30 2082 H 199.267 -1.97223 -2.60328 0
M  V30 2083 H 197.926 -3.49409 -1.10944 0
M  V30 2084 H 197.574 -3.52799 -3.58527 0
M  V30 2085 H 197.274 -5.12982 -2.86571 0
M  V30 2086 H 198.798 -4.822 -3.74587 0
M  V30 2087 H 200.212 -5.5106 -1.58132 0
M  V30 2088 H 198.609 -5.9314 -0.911319 0
M  V30 2089 H 199.679 -4.849 -0.00218681 0
M  V30 2090 N 201.022 0.148545 -1.56898 0
M  V30 2091 C 202.252 0.875118 -1.8715 0
M  V30 2092 C 202.66 1.75322 -0.711262 0
M  V30 2093 O 202.003 1.80745 0.328151 0
M  V30 2094 C 202.065 1.7844 -3.12089 0
M  V30 2095 C 201.729 1.08361 -4.43967 0
M  V30 2096 C 202.726 0.438247 -5.1805 0
M  V30 2097 C 200.411 1.07358 -4.90693 0
M  V30 2098 C 202.405 -0.20779 -6.37061 0
M  V30 2099 C 200.092 0.42373 -6.09629 0
M  V30 2100 C 201.09 -0.215829 -6.82659 0
M  V30 2101 O 200.778 -0.855378 -7.99336 0
M  V30 2102 H 200.51 0.258504 -0.624621 0
M  V30 2103 H 203.064 0.14652 -2.04877 0
M  V30 2104 H 201.294 2.55389 -2.90367 0
M  V30 2105 H 202.983 2.38279 -3.286 0
M  V30 2106 H 203.749 0.437817 -4.8302 0
M  V30 2107 H 199.628 1.5608 -4.33774 0
M  V30 2108 H 203.172 -0.70758 -6.94002 0
M  V30 2109 H 199.069 0.421822 -6.4412 0
M  V30 2110 H 199.837 -0.756892 -8.14993 0
M  V30 2111 N 202.5 1.5196 0.417844 0
M  V30 2112 C 203.447 1.74678 1.50852 0
M  V30 2113 C 204.417 0.588947 1.55308 0
M  V30 2114 O 205.602 0.825544 1.72016 0
M  V30 2115 C 202.742 1.89544 2.88387 0
M  V30 2116 C 201.855 3.17166 2.93309 0
M  V30 2117 C 200.99 3.22513 4.22088 0
M  V30 2118 C 200.029 4.44372 4.20951 0
M  V30 2119 N 199.166 4.47161 5.41287 0
M  V30 2120 H 204.006 2.67768 1.30783 0
M  V30 2121 H 201.543 1.32689 0.63498 0
M  V30 2122 H 203.501 1.96146 3.68216 0
M  V30 2123 H 202.131 0.998424 3.06971 0
M  V30 2124 H 201.183 3.19778 2.06024 0
M  V30 2125 H 202.495 4.07021 2.88332 0
M  V30 2126 H 201.649 3.28139 5.10303 0
M  V30 2127 H 200.388 2.30581 4.29748 0
M  V30 2128 H 199.393 4.38902 3.31127 0
M  V30 2129 H 200.618 5.3759 4.14938 0
M  V30 2130 H 198.564 3.58108 5.49632 0
M  V30 2131 H 198.481 5.3085 5.3827 0
M  V30 2132 H 199.749 4.57005 6.3148 0
M  V30 2133 N 203.978 -0.674533 1.42435 0
M  V30 2134 C 205.208 -1.46071 1.46105 0
M  V30 2135 C 205.616 -1.89067 0.0709605 0
M  V30 2136 O 204.959 -1.58731 -0.924677 0
M  V30 2137 C 205.021 -2.74145 2.32561 0
M  V30 2138 C 204.685 -2.53224 3.8043 0
M  V30 2139 C 205.682 -2.17809 4.72075 0
M  V30 2140 C 203.367 -2.6821 4.24698 0
M  V30 2141 C 205.361 -1.97648 6.05982 0
M  V30 2142 C 203.048 -2.47665 5.58664 0
M  V30 2143 C 204.046 -2.12437 6.49122 0
M  V30 2144 O 203.734 -1.9209 7.80613 0
M  V30 2145 H 203.466 -0.455959 0.499076 0
M  V30 2146 H 206.02 -0.836193 1.87609 0
M  V30 2147 H 204.25 -3.3908 1.85908 0
M  V30 2148 H 205.939 -3.36028 2.27683 0
M  V30 2149 H 206.705 -2.05826 4.39159 0
M  V30 2150 H 202.584 -2.94609 3.54579 0
M  V30 2151 H 206.128 -1.70075 6.7655 0
M  V30 2152 H 202.025 -2.59244 5.91154 0
M  V30 2153 H 202.793 -2.06686 7.91974 0
M  V30 2154 N 205.456 -1.28612 -0.910864 0
M  V30 2155 C 206.386 -1.15326 -2.03032 0
M  V30 2156 C 207.367 -0.0502924 -1.70026 0
M  V30 2157 O 208.552 -0.227797 -1.92859 0
M  V30 2158 C 205.682 -0.817343 -3.37545 0
M  V30 2159 C 204.636 -1.8754 -3.84724 0
M  V30 2160 C 203.962 -1.39305 -5.16235 0
M  V30 2161 C 205.262 -3.28244 -4.06267 0
M  V30 2162 H 206.956 -2.08975 -2.14406 0
M  V30 2163 H 204.502 -1.00612 -1.03021 0
M  V30 2164 H 206.455 -0.711151 -4.15356 0
M  V30 2165 H 205.179 0.154846 -3.26233 0
M  V30 2166 H 203.838 -1.97079 -3.09121 0
M  V30 2167 H 203.486 -0.409846 -5.01328 0
M  V30 2168 H 203.186 -2.10057 -5.48771 0
M  V30 2169 H 204.71 -1.30014 -5.96598 0
M  V30 2170 H 206.124 -3.21611 -4.74594 0
M  V30 2171 H 204.521 -3.96855 -4.5014 0
M  V30 2172 H 205.591 -3.72048 -3.10979 0
M  V30 2173 N 206.934 1.1197 -1.10907 0
M  V30 2174 C 207.897 2.16031 -0.765707 0
M  V30 2175 C 208.897 1.59393 0.212235 0
M  V30 2176 O 210.087 1.74196 -0.0115441 0
M  V30 2177 C 207.219 3.40632 -0.135053 0
M  V30 2178 H 208.412 2.47919 -1.68748 0
M  V30 2179 H 205.965 1.27061 -0.910226 0
M  V30 2180 H 206.7 3.14348 0.797218 0
M  V30 2181 H 206.485 3.8302 -0.838937 0
M  V30 2182 H 207.975 4.17505 0.0892469 0
M  V30 2183 N 208.412 0.89855 1.29475 0
M  V30 2184 C 209.344 0.332726 2.26772 0
M  V30 2185 C 210.357 -0.520323 1.54261 0
M  V30 2186 O 211.546 -0.337668 1.75277 0
M  V30 2187 C 208.646 -0.544334 3.345 0
M  V30 2188 C 207.819 0.282728 4.36485 0
M  V30 2189 C 206.878 -0.526982 5.23555 0
M  V30 2190 O 205.904 0.0551165 5.69173 0
M  V30 2191 N 207.106 -1.83331 5.5079 0
M  V30 2192 H 209.871 1.16897 2.75962 0
M  V30 2193 H 207.432 0.762919 1.42798 0
M  V30 2194 H 209.424 -1.09239 3.89678 0
M  V30 2195 H 207.994 -1.28127 2.85136 0
M  V30 2196 H 207.214 1.01221 3.80983 0
M  V30 2197 H 208.502 0.84918 5.01664 0
M  V30 2198 H 207.9 -2.32898 5.15534 0
M  V30 2199 H 206.457 -2.32852 6.08788 0
M  V30 2200 N 209.89 -1.43072 0.660911 0
M  V30 2201 C 210.82 -2.33497 -0.0122829 0
M  V30 2202 C 211.801 -1.49903 -0.803925 0
M  V30 2203 O 212.986 -1.78546 -0.763864 0
M  V30 2204 C 210.116 -3.33363 -0.973994 0
M  V30 2205 C 209.07 -4.27003 -0.291928 0
M  V30 2206 C 208.396 -5.16967 -1.36562 0
M  V30 2207 C 209.696 -5.15816 0.820462 0
M  V30 2208 H 211.39 -2.90038 0.742873 0
M  V30 2209 H 208.936 -1.39461 0.358688 0
M  V30 2210 H 210.889 -3.95524 -1.45392 0
M  V30 2211 H 209.613 -2.75095 -1.7604 0
M  V30 2212 H 208.272 -3.66217 0.167623 0
M  V30 2213 H 207.92 -4.55034 -2.14366 0
M  V30 2214 H 207.62 -5.80441 -0.914454 0
M  V30 2215 H 209.144 -5.82003 -1.84675 0
M  V30 2216 H 210.558 -5.71742 0.422366 0
M  V30 2217 H 208.955 -5.8805 1.19656 0
M  V30 2218 H 210.025 -4.55045 1.67518 0
M  V30 2219 N 211.368 -0.403325 -1.52352 0
M  V30 2220 C 212.331 0.413051 -2.25447 0
M  V30 2221 C 213.331 0.978513 -1.276 0
M  V30 2222 O 214.521 0.858305 -1.51587 0
M  V30 2223 C 211.653 1.58087 -3.02029 0
M  V30 2224 H 212.846 -0.227094 -2.99039 0
M  V30 2225 H 210.399 -0.155722 -1.55522 0
M  V30 2226 H 211.134 2.25804 -2.32772 0
M  V30 2227 H 210.919 1.18195 -3.73861 0
M  V30 2228 H 212.409 2.1585 -3.57489 0
M  V30 2229 N 212.846 1.57033 -0.133567 0
M  V30 2230 C 214.094 1.953 0.519848 0
M  V30 2231 C 214.415 1.01866 1.66278 0
M  V30 2232 O 213.685 0.0776513 1.95746 0
M  V30 2233 H 212.265 0.721091 0.195032 0
M  V30 2234 H 214.927 1.93809 -0.205921 0
M  V30 2235 H 214.023 2.98695 0.904854 0
M  V30 2236 N 214.325 -0.140222 1.56975 0
M  V30 2237 C 215.272 -1.17292 1.98774 0
M  V30 2238 C 216.242 -1.4232 0.856408 0
M  V30 2239 O 217.427 -1.54541 1.119 0
M  V30 2240 C 214.567 -2.49973 2.37923 0
M  V30 2241 C 213.68 -2.32062 3.64378 0
M  V30 2242 C 212.815 -3.57825 3.926 0
M  V30 2243 C 211.854 -3.3498 5.12303 0
M  V30 2244 N 210.991 -4.52891 5.36502 0
M  V30 2245 H 215.831 -0.809472 2.86795 0
M  V30 2246 H 213.368 -0.388237 1.41884 0
M  V30 2247 H 215.326 -3.27346 2.58652 0
M  V30 2248 H 213.956 -2.84252 1.52972 0
M  V30 2249 H 213.008 -1.45711 3.51387 0
M  V30 2250 H 214.32 -2.11145 4.51906 0
M  V30 2251 H 213.474 -4.43624 4.13863 0
M  V30 2252 H 212.213 -3.81753 3.03506 0
M  V30 2253 H 211.218 -2.4757 4.90906 0
M  V30 2254 H 212.443 -3.12444 6.02956 0
M  V30 2255 H 210.389 -4.76979 4.50363 0
M  V30 2256 H 210.306 -4.35001 6.18312 0
M  V30 2257 H 211.574 -5.39884 5.62268 0
M  V30 2258 N 215.803 -1.52179 -0.40978 0
M  V30 2259 C 216.75 -1.75475 -1.49924 0
M  V30 2260 C 217.72 -0.597175 -1.54994 0
M  V30 2261 O 218.905 -0.834655 -1.71575 0
M  V30 2262 C 216.045 -1.9107 -2.87378 0
M  V30 2263 C 215.158 -3.18717 -2.91622 0
M  V30 2264 C 214.293 -3.24747 -4.20372 0
M  V30 2265 C 213.332 -4.46598 -4.18588 0
M  V30 2266 N 212.469 -4.50025 -5.38908 0
M  V30 2267 H 217.309 -2.68458 -1.29361 0
M  V30 2268 H 214.846 -1.33024 -0.627934 0
M  V30 2269 H 216.804 -1.98096 -3.6717 0
M  V30 2270 H 215.434 -1.01469 -3.06437 0
M  V30 2271 H 214.486 -3.20866 -2.04326 0
M  V30 2272 H 215.798 -4.08544 -2.86169 0
M  V30 2273 H 214.952 -3.30841 -5.08556 0
M  V30 2274 H 213.691 -2.32857 -4.28519 0
M  V30 2275 H 212.696 -4.40652 -3.28794 0
M  V30 2276 H 213.921 -5.39783 -4.12081 0
M  V30 2277 H 211.867 -3.61017 -5.47725 0
M  V30 2278 H 211.784 -5.33697 -5.35447 0
M  V30 2279 H 213.052 -4.60347 -6.29048 0
M  V30 2280 N 217.281 0.66697 -1.42791 0
M  V30 2281 C 218.506 1.46004 -1.47301 0
M  V30 2282 C 218.931 1.87894 -0.0880317 0
M  V30 2283 O 218.289 1.56502 0.915253 0
M  V30 2284 C 218.337 2.68031 -2.41229 0
M  V30 2285 O 217.441 3.6659 -1.88906 0
M  V30 2286 H 216.782 0.43832 -0.49877 0
M  V30 2287 H 219.312 0.817391 -1.87563 0
M  V30 2288 H 219.322 3.1601 -2.58073 0
M  V30 2289 H 217.997 2.36883 -3.41847 0
M  V30 2290 H 216.574 3.25661 -1.81656 0
M  V30 2291 N 218.759 1.29093 0.90403 0
M  V30 2292 C 220.036 1.075 1.63411 0
M  V30 2293 C 220.416 -0.382346 2.07609 0
M  V30 2294 O 219.764 -1.37031 1.82851 0
M  V30 2295 C 219.974 2.05858 2.81822 0
M  V30 2296 C 221.322 2.36539 3.52611 0
M  V30 2297 O 222.346 2.04019 2.91984 0
M  V30 2298 O 221.205 2.92085 4.61897 0
M  V30 2299 H 218.299 0.411547 0.717327 0
M  V30 2300 H 220.845 1.40449 0.952479 0
M  V30 2301 H 219.617 3.04037 2.46327 0
M  V30 2302 H 219.24 1.73613 3.57693 0
M  V30 2303 N 220.237 -1.11381 1.11499 0
M  V30 2304 C 221.169 -2.17207 0.731704 0
M  V30 2305 C 222.182 -1.61066 -0.236957 0
M  V30 2306 O 223.371 -1.78489 -0.0197591 0
M  V30 2307 C 220.471 -3.38846 0.0607624 0
M  V30 2308 C 219.644 -4.24451 1.0564 0
M  V30 2309 C 218.703 -5.24562 0.4149 0
M  V30 2310 O 217.729 -5.59071 1.069 0
M  V30 2311 N 218.931 -5.74651 -0.821943 0
M  V30 2312 H 221.696 -2.50699 1.64225 0
M  V30 2313 H 219.257 -1.26908 1.00529 0
M  V30 2314 H 221.249 -4.02911 -0.380139 0
M  V30 2315 H 219.819 -3.03411 -0.752376 0
M  V30 2316 H 219.039 -3.56833 1.67524 0
M  V30 2317 H 220.327 -4.78486 1.72998 0
M  V30 2318 H 219.725 -5.48797 -1.37252 0
M  V30 2319 H 218.282 -6.40549 -1.20582 0
M  V30 2320 N 221.715 -0.905404 -1.28997 0
M  V30 2321 C 222.648 -0.331959 -2.25773 0
M  V30 2322 C 223.626 0.559099 -1.52685 0
M  V30 2323 O 224.81 0.50463 -1.8162 0
M  V30 2324 C 221.937 0.526276 -3.34586 0
M  V30 2325 C 220.983 -0.298249 -4.25456 0
M  V30 2326 S 221.816 -1.69968 -5.0781 0
M  V30 2327 C 222.972 -0.848519 -6.20122 0
M  V30 2328 H 223.205 -1.15222 -2.74064 0
M  V30 2329 H 220.738 -0.706112 -1.37308 0
M  V30 2330 H 222.696 1.01565 -3.97737 0
M  V30 2331 H 221.357 1.32084 -2.84978 0
M  V30 2332 H 220.55 0.357607 -5.0273 0
M  V30 2333 H 220.152 -0.720968 -3.66985 0
M  V30 2334 H 222.444 -0.0744325 -6.77459 0
M  V30 2335 H 223.387 -1.59353 -6.89937 0
M  V30 2336 H 223.795 -0.400383 -5.63078 0
M  V30 2337 N 223.193 1.4272 -0.668489 0
M  V30 2338 C 224.439 2.01923 -0.188419 0
M  V30 2339 C 224.772 1.52704 1.19979 0
M  V30 2340 O 224.047 0.726566 1.8042 0
M  V30 2341 C 224.33 3.59451 -0.216085 0
M  V30 2342 C 224.183 4.18864 -1.6393 0
M  V30 2343 C 225.502 4.37903 0.439179 0
M  V30 2344 H 222.621 0.733674 -0.0699412 0
M  V30 2345 H 225.263 1.69822 -0.852076 0
M  V30 2346 H 223.413 3.86929 0.349012 0
M  V30 2347 H 225.085 4.02362 -2.25616 0
M  V30 2348 H 223.328 3.74933 -2.18193 0
M  V30 2349 H 223.999 5.27987 -1.61039 0
M  V30 2350 H 226.475 4.16079 -0.0417878 0
M  V30 2351 H 225.351 5.47519 0.389157 0
M  V30 2352 H 225.612 4.15303 1.51577 0
M  V30 2353 N 224.671 0.411399 1.52136 0
M  V30 2354 C 225.601 -0.404015 2.29978 0
M  V30 2355 C 226.582 -1.04412 1.34284 0
M  V30 2356 O 227.767 -1.0527 1.63192 0
M  V30 2357 C 224.897 -1.5197 3.12286 0
M  V30 2358 C 223.851 -1.00448 4.16046 0
M  V30 2359 C 223.177 -2.21393 4.86712 0
M  V30 2360 C 224.477 -0.0569336 5.22269 0
M  V30 2361 H 226.171 0.245529 2.98392 0
M  V30 2362 H 223.717 0.119525 1.43503 0
M  V30 2363 H 225.67 -2.09715 3.6551 0
M  V30 2364 H 224.394 -2.19716 2.41646 0
M  V30 2365 H 223.053 -0.449421 3.63835 0
M  V30 2366 H 222.701 -2.87699 4.12599 0
M  V30 2367 H 222.401 -1.87571 5.56858 0
M  V30 2368 H 223.925 -2.7974 5.4275 0
M  V30 2369 H 225.339 -0.54325 5.7072 0
M  V30 2370 H 223.736 0.192594 5.99791 0
M  V30 2371 H 224.806 0.887663 4.76706 0
M  V30 2372 N 226.149 -1.5696 0.141893 0
M  V30 2373 C 227.56 -1.82797 -0.379776 0
M  V30 2374 C 227.911 -1.06033 -1.6508 0
M  V30 2375 O 227.036 -0.304011 -2.14254 0
M  V30 2376 C 227.631 -3.31578 -0.695802 0
M  V30 2377 C 226.19 -3.58014 -1.16201 0
M  V30 2378 C 225.337 -2.76699 -0.182455 0
M  V30 2379 H 228.288 -1.54406 0.366675 0
M  V30 2380 H 228.309 -3.47454 -1.55099 0
M  V30 2381 H 227.821 -3.87421 0.229449 0
M  V30 2382 H 225.922 -3.07553 -2.10338 0
M  V30 2383 H 226.035 -4.66501 -1.09151 0
M  V30 2384 H 224.399 -2.45618 -0.674072 0
M  V30 2385 H 225.182 -3.35311 0.736297 0
M  V30 2386 N 227.627 0.131896 -1.57047 0
M  V30 2387 C 228.873 0.843179 -1.84441 0
M  V30 2388 C 229.206 1.80129 -0.725749 0
M  V30 2389 O 228.481 1.92624 0.269469 0
M  V30 2390 C 228.764 1.60442 -3.22382 0
M  V30 2391 C 228.617 0.666782 -4.4483 0
M  V30 2392 C 229.936 2.56354 -3.5773 0
M  V30 2393 H 227.055 0.305081 -0.670891 0
M  V30 2394 H 229.697 0.107839 -1.89694 0
M  V30 2395 H 227.847 2.23128 -3.18035 0
M  V30 2396 H 229.519 0.0497646 -4.61273 0
M  V30 2397 H 227.762 -0.022609 -4.33794 0
M  V30 2398 H 228.433 1.23579 -5.37989 0
M  V30 2399 H 230.909 2.0378 -3.62785 0
M  V30 2400 H 229.785 3.06657 -4.5525 0
M  V30 2401 H 230.046 3.38419 -2.84473 0
M  V30 2402 N 229.106 1.52395 0.401703 0
M  V30 2403 C 230.517 1.58899 0.980202 0
M  V30 2404 C 230.868 0.434032 1.91339 0
M  V30 2405 O 229.993 -0.444619 2.11783 0
M  V30 2406 C 230.588 2.87994 1.78451 0
M  V30 2407 C 229.147 2.96953 2.31292 0
M  V30 2408 C 228.294 2.53903 1.11483 0
M  V30 2409 H 231.245 1.57657 0.18168 0
M  V30 2410 H 231.266 2.73765 2.64259 0
M  V30 2411 H 230.778 3.72035 1.10506 0
M  V30 2412 H 228.879 2.17422 3.02586 0
M  V30 2413 H 228.992 4.01344 2.61649 0
M  V30 2414 H 227.356 2.07925 1.47104 0
M  V30 2415 H 228.139 3.40326 0.450928 0
M  V30 2416 N 230.584 -0.659388 1.43143 0
M  V30 2417 C 231.824 -1.43121 1.45931 0
M  V30 2418 C 232.188 -1.91838 0.0789298 0
M  V30 2419 O 233.389 -2.68794 -0.018491 0
M  V30 2420 C 231.66 -2.58534 2.46769 0
M  V30 2421 S 233.219 -3.47154 2.68384 0
M  V30 2422 H 230.037 -0.488624 0.516496 0
M  V30 2423 H 232.639 -0.766128 1.79863 0
M  V30 2424 H 231.343 -2.21007 3.45809 0
M  V30 2425 H 230.874 -3.29898 2.14315 0
M  V30 2426 H 232.889 -4.55051 1.97845 0
M  V30 2427 N 232.062 -1.29571 -0.897171 0
M  V30 2428 C 232.992 -1.17473 -2.01798 0
M  V30 2429 C 233.973 -0.068323 -1.69963 0
M  V30 2430 O 235.158 -0.248239 -1.92607 0
M  V30 2431 C 232.288 -0.853099 -3.36659 0
M  V30 2432 C 231.242 -1.9161 -3.82713 0
M  V30 2433 C 230.568 -1.44773 -5.14728 0
M  V30 2434 C 231.868 -3.32535 -4.02763 0
M  V30 2435 H 233.562 -2.11237 -2.12177 0
M  V30 2436 H 231.108 -1.01699 -1.01948 0
M  V30 2437 H 233.061 -0.755165 -4.14578 0
M  V30 2438 H 231.785 0.120236 -3.26379 0
M  V30 2439 H 230.444 -2.00346 -3.07013 0
M  V30 2440 H 230.092 -0.462995 -5.00865 0
M  V30 2441 H 229.792 -2.15865 -5.46513 0
M  V30 2442 H 231.316 -1.36334 -5.95185 0
M  V30 2443 H 232.73 -3.26626 -4.71156 0
M  V30 2444 H 231.127 -4.01607 -4.45905 0
M  V30 2445 H 232.197 -3.75326 -3.07016 0
M  V30 2446 N 233.54 1.10788 -1.12088 0
M  V30 2447 C 234.488 2.19111 -0.780587 0
M  V30 2448 C 235.482 1.67818 0.230961 0
M  V30 2449 O 236.688 1.79777 0.0895427 0
M  V30 2450 H 233.063 0.714477 -0.234578 0
M  V30 2451 H 235.034 2.45055 -1.70266 0
M  V30 2452 C 233.783 3.46818 -0.24747 0
M  V30 2453 H 233.106 3.86646 -1.01712 0
M  V30 2454 H 234.546 4.23973 -0.0476291 0
M  V30 2455 C 233.005 3.20968 1.02378 0
M  V30 2456 O 233.535 3.42298 2.10226 0
M  V30 2457 N 231.741 2.74658 0.949271 0
M  V30 2458 H 231.288 2.57501 0.0715173 0
M  V30 2459 H 231.246 2.57739 1.80049 0
M  V30 2460 N 235.018 0.912232 1.28515 0
M  V30 2461 C 236.264 0.545405 1.95328 0
M  V30 2462 C 236.597 -0.908313 1.71649 0
M  V30 2463 O 235.872 -1.64575 1.03659 0
M  V30 2464 C 236.155 0.853483 3.4984 0
M  V30 2465 C 236.008 2.35982 3.82926 0
M  V30 2466 C 237.327 0.348589 4.38717 0
M  V30 2467 H 234.446 0.199626 0.709449 0
M  V30 2468 H 237.088 1.1412 1.5191 0
M  V30 2469 H 235.238 0.34643 3.86952 0
M  V30 2470 H 236.91 2.93738 3.55691 0
M  V30 2471 H 235.153 2.81543 3.30024 0
M  V30 2472 H 235.824 2.52593 4.90816 0
M  V30 2473 H 238.3 0.78294 4.08668 0
M  V30 2474 H 237.176 0.593242 5.45685 0
M  V30 2475 H 237.437 -0.751049 4.35674 0
M  V30 2476 N 236.496 -1.42363 0.676048 0
M  V30 2477 C 237.745 -2.00745 0.196037 0
M  V30 2478 C 238.058 -1.54083 -1.20489 0
M  V30 2479 O 239.264 -2.04891 -1.78134 0
M  V30 2480 C 237.72 -3.58651 0.299616 0
M  V30 2481 C 237.328 -4.143 1.70468 0
M  V30 2482 C 239.072 -4.24326 -0.121619 0
M  V30 2483 C 236.979 -5.64574 1.76096 0
M  V30 2484 H 235.909 -0.750787 0.0695301 0
M  V30 2485 H 238.56 -1.63072 0.841412 0
M  V30 2486 H 236.942 -3.93833 -0.413673 0
M  V30 2487 H 238.116 -3.90575 2.44515 0
M  V30 2488 H 236.431 -3.61081 2.07387 0
M  V30 2489 H 239.028 -5.34607 -0.0997362 0
M  V30 2490 H 239.371 -3.99897 -1.15708 0
M  V30 2491 H 239.904 -3.94108 0.540706 0
M  V30 2492 H 236.643 -5.93804 2.77628 0
M  V30 2493 H 236.163 -5.90286 1.06406 0
M  V30 2494 H 237.842 -6.29013 1.51496 0
M  V30 2495 N 237.974 -0.419461 -1.51915 0
M  V30 2496 C 238.922 0.415502 -2.28859 0
M  V30 2497 C 239.916 1.03674 -1.3397 0
M  V30 2498 O 241.122 0.973757 -1.51387 0
M  V30 2499 H 237.497 0.152786 -0.736315 0
M  V30 2500 H 239.468 -0.254531 -2.97312 0
M  V30 2501 C 238.217 1.51425 -3.12995 0
M  V30 2502 H 237.54 1.04556 -3.85886 0
M  V30 2503 H 238.98 2.07208 -3.6992 0
M  V30 2504 C 237.439 2.48745 -2.27217 0
M  V30 2505 O 237.969 3.52871 -1.9195 0
M  V30 2506 N 236.175 2.19202 -1.90785 0
M  V30 2507 H 235.722 1.34556 -2.19664 0
M  V30 2508 H 235.68 2.84561 -1.33687 0
M  V30 2509 N 239.452 1.56882 -0.150215 0
M  V30 2510 C 240.7 1.9584 0.499105 0
M  V30 2511 C 241.021 1.03623 1.65188 0
M  V30 2512 O 240.291 0.0984084 1.95653 0
M  V30 2513 H 238.871 0.723119 0.187373 0
M  V30 2514 H 241.533 1.9358 -0.226466 0
M  V30 2515 H 240.629 2.99638 0.873122 0
M  V30 2516 N 240.93 -0.123565 1.57115 0
M  V30 2517 C 242.178 -0.83051 1.84247 0
M  V30 2518 C 242.499 -1.80629 0.73471 0
M  V30 2519 O 241.769 -1.94403 -0.241688 0
M  V30 2520 H 240.349 -0.309694 0.679778 0
M  V30 2521 H 243.011 -0.111976 1.94578 0
M  V30 2522 H 242.107 -1.37852 2.80006 0
M  V30 2523 N 242.408 -1.52605 -0.393616 0
M  V30 2524 C 243.633 -1.71592 -1.16495 0
M  V30 2525 C 244.058 -0.43133 -1.83088 0
M  V30 2526 O 243.416 0.612523 -1.7064 0
M  V30 2527 C 243.464 -2.86318 -2.19213 0
M  V30 2528 O 242.568 -2.52969 -3.257 0
M  V30 2529 H 241.909 -0.570734 -0.33935 0
M  V30 2530 H 244.439 -1.99377 -0.459324 0
M  V30 2531 H 244.449 -3.1168 -2.63286 0
M  V30 2532 H 243.124 -3.79511 -1.7013 0
M  V30 2533 H 241.701 -2.38332 -2.86797 0
M  V30 2534 N 243.887 0.651787 -1.4349 0
M  V30 2535 C 244.837 1.75783 -1.45205 0
M  V30 2536 C 245.821 1.57679 -0.320328 0
M  V30 2537 O 247.013 1.67767 -0.564211 0
M  V30 2538 C 244.142 3.14377 -1.3792 0
M  V30 2539 C 243.228 3.38023 -2.56127 0
M  V30 2540 N 243.619 3.32135 -3.81471 0
M  V30 2541 C 241.917 3.68747 -2.50882 0
M  V30 2542 C 242.618 3.55902 -4.60118 0
M  V30 2543 N 241.594 3.77783 -3.90872 0
M  V30 2544 H 245.396 1.69657 -2.39987 0
M  V30 2545 H 242.91 0.853508 -1.38163 0
M  V30 2546 H 244.907 3.93666 -1.37231 0
M  V30 2547 H 243.567 3.21683 -0.441596 0
M  V30 2548 H 244.578 3.11515 -4.13738 0
M  V30 2549 H 241.255 3.8316 -1.65816 0
M  V30 2550 H 242.645 3.57116 -5.69138 0
M  V30 2551 N 245.365 1.30045 0.890287 0
M  V30 2552 C 246.328 1.15963 1.977 0
M  V30 2553 C 247.328 0.0923777 1.60534 0
M  V30 2554 O 248.518 0.340071 1.70848 0
M  V30 2555 C 245.65 0.775451 3.31963 0
M  V30 2556 H 246.843 2.12502 2.11619 0
M  V30 2557 H 244.396 1.13366 1.07601 0
M  V30 2558 H 245.131 -0.189671 3.23745 0
M  V30 2559 H 244.916 1.54668 3.60306 0
M  V30 2560 H 246.406 0.700251 4.11687 0
M  V30 2561 N 246.843 -1.10192 1.12674 0
M  V30 2562 C 248.091 -1.81845 0.881861 0
M  V30 2563 C 248.412 -1.85737 -0.593867 0
M  V30 2564 O 247.682 -1.33724 -1.4316 0
M  V30 2565 H 246.262 -0.673432 0.323261 0
M  V30 2566 H 248.924 -1.33316 1.42172 0
M  V30 2567 H 248.02 -2.85288 1.2656 0
M  V30 2568 N 248.321 -0.919034 -1.28029 0
M  V30 2569 C 249.269 -0.401753 -2.29104 0
M  V30 2570 C 250.263 0.509354 -1.61561 0
M  V30 2571 O 251.469 0.390014 -1.75724 0
M  V30 2572 H 247.844 -0.111331 -0.743713 0
M  V30 2573 H 249.815 -1.2672 -2.70156 0
M  V30 2574 C 248.564 0.338148 -3.46052 0
M  V30 2575 H 247.887 -0.353732 -3.98232 0
M  V30 2576 H 249.327 0.664653 -4.18758 0
M  V30 2577 C 247.786 1.54798 -2.99231 0
M  V30 2578 O 248.316 2.64696 -3.02157 0
M  V30 2579 N 246.522 1.3968 -2.54829 0
M  V30 2580 H 246.069 0.502698 -2.52647 0
M  V30 2581 H 246.027 2.20755 -2.23863 0
M  V30 2582 N 249.799 1.42003 -0.683588 0
M  V30 2583 C 250.746 2.30798 -0.0107309 0
M  V30 2584 C 251.716 1.4645 0.783688 0
M  V30 2585 O 252.901 1.75263 0.754156 0
M  V30 2586 C 250.041 3.3238 0.928306 0
M  V30 2587 C 249.154 4.31814 0.126776 0
M  V30 2588 C 248.289 5.20468 1.06236 0
M  V30 2589 C 247.328 6.11577 0.253035 0
M  V30 2590 N 246.465 6.92754 1.14179 0
M  V30 2591 H 251.305 2.8778 -0.773727 0
M  V30 2592 H 248.842 1.41745 -0.393283 0
M  V30 2593 H 250.8 3.89813 1.48666 0
M  V30 2594 H 249.43 2.76976 1.65783 0
M  V30 2595 H 248.482 3.76427 -0.54833 0
M  V30 2596 H 249.794 4.96276 -0.501192 0
M  V30 2597 H 248.948 5.82677 1.69035 0
M  V30 2598 H 247.687 4.56204 1.7242 0
M  V30 2599 H 246.692 5.48428 -0.388108 0
M  V30 2600 H 247.917 6.77892 -0.404839 0
M  V30 2601 H 245.863 6.3111 1.78987 0
M  V30 2602 H 245.78 7.53855 0.569111 0
M  V30 2603 H 247.048 7.59441 1.75697 0
M  V30 2604 N 251.277 0.427512 1.51691 0
M  V30 2605 C 252.207 -0.3796 2.30394 0
M  V30 2606 C 253.188 -1.02982 1.35384 0
M  V30 2607 O 254.373 -1.03534 1.643 0
M  V30 2608 C 251.503 -1.48649 3.1388 0
M  V30 2609 C 250.457 -0.960294 4.17088 0
M  V30 2610 C 249.783 -2.16219 4.89033 0
M  V30 2611 C 251.083 -0.00153679 5.223 0
M  V30 2612 H 252.777 0.277164 2.98114 0
M  V30 2613 H 250.323 0.134739 1.43368 0
M  V30 2614 H 252.276 -2.05826 3.67714 0
M  V30 2615 H 251 -2.1714 2.43962 0
M  V30 2616 H 249.659 -0.410806 3.64291 0
M  V30 2617 H 249.307 -2.83307 4.15628 0
M  V30 2618 H 249.007 -1.81654 5.58816 0
M  V30 2619 H 250.531 -2.73968 5.45687 0
M  V30 2620 H 251.945 -0.482687 5.71264 0
M  V30 2621 H 250.342 0.256199 5.99553 0
M  V30 2622 H 251.412 0.938174 4.75738 0
M  V30 2623 N 252.755 -1.56801 0.158532 0
M  V30 2624 C 253.98 -2.01295 -0.499516 0
M  V30 2625 C 254.405 -1.03799 -1.56867 0
M  V30 2626 O 253.763 -0.0155162 -1.81293 0
M  V30 2627 C 253.811 -3.44469 -1.06647 0
M  V30 2628 O 252.915 -3.50012 -2.18095 0
M  V30 2629 H 252.256 -0.652884 -0.12099 0
M  V30 2630 H 254.786 -2.02958 0.258661 0
M  V30 2631 H 254.796 -3.8351 -1.39227 0
M  V30 2632 H 253.471 -4.14932 -0.283581 0
M  V30 2633 H 252.048 -3.22822 -1.86656 0
M  V30 2634 N 254.233 0.115231 -1.57178 0
M  V30 2635 C 255.48 0.822351 -1.8505 0
M  V30 2636 C 255.808 1.79701 -0.744168 0
M  V30 2637 O 255.063 1.93909 0.26414 0
M  V30 2638 C 255.362 1.60324 -3.19423 0
M  V30 2639 C 255.028 0.772536 -4.44233 0
M  V30 2640 C 253.69 0.543468 -4.78121 0
M  V30 2641 C 256.042 0.193746 -5.2084 0
M  V30 2642 C 253.37 -0.274583 -5.86057 0
M  V30 2643 C 255.722 -0.611517 -6.29637 0
M  V30 2644 C 254.386 -0.850867 -6.62055 0
M  V30 2645 H 253.656 0.30092 -0.677147 0
M  V30 2646 H 256.303 0.0845802 -1.91313 0
M  V30 2647 H 254.608 2.41203 -3.08753 0
M  V30 2648 H 256.305 2.1544 -3.38211 0
M  V30 2649 H 252.895 0.96117 -4.17683 0
M  V30 2650 H 257.079 0.357926 -4.95008 0
M  V30 2651 H 252.335 -0.469206 -6.09597 0
M  V30 2652 H 256.509 -1.06697 -6.88178 0
M  V30 2653 H 254.136 -1.48657 -7.45523 0
M  V30 2654 N 255.711 1.52812 0.385517 0
M  V30 2655 C 256.643 1.74096 1.49074 0
M  V30 2656 C 257.656 0.621462 1.50472 0
M  V30 2657 O 258.845 0.897245 1.54311 0
M  V30 2658 C 255.945 1.78774 2.87911 0
M  V30 2659 C 255.118 3.08134 3.10439 0
M  V30 2660 C 254.177 3.04313 4.29278 0
M  V30 2661 O 253.203 3.78168 4.25415 0
M  V30 2662 N 254.405 2.23741 5.35649 0
M  V30 2663 H 257.17 2.69455 1.31202 0
M  V30 2664 H 254.731 1.51343 0.575065 0
M  V30 2665 H 256.723 1.73721 3.65518 0
M  V30 2666 H 255.293 0.907869 2.99126 0
M  V30 2667 H 254.513 3.26649 2.20667 0
M  V30 2668 H 255.801 3.93662 3.22347 0
M  V30 2669 H 255.199 1.63211 5.41645 0
M  V30 2670 H 253.756 2.24524 6.11909 0
M  V30 2671 N 257.189 -0.644168 1.43834 0
M  V30 2672 C 258.099 -1.78563 1.52159 0
M  V30 2673 C 259.115 -1.69147 0.408069 0
M  V30 2674 O 260.291 -1.90156 0.663524 0
M  V30 2675 C 257.356 -3.14888 1.45073 0
M  V30 2676 C 256.417 -3.36034 2.6717 0
M  V30 2677 C 255.65 -4.65855 2.60413 0
M  V30 2678 O 255.873 -5.45805 1.65689 0
M  V30 2679 O 254.807 -4.88918 3.5106 0
M  V30 2680 H 258.633 -1.74494 2.48567 0
M  V30 2681 H 256.218 -0.80378 1.25935 0
M  V30 2682 H 258.1 -3.96179 1.43597 0
M  V30 2683 H 256.775 -3.19528 0.518037 0
M  V30 2684 H 255.682 -2.54472 2.74217 0
M  V30 2685 H 257.015 -3.36247 3.59442 0
M  V30 2686 N 258.668 -1.30515 -0.883378 0
M  V30 2687 C 259.915 -1.1943 -1.63532 0
M  V30 2688 C 260.243 0.250627 -1.92878 0
M  V30 2689 O 259.498 1.19556 -1.54935 0
M  V30 2690 C 259.797 -1.96994 -2.98209 0
M  V30 2691 C 259.463 -3.466 -2.88408 0
M  V30 2692 C 258.125 -3.87397 -2.85442 0
M  V30 2693 C 260.477 -4.41863 -2.76418 0
M  V30 2694 C 257.805 -5.21745 -2.68327 0
M  V30 2695 C 260.157 -5.7632 -2.60841 0
M  V30 2696 C 258.821 -6.16354 -2.56251 0
M  V30 2697 H 258.091 -0.437025 -0.598406 0
M  V30 2698 H 260.738 -1.61635 -1.02696 0
M  V30 2699 H 259.043 -1.47429 -3.63004 0
M  V30 2700 H 260.74 -1.85808 -3.55354 0
M  V30 2701 H 257.33 -3.14182 -2.91527 0
M  V30 2702 H 261.514 -4.11285 -2.77775 0
M  V30 2703 H 256.77 -5.51853 -2.63189 0
M  V30 2704 H 260.944 -6.49772 -2.50538 0
M  V30 2705 H 258.571 -7.20401 -2.42748 0
M  V30 2706 N 260.146 1.09593 -1.13257 0
M  V30 2707 C 261.079 2.15451 -0.752061 0
M  V30 2708 C 262.057 1.60493 0.260913 0
M  V30 2709 O 263.241 1.8788 0.152819 0
M  V30 2710 C 260.368 3.38506 -0.114594 0
M  V30 2711 C 259.414 4.12183 -1.09579 0
M  V30 2712 S 260.247 4.6661 -2.62745 0
M  V30 2713 C 261.403 5.92966 -2.00354 0
M  V30 2714 H 261.636 2.47395 -1.64872 0
M  V30 2715 H 259.169 1.21515 -0.952545 0
M  V30 2716 H 261.127 4.09757 0.246808 0
M  V30 2717 H 259.788 3.04784 0.759309 0
M  V30 2718 H 258.981 5.00445 -0.597545 0
M  V30 2719 H 258.583 3.46785 -1.40057 0
M  V30 2720 H 260.875 6.63882 -1.35156 0
M  V30 2721 H 261.818 6.47467 -2.86691 0
M  V30 2722 H 262.226 5.45405 -1.4558 0
M  V30 2723 N 261.624 0.925811 1.2754 0
M  V30 2724 C 262.873 0.561084 1.93739 0
M  V30 2725 C 263.186 -0.901685 1.73577 0
M  V30 2726 O 264.392 -1.37511 2.34101 0
M  V30 2727 C 262.848 0.952668 3.47062 0
M  V30 2728 C 262.456 2.43599 3.75983 0
M  V30 2729 C 264.2 0.659103 4.19352 0
M  V30 2730 C 262.107 2.76707 5.22673 0
M  V30 2731 H 261.037 0.206122 0.725279 0
M  V30 2732 H 263.688 1.12637 1.44863 0
M  V30 2733 H 262.07 0.316053 3.94737 0
M  V30 2734 H 263.244 3.12035 3.39073 0
M  V30 2735 H 261.559 2.70125 3.16893 0
M  V30 2736 H 264.156 0.882985 5.27359 0
M  V30 2737 H 264.499 -0.403607 4.14339 0
M  V30 2738 H 265.032 1.25473 3.77494 0
M  V30 2739 H 261.771 3.8188 5.32774 0
M  V30 2740 H 261.291 2.12919 5.60737 0
M  V30 2741 H 262.97 2.6435 5.90532 0
M  V30 2742 N 263.102 -1.41638 0.69111 0
M  V30 2743 C 264.348 -2.01598 0.220519 0
M  V30 2744 C 264.681 -1.54594 -1.17535 0
M  V30 2745 O 263.956 -0.755177 -1.79241 0
M  V30 2746 C 264.239 -3.59062 0.273243 0
M  V30 2747 C 264.092 -4.16203 1.70573 0
M  V30 2748 C 265.411 -4.38546 -0.369457 0
M  V30 2749 H 262.53 -0.732468 0.0816045 0
M  V30 2750 H 265.172 -1.68445 0.878986 0
M  V30 2751 H 263.322 -3.87435 -0.287411 0
M  V30 2752 H 264.994 -3.98722 2.31989 0
M  V30 2753 H 263.237 -3.71414 2.2413 0
M  V30 2754 H 263.908 -5.25358 1.69419 0
M  V30 2755 H 266.384 -4.1596 0.107977 0
M  V30 2756 H 265.26 -5.48069 -0.302002 0
M  V30 2757 H 265.521 -4.17662 -1.44951 0
M  V30 2758 N 264.58 -0.43555 -1.51462 0
M  V30 2759 C 265.991 0.0279871 -1.86679 0
M  V30 2760 C 266.342 1.42104 -1.35281 0
M  V30 2761 O 265.467 2.04667 -0.702878 0
M  V30 2762 C 266.062 0.0575626 -3.38751 0
M  V30 2763 C 264.621 0.465507 -3.7351 0
M  V30 2764 C 263.768 -0.342996 -2.75171 0
M  V30 2765 H 266.719 -0.651473 -1.44712 0
M  V30 2766 H 266.74 0.867421 -3.70481 0
M  V30 2767 H 266.252 -0.956448 -3.7613 0
M  V30 2768 H 264.353 1.48519 -3.41721 0
M  V30 2769 H 264.466 0.191546 -4.78717 0
M  V30 2770 H 262.83 0.198442 -2.53926 0
M  V30 2771 H 263.613 -1.35585 -3.15391 0
M  V30 2772 N 266.058 1.56714 -0.166846 0
M  V30 2773 C 267.304 1.97039 0.479962 0
M  V30 2774 C 267.637 1.05264 1.63197 0
M  V30 2775 O 266.912 0.0988833 1.94248 0
M  V30 2776 C 267.195 3.46867 0.967212 0
M  V30 2777 C 267.048 4.49421 -0.18466 0
M  V30 2778 C 268.367 3.9968 1.84238 0
M  V30 2779 H 265.486 0.71641 0.172992 0
M  V30 2780 H 268.128 1.8832 -0.252079 0
M  V30 2781 H 266.278 3.54428 1.59101 0
M  V30 2782 H 267.95 4.53924 -0.821621 0
M  V30 2783 H 266.193 4.25573 -0.840837 0
M  V30 2784 H 266.864 5.51644 0.198317 0
M  V30 2785 H 269.34 3.94723 1.31655 0
M  V30 2786 H 268.216 5.04941 2.15234 0
M  V30 2787 H 268.477 3.43226 2.78654 0
M  V30 2788 N 267.536 -0.106894 1.57237 0
M  V30 2789 C 268.784 -0.810921 1.85117 0
M  V30 2790 C 269.105 -1.7984 0.753827 0
M  V30 2791 O 268.375 -1.94649 -0.221056 0
M  V30 2792 H 266.955 -0.302466 0.683025 0
M  V30 2793 H 269.617 -0.0913324 1.94686 0
M  V30 2794 H 268.713 -1.34875 2.81452 0
M  V30 2795 N 269.014 -1.53014 -0.377408 0
M  V30 2796 C 269.977 -1.77957 -1.44444 0
M  V30 2797 C 270.977 -0.649763 -1.47087 0
M  V30 2798 O 272.167 -0.917897 -1.48055 0
M  V30 2799 C 269.299 -1.89089 -2.83651 0
M  V30 2800 H 270.492 -2.73243 -1.23606 0
M  V30 2801 H 268.045 -1.43912 -0.609844 0
M  V30 2802 H 268.78 -0.958293 -3.09818 0
M  V30 2803 H 268.565 -2.71254 -2.83132 0
M  V30 2804 H 270.055 -2.1002 -3.60945 0
M  V30 2805 N 270.492 0.636531 -1.44174 0
M  V30 2806 C 271.903 1.21806 -1.41493 0
M  V30 2807 C 272.254 1.95785 -0.1275 0
M  V30 2808 O 271.379 2.02147 0.772376 0
M  V30 2809 C 271.974 2.21551 -2.56321 0
M  V30 2810 C 270.533 2.75143 -2.56853 0
M  V30 2811 C 269.68 1.50052 -2.33195 0
M  V30 2812 H 272.631 0.427531 -1.52833 0
M  V30 2813 H 272.652 3.0405 -2.28765 0
M  V30 2814 H 272.164 1.67679 -3.50008 0
M  V30 2815 H 270.265 3.33033 -1.67093 0
M  V30 2816 H 270.378 3.2155 -3.55165 0
M  V30 2817 H 268.742 1.77993 -1.82183 0
M  V30 2818 H 269.525 0.980903 -3.28988 0
M  V30 2819 N 271.97 1.30982 0.876444 0
M  V30 2820 C 273.195 1.23373 1.66715 0
M  V30 2821 C 273.62 -0.19885 1.87046 0
M  V30 2822 O 272.978 -1.1427 1.40756 0
M  V30 2823 C 273.026 1.97644 3.01611 0
M  V30 2824 O 272.13 1.30935 3.91062 0
M  V30 2825 H 271.471 0.426279 0.509099 0
M  V30 2826 H 274.001 1.72944 1.09323 0
M  V30 2827 H 274.011 2.06992 3.51594 0
M  V30 2828 H 272.686 3.01829 2.86133 0
M  V30 2829 H 271.263 1.29996 3.49507 0
M  V30 2830 N 273.449 -1.08991 1.13837 0
M  V30 2831 C 274.696 -1.81258 0.902882 0
M  V30 2832 C 275.024 -1.85936 -0.570803 0
M  V30 2833 O 274.279 -1.3267 -1.43865 0
M  V30 2834 C 274.578 -3.27042 1.44147 0
M  V30 2835 C 274.244 -3.4249 2.93276 0
M  V30 2836 C 272.906 -3.46414 3.33992 0
M  V30 2837 C 275.258 -3.4666 3.892 0
M  V30 2838 C 272.586 -3.52091 4.69307 0
M  V30 2839 C 274.938 -3.53872 5.24364 0
M  V30 2840 C 273.602 -3.56066 5.646 0
M  V30 2841 H 272.872 -0.663268 0.330388 0
M  V30 2842 H 275.519 -1.28368 1.42105 0
M  V30 2843 H 273.824 -3.82599 0.844097 0
M  V30 2844 H 275.521 -3.81499 1.23528 0
M  V30 2845 H 272.111 -3.40124 2.60794 0
M  V30 2846 H 276.295 -3.42865 3.58828 0
M  V30 2847 H 271.551 -3.52079 4.9985 0
M  V30 2848 H 275.725 -3.56043 5.98503 0
M  V30 2849 H 273.352 -3.60218 6.69438 0
M  V30 2850 N 274.927 -0.932562 -1.27047 0
M  V30 2851 C 275.874 -0.434072 -2.26681 0
M  V30 2852 C 276.844 0.501639 -1.58344 0
M  V30 2853 O 278.029 0.419734 -1.86126 0
M  V30 2854 C 275.169 0.30261 -3.43771 0
M  V30 2855 C 274.282 -0.667774 -4.26808 0
M  V30 2856 C 273.417 0.0892393 -5.31125 0
M  V30 2857 C 272.456 -0.873532 -6.05835 0
M  V30 2858 N 271.593 -0.148832 -7.01942 0
M  V30 2859 H 276.433 -1.28868 -2.68695 0
M  V30 2860 H 273.97 -0.646713 -1.32121 0
M  V30 2861 H 275.928 0.746092 -4.10474 0
M  V30 2862 H 274.558 1.12142 -3.02695 0
M  V30 2863 H 273.61 -1.22978 -3.59973 0
M  V30 2864 H 274.922 -1.40337 -4.78651 0
M  V30 2865 H 274.076 0.592409 -6.03801 0
M  V30 2866 H 272.815 0.85777 -4.80097 0
M  V30 2867 H 271.82 -1.38791 -5.31994 0
M  V30 2868 H 273.045 -1.64193 -6.58952 0
M  V30 2869 H 270.991 0.601365 -6.53238 0
M  V30 2870 H 270.908 -0.82391 -7.51497 0
M  V30 2871 H 272.176 0.333527 -7.78786 0
M  V30 2872 N 276.405 1.4127 -0.698611 0
M  V30 2873 C 277.315 2.34573 -0.0357891 0
M  V30 2874 C 278.331 1.56393 0.762701 0
M  V30 2875 O 279.507 1.8886 0.699564 0
M  V30 2876 C 276.572 3.35159 0.887089 0
M  V30 2877 C 275.633 4.29225 0.0804634 0
M  V30 2878 C 274.866 5.25006 0.959387 0
M  V30 2879 O 275.089 5.26314 2.19886 0
M  V30 2880 O 274.023 6.00519 0.407439 0
M  V30 2881 H 277.849 2.92838 -0.804957 0
M  V30 2882 H 275.434 1.42175 -0.458966 0
M  V30 2883 H 277.316 3.9689 1.41621 0
M  V30 2884 H 275.991 2.79333 1.6357 0
M  V30 2885 H 274.898 3.70833 -0.493328 0
M  V30 2886 H 276.231 4.88157 -0.629547 0
M  V30 2887 N 277.883 0.443576 1.51229 0
M  V30 2888 C 278.846 -0.353132 2.26463 0
M  V30 2889 C 279.846 -0.944338 1.3015 0
M  V30 2890 O 281.036 -0.817813 1.5381 0
M  V30 2891 C 278.168 -1.50023 3.06114 0
M  V30 2892 H 279.361 0.3063 2.98332 0
M  V30 2893 H 276.914 0.196902 1.55055 0
M  V30 2894 H 277.649 -2.19553 2.38677 0
M  V30 2895 H 277.434 -1.08241 3.76864 0
M  V30 2896 H 278.924 -2.06296 3.63087 0
M  V30 2897 N 279.361 -1.56624 0.175154 0
M  V30 2898 C 280.291 -2.21155 -0.749195 0
M  V30 2899 C 281.272 -1.16836 -1.23626 0
M  V30 2900 O 282.457 -1.45277 -1.28873 0
M  V30 2901 C 279.587 -2.8553 -1.97711 0
M  V30 2902 C 278.541 -3.95921 -1.62575 0
M  V30 2903 C 277.867 -4.47365 -2.92864 0
M  V30 2904 C 279.167 -5.15323 -0.850838 0
M  V30 2905 H 280.861 -2.98653 -0.211295 0
M  V30 2906 H 278.407 -1.43651 -0.100188 0
M  V30 2907 H 280.36 -3.2935 -2.62881 0
M  V30 2908 H 279.084 -2.05406 -2.53921 0
M  V30 2909 H 277.743 -3.52762 -0.997719 0
M  V30 2910 H 277.391 -3.64027 -3.47122 0
M  V30 2911 H 277.091 -5.21839 -2.70106 0
M  V30 2912 H 278.615 -4.93873 -3.59056 0
M  V30 2913 H 280.029 -5.55812 -1.40521 0
M  V30 2914 H 278.426 -5.95739 -0.722154 0
M  V30 2915 H 279.496 -4.84661 0.152082 0
M  V30 2916 N 280.839 0.0985539 -1.57292 0
M  V30 2917 C 282.255 0.45267 -1.53046 0
M  V30 2918 C 282.455 1.80713 -0.891342 0
M  V30 2919 O 281.511 2.4785 -0.482375 0
M  V30 2920 C 282.824 0.418341 -2.97776 0
M  V30 2921 C 284.372 0.500443 -3.08973 0
M  V30 2922 C 284.847 0.496297 -4.55303 0
M  V30 2923 N 286.338 0.557151 -4.59837 0
M  V30 2924 C 287.073 0.575726 -5.70502 0
M  V30 2925 N 286.569 0.550714 -6.90608 0
M  V30 2926 N 288.362 0.620277 -5.58667 0
M  V30 2927 H 280.513 -0.788673 -1.97215 0
M  V30 2928 H 282.776 -0.293188 -0.901524 0
M  V30 2929 H 282.482 -0.509659 -3.47988 0
M  V30 2930 H 282.356 1.2386 -3.56284 0
M  V30 2931 H 284.743 1.41886 -2.58751 0
M  V30 2932 H 284.824 -0.347894 -2.53423 0
M  V30 2933 H 284.468 -0.418162 -5.06176 0
M  V30 2934 H 284.398 1.3618 -5.08687 0
M  V30 2935 H 286.889 0.581816 -3.73394 0
M  V30 2936 H 287.202 0.568075 -7.70709 0
M  V30 2937 H 285.547 0.517816 -6.93068 0
M  V30 2938 H 288.738 0.637322 -4.63741 0
M  V30 2939 H 288.911 0.631283 -6.44918 0
M  V30 2940 N 282.317 1.53212 0.369288 0
M  V30 2941 C 283.547 1.72868 1.13139 0
M  V30 2942 C 283.955 0.455754 1.83629 0
M  V30 2943 O 283.298 -0.580861 1.74275 0
M  V30 2944 C 283.36 2.83667 2.20847 0
M  V30 2945 C 283.024 4.24142 1.70155 0
M  V30 2946 C 284.021 5.06619 1.16763 0
M  V30 2947 C 281.706 4.70539 1.7578 0
M  V30 2948 C 283.7 6.33581 0.696678 0
M  V30 2949 C 281.387 5.97481 1.28297 0
M  V30 2950 C 282.385 6.78833 0.753307 0
M  V30 2951 O 282.073 8.03393 0.285475 0
M  V30 2952 H 281.805 0.581707 0.344373 0
M  V30 2953 H 284.359 2.00736 0.435243 0
M  V30 2954 H 282.589 2.51265 2.93944 0
M  V30 2955 H 284.278 2.91536 2.82421 0
M  V30 2956 H 285.044 4.71948 1.11758 0
M  V30 2957 H 280.923 4.07293 2.15949 0
M  V30 2958 H 284.467 6.97027 0.282581 0
M  V30 2959 H 280.364 6.31651 1.32994 0
M  V30 2960 H 281.132 8.17497 0.405145 0
M  V30 2961 N 283.795 -0.628877 1.44509 0
M  V30 2962 C 285.043 -1.38565 1.4712 0
M  V30 2963 C 285.364 -1.94712 0.105899 0
M  V30 2964 O 284.634 -1.75912 -0.862079 0
M  V30 2965 H 283.214 -0.514333 0.541729 0
M  V30 2966 H 285.876 -0.740018 1.80305 0
M  V30 2967 H 284.972 -2.21583 2.19789 0
M  V30 2968 N 285.273 -1.31445 -0.869486 0
M  V30 2969 C 286.236 -1.19094 -1.9583 0
M  V30 2970 C 287.236 -0.117906 -1.60367 0
M  V30 2971 O 288.426 -0.367208 -1.70286 0
M  V30 2972 C 285.558 -0.828165 -3.30688 0
M  V30 2973 H 286.751 -2.15842 -2.08212 0
M  V30 2974 H 284.304 -1.15063 -1.05784 0
M  V30 2975 H 285.039 0.138142 -3.24006 0
M  V30 2976 H 284.824 -1.6038 -3.578 0
M  V30 2977 H 286.314 -0.765658 -4.10521 0
M  V30 2978 N 286.751 1.08385 -1.14413 0
M  V30 2979 C 287.661 2.18856 -0.844951 0
M  V30 2980 C 288.677 1.73121 0.174668 0
M  V30 2981 O 289.853 2.014 0.00312857 0
M  V30 2982 C 286.918 3.45155 -0.32696 0
M  V30 2983 C 285.979 4.05513 -1.40916 0
M  V30 2984 C 285.212 5.25784 -0.915793 0
M  V30 2985 O 285.435 5.69884 0.242651 0
M  V30 2986 O 284.369 5.77545 -1.69487 0
M  V30 2987 H 288.195 2.46919 -1.76818 0
M  V30 2988 H 285.78 1.17524 -0.922411 0
M  V30 2989 H 287.662 4.21377 -0.0440211 0
M  V30 2990 H 286.337 3.18668 0.568539 0
M  V30 2991 H 285.244 3.30879 -1.74556 0
M  V30 2992 H 286.577 4.3625 -2.27919 0
M  V30 2993 N 288.23 0.939286 1.26551 0
M  V30 2994 C 289.476 0.586715 1.94128 0
M  V30 2995 C 289.809 -0.8717 1.73537 0
M  V30 2996 O 289.084 -1.62339 1.07127 0
M  V30 2997 C 289.367 0.927497 3.4795 0
M  V30 2998 C 289.22 2.44052 3.77834 0
M  V30 2999 C 290.539 0.441569 4.37879 0
M  V30 3000 H 287.658 0.21463 0.705055 0
M  V30 3001 H 290.3 1.17316 1.49455 0
M  V30 3002 H 288.45 0.428431 3.8613 0
M  V30 3003 H 290.122 3.01216 3.4938 0
M  V30 3004 H 288.365 2.8848 3.23978 0
M  V30 3005 H 289.036 2.62947 4.85348 0
M  V30 3006 H 291.512 0.869448 4.06915 0
M  V30 3007 H 290.388 0.708856 5.44304 0
M  V30 3008 H 290.649 -0.658467 4.37169 0
M  V30 3009 N 289.708 -1.40897 0.706093 0
M  V30 3010 C 290.938 -2.05075 0.250523 0
M  V30 3011 C 291.346 -1.53275 -1.10921 0
M  V30 3012 O 290.689 -0.680281 -1.7064 0
M  V30 3013 C 290.751 -3.59219 0.142178 0
M  V30 3014 C 290.415 -4.33864 1.43566 0
M  V30 3015 C 291.412 -4.62448 2.37566 0
M  V30 3016 C 289.097 -4.72946 1.69195 0
M  V30 3017 C 291.091 -5.29088 3.5545 0
M  V30 3018 C 288.778 -5.3932 2.87362 0
M  V30 3019 C 289.776 -5.6732 3.80312 0
M  V30 3020 O 289.464 -6.32325 4.96408 0
M  V30 3021 H 289.196 -0.666645 0.112074 0
M  V30 3022 H 291.75 -1.81467 0.962239 0
M  V30 3023 H 289.98 -3.81609 -0.6254 0
M  V30 3024 H 291.669 -4.0495 -0.277584 0
M  V30 3025 H 292.435 -4.32727 2.19027 0
M  V30 3026 H 288.314 -4.50527 0.977042 0
M  V30 3027 H 291.858 -5.50859 4.28018 0
M  V30 3028 H 287.755 -5.68461 3.05814 0
M  V30 3029 H 288.523 -6.50821 4.9636 0
M  V30 3030 N 291.186 -0.45159 -1.50991 0
M  V30 3031 C 292.136 0.370861 -2.24964 0
M  V30 3032 C 293.12 0.978074 -1.2776 0
M  V30 3033 O 294.312 0.893854 -1.52772 0
M  V30 3034 C 291.441 1.46344 -3.10545 0
M  V30 3035 C 290.527 0.864924 -4.15187 0
M  V30 3036 N 290.918 -0.00311354 -5.058 0
M  V30 3037 C 289.216 1.13099 -4.31422 0
M  V30 3038 C 289.917 -0.340772 -5.80701 0
M  V30 3039 N 288.893 0.279203 -5.42883 0
M  V30 3040 H 292.695 -0.298134 -2.92384 0
M  V30 3041 H 290.209 -0.264528 -1.60231 0
M  V30 3042 H 292.206 2.06565 -3.62128 0
M  V30 3043 H 290.866 2.13463 -2.4467 0
M  V30 3044 H 291.877 -0.37058 -5.16572 0
M  V30 3045 H 288.554 1.79861 -3.76771 0
M  V30 3046 H 289.944 -1.048 -6.63677 0
M  V30 3047 N 292.664 1.56529 -0.183458 0
M  V30 3048 C 293.892 2.01623 0.464285 0
M  V30 3049 C 294.307 1.06366 1.55986 0
M  V30 3050 O 293.664 0.0665398 1.82379 0
M  V30 3051 C 293.715 3.46475 1.03139 0
M  V30 3052 O 293.436 4.38095 -0.0204675 0
M  V30 3053 C 294.937 4.0703 1.75617 0
M  V30 3054 H 292.157 0.660596 0.117704 0
M  V30 3055 H 294.701 2.02451 -0.288751 0
M  V30 3056 H 292.856 3.46383 1.73486 0
M  V30 3057 H 293.27 5.22973 0.399952 0
M  V30 3058 H 294.744 5.10271 2.10542 0
M  V30 3059 H 295.221 3.49819 2.65563 0
M  V30 3060 H 295.827 4.1086 1.09882 0
M  V30 3061 N 294.142 -0.090211 1.57342 0
M  V30 3062 C 295.072 -1.10976 2.05443 0
M  V30 3063 C 296.053 -1.41482 0.944284 0
M  V30 3064 O 297.238 -1.51428 1.21586 0
M  V30 3065 C 294.368 -2.42831 2.48295 0
M  V30 3066 C 293.322 -2.26721 3.63018 0
M  V30 3067 C 292.648 -3.63796 3.91863 0
M  V30 3068 C 293.948 -1.7037 4.93732 0
M  V30 3069 H 295.642 -0.709564 2.9087 0
M  V30 3070 H 293.188 -0.339874 1.39932 0
M  V30 3071 H 295.141 -3.14431 2.80555 0
M  V30 3072 H 293.865 -2.84795 1.59873 0
M  V30 3073 H 292.524 -1.57565 3.31012 0
M  V30 3074 H 292.172 -4.03297 3.00601 0
M  V30 3075 H 291.872 -3.53861 4.69101 0
M  V30 3076 H 293.396 -4.36855 4.26603 0
M  V30 3077 H 294.81 -2.31816 5.24342 0
M  V30 3078 H 293.207 -1.71181 5.75167 0
M  V30 3079 H 294.277 -0.663542 4.80339 0
M  V30 3080 N 295.62 -1.53406 -0.361157 0
M  V30 3081 C 296.567 -1.80156 -1.44265 0
M  V30 3082 C 297.537 -0.646183 -1.53015 0
M  V30 3083 O 298.722 -0.888818 -1.68833 0
M  V30 3084 C 295.862 -2.00116 -2.81154 0
M  V30 3085 C 294.975 -3.27833 -2.81335 0
M  V30 3086 C 294.11 -3.37957 -4.09828 0
M  V30 3087 C 293.149 -4.59689 -4.04168 0
M  V30 3088 N 292.286 -4.66942 -5.24318 0
M  V30 3089 H 297.126 -2.72438 -1.20754 0
M  V30 3090 H 294.663 -1.34954 -0.585296 0
M  V30 3091 H 296.621 -2.09677 -3.60682 0
M  V30 3092 H 295.251 -1.11167 -3.03054 0
M  V30 3093 H 294.303 -3.27204 -1.94014 0
M  V30 3094 H 295.615 -4.17442 -2.73027 0
M  V30 3095 H 294.769 -3.46853 -4.97773 0
M  V30 3096 H 293.508 -2.46372 -4.20894 0
M  V30 3097 H 292.513 -4.50889 -3.14609 0
M  V30 3098 H 293.738 -5.5262 -3.947 0
M  V30 3099 H 291.684 -3.7826 -5.35962 0
M  V30 3100 H 291.601 -5.50462 -5.18197 0
M  V30 3101 H 292.869 -4.80127 -6.14084 0
M  V30 3102 N 297.098 0.621204 -1.44841 0
M  V30 3103 C 298.323 1.41244 -1.51871 0
M  V30 3104 C 298.748 1.87519 -0.147764 0
M  V30 3105 O 298.106 1.59334 0.865 0
M  V30 3106 C 298.154 2.60221 -2.49634 0
M  V30 3107 O 297.258 3.60395 -2.00473 0
M  V30 3108 H 296.599 0.42223 -0.512463 0
M  V30 3109 H 299.129 0.757305 -1.90069 0
M  V30 3110 H 299.139 3.0764 -2.67996 0
M  V30 3111 H 297.814 2.25887 -3.4921 0
M  V30 3112 H 296.391 3.19717 -1.91925 0
M  V30 3113 N 298.576 1.31904 0.862503 0
M  V30 3114 C 299.486 1.22161 2.00285 0
M  V30 3115 C 300.502 0.136785 1.73462 0
M  V30 3116 O 301.678 0.355994 1.98229 0
M  V30 3117 C 298.743 0.937093 3.33796 0
M  V30 3118 C 297.804 2.10957 3.73893 0
M  V30 3119 C 297.037 1.83853 5.01033 0
M  V30 3120 O 297.26 0.777274 5.65079 0
M  V30 3121 O 296.194 2.69741 5.38074 0
M  V30 3122 H 300.02 2.18008 2.11439 0
M  V30 3123 H 297.605 1.11716 0.991957 0
M  V30 3124 H 299.487 0.794583 4.13841 0
M  V30 3125 H 298.162 0.00871894 3.23699 0
M  V30 3126 H 297.069 2.30752 2.94456 0
M  V30 3127 H 298.402 3.02046 3.88625 0
M  V30 3128 N 300.054 -1.07777 1.14986 0
M  V30 3129 C 301.303 -1.79669 0.916617 0
M  V30 3130 C 301.616 -1.87474 -0.557917 0
M  V30 3131 O 302.822 -2.55845 -0.908617 0
M  V30 3132 C 301.278 -3.22848 1.59051 0
M  V30 3133 C 300.886 -3.23257 3.10176 0
M  V30 3134 C 302.63 -3.99379 1.43864 0
M  V30 3135 C 300.537 -4.61063 3.70372 0
M  V30 3136 H 299.467 -0.673349 0.33929 0
M  V30 3137 H 302.118 -1.21003 1.37951 0
M  V30 3138 H 300.5 -3.8168 1.0553 0
M  V30 3139 H 301.674 -2.74095 3.70417 0
M  V30 3140 H 299.989 -2.60222 3.25074 0
M  V30 3141 H 302.586 -5.0122 1.86232 0
M  V30 3142 H 302.929 -4.14511 0.385564 0
M  V30 3143 H 303.462 -3.47032 1.94457 0
M  V30 3144 H 300.201 -4.51135 4.7556 0
M  V30 3145 H 299.721 -5.1048 3.14913 0
M  V30 3146 H 301.4 -5.30034 3.71043 0
M  V30 3147 N 301.532 -0.945985 -1.26051 0
M  V30 3148 C 302.479 -0.45809 -2.26208 0
M  V30 3149 C 303.449 0.484816 -1.58867 0
M  V30 3150 O 304.634 0.399969 -1.86561 0
M  V30 3151 C 301.774 0.266131 -3.44072 0
M  V30 3152 C 300.887 -0.713005 -4.26075 0
M  V30 3153 C 300.022 0.0329013 -5.3119 0
M  V30 3154 C 299.061 -0.93774 -6.04874 0
M  V30 3155 N 298.198 -0.223274 -7.01745 0
M  V30 3156 H 303.038 -1.3171 -2.67313 0
M  V30 3157 H 300.575 -0.66069 -1.31428 0
M  V30 3158 H 302.533 0.702514 -4.11243 0
M  V30 3159 H 301.163 1.08925 -3.03867 0
M  V30 3160 H 300.215 -1.26789 -3.58648 0
M  V30 3161 H 301.527 -1.45406 -4.77136 0
M  V30 3162 H 300.681 0.528335 -6.04395 0
M  V30 3163 H 299.42 0.806801 -4.8098 0
M  V30 3164 H 298.425 -1.44425 -5.30492 0
M  V30 3165 H 299.65 -1.71172 -6.57173 0
M  V30 3166 H 297.596 0.532046 -6.53839 0
M  V30 3167 H 297.513 -0.90357 -7.50581 0
M  V30 3168 H 298.781 0.250907 -7.79096 0
M  V30 3169 N 303.011 1.40521 -0.713556 0
M  V30 3170 C 303.958 2.30723 -0.059684 0
M  V30 3171 C 304.928 1.48079 0.752448 0
M  V30 3172 O 306.113 1.76823 0.71681 0
M  V30 3173 C 303.253 3.34274 0.857594 0
M  V30 3174 C 302.366 4.31986 0.0351536 0
M  V30 3175 C 301.501 5.22605 0.951724 0
M  V30 3176 C 300.54 6.11976 0.123253 0
M  V30 3177 N 299.677 6.9502 0.99459 0
M  V30 3178 H 304.517 2.86074 -0.834596 0
M  V30 3179 H 302.054 1.40879 -0.42326 0
M  V30 3180 H 304.012 3.92879 1.40364 0
M  V30 3181 H 302.642 2.8043 1.59871 0
M  V30 3182 H 301.694 3.7518 -0.628052 0
M  V30 3183 H 303.006 4.95101 -0.606347 0
M  V30 3184 H 302.16 5.86131 1.56638 0
M  V30 3185 H 300.899 4.59759 1.62705 0
M  V30 3186 H 299.904 5.47482 -0.50435 0
M  V30 3187 H 301.129 6.76881 -0.548539 0
M  V30 3188 H 299.075 6.34764 1.6556 0
M  V30 3189 H 298.992 7.54892 0.40908 0
M  V30 3190 H 300.26 7.62997 1.59549 0
M  V30 3191 N 304.489 0.459591 1.5075 0
M  V30 3192 C 305.436 -0.340524 2.28274 0
M  V30 3193 C 306.406 -0.997371 1.32822 0
M  V30 3194 O 307.591 -1.01202 1.61749 0
M  V30 3195 C 304.731 -1.42317 3.14388 0
M  V30 3196 C 303.844 -0.782251 4.24859 0
M  V30 3197 C 302.979 -1.84182 4.98247 0
M  V30 3198 C 302.018 -1.18053 6.00608 0
M  V30 3199 N 301.155 -2.18244 6.67319 0
M  V30 3200 H 305.995 0.326899 2.96202 0
M  V30 3201 H 303.532 0.173057 1.46078 0
M  V30 3202 H 305.49 -2.06241 3.62658 0
M  V30 3203 H 304.12 -2.05992 2.4853 0
M  V30 3204 H 303.172 -0.0307404 3.80388 0
M  V30 3205 H 304.484 -0.259663 4.98124 0
M  V30 3206 H 303.638 -2.55714 5.50177 0
M  V30 3207 H 302.377 -2.39819 4.24662 0
M  V30 3208 H 301.382 -0.450776 5.47949 0
M  V30 3209 H 302.607 -0.631202 6.7616 0
M  V30 3210 H 300.553 -2.72919 5.96533 0
M  V30 3211 H 300.47 -1.70938 7.36421 0
M  V30 3212 H 301.738 -2.89191 7.23871 0
M  V30 3213 N 305.967 -1.56429 0.191757 0
M  V30 3214 C 307.197 -2.01574 -0.452928 0
M  V30 3215 C 307.605 -1.07107 -1.55964 0
M  V30 3216 O 306.948 -0.067534 -1.83576 0
M  V30 3217 C 307.01 -3.43121 -1.07278 0
M  V30 3218 C 306.674 -4.56879 -0.105214 0
M  V30 3219 C 307.671 -5.15379 0.684149 0
M  V30 3220 C 305.356 -5.023 0.00489824 0
M  V30 3221 C 307.35 -6.17746 1.57062 0
M  V30 3222 C 305.037 -6.04511 0.894935 0
M  V30 3223 C 306.035 -6.62108 1.67637 0
M  V30 3224 O 305.723 -7.62335 2.55149 0
M  V30 3225 H 305.455 -0.665554 -0.118379 0
M  V30 3226 H 308.009 -2.03245 0.296737 0
M  V30 3227 H 306.239 -3.38425 -1.87097 0
M  V30 3228 H 307.928 -3.72093 -1.62177 0
M  V30 3229 H 308.694 -4.81157 0.609365 0
M  V30 3230 H 304.573 -4.57168 -0.593156 0
M  V30 3231 H 308.117 -6.6263 2.181 0
M  V30 3232 H 304.014 -6.38157 0.970847 0
M  V30 3233 H 304.782 -7.79741 2.48892 0
M  V30 3234 N 307.445 0.0818655 -1.57387 0
M  V30 3235 C 308.693 0.781368 -1.86384 0
M  V30 3236 C 309.014 1.78618 -0.782342 0
M  V30 3237 O 308.284 1.94976 0.190061 0
M  V30 3238 H 306.864 0.291562 -0.687751 0
M  V30 3239 H 309.526 0.060348 -1.94807 0
M  V30 3240 H 308.622 1.3038 -2.83562 0
M  V30 3241 N 308.923 1.53595 0.353017 0
M  V30 3242 C 310.172 1.69603 1.09168 0
M  V30 3243 C 310.485 0.460925 1.90092 0
M  V30 3244 O 311.691 0.501774 2.66823 0
M  V30 3245 C 310.147 2.99872 1.9901 0
M  V30 3246 C 309.755 4.30687 1.23339 0
M  V30 3247 C 311.499 3.25246 2.72792 0
M  V30 3248 C 309.406 5.52036 2.12156 0
M  V30 3249 H 308.336 0.631966 0.411261 0
M  V30 3250 H 310.987 1.80096 0.351802 0
M  V30 3251 H 309.369 2.83212 2.7678 0
M  V30 3252 H 310.543 4.58019 0.505456 0
M  V30 3253 H 308.858 4.11853 0.613663 0
M  V30 3254 H 311.455 4.13095 3.39495 0
M  V30 3255 H 311.798 2.41846 3.38846 0
M  V30 3256 H 312.331 3.42638 2.021 0
M  V30 3257 H 309.07 6.37951 1.50659 0
M  V30 3258 H 308.59 5.28966 2.82764 0
M  V30 3259 H 310.269 5.87313 2.71427 0
M  V30 3260 N 310.401 -0.613514 1.45168 0
M  V30 3261 C 311.678 -1.37263 1.39349 0
M  V30 3262 C 312.058 -2.11012 0.0610848 0
M  V30 3263 O 311.406 -2.07502 -0.956825 0
M  V30 3264 C 311.616 -2.3244 2.60332 0
M  V30 3265 C 312.964 -2.9523 3.05163 0
M  V30 3266 O 313.988 -2.42762 2.60663 0
M  V30 3267 O 312.847 -3.90454 3.82372 0
M  V30 3268 H 309.941 -0.615188 0.552696 0
M  V30 3269 H 312.487 -0.637097 1.57287 0
M  V30 3270 H 311.259 -1.77164 3.48896 0
M  V30 3271 H 310.882 -3.13383 2.44698 0
M  V30 3272 N 311.879 -1.3236 -0.855495 0
M  V30 3273 C 312.842 -1.21164 -1.94556 0
M  V30 3274 C 313.842 -0.134908 -1.60233 0
M  V30 3275 O 315.032 -0.385249 -1.69887 0
M  V30 3276 C 312.164 -0.863192 -3.29791 0
M  V30 3277 H 313.357 -2.18038 -2.05911 0
M  V30 3278 H 310.91 -1.16179 -1.04557 0
M  V30 3279 H 311.645 0.103769 -3.24134 0
M  V30 3280 H 311.43 -1.64166 -3.56078 0
M  V30 3281 H 312.92 -0.809156 -4.09686 0
M  V30 3282 N 313.357 1.07166 -1.15556 0
M  V30 3283 C 314.585 1.83514 -0.955519 0
M  V30 3284 C 315 1.82163 0.49621 0
M  V30 3285 O 314.357 1.23441 1.34419 0
M  V30 3286 C 314.408 3.30515 -1.46432 0
M  V30 3287 O 314.129 3.31937 -2.85918 0
M  V30 3288 C 315.63 4.23625 -1.30603 0
M  V30 3289 H 312.85 0.578926 -0.339244 0
M  V30 3290 H 315.394 1.35265 -1.53374 0
M  V30 3291 H 313.549 3.76106 -0.928584 0
M  V30 3292 H 313.963 4.23794 -3.09029 0
M  V30 3293 H 315.437 5.24831 -1.71047 0
M  V30 3294 H 315.914 4.38485 -0.250441 0
M  V30 3295 H 316.52 3.83871 -1.83094 0
M  V30 3296 N 314.835 0.952656 1.25548 0
M  V30 3297 C 315.783 0.462354 2.27958 0
M  V30 3298 C 316.777 -0.46634 1.62855 0
M  V30 3299 O 317.983 -0.343287 1.76696 0
M  V30 3300 H 314.358 0.13101 0.7405 0
M  V30 3301 H 316.329 1.33839 2.66702 0
M  V30 3302 C 315.078 -0.24628 3.46827 0
M  V30 3303 H 314.401 0.459192 3.97154 0
M  V30 3304 H 315.841 -0.553393 4.20373 0
M  V30 3305 C 314.3 -1.4681 3.0323 0
M  V30 3306 O 314.83 -2.56591 3.09069 0
M  V30 3307 N 313.036 -1.32874 2.58443 0
M  V30 3308 H 312.583 -0.435536 2.53891 0
M  V30 3309 H 312.541 -2.14742 2.29637 0
M  V30 3310 N 316.313 -1.40141 0.720998 0
M  V30 3311 C 317.559 -2.01084 0.263231 0
M  V30 3312 C 317.892 -1.57052 -1.14229 0
M  V30 3313 O 317.167 -0.793027 -1.77599 0
M  V30 3314 C 317.45 -3.58401 0.349344 0
M  V30 3315 C 317.303 -4.12491 1.79363 0
M  V30 3316 C 318.622 -4.39231 -0.276351 0
M  V30 3317 H 315.741 -0.730572 0.0971228 0
M  V30 3318 H 318.383 -1.66543 0.914518 0
M  V30 3319 H 316.533 -3.87958 -0.205165 0
M  V30 3320 H 318.205 -3.93711 2.40394 0
M  V30 3321 H 316.448 -3.66576 2.31958 0
M  V30 3322 H 317.119 -5.21646 1.80524 0
M  V30 3323 H 319.595 -4.15637 0.196184 0
M  V30 3324 H 318.471 -5.48586 -0.185681 0
M  V30 3325 H 318.732 -4.20643 -1.36059 0
M  V30 3326 N 317.792 -0.46758 -1.50504 0
M  V30 3327 C 319.04 0.0884469 -2.01906 0
M  V30 3328 C 319.361 1.40532 -1.35188 0
M  V30 3329 O 318.631 1.89515 -0.496079 0
M  V30 3330 H 317.211 0.0356765 -0.746148 0
M  V30 3331 H 319.873 -0.6172 -1.84869 0
M  V30 3332 H 318.969 0.2425 -3.11156 0
M  V30 3333 N 319.27 1.56325 -0.20005 0
M  V30 3334 C 320.547 1.89484 0.48529 0
M  V30 3335 C 320.927 1.1143 1.79294 0
M  V30 3336 O 320.275 0.216919 2.27468 0
M  V30 3337 C 320.485 3.41923 0.699243 0
M  V30 3338 C 321.833 4.12256 1.01638 0
M  V30 3339 O 322.857 3.47402 0.786792 0
M  V30 3340 O 321.716 5.26887 1.45095 0
M  V30 3341 H 318.81 0.787144 0.253639 0
M  V30 3342 H 321.356 1.67985 -0.240633 0
M  V30 3343 H 320.128 3.90658 -0.224008 0
M  V30 3344 H 319.751 3.69131 1.47744 0
M  V30 3345 N 320.748 -0.0735177 1.57428 0
M  V30 3346 C 321.658 -1.10547 2.06922 0
M  V30 3347 C 322.674 -1.42506 0.998402 0
M  V30 3348 O 323.85 -1.52717 1.31299 0
M  V30 3349 C 320.915 -2.40019 2.50184 0
M  V30 3350 C 319.976 -2.15046 3.71556 0
M  V30 3351 C 319.209 -3.38345 4.12745 0
M  V30 3352 O 319.432 -4.47399 3.53822 0
M  V30 3353 O 318.366 -3.2666 5.05546 0
M  V30 3354 H 322.192 -0.715013 2.95163 0
M  V30 3355 H 319.777 -0.287531 1.46607 0
M  V30 3356 H 321.659 -3.16218 2.78539 0
M  V30 3357 H 320.334 -2.78447 1.65072 0
M  V30 3358 H 319.241 -1.36558 3.48285 0
M  V30 3359 H 320.574 -1.81499 4.57514 0
M  V30 3360 N 322.226 -1.5378 -0.344866 0
M  V30 3361 C 323.474 -1.70625 -1.08311 0
M  V30 3362 C 323.795 -0.471447 -1.89215 0
M  V30 3363 O 323.065 0.514616 -1.8902 0
M  V30 3364 H 321.645 -0.629058 -0.402859 0
M  V30 3365 H 324.307 -1.9103 -0.386459 0
M  V30 3366 H 323.403 -2.57656 -1.76124 0
M  V30 3367 N 323.704 0.605807 -1.45491 0
M  V30 3368 C 324.952 1.36207 -1.49305 0
M  V30 3369 C 325.273 1.94519 -0.136863 0
M  V30 3370 O 324.543 1.77261 0.833983 0
M  V30 3371 H 323.123 0.50565 -0.549843 0
M  V30 3372 H 325.785 0.711239 -1.81459 0
M  V30 3373 H 324.881 2.18058 -2.23287 0
M  V30 3374 N 325.182 1.32811 0.848464 0
M  V30 3375 C 326.429 1.23724 1.60308 0
M  V30 3376 C 326.757 -0.1994 1.93475 0
M  V30 3377 O 326.012 -1.15406 1.5805 0
M  V30 3378 C 326.311 2.04831 2.92881 0
M  V30 3379 C 325.977 3.54125 2.79117 0
M  V30 3380 C 324.639 3.94829 2.7507 0
M  V30 3381 C 326.991 4.49036 2.64606 0
M  V30 3382 C 324.319 5.28675 2.544 0
M  V30 3383 C 326.671 5.83033 2.4547 0
M  V30 3384 C 325.335 6.22931 2.39819 0
M  V30 3385 H 324.605 0.452737 0.586609 0
M  V30 3386 H 327.252 1.64301 0.983743 0
M  V30 3387 H 325.557 1.57001 3.58968 0
M  V30 3388 H 327.254 1.95164 3.50303 0
M  V30 3389 H 323.844 3.21801 2.83094 0
M  V30 3390 H 328.028 4.18505 2.66772 0
M  V30 3391 H 323.284 5.58637 2.48465 0
M  V30 3392 H 327.458 6.56186 2.33222 0
M  V30 3393 H 325.085 7.26584 2.23562 0
M  V30 3394 N 326.66 -1.06551 1.16123 0
M  V30 3395 C 327.623 -2.12132 0.867906 0
M  V30 3396 C 328.623 -1.60224 -0.135944 0
M  V30 3397 O 329.813 -1.73943 0.0946422 0
M  V30 3398 C 326.945 -3.396 0.297419 0
M  V30 3399 H 328.138 -2.39586 1.80385 0
M  V30 3400 H 325.691 -1.22574 0.969812 0
M  V30 3401 H 326.426 -3.17794 -0.64633 0
M  V30 3402 H 326.211 -3.78581 1.02073 0
M  V30 3403 H 327.701 -4.17455 0.110052 0
M  V30 3404 N 328.138 -0.959301 -1.25041 0
M  V30 3405 C 329.549 -0.65667 -1.74771 0
M  V30 3406 C 329.9 0.827852 -1.77879 0
M  V30 3407 O 329.025 1.64783 -1.40269 0
M  V30 3408 C 329.62 -1.1853 -3.1739 0
M  V30 3409 C 328.179 -0.932734 -3.6466 0
M  V30 3410 C 327.326 -1.32558 -2.43564 0
M  V30 3411 H 330.277 -1.13558 -1.10862 0
M  V30 3412 H 330.298 -0.547582 -3.76539 0
M  V30 3413 H 329.81 -2.26576 -3.15095 0
M  V30 3414 H 327.911 0.13257 -3.72364 0
M  V30 3415 H 328.024 -1.57248 -4.52559 0
M  V30 3416 H 326.388 -0.743956 -2.43593 0
M  V30 3417 H 327.171 -2.41537 -2.43957 0
M  V30 3418 N 329.616 1.39756 -0.72842 0
M  V30 3419 C 330.564 2.32485 -0.0731849 0
M  V30 3420 C 331.558 1.52717 0.733063 0
M  V30 3421 O 332.764 1.68428 0.634988 0
M  V30 3422 H 329.139 0.751984 -0.00486469 0
M  V30 3423 H 331.11 2.85382 -0.871761 0
M  V30 3424 C 329.859 3.37773 0.824908 0
M  V30 3425 H 329.182 3.99227 0.213915 0
M  V30 3426 H 330.622 4.05121 1.25111 0
M  V30 3427 C 329.081 2.74287 1.95622 0
M  V30 3428 O 329.611 2.61618 3.04826 0
M  V30 3429 N 327.817 2.32475 1.74367 0
M  V30 3430 H 327.364 2.4298 0.855494 0
M  V30 3431 H 327.322 1.90337 2.50238 0
M  V30 3432 N 331.094 0.475555 1.50254 0
M  V30 3433 C 332.343 -0.0795996 2.01543 0
M  V30 3434 C 332.656 -1.4038 1.36209 0
M  V30 3435 O 333.862 -2.04415 1.7868 0
M  V30 3436 C 332.318 -0.192363 3.59386 0
M  V30 3437 C 331.926 1.12367 4.33679 0
M  V30 3438 C 333.67 -0.699238 4.18701 0
M  V30 3439 C 331.577 0.974453 5.83317 0
M  V30 3440 H 330.507 -0.0335228 0.753254 0
M  V30 3441 H 333.158 0.611128 1.73025 0
M  V30 3442 H 331.54 -0.946974 3.84511 0
M  V30 3443 H 332.714 1.88958 4.20276 0
M  V30 3444 H 331.029 1.562 3.85993 0
M  V30 3445 H 333.626 -0.827978 5.28251 0
M  V30 3446 H 333.969 -1.69171 3.80377 0
M  V30 3447 H 334.502 -0.00188807 3.978 0
M  V30 3448 H 331.241 1.94042 6.26121 0
M  V30 3449 H 330.761 0.248998 5.99283 0
M  V30 3450 H 332.44 0.642867 6.43798 0
M  V30 3451 N 332.573 -1.56217 0.208337 0
M  V30 3452 C 333.503 -2.22694 -0.702116 0
M  V30 3453 C 334.484 -1.19432 -1.2112 0
M  V30 3454 O 335.669 -1.47978 -1.25762 0
M  V30 3455 C 332.799 -2.8966 -1.9161 0
M  V30 3456 C 331.753 -3.9928 -1.5414 0
M  V30 3457 C 331.079 -4.53476 -2.83308 0
M  V30 3458 C 332.379 -5.17012 -0.741339 0
M  V30 3459 H 334.073 -2.99034 -0.147898 0
M  V30 3460 H 331.619 -1.43831 -0.0696951 0
M  V30 3461 H 333.572 -3.34852 -2.55836 0
M  V30 3462 H 332.296 -2.10746 -2.49507 0
M  V30 3463 H 330.955 -3.54799 -0.922668 0
M  V30 3464 H 330.603 -3.71308 -3.39322 0
M  V30 3465 H 330.303 -5.27451 -2.58976 0
M  V30 3466 H 331.827 -5.01378 -3.485 0
M  V30 3467 H 333.241 -5.58667 -1.28699 0
M  V30 3468 H 331.638 -5.97137 -0.595627 0
M  V30 3469 H 332.708 -4.8423 0.254851 0
M  V30 3470 N 334.051 0.0651679 -1.57465 0
M  V30 3471 C 334.999 1.09542 -2.05191 0
M  V30 3472 C 335.993 1.39675 -0.958509 0
M  V30 3473 O 337.199 1.39003 -1.14359 0
M  V30 3474 H 333.574 0.370623 -0.654326 0
M  V30 3475 H 335.545 0.666802 -2.90854 0
M  V30 3476 C 334.294 2.39881 -2.51699 0
M  V30 3477 H 333.617 2.17547 -3.3543 0
M  V30 3478 H 335.057 3.104 -2.88839 0
M  V30 3479 C 333.516 3.0631 -1.40271 0
M  V30 3480 O 334.046 3.94664 -0.748523 0
M  V30 3481 N 332.252 2.67041 -1.14618 0
M  V30 3482 H 331.799 1.95281 -1.67997 0
M  V30 3483 H 331.757 3.1181 -0.402688 0
M  V30 3484 N 335.529 1.53961 0.336706 0
M  V30 3485 C 336.492 1.81724 1.39675 0
M  V30 3486 C 337.492 0.688532 1.45313 0
M  V30 3487 O 338.682 0.956829 1.45569 0
M  V30 3488 C 335.814 1.96543 2.78538 0
M  V30 3489 H 337.007 2.76424 1.16318 0
M  V30 3490 H 334.56 1.45478 0.571474 0
M  V30 3491 H 335.295 1.0401 3.07168 0
M  V30 3492 H 335.08 2.78665 2.75841 0
M  V30 3493 H 336.57 2.19516 3.5525 0
M  V30 3494 N 337.007 -0.598083 1.45811 0
M  V30 3495 C 337.955 -1.72932 1.55555 0
M  V30 3496 C 338.949 -1.63984 0.424921 0
M  V30 3497 O 340.155 -1.69663 0.601205 0
M  V30 3498 H 336.53 -0.571489 0.488779 0
M  V30 3499 H 338.501 -1.61842 2.50699 0
M  V30 3500 C 337.25 -3.11318 1.54843 0
M  V30 3501 H 336.573 -3.18867 2.41172 0
M  V30 3502 H 338.013 -3.90274 1.65717 0
M  V30 3503 C 336.472 -3.3578 0.274427 0
M  V30 3504 O 337.002 -3.9654 -0.641778 0
M  V30 3505 N 335.208 -2.90119 0.167139 0
M  V30 3506 H 334.755 -2.40855 0.913596 0
M  V30 3507 H 334.713 -3.0686 -0.684435 0
M  V30 3508 N 338.485 -1.33259 -0.841409 0
M  V30 3509 C 339.395 -1.25332 -1.98316 0
M  V30 3510 C 340.411 -0.164364 -1.73222 0
M  V30 3511 O 341.587 -0.387486 -1.97637 0
M  V30 3512 C 338.652 -0.990078 -3.32262 0
M  V30 3513 C 337.713 -2.16879 -3.70489 0
M  V30 3514 C 336.946 -1.91801 -4.98044 0
M  V30 3515 O 337.169 -0.867075 -5.63771 0
M  V30 3516 O 336.103 -2.78267 -5.33714 0
M  V30 3517 H 339.929 -2.21344 -2.07944 0
M  V30 3518 H 337.514 -1.1328 -0.974058 0
M  V30 3519 H 339.396 -0.860321 -4.12524 0
M  V30 3520 H 338.071 -0.0602155 -3.23644 0
M  V30 3521 H 336.978 -2.35407 -2.90748 0
M  V30 3522 H 338.311 -3.0819 -3.8377 0
M  V30 3523 N 339.963 1.05934 -1.16686 0
M  V30 3524 C 340.926 2.11669 -0.879144 0
M  V30 3525 C 341.926 1.60294 0.127445 0
M  V30 3526 O 343.116 1.7389 -0.103865 0
M  V30 3527 C 340.248 3.39438 -0.315425 0
M  V30 3528 H 341.441 2.38626 -1.81653 0
M  V30 3529 H 338.994 1.22058 -0.976299 0
M  V30 3530 H 339.729 3.18132 0.629468 0
M  V30 3531 H 339.514 3.78034 -1.04079 0
M  V30 3532 H 341.004 4.17391 -0.132189 0
M  V30 3533 N 341.441 0.965919 1.2453 0
M  V30 3534 C 342.371 0.513476 2.27784 0
M  V30 3535 C 343.352 -0.445974 1.6415 0
M  V30 3536 O 344.537 -0.342485 1.91156 0
M  V30 3537 C 341.667 -0.198839 3.4673 0
M  V30 3538 C 340.621 0.676456 4.2262 0
M  V30 3539 C 339.947 -0.167248 5.34438 0
M  V30 3540 C 341.247 1.96017 4.84123 0
M  V30 3541 H 342.941 1.3765 2.65881 0
M  V30 3542 H 340.487 0.663321 1.27813 0
M  V30 3543 H 342.44 -0.526567 4.18097 0
M  V30 3544 H 341.164 -1.0962 3.07654 0
M  V30 3545 H 339.823 0.98743 3.53052 0
M  V30 3546 H 339.471 -1.0647 4.91603 0
M  V30 3547 H 339.171 0.415181 5.86131 0
M  V30 3548 H 340.695 -0.489688 6.08633 0
M  V30 3549 H 342.109 1.69814 5.47573 0
M  V30 3550 H 340.506 2.48918 5.4604 0
M  V30 3551 H 341.576 2.65622 4.05676 0
M  V30 3552 N 342.919 -1.39368 0.735821 0
M  V30 3553 C 344.196 -1.94465 0.210395 0
M  V30 3554 C 344.576 -1.67254 -1.28799 0
M  V30 3555 O 343.924 -1.00123 -2.05396 0
M  V30 3556 C 344.134 -3.4472 0.544897 0
M  V30 3557 C 345.482 -4.21708 0.494689 0
M  V30 3558 O 346.506 -3.52922 0.482136 0
M  V30 3559 O 345.365 -5.44299 0.489947 0
M  V30 3560 H 342.459 -0.826096 0.0386666 0
M  V30 3561 H 345.005 -1.48863 0.814735 0
M  V30 3562 H 343.777 -3.57963 1.58045 0
M  V30 3563 H 343.4 -3.97502 -0.08837 0
M  V30 3564 N 344.397 -0.483516 -1.5 0
M  V30 3565 C 345.327 0.293829 -2.31644 0
M  V30 3566 C 346.308 0.978864 -1.39112 0
M  V30 3567 O 347.493 0.973644 -1.68029 0
M  V30 3568 C 344.623 1.36897 -3.19181 0
M  V30 3569 C 343.577 0.804833 -4.20365 0
M  V30 3570 C 342.903 1.9792 -4.96721 0
M  V30 3571 C 344.203 -0.192313 -5.21946 0
M  V30 3572 H 345.897 -0.387616 -2.9688 0
M  V30 3573 H 343.443 -0.187856 -1.42769 0
M  V30 3574 H 345.396 1.92037 -3.751 0
M  V30 3575 H 344.12 2.07936 -2.51853 0
M  V30 3576 H 342.779 0.275319 -3.65565 0
M  V30 3577 H 342.427 2.67686 -4.25856 0
M  V30 3578 H 342.127 1.60789 -5.65173 0
M  V30 3579 H 343.651 2.53526 -5.55479 0
M  V30 3580 H 345.065 0.270333 -5.72662 0
M  V30 3581 H 343.462 -0.478543 -5.98189 0
M  V30 3582 H 344.532 -1.11409 -4.71928 0
M  V30 3583 N 345.875 1.56104 -0.216619 0
M  V30 3584 C 346.805 2.23063 0.690296 0
M  V30 3585 C 347.786 1.20072 1.20485 0
M  V30 3586 O 348.971 1.48643 1.24976 0
M  V30 3587 C 346.101 2.90672 1.90072 0
M  V30 3588 C 345.055 4.00092 1.5202 0
M  V30 3589 C 344.381 4.54972 2.80899 0
M  V30 3590 C 345.681 5.17398 0.71391 0
M  V30 3591 H 347.375 2.99109 0.132038 0
M  V30 3592 H 344.921 1.43866 0.0620664 0
M  V30 3593 H 346.874 3.36204 2.54057 0
M  V30 3594 H 345.598 2.12066 2.48386 0
M  V30 3595 H 344.257 3.55283 0.903839 0
M  V30 3596 H 343.905 3.73102 3.37348 0
M  V30 3597 H 343.605 5.28817 2.56176 0
M  V30 3598 H 345.129 5.0322 3.45836 0
M  V30 3599 H 346.543 5.59342 1.25735 0
M  V30 3600 H 344.94 5.97444 0.563951 0
M  V30 3601 H 346.01 4.84088 -0.280527 0
M  V30 3602 N 347.353 -0.0568162 1.57498 0
M  V30 3603 C 348.599 -0.75422 1.88253 0
M  V30 3604 C 348.932 -1.76461 0.810865 0
M  V30 3605 O 348.207 -1.93691 -0.177259 0
M  V30 3606 C 348.49 -1.44878 3.2967 0
M  V30 3607 C 348.343 -0.453789 4.47505 0
M  V30 3608 C 349.662 -2.38994 3.69554 0
M  V30 3609 H 346.781 -0.272724 0.684683 0
M  V30 3610 H 349.423 -0.0172113 1.89992 0
M  V30 3611 H 347.573 -2.077 3.28318 0
M  V30 3612 H 349.245 0.170371 4.60985 0
M  V30 3613 H 347.488 0.229552 4.33192 0
M  V30 3614 H 348.159 -0.977699 5.43273 0
M  V30 3615 H 350.635 -1.86239 3.72095 0
M  V30 3616 H 349.511 -2.84587 4.69363 0
M  V30 3617 H 349.772 -3.24461 3.00296 0
M  V30 3618 N 348.832 -1.54138 -0.328536 0
M  V30 3619 C 350.06 -1.76062 -1.08673 0
M  V30 3620 C 350.475 -0.506852 -1.81869 0
M  V30 3621 O 349.832 0.522223 -1.74869 0
M  V30 3622 C 349.883 -2.95054 -2.08866 0
M  V30 3623 O 349.604 -4.15583 -1.38644 0
M  V30 3624 C 351.105 -3.2915 -2.96943 0
M  V30 3625 H 348.325 -0.587889 -0.323461 0
M  V30 3626 H 350.869 -2.0101 -0.376175 0
M  V30 3627 H 349.024 -2.72394 -2.75464 0
M  V30 3628 H 349.438 -4.82481 -2.05699 0
M  V30 3629 H 350.912 -4.15723 -3.63151 0
M  V30 3630 H 351.389 -2.461 -3.63774 0
M  V30 3631 H 351.995 -3.53871 -2.35914 0
M  V30 3632 N 350.31 0.590341 -1.46126 0
M  V30 3633 C 351.273 1.68194 -1.55703 0
M  V30 3634 C 352.273 1.54808 -0.434868 0
M  V30 3635 O 353.463 1.59564 -0.698928 0
M  V30 3636 C 350.595 3.07575 -1.47005 0
M  V30 3637 H 351.788 1.61064 -2.52979 0
M  V30 3638 H 349.341 0.807541 -1.33823 0
M  V30 3639 H 350.076 3.20268 -0.509785 0
M  V30 3640 H 349.861 3.187 -2.28414 0
M  V30 3641 H 351.351 3.87055 -1.56776 0
M  V30 3642 N 351.788 1.33704 0.83433 0
M  V30 3643 C 353.037 1.24763 1.58484 0
M  V30 3644 C 353.35 -0.183775 1.94735 0
M  V30 3645 O 354.556 -0.395234 2.68608 0
M  V30 3646 C 353.012 2.18638 2.85876 0
M  V30 3647 C 352.62 3.66974 2.56971 0
M  V30 3648 C 354.364 2.18581 3.63899 0
M  V30 3649 C 352.271 4.5275 3.80488 0
M  V30 3650 H 351.201 0.463425 0.594772 0
M  V30 3651 H 353.852 1.58797 0.919551 0
M  V30 3652 H 352.234 1.77542 3.5397 0
M  V30 3653 H 353.408 4.16538 1.9706 0
M  V30 3654 H 351.723 3.69366 1.92244 0
M  V30 3655 H 354.32 2.79894 4.55591 0
M  V30 3656 H 354.663 1.18207 3.99165 0
M  V30 3657 H 355.196 2.58062 3.02735 0
M  V30 3658 H 351.935 5.54017 3.5035 0
M  V30 3659 H 351.455 4.07927 4.39722 0
M  V30 3660 H 353.134 4.66784 4.4802 0
M  V30 3661 N 353.266 -1.05314 1.17247 0
M  V30 3662 C 354.213 -2.13031 0.888058 0
M  V30 3663 C 355.183 -1.65253 -0.167537 0
M  V30 3664 O 356.368 -1.90775 -0.0305974 0
M  V30 3665 C 353.508 -3.42702 0.406147 0
M  V30 3666 C 352.621 -4.04161 1.52572 0
M  V30 3667 C 351.756 -5.21744 0.997808 0
M  V30 3668 C 350.795 -5.75207 2.09291 0
M  V30 3669 N 349.932 -6.84094 1.57986 0
M  V30 3670 H 354.772 -2.36698 1.81048 0
M  V30 3671 H 352.309 -1.16121 0.903013 0
M  V30 3672 H 354.267 -4.17059 0.108305 0
M  V30 3673 H 352.897 -3.19222 -0.479313 0
M  V30 3674 H 351.949 -3.27253 1.93931 0
M  V30 3675 H 353.261 -4.39881 2.35172 0
M  V30 3676 H 352.415 -6.03168 0.653739 0
M  V30 3677 H 351.154 -4.87495 0.141232 0
M  V30 3678 H 350.159 -4.92414 2.44557 0
M  V30 3679 H 351.384 -6.11505 2.95362 0
M  V30 3680 H 349.33 -6.51745 0.74598 0
M  V30 3681 H 349.247 -7.18811 2.34195 0
M  V30 3682 H 350.515 -7.69172 1.26468 0
M  V30 3683 N 354.744 -0.972509 -1.24016 0
M  V30 3684 C 355.969 -0.654417 -1.96805 0
M  V30 3685 C 356.394 0.770398 -1.716 0
M  V30 3686 O 355.752 1.52361 -0.982647 0
M  V30 3687 C 355.8 -0.941031 -3.48105 0
M  V30 3688 O 354.904 -0.0289472 -4.1239 0
M  V30 3689 H 354.245 -0.24692 -0.616382 0
M  V30 3690 H 356.775 -1.30396 -1.57664 0
M  V30 3691 H 356.785 -0.87452 -3.98517 0
M  V30 3692 H 355.46 -1.97939 -3.65777 0
M  V30 3693 H 354.037 -0.149192 -3.72601 0
M  V30 3694 N 356.222 1.38976 -0.743202 0
M  V30 3695 C 357.185 2.28901 -0.117014 0
M  V30 3696 C 358.185 1.46698 0.658503 0
M  V30 3697 O 359.375 1.67274 0.486305 0
M  V30 3698 C 356.507 3.30309 0.84315 0
M  V30 3699 H 357.7 2.8578 -0.909373 0
M  V30 3700 H 355.253 1.47761 -0.509547 0
M  V30 3701 H 355.988 2.785 1.66157 0
M  V30 3702 H 355.773 3.91029 0.289594 0
M  V30 3703 H 357.263 3.97577 1.2776 0
M  V30 3704 N 357.7 0.491464 1.49741 0
M  V30 3705 C 358.948 -0.0563141 2.02022 0
M  V30 3706 C 359.269 -1.38363 1.37407 0
M  V30 3707 O 358.539 -1.88702 0.526166 0
M  V30 3708 H 357.119 -0.0238014 0.746621 0
M  V30 3709 H 359.781 0.646533 1.83864 0
M  V30 3710 H 358.877 -0.192967 3.11503 0
M  V30 3711 N 359.178 -1.55987 0.224894 0
M  V30 3712 C 360.408 -2.02489 -0.41007 0
M  V30 3713 C 360.816 -1.10391 -1.53657 0
M  V30 3714 O 360.159 -0.106458 -1.83391 0
M  V30 3715 C 360.221 -3.45319 -0.999757 0
M  V30 3716 C 359.885 -4.56999 -0.00827976 0
M  V30 3717 C 360.882 -5.13812 0.793314 0
M  V30 3718 C 358.567 -5.02176 0.111442 0
M  V30 3719 C 360.561 -6.14276 1.7013 0
M  V30 3720 C 358.248 -6.02477 1.02296 0
M  V30 3721 C 359.246 -6.58403 1.81643 0
M  V30 3722 O 358.934 -7.56751 2.71262 0
M  V30 3723 H 358.666 -0.667915 -0.104235 0
M  V30 3724 H 361.22 -2.0257 0.339782 0
M  V30 3725 H 359.45 -3.42318 -1.79876 0
M  V30 3726 H 361.139 -3.7545 -1.54248 0
M  V30 3727 H 361.905 -4.79756 0.711288 0
M  V30 3728 H 357.784 -4.58323 -0.49605 0
M  V30 3729 H 361.328 -6.57854 2.32107 0
M  V30 3730 H 357.225 -6.35954 1.10599 0
M  V30 3731 H 357.993 -7.74286 2.65375 0
M  V30 3732 N 360.656 0.0484629 -1.57525 0
M  V30 3733 C 361.566 1.07241 -2.08654 0
M  V30 3734 C 362.582 1.409 -1.02095 0
M  V30 3735 O 363.758 1.50609 -1.33712 0
M  V30 3736 C 360.823 2.36008 -2.5397 0
M  V30 3737 C 359.884 2.09108 -3.7493 0
M  V30 3738 C 359.117 3.31736 -4.18075 0
M  V30 3739 O 359.34 4.41714 -3.60895 0
M  V30 3740 O 358.274 3.18576 -5.10679 0
M  V30 3741 H 362.1 0.667965 -2.96263 0
M  V30 3742 H 359.685 0.26417 -1.47046 0
M  V30 3743 H 361.567 3.11747 -2.83535 0
M  V30 3744 H 360.242 2.75786 -1.69481 0
M  V30 3745 H 359.149 1.31 -3.50414 0
M  V30 3746 H 360.482 1.74198 -4.60343 0
M  V30 3747 N 362.134 1.5431 0.320358 0
M  V30 3748 C 363.382 1.72327 1.05583 0
M  V30 3749 C 363.703 0.50149 1.88441 0
M  V30 3750 O 362.973 -0.48448 1.89815 0
M  V30 3751 H 361.553 0.635387 0.3928 0
M  V30 3752 H 364.215 1.91621 0.356019 0
M  V30 3753 H 363.311 2.60426 1.72003 0
M  V30 3754 N 363.613 -0.582584 1.46437 0
M  V30 3755 C 364.56 -1.69164 1.5701 0
M  V30 3756 C 365.53 -1.60847 0.414403 0
M  V30 3757 O 366.715 -1.80058 0.631171 0
M  V30 3758 C 363.855 -3.075 1.56646 0
M  V30 3759 C 362.968 -3.2644 2.82951 0
M  V30 3760 C 362.103 -4.55026 2.7409 0
M  V30 3761 C 361.142 -4.6731 3.95333 0
M  V30 3762 N 360.279 -5.87221 3.84858 0
M  V30 3763 H 365.119 -1.59464 2.51744 0
M  V30 3764 H 362.656 -0.777186 1.24893 0
M  V30 3765 H 364.614 -3.8757 1.5442 0
M  V30 3766 H 363.244 -3.16096 0.654439 0
M  V30 3767 H 362.296 -2.39974 2.95155 0
M  V30 3768 H 363.608 -3.31385 3.72808 0
M  V30 3769 H 362.762 -5.43324 2.6997 0
M  V30 3770 H 361.501 -4.52519 1.81873 0
M  V30 3771 H 360.506 -3.77429 3.99784 0
M  V30 3772 H 361.731 -4.71595 4.88646 0
M  V30 3773 H 359.677 -5.85712 2.95427 0
M  V30 3774 H 359.594 -5.93435 4.6837 0
M  V30 3775 H 360.862 -6.7795 3.84713 0
M  V30 3776 N 365.091 -1.34144 -0.827227 0
M  V30 3777 C 366.337 -1.26446 -1.58554 0
M  V30 3778 C 366.67 0.1664 -1.93486 0
M  V30 3779 O 365.945 1.1107 -1.59667 0
M  V30 3780 C 366.228 -2.15111 -2.8879 0
M  V30 3781 C 366.081 -3.66712 -2.60465 0
M  V30 3782 C 367.4 -2.03311 -3.90324 0
M  V30 3783 H 364.519 -0.46067 -0.575284 0
M  V30 3784 H 367.161 -1.64356 -0.953269 0
M  V30 3785 H 365.311 -1.8291 -3.42748 0
M  V30 3786 H 366.983 -4.09259 -2.1285 0
M  V30 3787 H 365.226 -3.88014 -1.93978 0
M  V30 3788 H 365.897 -4.24112 -3.53317 0
M  V30 3789 H 368.373 -2.31574 -3.45706 0
M  V30 3790 H 367.249 -2.67582 -4.79261 0
M  V30 3791 H 367.51 -1.00879 -4.30437 0
M  V30 3792 N 366.569 1.04691 -1.17803 0
M  V30 3793 C 367.516 2.12557 -0.899343 0
M  V30 3794 C 368.486 1.65339 0.158771 0
M  V30 3795 O 369.671 1.90789 0.0204797 0
M  V30 3796 C 366.811 3.42481 -0.424315 0
M  V30 3797 C 365.924 4.03346 -1.54713 0
M  V30 3798 C 365.059 5.21208 -1.02546 0
M  V30 3799 C 364.098 5.74089 -2.12339 0
M  V30 3800 N 363.235 6.83247 -1.61612 0
M  V30 3801 H 368.075 2.35734 -1.823 0
M  V30 3802 H 365.612 1.1564 -0.909159 0
M  V30 3803 H 367.57 4.16996 -0.130421 0
M  V30 3804 H 366.2 3.19471 0.462377 0
M  V30 3805 H 365.252 3.2622 -1.95664 0
M  V30 3806 H 366.564 4.38628 -2.37501 0
M  V30 3807 H 365.718 6.02812 -0.685718 0
M  V30 3808 H 364.457 4.87414 -0.167084 0
M  V30 3809 H 363.462 4.91111 -2.47165 0
M  V30 3810 H 364.687 6.0993 -2.98601 0
M  V30 3811 H 362.633 6.5134 -0.780533 0
M  V30 3812 H 362.55 7.17559 -2.38003 0
M  V30 3813 H 363.818 7.68491 -1.30545 0
M  V30 3814 N 368.047 0.979072 1.23499 0
M  V30 3815 C 369.296 0.642751 1.91185 0
M  V30 3816 C 369.609 -0.827253 1.77245 0
M  V30 3817 O 370.815 -1.27458 2.39722 0
M  V30 3818 C 369.271 1.09901 3.42709 0
M  V30 3819 C 368.879 2.59327 3.65313 0
M  V30 3820 C 370.623 0.836371 4.16179 0
M  V30 3821 C 368.53 2.98627 5.10467 0
M  V30 3822 H 367.46 0.236698 0.715884 0
M  V30 3823 H 370.111 1.1868 1.39955 0
M  V30 3824 H 368.493 0.48319 3.93041 0
M  V30 3825 H 369.667 3.26136 3.25533 0
M  V30 3826 H 367.982 2.83323 3.05151 0
M  V30 3827 H 370.579 1.10586 5.23139 0
M  V30 3828 H 370.922 -0.227509 4.15678 0
M  V30 3829 H 371.455 1.41371 3.71832 0
M  V30 3830 H 368.194 4.04133 5.16098 0
M  V30 3831 H 367.714 2.3651 5.51201 0
M  V30 3832 H 369.393 2.89159 5.78788 0
M  V30 3833 N 369.525 -1.3858 0.750561 0
M  V30 3834 C 370.488 -2.28836 0.129152 0
M  V30 3835 C 371.488 -1.47045 -0.650714 0
M  V30 3836 O 372.678 -1.6753 -0.477428 0
M  V30 3837 C 369.81 -3.30751 -0.825622 0
M  V30 3838 H 371.003 -2.85294 0.924516 0
M  V30 3839 H 368.556 -1.47489 0.517376 0
M  V30 3840 H 369.291 -2.79378 -1.64677 0
M  V30 3841 H 369.076 -3.91177 -0.268852 0
M  V30 3842 H 370.566 -3.98249 -1.2565 0
M  V30 3843 N 371.003 -0.499398 -1.49478 0
M  V30 3844 C 371.936 0.326491 -2.25852 0
M  V30 3845 C 372.914 0.971776 -1.30366 0
M  V30 3846 O 374.098 1.00219 -1.59651 0
M  V30 3847 C 371.225 1.45969 -3.05632 0
M  V30 3848 C 370.271 0.928938 -4.16261 0
M  V30 3849 S 371.104 -0.179012 -5.35201 0
M  V30 3850 C 372.26 0.957389 -6.18534 0
M  V30 3851 H 372.493 -0.321746 -2.95554 0
M  V30 3852 H 370.026 -0.284674 -1.51753 0
M  V30 3853 H 371.984 2.109 -3.52181 0
M  V30 3854 H 370.645 2.07953 -2.35402 0
M  V30 3855 H 369.838 1.77813 -4.71592 0
M  V30 3856 H 369.44 0.356869 -3.72293 0
M  V30 3857 H 371.732 1.86296 -6.51383 0
M  V30 3858 H 372.675 0.442733 -7.06715 0
M  V30 3859 H 373.083 1.224 -5.5107 0
M  V30 3860 N 372.481 1.55866 -0.233164 0
M  V30 3861 C 373.758 1.90471 0.444988 0
M  V30 3862 C 374.138 1.15209 1.7689 0
M  V30 3863 O 373.486 0.265119 2.26957 0
M  V30 3864 C 373.696 3.4333 0.626559 0
M  V30 3865 C 375.044 4.14319 0.92871 0
M  V30 3866 O 376.068 3.48993 0.712926 0
M  V30 3867 O 374.927 5.29846 1.33887 0
M  V30 3868 H 372.021 0.792347 0.236885 0
M  V30 3869 H 374.567 1.67437 -0.276211 0
M  V30 3870 H 373.339 3.90095 -0.306822 0
M  V30 3871 H 372.962 3.72181 1.39881 0
M  V30 3872 N 373.959 -0.0401083 1.57549 0
M  V30 3873 C 375.205 -0.734211 1.89043 0
M  V30 3874 C 375.538 -1.75591 0.829535 0
M  V30 3875 O 374.813 -1.93868 -0.156706 0
M  V30 3876 C 375.096 -1.41374 3.31188 0
M  V30 3877 C 374.949 -0.406299 4.47961 0
M  V30 3878 C 376.268 -2.35061 3.72068 0
M  V30 3879 H 373.387 -0.265447 0.687537 0
M  V30 3880 H 376.029 0.00294087 1.9 0
M  V30 3881 H 374.179 -2.04206 3.30503 0
M  V30 3882 H 375.851 0.219255 4.60779 0
M  V30 3883 H 374.094 0.275485 4.32924 0
M  V30 3884 H 374.765 -0.920022 5.44279 0
M  V30 3885 H 377.241 -1.82282 3.74049 0
M  V30 3886 H 376.117 -2.79593 4.72355 0
M  V30 3887 H 376.378 -3.21258 3.0372 0
M  V30 3888 N 375.437 -1.54477 -0.31217 0
M  V30 3889 C 376.4 -1.83923 -1.36766 0
M  V30 3890 C 377.4 -0.711563 -1.44199 0
M  V30 3891 O 378.59 -0.979866 -1.44029 0
M  V30 3892 C 375.722 -2.0095 -2.75376 0
M  V30 3893 H 376.915 -2.78239 -1.11906 0
M  V30 3894 H 374.468 -1.46369 -0.548257 0
M  V30 3895 H 375.203 -1.08883 -3.05475 0
M  V30 3896 H 374.988 -2.83018 -2.71373 0
M  V30 3897 H 376.478 -2.2514 -3.51713 0
M  V30 3898 N 376.915 0.57481 -1.46744 0
M  V30 3899 C 377.878 1.66533 -1.57478 0
M  V30 3900 C 378.878 1.54338 -0.451263 0
M  V30 3901 O 380.068 1.58814 -0.715813 0
M  V30 3902 C 377.2 3.05999 -1.50259 0
M  V30 3903 H 378.393 1.58372 -2.54673 0
M  V30 3904 H 375.946 0.793301 -1.34672 0
M  V30 3905 H 376.681 3.19709 -0.543725 0
M  V30 3906 H 376.466 3.16259 -2.31781 0
M  V30 3907 H 377.956 3.8537 -1.60872 0
M  V30 3908 N 378.394 1.34581 0.820102 0
M  V30 3909 C 379.619 1.30333 1.61332 0
M  V30 3910 C 380.044 -0.119339 1.87721 0
M  V30 3911 O 379.402 -1.08197 1.45475 0
M  V30 3912 C 379.45 2.10258 2.92957 0
M  V30 3913 O 378.554 1.47404 3.85157 0
M  V30 3914 H 377.895 0.447488 0.490561 0
M  V30 3915 H 380.425 1.77425 1.01889 0
M  V30 3916 H 380.435 2.21718 3.42498 0
M  V30 3917 H 379.11 3.13693 2.73074 0
M  V30 3918 H 377.687 1.44703 3.43679 0
M  V30 3919 N 379.872 -1.04064 1.18357 0
M  V30 3920 C 380.782 -2.15569 0.925596 0
M  V30 3921 C 381.798 -1.7365 -0.110295 0
M  V30 3922 O 382.974 -2.01273 0.0716218 0
M  V30 3923 C 380.039 -3.43704 0.454836 0
M  V30 3924 C 379.1 -4.00004 1.55869 0
M  V30 3925 C 378.333 -5.22023 1.1103 0
M  V30 3926 O 378.556 -5.70392 -0.0309756 0
M  V30 3927 O 377.49 -5.70856 1.90805 0
M  V30 3928 H 381.316 -2.40187 1.8586 0
M  V30 3929 H 378.901 -1.1402 0.965394 0
M  V30 3930 H 380.783 -4.20923 0.200382 0
M  V30 3931 H 379.458 -3.20559 -0.449876 0
M  V30 3932 H 378.365 -3.24172 1.86716 0
M  V30 3933 H 379.698 -4.2749 2.43953 0
M  V30 3934 N 381.35 -0.985608 -1.22978 0
M  V30 3935 C 382.597 -0.657386 -1.91532 0
M  V30 3936 C 382.925 0.809707 -1.76845 0
M  V30 3937 O 382.18 1.60021 -1.12658 0
M  V30 3938 C 382.479 -1.00014 -3.43121 0
M  V30 3939 C 382.145 -2.4583 -3.77993 0
M  V30 3940 C 380.807 -2.85679 -3.87222 0
M  V30 3941 C 383.159 -3.40378 -3.94705 0
M  V30 3942 C 380.487 -4.19081 -4.10595 0
M  V30 3943 C 382.839 -4.73429 -4.1958 0
M  V30 3944 C 381.503 -5.1303 -4.27032 0
M  V30 3945 H 380.773 -0.240555 -0.700867 0
M  V30 3946 H 383.42 -1.24044 -1.45895 0
M  V30 3947 H 381.725 -0.335072 -3.90365 0
M  V30 3948 H 383.422 -0.724322 -3.94404 0
M  V30 3949 H 380.012 -2.13939 -3.71387 0
M  V30 3950 H 384.196 -3.10766 -3.8696 0
M  V30 3951 H 379.452 -4.49362 -4.14589 0
M  V30 3952 H 383.626 -5.46644 -4.31455 0
M  V30 3953 H 381.253 -6.16418 -4.44896 0
M  V30 3954 N 382.828 1.3818 -0.7579 0
M  V30 3955 C 384.058 2.04004 -0.326463 0
M  V30 3956 C 384.466 1.57286 1.05156 0
M  V30 3957 O 383.809 0.743144 1.67997 0
M  V30 3958 C 383.871 3.58444 -0.275402 0
M  V30 3959 C 383.535 4.28237 -1.59569 0
M  V30 3960 C 384.532 4.53312 -2.54566 0
M  V30 3961 C 382.217 4.66341 -1.86631 0
M  V30 3962 C 384.211 5.15531 -3.74842 0
M  V30 3963 C 381.898 5.28283 -3.0718 0
M  V30 3964 C 382.896 5.52814 -4.01106 0
M  V30 3965 O 382.584 6.13465 -5.19534 0
M  V30 3966 H 382.316 0.662026 -0.136739 0
M  V30 3967 H 384.87 1.7777 -1.02893 0
M  V30 3968 H 383.1 3.83667 0.483337 0
M  V30 3969 H 384.789 4.05701 0.127099 0
M  V30 3970 H 385.555 4.24299 -2.34936 0
M  V30 3971 H 381.434 4.46591 -1.14358 0
M  V30 3972 H 384.978 5.34594 -4.48168 0
M  V30 3973 H 380.875 5.56719 -3.26702 0
M  V30 3974 H 381.643 6.31951 -5.20173 0
M  V30 3975 N 384.306 0.507319 1.49211 0
M  V30 3976 C 385.254 -0.281364 2.30892 0
M  V30 3977 C 386.248 -0.95687 1.39787 0
M  V30 3978 O 387.454 -0.883838 1.56807 0
M  V30 3979 H 383.829 -0.109597 0.743971 0
M  V30 3980 H 385.8 0.42744 2.95323 0
M  V30 3981 C 384.549 -1.32918 3.21291 0
M  V30 3982 H 383.872 -0.818799 3.91326 0
M  V30 3983 H 385.312 -1.85288 3.81372 0
M  V30 3984 C 383.771 -2.35074 2.41333 0
M  V30 3985 O 384.301 -3.4108 2.12197 0
M  V30 3986 N 382.507 -2.07705 2.03241 0
M  V30 3987 H 382.054 -1.2152 2.27136 0
M  V30 3988 H 382.012 -2.76283 1.50051 0
M  V30 3989 N 385.784 -1.5574 0.241426 0
M  V30 3990 C 387.009 -2.0366 -0.392111 0
M  V30 3991 C 387.434 -1.11969 -1.51144 0
M  V30 3992 O 386.792 -0.111594 -1.80956 0
M  V30 3993 C 386.84 -3.49638 -0.882371 0
M  V30 3994 O 385.944 -3.6108 -1.99235 0
M  V30 3995 H 385.285 -0.658379 -0.0862122 0
M  V30 3996 H 387.815 -2.01302 0.365881 0
M  V30 3997 H 387.825 -3.90351 -1.18702 0
M  V30 3998 H 386.5 -4.15852 -0.0632361 0
M  V30 3999 H 385.077 -3.32262 -1.69282 0
M  V30 4000 N 387.262 0.0317525 -1.57568 0
M  V30 4001 C 388.172 1.05021 -2.0978 0
M  V30 4002 C 389.188 1.39809 -1.03583 0
M  V30 4003 O 390.364 1.49182 -1.35302 0
M  V30 4004 C 387.429 2.33301 -2.56459 0
M  V30 4005 C 386.49 2.0512 -3.77127 0
M  V30 4006 C 385.723 3.27283 -4.2157 0
M  V30 4007 O 385.946 4.37861 -3.65559 0
M  V30 4008 O 384.88 3.13141 -5.14029 0
M  V30 4009 H 388.706 0.636505 -2.96955 0
M  V30 4010 H 386.291 0.248559 -1.47318 0
M  V30 4011 H 388.173 3.08722 -2.86825 0
M  V30 4012 H 386.848 2.73973 -1.72397 0
M  V30 4013 H 385.755 1.27276 -3.51784 0
M  V30 4014 H 387.088 1.69305 -4.62165 0
M  V30 4015 N 388.74 1.54641 0.303973 0
M  V30 4016 C 389.688 1.86137 1.39484 0
M  V30 4017 C 390.682 0.734854 1.52631 0
M  V30 4018 O 391.888 0.918803 1.54784 0
M  V30 4019 H 388.263 0.590324 0.465856 0
M  V30 4020 H 390.234 2.77324 1.10154 0
M  V30 4021 C 388.983 2.12274 2.75382 0
M  V30 4022 H 388.306 2.98429 2.66046 0
M  V30 4023 H 389.746 2.38254 3.5073 0
M  V30 4024 C 388.205 0.920365 3.24085 0
M  V30 4025 O 388.735 0.139377 4.01458 0
M  V30 4026 N 386.941 0.726566 2.81371 0
M  V30 4027 H 386.488 1.36332 2.18567 0
M  V30 4028 H 386.446 -0.0763799 3.14307 0
M  V30 4029 N 390.218 -0.567019 1.47046 0
M  V30 4030 C 391.165 -1.67489 1.58796 0
M  V30 4031 C 392.135 -1.60399 0.43144 0
M  V30 4032 O 393.32 -1.79378 0.650233 0
M  V30 4033 C 390.46 -3.05821 1.59899 0
M  V30 4034 C 389.573 -3.2342 2.86397 0
M  V30 4035 C 388.708 -4.52093 2.789 0
M  V30 4036 C 387.747 -4.6309 4.00267 0
M  V30 4037 N 386.884 -5.83106 3.91064 0
M  V30 4038 H 391.724 -1.56785 2.53422 0
M  V30 4039 H 389.261 -0.763896 1.2571 0
M  V30 4040 H 391.219 -3.8591 1.58522 0
M  V30 4041 H 389.849 -3.15384 0.687929 0
M  V30 4042 H 388.901 -2.3683 2.97684 0
M  V30 4043 H 390.213 -3.27412 3.76301 0
M  V30 4044 H 389.367 -5.4043 2.75718 0
M  V30 4045 H 388.106 -4.50565 1.86662 0
M  V30 4046 H 387.111 -3.73168 4.03765 0
M  V30 4047 H 388.336 -4.66386 4.93621 0
M  V30 4048 H 386.282 -5.82546 3.01623 0
M  V30 4049 H 386.199 -5.88434 4.74638 0
M  V30 4050 H 387.467 -6.73831 3.91882 0
M  V30 4051 N 391.696 -1.35014 -0.812953 0
M  V30 4052 C 392.924 -1.31031 -1.6012 0
M  V30 4053 C 393.339 0.113558 -1.88458 0
M  V30 4054 O 392.696 1.06363 -1.48301 0
M  V30 4055 C 392.747 -2.10872 -2.93624 0
M  V30 4056 O 392.468 -3.47706 -2.66518 0
M  V30 4057 C 393.969 -2.14401 -3.88004 0
M  V30 4058 H 391.189 -0.45037 -0.497401 0
M  V30 4059 H 393.733 -1.77775 -1.01076 0
M  V30 4060 H 391.888 -1.67744 -3.492 0
M  V30 4061 H 392.302 -3.89097 -3.51715 0
M  V30 4062 H 393.776 -2.74669 -4.78812 0
M  V30 4063 H 394.253 -1.14105 -4.24119 0
M  V30 4064 H 394.859 -2.57662 -3.38364 0
M  V30 4065 N 393.175 1.03435 -1.18907 0
M  V30 4066 C 394.405 1.8012 -1.01195 0
M  V30 4067 C 394.813 1.8395 0.442613 0
M  V30 4068 O 394.156 1.27836 1.31923 0
M  V30 4069 C 394.218 3.26792 -1.49823 0
M  V30 4070 C 393.882 3.46609 -2.97844 0
M  V30 4071 C 394.879 3.37278 -3.95651 0
M  V30 4072 C 392.564 3.73001 -3.36416 0
M  V30 4073 C 394.558 3.54054 -5.30023 0
M  V30 4074 C 392.245 3.89423 -4.70949 0
M  V30 4075 C 393.243 3.79951 -5.67562 0
M  V30 4076 O 392.931 3.95895 -6.99659 0
M  V30 4077 H 392.663 0.573865 -0.357289 0
M  V30 4078 H 395.217 1.31207 -1.58031 0
M  V30 4079 H 393.447 3.76703 -0.873578 0
M  V30 4080 H 395.136 3.85055 -1.28404 0
M  V30 4081 H 395.902 3.16846 -3.67197 0
M  V30 4082 H 391.781 3.79469 -2.61772 0
M  V30 4083 H 395.325 3.46577 -6.05417 0
M  V30 4084 H 391.222 4.09351 -4.99101 0
M  V30 4085 H 391.99 4.13019 -7.06653 0
M  V30 4086 N 394.653 0.992116 1.22453 0
M  V30 4087 C 395.93 0.583508 1.86694 0
M  V30 4088 C 396.31 -0.9392 1.89056 0
M  V30 4089 O 395.658 -1.82081 1.38053 0
M  V30 4090 C 395.868 1.20304 3.2761 0
M  V30 4091 C 397.216 1.30308 4.0411 0
M  V30 4092 O 398.24 1.15737 3.36873 0
M  V30 4093 O 397.099 1.53615 5.24466 0
M  V30 4094 H 394.193 0.198129 0.802916 0
M  V30 4095 H 396.739 1.08794 1.30238 0
M  V30 4096 H 395.511 2.24461 3.2052 0
M  V30 4097 H 395.134 0.684144 3.9167 0
M  V30 4098 N 396.131 -1.37776 0.765217 0
M  V30 4099 C 397.061 -2.32945 0.160953 0
M  V30 4100 C 398.042 -1.55454 -0.690516 0
M  V30 4101 O 399.227 -1.83721 -0.629318 0
M  V30 4102 C 396.357 -3.39669 -0.724031 0
M  V30 4103 C 395.311 -4.27992 0.0256173 0
M  V30 4104 C 394.637 -5.25673 -0.978383 0
M  V30 4105 C 395.937 -5.08309 1.20082 0
M  V30 4106 H 397.631 -2.83728 0.955969 0
M  V30 4107 H 395.177 -1.36416 0.461149 0
M  V30 4108 H 397.13 -4.05219 -1.15652 0
M  V30 4109 H 395.854 -2.87396 -1.5515 0
M  V30 4110 H 394.513 -3.63964 0.438812 0
M  V30 4111 H 394.161 -4.69682 -1.80022 0
M  V30 4112 H 393.861 -5.85625 -0.481378 0
M  V30 4113 H 395.385 -5.94098 -1.40995 0
M  V30 4114 H 396.799 -5.67034 0.845307 0
M  V30 4115 H 395.196 -5.77554 1.62947 0
M  V30 4116 H 396.266 -4.41365 2.00811 0
M  V30 4117 N 397.609 -0.515225 -1.4894 0
M  V30 4118 C 398.886 0.0879088 -1.95402 0
M  V30 4119 C 399.266 1.52745 -1.45712 0
M  V30 4120 O 398.614 2.18238 -0.677093 0
M  V30 4121 C 398.824 -0.0141055 -3.48997 0
M  V30 4122 C 400.172 0.152646 -4.24326 0
M  V30 4123 O 401.196 0.0604025 -3.56149 0
M  V30 4124 O 400.055 0.34384 -5.45417 0
M  V30 4125 H 397.149 0.0874636 -0.822362 0
M  V30 4126 H 399.695 -0.578775 -1.59525 0
M  V30 4127 H 398.467 -1.01745 -3.77841 0
M  V30 4128 H 398.09 0.692091 -3.9153 0
M  V30 4129 N 399.087 1.5561 -0.249682 0
M  V30 4130 C 400.334 1.99011 0.374287 0
M  V30 4131 C 400.662 1.13785 1.57744 0
M  V30 4132 O 399.917 0.189326 1.94782 0
M  V30 4133 C 400.216 3.4775 0.824887 0
M  V30 4134 C 399.882 4.50086 -0.270819 0
M  V30 4135 C 398.544 4.77791 -0.571746 0
M  V30 4136 C 400.896 5.11312 -1.01041 0
M  V30 4137 C 398.224 5.63997 -1.61629 0
M  V30 4138 C 400.576 5.98651 -2.0445 0
M  V30 4139 C 399.24 6.24688 -2.35204 0
M  V30 4140 H 398.51 0.728233 0.136961 0
M  V30 4141 H 401.157 1.88122 -0.358087 0
M  V30 4142 H 399.462 3.55985 1.63651 0
M  V30 4143 H 401.159 3.78721 1.31799 0
M  V30 4144 H 397.749 4.28592 -0.026136 0
M  V30 4145 H 401.933 4.89953 -0.791177 0
M  V30 4146 H 397.189 5.82425 -1.85988 0
M  V30 4147 H 401.363 6.45135 -2.62248 0
M  V30 4148 H 398.99 6.91281 -3.16282 0
M  V30 4149 N 400.565 -0.0233959 1.57583 0
M  V30 4150 C 401.512 -1.02224 2.06927 0
M  V30 4151 C 402.482 -1.35575 0.959617 0
M  V30 4152 O 403.667 -1.45815 1.23055 0
M  V30 4153 C 400.807 -2.31636 2.5581 0
M  V30 4154 C 399.92 -2.04394 3.80588 0
M  V30 4155 C 399.055 -3.27717 4.18061 0
M  V30 4156 C 398.094 -2.96056 5.3574 0
M  V30 4157 N 397.231 -4.11847 5.68618 0
M  V30 4158 H 402.071 -0.594504 2.9201 0
M  V30 4159 H 399.608 -0.281921 1.44373 0
M  V30 4160 H 401.566 -3.07258 2.82221 0
M  V30 4161 H 400.196 -2.72122 1.73636 0
M  V30 4162 H 399.248 -1.19244 3.61227 0
M  V30 4163 H 400.56 -1.77042 4.66323 0
M  V30 4164 H 399.714 -4.11702 4.4563 0
M  V30 4165 H 398.453 -3.58188 3.30988 0
M  V30 4166 H 397.458 -2.10474 5.07918 0
M  V30 4167 H 398.683 -2.66857 6.24471 0
M  V30 4168 H 396.629 -4.42258 4.84504 0
M  V30 4169 H 396.546 -3.87938 6.48876 0
M  V30 4170 H 397.814 -4.96689 6.00766 0
M  V30 4171 N 402.043 -1.548 -0.295768 0
M  V30 4172 C 403.271 -1.78327 -1.04914 0
M  V30 4173 C 403.686 -0.545316 -1.80753 0
M  V30 4174 O 403.043 0.485013 -1.75937 0
M  V30 4175 C 403.094 -2.99418 -2.02561 0
M  V30 4176 O 402.815 -4.18431 -1.29798 0
M  V30 4177 C 404.316 -3.35375 -2.89895 0
M  V30 4178 H 401.536 -0.594618 -0.310918 0
M  V30 4179 H 404.08 -2.01763 -0.333454 0
M  V30 4180 H 402.235 -2.78175 -2.69624 0
M  V30 4181 H 402.649 -4.86736 -1.95419 0
M  V30 4182 H 404.123 -4.23332 -3.54251 0
M  V30 4183 H 404.6 -2.53761 -3.58472 0
M  V30 4184 H 405.206 -3.58796 -2.28355 0
M  V30 4185 N 403.521 0.559213 -1.47345 0
M  V30 4186 C 404.932 1.14134 -1.47751 0
M  V30 4187 C 405.283 1.94834 -0.231103 0
M  V30 4188 O 404.408 2.05957 0.664137 0
M  V30 4189 C 405.003 2.07653 -2.67705 0
M  V30 4190 C 403.562 2.61141 -2.71076 0
M  V30 4191 C 402.709 1.3748 -2.40821 0
M  V30 4192 H 405.66 0.345917 -1.54884 0
M  V30 4193 H 405.681 2.91497 -2.44561 0
M  V30 4194 H 405.193 1.4889 -3.58404 0
M  V30 4195 H 403.294 3.23707 -1.84511 0
M  V30 4196 H 403.407 3.02272 -3.7171 0
M  V30 4197 H 401.771 1.68086 -1.91362 0
M  V30 4198 H 402.554 0.805135 -3.33725 0
M  V30 4199 N 404.999 1.35443 0.805782 0
M  V30 4200 C 405.947 1.28465 1.93906 0
M  V30 4201 C 406.941 0.17943 1.68447 0
M  V30 4202 O 408.147 0.345459 1.76654 0
M  V30 4203 H 404.522 0.399528 0.637088 0
M  V30 4204 H 406.493 2.24206 1.96912 0
M  V30 4205 C 405.242 1.07432 3.30687 0
M  V30 4206 H 404.565 1.91716 3.50835 0
M  V30 4207 H 406.005 1.06591 4.10383 0
M  V30 4208 C 404.464 -0.22179 3.36169 0
M  V30 4209 O 404.994 -1.21731 3.82811 0
M  V30 4210 N 403.2 -0.260841 2.89427 0
M  V30 4211 H 402.747 0.549884 2.51663 0
M  V30 4212 H 402.705 -1.12777 2.93477 0
M  V30 4213 N 406.477 -1.02803 1.19454 0
M  V30 4214 C 407.425 -2.13213 0.929673 0
M  V30 4215 C 408.419 -1.69011 -0.114806 0
M  V30 4216 O 409.625 -1.79967 0.0345147 0
M  V30 4217 H 406 -0.69662 0.28324 0
M  V30 4218 H 407.971 -2.32744 1.86743 0
M  V30 4219 C 406.72 -3.4429 0.485797 0
M  V30 4220 H 406.043 -3.7872 1.28105 0
M  V30 4221 H 407.483 -4.22638 0.339582 0
M  V30 4222 C 405.942 -3.27258 -0.800244 0
M  V30 4223 O 406.472 -3.55967 -1.86146 0
M  V30 4224 N 404.678 -2.80545 -0.75781 0
M  V30 4225 H 404.225 -2.57382 0.106039 0
M  V30 4226 H 404.183 -2.6953 -1.61867 0
M  V30 4227 N 407.956 -0.998596 -1.21925 0
M  V30 4228 C 409.233 -0.593401 -1.86382 0
M  V30 4229 C 409.613 0.92916 -1.89552 0
M  V30 4230 O 408.961 1.81347 -1.39017 0
M  V30 4231 C 409.171 -1.22039 -3.26967 0
M  V30 4232 C 410.519 -1.32449 -4.03413 0
M  V30 4233 O 411.543 -1.17522 -3.36254 0
M  V30 4234 O 410.402 -1.56395 -5.23644 0
M  V30 4235 H 407.496 -0.202385 -0.801854 0
M  V30 4236 H 410.042 -1.09484 -1.29659 0
M  V30 4237 H 408.814 -2.26158 -3.19325 0
M  V30 4238 H 408.437 -0.704906 -3.91301 0
M  V30 4239 N 409.434 1.37368 -0.772513 0
M  V30 4240 C 410.381 2.30262 -0.157488 0
M  V30 4241 C 411.351 1.51137 0.688965 0
M  V30 4242 O 412.536 1.79704 0.641168 0
M  V30 4243 C 409.676 3.37611 0.715045 0
M  V30 4244 C 408.789 4.31746 -0.148098 0
M  V30 4245 C 407.924 5.26171 0.729213 0
M  V30 4246 C 406.963 6.11948 -0.136418 0
M  V30 4247 N 406.1 6.98613 0.698914 0
M  V30 4248 H 410.94 2.82277 -0.955179 0
M  V30 4249 H 408.477 1.38957 -0.482631 0
M  V30 4250 H 410.435 3.98479 1.23575 0
M  V30 4251 H 409.065 2.86959 1.47833 0
M  V30 4252 H 408.117 3.72178 -0.786613 0
M  V30 4253 H 409.429 4.92084 -0.81579 0
M  V30 4254 H 408.583 5.92247 1.31637 0
M  V30 4255 H 407.322 4.66246 1.43059 0
M  V30 4256 H 406.327 5.4485 -0.736102 0
M  V30 4257 H 407.552 6.73945 -0.835134 0
M  V30 4258 H 405.498 6.41215 1.38489 0
M  V30 4259 H 405.415 7.55948 0.0885358 0
M  V30 4260 H 406.683 7.69077 1.27044 0
M  V30 4261 N 410.912 0.523116 1.48665 0
M  V30 4262 C 412.137 -0.0117284 2.07397 0
M  V30 4263 C 412.562 -1.28031 1.37803 0
M  V30 4264 O 411.92 -1.75836 0.441762 0
M  V30 4265 C 411.968 -0.225786 3.59892 0
M  V30 4266 O 411.072 -1.29592 3.91509 0
M  V30 4267 H 410.413 0.0360673 0.66302 0
M  V30 4268 H 412.943 0.729066 1.9117 0
M  V30 4269 H 412.953 -0.450552 4.05505 0
M  V30 4270 H 411.628 0.700944 4.09951 0
M  V30 4271 H 410.205 -1.05436 3.57684 0
M  V30 4272 N 412.39 -1.55475 0.257931 0
M  V30 4273 C 413.32 -2.24815 -0.630912 0
M  V30 4274 C 414.301 -1.23224 -1.17259 0
M  V30 4275 O 415.486 -1.51904 -1.20991 0
M  V30 4276 C 412.616 -2.95609 -1.82298 0
M  V30 4277 C 411.57 -4.03982 -1.41359 0
M  V30 4278 C 410.896 -4.6226 -2.68738 0
M  V30 4279 C 412.196 -5.19109 -0.57648 0
M  V30 4280 H 413.89 -2.99354 -0.0526878 0
M  V30 4281 H 411.436 -1.4398 -0.023901 0
M  V30 4282 H 413.389 -3.42822 -2.45054 0
M  V30 4283 H 412.113 -2.18577 -2.42676 0
M  V30 4284 H 410.772 -3.57555 -0.809324 0
M  V30 4285 H 410.42 -3.81915 -3.27338 0
M  V30 4286 H 410.12 -5.35424 -2.42065 0
M  V30 4287 H 411.644 -5.12212 -3.32372 0
M  V30 4288 H 413.058 -5.62479 -1.10861 0
M  V30 4289 H 411.455 -5.98729 -0.405351 0
M  V30 4290 H 412.525 -4.83174 0.408776 0
M  V30 4291 N 413.868 0.0150385 -1.57593 0
M  V30 4292 C 415.114 0.704043 -1.90187 0
M  V30 4293 C 415.447 1.74249 -0.857366 0
M  V30 4294 O 414.722 1.94092 0.125843 0
M  V30 4295 C 415.005 1.36087 -3.33395 0
M  V30 4296 C 414.858 0.334981 -4.48551 0
M  V30 4297 C 416.177 2.29112 -3.7576 0
M  V30 4298 H 413.296 0.254475 -0.691673 0
M  V30 4299 H 415.938 -0.0331678 -1.89971 0
M  V30 4300 H 414.088 1.98922 -3.3371 0
M  V30 4301 H 415.76 -0.292534 -4.60372 0
M  V30 4302 H 414.003 -0.344325 -4.32431 0
M  V30 4303 H 414.674 0.833316 -5.45674 0
M  V30 4304 H 417.15 1.76308 -3.76902 0
M  V30 4305 H 416.026 2.72043 -4.76743 0
M  V30 4306 H 416.287 3.16385 -3.08793 0
M  V30 4307 N 415.346 1.54954 0.287554 0
M  V30 4308 C 416.293 1.86834 1.35505 0
M  V30 4309 C 417.263 0.718452 1.49758 0
M  V30 4310 O 418.448 0.968358 1.644 0
M  V30 4311 C 415.588 2.13303 2.71286 0
M  V30 4312 C 414.701 3.40883 2.65373 0
M  V30 4313 C 413.836 3.57125 3.93236 0
M  V30 4314 C 412.875 4.78449 3.81776 0
M  V30 4315 N 412.012 4.91426 5.01443 0
M  V30 4316 H 416.852 2.77889 1.07619 0
M  V30 4317 H 414.389 1.37593 0.520241 0
M  V30 4318 H 416.347 2.26646 3.50267 0
M  V30 4319 H 414.977 1.25499 2.97405 0
M  V30 4320 H 414.029 3.36088 1.78182 0
M  V30 4321 H 415.341 4.29993 2.52799 0
M  V30 4322 H 414.495 3.70207 4.80658 0
M  V30 4323 H 413.234 2.66173 4.0866 0
M  V30 4324 H 412.239 4.65386 2.92738 0
M  V30 4325 H 413.464 5.70822 3.67884 0
M  V30 4326 H 411.41 4.03401 5.17304 0
M  V30 4327 H 411.327 5.74559 4.91343 0
M  V30 4328 H 412.595 5.08879 5.90477 0
M  V30 4329 N 416.824 -0.551391 1.4764 0
M  V30 4330 C 418.052 -1.33357 1.58189 0
M  V30 4331 C 418.467 -1.87342 0.234199 0
M  V30 4332 O 417.824 -1.65301 -0.77343 0
M  V30 4333 C 417.875 -2.49942 2.61173 0
M  V30 4334 O 417.596 -1.98187 3.90709 0
M  V30 4335 C 419.097 -3.42072 2.8196 0
M  V30 4336 H 416.317 -0.40631 0.533998 0
M  V30 4337 H 418.861 -0.667367 1.93304 0
M  V30 4338 H 417.016 -3.12489 2.28975 0
M  V30 4339 H 417.43 -2.74342 4.47031 0
M  V30 4340 H 418.904 -4.20278 3.57869 0
M  V30 4341 H 419.381 -3.95978 1.89995 0
M  V30 4342 H 419.987 -2.85336 3.15378 0
M  V30 4343 N 418.302 -1.35869 -0.798587 0
M  V30 4344 C 419.55 -1.29332 -1.55298 0
M  V30 4345 C 419.871 0.129729 -1.94568 0
M  V30 4346 O 419.141 1.06796 -1.6423 0
M  V30 4347 H 417.721 -0.475737 -0.57592 0
M  V30 4348 H 420.383 -1.70062 -0.952093 0
M  V30 4349 H 419.479 -1.91458 -2.46476 0
M  V30 4350 N 419.78 1.02168 -1.19998 0
M  V30 4351 C 420.743 2.08765 -0.94604 0
M  V30 4352 C 421.743 1.60618 0.0763846 0
M  V30 4353 O 422.933 1.73472 -0.159135 0
M  V30 4354 C 420.065 3.38262 -0.423255 0
M  V30 4355 H 421.258 2.32726 -1.89153 0
M  V30 4356 H 418.811 1.1889 -1.01464 0
M  V30 4357 H 419.546 3.19974 0.527938 0
M  V30 4358 H 419.331 3.74532 -1.16053 0
M  V30 4359 H 420.821 4.16759 -0.264911 0
M  V30 4360 N 421.258 1.00505 1.21394 0
M  V30 4361 C 422.19 0.52372 2.23136 0
M  V30 4362 C 423.203 -0.387714 1.58116 0
M  V30 4363 O 424.392 -0.187905 1.77508 0
M  V30 4364 C 421.492 -0.258885 3.3791 0
M  V30 4365 C 420.665 0.651634 4.32519 0
M  V30 4366 C 419.724 -0.0813705 5.26137 0
M  V30 4367 O 418.75 0.537295 5.66658 0
M  V30 4368 N 419.952 -1.35992 5.64346 0
M  V30 4369 H 422.717 1.39865 2.65062 0
M  V30 4370 H 420.278 0.881196 1.35818 0
M  V30 4371 H 422.27 -0.758208 3.97534 0
M  V30 4372 H 420.84 -1.035 2.94968 0
M  V30 4373 H 420.06 1.33145 3.71034 0
M  V30 4374 H 421.348 1.27129 4.92662 0
M  V30 4375 H 420.746 -1.88368 5.33417 0
M  V30 4376 H 419.303 -1.8042 6.26332 0
M  V30 4377 N 422.737 -1.36956 0.779787 0
M  V30 4378 C 423.667 -2.32761 0.185651 0
M  V30 4379 C 424.648 -1.56177 -0.673989 0
M  V30 4380 O 425.833 -1.84378 -0.609797 0
M  V30 4381 C 422.963 -3.40418 -0.687964 0
M  V30 4382 C 421.917 -4.27941 0.0710102 0
M  V30 4383 C 421.243 -5.26681 -0.922573 0
M  V30 4384 C 422.543 -5.07006 1.25467 0
M  V30 4385 H 424.237 -2.82698 0.986008 0
M  V30 4386 H 421.783 -1.3592 0.475592 0
M  V30 4387 H 423.736 -4.06423 -1.11348 0
M  V30 4388 H 422.46 -2.89025 -1.52093 0
M  V30 4389 H 421.119 -3.63478 0.47739 0
M  V30 4390 H 420.767 -4.71565 -1.7503 0
M  V30 4391 H 420.467 -5.86103 -0.419237 0
M  V30 4392 H 421.991 -5.9556 -1.34686 0
M  V30 4393 H 423.405 -5.66105 0.905401 0
M  V30 4394 H 421.802 -5.75793 1.69063 0
M  V30 4395 H 422.872 -4.3921 2.05481 0
M  V30 4396 N 424.215 -0.530993 -1.48385 0
M  V30 4397 C 425.461 0.00274135 -2.028 0
M  V30 4398 C 425.794 1.33838 -1.40716 0
M  V30 4399 O 425.069 1.86465 -0.553277 0
M  V30 4400 C 425.352 0.123676 -3.59888 0
M  V30 4401 C 425.205 -1.2372 -4.3245 0
M  V30 4402 C 426.524 0.849967 -4.31814 0
M  V30 4403 H 423.643 -0.000477758 -0.737 0
M  V30 4404 H 426.285 -0.688217 -1.77098 0
M  V30 4405 H 424.435 0.712157 -3.81917 0
M  V30 4406 H 426.107 -1.86687 -4.21836 0
M  V30 4407 H 424.35 -1.81882 -3.93829 0
M  V30 4408 H 425.021 -1.10557 -5.40815 0
M  V30 4409 H 427.497 0.350572 -4.14621 0
M  V30 4410 H 426.373 0.903486 -5.41413 0
M  V30 4411 H 426.634 1.90047 -3.99167 0
M  V30 4412 N 425.693 1.55336 -0.266172 0
M  V30 4413 C 426.97 1.91372 0.404486 0
M  V30 4414 C 427.35 1.18935 1.74407 0
M  V30 4415 O 426.698 0.3132 2.26343 0
M  V30 4416 C 426.908 3.44581 0.553593 0
M  V30 4417 C 428.256 4.16196 0.840618 0
M  V30 4418 O 429.28 3.50426 0.638739 0
M  V30 4419 O 428.139 5.32567 1.22618 0
M  V30 4420 H 425.233 0.797194 0.220025 0
M  V30 4421 H 427.779 1.66813 -0.311664 0
M  V30 4422 H 426.551 3.89357 -0.389498 0
M  V30 4423 H 426.174 3.75065 1.31955 0
M  V30 4424 N 427.171 -0.0066808 1.57599 0
M  V30 4425 C 428.101 -0.999296 2.11036 0
M  V30 4426 C 429.082 -1.36278 1.01795 0
M  V30 4427 O 430.267 -1.4477 1.29442 0
M  V30 4428 C 427.397 -2.29328 2.60818 0
M  V30 4429 C 426.351 -2.07159 3.74525 0
M  V30 4430 C 425.677 -3.42512 4.10596 0
M  V30 4431 C 426.977 -1.43959 5.02069 0
M  V30 4432 H 428.671 -0.554382 2.94223 0
M  V30 4433 H 426.217 -0.265221 1.41536 0
M  V30 4434 H 428.17 -2.99117 2.96828 0
M  V30 4435 H 426.894 -2.7592 1.74745 0
M  V30 4436 H 425.553 -1.39797 3.38899 0
M  V30 4437 H 425.201 -3.86795 3.21556 0
M  V30 4438 H 424.901 -3.28498 4.87199 0
M  V30 4439 H 426.425 -4.13628 4.4916 0
M  V30 4440 H 427.839 -2.03696 5.35893 0
M  V30 4441 H 426.236 -1.40452 5.83432 0
M  V30 4442 H 427.306 -0.407992 4.83181 0
M  V30 4443 N 428.649 -1.55105 -0.279332 0
M  V30 4444 C 429.879 -1.7917 -1.02867 0
M  V30 4445 C 430.287 -0.56204 -1.80659 0
M  V30 4446 O 429.63 0.478266 -1.77365 0
M  V30 4447 C 429.692 -2.96061 -2.03932 0
M  V30 4448 C 429.356 -4.33341 -1.45137 0
M  V30 4449 C 430.353 -5.12565 -0.870266 0
M  V30 4450 C 428.038 -4.79987 -1.48048 0
M  V30 4451 C 430.032 -6.36565 -0.326097 0
M  V30 4452 C 427.719 -6.03944 -0.932443 0
M  V30 4453 C 428.717 -6.8207 -0.356247 0
M  V30 4454 O 428.405 -8.03691 0.183412 0
M  V30 4455 H 428.137 -0.600796 -0.309872 0
M  V30 4456 H 430.691 -2.02932 -0.317468 0
M  V30 4457 H 428.921 -2.67975 -2.78794 0
M  V30 4458 H 430.61 -3.07506 -2.64943 0
M  V30 4459 H 431.376 -4.77661 -0.840521 0
M  V30 4460 H 427.255 -4.1919 -1.91835 0
M  V30 4461 H 430.799 -6.97489 0.124286 0
M  V30 4462 H 426.696 -6.3833 -0.959407 0
M  V30 4463 H 427.464 -8.18468 0.0721681 0
M  V30 4464 N 430.127 0.543554 -1.4793 0
M  V30 4465 C 431.376 1.29649 -1.54512 0
M  V30 4466 C 431.689 1.94382 -0.217973 0
M  V30 4467 O 432.895 2.71017 -0.161908 0
M  V30 4468 C 431.351 2.35175 -2.72435 0
M  V30 4469 C 430.959 1.76572 -4.11736 0
M  V30 4470 C 432.703 3.11564 -2.8832 0
M  V30 4471 C 430.61 2.79958 -5.20939 0
M  V30 4472 H 429.54 0.487541 -0.57517 0
M  V30 4473 H 432.191 0.575708 -1.74235 0
M  V30 4474 H 430.573 3.10229 -2.46118 0
M  V30 4475 H 431.747 1.07799 -4.48013 0
M  V30 4476 H 430.062 1.12722 -4.00852 0
M  V30 4477 H 432.659 3.88794 -3.67074 0
M  V30 4478 H 433.002 3.66594 -1.97268 0
M  V30 4479 H 433.535 2.43623 -3.14472 0
M  V30 4480 H 430.274 2.29766 -6.13912 0
M  V30 4481 H 429.794 3.47101 -4.89164 0
M  V30 4482 H 431.473 3.43198 -5.48474 0
M  V30 4483 N 431.605 1.3629 0.791371 0
M  V30 4484 C 432.882 1.20962 1.53712 0
M  V30 4485 C 433.262 -0.205021 2.10102 0
M  V30 4486 O 432.61 -1.21042 1.93807 0
M  V30 4487 C 432.82 2.29002 2.63361 0
M  V30 4488 C 434.168 2.65572 3.31295 0
M  V30 4489 O 435.192 2.2803 2.73643 0
M  V30 4490 O 434.051 3.3018 4.35481 0
M  V30 4491 H 431.145 0.47086 0.679867 0
M  V30 4492 H 433.691 1.48016 0.830021 0
M  V30 4493 H 432.463 3.2382 2.19674 0
M  V30 4494 H 432.086 2.03303 3.41692 0
M  V30 4495 N 433.083 -1.0153 1.20538 0
M  V30 4496 C 434.013 -2.11972 0.979295 0
M  V30 4497 C 434.994 -1.6985 -0.0921787 0
M  V30 4498 O 436.179 -1.94089 0.0655932 0
M  V30 4499 C 433.309 -3.43201 0.531984 0
M  V30 4500 C 432.263 -3.9907 1.54685 0
M  V30 4501 C 431.589 -5.26082 0.956127 0
M  V30 4502 C 432.889 -4.32313 2.93092 0
M  V30 4503 H 434.583 -2.31143 1.90298 0
M  V30 4504 H 432.129 -1.11079 0.916372 0
M  V30 4505 H 434.082 -4.1985 0.361044 0
M  V30 4506 H 432.806 -3.23792 -0.427327 0
M  V30 4507 H 431.465 -3.2453 1.70517 0
M  V30 4508 H 431.113 -5.02999 -0.0111538 0
M  V30 4509 H 430.813 -5.64426 1.63393 0
M  V30 4510 H 432.337 -6.05386 0.796284 0
M  V30 4511 H 433.751 -4.99845 2.80763 0
M  V30 4512 H 432.148 -4.81774 3.57791 0
M  V30 4513 H 433.218 -3.41025 3.44717 0
M  V30 4514 N 434.561 -1.01147 -1.20859 0
M  V30 4515 C 435.807 -0.698899 -1.90377 0
M  V30 4516 C 436.14 0.76904 -1.78324 0
M  V30 4517 O 435.415 1.55817 -1.16409 0
M  V30 4518 C 435.698 -1.12878 -3.41951 0
M  V30 4519 C 435.551 -2.65665 -3.62963 0
M  V30 4520 C 436.87 -0.696114 -4.3456 0
M  V30 4521 H 433.989 -0.255372 -0.691342 0
M  V30 4522 H 436.631 -1.25831 -1.42361 0
M  V30 4523 H 434.781 -0.652827 -3.82976 0
M  V30 4524 H 436.453 -3.21074 -3.31224 0
M  V30 4525 H 434.696 -3.06878 -3.06608 0
M  V30 4526 H 435.367 -2.90797 -4.69192 0
M  V30 4527 H 437.843 -1.10521 -4.01154 0
M  V30 4528 H 436.719 -1.025 -5.39245 0
M  V30 4529 H 436.98 0.402465 -4.40264 0
M  V30 4530 N 436.039 1.36541 -0.78704 0
M  V30 4531 C 436.986 2.30082 -0.181901 0
M  V30 4532 C 437.956 1.5186 0.672896 0
M  V30 4533 O 439.141 1.80374 0.622072 0
M  V30 4534 C 436.281 3.3835 0.679197 0
M  V30 4535 C 435.394 4.31565 -0.193882 0
M  V30 4536 C 434.529 5.26915 0.673364 0
M  V30 4537 C 433.568 6.11769 -0.201315 0
M  V30 4538 N 432.705 6.99315 0.624777 0
M  V30 4539 H 437.545 2.81248 -0.985064 0
M  V30 4540 H 435.082 1.38437 -0.497342 0
M  V30 4541 H 437.04 3.99767 1.19341 0
M  V30 4542 H 435.67 2.8851 1.44781 0
M  V30 4543 H 434.722 3.71323 -0.826044 0
M  V30 4544 H 436.034 4.91191 -0.867937 0
M  V30 4545 H 435.188 5.9361 1.25348 0
M  V30 4546 H 433.927 4.67737 1.38105 0
M  V30 4547 H 432.932 5.44039 -0.793849 0
M  V30 4548 H 434.157 6.73022 -0.906568 0
M  V30 4549 H 432.103 6.42648 1.3168 0
M  V30 4550 H 432.02 7.56 0.00835237 0
M  V30 4551 H 433.288 7.70382 1.18879 0
M  V30 4552 N 437.518 0.538854 1.48102 0
M  V30 4553 C 438.465 -0.219042 2.29758 0
M  V30 4554 C 439.435 -0.925562 1.37922 0
M  V30 4555 O 440.62 -0.924855 1.66886 0
M  V30 4556 C 437.76 -1.25452 3.2149 0
M  V30 4557 C 436.873 -0.555943 4.28408 0
M  V30 4558 C 436.008 -1.57512 5.0731 0
M  V30 4559 C 435.047 -0.860498 6.06021 0
M  V30 4560 N 434.184 -1.82564 6.77949 0
M  V30 4561 H 439.024 0.483449 2.94052 0
M  V30 4562 H 436.561 0.250247 1.44956 0
M  V30 4563 H 438.519 -1.86727 3.7308 0
M  V30 4564 H 437.149 -1.92528 2.591 0
M  V30 4565 H 436.201 0.170938 3.80016 0
M  V30 4566 H 437.513 0.00474616 4.988 0
M  V30 4567 H 436.667 -2.26191 5.62959 0
M  V30 4568 H 435.406 -2.16972 4.36778 0
M  V30 4569 H 434.411 -0.159686 5.49568 0
M  V30 4570 H 435.636 -0.271897 6.78555 0
M  V30 4571 H 433.582 -2.40915 6.10161 0
M  V30 4572 H 433.499 -1.31662 7.44447 0
M  V30 4573 H 434.767 -2.50414 7.38182 0
M  V30 4574 N 438.996 -1.55193 0.274407 0
M  V30 4575 C 440.226 -2.03692 -0.345442 0
M  V30 4576 C 440.634 -1.15224 -1.50067 0
M  V30 4577 O 439.977 -0.164749 -1.8296 0
M  V30 4578 C 440.039 -3.48325 -0.88939 0
M  V30 4579 C 439.703 -4.56794 0.137115 0
M  V30 4580 C 440.7 -5.11028 0.956378 0
M  V30 4581 C 438.385 -5.01568 0.27115 0
M  V30 4582 C 440.379 -6.08552 1.89587 0
M  V30 4583 C 438.066 -5.98918 1.21412 0
M  V30 4584 C 439.064 -6.52291 2.02498 0
M  V30 4585 O 438.752 -7.47738 2.952 0
M  V30 4586 H 438.484 -0.670893 -0.0829332 0
M  V30 4587 H 441.038 -2.01387 0.404056 0
M  V30 4588 H 439.268 -3.47867 -1.68895 0
M  V30 4589 H 440.957 -3.80167 -1.42225 0
M  V30 4590 H 441.723 -4.7725 0.863559 0
M  V30 4591 H 437.602 -4.5967 -0.349987 0
M  V30 4592 H 441.146 -6.50137 2.52918 0
M  V30 4593 H 437.043 -6.32114 1.30776 0
M  V30 4594 H 437.811 -7.65451 2.89874 0
M  V30 4595 N 440.474 -0.00167713 -1.576 0
M  V30 4596 C 441.885 0.54091 -1.78693 0
M  V30 4597 C 442.236 1.7386 -0.909247 0
M  V30 4598 O 441.361 2.16109 -0.112176 0
M  V30 4599 C 441.956 0.98806 -3.24072 0
M  V30 4600 C 440.515 1.47594 -3.46256 0
M  V30 4601 C 439.662 0.42792 -2.73978 0
M  V30 4602 H 442.613 -0.22784 -1.57056 0
M  V30 4603 H 442.634 1.85398 -3.32277 0
M  V30 4604 H 442.146 0.116164 -3.87926 0
M  V30 4605 H 440.247 2.36868 -2.87618 0
M  V30 4606 H 440.36 1.50225 -4.54939 0
M  V30 4607 H 438.724 0.889934 -2.38647 0
M  V30 4608 H 439.507 -0.435038 -3.40532 0
M  V30 4609 N 441.952 1.55251 0.271103 0
M  V30 4610 C 443.201 1.75151 1.00025 0
M  V30 4611 C 443.514 0.561041 1.87381 0
M  V30 4612 O 444.72 0.642506 2.63788 0
M  V30 4613 C 443.176 3.09999 1.82835 0
M  V30 4614 C 442.784 4.3662 1.00336 0
M  V30 4615 C 444.528 3.39249 2.55168 0
M  V30 4616 C 442.435 5.62506 1.82595 0
M  V30 4617 H 441.365 0.652877 0.377183 0
M  V30 4618 H 444.016 1.81708 0.255843 0
M  V30 4619 H 442.398 2.97485 2.61378 0
M  V30 4620 H 443.572 4.60055 0.261959 0
M  V30 4621 H 441.887 4.14527 0.394486 0
M  V30 4622 H 444.484 4.3051 3.1712 0
M  V30 4623 H 444.827 2.59467 3.2555 0
M  V30 4624 H 445.36 3.52869 1.83653 0
M  V30 4625 H 442.099 6.45041 1.16631 0
M  V30 4626 H 441.619 5.43211 2.54327 0
M  V30 4627 H 443.298 6.00875 2.39913 0
M  V30 4628 N 443.43 -0.535701 1.48216 0
M  V30 4629 C 444.676 -1.29375 1.56173 0
M  V30 4630 C 445.009 -1.92804 0.232429 0
M  V30 4631 O 444.284 -1.78992 -0.761048 0
M  V30 4632 C 444.567 -2.38747 2.69577 0
M  V30 4633 C 444.42 -1.80046 4.12193 0
M  V30 4634 C 445.739 -3.40551 2.78771 0
M  V30 4635 H 442.858 -0.469027 0.568491 0
M  V30 4636 H 445.5 -0.597358 1.80365 0
M  V30 4637 H 443.65 -2.98147 2.4908 0
M  V30 4638 H 445.322 -1.24742 4.44114 0
M  V30 4639 H 443.565 -1.10609 4.19462 0
M  V30 4640 H 444.236 -2.59212 4.87353 0
M  V30 4641 H 446.712 -2.91099 2.97322 0
M  V30 4642 H 445.588 -4.1448 3.59857 0
M  V30 4643 H 445.849 -4.00746 1.86696 0
M  V30 4644 N 444.908 -1.36708 -0.784132 0
M  V30 4645 C 446.133 -1.34565 -1.5782 0
M  V30 4646 C 446.558 0.0695257 -1.87971 0
M  V30 4647 O 445.916 1.04302 -1.48293 0
M  V30 4648 C 445.964 -2.17952 -2.87279 0
M  V30 4649 O 445.068 -1.57563 -3.81114 0
M  V30 4650 H 444.409 -0.460337 -0.478524 0
M  V30 4651 H 446.939 -1.80064 -0.971495 0
M  V30 4652 H 446.949 -2.30721 -3.365 0
M  V30 4653 H 445.624 -3.20823 -2.64661 0
M  V30 4654 H 444.201 -1.53764 -3.39722 0
M  V30 4655 N 446.386 1.0089 -1.21074 0
M  V30 4656 C 447.635 1.74019 -1.01981 0
M  V30 4657 C 447.948 1.90408 0.447665 0
M  V30 4658 O 449.154 2.60707 0.757906 0
M  V30 4659 C 447.61 3.13026 -1.77603 0
M  V30 4660 C 447.218 3.04623 -3.28495 0
M  V30 4661 C 448.962 3.90312 -1.66904 0
M  V30 4662 C 446.869 4.38685 -3.96623 0
M  V30 4663 H 445.799 0.652422 -0.377971 0
M  V30 4664 H 448.45 1.12755 -1.44771 0
M  V30 4665 H 446.832 3.74878 -1.27604 0
M  V30 4666 H 448.006 2.52032 -3.85767 0
M  V30 4667 H 446.321 2.40827 -3.39693 0
M  V30 4668 H 448.918 4.8951 -2.15138 0
M  V30 4669 H 449.261 4.11558 -0.62658 0
M  V30 4670 H 449.794 3.35104 -2.14359 0
M  V30 4671 H 446.533 4.22641 -5.01054 0
M  V30 4672 H 446.053 4.91252 -3.4414 0
M  V30 4673 H 447.732 5.075 -4.01314 0
M  V30 4674 N 447.864 1.01787 1.20321 0
M  V30 4675 C 448.774 0.598898 2.26827 0
M  V30 4676 C 449.79 -0.36418 1.70146 0
M  V30 4677 O 450.966 -0.224812 2.00141 0
M  V30 4678 C 448.031 -0.0549769 3.46656 0
M  V30 4679 C 447.092 0.954205 4.18561 0
M  V30 4680 C 446.325 0.331439 5.3267 0
M  V30 4681 O 446.548 -0.86851 5.63749 0
M  V30 4682 O 445.482 1.0488 5.92692 0
M  V30 4683 H 449.308 1.48562 2.64883 0
M  V30 4684 H 446.893 0.787434 1.26964 0
M  V30 4685 H 448.775 -0.420102 4.19301 0
M  V30 4686 H 447.45 -0.915876 3.10473 0
M  V30 4687 H 446.357 1.37072 3.48083 0
M  V30 4688 H 447.69 1.78511 4.58688 0
M  V30 4689 N 449.342 -1.36122 0.79427 0
M  V30 4690 C 450.619 -1.93398 0.292685 0
M  V30 4691 C 450.999 -1.72567 -1.21589 0
M  V30 4692 O 450.347 -1.08745 -2.00965 0
M  V30 4693 C 450.557 -3.42099 0.690614 0
M  V30 4694 C 451.905 -4.19231 0.673105 0
M  V30 4695 O 452.929 -3.50559 0.631389 0
M  V30 4696 O 451.788 -5.41732 0.720362 0
M  V30 4697 H 448.882 -0.823712 0.0736693 0
M  V30 4698 H 451.428 -1.45273 0.87714 0
M  V30 4699 H 450.2 -3.50938 1.73085 0
M  V30 4700 H 449.823 -3.97519 0.0803036 0
M  V30 4701 N 450.82 -0.546701 -1.47814 0
M  V30 4702 C 452.231 -0.110564 -1.86372 0
M  V30 4703 C 452.582 1.31678 -1.45449 0
M  V30 4704 O 451.707 1.98889 -0.852758 0
M  V30 4705 C 452.302 -0.193873 -3.38245 0
M  V30 4706 C 450.861 0.187164 -3.75934 0
M  V30 4707 C 450.008 -0.546166 -2.71868 0
M  V30 4708 H 452.959 -0.757022 -1.39481 0
M  V30 4709 H 452.98 0.590218 -3.75895 0
M  V30 4710 H 452.492 -1.23282 -3.67999 0
M  V30 4711 H 450.593 1.22762 -3.51796 0
M  V30 4712 H 450.706 -0.164083 -4.78819 0
M  V30 4713 H 449.07 0.00953904 -2.54698 0
M  V30 4714 H 449.853 -1.58606 -3.04465 0
M  V30 4715 N 452.299 1.55045 -0.282633 0
M  V30 4716 C 453.546 1.9976 0.33199 0
M  V30 4717 C 453.874 1.17105 1.55295 0
M  V30 4718 O 453.129 0.230599 1.94337 0
M  V30 4719 C 453.428 3.49422 0.750938 0
M  V30 4720 C 453.094 4.4941 -0.366228 0
M  V30 4721 C 451.756 4.76471 -0.672964 0
M  V30 4722 C 454.108 5.09054 -1.11864 0
M  V30 4723 C 451.436 5.60442 -1.73556 0
M  V30 4724 C 453.788 5.9418 -2.17102 0
M  V30 4725 C 452.452 6.19558 -2.48402 0
M  V30 4726 H 451.722 0.730974 0.121484 0
M  V30 4727 H 454.369 1.8732 -0.39791 0
M  V30 4728 H 452.674 3.59377 1.56063 0
M  V30 4729 H 454.371 3.81432 1.23736 0
M  V30 4730 H 450.961 4.2844 -0.117041 0
M  V30 4731 H 455.145 4.88165 -0.894925 0
M  V30 4732 H 450.401 5.78349 -1.983 0
M  V30 4733 H 454.575 6.39427 -2.75873 0
M  V30 4734 H 452.202 6.84417 -3.30874 0
M  V30 4735 N 453.777 0.010035 1.57597 0
M  V30 4736 C 455.054 -0.710296 1.82248 0
M  V30 4737 C 455.434 -1.91426 0.889911 0
M  V30 4738 O 454.782 -2.28424 -0.0590292 0
M  V30 4739 C 454.992 -1.10655 3.30993 0
M  V30 4740 C 456.34 -1.50621 3.96987 0
M  V30 4741 O 457.364 -1.20007 3.35375 0
M  V30 4742 O 456.223 -2.07587 5.05539 0
M  V30 4743 H 453.317 -0.34673 0.750804 0
M  V30 4744 H 455.863 0.0362578 1.69661 0
M  V30 4745 H 454.635 -0.248826 3.90508 0
M  V30 4746 H 454.258 -1.91189 3.48615 0
M  V30 4747 N 455.255 -1.55392 -0.262866 0
M  V30 4748 C 456.187 -1.85392 -1.34768 0
M  V30 4749 C 457.2 -0.739069 -1.45057 0
M  V30 4750 O 458.389 -1.01703 -1.46693 0
M  V30 4751 C 455.489 -2.01088 -2.72795 0
M  V30 4752 C 454.662 -3.31828 -2.84972 0
M  V30 4753 C 453.721 -3.37464 -4.03738 0
M  V30 4754 O 452.747 -4.10778 -3.94018 0
M  V30 4755 N 453.949 -2.65599 -5.16176 0
M  V30 4756 H 456.714 -2.79029 -1.09375 0
M  V30 4757 H 454.275 -1.55434 -0.452981 0
M  V30 4758 H 456.267 -2.02217 -3.50557 0
M  V30 4759 H 454.837 -1.1427 -2.90966 0
M  V30 4760 H 454.057 -3.43152 -1.94012 0
M  V30 4761 H 455.345 -4.18032 -2.90045 0
M  V30 4762 H 454.743 -2.05736 -5.26962 0
M  V30 4763 H 453.3 -2.72439 -5.92132 0
M  V30 4764 N 456.733 0.527833 -1.48498 0
M  V30 4765 C 458.01 1.28905 -1.47115 0
M  V30 4766 C 458.39 2.10297 -0.184007 0
M  V30 4767 O 457.738 2.12728 0.834218 0
M  V30 4768 C 457.948 2.16866 -2.73441 0
M  V30 4769 C 459.296 2.76936 -3.21857 0
M  V30 4770 O 460.32 2.27152 -2.74373 0
M  V30 4771 O 459.179 3.67496 -4.04486 0
M  V30 4772 H 456.273 0.581918 -0.587623 0
M  V30 4773 H 458.819 0.544311 -1.60734 0
M  V30 4774 H 457.591 1.56521 -3.58632 0
M  V30 4775 H 457.214 2.98583 -2.62553 0
M  V30 4776 N 458.211 1.37122 0.776871 0
M  V30 4777 C 459.488 1.22586 1.52421 0
M  V30 4778 C 459.868 -0.182726 2.10308 0
M  V30 4779 O 459.216 -1.18979 1.9508 0
M  V30 4780 C 459.426 2.31782 2.60918 0
M  V30 4781 C 460.774 2.69071 3.2846 0
M  V30 4782 O 461.798 2.3092 2.71209 0
M  V30 4783 O 460.657 3.3478 4.31954 0
M  V30 4784 H 457.751 0.478045 0.674835 0
M  V30 4785 H 460.297 1.48888 0.814275 0
M  V30 4786 H 459.069 3.26131 2.16227 0
M  V30 4787 H 458.692 2.06916 3.39517 0
M  V30 4788 N 459.689 -1.00246 1.21608 0
M  V30 4789 C 460.935 -1.74417 1.04643 0
M  V30 4790 C 461.29 -1.87862 -0.415387 0
M  V30 4791 O 460.583 -1.40373 -1.30407 0
M  V30 4792 C 460.777 -3.15448 1.68009 0
M  V30 4793 C 460.606 -3.15755 3.20201 0
M  V30 4794 C 459.376 -3.2219 3.89258 0
M  V30 4795 C 461.574 -3.00668 4.17257 0
M  V30 4796 N 459.556 -3.1215 5.28617 0
M  V30 4797 C 460.927 -2.98553 5.43384 0
M  V30 4798 C 462.982 -2.84989 4.08272 0
M  V30 4799 C 461.685 -2.82364 6.61561 0
M  V30 4800 C 463.711 -2.70158 5.26088 0
M  V30 4801 C 463.073 -2.68721 6.51128 0
M  V30 4802 H 459.172 -0.648317 0.437274 0
M  V30 4803 H 461.756 -1.19129 1.54001 0
M  V30 4804 H 459.927 -3.69001 1.21215 0
M  V30 4805 H 461.659 -3.78128 1.44226 0
M  V30 4806 H 458.414 -3.29488 3.40198 0
M  V30 4807 H 458.838 -3.10465 6.01615 0
M  V30 4808 H 463.48 -2.84904 3.12393 0
M  V30 4809 H 461.198 -2.81196 7.57598 0
M  V30 4810 H 464.784 -2.59022 5.20959 0
M  V30 4811 H 463.664 -2.57382 7.40759 0
M  V30 4812 N 461.167 -1.02423 -1.1978 0
M  V30 4813 C 462.077 -0.610919 -2.26506 0
M  V30 4814 C 463.093 0.355152 -1.70337 0
M  V30 4815 O 464.269 0.214195 -2.00258 0
M  V30 4816 C 461.334 0.0365921 -3.46681 0
M  V30 4817 C 460.395 -0.976389 -4.18049 0
M  V30 4818 C 459.628 -0.359683 -5.32487 0
M  V30 4819 O 459.851 0.838601 -5.64202 0
M  V30 4820 O 458.785 -1.08022 -5.92127 0
M  V30 4821 H 462.611 -1.49965 -2.64091 0
M  V30 4822 H 460.196 -0.794156 -1.26545 0
M  V30 4823 H 462.078 0.39786 -4.19518 0
M  V30 4824 H 460.753 0.899398 -3.10954 0
M  V30 4825 H 459.66 -1.38916 -3.47352 0
M  V30 4826 H 460.993 -1.80941 -4.57735 0
M  V30 4827 N 462.645 1.35699 -0.801477 0
M  V30 4828 C 463.593 2.3177 -0.196317 0
M  V30 4829 C 464.587 1.56388 0.651081 0
M  V30 4830 O 465.793 1.71557 0.544815 0
M  V30 4831 H 462.168 0.750669 -0.0447189 0
M  V30 4832 H 464.139 2.8036 -1.02181 0
M  V30 4833 C 462.888 3.41671 0.644702 0
M  V30 4834 H 462.211 3.998 0.0019921 0
M  V30 4835 H 463.651 4.11184 1.0346 0
M  V30 4836 C 462.11 2.84271 1.80808 0
M  V30 4837 O 462.64 2.77408 2.9053 0
M  V30 4838 N 460.846 2.41391 1.61799 0
M  V30 4839 H 460.393 2.47173 0.725493 0
M  V30 4840 H 460.351 2.03334 2.39797 0
M  V30 4841 N 464.123 0.554532 1.47522 0
M  V30 4842 C 465.353 0.0342074 2.06572 0
M  V30 4843 C 465.761 -1.26375 1.40805 0
M  V30 4844 O 465.104 -1.7683 0.49769 0
M  V30 4845 C 465.166 -0.235096 3.5873 0
M  V30 4846 C 464.83 0.973024 4.46521 0
M  V30 4847 C 465.827 1.8779 4.848 0
M  V30 4848 C 463.512 1.18694 4.88075 0
M  V30 4849 C 465.506 2.98039 5.63428 0
M  V30 4850 C 463.193 2.29254 5.66468 0
M  V30 4851 C 464.191 3.18757 6.04055 0
M  V30 4852 O 463.879 4.27401 6.8087 0
M  V30 4853 H 463.611 0.041587 0.67472 0
M  V30 4854 H 466.165 0.766748 1.90552 0
M  V30 4855 H 464.395 -1.02191 3.72953 0
M  V30 4856 H 466.084 -0.700477 3.9981 0
M  V30 4857 H 466.85 1.72467 4.53299 0
M  V30 4858 H 462.729 0.49947 4.58286 0
M  V30 4859 H 466.273 3.67926 5.92685 0
M  V30 4860 H 462.17 2.4455 5.97382 0
M  V30 4861 H 462.938 4.25415 6.9926 0
M  V30 4862 N 465.601 -1.54893 0.290851 0
M  V30 4863 C 466.564 -2.21824 -0.576784 0
M  V30 4864 C 467.564 -1.20104 -1.06919 0
M  V30 4865 O 468.754 -1.44906 -0.966843 0
M  V30 4866 C 465.886 -2.89662 -1.79747 0
M  V30 4867 H 467.079 -2.99899 0.00784051 0
M  V30 4868 H 464.632 -1.56245 0.0415934 0
M  V30 4869 H 465.367 -2.15639 -2.42219 0
M  V30 4870 H 465.152 -3.64219 -1.45214 0
M  V30 4871 H 466.642 -3.4075 -2.4141 0
M  V30 4872 N 467.08 -0.0183926 -1.57589 0
M  V30 4873 C 468.027 0.967022 -2.09565 0
M  V30 4874 C 468.997 1.32983 -0.995225 0
M  V30 4875 O 470.182 1.42501 -1.26878 0
M  V30 4876 C 467.322 2.24772 -2.61861 0
M  V30 4877 C 466.435 1.94232 -3.85873 0
M  V30 4878 C 465.57 3.16518 -4.26603 0
M  V30 4879 C 464.609 2.81748 -5.43401 0
M  V30 4880 N 463.746 3.96626 -5.79338 0
M  V30 4881 H 468.586 0.516874 -2.93483 0
M  V30 4882 H 466.123 0.243544 -1.4507 0
M  V30 4883 H 468.081 2.99667 -2.90268 0
M  V30 4884 H 466.711 2.67423 -1.8079 0
M  V30 4885 H 465.763 1.09625 -3.64262 0
M  V30 4886 H 467.075 1.64616 -4.70853 0
M  V30 4887 H 466.229 3.99743 -4.56389 0
M  V30 4888 H 464.968 3.49286 -3.40368 0
M  V30 4889 H 463.973 1.96933 -5.1332 0
M  V30 4890 H 465.198 2.50207 -6.31327 0
M  V30 4891 H 463.144 4.29257 -4.96059 0
M  V30 4892 H 463.061 3.70598 -6.58933 0
M  V30 4893 H 464.329 4.80586 -6.13724 0
M  V30 4894 N 468.558 1.5553 0.254621 0
M  V30 4895 C 469.488 1.9268 1.31897 0
M  V30 4896 C 470.469 0.790797 1.506 0
M  V30 4897 O 471.654 1.05045 1.63337 0
M  V30 4898 C 468.784 2.21477 2.67517 0
M  V30 4899 C 467.738 3.37256 2.63519 0
M  V30 4900 C 467.064 3.51576 4.02862 0
M  V30 4901 C 468.364 4.73157 2.21179 0
M  V30 4902 H 470.058 2.81832 1.01051 0
M  V30 4903 H 467.604 1.35599 0.484662 0
M  V30 4904 H 469.557 2.46055 3.42104 0
M  V30 4905 H 468.281 1.29144 2.99982 0
M  V30 4906 H 466.94 3.12675 1.9139 0
M  V30 4907 H 466.588 2.56676 4.32581 0
M  V30 4908 H 466.288 4.2943 4.01078 0
M  V30 4909 H 467.812 3.78467 4.79161 0
M  V30 4910 H 469.226 4.97158 2.85494 0
M  V30 4911 H 467.623 5.54058 2.30521 0
M  V30 4912 H 468.693 4.70739 1.16332 0
M  V30 4913 N 470.036 -0.519951 1.48776 0
M  V30 4914 C 471.264 -1.29971 1.60982 0
M  V30 4915 C 471.679 -1.86803 0.273885 0
M  V30 4916 O 471.036 -1.66904 -0.738193 0
M  V30 4917 C 471.087 -2.44346 2.66415 0
M  V30 4918 O 470.808 -1.89855 3.94825 0
M  V30 4919 C 472.309 -3.36014 2.89153 0
M  V30 4920 H 469.529 -0.394891 0.542496 0
M  V30 4921 H 472.073 -0.626214 1.94676 0
M  V30 4922 H 470.228 -3.07562 2.35552 0
M  V30 4923 H 470.642 -2.64798 4.5275 0
M  V30 4924 H 472.116 -4.12593 3.66703 0
M  V30 4925 H 472.593 -3.91859 1.98351 0
M  V30 4926 H 473.199 -2.78582 3.21359 0
M  V30 4927 N 471.514 -1.37532 -0.769588 0
M  V30 4928 C 472.477 -1.33292 -1.86456 0
M  V30 4929 C 473.477 -0.236537 -1.59051 0
M  V30 4930 O 474.667 -0.492511 -1.67093 0
M  V30 4931 C 471.799 -1.07118 -3.23633 0
M  V30 4932 H 472.992 -2.30692 -1.91628 0
M  V30 4933 H 470.545 -1.22593 -0.969572 0
M  V30 4934 H 471.28 -0.102578 -3.24138 0
M  V30 4935 H 471.065 -1.86479 -3.44917 0
M  V30 4936 H 472.555 -1.06806 -4.03711 0
M  V30 4937 N 472.992 0.995999 -1.22138 0
M  V30 4938 C 473.955 2.06711 -0.990109 0
M  V30 4939 C 474.955 1.60744 0.0422978 0
M  V30 4940 O 476.145 1.73095 -0.195895 0
M  V30 4941 C 473.277 3.37288 -0.49491 0
M  V30 4942 H 474.47 2.28661 -1.94047 0
M  V30 4943 H 472.023 1.16711 -1.03963 0
M  V30 4944 H 472.758 3.21022 0.459948 0
M  V30 4945 H 472.543 3.71986 -1.23971 0
M  V30 4946 H 474.033 4.16103 -0.353253 0
M  V30 4947 N 474.47 1.03057 1.19235 0
M  V30 4948 C 475.719 0.72326 1.88287 0
M  V30 4949 C 476.032 -0.751333 1.80594 0
M  V30 4950 O 477.238 -1.17176 2.44912 0
M  V30 4951 C 475.694 1.24338 3.3774 0
M  V30 4952 C 475.302 2.74587 3.53986 0
M  V30 4953 C 477.046 1.01213 4.12257 0
M  V30 4954 C 474.953 3.20009 4.97341 0
M  V30 4955 H 473.883 0.266848 0.705201 0
M  V30 4956 H 476.534 1.24509 1.34795 0
M  V30 4957 H 474.916 0.649457 3.90638 0
M  V30 4958 H 476.09 3.39649 3.11408 0
M  V30 4959 H 474.405 2.9601 2.9286 0
M  V30 4960 H 477.002 1.32675 5.17978 0
M  V30 4961 H 477.345 -0.051001 4.16269 0
M  V30 4962 H 477.878 1.57014 3.65501 0
M  V30 4963 H 474.617 4.25659 4.98493 0
M  V30 4964 H 474.137 2.59676 5.40674 0
M  V30 4965 H 475.816 3.13447 5.66003 0
M  V30 4966 N 475.948 -1.35272 0.808662 0
M  V30 4967 C 477.196 -1.98316 0.389233 0
M  V30 4968 C 477.517 -1.64465 -1.04767 0
M  V30 4969 O 476.787 -0.928175 -1.72516 0
M  V30 4970 H 475.367 -0.733585 0.140935 0
M  V30 4971 H 478.029 -1.6515 1.03496 0
M  V30 4972 H 477.125 -3.08123 0.496631 0
M  V30 4973 N 477.426 -0.562348 -1.47226 0
M  V30 4974 C 478.373 0.182461 -2.30078 0
M  V30 4975 C 479.343 0.903503 -1.39377 0
M  V30 4976 O 480.528 0.898188 -1.68337 0
M  V30 4977 C 477.668 1.20322 -3.23445 0
M  V30 4978 C 476.781 0.487717 -4.29238 0
M  V30 4979 C 475.916 1.49422 -5.09752 0
M  V30 4980 C 474.955 0.763976 -6.07314 0
M  V30 4981 N 474.092 1.71755 -6.80768 0
M  V30 4982 H 478.932 -0.530169 -2.93246 0
M  V30 4983 H 476.469 -0.273276 -1.44539 0
M  V30 4984 H 478.427 1.80768 -3.76004 0
M  V30 4985 H 477.057 1.88382 -2.6213 0
M  V30 4986 H 476.109 -0.231374 -3.79696 0
M  V30 4987 H 477.421 -0.0841003 -4.98729 0
M  V30 4988 H 476.575 2.17206 -5.66486 0
M  V30 4989 H 475.314 2.09995 -4.40174 0
M  V30 4990 H 474.319 0.0722344 -5.49753 0
M  V30 4991 H 475.544 0.16391 -6.78902 0
M  V30 4992 H 473.49 2.31177 -6.13916 0
M  V30 4993 H 473.407 1.19802 -7.46447 0
M  V30 4994 H 474.675 2.38638 -7.42073 0
M  V30 4995 N 478.904 1.54736 -0.299062 0
M  V30 4996 C 480.181 1.92187 0.363802 0
M  V30 4997 C 480.561 1.22607 1.71845 0
M  V30 4998 O 479.909 0.361141 2.25628 0
M  V30 4999 C 480.119 3.45678 0.480377 0
M  V30 5000 C 481.467 4.17885 0.752147 0
M  V30 5001 O 482.491 3.51702 0.564264 0
M  V30 5002 O 481.35 5.35048 1.11294 0
M  V30 5003 H 478.444 0.801681 0.203066 0
M  V30 5004 H 480.99 1.66115 -0.346978 0
M  V30 5005 H 479.762 3.88443 -0.471999 0
M  V30 5006 H 479.385 3.77779 1.2397 0
M  V30 5007 N 480.382 0.0267497 1.57577 0
M  V30 5008 C 481.628 -0.653371 1.91987 0
M  V30 5009 C 481.961 -1.71915 0.903263 0
M  V30 5010 O 481.236 -1.94358 -0.0743387 0
M  V30 5011 C 481.519 -1.272 3.36886 0
M  V30 5012 C 481.372 -0.215938 4.49281 0
M  V30 5013 C 482.691 -2.19069 3.81703 0
M  V30 5014 H 479.81 -0.236047 0.698177 0
M  V30 5015 H 482.452 0.0835236 1.89816 0
M  V30 5016 H 480.602 -1.90005 3.38866 0
M  V30 5017 H 482.274 0.41449 4.59434 0
M  V30 5018 H 480.517 0.458855 4.31366 0
M  V30 5019 H 481.188 -0.688347 5.47691 0
M  V30 5020 H 483.664 -1.66253 3.81444 0
M  V30 5021 H 482.54 -2.59307 4.83788 0
M  V30 5022 H 482.801 -3.08087 3.17072 0
M  V30 5023 N 481.861 -1.55662 -0.24637 0
M  V30 5024 C 482.793 -1.86811 -1.32794 0
M  V30 5025 C 483.806 -0.754413 -1.44265 0
M  V30 5026 O 484.995 -1.03253 -1.45606 0
M  V30 5027 C 482.095 -2.0397 -2.70646 0
M  V30 5028 C 481.268 -3.34832 -2.81436 0
M  V30 5029 C 480.327 -3.41727 -4.00136 0
M  V30 5030 O 479.353 -4.14934 -3.89639 0
M  V30 5031 N 480.555 -2.71058 -5.1333 0
M  V30 5032 H 483.32 -2.80174 -1.06409 0
M  V30 5033 H 480.881 -1.55906 -0.43647 0
M  V30 5034 H 482.873 -2.05924 -3.48393 0
M  V30 5035 H 481.443 -1.1735 -2.89738 0
M  V30 5036 H 480.663 -3.4519 -1.90361 0
M  V30 5037 H 481.951 -4.21085 -2.85595 0
M  V30 5038 H 481.349 -2.11314 -5.2475 0
M  V30 5039 H 479.906 -2.78704 -5.89209 0
M  V30 5040 N 483.339 0.512053 -1.4905 0
M  V30 5041 C 484.588 1.26343 -1.57227 0
M  V30 5042 C 484.901 1.93876 -0.259155 0
M  V30 5043 O 486.107 2.70612 -0.219358 0
M  V30 5044 C 484.563 2.29343 -2.77362 0
M  V30 5045 C 484.171 1.67799 -4.15388 0
M  V30 5046 C 485.915 3.05378 -2.94864 0
M  V30 5047 C 483.822 2.68845 -5.2676 0
M  V30 5048 H 482.752 0.475231 -0.585382 0
M  V30 5049 H 485.403 0.53862 -1.75417 0
M  V30 5050 H 483.785 3.04938 -2.52643 0
M  V30 5051 H 484.959 0.982715 -4.50199 0
M  V30 5052 H 483.274 1.04194 -4.03153 0
M  V30 5053 H 485.871 3.80921 -3.75238 0
M  V30 5054 H 486.214 3.62327 -2.05 0
M  V30 5055 H 486.747 2.36898 -3.19569 0
M  V30 5056 H 483.486 2.16692 -6.18647 0
M  V30 5057 H 483.006 3.36647 -4.96416 0
M  V30 5058 H 484.685 3.31487 -5.5563 0
M  V30 5059 N 484.817 1.37938 0.762283 0
M  V30 5060 C 486.063 1.33866 1.52341 0
M  V30 5061 C 486.396 -0.0738961 1.94059 0
M  V30 5062 O 485.671 -1.03326 1.64785 0
M  V30 5063 C 485.954 2.28644 2.78197 0
M  V30 5064 C 485.807 3.78722 2.42672 0
M  V30 5065 C 487.126 2.21702 3.80179 0
M  V30 5066 H 484.245 0.487593 0.55265 0
M  V30 5067 H 486.887 1.68717 0.873767 0
M  V30 5068 H 485.037 1.99055 3.33631 0
M  V30 5069 H 486.709 4.18948 1.93081 0
M  V30 5070 H 484.952 3.96827 1.75244 0
M  V30 5071 H 485.623 4.40486 3.3268 0
M  V30 5072 H 488.099 2.47805 3.34263 0
M  V30 5073 H 486.975 2.90143 4.65949 0
M  V30 5074 H 487.236 1.21301 4.25133 0
M  V30 5075 N 486.295 -0.989507 1.22664 0
M  V30 5076 C 487.543 -1.72612 1.05117 0
M  V30 5077 C 487.864 -1.90552 -0.414131 0
M  V30 5078 O 487.134 -1.4676 -1.29762 0
M  V30 5079 H 485.714 -0.639555 0.385977 0
M  V30 5080 H 488.376 -1.19158 1.54232 0
M  V30 5081 H 487.472 -2.71926 1.53175 0
M  V30 5082 N 487.773 -1.03688 -1.18687 0
M  V30 5083 C 489.05 -0.652397 -1.84399 0
M  V30 5084 C 489.43 0.868386 -1.92412 0
M  V30 5085 O 488.778 1.76832 -1.44716 0
M  V30 5086 C 488.988 -1.3238 -3.22919 0
M  V30 5087 C 490.336 -1.45216 -3.98996 0
M  V30 5088 O 491.36 -1.2816 -3.32345 0
M  V30 5089 O 490.219 -1.72975 -5.18403 0
M  V30 5090 H 487.313 -0.227793 -0.795009 0
M  V30 5091 H 489.859 -1.13553 -1.2611 0
M  V30 5092 H 488.631 -2.36202 -3.11968 0
M  V30 5093 H 488.254 -0.829039 -3.88861 0
M  V30 5094 N 489.251 1.34841 -0.815825 0
M  V30 5095 C 490.528 1.92908 -0.323416 0
M  V30 5096 C 490.908 1.74479 1.18828 0
M  V30 5097 O 490.256 1.11928 1.99209 0
M  V30 5098 C 490.466 3.40957 -0.744952 0
M  V30 5099 C 491.814 4.18107 -0.739716 0
M  V30 5100 O 492.838 3.49511 -0.68708 0
M  V30 5101 O 491.697 5.40517 -0.806456 0
M  V30 5102 H 488.791 0.822436 -0.0867646 0
M  V30 5103 H 491.337 1.4386 -0.90014 0
M  V30 5104 H 490.109 3.4814 -1.78646 0
M  V30 5105 H 489.732 3.97341 -0.143535 0
M  V30 5106 N 490.729 0.570148 1.46925 0
M  V30 5107 C 491.659 -0.158274 2.32963 0
M  V30 5108 C 492.64 -0.896093 1.44583 0
M  V30 5109 O 493.825 -0.874022 1.7342 0
M  V30 5110 C 490.955 -1.18055 3.26619 0
M  V30 5111 C 489.909 -0.558379 4.24342 0
M  V30 5112 C 489.235 -1.68623 5.07415 0
M  V30 5113 C 490.535 0.496295 5.19937 0
M  V30 5114 H 492.229 0.560046 2.94115 0
M  V30 5115 H 489.775 0.270775 1.41431 0
M  V30 5116 H 491.728 -1.69841 3.85658 0
M  V30 5117 H 490.452 -1.92899 2.63548 0
M  V30 5118 H 489.111 -0.0617157 3.66548 0
M  V30 5119 H 488.759 -2.42402 4.40738 0
M  V30 5120 H 488.459 -1.27564 5.73586 0
M  V30 5121 H 489.983 -2.20709 5.69315 0
M  V30 5122 H 491.397 0.0640052 5.73264 0
M  V30 5123 H 489.794 0.82649 5.94381 0
M  V30 5124 H 490.864 1.38735 4.6463 0
M  V30 5125 N 492.207 -1.54576 0.307264 0
M  V30 5126 C 493.137 -2.26708 -0.55907 0
M  V30 5127 C 494.118 -1.26893 -1.1328 0
M  V30 5128 O 495.303 -1.55677 -1.16097 0
M  V30 5129 C 492.433 -3.01259 -1.72801 0
M  V30 5130 C 491.387 -4.08275 -1.28435 0
M  V30 5131 C 490.713 -4.70575 -2.53895 0
M  V30 5132 C 492.013 -5.2068 -0.411038 0
M  V30 5133 H 493.707 -2.9937 0.042576 0
M  V30 5134 H 491.253 -1.43983 0.0219173 0
M  V30 5135 H 493.206 -3.50444 -2.34023 0
M  V30 5136 H 491.93 -2.26187 -2.356 0
M  V30 5137 H 490.589 -3.59949 -0.695161 0
M  V30 5138 H 490.237 -3.92136 -3.15021 0
M  V30 5139 H 489.937 -5.42854 -2.24908 0
M  V30 5140 H 491.461 -5.22527 -3.15908 0
M  V30 5141 H 492.875 -5.65721 -0.929097 0
M  V30 5142 H 491.272 -5.99716 -0.214664 0
M  V30 5143 H 492.342 -4.81629 0.562287 0
M  V30 5144 N 493.685 -0.035106 -1.57561 0
M  V30 5145 C 494.931 0.64318 -1.92331 0
M  V30 5146 C 495.264 1.71434 -0.912368 0
M  V30 5147 O 494.539 1.94395 0.0640303 0
M  V30 5148 C 494.822 1.25411 -3.37556 0
M  V30 5149 C 494.675 0.192109 -4.4939 0
M  V30 5150 C 495.994 2.17041 -3.82859 0
M  V30 5151 H 493.113 0.232341 -0.699419 0
M  V30 5152 H 495.755 -0.0935889 -1.89769 0
M  V30 5153 H 493.905 1.88205 -3.39869 0
M  V30 5154 H 495.577 -0.438849 -4.59208 0
M  V30 5155 H 493.82 -0.481725 -4.31117 0
M  V30 5156 H 494.491 0.659292 -5.48049 0
M  V30 5157 H 496.967 1.64228 -3.8232 0
M  V30 5158 H 495.843 2.56738 -4.85157 0
M  V30 5159 H 496.104 3.06401 -3.18702 0
M  V30 5160 N 495.163 1.55791 0.238111 0
M  V30 5161 C 496.391 1.82098 0.982233 0
M  V30 5162 C 496.806 0.612025 1.78605 0
M  V30 5163 O 496.163 -0.419381 1.77616 0
M  V30 5164 C 496.214 3.0673 1.91309 0
M  V30 5165 O 495.935 4.2296 1.14179 0
M  V30 5166 C 497.436 3.45903 2.77248 0
M  V30 5167 H 494.656 0.605748 0.288635 0
M  V30 5168 H 497.2 2.02862 0.258341 0
M  V30 5169 H 495.355 2.87991 2.59114 0
M  V30 5170 H 495.769 4.93653 1.7722 0
M  V30 5171 H 497.243 4.36189 3.38295 0
M  V30 5172 H 497.72 2.66891 3.48806 0
M  V30 5173 H 498.326 3.67024 2.14881 0
M  V30 5174 N 496.642 -0.504142 1.49319 0
M  V30 5175 C 497.59 -1.62689 1.66238 0
M  V30 5176 C 498.584 -1.6095 0.528349 0
M  V30 5177 O 499.79 -1.65496 0.707887 0
M  V30 5178 H 496.165 -0.539247 0.524134 0
M  V30 5179 H 498.136 -1.45571 2.60484 0
M  V30 5180 C 496.885 -3.00841 1.74328 0
M  V30 5181 H 496.208 -3.02884 2.60963 0
M  V30 5182 H 497.648 -3.78945 1.90202 0
M  V30 5183 C 496.107 -3.33355 0.487416 0
M  V30 5184 O 496.637 -3.99819 -0.388294 0
M  V30 5185 N 494.843 -2.88469 0.351306 0
M  V30 5186 H 494.39 -2.34557 1.06492 0
M  V30 5187 H 494.348 -3.10591 -0.487899 0
M  V30 5188 N 498.12 -1.38341 -0.754957 0
M  V30 5189 C 499.531 -1.30803 -1.3322 0
M  V30 5190 C 499.882 0.0368 -1.96165 0
M  V30 5191 O 499.007 0.938844 -1.94974 0
M  V30 5192 C 499.602 -2.3688 -2.42225 0
M  V30 5193 C 498.161 -2.32925 -2.95674 0
M  V30 5194 C 497.308 -2.19819 -1.69042 0
M  V30 5195 H 500.259 -1.48719 -0.553937 0
M  V30 5196 H 500.28 -2.02517 -3.22129 0
M  V30 5197 H 499.792 -3.34747 -1.96383 0
M  V30 5198 H 497.893 -1.38635 -3.45848 0
M  V30 5199 H 498.006 -3.27008 -3.50146 0
M  V30 5200 H 496.37 -1.66648 -1.92615 0
M  V30 5201 H 497.153 -3.19625 -1.25279 0
M  V30 5202 N 499.598 0.982988 -1.23187 0
M  V30 5203 C 500.826 1.75921 -1.08901 0
M  V30 5204 C 501.241 1.85341 0.359719 0
M  V30 5205 O 500.598 1.33072 1.24892 0
M  V30 5206 C 500.649 3.18742 -1.70545 0
M  V30 5207 O 500.37 3.09814 -3.09753 0
M  V30 5208 C 501.871 4.1277 -1.61667 0
M  V30 5209 H 499.091 0.552166 -0.381252 0
M  V30 5210 H 501.635 1.23516 -1.62985 0
M  V30 5211 H 499.79 3.68182 -1.20501 0
M  V30 5212 H 500.204 3.99703 -3.39614 0
M  V30 5213 H 501.678 5.10697 -2.09506 0
M  V30 5214 H 502.155 4.3542 -0.575009 0
M  V30 5215 H 502.761 3.69232 -2.11064 0
M  V30 5216 N 501.076 1.04316 1.18135 0
M  V30 5217 C 502.492 0.762858 1.40188 0
M  V30 5218 C 502.692 -0.646547 1.90846 0
M  V30 5219 O 501.748 -1.41036 2.0944 0
M  V30 5220 C 503.061 1.81106 2.40044 0
M  V30 5221 C 504.609 1.83226 2.53766 0
M  V30 5222 C 505.084 2.87044 3.56889 0
M  V30 5223 N 506.575 2.85951 3.64398 0
M  V30 5224 C 507.31 3.62932 4.43923 0
M  V30 5225 N 506.806 4.49672 5.27036 0
M  V30 5226 N 508.599 3.51411 4.38711 0
M  V30 5227 H 500.75 1.95264 0.835805 0
M  V30 5228 H 503.013 0.845017 0.429709 0
M  V30 5229 H 502.719 2.82214 2.09876 0
M  V30 5230 H 502.593 1.64529 3.39426 0
M  V30 5231 H 504.98 0.827869 2.8325 0
M  V30 5232 H 505.061 2.03879 1.54489 0
M  V30 5233 H 504.705 3.87663 3.28145 0
M  V30 5234 H 504.635 2.63645 4.5585 0
M  V30 5235 H 507.126 2.23051 3.05052 0
M  V30 5236 H 507.439 5.05116 5.84874 0
M  V30 5237 H 505.784 4.53738 5.26447 0
M  V30 5238 H 508.975 2.83047 3.72829 0
M  V30 5239 H 509.148 4.11654 5.00445 0
M  V30 5240 N 502.554 -1.34406 0.822964 0
M  V30 5241 C 503.803 -1.97542 0.407458 0
M  V30 5242 C 504.116 -1.65973 -1.035 0
M  V30 5243 O 505.322 -2.22598 -1.55442 0
M  V30 5244 C 503.778 -3.53463 0.677623 0
M  V30 5245 C 503.386 -3.93925 2.1337 0
M  V30 5246 C 505.13 -4.23229 0.328284 0
M  V30 5247 C 503.037 -5.42759 2.34876 0
M  V30 5248 H 501.967 -0.739207 0.148623 0
M  V30 5249 H 504.618 -1.53248 1.00932 0
M  V30 5250 H 503 -3.96 0.00558965 0
M  V30 5251 H 504.174 -3.62494 2.8449 0
M  V30 5252 H 502.489 -3.37097 2.44448 0
M  V30 5253 H 505.086 -5.32659 0.466794 0
M  V30 5254 H 505.429 -4.09899 -0.727224 0
M  V30 5255 H 505.962 -3.86169 0.954896 0
M  V30 5256 H 502.701 -5.61075 3.38932 0
M  V30 5257 H 502.221 -5.75704 1.68299 0
M  V30 5258 H 503.9 -6.0944 2.17236 0
M  V30 5259 N 504.032 -0.577932 -1.46621 0
M  V30 5260 C 505.26 -0.0671642 -2.06791 0
M  V30 5261 C 505.675 1.23571 -1.42743 0
M  V30 5262 O 505.032 1.74602 -0.531062 0
M  V30 5263 C 505.083 0.110357 -3.61332 0
M  V30 5264 O 504.804 -1.14095 -4.22982 0
M  V30 5265 C 506.305 0.656025 -4.38419 0
M  V30 5266 H 503.525 -0.0552732 -0.66872 0
M  V30 5267 H 506.069 -0.797242 -1.8832 0
M  V30 5268 H 504.224 0.790637 -3.79246 0
M  V30 5269 H 504.638 -0.951742 -5.15793 0
M  V30 5270 H 506.112 0.729438 -5.47159 0
M  V30 5271 H 506.589 1.67195 -4.06131 0
M  V30 5272 H 507.195 0.0107692 -4.25299 0
M  V30 5273 N 505.51 1.54411 -0.315457 0
M  V30 5274 C 506.457 2.24048 0.554166 0
M  V30 5275 C 507.427 1.2283 1.11812 0
M  V30 5276 O 508.612 1.51491 1.15997 0
M  V30 5277 C 505.752 2.99574 1.71316 0
M  V30 5278 C 504.865 4.15594 1.17922 0
M  V30 5279 C 504 4.78669 2.30324 0
M  V30 5280 C 503.039 5.86807 1.74137 0
M  V30 5281 N 502.176 6.43777 2.8017 0
M  V30 5282 H 507.016 2.97964 -0.0462602 0
M  V30 5283 H 504.553 1.47059 -0.0346009 0
M  V30 5284 H 506.511 3.41604 2.39505 0
M  V30 5285 H 505.141 2.28008 2.285 0
M  V30 5286 H 504.193 3.78404 0.389136 0
M  V30 5287 H 505.505 4.93459 0.728012 0
M  V30 5288 H 504.659 5.23626 3.06433 0
M  V30 5289 H 503.398 4.00168 2.78778 0
M  V30 5290 H 502.403 5.41261 0.965236 0
M  V30 5291 H 503.628 6.67201 1.2657 0
M  V30 5292 H 501.574 5.68153 3.2793 0
M  V30 5293 H 501.491 7.17031 2.39588 0
M  V30 5294 H 502.759 6.9339 3.56132 0
M  V30 5295 N 506.988 0.0434614 1.5754 0
M  V30 5296 C 507.951 -0.918696 2.09982 0
M  V30 5297 C 508.951 -1.24488 1.01781 0
M  V30 5298 O 510.141 -1.18284 1.27885 0
M  V30 5299 C 507.273 -2.23093 2.57764 0
M  V30 5300 H 508.466 -0.464229 2.96285 0
M  V30 5301 H 506.019 -0.204818 1.54952 0
M  V30 5302 H 506.754 -2.73137 1.74832 0
M  V30 5303 H 506.539 -2.00724 3.36827 0
M  V30 5304 H 508.029 -2.92028 2.98512 0
M  V30 5305 N 508.466 -1.55915 -0.229846 0
M  V30 5306 C 509.396 -1.94754 -1.28815 0
M  V30 5307 C 510.377 -0.814657 -1.49323 0
M  V30 5308 O 511.562 -1.07631 -1.61645 0
M  V30 5309 C 508.692 -2.25705 -2.63959 0
M  V30 5310 C 507.646 -3.41406 -2.5812 0
M  V30 5311 C 506.972 -3.57941 -3.97218 0
M  V30 5312 C 508.272 -4.76616 -2.13623 0
M  V30 5313 H 509.966 -2.83404 -0.965547 0
M  V30 5314 H 507.512 -1.36353 -0.463028 0
M  V30 5315 H 509.465 -2.51467 -3.38146 0
M  V30 5316 H 508.189 -1.339 -2.9789 0
M  V30 5317 H 506.848 -3.1568 -1.86391 0
M  V30 5318 H 506.496 -2.63526 -4.28443 0
M  V30 5319 H 506.196 -4.35757 -3.94195 0
M  V30 5320 H 507.72 -3.86042 -4.73079 0
M  V30 5321 H 509.134 -5.01637 -2.77549 0
M  V30 5322 H 507.531 -5.57655 -2.21677 0
M  V30 5323 H 508.601 -4.7253 -1.08829 0
M  V30 5324 N 509.944 0.496216 -1.49584 0
M  V30 5325 C 510.854 1.62352 -1.69349 0
M  V30 5326 C 511.87 1.64184 -0.576147 0
M  V30 5327 O 513.046 1.82517 -0.85144 0
M  V30 5328 C 510.111 2.98698 -1.76013 0
M  V30 5329 C 509.172 3.07454 -2.99617 0
M  V30 5330 C 508.405 4.37296 -3.05953 0
M  V30 5331 O 508.628 5.2637 -2.19752 0
M  V30 5332 O 507.562 4.51124 -3.9846 0
M  V30 5333 H 511.388 1.48606 -2.64859 0
M  V30 5334 H 508.973 0.673022 -1.33382 0
M  V30 5335 H 510.855 3.79725 -1.82721 0
M  V30 5336 H 509.53 3.12696 -0.836828 0
M  V30 5337 H 508.437 2.25597 -2.98424 0
M  V30 5338 H 509.77 2.98385 -3.91443 0
M  V30 5339 N 511.423 1.38739 0.74761 0
M  V30 5340 C 512.37 1.36449 1.86146 0
M  V30 5341 C 513.34 0.226098 1.64554 0
M  V30 5342 O 514.525 0.41926 1.86137 0
M  V30 5343 C 511.665 1.2013 3.23516 0
M  V30 5344 C 510.778 2.43407 3.56899 0
M  V30 5345 C 509.913 2.19773 4.83605 0
M  V30 5346 C 508.952 3.3879 5.09792 0
M  V30 5347 N 508.089 3.14553 6.27695 0
M  V30 5348 H 512.929 2.3167 1.87438 0
M  V30 5349 H 510.466 1.15094 0.916063 0
M  V30 5350 H 512.424 1.08683 4.02795 0
M  V30 5351 H 511.054 0.285453 3.21535 0
M  V30 5352 H 510.106 2.65504 2.72418 0
M  V30 5353 H 511.418 3.32094 3.72176 0
M  V30 5354 H 510.572 2.05496 5.70838 0
M  V30 5355 H 509.311 1.28461 4.70478 0
M  V30 5356 H 508.316 3.53579 4.21025 0
M  V30 5357 H 509.541 4.30986 5.24812 0
M  V30 5358 H 507.487 2.25893 6.1588 0
M  V30 5359 H 507.404 3.96791 6.435 0
M  V30 5360 H 508.672 3.03943 7.17801 0
M  V30 5361 N 512.901 -0.976442 1.23707 0
M  V30 5362 C 513.849 -2.09078 1.01927 0
M  V30 5363 C 514.843 -1.69345 -0.0430193 0
M  V30 5364 O 516.049 -1.79659 0.110814 0
M  V30 5365 H 512.424 -0.68398 0.312531 0
M  V30 5366 H 514.395 -2.24614 1.96447 0
M  V30 5367 C 513.144 -3.41919 0.631385 0
M  V30 5368 H 512.467 -3.72946 1.44053 0
M  V30 5369 H 513.907 -4.20817 0.518532 0
M  V30 5370 C 512.366 -3.30357 -0.660723 0
M  V30 5371 O 512.896 -3.63542 -1.70881 0
M  V30 5372 N 511.102 -2.83507 -0.638139 0
M  V30 5373 H 510.649 -2.567 0.215108 0
M  V30 5374 H 510.607 -2.76153 -1.50289 0
M  V30 5375 N 514.379 -1.04941 -1.1758 0
M  V30 5376 C 515.342 -0.652456 -2.19717 0
M  V30 5377 C 516.342 0.294745 -1.58076 0
M  V30 5378 O 517.532 0.0789579 -1.74021 0
M  V30 5379 C 514.664 0.0420712 -3.40874 0
M  V30 5380 H 515.857 -1.55642 -2.5635 0
M  V30 5381 H 513.41 -0.842995 -1.31618 0
M  V30 5382 H 514.145 0.95943 -3.09783 0
M  V30 5383 H 513.93 -0.638844 -3.86861 0
M  V30 5384 H 515.42 0.306 -4.16477 0
M  V30 5385 N 515.857 1.33968 -0.830081 0
M  V30 5386 C 517.097 1.99879 -0.427521 0
M  V30 5387 C 517.461 1.64355 0.992546 0
M  V30 5388 O 518.662 2.23164 1.49837 0
M  V30 5389 C 516.933 3.51771 -0.631815 0
M  V30 5390 S 518.492 4.37608 -0.323168 0
M  V30 5391 H 515.31 0.692485 -0.161202 0
M  V30 5392 H 517.912 1.63129 -1.07745 0
M  V30 5393 H 516.616 3.75113 -1.66488 0
M  V30 5394 H 516.147 3.93386 0.0325936 0
M  V30 5395 H 518.162 4.88683 0.860432 0
M  V30 5396 N 517.335 0.585699 1.46312 0
M  V30 5397 C 518.283 -0.158577 2.32059 0
M  V30 5398 C 519.277 -0.881427 1.44662 0
M  V30 5399 O 520.483 -0.799476 1.61271 0
M  V30 5400 H 516.858 -0.0700066 0.748734 0
M  V30 5401 H 518.829 0.583383 2.92642 0
M  V30 5402 C 517.578 -1.15701 3.27885 0
M  V30 5403 H 516.901 -0.610215 3.95116 0
M  V30 5404 H 518.341 -1.64812 3.90657 0
M  V30 5405 C 516.8 -2.21951 2.53455 0
M  V30 5406 O 517.33 -3.29352 2.29978 0
M  V30 5407 N 515.536 -1.9664 2.13965 0
M  V30 5408 H 515.083 -1.09309 2.33258 0
M  V30 5409 H 515.041 -2.6794 1.64485 0
M  V30 5410 N 518.813 -1.54241 0.323641 0
M  V30 5411 C 519.776 -2.22997 -0.529602 0
M  V30 5412 C 520.776 -1.22345 -1.04347 0
M  V30 5413 O 521.966 -1.46924 -0.935889 0
M  V30 5414 C 519.098 -2.93409 -1.73562 0
M  V30 5415 H 520.291 -2.99815 0.0714518 0
M  V30 5416 H 517.844 -1.56121 0.0747258 0
M  V30 5417 H 518.579 -2.20729 -2.37591 0
M  V30 5418 H 518.364 -3.67217 -1.37456 0
M  V30 5419 H 519.854 -3.45794 -2.34128 0
M  V30 5420 N 520.291 -0.0518155 -1.57515 0
M  V30 5421 C 521.221 0.920283 -2.146 0
M  V30 5422 C 522.202 1.32406 -1.06783 0
M  V30 5423 O 523.387 1.39866 -1.34726 0
M  V30 5424 C 520.517 2.1949 -2.6915 0
M  V30 5425 C 519.471 1.93116 -3.81956 0
M  V30 5426 C 518.797 3.27037 -4.23026 0
M  V30 5427 C 520.097 1.25225 -5.07066 0
M  V30 5428 H 521.791 0.444801 -2.96077 0
M  V30 5429 H 519.337 0.212508 -1.42423 0
M  V30 5430 H 521.29 2.87894 -3.07725 0
M  V30 5431 H 520.014 2.69244 -1.84865 0
M  V30 5432 H 518.673 1.27123 -3.43854 0
M  V30 5433 H 518.321 3.74595 -3.3569 0
M  V30 5434 H 518.021 3.10189 -4.99056 0
M  V30 5435 H 519.545 3.96673 -4.64202 0
M  V30 5436 H 520.959 1.83666 -5.43083 0
M  V30 5437 H 519.356 1.18702 -5.88243 0
M  V30 5438 H 520.426 0.228382 -4.84362 0
M  V30 5439 N 521.769 1.56035 0.221574 0
M  V30 5440 C 522.699 1.95434 1.2778 0
M  V30 5441 C 523.68 0.822564 1.48889 0
M  V30 5442 O 524.865 1.08486 1.61072 0
M  V30 5443 C 521.995 2.27102 2.62759 0
M  V30 5444 C 520.949 3.4277 2.56306 0
M  V30 5445 C 520.275 3.60043 3.95314 0
M  V30 5446 C 521.575 4.77742 2.11093 0
M  V30 5447 H 523.269 2.83912 0.950504 0
M  V30 5448 H 520.815 1.36596 0.455791 0
M  V30 5449 H 522.768 2.53256 3.36807 0
M  V30 5450 H 521.492 1.35478 2.97176 0
M  V30 5451 H 520.151 3.16664 1.84715 0
M  V30 5452 H 519.799 2.65794 4.27039 0
M  V30 5453 H 519.499 4.37841 3.91879 0
M  V30 5454 H 521.023 3.88545 4.71025 0
M  V30 5455 H 522.437 5.03102 2.74885 0
M  V30 5456 H 520.834 5.58823 2.18716 0
M  V30 5457 H 521.904 4.731 1.06321 0
M  V30 5458 N 523.247 -0.488276 1.49845 0
M  V30 5459 C 524.177 -1.59675 1.70371 0
M  V30 5460 C 525.158 -1.60878 0.552473 0
M  V30 5461 O 526.343 -1.77417 0.78973 0
M  V30 5462 C 523.473 -2.98098 1.782 0
M  V30 5463 C 522.427 -3.11761 2.93239 0
M  V30 5464 C 521.753 -4.51661 2.86193 0
M  V30 5465 C 523.053 -2.90589 4.33999 0
M  V30 5466 H 524.747 -1.42752 2.63177 0
M  V30 5467 H 522.293 -0.685317 1.26647 0
M  V30 5468 H 524.246 -3.75555 1.91144 0
M  V30 5469 H 522.97 -3.16138 0.820018 0
M  V30 5470 H 521.629 -2.36732 2.79917 0
M  V30 5471 H 521.277 -4.66595 1.87877 0
M  V30 5472 H 520.977 -4.61742 3.63412 0
M  V30 5473 H 522.501 -5.31162 3.01163 0
M  V30 5474 H 523.915 -3.57807 4.47936 0
M  V30 5475 H 522.312 -3.1213 5.12538 0
M  V30 5476 H 523.382 -1.86595 4.4756 0
M  V30 5477 N 524.725 -1.39134 -0.740242 0
M  V30 5478 C 525.672 -1.37434 -1.8542 0
M  V30 5479 C 526.642 -0.234822 -1.64432 0
M  V30 5480 O 527.827 -0.429125 -1.85912 0
M  V30 5481 C 524.967 -1.21844 -3.22875 0
M  V30 5482 C 524.08 -2.45296 -3.55603 0
M  V30 5483 C 523.215 -2.22334 -4.82432 0
M  V30 5484 C 522.254 -3.41488 -5.07988 0
M  V30 5485 N 521.391 -3.17877 -6.26018 0
M  V30 5486 H 526.231 -2.3266 -1.86207 0
M  V30 5487 H 523.768 -1.15578 -0.909946 0
M  V30 5488 H 525.726 -1.10818 -4.02213 0
M  V30 5489 H 524.356 -0.3025 -3.21379 0
M  V30 5490 H 523.408 -2.66945 -2.71006 0
M  V30 5491 H 524.72 -3.34063 -3.7041 0
M  V30 5492 H 523.874 -2.0852 -5.69741 0
M  V30 5493 H 522.613 -1.30954 -4.6979 0
M  V30 5494 H 521.618 -3.55807 -4.19144 0
M  V30 5495 H 522.843 -4.33763 -5.22519 0
M  V30 5496 H 520.789 -2.29156 -6.14673 0
M  V30 5497 H 520.706 -4.00198 -6.41387 0
M  V30 5498 H 521.974 -3.07746 -7.16179 0
M  V30 5499 N 526.204 0.969867 -1.24223 0
M  V30 5500 C 527.45 1.7151 -1.08223 0
M  V30 5501 C 527.783 1.90478 0.37838 0
M  V30 5502 O 527.058 1.4647 1.27971 0
M  V30 5503 C 527.341 3.10714 -1.82013 0
M  V30 5504 C 527.194 2.9925 -3.35811 0
M  V30 5505 C 528.513 4.10332 -1.59108 0
M  V30 5506 H 525.632 0.622499 -0.394543 0
M  V30 5507 H 528.274 1.1284 -1.52863 0
M  V30 5508 H 526.424 3.608 -1.44068 0
M  V30 5509 H 528.096 2.56608 -3.83341 0
M  V30 5510 H 526.339 2.35512 -3.64303 0
M  V30 5511 H 527.01 3.97857 -3.82641 0
M  V30 5512 H 529.486 3.69097 -1.92111 0
M  V30 5513 H 528.362 5.05804 -2.13198 0
M  V30 5514 H 528.623 4.38926 -0.528832 0
M  V30 5515 N 527.682 1.05563 1.17022 0
M  V30 5516 C 528.63 0.653887 2.2322 0
M  V30 5517 C 529.624 -0.326642 1.66221 0
M  V30 5518 O 530.83 -0.192301 1.7897 0
M  V30 5519 H 527.205 0.193297 0.726733 0
M  V30 5520 H 529.176 1.5596 2.54399 0
M  V30 5521 C 527.925 0.0485434 3.47666 0
M  V30 5522 H 527.248 0.79413 3.91834 0
M  V30 5523 H 528.688 -0.195133 4.23551 0
M  V30 5524 C 527.147 -1.20583 3.14581 0
M  V30 5525 O 527.677 -2.29475 3.29703 0
M  V30 5526 N 525.883 -1.10493 2.68774 0
M  V30 5527 H 525.43 -0.218795 2.56669 0
M  V30 5528 H 525.388 -1.94507 2.47011 0
M  V30 5529 N 529.16 -1.33526 0.837174 0
M  V30 5530 C 530.092 -2.28077 0.226579 0
M  V30 5531 C 531.105 -1.51666 -0.591717 0
M  V30 5532 O 532.294 -1.73511 -0.419064 0
M  V30 5533 C 529.394 -3.31597 -0.69978 0
M  V30 5534 C 528.567 -4.37329 0.0788067 0
M  V30 5535 C 527.626 -5.20526 -0.770637 0
M  V30 5536 O 526.652 -5.68811 -0.210453 0
M  V30 5537 N 527.854 -5.41639 -2.08825 0
M  V30 5538 H 530.619 -2.81115 1.03897 0
M  V30 5539 H 528.18 -1.46201 0.695476 0
M  V30 5540 H 530.172 -3.84158 -1.27298 0
M  V30 5541 H 528.742 -2.78848 -1.41288 0
M  V30 5542 H 527.962 -3.8529 0.833381 0
M  V30 5543 H 529.25 -5.05079 0.614238 0
M  V30 5544 H 528.648 -5.04108 -2.56693 0
M  V30 5545 H 527.205 -5.97263 -2.60998 0
M  V30 5546 N 530.638 -0.59345 -1.46 0
M  V30 5547 C 531.887 -0.0808084 -2.01538 0
M  V30 5548 C 532.2 1.29112 -1.46934 0
M  V30 5549 O 533.406 1.8957 -1.94359 0
M  V30 5550 C 531.862 -0.0938311 -3.59778 0
M  V30 5551 C 531.47 -1.46474 -4.23379 0
M  V30 5552 C 533.214 0.364306 -4.22934 0
M  V30 5553 C 531.121 -1.4349 -5.73729 0
M  V30 5554 H 530.051 -0.0264407 -0.753536 0
M  V30 5555 H 532.702 -0.746689 -1.67621 0
M  V30 5556 H 531.084 0.638427 -3.9082 0
M  V30 5557 H 532.258 -2.21758 -4.03931 0
M  V30 5558 H 530.573 -1.86379 -3.7236 0
M  V30 5559 H 533.17 0.405584 -5.3316 0
M  V30 5560 H 533.513 1.38409 -3.92618 0
M  V30 5561 H 534.046 -0.31423 -3.96557 0
M  V30 5562 H 530.785 -2.43184 -6.08722 0
M  V30 5563 H 530.305 -0.724431 -5.95409 0
M  V30 5564 H 531.984 -1.15243 -6.36654 0
M  V30 5565 N 532.116 1.54067 -0.331816 0
M  V30 5566 C 533.364 2.00319 0.267739 0
M  V30 5567 C 533.685 1.22148 1.52003 0
M  V30 5568 O 532.955 0.325494 1.93177 0
M  V30 5569 H 531.535 0.740014 0.101922 0
M  V30 5570 H 534.197 1.89628 -0.450267 0
M  V30 5571 H 533.293 3.07765 0.518385 0
M  V30 5572 N 533.594 0.0601682 1.57485 0
M  V30 5573 C 534.819 -0.624416 1.97777 0
M  V30 5574 C 535.244 -1.63051 0.937867 0
M  V30 5575 O 534.602 -1.81036 -0.0978845 0
M  V30 5576 C 534.65 -1.27979 3.37126 0
M  V30 5577 O 533.754 -2.39556 3.35688 0
M  V30 5578 H 533.095 -0.161581 0.64404 0
M  V30 5579 H 535.625 0.131237 2.04179 0
M  V30 5580 H 535.635 -1.62937 3.74053 0
M  V30 5581 H 534.31 -0.542501 4.12347 0
M  V30 5582 H 532.887 -2.06478 3.10517 0
M  V30 5583 N 535.072 -1.5615 -0.213296 0
M  V30 5584 C 536.321 -1.78743 -0.93455 0
M  V30 5585 C 536.634 -0.630199 -1.8517 0
M  V30 5586 O 537.84 -0.739966 -2.61222 0
M  V30 5587 C 536.296 -3.16571 -1.71203 0
M  V30 5588 C 535.904 -4.40043 -0.840617 0
M  V30 5589 C 537.648 -3.48485 -2.42401 0
M  V30 5590 C 535.555 -5.68895 -1.61592 0
M  V30 5591 H 534.485 -0.666426 -0.352692 0
M  V30 5592 H 537.136 -1.82532 -0.188227 0
M  V30 5593 H 535.518 -3.06981 -2.50157 0
M  V30 5594 H 536.692 -4.6071 -0.0910326 0
M  V30 5595 H 535.007 -4.15706 -0.240365 0
M  V30 5596 H 537.604 -4.41983 -3.00924 0
M  V30 5597 H 537.947 -2.71371 -3.15695 0
M  V30 5598 H 538.48 -3.59442 -1.7043 0
M  V30 5599 H 535.219 -6.48925 -0.926106 0
M  V30 5600 H 534.739 -5.52275 -2.33991 0
M  V30 5601 H 536.418 -6.09365 -2.17447 0
M  V30 5602 N 536.55 0.480323 -1.50102 0
M  V30 5603 C 537.778 1.25657 -1.64371 0
M  V30 5604 C 538.193 1.86011 -0.323316 0
M  V30 5605 O 537.55 1.68803 0.693682 0
M  V30 5606 C 537.601 2.37197 -2.728 0
M  V30 5607 O 537.322 1.7932 -3.9972 0
M  V30 5608 C 538.823 3.2823 -2.9796 0
M  V30 5609 H 536.043 0.380369 -0.552775 0
M  V30 5610 H 538.587 0.574379 -1.96268 0
M  V30 5611 H 536.742 3.01208 -2.43623 0
M  V30 5612 H 537.156 2.52701 -4.59611 0
M  V30 5613 H 538.63 4.02725 -3.77513 0
M  V30 5614 H 539.107 3.86462 -2.08671 0
M  V30 5615 H 539.713 2.69964 -3.28633 0
M  V30 5616 N 538.028 1.39524 0.732853 0
M  V30 5617 C 538.938 1.40695 1.87729 0
M  V30 5618 C 539.954 0.301496 1.71368 0
M  V30 5619 O 541.13 0.543313 1.93933 0
M  V30 5620 C 538.195 1.25098 3.23344 0
M  V30 5621 C 537.256 2.45634 3.52083 0
M  V30 5622 C 536.489 2.30772 4.81228 0
M  V30 5623 O 536.712 1.31233 5.55098 0
M  V30 5624 O 535.646 3.19799 5.09914 0
M  V30 5625 H 539.472 2.37168 1.89697 0
M  V30 5626 H 537.057 1.20663 0.880959 0
M  V30 5627 H 538.939 1.18541 4.04383 0
M  V30 5628 H 537.614 0.317209 3.22142 0
M  V30 5629 H 536.521 2.57767 2.71122 0
M  V30 5630 H 537.854 3.37712 3.58066 0
M  V30 5631 N 539.506 -0.963266 1.24736 0
M  V30 5632 C 540.469 -2.04013 1.04457 0
M  V30 5633 C 541.469 -1.608 0.000335555 0
M  V30 5634 O 542.659 -1.72515 0.241719 0
M  V30 5635 C 539.791 -3.35858 0.584162 0
M  V30 5636 H 540.984 -2.23436 2.00041 0
M  V30 5637 H 538.537 -1.13914 1.07021 0
M  V30 5638 H 539.272 -3.22128 -0.374673 0
M  V30 5639 H 539.057 -3.68568 1.3379 0
M  V30 5640 H 540.547 -4.1502 0.463451 0
M  V30 5641 N 540.985 -1.06182 -1.16461 0
M  V30 5642 C 542.234 -0.772927 -1.86303 0
M  V30 5643 C 542.547 0.703187 -1.82523 0
M  V30 5644 O 543.753 1.10641 -2.47933 0
M  V30 5645 C 542.209 -1.33249 -3.34324 0
M  V30 5646 C 541.817 -2.83876 -3.46581 0
M  V30 5647 C 543.561 -1.12108 -4.09429 0
M  V30 5648 C 541.468 -3.33082 -4.88682 0
M  V30 5649 H 540.398 -0.285452 -0.697878 0
M  V30 5650 H 543.049 -1.28039 -1.31447 0
M  V30 5651 H 541.431 -0.7528 -3.88779 0
M  V30 5652 H 542.605 -3.47786 -3.02293 0
M  V30 5653 H 540.92 -3.03671 -2.84909 0
M  V30 5654 H 543.517 -1.46361 -5.14279 0
M  V30 5655 H 543.86 -0.0593832 -4.16258 0
M  V30 5656 H 544.393 -1.6665 -3.6121 0
M  V30 5657 H 541.132 -4.38726 -4.87032 0
M  V30 5658 H 540.652 -2.73919 -5.33599 0
M  V30 5659 H 542.331 -3.28344 -5.57494 0
M  V30 5660 N 542.463 1.3308 -0.844243 0
M  V30 5661 C 543.373 2.32876 -0.283922 0
M  V30 5662 C 544.389 1.63589 0.592846 0
M  V30 5663 O 545.565 1.95205 0.495693 0
M  V30 5664 C 542.63 3.42667 0.527283 0
M  V30 5665 C 541.691 4.27664 -0.374394 0
M  V30 5666 C 540.924 5.32212 0.39819 0
M  V30 5667 O 541.147 5.46635 1.62932 0
M  V30 5668 O 540.081 6.01458 -0.2306 0
M  V30 5669 H 543.907 2.82671 -1.11045 0
M  V30 5670 H 541.492 1.36518 -0.606903 0
M  V30 5671 H 543.374 4.09652 0.988078 0
M  V30 5672 H 542.049 2.95079 1.33078 0
M  V30 5673 H 540.956 3.63526 -0.883144 0
M  V30 5674 H 542.289 4.78749 -1.1428 0
M  V30 5675 N 543.941 0.601185 1.45683 0
M  V30 5676 C 544.904 -0.111398 2.28929 0
M  V30 5677 C 545.904 -0.801246 1.39416 0
M  V30 5678 O 547.094 -0.650383 1.61603 0
M  V30 5679 C 544.226 -1.16773 3.20276 0
M  V30 5680 H 545.419 0.620412 2.93413 0
M  V30 5681 H 542.972 0.359946 1.52099 0
M  V30 5682 H 543.707 -1.93051 2.60579 0
M  V30 5683 H 543.492 -0.677358 3.86205 0
M  V30 5684 H 544.982 -1.66698 3.82886 0
M  V30 5685 N 545.419 -1.53889 0.339982 0
M  V30 5686 C 546.659 -2.02765 -0.258011 0
M  V30 5687 C 547.023 -1.22249 -1.48051 0
M  V30 5688 O 548.224 -1.61007 -2.15245 0
M  V30 5689 C 546.495 -3.5286 -0.567872 0
M  V30 5690 S 548.054 -4.23647 -1.14318 0
M  V30 5691 H 544.872 -0.706814 -0.0770389 0
M  V30 5692 H 547.474 -1.89594 0.476917 0
M  V30 5693 H 546.178 -4.09073 0.329745 0
M  V30 5694 H 545.709 -3.70144 -1.33256 0
M  V30 5695 H 547.724 -4.32676 -2.42911 0
M  V30 5696 N 546.897 -0.0685191 -1.57451 0
M  V30 5697 C 547.827 0.89747 -2.15564 0
M  V30 5698 C 548.808 1.31266 -1.08181 0
M  V30 5699 O 549.993 1.38429 -1.36202 0
M  V30 5700 C 547.123 2.16623 -2.71463 0
M  V30 5701 C 546.077 1.89054 -3.83982 0
M  V30 5702 C 545.403 3.22532 -4.26471 0
M  V30 5703 C 546.703 1.1984 -5.08366 0
M  V30 5704 H 548.397 0.413373 -2.96533 0
M  V30 5705 H 545.943 0.197391 -1.42641 0
M  V30 5706 H 547.896 2.84614 -3.10761 0
M  V30 5707 H 546.62 2.67269 -1.8771 0
M  V30 5708 H 545.279 1.23469 -3.45183 0
M  V30 5709 H 544.927 3.71013 -3.39644 0
M  V30 5710 H 544.627 3.04879 -5.02317 0
M  V30 5711 H 546.151 3.91727 -4.68383 0
M  V30 5712 H 547.565 1.77896 -5.45001 0
M  V30 5713 H 545.962 1.12456 -5.89469 0
M  V30 5714 H 547.032 0.176996 -4.84577 0
M  V30 5715 N 548.375 1.56261 0.205012 0
M  V30 5716 C 549.305 1.96779 1.257 0
M  V30 5717 C 550.286 0.838309 1.48008 0
M  V30 5718 O 551.471 1.10189 1.59913 0
M  V30 5719 C 548.601 2.29876 2.60335 0
M  V30 5720 C 547.555 3.45469 2.52656 0
M  V30 5721 C 546.881 3.64215 3.91473 0
M  V30 5722 C 548.181 4.79954 2.06014 0
M  V30 5723 H 549.875 2.84904 0.920338 0
M  V30 5724 H 547.421 1.37072 0.441277 0
M  V30 5725 H 549.374 2.56814 3.34102 0
M  V30 5726 H 548.098 1.38622 2.95722 0
M  V30 5727 H 546.757 3.18605 1.81345 0
M  V30 5728 H 546.405 2.70309 4.24196 0
M  V30 5729 H 546.105 4.41973 3.87213 0
M  V30 5730 H 547.629 3.93519 4.66878 0
M  V30 5731 H 549.043 5.05989 2.69533 0
M  V30 5732 H 547.44 5.61111 2.12777 0
M  V30 5733 H 548.51 4.74201 1.01297 0
M  V30 5734 N 549.853 -0.472356 1.50355 0
M  V30 5735 C 551.078 -1.25251 1.65309 0
M  V30 5736 C 551.503 -1.85081 0.335643 0
M  V30 5737 O 550.861 -1.67227 -0.700335 0
M  V30 5738 C 550.909 -2.3379 2.74544 0
M  V30 5739 O 550.013 -3.38401 2.35709 0
M  V30 5740 H 549.354 -0.368539 0.552336 0
M  V30 5741 H 551.884 -0.562271 1.96722 0
M  V30 5742 H 551.894 -2.79121 2.97583 0
M  V30 5743 H 550.569 -1.89614 3.70161 0
M  V30 5744 H 549.146 -2.9879 2.23112 0
M  V30 5745 N 551.331 -1.39911 -0.725443 0
M  V30 5746 C 552.263 -1.35301 -1.85003 0
M  V30 5747 C 553.276 -0.260102 -1.60709 0
M  V30 5748 O 554.465 -0.519749 -1.70766 0
M  V30 5749 C 551.565 -1.08039 -3.21218 0
M  V30 5750 C 550.738 -2.28793 -3.7279 0
M  V30 5751 C 549.797 -1.97841 -4.87591 0
M  V30 5752 O 548.823 -2.70616 -5.00755 0
M  V30 5753 N 550.025 -0.950367 -5.72668 0
M  V30 5754 H 552.79 -2.32218 -1.89459 0
M  V30 5755 H 550.351 -1.34137 -0.90658 0
M  V30 5756 H 552.343 -0.853354 -3.95601 0
M  V30 5757 H 550.913 -0.198229 -3.11971 0
M  V30 5758 H 550.133 -2.67388 -2.8965 0
M  V30 5759 H 551.421 -3.09317 -4.03981 0
M  V30 5760 H 550.819 -0.347436 -5.64632 0
M  V30 5761 H 549.376 -0.783232 -6.47077 0
M  V30 5762 N 552.809 0.956637 -1.25245 0
M  V30 5763 C 553.756 2.053 -1.05454 0
M  V30 5764 C 554.726 1.66062 0.0356889 0
M  V30 5765 O 555.911 1.90415 -0.121099 0
M  V30 5766 C 553.051 3.38391 -0.677191 0
M  V30 5767 C 552.164 3.90758 -1.84206 0
M  V30 5768 C 551.299 5.12165 -1.40926 0
M  V30 5769 C 550.338 5.56757 -2.54338 0
M  V30 5770 N 549.475 6.69376 -2.11848 0
M  V30 5771 H 554.315 2.21562 -1.99284 0
M  V30 5772 H 551.852 1.08578 -0.992434 0
M  V30 5773 H 553.81 4.1488 -0.43938 0
M  V30 5774 H 552.44 3.22021 0.224127 0
M  V30 5775 H 551.492 3.10808 -2.19323 0
M  V30 5776 H 552.804 4.19802 -2.69383 0
M  V30 5777 H 551.958 5.96065 -1.13098 0
M  V30 5778 H 550.697 4.84832 -0.528175 0
M  V30 5779 H 549.702 4.71423 -2.82913 0
M  V30 5780 H 550.927 5.861 -3.43022 0
M  V30 5781 H 548.873 6.43756 -1.26153 0
M  V30 5782 H 548.79 6.97927 -2.90574 0
M  V30 5783 H 550.058 7.5669 -1.87191 0
M  V30 5784 N 554.287 1.06798 1.15896 0
M  V30 5785 C 555.235 0.677525 2.22514 0
M  V30 5786 C 556.229 -0.308994 1.66558 0
M  V30 5787 O 557.435 -0.173308 1.79164 0
M  V30 5788 H 553.81 0.200994 0.724642 0
M  V30 5789 H 555.781 1.5865 2.52731 0
M  V30 5790 C 554.53 0.0854153 3.47595 0
M  V30 5791 H 553.853 0.835645 3.90969 0
M  V30 5792 H 555.293 -0.150199 4.23734 0
M  V30 5793 C 553.752 -1.1724 3.15843 0
M  V30 5794 O 554.282 -2.25965 3.32119 0
M  V30 5795 N 552.488 -1.07636 2.69931 0
M  V30 5796 H 552.035 -0.191559 2.56887 0
M  V30 5797 H 551.993 -1.91876 2.4906 0
M  V30 5798 N 555.766 -1.3263 0.851289 0
M  V30 5799 C 556.714 -2.30882 0.282202 0
M  V30 5800 C 557.708 -1.58697 -0.592589 0
M  V30 5801 O 558.914 -1.73461 -0.480768 0
M  V30 5802 H 555.289 -0.748492 0.0725487 0
M  V30 5803 H 557.26 -2.76374 1.12516 0
M  V30 5804 C 556.009 -3.43828 -0.517449 0
M  V30 5805 H 555.332 -3.99532 0.146392 0
M  V30 5806 H 556.772 -4.1474 -0.88128 0
M  V30 5807 C 555.231 -2.90786 -1.70133 0
M  V30 5808 O 555.761 -2.88 -2.80034 0
M  V30 5809 N 553.967 -2.4723 -1.52728 0
M  V30 5810 H 553.514 -2.49695 -0.633257 0
M  V30 5811 H 553.472 -2.12094 -2.32085 0
M  V30 5812 N 557.244 -0.608902 -1.45362 0
M  V30 5813 C 558.49 -0.113196 -2.03085 0
M  V30 5814 C 558.845 1.24288 -1.46868 0
M  V30 5815 O 558.138 1.80792 -0.634402 0
M  V30 5816 C 558.332 -0.0167296 -3.57396 0
M  V30 5817 C 558.161 -1.36191 -4.28581 0
M  V30 5818 C 556.931 -1.94295 -4.66452 0
M  V30 5819 C 559.129 -2.29097 -4.60455 0
M  V30 5820 N 557.111 -3.2228 -5.22503 0
M  V30 5821 C 558.482 -3.41681 -5.17353 0
M  V30 5822 C 560.537 -2.28453 -4.42395 0
M  V30 5823 C 559.24 -4.53789 -5.58093 0
M  V30 5824 C 561.266 -3.39608 -4.8417 0
M  V30 5825 C 560.628 -4.50915 -5.41161 0
M  V30 5826 H 556.727 -0.0848213 -0.777386 0
M  V30 5827 H 559.311 -0.807541 -1.77163 0
M  V30 5828 H 557.482 0.646839 -3.82976 0
M  V30 5829 H 559.214 0.485757 -4.01774 0
M  V30 5830 H 555.969 -1.47486 -4.5005 0
M  V30 5831 H 556.393 -3.87654 -5.55025 0
M  V30 5832 H 561.035 -1.43658 -3.97646 0
M  V30 5833 H 558.753 -5.39307 -6.01808 0
M  V30 5834 H 562.339 -3.40259 -4.71927 0
M  V30 5835 H 561.219 -5.35505 -5.72891 0
M  V30 5836 N 558.722 1.53707 -0.348139 0
M  V30 5837 C 559.97 2.00591 0.246478 0
M  V30 5838 C 560.291 1.23753 1.50699 0
M  V30 5839 O 559.561 0.345964 1.92821 0
M  V30 5840 H 558.141 0.741053 0.0940679 0
M  V30 5841 H 560.803 1.89139 -0.470354 0
M  V30 5842 H 559.899 3.08297 0.485714 0
M  V30 5843 N 560.2 0.0768682 1.57412 0
M  V30 5844 C 561.446 -0.591961 1.93968 0
M  V30 5845 C 561.779 -1.68954 0.9575 0
M  V30 5846 O 561.054 -1.94496 -0.0124675 0
M  V30 5847 C 561.337 -1.16418 3.40762 0
M  V30 5848 C 561.19 -0.0728933 4.49741 0
M  V30 5849 C 562.509 -2.06814 3.88479 0
M  V30 5850 H 559.628 -0.213716 0.705333 0
M  V30 5851 H 562.27 0.14387 1.89455 0
M  V30 5852 H 560.42 -1.79128 3.4474 0
M  V30 5853 H 562.092 0.560446 4.57883 0
M  V30 5854 H 560.335 0.595859 4.29688 0
M  V30 5855 H 561.006 -0.513755 5.49604 0
M  V30 5856 H 563.482 -1.54033 3.8654 0
M  V30 5857 H 562.358 -2.43785 4.91793 0
M  V30 5858 H 562.619 -2.97844 3.26713 0
M  V30 5859 N 561.678 -1.56367 -0.196722 0
M  V30 5860 C 562.611 -1.89475 -1.2718 0
M  V30 5861 C 563.589 -0.754667 -1.44026 0
M  V30 5862 O 564.773 -1.00551 -1.59442 0
M  V30 5863 C 561.9 -2.12352 -2.63864 0
M  V30 5864 C 560.946 -3.35053 -2.63897 0
M  V30 5865 S 561.779 -4.90228 -2.15492 0
M  V30 5866 C 562.935 -5.16171 -3.54004 0
M  V30 5867 H 563.168 -2.80365 -0.989075 0
M  V30 5868 H 560.701 -1.49125 -0.40014 0
M  V30 5869 H 562.659 -2.26214 -3.42545 0
M  V30 5870 H 561.32 -1.22214 -2.89349 0
M  V30 5871 H 560.513 -3.48182 -3.64397 0
M  V30 5872 H 560.115 -3.20176 -1.93296 0
M  V30 5873 H 562.407 -5.06591 -4.49857 0
M  V30 5874 H 563.35 -6.17938 -3.45771 0
M  V30 5875 H 563.758 -4.43814 -3.48841 0
M  V30 5876 N 563.156 0.464375 -1.50603 0
M  V30 5877 C 564.402 1.21776 -1.62168 0
M  V30 5878 C 564.735 1.91476 -0.324154 0
M  V30 5879 O 564.01 1.8242 0.674782 0
M  V30 5880 C 564.293 2.25614 -2.80661 0
M  V30 5881 C 564.146 1.60175 -4.20314 0
M  V30 5882 C 565.465 3.26862 -2.94702 0
M  V30 5883 H 562.584 0.44137 -0.590222 0
M  V30 5884 H 565.226 0.510623 -1.8301 0
M  V30 5885 H 563.376 2.85923 -2.63021 0
M  V30 5886 H 565.048 1.03411 -4.4956 0
M  V30 5887 H 563.291 0.904697 -4.24261 0
M  V30 5888 H 563.962 2.35665 -4.99165 0
M  V30 5889 H 566.438 2.76582 -3.10872 0
M  V30 5890 H 565.314 3.96839 -3.79223 0
M  V30 5891 H 565.575 3.91382 -2.05603 0
M  V30 5892 N 564.634 1.40294 0.718013 0
M  V30 5893 C 565.859 1.41941 1.5122 0
M  V30 5894 C 566.284 0.0202371 1.88089 0
M  V30 5895 O 565.642 -0.971078 1.53101 0
M  V30 5896 C 565.69 2.3141 2.76554 0
M  V30 5897 O 564.794 1.75567 3.73162 0
M  V30 5898 H 564.135 0.482644 0.456016 0
M  V30 5899 H 566.665 1.84494 0.884478 0
M  V30 5900 H 566.675 2.46513 3.25108 0
M  V30 5901 H 565.35 3.33085 2.49053 0
M  V30 5902 H 563.927 1.69798 3.31999 0
M  V30 5903 N 566.112 -0.949982 1.2575 0
M  V30 5904 C 567.062 -2.03297 1.03221 0
M  V30 5905 C 568.046 -1.60867 -0.0324751 0
M  V30 5906 O 569.238 -1.76047 0.183423 0
M  V30 5907 C 566.367 -3.36938 0.657841 0
M  V30 5908 C 565.453 -3.85878 1.75952 0
M  V30 5909 N 565.844 -4.0756 2.99547 0
M  V30 5910 C 564.142 -4.14709 1.64111 0
M  V30 5911 C 564.843 -4.47961 3.71087 0
M  V30 5912 N 563.819 -4.5416 2.98731 0
M  V30 5913 H 567.621 -2.1806 1.97045 0
M  V30 5914 H 565.135 -1.13516 1.16138 0
M  V30 5915 H 567.132 -4.14155 0.477614 0
M  V30 5916 H 565.792 -3.2355 -0.273025 0
M  V30 5917 H 566.803 -3.94501 3.35544 0
M  V30 5918 H 563.48 -4.10158 0.779527 0
M  V30 5919 H 564.87 -4.73002 4.77199 0
M  V30 5920 N 567.59 -1.07411 -1.15328 0
M  V30 5921 C 569.006 -0.799759 -1.38116 0
M  V30 5922 C 569.206 0.59572 -1.92493 0
M  V30 5923 O 568.262 1.35433 -2.13106 0
M  V30 5924 C 569.575 -1.87407 -2.35158 0
M  V30 5925 C 571.123 -1.89889 -2.48819 0
M  V30 5926 C 571.598 -2.96406 -3.49153 0
M  V30 5927 N 573.089 -2.95512 -3.56689 0
M  V30 5928 C 573.824 -3.74575 -4.34144 0
M  V30 5929 N 573.32 -4.63488 -5.14928 0
M  V30 5930 N 575.113 -3.62919 -4.29239 0
M  V30 5931 H 567.264 -1.97411 -0.78374 0
M  V30 5932 H 569.527 -0.856113 -0.407154 0
M  V30 5933 H 569.233 -2.8768 -2.0232 0
M  V30 5934 H 569.107 -1.73471 -3.34944 0
M  V30 5935 H 571.494 -0.902677 -2.80955 0
M  V30 5936 H 571.575 -2.07904 -1.49029 0
M  V30 5937 H 571.219 -3.96227 -3.17752 0
M  V30 5938 H 571.149 -2.75638 -4.48699 0
M  V30 5939 H 573.64 -2.31061 -2.99031 0
M  V30 5940 H 573.953 -5.20445 -5.71276 0
M  V30 5941 H 572.298 -4.67537 -5.14232 0
M  V30 5942 H 575.489 -2.92833 -3.65194 0
M  V30 5943 H 575.662 -4.24777 -4.89355 0
M  V30 5944 N 569.068 1.32177 -0.85831 0
M  V30 5945 C 570.293 2.01847 -0.476718 0
M  V30 5946 C 570.718 1.64065 0.920021 0
M  V30 5947 O 570.076 0.843189 1.60499 0
M  V30 5948 C 570.124 3.55097 -0.627578 0
M  V30 5949 O 569.228 4.11012 0.338086 0
M  V30 5950 H 568.569 0.635907 -0.191099 0
M  V30 5951 H 571.099 1.68641 -1.15851 0
M  V30 5952 H 571.109 4.04718 -0.516476 0
M  V30 5953 H 569.784 3.81938 -1.64609 0
M  V30 5954 H 568.361 3.72451 0.182917 0
M  V30 5955 N 570.547 0.616602 1.45037 0
M  V30 5956 C 571.795 0.115103 2.01772 0
M  V30 5957 C 572.116 -1.2622 1.48639 0
M  V30 5958 O 571.386 -1.83563 0.684199 0
M  V30 5959 H 569.966 0.0395607 0.745952 0
M  V30 5960 H 572.628 0.800032 1.77723 0
M  V30 5961 H 571.724 0.0717274 3.12018 0
M  V30 5962 N 572.025 -1.5352 0.356285 0
M  V30 5963 C 572.935 -2.29151 -0.502712 0
M  V30 5964 C 573.951 -1.34753 -1.1008 0
M  V30 5965 O 575.127 -1.67803 -1.11374 0
M  V30 5966 C 572.192 -3.05911 -1.63154 0
M  V30 5967 C 571.253 -4.15958 -1.06194 0
M  V30 5968 C 570.486 -4.8905 -2.13696 0
M  V30 5969 O 570.709 -4.61919 -3.34645 0
M  V30 5970 O 569.643 -5.75202 -1.77275 0
M  V30 5971 H 573.469 -3.03492 0.112466 0
M  V30 5972 H 571.054 -1.4891 0.120942 0
M  V30 5973 H 572.936 -3.53874 -2.28804 0
M  V30 5974 H 571.611 -2.34415 -2.23229 0
M  V30 5975 H 570.518 -3.7227 -0.369603 0
M  V30 5976 H 571.851 -4.89593 -0.505872 0
M  V30 5977 N 573.503 -0.0852151 -1.57369 0
M  V30 5978 C 574.731 0.58946 -1.98325 0
M  V30 5979 C 575.146 1.62333 -0.96403 0
M  V30 5980 O 574.503 1.82438 0.0476395 0
M  V30 5981 C 574.554 1.24604 -3.39347 0
M  V30 5982 O 574.275 0.253532 -4.37366 0
M  V30 5983 C 575.776 2.00726 -3.95252 0
M  V30 5984 H 572.996 0.158783 -0.651942 0
M  V30 5985 H 575.54 -0.161584 -2.03861 0
M  V30 5986 H 573.695 1.94808 -3.34856 0
M  V30 5987 H 574.109 0.726207 -5.19448 0
M  V30 5988 H 575.583 2.42039 -4.96106 0
M  V30 5989 H 576.06 2.86919 -3.32527 0
M  V30 5990 H 576.666 1.3536 -4.03185 0
M  V30 5991 N 574.981 1.5647 0.188427 0
M  V30 5992 C 575.891 1.98285 1.2538 0
M  V30 5993 C 576.907 0.891535 1.49424 0
M  V30 5994 O 578.083 1.19782 1.61908 0
M  V30 5995 C 575.148 2.31965 2.57669 0
M  V30 5996 C 574.209 3.54838 2.41638 0
M  V30 5997 C 573.442 3.86901 3.67618 0
M  V30 5998 O 573.665 3.20163 4.72072 0
M  V30 5999 O 572.599 4.80309 3.62749 0
M  V30 6000 H 576.425 2.89145 0.928912 0
M  V30 6001 H 574.01 1.44112 0.393955 0
M  V30 6002 H 575.892 2.54673 3.35737 0
M  V30 6003 H 574.567 1.44271 2.89771 0
M  V30 6004 H 573.474 3.37369 1.61658 0
M  V30 6005 H 574.807 4.43019 2.14465 0
M  V30 6006 N 576.459 -0.456382 1.50847 0
M  V30 6007 C 577.736 -1.21739 1.53098 0
M  V30 6008 C 578.116 -2.09179 0.284132 0
M  V30 6009 O 577.464 -2.16466 -0.731773 0
M  V30 6010 C 577.674 -2.03573 2.83477 0
M  V30 6011 C 579.022 -2.61264 3.34703 0
M  V30 6012 O 580.046 -2.13802 2.84898 0
M  V30 6013 O 578.905 -3.47779 4.21559 0
M  V30 6014 H 575.999 -0.553219 0.614718 0
M  V30 6015 H 578.545 -0.467003 1.63148 0
M  V30 6016 H 577.317 -1.39232 3.65691 0
M  V30 6017 H 576.94 -2.85716 2.76499 0
M  V30 6018 N 577.937 -1.40673 -0.710563 0
M  V30 6019 C 579.183 -1.39428 -1.47267 0
M  V30 6020 C 579.516 0.00182129 -1.942 0
M  V30 6021 O 578.791 0.971387 -1.68506 0
M  V30 6022 C 579.074 -2.38812 -2.6952 0
M  V30 6023 C 578.927 -3.87467 -2.28449 0
M  V30 6024 C 580.246 -2.3566 -3.71689 0
M  V30 6025 H 577.365 -0.507768 -0.534173 0
M  V30 6026 H 580.007 -1.71843 -0.810547 0
M  V30 6027 H 578.157 -2.113 -3.26013 0
M  V30 6028 H 579.829 -4.25825 -1.77399 0
M  V30 6029 H 578.072 -4.03058 -1.60395 0
M  V30 6030 H 578.743 -4.5253 -3.16103 0
M  V30 6031 H 581.219 -2.6004 -3.24836 0
M  V30 6032 H 580.095 -3.07237 -4.54859 0
M  V30 6033 H 580.356 -1.36996 -4.20339 0
M  V30 6034 N 579.415 0.9433 -1.26252 0
M  V30 6035 C 580.662 1.68925 -1.11672 0
M  V30 6036 C 580.99 1.91499 0.340329 0
M  V30 6037 O 580.245 1.49189 1.26653 0
M  V30 6038 C 580.544 3.07073 -1.82868 0
M  V30 6039 C 580.21 3.04262 -3.32769 0
M  V30 6040 C 578.872 3.03203 -3.7366 0
M  V30 6041 C 581.224 2.96729 -4.28487 0
M  V30 6042 C 578.552 2.92373 -5.0866 0
M  V30 6043 C 580.904 2.87442 -5.63525 0
M  V30 6044 C 579.568 2.84724 -6.03729 0
M  V30 6045 H 578.838 0.618141 -0.408635 0
M  V30 6046 H 581.485 1.10124 -1.56668 0
M  V30 6047 H 579.79 3.69486 -1.30335 0
M  V30 6048 H 581.487 3.63635 -1.69029 0
M  V30 6049 H 578.077 3.05865 -3.00241 0
M  V30 6050 H 582.261 2.96658 -3.97879 0
M  V30 6051 H 577.517 2.88645 -5.38975 0
M  V30 6052 H 581.691 2.80576 -6.37377 0
M  V30 6053 H 579.318 2.76089 -7.08293 0
M  V30 6054 N 580.893 1.08022 1.14757 0
M  V30 6055 C 582.142 0.802468 1.8505 0
M  V30 6056 C 582.455 -0.674061 1.83619 0
M  V30 6057 O 583.661 -1.06683 2.49662 0
M  V30 6058 C 582.117 1.38551 3.32162 0
M  V30 6059 C 581.725 2.89354 3.42021 0
M  V30 6060 C 583.469 1.18608 4.07594 0
M  V30 6061 C 581.376 3.40815 4.83321 0
M  V30 6062 H 580.306 0.296518 0.693248 0
M  V30 6063 H 582.957 1.30114 1.29393 0
M  V30 6064 H 581.339 0.814556 3.87532 0
M  V30 6065 H 582.513 3.52552 2.96722 0
M  V30 6066 H 580.828 3.08165 2.80041 0
M  V30 6067 H 583.425 1.54525 5.11885 0
M  V30 6068 H 583.768 0.125599 4.1611 0
M  V30 6069 H 584.301 1.72375 3.58513 0
M  V30 6070 H 581.04 4.46418 4.79991 0
M  V30 6071 H 580.56 2.82374 5.29174 0
M  V30 6072 H 582.239 3.37171 5.522 0
M  V30 6073 N 582.371 -1.3172 0.865308 0
M  V30 6074 C 583.334 -2.26918 0.322627 0
M  V30 6075 C 584.334 -1.52031 -0.523751 0
M  V30 6076 O 585.524 -1.70973 -0.333727 0
M  V30 6077 C 582.656 -3.36558 -0.542338 0
M  V30 6078 H 583.849 -2.76432 1.16298 0
M  V30 6079 H 581.402 -1.42573 0.640512 0
M  V30 6080 H 582.137 -2.92329 -1.40407 0
M  V30 6081 H 581.922 -3.92048 0.0636395 0
M  V30 6082 H 583.412 -4.07465 -0.91446 0
M  V30 6083 N 583.85 -0.624285 -1.44708 0
M  V30 6084 C 585.127 -0.0572781 -1.95516 0
M  V30 6085 C 585.507 1.41516 -1.56641 0
M  V30 6086 O 584.855 2.12614 -0.837111 0
M  V30 6087 C 585.065 -0.272944 -3.47931 0
M  V30 6088 C 586.413 -0.162529 -4.24289 0
M  V30 6089 O 587.437 -0.203946 -3.55616 0
M  V30 6090 O 586.296 -0.0616847 -5.46465 0
M  V30 6091 H 583.389 0.0262219 -0.826584 0
M  V30 6092 H 585.936 -0.695512 -1.54793 0
M  V30 6093 H 584.707 -1.29492 -3.69253 0
M  V30 6094 H 584.331 0.399756 -3.95585 0
M  V30 6095 N 585.328 1.53329 -0.364422 0
M  V30 6096 C 586.258 2.28627 0.474543 0
M  V30 6097 C 587.239 1.31009 1.08492 0
M  V30 6098 O 588.424 1.59878 1.10239 0
M  V30 6099 C 585.554 3.07465 1.61501 0
M  V30 6100 C 584.508 4.1276 1.13194 0
M  V30 6101 C 583.834 4.79674 2.36255 0
M  V30 6102 C 585.134 5.21847 0.217507 0
M  V30 6103 H 586.828 2.99005 -0.153656 0
M  V30 6104 H 584.374 1.43803 -0.0753406 0
M  V30 6105 H 586.327 3.58889 2.20855 0
M  V30 6106 H 585.051 2.34775 2.27042 0
M  V30 6107 H 583.71 3.62281 0.56109 0
M  V30 6108 H 583.358 4.03557 3.00251 0
M  V30 6109 H 583.058 5.50827 2.04606 0
M  V30 6110 H 584.582 5.33892 2.96297 0
M  V30 6111 H 585.996 5.6878 0.718493 0
M  V30 6112 H 584.393 6.00099 -0.00806408 0
M  V30 6113 H 585.463 4.7921 -0.740653 0
M  V30 6114 N 586.806 0.0935595 1.57322 0
M  V30 6115 C 588.052 -0.571355 1.94585 0
M  V30 6116 C 588.385 -1.67929 0.975366 0
M  V30 6117 O 587.66 -1.94498 0.00816206 0
M  V30 6118 C 587.943 -1.12797 3.41978 0
M  V30 6119 C 587.796 -0.0251881 4.49793 0
M  V30 6120 C 589.115 -2.02682 3.90651 0
M  V30 6121 H 586.234 -0.206223 0.70756 0
M  V30 6122 H 588.876 0.163956 1.89291 0
M  V30 6123 H 587.026 -1.75461 3.4662 0
M  V30 6124 H 588.698 0.608979 4.57263 0
M  V30 6125 H 586.941 0.641399 4.29032 0
M  V30 6126 H 587.612 -0.455433 5.50118 0
M  V30 6127 H 590.088 -1.49925 3.88152 0
M  V30 6128 H 588.964 -2.38555 4.94351 0
M  V30 6129 H 589.225 -2.94362 3.29854 0
M  V30 6130 N 588.284 -1.56567 -0.180126 0
M  V30 6131 C 589.53 -1.81761 -0.899497 0
M  V30 6132 C 589.863 -0.670015 -1.82276 0
M  V30 6133 O 589.138 0.328575 -1.91705 0
M  V30 6134 C 589.421 -3.17296 -1.7028 0
M  V30 6135 C 589.274 -4.4257 -0.803255 0
M  V30 6136 C 590.593 -3.49678 -2.67233 0
M  V30 6137 H 587.712 -0.661192 -0.325567 0
M  V30 6138 H 590.354 -1.89272 -0.16612 0
M  V30 6139 H 588.504 -3.11023 -2.32802 0
M  V30 6140 H 590.176 -4.60902 -0.191585 0
M  V30 6141 H 588.419 -4.33658 -0.110796 0
M  V30 6142 H 589.09 -5.33935 -1.40064 0
M  V30 6143 H 591.566 -3.56347 -2.14839 0
M  V30 6144 H 590.442 -4.45605 -3.20511 0
M  V30 6145 H 590.703 -2.73932 -3.47007 0
M  V30 6146 N 589.762 0.448376 -1.51087 0
M  V30 6147 C 590.725 1.52588 -1.71025 0
M  V30 6148 C 591.725 1.49958 -0.580442 0
M  V30 6149 O 592.915 1.52176 -0.847833 0
M  V30 6150 C 590.047 2.92163 -1.75652 0
M  V30 6151 H 591.24 1.36218 -2.67179 0
M  V30 6152 H 588.793 0.676313 -1.4091 0
M  V30 6153 H 589.528 3.13951 -0.812724 0
M  V30 6154 H 589.313 2.95478 -2.57751 0
M  V30 6155 H 590.803 3.70349 -1.92953 0
M  V30 6156 N 591.24 1.41047 0.703093 0
M  V30 6157 C 592.17 1.45067 1.82969 0
M  V30 6158 C 593.151 0.31016 1.67248 0
M  V30 6159 O 594.336 0.520548 1.87093 0
M  V30 6160 C 591.466 1.32478 3.2104 0
M  V30 6161 C 590.42 2.44262 3.51454 0
M  V30 6162 C 589.746 2.16742 4.88801 0
M  V30 6163 C 591.046 3.86606 3.51189 0
M  V30 6164 H 592.74 2.39353 1.79863 0
M  V30 6165 H 590.286 1.15206 0.863919 0
M  V30 6166 H 592.239 1.33904 3.99559 0
M  V30 6167 H 590.963 0.346735 3.24754 0
M  V30 6168 H 589.622 2.42107 2.75282 0
M  V30 6169 H 589.27 1.17299 4.89132 0
M  V30 6170 H 588.97 2.91643 5.10116 0
M  V30 6171 H 590.494 2.19872 5.69639 0
M  V30 6172 H 591.908 3.90517 4.19725 0
M  V30 6173 H 590.305 4.61128 3.84033 0
M  V30 6174 H 591.375 4.15296 2.50315 0
M  V30 6175 N 592.718 -0.936591 1.26751 0
M  V30 6176 C 594.134 -1.21095 1.03963 0
M  V30 6177 C 594.334 -2.00156 -0.232372 0
M  V30 6178 O 593.39 -2.3434 -0.940274 0
M  V30 6179 C 594.703 -1.96775 2.27377 0
M  V30 6180 C 596.251 -2.09749 2.32324 0
M  V30 6181 C 596.726 -2.88832 3.55443 0
M  V30 6182 N 598.217 -2.96404 3.55948 0
M  V30 6183 C 598.952 -3.58036 4.47881 0
M  V30 6184 N 598.448 -4.21132 5.50109 0
M  V30 6185 N 600.241 -3.55353 4.35523 0
M  V30 6186 H 592.392 -0.408173 2.08441 0
M  V30 6187 H 594.655 -0.243139 0.91629 0
M  V30 6188 H 594.361 -1.46094 3.19921 0
M  V30 6189 H 594.235 -2.97424 2.31989 0
M  V30 6190 H 596.622 -2.5962 1.40291 0
M  V30 6191 H 596.703 -1.08347 2.31721 0
M  V30 6192 H 596.347 -2.39647 4.47808 0
M  V30 6193 H 596.277 -3.90499 3.53296 0
M  V30 6194 H 598.768 -2.51552 2.82011 0
M  V30 6195 H 599.081 -4.66071 6.16439 0
M  V30 6196 H 597.426 -4.19705 5.53961 0
M  V30 6197 H 600.617 -3.05256 3.54875 0
M  V30 6198 H 600.79 -4.03097 5.07363 0
M  V30 6199 N 594.196 -1.08629 -1.14182 0
M  V30 6200 C 595.424 -0.838889 -1.8913 0
M  V30 6201 C 595.839 0.609153 -1.78703 0
M  V30 6202 O 595.196 1.41876 -1.14794 0
M  V30 6203 C 595.247 -1.25477 -3.39025 0
M  V30 6204 O 594.968 -2.64601 -3.49167 0
M  V30 6205 C 596.469 -1.03856 -4.30963 0
M  V30 6206 H 593.689 -0.302377 -0.599007 0
M  V30 6207 H 596.233 -1.44615 -1.44592 0
M  V30 6208 H 594.388 -0.691571 -3.81177 0
M  V30 6209 H 594.802 -2.81922 -4.42289 0
M  V30 6210 H 596.276 -1.37892 -5.345 0
M  V30 6211 H 596.753 0.0242522 -4.39193 0
M  V30 6212 H 597.359 -1.58731 -3.94569 0
M  V30 6213 N 595.674 1.31259 -0.872281 0
M  V30 6214 C 596.922 1.96233 -0.483409 0
M  V30 6215 C 597.243 1.69276 0.968012 0
M  V30 6216 O 596.513 1.00943 1.67891 0
M  V30 6217 H 595.093 0.726025 -0.175774 0
M  V30 6218 H 597.755 1.60024 -1.11258 0
M  V30 6219 H 596.851 3.05403 -0.643075 0
M  V30 6220 N 597.152 0.631951 1.44375 0
M  V30 6221 C 598.084 -0.110911 2.28931 0
M  V30 6222 C 599.097 -0.808086 1.41329 0
M  V30 6223 O 600.286 -0.669396 1.65473 0
M  V30 6224 C 597.386 -1.17928 3.1772 0
M  V30 6225 C 596.559 -0.564458 4.33743 0
M  V30 6226 C 595.618 -1.5269 5.0356 0
M  V30 6227 O 594.644 -1.04372 5.59549 0
M  V30 6228 N 595.846 -2.86123 5.05088 0
M  V30 6229 H 598.611 0.614758 2.93327 0
M  V30 6230 H 596.172 0.473171 1.54831 0
M  V30 6231 H 598.164 -1.82348 3.61291 0
M  V30 6232 H 596.734 -1.80717 2.55069 0
M  V30 6233 H 595.954 0.258373 3.93352 0
M  V30 6234 H 597.242 -0.134355 5.08623 0
M  V30 6235 H 596.64 -3.27959 4.60933 0
M  V30 6236 H 595.197 -3.45901 5.52445 0
M  V30 6237 N 598.631 -1.53133 0.372548 0
M  V30 6238 C 599.88 -2.00539 -0.216115 0
M  V30 6239 C 600.193 -1.26374 -1.49295 0
M  V30 6240 O 601.399 -1.64404 -2.16064 0
M  V30 6241 C 599.855 -3.57253 -0.435678 0
M  V30 6242 C 599.463 -4.40302 0.82693 0
M  V30 6243 C 601.207 -4.12995 -0.981618 0
M  V30 6244 C 599.114 -5.88583 0.576567 0
M  V30 6245 H 598.044 -0.749246 -0.084536 0
M  V30 6246 H 600.695 -1.76771 0.492364 0
M  V30 6247 H 599.077 -3.77202 -1.20559 0
M  V30 6248 H 600.251 -4.32124 1.60017 0
M  V30 6249 H 598.566 -3.95699 1.29659 0
M  V30 6250 H 601.163 -5.21418 -1.18436 0
M  V30 6251 H 601.506 -3.68027 -1.94581 0
M  V30 6252 H 602.039 -3.96871 -0.271696 0
M  V30 6253 H 598.778 -6.37841 1.51128 0
M  V30 6254 H 598.298 -5.99592 -0.158047 0
M  V30 6255 H 599.977 -6.46676 0.204722 0
M  V30 6256 N 600.109 -0.101901 -1.5727 0
M  V30 6257 C 601.056 0.854577 -2.14396 0
M  V30 6258 C 602.026 1.27521 -1.06432 0
M  V30 6259 O 603.211 1.35575 -1.34253 0
M  V30 6260 C 600.351 2.10576 -2.73408 0
M  V30 6261 C 599.464 1.73504 -3.95626 0
M  V30 6262 C 598.599 2.9346 -4.42781 0
M  V30 6263 C 597.638 2.52547 -5.57572 0
M  V30 6264 N 596.775 3.65359 -5.99547 0
M  V30 6265 H 601.615 0.360578 -2.9581 0
M  V30 6266 H 599.152 0.166303 -1.46157 0
M  V30 6267 H 601.11 2.83859 -3.05745 0
M  V30 6268 H 599.74 2.57463 -1.94711 0
M  V30 6269 H 598.792 0.901622 -3.6956 0
M  V30 6270 H 600.104 1.39426 -4.78917 0
M  V30 6271 H 599.258 3.74988 -4.76937 0
M  V30 6272 H 597.997 3.30753 -3.58404 0
M  V30 6273 H 597.002 1.69446 -5.23037 0
M  V30 6274 H 598.227 2.1639 -6.43702 0
M  V30 6275 H 596.173 4.02358 -5.18116 0
M  V30 6276 H 596.09 3.35148 -6.77652 0
M  V30 6277 H 597.358 4.47378 -6.38336 0
M  V30 6278 N 601.587 1.56661 0.17182 0
M  V30 6279 C 602.815 1.861 0.904115 0
M  V30 6280 C 603.23 0.687227 1.75848 0
M  V30 6281 O 602.587 -0.343671 1.79235 0
M  V30 6282 C 602.638 3.14568 1.78127 0
M  V30 6283 O 602.359 4.27422 0.961366 0
M  V30 6284 C 603.86 3.5735 2.62327 0
M  V30 6285 H 601.08 0.617445 0.262684 0
M  V30 6286 H 603.624 2.03775 0.172068 0
M  V30 6287 H 601.779 2.98721 2.46666 0
M  V30 6288 H 602.193 5.00725 1.56123 0
M  V30 6289 H 603.667 4.50144 3.1949 0
M  V30 6290 H 604.144 2.81445 3.37173 0
M  V30 6291 H 604.75 3.75807 1.99121 0
M  V30 6292 N 603.065 -0.440357 1.51323 0
M  V30 6293 C 604.313 -1.18769 1.63518 0
M  V30 6294 C 604.634 -1.91793 0.352201 0
M  V30 6295 O 603.904 -1.85432 -0.631811 0
M  V30 6296 H 602.484 -0.441408 0.602634 0
M  V30 6297 H 605.146 -0.505162 1.8824 0
M  V30 6298 H 604.242 -1.91892 2.46138 0
M  V30 6299 N 604.543 -1.41418 -0.695603 0
M  V30 6300 C 605.506 -1.42988 -1.79129 0
M  V30 6301 C 606.506 -0.320514 -1.57573 0
M  V30 6302 O 607.696 -0.58039 -1.64247 0
M  V30 6303 C 604.828 -1.24122 -3.175 0
M  V30 6304 H 606.021 -2.40526 -1.7913 0
M  V30 6305 H 603.574 -1.2756 -0.903225 0
M  V30 6306 H 604.309 -0.274253 -3.23138 0
M  V30 6307 H 604.094 -2.045 -3.34547 0
M  V30 6308 H 605.584 -1.28056 -3.97481 0
M  V30 6309 N 606.021 0.929856 -1.27246 0
M  V30 6310 C 607.432 1.49223 -1.12203 0
M  V30 6311 C 607.783 1.93989 0.293731 0
M  V30 6312 O 606.908 1.80978 1.18642 0
M  V30 6313 C 607.503 2.71198 -2.0307 0
M  V30 6314 C 606.062 3.23666 -1.92139 0
M  V30 6315 C 605.209 1.96409 -1.95752 0
M  V30 6316 H 608.16 0.744181 -1.4017 0
M  V30 6317 H 608.181 3.45905 -1.58524 0
M  V30 6318 H 607.693 2.38585 -3.06102 0
M  V30 6319 H 605.794 3.61042 -0.920834 0
M  V30 6320 H 605.907 3.90006 -2.78267 0
M  V30 6321 H 604.271 2.12806 -1.39949 0
M  V30 6322 H 605.054 1.66113 -3.00436 0
M  V30 6323 N 607.499 1.09233 1.13605 0
M  V30 6324 C 608.739 0.836786 1.86487 0
M  V30 6325 C 609.103 -0.626191 1.81502 0
M  V30 6326 O 610.304 -0.99758 2.49603 0
M  V30 6327 C 608.575 1.35476 3.30728 0
M  V30 6328 S 610.134 1.2328 4.21126 0
M  V30 6329 H 606.952 0.302702 0.643345 0
M  V30 6330 H 609.554 1.3953 1.36936 0
M  V30 6331 H 608.258 2.41381 3.31909 0
M  V30 6332 H 607.789 0.792286 3.85339 0
M  V30 6333 H 609.804 0.182468 4.95864 0
M  V30 6334 N 608.977 -1.30795 0.87923 0
M  V30 6335 C 610.393 -1.48981 0.57243 0
M  V30 6336 C 610.593 -1.80719 -0.891236 0
M  V30 6337 O 609.649 -1.89136 -1.67283 0
M  V30 6338 C 610.962 -2.61721 1.48063 0
M  V30 6339 C 612.51 -2.75603 1.48365 0
M  V30 6340 C 612.985 -3.91449 2.37763 0
M  V30 6341 N 614.476 -3.98751 2.35695 0
M  V30 6342 C 615.211 -4.87684 3.01583 0
M  V30 6343 N 614.707 -5.81454 3.76674 0
M  V30 6344 N 616.5 -4.81005 2.90844 0
M  V30 6345 H 608.651 -1.08465 1.82617 0
M  V30 6346 H 610.914 -0.536813 0.781368 0
M  V30 6347 H 610.62 -2.45073 2.52254 0
M  V30 6348 H 610.494 -3.58071 1.18596 0
M  V30 6349 H 612.881 -2.9166 0.44927 0
M  V30 6350 H 612.962 -1.79891 1.81859 0
M  V30 6351 H 612.606 -3.76149 3.41283 0
M  V30 6352 H 612.536 -4.86487 2.01589 0
M  V30 6353 H 615.027 -3.31668 1.81121 0
M  V30 6354 H 615.34 -6.46063 4.24054 0
M  V30 6355 H 613.685 -5.81403 3.80782 0
M  V30 6356 H 616.876 -4.06728 2.31711 0
M  V30 6357 H 617.049 -5.50107 3.42471 0
M  V30 6358 N 610.455 -0.639598 -1.44038 0
M  V30 6359 C 611.68 -0.153117 -2.06834 0
M  V30 6360 C 612.105 1.16676 -1.47541 0
M  V30 6361 O 611.463 1.71769 -0.580093 0
M  V30 6362 C 611.511 -0.0609169 -3.60549 0
M  V30 6363 O 610.615 0.98071 -4.00569 0
M  V30 6364 H 609.956 -0.0886402 -0.658057 0
M  V30 6365 H 612.486 -0.878674 -1.84771 0
M  V30 6366 H 612.496 0.126892 -4.07803 0
M  V30 6367 H 611.171 -1.0245 -4.03084 0
M  V30 6368 H 609.748 0.766789 -3.64931 0
M  V30 6369 N 611.933 1.52934 -0.380664 0
M  V30 6370 C 612.843 2.29921 0.466192 0
M  V30 6371 C 613.859 1.36488 1.07922 0
M  V30 6372 O 615.035 1.69553 1.0869 0
M  V30 6373 C 612.1 3.08468 1.58266 0
M  V30 6374 C 611.161 4.17595 0.995627 0
M  V30 6375 C 610.394 4.92387 2.05889 0
M  V30 6376 O 610.617 4.67184 3.27254 0
M  V30 6377 O 609.551 5.77949 1.68102 0
M  V30 6378 H 613.377 3.03274 -0.160735 0
M  V30 6379 H 610.962 1.48698 -0.144617 0
M  V30 6380 H 612.844 3.57469 2.23145 0
M  V30 6381 H 611.519 2.37937 2.19471 0
M  V30 6382 H 610.426 3.72811 0.310332 0
M  V30 6383 H 611.759 4.90336 0.427918 0
M  V30 6384 N 613.412 0.11024 1.57214 0
M  V30 6385 C 614.828 -0.24638 1.57687 0
M  V30 6386 C 615.028 -1.67344 1.12241 0
M  V30 6387 O 614.084 -2.39298 0.805783 0
M  V30 6388 C 615.397 -0.0210288 3.00693 0
M  V30 6389 C 616.945 -0.0876077 3.12877 0
M  V30 6390 C 617.42 0.10994 4.57868 0
M  V30 6391 N 618.911 0.0556135 4.63167 0
M  V30 6392 C 619.646 0.183495 5.73106 0
M  V30 6393 N 619.142 0.367058 6.91827 0
M  V30 6394 N 620.935 0.123689 5.61964 0
M  V30 6395 H 613.086 1.04246 1.85058 0
M  V30 6396 H 615.349 0.40979 0.854854 0
M  V30 6397 H 615.055 0.965203 3.38196 0
M  V30 6398 H 614.929 -0.756748 3.69531 0
M  V30 6399 H 617.316 -1.06436 2.75237 0
M  V30 6400 H 617.397 0.67985 2.466 0
M  V30 6401 H 617.041 1.08362 4.96206 0
M  V30 6402 H 616.971 -0.677397 5.22225 0
M  V30 6403 H 619.462 -0.0831062 3.77809 0
M  V30 6404 H 619.775 0.455739 7.71455 0
M  V30 6405 H 618.12 0.40292 6.93831 0
M  V30 6406 H 621.311 -0.0186928 4.68096 0
M  V30 6407 H 621.484 0.226797 6.47603 0
M  V30 6408 N 614.89 -1.56749 -0.16351 0
M  V30 6409 C 615.838 -1.97939 -1.22159 0
M  V30 6410 C 616.832 -0.869288 -1.45395 0
M  V30 6411 O 618.038 -1.05443 -1.45883 0
M  V30 6412 H 614.413 -0.629869 -0.410815 0
M  V30 6413 H 616.384 -2.86115 -0.847381 0
M  V30 6414 C 615.133 -2.36206 -2.55151 0
M  V30 6415 H 614.456 -3.2117 -2.38097 0
M  V30 6416 H 615.896 -2.68863 -3.27854 0
M  V30 6417 C 614.355 -1.20841 -3.14482 0
M  V30 6418 O 614.885 -0.500258 -3.98573 0
M  V30 6419 N 613.091 -0.976943 -2.73686 0
M  V30 6420 H 612.638 -1.55457 -2.05404 0
M  V30 6421 H 612.596 -0.206912 -3.13718 0
M  V30 6422 N 616.368 0.432326 -1.51554 0
M  V30 6423 C 617.331 1.50765 -1.72634 0
M  V30 6424 C 618.331 1.49334 -0.596314 0
M  V30 6425 O 619.521 1.51268 -0.863925 0
M  V30 6426 C 616.653 2.90284 -1.7874 0
M  V30 6427 H 617.846 1.33377 -2.68609 0
M  V30 6428 H 615.399 0.661329 -1.4162 0
M  V30 6429 H 616.134 3.13071 -0.845977 0
M  V30 6430 H 615.919 2.92727 -2.6087 0
M  V30 6431 H 617.409 3.68282 -1.96871 0
M  V30 6432 N 617.846 1.41785 0.688094 0
M  V30 6433 C 618.793 1.44221 1.80191 0
M  V30 6434 C 619.763 0.295688 1.63447 0
M  V30 6435 O 620.948 0.49783 1.84191 0
M  V30 6436 C 618.088 1.33743 3.1813 0
M  V30 6437 C 617.201 2.58325 3.46254 0
M  V30 6438 C 616.336 2.40086 4.73848 0
M  V30 6439 C 615.375 3.60107 4.94964 0
M  V30 6440 N 614.512 3.40892 6.13789 0
M  V30 6441 H 619.352 2.39411 1.77444 0
M  V30 6442 H 616.889 1.18876 0.866423 0
M  V30 6443 H 618.847 1.25669 3.97823 0
M  V30 6444 H 617.477 0.42157 3.20035 0
M  V30 6445 H 616.529 2.7682 2.60912 0
M  V30 6446 H 617.841 3.4758 3.57756 0
M  V30 6447 H 616.995 2.29522 5.61609 0
M  V30 6448 H 615.734 1.483 4.64606 0
M  V30 6449 H 614.739 3.71118 4.05649 0
M  V30 6450 H 615.964 4.52857 5.06061 0
M  V30 6451 H 613.91 2.51812 6.05745 0
M  V30 6452 H 613.827 4.23727 6.26092 0
M  V30 6453 H 615.095 3.34114 7.04264 0
M  V30 6454 N 619.324 -0.923095 1.27737 0
M  V30 6455 C 620.554 -1.70277 1.17001 0
M  V30 6456 C 620.962 -1.87188 -0.275199 0
M  V30 6457 O 620.305 -1.39195 -1.19877 0
M  V30 6458 C 620.367 -3.11976 1.78637 0
M  V30 6459 C 620.031 -3.18386 3.27841 0
M  V30 6460 C 621.028 -3.00287 4.2441 0
M  V30 6461 C 618.713 -3.41198 3.68632 0
M  V30 6462 C 620.707 -3.04896 5.59747 0
M  V30 6463 C 618.394 -3.4544 5.04097 0
M  V30 6464 C 619.392 -3.27309 5.99465 0
M  V30 6465 O 619.08 -3.31295 7.32461 0
M  V30 6466 H 618.812 -0.539366 0.407505 0
M  V30 6467 H 621.366 -1.16446 1.69202 0
M  V30 6468 H 619.596 -3.67308 1.20919 0
M  V30 6469 H 621.285 -3.7193 1.6255 0
M  V30 6470 H 622.051 -2.825 3.94232 0
M  V30 6471 H 617.93 -3.54359 2.94873 0
M  V30 6472 H 621.474 -2.90662 6.34162 0
M  V30 6473 H 617.371 -3.62753 5.33929 0
M  V30 6474 H 618.139 -3.47719 7.40968 0
M  V30 6475 N 620.802 -1.09834 -1.13024 0
M  V30 6476 C 621.75 -0.736283 -2.20639 0
M  V30 6477 C 622.744 0.264725 -1.67319 0
M  V30 6478 O 623.95 0.125745 -1.7956 0
M  V30 6479 H 620.325 -0.220136 -0.719058 0
M  V30 6480 H 622.296 -1.65295 -2.48436 0
M  V30 6481 C 621.045 -0.177544 -3.47246 0
M  V30 6482 H 620.368 -0.939009 -3.88616 0
M  V30 6483 H 621.808 0.0378007 -4.23983 0
M  V30 6484 C 620.267 1.08824 -3.1884 0
M  V30 6485 O 620.797 2.1708 -3.37993 0
M  V30 6486 N 619.003 1.00442 -2.7269 0
M  V30 6487 H 618.55 0.123383 -2.57304 0
M  V30 6488 H 618.508 1.85206 -2.5406 0
M  V30 6489 N 622.28 1.30327 -0.886154 0
M  V30 6490 C 623.212 2.27079 -0.311072 0
M  V30 6491 C 624.225 1.53758 0.53502 0
M  V30 6492 O 625.414 1.74947 0.354378 0
M  V30 6493 C 622.514 3.33965 0.576228 0
M  V30 6494 C 621.687 4.36735 -0.241064 0
M  V30 6495 C 620.746 5.23028 0.576916 0
M  V30 6496 O 619.772 5.692 -0.000802231 0
M  V30 6497 N 620.974 5.49016 1.88579 0
M  V30 6498 H 623.739 2.77065 -1.14259 0
M  V30 6499 H 621.3 1.43519 -0.749258 0
M  V30 6500 H 623.292 3.88618 1.12953 0
M  V30 6501 H 621.862 2.839 1.30842 0
M  V30 6502 H 621.082 3.81932 -0.975805 0
M  V30 6503 H 622.37 5.02451 -0.801272 0
M  V30 6504 H 621.768 5.13288 2.37806 0
M  V30 6505 H 620.325 6.06539 2.38651 0
M  V30 6506 N 623.758 0.647228 1.43697 0
M  V30 6507 C 624.688 -0.0345631 2.33474 0
M  V30 6508 C 625.669 -0.818193 1.4913 0
M  V30 6509 O 626.854 -0.780867 1.77809 0
M  V30 6510 C 623.984 -1.00576 3.32418 0
M  V30 6511 C 622.938 -0.33266 4.26705 0
M  V30 6512 C 622.264 -1.41489 5.1564 0
M  V30 6513 C 623.564 0.771204 5.16575 0
M  V30 6514 H 625.258 0.715163 2.90733 0
M  V30 6515 H 622.804 0.345364 1.39797 0
M  V30 6516 H 624.757 -1.49159 3.94119 0
M  V30 6517 H 623.481 -1.78657 2.73403 0
M  V30 6518 H 622.14 0.13267 3.6636 0
M  V30 6519 H 621.788 -2.18698 4.52968 0
M  V30 6520 H 621.488 -0.969799 5.79542 0
M  V30 6521 H 623.012 -1.9022 5.80214 0
M  V30 6522 H 624.426 0.36779 5.72119 0
M  V30 6523 H 622.823 1.1404 5.89165 0
M  V30 6524 H 623.893 1.63169 4.56622 0
M  V30 6525 N 625.236 -1.5273 0.388769 0
M  V30 6526 C 626.166 -2.29353 -0.438111 0
M  V30 6527 C 627.147 -1.32719 -1.06394 0
M  V30 6528 O 628.332 -1.61612 -1.07681 0
M  V30 6529 C 625.462 -3.09995 -1.56589 0
M  V30 6530 C 624.416 -4.14509 -1.06613 0
M  V30 6531 C 623.742 -4.83372 -2.28594 0
M  V30 6532 C 625.042 -5.22127 -0.134459 0
M  V30 6533 H 626.736 -2.98723 0.201206 0
M  V30 6534 H 624.282 -1.43665 0.0982089 0
M  V30 6535 H 626.235 -3.62357 -2.15118 0
M  V30 6536 H 624.959 -2.38357 -2.23279 0
M  V30 6537 H 623.618 -3.63128 -0.503383 0
M  V30 6538 H 623.266 -4.08283 -2.93792 0
M  V30 6539 H 622.966 -5.54012 -1.95817 0
M  V30 6540 H 624.49 -5.38538 -2.87766 0
M  V30 6541 H 625.904 -5.69851 -0.627914 0
M  V30 6542 H 624.301 -6.00011 0.103534 0
M  V30 6543 H 625.371 -4.77971 0.816798 0
M  V30 6544 N 626.714 -0.118576 -1.57153 0
M  V30 6545 C 628.13 0.238014 -1.57815 0
M  V30 6546 C 628.33 1.66747 -1.13127 0
M  V30 6547 O 627.386 2.38867 -0.818462 0
M  V30 6548 C 628.699 0.00508207 -3.007 0
M  V30 6549 C 630.247 0.0710139 -3.12919 0
M  V30 6550 C 630.722 -0.13422 -4.57803 0
M  V30 6551 N 632.213 -0.0801755 -4.63131 0
M  V30 6552 C 632.948 -0.213885 -5.73001 0
M  V30 6553 N 632.444 -0.403742 -6.91623 0
M  V30 6554 N 634.237 -0.15349 -5.6189 0
M  V30 6555 H 626.388 -1.05226 -1.84503 0
M  V30 6556 H 628.651 -0.414318 -0.852669 0
M  V30 6557 H 628.357 -0.983125 -3.3768 0
M  V30 6558 H 628.231 0.73714 -3.69927 0
M  V30 6559 H 630.618 1.04975 -2.75798 0
M  V30 6560 H 630.699 -0.692918 -2.46236 0
M  V30 6561 H 630.343 -1.10992 -4.95624 0
M  V30 6562 H 630.273 0.649692 -5.22577 0
M  V30 6563 H 632.764 0.0630689 -3.77847 0
M  V30 6564 H 633.077 -0.496645 -7.71202 0
M  V30 6565 H 631.422 -0.43971 -6.93608 0
M  V30 6566 H 634.613 -0.00613174 -4.681 0
M  V30 6567 H 634.786 -0.261138 -6.47474 0
M  V30 6568 N 628.193 1.56834 0.155195 0
M  V30 6569 C 629.442 1.82088 0.867567 0
M  V30 6570 C 629.755 0.69849 1.82703 0
M  V30 6571 O 630.961 0.836407 2.58295 0
M  V30 6572 C 629.417 3.22707 1.59336 0
M  V30 6573 C 629.025 4.42859 0.676719 0
M  V30 6574 C 630.769 3.57242 2.293 0
M  V30 6575 C 628.676 5.74501 1.40367 0
M  V30 6576 H 627.606 0.679057 0.327715 0
M  V30 6577 H 630.257 1.83105 0.120351 0
M  V30 6578 H 628.639 3.16054 2.38591 0
M  V30 6579 H 629.813 4.60731 -0.0800196 0
M  V30 6580 H 628.128 4.16311 0.0859129 0
M  V30 6581 H 630.725 4.52847 2.84312 0
M  V30 6582 H 631.068 2.82901 3.05406 0
M  V30 6583 H 631.601 3.6552 1.56972 0
M  V30 6584 H 628.34 6.51915 0.684623 0
M  V30 6585 H 627.86 5.60579 2.13332 0
M  V30 6586 H 629.539 6.17016 1.94681 0
M  V30 6587 N 629.671 -0.424282 1.51781 0
M  V30 6588 C 630.581 -1.54087 1.76902 0
M  V30 6589 C 631.597 -1.61249 0.653826 0
M  V30 6590 O 632.773 -1.78247 0.937552 0
M  V30 6591 C 629.838 -2.8996 1.90063 0
M  V30 6592 C 628.899 -2.92809 3.13945 0
M  V30 6593 C 628.132 -4.22201 3.26469 0
M  V30 6594 O 628.355 -5.15286 2.44616 0
M  V30 6595 O 627.289 -4.31599 4.1953 0
M  V30 6596 H 631.115 -1.358 2.71647 0
M  V30 6597 H 628.7 -0.608618 1.36441 0
M  V30 6598 H 630.582 -3.70575 2.0063 0
M  V30 6599 H 629.257 -3.08347 0.985067 0
M  V30 6600 H 628.164 -2.11102 3.08847 0
M  V30 6601 H 629.497 -2.79369 4.05233 0
M  V30 6602 N 631.149 -1.42148 -0.680565 0
M  V30 6603 C 632.059 -1.47565 -1.82378 0
M  V30 6604 C 633.075 -0.36489 -1.70131 0
M  V30 6605 O 634.251 -0.614916 -1.91783 0
M  V30 6606 C 631.316 -1.37013 -3.18478 0
M  V30 6607 C 630.377 -2.58532 -3.42724 0
M  V30 6608 C 629.61 -2.48473 -4.72331 0
M  V30 6609 O 629.833 -1.51745 -5.49845 0
M  V30 6610 O 628.767 -3.38503 -4.97694 0
M  V30 6611 H 632.593 -2.44045 -1.80764 0
M  V30 6612 H 630.178 -1.23849 -0.835569 0
M  V30 6613 H 632.06 -1.33468 -3.99705 0
M  V30 6614 H 630.735 -0.436552 -3.20743 0
M  V30 6615 H 629.642 -2.67652 -2.61368 0
M  V30 6616 H 630.975 -3.50769 -3.45286 0
M  V30 6617 N 632.627 0.916307 -1.28225 0
M  V30 6618 C 633.852 1.7043 -1.18188 0
M  V30 6619 C 634.277 1.86346 0.256274 0
M  V30 6620 O 633.635 1.37175 1.18544 0
M  V30 6621 C 633.683 3.07546 -1.88275 0
M  V30 6622 O 632.787 3.94904 -1.18848 0
M  V30 6623 H 632.128 0.521967 -0.410423 0
M  V30 6624 H 634.658 1.14589 -1.69501 0
M  V30 6625 H 634.668 3.57793 -1.96082 0
M  V30 6626 H 633.343 2.95279 -2.92887 0
M  V30 6627 H 631.92 3.53339 -1.19187 0
M  V30 6628 N 634.105 1.10431 1.1244 0
M  V30 6629 C 635.035 0.775143 2.20258 0
M  V30 6630 C 636.016 -0.25186 1.68225 0
M  V30 6631 O 637.201 -0.117637 1.93843 0
M  V30 6632 C 634.331 0.206133 3.46688 0
M  V30 6633 C 633.285 1.16382 4.11873 0
M  V30 6634 C 632.611 0.456014 5.32752 0
M  V30 6635 C 633.911 2.5104 4.58013 0
M  V30 6636 H 635.605 1.67665 2.4805 0
M  V30 6637 H 633.151 0.807595 1.19222 0
M  V30 6638 H 635.104 -0.036291 4.21384 0
M  V30 6639 H 633.828 -0.730614 3.18323 0
M  V30 6640 H 632.487 1.39169 3.39157 0
M  V30 6641 H 632.135 -0.485203 5.00654 0
M  V30 6642 H 631.835 1.09466 5.77314 0
M  V30 6643 H 633.359 0.222135 6.10196 0
M  V30 6644 H 634.773 2.32401 5.24083 0
M  V30 6645 H 633.17 3.10789 5.13352 0
M  V30 6646 H 634.24 3.11039 3.71998 0
M  V30 6647 N 635.583 -1.29855 0.893053 0
M  V30 6648 C 636.831 -1.9544 0.514566 0
M  V30 6649 C 637.152 -1.70795 -0.940959 0
M  V30 6650 O 636.422 -1.03601 -1.66264 0
M  V30 6651 H 635.002 -0.723137 0.187302 0
M  V30 6652 H 637.664 -1.58234 1.13789 0
M  V30 6653 H 636.76 -3.04341 0.691581 0
M  V30 6654 N 637.061 -0.65484 -1.43351 0
M  V30 6655 C 638.009 0.0476784 -2.32551 0
M  V30 6656 C 639.003 0.811403 -1.48703 0
M  V30 6657 O 640.209 0.721621 -1.64902 0
M  V30 6658 H 636.584 0.0342038 -0.751222 0
M  V30 6659 H 638.555 -0.722342 -2.89525 0
M  V30 6660 C 637.304 0.999251 -3.33032 0
M  V30 6661 H 636.627 0.421005 -3.97577 0
M  V30 6662 H 638.067 1.45986 -3.98076 0
M  V30 6663 C 636.526 2.09606 -2.63756 0
M  V30 6664 O 637.056 3.18004 -2.4543 0
M  V30 6665 N 635.262 1.86207 -2.23103 0
M  V30 6666 H 634.809 0.980555 -2.38208 0
M  V30 6667 H 634.767 2.59787 -1.77081 0
M  V30 6668 N 638.539 1.52521 -0.396863 0
M  V30 6669 C 639.487 2.28217 0.44943 0
M  V30 6670 C 640.481 1.32416 1.05652 0
M  V30 6671 O 641.687 1.49925 0.996124 0
M  V30 6672 H 638.062 0.733966 0.1637 0
M  V30 6673 H 640.033 2.97658 -0.210367 0
M  V30 6674 C 638.782 3.10713 1.56054 0
M  V30 6675 H 638.105 3.84291 1.10273 0
M  V30 6676 H 639.545 3.66803 2.12677 0
M  V30 6677 C 638.004 2.23499 2.52091 0
M  V30 6678 O 638.534 1.8669 3.55682 0
M  V30 6679 N 636.74 1.8751 2.2201 0
M  V30 6680 H 636.287 2.17643 1.37802 0
M  V30 6681 H 636.245 1.29448 2.86514 0
M  V30 6682 N 640.017 0.126909 1.57088 0
M  V30 6683 C 640.98 -0.806097 2.14557 0
M  V30 6684 C 641.98 -1.18918 1.08236 0
M  V30 6685 O 643.17 -1.11339 1.33975 0
M  V30 6686 C 640.302 -2.09116 2.69227 0
M  V30 6687 H 641.495 -0.306522 2.98329 0
M  V30 6688 H 639.048 -0.122393 1.5582 0
M  V30 6689 H 639.783 -2.63486 1.89065 0
M  V30 6690 H 639.568 -1.82588 3.46993 0
M  V30 6691 H 641.058 -2.75794 3.13572 0
M  V30 6692 N 641.495 -1.56914 -0.146875 0
M  V30 6693 C 642.741 -1.83628 -0.860741 0
M  V30 6694 C 643.074 -0.708528 -1.80813 0
M  V30 6695 O 642.349 0.287838 -1.92358 0
M  V30 6696 C 642.632 -3.20836 -1.63511 0
M  V30 6697 C 642.485 -4.44174 -0.709199 0
M  V30 6698 C 643.804 -3.55268 -2.59756 0
M  V30 6699 H 640.923 -0.667949 -0.311468 0
M  V30 6700 H 643.565 -1.89582 -0.125936 0
M  V30 6701 H 641.715 -3.15891 -2.26153 0
M  V30 6702 H 643.387 -4.61205 -0.0937781 0
M  V30 6703 H 641.63 -4.33796 -0.0187856 0
M  V30 6704 H 642.301 -5.36785 -1.28707 0
M  V30 6705 H 644.777 -3.60824 -2.07232 0
M  V30 6706 H 643.653 -4.52303 -3.10987 0
M  V30 6707 H 643.914 -2.81231 -3.41118 0
M  V30 6708 N 642.974 0.416227 -1.52004 0
M  V30 6709 C 644.221 1.16383 -1.65714 0
M  V30 6710 C 644.549 1.9068 -0.383594 0
M  V30 6711 O 643.804 1.85174 0.633185 0
M  V30 6712 C 644.103 2.18923 -2.82502 0
M  V30 6713 C 643.769 1.61485 -4.20991 0
M  V30 6714 C 642.431 1.45545 -4.58661 0
M  V30 6715 C 644.783 1.19468 -5.07323 0
M  V30 6716 C 642.111 0.860937 -5.80349 0
M  V30 6717 C 644.463 0.614386 -6.29609 0
M  V30 6718 C 643.127 0.442056 -6.66035 0
M  V30 6719 H 642.397 0.425875 -0.606392 0
M  V30 6720 H 645.044 0.45199 -1.8609 0
M  V30 6721 H 643.349 2.96225 -2.56433 0
M  V30 6722 H 645.046 2.76628 -2.90307 0
M  V30 6723 H 641.636 1.74873 -3.91302 0
M  V30 6724 H 645.82 1.30596 -4.78809 0
M  V30 6725 H 641.076 0.715372 -6.072 0
M  V30 6726 H 645.25 0.280393 -6.95835 0
M  V30 6727 H 642.877 -0.0207218 -7.60197 0
M  V30 6728 N 644.452 1.42507 0.673017 0
M  V30 6729 C 645.415 1.4582 1.76831 0
M  V30 6730 C 646.415 0.345542 1.57043 0
M  V30 6731 O 647.605 0.606447 1.63303 0
M  V30 6732 C 644.737 1.29158 3.15485 0
M  V30 6733 H 645.93 2.43345 1.7528 0
M  V30 6734 H 643.483 1.28981 0.882817 0
M  V30 6735 H 644.218 0.325626 3.22661 0
M  V30 6736 H 644.003 2.09797 3.31252 0
M  V30 6737 H 645.493 1.34363 3.95394 0
M  V30 6738 N 645.93 -0.909495 1.28709 0
M  V30 6739 C 647.178 -1.65577 1.15882 0
M  V30 6740 C 647.499 -1.928 -0.292108 0
M  V30 6741 O 646.769 -1.54716 -1.20166 0
M  V30 6742 H 645.349 -0.613714 0.425869 0
M  V30 6743 H 648.011 -1.09108 1.61498 0
M  V30 6744 H 647.107 -2.61634 1.70159 0
M  V30 6745 N 647.408 -1.11026 -1.11852 0
M  V30 6746 C 648.318 -0.777252 -2.2135 0
M  V30 6747 C 649.334 0.227821 -1.72502 0
M  V30 6748 O 650.51 0.0650587 -2.01295 0
M  V30 6749 C 647.575 -0.220668 -3.45997 0
M  V30 6750 C 646.636 -1.2838 -4.09655 0
M  V30 6751 C 645.869 -0.753678 -5.28352 0
M  V30 6752 O 646.092 0.417779 -5.68868 0
M  V30 6753 O 645.026 -1.51647 -5.82483 0
M  V30 6754 H 648.852 -1.69141 -2.5224 0
M  V30 6755 H 646.437 -0.885836 -1.20305 0
M  V30 6756 H 648.319 0.0855756 -4.21313 0
M  V30 6757 H 646.994 0.666262 -3.16769 0
M  V30 6758 H 645.901 -1.64299 -3.3609 0
M  V30 6759 H 647.234 -2.14396 -4.43052 0
M  V30 6760 N 648.886 1.2938 -0.899927 0
M  V30 6761 C 649.833 2.27713 -0.376243 0
M  V30 6762 C 650.803 1.57016 0.541774 0
M  V30 6763 O 651.988 1.84997 0.466966 0
M  V30 6764 C 649.128 3.42889 0.39 0
M  V30 6765 C 648.241 4.28369 -0.558938 0
M  V30 6766 C 647.376 5.30726 0.224379 0
M  V30 6767 C 646.415 6.07862 -0.719068 0
M  V30 6768 N 645.552 7.02094 0.0298569 0
M  V30 6769 H 650.392 2.71888 -1.21988 0
M  V30 6770 H 647.929 1.33724 -0.612879 0
M  V30 6771 H 649.887 4.08443 0.850314 0
M  V30 6772 H 648.517 2.99743 1.19809 0
M  V30 6773 H 647.569 3.62986 -1.13777 0
M  V30 6774 H 648.881 4.82068 -1.2811 0
M  V30 6775 H 648.035 6.02098 0.745881 0
M  V30 6776 H 646.774 4.77759 0.979674 0
M  V30 6777 H 645.779 5.35353 -1.25207 0
M  V30 6778 H 647.004 6.62917 -1.4737 0
M  V30 6779 H 644.95 6.51496 0.767415 0
M  V30 6780 H 644.867 7.5335 -0.632391 0
M  V30 6781 H 646.135 7.77685 0.531615 0
M  V30 6782 N 650.364 0.662433 1.43002 0
M  V30 6783 C 651.611 0.179591 2.01702 0
M  V30 6784 C 651.939 -1.20964 1.52309 0
M  V30 6785 O 651.194 -1.82343 0.7106 0
M  V30 6786 C 651.493 0.149363 3.57088 0
M  V30 6787 C 651.159 1.48158 4.25864 0
M  V30 6788 C 649.821 1.84638 4.44367 0
M  V30 6789 C 652.173 2.35953 4.64732 0
M  V30 6790 C 649.501 3.08561 4.99006 0
M  V30 6791 C 651.853 3.59176 5.20745 0
M  V30 6792 C 650.517 3.95841 5.37463 0
M  V30 6793 H 649.787 0.0657172 0.73808 0
M  V30 6794 H 652.434 0.854968 1.71355 0
M  V30 6795 H 650.739 -0.609491 3.8703 0
M  V30 6796 H 652.436 -0.241241 4.00274 0
M  V30 6797 H 649.026 1.18777 4.11813 0
M  V30 6798 H 653.21 2.09058 4.50121 0
M  V30 6799 H 648.466 3.37005 5.10135 0
M  V30 6800 H 652.64 4.27417 5.49807 0
M  V30 6801 H 650.267 4.91942 5.79566 0
M  V30 6802 N 651.842 -1.52309 0.404946 0
M  V30 6803 C 653.258 -1.59503 0.0556255 0
M  V30 6804 C 653.458 -1.41805 -1.43156 0
M  V30 6805 O 652.514 -1.2429 -2.19792 0
M  V30 6806 C 653.827 -2.95687 0.546801 0
M  V30 6807 C 655.375 -3.08909 0.504413 0
M  V30 6808 C 655.85 -4.47566 0.97203 0
M  V30 6809 N 657.341 -4.53795 0.928679 0
M  V30 6810 C 658.076 -5.59346 1.26174 0
M  V30 6811 N 657.572 -6.72469 1.66604 0
M  V30 6812 N 659.365 -5.49532 1.18198 0
M  V30 6813 H 651.516 -1.6206 1.37296 0
M  V30 6814 H 653.779 -0.762161 0.563751 0
M  V30 6815 H 653.485 -3.13905 1.58609 0
M  V30 6816 H 653.359 -3.77172 -0.0457905 0
M  V30 6817 H 655.746 -2.90378 -0.525819 0
M  V30 6818 H 655.827 -2.2934 1.13301 0
M  V30 6819 H 655.471 -4.6684 2.00057 0
M  V30 6820 H 655.401 -5.25625 0.320292 0
M  V30 6821 H 657.892 -3.72588 0.631369 0
M  V30 6822 H 658.205 -7.48993 1.9034 0
M  V30 6823 H 656.55 -6.73761 1.70504 0
M  V30 6824 H 659.741 -4.60038 0.865011 0
M  V30 6825 H 659.914 -6.31687 1.44485 0
M  V30 6826 N 653.32 -0.135238 -1.57019 0
M  V30 6827 C 654.25 0.805235 -2.19176 0
M  V30 6828 C 655.231 1.2656 -1.13651 0
M  V30 6829 O 656.416 1.32528 -1.4195 0
M  V30 6830 C 653.546 2.04914 -2.80406 0
M  V30 6831 C 652.5 1.72598 -3.91655 0
M  V30 6832 C 651.826 3.04154 -4.39766 0
M  V30 6833 C 653.126 0.981709 -5.12991 0
M  V30 6834 H 654.82 0.287232 -2.98019 0
M  V30 6835 H 652.366 0.136714 -1.4335 0
M  V30 6836 H 654.319 2.71178 -3.22553 0
M  V30 6837 H 653.043 2.59067 -1.98877 0
M  V30 6838 H 651.702 1.08717 -3.50109 0
M  V30 6839 H 651.35 3.56274 -3.55075 0
M  V30 6840 H 651.05 2.83299 -5.14796 0
M  V30 6841 H 652.574 3.71509 -4.84576 0
M  V30 6842 H 653.988 1.5462 -5.52056 0
M  V30 6843 H 652.385 0.873533 -5.93708 0
M  V30 6844 H 653.455 -0.0286887 -4.84892 0
M  V30 6845 N 654.798 1.5699 0.138552 0
M  V30 6846 C 655.73 1.95515 1.1961 0
M  V30 6847 C 656.743 0.852002 1.38726 0
M  V30 6848 O 657.932 1.13038 1.38147 0
M  V30 6849 C 655.032 2.2213 2.55952 0
M  V30 6850 C 654.205 3.53424 2.57702 0
M  V30 6851 C 653.264 3.6848 3.75645 0
M  V30 6852 O 652.29 4.4079 3.60129 0
M  V30 6853 N 653.492 3.05777 4.93438 0
M  V30 6854 H 656.257 2.86838 0.868557 0
M  V30 6855 H 653.818 1.58542 0.328033 0
M  V30 6856 H 655.81 2.29435 3.33379 0
M  V30 6857 H 654.38 1.3703 2.80965 0
M  V30 6858 H 653.6 3.57484 1.6613 0
M  V30 6859 H 654.888 4.39759 2.55909 0
M  V30 6860 H 654.286 2.46961 5.08947 0
M  V30 6861 H 652.843 3.18631 5.6861 0
M  V30 6862 N 656.276 -0.40816 1.52223 0
M  V30 6863 C 657.206 -1.5042 1.78595 0
M  V30 6864 C 658.187 -1.57723 0.636974 0
M  V30 6865 O 659.372 -1.72982 0.882664 0
M  V30 6866 C 656.502 -2.88232 1.93751 0
M  V30 6867 C 655.456 -2.95779 3.09352 0
M  V30 6868 C 654.782 -4.35855 3.09732 0
M  V30 6869 C 656.082 -2.67175 4.48793 0
M  V30 6870 H 657.776 -1.28601 2.70374 0
M  V30 6871 H 655.322 -0.617221 1.30101 0
M  V30 6872 H 657.275 -3.64895 2.10783 0
M  V30 6873 H 655.999 -3.11347 0.986443 0
M  V30 6874 H 654.658 -2.21561 2.92072 0
M  V30 6875 H 654.306 -4.55981 2.12346 0
M  V30 6876 H 654.006 -4.41829 3.87377 0
M  V30 6877 H 655.53 -5.14451 3.28895 0
M  V30 6878 H 656.944 -3.3356 4.66273 0
M  V30 6879 H 655.341 -2.84523 5.28362 0
M  V30 6880 H 656.411 -1.62609 4.56822 0
M  V30 6881 N 657.755 -1.42862 -0.66545 0
M  V30 6882 C 658.703 -1.47319 -1.8 0
M  V30 6883 C 659.697 -0.347963 -1.65788 0
M  V30 6884 O 660.903 -0.521406 -1.72283 0
M  V30 6885 H 657.278 -0.461588 -0.593667 0
M  V30 6886 H 659.249 -2.42876 -1.7336 0
M  V30 6887 C 657.998 -1.40152 -3.18203 0
M  V30 6888 H 657.321 -2.26035 -3.2977 0
M  V30 6889 H 658.761 -1.47331 -3.9758 0
M  V30 6890 C 657.22 -0.117493 -3.36695 0
M  V30 6891 O 657.75 0.826058 -3.93115 0
M  V30 6892 N 655.956 -0.0316218 -2.90583 0
M  V30 6893 H 655.503 -0.800247 -2.44855 0
M  V30 6894 H 655.461 0.826835 -3.03333 0
M  V30 6895 O 659.272 0.808226 -1.39821 0
M  V30 6896 H 659.963 1.45282 -1.28112 0
M  V30 END ATOM
M  V30 BEGIN BOND
M  V30 END BOND
M  V30 END CTAB
M  END
$$$$
