drugbank_target|Q8IJR6 Autophagy-related protein 18, putative (DB11638)
 OpenBabel12092121103D

  0  0  0     0  0            999 V3000
M  V30 BEGIN CTAB
M  V30 COUNTS 6199 6253 0 0 0
M  V30 BEGIN ATOM
M  V30 1 H -0.908 1.98254 -0.117106 0
M  V30 2 N 0 1.576 0 0
M  V30 3 C 0.933 2.03868 1.02534 0
M  V30 4 C 1.911 0.928543 1.3348 0
M  V30 5 O 3.095 1.19667 1.45644 0
M  V30 6 C 0.222 2.43627 2.35294 0
M  V30 7 C -0.732 3.65373 2.2001 0
M  V30 8 S 0.101 5.13292 1.52614 0
M  V30 9 C 1.257 5.56322 2.86805 0
M  V30 10 H 1.49 2.90518 0.631377 0
M  V30 11 H -0.977 1.52953 0.210867 0
M  V30 12 H 0.981 2.67203 3.11629 0
M  V30 13 H -0.358 1.57376 2.7183 0
M  V30 14 H -1.165 3.90944 3.18086 0
M  V30 15 H -1.563 3.418 1.51819 0
M  V30 16 H 0.729 5.58782 3.83104 0
M  V30 17 H 1.672 6.56266 2.65933 0
M  V30 18 H 2.08 4.83886 2.90714 0
M  V30 19 N 1.4781 -0.272755 1.55222 0
M  V30 20 C 2.7241 -1.00581 1.761 0
M  V30 21 C 3.0571 -1.85932 0.560625 0
M  V30 22 O 2.3321 -1.89416 -0.441801 0
M  V30 23 C 2.6151 -1.88816 3.06628 0
M  V30 24 C 2.4681 -1.06457 4.37021 0
M  V30 25 C 3.7871 -2.8752 3.33197 0
M  V30 26 H 0.9061 -0.364244 0.640699 0
M  V30 27 H 3.5481 -0.278189 1.87952 0
M  V30 28 H 1.6981 -2.50856 2.96654 0
M  V30 29 H 3.3701 -0.464863 4.58952 0
M  V30 30 H 1.6131 -0.368043 4.32236 0
M  V30 31 H 2.2841 -1.71514 5.24678 0
M  V30 32 H 4.7601 -2.35615 3.42965 0
M  V30 33 H 3.6361 -3.46399 4.25792 0
M  V30 34 H 3.8971 -3.62657 2.52849 0
M  V30 35 N 2.9562 -1.48159 -0.537278 0
M  V30 36 C 4.1812 -1.59707 -1.32319 0
M  V30 37 C 4.6062 -0.254859 -1.86365 0
M  V30 38 O 3.9642 0.772378 -1.64024 0
M  V30 39 C 4.0122 -2.6412 -2.45505 0
M  V30 40 O 3.1162 -2.20774 -3.48328 0
M  V30 41 H 2.4572 -0.535791 -0.392204 0
M  V30 42 H 4.9872 -1.94092 -0.647268 0
M  V30 43 H 4.9972 -2.85166 -2.91795 0
M  V30 44 H 3.6722 -3.61567 -2.05528 0
M  V30 45 H 2.2492 -2.09911 -3.08207 0
M  V30 46 N 4.4343 0.785586 -1.36625 0
M  V30 47 C 5.3643 1.91259 -1.33949 0
M  V30 48 C 6.3453 1.68795 -0.210325 0
M  V30 49 O 7.5303 1.89854 -0.408561 0
M  V30 50 C 4.6603 3.28339 -1.13186 0
M  V30 51 C 3.6143 3.65335 -2.22967 0
M  V30 52 C 2.9403 5.00806 -1.87342 0
M  V30 53 C 4.2403 3.7352 -3.65075 0
M  V30 54 H 5.9343 1.93755 -2.28253 0
M  V30 55 H 3.4803 0.930788 -1.09874 0
M  V30 56 H 5.4333 4.06804 -1.09948 0
M  V30 57 H 4.1573 3.2624 -0.153332 0
M  V30 58 H 2.8163 2.89169 -2.25337 0
M  V30 59 H 2.4643 4.95233 -0.880545 0
M  V30 60 H 2.1643 5.26529 -2.60846 0
M  V30 61 H 3.6883 5.81687 -1.85667 0
M  V30 62 H 5.1023 4.42168 -3.64911 0
M  V30 63 H 3.4993 4.10731 -4.37516 0
M  V30 64 H 4.5693 2.74527 -3.99703 0
M  V30 65 N 5.9124 1.20967 1.01018 0
M  V30 66 C 7.3284 0.965905 1.27053 0
M  V30 67 C 7.5284 -0.350785 1.98423 0
M  V30 68 O 6.5844 -1.07773 2.28344 0
M  V30 69 C 7.8974 2.15294 2.09926 0
M  V30 70 C 9.4454 2.19463 2.23171 0
M  V30 71 C 9.9204 3.3767 3.09424 0
M  V30 72 N 11.4114 3.37724 3.17012 0
M  V30 73 C 12.1464 4.25837 3.83993 0
M  V30 74 N 11.6424 5.24138 4.53047 0
M  V30 75 N 13.4354 4.1366 3.80581 0
M  V30 76 H 5.5864 2.0565 0.531194 0
M  V30 77 H 7.8494 0.90024 0.297106 0
M  V30 78 H 7.5554 3.10684 1.64828 0
M  V30 79 H 7.4294 2.13923 3.10672 0
M  V30 80 H 9.8164 1.24632 2.6749 0
M  V30 81 H 9.8974 2.2488 1.21912 0
M  V30 82 H 9.5414 4.32791 2.65808 0
M  V30 83 H 9.4714 3.29491 4.10784 0
M  V30 84 H 11.9624 2.6658 2.6785 0
M  V30 85 H 12.2754 5.87684 5.01844 0
M  V30 86 H 10.6204 5.28068 4.5185 0
M  V30 87 H 13.8114 3.36127 3.25785 0
M  V30 88 H 13.9844 4.82538 4.32505 0
M  V30 89 N 7.3905 -1.2043 1.01659 0
M  V30 90 C 8.3205 -2.25466 0.607226 0
M  V30 91 C 9.3015 -1.65853 -0.377716 0
M  V30 92 O 10.4865 -1.92409 -0.263149 0
M  V30 93 C 7.6165 -3.47256 -0.0552949 0
M  V30 94 C 6.5705 -4.19462 0.850632 0
M  V30 95 C 5.8965 -5.34673 0.0538859 0
M  V30 96 C 7.1965 -4.75603 2.15868 0
M  V30 97 H 8.8905 -2.59962 1.48526 0
M  V30 98 H 6.4365 -1.2496 0.715605 0
M  V30 99 H 8.3895 -4.19917 -0.353233 0
M  V30 100 H 7.1135 -3.11924 -0.968045 0
M  V30 101 H 5.7725 -3.48667 1.13257 0
M  V30 102 H 5.4205 -4.95585 -0.860514 0
M  V30 103 H 5.1205 -5.83913 0.657192 0
M  V30 104 H 6.6445 -6.10138 -0.237598 0
M  V30 105 H 8.0585 -5.40083 1.92311 0
M  V30 106 H 6.4555 -5.3528 2.71284 0
M  V30 107 H 7.5255 -3.94346 2.82169 0
M  V30 108 N 8.8686 -0.792821 -1.36206 0
M  V30 109 C 10.1456 -0.290627 -1.93429 0
M  V30 110 C 10.5256 1.21773 -1.72437 0
M  V30 111 O 9.8736 2.0108 -1.08531 0
M  V30 112 C 10.0836 -0.686973 -3.42172 0
M  V30 113 C 11.4316 -0.668643 -4.19302 0
M  V30 114 O 12.4556 -0.627658 -3.50626 0
M  V30 115 O 11.3146 -0.714597 -5.41808 0
M  V30 116 H 8.4086 -0.0727927 -0.82379 0
M  V30 117 H 10.9546 -0.875593 -1.45367 0
M  V30 118 H 9.7266 -1.72711 -3.51122 0
M  V30 119 H 9.3496 -0.0760733 -3.97527 0
M  V30 120 N 10.3467 1.47872 -0.545128 0
M  V30 121 C 11.2947 2.31533 0.222512 0
M  V30 122 C 12.2887 1.42177 0.920985 0
M  V30 123 O 13.4947 1.59005 0.843645 0
M  V30 124 H 9.8697 0.746519 0.0906278 0
M  V30 125 H 11.8407 2.94139 -0.50246 0
M  V30 126 C 10.5897 3.2457 1.24699 0
M  V30 127 H 9.9127 3.93283 0.718944 0
M  V30 128 H 11.3527 3.85963 1.75523 0
M  V30 129 C 9.8117 2.47237 2.28856 0
M  V30 130 O 10.3417 2.20808 3.35569 0
M  V30 131 N 8.5477 2.08461 2.02466 0
M  V30 132 H 8.0947 2.30155 1.157 0
M  V30 133 H 8.0527 1.57033 2.72375 0
M  V30 134 N 11.8248 0.280983 1.55075 0
M  V30 135 C 12.7728 -0.619864 2.24188 0
M  V30 136 C 13.7668 -1.15315 1.24092 0
M  V30 137 O 14.9728 -1.1061 1.42005 0
M  V30 138 H 11.3478 -0.218459 0.719569 0
M  V30 139 H 13.3188 -0.0141831 2.98397 0
M  V30 140 C 12.0678 -1.7899 2.98091 0
M  V30 141 H 11.3908 -1.38874 3.74905 0
M  V30 142 H 12.8308 -2.39672 3.49762 0
M  V30 143 C 11.2898 -2.68192 2.03899 0
M  V30 144 O 11.8198 -3.6872 1.594 0
M  V30 145 N 10.0258 -2.35488 1.70275 0
M  V30 146 H 9.5728 -1.53787 2.06658 0
M  V30 147 H 9.5308 -2.95442 1.07524 0
M  V30 148 N 13.3029 -1.57598 0.00835791 0
M  V30 149 C 14.7189 -1.55764 -0.347822 0
M  V30 150 C 14.9189 -1.01186 -1.74252 0
M  V30 151 O 13.9749 -0.649371 -2.44007 0
M  V30 152 C 15.2879 -2.99927 -0.215407 0
M  V30 153 C 16.8359 -3.11656 -0.289725 0
M  V30 154 C 17.3109 -4.57621 -0.18634 0
M  V30 155 N 18.8019 -4.62557 -0.243978 0
M  V30 156 C 19.5369 -5.73094 -0.18745 0
M  V30 157 N 19.0329 -6.92753 -0.0810331 0
M  V30 158 N 20.8259 -5.61588 -0.239925 0
M  V30 159 H 12.9769 -1.91411 0.92062 0
M  V30 160 H 15.2399 -0.879562 0.353659 0
M  V30 161 H 14.9459 -3.43729 0.744512 0
M  V30 162 H 14.8199 -3.63865 -0.994097 0
M  V30 163 H 17.2069 -2.67779 -1.24009 0
M  V30 164 H 17.2879 -2.5048 0.51898 0
M  V30 165 H 16.9319 -5.02174 0.760519 0
M  V30 166 H 16.8619 -5.16752 -1.01364 0
M  V30 167 H 19.3529 -3.76481 -0.327217 0
M  V30 168 H 19.6659 -7.72787 -0.0440241 0
M  V30 169 H 18.0109 -6.94984 -0.0465419 0
M  V30 170 H 21.2019 -4.66996 -0.321317 0
M  V30 171 H 21.3749 -6.47714 -0.192407 0
M  V30 172 N 14.781 0.264519 -1.55364 0
M  V30 173 C 16.011 1.01153 -1.80143 0
M  V30 174 C 16.419 1.80115 -0.579253 0
M  V30 175 O 15.762 1.77813 0.46132 0
M  V30 176 C 15.824 2.01098 -2.97993 0
M  V30 177 C 15.488 1.40995 -4.34706 0
M  V30 178 C 16.485 0.821316 -5.13372 0
M  V30 179 C 14.17 1.43461 -4.81378 0
M  V30 180 C 16.164 0.265339 -6.36847 0
M  V30 181 C 13.851 0.874771 -6.04807 0
M  V30 182 C 14.849 0.291146 -6.82379 0
M  V30 183 O 14.537 -0.260093 -8.03479 0
M  V30 184 H 14.269 0.304125 -0.603725 0
M  V30 185 H 16.823 0.298089 -2.03225 0
M  V30 186 H 15.053 2.76224 -2.70623 0
M  V30 187 H 16.742 2.61997 -3.1002 0
M  V30 188 H 17.508 0.794903 -4.78442 0
M  V30 189 H 13.387 1.87826 -4.21002 0
M  V30 190 H 16.931 -0.190837 -6.97339 0
M  V30 191 H 12.828 0.898452 -6.39217 0
M  V30 192 H 13.596 -0.150265 -8.18362 0
M  V30 193 N 16.2591 1.48442 0.529413 0
M  V30 194 C 17.5081 1.55742 1.28169 0
M  V30 195 C 17.8211 0.236511 1.94165 0
M  V30 196 O 19.0271 0.187761 2.7085 0
M  V30 197 C 17.4831 2.74667 2.32564 0
M  V30 198 C 17.0911 4.13402 1.72636 0
M  V30 199 C 18.8351 2.9128 3.08798 0
M  V30 200 C 16.7421 5.23587 2.74975 0
M  V30 201 H 15.6721 0.579796 0.48203 0
M  V30 202 H 18.3231 1.74776 0.559056 0
M  V30 203 H 16.7051 2.49067 3.07866 0
M  V30 204 H 17.8791 4.49022 1.03519 0
M  V30 205 H 16.1941 4.0191 1.08892 0
M  V30 206 H 18.7911 3.70767 3.85274 0
M  V30 207 H 19.1341 2.00757 3.64695 0
M  V30 208 H 19.6671 3.16782 2.40611 0
M  V30 209 H 16.4061 6.16076 2.23897 0
M  V30 210 H 15.9261 4.92454 3.42417 0
M  V30 211 H 17.6051 5.51724 3.37949 0
M  V30 212 N 17.7372 -0.778329 1.37039 0
M  V30 213 C 18.9622 -1.57248 1.35233 0
M  V30 214 C 19.3872 -1.87999 -0.0615568 0
M  V30 215 O 18.7452 -1.48734 -1.03672 0
M  V30 216 C 18.7932 -2.86353 2.19167 0
M  V30 217 O 17.8972 -3.80442 1.59178 0
M  V30 218 H 17.2382 -0.476569 0.462362 0
M  V30 219 H 19.7682 -0.963853 1.80474 0
M  V30 220 H 19.7782 -3.35519 2.32145 0
M  V30 221 H 18.4532 -2.63299 3.21942 0
M  V30 222 H 17.0302 -3.39067 1.55203 0
M  V30 223 N 19.2153 -1.21501 -1.00376 0
M  V30 224 C 20.4623 -1.03299 -1.74171 0
M  V30 225 C 20.7903 0.433326 -1.89612 0
M  V30 226 O 20.0453 1.33779 -1.42834 0
M  V30 227 C 20.3443 -1.67673 -3.15627 0
M  V30 228 C 20.0103 -3.17533 -3.2013 0
M  V30 229 C 18.6723 -3.58427 -3.21067 0
M  V30 230 C 21.0243 -4.13504 -3.17275 0
M  V30 231 C 18.3523 -4.93794 -3.16835 0
M  V30 232 C 20.7043 -5.48834 -3.14585 0
M  V30 233 C 19.3683 -5.89123 -3.13831 0
M  V30 234 H 18.6383 -0.377999 -0.637336 0
M  V30 235 H 21.2853 -1.51111 -1.17634 0
M  V30 236 H 19.5903 -1.12158 -3.75404 0
M  V30 237 H 21.2873 -1.51091 -3.71446 0
M  V30 238 H 17.8773 -2.84965 -3.20145 0
M  V30 239 H 22.0613 -3.82936 -3.15711 0
M  V30 240 H 17.3173 -5.24255 -3.1459 0
M  V30 241 H 21.4913 -6.22934 -3.1133 0
M  V30 242 H 19.1183 -6.93984 -3.10307 0
M  V30 243 N 20.6934 1.19889 -1.02296 0
M  V30 244 C 21.6414 2.24938 -0.592081 0
M  V30 245 C 22.6354 1.65257 0.372357 0
M  V30 246 O 23.8414 1.78371 0.241583 0
M  V30 247 H 20.2164 0.731787 -0.173182 0
M  V30 248 H 22.1874 2.58603 -1.48885 0
M  V30 249 C 20.9364 3.47668 0.047351 0
M  V30 250 H 20.2594 3.93875 -0.685772 0
M  V30 251 H 21.6994 4.22852 0.311862 0
M  V30 252 C 20.1584 3.11136 1.29212 0
M  V30 253 O 20.6884 3.2325 2.38479 0
M  V30 254 N 18.8944 2.65625 1.17863 0
M  V30 255 H 18.4414 2.55968 0.289493 0
M  V30 256 H 18.3994 2.41553 2.01245 0
M  V30 257 N 22.1715 0.800033 1.35784 0
M  V30 258 C 23.1035 0.163596 2.28615 0
M  V30 259 C 24.1165 -0.633317 1.49976 0
M  V30 260 O 25.3055 -0.466754 1.72289 0
M  V30 261 C 22.4055 -0.790958 3.29541 0
M  V30 262 C 21.5785 -0.0418255 4.3738 0
M  V30 263 C 20.6375 -0.91389 5.18203 0
M  V30 264 O 19.6635 -0.367234 5.68014 0
M  V30 265 N 20.8655 -2.23682 5.35674 0
M  V30 266 H 23.6305 0.96105 2.83873 0
M  V30 267 H 21.1915 0.654894 1.48063 0
M  V30 268 H 23.1835 -1.37844 3.80501 0
M  V30 269 H 21.7535 -1.48925 2.74846 0
M  V30 270 H 20.9735 0.726813 3.87442 0
M  V30 271 H 22.2615 0.474719 5.06581 0
M  V30 272 H 21.6595 -2.70497 4.96838 0
M  V30 273 H 20.2165 -2.77369 5.89839 0
M  V30 274 N 23.6496 -1.47581 0.552962 0
M  V30 275 C 24.9266 -1.95563 -0.0381515 0
M  V30 276 C 25.3066 -1.49552 -1.48988 0
M  V30 277 O 24.6546 -0.732414 -2.16444 0
M  V30 278 C 24.8646 -3.48848 0.102919 0
M  V30 279 C 26.2126 -4.24577 -0.0446082 0
M  V30 280 O 27.2366 -3.56187 0.0302548 0
M  V30 281 O 26.0956 -5.46116 -0.204923 0
M  V30 282 H 23.1896 -0.824321 -0.0665067 0
M  V30 283 H 25.7356 -1.58001 0.619186 0
M  V30 284 H 24.5076 -3.75129 1.11328 0
M  V30 285 H 24.1306 -3.93165 -0.592224 0
M  V30 286 N 25.1277 -0.289203 -1.54924 0
M  V30 287 C 26.3577 0.325989 -2.04012 0
M  V30 288 C 26.7657 1.48961 -1.1665 0
M  V30 289 O 26.1087 1.82794 -0.1822 0
M  V30 290 C 26.1707 0.856112 -3.49158 0
M  V30 291 C 25.8347 -0.180697 -4.56643 0
M  V30 292 C 26.8317 -1.0051 -5.10092 0
M  V30 293 C 24.5167 -0.318998 -5.01286 0
M  V30 294 C 26.5107 -1.95385 -6.06715 0
M  V30 295 C 24.1977 -1.27121 -5.97732 0
M  V30 296 C 25.1957 -2.08713 -6.50329 0
M  V30 297 O 24.8837 -3.02322 -7.44887 0
M  V30 298 H 24.6157 0.0765276 -0.671654 0
M  V30 299 H 27.1697 -0.423254 -2.00992 0
M  V30 300 H 25.3997 1.65567 -3.49463 0
M  V30 301 H 27.0887 1.38591 -3.81507 0
M  V30 302 H 27.8547 -0.90906 -4.76404 0
M  V30 303 H 23.7337 0.306108 -4.59983 0
M  V30 304 H 27.2777 -2.59111 -6.47694 0
M  V30 305 H 23.1747 -1.36801 -6.30837 0
M  V30 306 H 23.9427 -2.97165 -7.6265 0
M  V30 307 N 26.6058 1.57591 -0.0167156 0
M  V30 308 C 27.8538 1.90906 0.663285 0
M  V30 309 C 28.1748 0.892509 1.73376 0
M  V30 310 O 27.4448 -0.0677623 1.95783 0
M  V30 311 H 26.0248 0.704637 0.247983 0
M  V30 312 H 28.6868 1.94803 -0.0615909 0
M  V30 313 H 27.7828 2.9116 1.12393 0
M  V30 314 N 28.0839 -0.256276 1.55502 0
M  V30 315 C 29.3239 -0.993081 1.78654 0
M  V30 316 C 29.6879 -1.8288 0.584724 0
M  V30 317 O 30.8889 -2.59665 0.694822 0
M  V30 318 C 29.1599 -1.83856 3.06483 0
M  V30 319 S 30.7189 -2.63573 3.5082 0
M  V30 320 H 27.5369 -0.334199 0.62756 0
M  V30 321 H 30.1389 -0.26184 1.93739 0
M  V30 322 H 28.8429 -1.21414 3.92029 0
M  V30 323 H 28.3739 -2.61271 2.94111 0
M  V30 324 H 30.3889 -3.86312 3.11412 0
M  V30 325 N 29.562 -1.4872 -0.521534 0
M  V30 326 C 30.492 -1.66771 -1.63431 0
M  V30 327 C 31.473 -0.516499 -1.62069 0
M  V30 328 O 32.658 -0.750013 -1.79132 0
M  V30 329 C 29.788 -1.71515 -3.01993 0
M  V30 330 C 28.742 -2.86222 -3.18216 0
M  V30 331 C 28.068 -2.76061 -4.57924 0
M  V30 332 C 29.368 -4.27419 -3.00184 0
M  V30 333 H 31.062 -2.59932 -1.48579 0
M  V30 334 H 28.608 -1.25089 -0.713358 0
M  V30 335 H 30.561 -1.82731 -3.7972 0
M  V30 336 H 29.285 -0.749393 -3.17886 0
M  V30 337 H 27.944 -2.74575 -2.42908 0
M  V30 338 H 27.592 -1.77437 -4.70665 0
M  V30 339 H 27.292 -3.53037 -4.69722 0
M  V30 340 H 28.816 -2.89256 -5.37739 0
M  V30 341 H 30.23 -4.39855 -3.67697 0
M  V30 342 H 28.627 -5.05458 -3.2347 0
M  V30 343 H 29.697 -4.43293 -1.96518 0
M  V30 344 N 31.0401 0.771051 -1.3745 0
M  V30 345 C 32.2801 1.54264 -1.34096 0
M  V30 346 C 32.6441 1.91858 0.0737639 0
M  V30 347 O 33.8451 2.67797 0.23203 0
M  V30 348 C 32.1161 2.77326 -2.25445 0
M  V30 349 S 33.6751 3.67383 -2.39948 0
M  V30 350 H 30.4931 0.528122 -0.476034 0
M  V30 351 H 33.0951 0.906633 -1.73206 0
M  V30 352 H 31.7991 2.47788 -3.27153 0
M  V30 353 H 31.3301 3.45886 -1.87421 0
M  V30 354 H 33.3451 4.69334 -1.61059 0
M  V30 355 N 32.5182 1.22032 0.997298 0
M  V30 356 C 33.4512 0.929735 2.08401 0
M  V30 357 C 34.4292 -0.125681 1.62114 0
M  V30 358 O 35.6132 0.00495409 1.88499 0
M  V30 359 C 32.7402 0.397488 3.3636 0
M  V30 360 C 31.7862 1.4369 4.01566 0
M  V30 361 S 32.6192 3.00874 4.42984 0
M  V30 362 C 33.7752 2.49276 5.74119 0
M  V30 363 H 34.0082 1.84998 2.32729 0
M  V30 364 H 31.5412 1.0509 1.13117 0
M  V30 365 H 33.4992 0.0969846 4.10385 0
M  V30 366 H 32.1602 -0.501571 3.10069 0
M  V30 367 H 31.3532 1.01427 4.93689 0
M  V30 368 H 30.9552 1.68588 3.33847 0
M  V30 369 H 33.2472 1.90242 6.50242 0
M  V30 370 H 34.1902 3.39872 6.21203 0
M  V30 371 H 34.5982 1.90714 5.31308 0
M  V30 372 N 33.9963 -1.19345 1.0293 0
M  V30 373 C 34.9593 -2.20793 0.615069 0
M  V30 374 C 35.9593 -1.57553 -0.321533 0
M  V30 375 O 37.1493 -1.73862 -0.108483 0
M  V30 376 C 34.2813 -3.40754 -0.0999222 0
M  V30 377 H 35.4743 -2.58955 1.51269 0
M  V30 378 H 33.0273 -1.3303 0.820534 0
M  V30 379 H 33.7623 -3.0811 -1.01187 0
M  V30 380 H 33.5473 -3.87889 0.57309 0
M  V30 381 H 35.0373 -4.15898 -0.376645 0
M  V30 382 N 35.4744 -0.807222 -1.35358 0
M  V30 383 C 36.4224 -0.20614 -2.31685 0
M  V30 384 C 37.4164 0.644445 -1.56663 0
M  V30 385 O 38.6224 0.537538 -1.71786 0
M  V30 386 H 34.9974 -0.0479006 -0.750473 0
M  V30 387 H 36.9684 -1.03369 -2.79924 0
M  V30 388 C 35.7174 0.630212 -3.41941 0
M  V30 389 H 35.0404 -0.0149558 -3.99797 0
M  V30 390 H 36.4804 1.01716 -4.11619 0
M  V30 391 C 34.9394 1.79601 -2.85035 0
M  V30 392 O 35.4694 2.89351 -2.78637 0
M  V30 393 N 33.6754 1.60774 -2.42074 0
M  V30 394 H 33.2224 0.715009 -2.47478 0
M  V30 395 H 33.1804 2.38933 -2.04349 0
M  V30 396 N 36.9525 1.47285 -0.560781 0
M  V30 397 C 37.8625 2.33846 0.187954 0
M  V30 398 C 38.8785 1.48412 0.908293 0
M  V30 399 O 40.0545 1.81332 0.876388 0
M  V30 400 C 37.1195 3.25178 1.2025 0
M  V30 401 C 36.1805 4.26504 0.489208 0
M  V30 402 C 35.4135 5.13472 1.45542 0
M  V30 403 O 35.6365 5.02959 2.6905 0
M  V30 404 O 34.5705 5.93902 0.977963 0
M  V30 405 H 38.3965 2.99177 -0.522177 0
M  V30 406 H 35.9815 1.45903 -0.321364 0
M  V30 407 H 37.8635 3.81584 1.78805 0
M  V30 408 H 36.5385 2.6247 1.89449 0
M  V30 409 H 35.4455 3.73847 -0.137627 0
M  V30 410 H 36.7785 4.91935 -0.161399 0
M  V30 411 N 38.4306 0.297415 1.54768 0
M  V30 412 C 39.3776 -0.580276 2.23386 0
M  V30 413 C 40.3476 -1.13238 1.21517 0
M  V30 414 O 41.5326 -1.17757 1.50126 0
M  V30 415 C 38.6726 -1.74801 2.97555 0
M  V30 416 C 37.7856 -1.22764 4.1419 0
M  V30 417 C 36.9206 -2.35895 4.75949 0
M  V30 418 C 35.9596 -1.80974 5.84735 0
M  V30 419 N 35.0966 -2.87664 6.40464 0
M  V30 420 H 39.9366 0.0114833 2.97998 0
M  V30 421 H 37.4736 0.0174361 1.4709 0
M  V30 422 H 39.4316 -2.43475 3.38786 0
M  V30 423 H 38.0616 -2.31145 2.25326 0
M  V30 424 H 37.1136 -0.433271 3.77924 0
M  V30 425 H 38.4256 -0.785551 4.92575 0
M  V30 426 H 37.5796 -3.12523 5.20014 0
M  V30 427 H 36.3186 -2.83429 3.96887 0
M  V30 428 H 35.3236 -1.02834 5.40097 0
M  V30 429 H 36.5486 -1.34348 6.65678 0
M  V30 430 H 34.4946 -3.34538 5.64287 0
M  V30 431 H 34.4116 -2.4794 7.14186 0
M  V30 432 H 35.6796 -3.642 6.89187 0
M  V30 433 N 39.9087 -1.5758 0.0250728 0
M  V30 434 C 41.1567 -1.91255 -0.653151 0
M  V30 435 C 41.4777 -0.901691 -1.729 0
M  V30 436 O 40.7477 0.0573785 -1.95816 0
M  V30 437 H 39.3277 -0.705942 -0.244243 0
M  V30 438 H 41.9897 -1.94767 0.0719209 0
M  V30 439 H 41.0857 -2.91752 -1.10847 0
M  V30 440 N 41.3868 0.248026 -1.55636 0
M  V30 441 C 42.6338 0.976224 -1.77415 0
M  V30 442 C 42.9618 1.85361 -0.589193 0
M  V30 443 O 42.2168 1.90973 0.427529 0
M  V30 444 C 42.5158 1.86819 -3.04686 0
M  V30 445 C 42.1818 1.14625 -4.36087 0
M  V30 446 C 40.8438 0.946723 -4.71795 0
M  V30 447 C 43.1958 0.634463 -5.17324 0
M  V30 448 C 40.5238 0.223091 -5.86276 0
M  V30 449 C 42.8758 -0.0756959 -6.32555 0
M  V30 450 C 41.5398 -0.286711 -6.66884 0
M  V30 451 H 40.8098 0.357226 -0.649208 0
M  V30 452 H 43.4568 0.246415 -1.89908 0
M  V30 453 H 41.7618 2.66502 -2.872 0
M  V30 454 H 43.4588 2.43329 -3.18735 0
M  V30 455 H 40.0488 1.3117 -4.08035 0
M  V30 456 H 44.2328 0.77616 -4.90193 0
M  V30 457 H 39.4888 0.0491185 -6.1138 0
M  V30 458 H 43.6628 -0.479899 -6.94745 0
M  V30 459 H 41.2898 -0.849389 -7.5544 0
M  V30 460 N 42.8649 1.48995 0.513639 0
M  V30 461 C 43.8119 1.6473 1.61656 0
M  V30 462 C 44.7819 0.488984 1.58739 0
M  V30 463 O 45.9669 0.714478 1.76918 0
M  V30 464 C 43.1069 1.7082 2.99858 0
M  V30 465 C 42.2199 2.9787 3.12885 0
M  V30 466 C 41.3549 2.95017 4.41744 0
M  V30 467 C 40.3939 4.16702 4.48359 0
M  V30 468 N 39.5309 4.11832 5.68629 0
M  V30 469 H 44.3709 2.58909 1.47547 0
M  V30 470 H 41.9079 1.28382 0.71808 0
M  V30 471 H 43.8659 1.72331 3.79944 0
M  V30 472 H 42.4959 0.801181 3.12699 0
M  V30 473 H 41.5479 3.06029 2.25944 0
M  V30 474 H 42.8599 3.8786 3.13633 0
M  V30 475 H 42.0139 2.95021 5.30139 0
M  V30 476 H 40.7529 2.02784 4.43542 0
M  V30 477 H 39.7579 4.16955 3.58369 0
M  V30 478 H 40.9829 5.10113 4.48287 0
M  V30 479 H 38.9289 3.22428 5.71293 0
M  V30 480 H 38.8459 4.95543 5.7094 0
M  V30 481 H 40.1139 4.1592 6.59266 0
M  V30 482 N 44.343 -0.763751 1.37857 0
M  V30 483 C 45.592 -1.51789 1.32827 0
M  V30 484 C 45.905 -1.95426 -0.0823719 0
M  V30 485 O 47.111 -2.70298 -0.255172 0
M  V30 486 C 45.567 -2.74133 2.33193 0
M  V30 487 C 45.175 -2.37562 3.79827 0
M  V30 488 C 46.919 -3.52054 2.37188 0
M  V30 489 C 44.826 -3.56456 4.71904 0
M  V30 490 H 43.756 -0.569896 0.493695 0
M  V30 491 H 46.407 -0.835822 1.63359 0
M  V30 492 H 44.789 -3.4427 1.9569 0
M  V30 493 H 45.963 -1.75157 4.26212 0
M  V30 494 H 44.278 -1.72798 3.78853 0
M  V30 495 H 46.875 -4.40437 3.03182 0
M  V30 496 H 47.218 -3.92486 1.38782 0
M  V30 497 H 47.751 -2.88921 2.7344 0
M  V30 498 H 44.49 -3.21099 5.71468 0
M  V30 499 H 44.01 -4.17938 4.30218 0
M  V30 500 H 45.689 -4.23168 4.89426 0
M  V30 501 N 45.8211 -1.22559 -0.990812 0
M  V30 502 C 47.0511 -1.07623 -1.76355 0
M  V30 503 C 47.4591 0.37601 -1.85426 0
M  V30 504 O 46.8021 1.27228 -1.32509 0
M  V30 505 C 46.8641 -1.61507 -3.21179 0
M  V30 506 C 46.5281 -3.10146 -3.35646 0
M  V30 507 C 47.5251 -4.07553 -3.22796 0
M  V30 508 C 45.2101 -3.49644 -3.60631 0
M  V30 509 C 47.2041 -5.42442 -3.34716 0
M  V30 510 C 44.8911 -4.84682 -3.72192 0
M  V30 511 C 45.8891 -5.8089 -3.59243 0
M  V30 512 O 45.5771 -7.13476 -3.70415 0
M  V30 513 H 45.3091 -0.377745 -0.560611 0
M  V30 514 H 47.8631 -1.62658 -1.25425 0
M  V30 515 H 46.0931 -1.00881 -3.73309 0
M  V30 516 H 47.7821 -1.42202 -3.80175 0
M  V30 517 H 48.5481 -3.78381 -3.03403 0
M  V30 518 H 44.4271 -2.75282 -3.69785 0
M  V30 519 H 47.9711 -6.17518 -3.24526 0
M  V30 520 H 43.8681 -5.13534 -3.91092 0
M  V30 521 H 44.6361 -7.21083 -3.87275 0
M  V30 522 N 47.2992 1.18797 -1.03562 0
M  V30 523 C 48.2472 2.24297 -0.615905 0
M  V30 524 C 49.2412 1.65643 0.354808 0
M  V30 525 O 50.4472 1.78618 0.22265 0
M  V30 526 H 46.8222 0.729909 -0.180934 0
M  V30 527 H 48.7932 2.5701 -1.5162 0
M  V30 528 C 47.5422 3.47698 0.0104735 0
M  V30 529 H 46.8652 3.93125 -0.727509 0
M  V30 530 H 48.3052 4.23159 0.266995 0
M  V30 531 C 46.7642 3.12489 1.25905 0
M  V30 532 O 47.2942 3.25761 2.35038 0
M  V30 533 N 45.5002 2.6686 1.15039 0
M  V30 534 H 45.0472 2.56261 0.262328 0
M  V30 535 H 45.0052 2.43674 1.98672 0
M  V30 536 N 48.7773 0.814389 1.34928 0
M  V30 537 C 50.0053 0.411136 2.02774 0
M  V30 538 C 50.4203 -0.980316 1.61354 0
M  V30 539 O 49.7773 -1.63299 0.814847 0
M  V30 540 C 49.8283 0.493865 3.58111 0
M  V30 541 O 49.5493 1.83047 3.98027 0
M  V30 542 C 51.0503 0.0844174 4.4322 0
M  V30 543 H 48.2703 0.166037 0.650133 0
M  V30 544 H 50.8143 1.10018 1.72384 0
M  V30 545 H 48.9693 -0.147006 3.87121 0
M  V30 546 H 49.3833 1.79872 4.92693 0
M  V30 547 H 50.8573 0.193404 5.51661 0
M  V30 548 H 51.3343 -0.97113 4.28329 0
M  V30 549 H 51.9403 0.69875 4.19521 0
M  V30 550 N 50.2554 -1.46986 0.568584 0
M  V30 551 C 51.2034 -2.31858 -0.185649 0
M  V30 552 C 52.1974 -1.43624 -0.898249 0
M  V30 553 O 53.4034 -1.60327 -0.818242 0
M  V30 554 H 49.7784 -0.747866 -0.0787399 0
M  V30 555 H 51.7494 -2.93303 0.549191 0
M  V30 556 C 50.4984 -3.26513 -1.19519 0
M  V30 557 H 49.8214 -3.94377 -0.656285 0
M  V30 558 H 51.2614 -3.88707 -1.6936 0
M  V30 559 C 49.7204 -2.50847 -2.24894 0
M  V30 560 O 50.2504 -2.26119 -3.32014 0
M  V30 561 N 48.4564 -2.11656 -1.99124 0
M  V30 562 H 48.0034 -2.31966 -1.12024 0
M  V30 563 H 47.9614 -1.61347 -2.69842 0
M  V30 564 N 51.7335 -0.305618 -1.54608 0
M  V30 565 C 53.1445 0.186098 -1.8577 0
M  V30 566 C 53.4955 1.53058 -1.22751 0
M  V30 567 O 52.6205 2.09888 -0.526893 0
M  V30 568 C 53.2155 0.344449 -3.37044 0
M  V30 569 C 51.7745 0.780384 -3.68221 0
M  V30 570 C 50.9215 -0.108554 -2.77087 0
M  V30 571 H 53.8725 -0.526485 -1.49712 0
M  V30 572 H 53.8935 1.17828 -3.61796 0
M  V30 573 H 53.4055 -0.634235 -3.82883 0
M  V30 574 H 51.5065 1.76945 -3.27904 0
M  V30 575 H 51.6195 0.596572 -4.75371 0
M  V30 576 H 49.9835 0.412931 -2.5133 0
M  V30 577 H 50.7665 -1.08368 -3.25747 0
M  V30 578 N 53.2116 1.57565 -0.0334293 0
M  V30 579 C 54.4586 1.91978 0.644272 0
M  V30 580 C 54.7866 0.910231 1.71887 0
M  V30 581 O 54.0416 -0.0801961 1.95536 0
M  V30 582 C 54.3406 3.33112 1.29504 0
M  V30 583 C 54.0066 4.49537 0.350388 0
M  V30 584 C 52.6686 4.81115 0.0903974 0
M  V30 585 C 55.0206 5.20347 -0.298032 0
M  V30 586 C 52.3486 5.8086 -0.825746 0
M  V30 587 C 54.7006 6.2107 -1.20226 0
M  V30 588 C 53.3646 6.51088 -1.4711 0
M  V30 589 H 52.6346 0.702496 0.235756 0
M  V30 590 H 55.2816 1.91259 -0.0961176 0
M  V30 591 H 53.5866 3.30113 2.11028 0
M  V30 592 H 55.2836 3.57011 1.82603 0
M  V30 593 H 51.8736 4.24883 0.563205 0
M  V30 594 H 56.0576 4.96178 -0.110234 0
M  V30 595 H 51.3136 6.02461 -1.04169 0
M  V30 596 H 55.4876 6.75057 -1.71086 0
M  V30 597 H 53.1146 7.28193 -2.18264 0
M  V30 598 N 54.6897 -0.239769 1.55765 0
M  V30 599 C 55.9177 -0.98417 1.81994 0
M  V30 600 C 56.3327 -1.7867 0.610124 0
M  V30 601 O 55.6897 -1.77571 -0.421271 0
M  V30 602 C 55.7407 -1.91635 3.06526 0
M  V30 603 O 55.4617 -1.14629 4.22838 0
M  V30 604 C 56.9627 -2.77616 3.45607 0
M  V30 605 H 54.1827 -0.28928 0.605441 0
M  V30 606 H 56.7267 -0.260499 2.02834 0
M  V30 607 H 54.8817 -2.5942 2.87715 0
M  V30 608 H 55.2957 -1.77745 4.93464 0
M  V30 609 H 56.7697 -3.38759 4.35828 0
M  V30 610 H 57.2467 -3.4909 2.6652 0
M  V30 611 H 57.8527 -2.15271 3.66795 0
M  V30 612 N 56.1678 -1.49265 -0.50573 0
M  V30 613 C 57.0998 -1.617 -1.62437 0
M  V30 614 C 58.1128 -0.499924 -1.54934 0
M  V30 615 O 59.3018 -0.771785 -1.60953 0
M  V30 616 C 56.4018 -1.5533 -3.01207 0
M  V30 617 C 55.5748 -2.8249 -3.33943 0
M  V30 618 C 54.6338 -2.69238 -4.52103 0
M  V30 619 O 53.6598 -3.43167 -4.5412 0
M  V30 620 N 54.8618 -1.80468 -5.51735 0
M  V30 621 H 57.6268 -2.58177 -1.52199 0
M  V30 622 H 55.1878 -1.46294 -0.693511 0
M  V30 623 H 57.1798 -1.44125 -3.78167 0
M  V30 624 H 55.7498 -0.667297 -3.05395 0
M  V30 625 H 54.9698 -3.08081 -2.45926 0
M  V30 626 H 56.2578 -3.66802 -3.5261 0
M  V30 627 H 55.6558 -1.19653 -5.52901 0
M  V30 628 H 54.2128 -1.75188 -6.27816 0
M  V30 629 N 57.6459 0.756429 -1.3826 0
M  V30 630 C 58.8739 1.54565 -1.3754 0
M  V30 631 C 59.2889 1.88767 0.0355331 0
M  V30 632 O 58.6459 1.52572 1.0014 0
M  V30 633 C 58.6969 2.84654 -2.22833 0
M  V30 634 O 58.4179 2.51912 -3.5843 0
M  V30 635 C 59.9189 3.78807 -2.30261 0
M  V30 636 H 57.1389 0.478353 -0.470553 0
M  V30 637 H 59.6829 0.936381 -1.81803 0
M  V30 638 H 57.8379 3.41965 -1.8204 0
M  V30 639 H 58.2519 3.35325 -4.03308 0
M  V30 640 H 59.7259 4.67045 -2.94233 0
M  V30 641 H 60.2029 4.19038 -1.31545 0
M  V30 642 H 60.8089 3.2742 -2.71433 0
M  V30 643 N 59.124 1.23083 0.984299 0
M  V30 644 C 60.354 1.08556 1.75781 0
M  V30 645 C 60.762 -0.366171 1.85623 0
M  V30 646 O 60.105 -1.26524 1.33182 0
M  V30 647 C 60.167 1.63208 3.20318 0
M  V30 648 C 59.831 3.11922 3.33997 0
M  V30 649 C 60.828 4.09259 3.2063 0
M  V30 650 C 58.513 3.51552 3.58771 0
M  V30 651 C 60.507 5.4421 3.31835 0
M  V30 652 C 58.194 4.86649 3.69616 0
M  V30 653 C 59.192 5.82787 3.56157 0
M  V30 654 O 58.88 7.15431 3.66626 0
M  V30 655 H 58.612 0.380713 0.5586 0
M  V30 656 H 61.166 1.63321 1.2456 0
M  V30 657 H 59.396 1.0286 3.72769 0
M  V30 658 H 61.085 1.44216 3.79416 0
M  V30 659 H 61.851 3.79984 3.01392 0
M  V30 660 H 57.73 2.77239 3.6832 0
M  V30 661 H 61.274 6.1923 3.21247 0
M  V30 662 H 57.171 5.15601 3.88363 0
M  V30 663 H 57.939 7.23127 3.83445 0
M  V30 664 N 60.6021 -1.18246 1.0419 0
M  V30 665 C 61.8271 -1.92736 0.765996 0
M  V30 666 C 62.2521 -1.75728 -0.67091 0
M  V30 667 O 61.6101 -1.06825 -1.46486 0
M  V30 668 C 61.6581 -3.42148 1.13875 0
M  V30 669 O 60.7621 -4.11548 0.264954 0
M  V30 670 H 60.1031 -0.601238 0.281797 0
M  V30 671 H 62.6331 -1.49942 1.39207 0
M  V30 672 H 62.6431 -3.92858 1.1012 0
M  V30 673 H 61.3181 -3.53848 2.18551 0
M  V30 674 H 59.8951 -3.71137 0.362226 0
M  V30 675 N 62.0802 -0.821533 -1.34494 0
M  V30 676 C 63.4962 -0.507117 -1.51329 0
M  V30 677 C 63.6962 0.968964 -1.76673 0
M  V30 678 O 62.7522 1.75348 -1.81685 0
M  V30 679 C 64.0652 -1.36544 -2.67911 0
M  V30 680 C 65.6132 -1.36242 -2.81793 0
M  V30 681 C 66.0882 -2.2052 -4.01416 0
M  V30 682 N 67.5792 -2.18136 -4.08621 0
M  V30 683 C 68.3142 -2.80095 -5.00334 0
M  V30 684 N 67.8102 -3.51039 -5.9728 0
M  V30 685 N 69.6032 -2.69656 -4.93196 0
M  V30 686 H 61.7542 -1.77729 -1.16302 0
M  V30 687 H 64.0172 -0.757291 -0.570276 0
M  V30 688 H 63.7232 -2.41361 -2.55808 0
M  V30 689 H 63.5972 -1.02917 -3.62888 0
M  V30 690 H 65.9842 -0.322041 -2.93338 0
M  V30 691 H 66.0652 -1.73866 -1.87628 0
M  V30 692 H 65.7092 -3.24607 -3.90631 0
M  V30 693 H 65.6392 -1.80247 -4.94791 0
M  V30 694 H 68.1302 -1.6653 -3.39229 0
M  V30 695 H 68.4432 -3.95565 -6.63889 0
M  V30 696 H 66.7882 -3.55145 -5.97409 0
M  V30 697 H 69.9792 -2.13808 -4.16418 0
M  V30 698 H 70.1522 -3.1823 -5.64476 0
M  V30 699 N 63.5583 1.46682 -0.576371 0
M  V30 700 C 64.8353 1.95599 0.00703437 0
M  V30 701 C 65.2153 1.51904 1.46589 0
M  V30 702 O 64.5633 0.766755 2.15251 0
M  V30 703 C 64.7733 3.4864 -0.158404 0
M  V30 704 C 66.1213 4.24594 -0.0229439 0
M  V30 705 O 67.1453 3.56094 -0.0869173 0
M  V30 706 O 66.0043 5.46373 0.118015 0
M  V30 707 H 63.0983 0.825275 0.053384 0
M  V30 708 H 65.6443 1.56996 -0.644244 0
M  V30 709 H 64.4163 3.7331 -1.17282 0
M  V30 710 H 64.0393 3.94057 0.5296 0
M  V30 711 N 65.0364 0.313813 1.54444 0
M  V30 712 C 65.9664 -0.549454 2.26943 0
M  V30 713 C 66.9474 -1.12741 1.27372 0
M  V30 714 O 68.1324 -1.15436 1.56167 0
M  V30 715 C 65.2624 -1.71523 3.01989 0
M  V30 716 C 64.2164 -1.26703 4.08816 0
M  V30 717 C 63.5424 -2.51898 4.71647 0
M  V30 718 C 64.8424 -0.388962 5.2085 0
M  V30 719 H 66.5364 0.0552661 2.99349 0
M  V30 720 H 64.0824 0.0280207 1.43973 0
M  V30 721 H 66.0354 -2.32535 3.51433 0
M  V30 722 H 64.7594 -2.34639 2.27183 0
M  V30 723 H 63.4184 -0.679896 3.6024 0
M  V30 724 H 63.0664 -3.13356 3.93468 0
M  V30 725 H 62.7664 -2.22605 5.43802 0
M  V30 726 H 64.2904 -3.1369 5.23861 0
M  V30 727 H 65.7044 -0.905107 5.6611 0
M  V30 728 H 64.1014 -0.18924 5.99802 0
M  V30 729 H 65.1714 0.582699 4.81386 0
M  V30 730 N 66.5145 -1.57545 0.0417849 0
M  V30 731 C 67.7425 -1.96624 -0.643928 0
M  V30 732 C 68.1575 -0.918897 -1.64929 0
M  V30 733 O 67.5145 0.0979323 -1.82237 0
M  V30 734 C 67.5655 -3.35781 -1.33914 0
M  V30 735 O 67.2865 -4.365 -0.374048 0
M  V30 736 C 68.7875 -3.89566 -2.1155 0
M  V30 737 H 66.0075 -0.647316 -0.176702 0
M  V30 738 H 68.5515 -2.04229 0.105304 0
M  V30 739 H 66.7065 -3.29357 -2.03968 0
M  V30 740 H 67.1205 -5.17248 -0.869179 0
M  V30 741 H 68.5945 -4.89242 -2.55628 0
M  V30 742 H 69.0715 -3.24488 -2.9598 0
M  V30 743 H 69.6775 -3.99298 -1.46427 0
M  V30 744 N 67.9926 0.231505 -1.5589 0
M  V30 745 C 69.2696 0.981096 -1.69215 0
M  V30 746 C 69.6496 2.02799 -0.586164 0
M  V30 747 O 68.9976 2.24823 0.408253 0
M  V30 748 C 69.2076 1.60054 -3.10135 0
M  V30 749 C 70.5556 2.09658 -3.69227 0
M  V30 750 O 71.5796 1.69967 -3.13033 0
M  V30 751 O 70.4386 2.8258 -4.67772 0
M  V30 752 H 67.5326 0.457653 -0.688827 0
M  V30 753 H 70.0786 0.224073 -1.68214 0
M  V30 754 H 68.8506 0.844105 -3.82087 0
M  V30 755 H 68.4736 2.42336 -3.15212 0
M  V30 756 N 69.4707 1.49531 0.497807 0
M  V30 757 C 70.8867 1.36365 0.829266 0
M  V30 758 C 71.0867 0.399184 1.97506 0
M  V30 759 O 70.1427 -0.167977 2.51941 0
M  V30 760 C 71.4557 2.77153 1.16647 0
M  V30 761 C 73.0037 2.85877 1.27449 0
M  V30 762 C 73.4787 4.2744 1.64497 0
M  V30 763 N 74.9697 4.30265 1.7154 0
M  V30 764 C 75.7047 5.3677 2.01656 0
M  V30 765 N 75.2007 6.53516 2.29976 0
M  V30 766 N 76.9937 5.24189 2.02934 0
M  V30 767 H 69.1447 2.10831 -0.257703 0
M  V30 768 H 71.4077 0.946534 -0.0527091 0
M  V30 769 H 71.1137 3.49442 0.397872 0
M  V30 770 H 70.9877 3.12722 2.10915 0
M  V30 771 H 73.3747 2.13824 2.0338 0
M  V30 772 H 73.4557 2.53887 0.312244 0
M  V30 773 H 73.0997 5.00021 0.891151 0
M  V30 774 H 73.0297 4.56896 2.61827 0
M  V30 775 H 75.5207 3.4607 1.51802 0
M  V30 776 H 75.8337 7.30506 2.52153 0
M  V30 777 H 74.1787 6.56737 2.27425 0
M  V30 778 H 77.3697 4.31988 1.80289 0
M  V30 779 H 77.5427 6.07286 2.26071 0
M  V30 780 N 70.9488 -0.749086 1.3866 0
M  V30 781 C 71.8968 -1.88428 1.36373 0
M  V30 782 C 72.8908 -1.67561 0.248929 0
M  V30 783 O 74.0968 -1.75074 0.41821 0
M  V30 784 H 70.4718 -0.620023 0.42553 0
M  V30 785 H 72.4428 -1.87473 2.32156 0
M  V30 786 C 71.1918 -3.25961 1.21014 0
M  V30 787 H 70.5148 -3.42607 2.06059 0
M  V30 788 H 71.9548 -4.05625 1.23469 0
M  V30 789 C 70.4138 -3.36799 -0.0825941 0
M  V30 790 O 70.9438 -3.87517 -1.05797 0
M  V30 791 N 69.1498 -2.90258 -0.140939 0
M  V30 792 H 68.6968 -2.49174 0.653477 0
M  V30 793 H 68.6548 -2.97889 -1.00545 0
M  V30 794 N 72.4269 -1.23603 -0.977757 0
M  V30 795 C 73.3739 -1.01954 -2.07061 0
M  V30 796 C 74.3439 0.0638697 -1.65977 0
M  V30 797 O 75.5289 -0.0887624 -1.90593 0
M  V30 798 C 72.6689 -0.619658 -3.39491 0
M  V30 799 C 71.7819 -1.77547 -3.93829 0
M  V30 800 C 70.9169 -1.32212 -5.14484 0
M  V30 801 C 69.9559 -2.44852 -5.60994 0
M  V30 802 N 69.0929 -2.00456 -6.72876 0
M  V30 803 H 73.9329 -1.95495 -2.24913 0
M  V30 804 H 71.4699 -0.973861 -1.10247 0
M  V30 805 H 73.4279 -0.368898 -4.15566 0
M  V30 806 H 72.0579 0.278752 -3.21594 0
M  V30 807 H 71.1099 -2.14016 -3.14486 0
M  V30 808 H 72.4219 -2.62219 -4.24314 0
M  V30 809 H 71.5759 -1.02965 -5.97899 0
M  V30 810 H 70.3149 -0.445808 -4.85658 0
M  V30 811 H 69.3199 -2.74871 -4.76157 0
M  V30 812 H 70.5449 -3.33024 -5.91837 0
M  V30 813 H 68.4909 -1.15208 -6.45804 0
M  V30 814 H 68.4079 -2.78687 -7.02759 0
M  V30 815 H 69.6759 -1.7432 -7.59758 0
M  V30 816 N 73.905 1.17692 -1.04816 0
M  V30 817 C 74.853 2.23632 -0.63966 0
M  V30 818 C 75.847 1.6601 0.337219 0
M  V30 819 O 77.053 1.78844 0.203693 0
M  V30 820 H 73.428 0.727949 -0.188665 0
M  V30 821 H 75.399 2.55387 -1.54337 0
M  V30 822 C 74.148 3.4769 -0.0264051 0
M  V30 823 H 73.471 3.92331 -0.769164 0
M  V30 824 H 74.911 4.23418 0.222098 0
M  V30 825 C 73.37 3.13807 1.22584 0
M  V30 826 O 73.9 3.28236 2.31569 0
M  V30 827 N 72.106 2.68065 1.12202 0
M  V30 828 H 71.653 2.56525 0.235133 0
M  V30 829 H 71.611 2.45767 1.96076 0
M  V30 830 N 75.3831 0.828654 1.34056 0
M  V30 831 C 76.6311 0.41863 1.97717 0
M  V30 832 C 76.9521 -1.02314 1.66002 0
M  V30 833 O 76.2221 -1.71119 0.953683 0
M  V30 834 H 74.8021 0.151809 0.731412 0
M  V30 835 H 77.4641 1.05936 1.63596 0
M  V30 836 H 76.5601 0.542318 3.07352 0
M  V30 837 N 76.8612 -1.46375 0.584142 0
M  V30 838 C 77.7912 -2.33103 -0.136037 0
M  V30 839 C 78.7722 -1.45431 -0.882255 0
M  V30 840 O 79.9572 -1.74246 -0.857434 0
M  V30 841 C 77.0872 -3.27731 -1.14933 0
M  V30 842 C 76.0412 -4.24855 -0.517862 0
M  V30 843 C 75.3672 -5.09001 -1.63773 0
M  V30 844 C 76.6672 -5.19439 0.545886 0
M  V30 845 H 78.3612 -2.93568 0.588086 0
M  V30 846 H 75.9072 -1.41166 0.284259 0
M  V30 847 H 77.8602 -3.87261 -1.66153 0
M  V30 848 H 76.5842 -2.65377 -1.90375 0
M  V30 849 H 75.2432 -3.6659 -0.0267361 0
M  V30 850 H 74.8912 -4.43031 -2.38185 0
M  V30 851 H 74.5912 -5.74777 -1.22085 0
M  V30 852 H 76.1152 -5.71396 -2.15266 0
M  V30 853 H 77.5292 -5.73177 0.118704 0
M  V30 854 H 75.9262 -5.93566 0.88317 0
M  V30 855 H 76.9962 -4.63285 1.43162 0
M  V30 856 N 78.3393 -0.321999 -1.54275 0
M  V30 857 C 79.5693 0.282642 -2.04658 0
M  V30 858 C 79.9773 1.46453 -1.19784 0
M  V30 859 O 79.3203 1.82367 -0.220932 0
M  V30 860 C 79.3823 0.781857 -3.50895 0
M  V30 861 C 79.0463 -0.277517 -4.56157 0
M  V30 862 C 80.0433 -1.11307 -5.07845 0
M  V30 863 C 77.7283 -0.425256 -5.00497 0
M  V30 864 C 79.7223 -2.08211 -6.02434 0
M  V30 865 C 77.4093 -1.39771 -5.94901 0
M  V30 866 C 78.4073 -2.2246 -6.45756 0
M  V30 867 O 78.0953 -3.18054 -7.38307 0
M  V30 868 H 77.8273 0.0622636 -0.673126 0
M  V30 869 H 80.3813 -0.465792 -2.00049 0
M  V30 870 H 78.6113 1.58118 -3.52896 0
M  V30 871 H 80.3003 1.30467 -3.84361 0
M  V30 872 H 81.0663 -1.00991 -4.74369 0
M  V30 873 H 76.9453 0.20847 -4.60528 0
M  V30 874 H 80.4893 -2.72791 -6.42052 0
M  V30 875 H 76.3863 -1.50152 -6.27794 0
M  V30 876 H 77.1543 -3.13275 -7.56175 0
M  V30 877 N 79.8174 1.5752 -0.0501392 0
M  V30 878 C 80.7474 2.14502 0.922566 0
M  V30 879 C 81.7284 1.06642 1.3252 0
M  V30 880 O 82.9134 1.34577 1.4001 0
M  V30 881 C 80.0434 2.68916 2.19776 0
M  V30 882 C 78.9974 3.8175 1.93523 0
M  V30 883 C 78.3234 4.22677 3.27487 0
M  V30 884 C 79.6234 5.06932 1.25765 0
M  V30 885 H 81.3174 2.9603 0.447952 0
M  V30 886 H 78.8634 1.42401 0.214024 0
M  V30 887 H 80.8164 3.07419 2.88222 0
M  V30 888 H 79.5404 1.84578 2.69441 0
M  V30 889 H 78.1994 3.43718 1.27489 0
M  V30 890 H 77.8474 3.35291 3.74952 0
M  V30 891 H 77.5474 4.98725 3.1072 0
M  V30 892 H 79.0714 4.63779 3.97166 0
M  V30 893 H 80.4854 5.42888 1.84244 0
M  V30 894 H 78.8824 5.88116 1.19328 0
M  V30 895 H 79.9524 4.84337 0.233536 0
M  V30 896 N 81.2955 -0.223234 1.56011 0
M  V30 897 C 82.2585 -1.26014 1.9145 0
M  V30 898 C 83.2585 -1.3989 0.792937 0
M  V30 899 O 84.4485 -1.38184 1.0607 0
M  V30 900 C 81.5805 -2.63422 2.16383 0
M  V30 901 H 82.7735 -0.95796 2.84189 0
M  V30 902 H 80.3265 -0.463576 1.49267 0
M  V30 903 H 81.0615 -2.98741 1.2619 0
M  V30 904 H 80.8465 -2.54728 2.98088 0
M  V30 905 H 82.3365 -3.38249 2.44903 0
M  V30 906 N 82.7736 -1.49793 -0.48987 0
M  V30 907 C 83.6836 -1.70036 -1.61632 0
M  V30 908 C 84.6996 -0.583102 -1.63939 0
M  V30 909 O 85.8756 -0.859169 -1.82154 0
M  V30 910 C 82.9406 -1.77277 -2.97949 0
M  V30 911 C 82.0016 -3.00918 -3.06181 0
M  V30 912 C 81.2346 -3.07804 -4.35996 0
M  V30 913 O 81.4576 -2.21982 -5.25433 0
M  V30 914 O 80.3916 -4.00369 -4.49431 0
M  V30 915 H 84.2176 -2.65486 -1.47482 0
M  V30 916 H 81.8026 -1.33666 -0.667362 0
M  V30 917 H 83.6846 -1.84329 -3.78947 0
M  V30 918 H 82.3596 -0.850076 -3.12339 0
M  V30 919 H 81.2666 -2.99377 -2.2433 0
M  V30 920 H 82.5996 -3.92704 -2.96723 0
M  V30 921 N 84.2517 0.741722 -1.39055 0
M  V30 922 C 85.1847 1.86416 -1.31622 0
M  V30 923 C 86.1627 1.61473 -0.191076 0
M  V30 924 O 87.3467 1.84825 -0.370399 0
M  V30 925 C 84.4737 3.22266 -1.04221 0
M  V30 926 C 83.5197 3.66079 -2.18834 0
M  V30 927 S 84.3527 3.7623 -3.81066 0
M  V30 928 C 85.5087 5.14881 -3.55877 0
M  V30 929 H 85.7417 1.92437 -2.26617 0
M  V30 930 H 83.2747 0.905907 -1.25031 0
M  V30 931 H 85.2327 4.00714 -0.890964 0
M  V30 932 H 83.8937 3.1391 -0.109237 0
M  V30 933 H 83.0867 4.64648 -1.95238 0
M  V30 934 H 82.6887 2.94817 -2.30128 0
M  V30 935 H 84.9807 6.01006 -3.12726 0
M  V30 936 H 85.9237 5.43503 -4.53884 0
M  V30 937 H 86.3317 4.84239 -2.90126 0
M  V30 938 N 85.7298 1.2412 0.971189 0
M  V30 939 C 86.6598 1.05508 2.08304 0
M  V30 940 C 87.6408 -0.0308864 1.70072 0
M  V30 941 O 88.8258 0.135521 1.93727 0
M  V30 942 C 85.9558 0.655365 3.4106 0
M  V30 943 C 84.9098 1.68971 3.93234 0
M  V30 944 C 84.2358 1.14516 5.22293 0
M  V30 945 C 85.5358 3.08487 4.21465 0
M  V30 946 H 87.2298 1.98507 2.24132 0
M  V30 947 H 84.7758 0.955821 1.07704 0
M  V30 948 H 86.7288 0.51217 4.18276 0
M  V30 949 H 85.4528 -0.31032 3.25122 0
M  V30 950 H 84.1118 1.82106 3.18171 0
M  V30 951 H 83.7598 0.170189 5.02712 0
M  V30 952 H 83.4598 1.83635 5.58168 0
M  V30 953 H 84.9838 1.01401 6.02121 0
M  V30 954 H 86.3978 2.98601 4.89398 0
M  V30 955 H 84.7948 3.74926 4.68562 0
M  V30 956 H 85.8648 3.56787 3.28376 0
M  V30 957 N 87.2079 -1.17134 1.05439 0
M  V30 958 C 88.4379 -1.91094 0.785274 0
M  V30 959 C 88.8459 -1.77198 -0.663142 0
M  V30 960 O 88.1889 -1.10835 -1.46497 0
M  V30 961 C 88.2509 -3.42594 1.08949 0
M  V30 962 C 87.9149 -3.80274 2.53458 0
M  V30 963 C 88.9119 -3.82912 3.51673 0
M  V30 964 C 86.5969 -4.11162 2.88532 0
M  V30 965 C 88.5909 -4.15913 4.83006 0
M  V30 966 C 86.2779 -4.43831 4.20068 0
M  V30 967 C 87.2759 -4.46185 5.17115 0
M  V30 968 O 86.9639 -4.78083 6.46291 0
M  V30 969 H 86.6959 -0.613073 0.284811 0
M  V30 970 H 89.2499 -1.49461 1.40893 0
M  V30 971 H 87.4799 -3.84534 0.408741 0
M  V30 972 H 89.1689 -3.97817 0.805991 0
M  V30 973 H 89.9349 -3.5917 3.25917 0
M  V30 974 H 85.8139 -4.085 2.13656 0
M  V30 975 H 89.3579 -4.17665 5.5875 0
M  V30 976 H 85.2549 -4.67037 4.45586 0
M  V30 977 H 86.0229 -4.9593 6.51149 0
M  V30 978 N 88.686 -0.835752 -1.33615 0
M  V30 979 C 90.102 -0.523139 -1.50783 0
M  V30 980 C 90.302 0.950171 -1.77691 0
M  V30 981 O 89.358 1.73411 -1.83534 0
M  V30 982 C 90.671 -1.39378 -2.66448 0
M  V30 983 C 92.219 -1.39223 -2.80332 0
M  V30 984 C 92.694 -2.24765 -3.99055 0
M  V30 985 N 94.185 -2.22458 -4.06284 0
M  V30 986 C 94.92 -2.85386 -4.97336 0
M  V30 987 N 94.416 -3.57354 -5.93523 0
M  V30 988 N 96.209 -2.74872 -4.90308 0
M  V30 989 H 88.36 -1.78952 -1.14411 0
M  V30 990 H 90.623 -0.763297 -0.562212 0
M  V30 991 H 90.329 -2.44061 -2.53234 0
M  V30 992 H 90.203 -1.0676 -3.61776 0
M  V30 993 H 92.59 -0.353136 -2.92979 0
M  V30 994 H 92.671 -1.75846 -1.85773 0
M  V30 995 H 92.315 -3.28732 -3.87167 0
M  V30 996 H 92.245 -1.85485 -4.92852 0
M  V30 997 H 94.736 -1.70119 -3.37443 0
M  V30 998 H 95.049 -4.02584 -6.59656 0
M  V30 999 H 93.394 -3.61461 -5.93608 0
M  V30 1000 H 96.585 -2.18213 -4.14126 0
M  V30 1001 H 96.758 -3.24199 -5.61069 0
M  V30 1002 N 90.1641 1.46063 -0.591896 0
M  V30 1003 C 91.4041 2.04228 -0.0838014 0
M  V30 1004 C 91.7681 1.45231 1.25587 0
M  V30 1005 O 92.9691 1.94653 1.85375 0
M  V30 1006 C 91.2401 3.57389 -0.0286282 0
M  V30 1007 S 92.7991 4.3678 0.420557 0
M  V30 1008 H 89.6171 0.709762 -0.0419319 0
M  V30 1009 H 92.2191 1.78983 -0.786465 0
M  V30 1010 H 90.9231 3.97843 -1.00743 0
M  V30 1011 H 90.4541 3.87185 0.69652 0
M  V30 1012 H 92.4691 4.67131 1.67341 0
M  V30 1013 N 91.6422 0.330177 1.54103 0
M  V30 1014 C 92.5902 -0.548226 2.26047 0
M  V30 1015 C 93.5842 -1.11309 1.27698 0
M  V30 1016 O 94.7902 -1.06036 1.45452 0
M  V30 1017 H 91.1652 -0.195456 0.726155 0
M  V30 1018 H 93.1362 0.0807567 2.98291 0
M  V30 1019 C 91.8852 -1.69415 3.03634 0
M  V30 1020 H 91.2082 -1.26876 3.79134 0
M  V30 1021 H 92.6482 -2.28423 3.5721 0
M  V30 1022 C 91.1072 -2.61569 2.12328 0
M  V30 1023 O 91.6372 -3.63462 1.7105 0
M  V30 1024 N 89.8432 -2.29952 1.77681 0
M  V30 1025 H 89.3902 -1.47134 2.11446 0
M  V30 1026 H 89.3482 -2.91871 1.16869 0
M  V30 1027 N 93.1203 -1.57491 0.0584922 0
M  V30 1028 C 94.3693 -1.92155 -0.613146 0
M  V30 1029 C 94.6823 -0.939334 -1.71569 0
M  V30 1030 O 95.8883 -1.17829 -2.44599 0
M  V30 1031 C 94.3443 -3.41303 -1.14195 0
M  V30 1032 C 93.9523 -4.47944 -0.0711265 0
M  V30 1033 C 95.6963 -3.84988 -1.78841 0
M  V30 1034 C 93.6033 -5.88212 -0.613225 0
M  V30 1035 H 92.5333 -0.717162 -0.232796 0
M  V30 1036 H 95.1843 -1.83049 0.12857 0
M  V30 1037 H 93.5663 -3.45437 -1.93621 0
M  V30 1038 H 94.7403 -4.55408 0.702836 0
M  V30 1039 H 93.0553 -4.13644 0.478313 0
M  V30 1040 H 95.6523 -4.87159 -2.20408 0
M  V30 1041 H 95.9953 -3.21632 -2.64308 0
M  V30 1042 H 96.5283 -3.83401 -1.06059 0
M  V30 1043 H 93.2673 -6.55183 0.203978 0
M  V30 1044 H 92.7873 -5.84294 -1.35501 0
M  V30 1045 H 94.4663 -6.37687 -1.09383 0
M  V30 1046 N 94.5984 0.214957 -1.56127 0
M  V30 1047 C 95.5284 1.2695 -1.95974 0
M  V30 1048 C 96.5094 1.48539 -0.828868 0
M  V30 1049 O 97.6944 1.60611 -1.09168 0
M  V30 1050 C 94.8244 2.61794 -2.28214 0
M  V30 1051 C 93.7784 2.54851 -3.43853 0
M  V30 1052 C 93.1044 3.93785 -3.61715 0
M  V30 1053 C 94.4044 2.09065 -4.78632 0
M  V30 1054 H 96.0984 0.93846 -2.84312 0
M  V30 1055 H 93.6444 0.449996 -1.36788 0
M  V30 1056 H 95.5974 3.35731 -2.54682 0
M  V30 1057 H 94.3214 2.96599 -1.36736 0
M  V30 1058 H 92.9804 1.8337 -3.17444 0
M  V30 1059 H 92.6284 4.25908 -2.67602 0
M  V30 1060 H 92.3284 3.90019 -4.39498 0
M  V30 1061 H 93.8524 4.69374 -3.90539 0
M  V30 1062 H 95.2664 2.7275 -5.04262 0
M  V30 1063 H 93.6634 2.16346 -5.59745 0
M  V30 1064 H 94.7334 1.04315 -4.73547 0
M  V30 1065 N 96.0765 1.50051 0.48192 0
M  V30 1066 C 97.0395 1.67584 1.5636 0
M  V30 1067 C 98.0395 0.546894 1.51214 0
M  V30 1068 O 99.2295 0.813725 1.54026 0
M  V30 1069 C 96.3615 1.691 2.96003 0
M  V30 1070 H 97.5545 2.64078 1.42136 0
M  V30 1071 H 95.1075 1.39369 0.707533 0
M  V30 1072 H 95.8425 0.742589 3.15684 0
M  V30 1073 H 95.6275 2.51105 3.01146 0
M  V30 1074 H 97.1175 1.84656 3.74556 0
M  V30 1075 N 97.5546 -0.734337 1.39446 0
M  V30 1076 C 98.8036 -1.48937 1.36017 0
M  V30 1077 C 99.1166 -1.95557 -0.0409005 0
M  V30 1078 O 100.323 -2.70779 -0.19778 0
M  V30 1079 C 98.7786 -2.69125 2.38955 0
M  V30 1080 C 98.3866 -2.29452 3.8478 0
M  V30 1081 C 100.131 -3.46944 2.44603 0
M  V30 1082 C 98.0376 -3.46366 4.79358 0
M  V30 1083 H 96.9676 -0.559296 0.505672 0
M  V30 1084 H 99.6186 -0.800983 1.65095 0
M  V30 1085 H 98.0006 -3.40041 2.02948 0
M  V30 1086 H 99.1746 -1.66077 4.29831 0
M  V30 1087 H 97.4896 -1.64723 3.82433 0
M  V30 1088 H 100.087 -4.33907 3.12456 0
M  V30 1089 H 100.43 -3.89454 1.47076 0
M  V30 1090 H 100.963 -2.83056 2.79507 0
M  V30 1091 H 97.7016 -3.08905 5.78151 0
M  V30 1092 H 97.2216 -4.08719 4.38986 0
M  V30 1093 H 98.9006 -4.12691 4.98292 0
M  V30 1094 N 99.0327 -1.24633 -0.964593 0
M  V30 1095 C 100.261 -1.11501 -1.74285 0
M  V30 1096 C 100.676 0.332165 -1.85855 0
M  V30 1097 O 100.033 1.22903 -1.34911 0
M  V30 1098 C 100.084 -1.75258 -3.16175 0
M  V30 1099 O 99.8047 -3.14318 -3.05182 0
M  V30 1100 C 101.306 -1.67776 -4.10324 0
M  V30 1101 H 98.5257 -0.389407 -0.546446 0
M  V30 1102 H 101.07 -1.64801 -1.21083 0
M  V30 1103 H 99.2247 -1.25954 -3.66353 0
M  V30 1104 H 99.6387 -3.4551 -3.94618 0
M  V30 1105 H 101.113 -2.17064 -5.0753 0
M  V30 1106 H 101.59 -0.639584 -4.34518 0
M  V30 1107 H 102.196 -2.16522 -3.66058 0
M  V30 1108 N 100.511 1.16574 -1.06058 0
M  V30 1109 C 101.759 1.86677 -0.77434 0
M  V30 1110 C 102.08 1.81959 0.701147 0
M  V30 1111 O 101.35 1.2515 1.50713 0
M  V30 1112 H 99.9298 0.691134 -0.283449 0
M  V30 1113 H 102.592 1.41378 -1.34158 0
M  V30 1114 H 101.688 2.92181 -1.09711 0
M  V30 1115 N 101.989 0.842826 1.3317 0
M  V30 1116 C 102.937 0.267495 2.31057 0
M  V30 1117 C 103.931 -0.602682 1.58316 0
M  V30 1118 O 105.137 -0.491803 1.73151 0
M  V30 1119 H 101.512 0.0677813 0.748939 0
M  V30 1120 H 103.483 1.10754 2.77085 0
M  V30 1121 C 102.232 -0.539331 3.43492 0
M  V30 1122 H 101.555 0.12095 3.99617 0
M  V30 1123 H 102.995 -0.90767 4.14171 0
M  V30 1124 C 101.454 -1.71981 2.89697 0
M  V30 1125 O 101.984 -2.81862 2.86211 0
M  V30 1126 N 100.19 -1.54299 2.46252 0
M  V30 1127 H 99.7369 -0.649143 2.49287 0
M  V30 1128 H 99.6949 -2.33431 2.10612 0
M  V30 1129 N 103.467 -1.45747 0.599634 0
M  V30 1130 C 104.414 -2.30467 -0.123849 0
M  V30 1131 C 105.384 -1.41632 -0.86774 0
M  V30 1132 O 106.569 -1.70568 -0.855056 0
M  V30 1133 C 103.709 -3.26402 -1.12051 0
M  V30 1134 C 102.822 -4.3034 -0.37832 0
M  V30 1135 C 101.957 -5.13389 -1.364 0
M  V30 1136 C 100.996 -6.09061 -0.609171 0
M  V30 1137 N 100.133 -6.84918 -1.54374 0
M  V30 1138 H 104.973 -2.91802 0.604627 0
M  V30 1139 H 102.51 -1.43797 0.309972 0
M  V30 1140 H 104.468 -3.80482 -1.7114 0
M  V30 1141 H 103.098 -2.66839 -1.8165 0
M  V30 1142 H 102.15 -3.78984 0.327929 0
M  V30 1143 H 103.462 -4.98354 0.210997 0
M  V30 1144 H 102.616 -5.7183 -2.02719 0
M  V30 1145 H 101.355 -4.45376 -1.98725 0
M  V30 1146 H 100.36 -5.49758 0.0676979 0
M  V30 1147 H 101.585 -6.79099 0.00891991 0
M  V30 1148 H 99.531 -6.19601 -2.15478 0
M  V30 1149 H 99.448 -7.49254 -1.00766 0
M  V30 1150 H 100.716 -7.47906 -2.19676 0
M  V30 1151 N 104.945 -0.338344 -1.53925 0
M  V30 1152 C 105.893 0.536231 -2.26335 0
M  V30 1153 C 106.887 1.1063 -1.28286 0
M  V30 1154 O 108.093 1.05264 -1.46012 0
M  V30 1155 H 104.468 0.191602 -0.727181 0
M  V30 1156 H 106.439 -0.0965747 -2.98244 0
M  V30 1157 C 105.188 1.67803 -3.04528 0
M  V30 1158 H 104.511 1.24864 -3.79801 0
M  V30 1159 H 105.951 2.26526 -3.58416 0
M  V30 1160 C 104.41 2.60439 -2.13712 0
M  V30 1161 O 104.94 3.6255 -1.72975 0
M  V30 1162 N 103.146 2.29006 -1.78898 0
M  V30 1163 H 102.693 1.46011 -2.12223 0
M  V30 1164 H 102.651 2.91248 -1.18416 0
M  V30 1165 N 106.423 1.57458 -0.0668435 0
M  V30 1166 C 107.7 1.8469 0.644132 0
M  V30 1167 C 108.08 0.958343 1.88093 0
M  V30 1168 O 107.428 0.0233579 2.28488 0
M  V30 1169 C 107.638 3.34767 0.986509 0
M  V30 1170 C 108.986 4.02159 1.36212 0
M  V30 1171 O 110.01 3.39484 1.07839 0
M  V30 1172 O 108.869 5.12694 1.89227 0
M  V30 1173 H 105.963 0.762816 0.319437 0
M  V30 1174 H 108.509 1.6942 -0.0973986 0
M  V30 1175 H 107.281 3.91151 0.107883 0
M  V30 1176 H 106.904 3.55281 1.78497 0
M  V30 1177 N 107.901 -0.206675 1.56239 0
M  V30 1178 C 108.848 -1.25617 1.93621 0
M  V30 1179 C 109.818 -1.45824 0.795274 0
M  V30 1180 O 111.003 -1.59148 1.05245 0
M  V30 1181 C 108.143 -2.59839 2.27107 0
M  V30 1182 C 107.256 -2.47308 3.54207 0
M  V30 1183 C 106.391 -3.74155 3.7707 0
M  V30 1184 C 105.43 -3.56407 4.97635 0
M  V30 1185 N 104.567 -4.75238 5.1681 0
M  V30 1186 H 109.407 -0.930383 2.83104 0
M  V30 1187 H 106.944 -0.448065 1.4011 0
M  V30 1188 H 108.902 -3.38021 2.44535 0
M  V30 1189 H 107.532 -2.90485 1.40778 0
M  V30 1190 H 106.584 -1.60483 3.4489 0
M  V30 1191 H 107.896 -2.30122 4.42544 0
M  V30 1192 H 107.05 -4.60778 3.94675 0
M  V30 1193 H 105.789 -3.94282 2.87042 0
M  V30 1194 H 104.794 -2.68168 4.79964 0
M  V30 1195 H 106.019 -3.37736 5.89161 0
M  V30 1196 H 103.965 -4.95651 4.29728 0
M  V30 1197 H 103.882 -4.60835 5.99306 0
M  V30 1198 H 105.15 -5.63246 5.38864 0
M  V30 1199 N 109.379 -1.50304 -0.473955 0
M  V30 1200 C 110.326 -1.68959 -1.57231 0
M  V30 1201 C 111.296 -0.530899 -1.57387 0
M  V30 1202 O 112.481 -0.761133 -1.74961 0
M  V30 1203 C 109.621 -1.7871 -2.95223 0
M  V30 1204 C 108.734 -3.06061 -3.04878 0
M  V30 1205 C 107.869 -3.06626 -4.33767 0
M  V30 1206 C 106.908 -4.28443 -4.37154 0
M  V30 1207 N 106.045 -4.26763 -5.5751 0
M  V30 1208 H 110.885 -2.6273 -1.40631 0
M  V30 1209 H 108.422 -1.30241 -0.683789 0
M  V30 1210 H 110.38 -1.82344 -3.75242 0
M  V30 1211 H 109.01 -0.883806 -3.10465 0
M  V30 1212 H 108.062 -3.11911 -2.17751 0
M  V30 1213 H 109.374 -3.96039 -3.0324 0
M  V30 1214 H 108.528 -3.08973 -5.22131 0
M  V30 1215 H 107.267 -2.14473 -4.3801 0
M  V30 1216 H 106.272 -4.2631 -3.47188 0
M  V30 1217 H 107.497 -5.2182 -4.34605 0
M  V30 1218 H 105.443 -3.37462 -5.62544 0
M  V30 1219 H 105.36 -5.10507 -5.57601 0
M  V30 1220 H 106.628 -4.33253 -6.48006 0
M  V30 1221 N 110.857 0.726932 -1.39834 0
M  V30 1222 C 112.105 1.4837 -1.37225 0
M  V30 1223 C 112.426 1.94979 0.0284857 0
M  V30 1224 O 111.696 1.69555 0.981213 0
M  V30 1225 H 110.276 0.55043 -0.505011 0
M  V30 1226 H 112.938 0.862468 -1.74778 0
M  V30 1227 H 112.034 2.36198 -2.04003 0
M  V30 1228 N 112.336 1.25143 0.95797 0
M  V30 1229 C 113.283 1.05235 2.05412 0
M  V30 1230 C 114.253 -0.0374561 1.66058 0
M  V30 1231 O 115.438 0.119073 1.90428 0
M  V30 1232 C 112.578 0.673589 3.38462 0
M  V30 1233 C 111.691 1.8379 3.90954 0
M  V30 1234 C 110.826 1.40381 5.12315 0
M  V30 1235 C 109.865 2.53746 5.57027 0
M  V30 1236 N 109.002 2.11136 6.69601 0
M  V30 1237 H 113.842 1.99048 2.21774 0
M  V30 1238 H 111.379 0.991277 1.08683 0
M  V30 1239 H 113.337 0.434964 4.14926 0
M  V30 1240 H 111.967 -0.227554 3.21997 0
M  V30 1241 H 111.019 2.18992 3.11041 0
M  V30 1242 H 112.331 2.68937 4.20089 0
M  V30 1243 H 111.485 1.12464 5.96185 0
M  V30 1244 H 110.224 0.523015 4.84887 0
M  V30 1245 H 109.229 2.82412 4.71724 0
M  V30 1246 H 110.454 3.42398 5.86464 0
M  V30 1247 H 108.4 1.25468 6.4389 0
M  V30 1248 H 108.317 2.89832 6.98236 0
M  V30 1249 H 109.585 1.86385 7.56889 0
M  V30 1250 N 113.814 -1.1601 1.06675 0
M  V30 1251 C 115.06 -1.87145 0.796766 0
M  V30 1252 C 115.415 -1.8037 -0.669658 0
M  V30 1253 O 114.708 -1.21116 -1.48463 0
M  V30 1254 C 114.902 -3.35547 1.23057 0
M  V30 1255 C 114.731 -3.56769 2.73762 0
M  V30 1256 C 113.501 -3.72635 3.41279 0
M  V30 1257 C 115.699 -3.55166 3.7197 0
M  V30 1258 N 113.681 -3.81845 4.80695 0
M  V30 1259 C 115.052 -3.70406 4.97191 0
M  V30 1260 C 117.107 -3.384 3.65226 0
M  V30 1261 C 115.81 -3.70615 6.16471 0
M  V30 1262 C 117.836 -3.39904 4.83962 0
M  V30 1263 C 117.198 -3.55667 6.08013 0
M  V30 1264 H 113.297 -0.702267 0.344014 0
M  V30 1265 H 115.881 -1.39165 1.36166 0
M  V30 1266 H 114.052 -3.82159 0.693456 0
M  V30 1267 H 115.784 -3.94363 0.908844 0
M  V30 1268 H 112.539 -3.73121 2.91681 0
M  V30 1269 H 112.963 -3.90209 5.53232 0
M  V30 1270 H 117.605 -3.25138 2.70269 0
M  V30 1271 H 115.323 -3.82658 7.11757 0
M  V30 1272 H 118.909 -3.28169 4.80413 0
M  V30 1273 H 117.789 -3.56755 6.98352 0
M  V30 1274 N 115.292 -0.849877 -1.32721 0
M  V30 1275 C 116.255 -0.296122 -2.27279 0
M  V30 1276 C 117.255 0.541458 -1.5141 0
M  V30 1277 O 118.445 0.353658 -1.70572 0
M  V30 1278 C 115.577 0.581579 -3.35902 0
M  V30 1279 H 116.77 -1.13064 -2.77771 0
M  V30 1280 H 114.323 -0.62383 -1.43311 0
M  V30 1281 H 115.058 1.43809 -2.9067 0
M  V30 1282 H 114.843 -0.0178814 -3.92096 0
M  V30 1283 H 116.333 0.961951 -4.0637 0
M  V30 1284 N 116.77 1.45427 -0.607355 0
M  V30 1285 C 117.717 2.3053 0.111625 0
M  V30 1286 C 118.687 1.4209 0.860216 0
M  V30 1287 O 119.872 1.71019 0.845998 0
M  V30 1288 C 117.012 3.26992 1.10319 0
M  V30 1289 C 116.125 4.30535 0.355493 0
M  V30 1290 C 115.26 5.14105 1.33676 0
M  V30 1291 C 114.299 6.09376 0.576862 0
M  V30 1292 N 113.436 6.85727 1.5074 0
M  V30 1293 H 118.276 2.91477 -0.620093 0
M  V30 1294 H 115.813 1.43631 -0.317594 0
M  V30 1295 H 117.771 3.81385 1.6912 0
M  V30 1296 H 116.401 2.67799 1.80232 0
M  V30 1297 H 115.453 3.78805 -0.348023 0
M  V30 1298 H 116.765 4.98235 -0.237423 0
M  V30 1299 H 115.919 5.72897 1.99684 0
M  V30 1300 H 114.658 4.46423 1.9636 0
M  V30 1301 H 113.663 5.49715 -0.0968519 0
M  V30 1302 H 114.888 6.79085 -0.0449341 0
M  V30 1303 H 112.834 6.20735 2.12189 0
M  V30 1304 H 112.751 7.49778 0.967913 0
M  V30 1305 H 114.019 7.4906 2.15706 0
M  V30 1306 N 118.248 0.346503 1.53744 0
M  V30 1307 C 119.196 -0.52422 2.26616 0
M  V30 1308 C 120.19 -1.09948 1.28871 0
M  V30 1309 O 121.396 -1.04488 1.46568 0
M  V30 1310 H 117.771 -0.187743 0.728187 0
M  V30 1311 H 119.742 0.11239 2.98188 0
M  V30 1312 C 118.491 -1.66186 3.05414 0
M  V30 1313 H 117.814 -1.22848 3.80458 0
M  V30 1314 H 119.254 -2.24622 3.59612 0
M  V30 1315 C 117.713 -2.59302 2.1509 0
M  V30 1316 O 118.243 -3.61628 1.74895 0
M  V30 1317 N 116.449 -2.28055 1.8011 0
M  V30 1318 H 115.996 -1.44883 2.12994 0
M  V30 1319 H 115.954 -2.90615 1.19958 0
M  V30 1320 N 119.726 -1.57421 0.075193 0
M  V30 1321 C 120.972 -1.93905 -0.594025 0
M  V30 1322 C 121.305 -0.955701 -1.69056 0
M  V30 1323 O 120.58 0.0145373 -1.94495 0
M  V30 1324 C 120.863 -3.40638 -1.1678 0
M  V30 1325 C 120.716 -4.49733 -0.0776792 0
M  V30 1326 C 122.035 -3.88259 -2.07228 0
M  V30 1327 H 119.154 -0.705105 -0.214466 0
M  V30 1328 H 121.796 -1.8947 0.141854 0
M  V30 1329 H 119.946 -3.44549 -1.79494 0
M  V30 1330 H 121.618 -4.57942 0.555573 0
M  V30 1331 H 119.861 -4.29751 0.591286 0
M  V30 1332 H 120.532 -5.49549 -0.519603 0
M  V30 1333 H 123.008 -3.86376 -1.54445 0
M  V30 1334 H 121.884 -4.91533 -2.44308 0
M  V30 1335 H 122.145 -3.26396 -2.98191 0
M  V30 1336 N 121.204 0.198386 -1.56346 0
M  V30 1337 C 122.134 1.24865 -1.9731 0
M  V30 1338 C 123.115 1.47651 -0.844576 0
M  V30 1339 O 124.3 1.59444 -1.10866 0
M  V30 1340 C 121.43 2.59358 -2.30977 0
M  V30 1341 C 120.384 2.5119 -3.46537 0
M  V30 1342 C 119.71 3.89926 -3.65871 0
M  V30 1343 C 121.01 2.03977 -4.80823 0
M  V30 1344 H 122.704 0.908252 -2.85291 0
M  V30 1345 H 120.25 0.435462 -1.37258 0
M  V30 1346 H 122.203 3.33011 -2.58228 0
M  V30 1347 H 120.927 2.95132 -1.39874 0
M  V30 1348 H 119.586 1.79993 -3.19371 0
M  V30 1349 H 119.234 4.23046 -2.72105 0
M  V30 1350 H 118.934 3.85336 -4.4361 0
M  V30 1351 H 120.458 4.65205 -3.95495 0
M  V30 1352 H 121.872 2.67386 -5.07127 0
M  V30 1353 H 120.269 2.10397 -5.62008 0
M  V30 1354 H 121.339 0.992861 -4.74626 0
M  V30 1355 N 122.682 1.50554 0.465978 0
M  V30 1356 C 123.931 1.61038 1.21448 0
M  V30 1357 C 124.244 0.31865 1.92987 0
M  V30 1358 O 125.45 0.302469 2.6981 0
M  V30 1359 C 123.906 2.84283 2.20706 0
M  V30 1360 C 123.514 4.20352 1.54946 0
M  V30 1361 C 125.258 3.04115 2.96166 0
M  V30 1362 C 123.165 5.34778 2.5252 0
M  V30 1363 H 122.095 0.599718 0.457005 0
M  V30 1364 H 124.746 1.7699 0.484424 0
M  V30 1365 H 123.128 2.61901 2.97025 0
M  V30 1366 H 124.302 4.53008 0.843811 0
M  V30 1367 H 122.617 4.06167 0.917475 0
M  V30 1368 H 125.214 3.86774 3.69202 0
M  V30 1369 H 125.557 2.16045 3.55852 0
M  V30 1370 H 126.09 3.26702 2.26959 0
M  V30 1371 H 122.829 6.25018 1.97566 0
M  V30 1372 H 122.349 5.06534 3.21222 0
M  V30 1373 H 124.028 5.65561 3.14245 0
M  V30 1374 N 124.16 -0.719506 1.40217 0
M  V30 1375 C 125.409 -1.47486 1.37589 0
M  V30 1376 C 125.722 -1.9559 -0.0201568 0
M  V30 1377 O 126.928 -2.70973 -0.169049 0
M  V30 1378 C 125.384 -2.66575 2.41796 0
M  V30 1379 C 124.992 -2.25358 3.87192 0
M  V30 1380 C 126.736 -3.4433 2.48269 0
M  V30 1381 C 124.643 -3.41262 4.83005 0
M  V30 1382 H 123.573 -0.553901 0.511576 0
M  V30 1383 H 126.224 -0.783427 1.65936 0
M  V30 1384 H 124.606 -3.3787 2.06543 0
M  V30 1385 H 125.78 -1.61509 4.31569 0
M  V30 1386 H 124.095 -1.60657 3.84159 0
M  V30 1387 H 126.692 -4.30569 3.17041 0
M  V30 1388 H 127.035 -3.87872 1.51198 0
M  V30 1389 H 127.568 -2.80076 2.82493 0
M  V30 1390 H 124.307 -3.02755 5.81394 0
M  V30 1391 H 123.827 -4.0404 4.43297 0
M  V30 1392 H 125.506 -4.07383 5.02641 0
M  V30 1393 N 125.638 -1.25649 -0.95132 0
M  V30 1394 C 126.884 -1.11766 -1.69941 0
M  V30 1395 C 127.239 0.33735 -1.89419 0
M  V30 1396 O 126.532 1.24491 -1.45645 0
M  V30 1397 C 126.726 -1.80909 -3.08231 0
M  V30 1398 C 126.555 -3.32984 -3.02245 0
M  V30 1399 C 125.325 -4.02247 -3.05819 0
M  V30 1400 C 127.523 -4.29332 -2.83157 0
M  V30 1401 N 125.505 -5.41072 -2.90024 0
M  V30 1402 C 126.876 -5.55265 -2.75828 0
M  V30 1403 C 128.931 -4.19707 -2.67863 0
M  V30 1404 C 127.634 -6.72671 -2.54767 0
M  V30 1405 C 129.66 -5.36809 -2.48173 0
M  V30 1406 C 129.022 -6.61683 -2.41567 0
M  V30 1407 H 125.121 -0.463708 -0.629682 0
M  V30 1408 H 127.705 -1.58796 -1.12659 0
M  V30 1409 H 125.876 -1.36369 -3.63673 0
M  V30 1410 H 127.608 -1.59739 -3.71841 0
M  V30 1411 H 124.363 -3.53531 -3.15139 0
M  V30 1412 H 124.787 -6.13938 -2.85323 0
M  V30 1413 H 129.429 -3.23907 -2.71743 0
M  V30 1414 H 127.147 -7.68577 -2.49629 0
M  V30 1415 H 130.733 -5.31224 -2.37259 0
M  V30 1416 H 129.613 -7.50768 -2.26531 0
M  V30 1417 N 127.117 1.15442 -1.07289 0
M  V30 1418 C 128.394 1.82306 -0.708792 0
M  V30 1419 C 128.774 1.94991 0.808807 0
M  V30 1420 O 128.122 1.50085 1.72298 0
M  V30 1421 C 128.332 3.18695 -1.42247 0
M  V30 1422 C 129.68 3.94341 -1.57417 0
M  V30 1423 O 130.704 3.28247 -1.38319 0
M  V30 1424 O 129.563 5.12839 -1.88834 0
M  V30 1425 H 126.657 0.787628 -0.252132 0
M  V30 1426 H 129.203 1.22559 -1.17377 0
M  V30 1427 H 127.975 3.04557 -2.45684 0
M  V30 1428 H 127.598 3.86128 -0.948223 0
M  V30 1429 N 128.595 0.856903 1.32268 0
M  V30 1430 C 129.872 0.382583 1.91822 0
M  V30 1431 C 130.252 -1.13407 1.78051 0
M  V30 1432 O 129.6 -1.95673 1.18001 0
M  V30 1433 C 129.81 0.849446 3.38505 0
M  V30 1434 C 131.158 0.867936 4.15634 0
M  V30 1435 O 132.182 0.794232 3.47232 0
M  V30 1436 O 131.041 0.972286 5.37781 0
M  V30 1437 H 128.135 0.112014 0.819379 0
M  V30 1438 H 130.681 0.943952 1.41024 0
M  V30 1439 H 129.453 1.89267 3.42482 0
M  V30 1440 H 129.076 0.265652 3.96712 0
M  V30 1441 N 130.073 -1.45103 0.615059 0
M  V30 1442 C 131.489 -1.57137 0.279322 0
M  V30 1443 C 131.689 -1.60523 -1.21797 0
M  V30 1444 O 130.745 -1.53956 -2.00134 0
M  V30 1445 C 132.058 -2.85062 0.957083 0
M  V30 1446 C 133.606 -2.98749 0.933706 0
M  V30 1447 C 134.081 -4.29455 1.59162 0
M  V30 1448 N 135.572 -4.36231 1.55746 0
M  V30 1449 C 136.307 -5.36051 2.0356 0
M  V30 1450 N 135.803 -6.42367 2.59494 0
M  V30 1451 N 137.596 -5.27456 1.94284 0
M  V30 1452 H 129.747 -1.41148 1.58717 0
M  V30 1453 H 132.01 -0.675331 0.665306 0
M  V30 1454 H 131.716 -2.88488 2.01166 0
M  V30 1455 H 131.59 -3.7407 0.48494 0
M  V30 1456 H 133.977 -2.94886 -0.112347 0
M  V30 1457 H 134.058 -2.11132 1.44419 0
M  V30 1458 H 133.702 -4.34077 2.63704 0
M  V30 1459 H 133.632 -5.15901 1.0561 0
M  V30 1460 H 136.123 -3.60011 1.14893 0
M  V30 1461 H 136.436 -7.14793 2.93752 0
M  V30 1462 H 134.781 -6.43097 2.63537 0
M  V30 1463 H 137.972 -4.43308 1.5032 0
M  V30 1464 H 138.145 -6.05099 2.3186 0
M  V30 1465 N 131.551 -0.354651 -1.53558 0
M  V30 1466 C 132.483 0.5315 -2.22952 0
M  V30 1467 C 133.496 1.05503 -1.23988 0
M  V30 1468 O 134.685 0.963279 -1.50277 0
M  V30 1469 C 131.785 1.74538 -2.90499 0
M  V30 1470 C 130.958 1.35524 -4.15875 0
M  V30 1471 C 130.017 2.42999 -4.66731 0
M  V30 1472 O 129.043 2.05844 -5.30676 0
M  V30 1473 N 130.245 3.74423 -4.43608 0
M  V30 1474 H 133.01 -0.0628615 -2.99634 0
M  V30 1475 H 130.571 -0.179302 -1.60904 0
M  V30 1476 H 132.563 2.45892 -3.21433 0
M  V30 1477 H 131.133 2.24686 -2.17336 0
M  V30 1478 H 130.353 0.471998 -3.91364 0
M  V30 1479 H 131.641 1.07071 -4.97406 0
M  V30 1480 H 131.039 4.07391 -3.92491 0
M  V30 1481 H 129.596 4.41913 -4.7912 0
M  V30 1482 N 133.029 1.57378 -0.0835403 0
M  V30 1483 C 133.962 2.09016 0.915833 0
M  V30 1484 C 134.94 0.997993 1.2837 0
M  V30 1485 O 136.124 1.27219 1.39096 0
M  V30 1486 C 133.251 2.55757 2.22049 0
M  V30 1487 C 132.297 3.76522 2.00333 0
M  V30 1488 S 133.13 5.20661 1.25191 0
M  V30 1489 C 134.286 5.70743 2.56912 0
M  V30 1490 H 134.519 2.93457 0.476492 0
M  V30 1491 H 132.052 1.53856 0.129493 0
M  V30 1492 H 134.01 2.83346 2.97027 0
M  V30 1493 H 132.671 1.71564 2.63106 0
M  V30 1494 H 131.864 4.07256 2.96916 0
M  V30 1495 H 131.466 3.49367 1.33488 0
M  V30 1496 H 133.758 5.78304 3.52946 0
M  V30 1497 H 134.701 6.6944 2.30772 0
M  V30 1498 H 135.109 4.98616 2.64655 0
M  V30 1499 N 134.507 -0.190092 1.56449 0
M  V30 1500 C 135.923 -0.54113 1.50146 0
M  V30 1501 C 136.123 -1.85603 0.784465 0
M  V30 1502 O 135.179 -2.5024 0.337051 0
M  V30 1503 C 136.492 -0.591241 2.9483 0
M  V30 1504 C 138.04 -0.679732 3.0553 0
M  V30 1505 C 138.515 -0.760908 4.51635 0
M  V30 1506 N 140.006 -0.824302 4.55806 0
M  V30 1507 C 140.741 -0.907365 5.66175 0
M  V30 1508 N 140.237 -0.952422 6.86222 0
M  V30 1509 N 142.03 -0.94494 5.541 0
M  V30 1510 H 134.181 0.67235 2.01478 0
M  V30 1511 H 136.444 0.240127 0.917084 0
M  V30 1512 H 136.15 0.305905 3.50367 0
M  V30 1513 H 136.024 -1.44422 3.48457 0
M  V30 1514 H 138.411 -1.56731 2.50039 0
M  V30 1515 H 138.492 0.199549 2.5502 0
M  V30 1516 H 138.136 0.122336 5.07753 0
M  V30 1517 H 138.066 -1.65606 4.99882 0
M  V30 1518 H 140.557 -0.798526 3.69367 0
M  V30 1519 H 140.87 -1.01645 7.66086 0
M  V30 1520 H 139.215 -0.921014 6.8887 0
M  V30 1521 H 142.406 -0.906612 4.59236 0
M  V30 1522 H 142.579 -1.00622 6.4014 0
M  V30 1523 N 135.985 -1.50799 -0.457987 0
M  V30 1524 C 136.895 -1.73426 -1.57989 0
M  V30 1525 C 137.911 -0.617745 -1.62665 0
M  V30 1526 O 139.087 -0.897614 -1.80291 0
M  V30 1527 C 136.152 -1.83557 -2.94122 0
M  V30 1528 C 135.213 -3.07345 -2.99729 0
M  V30 1529 C 134.446 -3.16983 -4.29368 0
M  V30 1530 O 134.669 -2.33077 -5.20607 0
M  V30 1531 O 133.603 -4.09812 -4.40837 0
M  V30 1532 H 137.429 -2.68555 -1.41817 0
M  V30 1533 H 135.014 -1.35052 -0.638859 0
M  V30 1534 H 136.896 -1.92326 -3.74952 0
M  V30 1535 H 135.571 -0.916137 -3.10465 0
M  V30 1536 H 134.478 -3.04068 -2.1793 0
M  V30 1537 H 135.811 -3.9891 -2.88326 0
M  V30 1538 N 137.463 0.71206 -1.40597 0
M  V30 1539 C 138.712 1.46754 -1.38369 0
M  V30 1540 C 139.025 1.95598 0.0097839 0
M  V30 1541 O 140.231 2.71059 0.154677 0
M  V30 1542 C 138.687 2.65289 -2.43207 0
M  V30 1543 C 138.295 2.23301 -3.88382 0
M  V30 1544 C 140.039 3.43008 -2.50091 0
M  V30 1545 C 137.946 3.38696 -4.84808 0
M  V30 1546 H 136.876 0.55118 -0.514506 0
M  V30 1547 H 139.527 0.774616 -1.66349 0
M  V30 1548 H 137.909 3.36769 -2.08332 0
M  V30 1549 H 139.083 1.59218 -4.32419 0
M  V30 1550 H 137.398 1.58618 -3.85006 0
M  V30 1551 H 139.995 4.28881 -3.1932 0
M  V30 1552 H 140.338 3.87065 -1.53253 0
M  V30 1553 H 140.871 2.78574 -2.83974 0
M  V30 1554 H 137.61 2.99668 -5.82992 0
M  V30 1555 H 137.13 4.01683 -4.45433 0
M  V30 1556 H 138.809 4.04712 -5.04794 0
M  V30 1557 N 138.941 1.26152 0.944643 0
M  V30 1558 C 139.904 1.07474 2.0244 0
M  V30 1559 C 140.904 0.0242064 1.60782 0
M  V30 1560 O 142.094 0.267302 1.72137 0
M  V30 1561 C 139.226 0.633956 3.34953 0
M  V30 1562 H 140.419 2.03336 2.20442 0
M  V30 1563 H 137.972 1.087 1.12312 0
M  V30 1564 H 138.707 -0.326811 3.22649 0
M  V30 1565 H 138.492 1.39247 3.66542 0
M  V30 1566 H 139.982 0.52501 4.14287 0
M  V30 1567 N 140.419 -1.14872 1.07899 0
M  V30 1568 C 141.366 -2.19791 0.704319 0
M  V30 1569 C 142.336 -1.63238 -0.306987 0
M  V30 1570 O 143.521 -1.8983 -0.192171 0
M  V30 1571 C 140.661 -3.44911 0.114244 0
M  V30 1572 C 139.774 -4.15637 1.1777 0
M  V30 1573 C 138.909 -5.28324 0.552037 0
M  V30 1574 C 137.948 -5.90875 1.59789 0
M  V30 1575 N 137.085 -6.95022 0.994404 0
M  V30 1576 H 141.925 -2.5119 1.60336 0
M  V30 1577 H 139.462 -1.23356 0.801352 0
M  V30 1578 H 141.42 -4.16477 -0.245544 0
M  V30 1579 H 140.05 -3.14011 -0.74813 0
M  V30 1580 H 139.102 -3.42512 1.65499 0
M  V30 1581 H 140.414 -4.5823 1.97046 0
M  V30 1582 H 139.568 -6.06538 0.1402 0
M  V30 1583 H 138.307 -4.86939 -0.272431 0
M  V30 1584 H 137.312 -5.11369 2.01945 0
M  V30 1585 H 138.537 -6.34337 2.42474 0
M  V30 1586 H 136.483 -6.55722 0.190939 0
M  V30 1587 H 136.4 -7.36073 1.72432 0
M  V30 1588 H 137.668 -7.77123 0.608253 0
M  V30 1589 N 141.898 -0.863906 -1.31812 0
M  V30 1590 C 142.828 -0.330843 -2.31144 0
M  V30 1591 C 143.809 0.575005 -1.60087 0
M  V30 1592 O 144.994 0.493304 -1.8783 0
M  V30 1593 C 142.124 0.47374 -3.44054 0
M  V30 1594 C 141.078 -0.338481 -4.26659 0
M  V30 1595 C 140.404 0.591412 -5.31419 0
M  V30 1596 C 141.704 -1.56926 -4.98168 0
M  V30 1597 H 143.398 -1.16086 -2.75979 0
M  V30 1598 H 140.944 -0.559657 -1.32679 0
M  V30 1599 H 142.897 0.857143 -4.12591 0
M  V30 1600 H 141.621 1.33721 -2.9797 0
M  V30 1601 H 140.28 -0.703754 -3.59782 0
M  V30 1602 H 139.928 1.45199 -4.81587 0
M  V30 1603 H 139.628 0.0519022 -5.87577 0
M  V30 1604 H 141.152 0.97179 -6.02817 0
M  V30 1605 H 142.566 -1.25764 -5.59336 0
M  V30 1606 H 140.963 -2.04739 -5.64094 0
M  V30 1607 H 142.033 -2.32544 -4.25501 0
M  V30 1608 N 143.376 1.44774 -0.622745 0
M  V30 1609 C 144.604 2.06487 -0.130722 0
M  V30 1610 C 145.019 1.46476 1.19123 0
M  V30 1611 O 144.376 0.584502 1.72887 0
M  V30 1612 C 144.427 3.615 -0.000807207 0
M  V30 1613 O 144.148 4.19274 -1.27048 0
M  V30 1614 C 145.649 4.40229 0.520898 0
M  V30 1615 H 142.869 0.666704 -0.0758106 0
M  V30 1616 H 145.413 1.85779 -0.854774 0
M  V30 1617 H 143.568 3.81498 0.673643 0
M  V30 1618 H 143.982 5.12622 -1.1099 0
M  V30 1619 H 145.456 5.49144 0.560838 0
M  V30 1620 H 145.933 4.1108 1.54627 0
M  V30 1621 H 146.539 4.25131 -0.120018 0
M  V30 1622 N 144.854 0.36279 1.53368 0
M  V30 1623 C 146.101 -0.227776 2.01215 0
M  V30 1624 C 146.429 -1.49003 1.25014 0
M  V30 1625 O 145.684 -1.92876 0.331236 0
M  V30 1626 C 145.983 -0.568417 3.52851 0
M  V30 1627 C 145.649 0.59918 4.46901 0
M  V30 1628 C 144.311 0.919559 4.72332 0
M  V30 1629 C 146.663 1.38156 5.02556 0
M  V30 1630 C 143.991 2.02434 5.5067 0
M  V30 1631 C 146.343 2.47674 5.821 0
M  V30 1632 C 145.007 2.8025 6.05819 0
M  V30 1633 H 144.277 -0.083349 0.736297 0
M  V30 1634 H 146.924 0.494677 1.85001 0
M  V30 1635 H 145.229 -1.37185 3.66998 0
M  V30 1636 H 146.926 -1.03756 3.87344 0
M  V30 1637 H 143.516 0.339437 4.27254 0
M  V30 1638 H 147.7 1.14729 4.82857 0
M  V30 1639 H 142.956 2.28075 5.67267 0
M  V30 1640 H 147.13 3.08716 6.24234 0
M  V30 1641 H 144.757 3.65979 6.66306 0
M  V30 1642 N 146.332 -1.57332 0.0918853 0
M  V30 1643 C 147.557 -1.98995 -0.584442 0
M  V30 1644 C 147.982 -0.970528 -1.61128 0
M  V30 1645 O 147.34 0.0613904 -1.81196 0
M  V30 1646 C 147.388 -3.39636 -1.21161 0
M  V30 1647 O 146.492 -3.40447 -2.32744 0
M  V30 1648 H 145.833 -0.647165 -0.148572 0
M  V30 1649 H 148.363 -2.03873 0.172347 0
M  V30 1650 H 148.373 -3.7726 -1.55367 0
M  V30 1651 H 147.048 -4.13356 -0.459313 0
M  V30 1652 H 145.625 -3.14614 -2.0018 0
M  V30 1653 N 147.81 0.181792 -1.56548 0
M  V30 1654 C 149.035 0.920019 -1.85877 0
M  V30 1655 C 149.46 1.75494 -0.677021 0
M  V30 1656 O 148.818 1.77399 0.374056 0
M  V30 1657 C 148.866 1.78112 -3.13542 0
M  V30 1658 O 147.97 2.88152 -2.95029 0
M  V30 1659 H 147.311 0.258334 -0.611686 0
M  V30 1660 H 149.841 0.183092 -2.03779 0
M  V30 1661 H 149.851 2.18314 -3.44678 0
M  V30 1662 H 148.526 1.16777 -3.99169 0
M  V30 1663 H 147.103 2.51609 -2.75222 0
M  V30 1664 N 149.288 1.51039 0.449983 0
M  V30 1665 C 150.236 1.71995 1.5659 0
M  V30 1666 C 151.23 0.586029 1.5894 0
M  V30 1667 O 152.436 0.76709 1.62837 0
M  V30 1668 H 148.811 0.543233 0.520001 0
M  V30 1669 H 150.782 2.65562 1.36085 0
M  V30 1670 C 149.531 1.8506 2.9436 0
M  V30 1671 H 148.854 2.71712 2.93279 0
M  V30 1672 H 150.294 2.0374 3.71842 0
M  V30 1673 C 148.753 0.607277 3.31382 0
M  V30 1674 O 149.283 -0.243903 4.00959 0
M  V30 1675 N 147.489 0.455073 2.87015 0
M  V30 1676 H 147.036 1.14879 2.30566 0
M  V30 1677 H 146.994 -0.375611 3.12148 0
M  V30 1678 N 150.766 -0.704594 1.40972 0
M  V30 1679 C 152.015 -1.46018 1.39146 0
M  V30 1680 C 152.328 -1.956 0.000589254 0
M  V30 1681 O 153.534 -2.71137 -0.1403 0
M  V30 1682 C 151.99 -2.63996 2.4461 0
M  V30 1683 C 151.598 -2.21238 3.89561 0
M  V30 1684 C 153.342 -3.41677 2.51907 0
M  V30 1685 C 151.249 -3.3612 4.86598 0
M  V30 1686 H 150.179 -0.548444 0.517422 0
M  V30 1687 H 152.83 -0.765784 1.66757 0
M  V30 1688 H 151.212 -3.3566 2.10115 0
M  V30 1689 H 152.386 -1.56923 4.33257 0
M  V30 1690 H 150.701 -1.56574 3.85841 0
M  V30 1691 H 153.298 -4.27182 3.2159 0
M  V30 1692 H 153.641 -3.86247 1.55303 0
M  V30 1693 H 154.174 -2.77064 2.85448 0
M  V30 1694 H 150.913 -2.96572 5.84573 0
M  V30 1695 H 150.433 -3.99315 4.47557 0
M  V30 1696 H 152.112 -4.02029 5.06934 0
M  V30 1697 N 152.244 -1.26651 -0.937939 0
M  V30 1698 C 153.493 -1.11775 -1.67897 0
M  V30 1699 C 153.806 0.33794 -1.92659 0
M  V30 1700 O 155.012 0.607434 -2.64618 0
M  V30 1701 C 153.468 -1.9523 -3.02346 0
M  V30 1702 C 153.076 -3.45393 -2.8532 0
M  V30 1703 C 154.82 -1.88972 -3.80118 0
M  V30 1704 C 152.727 -4.21083 -4.15263 0
M  V30 1705 H 151.657 -0.414696 -0.629717 0
M  V30 1706 H 154.308 -1.50988 -1.04283 0
M  V30 1707 H 152.69 -1.48853 -3.66959 0
M  V30 1708 H 153.864 -3.99561 -2.29537 0
M  V30 1709 H 152.179 -3.52921 -2.20988 0
M  V30 1710 H 154.776 -2.42805 -4.76392 0
M  V30 1711 H 155.119 -0.86113 -4.07296 0
M  V30 1712 H 155.652 -2.33189 -3.22285 0
M  V30 1713 H 152.391 -5.24425 -3.93267 0
M  V30 1714 H 151.911 -3.71695 -4.70747 0
M  V30 1715 H 153.59 -4.29706 -4.83696 0
M  V30 1716 N 153.722 1.14298 -1.08507 0
M  V30 1717 C 154.97 1.84993 -0.813763 0
M  V30 1718 C 155.291 1.83405 0.662393 0
M  V30 1719 O 154.561 1.28319 1.48024 0
M  V30 1720 H 153.141 0.684966 -0.298045 0
M  V30 1721 H 155.803 1.385 -1.37126 0
M  V30 1722 H 154.899 2.89788 -1.15884 0
M  V30 1723 N 155.201 0.870884 1.31352 0
M  V30 1724 C 156.447 0.482987 1.96965 0
M  V30 1725 C 156.78 -0.962462 1.68672 0
M  V30 1726 O 156.055 -1.6779 0.98371 0
M  V30 1727 C 156.338 0.741752 3.52378 0
M  V30 1728 C 156.191 2.2368 3.9024 0
M  V30 1729 C 157.51 0.208838 4.39604 0
M  V30 1730 H 154.629 0.176955 0.715441 0
M  V30 1731 H 157.271 1.09229 1.55464 0
M  V30 1732 H 155.421 0.223149 3.87859 0
M  V30 1733 H 157.093 2.82273 3.64856 0
M  V30 1734 H 155.336 2.70901 3.38814 0
M  V30 1735 H 156.007 2.3685 4.98604 0
M  V30 1736 H 158.483 0.652529 4.10952 0
M  V30 1737 H 157.359 0.419336 5.47296 0
M  V30 1738 H 157.62 -0.889275 4.33064 0
M  V30 1739 N 156.679 -1.44442 0.630414 0
M  V30 1740 C 158.095 -1.56832 0.295973 0
M  V30 1741 C 158.295 -1.61806 -1.20088 0
M  V30 1742 O 157.351 -1.5607 -1.9849 0
M  V30 1743 C 158.664 -2.84031 0.987264 0
M  V30 1744 C 160.212 -2.97742 0.96534 0
M  V30 1745 C 160.687 -4.27743 1.63708 0
M  V30 1746 N 162.178 -4.34555 1.60364 0
M  V30 1747 C 162.913 -5.33862 2.09234 0
M  V30 1748 N 162.409 -6.39578 2.66292 0
M  V30 1749 N 164.202 -5.25366 1.99867 0
M  V30 1750 H 156.353 -1.39457 1.60205 0
M  V30 1751 H 158.616 -0.668237 0.672431 0
M  V30 1752 H 158.322 -2.86338 2.04215 0
M  V30 1753 H 158.196 -3.73534 0.524588 0
M  V30 1754 H 160.583 -2.94989 -0.0810639 0
M  V30 1755 H 160.664 -2.09589 1.4665 0
M  V30 1756 H 160.308 -4.31255 2.68293 0
M  V30 1757 H 160.238 -5.14752 1.11076 0
M  V30 1758 H 162.729 -3.58772 1.18705 0
M  V30 1759 H 163.042 -7.11637 3.01317 0
M  V30 1760 H 161.387 -6.40265 2.70343 0
M  V30 1761 H 164.578 -4.41688 1.55013 0
M  V30 1762 H 164.751 -6.02606 2.38265 0
M  V30 1763 N 158.157 -0.370918 -1.53173 0
M  V30 1764 C 159.087 0.464847 -2.28826 0
M  V30 1765 C 160.068 1.07936 -1.31468 0
M  V30 1766 O 161.253 1.0956 -1.60344 0
M  V30 1767 C 158.383 1.60196 -3.08147 0
M  V30 1768 C 157.337 1.11443 -4.13237 0
M  V30 1769 C 156.663 2.3422 -4.80672 0
M  V30 1770 C 157.963 0.195384 -5.21934 0
M  V30 1771 H 159.657 -0.166329 -2.98938 0
M  V30 1772 H 157.203 -0.0814359 -1.4377 0
M  V30 1773 H 159.156 2.19332 -3.59822 0
M  V30 1774 H 157.88 2.26045 -2.35735 0
M  V30 1775 H 156.539 0.545727 -3.62515 0
M  V30 1776 H 156.187 2.98537 -4.04827 0
M  V30 1777 H 155.887 2.02269 -5.51689 0
M  V30 1778 H 157.411 2.94032 -5.35143 0
M  V30 1779 H 158.825 0.694375 -5.69079 0
M  V30 1780 H 157.222 -0.0335027 -6.00091 0
M  V30 1781 H 158.292 -0.760961 -4.78892 0
M  V30 1782 N 159.635 1.57281 -0.100228 0
M  V30 1783 C 160.565 2.17328 0.853857 0
M  V30 1784 C 161.546 1.10804 1.2906 0
M  V30 1785 O 162.731 1.38963 1.35657 0
M  V30 1786 C 159.861 2.75772 2.11109 0
M  V30 1787 C 158.815 3.87713 1.81279 0
M  V30 1788 C 158.141 4.32882 3.13874 0
M  V30 1789 C 159.441 5.10677 1.09574 0
M  V30 1790 H 161.135 2.97305 0.353545 0
M  V30 1791 H 158.681 1.43009 0.168612 0
M  V30 1792 H 160.634 3.16433 2.78296 0
M  V30 1793 H 159.358 1.93057 2.63432 0
M  V30 1794 H 158.017 3.476 1.16489 0
M  V30 1795 H 157.665 3.47051 3.64095 0
M  V30 1796 H 157.365 5.08358 2.94696 0
M  V30 1797 H 158.889 4.7618 3.82211 0
M  V30 1798 H 160.303 5.48474 1.66879 0
M  V30 1799 H 158.7 5.91615 1.00557 0
M  V30 1800 H 159.77 4.84835 0.0793299 0
M  V30 1801 N 161.113 -0.173488 1.56642 0
M  V30 1802 C 162.529 -0.525174 1.50712 0
M  V30 1803 C 162.729 -1.8476 0.804107 0
M  V30 1804 O 161.785 -2.49869 0.363574 0
M  V30 1805 C 163.098 -0.559937 2.95441 0
M  V30 1806 C 164.646 -0.647288 3.06234 0
M  V30 1807 C 165.121 -0.712963 4.52417 0
M  V30 1808 N 166.612 -0.775911 4.56655 0
M  V30 1809 C 167.347 -0.847264 5.67106 0
M  V30 1810 N 166.843 -0.879585 6.87194 0
M  V30 1811 N 168.636 -0.886117 5.55071 0
M  V30 1812 H 160.787 0.693681 2.00753 0
M  V30 1813 H 163.05 0.249841 0.914485 0
M  V30 1814 H 162.756 0.343049 3.50023 0
M  V30 1815 H 162.63 -1.40718 3.49969 0
M  V30 1816 H 165.017 -1.5407 2.51687 0
M  V30 1817 H 165.098 0.226586 2.54794 0
M  V30 1818 H 164.742 0.176183 5.07594 0
M  V30 1819 H 164.672 -1.60295 5.0161 0
M  V30 1820 H 167.163 -0.759304 3.70193 0
M  V30 1821 H 167.476 -0.935144 7.67121 0
M  V30 1822 H 165.821 -0.847898 6.89808 0
M  V30 1823 H 169.012 -0.857853 4.60172 0
M  V30 1824 H 169.185 -0.938263 6.41171 0
M  V30 1825 N 162.591 -1.51276 -0.441967 0
M  V30 1826 C 163.501 -1.75092 -1.56141 0
M  V30 1827 C 164.517 -0.634963 -1.62001 0
M  V30 1828 O 165.693 -0.916686 -1.79329 0
M  V30 1829 C 162.758 -1.86666 -2.92158 0
M  V30 1830 C 161.819 -3.10506 -2.96453 0
M  V30 1831 C 161.052 -3.21519 -4.25982 0
M  V30 1832 O 161.275 -2.38586 -5.18105 0
M  V30 1833 O 160.209 -4.14465 -4.36466 0
M  V30 1834 H 164.035 -2.70044 -1.38961 0
M  V30 1835 H 161.62 -1.35722 -0.624499 0
M  V30 1836 H 163.502 -1.96292 -3.72891 0
M  V30 1837 H 162.177 -0.949014 -3.09476 0
M  V30 1838 H 161.084 -3.06363 -2.14692 0
M  V30 1839 H 162.417 -4.01945 -2.84079 0
M  V30 1840 N 164.069 0.697108 -1.41344 0
M  V30 1841 C 165.318 1.45279 -1.39918 0
M  V30 1842 C 165.631 1.95597 -0.0109624 0
M  V30 1843 O 166.837 2.71208 0.125919 0
M  V30 1844 C 165.293 2.62695 -2.46007 0
M  V30 1845 C 164.901 2.19169 -3.90729 0
M  V30 1846 C 166.645 3.40336 -2.53715 0
M  V30 1847 C 164.552 3.33535 -4.88373 0
M  V30 1848 H 163.482 0.545692 -0.520323 0
M  V30 1849 H 166.133 0.756929 -1.67161 0
M  V30 1850 H 164.515 3.34541 -2.11892 0
M  V30 1851 H 165.689 1.54623 -4.34083 0
M  V30 1852 H 164.004 1.54525 -3.86666 0
M  V30 1853 H 166.601 4.2547 -3.2385 0
M  V30 1854 H 166.944 3.85418 -1.5735 0
M  V30 1855 H 167.477 2.75546 -2.86913 0
M  V30 1856 H 164.216 2.93468 -5.86137 0
M  V30 1857 H 163.736 3.96936 -4.49668 0
M  V30 1858 H 165.415 3.99335 -5.09059 0
M  V30 1859 N 165.547 1.27147 0.931209 0
M  V30 1860 C 166.796 1.12664 1.67302 0
M  V30 1861 C 167.109 -0.327718 1.92835 0
M  V30 1862 O 168.315 -0.593392 2.64936 0
M  V30 1863 C 166.771 1.9683 3.01307 0
M  V30 1864 C 166.379 3.46901 2.83485 0
M  V30 1865 C 168.123 1.90985 3.79111 0
M  V30 1866 C 166.03 4.23279 4.13024 0
M  V30 1867 H 164.96 0.41803 0.627509 0
M  V30 1868 H 167.611 1.51539 1.03481 0
M  V30 1869 H 165.993 1.50797 3.66164 0
M  V30 1870 H 167.167 4.00773 2.27415 0
M  V30 1871 H 165.482 3.54088 2.19113 0
M  V30 1872 H 168.079 2.45328 4.75098 0
M  V30 1873 H 168.422 0.882718 4.06834 0
M  V30 1874 H 168.955 2.34895 3.21044 0
M  V30 1875 H 165.694 5.26503 3.90481 0
M  V30 1876 H 165.214 3.74186 4.6877 0
M  V30 1877 H 166.893 4.32265 4.81411 0
M  V30 1878 N 167.025 -1.13721 1.09112 0
M  V30 1879 C 168.271 -1.85198 0.826414 0
M  V30 1880 C 168.604 -1.83129 -0.646319 0
M  V30 1881 O 167.879 -1.2671 -1.47563 0
M  V30 1882 C 168.162 -3.33507 1.35812 0
M  V30 1883 C 168.015 -3.44108 2.89672 0
M  V30 1884 C 169.334 -4.28838 0.989256 0
M  V30 1885 H 166.453 -0.67243 0.301675 0
M  V30 1886 H 169.095 -1.33499 1.35197 0
M  V30 1887 H 167.245 -3.77666 0.911082 0
M  V30 1888 H 168.917 -3.08684 3.428 0
M  V30 1889 H 167.16 -2.85087 3.26967 0
M  V30 1890 H 167.831 -4.48388 3.21951 0
M  V30 1891 H 170.307 -3.92734 1.37475 0
M  V30 1892 H 169.183 -5.31051 1.38838 0
M  V30 1893 H 169.444 -4.4198 -0.102924 0
M  V30 1894 N 168.503 -0.877838 -1.30888 0
M  V30 1895 C 169.749 -0.493426 -1.96706 0
M  V30 1896 C 170.082 0.953504 -1.6918 0
M  V30 1897 O 169.357 1.67266 -0.992594 0
M  V30 1898 C 169.64 -0.760429 -3.51979 0
M  V30 1899 C 169.493 -2.25747 -3.89048 0
M  V30 1900 C 170.812 -0.232148 -4.39487 0
M  V30 1901 H 167.931 -0.180746 -0.714493 0
M  V30 1902 H 170.573 -1.10052 -1.54882 0
M  V30 1903 H 168.723 -0.243715 -3.87735 0
M  V30 1904 H 170.395 -2.84204 -3.63354 0
M  V30 1905 H 168.638 -2.72694 -3.37373 0
M  V30 1906 H 169.309 -2.39491 -4.97341 0
M  V30 1907 H 171.785 -0.674314 -4.106 0
M  V30 1908 H 170.661 -0.448355 -5.47066 0
M  V30 1909 H 170.922 0.866297 -4.33529 0
M  V30 1910 N 169.982 1.44106 -0.638065 0
M  V30 1911 C 171.231 2.01194 -0.142744 0
M  V30 1912 C 171.544 1.50835 1.24532 0
M  V30 1913 O 172.75 2.00096 1.83504 0
M  V30 1914 C 171.206 3.59319 -0.20442 0
M  V30 1915 C 170.814 4.18674 -1.59423 0
M  V30 1916 C 172.558 4.23854 0.234079 0
M  V30 1917 C 170.465 5.69045 -1.61065 0
M  V30 1918 H 169.395 0.752367 -0.0495998 0
M  V30 1919 H 172.046 1.65246 -0.797881 0
M  V30 1920 H 170.428 3.92598 0.517946 0
M  V30 1921 H 171.602 3.96921 -2.34074 0
M  V30 1922 H 169.917 3.66453 -1.97741 0
M  V30 1923 H 172.514 5.34155 0.241443 0
M  V30 1924 H 172.857 3.96688 1.2627 0
M  V30 1925 H 173.39 3.95403 -0.436025 0
M  V30 1926 H 170.129 6.00956 -2.61787 0
M  V30 1927 H 169.649 5.929 -0.90718 0
M  V30 1928 H 171.328 6.32809 -1.34766 0
M  V30 1929 N 171.46 0.379036 1.52974 0
M  V30 1930 C 172.39 -0.452706 2.29069 0
M  V30 1931 C 173.371 -1.07237 1.32039 0
M  V30 1932 O 174.556 -1.08708 1.60923 0
M  V30 1933 C 171.686 -1.5856 3.08992 0
M  V30 1934 C 170.64 -1.0925 4.13822 0
M  V30 1935 C 169.966 -2.31668 4.81907 0
M  V30 1936 C 171.266 -0.167702 5.22031 0
M  V30 1937 H 172.96 0.182181 2.98845 0
M  V30 1938 H 170.506 0.0890592 1.43724 0
M  V30 1939 H 172.459 -2.1742 3.6098 0
M  V30 1940 H 171.183 -2.24792 2.36931 0
M  V30 1941 H 169.842 -0.526494 3.628 0
M  V30 1942 H 169.49 -2.96386 4.06404 0
M  V30 1943 H 169.19 -1.9934 5.52754 0
M  V30 1944 H 170.714 -2.91189 5.36695 0
M  V30 1945 H 172.128 -0.664186 5.6944 0
M  V30 1946 H 170.525 0.0653265 6.00064 0
M  V30 1947 H 171.595 0.786347 4.78482 0
M  V30 1948 N 172.938 -1.57226 0.108567 0
M  V30 1949 C 173.848 -2.18292 -0.859401 0
M  V30 1950 C 174.864 -1.15612 -1.30038 0
M  V30 1951 O 176.04 -1.48039 -1.36552 0
M  V30 1952 C 173.105 -2.762 -2.09558 0
M  V30 1953 C 172.166 -3.93881 -1.70752 0
M  V30 1954 C 171.399 -4.49018 -2.88477 0
M  V30 1955 O 171.622 -4.03068 -4.036 0
M  V30 1956 O 170.556 -5.39852 -2.66164 0
M  V30 1957 H 174.382 -3.01441 -0.369769 0
M  V30 1958 H 171.967 -1.48945 -0.1165 0
M  V30 1959 H 173.849 -3.13156 -2.81978 0
M  V30 1960 H 172.524 -1.96089 -2.57548 0
M  V30 1961 H 171.431 -3.61713 -0.954714 0
M  V30 1962 H 172.764 -4.75396 -1.27513 0
M  V30 1963 N 174.416 0.165178 -1.56732 0
M  V30 1964 C 175.646 0.894919 -1.86212 0
M  V30 1965 C 176.054 1.76066 -0.692627 0
M  V30 1966 O 175.397 1.80387 0.347303 0
M  V30 1967 C 175.459 1.8174 -3.10179 0
M  V30 1968 C 175.123 1.13064 -4.42793 0
M  V30 1969 C 176.12 0.493169 -5.17556 0
M  V30 1970 C 173.805 1.12556 -4.89527 0
M  V30 1971 C 175.799 -0.140209 -6.37246 0
M  V30 1972 C 173.486 0.488366 -6.09145 0
M  V30 1973 C 174.484 -0.143411 -6.82849 0
M  V30 1974 O 174.172 -0.77055 -8.00199 0
M  V30 1975 H 173.904 0.265114 -0.621844 0
M  V30 1976 H 176.458 0.168242 -2.0471 0
M  V30 1977 H 174.688 2.58455 -2.87642 0
M  V30 1978 H 176.377 2.4175 -3.26055 0
M  V30 1979 H 177.143 0.489023 -4.82528 0
M  V30 1980 H 173.022 1.60672 -4.32094 0
M  V30 1981 H 176.566 -0.633932 -6.94714 0
M  V30 1982 H 172.463 0.490116 -6.43637 0
M  V30 1983 H 173.231 -0.670408 -8.1575 0
M  V30 1984 N 175.894 1.51508 0.433938 0
M  V30 1985 C 176.841 1.73068 1.52696 0
M  V30 1986 C 177.811 0.572441 1.55924 0
M  V30 1987 O 178.996 0.807253 1.72882 0
M  V30 1988 C 176.136 1.86474 2.90381 0
M  V30 1989 C 175.249 3.14037 2.96656 0
M  V30 1990 C 174.384 3.18019 4.25485 0
M  V30 1991 C 173.423 4.39882 4.2564 0
M  V30 1992 N 172.56 4.41394 5.45999 0
M  V30 1993 H 177.4 2.66366 1.33615 0
M  V30 1994 H 174.937 1.32008 0.649018 0
M  V30 1995 H 176.895 1.92229 3.70275 0
M  V30 1996 H 175.525 0.965809 3.08013 0
M  V30 1997 H 174.577 3.17575 2.09404 0
M  V30 1998 H 175.889 4.0394 2.92633 0
M  V30 1999 H 175.043 3.22708 5.13755 0
M  V30 2000 H 173.782 2.2601 4.3217 0
M  V30 2001 H 172.787 4.35366 3.35763 0
M  V30 2002 H 174.012 5.33159 4.20617 0
M  V30 2003 H 171.958 3.52258 5.53399 0
M  V30 2004 H 171.875 5.25111 5.4387 0
M  V30 2005 H 173.143 4.50281 6.36292 0
M  V30 2006 N 177.372 -0.689602 1.41712 0
M  V30 2007 C 178.302 -1.81577 1.46806 0
M  V30 2008 C 179.283 -1.66945 0.326105 0
M  V30 2009 O 180.468 -1.86588 0.538377 0
M  V30 2010 C 177.598 -3.19762 1.35535 0
M  V30 2011 C 176.552 -3.49107 2.47605 0
M  V30 2012 C 175.878 -4.86711 2.21397 0
M  V30 2013 C 177.178 -3.47483 3.89939 0
M  V30 2014 H 178.872 -1.7757 2.41058 0
M  V30 2015 H 176.418 -0.852887 1.16025 0
M  V30 2016 H 178.371 -3.98263 1.3771 0
M  V30 2017 H 177.095 -3.24409 0.377708 0
M  V30 2018 H 175.754 -2.72959 2.44722 0
M  V30 2019 H 175.402 -4.8799 1.21961 0
M  V30 2020 H 175.102 -5.0731 2.96497 0
M  V30 2021 H 176.626 -5.67515 2.25297 0
M  V30 2022 H 178.04 -4.1598 3.94505 0
M  V30 2023 H 176.437 -3.79615 4.64771 0
M  V30 2024 H 177.507 -2.46341 4.17665 0
M  V30 2025 N 178.85 -1.27639 -0.924453 0
M  V30 2026 C 180.09 -1.15407 -1.68703 0
M  V30 2027 C 180.454 0.294581 -1.89727 0
M  V30 2028 O 181.655 0.539385 -2.63333 0
M  V30 2029 C 179.926 -1.9195 -3.0148 0
M  V30 2030 S 181.485 -1.95969 -3.92609 0
M  V30 2031 H 178.303 -0.411937 -0.579507 0
M  V30 2032 H 180.905 -1.61592 -1.10038 0
M  V30 2033 H 179.609 -2.96387 -2.83871 0
M  V30 2034 H 179.14 -1.46272 -3.65196 0
M  V30 2035 H 181.155 -1.05846 -4.84779 0
M  V30 2036 N 180.328 1.1314 -1.09713 0
M  V30 2037 C 181.577 1.83838 -0.829851 0
M  V30 2038 C 181.89 1.84599 0.646728 0
M  V30 2039 O 183.096 2.51218 1.02965 0
M  V30 2040 C 181.552 3.30069 -1.43466 0
M  V30 2041 C 181.16 3.37688 -2.94399 0
M  V30 2042 C 182.904 4.05788 -1.24645 0
M  V30 2043 C 180.811 4.78209 -3.47952 0
M  V30 2044 H 179.741 0.68877 -0.306777 0
M  V30 2045 H 182.392 1.27448 -1.3202 0
M  V30 2046 H 180.774 3.8628 -0.871996 0
M  V30 2047 H 181.948 2.91456 -3.56918 0
M  V30 2048 H 180.263 2.75436 -3.12289 0
M  V30 2049 H 182.86 5.09535 -1.62107 0
M  V30 2050 H 183.203 4.15878 -0.187357 0
M  V30 2051 H 183.736 3.55915 -1.77678 0
M  V30 2052 H 180.475 4.73311 -4.53495 0
M  V30 2053 H 179.995 5.24924 -2.90198 0
M  V30 2054 H 181.674 5.47133 -3.45332 0
M  V30 2055 N 181.806 0.884767 1.30421 0
M  V30 2056 C 183.036 0.517293 2.00019 0
M  V30 2057 C 183.444 -0.898632 1.66497 0
M  V30 2058 O 182.787 -1.60245 0.898181 0
M  V30 2059 C 182.849 0.612025 3.54252 0
M  V30 2060 C 182.513 1.99222 4.1129 0
M  V30 2061 C 183.51 2.9616 4.273 0
M  V30 2062 C 181.195 2.29755 4.46674 0
M  V30 2063 C 183.189 4.21764 4.77906 0
M  V30 2064 C 180.876 3.55606 4.96979 0
M  V30 2065 C 181.874 4.51425 5.12547 0
M  V30 2066 O 181.562 5.75043 5.61766 0
M  V30 2067 H 181.294 0.198529 0.64619 0
M  V30 2068 H 183.848 1.1919 1.67281 0
M  V30 2069 H 182.078 -0.119561 3.86515 0
M  V30 2070 H 183.767 0.255859 4.05093 0
M  V30 2071 H 184.533 2.73882 4.00267 0
M  V30 2072 H 180.412 1.55942 4.33824 0
M  V30 2073 H 183.956 4.96561 4.89972 0
M  V30 2074 H 179.853 3.7772 5.23448 0
M  V30 2075 H 180.621 5.77422 5.80109 0
M  V30 2076 N 183.284 -1.43765 0.645699 0
M  V30 2077 C 184.7 -1.56509 0.312591 0
M  V30 2078 C 184.9 -1.6307 -1.18365 0
M  V30 2079 O 183.956 -1.58167 -1.96824 0
M  V30 2080 C 185.269 -2.82968 1.01733 0
M  V30 2081 C 186.817 -2.96701 0.996865 0
M  V30 2082 C 187.292 -4.25982 1.68236 0
M  V30 2083 N 188.783 -4.32829 1.64964 0
M  V30 2084 C 189.518 -5.31613 2.14885 0
M  V30 2085 N 189.014 -6.36718 2.73061 0
M  V30 2086 N 190.807 -5.23217 2.05428 0
M  V30 2087 H 182.958 -1.3775 1.61675 0
M  V30 2088 H 185.221 -0.661067 0.679481 0
M  V30 2089 H 184.927 -2.84156 2.0724 0
M  V30 2090 H 184.801 -3.72957 0.564177 0
M  V30 2091 H 187.188 -2.95058 -0.0497719 0
M  V30 2092 H 187.269 -2.08022 1.48865 0
M  V30 2093 H 186.913 -4.28386 2.72852 0
M  V30 2094 H 186.843 -5.13545 1.16529 0
M  V30 2095 H 189.334 -3.57493 1.22503 0
M  V30 2096 H 189.647 -7.08401 3.08848 0
M  V30 2097 H 187.992 -6.37362 2.77118 0
M  V30 2098 H 191.183 -4.40019 1.59689 0
M  V30 2099 H 191.356 -6.00045 2.44643 0
M  V30 2100 N 184.763 -0.387143 -1.52771 0
M  V30 2101 C 185.693 0.440551 -2.29306 0
M  V30 2102 C 186.674 1.06535 -1.32606 0
M  V30 2103 O 187.859 1.07853 -1.61497 0
M  V30 2104 C 184.989 1.56919 -3.09829 0
M  V30 2105 C 183.943 1.07054 -4.14395 0
M  V30 2106 C 183.269 2.29109 -4.83129 0
M  V30 2107 C 184.569 0.140015 -5.22112 0
M  V30 2108 H 186.263 -0.198026 -2.98744 0
M  V30 2109 H 183.809 -0.09668 -1.43675 0
M  V30 2110 H 185.762 2.15503 -3.62128 0
M  V30 2111 H 184.486 2.23532 -2.3812 0
M  V30 2112 H 183.145 0.507247 -3.63074 0
M  V30 2113 H 182.793 2.94227 -4.0797 0
M  V30 2114 H 182.493 1.96406 -5.53804 0
M  V30 2115 H 184.017 2.88339 -5.38231 0
M  V30 2116 H 185.431 0.633978 -5.69784 0
M  V30 2117 H 183.828 -0.0971485 -6.00021 0
M  V30 2118 H 184.898 -0.811711 -4.78058 0
M  V30 2119 N 186.241 1.57166 -0.116904 0
M  V30 2120 C 187.188 2.15202 0.83408 0
M  V30 2121 C 188.158 1.07644 1.26499 0
M  V30 2122 O 189.343 1.35541 1.34288 0
M  V30 2123 C 186.483 2.75405 2.07957 0
M  V30 2124 C 185.596 3.97264 1.69721 0
M  V30 2125 C 184.731 4.45561 2.89221 0
M  V30 2126 C 183.77 5.59956 2.47215 0
M  V30 2127 N 182.907 6.03006 3.59622 0
M  V30 2128 H 187.747 2.96141 0.332335 0
M  V30 2129 H 185.284 1.46309 0.152349 0
M  V30 2130 H 187.242 3.08439 2.80929 0
M  V30 2131 H 185.872 1.97159 2.55594 0
M  V30 2132 H 184.924 3.70404 0.866316 0
M  V30 2133 H 186.236 4.80226 1.34849 0
M  V30 2134 H 185.39 4.80493 3.7042 0
M  V30 2135 H 184.129 3.61544 3.27318 0
M  V30 2136 H 183.134 5.2463 1.64448 0
M  V30 2137 H 184.359 6.45738 2.10238 0
M  V30 2138 H 182.305 5.21931 3.97396 0
M  V30 2139 H 182.222 6.80819 3.28667 0
M  V30 2140 H 183.49 6.42576 4.41267 0
M  V30 2141 N 187.719 -0.156864 1.56817 0
M  V30 2142 C 188.996 -0.899244 1.73704 0
M  V30 2143 C 189.376 -1.99771 0.682254 0
M  V30 2144 O 188.724 -2.26515 -0.300522 0
M  V30 2145 C 188.934 -1.45075 3.17418 0
M  V30 2146 C 190.282 -1.91802 3.7881 0
M  V30 2147 O 191.306 -1.54838 3.20786 0
M  V30 2148 O 190.165 -2.5994 4.80722 0
M  V30 2149 H 187.259 -0.424267 0.709878 0
M  V30 2150 H 189.805 -0.143561 1.69092 0
M  V30 2151 H 188.577 -0.660846 3.85679 0
M  V30 2152 H 188.2 -2.27021 3.26416 0
M  V30 2153 N 189.197 -1.51736 -0.425897 0
M  V30 2154 C 190.446 -1.64201 -1.17136 0
M  V30 2155 C 190.759 -0.369705 -1.92074 0
M  V30 2156 O 191.965 -0.373898 -2.68913 0
M  V30 2157 C 190.421 -2.90035 -2.13091 0
M  V30 2158 C 190.029 -4.24312 -1.43747 0
M  V30 2159 C 191.773 -3.1186 -2.87999 0
M  V30 2160 C 189.68 -5.41285 -2.38253 0
M  V30 2161 H 188.61 -0.611624 -0.440944 0
M  V30 2162 H 191.261 -1.78212 -0.437328 0
M  V30 2163 H 189.643 -2.69684 -2.89977 0
M  V30 2164 H 190.817 -4.55086 -0.723408 0
M  V30 2165 H 189.132 -4.08456 -0.809465 0
M  V30 2166 H 191.729 -3.96427 -3.58817 0
M  V30 2167 H 192.072 -2.25403 -3.49999 0
M  V30 2168 H 192.605 -3.32605 -2.18217 0
M  V30 2169 H 189.344 -6.30037 -1.80925 0
M  V30 2170 H 188.864 -5.14872 -3.0768 0
M  V30 2171 H 190.543 -5.73694 -2.99139 0
M  V30 2172 N 190.675 0.682077 -1.42076 0
M  V30 2173 C 191.924 1.43786 -1.41451 0
M  V30 2174 C 192.237 1.95574 -0.0317074 0
M  V30 2175 O 193.443 2.71326 0.0971462 0
M  V30 2176 C 191.899 2.60071 -2.48779 0
M  V30 2177 C 191.507 2.15013 -3.93031 0
M  V30 2178 C 193.251 3.37626 -2.57311 0
M  V30 2179 C 191.158 3.28336 -4.91883 0
M  V30 2180 H 190.088 0.540143 -0.526082 0
M  V30 2181 H 192.739 0.739157 -1.67955 0
M  V30 2182 H 191.121 3.32275 -2.15429 0
M  V30 2183 H 192.295 1.5001 -4.35699 0
M  V30 2184 H 190.61 1.50416 -3.88284 0
M  V30 2185 H 193.207 4.22012 -3.28345 0
M  V30 2186 H 193.55 3.83727 -1.61429 0
M  V30 2187 H 194.083 2.72488 -2.89819 0
M  V30 2188 H 190.822 2.87234 -5.89217 0
M  V30 2189 H 190.342 3.92145 -4.53853 0
M  V30 2190 H 192.021 3.93913 -5.13265 0
M  V30 2191 N 192.153 1.28127 0.917671 0
M  V30 2192 C 193.083 1.14248 2.03641 0
M  V30 2193 C 194.064 0.0412748 1.7005 0
M  V30 2194 O 195.249 0.217566 1.92977 0
M  V30 2195 C 192.379 0.799431 3.37974 0
M  V30 2196 C 191.333 1.85497 3.85713 0
M  V30 2197 C 190.659 1.36565 5.16966 0
M  V30 2198 C 191.959 3.26085 4.08002 0
M  V30 2199 H 193.653 2.07835 2.15511 0
M  V30 2200 H 191.199 1.00064 1.03553 0
M  V30 2201 H 193.152 0.689114 4.15727 0
M  V30 2202 H 191.876 -0.172145 3.26146 0
M  V30 2203 H 190.535 1.95437 3.10161 0
M  V30 2204 H 190.183 0.383253 5.01538 0
M  V30 2205 H 189.883 2.07143 5.49878 0
M  V30 2206 H 191.407 1.26848 5.97279 0
M  V30 2207 H 192.821 3.19089 4.76293 0
M  V30 2208 H 191.218 3.94462 4.52238 0
M  V30 2209 H 192.288 3.70394 3.12948 0
M  V30 2210 N 193.631 -1.12557 1.10312 0
M  V30 2211 C 194.561 -2.20341 0.772798 0
M  V30 2212 C 195.542 -1.68198 -0.25365 0
M  V30 2213 O 196.727 -1.93831 -0.119699 0
M  V30 2214 C 193.857 -3.46709 0.202443 0
M  V30 2215 C 192.811 -4.11996 1.15943 0
M  V30 2216 C 192.137 -5.328 0.450345 0
M  V30 2217 C 193.437 -4.5828 2.50552 0
M  V30 2218 H 195.131 -2.48229 1.674 0
M  V30 2219 H 192.677 -1.19308 0.806326 0
M  V30 2220 H 194.63 -4.2138 -0.0407752 0
M  V30 2221 H 193.354 -3.18245 -0.734001 0
M  V30 2222 H 192.013 -3.39305 1.38808 0
M  V30 2223 H 191.661 -5.00602 -0.490531 0
M  V30 2224 H 191.361 -5.7743 1.08851 0
M  V30 2225 H 192.885 -6.10219 0.215642 0
M  V30 2226 H 194.299 -5.2433 2.31843 0
M  V30 2227 H 192.696 -5.13683 3.10242 0
M  V30 2228 H 193.766 -3.72329 3.10643 0
M  V30 2229 N 195.109 -0.891671 -1.2995 0
M  V30 2230 C 196.019 -0.367691 -2.31701 0
M  V30 2231 C 197.035 0.533486 -1.6562 0
M  V30 2232 O 198.211 0.424997 -1.96865 0
M  V30 2233 C 195.276 0.403406 -3.44345 0
M  V30 2234 C 194.337 -0.528328 -4.26037 0
M  V30 2235 C 193.57 0.206063 -5.33302 0
M  V30 2236 O 193.793 1.43119 -5.52153 0
M  V30 2237 O 192.727 -0.447281 -6.00236 0
M  V30 2238 H 196.553 -1.21163 -2.78484 0
M  V30 2239 H 194.138 -0.655725 -1.34241 0
M  V30 2240 H 196.02 0.839753 -4.12948 0
M  V30 2241 H 194.695 1.22354 -2.99685 0
M  V30 2242 H 193.602 -1.01362 -3.60106 0
M  V30 2243 H 194.935 -1.31465 -4.74318 0
M  V30 2244 N 196.587 1.43421 -0.653314 0
M  V30 2245 C 197.815 2.06163 -0.174491 0
M  V30 2246 C 198.23 1.48969 1.1599 0
M  V30 2247 O 197.587 0.621042 1.71608 0
M  V30 2248 C 197.638 3.61417 -0.0774865 0
M  V30 2249 O 197.359 4.16485 -1.35912 0
M  V30 2250 C 198.86 4.41235 0.427402 0
M  V30 2251 H 196.08 0.664946 -0.0899353 0
M  V30 2252 H 198.624 1.83924 -0.893988 0
M  V30 2253 H 196.779 3.82841 0.59257 0
M  V30 2254 H 197.193 5.10153 -1.21839 0
M  V30 2255 H 198.667 5.5021 0.44423 0
M  V30 2256 H 199.144 4.14268 1.45873 0
M  V30 2257 H 199.75 4.2478 -0.210167 0
M  V30 2258 N 198.065 0.39524 1.52563 0
M  V30 2259 C 198.995 -0.428384 2.29537 0
M  V30 2260 C 199.976 -1.05831 1.33169 0
M  V30 2261 O 201.161 -1.06995 1.62067 0
M  V30 2262 C 198.291 -1.55274 3.10656 0
M  V30 2263 C 197.245 -1.04855 4.14957 0
M  V30 2264 C 196.571 -2.26543 4.84337 0
M  V30 2265 C 197.871 -0.112324 5.22179 0
M  V30 2266 H 199.565 0.213867 2.98635 0
M  V30 2267 H 197.111 0.104298 1.43622 0
M  V30 2268 H 199.064 -2.1358 3.63265 0
M  V30 2269 H 197.788 -2.22266 2.39302 0
M  V30 2270 H 196.447 -0.487985 3.63338 0
M  V30 2271 H 196.095 -2.92059 4.09525 0
M  V30 2272 H 195.795 -1.93466 5.54837 0
M  V30 2273 H 197.319 -2.85481 5.39753 0
M  V30 2274 H 198.733 -0.603752 5.70112 0
M  V30 2275 H 197.13 0.128968 5.99961 0
M  V30 2276 H 198.2 0.837052 4.77621 0
M  V30 2277 N 199.544 -1.57102 0.125237 0
M  V30 2278 C 200.492 -2.16905 -0.839927 0
M  V30 2279 C 201.486 -1.11998 -1.27094 0
M  V30 2280 O 202.692 -1.3029 -1.24195 0
M  V30 2281 H 199.067 -0.694252 -0.288995 0
M  V30 2282 H 201.038 -2.96774 -0.311115 0
M  V30 2283 C 199.787 -2.78795 -2.07771 0
M  V30 2284 H 199.11 -3.59221 -1.755 0
M  V30 2285 H 200.55 -3.2417 -2.73295 0
M  V30 2286 C 199.009 -1.76193 -2.87155 0
M  V30 2287 O 199.539 -1.21909 -3.82755 0
M  V30 2288 N 197.745 -1.45991 -2.51267 0
M  V30 2289 H 197.292 -1.90325 -1.73592 0
M  V30 2290 H 197.25 -0.775844 -3.04677 0
M  V30 2291 N 201.022 0.148545 -1.56898 0
M  V30 2292 C 202.25 0.876389 -1.87422 0
M  V30 2293 C 202.665 1.74809 -0.713256 0
M  V30 2294 O 202.022 1.79725 0.317025 0
M  V30 2295 C 202.073 1.73438 -3.17178 0
M  V30 2296 O 201.794 0.897809 -4.28802 0
M  V30 2297 C 203.295 2.56993 -3.61205 0
M  V30 2298 H 200.515 0.253489 -0.621277 0
M  V30 2299 H 203.059 0.141798 -2.04008 0
M  V30 2300 H 201.214 2.42205 -3.0235 0
M  V30 2301 H 201.628 1.48672 -5.02988 0
M  V30 2302 H 203.102 3.12773 -4.54838 0
M  V30 2303 H 203.579 3.32958 -2.86419 0
M  V30 2304 H 204.185 1.9352 -3.78722 0
M  V30 2305 N 202.5 1.5196 0.417844 0
M  V30 2306 C 203.725 1.69717 1.1921 0
M  V30 2307 C 204.15 0.402148 1.83751 0
M  V30 2308 O 203.508 -0.639593 1.69643 0
M  V30 2309 C 203.556 2.82794 2.2374 0
M  V30 2310 O 202.66 2.47756 3.29683 0
M  V30 2311 H 202.001 0.565263 0.348387 0
M  V30 2312 H 204.531 1.98621 0.490985 0
M  V30 2313 H 204.541 3.07452 2.68212 0
M  V30 2314 H 203.216 3.76756 1.76146 0
M  V30 2315 H 201.793 2.33739 2.90552 0
M  V30 2316 N 203.978 -0.674533 1.42435 0
M  V30 2317 C 204.925 -1.78807 1.45934 0
M  V30 2318 C 205.895 -1.63157 0.311271 0
M  V30 2319 O 207.08 -1.83707 0.515383 0
M  V30 2320 C 204.22 -3.16839 1.36773 0
M  V30 2321 C 203.333 -3.43774 2.61617 0
M  V30 2322 C 202.468 -4.71536 2.44597 0
M  V30 2323 C 201.507 -4.91505 3.64814 0
M  V30 2324 N 200.644 -6.10508 3.46734 0
M  V30 2325 H 205.484 -1.75151 2.41093 0
M  V30 2326 H 203.021 -0.85504 1.19697 0
M  V30 2327 H 204.979 -3.96606 1.29459 0
M  V30 2328 H 203.609 -3.19619 0.452089 0
M  V30 2329 H 202.661 -2.58259 2.79297 0
M  V30 2330 H 203.973 -3.54423 3.50978 0
M  V30 2331 H 203.127 -5.59393 2.3487 0
M  V30 2332 H 201.866 -4.6317 1.52726 0
M  V30 2333 H 200.871 -4.0209 3.74972 0
M  V30 2334 H 202.096 -5.01716 4.57665 0
M  V30 2335 H 200.042 -6.03315 2.5758 0
M  V30 2336 H 199.959 -6.2202 4.29682 0
M  V30 2337 H 201.227 -7.01044 3.40819 0
M  V30 2338 N 205.456 -1.28612 -0.910864 0
M  V30 2339 C 206.404 -1.1265 -2.03501 0
M  V30 2340 C 207.398 -0.0450054 -1.6934 0
M  V30 2341 O 208.604 -0.203988 -1.7884 0
M  V30 2342 H 204.979 -0.347639 -0.666822 0
M  V30 2343 H 206.95 -2.07849 -2.14106 0
M  V30 2344 C 205.699 -0.808143 -3.38178 0
M  V30 2345 H 205.022 -1.63231 -3.6496 0
M  V30 2346 H 206.462 -0.736426 -4.17556 0
M  V30 2347 C 204.921 0.488226 -3.33344 0
M  V30 2348 O 205.451 1.51766 -3.71927 0
M  V30 2349 N 203.657 0.490009 -2.86439 0
M  V30 2350 H 203.204 -0.348161 -2.55236 0
M  V30 2351 H 203.162 1.35741 -2.83587 0
M  V30 2352 N 206.934 1.1197 -1.10907 0
M  V30 2353 C 208.18 1.8386 -0.855773 0
M  V30 2354 C 208.513 1.84134 0.617103 0
M  V30 2355 O 207.788 1.29041 1.45529 0
M  V30 2356 C 208.071 3.31305 -1.411 0
M  V30 2357 C 207.924 3.39456 -2.9511 0
M  V30 2358 C 209.243 4.2721 -1.05736 0
M  V30 2359 H 206.362 0.667545 -0.312334 0
M  V30 2360 H 209.004 1.31331 -1.37303 0
M  V30 2361 H 207.154 3.76169 -0.97105 0
M  V30 2362 H 208.826 3.03191 -3.47668 0
M  V30 2363 H 207.069 2.79849 -3.31462 0
M  V30 2364 H 207.74 4.43209 -3.29044 0
M  V30 2365 H 210.216 3.90497 -1.43706 0
M  V30 2366 H 209.092 5.28775 -1.47269 0
M  V30 2367 H 209.353 4.42088 0.0325958 0
M  V30 2368 N 208.412 0.89855 1.29475 0
M  V30 2369 C 209.637 0.538561 2.00285 0
M  V30 2370 C 210.062 -0.869135 1.66816 0
M  V30 2371 O 209.42 -1.57831 0.892145 0
M  V30 2372 C 209.468 0.736475 3.52999 0
M  V30 2373 O 208.572 -0.211537 4.11857 0
M  V30 2374 H 207.913 0.210563 0.62973 0
M  V30 2375 H 210.443 1.20982 1.64998 0
M  V30 2376 H 210.453 0.640685 4.02938 0
M  V30 2377 H 209.128 1.76276 3.76696 0
M  V30 2378 H 207.705 -0.0682991 3.72837 0
M  V30 2379 N 209.89 -1.43072 0.660911 0
M  V30 2380 C 211.138 -2.01323 0.177094 0
M  V30 2381 C 211.459 -1.5245 -1.2159 0
M  V30 2382 O 210.729 -0.740322 -1.81373 0
M  V30 2383 H 209.309 -0.744382 0.0624804 0
M  V30 2384 H 211.971 -1.75179 0.854305 0
M  V30 2385 H 211.067 -3.11649 0.167641 0
M  V30 2386 N 211.368 -0.403325 -1.52352 0
M  V30 2387 C 212.298 0.416205 -2.29761 0
M  V30 2388 C 213.279 1.05123 -1.33728 0
M  V30 2389 O 214.464 1.06134 -1.62632 0
M  V30 2390 C 211.594 1.53624 -3.11475 0
M  V30 2391 C 210.548 1.02653 -4.15507 0
M  V30 2392 C 209.874 2.23971 -4.85532 0
M  V30 2393 C 211.174 0.08463 -5.22231 0
M  V30 2394 H 212.868 -0.229701 -2.98518 0
M  V30 2395 H 210.414 -0.111913 -1.43564 0
M  V30 2396 H 212.367 2.1165 -3.64393 0
M  V30 2397 H 211.091 2.20994 -2.40477 0
M  V30 2398 H 209.75 0.46871 -3.63591 0
M  V30 2399 H 209.398 2.89883 -4.11068 0
M  V30 2400 H 209.098 1.90521 -5.55856 0
M  V30 2401 H 210.622 2.82614 -5.41259 0
M  V30 2402 H 212.036 0.573509 -5.70424 0
M  V30 2403 H 210.433 -0.160783 -5.99885 0
M  V30 2404 H 211.503 -0.86237 -4.7717 0
M  V30 2405 N 212.846 1.57033 -0.133567 0
M  V30 2406 C 214.086 1.97575 0.523789 0
M  V30 2407 C 214.45 1.01605 1.62912 0
M  V30 2408 O 215.651 1.3114 2.3464 0
M  V30 2409 C 213.922 3.42256 1.02935 0
M  V30 2410 S 215.481 4.04817 1.69319 0
M  V30 2411 H 212.299 0.690427 0.169799 0
M  V30 2412 H 214.901 1.94234 -0.222101 0
M  V30 2413 H 213.605 4.09842 0.213917 0
M  V30 2414 H 213.136 3.4928 1.81017 0
M  V30 2415 H 215.151 3.96767 2.97977 0
M  V30 2416 N 214.325 -0.140222 1.56975 0
M  V30 2417 C 215.565 -0.857823 1.85528 0
M  V30 2418 C 215.929 -1.78039 0.718768 0
M  V30 2419 O 217.13 -2.53795 0.885521 0
M  V30 2420 C 215.401 -1.60615 3.19277 0
M  V30 2421 S 216.96 -2.36824 3.69405 0
M  V30 2422 H 213.778 -0.286727 0.650622 0
M  V30 2423 H 216.38 -0.117408 1.95147 0
M  V30 2424 H 215.084 -0.919994 3.99955 0
M  V30 2425 H 214.615 -2.38735 3.12681 0
M  V30 2426 H 216.63 -3.62148 3.3921 0
M  V30 2427 N 215.803 -1.52179 -0.40978 0
M  V30 2428 C 216.733 -1.78435 -1.5061 0
M  V30 2429 C 217.714 -0.635295 -1.57791 0
M  V30 2430 O 218.899 -0.880823 -1.73076 0
M  V30 2431 C 216.029 -1.93444 -2.88439 0
M  V30 2432 C 214.983 -3.09038 -2.96108 0
M  V30 2433 C 214.309 -3.09268 -4.36185 0
M  V30 2434 C 215.609 -4.48508 -2.67652 0
M  V30 2435 H 217.303 -2.70237 -1.28889 0
M  V30 2436 H 214.849 -1.30036 -0.618605 0
M  V30 2437 H 216.802 -2.10394 -3.65119 0
M  V30 2438 H 215.526 -0.983129 -3.11452 0
M  V30 2439 H 214.185 -2.91837 -2.21872 0
M  V30 2440 H 213.833 -2.11861 -4.56206 0
M  V30 2441 H 213.533 -3.86907 -4.42241 0
M  V30 2442 H 215.057 -3.28348 -5.14801 0
M  V30 2443 H 216.471 -4.65918 -3.34056 0
M  V30 2444 H 214.868 -5.28059 -2.85085 0
M  V30 2445 H 215.938 -4.56649 -1.63095 0
M  V30 2446 N 217.281 0.66697 -1.42791 0
M  V30 2447 C 218.506 1.46004 -1.47301 0
M  V30 2448 C 218.931 1.87894 -0.0880317 0
M  V30 2449 O 218.289 1.56502 0.915253 0
M  V30 2450 C 218.337 2.68031 -2.41229 0
M  V30 2451 O 217.441 3.6659 -1.88906 0
M  V30 2452 H 216.782 0.43832 -0.49877 0
M  V30 2453 H 219.312 0.817391 -1.87563 0
M  V30 2454 H 219.322 3.1601 -2.58073 0
M  V30 2455 H 217.997 2.36883 -3.41847 0
M  V30 2456 H 216.574 3.25661 -1.81656 0
M  V30 2457 N 218.759 1.29093 0.90403 0
M  V30 2458 C 219.707 1.13727 2.02901 0
M  V30 2459 C 220.701 0.0539853 1.69314 0
M  V30 2460 O 221.907 0.213469 1.7873 0
M  V30 2461 H 218.282 0.35117 0.664969 0
M  V30 2462 H 220.253 2.08982 2.13001 0
M  V30 2463 C 219.002 0.826066 3.37745 0
M  V30 2464 H 218.325 1.65164 3.64089 0
M  V30 2465 H 219.765 0.758559 4.17159 0
M  V30 2466 C 218.224 -0.470541 3.33598 0
M  V30 2467 O 218.754 -1.49792 3.72727 0
M  V30 2468 N 216.96 -0.474812 2.86695 0
M  V30 2469 H 216.507 0.361692 2.55048 0
M  V30 2470 H 216.465 -1.34236 2.84303 0
M  V30 2471 N 220.237 -1.11381 1.11499 0
M  V30 2472 C 221.486 -1.82494 0.858993 0
M  V30 2473 C 221.799 -1.85605 -0.617278 0
M  V30 2474 O 223.005 -2.52824 -0.989552 0
M  V30 2475 C 221.461 -3.27745 1.48699 0
M  V30 2476 C 221.069 -3.32961 2.99735 0
M  V30 2477 C 222.813 -4.03754 1.31085 0
M  V30 2478 C 220.72 -4.72612 3.55516 0
M  V30 2479 H 219.65 -0.683802 0.317696 0
M  V30 2480 H 222.301 -1.25331 1.34031 0
M  V30 2481 H 220.683 -3.84844 0.933339 0
M  V30 2482 H 221.857 -2.85741 3.61509 0
M  V30 2483 H 220.172 -2.70433 3.16631 0
M  V30 2484 H 222.769 -5.06891 1.70192 0
M  V30 2485 H 223.112 -4.15527 0.253496 0
M  V30 2486 H 223.645 -3.53043 1.83318 0
M  V30 2487 H 220.384 -4.66036 4.60967 0
M  V30 2488 H 219.904 -5.2024 2.98513 0
M  V30 2489 H 221.583 -5.4157 3.53992 0
M  V30 2490 N 221.715 -0.905404 -1.28997 0
M  V30 2491 C 222.992 -0.453513 -1.9027 0
M  V30 2492 C 223.372 1.06721 -1.82137 0
M  V30 2493 O 222.72 1.91159 -1.25182 0
M  V30 2494 C 222.93 -0.974494 -3.35119 0
M  V30 2495 C 224.278 -1.0216 -4.12127 0
M  V30 2496 O 225.302 -0.922557 -3.44046 0
M  V30 2497 O 224.161 -1.17121 -5.33802 0
M  V30 2498 H 221.255 -0.142347 -0.814657 0
M  V30 2499 H 223.801 -0.995642 -1.37423 0
M  V30 2500 H 222.573 -2.01848 -3.35221 0
M  V30 2501 H 222.196 -0.412706 -3.95452 0
M  V30 2502 N 223.193 1.4272 -0.668489 0
M  V30 2503 C 224.14 2.30796 0.0137489 0
M  V30 2504 C 225.11 1.4561 0.799177 0
M  V30 2505 O 226.295 1.74453 0.772702 0
M  V30 2506 C 223.435 3.31377 0.963507 0
M  V30 2507 C 222.548 4.31655 0.172569 0
M  V30 2508 C 221.683 5.19312 1.1175 0
M  V30 2509 C 220.722 6.11274 0.317886 0
M  V30 2510 N 219.859 6.91504 1.2152 0
M  V30 2511 H 224.699 2.88585 -0.743161 0
M  V30 2512 H 222.236 1.42154 -0.378226 0
M  V30 2513 H 224.194 3.88214 1.52792 0
M  V30 2514 H 222.824 2.75202 1.68712 0
M  V30 2515 H 221.876 3.76988 -0.508374 0
M  V30 2516 H 223.188 4.96779 -0.448527 0
M  V30 2517 H 222.342 5.80851 1.75206 0
M  V30 2518 H 221.081 4.5435 1.77249 0
M  V30 2519 H 220.086 5.48809 -0.329918 0
M  V30 2520 H 221.311 6.78283 -0.332917 0
M  V30 2521 H 219.257 6.29176 1.85671 0
M  V30 2522 H 219.174 7.53209 0.649036 0
M  V30 2523 H 220.442 7.57535 1.83742 0
M  V30 2524 N 224.671 0.411399 1.52136 0
M  V30 2525 C 225.619 -0.427633 2.28635 0
M  V30 2526 C 226.613 -1.04383 1.33419 0
M  V30 2527 O 227.819 -0.981772 1.50868 0
M  V30 2528 H 224.194 -0.156689 0.735495 0
M  V30 2529 H 226.165 0.238761 2.97443 0
M  V30 2530 C 224.914 -1.53082 3.12188 0
M  V30 2531 H 224.237 -1.06601 3.85326 0
M  V30 2532 H 225.677 -2.09167 3.68816 0
M  V30 2533 C 224.136 -2.49946 2.25895 0
M  V30 2534 O 224.666 -3.53884 1.90076 0
M  V30 2535 N 222.872 -2.2021 1.8962 0
M  V30 2536 H 222.419 -1.35719 2.18948 0
M  V30 2537 H 222.377 -2.85266 1.32176 0
M  V30 2538 N 226.149 -1.5696 0.141893 0
M  V30 2539 C 227.398 -1.95135 -0.510427 0
M  V30 2540 C 227.711 -1.02896 -1.66348 0
M  V30 2541 O 228.917 -1.30629 -2.38009 0
M  V30 2542 C 227.373 -3.46876 -0.959427 0
M  V30 2543 C 226.981 -4.47691 0.166419 0
M  V30 2544 C 228.725 -3.93927 -1.58183 0
M  V30 2545 C 226.632 -5.90636 -0.300565 0
M  V30 2546 H 225.562 -0.728494 -0.194454 0
M  V30 2547 H 228.213 -1.8211 0.22542 0
M  V30 2548 H 226.595 -3.55215 -1.75038 0
M  V30 2549 H 227.769 -4.51043 0.94325 0
M  V30 2550 H 226.084 -4.10527 0.696905 0
M  V30 2551 H 228.681 -4.98158 -1.94275 0
M  V30 2552 H 229.024 -3.3519 -2.46888 0
M  V30 2553 H 229.557 -3.88484 -0.855863 0
M  V30 2554 H 226.296 -6.5318 0.550989 0
M  V30 2555 H 225.816 -5.90655 -1.04338 0
M  V30 2556 H 227.495 -6.42588 -0.754265 0
M  V30 2557 N 227.627 0.131896 -1.57047 0
M  V30 2558 C 228.876 0.84044 -1.83356 0
M  V30 2559 C 229.189 1.81646 -0.725535 0
M  V30 2560 O 230.395 2.57025 -0.874659 0
M  V30 2561 C 228.851 1.54528 -3.25037 0
M  V30 2562 C 228.459 0.610902 -4.43815 0
M  V30 2563 C 230.203 2.23972 -3.60606 0
M  V30 2564 C 228.11 1.31823 -5.76521 0
M  V30 2565 H 227.04 0.317599 -0.683847 0
M  V30 2566 H 229.691 0.0931561 -1.83263 0
M  V30 2567 H 228.073 2.33873 -3.19561 0
M  V30 2568 H 229.247 -0.148407 -4.60561 0
M  V30 2569 H 227.562 0.0241016 -4.16393 0
M  V30 2570 H 230.159 2.77558 -4.57018 0
M  V30 2571 H 230.502 3.01173 -2.87403 0
M  V30 2572 H 231.035 1.51529 -3.6781 0
M  V30 2573 H 227.774 0.587771 -6.52859 0
M  V30 2574 H 227.294 2.04987 -5.63685 0
M  V30 2575 H 228.973 1.855 -6.19838 0
M  V30 2576 N 229.106 1.52395 0.401703 0
M  V30 2577 C 230.355 1.66044 1.14509 0
M  V30 2578 C 230.668 0.400216 1.91462 0
M  V30 2579 O 231.874 0.416632 2.68284 0
M  V30 2580 C 230.33 2.93388 2.0845 0
M  V30 2581 C 229.938 4.26545 1.36978 0
M  V30 2582 C 231.682 3.16402 2.83001 0
M  V30 2583 C 229.589 5.45007 2.29611 0
M  V30 2584 H 228.519 0.618562 0.431158 0
M  V30 2585 H 231.17 1.78886 0.40892 0
M  V30 2586 H 229.552 2.74263 2.8565 0
M  V30 2587 H 230.726 4.56179 0.650916 0
M  V30 2588 H 229.041 4.09692 0.74438 0
M  V30 2589 H 231.638 4.02085 3.52465 0
M  V30 2590 H 231.981 2.30943 3.46368 0
M  V30 2591 H 232.514 3.36034 2.12898 0
M  V30 2592 H 229.253 6.32835 1.70879 0
M  V30 2593 H 228.773 5.19702 2.9945 0
M  V30 2594 H 230.452 5.7838 2.89974 0
M  V30 2595 N 230.584 -0.659388 1.43143 0
M  V30 2596 C 231.547 -1.75432 1.47501 0
M  V30 2597 C 232.547 -1.56707 0.360512 0
M  V30 2598 O 233.737 -1.62717 0.622002 0
M  V30 2599 C 230.869 -3.14239 1.32162 0
M  V30 2600 H 232.062 -1.7295 2.45006 0
M  V30 2601 H 229.615 -0.870469 1.29817 0
M  V30 2602 H 230.35 -3.22336 0.356401 0
M  V30 2603 H 230.135 -3.29235 2.12948 0
M  V30 2604 H 231.625 -3.94094 1.3813 0
M  V30 2605 N 232.062 -1.29571 -0.897171 0
M  V30 2606 C 233.292 -1.20408 -1.67886 0
M  V30 2607 C 233.7 0.237429 -1.87704 0
M  V30 2608 O 233.043 1.17048 -1.41582 0
M  V30 2609 C 233.105 -1.84887 -3.08314 0
M  V30 2610 C 232.769 -3.34189 -3.11716 0
M  V30 2611 C 233.766 -4.30374 -2.91675 0
M  V30 2612 C 231.451 -3.75431 -3.33701 0
M  V30 2613 C 233.445 -5.65776 -2.93557 0
M  V30 2614 C 231.132 -5.10955 -3.35214 0
M  V30 2615 C 232.13 -6.05938 -3.15164 0
M  V30 2616 O 231.818 -7.38987 -3.1647 0
M  V30 2617 H 231.55 -0.418289 -0.531046 0
M  V30 2618 H 234.104 -1.71514 -1.13014 0
M  V30 2619 H 232.334 -1.28295 -3.64798 0
M  V30 2620 H 234.023 -1.70011 -3.6858 0
M  V30 2621 H 234.789 -3.99844 -2.74499 0
M  V30 2622 H 230.668 -3.01953 -3.48347 0
M  V30 2623 H 234.212 -6.39889 -2.77826 0
M  V30 2624 H 230.109 -5.4113 -3.51922 0
M  V30 2625 H 230.877 -7.47823 -3.3272 0
M  V30 2626 N 233.54 1.10788 -1.12088 0
M  V30 2627 C 234.47 2.19083 -0.807755 0
M  V30 2628 C 235.451 1.6858 0.226859 0
M  V30 2629 O 236.636 1.93997 0.0888475 0
M  V30 2630 C 233.766 3.46344 -0.257576 0
M  V30 2631 C 232.72 4.101 -1.22483 0
M  V30 2632 C 232.046 5.32016 -0.535052 0
M  V30 2633 C 233.346 4.54236 -2.57811 0
M  V30 2634 H 235.04 2.45534 -1.71328 0
M  V30 2635 H 232.586 1.1801 -0.825205 0
M  V30 2636 H 234.539 4.21392 -0.0262679 0
M  V30 2637 H 233.263 3.19373 0.683278 0
M  V30 2638 H 231.922 3.37054 -1.44189 0
M  V30 2639 H 231.57 5.01319 0.410827 0
M  V30 2640 H 231.27 5.75625 -1.18024 0
M  V30 2641 H 232.794 6.09799 -0.312695 0
M  V30 2642 H 234.208 5.20575 -2.40155 0
M  V30 2643 H 232.605 5.08682 -3.18375 0
M  V30 2644 H 233.675 3.6734 -3.16528 0
M  V30 2645 N 235.018 0.912232 1.28515 0
M  V30 2646 C 236.243 0.559774 1.99703 0
M  V30 2647 C 236.668 -0.851393 1.67729 0
M  V30 2648 O 236.026 -1.56875 0.908834 0
M  V30 2649 C 236.074 0.773874 3.52198 0
M  V30 2650 O 235.178 -0.167842 4.12058 0
M  V30 2651 H 234.519 0.21723 0.627461 0
M  V30 2652 H 237.049 1.22725 1.63706 0
M  V30 2653 H 237.059 0.683386 4.02236 0
M  V30 2654 H 235.734 1.80261 3.74805 0
M  V30 2655 H 234.311 -0.0287509 3.72889 0
M  V30 2656 N 236.496 -1.42363 0.676048 0
M  V30 2657 C 237.907 -1.84649 0.275948 0
M  V30 2658 C 238.258 -1.56588 -1.18214 0
M  V30 2659 O 237.383 -1.02634 -1.90513 0
M  V30 2660 C 237.978 -3.35178 0.494053 0
M  V30 2661 C 236.537 -3.76109 0.148061 0
M  V30 2662 C 235.684 -2.65931 0.785891 0
M  V30 2663 H 238.635 -1.32192 0.878121 0
M  V30 2664 H 238.656 -3.79655 -0.25343 0
M  V30 2665 H 238.168 -3.55571 1.55535 0
M  V30 2666 H 236.269 -3.61323 -0.909742 0
M  V30 2667 H 236.382 -4.7546 0.589454 0
M  V30 2668 H 234.746 -2.53773 0.217113 0
M  V30 2669 H 235.529 -2.89146 1.85067 0
M  V30 2670 N 237.974 -0.419461 -1.51915 0
M  V30 2671 C 239.223 0.154346 -2.01109 0
M  V30 2672 C 239.536 1.45338 -1.30905 0
M  V30 2673 O 240.742 2.10906 -1.7097 0
M  V30 2674 C 239.198 0.325615 -3.58424 0
M  V30 2675 C 238.806 -0.961934 -4.37551 0
M  V30 2676 C 240.55 0.854155 -4.15818 0
M  V30 2677 C 238.457 -0.757287 -5.86531 0
M  V30 2678 H 237.387 0.0614563 -0.751491 0
M  V30 2679 H 240.038 -0.54649 -1.75173 0
M  V30 2680 H 238.42 1.08903 -3.80731 0
M  V30 2681 H 239.594 -1.7323 -4.26999 0
M  V30 2682 H 237.909 -1.41766 -3.91524 0
M  V30 2683 H 240.506 1.02346 -5.24814 0
M  V30 2684 H 240.849 1.83172 -3.73837 0
M  V30 2685 H 241.382 0.149528 -3.97519 0
M  V30 2686 H 238.121 -1.70671 -6.32892 0
M  V30 2687 H 237.641 -0.0264061 -5.99794 0
M  V30 2688 H 239.32 -0.403482 -6.45741 0
M  V30 2689 N 239.452 1.56882 -0.150215 0
M  V30 2690 C 240.399 2.16922 0.788244 0
M  V30 2691 C 241.369 1.10303 1.24187 0
M  V30 2692 O 242.554 1.38359 1.31383 0
M  V30 2693 C 239.694 2.79754 2.02068 0
M  V30 2694 C 238.807 4.00775 1.61257 0
M  V30 2695 C 237.942 4.51595 2.79705 0
M  V30 2696 C 236.981 5.65074 2.35282 0
M  V30 2697 N 236.118 6.10499 3.4675 0
M  V30 2698 H 240.958 2.96779 0.269444 0
M  V30 2699 H 238.495 1.46599 0.12128 0
M  V30 2700 H 240.453 3.14329 2.74323 0
M  V30 2701 H 239.083 2.02536 2.51354 0
M  V30 2702 H 238.135 3.72158 0.787553 0
M  V30 2703 H 239.447 4.82978 1.24633 0
M  V30 2704 H 238.601 4.88242 3.60145 0
M  V30 2705 H 237.34 3.68406 3.19576 0
M  V30 2706 H 236.345 5.28 1.53283 0
M  V30 2707 H 237.57 6.50052 1.96493 0
M  V30 2708 H 235.516 5.30243 3.86236 0
M  V30 2709 H 235.433 6.87637 3.14152 0
M  V30 2710 H 236.701 6.51791 4.27537 0
M  V30 2711 N 240.93 -0.123565 1.57115 0
M  V30 2712 C 242.178 -0.83051 1.84247 0
M  V30 2713 C 242.499 -1.80629 0.73471 0
M  V30 2714 O 241.769 -1.94403 -0.241688 0
M  V30 2715 H 240.349 -0.309694 0.679778 0
M  V30 2716 H 243.011 -0.111976 1.94578 0
M  V30 2717 H 242.107 -1.37852 2.80006 0
M  V30 2718 N 242.408 -1.52605 -0.393616 0
M  V30 2719 C 243.824 -1.41753 -0.733357 0
M  V30 2720 C 244.024 -0.534293 -1.94287 0
M  V30 2721 O 243.08 -0.0059787 -2.52499 0
M  V30 2722 C 244.393 -2.84531 -0.972772 0
M  V30 2723 C 245.941 -2.93978 -1.07453 0
M  V30 2724 C 246.416 -4.37756 -1.3466 0
M  V30 2725 N 247.907 -4.4106 -1.41492 0
M  V30 2726 C 248.642 -5.49387 -1.642 0
M  V30 2727 N 248.138 -6.67806 -1.8441 0
M  V30 2728 N 249.931 -5.36923 -1.66342 0
M  V30 2729 H 242.082 -2.08555 0.402328 0
M  V30 2730 H 244.345 -0.940654 0.117789 0
M  V30 2731 H 244.051 -3.51353 -0.156204 0
M  V30 2732 H 243.925 -3.26508 -1.88871 0
M  V30 2733 H 246.312 -2.27326 -1.88167 0
M  V30 2734 H 246.393 -2.55435 -0.136605 0
M  V30 2735 H 246.037 -5.04972 -0.544581 0
M  V30 2736 H 245.967 -4.73848 -2.2973 0
M  V30 2737 H 248.458 -3.55705 -1.27601 0
M  V30 2738 H 248.771 -7.46141 -2.01231 0
M  V30 2739 H 247.116 -6.70843 -1.81644 0
M  V30 2740 H 250.307 -4.43381 -1.50102 0
M  V30 2741 H 250.48 -6.21416 -1.837 0
M  V30 2742 N 243.887 0.651787 -1.4349 0
M  V30 2743 C 245.133 1.41376 -1.45398 0
M  V30 2744 C 245.466 1.94041 -0.0784823 0
M  V30 2745 O 244.741 1.72379 0.900878 0
M  V30 2746 C 245.024 2.59414 -2.49752 0
M  V30 2747 C 244.877 2.12232 -3.96582 0
M  V30 2748 C 246.196 3.61626 -2.50827 0
M  V30 2749 H 243.315 0.512719 -0.529422 0
M  V30 2750 H 245.957 0.738796 -1.75048 0
M  V30 2751 H 244.107 3.16997 -2.246 0
M  V30 2752 H 245.779 1.59639 -4.32797 0
M  V30 2753 H 244.022 1.43592 -4.09346 0
M  V30 2754 H 244.693 2.9712 -4.65214 0
M  V30 2755 H 247.169 3.13805 -2.7325 0
M  V30 2756 H 246.045 4.41766 -3.25783 0
M  V30 2757 H 246.306 4.14314 -1.5426 0
M  V30 2758 N 245.365 1.30045 0.890287 0
M  V30 2759 C 246.313 1.15873 2.01683 0
M  V30 2760 C 247.307 0.0719403 1.69247 0
M  V30 2761 O 248.513 0.232414 1.78493 0
M  V30 2762 H 244.888 0.358203 0.661207 0
M  V30 2763 H 246.859 2.11229 2.10772 0
M  V30 2764 C 245.608 0.861842 3.36849 0
M  V30 2765 H 244.931 1.69016 3.62317 0
M  V30 2766 H 246.371 0.802762 4.16331 0
M  V30 2767 C 244.83 -0.435132 3.34078 0
M  V30 2768 O 245.36 -1.4583 3.74295 0
M  V30 2769 N 243.566 -0.444377 2.87182 0
M  V30 2770 H 243.113 0.388723 2.5465 0
M  V30 2771 H 243.071 -1.31213 2.85711 0
M  V30 2772 N 246.843 -1.10192 1.12674 0
M  V30 2773 C 248.092 -1.81573 0.8783 0
M  V30 2774 C 248.405 -1.86249 -0.597557 0
M  V30 2775 O 249.611 -2.5386 -0.962681 0
M  V30 2776 C 248.067 -3.26149 1.52167 0
M  V30 2777 C 247.675 -3.29763 3.03249 0
M  V30 2778 C 249.419 -4.0234 1.3536 0
M  V30 2779 C 247.326 -4.68815 3.60508 0
M  V30 2780 H 246.256 -0.680394 0.324931 0
M  V30 2781 H 248.907 -1.23902 1.35353 0
M  V30 2782 H 247.289 -3.83832 0.974104 0
M  V30 2783 H 248.463 -2.8189 3.6452 0
M  V30 2784 H 246.778 -2.67059 3.19481 0
M  V30 2785 H 249.375 -5.05058 1.75559 0
M  V30 2786 H 249.718 -4.15235 0.297554 0
M  V30 2787 H 250.251 -3.51079 1.87052 0
M  V30 2788 H 246.99 -4.61121 4.65884 0
M  V30 2789 H 246.51 -5.17045 3.04014 0
M  V30 2790 H 248.189 -5.37785 3.59717 0
M  V30 2791 N 248.321 -0.919034 -1.28029 0
M  V30 2792 C 249.271 -0.382574 -2.24767 0
M  V30 2793 C 250.255 0.508286 -1.52661 0
M  V30 2794 O 251.447 0.347145 -1.73562 0
M  V30 2795 C 248.576 0.371432 -3.41285 0
M  V30 2796 C 247.662 -0.535449 -4.20706 0
M  V30 2797 N 248.053 -1.65141 -4.78082 0
M  V30 2798 C 246.351 -0.336824 -4.44726 0
M  V30 2799 C 247.052 -2.21475 -5.37888 0
M  V30 2800 N 246.028 -1.50537 -5.22341 0
M  V30 2801 H 249.83 -1.23477 -2.66703 0
M  V30 2802 H 247.344 -0.772299 -1.42861 0
M  V30 2803 H 249.341 0.772638 -4.09678 0
M  V30 2804 H 248.001 1.22066 -3.00882 0
M  V30 2805 H 249.012 -2.03392 -4.7629 0
M  V30 2806 H 245.689 0.47246 -4.14818 0
M  V30 2807 H 247.079 -3.15379 -5.93284 0
M  V30 2808 N 249.799 1.42003 -0.683588 0
M  V30 2809 C 251.048 2.00638 -0.206681 0
M  V30 2810 C 251.361 1.5472 1.19671 0
M  V30 2811 O 252.567 2.05833 1.77045 0
M  V30 2812 C 251.023 3.58487 -0.318632 0
M  V30 2813 C 250.631 4.1339 -1.72663 0
M  V30 2814 C 252.375 4.24384 0.0991141 0
M  V30 2815 C 250.282 5.63633 -1.79087 0
M  V30 2816 H 249.212 0.750408 -0.0735107 0
M  V30 2817 H 251.863 1.62624 -0.850048 0
M  V30 2818 H 250.245 3.94047 0.392781 0
M  V30 2819 H 251.419 3.89273 -2.46583 0
M  V30 2820 H 249.734 3.59976 -2.09299 0
M  V30 2821 H 252.331 5.34652 0.0713833 0
M  V30 2822 H 252.674 4.00505 1.13586 0
M  V30 2823 H 253.207 3.93816 -0.561599 0
M  V30 2824 H 249.946 5.92323 -2.80774 0
M  V30 2825 H 249.466 5.89714 -1.09535 0
M  V30 2826 H 251.145 6.28201 -1.5483 0
M  V30 2827 N 251.277 0.427512 1.51691 0
M  V30 2828 C 252.524 -0.142229 2.02 0
M  V30 2829 C 252.852 -1.43566 1.31221 0
M  V30 2830 O 252.107 -1.91298 0.412744 0
M  V30 2831 C 252.406 -0.418249 3.54944 0
M  V30 2832 C 252.072 0.788187 4.43958 0
M  V30 2833 C 250.734 1.11906 4.68007 0
M  V30 2834 C 253.086 1.59347 4.96244 0
M  V30 2835 C 250.414 2.25608 5.41588 0
M  V30 2836 C 252.766 2.7214 5.71072 0
M  V30 2837 C 251.43 3.05692 5.93387 0
M  V30 2838 H 250.7 -0.0520451 0.73917 0
M  V30 2839 H 253.347 0.572697 1.82736 0
M  V30 2840 H 251.652 -1.21496 3.72486 0
M  V30 2841 H 253.349 -0.872339 3.91397 0
M  V30 2842 H 249.939 0.520344 4.2543 0
M  V30 2843 H 254.123 1.35106 4.77556 0
M  V30 2844 H 249.379 2.51929 5.57083 0
M  V30 2845 H 253.553 3.34914 6.10578 0
M  V30 2846 H 251.18 3.9391 6.50184 0
M  V30 2847 N 252.755 -1.56801 0.158532 0
M  V30 2848 C 253.665 -2.20916 -0.789518 0
M  V30 2849 C 254.681 -1.1969 -1.26294 0
M  V30 2850 O 255.857 -1.52308 -1.31773 0
M  V30 2851 C 252.922 -2.82727 -2.00665 0
M  V30 2852 C 251.983 -3.99114 -1.58134 0
M  V30 2853 C 251.216 -4.57968 -2.74045 0
M  V30 2854 O 251.439 -4.15704 -3.90572 0
M  V30 2855 O 250.373 -5.48047 -2.48855 0
M  V30 2856 H 254.199 -3.02464 -0.273681 0
M  V30 2857 H 251.784 -1.4924 -0.0690548 0
M  V30 2858 H 253.666 -3.21968 -2.71872 0
M  V30 2859 H 252.341 -2.04184 -2.51179 0
M  V30 2860 H 251.248 -3.64567 -0.839155 0
M  V30 2861 H 252.581 -4.79212 -1.12325 0
M  V30 2862 N 254.233 0.115231 -1.57178 0
M  V30 2863 C 255.482 0.820945 -1.84237 0
M  V30 2864 C 255.795 1.80866 -0.744761 0
M  V30 2865 O 257.001 2.56083 -0.901871 0
M  V30 2866 C 255.457 1.51072 -3.26658 0
M  V30 2867 C 255.065 0.563795 -4.44438 0
M  V30 2868 C 256.809 2.20134 -3.62962 0
M  V30 2869 C 254.716 1.25701 -5.77887 0
M  V30 2870 H 253.646 0.310328 -0.687177 0
M  V30 2871 H 256.297 0.0737134 -1.83352 0
M  V30 2872 H 254.679 2.30471 -3.22024 0
M  V30 2873 H 255.853 -0.197247 -4.60378 0
M  V30 2874 H 254.168 -0.0200638 -4.16395 0
M  V30 2875 H 256.765 2.72696 -4.59936 0
M  V30 2876 H 257.108 2.98107 -2.90582 0
M  V30 2877 H 257.641 1.47619 -3.69396 0
M  V30 2878 H 254.38 0.518493 -6.53446 0
M  V30 2879 H 253.9 1.98997 -5.65827 0
M  V30 2880 H 255.579 1.78915 -6.2177 0
M  V30 2881 N 255.711 1.52812 0.385517 0
M  V30 2882 C 256.659 1.78482 1.49155 0
M  V30 2883 C 257.653 0.652914 1.56312 0
M  V30 2884 O 258.859 0.835464 1.59436 0
M  V30 2885 H 255.234 0.5648 0.496493 0
M  V30 2886 H 257.205 2.71095 1.24699 0
M  V30 2887 C 255.954 1.97378 2.86247 0
M  V30 2888 H 255.277 2.83907 2.81491 0
M  V30 2889 H 256.717 2.19327 3.62866 0
M  V30 2890 C 255.176 0.74728 3.28508 0
M  V30 2891 O 255.706 -0.0736232 4.01633 0
M  V30 2892 N 253.912 0.576396 2.84826 0
M  V30 2893 H 253.459 1.24555 2.25486 0
M  V30 2894 H 253.417 -0.24288 3.1346 0
M  V30 2895 N 257.189 -0.644168 1.43834 0
M  V30 2896 C 258.414 -1.43642 1.49605 0
M  V30 2897 C 258.839 -1.8773 0.117913 0
M  V30 2898 O 258.197 -1.57938 -0.890239 0
M  V30 2899 C 258.245 -2.6416 2.45463 0
M  V30 2900 O 257.349 -3.63538 1.94714 0
M  V30 2901 H 256.69 -0.430329 0.50568 0
M  V30 2902 H 259.22 -0.787448 1.8884 0
M  V30 2903 H 259.23 -3.11864 2.63068 0
M  V30 2904 H 257.905 -2.31414 3.45572 0
M  V30 2905 H 256.482 -3.2273 1.86814 0
M  V30 2906 N 258.668 -1.30515 -0.883378 0
M  V30 2907 C 259.893 -1.22487 -1.67367 0
M  V30 2908 C 260.318 0.208767 -1.86938 0
M  V30 2909 O 259.676 1.15015 -1.40148 0
M  V30 2910 C 259.724 -1.96041 -3.02655 0
M  V30 2911 O 258.828 -1.28859 -3.91751 0
M  V30 2912 H 258.169 -0.423573 -0.511353 0
M  V30 2913 H 260.699 -1.72362 -1.10239 0
M  V30 2914 H 260.709 -2.05124 -3.52687 0
M  V30 2915 H 259.384 -3.00307 -2.8773 0
M  V30 2916 H 257.961 -1.28141 -3.50192 0
M  V30 2917 N 260.146 1.09593 -1.13257 0
M  V30 2918 C 261.056 2.19739 -0.821691 0
M  V30 2919 C 262.072 1.72926 0.19302 0
M  V30 2920 O 263.248 2.01385 0.0244895 0
M  V30 2921 C 260.313 3.45482 -0.290333 0
M  V30 2922 C 259.374 4.06985 -1.36607 0
M  V30 2923 C 258.607 5.26726 -0.859975 0
M  V30 2924 O 258.83 5.69594 0.303082 0
M  V30 2925 O 257.764 5.7931 -1.63351 0
M  V30 2926 H 261.59 2.48781 -1.74189 0
M  V30 2927 H 259.175 1.18496 -0.909894 0
M  V30 2928 H 261.057 4.214 0.000674022 0
M  V30 2929 H 259.732 3.18047 0.602306 0
M  V30 2930 H 258.639 3.32712 -1.71037 0
M  V30 2931 H 259.972 4.38643 -2.23279 0
M  V30 2932 N 261.624 0.925811 1.2754 0
M  V30 2933 C 262.572 0.413897 2.28888 0
M  V30 2934 C 263.566 -0.500779 1.61829 0
M  V30 2935 O 264.772 -0.38069 1.75928 0
M  V30 2936 H 261.147 0.115274 0.743112 0
M  V30 2937 H 263.118 1.28151 2.69481 0
M  V30 2938 C 261.867 -0.319792 3.46226 0
M  V30 2939 H 261.19 0.374846 3.98039 0
M  V30 2940 H 262.63 -0.642435 4.19105 0
M  V30 2941 C 261.089 -1.53209 3.00048 0
M  V30 2942 O 261.619 -2.6309 3.03557 0
M  V30 2943 N 259.825 -1.38326 2.55566 0
M  V30 2944 H 259.372 -0.489292 2.5291 0
M  V30 2945 H 259.33 -2.19564 2.25031 0
M  V30 2946 N 263.102 -1.41638 0.69111 0
M  V30 2947 C 264.351 -2.00526 0.217318 0
M  V30 2948 C 264.664 -1.55353 -1.18848 0
M  V30 2949 O 265.87 -2.06769 -1.75951 0
M  V30 2950 C 264.326 -3.58313 0.337639 0
M  V30 2951 C 263.934 -4.12469 1.74852 0
M  V30 2952 C 265.678 -4.24431 -0.0766066 0
M  V30 2953 C 263.585 -5.62675 1.82074 0
M  V30 2954 H 262.515 -0.750008 0.0774893 0
M  V30 2955 H 265.166 -1.6217 0.858661 0
M  V30 2956 H 263.548 -3.9425 -0.371879 0
M  V30 2957 H 264.722 -3.8796 2.48644 0
M  V30 2958 H 263.037 -3.58861 2.11205 0
M  V30 2959 H 265.634 -5.34683 -0.0430284 0
M  V30 2960 H 265.977 -4.01101 -1.1146 0
M  V30 2961 H 266.51 -3.93512 0.582476 0
M  V30 2962 H 263.249 -5.90826 2.83911 0
M  V30 2963 H 262.769 -5.89124 1.12661 0
M  V30 2964 H 264.448 -6.27371 1.58159 0
M  V30 2965 N 264.58 -0.43555 -1.51462 0
M  V30 2966 C 265.53 0.394701 -2.24558 0
M  V30 2967 C 266.514 0.99157 -1.26715 0
M  V30 2968 O 267.706 0.910007 -1.51815 0
M  V30 2969 C 264.835 1.4963 -3.08975 0
M  V30 2970 C 263.921 0.908912 -4.14246 0
M  V30 2971 N 264.312 0.0505335 -5.05775 0
M  V30 2972 C 262.61 1.17668 -4.30198 0
M  V30 2973 C 263.311 -0.279161 -5.8103 0
M  V30 2974 N 262.287 0.336767 -5.42556 0
M  V30 2975 H 266.089 -0.267106 -2.92684 0
M  V30 2976 H 263.603 -0.247518 -1.60503 0
M  V30 2977 H 265.6 2.10394 -3.59917 0
M  V30 2978 H 264.26 2.16046 -2.42393 0
M  V30 2979 H 265.271 -0.31577 -5.16936 0
M  V30 2980 H 261.948 1.83847 -3.74842 0
M  V30 2981 H 263.338 -0.977553 -6.64751 0
M  V30 2982 N 266.058 1.56714 -0.166846 0
M  V30 2983 C 266.968 2.21331 0.777791 0
M  V30 2984 C 267.984 1.20358 1.25658 0
M  V30 2985 O 269.16 1.53005 1.30964 0
M  V30 2986 C 266.225 2.83787 1.99163 0
M  V30 2987 C 265.286 3.99947 1.56016 0
M  V30 2988 C 264.519 4.59415 2.71613 0
M  V30 2989 O 264.742 4.17769 3.88362 0
M  V30 2990 O 263.676 5.49359 2.45945 0
M  V30 2991 H 267.502 3.02605 0.257636 0
M  V30 2992 H 265.087 1.49275 0.0611393 0
M  V30 2993 H 266.969 3.23405 2.70161 0
M  V30 2994 H 265.644 2.05513 2.50092 0
M  V30 2995 H 264.551 3.65007 0.819809 0
M  V30 2996 H 265.884 4.79801 1.09782 0
M  V30 2997 N 267.536 -0.106894 1.57237 0
M  V30 2998 C 268.446 -1.14911 2.0453 0
M  V30 2999 C 269.462 -1.44592 0.96795 0
M  V30 3000 O 270.638 -1.55468 1.2803 0
M  V30 3001 C 267.703 -2.45272 2.45036 0
M  V30 3002 C 266.764 -2.22879 3.66911 0
M  V30 3003 C 265.997 -3.47024 4.05475 0
M  V30 3004 O 266.22 -4.54804 3.44252 0
M  V30 3005 O 265.154 -3.3731 4.98504 0
M  V30 3006 H 268.98 -0.777461 2.9358 0
M  V30 3007 H 266.565 -0.318563 1.45964 0
M  V30 3008 H 268.447 -3.22055 2.71769 0
M  V30 3009 H 267.122 -2.81886 1.59129 0
M  V30 3010 H 266.029 -1.43915 3.45311 0
M  V30 3011 H 267.362 -1.91163 4.53561 0
M  V30 3012 N 269.014 -1.53014 -0.377408 0
M  V30 3013 C 269.944 -1.81589 -1.46791 0
M  V30 3014 C 270.925 -0.668622 -1.56408 0
M  V30 3015 O 272.11 -0.917337 -1.71168 0
M  V30 3016 C 269.24 -1.99519 -2.8427 0
M  V30 3017 C 268.194 -3.15249 -2.89486 0
M  V30 3018 C 267.52 -3.18451 -4.29527 0
M  V30 3019 C 268.82 -4.54084 -2.58079 0
M  V30 3020 H 270.514 -2.7291 -1.23127 0
M  V30 3021 H 268.06 -1.31319 -0.590883 0
M  V30 3022 H 270.013 -2.18092 -3.60575 0
M  V30 3023 H 268.737 -1.04897 -3.09296 0
M  V30 3024 H 267.396 -2.96477 -2.15631 0
M  V30 3025 H 267.044 -2.2149 -4.5161 0
M  V30 3026 H 266.744 -3.962 -4.33934 0
M  V30 3027 H 268.268 -3.39193 -5.07721 0
M  V30 3028 H 269.682 -4.72899 -3.24098 0
M  V30 3029 H 268.079 -5.33987 -2.7382 0
M  V30 3030 H 269.149 -4.60006 -1.53372 0
M  V30 3031 N 270.492 0.636531 -1.44174 0
M  V30 3032 C 271.903 1.21806 -1.41493 0
M  V30 3033 C 272.254 1.95785 -0.1275 0
M  V30 3034 O 271.379 2.02147 0.772376 0
M  V30 3035 C 271.974 2.21551 -2.56321 0
M  V30 3036 C 270.533 2.75143 -2.56853 0
M  V30 3037 C 269.68 1.50052 -2.33195 0
M  V30 3038 H 272.631 0.427531 -1.52833 0
M  V30 3039 H 272.652 3.0405 -2.28765 0
M  V30 3040 H 272.164 1.67679 -3.50008 0
M  V30 3041 H 270.265 3.33033 -1.67093 0
M  V30 3042 H 270.378 3.2155 -3.55165 0
M  V30 3043 H 268.742 1.77993 -1.82183 0
M  V30 3044 H 269.525 0.980903 -3.28988 0
M  V30 3045 N 271.97 1.30982 0.876444 0
M  V30 3046 C 273.2 1.23063 1.65949 0
M  V30 3047 C 273.608 -0.207537 1.88058 0
M  V30 3048 O 272.951 -1.14781 1.43426 0
M  V30 3049 C 273.013 1.89768 3.05333 0
M  V30 3050 C 272.677 3.39106 3.0636 0
M  V30 3051 C 273.674 4.3496 2.84791 0
M  V30 3052 C 271.359 3.80693 3.27686 0
M  V30 3053 C 273.353 5.70375 2.84519 0
M  V30 3054 C 271.04 5.16223 3.27043 0
M  V30 3055 C 272.038 6.10875 3.05485 0
M  V30 3056 O 271.726 7.43928 3.04674 0
M  V30 3057 H 271.458 0.426685 0.524324 0
M  V30 3058 H 274.012 1.7329 1.10271 0
M  V30 3059 H 272.242 1.34082 3.6271 0
M  V30 3060 H 273.931 1.75853 3.65829 0
M  V30 3061 H 274.697 4.0416 2.68103 0
M  V30 3062 H 270.576 3.07457 3.43499 0
M  V30 3063 H 274.12 6.44228 2.67611 0
M  V30 3064 H 270.017 5.4666 3.43269 0
M  V30 3065 H 270.785 7.53022 3.2078 0
M  V30 3066 N 273.449 -1.08991 1.13837 0
M  V30 3067 C 274.698 -1.80631 0.897509 0
M  V30 3068 C 275.011 -1.86872 -0.57777 0
M  V30 3069 O 276.217 -2.54866 -0.935701 0
M  V30 3070 C 274.673 -3.24517 1.55618 0
M  V30 3071 C 274.281 -3.26529 3.0673 0
M  V30 3072 C 276.025 -4.00882 1.3962 0
M  V30 3073 C 273.932 -4.64965 3.65461 0
M  V30 3074 H 272.862 -0.67691 0.332129 0
M  V30 3075 H 275.513 -1.2246 1.3666 0
M  V30 3076 H 273.895 -3.82778 1.01476 0
M  V30 3077 H 275.069 -2.78008 3.67489 0
M  V30 3078 H 273.384 -2.63656 3.22296 0
M  V30 3079 H 275.981 -5.03167 1.80906 0
M  V30 3080 H 276.324 -4.14896 0.341578 0
M  V30 3081 H 276.857 -3.49075 1.90766 0
M  V30 3082 H 273.596 -4.56153 4.70749 0
M  V30 3083 H 273.116 -5.13792 3.09481 0
M  V30 3084 H 274.795 -5.3394 3.654 0
M  V30 3085 N 274.927 -0.932562 -1.27047 0
M  V30 3086 C 275.875 -0.42603 -2.28665 0
M  V30 3087 C 276.869 0.49219 -1.62092 0
M  V30 3088 O 278.075 0.371355 -1.76128 0
M  V30 3089 H 274.45 -0.119213 -0.742491 0
M  V30 3090 H 276.421 -1.29579 -2.68797 0
M  V30 3091 C 275.17 0.301426 -3.46391 0
M  V30 3092 H 274.493 -0.39595 -3.97834 0
M  V30 3093 H 275.933 0.6202 -4.1944 0
M  V30 3094 C 274.392 1.51616 -3.00856 0
M  V30 3095 O 274.922 2.61476 -3.04948 0
M  V30 3096 N 273.128 1.36969 -2.56296 0
M  V30 3097 H 272.675 0.475873 -2.53166 0
M  V30 3098 H 272.633 2.18368 -2.26192 0
M  V30 3099 N 276.405 1.4127 -0.698611 0
M  V30 3100 C 277.652 2.0118 -0.230865 0
M  V30 3101 C 277.98 1.55338 1.17049 0
M  V30 3102 O 277.235 0.756775 1.80475 0
M  V30 3103 C 277.534 3.56592 -0.240192 0
M  V30 3104 C 277.2 4.21955 -1.58948 0
M  V30 3105 C 275.862 4.39524 -1.95887 0
M  V30 3106 C 278.214 4.58576 -2.47704 0
M  V30 3107 C 275.542 4.90992 -3.2116 0
M  V30 3108 C 277.894 5.11435 -3.72313 0
M  V30 3109 C 276.558 5.27215 -4.0939 0
M  V30 3110 H 275.828 0.736169 -0.0844796 0
M  V30 3111 H 278.475 1.69124 -0.8983 0
M  V30 3112 H 276.78 3.88456 0.510797 0
M  V30 3113 H 278.477 4.00758 0.139296 0
M  V30 3114 H 275.067 4.08657 -1.29219 0
M  V30 3115 H 279.251 4.44654 -2.20445 0
M  V30 3116 H 274.507 5.01393 -3.49878 0
M  V30 3117 H 278.681 5.38752 -4.4127 0
M  V30 3118 H 276.308 5.66859 -5.06533 0
M  V30 3119 N 277.883 0.443576 1.51229 0
M  V30 3120 C 278.83 -0.364716 2.279 0
M  V30 3121 C 279.8 -1.0114 1.31757 0
M  V30 3122 O 280.985 -1.02912 1.60667 0
M  V30 3123 C 278.125 -1.45644 3.12861 0
M  V30 3124 C 277.238 -0.827269 4.24005 0
M  V30 3125 C 276.373 -1.89456 4.96266 0
M  V30 3126 C 275.412 -1.24416 5.99322 0
M  V30 3127 N 274.549 -2.25309 6.64966 0
M  V30 3128 H 279.389 0.295464 2.96532 0
M  V30 3129 H 276.926 0.157554 1.46254 0
M  V30 3130 H 278.884 -2.10076 3.6045 0
M  V30 3131 H 277.514 -2.08616 2.46331 0
M  V30 3132 H 276.566 -0.0710839 3.80334 0
M  V30 3133 H 277.878 -0.312481 4.9782 0
M  V30 3134 H 277.032 -2.61535 5.47434 0
M  V30 3135 H 275.771 -2.4431 4.22095 0
M  V30 3136 H 274.776 -0.508868 5.4744 0
M  V30 3137 H 276.001 -0.702882 6.75453 0
M  V30 3138 H 273.947 -2.79231 5.93604 0
M  V30 3139 H 273.864 -1.78739 7.34567 0
M  V30 3140 H 275.132 -2.96853 7.20763 0
M  V30 3141 N 279.361 -1.56624 0.175154 0
M  V30 3142 C 280.589 -2.01374 -0.474971 0
M  V30 3143 C 281.004 -1.05537 -1.56548 0
M  V30 3144 O 280.361 -0.0568668 -1.82411 0
M  V30 3145 C 280.412 -3.45923 -1.04975 0
M  V30 3146 O 280.133 -4.381 -0.00276605 0
M  V30 3147 C 281.634 -4.06093 -1.77773 0
M  V30 3148 H 278.854 -0.659962 -0.121206 0
M  V30 3149 H 281.398 -2.02601 0.27801 0
M  V30 3150 H 279.553 -3.45458 -1.75321 0
M  V30 3151 H 279.967 -5.22753 -0.427681 0
M  V30 3152 H 281.441 -5.09147 -2.13245 0
M  V30 3153 H 281.918 -3.48405 -2.67414 0
M  V30 3154 H 282.524 -4.10272 -1.12059 0
M  V30 3155 N 280.839 0.0985539 -1.57292 0
M  V30 3156 C 281.787 1.1387 -2.02821 0
M  V30 3157 C 282.781 1.41676 -0.928666 0
M  V30 3158 O 283.987 1.41398 -1.11385 0
M  V30 3159 H 280.362 0.384419 -0.646317 0
M  V30 3160 H 282.333 0.728347 -2.89375 0
M  V30 3161 C 281.082 2.45166 -2.46554 0
M  V30 3162 H 280.405 2.24613 -3.3074 0
M  V30 3163 H 281.845 3.16456 -2.8219 0
M  V30 3164 C 280.304 3.09216 -1.33742 0
M  V30 3165 O 280.834 3.96163 -0.66464 0
M  V30 3166 N 279.04 2.69413 -1.08928 0
M  V30 3167 H 278.587 1.98801 -1.63817 0
M  V30 3168 H 278.545 3.12594 -0.336458 0
M  V30 3169 N 282.317 1.53212 0.369288 0
M  V30 3170 C 283.247 1.82365 1.45826 0
M  V30 3171 C 284.228 0.676907 1.56051 0
M  V30 3172 O 285.413 0.926401 1.70679 0
M  V30 3173 C 282.543 2.01023 2.83208 0
M  V30 3174 C 281.497 3.1678 2.8781 0
M  V30 3175 C 280.823 3.20724 4.27832 0
M  V30 3176 C 282.123 4.55447 2.55667 0
M  V30 3177 H 283.817 2.73559 1.21678 0
M  V30 3178 H 281.363 1.3163 0.583911 0
M  V30 3179 H 283.316 2.20001 3.59413 0
M  V30 3180 H 282.04 1.06536 3.08736 0
M  V30 3181 H 280.699 2.97616 2.14056 0
M  V30 3182 H 280.347 2.23882 4.50429 0
M  V30 3183 H 280.047 3.98496 4.31827 0
M  V30 3184 H 281.571 3.41881 5.05915 0
M  V30 3185 H 282.985 4.74611 3.21586 0
M  V30 3186 H 281.382 5.35432 2.70984 0
M  V30 3187 H 282.452 4.60812 1.5093 0
M  V30 3188 N 283.795 -0.628877 1.44509 0
M  V30 3189 C 285.02 -1.42048 1.5112 0
M  V30 3190 C 285.445 -1.87594 0.137818 0
M  V30 3191 O 284.803 -1.58873 -0.873437 0
M  V30 3192 C 284.851 -2.61541 2.48251 0
M  V30 3193 O 283.955 -3.61453 1.98559 0
M  V30 3194 H 283.296 -0.424942 0.510216 0
M  V30 3195 H 285.826 -0.767374 1.89664 0
M  V30 3196 H 285.836 -3.09057 2.66361 0
M  V30 3197 H 284.511 -2.27736 3.48007 0
M  V30 3198 H 283.088 -3.20731 1.90227 0
M  V30 3199 N 285.273 -1.31445 -0.869486 0
M  V30 3200 C 286.522 -1.20517 -1.61736 0
M  V30 3201 C 286.835 0.235341 -1.94179 0
M  V30 3202 O 288.041 0.466312 -2.67465 0
M  V30 3203 C 286.497 -2.10982 -2.91573 0
M  V30 3204 C 286.105 -3.60032 -2.66611 0
M  V30 3205 C 287.849 -2.08856 -3.69567 0
M  V30 3206 C 285.756 -4.42503 -3.92358 0
M  V30 3207 H 284.686 -0.447493 -0.606849 0
M  V30 3208 H 287.337 -1.56303 -0.96133 0
M  V30 3209 H 285.719 -1.68095 -3.58553 0
M  V30 3210 H 286.893 -4.11167 -2.08035 0
M  V30 3211 H 285.208 -3.64139 -2.0197 0
M  V30 3212 H 287.805 -2.67716 -4.62852 0
M  V30 3213 H 288.148 -1.07582 -4.02159 0
M  V30 3214 H 288.681 -2.49945 -3.09471 0
M  V30 3215 H 285.42 -5.44533 -3.64916 0
M  V30 3216 H 284.94 -3.96125 -4.50383 0
M  V30 3217 H 286.619 -4.54741 -4.60238 0
M  V30 3218 N 286.751 1.08385 -1.14413 0
M  V30 3219 C 287.981 1.8425 -0.934644 0
M  V30 3220 C 288.389 1.81907 0.520234 0
M  V30 3221 O 287.732 1.22126 1.37226 0
M  V30 3222 C 287.794 3.32853 -1.35828 0
M  V30 3223 C 287.458 3.5893 -2.82875 0
M  V30 3224 C 288.455 3.53756 -3.80989 0
M  V30 3225 C 286.14 3.86934 -3.20293 0
M  V30 3226 C 288.134 3.76216 -5.14529 0
M  V30 3227 C 285.821 4.09047 -4.54008 0
M  V30 3228 C 286.819 4.03682 -5.50936 0
M  V30 3229 O 286.507 4.25214 -6.82238 0
M  V30 3230 H 286.239 0.588502 -0.332628 0
M  V30 3231 H 288.793 1.37792 -1.52324 0
M  V30 3232 H 287.023 3.8007 -0.713019 0
M  V30 3233 H 288.712 3.90154 -1.11957 0
M  V30 3234 H 289.478 3.32135 -3.53428 0
M  V30 3235 H 285.357 3.9023 -2.45442 0
M  V30 3236 H 288.901 3.71943 -5.90173 0
M  V30 3237 H 284.798 4.30151 -4.8129 0
M  V30 3238 H 285.566 4.42619 -6.88499 0
M  V30 3239 N 288.23 0.939286 1.26551 0
M  V30 3240 C 289.193 0.451987 2.24699 0
M  V30 3241 C 290.193 -0.435869 1.5478 0
M  V30 3242 O 291.383 -0.235314 1.72603 0
M  V30 3243 C 288.515 -0.348801 3.39111 0
M  V30 3244 H 289.708 1.3193 2.69322 0
M  V30 3245 H 287.261 0.721072 1.38673 0
M  V30 3246 H 287.996 -1.23444 2.99887 0
M  V30 3247 H 287.781 0.287945 3.91041 0
M  V30 3248 H 289.271 -0.679726 4.12031 0
M  V30 3249 N 289.708 -1.40897 0.706093 0
M  V30 3250 C 290.658 -2.27987 0.0240746 0
M  V30 3251 C 291.642 -1.42759 -0.742204 0
M  V30 3252 O 292.834 -1.65936 -0.615966 0
M  V30 3253 C 289.963 -3.31186 -0.903907 0
M  V30 3254 C 289.049 -4.2389 -0.133318 0
M  V30 3255 N 289.44 -4.98113 0.878444 0
M  V30 3256 C 287.738 -4.44485 -0.367269 0
M  V30 3257 C 288.439 -5.6604 1.34064 0
M  V30 3258 N 287.415 -5.39522 0.664565 0
M  V30 3259 H 291.217 -2.82812 0.799658 0
M  V30 3260 H 288.731 -1.53235 0.537845 0
M  V30 3261 H 290.728 -3.92413 -1.40775 0
M  V30 3262 H 289.388 -2.77922 -1.67897 0
M  V30 3263 H 290.399 -5.02364 1.25901 0
M  V30 3264 H 287.076 -4.02213 -1.1194 0
M  V30 3265 H 288.466 -6.35524 2.1808 0
M  V30 3266 N 291.186 -0.45159 -1.50991 0
M  V30 3267 C 292.463 0.170707 -1.94854 0
M  V30 3268 C 292.843 1.58788 -1.39103 0
M  V30 3269 O 292.191 2.20913 -0.583921 0
M  V30 3270 C 292.401 0.133929 -3.48743 0
M  V30 3271 C 293.749 0.33248 -4.23296 0
M  V30 3272 O 294.773 0.211403 -3.55572 0
M  V30 3273 O 293.632 0.57486 -5.43468 0
M  V30 3274 H 290.726 0.122264 -0.817912 0
M  V30 3275 H 293.272 -0.510594 -1.61836 0
M  V30 3276 H 292.044 -0.856283 -3.81816 0
M  V30 3277 H 291.667 0.857529 -3.88242 0
M  V30 3278 N 292.664 1.56529 -0.183458 0
M  V30 3279 C 293.612 2.19873 0.758845 0
M  V30 3280 C 294.606 1.16638 1.22849 0
M  V30 3281 O 295.812 1.3481 1.19274 0
M  V30 3282 H 292.187 0.7045 0.263029 0
M  V30 3283 H 294.158 2.97724 0.200755 0
M  V30 3284 C 292.907 2.86314 1.9728 0
M  V30 3285 H 292.23 3.65487 1.62047 0
M  V30 3286 H 293.67 3.3409 2.61075 0
M  V30 3287 C 292.129 1.86729 2.80418 0
M  V30 3288 O 292.659 1.36031 3.77966 0
M  V30 3289 N 290.865 1.55216 2.45675 0
M  V30 3290 H 290.412 1.96636 1.66409 0
M  V30 3291 H 290.37 0.888388 3.01588 0
M  V30 3292 N 294.142 -0.090211 1.57342 0
M  V30 3293 C 295.367 -0.810082 1.90925 0
M  V30 3294 C 295.792 -1.71248 0.778187 0
M  V30 3295 O 295.15 -1.79278 -0.269991 0
M  V30 3296 C 295.198 -1.59529 3.23393 0
M  V30 3297 O 294.302 -2.70461 3.11327 0
M  V30 3298 H 293.643 -0.222231 0.625707 0
M  V30 3299 H 296.173 -0.0639716 2.045 0
M  V30 3300 H 296.183 -1.97847 3.5682 0
M  V30 3301 H 294.858 -0.933055 4.05299 0
M  V30 3302 H 293.435 -2.35135 2.89423 0
M  V30 3303 N 295.62 -1.53406 -0.361157 0
M  V30 3304 C 296.869 -1.69022 -1.10066 0
M  V30 3305 C 297.182 -0.450838 -1.90333 0
M  V30 3306 O 298.388 -0.487617 -2.67085 0
M  V30 3307 C 296.844 -2.98812 -2.00598 0
M  V30 3308 C 296.452 -4.30027 -1.25621 0
M  V30 3309 C 298.196 -3.23795 -2.74513 0
M  V30 3310 C 296.103 -5.50903 -2.1508 0
M  V30 3311 H 295.033 -0.629776 -0.414606 0
M  V30 3312 H 297.684 -1.79907 -0.361348 0
M  V30 3313 H 296.066 -2.8174 -2.78278 0
M  V30 3314 H 297.24 -4.57745 -0.529739 0
M  V30 3315 H 295.555 -4.11522 -0.635496 0
M  V30 3316 H 298.152 -4.11289 -3.41681 0
M  V30 3317 H 298.495 -2.40045 -3.40123 0
M  V30 3318 H 299.028 -3.41561 -2.03914 0
M  V30 3319 H 295.767 -6.37143 -1.54041 0
M  V30 3320 H 295.287 -5.27459 -2.85565 0
M  V30 3321 H 296.966 -5.85865 -2.74538 0
M  V30 3322 N 297.098 0.621204 -1.44841 0
M  V30 3323 C 298.346 1.37783 -1.47852 0
M  V30 3324 C 298.667 1.94653 -0.116224 0
M  V30 3325 O 297.937 1.76367 0.852737 0
M  V30 3326 H 296.517 0.511453 -0.544449 0
M  V30 3327 H 299.179 0.730446 -1.80694 0
M  V30 3328 H 298.275 2.20414 -2.20961 0
M  V30 3329 N 298.576 1.31904 0.862503 0
M  V30 3330 C 299.816 1.23324 1.63004 0
M  V30 3331 C 300.18 -0.203724 1.90916 0
M  V30 3332 O 301.381 -0.413132 2.65606 0
M  V30 3333 C 299.652 2.06116 2.91978 0
M  V30 3334 S 301.211 2.14478 3.82812 0
M  V30 3335 H 298.029 0.439117 0.559193 0
M  V30 3336 H 300.631 1.66658 1.02202 0
M  V30 3337 H 299.335 3.09593 2.69407 0
M  V30 3338 H 298.866 1.6353 3.57801 0
M  V30 3339 H 300.881 1.28855 4.79177 0
M  V30 3340 N 300.054 -1.07777 1.14986 0
M  V30 3341 C 301.303 -1.79669 0.916617 0
M  V30 3342 C 301.616 -1.87474 -0.557917 0
M  V30 3343 O 302.822 -2.55845 -0.908617 0
M  V30 3344 C 301.278 -3.22848 1.59051 0
M  V30 3345 C 300.886 -3.23257 3.10176 0
M  V30 3346 C 302.63 -3.99379 1.43864 0
M  V30 3347 C 300.537 -4.61063 3.70372 0
M  V30 3348 H 299.467 -0.673349 0.33929 0
M  V30 3349 H 302.118 -1.21003 1.37951 0
M  V30 3350 H 300.5 -3.8168 1.0553 0
M  V30 3351 H 301.674 -2.74095 3.70417 0
M  V30 3352 H 299.989 -2.60222 3.25074 0
M  V30 3353 H 302.586 -5.0122 1.86232 0
M  V30 3354 H 302.929 -4.14511 0.385564 0
M  V30 3355 H 303.462 -3.47032 1.94457 0
M  V30 3356 H 300.201 -4.51135 4.7556 0
M  V30 3357 H 299.721 -5.1048 3.14913 0
M  V30 3358 H 301.4 -5.30034 3.71043 0
M  V30 3359 N 301.532 -0.945985 -1.26051 0
M  V30 3360 C 302.48 -0.450259 -2.282 0
M  V30 3361 C 303.474 0.47497 -1.62605 0
M  V30 3362 O 304.68 0.352653 -1.76512 0
M  V30 3363 H 301.055 -0.127081 -0.741184 0
M  V30 3364 H 303.026 -1.32422 -2.67408 0
M  V30 3365 C 301.775 0.26467 -3.46691 0
M  V30 3366 H 301.098 -0.438123 -3.97392 0
M  V30 3367 H 302.538 0.575678 -4.20074 0
M  V30 3368 C 300.997 1.48416 -3.02447 0
M  V30 3369 O 301.527 2.58227 -3.07704 0
M  V30 3370 N 299.733 1.34243 -2.57735 0
M  V30 3371 H 299.28 0.448994 -2.53657 0
M  V30 3372 H 299.238 2.15957 -2.28495 0
M  V30 3373 N 303.011 1.40521 -0.713556 0
M  V30 3374 C 303.941 2.33381 -0.0743864 0
M  V30 3375 C 304.922 1.52784 0.747735 0
M  V30 3376 O 306.107 1.81258 0.697071 0
M  V30 3377 C 303.237 3.36748 0.849598 0
M  V30 3378 C 302.191 4.27793 0.133247 0
M  V30 3379 C 301.517 5.21679 1.17281 0
M  V30 3380 C 302.817 5.12415 -1.01134 0
M  V30 3381 H 304.511 2.87081 -0.850007 0
M  V30 3382 H 302.057 1.38034 -0.410201 0
M  V30 3383 H 304.01 4.00648 1.30612 0
M  V30 3384 H 302.734 2.81439 1.65709 0
M  V30 3385 H 301.393 3.65342 -0.303426 0
M  V30 3386 H 301.041 4.62677 1.9733 0
M  V30 3387 H 300.741 5.83435 0.698397 0
M  V30 3388 H 302.265 5.88456 1.62947 0
M  V30 3389 H 303.679 5.69781 -0.634274 0
M  V30 3390 H 302.076 5.83203 -1.41399 0
M  V30 3391 H 303.146 4.48514 -1.84292 0
M  V30 3392 N 304.489 0.459591 1.5075 0
M  V30 3393 C 305.714 -0.0996819 2.0716 0
M  V30 3394 C 306.139 -1.33761 1.32249 0
M  V30 3395 O 305.497 -1.77551 0.366786 0
M  V30 3396 C 305.545 -0.378226 3.58611 0
M  V30 3397 O 304.649 -1.46081 3.85661 0
M  V30 3398 H 303.99 0.00791392 0.663953 0
M  V30 3399 H 306.52 0.647329 1.9409 0
M  V30 3400 H 306.53 -0.622135 4.03229 0
M  V30 3401 H 305.205 0.526439 4.12555 0
M  V30 3402 H 303.782 -1.20511 3.5289 0
M  V30 3403 N 305.967 -1.56429 0.191757 0
M  V30 3404 C 306.915 -2.20273 -0.747174 0
M  V30 3405 C 307.909 -1.17288 -1.22229 0
M  V30 3406 O 309.115 -1.35441 -1.18557 0
M  V30 3407 H 305.49 -0.705885 -0.259289 0
M  V30 3408 H 307.461 -2.97826 -0.184963 0
M  V30 3409 C 306.21 -2.87356 -1.95759 0
M  V30 3410 H 305.533 -3.66341 -1.60106 0
M  V30 3411 H 306.973 -3.3547 -2.59299 0
M  V30 3412 C 305.432 -1.88213 -2.79423 0
M  V30 3413 O 305.962 -1.38033 -3.7724 0
M  V30 3414 N 304.168 -1.56516 -2.44849 0
M  V30 3415 H 303.715 -1.97516 -1.65364 0
M  V30 3416 H 303.673 -0.904369 -3.01112 0
M  V30 3417 N 307.445 0.0818655 -1.57387 0
M  V30 3418 C 308.722 0.815343 -1.77796 0
M  V30 3419 C 309.102 1.96289 -0.77679 0
M  V30 3420 O 308.45 2.27691 0.192106 0
M  V30 3421 C 308.66 1.29765 -3.23978 0
M  V30 3422 C 310.008 1.7351 -3.8753 0
M  V30 3423 O 311.032 1.39356 -3.27808 0
M  V30 3424 O 309.891 2.36708 -4.92576 0
M  V30 3425 H 306.985 0.389914 -0.729312 0
M  V30 3426 H 309.531 0.0627213 -1.69584 0
M  V30 3427 H 308.303 0.47608 -3.88393 0
M  V30 3428 H 307.926 2.11189 -3.36875 0
M  V30 3429 N 308.923 1.53595 0.353017 0
M  V30 3430 C 310.171 1.70049 1.09215 0
M  V30 3431 C 310.492 0.461406 1.89463 0
M  V30 3432 O 309.762 -0.524633 1.88744 0
M  V30 3433 H 308.342 0.626912 0.40619 0
M  V30 3434 H 311.004 1.90822 0.396585 0
M  V30 3435 H 310.1 2.56718 1.77488 0
M  V30 3436 N 310.401 -0.613514 1.45168 0
M  V30 3437 C 311.348 -1.72456 1.53387 0
M  V30 3438 C 312.318 -1.6169 0.380191 0
M  V30 3439 O 313.503 -1.81356 0.592836 0
M  V30 3440 C 310.643 -3.10753 1.50088 0
M  V30 3441 C 309.756 -3.32368 2.75963 0
M  V30 3442 C 308.891 -4.60737 2.64376 0
M  V30 3443 C 307.93 -4.7559 3.85332 0
M  V30 3444 N 307.067 -5.95253 3.72315 0
M  V30 3445 H 311.907 -1.64768 2.48305 0
M  V30 3446 H 309.444 -0.803503 1.23216 0
M  V30 3447 H 311.402 -3.90758 1.46164 0
M  V30 3448 H 310.032 -3.17413 0.587243 0
M  V30 3449 H 309.084 -2.4618 2.89999 0
M  V30 3450 H 310.396 -3.39218 3.65695 0
M  V30 3451 H 309.55 -5.48928 2.58385 0
M  V30 3452 H 308.289 -4.56275 1.72233 0
M  V30 3453 H 307.294 -3.85824 3.91688 0
M  V30 3454 H 308.519 -4.81854 4.78533 0
M  V30 3455 H 306.465 -5.91847 2.82937 0
M  V30 3456 H 306.382 -6.03236 4.55677 0
M  V30 3457 H 307.65 -6.85958 3.70246 0
M  V30 3458 N 311.879 -1.3236 -0.855495 0
M  V30 3459 C 312.809 -1.23833 -1.97958 0
M  V30 3460 C 313.79 -0.122361 -1.69659 0
M  V30 3461 O 314.975 -0.30939 -1.9172 0
M  V30 3462 C 312.105 -0.959772 -3.33775 0
M  V30 3463 C 311.059 -2.03689 -3.76424 0
M  V30 3464 C 310.385 -1.61075 -5.09862 0
M  V30 3465 C 311.685 -3.4518 -3.9198 0
M  V30 3466 H 313.379 -2.1788 -2.0535 0
M  V30 3467 H 310.925 -1.04891 -0.986605 0
M  V30 3468 H 312.878 -0.886678 -4.11966 0
M  V30 3469 H 311.602 0.0163404 -3.26596 0
M  V30 3470 H 310.261 -2.10012 -3.00484 0
M  V30 3471 H 309.909 -0.622107 -4.99138 0
M  V30 3472 H 309.609 -2.33143 -5.39368 0
M  V30 3473 H 311.133 -1.55201 -5.90546 0
M  V30 3474 H 312.547 -3.4145 -4.60526 0
M  V30 3475 H 310.944 -4.1559 -4.32903 0
M  V30 3476 H 312.014 -3.84903 -2.94919 0
M  V30 3477 N 313.357 1.07166 -1.15556 0
M  V30 3478 C 314.287 2.16403 -0.877046 0
M  V30 3479 C 315.268 1.69217 0.173111 0
M  V30 3480 O 316.453 1.94181 0.027084 0
M  V30 3481 C 313.583 3.45349 -0.367632 0
M  V30 3482 C 312.537 4.05995 -1.35468 0
M  V30 3483 C 311.863 5.30045 -0.704038 0
M  V30 3484 C 313.163 4.45804 -2.72132 0
M  V30 3485 H 314.857 2.39959 -1.79053 0
M  V30 3486 H 312.403 1.15325 -0.862331 0
M  V30 3487 H 314.356 4.21095 -0.160317 0
M  V30 3488 H 313.08 3.21385 0.581326 0
M  V30 3489 H 311.739 3.32296 -1.54839 0
M  V30 3490 H 311.387 5.02373 0.251128 0
M  V30 3491 H 311.087 5.71579 -1.36277 0
M  V30 3492 H 312.611 6.08495 -0.50654 0
M  V30 3493 H 314.025 5.12671 -2.56595 0
M  V30 3494 H 312.422 4.98296 -3.34397 0
M  V30 3495 H 313.492 3.57083 -3.28054 0
M  V30 3496 N 314.835 0.952656 1.25548 0
M  V30 3497 C 316.081 0.607272 1.93494 0
M  V30 3498 C 316.414 -0.853245 1.74452 0
M  V30 3499 O 315.689 -1.61194 1.08843 0
M  V30 3500 C 315.972 0.96435 3.46947 0
M  V30 3501 C 315.825 2.48045 3.75225 0
M  V30 3502 C 317.144 0.487987 4.37386 0
M  V30 3503 H 314.263 0.222096 0.702739 0
M  V30 3504 H 316.905 1.18895 1.48203 0
M  V30 3505 H 315.055 0.469361 3.85654 0
M  V30 3506 H 316.727 3.04905 3.46166 0
M  V30 3507 H 314.97 2.919 3.209 0
M  V30 3508 H 315.641 2.6808 4.82532 0
M  V30 3509 H 318.117 0.912558 4.0597 0
M  V30 3510 H 316.993 0.766547 5.43521 0
M  V30 3511 H 317.254 -0.612063 4.37843 0
M  V30 3512 N 316.313 -1.40141 0.720998 0
M  V30 3513 C 317.541 -2.05096 0.272656 0
M  V30 3514 C 317.956 -1.54334 -1.0875 0
M  V30 3515 O 317.313 -0.702211 -1.6845 0
M  V30 3516 C 317.364 -3.60636 0.249835 0
M  V30 3517 O 317.085 -4.09526 1.55629 0
M  V30 3518 C 318.586 -4.42772 -0.216396 0
M  V30 3519 H 315.806 -0.659897 0.121558 0
M  V30 3520 H 318.35 -1.79449 0.980723 0
M  V30 3521 H 316.505 -3.85232 -0.409237 0
M  V30 3522 H 316.919 -5.03758 1.4604 0
M  V30 3523 H 318.393 -5.51702 -0.181212 0
M  V30 3524 H 318.87 -4.20756 -1.25941 0
M  V30 3525 H 319.476 -4.23294 0.412596 0
M  V30 3526 N 317.792 -0.46758 -1.50504 0
M  V30 3527 C 319.017 0.0886943 -2.0721 0
M  V30 3528 C 319.442 1.33057 -1.32956 0
M  V30 3529 O 318.8 1.77354 -0.376197 0
M  V30 3530 C 318.848 0.359202 -3.58806 0
M  V30 3531 O 317.952 1.44034 -3.8643 0
M  V30 3532 H 317.293 -0.0114349 -0.663902 0
M  V30 3533 H 319.823 -0.657613 -1.93744 0
M  V30 3534 H 319.833 0.600742 -4.03553 0
M  V30 3535 H 318.508 -0.548311 -4.1227 0
M  V30 3536 H 317.085 1.18638 -3.53524 0
M  V30 3537 N 319.27 1.56325 -0.20005 0
M  V30 3538 C 320.495 2.02548 0.44597 0
M  V30 3539 C 320.92 1.07922 1.5406 0
M  V30 3540 O 320.278 0.0635775 1.81188 0
M  V30 3541 C 320.326 3.47175 0.974761 0
M  V30 3542 O 319.43 3.55671 2.08739 0
M  V30 3543 H 318.771 0.655862 0.103638 0
M  V30 3544 H 321.301 2.02201 -0.312381 0
M  V30 3545 H 321.311 3.87067 1.2901 0
M  V30 3546 H 319.986 4.15538 0.17347 0
M  V30 3547 H 318.563 3.27657 1.78032 0
M  V30 3548 N 320.748 -0.0735177 1.57428 0
M  V30 3549 C 321.976 -0.785969 1.9139 0
M  V30 3550 C 322.391 -1.71207 0.795847 0
M  V30 3551 O 321.748 -1.81033 -0.230915 0
M  V30 3552 C 321.799 -1.58107 3.25091 0
M  V30 3553 O 321.52 -0.6922 4.32597 0
M  V30 3554 C 323.021 -2.39467 3.73055 0
M  V30 3555 H 320.241 -0.223558 0.632663 0
M  V30 3556 H 322.785 -0.044302 2.04452 0
M  V30 3557 H 320.94 -2.27503 3.13562 0
M  V30 3558 H 321.354 -1.24504 5.09508 0
M  V30 3559 H 322.828 -2.90716 4.69242 0
M  V30 3560 H 323.305 -3.18913 3.01979 0
M  V30 3561 H 323.911 -1.7523 3.87523 0
M  V30 3562 N 322.226 -1.5378 -0.344866 0
M  V30 3563 C 323.173 -1.81676 -1.42346 0
M  V30 3564 C 324.143 -0.662376 -1.52321 0
M  V30 3565 O 325.328 -0.906675 -1.67881 0
M  V30 3566 C 322.468 -2.03087 -2.79015 0
M  V30 3567 C 321.581 -3.30799 -2.77842 0
M  V30 3568 C 320.716 -3.42285 -4.0622 0
M  V30 3569 C 319.755 -4.6395 -3.9927 0
M  V30 3570 N 318.892 -4.72477 -5.19336 0
M  V30 3571 H 323.732 -2.73703 -1.17858 0
M  V30 3572 H 321.269 -1.35568 -0.570949 0
M  V30 3573 H 323.227 -2.1349 -3.58438 0
M  V30 3574 H 321.857 -1.14375 -3.01858 0
M  V30 3575 H 320.909 -3.29244 -1.90533 0
M  V30 3576 H 322.221 -4.20314 -2.68584 0
M  V30 3577 H 321.375 -3.52113 -4.94066 0
M  V30 3578 H 320.114 -2.50823 -4.18258 0
M  V30 3579 H 319.119 -4.54201 -3.09809 0
M  V30 3580 H 320.344 -5.56775 -3.88817 0
M  V30 3581 H 318.29 -3.83924 -5.3192 0
M  V30 3582 H 318.207 -5.55927 -5.12329 0
M  V30 3583 H 319.475 -4.86613 -6.08957 0
M  V30 3584 N 323.704 0.605807 -1.45491 0
M  V30 3585 C 324.952 1.36207 -1.49305 0
M  V30 3586 C 325.273 1.94519 -0.136863 0
M  V30 3587 O 324.543 1.77261 0.833983 0
M  V30 3588 H 323.123 0.50565 -0.549843 0
M  V30 3589 H 325.785 0.711239 -1.81459 0
M  V30 3590 H 324.881 2.18058 -2.23287 0
M  V30 3591 N 325.182 1.32811 0.848464 0
M  V30 3592 C 326.41 1.26739 1.63538 0
M  V30 3593 C 326.825 -0.163484 1.88091 0
M  V30 3594 O 326.182 -1.10258 1.45429 0
M  V30 3595 C 326.233 2.03013 2.99112 0
M  V30 3596 O 325.954 3.40518 2.75643 0
M  V30 3597 C 327.455 2.04038 3.93552 0
M  V30 3598 H 324.675 0.437024 0.509167 0
M  V30 3599 H 327.219 1.75033 1.05753 0
M  V30 3600 H 325.374 1.58426 3.53525 0
M  V30 3601 H 325.788 3.79635 3.61908 0
M  V30 3602 H 327.262 2.61877 4.85926 0
M  V30 3603 H 327.739 1.0282 4.26995 0
M  V30 3604 H 328.345 2.486 3.45077 0
M  V30 3605 N 326.66 -1.06551 1.16123 0
M  V30 3606 C 327.909 -1.78687 0.935622 0
M  V30 3607 C 328.222 -1.88056 -0.538001 0
M  V30 3608 O 329.428 -2.56794 -0.88143 0
M  V30 3609 C 327.884 -3.21143 1.62466 0
M  V30 3610 C 327.492 -3.19949 3.13587 0
M  V30 3611 C 329.236 -3.9783 1.48092 0
M  V30 3612 C 327.143 -4.57108 3.75241 0
M  V30 3613 H 326.073 -0.669712 0.346412 0
M  V30 3614 H 328.724 -1.19534 1.39226 0
M  V30 3615 H 327.106 -3.80539 1.09572 0
M  V30 3616 H 328.28 -2.70151 3.73303 0
M  V30 3617 H 326.595 -2.5676 3.27816 0
M  V30 3618 H 329.192 -4.99217 1.91538 0
M  V30 3619 H 329.535 -4.14078 0.429507 0
M  V30 3620 H 330.068 -3.4495 1.98127 0
M  V30 3621 H 326.807 -4.46065 4.80319 0
M  V30 3622 H 326.327 -5.07111 3.20309 0
M  V30 3623 H 328.006 -5.26069 3.76644 0
M  V30 3624 N 328.138 -0.959301 -1.25041 0
M  V30 3625 C 329.387 -0.612254 -1.92183 0
M  V30 3626 C 329.7 0.855347 -1.75907 0
M  V30 3627 O 330.906 1.31256 -2.37664 0
M  V30 3628 C 329.362 -1.04435 -3.44414 0
M  V30 3629 C 328.97 -2.53482 -3.69393 0
M  V30 3630 C 330.714 -0.770055 -4.17457 0
M  V30 3631 C 328.621 -2.90468 -5.15153 0
M  V30 3632 H 327.551 -0.225279 -0.719559 0
M  V30 3633 H 330.202 -1.16438 -1.41825 0
M  V30 3634 H 328.584 -0.4206 -3.9376 0
M  V30 3635 H 329.758 -3.20916 -3.30681 0
M  V30 3636 H 328.073 -2.78432 -3.0962 0
M  V30 3637 H 330.67 -1.02249 -5.24832 0
M  V30 3638 H 331.013 0.293611 -4.15263 0
M  V30 3639 H 331.546 -1.35437 -3.74034 0
M  V30 3640 H 328.285 -3.95871 -5.22462 0
M  V30 3641 H 327.805 -2.27711 -5.54894 0
M  V30 3642 H 329.484 -2.79914 -5.83315 0
M  V30 3643 N 329.616 1.39756 -0.72842 0
M  V30 3644 C 331.032 1.5442 -0.403308 0
M  V30 3645 C 331.232 1.69694 1.08656 0
M  V30 3646 O 330.288 1.69373 1.87267 0
M  V30 3647 C 331.601 2.76555 -1.18058 0
M  V30 3648 C 333.149 2.90384 -1.16815 0
M  V30 3649 C 333.624 4.15449 -1.92785 0
M  V30 3650 N 335.115 4.22475 -1.89918 0
M  V30 3651 C 335.85 5.1818 -2.45514 0
M  V30 3652 N 335.346 6.19714 -3.09719 0
M  V30 3653 N 337.139 5.1035 -2.35584 0
M  V30 3654 H 329.29 1.28089 -1.69431 0
M  V30 3655 H 331.553 0.620327 -0.716867 0
M  V30 3656 H 331.259 2.7159 -2.23455 0
M  V30 3657 H 331.133 3.69033 -0.780662 0
M  V30 3658 H 333.52 2.94846 -0.12234 0
M  V30 3659 H 333.601 1.98988 -1.6074 0
M  V30 3660 H 333.245 4.11749 -2.97364 0
M  V30 3661 H 333.175 5.05877 -1.46272 0
M  V30 3662 H 335.666 3.49743 -1.43138 0
M  V30 3663 H 335.979 6.8919 -3.49625 0
M  V30 3664 H 334.324 6.20121 -3.13807 0
M  V30 3665 H 337.515 4.2996 -1.85072 0
M  V30 3666 H 337.688 5.84761 -2.79211 0
M  V30 3667 N 331.094 0.475555 1.50254 0
M  V30 3668 C 332.024 -0.30611 2.31485 0
M  V30 3669 C 333.005 -0.986228 1.38591 0
M  V30 3670 O 334.19 -0.982541 1.67511 0
M  V30 3671 C 331.32 -1.38588 3.1845 0
M  V30 3672 C 330.274 -0.827115 4.19932 0
M  V30 3673 C 329.6 -2.00551 4.95665 0
M  V30 3674 C 330.9 0.16463 5.2204 0
M  V30 3675 H 332.594 0.371866 2.97082 0
M  V30 3676 H 330.14 0.180282 1.42867 0
M  V30 3677 H 332.093 -1.94023 3.74076 0
M  V30 3678 H 330.817 -2.09269 2.50747 0
M  V30 3679 H 329.476 -0.294702 3.65414 0
M  V30 3680 H 329.124 -2.6994 4.2443 0
M  V30 3681 H 328.824 -1.63784 5.64313 0
M  V30 3682 H 330.348 -2.56468 5.54127 0
M  V30 3683 H 331.762 -0.300699 5.72511 0
M  V30 3684 H 330.159 0.446813 5.98434 0
M  V30 3685 H 331.229 1.08905 4.72512 0
M  V30 3686 N 332.573 -1.56217 0.208337 0
M  V30 3687 C 333.82 -1.97949 -0.42692 0
M  V30 3688 C 334.148 -1.09562 -1.60706 0
M  V30 3689 O 333.403 -0.137616 -1.95216 0
M  V30 3690 C 333.702 -3.45441 -0.916797 0
M  V30 3691 C 333.368 -4.50646 0.151391 0
M  V30 3692 C 332.03 -4.79139 0.444867 0
M  V30 3693 C 334.382 -5.13811 0.874492 0
M  V30 3694 C 331.71 -5.68084 1.46619 0
M  V30 3695 C 334.062 -6.03861 1.88506 0
M  V30 3696 C 332.726 -6.30704 2.18559 0
M  V30 3697 H 331.996 -0.724345 -0.156221 0
M  V30 3698 H 334.643 -1.89006 0.308084 0
M  V30 3699 H 332.948 -3.51521 -1.73032 0
M  V30 3700 H 334.645 -3.75094 -1.41794 0
M  V30 3701 H 331.235 -4.28511 -0.0875068 0
M  V30 3702 H 335.419 -4.91879 0.660996 0
M  V30 3703 H 330.675 -5.87151 1.7048 0
M  V30 3704 H 334.849 -6.51861 2.45051 0
M  V30 3705 H 332.476 -6.99424 2.97843 0
M  V30 3706 N 334.051 0.0651679 -1.57465 0
M  V30 3707 C 334.999 1.09542 -2.05191 0
M  V30 3708 C 335.993 1.39675 -0.958509 0
M  V30 3709 O 337.199 1.39003 -1.14359 0
M  V30 3710 H 333.574 0.370623 -0.654326 0
M  V30 3711 H 335.545 0.666802 -2.90854 0
M  V30 3712 C 334.294 2.39881 -2.51699 0
M  V30 3713 H 333.617 2.17547 -3.3543 0
M  V30 3714 H 335.057 3.104 -2.88839 0
M  V30 3715 C 333.516 3.0631 -1.40271 0
M  V30 3716 O 334.046 3.94664 -0.748523 0
M  V30 3717 N 332.252 2.67041 -1.14618 0
M  V30 3718 H 331.799 1.95281 -1.67997 0
M  V30 3719 H 331.757 3.1181 -0.402688 0
M  V30 3720 N 335.529 1.53961 0.336706 0
M  V30 3721 C 336.757 1.75483 1.09605 0
M  V30 3722 C 337.172 0.4972 1.82136 0
M  V30 3723 O 336.529 -0.53149 1.74589 0
M  V30 3724 C 336.58 2.93943 2.10428 0
M  V30 3725 O 336.301 4.14842 1.40846 0
M  V30 3726 C 337.802 3.27571 2.98684 0
M  V30 3727 H 335.022 0.586166 0.326574 0
M  V30 3728 H 337.566 2.00808 0.38683 0
M  V30 3729 H 335.721 2.70929 2.76905 0
M  V30 3730 H 336.135 4.81383 2.08255 0
M  V30 3731 H 337.609 4.13791 3.6535 0
M  V30 3732 H 338.086 2.44168 3.65074 0
M  V30 3733 H 338.692 3.52615 2.37787 0
M  V30 3734 N 337.007 -0.598083 1.45811 0
M  V30 3735 C 338.254 -1.35681 1.50323 0
M  V30 3736 C 338.582 -1.9393 0.148739 0
M  V30 3737 O 337.837 -1.76094 -0.853787 0
M  V30 3738 C 338.136 -2.51669 2.53766 0
M  V30 3739 C 337.802 -2.11508 3.98215 0
M  V30 3740 C 336.464 -2.0027 4.37545 0
M  V30 3741 C 338.816 -1.80308 4.89018 0
M  V30 3742 C 336.144 -1.56067 5.65562 0
M  V30 3743 C 338.496 -1.37589 6.17456 0
M  V30 3744 C 337.16 -1.24916 6.55708 0
M  V30 3745 H 336.43 -0.496492 0.550069 0
M  V30 3746 H 339.077 -0.675052 1.79207 0
M  V30 3747 H 337.382 -3.25225 2.18486 0
M  V30 3748 H 339.079 -3.09895 2.54492 0
M  V30 3749 H 335.669 -2.21185 3.67117 0
M  V30 3750 H 339.853 -1.87884 4.59362 0
M  V30 3751 H 335.109 -1.44886 5.93985 0
M  V30 3752 H 339.283 -1.12495 6.87254 0
M  V30 3753 H 336.91 -0.904386 7.54801 0
M  V30 3754 N 338.485 -1.33259 -0.841409 0
M  V30 3755 C 339.762 -1.15174 -1.58096 0
M  V30 3756 C 340.142 0.282858 -2.09196 0
M  V30 3757 O 339.49 1.28151 -1.89181 0
M  V30 3758 C 339.7 -2.1907 -2.71679 0
M  V30 3759 C 341.048 -2.53093 -3.40924 0
M  V30 3760 O 342.072 -2.17717 -2.81918 0
M  V30 3761 O 340.931 -3.1379 -4.47435 0
M  V30 3762 H 338.025 -0.445303 -0.696875 0
M  V30 3763 H 340.571 -1.44833 -0.884385 0
M  V30 3764 H 339.343 -3.15443 -2.31541 0
M  V30 3765 H 338.966 -1.90481 -3.49002 0
M  V30 3766 N 339.963 1.05934 -1.16686 0
M  V30 3767 C 341.211 1.78447 -0.948744 0
M  V30 3768 C 341.532 1.87813 0.524523 0
M  V30 3769 O 340.802 1.38945 1.38098 0
M  V30 3770 H 339.382 0.660971 -0.348033 0
M  V30 3771 H 342.044 1.27947 -1.47022 0
M  V30 3772 H 341.14 2.80394 -1.37061 0
M  V30 3773 N 341.441 0.965919 1.2453 0
M  V30 3774 C 342.669 0.644385 1.96609 0
M  V30 3775 C 343.084 -0.785823 1.71669 0
M  V30 3776 O 342.441 -1.52703 0.999399 0
M  V30 3777 C 342.492 0.907375 3.49927 0
M  V30 3778 O 342.213 2.28136 3.74013 0
M  V30 3779 C 343.714 0.599784 4.39224 0
M  V30 3780 H 340.934 0.240588 0.626385 0
M  V30 3781 H 343.478 1.29337 1.58405 0
M  V30 3782 H 341.633 0.304631 3.862 0
M  V30 3783 H 342.047 2.36002 4.68405 0
M  V30 3784 H 343.521 0.834263 5.45659 0
M  V30 3785 H 343.998 -0.465921 4.36722 0
M  V30 3786 H 344.604 1.18235 4.08535 0
M  V30 3787 N 342.919 -1.39368 0.735821 0
M  V30 3788 C 343.849 -2.33234 0.111506 0
M  V30 3789 C 344.83 -1.53954 -0.723334 0
M  V30 3790 O 346.015 -1.82344 -0.668147 0
M  V30 3791 C 343.145 -3.38057 -0.795917 0
M  V30 3792 C 342.099 -4.2795 -0.065172 0
M  V30 3793 C 341.425 -5.23479 -1.08967 0
M  V30 3794 C 342.725 -5.10741 1.09273 0
M  V30 3795 H 344.419 -2.85692 0.895571 0
M  V30 3796 H 341.965 -1.37364 0.432109 0
M  V30 3797 H 343.918 -4.02675 -1.24221 0
M  V30 3798 H 342.642 -2.8404 -1.61211 0
M  V30 3799 H 341.301 -3.64813 0.361511 0
M  V30 3800 H 340.949 -4.65758 -1.89944 0
M  V30 3801 H 340.649 -5.84472 -0.605489 0
M  V30 3802 H 342.173 -5.90974 -1.53565 0
M  V30 3803 H 343.587 -5.68699 0.724841 0
M  V30 3804 H 341.984 -5.8088 1.50659 0
M  V30 3805 H 343.054 -4.45525 1.91404 0
M  V30 3806 N 344.397 -0.483516 -1.5 0
M  V30 3807 C 345.327 0.293829 -2.31644 0
M  V30 3808 C 346.308 0.978864 -1.39112 0
M  V30 3809 O 347.493 0.973644 -1.68029 0
M  V30 3810 C 344.623 1.36897 -3.19181 0
M  V30 3811 C 343.577 0.804833 -4.20365 0
M  V30 3812 C 342.903 1.9792 -4.96721 0
M  V30 3813 C 344.203 -0.192313 -5.21946 0
M  V30 3814 H 345.897 -0.387616 -2.9688 0
M  V30 3815 H 343.443 -0.187856 -1.42769 0
M  V30 3816 H 345.396 1.92037 -3.751 0
M  V30 3817 H 344.12 2.07936 -2.51853 0
M  V30 3818 H 342.779 0.275319 -3.65565 0
M  V30 3819 H 342.427 2.67686 -4.25856 0
M  V30 3820 H 342.127 1.60789 -5.65173 0
M  V30 3821 H 343.651 2.53526 -5.55479 0
M  V30 3822 H 345.065 0.270333 -5.72662 0
M  V30 3823 H 343.462 -0.478543 -5.98189 0
M  V30 3824 H 344.532 -1.11409 -4.71928 0
M  V30 3825 N 345.875 1.56104 -0.216619 0
M  V30 3826 C 346.823 2.21434 0.712036 0
M  V30 3827 C 347.817 1.19218 1.20348 0
M  V30 3828 O 349.023 1.3731 1.16387 0
M  V30 3829 H 345.398 0.70992 0.248026 0
M  V30 3830 H 347.369 2.98083 0.137558 0
M  V30 3831 C 346.118 2.90434 1.91163 0
M  V30 3832 H 345.441 3.68842 1.54258 0
M  V30 3833 H 346.881 3.39552 2.5393 0
M  V30 3834 C 345.34 1.92635 2.76394 0
M  V30 3835 O 345.87 1.44017 3.74996 0
M  V30 3836 N 344.076 1.60392 2.42328 0
M  V30 3837 H 343.623 2.00122 1.622 0
M  V30 3838 H 343.581 0.952159 2.99635 0
M  V30 3839 N 347.353 -0.0568162 1.57498 0
M  V30 3840 C 348.263 -1.08346 2.08083 0
M  V30 3841 C 349.279 -1.41439 1.01346 0
M  V30 3842 O 350.455 -1.51316 1.32912 0
M  V30 3843 C 347.52 -2.37352 2.52715 0
M  V30 3844 C 346.581 -2.11093 3.73816 0
M  V30 3845 C 345.814 -3.33949 4.1631 0
M  V30 3846 O 346.037 -4.43622 3.58547 0
M  V30 3847 O 344.971 -3.21279 5.08983 0
M  V30 3848 H 348.797 -0.683667 2.95905 0
M  V30 3849 H 346.382 -0.271965 1.46904 0
M  V30 3850 H 348.264 -3.13246 2.81877 0
M  V30 3851 H 346.939 -2.76681 1.68016 0
M  V30 3852 H 345.846 -1.32856 3.49714 0
M  V30 3853 H 347.179 -1.76637 4.59413 0
M  V30 3854 N 348.832 -1.54138 -0.328536 0
M  V30 3855 C 350.079 -1.72105 -1.06706 0
M  V30 3856 C 350.407 -0.492111 -1.88171 0
M  V30 3857 O 349.662 0.526153 -1.88494 0
M  V30 3858 C 349.961 -2.9457 -2.02393 0
M  V30 3859 C 349.627 -4.29544 -1.37122 0
M  V30 3860 C 348.289 -4.6624 -1.19052 0
M  V30 3861 C 350.641 -5.1333 -0.902331 0
M  V30 3862 C 347.969 -5.84325 -0.527331 0
M  V30 3863 C 350.321 -6.32094 -0.252988 0
M  V30 3864 C 348.985 -6.67473 -0.0600901 0
M  V30 3865 H 348.255 -0.629775 -0.390466 0
M  V30 3866 H 350.902 -1.88372 -0.34473 0
M  V30 3867 H 349.207 -2.72969 -2.81061 0
M  V30 3868 H 350.904 -3.05665 -2.59557 0
M  V30 3869 H 347.494 -4.0067 -1.52188 0
M  V30 3870 H 351.678 -4.855 -1.02974 0
M  V30 3871 H 346.934 -6.103 -0.366634 0
M  V30 3872 H 351.108 -6.96299 0.118366 0
M  V30 3873 H 348.735 -7.58832 0.455828 0
M  V30 3874 N 350.31 0.590341 -1.46126 0
M  V30 3875 C 351.726 0.912917 -1.30912 0
M  V30 3876 C 351.926 1.99616 -0.274893 0
M  V30 3877 O 350.982 2.50397 0.325197 0
M  V30 3878 C 352.295 1.3375 -2.69317 0
M  V30 3879 C 353.843 1.45077 -2.77348 0
M  V30 3880 C 354.318 1.90904 -4.16317 0
M  V30 3881 N 355.809 1.9811 -4.18696 0
M  V30 3882 C 356.544 2.34828 -5.23109 0
M  V30 3883 N 356.04 2.70393 -6.37856 0
M  V30 3884 N 357.833 2.35317 -5.10473 0
M  V30 3885 H 349.984 -0.125358 -2.1203 0
M  V30 3886 H 352.247 0.00658481 -0.947977 0
M  V30 3887 H 351.953 0.615614 -3.4627 0
M  V30 3888 H 351.827 2.30058 -2.9892 0
M  V30 3889 H 354.214 2.16353 -2.00687 0
M  V30 3890 H 354.295 0.4704 -2.51438 0
M  V30 3891 H 353.939 1.20209 -4.9347 0
M  V30 3892 H 353.869 2.89886 -4.39629 0
M  V30 3893 H 356.36 1.73146 -3.359 0
M  V30 3894 H 356.673 2.97341 -7.13308 0
M  V30 3895 H 355.018 2.68048 -6.41229 0
M  V30 3896 H 358.209 2.0695 -4.19868 0
M  V30 3897 H 358.382 2.63605 -5.9196 0
M  V30 3898 N 351.788 1.33704 0.83433 0
M  V30 3899 C 353.204 1.13137 1.12571 0
M  V30 3900 C 353.404 -0.0747261 2.01361 0
M  V30 3901 O 352.46 -0.753647 2.4099 0
M  V30 3902 C 353.773 2.42105 1.78342 0
M  V30 3903 C 355.321 2.48054 1.90888 0
M  V30 3904 C 355.796 3.76995 2.60075 0
M  V30 3905 N 357.287 3.78092 2.67584 0
M  V30 3906 C 358.022 4.74574 3.21818 0
M  V30 3907 N 357.518 5.81434 3.76705 0
M  V30 3908 N 359.311 4.62044 3.20112 0
M  V30 3909 H 351.462 2.11 0.243489 0
M  V30 3910 H 353.725 0.932532 0.17055 0
M  V30 3911 H 353.431 3.30391 1.20561 0
M  V30 3912 H 353.305 2.54594 2.7832 0
M  V30 3913 H 355.692 1.60215 2.47821 0
M  V30 3914 H 355.773 2.39502 0.898459 0
M  V30 3915 H 355.417 4.65219 2.03799 0
M  V30 3916 H 355.347 3.82825 3.61597 0
M  V30 3917 H 357.838 3.00865 2.28667 0
M  V30 3918 H 358.151 6.51084 4.16305 0
M  V30 3919 H 356.496 5.85163 3.7498 0
M  V30 3920 H 359.687 3.77716 2.76493 0
M  V30 3921 H 359.86 5.37406 3.62076 0
M  V30 3922 N 353.266 -1.05314 1.17247 0
M  V30 3923 C 354.514 -1.77941 0.958194 0
M  V30 3924 C 354.835 -1.88089 -0.514556 0
M  V30 3925 O 354.105 -1.39676 -1.37359 0
M  V30 3926 H 352.685 -0.659116 0.351533 0
M  V30 3927 H 355.347 -1.27166 1.47699 0
M  V30 3928 H 354.443 -2.79663 1.38546 0
M  V30 3929 N 354.744 -0.972509 -1.24016 0
M  V30 3930 C 355.972 -0.654803 -1.96265 0
M  V30 3931 C 356.387 0.776708 -1.72083 0
M  V30 3932 O 355.744 1.52171 -1.00748 0
M  V30 3933 C 355.795 -0.92592 -3.49441 0
M  V30 3934 O 355.516 -2.30116 -3.72798 0
M  V30 3935 C 357.017 -0.623068 -4.38899 0
M  V30 3936 H 354.237 -0.243907 -0.6251 0
M  V30 3937 H 356.781 -1.30175 -1.57717 0
M  V30 3938 H 354.936 -0.325108 -3.86033 0
M  V30 3939 H 355.35 -2.38483 -4.67147 0
M  V30 3940 H 356.824 -0.863189 -5.45209 0
M  V30 3941 H 357.301 0.442754 -4.36963 0
M  V30 3942 H 357.907 -1.204 -4.07902 0
M  V30 3943 N 356.222 1.38976 -0.743202 0
M  V30 3944 C 357.169 2.30544 -0.10861 0
M  V30 3945 C 358.139 1.49642 0.720869 0
M  V30 3946 O 359.324 1.78304 0.679142 0
M  V30 3947 C 356.464 3.36018 0.786496 0
M  V30 3948 C 355.577 4.31963 -0.0564849 0
M  V30 3949 C 354.712 5.24506 0.840657 0
M  V30 3950 C 353.751 6.121 -0.00658363 0
M  V30 3951 N 352.888 6.96973 0.846943 0
M  V30 3952 H 357.728 2.8424 -0.895088 0
M  V30 3953 H 355.265 1.3995 -0.453048 0
M  V30 3954 H 357.223 3.95768 1.31999 0
M  V30 3955 H 355.853 2.83758 1.53887 0
M  V30 3956 H 354.905 3.73763 -0.707492 0
M  V30 3957 H 356.217 4.93703 -0.711229 0
M  V30 3958 H 355.371 5.89322 1.4417 0
M  V30 3959 H 354.11 4.63107 1.52916 0
M  V30 3960 H 353.115 5.46289 -0.620366 0
M  V30 3961 H 354.34 6.75565 -0.691992 0
M  V30 3962 H 352.286 6.38133 1.52059 0
M  V30 3963 H 352.203 7.5559 0.248864 0
M  V30 3964 H 353.471 7.6621 1.43328 0
M  V30 3965 N 357.7 0.491464 1.49741 0
M  V30 3966 C 358.648 -0.305837 2.30581 0
M  V30 3967 C 359.642 -0.971642 1.38764 0
M  V30 3968 O 360.848 -0.90042 1.5586 0
M  V30 3969 H 357.223 -0.117482 0.742767 0
M  V30 3970 H 359.194 0.396093 2.95759 0
M  V30 3971 C 357.943 -1.36319 3.19863 0
M  V30 3972 H 357.266 -0.860258 3.90435 0
M  V30 3973 H 358.706 -1.89323 3.79385 0
M  V30 3974 C 357.165 -2.37621 2.38826 0
M  V30 3975 O 357.695 -3.43311 2.08567 0
M  V30 3976 N 355.901 -2.09849 2.01026 0
M  V30 3977 H 355.448 -1.23922 2.25834 0
M  V30 3978 H 355.406 -2.77859 1.47112 0
M  V30 3979 N 359.178 -1.55987 0.224894 0
M  V30 3980 C 360.141 -2.19178 -0.670348 0
M  V30 3981 C 361.141 -1.15461 -1.11917 0
M  V30 3982 O 362.331 -1.40675 -1.02743 0
M  V30 3983 C 359.463 -2.81777 -1.9187 0
M  V30 3984 H 360.656 -2.99662 -0.119364 0
M  V30 3985 H 358.209 -1.5628 -0.0247128 0
M  V30 3986 H 358.944 -2.05172 -2.51147 0
M  V30 3987 H 358.729 -3.57732 -1.60531 0
M  V30 3988 H 360.219 -3.30205 -2.55645 0
M  V30 3989 N 360.656 0.0484629 -1.57525 0
M  V30 3990 C 361.603 1.05504 -2.05275 0
M  V30 3991 C 362.573 1.37084 -0.937927 0
M  V30 3992 O 363.758 1.47754 -1.2072 0
M  V30 3993 C 360.898 2.35676 -2.52093 0
M  V30 3994 C 360.011 2.10423 -3.77288 0
M  V30 3995 C 359.146 3.34327 -4.12794 0
M  V30 3996 C 358.185 3.04542 -5.30962 0
M  V30 3997 N 357.322 4.20841 -5.61994 0
M  V30 3998 H 362.162 0.640885 -2.91027 0
M  V30 3999 H 359.699 0.304854 -1.43906 0
M  V30 4000 H 361.657 3.11709 -2.77297 0
M  V30 4001 H 360.287 2.7485 -1.69285 0
M  V30 4002 H 359.339 1.24976 -3.59284 0
M  V30 4003 H 360.651 1.84438 -4.63448 0
M  V30 4004 H 359.805 4.1874 -4.39024 0
M  V30 4005 H 358.544 3.63408 -3.25247 0
M  V30 4006 H 357.549 2.18528 -5.04505 0
M  V30 4007 H 358.774 2.76758 -6.20146 0
M  V30 4008 H 356.72 4.4991 -4.77406 0
M  V30 4009 H 356.637 3.98212 -6.42622 0
M  V30 4010 H 357.905 5.06184 -5.92789 0
M  V30 4011 N 362.134 1.5431 0.320358 0
M  V30 4012 C 363.383 1.7188 1.05546 0
M  V30 4013 C 363.696 0.501143 1.89071 0
M  V30 4014 O 364.902 0.558258 2.65699 0
M  V30 4015 C 363.358 3.04025 1.92605 0
M  V30 4016 C 362.966 4.33207 1.14176 0
M  V30 4017 C 364.71 3.30959 2.65832 0
M  V30 4018 C 362.617 5.56412 2.00399 0
M  V30 4019 H 361.547 0.640547 0.397763 0
M  V30 4020 H 364.198 1.80802 0.313522 0
M  V30 4021 H 362.58 2.89019 2.7071 0
M  V30 4022 H 363.754 4.58989 0.40819 0
M  V30 4023 H 362.069 4.13062 0.526165 0
M  V30 4024 H 364.666 4.20203 3.30656 0
M  V30 4025 H 365.009 2.48979 3.33639 0
M  V30 4026 H 365.542 3.46847 1.94787 0
M  V30 4027 H 362.281 6.41004 1.37094 0
M  V30 4028 H 361.801 5.34844 2.7148 0
M  V30 4029 H 363.48 5.92938 2.58908 0
M  V30 4030 N 363.613 -0.582584 1.46437 0
M  V30 4031 C 364.543 -1.70187 1.59871 0
M  V30 4032 C 365.524 -1.64066 0.449042 0
M  V30 4033 O 366.709 -1.82081 0.6753 0
M  V30 4034 C 363.839 -3.08827 1.58881 0
M  V30 4035 C 362.793 -3.29779 2.72819 0
M  V30 4036 C 362.119 -4.68947 2.5689 0
M  V30 4037 C 363.419 -3.17601 4.1464 0
M  V30 4038 H 365.113 -1.592 2.53566 0
M  V30 4039 H 362.659 -0.764472 1.22032 0
M  V30 4040 H 364.612 -3.86951 1.66873 0
M  V30 4041 H 363.336 -3.20713 0.617306 0
M  V30 4042 H 361.995 -2.54054 2.64296 0
M  V30 4043 H 361.643 -4.77599 1.57823 0
M  V30 4044 H 361.343 -4.83919 3.33312 0
M  V30 4045 H 362.867 -5.4924 2.66773 0
M  V30 4046 H 364.281 -3.8557 4.24274 0
M  V30 4047 H 362.678 -3.44094 4.9165 0
M  V30 4048 H 363.748 -2.14681 4.34788 0
M  V30 4049 N 365.091 -1.34144 -0.827227 0
M  V30 4050 C 366.316 -1.29476 -1.62021 0
M  V30 4051 C 366.741 0.129292 -1.87655 0
M  V30 4052 O 366.099 1.08967 -1.449 0
M  V30 4053 C 366.147 -2.08702 -2.94068 0
M  V30 4054 O 365.251 -1.45359 -3.85933 0
M  V30 4055 H 364.592 -0.444881 -0.492927 0
M  V30 4056 H 367.122 -1.76882 -1.02829 0
M  V30 4057 H 367.132 -2.19898 -3.43669 0
M  V30 4058 H 365.807 -3.12241 -2.74734 0
M  V30 4059 H 364.384 -1.42879 -3.44442 0
M  V30 4060 N 366.569 1.04691 -1.17803 0
M  V30 4061 C 367.499 2.14494 -0.92275 0
M  V30 4062 C 368.48 1.69546 0.137179 0
M  V30 4063 O 369.665 1.94195 -0.0141108 0
M  V30 4064 C 366.795 3.44491 -0.440803 0
M  V30 4065 C 365.749 4.03031 -1.4405 0
M  V30 4066 C 365.075 5.28432 -0.81631 0
M  V30 4067 C 366.375 4.39932 -2.81527 0
M  V30 4068 H 368.069 2.36107 -1.84103 0
M  V30 4069 H 365.615 1.1347 -0.886599 0
M  V30 4070 H 367.568 4.2066 -0.249602 0
M  V30 4071 H 366.292 3.22546 0.513025 0
M  V30 4072 H 364.951 3.28937 -1.61853 0
M  V30 4073 H 364.599 5.02792 0.144511 0
M  V30 4074 H 364.299 5.68559 -1.48371 0
M  V30 4075 H 365.823 6.07284 -0.635496 0
M  V30 4076 H 367.237 5.07113 -2.67412 0
M  V30 4077 H 365.634 4.9109 -3.44892 0
M  V30 4078 H 366.704 3.50045 -3.35554 0
M  V30 4079 N 368.047 0.979072 1.23499 0
M  V30 4080 C 368.995 0.510604 2.26926 0
M  V30 4081 C 369.989 -0.431691 1.63807 0
M  V30 4082 O 371.195 -0.30573 1.77385 0
M  V30 4083 H 367.57 0.146688 0.737554 0
M  V30 4084 H 369.541 1.39466 2.63803 0
M  V30 4085 C 368.29 -0.172658 3.47271 0
M  V30 4086 H 367.613 0.543331 3.96091 0
M  V30 4087 H 369.053 -0.464101 4.21452 0
M  V30 4088 C 367.512 -1.40345 3.06276 0
M  V30 4089 O 368.042 -2.49978 3.14442 0
M  V30 4090 N 366.248 -1.27362 2.61203 0
M  V30 4091 H 365.795 -0.381584 2.54758 0
M  V30 4092 H 365.753 -2.09822 2.34141 0
M  V30 4093 N 369.525 -1.3858 0.750561 0
M  V30 4094 C 370.774 -1.99424 0.302172 0
M  V30 4095 C 371.087 -1.60254 -1.12152 0
M  V30 4096 O 372.293 -2.14046 -1.67023 0
M  V30 4097 C 370.749 -3.56558 0.489307 0
M  V30 4098 C 370.357 -4.04682 1.92189 0
M  V30 4099 C 372.101 -4.24374 0.103478 0
M  V30 4100 C 370.008 -5.54446 2.05775 0
M  V30 4101 H 368.938 -0.746046 0.10923 0
M  V30 4102 H 371.589 -1.58383 0.92667 0
M  V30 4103 H 369.971 -3.95472 -0.204329 0
M  V30 4104 H 371.145 -3.77065 2.64875 0
M  V30 4105 H 369.46 -3.4958 2.26236 0
M  V30 4106 H 372.057 -5.34384 0.183787 0
M  V30 4107 H 372.4 -4.05468 -0.943481 0
M  V30 4108 H 372.933 -3.90688 0.748854 0
M  V30 4109 H 369.672 -5.78252 3.08714 0
M  V30 4110 H 369.192 -5.83816 1.37546 0
M  V30 4111 H 370.871 -6.20099 1.84626 0
M  V30 4112 N 371.003 -0.499398 -1.49478 0
M  V30 4113 C 372.228 0.044722 -2.07352 0
M  V30 4114 C 372.653 1.30207 -1.35749 0
M  V30 4115 O 372.011 1.76516 -0.413732 0
M  V30 4116 C 372.059 0.283013 -3.59488 0
M  V30 4117 O 371.163 1.35804 -3.89398 0
M  V30 4118 H 370.504 -0.0255147 -0.66351 0
M  V30 4119 H 373.034 -0.698561 -1.92305 0
M  V30 4120 H 373.044 0.515007 -4.04737 0
M  V30 4121 H 371.719 -0.635636 -4.11014 0
M  V30 4122 H 370.296 1.11113 -3.55961 0
M  V30 4123 N 372.481 1.55866 -0.233164 0
M  V30 4124 C 373.391 2.24431 0.683217 0
M  V30 4125 C 374.407 1.2558 1.2044 0
M  V30 4126 O 375.583 1.58422 1.24356 0
M  V30 4127 C 372.648 2.91979 1.86947 0
M  V30 4128 C 371.709 4.06204 1.38912 0
M  V30 4129 C 370.942 4.70522 2.51883 0
M  V30 4130 O 371.165 4.33865 3.70293 0
M  V30 4131 O 370.099 5.59296 2.22423 0
M  V30 4132 H 373.925 3.03426 0.129059 0
M  V30 4133 H 371.51 1.494 -0.0022283 0
M  V30 4134 H 373.392 3.34573 2.56201 0
M  V30 4135 H 372.067 2.15935 2.41151 0
M  V30 4136 H 370.974 3.68155 0.664259 0
M  V30 4137 H 372.307 4.84025 0.893328 0
M  V30 4138 N 373.959 -0.0401083 1.57549 0
M  V30 4139 C 375.236 -0.767917 1.79896 0
M  V30 4140 C 375.616 -1.9416 0.82856 0
M  V30 4141 O 374.964 -2.2812 -0.131671 0
M  V30 4142 C 375.174 -1.2113 3.27305 0
M  V30 4143 C 376.522 -1.63175 3.91994 0
M  V30 4144 O 377.546 -1.30616 3.31388 0
M  V30 4145 O 376.405 -2.23565 4.98679 0
M  V30 4146 H 373.499 -0.370441 0.739393 0
M  V30 4147 H 376.045 -0.017737 1.69691 0
M  V30 4148 H 374.817 -0.372937 3.89519 0
M  V30 4149 H 374.44 -2.02183 3.42356 0
M  V30 4150 N 375.437 -1.54477 -0.31217 0
M  V30 4151 C 376.385 -1.85395 -1.40469 0
M  V30 4152 C 377.379 -0.726749 -1.53019 0
M  V30 4153 O 378.585 -0.910582 -1.55269 0
M  V30 4154 H 374.96 -0.587845 -0.46898 0
M  V30 4155 H 376.931 -2.76736 -1.11623 0
M  V30 4156 C 375.68 -2.10811 -2.76503 0
M  V30 4157 H 375.003 -2.97014 -2.67625 0
M  V30 4158 H 376.443 -2.3639 -3.51988 0
M  V30 4159 C 374.902 -0.903165 -3.24568 0
M  V30 4160 O 375.432 -0.118085 -4.01526 0
M  V30 4161 N 373.638 -0.711634 -2.81752 0
M  V30 4162 H 373.185 -1.35171 -2.19286 0
M  V30 4163 H 373.143 0.0930473 -3.14262 0
M  V30 4164 N 376.915 0.57481 -1.46744 0
M  V30 4165 C 377.863 1.70435 -1.58286 0
M  V30 4166 C 378.857 1.63287 -0.450956 0
M  V30 4167 O 380.063 1.68685 -0.628121 0
M  V30 4168 H 376.438 0.56364 -0.497809 0
M  V30 4169 H 378.409 1.57833 -2.53242 0
M  V30 4170 C 377.158 3.08815 -1.59776 0
M  V30 4171 H 376.481 3.1499 -2.46214 0
M  V30 4172 H 377.921 3.87588 -1.71905 0
M  V30 4173 C 376.38 3.35301 -0.327812 0
M  V30 4174 O 376.91 3.97511 0.57861 0
M  V30 4175 N 375.116 2.89816 -0.213274 0
M  V30 4176 H 374.663 2.39371 -0.951798 0
M  V30 4177 H 374.621 3.0791 0.63553 0
M  V30 4178 N 378.394 1.34581 0.820102 0
M  V30 4179 C 379.64 1.28294 1.57836 0
M  V30 4180 C 379.995 -0.145099 1.91852 0
M  V30 4181 O 379.288 -1.09209 1.57429 0
M  V30 4182 C 379.482 2.10997 2.8847 0
M  V30 4183 C 379.311 3.61698 2.67216 0
M  V30 4184 C 378.081 4.3097 2.63805 0
M  V30 4185 C 380.279 4.55638 2.38534 0
M  V30 4186 N 378.261 5.67502 2.34126 0
M  V30 4187 C 379.632 5.80194 2.18574 0
M  V30 4188 C 381.687 4.44523 2.24285 0
M  V30 4189 C 380.39 6.94886 1.8581 0
M  V30 4190 C 382.416 5.5905 1.92916 0
M  V30 4191 C 381.778 6.82627 1.73782 0
M  V30 4192 H 377.877 0.524697 0.579842 0
M  V30 4193 H 380.461 1.69323 0.961139 0
M  V30 4194 H 378.632 1.7226 3.48111 0
M  V30 4195 H 380.364 1.96333 3.53886 0
M  V30 4196 H 377.119 3.83438 2.77978 0
M  V30 4197 H 377.543 6.39525 2.22118 0
M  V30 4198 H 382.185 3.49599 2.37782 0
M  V30 4199 H 379.903 7.89789 1.7105 0
M  V30 4200 H 383.489 5.52396 1.82619 0
M  V30 4201 H 382.369 7.69748 1.49861 0
M  V30 4202 N 379.872 -1.04064 1.18357 0
M  V30 4203 C 380.802 -2.14001 0.934113 0
M  V30 4204 C 381.783 -1.69616 -0.128186 0
M  V30 4205 O 382.968 -1.94185 0.0244093 0
M  V30 4206 C 380.098 -3.44253 0.459066 0
M  V30 4207 C 379.052 -4.02261 1.46185 0
M  V30 4208 C 378.378 -5.27992 0.844322 0
M  V30 4209 C 379.678 -4.38432 2.83856 0
M  V30 4210 H 381.372 -2.35127 1.85352 0
M  V30 4211 H 378.918 -1.12998 0.892604 0
M  V30 4212 H 380.871 -4.20522 0.271907 0
M  V30 4213 H 379.595 -3.22813 -0.495912 0
M  V30 4214 H 378.254 -3.28074 1.63595 0
M  V30 4215 H 377.902 -5.02862 -0.117845 0
M  V30 4216 H 377.602 -5.67765 1.51384 0
M  V30 4217 H 379.126 -6.06938 0.667693 0
M  V30 4218 H 380.54 -5.05688 2.70098 0
M  V30 4219 H 378.937 -4.89254 3.47491 0
M  V30 4220 H 380.007 -3.4826 3.37406 0
M  V30 4221 N 381.35 -0.985608 -1.22978 0
M  V30 4222 C 382.59 -0.665487 -1.93263 0
M  V30 4223 C 382.954 0.78706 -1.75127 0
M  V30 4224 O 384.155 1.21826 -2.39608 0
M  V30 4225 C 382.426 -1.0515 -3.41582 0
M  V30 4226 S 383.985 -0.848637 -4.30516 0
M  V30 4227 H 380.803 -0.24355 -0.667985 0
M  V30 4228 H 383.405 -1.26635 -1.48942 0
M  V30 4229 H 382.109 -2.10517 -3.52293 0
M  V30 4230 H 381.64 -0.442134 -3.90908 0
M  V30 4231 H 383.655 0.264717 -4.95493 0
M  V30 4232 N 382.828 1.3818 -0.7579 0
M  V30 4233 C 383.758 2.33027 -0.148597 0
M  V30 4234 C 384.739 1.55085 0.69875 0
M  V30 4235 O 385.924 1.83384 0.639053 0
M  V30 4236 C 383.054 3.3928 0.742034 0
M  V30 4237 C 382.008 4.28 -0.00291946 0
M  V30 4238 C 381.334 5.25146 1.00625 0
M  V30 4239 C 382.634 5.08938 -1.17385 0
M  V30 4240 H 384.328 2.84231 -0.940909 0
M  V30 4241 H 381.874 1.36659 -0.453908 0
M  V30 4242 H 383.827 4.046 1.17799 0
M  V30 4243 H 382.551 2.86569 1.56671 0
M  V30 4244 H 381.21 3.64192 -0.419504 0
M  V30 4245 H 380.858 4.68721 1.8251 0
M  V30 4246 H 380.558 5.85361 0.512428 0
M  V30 4247 H 382.082 5.93342 1.44143 0
M  V30 4248 H 383.496 5.67474 -0.815224 0
M  V30 4249 H 381.893 5.7841 -1.59882 0
M  V30 4250 H 382.963 4.42424 -1.98468 0
M  V30 4251 N 384.306 0.507319 1.49211 0
M  V30 4252 C 385.534 -0.0315749 2.06876 0
M  V30 4253 C 385.949 -1.30241 1.36685 0
M  V30 4254 O 385.306 -1.76937 0.447152 0
M  V30 4255 C 385.357 -0.282627 3.60393 0
M  V30 4256 O 385.078 0.937835 4.27944 0
M  V30 4257 C 386.579 -0.864453 4.3479 0
M  V30 4258 H 383.799 0.0233048 0.670595 0
M  V30 4259 H 386.343 0.706484 1.91909 0
M  V30 4260 H 384.498 -0.97068 3.75042 0
M  V30 4261 H 384.912 0.704567 5.19746 0
M  V30 4262 H 386.386 -0.989664 5.43056 0
M  V30 4263 H 386.863 -1.86382 3.97692 0
M  V30 4264 H 387.469 -0.213672 4.24763 0
M  V30 4265 N 385.784 -1.5574 0.241426 0
M  V30 4266 C 387.009 -2.0366 -0.392111 0
M  V30 4267 C 387.434 -1.11969 -1.51144 0
M  V30 4268 O 386.792 -0.111594 -1.80956 0
M  V30 4269 C 386.84 -3.49638 -0.882371 0
M  V30 4270 O 385.944 -3.6108 -1.99235 0
M  V30 4271 H 385.285 -0.658379 -0.0862122 0
M  V30 4272 H 387.815 -2.01302 0.365881 0
M  V30 4273 H 387.825 -3.90351 -1.18702 0
M  V30 4274 H 386.5 -4.15852 -0.0632361 0
M  V30 4275 H 385.077 -3.32262 -1.69282 0
M  V30 4276 N 387.262 0.0317525 -1.57568 0
M  V30 4277 C 388.487 0.738664 -1.938 0
M  V30 4278 C 388.912 1.68242 -0.841208 0
M  V30 4279 O 388.27 1.80157 0.203267 0
M  V30 4280 C 388.318 1.47417 -3.29091 0
M  V30 4281 O 387.422 2.5872 -3.2115 0
M  V30 4282 H 386.763 0.198856 -0.633524 0
M  V30 4283 H 389.293 -0.0119713 -2.04596 0
M  V30 4284 H 389.303 1.84468 -3.63917 0
M  V30 4285 H 387.978 0.781988 -4.08482 0
M  V30 4286 H 386.555 2.24231 -2.97951 0
M  V30 4287 N 388.74 1.54641 0.303973 0
M  V30 4288 C 390.156 1.45788 0.649463 0
M  V30 4289 C 390.356 0.64666 1.90842 0
M  V30 4290 O 389.412 0.153183 2.52035 0
M  V30 4291 C 390.725 2.89718 0.805227 0
M  V30 4292 C 392.273 2.99742 0.901305 0
M  V30 4293 C 392.748 4.44863 1.08909 0
M  V30 4294 N 394.239 4.48559 1.15536 0
M  V30 4295 C 394.974 5.58026 1.3189 0
M  V30 4296 N 394.47 6.77422 1.45161 0
M  V30 4297 N 396.263 5.45708 1.34755 0
M  V30 4298 H 388.414 2.05854 -0.523237 0
M  V30 4299 H 390.677 0.932186 -0.172431 0
M  V30 4300 H 390.383 3.51666 -0.0489108 0
M  V30 4301 H 390.257 3.36964 1.69513 0
M  V30 4302 H 392.644 2.3791 1.74593 0
M  V30 4303 H 392.725 2.55797 -0.0125531 0
M  V30 4304 H 392.369 5.07288 0.249241 0
M  V30 4305 H 392.299 4.86436 2.01713 0
M  V30 4306 H 394.79 3.6254 1.06646 0
M  V30 4307 H 395.103 7.56604 1.57387 0
M  V30 4308 H 393.448 6.80292 1.42223 0
M  V30 4309 H 396.639 4.51378 1.23996 0
M  V30 4310 H 396.812 6.3107 1.47157 0
M  V30 4311 N 390.218 -0.567019 1.47046 0
M  V30 4312 C 391.166 -1.69593 1.59188 0
M  V30 4313 C 392.16 -1.63046 0.459609 0
M  V30 4314 O 393.366 -1.6835 0.637058 0
M  V30 4315 H 389.741 -0.560993 0.500791 0
M  V30 4316 H 391.712 -1.56488 2.54075 0
M  V30 4317 C 390.461 -3.07964 1.61411 0
M  V30 4318 H 389.784 -3.13679 2.47881 0
M  V30 4319 H 391.224 -3.86671 1.73958 0
M  V30 4320 C 389.683 -3.35123 0.34559 0
M  V30 4321 O 390.213 -3.97812 -0.557521 0
M  V30 4322 N 388.419 -2.89699 0.22864 0
M  V30 4323 H 387.966 -2.38863 0.964479 0
M  V30 4324 H 387.924 -3.08242 -0.619192 0
M  V30 4325 N 391.696 -1.35014 -0.812953 0
M  V30 4326 C 392.924 -1.31031 -1.6012 0
M  V30 4327 C 393.339 0.113558 -1.88458 0
M  V30 4328 O 392.696 1.06363 -1.48301 0
M  V30 4329 C 392.747 -2.10872 -2.93624 0
M  V30 4330 O 392.468 -3.47706 -2.66518 0
M  V30 4331 C 393.969 -2.14401 -3.88004 0
M  V30 4332 H 391.189 -0.45037 -0.497401 0
M  V30 4333 H 393.733 -1.77775 -1.01076 0
M  V30 4334 H 391.888 -1.67744 -3.492 0
M  V30 4335 H 392.302 -3.89097 -3.51715 0
M  V30 4336 H 393.776 -2.74669 -4.78812 0
M  V30 4337 H 394.253 -1.14105 -4.24119 0
M  V30 4338 H 394.859 -2.57662 -3.38364 0
M  V30 4339 N 393.175 1.03435 -1.18907 0
M  V30 4340 C 394.421 1.77005 -0.989798 0
M  V30 4341 C 394.754 1.88205 0.478816 0
M  V30 4342 O 394.029 1.39481 1.35556 0
M  V30 4343 C 394.312 3.19925 -1.65287 0
M  V30 4344 C 394.165 3.1663 -3.19477 0
M  V30 4345 C 395.484 4.18189 -1.37134 0
M  V30 4346 H 392.603 0.642538 -0.360991 0
M  V30 4347 H 395.245 1.20784 -1.46667 0
M  V30 4348 H 393.395 3.67929 -1.24741 0
M  V30 4349 H 395.067 2.76567 -3.692 0
M  V30 4350 H 393.31 2.54491 -3.51307 0
M  V30 4351 H 393.981 4.1758 -3.61013 0
M  V30 4352 H 396.457 3.78761 -1.72276 0
M  V30 4353 H 395.333 5.16394 -1.86087 0
M  V30 4354 H 395.594 4.41112 -0.295424 0
M  V30 4355 N 394.653 0.992116 1.22453 0
M  V30 4356 C 395.603 0.512969 2.22155 0
M  V30 4357 C 396.587 -0.418416 1.55364 0
M  V30 4358 O 397.779 -0.245363 1.75291 0
M  V30 4359 C 394.908 -0.171822 3.4287 0
M  V30 4360 C 393.994 0.779822 4.16869 0
M  V30 4361 N 394.385 1.92734 4.6764 0
M  V30 4362 C 392.683 0.59554 4.42006 0
M  V30 4363 C 393.384 2.52458 5.24061 0
M  V30 4364 N 392.36 1.80735 5.12675 0
M  V30 4365 H 396.162 1.38817 2.5905 0
M  V30 4366 H 393.676 0.854277 1.38115 0
M  V30 4367 H 395.673 -0.532469 4.13486 0
M  V30 4368 H 394.333 -1.04317 3.07487 0
M  V30 4369 H 395.344 2.30816 4.63621 0
M  V30 4370 H 392.021 -0.229805 4.16867 0
M  V30 4371 H 393.411 3.49433 5.73887 0
M  V30 4372 N 396.131 -1.37776 0.765217 0
M  V30 4373 C 397.377 -2.00145 0.327072 0
M  V30 4374 C 397.71 -1.60607 -1.09175 0
M  V30 4375 O 396.985 -0.849127 -1.74986 0
M  V30 4376 C 397.268 -3.57109 0.46319 0
M  V30 4377 C 397.121 -4.06576 1.92395 0
M  V30 4378 C 398.44 -4.39888 -0.136473 0
M  V30 4379 H 395.559 -0.727113 0.120316 0
M  V30 4380 H 398.201 -1.63549 0.967039 0
M  V30 4381 H 396.351 -3.88414 -0.0816358 0
M  V30 4382 H 398.023 -3.85864 2.52798 0
M  V30 4383 H 396.266 -3.59011 2.43503 0
M  V30 4384 H 396.937 -5.15639 1.97028 0
M  V30 4385 H 399.413 -4.14803 0.328317 0
M  V30 4386 H 398.289 -5.48899 -0.0110582 0
M  V30 4387 H 398.55 -4.24758 -1.22608 0
M  V30 4388 N 397.609 -0.515225 -1.4894 0
M  V30 4389 C 398.856 0.024215 -2.02486 0
M  V30 4390 C 399.184 1.35671 -1.39368 0
M  V30 4391 O 398.439 1.88566 -0.523574 0
M  V30 4392 C 398.738 0.210595 -3.56779 0
M  V30 4393 C 398.404 -1.04569 -4.38607 0
M  V30 4394 C 397.066 -1.39002 -4.60686 0
M  V30 4395 C 399.418 -1.88008 -4.86109 0
M  V30 4396 C 396.746 -2.568 -5.27514 0
M  V30 4397 C 399.098 -3.04972 -5.54234 0
M  V30 4398 C 397.762 -3.39768 -5.74555 0
M  V30 4399 H 397.032 0.00886088 -0.740947 0
M  V30 4400 H 399.679 -0.678263 -1.79086 0
M  V30 4401 H 397.984 0.99572 -3.78936 0
M  V30 4402 H 399.681 0.642659 -3.95817 0
M  V30 4403 H 396.271 -0.767497 -4.21672 0
M  V30 4404 H 400.455 -1.62719 -4.68867 0
M  V30 4405 H 395.711 -2.8398 -5.41447 0
M  V30 4406 H 399.885 -3.69943 -5.90013 0
M  V30 4407 H 397.512 -4.31148 -6.26112 0
M  V30 4408 N 399.087 1.5561 -0.249682 0
M  V30 4409 C 400.312 2.03865 0.381305 0
M  V30 4410 C 400.737 1.12769 1.50548 0
M  V30 4411 O 400.095 0.121189 1.80895 0
M  V30 4412 C 400.143 3.50101 0.863816 0
M  V30 4413 O 399.247 3.62132 1.97318 0
M  V30 4414 H 398.588 0.658827 0.0827194 0
M  V30 4415 H 401.118 2.01105 -0.376552 0
M  V30 4416 H 401.128 3.90975 1.1663 0
M  V30 4417 H 399.803 4.1588 0.0411816 0
M  V30 4418 H 398.38 3.33155 1.67517 0
M  V30 4419 N 400.565 -0.0233959 1.57583 0
M  V30 4420 C 401.814 -0.712133 1.8871 0
M  V30 4421 C 402.127 -1.76217 0.848944 0
M  V30 4422 O 403.333 -2.50389 1.04964 0
M  V30 4423 C 401.789 -1.3177 3.3491 0
M  V30 4424 C 401.397 -0.303715 4.46969 0
M  V30 4425 C 403.141 -1.98598 3.75179 0
M  V30 4426 C 401.048 -0.917945 5.84233 0
M  V30 4427 H 399.978 -0.269735 0.704101 0
M  V30 4428 H 402.629 0.0333114 1.8347 0
M  V30 4429 H 401.011 -2.11304 3.34913 0
M  V30 4430 H 402.185 0.465325 4.58445 0
M  V30 4431 H 400.5 0.2628 4.1557 0
M  V30 4432 H 403.097 -2.45416 4.75053 0
M  V30 4433 H 403.44 -2.80659 3.07468 0
M  V30 4434 H 403.973 -1.25831 3.77374 0
M  V30 4435 H 400.712 -0.136633 6.55358 0
M  V30 4436 H 400.232 -1.65669 5.76467 0
M  V30 4437 H 401.911 -1.4236 6.31144 0
M  V30 4438 N 402.043 -1.548 -0.295768 0
M  V30 4439 C 403.273 -1.78069 -1.04762 0
M  V30 4440 C 403.681 -0.542847 -1.81245 0
M  V30 4441 O 403.024 0.497051 -1.76848 0
M  V30 4442 C 403.086 -2.93881 -2.07061 0
M  V30 4443 C 402.75 -4.31777 -1.49725 0
M  V30 4444 C 403.747 -5.11613 -0.924581 0
M  V30 4445 C 401.432 -4.78389 -1.5313 0
M  V30 4446 C 403.426 -6.36184 -0.393594 0
M  V30 4447 C 401.113 -6.02921 -0.996447 0
M  V30 4448 C 402.111 -6.81654 -0.428569 0
M  V30 4449 O 401.799 -8.0384 0.0981593 0
M  V30 4450 H 401.531 -0.597475 -0.316226 0
M  V30 4451 H 404.085 -2.02584 -0.338973 0
M  V30 4452 H 402.315 -2.65003 -2.81621 0
M  V30 4453 H 404.004 -3.04679 -2.6819 0
M  V30 4454 H 404.77 -4.76743 -0.891136 0
M  V30 4455 H 400.649 -4.17132 -1.9627 0
M  V30 4456 H 404.193 -6.97582 0.0503014 0
M  V30 4457 H 400.09 -6.37277 -1.02706 0
M  V30 4458 H 400.858 -8.18499 -0.0146455 0
M  V30 4459 N 403.521 0.559213 -1.47345 0
M  V30 4460 C 404.468 1.66645 -1.59682 0
M  V30 4461 C 405.438 1.60168 -0.43994 0
M  V30 4462 O 406.623 1.79031 -0.659736 0
M  V30 4463 C 403.763 3.04969 -1.61518 0
M  V30 4464 C 402.876 3.21897 -2.88108 0
M  V30 4465 C 402.011 4.50608 -2.81294 0
M  V30 4466 C 401.05 4.60961 -4.02717 0
M  V30 4467 N 400.187 5.81024 -3.94151 0
M  V30 4468 H 405.027 1.55439 -2.54249 0
M  V30 4469 H 402.564 0.757219 -1.26113 0
M  V30 4470 H 404.522 3.85064 -1.60566 0
M  V30 4471 H 403.152 3.15015 -0.704645 0
M  V30 4472 H 402.204 2.35248 -2.98936 0
M  V30 4473 H 403.516 3.25412 -3.78032 0
M  V30 4474 H 402.67 5.3896 -2.7858 0
M  V30 4475 H 401.409 4.49568 -1.89049 0
M  V30 4476 H 400.414 3.71021 -4.05738 0
M  V30 4477 H 401.639 4.63761 -4.96087 0
M  V30 4478 H 399.585 5.80938 -3.04708 0
M  V30 4479 H 399.502 5.85909 -4.77752 0
M  V30 4480 H 400.77 6.71744 -3.9545 0
M  V30 4481 N 404.999 1.35443 0.805782 0
M  V30 4482 C 405.946 1.28431 1.91766 0
M  V30 4483 C 406.916 0.156102 1.65365 0
M  V30 4484 O 408.101 0.339936 1.87747 0
M  V30 4485 C 405.241 1.06301 3.2832 0
M  V30 4486 C 404.354 2.2805 3.66902 0
M  V30 4487 C 403.489 1.99064 4.92491 0
M  V30 4488 C 402.528 3.16863 5.23703 0
M  V30 4489 N 401.665 2.87647 6.40471 0
M  V30 4490 H 406.505 2.23511 1.97096 0
M  V30 4491 H 404.042 1.11105 0.964054 0
M  V30 4492 H 406 0.915012 4.07042 0
M  V30 4493 H 404.63 0.148822 3.22457 0
M  V30 4494 H 403.682 2.53711 2.83434 0
M  V30 4495 H 404.994 3.1601 3.85927 0
M  V30 4496 H 404.148 1.81099 5.7904 0
M  V30 4497 H 402.887 1.0839 4.75503 0
M  V30 4498 H 401.892 3.35404 4.35642 0
M  V30 4499 H 403.117 4.08339 5.4262 0
M  V30 4500 H 401.063 1.99568 6.24907 0
M  V30 4501 H 400.98 3.69141 6.59751 0
M  V30 4502 H 402.248 2.73226 7.30047 0
M  V30 4503 N 406.477 -1.02803 1.19454 0
M  V30 4504 C 407.424 -2.11099 0.933046 0
M  V30 4505 C 408.394 -1.65571 -0.132447 0
M  V30 4506 O 409.579 -1.90797 0.00987576 0
M  V30 4507 C 406.719 -3.41763 0.478747 0
M  V30 4508 C 405.832 -4.00833 1.6111 0
M  V30 4509 C 404.967 -5.19511 1.10825 0
M  V30 4510 C 404.006 -5.70639 2.21445 0
M  V30 4511 N 403.143 -6.80589 1.72461 0
M  V30 4512 H 407.983 -2.32804 1.86028 0
M  V30 4513 H 405.52 -1.14179 0.927441 0
M  V30 4514 H 407.478 -4.16736 0.196745 0
M  V30 4515 H 406.108 -3.20166 -0.411493 0
M  V30 4516 H 405.16 -3.23066 2.00829 0
M  V30 4517 H 406.472 -4.34794 2.4445 0
M  V30 4518 H 405.626 -6.01645 0.781533 0
M  V30 4519 H 404.365 -4.87086 0.244606 0
M  V30 4520 H 403.37 -4.87116 2.54947 0
M  V30 4521 H 404.595 -6.05102 3.08267 0
M  V30 4522 H 402.541 -6.50016 0.884056 0
M  V30 4523 H 402.458 -7.13681 2.49389 0
M  V30 4524 H 403.726 -7.66317 1.42755 0
M  V30 4525 N 407.956 -0.998596 -1.21925 0
M  V30 4526 C 409.372 -0.710303 -1.42923 0
M  V30 4527 C 409.572 0.716933 -1.88314 0
M  V30 4528 O 408.628 1.48712 -2.04062 0
M  V30 4529 C 409.941 -1.72072 -2.466 0
M  V30 4530 C 411.489 -1.73681 -2.60392 0
M  V30 4531 C 411.964 -2.73601 -3.67296 0
M  V30 4532 N 413.455 -2.7223 -3.7476 0
M  V30 4533 C 414.19 -3.46206 -4.57087 0
M  V30 4534 N 413.686 -4.29802 -5.43362 0
M  V30 4535 N 415.479 -3.34886 -4.51451 0
M  V30 4536 H 407.63 -1.92028 -0.9077 0
M  V30 4537 H 409.893 -0.828487 -0.460775 0
M  V30 4538 H 409.599 -2.74231 -2.20206 0
M  V30 4539 H 409.473 -1.51818 -3.45299 0
M  V30 4540 H 411.86 -0.722173 -2.86127 0
M  V30 4541 H 411.941 -1.98005 -1.61949 0
M  V30 4542 H 411.585 -3.75217 -3.42307 0
M  V30 4543 H 411.515 -2.46545 -4.65321 0
M  V30 4544 H 414.006 -2.11576 -3.1312 0
M  V30 4545 H 414.319 -4.83061 -6.03218 0
M  V30 4546 H 412.664 -4.33887 -5.42925 0
M  V30 4547 H 415.855 -2.69015 -3.83078 0
M  V30 4548 H 416.028 -3.92796 -5.15379 0
M  V30 4549 N 409.434 1.37368 -0.772513 0
M  V30 4550 C 410.845 1.8231 -0.402493 0
M  V30 4551 C 411.196 1.6436 1.07146 0
M  V30 4552 O 410.321 1.15514 1.82991 0
M  V30 4553 C 410.916 3.30979 -0.723776 0
M  V30 4554 C 409.475 3.74195 -0.406802 0
M  V30 4555 C 408.622 2.59885 -0.967218 0
M  V30 4556 H 411.573 1.25829 -0.967099 0
M  V30 4557 H 411.594 3.80499 -0.00870832 0
M  V30 4558 H 411.106 3.44011 -1.7966 0
M  V30 4559 H 409.207 3.66732 0.658673 0
M  V30 4560 H 409.32 4.7027 -0.915588 0
M  V30 4561 H 407.684 2.51674 -0.391416 0
M  V30 4562 H 408.467 2.7571 -2.04546 0
M  V30 4563 N 410.912 0.523116 1.48665 0
M  V30 4564 C 411.842 -0.23231 2.32342 0
M  V30 4565 C 412.823 -0.941637 1.41659 0
M  V30 4566 O 414.008 -0.928751 1.70552 0
M  V30 4567 C 411.138 -1.28387 3.22698 0
M  V30 4568 C 410.092 -0.693098 4.22351 0
M  V30 4569 C 409.418 -1.8468 5.01794 0
M  V30 4570 C 410.718 0.33063 5.21252 0
M  V30 4571 H 412.412 0.466192 2.95748 0
M  V30 4572 H 409.958 0.225643 1.42221 0
M  V30 4573 H 411.911 -1.82024 3.80059 0
M  V30 4574 H 410.635 -2.01186 2.57278 0
M  V30 4575 H 409.294 -0.178299 3.66166 0
M  V30 4576 H 408.942 -2.56301 4.32804 0
M  V30 4577 H 408.642 -1.45747 5.69238 0
M  V30 4578 H 410.166 -2.38709 5.62006 0
M  V30 4579 H 411.58 -0.118407 5.73178 0
M  V30 4580 H 409.977 0.636974 5.9671 0
M  V30 4581 H 411.047 1.23883 4.68808 0
M  V30 4582 N 412.39 -1.55475 0.257931 0
M  V30 4583 C 413.806 -1.59307 -0.0966563 0
M  V30 4584 C 414.006 -1.27514 -1.5602 0
M  V30 4585 O 413.062 -1.02774 -2.30637 0
M  V30 4586 C 414.375 -2.99552 0.262481 0
M  V30 4587 C 415.923 -3.1231 0.207683 0
M  V30 4588 C 416.398 -4.54793 0.541012 0
M  V30 4589 N 417.889 -4.6058 0.491921 0
M  V30 4590 C 418.624 -5.68825 0.722857 0
M  V30 4591 N 418.12 -6.85287 1.0175 0
M  V30 4592 N 419.913 -5.58296 0.652815 0
M  V30 4593 H 412.064 -1.74409 1.21224 0
M  V30 4594 H 414.327 -0.812424 0.48854 0
M  V30 4595 H 414.033 -3.27593 1.27967 0
M  V30 4596 H 413.907 -3.75019 -0.40508 0
M  V30 4597 H 416.294 -2.84044 -0.800195 0
M  V30 4598 H 416.375 -2.39095 0.909255 0
M  V30 4599 H 416.019 -4.83783 1.5465 0
M  V30 4600 H 415.949 -5.26285 -0.18216 0
M  V30 4601 H 418.44 -3.7691 0.273366 0
M  V30 4602 H 418.753 -7.63725 1.18084 0
M  V30 4603 H 417.098 -6.86945 1.05509 0
M  V30 4604 H 420.289 -4.66189 0.422592 0
M  V30 4605 H 420.462 -6.42582 0.836182 0
M  V30 4606 N 413.868 0.0150385 -1.57593 0
M  V30 4607 C 414.815 1.01126 -2.07466 0
M  V30 4608 C 415.785 1.35064 -0.966794 0
M  V30 4609 O 416.97 1.4516 -1.23827 0
M  V30 4610 C 414.11 2.30276 -2.57035 0
M  V30 4611 C 413.223 2.02373 -3.81666 0
M  V30 4612 C 412.358 3.25496 -4.19793 0
M  V30 4613 C 411.397 2.93211 -5.37303 0
M  V30 4614 N 410.534 4.08826 -5.70794 0
M  V30 4615 H 415.374 0.57901 -2.92321 0
M  V30 4616 H 412.911 0.27426 -1.44521 0
M  V30 4617 H 414.869 3.05757 -2.83846 0
M  V30 4618 H 413.499 2.71197 -1.75077 0
M  V30 4619 H 412.551 1.17327 -3.61854 0
M  V30 4620 H 413.863 1.74567 -4.67256 0
M  V30 4621 H 413.017 4.09333 -4.47807 0
M  V30 4622 H 411.756 3.56428 -3.32882 0
M  V30 4623 H 410.761 2.07777 -5.09027 0
M  V30 4624 H 411.986 2.63542 -6.25877 0
M  V30 4625 H 409.932 4.39682 -4.86842 0
M  V30 4626 H 409.849 3.84491 -6.50924 0
M  V30 4627 H 411.117 4.93496 -6.03392 0
M  V30 4628 N 415.346 1.54954 0.287554 0
M  V30 4629 C 416.592 1.75132 1.02257 0
M  V30 4630 C 416.925 0.542858 1.86458 0
M  V30 4631 O 416.2 -0.459856 1.88986 0
M  V30 4632 C 416.483 3.04812 1.91733 0
M  V30 4633 C 416.336 4.35985 1.10622 0
M  V30 4634 C 417.655 3.30438 2.90687 0
M  V30 4635 H 414.774 0.637194 0.370341 0
M  V30 4636 H 417.416 1.87678 0.296111 0
M  V30 4637 H 415.566 2.94247 2.53675 0
M  V30 4638 H 417.238 4.58487 0.508636 0
M  V30 4639 H 415.481 4.31865 0.409271 0
M  V30 4640 H 416.152 5.23017 1.76513 0
M  V30 4641 H 418.628 3.40701 2.38877 0
M  V30 4642 H 417.504 4.22467 3.50447 0
M  V30 4643 H 417.765 2.49377 3.65053 0
M  V30 4644 N 416.824 -0.551391 1.4764 0
M  V30 4645 C 418.101 -1.31229 1.45046 0
M  V30 4646 C 418.481 -2.10563 0.150527 0
M  V30 4647 O 417.829 -2.11374 -0.867956 0
M  V30 4648 C 418.039 -2.21189 2.69956 0
M  V30 4649 C 419.387 -2.82021 3.1741 0
M  V30 4650 O 420.411 -2.31488 2.70724 0
M  V30 4651 O 419.27 -3.73885 3.98588 0
M  V30 4652 H 416.364 -0.591193 0.578291 0
M  V30 4653 H 418.91 -0.569813 1.59847 0
M  V30 4654 H 417.682 -1.62207 3.56096 0
M  V30 4655 H 417.305 -3.02722 2.57769 0
M  V30 4656 N 418.302 -1.35869 -0.798587 0
M  V30 4657 C 419.551 -1.28921 -1.5512 0
M  V30 4658 C 419.864 0.13208 -1.95154 0
M  V30 4659 O 421.07 0.323879 -2.69561 0
M  V30 4660 C 419.526 -2.26141 -2.79979 0
M  V30 4661 C 419.134 -3.73658 -2.47151 0
M  V30 4662 C 420.878 -2.28152 -3.57976 0
M  V30 4663 C 418.785 -4.62679 -3.6835 0
M  V30 4664 H 417.715 -0.479031 -0.582276 0
M  V30 4665 H 420.366 -1.61179 -0.877125 0
M  V30 4666 H 418.748 -1.86865 -3.49138 0
M  V30 4667 H 419.922 -4.21616 -1.85947 0
M  V30 4668 H 418.237 -3.74333 -1.82383 0
M  V30 4669 H 420.834 -2.91875 -4.4801 0
M  V30 4670 H 421.177 -1.28748 -3.95891 0
M  V30 4671 H 421.71 -2.65998 -2.95787 0
M  V30 4672 H 418.449 -5.63111 -3.35538 0
M  V30 4673 H 417.969 -4.19442 -4.28752 0
M  V30 4674 H 419.648 -4.78498 -4.35487 0
M  V30 4675 N 419.78 1.02168 -1.19998 0
M  V30 4676 C 421.029 1.75091 -1.0013 0
M  V30 4677 C 421.342 1.89923 0.467835 0
M  V30 4678 O 422.548 2.59888 0.785515 0
M  V30 4679 C 421.004 3.14892 -1.74273 0
M  V30 4680 C 420.612 3.0809 -3.25245 0
M  V30 4681 C 422.356 3.9206 -1.62755 0
M  V30 4682 C 420.263 4.42867 -3.91948 0
M  V30 4683 H 419.193 0.656394 -0.37103 0
M  V30 4684 H 421.844 1.14284 -1.43567 0
M  V30 4685 H 420.226 3.7621 -1.2362 0
M  V30 4686 H 421.4 2.5611 -3.83072 0
M  V30 4687 H 419.715 2.44416 -3.3712 0
M  V30 4688 H 422.312 4.91764 -2.09934 0
M  V30 4689 H 422.655 4.12199 -0.582894 0
M  V30 4690 H 423.188 3.37359 -2.10793 0
M  V30 4691 H 419.927 4.27931 -4.96543 0
M  V30 4692 H 419.447 4.94874 -3.3891 0
M  V30 4693 H 421.126 5.11728 -3.95909 0
M  V30 4694 N 421.258 1.00505 1.21394 0
M  V30 4695 C 422.498 0.696149 1.9218 0
M  V30 4696 C 422.862 -0.759099 1.76357 0
M  V30 4697 O 424.063 -1.17998 2.41516 0
M  V30 4698 C 422.334 1.10571 3.39866 0
M  V30 4699 S 423.893 0.91702 4.29111 0
M  V30 4700 H 420.711 0.254147 0.664026 0
M  V30 4701 H 423.313 1.28988 1.46909 0
M  V30 4702 H 422.017 2.16096 3.489 0
M  V30 4703 H 421.548 0.504268 3.90155 0
M  V30 4704 H 423.563 -0.185855 4.95852 0
M  V30 4705 N 422.737 -1.36956 0.779787 0
M  V30 4706 C 423.684 -2.30175 0.169697 0
M  V30 4707 C 424.654 -1.51501 -0.68094 0
M  V30 4708 O 425.839 -1.80042 -0.631629 0
M  V30 4709 C 422.979 -3.37985 -0.697131 0
M  V30 4710 C 422.092 -4.31661 0.170992 0
M  V30 4711 C 421.227 -5.2655 -0.701298 0
M  V30 4712 C 420.266 -6.11867 0.168869 0
M  V30 4713 N 419.403 -6.98973 -0.661855 0
M  V30 4714 H 424.243 -2.81767 0.970135 0
M  V30 4715 H 421.78 -1.38699 0.489994 0
M  V30 4716 H 423.738 -3.99128 -1.2146 0
M  V30 4717 H 422.368 -2.87739 -1.46309 0
M  V30 4718 H 421.42 -3.71756 0.80634 0
M  V30 4719 H 422.732 -4.91644 0.841875 0
M  V30 4720 H 421.886 -5.92937 -1.28494 0
M  V30 4721 H 420.625 -4.66998 -1.40584 0
M  V30 4722 H 419.63 -5.44452 0.764986 0
M  V30 4723 H 420.855 -6.73493 0.870863 0
M  V30 4724 H 418.801 -6.41941 -1.35086 0
M  V30 4725 H 418.718 -7.55984 -0.0484447 0
M  V30 4726 H 419.986 -7.6974 -1.22963 0
M  V30 4727 N 424.215 -0.530993 -1.48385 0
M  V30 4728 C 425.463 0.00273189 -2.021 0
M  V30 4729 C 425.784 1.34672 -1.41027 0
M  V30 4730 O 425.054 1.8724 -0.576012 0
M  V30 4731 H 423.634 0.00399774 -0.746989 0
M  V30 4732 H 426.296 -0.695054 -1.82085 0
M  V30 4733 H 425.392 0.11031 -3.11905 0
M  V30 4734 N 425.693 1.55336 -0.266172 0
M  V30 4735 C 426.64 2.22172 0.625165 0
M  V30 4736 C 427.61 1.19211 1.15663 0
M  V30 4737 O 428.795 1.47723 1.20758 0
M  V30 4738 C 425.935 2.93972 1.8076 0
M  V30 4739 C 425.048 4.11632 1.31084 0
M  V30 4740 C 424.183 4.71099 2.45436 0
M  V30 4741 C 423.222 5.8097 1.92718 0
M  V30 4742 N 422.359 6.34538 3.00509 0
M  V30 4743 H 427.199 2.9796 0.0485582 0
M  V30 4744 H 424.736 1.47095 0.0122024 0
M  V30 4745 H 426.694 3.33811 2.50251 0
M  V30 4746 H 425.324 2.20623 2.35638 0
M  V30 4747 H 424.376 3.76975 0.509326 0
M  V30 4748 H 425.688 4.90893 0.884633 0
M  V30 4749 H 424.842 5.13612 3.22936 0
M  V30 4750 H 423.581 3.91096 2.91368 0
M  V30 4751 H 422.586 5.37916 1.13695 0
M  V30 4752 H 423.811 6.62836 1.47733 0
M  V30 4753 H 421.757 5.57433 3.45839 0
M  V30 4754 H 421.674 7.09046 2.62279 0
M  V30 4755 H 422.942 6.81709 3.78011 0
M  V30 4756 N 427.171 -0.0066808 1.57599 0
M  V30 4757 C 428.119 -1.01851 2.09115 0
M  V30 4758 C 429.113 -1.36021 1.00969 0
M  V30 4759 O 430.319 -1.34663 1.19439 0
M  V30 4760 H 426.694 -0.346083 0.667631 0
M  V30 4761 H 428.665 -0.558394 2.93129 0
M  V30 4762 C 427.414 -2.30374 2.60429 0
M  V30 4763 H 426.737 -2.04947 3.43273 0
M  V30 4764 H 428.177 -2.99466 3.00161 0
M  V30 4765 C 426.636 -3.00893 1.51542 0
M  V30 4766 O 427.166 -3.91614 0.894484 0
M  V30 4767 N 425.372 -2.62603 1.2445 0
M  V30 4768 H 424.919 -1.88911 1.75129 0
M  V30 4769 H 424.877 -3.10101 0.518137 0
M  V30 4770 N 428.649 -1.55105 -0.279332 0
M  V30 4771 C 429.895 -1.75672 -1.01327 0
M  V30 4772 C 430.228 -0.552739 -1.86168 0
M  V30 4773 O 429.503 0.449827 -1.89227 0
M  V30 4774 C 429.786 -3.05825 -1.90114 0
M  V30 4775 C 429.639 -4.36565 -1.08309 0
M  V30 4776 C 430.958 -3.31975 -2.8893 0
M  V30 4777 H 428.077 -0.639149 -0.366957 0
M  V30 4778 H 430.719 -1.87833 -0.286154 0
M  V30 4779 H 428.869 -2.95588 -2.52111 0
M  V30 4780 H 430.541 -4.58751 -0.484314 0
M  V30 4781 H 428.784 -4.32076 -0.386362 0
M  V30 4782 H 429.455 -5.23946 -1.73737 0
M  V30 4783 H 431.931 -3.41963 -2.37067 0
M  V30 4784 H 430.807 -4.2432 -3.48201 0
M  V30 4785 H 431.068 -2.51309 -3.63725 0
M  V30 4786 N 430.127 0.543554 -1.4793 0
M  V30 4787 C 431.352 1.32995 -1.59145 0
M  V30 4788 C 431.777 1.86472 -0.246956 0
M  V30 4789 O 431.135 1.63696 0.779324 0
M  V30 4790 C 431.183 2.46623 -2.63077 0
M  V30 4791 O 430.287 3.49261 -2.19295 0
M  V30 4792 H 429.628 0.394472 -0.534124 0
M  V30 4793 H 432.158 0.655489 -1.93816 0
M  V30 4794 H 432.168 2.93001 -2.83926 0
M  V30 4795 H 430.843 2.07059 -3.60693 0
M  V30 4796 H 429.42 3.09094 -2.08603 0
M  V30 4797 N 431.605 1.3629 0.791371 0
M  V30 4798 C 433.016 1.27225 1.36641 0
M  V30 4799 C 433.367 -0.0887968 1.95999 0
M  V30 4800 O 432.492 -0.990207 1.92416 0
M  V30 4801 C 433.087 2.30375 2.48421 0
M  V30 4802 C 431.646 2.25004 3.01746 0
M  V30 4803 C 430.793 2.15259 1.7481 0
M  V30 4804 H 433.744 1.47198 0.593173 0
M  V30 4805 H 433.765 1.93905 3.27385 0
M  V30 4806 H 433.277 3.29422 2.05189 0
M  V30 4807 H 431.378 1.29417 3.49403 0
M  V30 4808 H 431.491 3.1761 3.58693 0
M  V30 4809 H 429.855 1.61482 1.96966 0
M  V30 4810 H 430.638 3.16191 1.33709 0
M  V30 4811 N 433.083 -1.0153 1.20538 0
M  V30 4812 C 434.494 -1.56598 1.01657 0
M  V30 4813 C 434.845 -1.91505 -0.426668 0
M  V30 4814 O 433.97 -1.72375 -1.30827 0
M  V30 4815 C 434.565 -2.84542 1.83905 0
M  V30 4816 C 433.124 -3.36133 1.69386 0
M  V30 4817 C 432.271 -2.09427 1.81757 0
M  V30 4818 H 435.222 -0.838974 1.34711 0
M  V30 4819 H 435.243 -3.56004 1.34319 0
M  V30 4820 H 434.755 -2.59105 2.8894 0
M  V30 4821 H 432.856 -3.66528 0.669933 0
M  V30 4822 H 432.969 -4.08248 2.50739 0
M  V30 4823 H 431.333 -2.21941 1.24957 0
M  V30 4824 H 432.116 -1.86414 2.88279 0
M  V30 4825 N 434.561 -1.01147 -1.20859 0
M  V30 4826 C 435.524 -0.582224 -2.21682 0
M  V30 4827 C 436.524 0.344887 -1.57058 0
M  V30 4828 O 437.714 0.134281 -1.73682 0
M  V30 4829 C 434.846 0.150496 -3.40568 0
M  V30 4830 H 436.039 -1.47408 -2.61172 0
M  V30 4831 H 433.592 -0.800695 -1.34233 0
M  V30 4832 H 434.327 1.0575 -3.06574 0
M  V30 4833 H 434.112 -0.515444 -3.88697 0
M  V30 4834 H 435.602 0.438344 -4.15293 0
M  V30 4835 N 436.039 1.36541 -0.78704 0
M  V30 4836 C 436.969 2.32659 -0.197992 0
M  V30 4837 C 437.95 1.56533 0.665697 0
M  V30 4838 O 439.135 1.84698 0.60001 0
M  V30 4839 C 436.265 3.40778 0.669901 0
M  V30 4840 C 435.219 4.27897 -0.0937039 0
M  V30 4841 C 434.545 5.27163 0.894629 0
M  V30 4842 C 435.845 5.06334 -1.28154 0
M  V30 4843 H 437.539 2.82171 -1.00099 0
M  V30 4844 H 435.085 1.35665 -0.482793 0
M  V30 4845 H 437.038 4.07008 1.09191 0
M  V30 4846 H 435.762 2.89827 1.50558 0
M  V30 4847 H 434.421 3.6322 -0.49666 0
M  V30 4848 H 434.069 4.72486 1.72527 0
M  V30 4849 H 433.769 5.86317 0.388149 0
M  V30 4850 H 435.293 5.96266 1.31525 0
M  V30 4851 H 436.707 5.65617 -0.93541 0
M  V30 4852 H 435.104 5.74888 -1.72115 0
M  V30 4853 H 436.174 4.38114 -2.07807 0
M  V30 4854 N 437.518 0.538854 1.48102 0
M  V30 4855 C 438.448 -0.207654 2.32575 0
M  V30 4856 C 439.429 -0.926559 1.4265 0
M  V30 4857 O 440.614 -0.91061 1.71527 0
M  V30 4858 C 437.744 -1.24957 3.24042 0
M  V30 4859 C 436.698 -0.648263 4.23062 0
M  V30 4860 C 436.024 -1.79348 5.03725 0
M  V30 4861 C 437.324 0.385897 5.20872 0
M  V30 4862 H 439.018 0.497534 2.95237 0
M  V30 4863 H 436.564 0.240715 1.41974 0
M  V30 4864 H 438.517 -1.77983 3.81969 0
M  V30 4865 H 437.241 -1.98446 2.59397 0
M  V30 4866 H 435.9 -0.139452 3.66335 0
M  V30 4867 H 435.548 -2.51696 4.35498 0
M  V30 4868 H 435.248 -1.39702 5.70751 0
M  V30 4869 H 436.772 -2.32735 5.64506 0
M  V30 4870 H 438.186 -0.057607 5.73271 0
M  V30 4871 H 436.583 0.700227 5.96001 0
M  V30 4872 H 437.653 1.28848 4.67468 0
M  V30 4873 N 438.996 -1.55193 0.274407 0
M  V30 4874 C 439.944 -2.23924 -0.629362 0
M  V30 4875 C 440.938 -1.23602 -1.1584 0
M  V30 4876 O 442.144 -1.41535 -1.11211 0
M  V30 4877 H 438.519 -0.718637 -0.221507 0
M  V30 4878 H 440.49 -2.98388 -0.0268322 0
M  V30 4879 C 439.239 -2.97329 -1.80252 0
M  V30 4880 H 438.562 -3.74313 -1.40462 0
M  V30 4881 H 440.002 -3.48743 -2.41152 0
M  V30 4882 C 438.461 -2.0276 -2.69054 0
M  V30 4883 O 438.991 -1.57836 -3.69392 0
M  V30 4884 N 437.197 -1.69275 -2.36208 0
M  V30 4885 H 436.744 -2.06004 -1.54661 0
M  V30 4886 H 436.702 -1.06271 -2.95895 0
M  V30 4887 N 440.474 -0.00167713 -1.576 0
M  V30 4888 C 441.704 0.692754 -1.94639 0
M  V30 4889 C 442.112 1.67744 -0.87513 0
M  V30 4890 O 441.455 1.8305 0.154382 0
M  V30 4891 C 441.517 1.47881 -3.27676 0
M  V30 4892 C 441.181 0.655518 -4.52274 0
M  V30 4893 C 442.178 -0.0575214 -5.19868 0
M  V30 4894 C 439.863 0.600994 -4.98692 0
M  V30 4895 C 441.857 -0.814052 -6.3218 0
M  V30 4896 C 439.544 -0.15926 -6.10892 0
M  V30 4897 C 440.542 -0.865515 -6.77494 0
M  V30 4898 O 440.23 -1.61336 -7.87544 0
M  V30 4899 H 439.962 0.197792 -0.646417 0
M  V30 4900 H 442.516 -0.049423 -2.05341 0
M  V30 4901 H 440.746 2.2655 -3.13388 0
M  V30 4902 H 442.435 2.05874 -3.49816 0
M  V30 4903 H 443.201 -0.0245611 -4.84994 0
M  V30 4904 H 439.08 1.14025 -4.46676 0
M  V30 4905 H 442.624 -1.36584 -6.84098 0
M  V30 4906 H 438.521 -0.194035 -6.45208 0
M  V30 4907 H 439.289 -1.53025 -8.04068 0
M  V30 4908 N 441.952 1.55251 0.271103 0
M  V30 4909 C 442.862 1.9136 1.35714 0
M  V30 4910 C 443.878 0.811075 1.5394 0
M  V30 4911 O 445.054 1.11031 1.6803 0
M  V30 4912 C 442.119 2.1798 2.69603 0
M  V30 4913 C 441.18 3.4153 2.60107 0
M  V30 4914 C 440.413 3.66871 3.8761 0
M  V30 4915 O 440.636 2.94689 4.8838 0
M  V30 4916 O 439.57 4.60405 3.87699 0
M  V30 4917 H 443.396 2.83815 1.08088 0
M  V30 4918 H 440.981 1.41821 0.469792 0
M  V30 4919 H 442.863 2.36518 3.48765 0
M  V30 4920 H 441.538 1.28708 2.97012 0
M  V30 4921 H 440.445 3.28325 1.79314 0
M  V30 4922 H 441.778 4.31027 2.37647 0
M  V30 4923 N 443.43 -0.535701 1.48216 0
M  V30 4924 C 444.377 -1.64083 1.62312 0
M  V30 4925 C 445.347 -1.59448 0.465365 0
M  V30 4926 O 446.532 -1.77959 0.688135 0
M  V30 4927 C 443.672 -3.0236 1.66349 0
M  V30 4928 C 442.785 -3.17273 2.93193 0
M  V30 4929 C 441.92 -4.46075 2.88427 0
M  V30 4930 C 440.959 -4.54496 4.1 0
M  V30 4931 N 440.096 -5.7468 4.03345 0
M  V30 4932 H 444.936 -1.51374 2.5669 0
M  V30 4933 H 442.473 -0.737059 1.27302 0
M  V30 4934 H 444.431 -3.82461 1.66672 0
M  V30 4935 H 443.061 -3.13854 0.754672 0
M  V30 4936 H 442.113 -2.30462 3.02641 0
M  V30 4937 H 443.425 -3.19357 3.83162 0
M  V30 4938 H 442.579 -5.3446 2.87119 0
M  V30 4939 H 441.318 -4.46504 1.96177 0
M  V30 4940 H 440.323 -3.64519 4.11589 0
M  V30 4941 H 441.548 -4.5581 5.03402 0
M  V30 4942 H 439.494 -5.76017 3.13912 0
M  V30 4943 H 439.411 -5.78234 4.87013 0
M  V30 4944 H 440.679 -6.65367 4.06087 0
M  V30 4945 N 444.908 -1.36708 -0.784132 0
M  V30 4946 C 445.818 -1.3363 -1.92822 0
M  V30 4947 C 446.834 -0.237686 -1.72369 0
M  V30 4948 O 448.01 -0.470962 -1.95816 0
M  V30 4949 C 445.075 -1.13011 -3.27764 0
M  V30 4950 C 444.136 -2.32397 -3.60957 0
M  V30 4951 C 443.369 -2.12752 -4.89461 0
M  V30 4952 O 443.592 -1.10541 -5.59586 0
M  V30 4953 O 442.526 -3.00653 -5.21432 0
M  V30 4954 H 446.352 -2.29964 -1.98369 0
M  V30 4955 H 443.937 -1.1731 -0.925136 0
M  V30 4956 H 445.819 -1.03451 -4.08504 0
M  V30 4957 H 444.494 -0.19743 -3.23097 0
M  V30 4958 H 443.401 -2.47527 -2.80502 0
M  V30 4959 H 444.734 -3.2419 -3.70354 0
M  V30 4960 N 446.386 1.0089 -1.21074 0
M  V30 4961 C 447.611 1.78727 -1.05221 0
M  V30 4962 C 448.036 1.83932 0.393795 0
M  V30 4963 O 447.394 1.28004 1.28393 0
M  V30 4964 C 447.442 3.20665 -1.64944 0
M  V30 4965 O 446.546 4.02632 -0.892273 0
M  V30 4966 H 445.887 0.550973 -0.370574 0
M  V30 4967 H 448.417 1.26847 -1.60534 0
M  V30 4968 H 448.427 3.71352 -1.69002 0
M  V30 4969 H 447.102 3.16191 -2.70177 0
M  V30 4970 H 445.679 3.61207 -0.926492 0
M  V30 4971 N 447.864 1.01787 1.20321 0
M  V30 4972 C 448.811 0.589197 2.23153 0
M  V30 4973 C 449.781 -0.391367 1.61423 0
M  V30 4974 O 450.966 -0.290518 1.88575 0
M  V30 4975 C 448.106 -0.0650747 3.45039 0
M  V30 4976 C 447.219 0.960207 4.21194 0
M  V30 4977 C 446.354 0.276854 5.30478 0
M  V30 4978 C 445.393 1.2888 5.98378 0
M  V30 4979 N 444.53 0.632031 6.99249 0
M  V30 4980 H 449.37 1.47071 2.59179 0
M  V30 4981 H 446.907 0.736192 1.27352 0
M  V30 4982 H 448.865 -0.461552 4.14639 0
M  V30 4983 H 447.495 -0.910233 3.09701 0
M  V30 4984 H 446.547 1.47484 3.50646 0
M  V30 4985 H 447.859 1.72977 4.67847 0
M  V30 4986 H 447.013 -0.175056 6.06447 0
M  V30 4987 H 445.752 -0.525004 4.84866 0
M  V30 4988 H 444.757 1.75109 5.21169 0
M  V30 4989 H 445.982 2.09196 6.46076 0
M  V30 4990 H 443.928 -0.149935 6.55829 0
M  V30 4991 H 443.845 1.33964 7.44036 0
M  V30 4992 H 445.113 0.203755 7.79234 0
M  V30 4993 N 449.342 -1.36122 0.79427 0
M  V30 4994 C 450.29 -2.31871 0.184023 0
M  V30 4995 C 451.284 -1.56041 -0.659365 0
M  V30 4996 O 452.49 -1.71266 -0.553906 0
M  V30 4997 H 448.865 -0.750896 0.0407373 0
M  V30 4998 H 450.836 -2.80898 1.00693 0
M  V30 4999 C 449.585 -3.41324 -0.662813 0
M  V30 5000 H 448.908 -3.99793 -0.0231944 0
M  V30 5001 H 450.348 -4.10629 -1.05639 0
M  V30 5002 C 448.807 -2.83308 -1.82313 0
M  V30 5003 O 449.337 -2.75863 -2.91997 0
M  V30 5004 N 447.543 -2.40529 -1.63077 0
M  V30 5005 H 447.09 -2.46785 -0.738591 0
M  V30 5006 H 447.048 -2.02059 -2.40872 0
M  V30 5007 N 450.82 -0.546701 -1.47814 0
M  V30 5008 C 451.767 0.206854 -2.29871 0
M  V30 5009 C 452.737 0.918235 -1.38411 0
M  V30 5010 O 453.922 0.915991 -1.67375 0
M  V30 5011 C 451.062 1.23746 -3.22151 0
M  V30 5012 C 450.175 0.533216 -4.28697 0
M  V30 5013 C 449.31 1.5482 -5.08138 0
M  V30 5014 C 448.349 0.828347 -6.06469 0
M  V30 5015 N 447.486 1.78966 -6.78908 0
M  V30 5016 H 452.326 -0.499037 -2.93792 0
M  V30 5017 H 449.863 -0.25793 -1.44821 0
M  V30 5018 H 451.821 1.84746 -3.74065 0
M  V30 5019 H 450.451 1.91151 -2.60117 0
M  V30 5020 H 449.503 -0.191089 -3.7992 0
M  V30 5021 H 450.815 -0.0311987 -4.9879 0
M  V30 5022 H 449.969 2.23202 -5.6415 0
M  V30 5023 H 448.708 2.14652 -4.37922 0
M  V30 5024 H 447.713 0.130539 -5.49645 0
M  V30 5025 H 448.938 0.235907 -6.7869 0
M  V30 5026 H 446.884 2.37675 -6.1143 0
M  V30 5027 H 446.801 1.27712 -7.45135 0
M  V30 5028 H 448.069 2.46496 -7.395 0
M  V30 5029 N 452.299 1.55045 -0.282633 0
M  V30 5030 C 453.246 2.22822 0.601566 0
M  V30 5031 C 454.216 1.20431 1.14392 0
M  V30 5032 O 455.401 1.48996 1.19184 0
M  V30 5033 C 452.541 2.95873 1.77632 0
M  V30 5034 C 451.654 4.12999 1.26711 0
M  V30 5035 C 450.789 4.73676 2.40426 0
M  V30 5036 C 449.828 5.82981 1.86545 0
M  V30 5037 N 448.965 6.3769 2.93762 0
M  V30 5038 H 453.805 2.97995 0.0169528 0
M  V30 5039 H 451.342 1.471 -0.00339964 0
M  V30 5040 H 453.3 3.36447 2.46697 0
M  V30 5041 H 451.93 2.2311 2.33285 0
M  V30 5042 H 450.982 3.77494 0.469314 0
M  V30 5043 H 452.294 4.91803 0.832518 0
M  V30 5044 H 451.448 5.17008 3.17471 0
M  V30 5045 H 450.187 3.94164 2.87203 0
M  V30 5046 H 449.192 5.39092 1.07983 0
M  V30 5047 H 450.417 6.64366 1.40694 0
M  V30 5048 H 448.363 5.61069 3.39908 0
M  V30 5049 H 448.28 7.11788 2.54744 0
M  V30 5050 H 449.548 6.8568 3.7076 0
M  V30 5051 N 453.777 0.010035 1.57597 0
M  V30 5052 C 455.002 -0.687021 1.95691 0
M  V30 5053 C 455.427 -1.65952 0.885519 0
M  V30 5054 O 454.785 -1.80633 -0.15543 0
M  V30 5055 C 454.833 -1.3864 3.32884 0
M  V30 5056 O 453.937 -2.50115 3.27897 0
M  V30 5057 H 453.278 -0.181989 0.638573 0
M  V30 5058 H 455.808 0.0662122 2.04493 0
M  V30 5059 H 455.818 -1.74754 3.6868 0
M  V30 5060 H 454.493 -0.673411 4.10412 0
M  V30 5061 H 453.07 -2.16253 3.03791 0
M  V30 5062 N 455.255 -1.55392 -0.262866 0
M  V30 5063 C 456.48 -1.80847 -1.01533 0
M  V30 5064 C 456.905 -0.584946 -1.78774 0
M  V30 5065 O 456.263 0.465701 -1.75217 0
M  V30 5066 C 456.311 -3.03866 -1.94159 0
M  V30 5067 O 455.415 -2.79662 -3.03089 0
M  V30 5068 H 454.756 -0.597441 -0.289759 0
M  V30 5069 H 457.286 -2.02553 -0.288698 0
M  V30 5070 H 457.296 -3.32872 -2.35924 0
M  V30 5071 H 455.971 -3.92564 -1.37354 0
M  V30 5072 H 454.548 -2.61781 -2.65566 0
M  V30 5073 N 456.733 0.527833 -1.48498 0
M  V30 5074 C 457.663 1.64136 -1.66077 0
M  V30 5075 C 458.644 1.62286 -0.509625 0
M  V30 5076 O 459.829 1.79449 -0.742413 0
M  V30 5077 C 456.959 3.02717 -1.70234 0
M  V30 5078 C 455.913 3.19426 -2.8487 0
M  V30 5079 C 455.239 4.5909 -2.74118 0
M  V30 5080 C 456.539 3.01993 -4.26142 0
M  V30 5081 H 458.233 1.4968 -2.593 0
M  V30 5082 H 455.779 0.718654 -1.24785 0
M  V30 5083 H 457.732 3.80491 -1.8112 0
M  V30 5084 H 456.456 3.18201 -0.735911 0
M  V30 5085 H 455.115 2.4407 -2.73542 0
M  V30 5086 H 454.763 4.71413 -1.7544 0
M  V30 5087 H 454.463 4.71214 -3.51042 0
M  V30 5088 H 455.987 5.3896 -2.86974 0
M  V30 5089 H 457.401 3.69558 -4.38292 0
M  V30 5090 H 455.798 3.2561 -5.04082 0
M  V30 5091 H 456.868 1.98396 -4.42456 0
M  V30 5092 N 458.211 1.37122 0.776871 0
M  V30 5093 C 459.158 1.3247 1.88998 0
M  V30 5094 C 460.128 0.191143 1.64997 0
M  V30 5095 O 461.313 0.379683 1.86984 0
M  V30 5096 C 458.453 1.13241 3.25992 0
M  V30 5097 C 457.566 2.35782 3.61982 0
M  V30 5098 C 456.701 2.09465 4.88158 0
M  V30 5099 C 455.74 3.279 5.16864 0
M  V30 5100 N 454.877 3.01167 6.34226 0
M  V30 5101 H 459.717 2.27642 1.9231 0
M  V30 5102 H 457.254 1.13125 0.94027 0
M  V30 5103 H 459.212 1.00115 4.0501 0
M  V30 5104 H 457.842 0.217186 3.22069 0
M  V30 5105 H 456.894 2.59666 2.77989 0
M  V30 5106 H 458.206 3.24125 3.79137 0
M  V30 5107 H 457.36 1.93341 5.75069 0
M  V30 5108 H 456.099 1.18452 4.73097 0
M  V30 5109 H 455.104 3.44569 4.2843 0
M  V30 5110 H 456.329 4.19757 5.33836 0
M  V30 5111 H 454.275 2.12779 6.20533 0
M  V30 5112 H 454.192 3.83052 6.51772 0
M  V30 5113 H 455.46 2.88649 7.24087 0
M  V30 5114 N 459.689 -1.00246 1.21608 0
M  V30 5115 C 460.929 -1.75589 1.04631 0
M  V30 5116 C 461.293 -1.87513 -0.412648 0
M  V30 5117 O 462.494 -2.59444 -0.703003 0
M  V30 5118 C 460.765 -3.12893 1.72722 0
M  V30 5119 S 462.324 -4.04095 1.71034 0
M  V30 5120 H 459.142 -0.604133 0.374892 0
M  V30 5121 H 461.744 -1.19927 1.54395 0
M  V30 5122 H 460.448 -3.0185 2.78055 0
M  V30 5123 H 459.979 -3.73628 1.23149 0
M  V30 5124 H 461.994 -4.9045 0.753231 0
M  V30 5125 N 461.167 -1.02423 -1.1978 0
M  V30 5126 C 462.097 -0.62157 -2.25075 0
M  V30 5127 C 463.078 0.367148 -1.6609 0
M  V30 5128 O 464.263 0.250892 -1.92573 0
M  V30 5129 C 461.393 0.0331826 -3.47284 0
M  V30 5130 C 460.347 -0.877323 -4.18912 0
M  V30 5131 C 459.673 -0.0879296 -5.34628 0
M  V30 5132 C 460.973 -2.18892 -4.74219 0
M  V30 5133 H 462.667 -1.50179 -2.59011 0
M  V30 5134 H 460.213 -0.723547 -1.24502 0
M  V30 5135 H 462.166 0.326488 -4.20133 0
M  V30 5136 H 460.89 0.948164 -3.12534 0
M  V30 5137 H 459.549 -1.15475 -3.47938 0
M  V30 5138 H 459.197 0.828941 -4.96123 0
M  V30 5139 H 458.897 -0.694359 -5.83483 0
M  V30 5140 H 460.421 0.198743 -6.10276 0
M  V30 5141 H 461.835 -1.95746 -5.38847 0
M  V30 5142 H 460.232 -2.74686 -5.33542 0
M  V30 5143 H 461.302 -2.84674 -3.92541 0
M  V30 5144 N 462.645 1.35699 -0.801477 0
M  V30 5145 C 463.575 2.32436 -0.222658 0
M  V30 5146 C 464.556 1.5723 0.649057 0
M  V30 5147 O 465.741 1.85324 0.580387 0
M  V30 5148 C 462.871 3.41469 0.633719 0
M  V30 5149 C 461.825 4.27774 -0.139083 0
M  V30 5150 C 461.151 5.28082 0.838666 0
M  V30 5151 C 462.451 5.04946 -1.33517 0
M  V30 5152 H 464.145 2.81094 -1.03086 0
M  V30 5153 H 461.691 1.35146 -0.497155 0
M  V30 5154 H 463.644 4.08143 1.04868 0
M  V30 5155 H 462.368 2.91408 1.47475 0
M  V30 5156 H 461.027 3.62673 -0.535156 0
M  V30 5157 H 460.675 4.7429 1.67506 0
M  V30 5158 H 460.375 5.86695 0.32594 0
M  V30 5159 H 461.899 5.97628 1.25194 0
M  V30 5160 H 463.313 5.64593 -0.995349 0
M  V30 5161 H 461.71 5.7303 -1.78202 0
M  V30 5162 H 462.78 4.35886 -2.12442 0
M  V30 5163 N 464.123 0.554532 1.47522 0
M  V30 5164 C 465.534 0.120446 1.86311 0
M  V30 5165 C 465.885 -1.30904 1.46145 0
M  V30 5166 O 465.01 -1.98434 0.863294 0
M  V30 5167 C 465.605 0.211808 3.38137 0
M  V30 5168 C 464.164 -0.167224 3.76028 0
M  V30 5169 C 463.311 0.560576 2.71575 0
M  V30 5170 H 466.262 0.764408 1.39077 0
M  V30 5171 H 466.283 -0.570275 3.76202 0
M  V30 5172 H 465.795 1.25232 3.6734 0
M  V30 5173 H 463.896 -1.20894 3.52442 0
M  V30 5174 H 464.009 0.189473 4.78725 0
M  V30 5175 H 462.373 0.00396836 2.547 0
M  V30 5176 H 463.156 1.60219 3.0362 0
M  V30 5177 N 465.601 -1.54893 0.290851 0
M  V30 5178 C 466.841 -2.01842 -0.322388 0
M  V30 5179 C 467.205 -1.17477 -1.51865 0
M  V30 5180 O 468.406 -1.54077 -2.20258 0
M  V30 5181 C 466.677 -3.50874 -0.679844 0
M  V30 5182 S 468.236 -4.19796 -1.27739 0
M  V30 5183 H 465.054 -0.704005 -0.0994866 0
M  V30 5184 H 467.656 -1.91015 0.416358 0
M  V30 5185 H 466.36 -4.09915 0.199435 0
M  V30 5186 H 465.891 -3.65717 -1.44964 0
M  V30 5187 H 467.906 -4.24729 -2.56554 0
M  V30 5188 N 467.08 -0.0183926 -1.57589 0
M  V30 5189 C 468.03 0.975944 -2.06057 0
M  V30 5190 C 469.014 1.29204 -0.958908 0
M  V30 5191 O 470.206 1.27995 -1.22255 0
M  V30 5192 C 467.335 2.26194 -2.58247 0
M  V30 5193 C 466.421 1.97467 -3.75323 0
M  V30 5194 N 466.812 1.38968 -4.86335 0
M  V30 5195 C 465.11 2.27515 -3.83605 0
M  V30 5196 C 465.811 1.27131 -5.67638 0
M  V30 5197 N 464.787 1.76319 -5.14211 0
M  V30 5198 H 468.589 0.518444 -2.89291 0
M  V30 5199 H 466.103 0.18688 -1.61321 0
M  V30 5200 H 468.1 2.98289 -2.91255 0
M  V30 5201 H 466.76 2.7258 -1.76438 0
M  V30 5202 H 467.771 1.06608 -5.06809 0
M  V30 5203 H 464.448 2.76649 -3.12684 0
M  V30 5204 H 465.838 0.819882 -6.66879 0
M  V30 5205 N 468.558 1.5553 0.254621 0
M  V30 5206 C 469.969 1.67518 0.824286 0
M  V30 5207 C 470.32 0.614429 1.86331 0
M  V30 5208 O 469.445 -0.240736 2.15057 0
M  V30 5209 C 470.04 3.03692 1.50189 0
M  V30 5210 C 468.599 3.17646 2.01935 0
M  V30 5211 C 467.746 2.63373 0.867746 0
M  V30 5212 H 470.697 1.58671 0.0305843 0
M  V30 5213 H 470.718 2.97706 2.36962 0
M  V30 5214 H 470.23 3.80874 0.745431 0
M  V30 5215 H 468.331 2.45273 2.80485 0
M  V30 5216 H 468.444 4.24455 2.22204 0
M  V30 5217 H 466.808 2.20999 1.26616 0
M  V30 5218 H 467.591 3.43074 0.124498 0
M  V30 5219 N 470.036 -0.519951 1.48776 0
M  V30 5220 C 471.266 -1.29783 1.60748 0
M  V30 5221 C 471.674 -1.87253 0.27072 0
M  V30 5222 O 471.017 -1.67628 -0.751438 0
M  V30 5223 C 471.079 -2.47984 2.60277 0
M  V30 5224 C 470.743 -2.11526 4.051 0
M  V30 5225 C 471.74 -1.66608 4.92481 0
M  V30 5226 C 469.425 -2.21742 4.50706 0
M  V30 5227 C 471.419 -1.32384 6.23501 0
M  V30 5228 C 469.106 -1.87129 5.81744 0
M  V30 5229 C 470.104 -1.42523 6.67964 0
M  V30 5230 O 469.792 -1.0837 7.96562 0
M  V30 5231 H 469.524 -0.400562 0.544542 0
M  V30 5232 H 472.078 -0.632879 1.95407 0
M  V30 5233 H 470.308 -3.17493 2.2076 0
M  V30 5234 H 471.997 -3.10036 2.61978 0
M  V30 5235 H 472.763 -1.58178 4.58481 0
M  V30 5236 H 468.642 -2.55415 3.83776 0
M  V30 5237 H 472.186 -0.974949 6.90754 0
M  V30 5238 H 468.083 -1.95204 6.15277 0
M  V30 5239 H 468.851 -1.21681 8.09405 0
M  V30 5240 N 471.514 -1.37532 -0.769588 0
M  V30 5241 C 472.444 -1.36172 -1.89682 0
M  V30 5242 C 473.425 -0.23001 -1.68538 0
M  V30 5243 O 474.61 -0.43069 -1.89364 0
M  V30 5244 C 471.74 -1.1701 -3.26995 0
M  V30 5245 C 470.694 -2.27216 -3.62708 0
M  V30 5246 C 470.02 -1.93174 -4.98586 0
M  V30 5247 C 471.32 -3.6941 -3.69234 0
M  V30 5248 H 473.014 -2.30499 -1.91078 0
M  V30 5249 H 470.56 -1.10953 -0.917902 0
M  V30 5250 H 472.513 -1.14688 -4.05493 0
M  V30 5251 H 471.237 -0.191395 -3.26039 0
M  V30 5252 H 469.896 -2.28697 -2.86519 0
M  V30 5253 H 469.544 -0.938281 -4.94171 0
M  V30 5254 H 469.244 -2.66973 -5.23449 0
M  V30 5255 H 470.768 -1.92443 -5.79481 0
M  V30 5256 H 472.182 -3.70047 -4.37879 0
M  V30 5257 H 470.579 -4.4228 -4.05597 0
M  V30 5258 H 471.649 -4.0288 -2.69844 0
M  V30 5259 N 472.992 0.995999 -1.22138 0
M  V30 5260 C 473.94 2.10673 -0.985876 0
M  V30 5261 C 474.934 1.69255 0.0699553 0
M  V30 5262 O 476.14 1.79812 -0.0822176 0
M  V30 5263 H 472.515 0.688865 -0.30161 0
M  V30 5264 H 474.486 2.27711 -1.92848 0
M  V30 5265 C 473.235 3.42881 -0.576909 0
M  V30 5266 H 472.558 3.75191 -1.38101 0
M  V30 5267 H 473.998 4.21589 -0.451518 0
M  V30 5268 C 472.457 3.29265 0.713196 0
M  V30 5269 O 472.987 3.60777 1.76643 0
M  V30 5270 N 471.193 2.82456 0.683162 0
M  V30 5271 H 470.74 2.5701 -0.174242 0
M  V30 5272 H 470.698 2.73727 1.54663 0
M  V30 5273 N 474.47 1.03057 1.19235 0
M  V30 5274 C 475.695 0.74757 1.93458 0
M  V30 5275 C 476.12 -0.687648 1.7508 0
M  V30 5276 O 475.478 -1.47499 1.05422 0
M  V30 5277 C 475.526 1.10604 3.43219 0
M  V30 5278 O 474.63 0.225671 4.11782 0
M  V30 5279 H 473.971 0.276047 0.603899 0
M  V30 5280 H 476.501 1.3777 1.51263 0
M  V30 5281 H 476.511 1.06366 3.93891 0
M  V30 5282 H 475.186 2.15165 3.55917 0
M  V30 5283 H 473.763 0.326795 3.71465 0
M  V30 5284 N 475.948 -1.35272 0.808662 0
M  V30 5285 C 476.858 -2.33546 0.222079 0
M  V30 5286 C 477.874 -1.6196 -0.636011 0
M  V30 5287 O 479.05 -1.93822 -0.547274 0
M  V30 5288 C 476.115 -3.41148 -0.61795 0
M  V30 5289 C 475.176 -4.28507 0.260875 0
M  V30 5290 C 474.409 -5.3097 -0.539156 0
M  V30 5291 O 474.632 -5.42123 -1.77367 0
M  V30 5292 O 473.566 -6.01858 0.0710526 0
M  V30 5293 H 477.392 -2.85515 1.03512 0
M  V30 5294 H 474.977 -1.38079 0.570495 0
M  V30 5295 H 476.859 -4.06889 -1.09634 0
M  V30 5296 H 475.534 -2.91447 -1.40855 0
M  V30 5297 H 474.441 -3.6574 0.786451 0
M  V30 5298 H 475.774 -4.81611 1.01547 0
M  V30 5299 N 477.426 -0.562348 -1.47226 0
M  V30 5300 C 478.672 -0.0485293 -2.03342 0
M  V30 5301 C 479.027 1.28898 -1.42839 0
M  V30 5302 O 478.32 1.82719 -0.576563 0
M  V30 5303 C 478.514 0.0969817 -3.57268 0
M  V30 5304 C 478.343 -1.22487 -4.32697 0
M  V30 5305 C 477.113 -1.79357 -4.72397 0
M  V30 5306 C 479.311 -2.14332 -4.67511 0
M  V30 5307 N 477.293 -3.05493 -5.32491 0
M  V30 5308 C 478.664 -3.25049 -5.27961 0
M  V30 5309 C 480.719 -2.14263 -4.4944 0
M  V30 5310 C 479.422 -4.35804 -5.72248 0
M  V30 5311 C 481.448 -3.24033 -4.94729 0
M  V30 5312 C 480.81 -4.3347 -5.55233 0
M  V30 5313 H 476.909 -0.0600464 -0.779691 0
M  V30 5314 H 479.493 -0.750769 -1.79643 0
M  V30 5315 H 477.664 0.768353 -3.80724 0
M  V30 5316 H 479.396 0.613333 -4.00025 0
M  V30 5317 H 476.151 -1.33093 -4.54514 0
M  V30 5318 H 476.575 -3.698 -5.67077 0
M  V30 5319 H 481.217 -1.30935 -4.02015 0
M  V30 5320 H 478.935 -5.19888 -6.18661 0
M  V30 5321 H 482.521 -3.25073 -4.82513 0
M  V30 5322 H 481.401 -5.17008 -5.89638 0
M  V30 5323 N 478.904 1.54736 -0.299062 0
M  V30 5324 C 480.129 2.04975 0.316254 0
M  V30 5325 C 480.554 1.17501 1.46885 0
M  V30 5326 O 479.912 0.178678 1.80417 0
M  V30 5327 C 479.96 3.52672 0.751997 0
M  V30 5328 O 479.064 3.68226 1.85697 0
M  V30 5329 H 478.405 0.661126 0.0617175 0
M  V30 5330 H 480.935 1.99805 -0.440341 0
M  V30 5331 H 480.945 3.94488 1.04133 0
M  V30 5332 H 479.62 4.158 -0.0911482 0
M  V30 5333 H 478.197 3.38316 1.56834 0
M  V30 5334 N 480.382 0.0267497 1.57577 0
M  V30 5335 C 481.629 -0.652404 1.91703 0
M  V30 5336 C 481.957 -1.72271 0.902936 0
M  V30 5337 O 481.212 -1.955 -0.0884843 0
M  V30 5338 C 481.511 -1.30914 3.3256 0
M  V30 5339 C 481.177 -0.369441 4.49384 0
M  V30 5340 C 479.839 -0.110791 4.81072 0
M  V30 5341 C 482.191 0.275971 5.20469 0
M  V30 5342 C 479.519 0.801116 5.81205 0
M  V30 5343 C 481.871 1.17592 6.21575 0
M  V30 5344 C 480.535 1.44348 6.51705 0
M  V30 5345 H 479.805 -0.238732 0.70149 0
M  V30 5346 H 482.452 0.0880091 1.91298 0
M  V30 5347 H 480.757 -2.12425 3.29216 0
M  V30 5348 H 482.454 -1.84115 3.56234 0
M  V30 5349 H 479.044 -0.581211 4.24641 0
M  V30 5350 H 483.228 0.0892 4.9622 0
M  V30 5351 H 478.484 1.01614 6.02897 0
M  V30 5352 H 482.658 1.68223 6.75777 0
M  V30 5353 H 480.285 2.15176 7.29111 0
M  V30 5354 N 481.861 -1.55662 -0.24637 0
M  V30 5355 C 482.824 -1.89558 -1.28842 0
M  V30 5356 C 483.824 -0.772082 -1.41052 0
M  V30 5357 O 485.014 -1.04007 -1.39743 0
M  V30 5358 C 482.146 -2.12449 -2.66605 0
M  V30 5359 H 483.339 -2.82735 -1.00004 0
M  V30 5360 H 480.892 -1.48562 -0.485684 0
M  V30 5361 H 481.627 -1.21742 -3.00582 0
M  V30 5362 H 481.412 -2.94273 -2.59125 0
M  V30 5363 H 482.902 -2.39854 -3.41847 0
M  V30 5364 N 483.339 0.512053 -1.4905 0
M  V30 5365 C 484.564 1.2959 -1.6193 0
M  V30 5366 C 484.989 1.85906 -0.286454 0
M  V30 5367 O 484.347 1.65312 0.744426 0
M  V30 5368 C 484.395 2.40987 -2.68249 0
M  V30 5369 O 483.499 3.44531 -2.26654 0
M  V30 5370 H 482.84 0.383053 -0.542371 0
M  V30 5371 H 485.37 0.614231 -1.95162 0
M  V30 5372 H 485.38 2.86913 -2.90078 0
M  V30 5373 H 484.055 1.99361 -3.65004 0
M  V30 5374 H 482.632 3.046 -2.15112 0
M  V30 5375 N 484.817 1.37938 0.762283 0
M  V30 5376 C 486.047 1.36685 1.54922 0
M  V30 5377 C 486.455 -0.0474099 1.89141 0
M  V30 5378 O 485.798 -1.02213 1.52638 0
M  V30 5379 C 485.86 2.14963 2.88152 0
M  V30 5380 C 485.524 3.6385 2.76518 0
M  V30 5381 C 486.521 4.57531 2.46904 0
M  V30 5382 C 484.206 4.07095 2.94243 0
M  V30 5383 C 486.2 5.92436 2.35156 0
M  V30 5384 C 483.887 5.42083 2.82116 0
M  V30 5385 C 484.885 6.34567 2.52614 0
M  V30 5386 O 484.573 7.67073 2.40529 0
M  V30 5387 H 484.305 0.469586 0.486276 0
M  V30 5388 H 486.859 1.82012 0.951876 0
M  V30 5389 H 485.089 1.6434 3.50042 0
M  V30 5390 H 486.778 2.06224 3.49609 0
M  V30 5391 H 487.544 4.25428 2.32886 0
M  V30 5392 H 483.423 3.35462 3.16206 0
M  V30 5393 H 486.967 6.64591 2.12049 0
M  V30 5394 H 482.864 5.73785 2.95704 0
M  V30 5395 H 483.632 7.77499 2.55807 0
M  V30 5396 N 486.295 -0.989507 1.22664 0
M  V30 5397 C 487.242 -2.08024 0.999733 0
M  V30 5398 C 488.212 -1.65909 -0.0797047 0
M  V30 5399 O 489.397 -1.90669 0.0705715 0
M  V30 5400 C 486.537 -3.40067 0.587234 0
M  V30 5401 C 485.65 -3.95505 1.73781 0
M  V30 5402 C 484.785 -5.15722 1.27297 0
M  V30 5403 C 483.824 -5.63305 2.39488 0
M  V30 5404 N 482.961 -6.74758 1.94026 0
M  V30 5405 H 487.801 -2.26768 1.9334 0
M  V30 5406 H 485.338 -1.11171 0.963297 0
M  V30 5407 H 487.296 -4.15899 0.329227 0
M  V30 5408 H 485.926 -3.21314 -0.309426 0
M  V30 5409 H 484.978 -3.16513 2.11006 0
M  V30 5410 H 486.29 -4.26797 2.58158 0
M  V30 5411 H 485.444 -5.98854 0.972546 0
M  V30 5412 H 484.183 -4.86061 0.399445 0
M  V30 5413 H 483.188 -4.78759 2.70315 0
M  V30 5414 H 484.413 -5.94988 3.27362 0
M  V30 5415 H 482.359 -6.46874 1.09041 0
M  V30 5416 H 482.276 -7.05386 2.71968 0
M  V30 5417 H 483.544 -7.61387 1.67062 0
M  V30 5418 N 487.773 -1.03688 -1.18687 0
M  V30 5419 C 488.703 -0.645407 -2.24403 0
M  V30 5420 C 489.684 0.349511 -1.66471 0
M  V30 5421 O 490.869 0.230453 -1.92828 0
M  V30 5422 C 487.999 -0.00365337 -3.473 0
M  V30 5423 C 486.953 -0.921705 -4.17958 0
M  V30 5424 C 486.279 -0.144629 -5.34504 0
M  V30 5425 C 487.579 -2.23909 -4.71871 0
M  V30 5426 H 489.273 -1.52917 -2.57404 0
M  V30 5427 H 486.819 -0.736711 -1.23728 0
M  V30 5428 H 488.772 0.281908 -4.20456 0
M  V30 5429 H 487.496 0.914963 -3.13522 0
M  V30 5430 H 486.155 -1.19159 -3.46694 0
M  V30 5431 H 485.803 0.776274 -4.96974 0
M  V30 5432 H 485.503 -0.756206 -5.82714 0
M  V30 5433 H 487.027 0.134004 -6.10453 0
M  V30 5434 H 488.441 -2.0145 -5.36741 0
M  V30 5435 H 486.838 -2.8033 -5.30599 0
M  V30 5436 H 487.908 -2.88822 -3.895 0
M  V30 5437 N 489.251 1.34841 -0.815825 0
M  V30 5438 C 490.662 1.80937 -0.46029 0
M  V30 5439 C 491.013 1.67685 1.01863 0
M  V30 5440 O 490.138 1.21277 1.79223 0
M  V30 5441 C 490.733 3.28509 -0.828708 0
M  V30 5442 C 489.292 3.72712 -0.525644 0
M  V30 5443 C 488.439 2.56676 -1.04941 0
M  V30 5444 H 491.39 1.22688 -1.00664 0
M  V30 5445 H 491.411 3.80279 -0.129757 0
M  V30 5446 H 490.923 3.38122 -1.90513 0
M  V30 5447 H 489.024 3.68642 0.541666 0
M  V30 5448 H 489.137 4.67119 -1.06474 0
M  V30 5449 H 487.501 2.50302 -0.471286 0
M  V30 5450 H 488.284 2.69063 -2.13214 0
M  V30 5451 N 490.729 0.570148 1.46925 0
M  V30 5452 C 491.977 0.0508523 2.02036 0
M  V30 5453 C 492.298 -1.30885 1.44548 0
M  V30 5454 O 491.568 -1.85647 0.625453 0
M  V30 5455 H 490.148 0.0158088 0.746833 0
M  V30 5456 H 492.81 0.743086 1.80178 0
M  V30 5457 H 491.906 -0.027575 3.12088 0
M  V30 5458 N 492.207 -1.54576 0.307264 0
M  V30 5459 C 493.154 -2.23751 -0.56604 0
M  V30 5460 C 494.124 -1.22235 -1.12462 0
M  V30 5461 O 495.309 -1.50873 -1.16799 0
M  V30 5462 C 492.449 -2.98661 -1.72903 0
M  V30 5463 C 491.562 -4.14963 -1.20124 0
M  V30 5464 C 490.697 -4.77441 -2.3286 0
M  V30 5465 C 489.736 -5.85875 -1.77247 0
M  V30 5466 N 488.873 -6.42282 -2.8358 0
M  V30 5467 H 493.713 -2.97984 0.0304578 0
M  V30 5468 H 491.25 -1.47076 0.0268015 0
M  V30 5469 H 493.208 -3.40329 -2.41313 0
M  V30 5470 H 491.838 -2.26793 -2.29706 0
M  V30 5471 H 490.89 -3.78193 -0.409198 0
M  V30 5472 H 492.202 -4.93066 -0.754171 0
M  V30 5473 H 491.356 -5.21993 -3.09205 0
M  V30 5474 H 490.095 -3.98684 -2.80896 0
M  V30 5475 H 489.1 -5.40741 -0.993926 0
M  V30 5476 H 490.325 -6.6652 -1.30107 0
M  V30 5477 H 488.271 -5.66406 -3.30939 0
M  V30 5478 H 488.188 -7.1575 -2.43388 0
M  V30 5479 H 489.456 -6.91492 -3.59804 0
M  V30 5480 N 493.685 -0.035106 -1.57561 0
M  V30 5481 C 494.632 0.94474 -2.10578 0
M  V30 5482 C 495.602 1.3192 -1.00927 0
M  V30 5483 O 496.787 1.41147 -1.28382 0
M  V30 5484 C 493.927 2.21982 -2.64231 0
M  V30 5485 C 493.04 1.90128 -3.87911 0
M  V30 5486 C 492.175 3.11975 -4.29936 0
M  V30 5487 C 491.214 2.75968 -5.46359 0
M  V30 5488 N 490.351 3.90459 -5.83512 0
M  V30 5489 H 495.191 0.485717 -2.94015 0
M  V30 5490 H 492.728 0.228143 -1.4532 0
M  V30 5491 H 494.686 2.96572 -2.9343 0
M  V30 5492 H 493.316 2.6549 -1.83616 0
M  V30 5493 H 492.368 1.05755 -3.65404 0
M  V30 5494 H 493.68 1.59613 -4.72573 0
M  V30 5495 H 492.834 3.9488 -4.60603 0
M  V30 5496 H 491.573 3.45657 -3.44053 0
M  V30 5497 H 490.578 1.91478 -5.1538 0
M  V30 5498 H 491.803 2.43497 -6.33945 0
M  V30 5499 H 489.749 4.23971 -5.00584 0
M  V30 5500 H 489.666 3.63588 -6.62827 0
M  V30 5501 H 490.934 4.7405 -6.18787 0
M  V30 5502 N 495.163 1.55791 0.238111 0
M  V30 5503 C 496.412 1.77234 0.962868 0
M  V30 5504 C 496.725 0.600661 1.86149 0
M  V30 5505 O 497.931 0.698315 2.62366 0
M  V30 5506 C 496.387 3.13808 1.76218 0
M  V30 5507 C 495.995 4.3865 0.910518 0
M  V30 5508 C 497.739 3.44585 2.47914 0
M  V30 5509 C 495.646 5.66252 1.70623 0
M  V30 5510 H 494.576 0.660731 0.36325 0
M  V30 5511 H 497.227 1.8221 0.217242 0
M  V30 5512 H 495.609 3.02963 2.55009 0
M  V30 5513 H 496.783 4.60507 0.164316 0
M  V30 5514 H 495.098 4.15271 0.30647 0
M  V30 5515 H 497.695 4.3714 3.07917 0
M  V30 5516 H 498.038 2.66314 3.19973 0
M  V30 5517 H 498.571 3.56685 1.76127 0
M  V30 5518 H 495.31 6.47369 1.02923 0
M  V30 5519 H 494.83 5.48483 2.42748 0
M  V30 5520 H 496.509 6.05829 2.27114 0
M  V30 5521 N 496.642 -0.504142 1.49319 0
M  V30 5522 C 497.867 -1.28729 1.62615 0
M  V30 5523 C 498.292 -1.85752 0.296309 0
M  V30 5524 O 497.65 -1.65704 -0.735649 0
M  V30 5525 C 497.698 -2.39561 2.69524 0
M  V30 5526 O 496.802 -3.43324 2.28478 0
M  V30 5527 H 496.143 -0.380172 0.544395 0
M  V30 5528 H 498.673 -0.603872 1.95485 0
M  V30 5529 H 498.683 -2.8537 2.91595 0
M  V30 5530 H 497.358 -1.97423 3.66056 0
M  V30 5531 H 495.935 -3.03455 2.16725 0
M  V30 5532 N 498.12 -1.38341 -0.754957 0
M  V30 5533 C 499.345 -1.37882 -1.5493 0
M  V30 5534 C 499.77 0.0296385 -1.88077 0
M  V30 5535 O 499.128 1.01133 -1.50472 0
M  V30 5536 C 499.176 -2.23996 -2.82592 0
M  V30 5537 O 498.28 -1.65612 -3.77686 0
M  V30 5538 H 497.621 -0.470384 -0.468652 0
M  V30 5539 H 500.151 -1.82084 -0.933082 0
M  V30 5540 H 500.161 -2.37806 -3.3153 0
M  V30 5541 H 498.836 -3.26365 -2.57796 0
M  V30 5542 H 497.413 -1.60936 -3.36384 0
M  V30 5543 N 499.598 0.982988 -1.23187 0
M  V30 5544 C 500.847 1.71817 -1.05649 0
M  V30 5545 C 501.16 1.91315 0.407176 0
M  V30 5546 O 502.366 2.62256 0.702436 0
M  V30 5547 C 500.822 3.09188 -1.84203 0
M  V30 5548 C 500.43 2.97586 -3.34882 0
M  V30 5549 C 502.174 3.86684 -1.75146 0
M  V30 5550 C 500.081 4.30173 -4.05839 0
M  V30 5551 H 499.011 0.644258 -0.391724 0
M  V30 5552 H 501.662 1.09659 -1.4713 0
M  V30 5553 H 500.044 3.72087 -1.35527 0
M  V30 5554 H 501.218 2.43793 -3.91026 0
M  V30 5555 H 499.533 2.33567 -3.44725 0
M  V30 5556 H 502.13 4.84836 -2.25473 0
M  V30 5557 H 502.473 4.10136 -0.713737 0
M  V30 5558 H 503.006 3.30482 -2.21419 0
M  V30 5559 H 499.745 4.11918 -5.09906 0
M  V30 5560 H 499.265 4.83841 -3.54482 0
M  V30 5561 H 500.944 4.98873 -4.11989 0
M  V30 5562 N 501.076 1.04316 1.18135 0
M  V30 5563 C 502.316 0.756937 1.89868 0
M  V30 5564 C 502.68 -0.702609 1.78682 0
M  V30 5565 O 503.881 -1.10255 2.45148 0
M  V30 5566 C 502.152 1.21327 3.36176 0
M  V30 5567 S 503.711 1.05307 4.25976 0
M  V30 5568 H 500.529 0.275143 0.655604 0
M  V30 5569 H 503.131 1.33597 1.42731 0
M  V30 5570 H 501.835 2.27086 3.41848 0
M  V30 5571 H 501.366 0.628137 3.88353 0
M  V30 5572 H 503.381 -0.0280093 4.96192 0
M  V30 5573 N 502.554 -1.34406 0.822964 0
M  V30 5574 C 503.517 -2.2783 0.250271 0
M  V30 5575 C 504.517 -1.50288 -0.571854 0
M  V30 5576 O 505.707 -1.69825 -0.387952 0
M  V30 5577 C 502.839 -3.34663 -0.649137 0
M  V30 5578 H 504.032 -2.79992 1.07444 0
M  V30 5579 H 501.585 -1.44539 0.594829 0
M  V30 5580 H 502.32 -2.87714 -1.49637 0
M  V30 5581 H 502.105 -3.92052 -0.0611199 0
M  V30 5582 H 503.595 -4.04349 -1.04363 0
M  V30 5583 N 504.032 -0.577932 -1.46621 0
M  V30 5584 C 505.279 -0.0616879 -2.02406 0
M  V30 5585 C 505.607 1.29638 -1.44997 0
M  V30 5586 O 504.862 1.86176 -0.60308 0
M  V30 5587 C 505.161 0.0590832 -3.57351 0
M  V30 5588 C 504.827 -1.23077 -4.33777 0
M  V30 5589 C 503.489 -1.58416 -4.54376 0
M  V30 5590 C 505.841 -2.08457 -4.77698 0
M  V30 5591 C 503.169 -2.78943 -5.16147 0
M  V30 5592 C 505.521 -3.28204 -5.408 0
M  V30 5593 C 504.185 -3.63832 -5.59627 0
M  V30 5594 H 503.455 -0.0225732 -0.740656 0
M  V30 5595 H 506.102 -0.753609 -1.76048 0
M  V30 5596 H 504.407 0.834104 -3.82818 0
M  V30 5597 H 506.104 0.474202 -3.98186 0
M  V30 5598 H 502.694 -0.945652 -4.18038 0
M  V30 5599 H 506.878 -1.82459 -4.61544 0
M  V30 5600 H 502.134 -3.06689 -5.28916 0
M  V30 5601 H 506.308 -3.94634 -5.73792 0
M  V30 5602 H 503.935 -4.57315 -6.07262 0
M  V30 5603 N 505.51 1.54411 -0.315457 0
M  V30 5604 C 506.756 2.00716 0.289972 0
M  V30 5605 C 507.089 1.2034 1.5242 0
M  V30 5606 O 506.364 0.283579 1.92422 0
M  V30 5607 C 506.647 3.54507 0.632196 0
M  V30 5608 C 506.5 4.45615 -0.61218 0
M  V30 5609 C 507.819 4.15421 1.45305 0
M  V30 5610 H 504.938 0.729637 0.10392 0
M  V30 5611 H 507.58 1.8506 -0.430427 0
M  V30 5612 H 505.73 3.67979 1.24595 0
M  V30 5613 H 507.402 4.44026 -1.25053 0
M  V30 5614 H 505.645 4.15621 -1.24264 0
M  V30 5615 H 506.316 5.51022 -0.328379 0
M  V30 5616 H 508.792 4.05474 0.934331 0
M  V30 5617 H 507.668 5.23157 1.66127 0
M  V30 5618 H 507.929 3.68223 2.44671 0
M  V30 5619 N 506.988 0.0434614 1.5754 0
M  V30 5620 C 507.936 -0.951465 2.1225 0
M  V30 5621 C 508.93 -1.3274 1.05245 0
M  V30 5622 O 510.136 -1.30795 1.23663 0
M  V30 5623 H 506.511 -0.324667 0.678303 0
M  V30 5624 H 508.482 -0.464855 2.94757 0
M  V30 5625 C 507.231 -2.21972 2.67626 0
M  V30 5626 H 506.554 -1.93923 3.4962 0
M  V30 5627 H 507.994 -2.89765 3.09536 0
M  V30 5628 C 506.453 -2.95919 1.61038 0
M  V30 5629 O 506.983 -3.8857 1.01862 0
M  V30 5630 N 505.189 -2.58511 1.32741 0
M  V30 5631 H 504.736 -1.83244 1.81051 0
M  V30 5632 H 504.694 -3.08296 0.616531 0
M  V30 5633 N 508.466 -1.55915 -0.229846 0
M  V30 5634 C 509.743 -1.6932 -0.979295 0
M  V30 5635 C 510.123 -0.588321 -2.02736 0
M  V30 5636 O 509.471 0.40586 -2.24867 0
M  V30 5637 C 509.681 -3.10305 -1.59724 0
M  V30 5638 C 511.029 -3.6945 -2.09264 0
M  V30 5639 O 512.053 -3.13214 -1.69633 0
M  V30 5640 O 510.912 -4.68072 -2.82082 0
M  V30 5641 H 508.006 -0.689314 -0.456919 0
M  V30 5642 H 510.552 -1.68238 -0.222283 0
M  V30 5643 H 509.324 -3.82177 -0.840039 0
M  V30 5644 H 508.947 -3.1547 -2.42001 0
M  V30 5645 N 509.944 0.496216 -1.49584 0
M  V30 5646 C 510.876 1.61404 -1.62731 0
M  V30 5647 C 511.889 1.54613 -0.50978 0
M  V30 5648 O 513.078 1.60458 -0.782017 0
M  V30 5649 C 510.178 3.00212 -1.57245 0
M  V30 5650 C 509.351 3.32138 -2.84611 0
M  V30 5651 C 508.41 4.5038 -2.72112 0
M  V30 5652 O 507.436 4.51926 -3.46051 0
M  V30 5653 N 508.638 5.50575 -1.83977 0
M  V30 5654 H 511.403 1.50552 -2.59141 0
M  V30 5655 H 508.964 0.684182 -1.46733 0
M  V30 5656 H 510.956 3.77241 -1.4653 0
M  V30 5657 H 509.526 3.04964 -0.686729 0
M  V30 5658 H 508.746 2.4396 -3.09641 0
M  V30 5659 H 510.034 3.50268 -3.69039 0
M  V30 5660 H 509.432 5.52128 -1.23171 0
M  V30 5661 H 507.989 6.26687 -1.79182 0
M  V30 5662 N 511.423 1.38739 0.74761 0
M  V30 5663 C 512.371 1.36573 1.88283 0
M  V30 5664 C 513.365 0.250712 1.67534 0
M  V30 5665 O 514.571 0.420073 1.7503 0
M  V30 5666 H 510.946 0.42619 0.619569 0
M  V30 5667 H 512.917 2.32356 1.87226 0
M  V30 5668 C 511.666 1.21361 3.25832 0
M  V30 5669 H 510.989 2.06424 3.42388 0
M  V30 5670 H 512.429 1.23901 4.05493 0
M  V30 5671 C 510.888 -0.0790099 3.36807 0
M  V30 5672 O 511.418 -1.05385 3.8763 0
M  V30 5673 N 509.624 -0.13785 2.90273 0
M  V30 5674 H 509.171 0.656128 2.49104 0
M  V30 5675 H 509.129 -1.00228 2.97996 0
M  V30 5676 N 512.901 -0.976442 1.23707 0
M  V30 5677 C 514.141 -1.73331 1.08332 0
M  V30 5678 C 514.505 -1.88346 -0.372781 0
M  V30 5679 O 515.706 -2.60877 -0.647813 0
M  V30 5680 C 513.977 -3.09159 1.7932 0
M  V30 5681 S 515.536 -4.00376 1.79567 0
M  V30 5682 H 512.354 -0.596045 0.387622 0
M  V30 5683 H 514.956 -1.16625 1.56904 0
M  V30 5684 H 513.66 -2.95884 2.84395 0
M  V30 5685 H 513.191 -3.70932 1.31046 0
M  V30 5686 H 515.206 -4.88742 0.857094 0
M  V30 5687 N 514.379 -1.04941 -1.1758 0
M  V30 5688 C 515.628 -0.753124 -1.87112 0
M  V30 5689 C 515.941 0.722507 -1.81767 0
M  V30 5690 O 517.147 1.13265 -2.46746 0
M  V30 5691 C 515.603 -1.29695 -3.35719 0
M  V30 5692 C 515.211 -2.80184 -3.49572 0
M  V30 5693 C 516.955 -1.07759 -4.10595 0
M  V30 5694 C 514.862 -3.2788 -4.92187 0
M  V30 5695 H 513.792 -0.278034 -0.700866 0
M  V30 5696 H 516.443 -1.26637 -1.32798 0
M  V30 5697 H 514.825 -0.711522 -3.89555 0
M  V30 5698 H 515.999 -3.44561 -3.05965 0
M  V30 5699 H 514.314 -3.00632 -2.88113 0
M  V30 5700 H 516.911 -1.40899 -5.15802 0
M  V30 5701 H 517.254 -0.0152302 -4.16297 0
M  V30 5702 H 517.787 -1.62809 -3.62957 0
M  V30 5703 H 514.526 -4.33535 -4.91658 0
M  V30 5704 H 514.046 -2.68245 -5.36475 0
M  V30 5705 H 515.725 -3.22412 -5.60945 0
M  V30 5706 N 515.857 1.33968 -0.830081 0
M  V30 5707 C 517.106 1.97323 -0.417928 0
M  V30 5708 C 517.419 1.6652 1.02618 0
M  V30 5709 O 518.625 2.2342 1.54259 0
M  V30 5710 C 517.081 3.53099 -0.696359 0
M  V30 5711 C 516.689 3.92788 -2.15457 0
M  V30 5712 C 518.433 4.23049 -0.350724 0
M  V30 5713 C 516.34 5.41506 -2.37751 0
M  V30 5714 H 515.27 0.738409 -0.152541 0
M  V30 5715 H 517.921 1.52711 -1.01744 0
M  V30 5716 H 516.303 3.95991 -0.0265904 0
M  V30 5717 H 517.477 3.6098 -2.86408 0
M  V30 5718 H 515.792 3.35795 -2.46232 0
M  V30 5719 H 518.389 5.32403 -0.495036 0
M  V30 5720 H 518.732 4.10279 0.705476 0
M  V30 5721 H 519.265 3.85657 -0.975362 0
M  V30 5722 H 516.004 5.5927 -3.41903 0
M  V30 5723 H 515.524 5.74804 -1.7135 0
M  V30 5724 H 517.203 6.0828 -2.20465 0
M  V30 5725 N 517.335 0.585699 1.46312 0
M  V30 5726 C 518.581 0.0725284 2.0267 0
M  V30 5727 C 518.914 -1.28523 1.45586 0
M  V30 5728 O 518.189 -1.84283 0.622101 0
M  V30 5729 C 518.472 0.0099788 3.60099 0
M  V30 5730 C 518.325 1.39685 4.27561 0
M  V30 5731 C 519.644 -0.689117 4.34671 0
M  V30 5732 H 516.763 0.0278307 0.736474 0
M  V30 5733 H 519.405 0.753472 1.74421 0
M  V30 5734 H 517.555 -0.56992 3.84297 0
M  V30 5735 H 519.227 2.02215 4.14617 0
M  V30 5736 H 517.47 1.96374 3.86807 0
M  V30 5737 H 518.141 1.30553 5.36339 0
M  V30 5738 H 520.617 -0.196446 4.15636 0
M  V30 5739 H 519.493 -0.701921 5.44393 0
M  V30 5740 H 519.754 -1.75101 4.05946 0
M  V30 5741 N 518.813 -1.54241 0.323641 0
M  V30 5742 C 520.062 -1.9975 -0.279806 0
M  V30 5743 C 520.375 -1.2156 -1.5324 0
M  V30 5744 O 521.581 -1.57447 -2.21185 0
M  V30 5745 C 520.037 -3.55686 -0.549115 0
M  V30 5746 C 519.645 -4.4271 0.686432 0
M  V30 5747 C 521.389 -4.09663 -1.11251 0
M  V30 5748 C 519.296 -5.90119 0.389022 0
M  V30 5749 H 518.226 -0.746177 -0.10833 0
M  V30 5750 H 520.877 -1.78248 0.435877 0
M  V30 5751 H 519.259 -3.73176 -1.32499 0
M  V30 5752 H 520.433 -4.36996 1.46188 0
M  V30 5753 H 518.748 -3.99623 1.17005 0
M  V30 5754 H 521.345 -5.17386 -1.34965 0
M  V30 5755 H 521.688 -3.61651 -2.06191 0
M  V30 5756 H 522.221 -3.95806 -0.39782 0
M  V30 5757 H 518.96 -6.42326 1.30759 0
M  V30 5758 H 518.48 -5.98785 -0.348722 0
M  V30 5759 H 520.159 -6.47 -0.0011164 0
M  V30 5760 N 520.291 -0.0518155 -1.57515 0
M  V30 5761 C 521.531 0.625712 -1.94587 0
M  V30 5762 C 521.895 1.6797 -0.930053 0
M  V30 5763 O 523.096 2.41135 -1.18774 0
M  V30 5764 C 521.367 1.20574 -3.36447 0
M  V30 5765 S 522.926 1.90118 -3.95475 0
M  V30 5766 H 519.744 0.205434 -0.680675 0
M  V30 5767 H 522.346 -0.120906 -1.95126 0
M  V30 5768 H 521.05 0.426521 -4.08178 0
M  V30 5769 H 520.581 1.98916 -3.39405 0
M  V30 5770 H 522.596 3.18184 -3.80753 0
M  V30 5771 N 521.769 1.56035 0.221574 0
M  V30 5772 C 522.994 1.83476 0.967026 0
M  V30 5773 C 523.419 0.632139 1.7716 0
M  V30 5774 O 522.777 -0.419082 1.7639 0
M  V30 5775 C 522.825 3.08907 1.86034 0
M  V30 5776 O 521.929 2.876 2.95567 0
M  V30 5777 H 521.27 0.604913 0.273817 0
M  V30 5778 H 523.8 2.03247 0.234893 0
M  V30 5779 H 523.81 3.3901 2.27016 0
M  V30 5780 H 522.485 3.96068 1.26898 0
M  V30 5781 H 521.062 2.6873 2.58532 0
M  V30 5782 N 523.247 -0.488276 1.49845 0
M  V30 5783 C 524.195 -1.60917 1.67954 0
M  V30 5784 C 525.189 -1.6038 0.54539 0
M  V30 5785 O 526.395 -1.64736 0.7254 0
M  V30 5786 H 522.77 -0.533658 0.529824 0
M  V30 5787 H 524.741 -1.428 2.62013 0
M  V30 5788 C 523.49 -2.98975 1.77509 0
M  V30 5789 H 522.813 -3.00099 2.6416 0
M  V30 5790 H 524.253 -3.76906 1.9421 0
M  V30 5791 C 522.712 -3.3282 0.522745 0
M  V30 5792 O 523.242 -4.00208 -0.345866 0
M  V30 5793 N 521.448 -2.8808 0.381882 0
M  V30 5794 H 520.995 -2.33415 1.08974 0
M  V30 5795 H 520.953 -3.11091 -0.454929 0
M  V30 5796 N 524.725 -1.39134 -0.740242 0
M  V30 5797 C 525.973 -1.35803 -1.49673 0
M  V30 5798 C 526.294 0.0470897 -1.94943 0
M  V30 5799 O 525.564 0.997347 -1.68611 0
M  V30 5800 H 524.144 -0.499736 -0.555224 0
M  V30 5801 H 526.806 -1.73947 -0.879107 0
M  V30 5802 H 525.902 -2.0174 -2.38133 0
M  V30 5803 N 526.204 0.969867 -1.24223 0
M  V30 5804 C 527.453 1.70687 -1.07466 0
M  V30 5805 C 527.766 1.91736 0.386861 0
M  V30 5806 O 528.972 2.62986 0.674581 0
M  V30 5807 C 527.428 3.07217 -1.87472 0
M  V30 5808 C 527.036 2.94018 -3.3802 0
M  V30 5809 C 528.78 3.84804 -1.79237 0
M  V30 5810 C 526.687 4.25844 -4.10379 0
M  V30 5811 H 525.617 0.640067 -0.398536 0
M  V30 5812 H 528.268 1.08092 -1.48285 0
M  V30 5813 H 526.65 3.70628 -1.39466 0
M  V30 5814 H 527.824 2.39632 -3.9359 0
M  V30 5815 H 526.139 2.29898 -3.47183 0
M  V30 5816 H 528.736 4.82417 -2.30603 0
M  V30 5817 H 529.079 4.09356 -0.757197 0
M  V30 5818 H 529.612 3.28115 -2.24912 0
M  V30 5819 H 526.351 4.06486 -5.14246 0
M  V30 5820 H 525.871 4.80054 -3.59594 0
M  V30 5821 H 527.55 4.94475 -4.17257 0
M  V30 5822 N 527.682 1.05563 1.17022 0
M  V30 5823 C 528.931 0.763036 1.8671 0
M  V30 5824 C 529.244 -0.712857 1.82147 0
M  V30 5825 O 530.45 -1.11955 2.47343 0
M  V30 5826 C 528.906 1.31474 3.35026 0
M  V30 5827 C 528.514 2.82034 3.48081 0
M  V30 5828 C 530.258 1.09935 4.10018 0
M  V30 5829 C 528.165 3.30486 4.90442 0
M  V30 5830 H 527.095 0.281747 0.699382 0
M  V30 5831 H 529.746 1.2734 1.32124 0
M  V30 5832 H 528.128 0.732171 3.89173 0
M  V30 5833 H 529.302 3.46178 3.04133 0
M  V30 5834 H 527.617 3.02156 2.86515 0
M  V30 5835 H 530.214 1.43632 5.15048 0
M  V30 5836 H 530.557 0.0373072 4.16283 0
M  V30 5837 H 531.09 1.64732 3.62089 0
M  V30 5838 H 527.829 4.36137 4.89352 0
M  V30 5839 H 527.349 2.71086 5.35044 0
M  V30 5840 H 529.028 3.25382 5.59227 0
M  V30 5841 N 529.16 -1.33526 0.837174 0
M  V30 5842 C 530.39 -2.01754 0.444848 0
M  V30 5843 C 530.798 -1.63149 -0.958072 0
M  V30 5844 O 530.141 -0.839827 -1.63379 0
M  V30 5845 C 530.203 -3.56228 0.483917 0
M  V30 5846 C 529.867 -4.18205 1.84265 0
M  V30 5847 C 530.864 -4.37699 2.80563 0
M  V30 5848 C 528.549 -4.54667 2.13503 0
M  V30 5849 C 530.543 -4.928 4.04261 0
M  V30 5850 C 528.23 -5.09475 3.37458 0
M  V30 5851 C 529.228 -5.28488 4.32654 0
M  V30 5852 O 528.916 -5.82132 5.54417 0
M  V30 5853 H 528.648 -0.652928 0.175104 0
M  V30 5854 H 531.202 -1.71469 1.13082 0
M  V30 5855 H 529.432 -3.85833 -0.258826 0
M  V30 5856 H 531.121 -4.05752 0.109653 0
M  V30 5857 H 531.887 -4.0988 2.59274 0
M  V30 5858 H 527.766 -4.39164 1.40201 0
M  V30 5859 H 531.31 -5.07555 4.78574 0
M  V30 5860 H 527.207 -5.36725 3.58604 0
M  V30 5861 H 527.975 -6.00548 5.56133 0
M  V30 5862 N 530.638 -0.59345 -1.46 0
M  V30 5863 C 531.585 0.133618 -2.30413 0
M  V30 5864 C 532.555 0.873736 -1.41262 0
M  V30 5865 O 533.74 0.862279 -1.70204 0
M  V30 5866 C 530.88 1.13434 -3.25924 0
M  V30 5867 C 529.993 0.39656 -4.30176 0
M  V30 5868 C 529.128 1.38575 -5.12806 0
M  V30 5869 C 528.167 0.634984 -6.08797 0
M  V30 5870 N 527.304 1.57276 -6.84258 0
M  V30 5871 H 532.144 -0.592252 -2.92055 0
M  V30 5872 H 529.681 -0.303874 -1.43927 0
M  V30 5873 H 531.639 1.72752 -3.79753 0
M  V30 5874 H 530.269 1.82779 -2.66067 0
M  V30 5875 H 529.321 -0.311861 -3.79119 0
M  V30 5876 H 530.633 -0.189869 -4.98438 0
M  V30 5877 H 529.787 2.05141 -5.70966 0
M  V30 5878 H 528.526 2.00611 -4.44529 0
M  V30 5879 H 527.531 -0.0443925 -5.49782 0
M  V30 5880 H 528.756 0.0198678 -6.79097 0
M  V30 5881 H 526.702 2.18103 -6.18682 0
M  V30 5882 H 526.619 1.03941 -7.48821 0
M  V30 5883 H 527.887 2.22844 -7.46968 0
M  V30 5884 N 532.116 1.54067 -0.331816 0
M  V30 5885 C 533.046 2.27569 0.522932 0
M  V30 5886 C 534.027 1.28679 1.11247 0
M  V30 5887 O 535.212 1.57504 1.13605 0
M  V30 5888 C 532.342 3.0397 1.67987 0
M  V30 5889 C 531.296 4.10267 1.21924 0
M  V30 5890 C 530.622 4.74555 2.46377 0
M  V30 5891 C 531.922 5.21268 0.32815 0
M  V30 5892 H 533.616 2.99264 -0.0901977 0
M  V30 5893 H 531.162 1.4393 -0.044821 0
M  V30 5894 H 533.115 3.54123 2.28418 0
M  V30 5895 H 531.839 2.29906 2.31971 0
M  V30 5896 H 530.498 3.61009 0.637809 0
M  V30 5897 H 530.146 3.97098 3.08743 0
M  V30 5898 H 529.846 5.46363 2.16243 0
M  V30 5899 H 531.37 5.27487 3.07555 0
M  V30 5900 H 532.784 5.67128 0.838978 0
M  V30 5901 H 531.181 5.99982 0.119228 0
M  V30 5902 H 532.251 4.80673 -0.638839 0
M  V30 5903 N 533.594 0.0601682 1.57485 0
M  V30 5904 C 535.01 -0.296422 1.56823 0
M  V30 5905 C 535.21 -1.70831 1.0686 0
M  V30 5906 O 534.266 -2.4174 0.729245 0
M  V30 5907 C 535.579 -0.116681 3.00474 0
M  V30 5908 C 537.127 -0.187103 3.1244 0
M  V30 5909 C 537.602 -0.035783 4.57986 0
M  V30 5910 N 539.093 -0.0917676 4.63109 0
M  V30 5911 C 539.828 0.00107251 5.734 0
M  V30 5912 N 539.324 0.146773 6.92645 0
M  V30 5913 N 541.117 -0.0551577 5.62073 0
M  V30 5914 H 533.268 0.983055 1.88281 0
M  V30 5915 H 535.531 0.382386 0.867459 0
M  V30 5916 H 535.237 0.85712 3.41096 0
M  V30 5917 H 535.111 -0.873929 3.66936 0
M  V30 5918 H 537.498 -1.15138 2.71712 0
M  V30 5919 H 537.579 0.601052 2.48638 0
M  V30 5920 H 537.223 0.925212 4.99402 0
M  V30 5921 H 537.153 -0.843196 5.19806 0
M  V30 5922 H 539.644 -0.203261 3.77353 0
M  V30 5923 H 539.957 0.210076 7.72514 0
M  V30 5924 H 538.302 0.181979 6.94762 0
M  V30 5925 H 541.493 -0.167605 4.678 0
M  V30 5926 H 541.666 0.020652 6.47997 0
M  V30 5927 N 535.072 -1.5615 -0.213296 0
M  V30 5928 C 536.319 -1.79546 -0.936462 0
M  V30 5929 C 536.647 -0.630337 -1.84003 0
M  V30 5930 O 535.902 0.384883 -1.91878 0
M  V30 5931 C 536.201 -3.08772 -1.79985 0
M  V30 5932 C 535.867 -4.38532 -1.04882 0
M  V30 5933 C 534.529 -4.73787 -0.841393 0
M  V30 5934 C 536.881 -5.18609 -0.51907 0
M  V30 5935 C 534.209 -5.86627 -0.0924403 0
M  V30 5936 C 536.561 -6.32229 0.216581 0
M  V30 5937 C 535.225 -6.6608 0.435191 0
M  V30 5938 H 534.495 -0.657004 -0.342676 0
M  V30 5939 H 537.142 -1.9041 -0.204051 0
M  V30 5940 H 535.447 -2.93065 -2.60038 0
M  V30 5941 H 537.144 -3.24077 -2.36168 0
M  V30 5942 H 533.734 -4.10855 -1.22048 0
M  V30 5943 H 537.918 -4.91801 -0.666775 0
M  V30 5944 H 533.174 -6.11338 0.087081 0
M  V30 5945 H 537.348 -6.93503 0.634538 0
M  V30 5946 H 534.975 -7.5336 1.01746 0
M  V30 5947 N 536.55 0.480323 -1.50102 0
M  V30 5948 C 537.498 1.60024 -1.68805 0
M  V30 5949 C 538.492 1.60089 -0.553888 0
M  V30 5950 O 539.698 1.64349 -0.734127 0
M  V30 5951 H 536.073 0.530841 -0.532646 0
M  V30 5952 H 538.044 1.41408 -2.62767 0
M  V30 5953 C 536.793 2.98029 -1.79092 0
M  V30 5954 H 536.116 2.98694 -2.65748 0
M  V30 5955 H 537.556 3.75871 -1.96206 0
M  V30 5956 C 536.015 3.32538 -0.540388 0
M  V30 5957 O 536.545 4.00386 0.324637 0
M  V30 5958 N 534.751 2.87873 -0.397154 0
M  V30 5959 H 534.298 2.32834 -1.1021 0
M  V30 5960 H 534.256 3.11328 0.438425 0
M  V30 5961 N 538.028 1.39524 0.732853 0
M  V30 5962 C 538.938 1.40695 1.87729 0
M  V30 5963 C 539.954 0.301496 1.71368 0
M  V30 5964 O 541.13 0.543313 1.93933 0
M  V30 5965 C 538.195 1.25098 3.23344 0
M  V30 5966 C 537.256 2.45634 3.52083 0
M  V30 5967 C 536.489 2.30772 4.81228 0
M  V30 5968 O 536.712 1.31233 5.55098 0
M  V30 5969 O 535.646 3.19799 5.09914 0
M  V30 5970 H 539.472 2.37168 1.89697 0
M  V30 5971 H 537.057 1.20663 0.880959 0
M  V30 5972 H 538.939 1.18541 4.04383 0
M  V30 5973 H 537.614 0.317209 3.22142 0
M  V30 5974 H 536.521 2.57767 2.71122 0
M  V30 5975 H 537.854 3.37712 3.58066 0
M  V30 5976 N 539.506 -0.963266 1.24736 0
M  V30 5977 C 540.456 -2.0438 1.01058 0
M  V30 5978 C 541.44 -1.60824 -0.0495354 0
M  V30 5979 O 542.632 -1.76232 0.164741 0
M  V30 5980 C 539.761 -3.37617 0.622067 0
M  V30 5981 C 538.847 -3.87722 1.7185 0
M  V30 5982 N 539.238 -4.10715 2.95207 0
M  V30 5983 C 537.536 -4.16426 1.59703 0
M  V30 5984 C 538.237 -4.51872 3.66315 0
M  V30 5985 N 537.213 -4.57302 2.93897 0
M  V30 5986 H 541.015 -2.20138 1.94721 0
M  V30 5987 H 538.529 -1.14741 1.14927 0
M  V30 5988 H 540.526 -4.14638 0.43366 0
M  V30 5989 H 539.186 -3.23242 -0.307327 0
M  V30 5990 H 540.197 -3.98037 3.31341 0
M  V30 5991 H 536.874 -4.10962 0.73598 0
M  V30 5992 H 538.264 -4.78037 4.72155 0
M  V30 5993 N 540.985 -1.06182 -1.16461 0
M  V30 5994 C 542.234 -0.772927 -1.86303 0
M  V30 5995 C 542.547 0.703187 -1.82523 0
M  V30 5996 O 543.753 1.10641 -2.47933 0
M  V30 5997 C 542.209 -1.33249 -3.34324 0
M  V30 5998 C 541.817 -2.83876 -3.46581 0
M  V30 5999 C 543.561 -1.12108 -4.09429 0
M  V30 6000 C 541.468 -3.33082 -4.88682 0
M  V30 6001 H 540.398 -0.285452 -0.697878 0
M  V30 6002 H 543.049 -1.28039 -1.31447 0
M  V30 6003 H 541.431 -0.7528 -3.88779 0
M  V30 6004 H 542.605 -3.47786 -3.02293 0
M  V30 6005 H 540.92 -3.03671 -2.84909 0
M  V30 6006 H 543.517 -1.46361 -5.14279 0
M  V30 6007 H 543.86 -0.0593832 -4.16258 0
M  V30 6008 H 544.393 -1.6665 -3.6121 0
M  V30 6009 H 541.132 -4.38726 -4.87032 0
M  V30 6010 H 540.652 -2.73919 -5.33599 0
M  V30 6011 H 542.331 -3.28344 -5.57494 0
M  V30 6012 N 542.463 1.3308 -0.844243 0
M  V30 6013 C 543.711 1.97215 -0.441676 0
M  V30 6014 C 544.032 1.67185 1.0037 0
M  V30 6015 O 543.302 0.973588 1.69994 0
M  V30 6016 H 541.882 0.72959 -0.160335 0
M  V30 6017 H 544.544 1.62348 -1.07838 0
M  V30 6018 H 543.64 3.06698 -0.57815 0
M  V30 6019 N 543.941 0.601185 1.45683 0
M  V30 6020 C 545.189 0.0936957 2.01883 0
M  V30 6021 C 545.51 -1.2779 1.47291 0
M  V30 6022 O 544.78 -1.84279 0.664691 0
M  V30 6023 H 543.36 0.0316466 0.746329 0
M  V30 6024 H 546.022 0.781137 1.78562 0
M  V30 6025 H 545.118 0.0386297 3.12076 0
M  V30 6026 N 545.419 -1.53889 0.339982 0
M  V30 6027 C 546.696 -1.93084 -0.312719 0
M  V30 6028 C 547.076 -1.2712 -1.68534 0
M  V30 6029 O 546.424 -0.420835 -2.24591 0
M  V30 6030 C 546.634 -3.4683 -0.388558 0
M  V30 6031 C 547.982 -4.19732 -0.641088 0
M  V30 6032 O 549.006 -3.53075 -0.470818 0
M  V30 6033 O 547.865 -5.3781 -0.970685 0
M  V30 6034 H 544.959 -0.806784 -0.18174 0
M  V30 6035 H 547.505 -1.65137 0.390898 0
M  V30 6036 H 546.277 -3.87055 0.574821 0
M  V30 6037 H 545.9 -3.80933 -1.1391 0
M  V30 6038 N 546.897 -0.0685191 -1.57451 0
M  V30 6039 C 547.83 0.935736 -2.08133 0
M  V30 6040 C 548.808 1.29317 -0.985698 0
M  V30 6041 O 549.992 1.40304 -1.25886 0
M  V30 6042 C 547.119 2.2448 -2.53627 0
M  V30 6043 C 546.165 2.03917 -3.74593 0
M  V30 6044 S 546.998 1.30154 -5.19442 0
M  V30 6045 C 548.154 2.62346 -5.68265 0
M  V30 6046 H 548.387 0.504473 -2.92989 0
M  V30 6047 H 545.92 0.144169 -1.53725 0
M  V30 6048 H 547.878 2.99718 -2.80499 0
M  V30 6049 H 546.539 2.64731 -1.69045 0
M  V30 6050 H 545.732 3.00788 -4.04404 0
M  V30 6051 H 545.334 1.36815 -3.48077 0
M  V30 6052 H 547.626 3.58448 -5.7491 0
M  V30 6053 H 548.569 2.3715 -6.67207 0
M  V30 6054 H 548.977 2.69401 -4.96068 0
M  V30 6055 N 548.375 1.56261 0.205012 0
M  V30 6056 C 549.622 1.8004 0.926927 0
M  V30 6057 C 549.95 0.640086 1.83666 0
M  V30 6058 O 549.205 -0.374702 1.92079 0
M  V30 6059 C 549.504 3.09722 1.78345 0
M  V30 6060 C 549.17 4.39082 1.02555 0
M  V30 6061 C 547.832 4.74226 0.816256 0
M  V30 6062 C 550.184 5.18877 0.491559 0
M  V30 6063 C 547.512 5.86668 0.0613287 0
M  V30 6064 C 549.864 6.32105 -0.250107 0
M  V30 6065 C 548.528 6.6584 -0.470508 0
M  V30 6066 H 547.798 0.658812 0.339187 0
M  V30 6067 H 550.445 1.90515 0.19395 0
M  V30 6068 H 548.75 2.9444 2.5848 0
M  V30 6069 H 550.447 3.25324 2.34446 0
M  V30 6070 H 547.037 4.11497 1.19868 0
M  V30 6071 H 551.221 4.92147 0.640684 0
M  V30 6072 H 546.477 6.11283 -0.119501 0
M  V30 6073 H 550.651 6.93157 -0.671307 0
M  V30 6074 H 548.278 7.5281 -1.05739 0
M  V30 6075 N 549.853 -0.472356 1.50355 0
M  V30 6076 C 550.8 -1.57051 1.69126 0
M  V30 6077 C 551.77 -1.5733 0.532574 0
M  V30 6078 O 552.955 -1.7488 0.762994 0
M  V30 6079 C 550.095 -2.95033 1.79024 0
M  V30 6080 C 549.208 -3.04552 3.06386 0
M  V30 6081 C 548.343 -4.33441 3.07087 0
M  V30 6082 C 547.382 -4.36697 4.28908 0
M  V30 6083 N 546.519 -5.57056 4.27356 0
M  V30 6084 H 551.359 -1.40351 2.62879 0
M  V30 6085 H 548.896 -0.682403 1.30314 0
M  V30 6086 H 550.854 -3.75048 1.82744 0
M  V30 6087 H 549.484 -3.10371 0.887109 0
M  V30 6088 H 548.536 -2.17419 3.12143 0
M  V30 6089 H 549.848 -3.02818 3.96362 0
M  V30 6090 H 549.002 -5.21801 3.09529 0
M  V30 6091 H 547.741 -4.37782 2.14939 0
M  V30 6092 H 546.746 -3.46734 4.2668 0
M  V30 6093 H 547.971 -4.34049 5.22282 0
M  V30 6094 H 545.917 -5.62184 3.3806 0
M  V30 6095 H 545.834 -5.57058 5.111 0
M  V30 6096 H 547.102 -6.47545 4.33942 0
M  V30 6097 N 551.331 -1.39911 -0.725443 0
M  V30 6098 C 552.58 -1.36963 -1.48068 0
M  V30 6099 C 552.893 0.0284478 -1.95579 0
M  V30 6100 O 554.099 0.180535 -2.70899 0
M  V30 6101 C 552.555 -2.40664 -2.67598 0
M  V30 6102 C 552.163 -3.86234 -2.26997 0
M  V30 6103 C 553.907 -2.46807 -3.45379 0
M  V30 6104 C 551.814 -4.81554 -3.43307 0
M  V30 6105 H 550.744 -0.509223 -0.556065 0
M  V30 6106 H 553.395 -1.65602 -0.790454 0
M  V30 6107 H 551.777 -2.05109 -3.38742 0
M  V30 6108 H 552.951 -4.3088 -1.63337 0
M  V30 6109 H 551.266 -3.83475 -1.62284 0
M  V30 6110 H 553.863 -3.15213 -4.31909 0
M  V30 6111 H 554.206 -1.49552 -3.8851 0
M  V30 6112 H 554.739 -2.81303 -2.81271 0
M  V30 6113 H 551.478 -5.80106 -3.05217 0
M  V30 6114 H 550.998 -4.4158 -4.05915 0
M  V30 6115 H 552.677 -5.0091 -4.0951 0
M  V30 6116 N 552.809 0.956637 -1.25245 0
M  V30 6117 C 554.034 1.74104 -1.12706 0
M  V30 6118 C 554.459 1.85436 0.315429 0
M  V30 6119 O 553.817 1.33334 1.22848 0
M  V30 6120 C 553.865 3.1338 -1.78396 0
M  V30 6121 O 552.969 3.98485 -1.06224 0
M  V30 6122 H 552.31 0.53476 -0.393609 0
M  V30 6123 H 554.84 1.19924 -1.65769 0
M  V30 6124 H 554.85 3.6385 -1.846 0
M  V30 6125 H 553.525 3.04448 -2.83345 0
M  V30 6126 H 552.102 3.56952 -1.07886 0
M  V30 6127 N 554.287 1.06798 1.15896 0
M  V30 6128 C 555.512 0.808739 1.90982 0
M  V30 6129 C 555.937 -0.6316 1.77179 0
M  V30 6130 O 555.295 -1.4407 1.10061 0
M  V30 6131 C 555.343 1.21468 3.39526 0
M  V30 6132 O 554.447 0.356562 4.10856 0
M  V30 6133 H 553.788 0.29512 0.594811 0
M  V30 6134 H 556.318 1.42513 1.46804 0
M  V30 6135 H 556.328 1.18844 3.90308 0
M  V30 6136 H 555.003 2.26379 3.48891 0
M  V30 6137 H 553.58 0.444808 3.70238 0
M  V30 6138 N 555.766 -1.3263 0.851289 0
M  V30 6139 C 556.716 -2.26451 0.265302 0
M  V30 6140 C 557.7 -1.49814 -0.586899 0
M  V30 6141 O 558.892 -1.71525 -0.436834 0
M  V30 6142 C 556.021 -3.38895 -0.548212 0
M  V30 6143 C 555.107 -4.2292 0.316189 0
M  V30 6144 N 555.498 -4.86014 1.40084 0
M  V30 6145 C 553.796 -4.45876 0.105356 0
M  V30 6146 C 554.497 -5.48667 1.93235 0
M  V30 6147 N 553.473 -5.29455 1.232 0
M  V30 6148 H 557.275 -2.72757 1.09457 0
M  V30 6149 H 554.789 -1.4668 0.697047 0
M  V30 6150 H 556.786 -4.05111 -0.984402 0
M  V30 6151 H 555.446 -2.94135 -1.37531 0
M  V30 6152 H 556.457 -4.86212 1.78377 0
M  V30 6153 H 553.134 -4.11804 -0.687299 0
M  V30 6154 H 554.524 -6.08865 2.84135 0
M  V30 6155 N 557.244 -0.608902 -1.45362 0
M  V30 6156 C 558.469 -0.10921 -2.07112 0
M  V30 6157 C 558.894 1.19779 -1.45033 0
M  V30 6158 O 558.252 1.72961 -0.543527 0
M  V30 6159 C 558.3 0.0155745 -3.60597 0
M  V30 6160 O 557.404 1.06546 -3.98399 0
M  V30 6161 H 556.745 -0.0746619 -0.659789 0
M  V30 6162 H 559.275 -0.839283 -1.86594 0
M  V30 6163 H 559.285 0.213364 -4.07442 0
M  V30 6164 H 557.96 -0.938765 -4.05167 0
M  V30 6165 H 556.537 0.844024 -3.63223 0
M  V30 6166 N 558.722 1.53707 -0.348139 0
M  V30 6167 C 559.969 2.00988 0.246966 0
M  V30 6168 C 560.297 1.23586 1.50189 0
M  V30 6169 O 559.552 0.312817 1.93184 0
M  V30 6170 C 559.851 3.52292 0.602061 0
M  V30 6171 C 559.517 4.47453 -0.556509 0
M  V30 6172 C 558.179 4.73188 -0.874446 0
M  V30 6173 C 560.531 5.03851 -1.33354 0
M  V30 6174 C 557.859 5.52577 -1.9717 0
M  V30 6175 C 560.211 5.84437 -2.42108 0
M  V30 6176 C 558.875 6.08465 -2.74456 0
M  V30 6177 H 558.145 0.735469 0.0903712 0
M  V30 6178 H 560.792 1.85464 -0.477001 0
M  V30 6179 H 559.097 3.65672 1.40681 0
M  V30 6180 H 560.794 3.86337 1.07447 0
M  V30 6181 H 557.384 4.27558 -0.298652 0
M  V30 6182 H 561.568 4.8393 -1.10117 0
M  V30 6183 H 556.824 5.69418 -2.22651 0
M  V30 6184 H 560.998 6.27151 -3.02745 0
M  V30 6185 H 558.625 6.69768 -3.59604 0
M  V30 6186 N 560.2 0.0768682 1.57412 0
M  V30 6187 C 561.477 -0.632359 1.85096 0
M  V30 6188 C 561.857 -1.87479 0.9703 0
M  V30 6189 O 561.205 -2.28469 0.0379062 0
M  V30 6190 C 561.415 -0.965174 3.35388 0
M  V30 6191 C 562.763 -1.33648 4.03018 0
M  V30 6192 O 563.787 -1.05675 3.40164 0
M  V30 6193 O 562.646 -1.85959 5.13889 0
M  V30 6194 H 559.74 -0.314574 0.764835 0
M  V30 6195 H 562.286 0.108184 1.69355 0
M  V30 6196 H 561.058 -0.0829745 3.91212 0
M  V30 6197 H 560.681 -1.76231 3.5641 0
M  V30 6198 O 561.717 -1.61375 -0.0636308 0
M  V30 6199 H 562.408 -1.81049 -0.688533 0
M  V30 END ATOM
M  V30 BEGIN BOND
M  V30 END BOND
M  V30 END CTAB
M  END
$$$$
