drugbank_target|Q8IJ60 Methionine--tRNA ligase (DB11638)
 OpenBabel12092121113D

  0  0  0     0  0            999 V3000
M  V30 BEGIN CTAB
M  V30 COUNTS 18540 19648 0 0 0
M  V30 BEGIN ATOM
M  V30 1 H -2.588 8.49073 -0.0679273 0
M  V30 2 O -1.492 9.37262 0.0843559 0
M  V30 3 P 0 8.791 0 0
M  V30 4 O 1.422 9.31096 0.027933 0
M  V30 5 O -0.36 7.77869 -1.04071 0
M  V30 6 O -0.323 8.09533 1.41463 0
M  V30 7 C -0.483 9.0349 2.53943 0
M  V30 8 C 0.057 8.35226 3.79016 0
M  V30 9 O -0.999 7.57992 4.15078 0
M  V30 10 C 1.275 7.45087 3.67298 0
M  V30 11 O 2.013 7.27796 4.85194 0
M  V30 12 C 0.606 6.17323 3.12027 0
M  V30 13 O 1.405 5.04231 3.47188 0
M  V30 14 C -0.731 6.19961 3.81809 0
M  V30 15 H -0.699 5.58218 4.73051 0
M  V30 16 H 0.484 6.21726 2.02589 0
M  V30 17 H 1.968 7.86112 2.9231 0
M  V30 18 H 0.274 9.11627 4.55076 0
M  V30 19 H 0.084 9.9573 2.34194 0
M  V30 20 H -1.546 9.2792 2.67832 0
M  V30 21 H 1.093 4.67702 4.28772 0
M  V30 22 P 2.95057 7.39546 4.75277 0
M  V30 23 O 4.37257 7.81777 5.05738 0
M  V30 24 O 2.59057 7.1065 3.32998 0
M  V30 25 O 2.62757 6.04542 5.56673 0
M  V30 26 C 2.46757 6.22772 7.02095 0
M  V30 27 C 3.00757 4.97725 7.70406 0
M  V30 28 O 1.95157 4.13256 7.58987 0
M  V30 29 C 4.22557 4.28231 7.11815 0
M  V30 30 O 4.96357 3.49945 8.01648 0
M  V30 31 C 3.55657 3.5063 5.96244 0
M  V30 32 O 4.35557 2.36482 5.64681 0
M  V30 33 C 2.21957 3.15122 6.56374 0
M  V30 34 H 2.25157 2.13853 6.99751 0
M  V30 35 H 3.43457 4.13501 5.06559 0
M  V30 36 H 4.91857 5.03285 6.70911 0
M  V30 37 H 3.22457 5.20877 8.75697 0
M  V30 38 H 3.03457 7.11046 7.35349 0
M  V30 39 H 1.40457 6.35815 7.26986 0
M  V30 40 H 4.04357 1.61644 6.13565 0
M  V30 41 P 5.90114 3.65191 7.99657 0
M  V30 42 O 7.32314 3.8425 8.48115 0
M  V30 43 O 5.54114 4.17805 6.64342 0
M  V30 44 O 5.57814 2.07613 7.95143 0
M  V30 45 C 5.41814 1.44328 9.27336 0
M  V30 46 C 5.95814 0.0220036 9.17197 0
M  V30 47 O 4.90214 -0.626867 8.61923 0
M  V30 48 C 7.17614 -0.24586 8.30336 0
M  V30 49 O 7.91414 -1.39011 8.63583 0
M  V30 50 C 6.50714 -0.273849 6.91158 0
M  V30 51 O 7.30614 -1.06348 6.02892 0
M  V30 52 C 5.17014 -0.897649 7.22545 0
M  V30 53 H 5.20214 -1.9841 7.04286 0
M  V30 54 H 6.38514 0.739928 6.497 0
M  V30 55 H 7.86914 0.60668 8.36503 0
M  V30 56 H 6.17514 -0.352479 10.1829 0
M  V30 57 H 5.98514 2.00611 10.0304 0
M  V30 58 H 4.35514 1.41843 9.55327 0
M  V30 59 H 6.99414 -1.95734 6.03555 0
M  V30 60 P 8.85171 -1.25109 8.70152 0
M  V30 61 O 10.2737 -1.35274 9.21221 0
M  V30 62 O 8.49171 -0.0769065 7.84762 0
M  V30 63 O 8.52871 -2.55232 7.81161 0
M  V30 64 C 8.36871 -3.79939 8.58154 0
M  V30 65 C 8.90871 -4.94023 7.72785 0
M  V30 66 O 7.85271 -5.18726 6.91205 0
M  V30 67 C 10.1267 -4.69597 6.85231 0
M  V30 68 O 10.8647 -5.83832 6.51337 0
M  V30 69 C 9.45771 -3.96706 5.66633 0
M  V30 70 O 10.2567 -4.15414 4.49689 0
M  V30 71 C 8.12071 -4.66153 5.59313 0
M  V30 72 H 8.15271 -5.47679 4.85214 0
M  V30 73 H 9.33571 -2.89008 5.86566 0
M  V30 74 H 10.8197 -4.0121 7.36511 0
M  V30 75 H 9.12571 -5.80182 8.37584 0
M  V30 76 H 8.93571 -3.73517 9.52265 0
M  V30 77 H 7.30571 -3.97163 8.80359 0
M  V30 78 H 9.94471 -4.90969 4.01921 0
M  V30 79 P 11.8023 -5.75688 6.64379 0
M  V30 80 O 13.2243 -6.11849 7.01846 0
M  V30 81 O 11.4423 -4.30744 6.56026 0
M  V30 82 O 11.4793 -6.37042 5.19165 0
M  V30 83 C 11.3193 -7.83578 5.16515 0
M  V30 84 C 11.8593 -8.33398 3.83019 0
M  V30 85 O 10.8033 -8.10074 3.01034 0
M  V30 86 C 13.0773 -7.65514 3.2257 0
M  V30 87 O 13.8153 -8.4329 2.32297 0
M  V30 88 C 12.4083 -6.40075 2.62207 0
M  V30 89 O 13.2073 -5.92589 1.53712 0
M  V30 90 C 11.0713 -6.9454 2.18503 0
M  V30 91 H 11.1033 -7.23063 1.12091 0
M  V30 92 H 12.2863 -5.6025 3.37201 0
M  V30 93 H 13.7703 -7.35707 4.02681 0
M  V30 94 H 12.0763 -9.40912 3.9095 0
M  V30 95 H 11.8863 -8.29056 5.99158 0
M  V30 96 H 10.2563 -8.10073 5.25882 0
M  V30 97 H 12.8953 -6.30324 0.726794 0
M  V30 98 P 14.7528 -8.4349 2.47671 0
M  V30 99 O 16.1748 -8.94167 2.5964 0
M  V30 100 O 14.3928 -7.1704 3.19006 0
M  V30 101 O 14.4298 -8.16596 0.923387 0
M  V30 102 C 14.2698 -9.38437 0.108857 0
M  V30 103 C 14.8098 -9.08175 -1.28353 0
M  V30 104 O 13.7538 -8.44229 -1.84713 0
M  V30 105 C 16.0278 -8.18386 -1.42505 0
M  V30 106 O 16.7659 -8.3501 -2.60497 0
M  V30 107 C 15.3588 -6.80225 -1.25468 0
M  V30 108 O 16.1578 -5.81621 -1.91066 0
M  V30 109 C 14.0218 -7.02416 -1.9168 0
M  V30 110 H 14.0538 -6.6888 -2.96621 0
M  V30 111 H 15.2368 -6.53617 -0.192223 0
M  V30 112 H 16.7208 -8.36622 -0.589963 0
M  V30 113 H 15.0268 -10.0291 -1.79807 0
M  V30 114 H 14.8368 -10.2138 0.558219 0
M  V30 115 H 13.2068 -9.6579 0.0444202 0
M  V30 116 H 15.8458 -5.69556 -2.79637 0
M  V30 117 P 17.7034 -8.4349 -2.47671 0
M  V30 118 O 19.1254 -8.92593 -2.65 0
M  V30 119 O 17.3434 -7.7568 -1.19296 0
M  V30 120 O 17.3804 -7.36886 -3.63805 0
M  V30 121 C 17.2204 -7.95349 -4.982 0
M  V30 122 C 17.7604 -6.94612 -5.98974 0
M  V30 123 O 16.7044 -6.10347 -6.11815 0
M  V30 124 C 18.9784 -6.11426 -5.62335 0
M  V30 125 O 19.7164 -5.6162 -6.70584 0
M  V30 126 C 18.3094 -5.04409 -4.73308 0
M  V30 127 O 19.1084 -3.85992 -4.75183 0
M  V30 128 C 16.9724 -4.8728 -5.41006 0
M  V30 129 H 17.0044 -4.02333 -6.11157 0
M  V30 130 H 18.1874 -5.39466 -3.69543 0
M  V30 131 H 19.6714 -6.71916 -5.01943 0
M  V30 132 H 17.9774 -7.4649 -6.93477 0
M  V30 133 H 17.7874 -8.89416 -5.05237 0
M  V30 134 H 16.1574 -8.14876 -5.18409 0
M  V30 135 H 18.7964 -3.27957 -5.4317 0
M  V30 136 P 20.654 -5.75688 -6.64379 0
M  V30 137 O 22.076 -6.07627 -7.05504 0
M  V30 138 O 20.294 -5.88047 -5.19722 0
M  V30 139 O 20.331 -4.2322 -7.04443 0
M  V30 140 C 20.171 -3.99743 -8.4911 0
M  V30 141 C 20.711 -2.60516 -8.79425 0
M  V30 142 O 19.655 -1.82684 -8.4467 0
M  V30 143 C 21.929 -2.10343 -8.03628 0
M  V30 144 O 22.667 -1.09919 -8.67766 0
M  V30 145 C 21.26 -1.68446 -6.70876 0
M  V30 146 O 22.059 -0.678137 -6.08433 0
M  V30 147 C 19.923 -1.17436 -7.18567 0
M  V30 148 H 19.955 -0.0804732 -7.31656 0
M  V30 149 H 21.138 -2.54037 -6.02537 0
M  V30 150 H 22.622 -2.93881 -7.85526 0
M  V30 151 H 20.928 -2.53065 -9.86973 0
M  V30 152 H 20.738 -4.75072 -9.05887 0
M  V30 153 H 19.108 -4.05244 -8.76668 0
M  V30 154 H 21.747 0.177647 -6.34251 0
M  V30 155 P 23.6046 -1.25109 -8.70152 0
M  V30 156 O 25.0266 -1.29744 -9.22016 0
M  V30 157 O 23.2446 -2.13714 -7.55141 0
M  V30 158 O 23.2816 0.248149 -8.21425 0
M  V30 159 C 23.1216 1.22779 -9.30434 0
M  V30 160 C 23.6616 2.56293 -8.80664 0
M  V30 161 O 22.6056 3.02979 -8.09349 0
M  V30 162 C 24.8796 2.57523 -7.89775 0
M  V30 163 O 25.6176 3.7668 -7.89438 0
M  V30 164 C 24.2106 2.20997 -6.55446 0
M  V30 165 O 25.0096 2.71895 -5.48509 0
M  V30 166 C 22.8736 2.89693 -6.67988 0
M  V30 167 H 22.9056 3.88793 -6.19859 0
M  V30 168 H 24.0886 1.12046 -6.44229 0
M  V30 169 H 25.5726 1.7746 -8.19711 0
M  V30 170 H 23.8786 3.20706 -9.67112 0
M  V30 171 H 23.6886 0.901032 -10.1892 0
M  V30 172 H 22.0586 1.33049 -9.56592 0
M  V30 173 H 24.6976 3.57847 -5.23962 0
M  V30 174 P 26.5551 3.65191 -7.99657 0
M  V30 175 O 27.9561 3.87414 -8.52829 0
M  V30 176 O 26.1771 2.26932 -7.566 0
M  V30 177 O 26.2321 4.64915 -6.77529 0
M  V30 178 C 26.0721 6.06319 -7.16352 0
M  V30 179 C 26.6121 6.91655 -6.02234 0
M  V30 180 O 25.5561 6.92369 -5.17005 0
M  V30 181 C 27.8291 6.43627 -5.25174 0
M  V30 182 O 28.5681 7.43686 -4.60469 0
M  V30 183 C 27.1621 5.40275 -4.31916 0
M  V30 184 O 27.9601 5.25193 -3.14386 0
M  V30 185 C 25.8241 6.04847 -4.05327 0
M  V30 186 N 24.7811 5.04166 -3.98114 0
M  V30 187 C 23.7461 5.2366 -3.09923 0
M  V30 188 O 23.7851 6.23355 -2.34204 0
M  V30 189 N 22.7341 4.34279 -3.05727 0
M  V30 190 C 22.7821 3.26317 -3.84756 0
M  V30 191 C 23.8781 3.02504 -4.72573 0
M  V30 192 C 24.8441 3.94493 -4.76618 0
M  V30 193 H 25.8561 6.62104 -3.11218 0
M  V30 194 H 27.0391 4.42969 -4.80867 0
M  V30 195 H 28.5231 5.93122 -5.93121 0
M  V30 196 H 26.8291 7.93295 -6.39407 0
M  V30 197 H 26.6381 6.26671 -8.0846 0
M  V30 198 H 25.0081 6.29036 -7.32728 0
M  V30 199 H 23.9261 2.12921 -5.34017 0
M  V30 200 H 25.6901 3.80658 -5.44176 0
M  V30 201 H 27.7441 5.93572 -2.52637 0
M  V30 202 P 29.5057 7.39546 -4.75277 0
M  V30 203 O 30.9277 7.84798 -5.01039 0
M  V30 204 O 29.1457 5.9812 -5.08098 0
M  V30 205 O 29.1827 7.57503 -3.1866 0
M  V30 206 C 29.0227 8.97357 -2.74833 0
M  V30 207 C 29.5627 9.07548 -1.32709 0
M  V30 208 O 28.5067 8.62072 -0.606159 0
M  V30 209 C 30.7807 8.25383 -0.938334 0
M  V30 210 O 31.5187 8.74577 0.146954 0
M  V30 211 C 30.1117 6.8802 -0.712559 0
M  V30 212 O 30.9107 6.1189 0.194655 0
M  V30 213 C 28.7747 7.27966 -0.139777 0
M  V30 214 H 28.8067 7.25354 0.961601 0
M  V30 215 H 29.9897 6.32557 -1.65702 0
M  V30 216 H 31.4737 8.19355 -1.79097 0
M  V30 217 H 29.7797 10.1294 -1.10029 0
M  V30 218 H 29.5897 9.64276 -3.41316 0
M  V30 219 H 27.9597 9.25417 -2.76357 0
M  V30 220 H 30.5987 6.25267 1.07847 0
M  V30 221 P 32.4563 8.791 -9.96115e-15 0
M  V30 222 O 33.8783 9.31096 0.027933 0
M  V30 223 O 32.0963 7.77869 -1.04071 0
M  V30 224 O 32.1333 8.09533 1.41463 0
M  V30 225 C 31.9733 9.0349 2.53943 0
M  V30 226 C 32.5133 8.35226 3.79016 0
M  V30 227 O 31.4573 7.57992 4.15078 0
M  V30 228 C 33.7313 7.45087 3.67298 0
M  V30 229 O 34.4693 7.27796 4.85194 0
M  V30 230 C 33.0623 6.17323 3.12027 0
M  V30 231 O 33.8613 5.04231 3.47188 0
M  V30 232 C 31.7253 6.19961 3.81809 0
M  V30 233 H 31.7573 5.58218 4.73051 0
M  V30 234 H 32.9403 6.21726 2.02589 0
M  V30 235 H 34.4243 7.86112 2.9231 0
M  V30 236 H 32.7303 9.11627 4.55076 0
M  V30 237 H 32.5403 9.9573 2.34194 0
M  V30 238 H 30.9103 9.2792 2.67832 0
M  V30 239 H 33.5493 4.67702 4.28772 0
M  V30 240 P 35.4068 7.39546 4.75277 0
M  V30 241 O 36.8288 7.81777 5.05738 0
M  V30 242 O 35.0468 7.1065 3.32998 0
M  V30 243 O 35.0838 6.04542 5.56673 0
M  V30 244 C 34.9238 6.22772 7.02095 0
M  V30 245 C 35.4638 4.97725 7.70406 0
M  V30 246 O 34.4078 4.13256 7.58987 0
M  V30 247 C 36.6818 4.28231 7.11815 0
M  V30 248 O 37.4198 3.49945 8.01648 0
M  V30 249 C 36.0128 3.5063 5.96244 0
M  V30 250 O 36.8118 2.36482 5.64681 0
M  V30 251 C 34.6758 3.15122 6.56374 0
M  V30 252 H 34.7078 2.13853 6.99751 0
M  V30 253 H 35.8908 4.13501 5.06559 0
M  V30 254 H 37.3748 5.03285 6.70911 0
M  V30 255 H 35.6808 5.20877 8.75697 0
M  V30 256 H 35.4908 7.11046 7.35349 0
M  V30 257 H 33.8608 6.35815 7.26986 0
M  V30 258 H 36.4998 1.61644 6.13565 0
M  V30 259 P 38.3574 3.65191 7.99657 0
M  V30 260 O 39.7794 3.8425 8.48115 0
M  V30 261 O 37.9974 4.17805 6.64342 0
M  V30 262 O 38.0344 2.07613 7.95143 0
M  V30 263 C 37.8744 1.44328 9.27336 0
M  V30 264 C 38.4144 0.0220036 9.17197 0
M  V30 265 O 37.3584 -0.626867 8.61923 0
M  V30 266 C 39.6324 -0.24586 8.30336 0
M  V30 267 O 40.3704 -1.39011 8.63583 0
M  V30 268 C 38.9634 -0.273849 6.91158 0
M  V30 269 O 39.7624 -1.06348 6.02892 0
M  V30 270 C 37.6264 -0.897649 7.22545 0
M  V30 271 H 37.6584 -1.9841 7.04286 0
M  V30 272 H 38.8414 0.739928 6.497 0
M  V30 273 H 40.3254 0.60668 8.36503 0
M  V30 274 H 38.6314 -0.352479 10.1829 0
M  V30 275 H 38.4414 2.00611 10.0304 0
M  V30 276 H 36.8114 1.41843 9.55327 0
M  V30 277 H 39.4504 -1.95734 6.03555 0
M  V30 278 P 41.308 -1.25109 8.70152 0
M  V30 279 O 42.73 -1.35274 9.21221 0
M  V30 280 O 40.948 -0.0769065 7.84762 0
M  V30 281 O 40.985 -2.55232 7.81161 0
M  V30 282 C 40.825 -3.79939 8.58154 0
M  V30 283 C 41.365 -4.94023 7.72785 0
M  V30 284 O 40.309 -5.18726 6.91205 0
M  V30 285 C 42.583 -4.69597 6.85231 0
M  V30 286 O 43.321 -5.83832 6.51337 0
M  V30 287 C 41.914 -3.96706 5.66633 0
M  V30 288 O 42.713 -4.15414 4.49689 0
M  V30 289 C 40.577 -4.66153 5.59313 0
M  V30 290 H 40.609 -5.47679 4.85214 0
M  V30 291 H 41.792 -2.89008 5.86566 0
M  V30 292 H 43.276 -4.0121 7.36511 0
M  V30 293 H 41.582 -5.80182 8.37584 0
M  V30 294 H 41.392 -3.73517 9.52265 0
M  V30 295 H 39.762 -3.97163 8.80359 0
M  V30 296 H 42.401 -4.90969 4.01921 0
M  V30 297 P 44.2585 -5.75688 6.64379 0
M  V30 298 O 45.6805 -6.11849 7.01846 0
M  V30 299 O 43.8985 -4.30744 6.56026 0
M  V30 300 O 43.9355 -6.37042 5.19165 0
M  V30 301 C 43.7755 -7.83578 5.16515 0
M  V30 302 C 44.3155 -8.33398 3.83019 0
M  V30 303 O 43.2595 -8.10074 3.01034 0
M  V30 304 C 45.5335 -7.65514 3.2257 0
M  V30 305 O 46.2715 -8.4329 2.32297 0
M  V30 306 C 44.8645 -6.40075 2.62207 0
M  V30 307 O 45.6635 -5.92589 1.53712 0
M  V30 308 C 43.5275 -6.9454 2.18503 0
M  V30 309 H 43.5595 -7.23063 1.12091 0
M  V30 310 H 44.7425 -5.6025 3.37201 0
M  V30 311 H 46.2265 -7.35707 4.02681 0
M  V30 312 H 44.5325 -9.40912 3.9095 0
M  V30 313 H 44.3425 -8.29056 5.99158 0
M  V30 314 H 42.7125 -8.10073 5.25882 0
M  V30 315 H 45.3515 -6.30324 0.726794 0
M  V30 316 P 47.2091 -8.4349 2.47671 0
M  V30 317 O 48.6311 -8.94167 2.5964 0
M  V30 318 O 46.8491 -7.1704 3.19006 0
M  V30 319 O 46.8861 -8.16596 0.923387 0
M  V30 320 C 46.7261 -9.38437 0.108857 0
M  V30 321 C 47.2661 -9.08175 -1.28353 0
M  V30 322 O 46.2101 -8.44229 -1.84713 0
M  V30 323 C 48.4841 -8.18386 -1.42505 0
M  V30 324 O 49.2221 -8.3501 -2.60497 0
M  V30 325 C 47.8151 -6.80225 -1.25468 0
M  V30 326 O 48.6141 -5.81621 -1.91066 0
M  V30 327 C 46.4781 -7.02416 -1.9168 0
M  V30 328 H 46.5101 -6.6888 -2.96621 0
M  V30 329 H 47.6931 -6.53617 -0.192223 0
M  V30 330 H 49.1771 -8.36622 -0.589963 0
M  V30 331 H 47.4831 -10.0291 -1.79807 0
M  V30 332 H 47.2931 -10.2138 0.558219 0
M  V30 333 H 45.6631 -9.6579 0.0444202 0
M  V30 334 H 48.3021 -5.69556 -2.79637 0
M  V30 335 P 50.1597 -8.4349 -2.47671 0
M  V30 336 O 51.5817 -8.92593 -2.65 0
M  V30 337 O 49.7997 -7.7568 -1.19296 0
M  V30 338 O 49.8367 -7.36886 -3.63805 0
M  V30 339 C 49.6767 -7.95349 -4.982 0
M  V30 340 C 50.2167 -6.94612 -5.98974 0
M  V30 341 O 49.1607 -6.10347 -6.11815 0
M  V30 342 C 51.4347 -6.11426 -5.62335 0
M  V30 343 O 52.1727 -5.6162 -6.70584 0
M  V30 344 C 50.7657 -5.04409 -4.73308 0
M  V30 345 O 51.5647 -3.85992 -4.75183 0
M  V30 346 C 49.4287 -4.8728 -5.41006 0
M  V30 347 H 49.4607 -4.02333 -6.11157 0
M  V30 348 H 50.6437 -5.39466 -3.69543 0
M  V30 349 H 52.1277 -6.71916 -5.01943 0
M  V30 350 H 50.4337 -7.4649 -6.93477 0
M  V30 351 H 50.2437 -8.89416 -5.05237 0
M  V30 352 H 48.6137 -8.14876 -5.18409 0
M  V30 353 H 51.2527 -3.27957 -5.4317 0
M  V30 354 P 53.1103 -5.75688 -6.64379 0
M  V30 355 O 54.5323 -6.07627 -7.05504 0
M  V30 356 O 52.7503 -5.88047 -5.19722 0
M  V30 357 O 52.7873 -4.2322 -7.04443 0
M  V30 358 C 52.6273 -3.99743 -8.4911 0
M  V30 359 C 53.1673 -2.60516 -8.79425 0
M  V30 360 O 52.1113 -1.82684 -8.4467 0
M  V30 361 C 54.3853 -2.10343 -8.03628 0
M  V30 362 O 55.1233 -1.09919 -8.67766 0
M  V30 363 C 53.7163 -1.68446 -6.70876 0
M  V30 364 O 54.5153 -0.678137 -6.08433 0
M  V30 365 C 52.3793 -1.17436 -7.18567 0
M  V30 366 H 52.4113 -0.0804732 -7.31656 0
M  V30 367 H 53.5943 -2.54037 -6.02537 0
M  V30 368 H 55.0783 -2.93881 -7.85526 0
M  V30 369 H 53.3843 -2.53065 -9.86973 0
M  V30 370 H 53.1943 -4.75072 -9.05887 0
M  V30 371 H 51.5643 -4.05244 -8.76668 0
M  V30 372 H 54.2033 0.177647 -6.34251 0
M  V30 373 P 56.0608 -1.25109 -8.70152 0
M  V30 374 O 57.4828 -1.29744 -9.22016 0
M  V30 375 O 55.7008 -2.13714 -7.55141 0
M  V30 376 O 55.7378 0.248149 -8.21425 0
M  V30 377 C 55.5778 1.22779 -9.30434 0
M  V30 378 C 56.1178 2.56293 -8.80664 0
M  V30 379 O 55.0618 3.02979 -8.09349 0
M  V30 380 C 57.3358 2.57523 -7.89775 0
M  V30 381 O 58.0738 3.7668 -7.89438 0
M  V30 382 C 56.6668 2.20997 -6.55446 0
M  V30 383 O 57.4658 2.71895 -5.48509 0
M  V30 384 C 55.3298 2.89693 -6.67988 0
M  V30 385 H 55.3618 3.88793 -6.19859 0
M  V30 386 H 56.5448 1.12046 -6.44229 0
M  V30 387 H 58.0288 1.7746 -8.19711 0
M  V30 388 H 56.3348 3.20706 -9.67112 0
M  V30 389 H 56.1448 0.901032 -10.1892 0
M  V30 390 H 54.5148 1.33049 -9.56592 0
M  V30 391 H 57.1538 3.57847 -5.23962 0
M  V30 392 P 59.0114 3.65191 -7.99657 0
M  V30 393 O 60.4124 3.87414 -8.52829 0
M  V30 394 O 58.6334 2.26932 -7.566 0
M  V30 395 O 58.6884 4.64915 -6.77529 0
M  V30 396 C 58.5284 6.06319 -7.16352 0
M  V30 397 C 59.0684 6.91655 -6.02234 0
M  V30 398 O 58.0124 6.92369 -5.17005 0
M  V30 399 C 60.2854 6.43627 -5.25174 0
M  V30 400 O 61.0244 7.43686 -4.60469 0
M  V30 401 C 59.6184 5.40275 -4.31916 0
M  V30 402 O 60.4164 5.25193 -3.14386 0
M  V30 403 C 58.2804 6.04847 -4.05327 0
M  V30 404 N 57.2374 5.04166 -3.98114 0
M  V30 405 C 56.2024 5.2366 -3.09923 0
M  V30 406 O 56.2414 6.23355 -2.34204 0
M  V30 407 N 55.1904 4.34279 -3.05727 0
M  V30 408 C 55.2384 3.26317 -3.84756 0
M  V30 409 N 54.2284 2.40281 -3.79534 0
M  V30 410 C 56.3344 3.02504 -4.72573 0
M  V30 411 C 57.3004 3.94493 -4.76618 0
M  V30 412 H 58.3124 6.62104 -3.11218 0
M  V30 413 H 59.4954 4.42969 -4.80867 0
M  V30 414 H 60.9794 5.93122 -5.93121 0
M  V30 415 H 59.2854 7.93295 -6.39407 0
M  V30 416 H 59.0944 6.26671 -8.0846 0
M  V30 417 H 57.4644 6.29036 -7.32728 0
M  V30 418 H 56.3824 2.12921 -5.34017 0
M  V30 419 H 58.1464 3.80658 -5.44176 0
M  V30 420 H 53.4384 2.57561 -3.15653 0
M  V30 421 H 54.2334 1.56492 -4.39044 0
M  V30 422 H 60.2004 5.93572 -2.52637 0
M  V30 423 P 61.962 7.39546 -4.75277 0
M  V30 424 O 63.384 7.84798 -5.01039 0
M  V30 425 O 61.602 5.9812 -5.08098 0
M  V30 426 O 61.639 7.57503 -3.1866 0
M  V30 427 C 61.479 8.97357 -2.74833 0
M  V30 428 C 62.019 9.07548 -1.32709 0
M  V30 429 O 60.963 8.62072 -0.606159 0
M  V30 430 C 63.237 8.25383 -0.938334 0
M  V30 431 O 63.975 8.74577 0.146954 0
M  V30 432 C 62.568 6.8802 -0.712559 0
M  V30 433 O 63.367 6.1189 0.194655 0
M  V30 434 C 61.231 7.27966 -0.139777 0
M  V30 435 H 61.263 7.25354 0.961601 0
M  V30 436 H 62.446 6.32557 -1.65702 0
M  V30 437 H 63.93 8.19355 -1.79097 0
M  V30 438 H 62.236 10.1294 -1.10029 0
M  V30 439 H 62.046 9.64276 -3.41316 0
M  V30 440 H 60.416 9.25417 -2.76357 0
M  V30 441 H 63.055 6.25267 1.07847 0
M  V30 442 P 64.9125 8.791 -3.55383e-14 0
M  V30 443 O 66.3345 9.31096 0.027933 0
M  V30 444 O 64.5525 7.77869 -1.04071 0
M  V30 445 O 64.5895 8.09533 1.41463 0
M  V30 446 C 64.4295 9.0349 2.53943 0
M  V30 447 C 64.9695 8.35226 3.79016 0
M  V30 448 O 63.9135 7.57992 4.15078 0
M  V30 449 C 66.1875 7.45087 3.67298 0
M  V30 450 O 66.9255 7.27796 4.85194 0
M  V30 451 C 65.5185 6.17323 3.12027 0
M  V30 452 O 66.3175 5.04231 3.47188 0
M  V30 453 C 64.1815 6.19961 3.81809 0
M  V30 454 H 64.2135 5.58218 4.73051 0
M  V30 455 H 65.3965 6.21726 2.02589 0
M  V30 456 H 66.8805 7.86112 2.9231 0
M  V30 457 H 65.1865 9.11627 4.55076 0
M  V30 458 H 64.9965 9.9573 2.34194 0
M  V30 459 H 63.3665 9.2792 2.67832 0
M  V30 460 H 66.0055 4.67702 4.28772 0
M  V30 461 P 67.8631 7.39546 4.75277 0
M  V30 462 O 69.2841 7.81861 5.05793 0
M  V30 463 O 67.5031 7.1065 3.32998 0
M  V30 464 O 67.5401 6.04542 5.56673 0
M  V30 465 C 67.3791 6.22839 7.02169 0
M  V30 466 C 67.9201 4.97725 7.70406 0
M  V30 467 O 66.8651 4.13208 7.58899 0
M  V30 468 C 69.1381 4.28231 7.11815 0
M  V30 469 O 69.8761 3.49945 8.01648 0
M  V30 470 C 68.4701 3.5063 5.96244 0
M  V30 471 O 69.2681 2.37008 5.64352 0
M  V30 472 C 67.1321 3.15122 6.56374 0
M  V30 473 N 66.0891 3.22311 5.55692 0
M  V30 474 C 66.2581 3.99655 4.46046 0
M  V30 475 N 65.2311 3.97599 3.63918 0
M  V30 476 C 64.3461 3.11159 4.25334 0
M  V30 477 C 63.0791 2.64972 3.85157 0
M  V30 478 N 62.4801 3.02132 2.69405 0
M  V30 479 N 62.5141 1.78482 4.74759 0
M  V30 480 C 63.1161 1.37463 5.90819 0
M  V30 481 N 64.2931 1.7733 6.31889 0
M  V30 482 C 64.8681 2.64393 5.43725 0
M  V30 483 H 67.1641 2.13823 6.99656 0
M  V30 484 H 68.3471 4.12931 5.06895 0
M  V30 485 H 69.8301 5.03285 6.70911 0
M  V30 486 H 68.1361 5.20001 8.76217 0
M  V30 487 H 67.9461 7.11046 7.35349 0
M  V30 488 H 66.3161 6.35815 7.26986 0
M  V30 489 H 62.5801 0.66574 6.53015 0
M  V30 490 H 67.1581 4.58037 4.27732 0
M  V30 491 H 61.5501 2.64828 2.45331 0
M  V30 492 H 62.9541 3.67472 2.05644 0
M  V30 493 H 68.9561 1.61619 6.13468 0
M  V30 494 P 70.8137 3.65191 7.99657 0
M  V30 495 O 72.2347 3.84292 8.48206 0
M  V30 496 O 70.4537 4.17805 6.64342 0
M  V30 497 O 70.4907 2.07613 7.95143 0
M  V30 498 C 70.3297 1.44344 9.27435 0
M  V30 499 C 70.8707 0.0220036 9.17197 0
M  V30 500 O 69.8157 -0.626794 8.61824 0
M  V30 501 C 72.0887 -0.24586 8.30336 0
M  V30 502 O 72.8267 -1.39011 8.63583 0
M  V30 503 C 71.4207 -0.273849 6.91158 0
M  V30 504 O 72.2187 -1.05728 6.029 0
M  V30 505 C 70.0827 -0.897649 7.22545 0
M  V30 506 N 69.0397 -0.292839 6.41732 0
M  V30 507 C 69.2087 0.950603 5.91308 0
M  V30 508 N 68.1817 1.37732 5.21105 0
M  V30 509 C 67.2967 0.318109 5.26039 0
M  V30 510 C 66.0297 0.146766 4.6727 0
M  V30 511 N 65.4307 1.08519 3.89983 0
M  V30 512 N 65.4647 -1.06525 4.95887 0
M  V30 513 C 66.0667 -2.0378 5.71347 0
M  V30 514 N 67.2437 -1.92445 6.27451 0
M  V30 515 C 67.8187 -0.715382 6.00353 0
M  V30 516 H 70.1147 -1.98383 7.04189 0
M  V30 517 H 71.2977 0.733318 6.49674 0
M  V30 518 H 72.7807 0.60668 8.36503 0
M  V30 519 H 71.0867 -0.362662 10.1825 0
M  V30 520 H 70.8967 2.00611 10.0304 0
M  V30 521 H 69.2667 1.41843 9.55327 0
M  V30 522 H 65.5307 -2.97041 5.85344 0
M  V30 523 H 70.1087 1.54076 6.07465 0
M  V30 524 H 64.5007 0.901517 3.49562 0
M  V30 525 H 65.9047 1.97957 3.71669 0
M  V30 526 H 71.9067 -1.95704 6.0346 0
M  V30 527 P 73.7642 -1.25109 8.70152 0
M  V30 528 O 75.1862 -1.35274 9.21221 0
M  V30 529 O 73.4042 -0.0769065 7.84762 0
M  V30 530 O 73.4412 -2.55232 7.81161 0
M  V30 531 C 73.2812 -3.79939 8.58154 0
M  V30 532 C 73.8212 -4.94023 7.72785 0
M  V30 533 O 72.7652 -5.18726 6.91205 0
M  V30 534 C 75.0392 -4.69597 6.85231 0
M  V30 535 O 75.7772 -5.83832 6.51337 0
M  V30 536 C 74.3702 -3.96706 5.66633 0
M  V30 537 O 75.1692 -4.15414 4.49689 0
M  V30 538 C 73.0332 -4.66153 5.59313 0
M  V30 539 H 73.0652 -5.47679 4.85214 0
M  V30 540 H 74.2482 -2.89008 5.86566 0
M  V30 541 H 75.7322 -4.0121 7.36511 0
M  V30 542 H 74.0382 -5.80182 8.37584 0
M  V30 543 H 73.8482 -3.73517 9.52265 0
M  V30 544 H 72.2182 -3.97163 8.80359 0
M  V30 545 H 74.8572 -4.90969 4.01921 0
M  V30 546 P 76.7148 -5.75688 6.64379 0
M  V30 547 O 78.1368 -6.11849 7.01846 0
M  V30 548 O 76.3548 -4.30744 6.56026 0
M  V30 549 O 76.3918 -6.37042 5.19165 0
M  V30 550 C 76.2318 -7.83578 5.16515 0
M  V30 551 C 76.7718 -8.33398 3.83019 0
M  V30 552 O 75.7158 -8.10074 3.01034 0
M  V30 553 C 77.9898 -7.65514 3.2257 0
M  V30 554 O 78.7278 -8.4329 2.32297 0
M  V30 555 C 77.3208 -6.40075 2.62207 0
M  V30 556 O 78.1198 -5.92589 1.53712 0
M  V30 557 C 75.9838 -6.9454 2.18503 0
M  V30 558 H 76.0158 -7.23063 1.12091 0
M  V30 559 H 77.1988 -5.6025 3.37201 0
M  V30 560 H 78.6828 -7.35707 4.02681 0
M  V30 561 H 76.9888 -9.40912 3.9095 0
M  V30 562 H 76.7988 -8.29056 5.99158 0
M  V30 563 H 75.1688 -8.10073 5.25882 0
M  V30 564 H 77.8078 -6.30324 0.726794 0
M  V30 565 P 79.6654 -8.4349 2.47671 0
M  V30 566 O 81.0664 -8.98227 2.65696 0
M  V30 567 O 79.2874 -7.20409 3.23964 0
M  V30 568 O 79.3424 -8.16496 0.923275 0
M  V30 569 C 79.1824 -9.38437 0.108857 0
M  V30 570 C 79.7224 -9.08076 -1.28339 0
M  V30 571 O 78.6664 -8.44131 -1.84692 0
M  V30 572 C 80.9394 -8.18386 -1.42505 0
M  V30 573 O 81.6784 -8.3501 -2.60497 0
M  V30 574 C 80.2724 -6.80225 -1.25468 0
M  V30 575 O 81.0704 -5.81526 -1.91035 0
M  V30 576 C 78.9344 -7.02416 -1.9168 0
M  V30 577 N 77.8914 -6.31033 -1.20314 0
M  V30 578 C 76.8564 -5.77149 -1.928 0
M  V30 579 O 76.8954 -5.8521 -3.17729 0
M  V30 580 N 75.8444 -5.15445 -1.27997 0
M  V30 581 C 75.8924 -5.04472 0.0534726 0
M  V30 582 C 76.9884 -5.55244 0.808522 0
M  V30 583 C 77.9544 -6.18542 0.13981 0
M  V30 584 H 78.9664 -6.68789 -2.9658 0
M  V30 585 H 80.1494 -6.53498 -0.198729 0
M  V30 586 H 81.6334 -8.36663 -0.5984 0
M  V30 587 H 79.9394 -10.0273 -1.8081 0
M  V30 588 H 79.7484 -10.2138 0.558219 0
M  V30 589 H 78.1184 -9.6569 0.0444156 0
M  V30 590 H 77.0364 -5.43017 1.88792 0
M  V30 591 H 78.8004 -6.60539 0.686773 0
M  V30 592 H 80.8544 -5.79638 -2.8315 0
M  V30 593 P 82.616 -8.4349 -2.47671 0
M  V30 594 O 84.038 -8.92593 -2.65 0
M  V30 595 O 82.256 -7.7568 -1.19296 0
M  V30 596 O 82.293 -7.36886 -3.63805 0
M  V30 597 C 82.133 -7.95349 -4.982 0
M  V30 598 C 82.673 -6.94612 -5.98974 0
M  V30 599 O 81.617 -6.10347 -6.11815 0
M  V30 600 C 83.891 -6.11426 -5.62335 0
M  V30 601 O 84.629 -5.6162 -6.70584 0
M  V30 602 C 83.222 -5.04409 -4.73308 0
M  V30 603 O 84.021 -3.85992 -4.75183 0
M  V30 604 C 81.885 -4.8728 -5.41006 0
M  V30 605 H 81.917 -4.02333 -6.11157 0
M  V30 606 H 83.1 -5.39466 -3.69543 0
M  V30 607 H 84.584 -6.71916 -5.01943 0
M  V30 608 H 82.89 -7.4649 -6.93477 0
M  V30 609 H 82.7 -8.89416 -5.05237 0
M  V30 610 H 81.07 -8.14876 -5.18409 0
M  V30 611 H 83.709 -3.27957 -5.4317 0
M  V30 612 P 85.5665 -5.75688 -6.64379 0
M  V30 613 O 86.9885 -6.07627 -7.05504 0
M  V30 614 O 85.2065 -5.88047 -5.19722 0
M  V30 615 O 85.2435 -4.2322 -7.04443 0
M  V30 616 C 85.0835 -3.99743 -8.4911 0
M  V30 617 C 85.6235 -2.60516 -8.79425 0
M  V30 618 O 84.5675 -1.82684 -8.4467 0
M  V30 619 C 86.8415 -2.10343 -8.03628 0
M  V30 620 O 87.5795 -1.09919 -8.67766 0
M  V30 621 C 86.1725 -1.68446 -6.70876 0
M  V30 622 O 86.9715 -0.678137 -6.08433 0
M  V30 623 C 84.8355 -1.17436 -7.18567 0
M  V30 624 H 84.8675 -0.0804732 -7.31656 0
M  V30 625 H 86.0505 -2.54037 -6.02537 0
M  V30 626 H 87.5345 -2.93881 -7.85526 0
M  V30 627 H 85.8405 -2.53065 -9.86973 0
M  V30 628 H 85.6505 -4.75072 -9.05887 0
M  V30 629 H 84.0205 -4.05244 -8.76668 0
M  V30 630 H 86.6595 0.177647 -6.34251 0
M  V30 631 P 88.5171 -1.25109 -8.70152 0
M  V30 632 O 89.9391 -1.29744 -9.22016 0
M  V30 633 O 88.1571 -2.13714 -7.55141 0
M  V30 634 O 88.1941 0.248149 -8.21425 0
M  V30 635 C 88.0341 1.22779 -9.30434 0
M  V30 636 C 88.5741 2.56293 -8.80664 0
M  V30 637 O 87.5181 3.02979 -8.09349 0
M  V30 638 C 89.7921 2.57523 -7.89775 0
M  V30 639 O 90.5301 3.7668 -7.89438 0
M  V30 640 C 89.1231 2.20997 -6.55446 0
M  V30 641 O 89.9221 2.71895 -5.48509 0
M  V30 642 C 87.7861 2.89693 -6.67988 0
M  V30 643 H 87.8181 3.88793 -6.19859 0
M  V30 644 H 89.0011 1.12046 -6.44229 0
M  V30 645 H 90.4851 1.7746 -8.19711 0
M  V30 646 H 88.7911 3.20706 -9.67112 0
M  V30 647 H 88.6011 0.901032 -10.1892 0
M  V30 648 H 86.9711 1.33049 -9.56592 0
M  V30 649 H 89.6101 3.57847 -5.23962 0
M  V30 650 P 91.4677 3.65191 -7.99657 0
M  V30 651 O 92.8897 3.89332 -8.45794 0
M  V30 652 O 91.1077 2.28472 -7.50807 0
M  V30 653 O 91.1447 4.64972 -6.77611 0
M  V30 654 C 90.9847 6.06319 -7.16352 0
M  V30 655 C 91.5247 6.91731 -6.02299 0
M  V30 656 O 90.4687 6.92449 -5.17064 0
M  V30 657 C 92.7427 6.43627 -5.25174 0
M  V30 658 O 93.4807 7.43686 -4.60469 0
M  V30 659 C 92.0737 5.40275 -4.31916 0
M  V30 660 O 92.8727 5.25279 -3.14438 0
M  V30 661 C 90.7367 6.04847 -4.05327 0
M  V30 662 H 90.7687 6.62195 -3.11261 0
M  V30 663 H 91.9517 4.42556 -4.81383 0
M  V30 664 H 93.4357 5.92458 -5.93643 0
M  V30 665 H 91.7417 7.92655 -6.402 0
M  V30 666 H 91.5517 6.26671 -8.0846 0
M  V30 667 H 89.9217 6.29101 -7.32804 0
M  V30 668 H 92.5607 5.84315 -2.47318 0
M  V30 669 P 94.4182 7.39546 -4.75277 0
M  V30 670 O 95.8402 7.84798 -5.01039 0
M  V30 671 O 94.0582 5.9812 -5.08098 0
M  V30 672 O 94.0952 7.57503 -3.1866 0
M  V30 673 C 93.9352 8.97357 -2.74833 0
M  V30 674 C 94.4752 9.07548 -1.32709 0
M  V30 675 O 93.4192 8.62072 -0.606159 0
M  V30 676 C 95.6932 8.25383 -0.938334 0
M  V30 677 O 96.4312 8.74577 0.146954 0
M  V30 678 C 95.0242 6.8802 -0.712559 0
M  V30 679 O 95.8232 6.1189 0.194655 0
M  V30 680 C 93.6872 7.27966 -0.139777 0
M  V30 681 H 93.7192 7.25354 0.961601 0
M  V30 682 H 94.9022 6.32557 -1.65702 0
M  V30 683 H 96.3862 8.19355 -1.79097 0
M  V30 684 H 94.6922 10.1294 -1.10029 0
M  V30 685 H 94.5022 9.64276 -3.41316 0
M  V30 686 H 92.8722 9.25417 -2.76357 0
M  V30 687 H 95.5112 6.25267 1.07847 0
M  V30 688 P 97.3688 8.791 -6.89233e-14 0
M  V30 689 O 98.7908 9.31096 0.027933 0
M  V30 690 O 97.0088 7.77869 -1.04071 0
M  V30 691 O 97.0458 8.09533 1.41463 0
M  V30 692 C 96.8858 9.0349 2.53943 0
M  V30 693 C 97.4258 8.35226 3.79016 0
M  V30 694 O 96.3698 7.57992 4.15078 0
M  V30 695 C 98.6438 7.45087 3.67298 0
M  V30 696 O 99.3818 7.27796 4.85194 0
M  V30 697 C 97.9748 6.17323 3.12027 0
M  V30 698 O 98.7738 5.04231 3.47188 0
M  V30 699 C 96.6378 6.19961 3.81809 0
M  V30 700 H 96.6698 5.58218 4.73051 0
M  V30 701 H 97.8528 6.21726 2.02589 0
M  V30 702 H 99.3368 7.86112 2.9231 0
M  V30 703 H 97.6428 9.11627 4.55076 0
M  V30 704 H 97.4528 9.9573 2.34194 0
M  V30 705 H 95.8228 9.2792 2.67832 0
M  V30 706 H 98.4618 4.67702 4.28772 0
M  V30 707 P 100.319 7.39546 4.75277 0
M  V30 708 O 101.741 7.81777 5.05738 0
M  V30 709 O 99.9594 7.1065 3.32998 0
M  V30 710 O 99.9964 6.04542 5.56673 0
M  V30 711 C 99.8364 6.22772 7.02095 0
M  V30 712 C 100.376 4.97725 7.70406 0
M  V30 713 O 99.3204 4.13256 7.58987 0
M  V30 714 C 101.594 4.28231 7.11815 0
M  V30 715 O 102.332 3.49945 8.01648 0
M  V30 716 C 100.925 3.5063 5.96244 0
M  V30 717 O 101.724 2.36482 5.64681 0
M  V30 718 C 99.5884 3.15122 6.56374 0
M  V30 719 H 99.6204 2.13853 6.99751 0
M  V30 720 H 100.803 4.13501 5.06559 0
M  V30 721 H 102.287 5.03285 6.70911 0
M  V30 722 H 100.593 5.20877 8.75697 0
M  V30 723 H 100.403 7.11046 7.35349 0
M  V30 724 H 98.7734 6.35815 7.26986 0
M  V30 725 H 101.412 1.61644 6.13565 0
M  V30 726 P 103.27 3.65191 7.99657 0
M  V30 727 O 104.692 3.8425 8.48115 0
M  V30 728 O 102.91 4.17805 6.64342 0
M  V30 729 O 102.947 2.07613 7.95143 0
M  V30 730 C 102.787 1.44328 9.27336 0
M  V30 731 C 103.327 0.0220036 9.17197 0
M  V30 732 O 102.271 -0.626867 8.61923 0
M  V30 733 C 104.545 -0.24586 8.30336 0
M  V30 734 O 105.283 -1.39011 8.63583 0
M  V30 735 C 103.876 -0.273849 6.91158 0
M  V30 736 O 104.675 -1.06348 6.02892 0
M  V30 737 C 102.539 -0.897649 7.22545 0
M  V30 738 H 102.571 -1.9841 7.04286 0
M  V30 739 H 103.754 0.739928 6.497 0
M  V30 740 H 105.238 0.60668 8.36503 0
M  V30 741 H 103.544 -0.352479 10.1829 0
M  V30 742 H 103.354 2.00611 10.0304 0
M  V30 743 H 101.724 1.41843 9.55327 0
M  V30 744 H 104.363 -1.95734 6.03555 0
M  V30 745 P 106.221 -1.25109 8.70152 0
M  V30 746 O 107.643 -1.35274 9.21221 0
M  V30 747 O 105.861 -0.0769065 7.84762 0
M  V30 748 O 105.898 -2.55232 7.81161 0
M  V30 749 C 105.738 -3.79939 8.58154 0
M  V30 750 C 106.278 -4.94023 7.72785 0
M  V30 751 O 105.222 -5.18726 6.91205 0
M  V30 752 C 107.496 -4.69597 6.85231 0
M  V30 753 O 108.234 -5.83832 6.51337 0
M  V30 754 C 106.827 -3.96706 5.66633 0
M  V30 755 O 107.626 -4.15414 4.49689 0
M  V30 756 C 105.49 -4.66153 5.59313 0
M  V30 757 H 105.522 -5.47679 4.85214 0
M  V30 758 H 106.705 -2.89008 5.86566 0
M  V30 759 H 108.189 -4.0121 7.36511 0
M  V30 760 H 106.495 -5.80182 8.37584 0
M  V30 761 H 106.305 -3.73517 9.52265 0
M  V30 762 H 104.675 -3.97163 8.80359 0
M  V30 763 H 107.314 -4.90969 4.01921 0
M  V30 764 P 109.171 -5.75688 6.64379 0
M  V30 765 O 110.593 -6.11849 7.01846 0
M  V30 766 O 108.811 -4.30744 6.56026 0
M  V30 767 O 108.848 -6.37042 5.19165 0
M  V30 768 C 108.688 -7.83578 5.16515 0
M  V30 769 C 109.228 -8.33398 3.83019 0
M  V30 770 O 108.172 -8.10074 3.01034 0
M  V30 771 C 110.446 -7.65514 3.2257 0
M  V30 772 O 111.184 -8.4329 2.32297 0
M  V30 773 C 109.777 -6.40075 2.62207 0
M  V30 774 O 110.576 -5.92589 1.53712 0
M  V30 775 C 108.44 -6.9454 2.18503 0
M  V30 776 H 108.472 -7.23063 1.12091 0
M  V30 777 H 109.655 -5.6025 3.37201 0
M  V30 778 H 111.139 -7.35707 4.02681 0
M  V30 779 H 109.445 -9.40912 3.9095 0
M  V30 780 H 109.255 -8.29056 5.99158 0
M  V30 781 H 107.625 -8.10073 5.25882 0
M  V30 782 H 110.264 -6.30324 0.726794 0
M  V30 783 P 112.122 -8.4349 2.47671 0
M  V30 784 O 113.544 -8.94167 2.5964 0
M  V30 785 O 111.762 -7.1704 3.19006 0
M  V30 786 O 111.799 -8.16596 0.923387 0
M  V30 787 C 111.639 -9.38437 0.108857 0
M  V30 788 C 112.179 -9.08175 -1.28353 0
M  V30 789 O 111.123 -8.44229 -1.84713 0
M  V30 790 C 113.397 -8.18386 -1.42505 0
M  V30 791 O 114.135 -8.3501 -2.60497 0
M  V30 792 C 112.728 -6.80225 -1.25468 0
M  V30 793 O 113.527 -5.81621 -1.91066 0
M  V30 794 C 111.391 -7.02416 -1.9168 0
M  V30 795 H 111.423 -6.6888 -2.96621 0
M  V30 796 H 112.606 -6.53617 -0.192223 0
M  V30 797 H 114.09 -8.36622 -0.589963 0
M  V30 798 H 112.396 -10.0291 -1.79807 0
M  V30 799 H 112.206 -10.2138 0.558219 0
M  V30 800 H 110.576 -9.6579 0.0444202 0
M  V30 801 H 113.215 -5.69556 -2.79637 0
M  V30 802 P 115.072 -8.4349 -2.47671 0
M  V30 803 O 116.473 -8.99283 -2.62101 0
M  V30 804 O 114.694 -7.81195 -1.16947 0
M  V30 805 O 114.749 -7.36797 -3.63761 0
M  V30 806 C 114.589 -7.95349 -4.982 0
M  V30 807 C 115.129 -6.94537 -5.98908 0
M  V30 808 O 114.073 -6.10277 -6.11744 0
M  V30 809 C 116.346 -6.11426 -5.62335 0
M  V30 810 O 117.085 -5.6162 -6.70584 0
M  V30 811 C 115.679 -5.04409 -4.73308 0
M  V30 812 O 116.477 -3.85929 -4.75106 0
M  V30 813 C 114.341 -4.8728 -5.41006 0
M  V30 814 N 113.298 -4.65812 -4.42377 0
M  V30 815 C 112.263 -3.81293 -4.74224 0
M  V30 816 O 112.302 -3.20533 -5.83679 0
M  V30 817 N 111.251 -3.6442 -3.86349 0
M  V30 818 C 111.299 -4.2728 -2.6824 0
M  V30 819 C 112.395 -5.10813 -2.3217 0
M  V30 820 C 113.361 -5.27909 -3.22647 0
M  V30 821 H 114.373 -4.02278 -6.11074 0
M  V30 822 H 115.556 -5.39013 -3.70026 0
M  V30 823 H 117.04 -6.71494 -5.02675 0
M  V30 824 H 115.346 -7.45796 -6.94223 0
M  V30 825 H 115.155 -8.89416 -5.05237 0
M  V30 826 H 113.525 -8.14791 -5.18355 0
M  V30 827 H 112.443 -5.58884 -1.34755 0
M  V30 828 H 114.207 -5.92811 -2.9934 0
M  V30 829 H 116.261 -3.3454 -5.51577 0
M  V30 830 P 118.023 -5.75688 -6.64379 0
M  V30 831 O 119.445 -6.07627 -7.05504 0
M  V30 832 O 117.663 -5.88047 -5.19722 0
M  V30 833 O 117.7 -4.2322 -7.04443 0
M  V30 834 C 117.54 -3.99743 -8.4911 0
M  V30 835 C 118.08 -2.60516 -8.79425 0
M  V30 836 O 117.024 -1.82684 -8.4467 0
M  V30 837 C 119.298 -2.10343 -8.03628 0
M  V30 838 O 120.036 -1.09919 -8.67766 0
M  V30 839 C 118.629 -1.68446 -6.70876 0
M  V30 840 O 119.428 -0.678137 -6.08433 0
M  V30 841 C 117.292 -1.17436 -7.18567 0
M  V30 842 H 117.324 -0.0804732 -7.31656 0
M  V30 843 H 118.507 -2.54037 -6.02537 0
M  V30 844 H 119.991 -2.93881 -7.85526 0
M  V30 845 H 118.297 -2.53065 -9.86973 0
M  V30 846 H 118.107 -4.75072 -9.05887 0
M  V30 847 H 116.477 -4.05244 -8.76668 0
M  V30 848 H 119.116 0.177647 -6.34251 0
M  V30 849 P 120.973 -1.25109 -8.70152 0
M  V30 850 O 122.394 -1.29758 -9.22115 0
M  V30 851 O 120.613 -2.13714 -7.55141 0
M  V30 852 O 120.65 0.248149 -8.21425 0
M  V30 853 C 120.489 1.22792 -9.30533 0
M  V30 854 C 121.03 2.56293 -8.80664 0
M  V30 855 O 119.975 3.02944 -8.09255 0
M  V30 856 C 122.248 2.57523 -7.89775 0
M  V30 857 O 122.986 3.7668 -7.89438 0
M  V30 858 C 121.58 2.20997 -6.55446 0
M  V30 859 O 122.378 2.71302 -5.48691 0
M  V30 860 C 120.242 2.89693 -6.67988 0
M  V30 861 N 119.199 2.08895 -6.07487 0
M  V30 862 C 119.368 0.753809 -5.94137 0
M  V30 863 N 118.341 0.146592 -5.38801 0
M  V30 864 C 117.456 1.1768 -5.13693 0
M  V30 865 C 116.189 1.17563 -4.52477 0
M  V30 866 N 115.624 2.41918 -4.45789 0
M  V30 867 C 116.226 3.56493 -4.90792 0
M  V30 868 N 117.403 3.61423 -5.47817 0
M  V30 869 C 117.978 2.37779 -5.5588 0
M  V30 870 H 121.457 1.12673 -6.44018 0
M  V30 871 H 122.94 1.7746 -8.19711 0
M  V30 872 H 121.246 3.21673 -9.66791 0
M  V30 873 H 121.056 0.901032 -10.1892 0
M  V30 874 H 119.426 1.33049 -9.56592 0
M  V30 875 H 120.268 0.233081 -6.26266 0
M  V30 876 H 122.066 3.5779 -5.23879 0
M  V30 877 P 123.924 3.65191 -7.99657 0
M  V30 878 O 125.346 3.89332 -8.45794 0
M  V30 879 O 123.564 2.28472 -7.50807 0
M  V30 880 O 123.601 4.64972 -6.77611 0
M  V30 881 C 123.441 6.06319 -7.16352 0
M  V30 882 C 123.981 6.91731 -6.02299 0
M  V30 883 O 122.925 6.92449 -5.17064 0
M  V30 884 C 125.199 6.43627 -5.25174 0
M  V30 885 O 125.937 7.43686 -4.60469 0
M  V30 886 C 124.53 5.40275 -4.31916 0
M  V30 887 O 125.329 5.25279 -3.14438 0
M  V30 888 C 123.193 6.04847 -4.05327 0
M  V30 889 H 123.225 6.62195 -3.11261 0
M  V30 890 H 124.408 4.42556 -4.81383 0
M  V30 891 H 125.892 5.92458 -5.93643 0
M  V30 892 H 124.198 7.92655 -6.402 0
M  V30 893 H 124.008 6.26671 -8.0846 0
M  V30 894 H 122.378 6.29101 -7.32804 0
M  V30 895 H 125.017 5.84315 -2.47318 0
M  V30 896 P 126.875 7.39546 -4.75277 0
M  V30 897 O 128.297 7.84798 -5.01039 0
M  V30 898 O 126.515 5.9812 -5.08098 0
M  V30 899 O 126.552 7.57503 -3.1866 0
M  V30 900 C 126.392 8.97357 -2.74833 0
M  V30 901 C 126.932 9.07548 -1.32709 0
M  V30 902 O 125.876 8.62072 -0.606159 0
M  V30 903 C 128.15 8.25383 -0.938334 0
M  V30 904 O 128.888 8.74577 0.146954 0
M  V30 905 C 127.481 6.8802 -0.712559 0
M  V30 906 O 128.28 6.1189 0.194655 0
M  V30 907 C 126.144 7.27966 -0.139777 0
M  V30 908 H 126.176 7.25354 0.961601 0
M  V30 909 H 127.359 6.32557 -1.65702 0
M  V30 910 H 128.843 8.19355 -1.79097 0
M  V30 911 H 127.149 10.1294 -1.10029 0
M  V30 912 H 126.959 9.64276 -3.41316 0
M  V30 913 H 125.329 9.25417 -2.76357 0
M  V30 914 H 127.968 6.25267 1.07847 0
M  V30 915 P 129.825 8.791 -1.02308e-13 0
M  V30 916 O 131.247 9.31096 0.027933 0
M  V30 917 O 129.465 7.77869 -1.04071 0
M  V30 918 O 129.502 8.09533 1.41463 0
M  V30 919 C 129.342 9.0349 2.53943 0
M  V30 920 C 129.882 8.35226 3.79016 0
M  V30 921 O 128.826 7.57992 4.15078 0
M  V30 922 C 131.1 7.45087 3.67298 0
M  V30 923 O 131.838 7.27796 4.85194 0
M  V30 924 C 130.431 6.17323 3.12027 0
M  V30 925 O 131.23 5.04231 3.47188 0
M  V30 926 C 129.094 6.19961 3.81809 0
M  V30 927 H 129.126 5.58218 4.73051 0
M  V30 928 H 130.309 6.21726 2.02589 0
M  V30 929 H 131.793 7.86112 2.9231 0
M  V30 930 H 130.099 9.11627 4.55076 0
M  V30 931 H 129.909 9.9573 2.34194 0
M  V30 932 H 128.279 9.2792 2.67832 0
M  V30 933 H 130.918 4.67702 4.28772 0
M  V30 934 P 132.776 7.39546 4.75277 0
M  V30 935 O 134.198 7.81777 5.05738 0
M  V30 936 O 132.416 7.1065 3.32998 0
M  V30 937 O 132.453 6.04542 5.56673 0
M  V30 938 C 132.293 6.22772 7.02095 0
M  V30 939 C 132.833 4.97725 7.70406 0
M  V30 940 O 131.777 4.13256 7.58987 0
M  V30 941 C 134.051 4.28231 7.11815 0
M  V30 942 O 134.789 3.49945 8.01648 0
M  V30 943 C 133.382 3.5063 5.96244 0
M  V30 944 O 134.181 2.36482 5.64681 0
M  V30 945 C 132.045 3.15122 6.56374 0
M  V30 946 H 132.077 2.13853 6.99751 0
M  V30 947 H 133.26 4.13501 5.06559 0
M  V30 948 H 134.744 5.03285 6.70911 0
M  V30 949 H 133.05 5.20877 8.75697 0
M  V30 950 H 132.86 7.11046 7.35349 0
M  V30 951 H 131.23 6.35815 7.26986 0
M  V30 952 H 133.869 1.61644 6.13565 0
M  V30 953 P 135.726 3.65191 7.99657 0
M  V30 954 O 137.148 3.8425 8.48115 0
M  V30 955 O 135.366 4.17805 6.64342 0
M  V30 956 O 135.403 2.07613 7.95143 0
M  V30 957 C 135.243 1.44328 9.27336 0
M  V30 958 C 135.783 0.0220036 9.17197 0
M  V30 959 O 134.727 -0.626867 8.61923 0
M  V30 960 C 137.001 -0.24586 8.30336 0
M  V30 961 O 137.739 -1.39011 8.63583 0
M  V30 962 C 136.332 -0.273849 6.91158 0
M  V30 963 O 137.131 -1.06348 6.02892 0
M  V30 964 C 134.995 -0.897649 7.22545 0
M  V30 965 H 135.027 -1.9841 7.04286 0
M  V30 966 H 136.21 0.739928 6.497 0
M  V30 967 H 137.694 0.60668 8.36503 0
M  V30 968 H 136 -0.352479 10.1829 0
M  V30 969 H 135.81 2.00611 10.0304 0
M  V30 970 H 134.18 1.41843 9.55327 0
M  V30 971 H 136.819 -1.95734 6.03555 0
M  V30 972 P 138.677 -1.25109 8.70152 0
M  V30 973 O 140.099 -1.35274 9.21221 0
M  V30 974 O 138.317 -0.0769065 7.84762 0
M  V30 975 O 138.354 -2.55232 7.81161 0
M  V30 976 C 138.194 -3.79939 8.58154 0
M  V30 977 C 138.734 -4.94023 7.72785 0
M  V30 978 O 137.678 -5.18726 6.91205 0
M  V30 979 C 139.952 -4.69597 6.85231 0
M  V30 980 O 140.69 -5.83832 6.51337 0
M  V30 981 C 139.283 -3.96706 5.66633 0
M  V30 982 O 140.082 -4.15414 4.49689 0
M  V30 983 C 137.946 -4.66153 5.59313 0
M  V30 984 H 137.978 -5.47679 4.85214 0
M  V30 985 H 139.161 -2.89008 5.86566 0
M  V30 986 H 140.645 -4.0121 7.36511 0
M  V30 987 H 138.951 -5.80182 8.37584 0
M  V30 988 H 138.761 -3.73517 9.52265 0
M  V30 989 H 137.131 -3.97163 8.80359 0
M  V30 990 H 139.77 -4.90969 4.01921 0
M  V30 991 P 141.627 -5.75688 6.64379 0
M  V30 992 O 143.049 -6.11849 7.01846 0
M  V30 993 O 141.267 -4.30744 6.56026 0
M  V30 994 O 141.304 -6.37042 5.19165 0
M  V30 995 C 141.144 -7.83578 5.16515 0
M  V30 996 C 141.684 -8.33398 3.83019 0
M  V30 997 O 140.628 -8.10074 3.01034 0
M  V30 998 C 142.902 -7.65514 3.2257 0
M  V30 999 O 143.64 -8.4329 2.32297 0
M  V30 1000 C 142.233 -6.40075 2.62207 0
M  V30 1001 O 143.032 -5.92589 1.53712 0
M  V30 1002 C 140.896 -6.9454 2.18503 0
M  V30 1003 H 140.928 -7.23063 1.12091 0
M  V30 1004 H 142.111 -5.6025 3.37201 0
M  V30 1005 H 143.595 -7.35707 4.02681 0
M  V30 1006 H 141.901 -9.40912 3.9095 0
M  V30 1007 H 141.711 -8.29056 5.99158 0
M  V30 1008 H 140.081 -8.10073 5.25882 0
M  V30 1009 H 142.72 -6.30324 0.726794 0
M  V30 1010 P 144.578 -8.4349 2.47671 0
M  V30 1011 O 146 -8.94167 2.5964 0
M  V30 1012 O 144.218 -7.1704 3.19006 0
M  V30 1013 O 144.255 -8.16596 0.923387 0
M  V30 1014 C 144.095 -9.38437 0.108857 0
M  V30 1015 C 144.635 -9.08175 -1.28353 0
M  V30 1016 O 143.579 -8.44229 -1.84713 0
M  V30 1017 C 145.853 -8.18386 -1.42505 0
M  V30 1018 O 146.591 -8.3501 -2.60497 0
M  V30 1019 C 145.184 -6.80225 -1.25468 0
M  V30 1020 O 145.983 -5.81621 -1.91066 0
M  V30 1021 C 143.847 -7.02416 -1.9168 0
M  V30 1022 H 143.879 -6.6888 -2.96621 0
M  V30 1023 H 145.062 -6.53617 -0.192223 0
M  V30 1024 H 146.546 -8.36622 -0.589963 0
M  V30 1025 H 144.852 -10.0291 -1.79807 0
M  V30 1026 H 144.662 -10.2138 0.558219 0
M  V30 1027 H 143.032 -9.6579 0.0444202 0
M  V30 1028 H 145.671 -5.69556 -2.79637 0
M  V30 1029 P 147.528 -8.4349 -2.47671 0
M  V30 1030 O 148.95 -8.92593 -2.65 0
M  V30 1031 O 147.168 -7.7568 -1.19296 0
M  V30 1032 O 147.205 -7.36886 -3.63805 0
M  V30 1033 C 147.045 -7.95349 -4.982 0
M  V30 1034 C 147.585 -6.94612 -5.98974 0
M  V30 1035 O 146.529 -6.10347 -6.11815 0
M  V30 1036 C 148.803 -6.11426 -5.62335 0
M  V30 1037 O 149.541 -5.6162 -6.70584 0
M  V30 1038 C 148.134 -5.04409 -4.73308 0
M  V30 1039 O 148.933 -3.85992 -4.75183 0
M  V30 1040 C 146.797 -4.8728 -5.41006 0
M  V30 1041 H 146.829 -4.02333 -6.11157 0
M  V30 1042 H 148.012 -5.39466 -3.69543 0
M  V30 1043 H 149.496 -6.71916 -5.01943 0
M  V30 1044 H 147.802 -7.4649 -6.93477 0
M  V30 1045 H 147.612 -8.89416 -5.05237 0
M  V30 1046 H 145.982 -8.14876 -5.18409 0
M  V30 1047 H 148.621 -3.27957 -5.4317 0
M  V30 1048 P 150.479 -5.75688 -6.64379 0
M  V30 1049 O 151.901 -6.07627 -7.05504 0
M  V30 1050 O 150.119 -5.88047 -5.19722 0
M  V30 1051 O 150.156 -4.2322 -7.04443 0
M  V30 1052 C 149.996 -3.99743 -8.4911 0
M  V30 1053 C 150.536 -2.60516 -8.79425 0
M  V30 1054 O 149.48 -1.82684 -8.4467 0
M  V30 1055 C 151.754 -2.10343 -8.03628 0
M  V30 1056 O 152.492 -1.09919 -8.67766 0
M  V30 1057 C 151.085 -1.68446 -6.70876 0
M  V30 1058 O 151.884 -0.678137 -6.08433 0
M  V30 1059 C 149.748 -1.17436 -7.18567 0
M  V30 1060 H 149.78 -0.0804732 -7.31656 0
M  V30 1061 H 150.963 -2.54037 -6.02537 0
M  V30 1062 H 152.447 -2.93881 -7.85526 0
M  V30 1063 H 150.753 -2.53065 -9.86973 0
M  V30 1064 H 150.563 -4.75072 -9.05887 0
M  V30 1065 H 148.933 -4.05244 -8.76668 0
M  V30 1066 H 151.572 0.177647 -6.34251 0
M  V30 1067 P 153.43 -1.25109 -8.70152 0
M  V30 1068 O 154.852 -1.29744 -9.22016 0
M  V30 1069 O 153.07 -2.13714 -7.55141 0
M  V30 1070 O 153.107 0.248149 -8.21425 0
M  V30 1071 C 152.947 1.22779 -9.30434 0
M  V30 1072 C 153.487 2.56293 -8.80664 0
M  V30 1073 O 152.431 3.02979 -8.09349 0
M  V30 1074 C 154.705 2.57523 -7.89775 0
M  V30 1075 O 155.443 3.7668 -7.89438 0
M  V30 1076 C 154.036 2.20997 -6.55446 0
M  V30 1077 O 154.835 2.71895 -5.48509 0
M  V30 1078 C 152.699 2.89693 -6.67988 0
M  V30 1079 H 152.731 3.88793 -6.19859 0
M  V30 1080 H 153.914 1.12046 -6.44229 0
M  V30 1081 H 155.398 1.7746 -8.19711 0
M  V30 1082 H 153.704 3.20706 -9.67112 0
M  V30 1083 H 153.514 0.901032 -10.1892 0
M  V30 1084 H 151.884 1.33049 -9.56592 0
M  V30 1085 H 154.523 3.57847 -5.23962 0
M  V30 1086 P 156.38 3.65191 -7.99657 0
M  V30 1087 O 157.802 3.89332 -8.45794 0
M  V30 1088 O 156.02 2.28472 -7.50807 0
M  V30 1089 O 156.057 4.64972 -6.77611 0
M  V30 1090 C 155.897 6.06319 -7.16352 0
M  V30 1091 C 156.437 6.91731 -6.02299 0
M  V30 1092 O 155.381 6.92449 -5.17064 0
M  V30 1093 C 157.655 6.43627 -5.25174 0
M  V30 1094 O 158.393 7.43686 -4.60469 0
M  V30 1095 C 156.986 5.40275 -4.31916 0
M  V30 1096 O 157.785 5.25279 -3.14438 0
M  V30 1097 C 155.649 6.04847 -4.05327 0
M  V30 1098 H 155.681 6.62195 -3.11261 0
M  V30 1099 H 156.864 4.42556 -4.81383 0
M  V30 1100 H 158.348 5.92458 -5.93643 0
M  V30 1101 H 156.654 7.92655 -6.402 0
M  V30 1102 H 156.464 6.26671 -8.0846 0
M  V30 1103 H 154.834 6.29101 -7.32804 0
M  V30 1104 H 157.473 5.84315 -2.47318 0
M  V30 1105 P 159.331 7.39546 -4.75277 0
M  V30 1106 O 160.753 7.84798 -5.01039 0
M  V30 1107 O 158.971 5.9812 -5.08098 0
M  V30 1108 O 159.008 7.57503 -3.1866 0
M  V30 1109 C 158.848 8.97357 -2.74833 0
M  V30 1110 C 159.388 9.07548 -1.32709 0
M  V30 1111 O 158.332 8.62072 -0.606159 0
M  V30 1112 C 160.606 8.25383 -0.938334 0
M  V30 1113 O 161.344 8.74577 0.146954 0
M  V30 1114 C 159.937 6.8802 -0.712559 0
M  V30 1115 O 160.736 6.1189 0.194655 0
M  V30 1116 C 158.6 7.27966 -0.139777 0
M  V30 1117 H 158.632 7.25354 0.961601 0
M  V30 1118 H 159.815 6.32557 -1.65702 0
M  V30 1119 H 161.299 8.19355 -1.79097 0
M  V30 1120 H 159.605 10.1294 -1.10029 0
M  V30 1121 H 159.415 9.64276 -3.41316 0
M  V30 1122 H 157.785 9.25417 -2.76357 0
M  V30 1123 H 160.424 6.25267 1.07847 0
M  V30 1124 P 162.281 8.791 -1.35693e-13 0
M  V30 1125 O 163.703 9.31096 0.027933 0
M  V30 1126 O 161.921 7.77869 -1.04071 0
M  V30 1127 O 161.958 8.09533 1.41463 0
M  V30 1128 C 161.798 9.0349 2.53943 0
M  V30 1129 C 162.338 8.35226 3.79016 0
M  V30 1130 O 161.282 7.57992 4.15078 0
M  V30 1131 C 163.556 7.45087 3.67298 0
M  V30 1132 O 164.294 7.27796 4.85194 0
M  V30 1133 C 162.887 6.17323 3.12027 0
M  V30 1134 O 163.686 5.04231 3.47188 0
M  V30 1135 C 161.55 6.19961 3.81809 0
M  V30 1136 H 161.582 5.58218 4.73051 0
M  V30 1137 H 162.765 6.21726 2.02589 0
M  V30 1138 H 164.249 7.86112 2.9231 0
M  V30 1139 H 162.555 9.11627 4.55076 0
M  V30 1140 H 162.365 9.9573 2.34194 0
M  V30 1141 H 160.735 9.2792 2.67832 0
M  V30 1142 H 163.374 4.67702 4.28772 0
M  V30 1143 P 165.232 7.39546 4.75277 0
M  V30 1144 O 166.654 7.81777 5.05738 0
M  V30 1145 O 164.872 7.1065 3.32998 0
M  V30 1146 O 164.909 6.04542 5.56673 0
M  V30 1147 C 164.749 6.22772 7.02095 0
M  V30 1148 C 165.289 4.97725 7.70406 0
M  V30 1149 O 164.233 4.13256 7.58987 0
M  V30 1150 C 166.507 4.28231 7.11815 0
M  V30 1151 O 167.245 3.49945 8.01648 0
M  V30 1152 C 165.838 3.5063 5.96244 0
M  V30 1153 O 166.637 2.36482 5.64681 0
M  V30 1154 C 164.501 3.15122 6.56374 0
M  V30 1155 H 164.533 2.13853 6.99751 0
M  V30 1156 H 165.716 4.13501 5.06559 0
M  V30 1157 H 167.2 5.03285 6.70911 0
M  V30 1158 H 165.506 5.20877 8.75697 0
M  V30 1159 H 165.316 7.11046 7.35349 0
M  V30 1160 H 163.686 6.35815 7.26986 0
M  V30 1161 H 166.325 1.61644 6.13565 0
M  V30 1162 P 168.182 3.65191 7.99657 0
M  V30 1163 O 169.604 3.8425 8.48115 0
M  V30 1164 O 167.822 4.17805 6.64342 0
M  V30 1165 O 167.859 2.07613 7.95143 0
M  V30 1166 C 167.699 1.44328 9.27336 0
M  V30 1167 C 168.239 0.0220036 9.17197 0
M  V30 1168 O 167.183 -0.626867 8.61923 0
M  V30 1169 C 169.457 -0.24586 8.30336 0
M  V30 1170 O 170.195 -1.39011 8.63583 0
M  V30 1171 C 168.788 -0.273849 6.91158 0
M  V30 1172 O 169.587 -1.06348 6.02892 0
M  V30 1173 C 167.451 -0.897649 7.22545 0
M  V30 1174 H 167.483 -1.9841 7.04286 0
M  V30 1175 H 168.666 0.739928 6.497 0
M  V30 1176 H 170.15 0.60668 8.36503 0
M  V30 1177 H 168.456 -0.352479 10.1829 0
M  V30 1178 H 168.266 2.00611 10.0304 0
M  V30 1179 H 166.636 1.41843 9.55327 0
M  V30 1180 H 169.275 -1.95734 6.03555 0
M  V30 1181 P 171.133 -1.25109 8.70152 0
M  V30 1182 O 172.555 -1.35274 9.21221 0
M  V30 1183 O 170.773 -0.0769065 7.84762 0
M  V30 1184 O 170.81 -2.55232 7.81161 0
M  V30 1185 C 170.65 -3.79939 8.58154 0
M  V30 1186 C 171.19 -4.94023 7.72785 0
M  V30 1187 O 170.134 -5.18726 6.91205 0
M  V30 1188 C 172.408 -4.69597 6.85231 0
M  V30 1189 O 173.146 -5.83832 6.51337 0
M  V30 1190 C 171.739 -3.96706 5.66633 0
M  V30 1191 O 172.538 -4.15414 4.49689 0
M  V30 1192 C 170.402 -4.66153 5.59313 0
M  V30 1193 H 170.434 -5.47679 4.85214 0
M  V30 1194 H 171.617 -2.89008 5.86566 0
M  V30 1195 H 173.101 -4.0121 7.36511 0
M  V30 1196 H 171.407 -5.80182 8.37584 0
M  V30 1197 H 171.217 -3.73517 9.52265 0
M  V30 1198 H 169.587 -3.97163 8.80359 0
M  V30 1199 H 172.226 -4.90969 4.01921 0
M  V30 1200 P 174.084 -5.75688 6.64379 0
M  V30 1201 O 175.485 -6.11991 7.09136 0
M  V30 1202 O 173.706 -4.30899 6.62018 0
M  V30 1203 O 173.761 -6.36965 5.19102 0
M  V30 1204 C 173.601 -7.83578 5.16515 0
M  V30 1205 C 174.141 -8.33307 3.82977 0
M  V30 1206 O 173.085 -8.0998 3.00999 0
M  V30 1207 C 175.358 -7.65514 3.2257 0
M  V30 1208 O 176.097 -8.4329 2.32297 0
M  V30 1209 C 174.691 -6.40075 2.62207 0
M  V30 1210 O 175.489 -5.92492 1.53687 0
M  V30 1211 C 173.353 -6.9454 2.18503 0
M  V30 1212 N 172.31 -5.95905 2.39948 0
M  V30 1213 C 171.275 -5.89764 1.49837 0
M  V30 1214 O 171.314 -6.64088 0.490975 0
M  V30 1215 N 170.263 -5.02821 1.70992 0
M  V30 1216 C 170.311 -4.21498 2.77236 0
M  V30 1217 C 171.407 -4.23389 3.68205 0
M  V30 1218 C 172.373 -5.12792 3.46171 0
M  V30 1219 H 173.385 -7.22964 1.12076 0
M  V30 1220 H 174.568 -5.60502 3.36589 0
M  V30 1221 H 176.052 -7.36197 4.01993 0
M  V30 1222 H 174.358 -9.41302 3.90009 0
M  V30 1223 H 174.167 -8.29056 5.99158 0
M  V30 1224 H 172.537 -8.09989 5.25828 0
M  V30 1225 H 171.455 -3.54747 4.52399 0
M  V30 1226 H 173.219 -5.18551 4.1489 0
M  V30 1227 H 175.273 -6.40705 0.751752 0
M  V30 1228 P 177.034 -8.4349 2.47671 0
M  V30 1229 O 178.456 -8.94167 2.5964 0
M  V30 1230 O 176.674 -7.1704 3.19006 0
M  V30 1231 O 176.711 -8.16596 0.923387 0
M  V30 1232 C 176.551 -9.38437 0.108857 0
M  V30 1233 C 177.091 -9.08175 -1.28353 0
M  V30 1234 O 176.035 -8.44229 -1.84713 0
M  V30 1235 C 178.309 -8.18386 -1.42505 0
M  V30 1236 O 179.047 -8.3501 -2.60497 0
M  V30 1237 C 177.64 -6.80225 -1.25468 0
M  V30 1238 O 178.439 -5.81621 -1.91066 0
M  V30 1239 C 176.303 -7.02416 -1.9168 0
M  V30 1240 H 176.335 -6.6888 -2.96621 0
M  V30 1241 H 177.518 -6.53617 -0.192223 0
M  V30 1242 H 179.002 -8.36622 -0.589963 0
M  V30 1243 H 177.308 -10.0291 -1.79807 0
M  V30 1244 H 177.118 -10.2138 0.558219 0
M  V30 1245 H 175.488 -9.6579 0.0444202 0
M  V30 1246 H 178.127 -5.69556 -2.79637 0
M  V30 1247 P 179.985 -8.4349 -2.47671 0
M  V30 1248 O 181.407 -8.92593 -2.65 0
M  V30 1249 O 179.625 -7.7568 -1.19296 0
M  V30 1250 O 179.662 -7.36886 -3.63805 0
M  V30 1251 C 179.502 -7.95349 -4.982 0
M  V30 1252 C 180.042 -6.94612 -5.98974 0
M  V30 1253 O 178.986 -6.10347 -6.11815 0
M  V30 1254 C 181.26 -6.11426 -5.62335 0
M  V30 1255 O 181.998 -5.6162 -6.70584 0
M  V30 1256 C 180.591 -5.04409 -4.73308 0
M  V30 1257 O 181.39 -3.85992 -4.75183 0
M  V30 1258 C 179.254 -4.8728 -5.41006 0
M  V30 1259 H 179.286 -4.02333 -6.11157 0
M  V30 1260 H 180.469 -5.39466 -3.69543 0
M  V30 1261 H 181.953 -6.71916 -5.01943 0
M  V30 1262 H 180.259 -7.4649 -6.93477 0
M  V30 1263 H 180.069 -8.89416 -5.05237 0
M  V30 1264 H 178.439 -8.14876 -5.18409 0
M  V30 1265 H 181.078 -3.27957 -5.4317 0
M  V30 1266 P 182.935 -5.75688 -6.64379 0
M  V30 1267 O 184.357 -6.07627 -7.05504 0
M  V30 1268 O 182.575 -5.88047 -5.19722 0
M  V30 1269 O 182.612 -4.2322 -7.04443 0
M  V30 1270 C 182.452 -3.99743 -8.4911 0
M  V30 1271 C 182.992 -2.60516 -8.79425 0
M  V30 1272 O 181.936 -1.82684 -8.4467 0
M  V30 1273 C 184.21 -2.10343 -8.03628 0
M  V30 1274 O 184.948 -1.09919 -8.67766 0
M  V30 1275 C 183.541 -1.68446 -6.70876 0
M  V30 1276 O 184.34 -0.678137 -6.08433 0
M  V30 1277 C 182.204 -1.17436 -7.18567 0
M  V30 1278 H 182.236 -0.0804732 -7.31656 0
M  V30 1279 H 183.419 -2.54037 -6.02537 0
M  V30 1280 H 184.903 -2.93881 -7.85526 0
M  V30 1281 H 183.209 -2.53065 -9.86973 0
M  V30 1282 H 183.019 -4.75072 -9.05887 0
M  V30 1283 H 181.389 -4.05244 -8.76668 0
M  V30 1284 H 184.028 0.177647 -6.34251 0
M  V30 1285 P 185.886 -1.25109 -8.70152 0
M  V30 1286 O 187.287 -1.3516 -9.26897 0
M  V30 1287 O 185.508 -2.18141 -7.59181 0
M  V30 1288 O 185.563 0.248118 -8.21325 0
M  V30 1289 C 185.403 1.22779 -9.30434 0
M  V30 1290 C 185.943 2.56265 -8.80568 0
M  V30 1291 O 184.887 3.02944 -8.09255 0
M  V30 1292 C 187.16 2.57523 -7.89775 0
M  V30 1293 O 187.899 3.7668 -7.89438 0
M  V30 1294 C 186.493 2.20997 -6.55446 0
M  V30 1295 O 187.291 2.71851 -5.48419 0
M  V30 1296 C 185.155 2.89693 -6.67988 0
M  V30 1297 N 184.112 2.08895 -6.07487 0
M  V30 1298 C 183.077 2.72974 -5.43836 0
M  V30 1299 O 183.116 3.97779 -5.34036 0
M  V30 1300 N 182.065 2.0005 -4.91983 0
M  V30 1301 C 182.113 0.66501 -5.00098 0
M  V30 1302 C 183.209 -0.0100979 -5.61099 0
M  V30 1303 C 184.175 0.74189 -6.14236 0
M  V30 1304 H 185.187 3.8874 -6.19774 0
M  V30 1305 H 186.37 1.12673 -6.44018 0
M  V30 1306 H 187.854 1.783 -8.19631 0
M  V30 1307 H 186.16 3.21673 -9.66791 0
M  V30 1308 H 185.969 0.901032 -10.1892 0
M  V30 1309 H 184.339 1.33036 -9.56493 0
M  V30 1310 H 183.257 -1.09591 -5.64358 0
M  V30 1311 H 185.021 0.260263 -6.6359 0
M  V30 1312 H 187.075 3.62759 -5.33442 0
M  V30 1313 P 188.836 3.65191 -7.99657 0
M  V30 1314 O 190.258 3.89332 -8.45794 0
M  V30 1315 O 188.476 2.28472 -7.50807 0
M  V30 1316 O 188.513 4.64972 -6.77611 0
M  V30 1317 C 188.353 6.06319 -7.16352 0
M  V30 1318 C 188.893 6.91731 -6.02299 0
M  V30 1319 O 187.837 6.92449 -5.17064 0
M  V30 1320 C 190.111 6.43627 -5.25174 0
M  V30 1321 O 190.849 7.43686 -4.60469 0
M  V30 1322 C 189.442 5.40275 -4.31916 0
M  V30 1323 O 190.241 5.25279 -3.14438 0
M  V30 1324 C 188.105 6.04847 -4.05327 0
M  V30 1325 H 188.137 6.62195 -3.11261 0
M  V30 1326 H 189.32 4.42556 -4.81383 0
M  V30 1327 H 190.804 5.92458 -5.93643 0
M  V30 1328 H 189.11 7.92655 -6.402 0
M  V30 1329 H 188.92 6.26671 -8.0846 0
M  V30 1330 H 187.29 6.29101 -7.32804 0
M  V30 1331 H 189.929 5.84315 -2.47318 0
M  V30 1332 P 191.787 7.39546 -4.75277 0
M  V30 1333 O 193.209 7.84798 -5.01039 0
M  V30 1334 O 191.427 5.9812 -5.08098 0
M  V30 1335 O 191.464 7.57503 -3.1866 0
M  V30 1336 C 191.304 8.97357 -2.74833 0
M  V30 1337 C 191.844 9.07548 -1.32709 0
M  V30 1338 O 190.788 8.62072 -0.606159 0
M  V30 1339 C 193.062 8.25383 -0.938334 0
M  V30 1340 O 193.8 8.74577 0.146954 0
M  V30 1341 C 192.393 6.8802 -0.712559 0
M  V30 1342 O 193.192 6.1189 0.194655 0
M  V30 1343 C 191.056 7.27966 -0.139777 0
M  V30 1344 H 191.088 7.25354 0.961601 0
M  V30 1345 H 192.271 6.32557 -1.65702 0
M  V30 1346 H 193.755 8.19355 -1.79097 0
M  V30 1347 H 192.061 10.1294 -1.10029 0
M  V30 1348 H 191.871 9.64276 -3.41316 0
M  V30 1349 H 190.241 9.25417 -2.76357 0
M  V30 1350 H 192.88 6.25267 1.07847 0
M  V30 1351 P 194.738 8.791 1.12009e-13 0
M  V30 1352 O 196.16 9.31096 0.027933 0
M  V30 1353 O 194.378 7.77869 -1.04071 0
M  V30 1354 O 194.415 8.09533 1.41463 0
M  V30 1355 C 194.255 9.0349 2.53943 0
M  V30 1356 C 194.795 8.35226 3.79016 0
M  V30 1357 O 193.739 7.57992 4.15078 0
M  V30 1358 C 196.013 7.45087 3.67298 0
M  V30 1359 O 196.751 7.27796 4.85194 0
M  V30 1360 C 195.344 6.17323 3.12027 0
M  V30 1361 O 196.143 5.04231 3.47188 0
M  V30 1362 C 194.007 6.19961 3.81809 0
M  V30 1363 H 194.039 5.58218 4.73051 0
M  V30 1364 H 195.222 6.21726 2.02589 0
M  V30 1365 H 196.706 7.86112 2.9231 0
M  V30 1366 H 195.012 9.11627 4.55076 0
M  V30 1367 H 194.822 9.9573 2.34194 0
M  V30 1368 H 193.192 9.2792 2.67832 0
M  V30 1369 H 195.831 4.67702 4.28772 0
M  V30 1370 P 197.688 7.39546 4.75277 0
M  V30 1371 O 199.11 7.81777 5.05738 0
M  V30 1372 O 197.328 7.1065 3.32998 0
M  V30 1373 O 197.365 6.04542 5.56673 0
M  V30 1374 C 197.205 6.22772 7.02095 0
M  V30 1375 C 197.745 4.97725 7.70406 0
M  V30 1376 O 196.689 4.13256 7.58987 0
M  V30 1377 C 198.963 4.28231 7.11815 0
M  V30 1378 O 199.701 3.49945 8.01648 0
M  V30 1379 C 198.294 3.5063 5.96244 0
M  V30 1380 O 199.093 2.36482 5.64681 0
M  V30 1381 C 196.957 3.15122 6.56374 0
M  V30 1382 H 196.989 2.13853 6.99751 0
M  V30 1383 H 198.172 4.13501 5.06559 0
M  V30 1384 H 199.656 5.03285 6.70911 0
M  V30 1385 H 197.962 5.20877 8.75697 0
M  V30 1386 H 197.772 7.11046 7.35349 0
M  V30 1387 H 196.142 6.35815 7.26986 0
M  V30 1388 H 198.781 1.61644 6.13565 0
M  V30 1389 P 200.639 3.65191 7.99657 0
M  V30 1390 O 202.061 3.8425 8.48115 0
M  V30 1391 O 200.279 4.17805 6.64342 0
M  V30 1392 O 200.316 2.07613 7.95143 0
M  V30 1393 C 200.156 1.44328 9.27336 0
M  V30 1394 C 200.696 0.0220036 9.17197 0
M  V30 1395 O 199.64 -0.626867 8.61923 0
M  V30 1396 C 201.914 -0.24586 8.30336 0
M  V30 1397 O 202.652 -1.39011 8.63583 0
M  V30 1398 C 201.245 -0.273849 6.91158 0
M  V30 1399 O 202.044 -1.06348 6.02892 0
M  V30 1400 C 199.908 -0.897649 7.22545 0
M  V30 1401 H 199.94 -1.9841 7.04286 0
M  V30 1402 H 201.123 0.739928 6.497 0
M  V30 1403 H 202.607 0.60668 8.36503 0
M  V30 1404 H 200.913 -0.352479 10.1829 0
M  V30 1405 H 200.723 2.00611 10.0304 0
M  V30 1406 H 199.093 1.41843 9.55327 0
M  V30 1407 H 201.732 -1.95734 6.03555 0
M  V30 1408 P 203.589 -1.25109 8.70152 0
M  V30 1409 O 205.01 -1.35288 9.2132 0
M  V30 1410 O 203.229 -0.0769065 7.84762 0
M  V30 1411 O 203.266 -2.55232 7.81161 0
M  V30 1412 C 203.105 -3.79979 8.58246 0
M  V30 1413 C 203.646 -4.94023 7.72785 0
M  V30 1414 O 202.591 -5.18666 6.91125 0
M  V30 1415 C 204.864 -4.69597 6.85231 0
M  V30 1416 O 205.602 -5.83832 6.51337 0
M  V30 1417 C 204.196 -3.96706 5.66633 0
M  V30 1418 O 204.994 -4.14896 4.5003 0
M  V30 1419 C 202.858 -4.66153 5.59313 0
M  V30 1420 N 201.815 -3.71582 5.24027 0
M  V30 1421 C 201.984 -2.39715 5.48833 0
M  V30 1422 N 200.957 -1.65863 5.12845 0
M  V30 1423 C 200.072 -2.57637 4.5973 0
M  V30 1424 C 198.805 -2.40278 4.01027 0
M  V30 1425 N 198.206 -1.19549 3.86744 0
M  V30 1426 N 198.24 -3.57711 3.59575 0
M  V30 1427 C 198.842 -4.80324 3.70476 0
M  V30 1428 N 200.019 -5.01121 4.23801 0
M  V30 1429 C 200.594 -3.84757 4.66372 0
M  V30 1430 H 202.89 -5.47604 4.85148 0
M  V30 1431 H 204.073 -2.8955 5.86187 0
M  V30 1432 H 205.556 -4.0121 7.36511 0
M  V30 1433 H 203.862 -5.81019 8.37003 0
M  V30 1434 H 203.672 -3.73517 9.52265 0
M  V30 1435 H 202.042 -3.97163 8.80359 0
M  V30 1436 H 198.306 -5.66348 3.3183 0
M  V30 1437 H 202.884 -1.98804 5.94332 0
M  V30 1438 H 197.276 -1.13147 3.4281 0
M  V30 1439 H 198.68 -0.344074 4.19692 0
M  V30 1440 H 204.682 -4.90891 4.01857 0
M  V30 1441 P 206.54 -5.75688 6.64379 0
M  V30 1442 O 207.962 -6.11849 7.01846 0
M  V30 1443 O 206.18 -4.30744 6.56026 0
M  V30 1444 O 206.217 -6.37042 5.19165 0
M  V30 1445 C 206.057 -7.83578 5.16515 0
M  V30 1446 C 206.597 -8.33398 3.83019 0
M  V30 1447 O 205.541 -8.10074 3.01034 0
M  V30 1448 C 207.815 -7.65514 3.2257 0
M  V30 1449 O 208.553 -8.4329 2.32297 0
M  V30 1450 C 207.146 -6.40075 2.62207 0
M  V30 1451 O 207.945 -5.92589 1.53712 0
M  V30 1452 C 205.809 -6.9454 2.18503 0
M  V30 1453 H 205.841 -7.23063 1.12091 0
M  V30 1454 H 207.024 -5.6025 3.37201 0
M  V30 1455 H 208.508 -7.35707 4.02681 0
M  V30 1456 H 206.814 -9.40912 3.9095 0
M  V30 1457 H 206.624 -8.29056 5.99158 0
M  V30 1458 H 204.994 -8.10073 5.25882 0
M  V30 1459 H 207.633 -6.30324 0.726794 0
M  V30 1460 P 209.49 -8.4349 2.47671 0
M  V30 1461 O 210.891 -8.98227 2.65696 0
M  V30 1462 O 209.112 -7.20409 3.23964 0
M  V30 1463 O 209.167 -8.16496 0.923275 0
M  V30 1464 C 209.007 -9.38437 0.108857 0
M  V30 1465 C 209.547 -9.08076 -1.28339 0
M  V30 1466 O 208.491 -8.44131 -1.84692 0
M  V30 1467 C 210.764 -8.18386 -1.42505 0
M  V30 1468 O 211.503 -8.3501 -2.60497 0
M  V30 1469 C 210.097 -6.80225 -1.25468 0
M  V30 1470 O 210.895 -5.81526 -1.91035 0
M  V30 1471 C 208.759 -7.02416 -1.9168 0
M  V30 1472 N 207.716 -6.31033 -1.20314 0
M  V30 1473 C 206.681 -5.77149 -1.928 0
M  V30 1474 O 206.72 -5.8521 -3.17729 0
M  V30 1475 N 205.669 -5.15445 -1.27997 0
M  V30 1476 C 205.717 -5.04472 0.0534726 0
M  V30 1477 N 204.707 -4.44183 0.669496 0
M  V30 1478 C 206.813 -5.55244 0.808522 0
M  V30 1479 C 207.779 -6.18542 0.13981 0
M  V30 1480 H 208.791 -6.68789 -2.9658 0
M  V30 1481 H 209.974 -6.53498 -0.198729 0
M  V30 1482 H 211.458 -8.36663 -0.5984 0
M  V30 1483 H 209.764 -10.0273 -1.8081 0
M  V30 1484 H 209.573 -10.2138 0.558219 0
M  V30 1485 H 207.943 -9.6569 0.0444156 0
M  V30 1486 H 206.861 -5.43017 1.88792 0
M  V30 1487 H 208.625 -6.60539 0.686773 0
M  V30 1488 H 203.917 -4.07222 0.12057 0
M  V30 1489 H 204.712 -4.34288 1.69244 0
M  V30 1490 H 210.679 -5.79638 -2.8315 0
M  V30 1491 P 212.441 -8.4349 -2.47671 0
M  V30 1492 O 213.863 -8.92593 -2.65 0
M  V30 1493 O 212.081 -7.7568 -1.19296 0
M  V30 1494 O 212.118 -7.36886 -3.63805 0
M  V30 1495 C 211.958 -7.95349 -4.982 0
M  V30 1496 C 212.498 -6.94612 -5.98974 0
M  V30 1497 O 211.442 -6.10347 -6.11815 0
M  V30 1498 C 213.716 -6.11426 -5.62335 0
M  V30 1499 O 214.454 -5.6162 -6.70584 0
M  V30 1500 C 213.047 -5.04409 -4.73308 0
M  V30 1501 O 213.846 -3.85992 -4.75183 0
M  V30 1502 C 211.71 -4.8728 -5.41006 0
M  V30 1503 H 211.742 -4.02333 -6.11157 0
M  V30 1504 H 212.925 -5.39466 -3.69543 0
M  V30 1505 H 214.409 -6.71916 -5.01943 0
M  V30 1506 H 212.715 -7.4649 -6.93477 0
M  V30 1507 H 212.525 -8.89416 -5.05237 0
M  V30 1508 H 210.895 -8.14876 -5.18409 0
M  V30 1509 H 213.534 -3.27957 -5.4317 0
M  V30 1510 P 215.392 -5.75688 -6.64379 0
M  V30 1511 O 216.814 -6.07627 -7.05504 0
M  V30 1512 O 215.032 -5.88047 -5.19722 0
M  V30 1513 O 215.069 -4.2322 -7.04443 0
M  V30 1514 C 214.909 -3.99743 -8.4911 0
M  V30 1515 C 215.449 -2.60516 -8.79425 0
M  V30 1516 O 214.393 -1.82684 -8.4467 0
M  V30 1517 C 216.667 -2.10343 -8.03628 0
M  V30 1518 O 217.405 -1.09919 -8.67766 0
M  V30 1519 C 215.998 -1.68446 -6.70876 0
M  V30 1520 O 216.797 -0.678137 -6.08433 0
M  V30 1521 C 214.661 -1.17436 -7.18567 0
M  V30 1522 H 214.693 -0.0804732 -7.31656 0
M  V30 1523 H 215.876 -2.54037 -6.02537 0
M  V30 1524 H 217.36 -2.93881 -7.85526 0
M  V30 1525 H 215.666 -2.53065 -9.86973 0
M  V30 1526 H 215.476 -4.75072 -9.05887 0
M  V30 1527 H 213.846 -4.05244 -8.76668 0
M  V30 1528 H 216.485 0.177647 -6.34251 0
M  V30 1529 P 218.342 -1.25109 -8.70152 0
M  V30 1530 O 219.764 -1.29744 -9.22016 0
M  V30 1531 O 217.982 -2.13714 -7.55141 0
M  V30 1532 O 218.019 0.248149 -8.21425 0
M  V30 1533 C 217.859 1.22779 -9.30434 0
M  V30 1534 C 218.399 2.56293 -8.80664 0
M  V30 1535 O 217.343 3.02979 -8.09349 0
M  V30 1536 C 219.617 2.57523 -7.89775 0
M  V30 1537 O 220.355 3.7668 -7.89438 0
M  V30 1538 C 218.948 2.20997 -6.55446 0
M  V30 1539 O 219.747 2.71895 -5.48509 0
M  V30 1540 C 217.611 2.89693 -6.67988 0
M  V30 1541 H 217.643 3.88793 -6.19859 0
M  V30 1542 H 218.826 1.12046 -6.44229 0
M  V30 1543 H 220.31 1.7746 -8.19711 0
M  V30 1544 H 218.616 3.20706 -9.67112 0
M  V30 1545 H 218.426 0.901032 -10.1892 0
M  V30 1546 H 216.796 1.33049 -9.56592 0
M  V30 1547 H 219.435 3.57847 -5.23962 0
M  V30 1548 P 221.293 3.65191 -7.99657 0
M  V30 1549 O 222.715 3.89332 -8.45794 0
M  V30 1550 O 220.933 2.28472 -7.50807 0
M  V30 1551 O 220.97 4.64972 -6.77611 0
M  V30 1552 C 220.81 6.06319 -7.16352 0
M  V30 1553 C 221.35 6.91731 -6.02299 0
M  V30 1554 O 220.294 6.92449 -5.17064 0
M  V30 1555 C 222.568 6.43627 -5.25174 0
M  V30 1556 O 223.306 7.43686 -4.60469 0
M  V30 1557 C 221.899 5.40275 -4.31916 0
M  V30 1558 O 222.698 5.25279 -3.14438 0
M  V30 1559 C 220.562 6.04847 -4.05327 0
M  V30 1560 H 220.594 6.62195 -3.11261 0
M  V30 1561 H 221.777 4.42556 -4.81383 0
M  V30 1562 H 223.261 5.92458 -5.93643 0
M  V30 1563 H 221.567 7.92655 -6.402 0
M  V30 1564 H 221.377 6.26671 -8.0846 0
M  V30 1565 H 219.747 6.29101 -7.32804 0
M  V30 1566 H 222.386 5.84315 -2.47318 0
M  V30 1567 P 224.243 7.39546 -4.75277 0
M  V30 1568 O 225.664 7.84882 -5.01092 0
M  V30 1569 O 223.883 5.9812 -5.08098 0
M  V30 1570 O 223.92 7.57503 -3.1866 0
M  V30 1571 C 223.759 8.97452 -2.74862 0
M  V30 1572 C 224.3 9.07548 -1.32709 0
M  V30 1573 O 223.245 8.61972 -0.606089 0
M  V30 1574 C 225.518 8.25383 -0.938334 0
M  V30 1575 O 226.256 8.74577 0.146954 0
M  V30 1576 C 224.85 6.8802 -0.712559 0
M  V30 1577 O 225.648 6.1181 0.188505 0
M  V30 1578 C 223.512 7.27966 -0.139777 0
M  V30 1579 N 222.469 6.39368 -0.623421 0
M  V30 1580 C 222.638 5.71761 -1.78245 0
M  V30 1581 N 221.611 4.962 -2.10491 0
M  V30 1582 C 220.726 5.16158 -1.0635 0
M  V30 1583 C 219.459 4.60425 -0.810266 0
M  V30 1584 N 218.894 5.06 0.348685 0
M  V30 1585 C 219.496 5.94532 1.20395 0
M  V30 1586 N 220.673 6.48452 1.01191 0
M  V30 1587 C 221.248 6.04423 -0.146291 0
M  V30 1588 H 224.727 6.32625 -1.65044 0
M  V30 1589 H 226.21 8.19355 -1.79097 0
M  V30 1590 H 224.516 10.1305 -1.09016 0
M  V30 1591 H 224.326 9.64276 -3.41316 0
M  V30 1592 H 222.696 9.25417 -2.76357 0
M  V30 1593 H 223.538 5.79354 -2.38959 0
M  V30 1594 H 225.336 6.25169 1.0783 0
M  V30 1595 P 227.194 8.791 4.22174e-13 0
M  V30 1596 O 228.616 9.31096 0.027933 0
M  V30 1597 O 226.834 7.77869 -1.04071 0
M  V30 1598 O 226.871 8.09533 1.41463 0
M  V30 1599 C 226.711 9.0349 2.53943 0
M  V30 1600 C 227.251 8.35226 3.79016 0
M  V30 1601 O 226.195 7.57992 4.15078 0
M  V30 1602 C 228.469 7.45087 3.67298 0
M  V30 1603 O 229.207 7.27796 4.85194 0
M  V30 1604 C 227.8 6.17323 3.12027 0
M  V30 1605 O 228.599 5.04231 3.47188 0
M  V30 1606 C 226.463 6.19961 3.81809 0
M  V30 1607 H 226.495 5.58218 4.73051 0
M  V30 1608 H 227.678 6.21726 2.02589 0
M  V30 1609 H 229.162 7.86112 2.9231 0
M  V30 1610 H 227.468 9.11627 4.55076 0
M  V30 1611 H 227.278 9.9573 2.34194 0
M  V30 1612 H 225.648 9.2792 2.67832 0
M  V30 1613 H 228.287 4.67702 4.28772 0
M  V30 1614 P 230.144 7.39546 4.75277 0
M  V30 1615 O 231.565 7.81861 5.05793 0
M  V30 1616 O 229.784 7.1065 3.32998 0
M  V30 1617 O 229.821 6.04542 5.56673 0
M  V30 1618 C 229.66 6.22839 7.02169 0
M  V30 1619 C 230.201 4.97725 7.70406 0
M  V30 1620 O 229.146 4.13208 7.58899 0
M  V30 1621 C 231.419 4.28231 7.11815 0
M  V30 1622 O 232.157 3.49945 8.01648 0
M  V30 1623 C 230.751 3.5063 5.96244 0
M  V30 1624 O 231.549 2.37008 5.64352 0
M  V30 1625 C 229.413 3.15122 6.56374 0
M  V30 1626 N 228.37 3.22311 5.55692 0
M  V30 1627 C 228.539 3.99655 4.46046 0
M  V30 1628 N 227.512 3.97599 3.63918 0
M  V30 1629 C 226.627 3.11159 4.25334 0
M  V30 1630 C 225.36 2.64972 3.85157 0
M  V30 1631 N 224.795 1.78482 4.74759 0
M  V30 1632 C 225.397 1.37463 5.90819 0
M  V30 1633 N 226.574 1.7733 6.31889 0
M  V30 1634 C 227.149 2.64393 5.43725 0
M  V30 1635 H 230.628 4.12931 5.06895 0
M  V30 1636 H 232.111 5.03285 6.70911 0
M  V30 1637 H 230.417 5.20001 8.76217 0
M  V30 1638 H 230.227 7.11046 7.35349 0
M  V30 1639 H 228.597 6.35815 7.26986 0
M  V30 1640 H 229.439 4.58037 4.27732 0
M  V30 1641 H 231.237 1.61619 6.13468 0
M  V30 1642 P 233.095 3.65191 7.99657 0
M  V30 1643 O 234.517 3.8425 8.48115 0
M  V30 1644 O 232.735 4.17805 6.64342 0
M  V30 1645 O 232.772 2.07613 7.95143 0
M  V30 1646 C 232.612 1.44328 9.27336 0
M  V30 1647 C 233.152 0.0220036 9.17197 0
M  V30 1648 O 232.096 -0.626867 8.61923 0
M  V30 1649 C 234.37 -0.24586 8.30336 0
M  V30 1650 O 235.108 -1.39011 8.63583 0
M  V30 1651 C 233.701 -0.273849 6.91158 0
M  V30 1652 O 234.5 -1.06348 6.02892 0
M  V30 1653 C 232.364 -0.897649 7.22545 0
M  V30 1654 H 232.396 -1.9841 7.04286 0
M  V30 1655 H 233.579 0.739928 6.497 0
M  V30 1656 H 235.063 0.60668 8.36503 0
M  V30 1657 H 233.369 -0.352479 10.1829 0
M  V30 1658 H 233.179 2.00611 10.0304 0
M  V30 1659 H 231.549 1.41843 9.55327 0
M  V30 1660 H 234.188 -1.95734 6.03555 0
M  V30 1661 P 236.046 -1.25109 8.70152 0
M  V30 1662 O 237.468 -1.35274 9.21221 0
M  V30 1663 O 235.686 -0.0769065 7.84762 0
M  V30 1664 O 235.723 -2.55232 7.81161 0
M  V30 1665 C 235.563 -3.79939 8.58154 0
M  V30 1666 C 236.103 -4.94023 7.72785 0
M  V30 1667 O 235.047 -5.18726 6.91205 0
M  V30 1668 C 237.321 -4.69597 6.85231 0
M  V30 1669 O 238.059 -5.83832 6.51337 0
M  V30 1670 C 236.652 -3.96706 5.66633 0
M  V30 1671 O 237.451 -4.15414 4.49689 0
M  V30 1672 C 235.315 -4.66153 5.59313 0
M  V30 1673 H 235.347 -5.47679 4.85214 0
M  V30 1674 H 236.53 -2.89008 5.86566 0
M  V30 1675 H 238.014 -4.0121 7.36511 0
M  V30 1676 H 236.32 -5.80182 8.37584 0
M  V30 1677 H 236.13 -3.73517 9.52265 0
M  V30 1678 H 234.5 -3.97163 8.80359 0
M  V30 1679 H 237.139 -4.90969 4.01921 0
M  V30 1680 P 238.996 -5.75688 6.64379 0
M  V30 1681 O 240.418 -6.11849 7.01846 0
M  V30 1682 O 238.636 -4.30744 6.56026 0
M  V30 1683 O 238.673 -6.37042 5.19165 0
M  V30 1684 C 238.513 -7.83578 5.16515 0
M  V30 1685 C 239.053 -8.33398 3.83019 0
M  V30 1686 O 237.997 -8.10074 3.01034 0
M  V30 1687 C 240.271 -7.65514 3.2257 0
M  V30 1688 O 241.009 -8.4329 2.32297 0
M  V30 1689 C 239.602 -6.40075 2.62207 0
M  V30 1690 O 240.401 -5.92589 1.53712 0
M  V30 1691 C 238.265 -6.9454 2.18503 0
M  V30 1692 H 238.297 -7.23063 1.12091 0
M  V30 1693 H 239.48 -5.6025 3.37201 0
M  V30 1694 H 240.964 -7.35707 4.02681 0
M  V30 1695 H 239.27 -9.40912 3.9095 0
M  V30 1696 H 239.08 -8.29056 5.99158 0
M  V30 1697 H 237.45 -8.10073 5.25882 0
M  V30 1698 H 240.089 -6.30324 0.726794 0
M  V30 1699 P 241.947 -8.4349 2.47671 0
M  V30 1700 O 243.369 -8.94167 2.5964 0
M  V30 1701 O 241.587 -7.1704 3.19006 0
M  V30 1702 O 241.624 -8.16596 0.923387 0
M  V30 1703 C 241.464 -9.38437 0.108857 0
M  V30 1704 C 242.004 -9.08175 -1.28353 0
M  V30 1705 O 240.948 -8.44229 -1.84713 0
M  V30 1706 C 243.222 -8.18386 -1.42505 0
M  V30 1707 O 243.96 -8.3501 -2.60497 0
M  V30 1708 C 242.553 -6.80225 -1.25468 0
M  V30 1709 O 243.352 -5.81621 -1.91066 0
M  V30 1710 C 241.216 -7.02416 -1.9168 0
M  V30 1711 H 241.248 -6.6888 -2.96621 0
M  V30 1712 H 242.431 -6.53617 -0.192223 0
M  V30 1713 H 243.915 -8.36622 -0.589963 0
M  V30 1714 H 242.221 -10.0291 -1.79807 0
M  V30 1715 H 242.031 -10.2138 0.558219 0
M  V30 1716 H 240.401 -9.6579 0.0444202 0
M  V30 1717 H 243.04 -5.69556 -2.79637 0
M  V30 1718 P 244.897 -8.4349 -2.47671 0
M  V30 1719 O 246.319 -8.92593 -2.65 0
M  V30 1720 O 244.537 -7.7568 -1.19296 0
M  V30 1721 O 244.574 -7.36886 -3.63805 0
M  V30 1722 C 244.414 -7.95349 -4.982 0
M  V30 1723 C 244.954 -6.94612 -5.98974 0
M  V30 1724 O 243.898 -6.10347 -6.11815 0
M  V30 1725 C 246.172 -6.11426 -5.62335 0
M  V30 1726 O 246.91 -5.6162 -6.70584 0
M  V30 1727 C 245.503 -5.04409 -4.73308 0
M  V30 1728 O 246.302 -3.85992 -4.75183 0
M  V30 1729 C 244.166 -4.8728 -5.41006 0
M  V30 1730 H 244.198 -4.02333 -6.11157 0
M  V30 1731 H 245.381 -5.39466 -3.69543 0
M  V30 1732 H 246.865 -6.71916 -5.01943 0
M  V30 1733 H 245.171 -7.4649 -6.93477 0
M  V30 1734 H 244.981 -8.89416 -5.05237 0
M  V30 1735 H 243.351 -8.14876 -5.18409 0
M  V30 1736 H 245.99 -3.27957 -5.4317 0
M  V30 1737 P 247.848 -5.75688 -6.64379 0
M  V30 1738 O 249.27 -6.07627 -7.05504 0
M  V30 1739 O 247.488 -5.88047 -5.19722 0
M  V30 1740 O 247.525 -4.2322 -7.04443 0
M  V30 1741 C 247.365 -3.99743 -8.4911 0
M  V30 1742 C 247.905 -2.60516 -8.79425 0
M  V30 1743 O 246.849 -1.82684 -8.4467 0
M  V30 1744 C 249.123 -2.10343 -8.03628 0
M  V30 1745 O 249.861 -1.09919 -8.67766 0
M  V30 1746 C 248.454 -1.68446 -6.70876 0
M  V30 1747 O 249.253 -0.678137 -6.08433 0
M  V30 1748 C 247.117 -1.17436 -7.18567 0
M  V30 1749 H 247.149 -0.0804732 -7.31656 0
M  V30 1750 H 248.332 -2.54037 -6.02537 0
M  V30 1751 H 249.816 -2.93881 -7.85526 0
M  V30 1752 H 248.122 -2.53065 -9.86973 0
M  V30 1753 H 247.932 -4.75072 -9.05887 0
M  V30 1754 H 246.302 -4.05244 -8.76668 0
M  V30 1755 H 248.941 0.177647 -6.34251 0
M  V30 1756 P 250.798 -1.25109 -8.70152 0
M  V30 1757 O 252.22 -1.29744 -9.22016 0
M  V30 1758 O 250.438 -2.13714 -7.55141 0
M  V30 1759 O 250.475 0.248149 -8.21425 0
M  V30 1760 C 250.315 1.22779 -9.30434 0
M  V30 1761 C 250.855 2.56293 -8.80664 0
M  V30 1762 O 249.799 3.02979 -8.09349 0
M  V30 1763 C 252.073 2.57523 -7.89775 0
M  V30 1764 O 252.811 3.7668 -7.89438 0
M  V30 1765 C 251.404 2.20997 -6.55446 0
M  V30 1766 O 252.203 2.71895 -5.48509 0
M  V30 1767 C 250.067 2.89693 -6.67988 0
M  V30 1768 H 250.099 3.88793 -6.19859 0
M  V30 1769 H 251.282 1.12046 -6.44229 0
M  V30 1770 H 252.766 1.7746 -8.19711 0
M  V30 1771 H 251.072 3.20706 -9.67112 0
M  V30 1772 H 250.882 0.901032 -10.1892 0
M  V30 1773 H 249.252 1.33049 -9.56592 0
M  V30 1774 H 251.891 3.57847 -5.23962 0
M  V30 1775 P 253.749 3.65191 -7.99657 0
M  V30 1776 O 255.171 3.89332 -8.45794 0
M  V30 1777 O 253.389 2.28472 -7.50807 0
M  V30 1778 O 253.426 4.64972 -6.77611 0
M  V30 1779 C 253.266 6.06319 -7.16352 0
M  V30 1780 C 253.806 6.91731 -6.02299 0
M  V30 1781 O 252.75 6.92449 -5.17064 0
M  V30 1782 C 255.024 6.43627 -5.25174 0
M  V30 1783 O 255.762 7.43686 -4.60469 0
M  V30 1784 C 254.355 5.40275 -4.31916 0
M  V30 1785 O 255.154 5.25279 -3.14438 0
M  V30 1786 C 253.018 6.04847 -4.05327 0
M  V30 1787 H 253.05 6.62195 -3.11261 0
M  V30 1788 H 254.233 4.42556 -4.81383 0
M  V30 1789 H 255.717 5.92458 -5.93643 0
M  V30 1790 H 254.023 7.92655 -6.402 0
M  V30 1791 H 253.833 6.26671 -8.0846 0
M  V30 1792 H 252.203 6.29101 -7.32804 0
M  V30 1793 H 254.842 5.84315 -2.47318 0
M  V30 1794 P 256.7 7.39546 -4.75277 0
M  V30 1795 O 258.122 7.84798 -5.01039 0
M  V30 1796 O 256.34 5.9812 -5.08098 0
M  V30 1797 O 256.377 7.57503 -3.1866 0
M  V30 1798 C 256.217 8.97357 -2.74833 0
M  V30 1799 C 256.757 9.07548 -1.32709 0
M  V30 1800 O 255.701 8.62072 -0.606159 0
M  V30 1801 C 257.975 8.25383 -0.938334 0
M  V30 1802 O 258.713 8.74577 0.146954 0
M  V30 1803 C 257.306 6.8802 -0.712559 0
M  V30 1804 O 258.105 6.1189 0.194655 0
M  V30 1805 C 255.969 7.27966 -0.139777 0
M  V30 1806 H 256.001 7.25354 0.961601 0
M  V30 1807 H 257.184 6.32557 -1.65702 0
M  V30 1808 H 258.668 8.19355 -1.79097 0
M  V30 1809 H 256.974 10.1294 -1.10029 0
M  V30 1810 H 256.784 9.64276 -3.41316 0
M  V30 1811 H 255.154 9.25417 -2.76357 0
M  V30 1812 H 257.793 6.25267 1.07847 0
M  V30 1813 P 259.65 8.791 7.3234e-13 0
M  V30 1814 O 261.072 9.31096 0.027933 0
M  V30 1815 O 259.29 7.77869 -1.04071 0
M  V30 1816 O 259.327 8.09533 1.41463 0
M  V30 1817 C 259.167 9.0349 2.53943 0
M  V30 1818 C 259.707 8.35226 3.79016 0
M  V30 1819 O 258.651 7.57992 4.15078 0
M  V30 1820 C 260.925 7.45087 3.67298 0
M  V30 1821 O 261.663 7.27796 4.85194 0
M  V30 1822 C 260.256 6.17323 3.12027 0
M  V30 1823 O 261.055 5.04231 3.47188 0
M  V30 1824 C 258.919 6.19961 3.81809 0
M  V30 1825 H 258.951 5.58218 4.73051 0
M  V30 1826 H 260.134 6.21726 2.02589 0
M  V30 1827 H 261.618 7.86112 2.9231 0
M  V30 1828 H 259.924 9.11627 4.55076 0
M  V30 1829 H 259.734 9.9573 2.34194 0
M  V30 1830 H 258.104 9.2792 2.67832 0
M  V30 1831 H 260.743 4.67702 4.28772 0
M  V30 1832 P 262.601 7.39546 4.75277 0
M  V30 1833 O 264.023 7.81777 5.05738 0
M  V30 1834 O 262.241 7.1065 3.32998 0
M  V30 1835 O 262.278 6.04542 5.56673 0
M  V30 1836 C 262.118 6.22772 7.02095 0
M  V30 1837 C 262.658 4.97725 7.70406 0
M  V30 1838 O 261.602 4.13256 7.58987 0
M  V30 1839 C 263.876 4.28231 7.11815 0
M  V30 1840 O 264.614 3.49945 8.01648 0
M  V30 1841 C 263.207 3.5063 5.96244 0
M  V30 1842 O 264.006 2.36482 5.64681 0
M  V30 1843 C 261.87 3.15122 6.56374 0
M  V30 1844 H 261.902 2.13853 6.99751 0
M  V30 1845 H 263.085 4.13501 5.06559 0
M  V30 1846 H 264.569 5.03285 6.70911 0
M  V30 1847 H 262.875 5.20877 8.75697 0
M  V30 1848 H 262.685 7.11046 7.35349 0
M  V30 1849 H 261.055 6.35815 7.26986 0
M  V30 1850 H 263.694 1.61644 6.13565 0
M  V30 1851 P 265.551 3.65191 7.99657 0
M  V30 1852 O 266.973 3.8425 8.48115 0
M  V30 1853 O 265.191 4.17805 6.64342 0
M  V30 1854 O 265.228 2.07613 7.95143 0
M  V30 1855 C 265.068 1.44328 9.27336 0
M  V30 1856 C 265.608 0.0220036 9.17197 0
M  V30 1857 O 264.552 -0.626867 8.61923 0
M  V30 1858 C 266.826 -0.24586 8.30336 0
M  V30 1859 O 267.564 -1.39011 8.63583 0
M  V30 1860 C 266.157 -0.273849 6.91158 0
M  V30 1861 O 266.956 -1.06348 6.02892 0
M  V30 1862 C 264.82 -0.897649 7.22545 0
M  V30 1863 H 264.852 -1.9841 7.04286 0
M  V30 1864 H 266.035 0.739928 6.497 0
M  V30 1865 H 267.519 0.60668 8.36503 0
M  V30 1866 H 265.825 -0.352479 10.1829 0
M  V30 1867 H 265.635 2.00611 10.0304 0
M  V30 1868 H 264.005 1.41843 9.55327 0
M  V30 1869 H 266.644 -1.95734 6.03555 0
M  V30 1870 P 268.502 -1.25109 8.70152 0
M  V30 1871 O 269.903 -1.31452 9.27431 0
M  V30 1872 O 268.124 -0.0458113 7.89887 0
M  V30 1873 O 268.179 -2.55201 7.81066 0
M  V30 1874 C 268.019 -3.79939 8.58154 0
M  V30 1875 C 268.559 -4.93969 7.72701 0
M  V30 1876 O 267.503 -5.18666 6.91125 0
M  V30 1877 C 269.776 -4.69597 6.85231 0
M  V30 1878 O 270.515 -5.83832 6.51337 0
M  V30 1879 C 269.109 -3.96706 5.66633 0
M  V30 1880 O 269.907 -4.15346 4.49615 0
M  V30 1881 C 267.771 -4.66153 5.59313 0
M  V30 1882 N 266.728 -3.71582 5.24027 0
M  V30 1883 C 265.693 -4.15133 4.44901 0
M  V30 1884 O 265.732 -5.32122 4.00336 0
M  V30 1885 N 264.681 -3.30554 4.15693 0
M  V30 1886 C 264.729 -2.04701 4.61105 0
M  V30 1887 C 265.825 -1.57111 5.38655 0
M  V30 1888 C 266.791 -2.44234 5.68454 0
M  V30 1889 H 267.803 -5.47604 4.85148 0
M  V30 1890 H 268.986 -2.8955 5.86187 0
M  V30 1891 H 270.47 -4.01995 7.36197 0
M  V30 1892 H 268.776 -5.81019 8.37003 0
M  V30 1893 H 268.585 -3.73517 9.52265 0
M  V30 1894 H 266.955 -3.97122 8.80267 0
M  V30 1895 H 265.873 -0.538464 5.72373 0
M  V30 1896 H 267.637 -2.11927 6.29377 0
M  V30 1897 H 269.691 -4.98352 4.09633 0
M  V30 1898 P 271.452 -5.75688 6.64379 0
M  V30 1899 O 272.853 -6.11991 7.09136 0
M  V30 1900 O 271.074 -4.30899 6.62018 0
M  V30 1901 O 271.129 -6.36965 5.19102 0
M  V30 1902 C 270.969 -7.83578 5.16515 0
M  V30 1903 C 271.509 -8.33307 3.82977 0
M  V30 1904 O 270.453 -8.0998 3.00999 0
M  V30 1905 C 272.726 -7.65514 3.2257 0
M  V30 1906 O 273.465 -8.4329 2.32297 0
M  V30 1907 C 272.059 -6.40075 2.62207 0
M  V30 1908 O 272.857 -5.92492 1.53687 0
M  V30 1909 C 270.721 -6.9454 2.18503 0
M  V30 1910 N 269.678 -5.95905 2.39948 0
M  V30 1911 C 268.643 -5.89764 1.49837 0
M  V30 1912 O 268.682 -6.64088 0.490975 0
M  V30 1913 N 267.631 -5.02821 1.70992 0
M  V30 1914 C 267.679 -4.21498 2.77236 0
M  V30 1915 C 268.775 -4.23389 3.68205 0
M  V30 1916 C 269.741 -5.12792 3.46171 0
M  V30 1917 H 270.753 -7.22964 1.12076 0
M  V30 1918 H 271.936 -5.60502 3.36589 0
M  V30 1919 H 273.42 -7.36197 4.01993 0
M  V30 1920 H 271.726 -9.41302 3.90009 0
M  V30 1921 H 271.535 -8.29056 5.99158 0
M  V30 1922 H 269.905 -8.09989 5.25828 0
M  V30 1923 H 268.823 -3.54747 4.52399 0
M  V30 1924 H 270.587 -5.18551 4.1489 0
M  V30 1925 H 272.641 -6.40705 0.751752 0
M  V30 1926 P 274.403 -8.4349 2.47671 0
M  V30 1927 O 275.825 -8.94167 2.5964 0
M  V30 1928 O 274.043 -7.1704 3.19006 0
M  V30 1929 O 274.08 -8.16596 0.923387 0
M  V30 1930 C 273.92 -9.38437 0.108857 0
M  V30 1931 C 274.46 -9.08175 -1.28353 0
M  V30 1932 O 273.404 -8.44229 -1.84713 0
M  V30 1933 C 275.678 -8.18386 -1.42505 0
M  V30 1934 O 276.416 -8.3501 -2.60497 0
M  V30 1935 C 275.009 -6.80225 -1.25468 0
M  V30 1936 O 275.808 -5.81621 -1.91066 0
M  V30 1937 C 273.672 -7.02416 -1.9168 0
M  V30 1938 H 273.704 -6.6888 -2.96621 0
M  V30 1939 H 274.887 -6.53617 -0.192223 0
M  V30 1940 H 276.371 -8.36622 -0.589963 0
M  V30 1941 H 274.677 -10.0291 -1.79807 0
M  V30 1942 H 274.487 -10.2138 0.558219 0
M  V30 1943 H 272.857 -9.6579 0.0444202 0
M  V30 1944 H 275.496 -5.69556 -2.79637 0
M  V30 1945 P 277.354 -8.4349 -2.47671 0
M  V30 1946 O 278.776 -8.92785 -2.65057 0
M  V30 1947 O 276.994 -7.7568 -1.19296 0
M  V30 1948 O 277.031 -7.36886 -3.63805 0
M  V30 1949 C 276.871 -7.95349 -4.982 0
M  V30 1950 C 277.411 -6.94537 -5.98908 0
M  V30 1951 O 276.356 -6.10347 -6.11815 0
M  V30 1952 C 278.629 -6.11426 -5.62335 0
M  V30 1953 O 279.367 -5.6162 -6.70584 0
M  V30 1954 C 277.961 -5.04409 -4.73308 0
M  V30 1955 O 278.759 -3.85929 -4.75106 0
M  V30 1956 C 276.623 -4.8728 -5.41006 0
M  V30 1957 N 275.58 -4.65812 -4.42377 0
M  V30 1958 C 275.642 -5.27109 -3.24335 0
M  V30 1959 N 274.597 -4.94293 -2.47735 0
M  V30 1960 C 273.863 -4.1271 -3.23359 0
M  V30 1961 C 272.557 -3.56384 -2.99934 0
M  V30 1962 O 271.824 -3.69331 -2.00616 0
M  V30 1963 N 272.127 -2.80206 -4.03316 0
M  V30 1964 C 272.876 -2.58614 -5.2172 0
M  V30 1965 N 272.279 -1.75154 -6.13278 0
M  V30 1966 N 274.029 -3.13689 -5.47619 0
M  V30 1967 C 274.486 -3.90921 -4.46436 0
M  V30 1968 H 276.655 -4.02333 -6.11157 0
M  V30 1969 H 277.838 -5.39383 -3.69487 0
M  V30 1970 H 279.323 -6.71414 -5.02615 0
M  V30 1971 H 277.628 -7.4649 -6.93477 0
M  V30 1972 H 277.438 -8.89416 -5.05237 0
M  V30 1973 H 275.807 -8.14876 -5.18409 0
M  V30 1974 H 271.231 -2.36355 -3.95916 0
M  V30 1975 H 276.438 -5.95212 -2.93859 0
M  V30 1976 H 271.368 -1.32473 -5.91856 0
M  V30 1977 H 272.744 -1.5588 -7.03026 0
M  V30 1978 H 278.448 -3.27906 -5.43085 0
M  V30 1979 P 280.304 -5.75688 -6.64379 0
M  V30 1980 O 281.726 -6.07627 -7.05504 0
M  V30 1981 O 279.944 -5.88047 -5.19722 0
M  V30 1982 O 279.981 -4.2322 -7.04443 0
M  V30 1983 C 279.821 -3.99743 -8.4911 0
M  V30 1984 C 280.361 -2.60516 -8.79425 0
M  V30 1985 O 279.305 -1.82684 -8.4467 0
M  V30 1986 C 281.579 -2.10343 -8.03628 0
M  V30 1987 O 282.317 -1.09919 -8.67766 0
M  V30 1988 C 280.91 -1.68446 -6.70876 0
M  V30 1989 O 281.709 -0.678137 -6.08433 0
M  V30 1990 C 279.573 -1.17436 -7.18567 0
M  V30 1991 H 279.605 -0.0804732 -7.31656 0
M  V30 1992 H 280.788 -2.54037 -6.02537 0
M  V30 1993 H 282.272 -2.93881 -7.85526 0
M  V30 1994 H 280.578 -2.53065 -9.86973 0
M  V30 1995 H 280.388 -4.75072 -9.05887 0
M  V30 1996 H 278.758 -4.05244 -8.76668 0
M  V30 1997 H 281.397 0.177647 -6.34251 0
M  V30 1998 P 283.255 -1.25109 -8.70152 0
M  V30 1999 O 284.677 -1.29744 -9.22016 0
M  V30 2000 O 282.895 -2.13714 -7.55141 0
M  V30 2001 O 282.932 0.248149 -8.21425 0
M  V30 2002 C 282.772 1.22779 -9.30434 0
M  V30 2003 C 283.312 2.56293 -8.80664 0
M  V30 2004 O 282.256 3.02979 -8.09349 0
M  V30 2005 C 284.53 2.57523 -7.89775 0
M  V30 2006 O 285.268 3.7668 -7.89438 0
M  V30 2007 C 283.861 2.20997 -6.55446 0
M  V30 2008 O 284.66 2.71895 -5.48509 0
M  V30 2009 C 282.524 2.89693 -6.67988 0
M  V30 2010 H 282.556 3.88793 -6.19859 0
M  V30 2011 H 283.739 1.12046 -6.44229 0
M  V30 2012 H 285.223 1.7746 -8.19711 0
M  V30 2013 H 283.529 3.20706 -9.67112 0
M  V30 2014 H 283.339 0.901032 -10.1892 0
M  V30 2015 H 281.709 1.33049 -9.56592 0
M  V30 2016 H 284.348 3.57847 -5.23962 0
M  V30 2017 P 286.205 3.65191 -7.99657 0
M  V30 2018 O 287.627 3.89332 -8.45794 0
M  V30 2019 O 285.845 2.28472 -7.50807 0
M  V30 2020 O 285.882 4.64972 -6.77611 0
M  V30 2021 C 285.722 6.06319 -7.16352 0
M  V30 2022 C 286.262 6.91731 -6.02299 0
M  V30 2023 O 285.206 6.92449 -5.17064 0
M  V30 2024 C 287.48 6.43627 -5.25174 0
M  V30 2025 O 288.218 7.43686 -4.60469 0
M  V30 2026 C 286.811 5.40275 -4.31916 0
M  V30 2027 O 287.61 5.25279 -3.14438 0
M  V30 2028 C 285.474 6.04847 -4.05327 0
M  V30 2029 H 285.506 6.62195 -3.11261 0
M  V30 2030 H 286.689 4.42556 -4.81383 0
M  V30 2031 H 288.173 5.92458 -5.93643 0
M  V30 2032 H 286.479 7.92655 -6.402 0
M  V30 2033 H 286.289 6.26671 -8.0846 0
M  V30 2034 H 284.659 6.29101 -7.32804 0
M  V30 2035 H 287.298 5.84315 -2.47318 0
M  V30 2036 P 289.156 7.39546 -4.75277 0
M  V30 2037 O 290.578 7.84798 -5.01039 0
M  V30 2038 O 288.796 5.9812 -5.08098 0
M  V30 2039 O 288.833 7.57503 -3.1866 0
M  V30 2040 C 288.673 8.97357 -2.74833 0
M  V30 2041 C 289.213 9.07548 -1.32709 0
M  V30 2042 O 288.157 8.62072 -0.606159 0
M  V30 2043 C 290.431 8.25383 -0.938334 0
M  V30 2044 O 291.169 8.74577 0.146954 0
M  V30 2045 C 289.762 6.8802 -0.712559 0
M  V30 2046 O 290.561 6.1189 0.194655 0
M  V30 2047 C 288.425 7.27966 -0.139777 0
M  V30 2048 H 288.457 7.25354 0.961601 0
M  V30 2049 H 289.64 6.32557 -1.65702 0
M  V30 2050 H 291.124 8.19355 -1.79097 0
M  V30 2051 H 289.43 10.1294 -1.10029 0
M  V30 2052 H 289.24 9.64276 -3.41316 0
M  V30 2053 H 287.61 9.25417 -2.76357 0
M  V30 2054 H 290.249 6.25267 1.07847 0
M  V30 2055 P 292.106 8.791 1.04251e-12 0
M  V30 2056 O 293.528 9.31096 0.027933 0
M  V30 2057 O 291.746 7.77869 -1.04071 0
M  V30 2058 O 291.783 8.09533 1.41463 0
M  V30 2059 C 291.623 9.0349 2.53943 0
M  V30 2060 C 292.163 8.35226 3.79016 0
M  V30 2061 O 291.107 7.57992 4.15078 0
M  V30 2062 C 293.381 7.45087 3.67298 0
M  V30 2063 O 294.119 7.27796 4.85194 0
M  V30 2064 C 292.712 6.17323 3.12027 0
M  V30 2065 O 293.511 5.04231 3.47188 0
M  V30 2066 C 291.375 6.19961 3.81809 0
M  V30 2067 H 291.407 5.58218 4.73051 0
M  V30 2068 H 292.59 6.21726 2.02589 0
M  V30 2069 H 294.074 7.86112 2.9231 0
M  V30 2070 H 292.38 9.11627 4.55076 0
M  V30 2071 H 292.19 9.9573 2.34194 0
M  V30 2072 H 290.56 9.2792 2.67832 0
M  V30 2073 H 293.199 4.67702 4.28772 0
M  V30 2074 P 295.057 7.39546 4.75277 0
M  V30 2075 O 296.479 7.81777 5.05738 0
M  V30 2076 O 294.697 7.1065 3.32998 0
M  V30 2077 O 294.734 6.04542 5.56673 0
M  V30 2078 C 294.574 6.22772 7.02095 0
M  V30 2079 C 295.114 4.97725 7.70406 0
M  V30 2080 O 294.058 4.13256 7.58987 0
M  V30 2081 C 296.332 4.28231 7.11815 0
M  V30 2082 O 297.07 3.49945 8.01648 0
M  V30 2083 C 295.663 3.5063 5.96244 0
M  V30 2084 O 296.462 2.36482 5.64681 0
M  V30 2085 C 294.326 3.15122 6.56374 0
M  V30 2086 H 294.358 2.13853 6.99751 0
M  V30 2087 H 295.541 4.13501 5.06559 0
M  V30 2088 H 297.025 5.03285 6.70911 0
M  V30 2089 H 295.331 5.20877 8.75697 0
M  V30 2090 H 295.141 7.11046 7.35349 0
M  V30 2091 H 293.511 6.35815 7.26986 0
M  V30 2092 H 296.15 1.61644 6.13565 0
M  V30 2093 P 298.008 3.65191 7.99657 0
M  V30 2094 O 299.43 3.8425 8.48115 0
M  V30 2095 O 297.648 4.17805 6.64342 0
M  V30 2096 O 297.685 2.07613 7.95143 0
M  V30 2097 C 297.525 1.44328 9.27336 0
M  V30 2098 C 298.065 0.0220036 9.17197 0
M  V30 2099 O 297.009 -0.626867 8.61923 0
M  V30 2100 C 299.283 -0.24586 8.30336 0
M  V30 2101 O 300.021 -1.39011 8.63583 0
M  V30 2102 C 298.614 -0.273849 6.91158 0
M  V30 2103 O 299.413 -1.06348 6.02892 0
M  V30 2104 C 297.277 -0.897649 7.22545 0
M  V30 2105 H 297.309 -1.9841 7.04286 0
M  V30 2106 H 298.492 0.739928 6.497 0
M  V30 2107 H 299.976 0.60668 8.36503 0
M  V30 2108 H 298.282 -0.352479 10.1829 0
M  V30 2109 H 298.092 2.00611 10.0304 0
M  V30 2110 H 296.462 1.41843 9.55327 0
M  V30 2111 H 299.101 -1.95734 6.03555 0
M  V30 2112 P 300.958 -1.25109 8.70152 0
M  V30 2113 O 302.38 -1.35274 9.21221 0
M  V30 2114 O 300.598 -0.0769065 7.84762 0
M  V30 2115 O 300.635 -2.55232 7.81161 0
M  V30 2116 C 300.475 -3.79939 8.58154 0
M  V30 2117 C 301.015 -4.94023 7.72785 0
M  V30 2118 O 299.959 -5.18726 6.91205 0
M  V30 2119 C 302.233 -4.69597 6.85231 0
M  V30 2120 O 302.971 -5.83832 6.51337 0
M  V30 2121 C 301.564 -3.96706 5.66633 0
M  V30 2122 O 302.363 -4.15414 4.49689 0
M  V30 2123 C 300.227 -4.66153 5.59313 0
M  V30 2124 H 300.259 -5.47679 4.85214 0
M  V30 2125 H 301.442 -2.89008 5.86566 0
M  V30 2126 H 302.926 -4.0121 7.36511 0
M  V30 2127 H 301.232 -5.80182 8.37584 0
M  V30 2128 H 301.042 -3.73517 9.52265 0
M  V30 2129 H 299.412 -3.97163 8.80359 0
M  V30 2130 H 302.051 -4.90969 4.01921 0
M  V30 2131 P 303.909 -5.75688 6.64379 0
M  V30 2132 O 305.331 -6.11849 7.01846 0
M  V30 2133 O 303.549 -4.30744 6.56026 0
M  V30 2134 O 303.586 -6.37042 5.19165 0
M  V30 2135 C 303.426 -7.83578 5.16515 0
M  V30 2136 C 303.966 -8.33398 3.83019 0
M  V30 2137 O 302.91 -8.10074 3.01034 0
M  V30 2138 C 305.184 -7.65514 3.2257 0
M  V30 2139 O 305.922 -8.4329 2.32297 0
M  V30 2140 C 304.515 -6.40075 2.62207 0
M  V30 2141 O 305.314 -5.92589 1.53712 0
M  V30 2142 C 303.178 -6.9454 2.18503 0
M  V30 2143 H 303.21 -7.23063 1.12091 0
M  V30 2144 H 304.393 -5.6025 3.37201 0
M  V30 2145 H 305.877 -7.35707 4.02681 0
M  V30 2146 H 304.183 -9.40912 3.9095 0
M  V30 2147 H 303.993 -8.29056 5.99158 0
M  V30 2148 H 302.363 -8.10073 5.25882 0
M  V30 2149 H 305.002 -6.30324 0.726794 0
M  V30 2150 P 306.859 -8.4349 2.47671 0
M  V30 2151 O 308.281 -8.94167 2.5964 0
M  V30 2152 O 306.499 -7.1704 3.19006 0
M  V30 2153 O 306.536 -8.16596 0.923387 0
M  V30 2154 C 306.376 -9.38437 0.108857 0
M  V30 2155 C 306.916 -9.08175 -1.28353 0
M  V30 2156 O 305.86 -8.44229 -1.84713 0
M  V30 2157 C 308.134 -8.18386 -1.42505 0
M  V30 2158 O 308.872 -8.3501 -2.60497 0
M  V30 2159 C 307.465 -6.80225 -1.25468 0
M  V30 2160 O 308.264 -5.81621 -1.91066 0
M  V30 2161 C 306.128 -7.02416 -1.9168 0
M  V30 2162 H 306.16 -6.6888 -2.96621 0
M  V30 2163 H 307.343 -6.53617 -0.192223 0
M  V30 2164 H 308.827 -8.36622 -0.589963 0
M  V30 2165 H 307.133 -10.0291 -1.79807 0
M  V30 2166 H 306.943 -10.2138 0.558219 0
M  V30 2167 H 305.313 -9.6579 0.0444202 0
M  V30 2168 H 307.952 -5.69556 -2.79637 0
M  V30 2169 P 309.81 -8.4349 -2.47671 0
M  V30 2170 O 311.232 -8.92593 -2.65 0
M  V30 2171 O 309.45 -7.7568 -1.19296 0
M  V30 2172 O 309.487 -7.36886 -3.63805 0
M  V30 2173 C 309.327 -7.95349 -4.982 0
M  V30 2174 C 309.867 -6.94612 -5.98974 0
M  V30 2175 O 308.811 -6.10347 -6.11815 0
M  V30 2176 C 311.085 -6.11426 -5.62335 0
M  V30 2177 O 311.823 -5.6162 -6.70584 0
M  V30 2178 C 310.416 -5.04409 -4.73308 0
M  V30 2179 O 311.215 -3.85992 -4.75183 0
M  V30 2180 C 309.079 -4.8728 -5.41006 0
M  V30 2181 H 309.111 -4.02333 -6.11157 0
M  V30 2182 H 310.294 -5.39466 -3.69543 0
M  V30 2183 H 311.778 -6.71916 -5.01943 0
M  V30 2184 H 310.084 -7.4649 -6.93477 0
M  V30 2185 H 309.894 -8.89416 -5.05237 0
M  V30 2186 H 308.264 -8.14876 -5.18409 0
M  V30 2187 H 310.903 -3.27957 -5.4317 0
M  V30 2188 P 312.76 -5.75688 -6.64379 0
M  V30 2189 O 314.182 -6.07627 -7.05504 0
M  V30 2190 O 312.4 -5.88047 -5.19722 0
M  V30 2191 O 312.437 -4.2322 -7.04443 0
M  V30 2192 C 312.277 -3.99743 -8.4911 0
M  V30 2193 C 312.817 -2.60516 -8.79425 0
M  V30 2194 O 311.761 -1.82684 -8.4467 0
M  V30 2195 C 314.035 -2.10343 -8.03628 0
M  V30 2196 O 314.773 -1.09919 -8.67766 0
M  V30 2197 C 313.366 -1.68446 -6.70876 0
M  V30 2198 O 314.165 -0.678137 -6.08433 0
M  V30 2199 C 312.029 -1.17436 -7.18567 0
M  V30 2200 H 312.061 -0.0804732 -7.31656 0
M  V30 2201 H 313.244 -2.54037 -6.02537 0
M  V30 2202 H 314.728 -2.93881 -7.85526 0
M  V30 2203 H 313.034 -2.53065 -9.86973 0
M  V30 2204 H 312.844 -4.75072 -9.05887 0
M  V30 2205 H 311.214 -4.05244 -8.76668 0
M  V30 2206 H 313.853 0.177647 -6.34251 0
M  V30 2207 P 315.711 -1.25109 -8.70152 0
M  V30 2208 O 317.133 -1.29744 -9.22016 0
M  V30 2209 O 315.351 -2.13714 -7.55141 0
M  V30 2210 O 315.388 0.248149 -8.21425 0
M  V30 2211 C 315.228 1.22779 -9.30434 0
M  V30 2212 C 315.768 2.56293 -8.80664 0
M  V30 2213 O 314.712 3.02979 -8.09349 0
M  V30 2214 C 316.986 2.57523 -7.89775 0
M  V30 2215 O 317.724 3.7668 -7.89438 0
M  V30 2216 C 316.317 2.20997 -6.55446 0
M  V30 2217 O 317.116 2.71895 -5.48509 0
M  V30 2218 C 314.98 2.89693 -6.67988 0
M  V30 2219 H 315.012 3.88793 -6.19859 0
M  V30 2220 H 316.195 1.12046 -6.44229 0
M  V30 2221 H 317.679 1.7746 -8.19711 0
M  V30 2222 H 315.985 3.20706 -9.67112 0
M  V30 2223 H 315.795 0.901032 -10.1892 0
M  V30 2224 H 314.165 1.33049 -9.56592 0
M  V30 2225 H 316.804 3.57847 -5.23962 0
M  V30 2226 P 318.662 3.65191 -7.99657 0
M  V30 2227 O 320.084 3.89332 -8.45794 0
M  V30 2228 O 318.302 2.28472 -7.50807 0
M  V30 2229 O 318.339 4.64972 -6.77611 0
M  V30 2230 C 318.179 6.06319 -7.16352 0
M  V30 2231 C 318.719 6.91731 -6.02299 0
M  V30 2232 O 317.663 6.92449 -5.17064 0
M  V30 2233 C 319.937 6.43627 -5.25174 0
M  V30 2234 O 320.675 7.43686 -4.60469 0
M  V30 2235 C 319.268 5.40275 -4.31916 0
M  V30 2236 O 320.067 5.25279 -3.14438 0
M  V30 2237 C 317.931 6.04847 -4.05327 0
M  V30 2238 H 317.963 6.62195 -3.11261 0
M  V30 2239 H 319.146 4.42556 -4.81383 0
M  V30 2240 H 320.63 5.92458 -5.93643 0
M  V30 2241 H 318.936 7.92655 -6.402 0
M  V30 2242 H 318.746 6.26671 -8.0846 0
M  V30 2243 H 317.116 6.29101 -7.32804 0
M  V30 2244 H 319.755 5.84315 -2.47318 0
M  V30 2245 P 321.612 7.39546 -4.75277 0
M  V30 2246 O 323.034 7.84798 -5.01039 0
M  V30 2247 O 321.252 5.9812 -5.08098 0
M  V30 2248 O 321.289 7.57503 -3.1866 0
M  V30 2249 C 321.129 8.97357 -2.74833 0
M  V30 2250 C 321.669 9.07548 -1.32709 0
M  V30 2251 O 320.613 8.62072 -0.606159 0
M  V30 2252 C 322.887 8.25383 -0.938334 0
M  V30 2253 O 323.625 8.74577 0.146954 0
M  V30 2254 C 322.218 6.8802 -0.712559 0
M  V30 2255 O 323.017 6.1189 0.194655 0
M  V30 2256 C 320.881 7.27966 -0.139777 0
M  V30 2257 H 320.913 7.25354 0.961601 0
M  V30 2258 H 322.096 6.32557 -1.65702 0
M  V30 2259 H 323.58 8.19355 -1.79097 0
M  V30 2260 H 321.886 10.1294 -1.10029 0
M  V30 2261 H 321.696 9.64276 -3.41316 0
M  V30 2262 H 320.066 9.25417 -2.76357 0
M  V30 2263 H 322.705 6.25267 1.07847 0
M  V30 2264 P 324.563 8.791 1.35267e-12 0
M  V30 2265 O 325.985 9.31096 0.027933 0
M  V30 2266 O 324.203 7.77869 -1.04071 0
M  V30 2267 O 324.24 8.09533 1.41463 0
M  V30 2268 C 324.08 9.0349 2.53943 0
M  V30 2269 C 324.62 8.35226 3.79016 0
M  V30 2270 O 323.564 7.57992 4.15078 0
M  V30 2271 C 325.838 7.45087 3.67298 0
M  V30 2272 O 326.576 7.27796 4.85194 0
M  V30 2273 C 325.169 6.17323 3.12027 0
M  V30 2274 O 325.968 5.04231 3.47188 0
M  V30 2275 C 323.832 6.19961 3.81809 0
M  V30 2276 H 323.864 5.58218 4.73051 0
M  V30 2277 H 325.047 6.21726 2.02589 0
M  V30 2278 H 326.531 7.86112 2.9231 0
M  V30 2279 H 324.837 9.11627 4.55076 0
M  V30 2280 H 324.647 9.9573 2.34194 0
M  V30 2281 H 323.017 9.2792 2.67832 0
M  V30 2282 H 325.656 4.67702 4.28772 0
M  V30 2283 P 327.513 7.39546 4.75277 0
M  V30 2284 O 328.935 7.81777 5.05738 0
M  V30 2285 O 327.153 7.1065 3.32998 0
M  V30 2286 O 327.19 6.04542 5.56673 0
M  V30 2287 C 327.03 6.22772 7.02095 0
M  V30 2288 C 327.57 4.97725 7.70406 0
M  V30 2289 O 326.514 4.13256 7.58987 0
M  V30 2290 C 328.788 4.28231 7.11815 0
M  V30 2291 O 329.526 3.49945 8.01648 0
M  V30 2292 C 328.119 3.5063 5.96244 0
M  V30 2293 O 328.918 2.36482 5.64681 0
M  V30 2294 C 326.782 3.15122 6.56374 0
M  V30 2295 H 326.814 2.13853 6.99751 0
M  V30 2296 H 327.997 4.13501 5.06559 0
M  V30 2297 H 329.481 5.03285 6.70911 0
M  V30 2298 H 327.787 5.20877 8.75697 0
M  V30 2299 H 327.597 7.11046 7.35349 0
M  V30 2300 H 325.967 6.35815 7.26986 0
M  V30 2301 H 328.606 1.61644 6.13565 0
M  V30 2302 P 330.464 3.65191 7.99657 0
M  V30 2303 O 331.886 3.8425 8.48115 0
M  V30 2304 O 330.104 4.17805 6.64342 0
M  V30 2305 O 330.141 2.07613 7.95143 0
M  V30 2306 C 329.981 1.44328 9.27336 0
M  V30 2307 C 330.521 0.0220036 9.17197 0
M  V30 2308 O 329.465 -0.626867 8.61923 0
M  V30 2309 C 331.739 -0.24586 8.30336 0
M  V30 2310 O 332.477 -1.39011 8.63583 0
M  V30 2311 C 331.07 -0.273849 6.91158 0
M  V30 2312 O 331.869 -1.06348 6.02892 0
M  V30 2313 C 329.733 -0.897649 7.22545 0
M  V30 2314 H 329.765 -1.9841 7.04286 0
M  V30 2315 H 330.948 0.739928 6.497 0
M  V30 2316 H 332.432 0.60668 8.36503 0
M  V30 2317 H 330.738 -0.352479 10.1829 0
M  V30 2318 H 330.548 2.00611 10.0304 0
M  V30 2319 H 328.918 1.41843 9.55327 0
M  V30 2320 H 331.557 -1.95734 6.03555 0
M  V30 2321 P 333.414 -1.25109 8.70152 0
M  V30 2322 O 334.836 -1.35274 9.21221 0
M  V30 2323 O 333.054 -0.0769065 7.84762 0
M  V30 2324 O 333.091 -2.55232 7.81161 0
M  V30 2325 C 332.931 -3.79939 8.58154 0
M  V30 2326 C 333.471 -4.94023 7.72785 0
M  V30 2327 O 332.415 -5.18726 6.91205 0
M  V30 2328 C 334.689 -4.69597 6.85231 0
M  V30 2329 O 335.427 -5.83832 6.51337 0
M  V30 2330 C 334.02 -3.96706 5.66633 0
M  V30 2331 O 334.819 -4.15414 4.49689 0
M  V30 2332 C 332.683 -4.66153 5.59313 0
M  V30 2333 H 332.715 -5.47679 4.85214 0
M  V30 2334 H 333.898 -2.89008 5.86566 0
M  V30 2335 H 335.382 -4.0121 7.36511 0
M  V30 2336 H 333.688 -5.80182 8.37584 0
M  V30 2337 H 333.498 -3.73517 9.52265 0
M  V30 2338 H 331.868 -3.97163 8.80359 0
M  V30 2339 H 334.507 -4.90969 4.01921 0
M  V30 2340 P 336.365 -5.75688 6.64379 0
M  V30 2341 O 337.787 -6.11849 7.01846 0
M  V30 2342 O 336.005 -4.30744 6.56026 0
M  V30 2343 O 336.042 -6.37042 5.19165 0
M  V30 2344 C 335.882 -7.83578 5.16515 0
M  V30 2345 C 336.422 -8.33398 3.83019 0
M  V30 2346 O 335.366 -8.10074 3.01034 0
M  V30 2347 C 337.64 -7.65514 3.2257 0
M  V30 2348 O 338.378 -8.4329 2.32297 0
M  V30 2349 C 336.971 -6.40075 2.62207 0
M  V30 2350 O 337.77 -5.92589 1.53712 0
M  V30 2351 C 335.634 -6.9454 2.18503 0
M  V30 2352 H 335.666 -7.23063 1.12091 0
M  V30 2353 H 336.849 -5.6025 3.37201 0
M  V30 2354 H 338.333 -7.35707 4.02681 0
M  V30 2355 H 336.639 -9.40912 3.9095 0
M  V30 2356 H 336.449 -8.29056 5.99158 0
M  V30 2357 H 334.819 -8.10073 5.25882 0
M  V30 2358 H 337.458 -6.30324 0.726794 0
M  V30 2359 P 339.316 -8.4349 2.47671 0
M  V30 2360 O 340.738 -8.94167 2.5964 0
M  V30 2361 O 338.956 -7.1704 3.19006 0
M  V30 2362 O 338.993 -8.16596 0.923387 0
M  V30 2363 C 338.833 -9.38437 0.108857 0
M  V30 2364 C 339.373 -9.08175 -1.28353 0
M  V30 2365 O 338.317 -8.44229 -1.84713 0
M  V30 2366 C 340.591 -8.18386 -1.42505 0
M  V30 2367 O 341.329 -8.3501 -2.60497 0
M  V30 2368 C 339.922 -6.80225 -1.25468 0
M  V30 2369 O 340.721 -5.81621 -1.91066 0
M  V30 2370 C 338.585 -7.02416 -1.9168 0
M  V30 2371 H 338.617 -6.6888 -2.96621 0
M  V30 2372 H 339.8 -6.53617 -0.192223 0
M  V30 2373 H 341.284 -8.36622 -0.589963 0
M  V30 2374 H 339.59 -10.0291 -1.79807 0
M  V30 2375 H 339.4 -10.2138 0.558219 0
M  V30 2376 H 337.77 -9.6579 0.0444202 0
M  V30 2377 H 340.409 -5.69556 -2.79637 0
M  V30 2378 P 342.266 -8.4349 -2.47671 0
M  V30 2379 O 343.688 -8.92593 -2.65 0
M  V30 2380 O 341.906 -7.7568 -1.19296 0
M  V30 2381 O 341.943 -7.36886 -3.63805 0
M  V30 2382 C 341.783 -7.95349 -4.982 0
M  V30 2383 C 342.323 -6.94612 -5.98974 0
M  V30 2384 O 341.267 -6.10347 -6.11815 0
M  V30 2385 C 343.541 -6.11426 -5.62335 0
M  V30 2386 O 344.279 -5.6162 -6.70584 0
M  V30 2387 C 342.872 -5.04409 -4.73308 0
M  V30 2388 O 343.671 -3.85992 -4.75183 0
M  V30 2389 C 341.535 -4.8728 -5.41006 0
M  V30 2390 H 341.567 -4.02333 -6.11157 0
M  V30 2391 H 342.75 -5.39466 -3.69543 0
M  V30 2392 H 344.234 -6.71916 -5.01943 0
M  V30 2393 H 342.54 -7.4649 -6.93477 0
M  V30 2394 H 342.35 -8.89416 -5.05237 0
M  V30 2395 H 340.72 -8.14876 -5.18409 0
M  V30 2396 H 343.359 -3.27957 -5.4317 0
M  V30 2397 P 345.217 -5.75688 -6.64379 0
M  V30 2398 O 346.639 -6.07627 -7.05504 0
M  V30 2399 O 344.857 -5.88047 -5.19722 0
M  V30 2400 O 344.894 -4.2322 -7.04443 0
M  V30 2401 C 344.734 -3.99743 -8.4911 0
M  V30 2402 C 345.274 -2.60516 -8.79425 0
M  V30 2403 O 344.218 -1.82684 -8.4467 0
M  V30 2404 C 346.492 -2.10343 -8.03628 0
M  V30 2405 O 347.23 -1.09919 -8.67766 0
M  V30 2406 C 345.823 -1.68446 -6.70876 0
M  V30 2407 O 346.622 -0.678137 -6.08433 0
M  V30 2408 C 344.486 -1.17436 -7.18567 0
M  V30 2409 H 344.518 -0.0804732 -7.31656 0
M  V30 2410 H 345.701 -2.54037 -6.02537 0
M  V30 2411 H 347.185 -2.93881 -7.85526 0
M  V30 2412 H 345.491 -2.53065 -9.86973 0
M  V30 2413 H 345.301 -4.75072 -9.05887 0
M  V30 2414 H 343.671 -4.05244 -8.76668 0
M  V30 2415 H 346.31 0.177647 -6.34251 0
M  V30 2416 P 348.167 -1.25109 -8.70152 0
M  V30 2417 O 349.589 -1.29744 -9.22016 0
M  V30 2418 O 347.807 -2.13714 -7.55141 0
M  V30 2419 O 347.844 0.248149 -8.21425 0
M  V30 2420 C 347.684 1.22779 -9.30434 0
M  V30 2421 C 348.224 2.56293 -8.80664 0
M  V30 2422 O 347.168 3.02979 -8.09349 0
M  V30 2423 C 349.442 2.57523 -7.89775 0
M  V30 2424 O 350.18 3.7668 -7.89438 0
M  V30 2425 C 348.773 2.20997 -6.55446 0
M  V30 2426 O 349.572 2.71895 -5.48509 0
M  V30 2427 C 347.436 2.89693 -6.67988 0
M  V30 2428 H 347.468 3.88793 -6.19859 0
M  V30 2429 H 348.651 1.12046 -6.44229 0
M  V30 2430 H 350.135 1.7746 -8.19711 0
M  V30 2431 H 348.441 3.20706 -9.67112 0
M  V30 2432 H 348.251 0.901032 -10.1892 0
M  V30 2433 H 346.621 1.33049 -9.56592 0
M  V30 2434 H 349.26 3.57847 -5.23962 0
M  V30 2435 P 351.118 3.65191 -7.99657 0
M  V30 2436 O 352.54 3.89332 -8.45794 0
M  V30 2437 O 350.758 2.28472 -7.50807 0
M  V30 2438 O 350.795 4.64972 -6.77611 0
M  V30 2439 C 350.635 6.06319 -7.16352 0
M  V30 2440 C 351.175 6.91731 -6.02299 0
M  V30 2441 O 350.119 6.92449 -5.17064 0
M  V30 2442 C 352.393 6.43627 -5.25174 0
M  V30 2443 O 353.131 7.43686 -4.60469 0
M  V30 2444 C 351.724 5.40275 -4.31916 0
M  V30 2445 O 352.523 5.25279 -3.14438 0
M  V30 2446 C 350.387 6.04847 -4.05327 0
M  V30 2447 H 350.419 6.62195 -3.11261 0
M  V30 2448 H 351.602 4.42556 -4.81383 0
M  V30 2449 H 353.086 5.92458 -5.93643 0
M  V30 2450 H 351.392 7.92655 -6.402 0
M  V30 2451 H 351.202 6.26671 -8.0846 0
M  V30 2452 H 349.572 6.29101 -7.32804 0
M  V30 2453 H 352.211 5.84315 -2.47318 0
M  V30 2454 P 354.068 7.39546 -4.75277 0
M  V30 2455 O 355.49 7.84798 -5.01039 0
M  V30 2456 O 353.708 5.9812 -5.08098 0
M  V30 2457 O 353.745 7.57503 -3.1866 0
M  V30 2458 C 353.585 8.97357 -2.74833 0
M  V30 2459 C 354.125 9.07548 -1.32709 0
M  V30 2460 O 353.069 8.62072 -0.606159 0
M  V30 2461 C 355.343 8.25383 -0.938334 0
M  V30 2462 O 356.081 8.74577 0.146954 0
M  V30 2463 C 354.674 6.8802 -0.712559 0
M  V30 2464 O 355.473 6.1189 0.194655 0
M  V30 2465 C 353.337 7.27966 -0.139777 0
M  V30 2466 H 353.369 7.25354 0.961601 0
M  V30 2467 H 354.552 6.32557 -1.65702 0
M  V30 2468 H 356.036 8.19355 -1.79097 0
M  V30 2469 H 354.342 10.1294 -1.10029 0
M  V30 2470 H 354.152 9.64276 -3.41316 0
M  V30 2471 H 352.522 9.25417 -2.76357 0
M  V30 2472 H 355.161 6.25267 1.07847 0
M  V30 2473 P 357.019 8.791 1.66284e-12 0
M  V30 2474 O 358.441 9.31096 0.027933 0
M  V30 2475 O 356.659 7.77869 -1.04071 0
M  V30 2476 O 356.696 8.09533 1.41463 0
M  V30 2477 C 356.536 9.0349 2.53943 0
M  V30 2478 C 357.076 8.35226 3.79016 0
M  V30 2479 O 356.02 7.57992 4.15078 0
M  V30 2480 C 358.294 7.45087 3.67298 0
M  V30 2481 O 359.032 7.27796 4.85194 0
M  V30 2482 C 357.625 6.17323 3.12027 0
M  V30 2483 O 358.424 5.04231 3.47188 0
M  V30 2484 C 356.288 6.19961 3.81809 0
M  V30 2485 H 356.32 5.58218 4.73051 0
M  V30 2486 H 357.503 6.21726 2.02589 0
M  V30 2487 H 358.987 7.86112 2.9231 0
M  V30 2488 H 357.293 9.11627 4.55076 0
M  V30 2489 H 357.103 9.9573 2.34194 0
M  V30 2490 H 355.473 9.2792 2.67832 0
M  V30 2491 H 358.112 4.67702 4.28772 0
M  V30 2492 P 359.97 7.39546 4.75277 0
M  V30 2493 O 361.392 7.81777 5.05738 0
M  V30 2494 O 359.61 7.1065 3.32998 0
M  V30 2495 O 359.647 6.04542 5.56673 0
M  V30 2496 C 359.487 6.22772 7.02095 0
M  V30 2497 C 360.027 4.97725 7.70406 0
M  V30 2498 O 358.971 4.13256 7.58987 0
M  V30 2499 C 361.245 4.28231 7.11815 0
M  V30 2500 O 361.983 3.49945 8.01648 0
M  V30 2501 C 360.576 3.5063 5.96244 0
M  V30 2502 O 361.375 2.36482 5.64681 0
M  V30 2503 C 359.239 3.15122 6.56374 0
M  V30 2504 H 359.271 2.13853 6.99751 0
M  V30 2505 H 360.454 4.13501 5.06559 0
M  V30 2506 H 361.938 5.03285 6.70911 0
M  V30 2507 H 360.244 5.20877 8.75697 0
M  V30 2508 H 360.054 7.11046 7.35349 0
M  V30 2509 H 358.424 6.35815 7.26986 0
M  V30 2510 H 361.063 1.61644 6.13565 0
M  V30 2511 P 362.92 3.65191 7.99657 0
M  V30 2512 O 364.342 3.8425 8.48115 0
M  V30 2513 O 362.56 4.17805 6.64342 0
M  V30 2514 O 362.597 2.07613 7.95143 0
M  V30 2515 C 362.437 1.44328 9.27336 0
M  V30 2516 C 362.977 0.0220036 9.17197 0
M  V30 2517 O 361.921 -0.626867 8.61923 0
M  V30 2518 C 364.195 -0.24586 8.30336 0
M  V30 2519 O 364.933 -1.39011 8.63583 0
M  V30 2520 C 363.526 -0.273849 6.91158 0
M  V30 2521 O 364.325 -1.06348 6.02892 0
M  V30 2522 C 362.189 -0.897649 7.22545 0
M  V30 2523 H 362.221 -1.9841 7.04286 0
M  V30 2524 H 363.404 0.739928 6.497 0
M  V30 2525 H 364.888 0.60668 8.36503 0
M  V30 2526 H 363.194 -0.352479 10.1829 0
M  V30 2527 H 363.004 2.00611 10.0304 0
M  V30 2528 H 361.374 1.41843 9.55327 0
M  V30 2529 H 364.013 -1.95734 6.03555 0
M  V30 2530 P 365.871 -1.25109 8.70152 0
M  V30 2531 O 367.272 -1.31452 9.27431 0
M  V30 2532 O 365.493 -0.0458113 7.89887 0
M  V30 2533 O 365.548 -2.55201 7.81066 0
M  V30 2534 C 365.388 -3.79939 8.58154 0
M  V30 2535 C 365.928 -4.93969 7.72701 0
M  V30 2536 O 364.872 -5.18666 6.91125 0
M  V30 2537 C 367.145 -4.69597 6.85231 0
M  V30 2538 O 367.884 -5.83832 6.51337 0
M  V30 2539 C 366.478 -3.96706 5.66633 0
M  V30 2540 O 367.276 -4.15346 4.49615 0
M  V30 2541 C 365.14 -4.66153 5.59313 0
M  V30 2542 N 364.097 -3.71582 5.24027 0
M  V30 2543 C 363.062 -4.15133 4.44901 0
M  V30 2544 O 363.101 -5.32122 4.00336 0
M  V30 2545 N 362.05 -3.30554 4.15693 0
M  V30 2546 C 362.098 -2.04701 4.61105 0
M  V30 2547 C 363.194 -1.57111 5.38655 0
M  V30 2548 C 364.16 -2.44234 5.68454 0
M  V30 2549 H 365.172 -5.47604 4.85148 0
M  V30 2550 H 366.355 -2.8955 5.86187 0
M  V30 2551 H 367.839 -4.01995 7.36197 0
M  V30 2552 H 366.145 -5.81019 8.37003 0
M  V30 2553 H 365.954 -3.73517 9.52265 0
M  V30 2554 H 364.324 -3.97122 8.80267 0
M  V30 2555 H 363.242 -0.538464 5.72373 0
M  V30 2556 H 365.006 -2.11927 6.29377 0
M  V30 2557 H 367.06 -4.98352 4.09633 0
M  V30 2558 P 368.821 -5.75688 6.64379 0
M  V30 2559 O 370.243 -6.11849 7.01846 0
M  V30 2560 O 368.461 -4.30744 6.56026 0
M  V30 2561 O 368.498 -6.37042 5.19165 0
M  V30 2562 C 368.338 -7.83578 5.16515 0
M  V30 2563 C 368.878 -8.33398 3.83019 0
M  V30 2564 O 367.822 -8.10074 3.01034 0
M  V30 2565 C 370.096 -7.65514 3.2257 0
M  V30 2566 O 370.834 -8.4329 2.32297 0
M  V30 2567 C 369.427 -6.40075 2.62207 0
M  V30 2568 O 370.226 -5.92589 1.53712 0
M  V30 2569 C 368.09 -6.9454 2.18503 0
M  V30 2570 H 368.122 -7.23063 1.12091 0
M  V30 2571 H 369.305 -5.6025 3.37201 0
M  V30 2572 H 370.789 -7.35707 4.02681 0
M  V30 2573 H 369.095 -9.40912 3.9095 0
M  V30 2574 H 368.905 -8.29056 5.99158 0
M  V30 2575 H 367.275 -8.10073 5.25882 0
M  V30 2576 H 369.914 -6.30324 0.726794 0
M  V30 2577 P 371.772 -8.4349 2.47671 0
M  V30 2578 O 373.194 -8.94167 2.5964 0
M  V30 2579 O 371.412 -7.1704 3.19006 0
M  V30 2580 O 371.449 -8.16596 0.923387 0
M  V30 2581 C 371.289 -9.38437 0.108857 0
M  V30 2582 C 371.829 -9.08175 -1.28353 0
M  V30 2583 O 370.773 -8.44229 -1.84713 0
M  V30 2584 C 373.047 -8.18386 -1.42505 0
M  V30 2585 O 373.785 -8.3501 -2.60497 0
M  V30 2586 C 372.378 -6.80225 -1.25468 0
M  V30 2587 O 373.177 -5.81621 -1.91066 0
M  V30 2588 C 371.041 -7.02416 -1.9168 0
M  V30 2589 H 371.073 -6.6888 -2.96621 0
M  V30 2590 H 372.256 -6.53617 -0.192223 0
M  V30 2591 H 373.74 -8.36622 -0.589963 0
M  V30 2592 H 372.046 -10.0291 -1.79807 0
M  V30 2593 H 371.856 -10.2138 0.558219 0
M  V30 2594 H 370.226 -9.6579 0.0444202 0
M  V30 2595 H 372.865 -5.69556 -2.79637 0
M  V30 2596 P 374.722 -8.4349 -2.47671 0
M  V30 2597 O 376.144 -8.92593 -2.65 0
M  V30 2598 O 374.362 -7.7568 -1.19296 0
M  V30 2599 O 374.399 -7.36886 -3.63805 0
M  V30 2600 C 374.239 -7.95349 -4.982 0
M  V30 2601 C 374.779 -6.94612 -5.98974 0
M  V30 2602 O 373.723 -6.10347 -6.11815 0
M  V30 2603 C 375.997 -6.11426 -5.62335 0
M  V30 2604 O 376.735 -5.6162 -6.70584 0
M  V30 2605 C 375.328 -5.04409 -4.73308 0
M  V30 2606 O 376.127 -3.85992 -4.75183 0
M  V30 2607 C 373.991 -4.8728 -5.41006 0
M  V30 2608 H 374.023 -4.02333 -6.11157 0
M  V30 2609 H 375.206 -5.39466 -3.69543 0
M  V30 2610 H 376.69 -6.71916 -5.01943 0
M  V30 2611 H 374.996 -7.4649 -6.93477 0
M  V30 2612 H 374.806 -8.89416 -5.05237 0
M  V30 2613 H 373.176 -8.14876 -5.18409 0
M  V30 2614 H 375.815 -3.27957 -5.4317 0
M  V30 2615 P 377.673 -5.75688 -6.64379 0
M  V30 2616 O 379.095 -6.07627 -7.05504 0
M  V30 2617 O 377.313 -5.88047 -5.19722 0
M  V30 2618 O 377.35 -4.2322 -7.04443 0
M  V30 2619 C 377.19 -3.99743 -8.4911 0
M  V30 2620 C 377.73 -2.60516 -8.79425 0
M  V30 2621 O 376.674 -1.82684 -8.4467 0
M  V30 2622 C 378.948 -2.10343 -8.03628 0
M  V30 2623 O 379.686 -1.09919 -8.67766 0
M  V30 2624 C 378.279 -1.68446 -6.70876 0
M  V30 2625 O 379.078 -0.678137 -6.08433 0
M  V30 2626 C 376.942 -1.17436 -7.18567 0
M  V30 2627 H 376.974 -0.0804732 -7.31656 0
M  V30 2628 H 378.157 -2.54037 -6.02537 0
M  V30 2629 H 379.641 -2.93881 -7.85526 0
M  V30 2630 H 377.947 -2.53065 -9.86973 0
M  V30 2631 H 377.757 -4.75072 -9.05887 0
M  V30 2632 H 376.127 -4.05244 -8.76668 0
M  V30 2633 H 378.766 0.177647 -6.34251 0
M  V30 2634 P 380.624 -1.25109 -8.70152 0
M  V30 2635 O 382.046 -1.29744 -9.22016 0
M  V30 2636 O 380.264 -2.13714 -7.55141 0
M  V30 2637 O 380.301 0.248149 -8.21425 0
M  V30 2638 C 380.141 1.22779 -9.30434 0
M  V30 2639 C 380.681 2.56293 -8.80664 0
M  V30 2640 O 379.625 3.02979 -8.09349 0
M  V30 2641 C 381.899 2.57523 -7.89775 0
M  V30 2642 O 382.637 3.7668 -7.89438 0
M  V30 2643 C 381.23 2.20997 -6.55446 0
M  V30 2644 O 382.029 2.71895 -5.48509 0
M  V30 2645 C 379.893 2.89693 -6.67988 0
M  V30 2646 H 379.925 3.88793 -6.19859 0
M  V30 2647 H 381.108 1.12046 -6.44229 0
M  V30 2648 H 382.592 1.7746 -8.19711 0
M  V30 2649 H 380.898 3.20706 -9.67112 0
M  V30 2650 H 380.708 0.901032 -10.1892 0
M  V30 2651 H 379.078 1.33049 -9.56592 0
M  V30 2652 H 381.717 3.57847 -5.23962 0
M  V30 2653 P 383.574 3.65191 -7.99657 0
M  V30 2654 O 384.996 3.89332 -8.45794 0
M  V30 2655 O 383.214 2.28472 -7.50807 0
M  V30 2656 O 383.251 4.64972 -6.77611 0
M  V30 2657 C 383.091 6.06319 -7.16352 0
M  V30 2658 C 383.631 6.91731 -6.02299 0
M  V30 2659 O 382.575 6.92449 -5.17064 0
M  V30 2660 C 384.849 6.43627 -5.25174 0
M  V30 2661 O 385.587 7.43686 -4.60469 0
M  V30 2662 C 384.18 5.40275 -4.31916 0
M  V30 2663 O 384.979 5.25279 -3.14438 0
M  V30 2664 C 382.843 6.04847 -4.05327 0
M  V30 2665 H 382.875 6.62195 -3.11261 0
M  V30 2666 H 384.058 4.42556 -4.81383 0
M  V30 2667 H 385.542 5.92458 -5.93643 0
M  V30 2668 H 383.848 7.92655 -6.402 0
M  V30 2669 H 383.658 6.26671 -8.0846 0
M  V30 2670 H 382.028 6.29101 -7.32804 0
M  V30 2671 H 384.667 5.84315 -2.47318 0
M  V30 2672 P 386.525 7.39546 -4.75277 0
M  V30 2673 O 387.947 7.84798 -5.01039 0
M  V30 2674 O 386.165 5.9812 -5.08098 0
M  V30 2675 O 386.202 7.57503 -3.1866 0
M  V30 2676 C 386.042 8.97357 -2.74833 0
M  V30 2677 C 386.582 9.07548 -1.32709 0
M  V30 2678 O 385.526 8.62072 -0.606159 0
M  V30 2679 C 387.8 8.25383 -0.938334 0
M  V30 2680 O 388.538 8.74577 0.146954 0
M  V30 2681 C 387.131 6.8802 -0.712559 0
M  V30 2682 O 387.93 6.1189 0.194655 0
M  V30 2683 C 385.794 7.27966 -0.139777 0
M  V30 2684 H 385.826 7.25354 0.961601 0
M  V30 2685 H 387.009 6.32557 -1.65702 0
M  V30 2686 H 388.493 8.19355 -1.79097 0
M  V30 2687 H 386.799 10.1294 -1.10029 0
M  V30 2688 H 386.609 9.64276 -3.41316 0
M  V30 2689 H 384.979 9.25417 -2.76357 0
M  V30 2690 H 387.618 6.25267 1.07847 0
M  V30 2691 P 389.475 8.791 1.973e-12 0
M  V30 2692 O 390.897 9.31096 0.027933 0
M  V30 2693 O 389.115 7.77869 -1.04071 0
M  V30 2694 O 389.152 8.09533 1.41463 0
M  V30 2695 C 388.992 9.0349 2.53943 0
M  V30 2696 C 389.532 8.35226 3.79016 0
M  V30 2697 O 388.476 7.57992 4.15078 0
M  V30 2698 C 390.75 7.45087 3.67298 0
M  V30 2699 O 391.488 7.27796 4.85194 0
M  V30 2700 C 390.081 6.17323 3.12027 0
M  V30 2701 O 390.88 5.04231 3.47188 0
M  V30 2702 C 388.744 6.19961 3.81809 0
M  V30 2703 H 388.776 5.58218 4.73051 0
M  V30 2704 H 389.959 6.21726 2.02589 0
M  V30 2705 H 391.443 7.86112 2.9231 0
M  V30 2706 H 389.749 9.11627 4.55076 0
M  V30 2707 H 389.559 9.9573 2.34194 0
M  V30 2708 H 387.929 9.2792 2.67832 0
M  V30 2709 H 390.568 4.67702 4.28772 0
M  V30 2710 P 392.426 7.39546 4.75277 0
M  V30 2711 O 393.848 7.81777 5.05738 0
M  V30 2712 O 392.066 7.1065 3.32998 0
M  V30 2713 O 392.103 6.04542 5.56673 0
M  V30 2714 C 391.943 6.22772 7.02095 0
M  V30 2715 C 392.483 4.97725 7.70406 0
M  V30 2716 O 391.427 4.13256 7.58987 0
M  V30 2717 C 393.701 4.28231 7.11815 0
M  V30 2718 O 394.439 3.49945 8.01648 0
M  V30 2719 C 393.032 3.5063 5.96244 0
M  V30 2720 O 393.831 2.36482 5.64681 0
M  V30 2721 C 391.695 3.15122 6.56374 0
M  V30 2722 H 391.727 2.13853 6.99751 0
M  V30 2723 H 392.91 4.13501 5.06559 0
M  V30 2724 H 394.394 5.03285 6.70911 0
M  V30 2725 H 392.7 5.20877 8.75697 0
M  V30 2726 H 392.51 7.11046 7.35349 0
M  V30 2727 H 390.88 6.35815 7.26986 0
M  V30 2728 H 393.519 1.61644 6.13565 0
M  V30 2729 P 395.376 3.65191 7.99657 0
M  V30 2730 O 396.798 3.8425 8.48115 0
M  V30 2731 O 395.016 4.17805 6.64342 0
M  V30 2732 O 395.053 2.07613 7.95143 0
M  V30 2733 C 394.893 1.44328 9.27336 0
M  V30 2734 C 395.433 0.0220036 9.17197 0
M  V30 2735 O 394.377 -0.626867 8.61923 0
M  V30 2736 C 396.651 -0.24586 8.30336 0
M  V30 2737 O 397.389 -1.39011 8.63583 0
M  V30 2738 C 395.982 -0.273849 6.91158 0
M  V30 2739 O 396.781 -1.06348 6.02892 0
M  V30 2740 C 394.645 -0.897649 7.22545 0
M  V30 2741 H 394.677 -1.9841 7.04286 0
M  V30 2742 H 395.86 0.739928 6.497 0
M  V30 2743 H 397.344 0.60668 8.36503 0
M  V30 2744 H 395.65 -0.352479 10.1829 0
M  V30 2745 H 395.46 2.00611 10.0304 0
M  V30 2746 H 393.83 1.41843 9.55327 0
M  V30 2747 H 396.469 -1.95734 6.03555 0
M  V30 2748 P 398.327 -1.25109 8.70152 0
M  V30 2749 O 399.749 -1.35274 9.21221 0
M  V30 2750 O 397.967 -0.0769065 7.84762 0
M  V30 2751 O 398.004 -2.55232 7.81161 0
M  V30 2752 C 397.844 -3.79939 8.58154 0
M  V30 2753 C 398.384 -4.94023 7.72785 0
M  V30 2754 O 397.328 -5.18726 6.91205 0
M  V30 2755 C 399.602 -4.69597 6.85231 0
M  V30 2756 O 400.34 -5.83832 6.51337 0
M  V30 2757 C 398.933 -3.96706 5.66633 0
M  V30 2758 O 399.732 -4.15414 4.49689 0
M  V30 2759 C 397.596 -4.66153 5.59313 0
M  V30 2760 H 397.628 -5.47679 4.85214 0
M  V30 2761 H 398.811 -2.89008 5.86566 0
M  V30 2762 H 400.295 -4.0121 7.36511 0
M  V30 2763 H 398.601 -5.80182 8.37584 0
M  V30 2764 H 398.411 -3.73517 9.52265 0
M  V30 2765 H 396.781 -3.97163 8.80359 0
M  V30 2766 H 399.42 -4.90969 4.01921 0
M  V30 2767 P 401.278 -5.75688 6.64379 0
M  V30 2768 O 402.7 -6.11849 7.01846 0
M  V30 2769 O 400.918 -4.30744 6.56026 0
M  V30 2770 O 400.955 -6.37042 5.19165 0
M  V30 2771 C 400.795 -7.83578 5.16515 0
M  V30 2772 C 401.335 -8.33398 3.83019 0
M  V30 2773 O 400.279 -8.10074 3.01034 0
M  V30 2774 C 402.553 -7.65514 3.2257 0
M  V30 2775 O 403.291 -8.4329 2.32297 0
M  V30 2776 C 401.884 -6.40075 2.62207 0
M  V30 2777 O 402.683 -5.92589 1.53712 0
M  V30 2778 C 400.547 -6.9454 2.18503 0
M  V30 2779 H 400.579 -7.23063 1.12091 0
M  V30 2780 H 401.762 -5.6025 3.37201 0
M  V30 2781 H 403.246 -7.35707 4.02681 0
M  V30 2782 H 401.552 -9.40912 3.9095 0
M  V30 2783 H 401.362 -8.29056 5.99158 0
M  V30 2784 H 399.732 -8.10073 5.25882 0
M  V30 2785 H 402.371 -6.30324 0.726794 0
M  V30 2786 P 404.228 -8.4349 2.47671 0
M  V30 2787 O 405.65 -8.94167 2.5964 0
M  V30 2788 O 403.868 -7.1704 3.19006 0
M  V30 2789 O 403.905 -8.16596 0.923387 0
M  V30 2790 C 403.745 -9.38437 0.108857 0
M  V30 2791 C 404.285 -9.08175 -1.28353 0
M  V30 2792 O 403.229 -8.44229 -1.84713 0
M  V30 2793 C 405.503 -8.18386 -1.42505 0
M  V30 2794 O 406.241 -8.3501 -2.60497 0
M  V30 2795 C 404.834 -6.80225 -1.25468 0
M  V30 2796 O 405.633 -5.81621 -1.91066 0
M  V30 2797 C 403.497 -7.02416 -1.9168 0
M  V30 2798 H 403.529 -6.6888 -2.96621 0
M  V30 2799 H 404.712 -6.53617 -0.192223 0
M  V30 2800 H 406.196 -8.36622 -0.589963 0
M  V30 2801 H 404.502 -10.0291 -1.79807 0
M  V30 2802 H 404.312 -10.2138 0.558219 0
M  V30 2803 H 402.682 -9.6579 0.0444202 0
M  V30 2804 H 405.321 -5.69556 -2.79637 0
M  V30 2805 P 407.179 -8.4349 -2.47671 0
M  V30 2806 O 408.601 -8.92593 -2.65 0
M  V30 2807 O 406.819 -7.7568 -1.19296 0
M  V30 2808 O 406.856 -7.36886 -3.63805 0
M  V30 2809 C 406.696 -7.95349 -4.982 0
M  V30 2810 C 407.236 -6.94612 -5.98974 0
M  V30 2811 O 406.18 -6.10347 -6.11815 0
M  V30 2812 C 408.454 -6.11426 -5.62335 0
M  V30 2813 O 409.192 -5.6162 -6.70584 0
M  V30 2814 C 407.785 -5.04409 -4.73308 0
M  V30 2815 O 408.584 -3.85992 -4.75183 0
M  V30 2816 C 406.448 -4.8728 -5.41006 0
M  V30 2817 H 406.48 -4.02333 -6.11157 0
M  V30 2818 H 407.663 -5.39466 -3.69543 0
M  V30 2819 H 409.147 -6.71916 -5.01943 0
M  V30 2820 H 407.453 -7.4649 -6.93477 0
M  V30 2821 H 407.263 -8.89416 -5.05237 0
M  V30 2822 H 405.633 -8.14876 -5.18409 0
M  V30 2823 H 408.272 -3.27957 -5.4317 0
M  V30 2824 P 410.129 -5.75688 -6.64379 0
M  V30 2825 O 411.551 -6.07627 -7.05504 0
M  V30 2826 O 409.769 -5.88047 -5.19722 0
M  V30 2827 O 409.806 -4.2322 -7.04443 0
M  V30 2828 C 409.646 -3.99743 -8.4911 0
M  V30 2829 C 410.186 -2.60516 -8.79425 0
M  V30 2830 O 409.13 -1.82684 -8.4467 0
M  V30 2831 C 411.404 -2.10343 -8.03628 0
M  V30 2832 O 412.142 -1.09919 -8.67766 0
M  V30 2833 C 410.735 -1.68446 -6.70876 0
M  V30 2834 O 411.534 -0.678137 -6.08433 0
M  V30 2835 C 409.398 -1.17436 -7.18567 0
M  V30 2836 H 409.43 -0.0804732 -7.31656 0
M  V30 2837 H 410.613 -2.54037 -6.02537 0
M  V30 2838 H 412.097 -2.93881 -7.85526 0
M  V30 2839 H 410.403 -2.53065 -9.86973 0
M  V30 2840 H 410.213 -4.75072 -9.05887 0
M  V30 2841 H 408.583 -4.05244 -8.76668 0
M  V30 2842 H 411.222 0.177647 -6.34251 0
M  V30 2843 P 413.08 -1.25109 -8.70152 0
M  V30 2844 O 414.502 -1.29744 -9.22016 0
M  V30 2845 O 412.72 -2.13714 -7.55141 0
M  V30 2846 O 412.757 0.248149 -8.21425 0
M  V30 2847 C 412.597 1.22779 -9.30434 0
M  V30 2848 C 413.137 2.56293 -8.80664 0
M  V30 2849 O 412.081 3.02979 -8.09349 0
M  V30 2850 C 414.355 2.57523 -7.89775 0
M  V30 2851 O 415.093 3.7668 -7.89438 0
M  V30 2852 C 413.686 2.20997 -6.55446 0
M  V30 2853 O 414.485 2.71895 -5.48509 0
M  V30 2854 C 412.349 2.89693 -6.67988 0
M  V30 2855 H 412.381 3.88793 -6.19859 0
M  V30 2856 H 413.564 1.12046 -6.44229 0
M  V30 2857 H 415.048 1.7746 -8.19711 0
M  V30 2858 H 413.354 3.20706 -9.67112 0
M  V30 2859 H 413.164 0.901032 -10.1892 0
M  V30 2860 H 411.534 1.33049 -9.56592 0
M  V30 2861 H 414.173 3.57847 -5.23962 0
M  V30 2862 P 416.03 3.65191 -7.99657 0
M  V30 2863 O 417.452 3.89332 -8.45794 0
M  V30 2864 O 415.67 2.28472 -7.50807 0
M  V30 2865 O 415.707 4.64972 -6.77611 0
M  V30 2866 C 415.547 6.06319 -7.16352 0
M  V30 2867 C 416.087 6.91731 -6.02299 0
M  V30 2868 O 415.031 6.92449 -5.17064 0
M  V30 2869 C 417.305 6.43627 -5.25174 0
M  V30 2870 O 418.043 7.43686 -4.60469 0
M  V30 2871 C 416.636 5.40275 -4.31916 0
M  V30 2872 O 417.435 5.25279 -3.14438 0
M  V30 2873 C 415.299 6.04847 -4.05327 0
M  V30 2874 H 415.331 6.62195 -3.11261 0
M  V30 2875 H 416.514 4.42556 -4.81383 0
M  V30 2876 H 417.998 5.92458 -5.93643 0
M  V30 2877 H 416.304 7.92655 -6.402 0
M  V30 2878 H 416.114 6.26671 -8.0846 0
M  V30 2879 H 414.484 6.29101 -7.32804 0
M  V30 2880 H 417.123 5.84315 -2.47318 0
M  V30 2881 P 418.981 7.39546 -4.75277 0
M  V30 2882 O 420.403 7.84798 -5.01039 0
M  V30 2883 O 418.621 5.9812 -5.08098 0
M  V30 2884 O 418.658 7.57503 -3.1866 0
M  V30 2885 C 418.498 8.97357 -2.74833 0
M  V30 2886 C 419.038 9.07548 -1.32709 0
M  V30 2887 O 417.982 8.62072 -0.606159 0
M  V30 2888 C 420.256 8.25383 -0.938334 0
M  V30 2889 O 420.994 8.74577 0.146954 0
M  V30 2890 C 419.587 6.8802 -0.712559 0
M  V30 2891 O 420.386 6.1189 0.194655 0
M  V30 2892 C 418.25 7.27966 -0.139777 0
M  V30 2893 H 418.282 7.25354 0.961601 0
M  V30 2894 H 419.465 6.32557 -1.65702 0
M  V30 2895 H 420.949 8.19355 -1.79097 0
M  V30 2896 H 419.255 10.1294 -1.10029 0
M  V30 2897 H 419.065 9.64276 -3.41316 0
M  V30 2898 H 417.435 9.25417 -2.76357 0
M  V30 2899 H 420.074 6.25267 1.07847 0
M  V30 2900 P 421.932 8.791 2.28317e-12 0
M  V30 2901 O 423.354 9.31096 0.027933 0
M  V30 2902 O 421.572 7.77869 -1.04071 0
M  V30 2903 O 421.609 8.09533 1.41463 0
M  V30 2904 C 421.449 9.0349 2.53943 0
M  V30 2905 C 421.989 8.35226 3.79016 0
M  V30 2906 O 420.933 7.57992 4.15078 0
M  V30 2907 C 423.207 7.45087 3.67298 0
M  V30 2908 O 423.945 7.27796 4.85194 0
M  V30 2909 C 422.538 6.17323 3.12027 0
M  V30 2910 O 423.337 5.04231 3.47188 0
M  V30 2911 C 421.201 6.19961 3.81809 0
M  V30 2912 H 421.233 5.58218 4.73051 0
M  V30 2913 H 422.416 6.21726 2.02589 0
M  V30 2914 H 423.9 7.86112 2.9231 0
M  V30 2915 H 422.206 9.11627 4.55076 0
M  V30 2916 H 422.016 9.9573 2.34194 0
M  V30 2917 H 420.386 9.2792 2.67832 0
M  V30 2918 H 423.025 4.67702 4.28772 0
M  V30 2919 P 424.882 7.39546 4.75277 0
M  V30 2920 O 426.304 7.81777 5.05738 0
M  V30 2921 O 424.522 7.1065 3.32998 0
M  V30 2922 O 424.559 6.04542 5.56673 0
M  V30 2923 C 424.399 6.22772 7.02095 0
M  V30 2924 C 424.939 4.97725 7.70406 0
M  V30 2925 O 423.883 4.13256 7.58987 0
M  V30 2926 C 426.157 4.28231 7.11815 0
M  V30 2927 O 426.895 3.49945 8.01648 0
M  V30 2928 C 425.488 3.5063 5.96244 0
M  V30 2929 O 426.287 2.36482 5.64681 0
M  V30 2930 C 424.151 3.15122 6.56374 0
M  V30 2931 H 424.183 2.13853 6.99751 0
M  V30 2932 H 425.366 4.13501 5.06559 0
M  V30 2933 H 426.85 5.03285 6.70911 0
M  V30 2934 H 425.156 5.20877 8.75697 0
M  V30 2935 H 424.966 7.11046 7.35349 0
M  V30 2936 H 423.336 6.35815 7.26986 0
M  V30 2937 H 425.975 1.61644 6.13565 0
M  V30 2938 P 427.833 3.65191 7.99657 0
M  V30 2939 O 429.255 3.8425 8.48115 0
M  V30 2940 O 427.473 4.17805 6.64342 0
M  V30 2941 O 427.51 2.07613 7.95143 0
M  V30 2942 C 427.35 1.44328 9.27336 0
M  V30 2943 C 427.89 0.0220036 9.17197 0
M  V30 2944 O 426.834 -0.626867 8.61923 0
M  V30 2945 C 429.108 -0.24586 8.30336 0
M  V30 2946 O 429.846 -1.39011 8.63583 0
M  V30 2947 C 428.439 -0.273849 6.91158 0
M  V30 2948 O 429.238 -1.06348 6.02892 0
M  V30 2949 C 427.102 -0.897649 7.22545 0
M  V30 2950 H 427.134 -1.9841 7.04286 0
M  V30 2951 H 428.317 0.739928 6.497 0
M  V30 2952 H 429.801 0.60668 8.36503 0
M  V30 2953 H 428.107 -0.352479 10.1829 0
M  V30 2954 H 427.917 2.00611 10.0304 0
M  V30 2955 H 426.287 1.41843 9.55327 0
M  V30 2956 H 428.926 -1.95734 6.03555 0
M  V30 2957 P 430.783 -1.25109 8.70152 0
M  V30 2958 O 432.205 -1.35274 9.21221 0
M  V30 2959 O 430.423 -0.0769065 7.84762 0
M  V30 2960 O 430.46 -2.55232 7.81161 0
M  V30 2961 C 430.3 -3.79939 8.58154 0
M  V30 2962 C 430.84 -4.94023 7.72785 0
M  V30 2963 O 429.784 -5.18726 6.91205 0
M  V30 2964 C 432.058 -4.69597 6.85231 0
M  V30 2965 O 432.796 -5.83832 6.51337 0
M  V30 2966 C 431.389 -3.96706 5.66633 0
M  V30 2967 O 432.188 -4.15414 4.49689 0
M  V30 2968 C 430.052 -4.66153 5.59313 0
M  V30 2969 H 430.084 -5.47679 4.85214 0
M  V30 2970 H 431.267 -2.89008 5.86566 0
M  V30 2971 H 432.751 -4.0121 7.36511 0
M  V30 2972 H 431.057 -5.80182 8.37584 0
M  V30 2973 H 430.867 -3.73517 9.52265 0
M  V30 2974 H 429.237 -3.97163 8.80359 0
M  V30 2975 H 431.876 -4.90969 4.01921 0
M  V30 2976 P 433.734 -5.75688 6.64379 0
M  V30 2977 O 435.156 -6.11849 7.01846 0
M  V30 2978 O 433.374 -4.30744 6.56026 0
M  V30 2979 O 433.411 -6.37042 5.19165 0
M  V30 2980 C 433.251 -7.83578 5.16515 0
M  V30 2981 C 433.791 -8.33398 3.83019 0
M  V30 2982 O 432.735 -8.10074 3.01034 0
M  V30 2983 C 435.009 -7.65514 3.2257 0
M  V30 2984 O 435.747 -8.4329 2.32297 0
M  V30 2985 C 434.34 -6.40075 2.62207 0
M  V30 2986 O 435.139 -5.92589 1.53712 0
M  V30 2987 C 433.003 -6.9454 2.18503 0
M  V30 2988 H 433.035 -7.23063 1.12091 0
M  V30 2989 H 434.218 -5.6025 3.37201 0
M  V30 2990 H 435.702 -7.35707 4.02681 0
M  V30 2991 H 434.008 -9.40912 3.9095 0
M  V30 2992 H 433.818 -8.29056 5.99158 0
M  V30 2993 H 432.188 -8.10073 5.25882 0
M  V30 2994 H 434.827 -6.30324 0.726794 0
M  V30 2995 P 436.684 -8.4349 2.47671 0
M  V30 2996 O 438.106 -8.94167 2.5964 0
M  V30 2997 O 436.324 -7.1704 3.19006 0
M  V30 2998 O 436.361 -8.16596 0.923387 0
M  V30 2999 C 436.201 -9.38437 0.108857 0
M  V30 3000 C 436.741 -9.08175 -1.28353 0
M  V30 3001 O 435.685 -8.44229 -1.84713 0
M  V30 3002 C 437.959 -8.18386 -1.42505 0
M  V30 3003 O 438.697 -8.3501 -2.60497 0
M  V30 3004 C 437.29 -6.80225 -1.25468 0
M  V30 3005 O 438.089 -5.81621 -1.91066 0
M  V30 3006 C 435.953 -7.02416 -1.9168 0
M  V30 3007 H 435.985 -6.6888 -2.96621 0
M  V30 3008 H 437.168 -6.53617 -0.192223 0
M  V30 3009 H 438.652 -8.36622 -0.589963 0
M  V30 3010 H 436.958 -10.0291 -1.79807 0
M  V30 3011 H 436.768 -10.2138 0.558219 0
M  V30 3012 H 435.138 -9.6579 0.0444202 0
M  V30 3013 H 437.777 -5.69556 -2.79637 0
M  V30 3014 P 439.635 -8.4349 -2.47671 0
M  V30 3015 O 441.057 -8.92593 -2.65 0
M  V30 3016 O 439.275 -7.7568 -1.19296 0
M  V30 3017 O 439.312 -7.36886 -3.63805 0
M  V30 3018 C 439.152 -7.95349 -4.982 0
M  V30 3019 C 439.692 -6.94612 -5.98974 0
M  V30 3020 O 438.636 -6.10347 -6.11815 0
M  V30 3021 C 440.91 -6.11426 -5.62335 0
M  V30 3022 O 441.648 -5.6162 -6.70584 0
M  V30 3023 C 440.241 -5.04409 -4.73308 0
M  V30 3024 O 441.04 -3.85992 -4.75183 0
M  V30 3025 C 438.904 -4.8728 -5.41006 0
M  V30 3026 H 438.936 -4.02333 -6.11157 0
M  V30 3027 H 440.119 -5.39466 -3.69543 0
M  V30 3028 H 441.603 -6.71916 -5.01943 0
M  V30 3029 H 439.909 -7.4649 -6.93477 0
M  V30 3030 H 439.719 -8.89416 -5.05237 0
M  V30 3031 H 438.089 -8.14876 -5.18409 0
M  V30 3032 H 440.728 -3.27957 -5.4317 0
M  V30 3033 P 442.586 -5.75688 -6.64379 0
M  V30 3034 O 444.007 -6.07692 -7.0558 0
M  V30 3035 O 442.226 -5.88047 -5.19722 0
M  V30 3036 O 442.263 -4.2322 -7.04443 0
M  V30 3037 C 442.102 -3.99785 -8.49201 0
M  V30 3038 C 442.643 -2.60516 -8.79425 0
M  V30 3039 O 441.588 -1.82663 -8.44573 0
M  V30 3040 C 443.861 -2.10343 -8.03628 0
M  V30 3041 O 444.599 -1.09919 -8.67766 0
M  V30 3042 C 443.193 -1.68446 -6.70876 0
M  V30 3043 O 443.991 -0.684109 -6.08265 0
M  V30 3044 C 441.855 -1.17436 -7.18567 0
M  V30 3045 N 440.812 -1.52699 -6.23988 0
M  V30 3046 C 440.981 -2.578 -5.40574 0
M  V30 3047 N 439.954 -2.78966 -4.61193 0
M  V30 3048 C 439.069 -1.78725 -4.95769 0
M  V30 3049 C 437.802 -1.45727 -4.44207 0
M  V30 3050 N 437.203 -2.13994 -3.43613 0
M  V30 3051 N 437.237 -0.374977 -5.05812 0
M  V30 3052 C 437.839 0.345585 -6.05615 0
M  V30 3053 N 439.016 0.0787651 -6.56253 0
M  V30 3054 C 439.591 -1.00499 -5.96189 0
M  V30 3055 H 441.887 -0.0804622 -7.31556 0
M  V30 3056 H 443.07 -2.53396 -6.02698 0
M  V30 3057 H 444.553 -2.93881 -7.85526 0
M  V30 3058 H 442.859 -2.52078 -9.87225 0
M  V30 3059 H 442.669 -4.75072 -9.05887 0
M  V30 3060 H 441.039 -4.05244 -8.76668 0
M  V30 3061 H 437.303 1.20098 -6.4532 0
M  V30 3062 H 441.881 -3.18977 -5.3945 0
M  V30 3063 H 436.273 -1.84983 -3.10004 0
M  V30 3064 H 437.677 -2.9465 -3.00843 0
M  V30 3065 H 443.679 0.177619 -6.34151 0
M  V30 3066 P 445.536 -1.25109 -8.70152 0
M  V30 3067 O 446.958 -1.29744 -9.22016 0
M  V30 3068 O 445.176 -2.13714 -7.55141 0
M  V30 3069 O 445.213 0.248149 -8.21425 0
M  V30 3070 C 445.053 1.22779 -9.30434 0
M  V30 3071 C 445.593 2.56293 -8.80664 0
M  V30 3072 O 444.537 3.02979 -8.09349 0
M  V30 3073 C 446.811 2.57523 -7.89775 0
M  V30 3074 O 447.549 3.7668 -7.89438 0
M  V30 3075 C 446.142 2.20997 -6.55446 0
M  V30 3076 O 446.941 2.71895 -5.48509 0
M  V30 3077 C 444.805 2.89693 -6.67988 0
M  V30 3078 H 444.837 3.88793 -6.19859 0
M  V30 3079 H 446.02 1.12046 -6.44229 0
M  V30 3080 H 447.504 1.7746 -8.19711 0
M  V30 3081 H 445.81 3.20706 -9.67112 0
M  V30 3082 H 445.62 0.901032 -10.1892 0
M  V30 3083 H 443.99 1.33049 -9.56592 0
M  V30 3084 H 446.629 3.57847 -5.23962 0
M  V30 3085 P 448.487 3.65191 -7.99657 0
M  V30 3086 O 449.909 3.89332 -8.45794 0
M  V30 3087 O 448.127 2.28472 -7.50807 0
M  V30 3088 O 448.164 4.64972 -6.77611 0
M  V30 3089 C 448.004 6.06319 -7.16352 0
M  V30 3090 C 448.544 6.91731 -6.02299 0
M  V30 3091 O 447.488 6.92449 -5.17064 0
M  V30 3092 C 449.762 6.43627 -5.25174 0
M  V30 3093 O 450.5 7.43686 -4.60469 0
M  V30 3094 C 449.093 5.40275 -4.31916 0
M  V30 3095 O 449.892 5.25279 -3.14438 0
M  V30 3096 C 447.756 6.04847 -4.05327 0
M  V30 3097 H 447.788 6.62195 -3.11261 0
M  V30 3098 H 448.971 4.42556 -4.81383 0
M  V30 3099 H 450.455 5.92458 -5.93643 0
M  V30 3100 H 448.761 7.92655 -6.402 0
M  V30 3101 H 448.571 6.26671 -8.0846 0
M  V30 3102 H 446.941 6.29101 -7.32804 0
M  V30 3103 H 449.58 5.84315 -2.47318 0
M  V30 3104 P 451.437 7.39546 -4.75277 0
M  V30 3105 O 452.859 7.84798 -5.01039 0
M  V30 3106 O 451.077 5.9812 -5.08098 0
M  V30 3107 O 451.114 7.57503 -3.1866 0
M  V30 3108 C 450.954 8.97357 -2.74833 0
M  V30 3109 C 451.494 9.07548 -1.32709 0
M  V30 3110 O 450.438 8.62072 -0.606159 0
M  V30 3111 C 452.712 8.25383 -0.938334 0
M  V30 3112 O 453.45 8.74577 0.146954 0
M  V30 3113 C 452.043 6.8802 -0.712559 0
M  V30 3114 O 452.842 6.1189 0.194655 0
M  V30 3115 C 450.706 7.27966 -0.139777 0
M  V30 3116 H 450.738 7.25354 0.961601 0
M  V30 3117 H 451.921 6.32557 -1.65702 0
M  V30 3118 H 453.405 8.19355 -1.79097 0
M  V30 3119 H 451.711 10.1294 -1.10029 0
M  V30 3120 H 451.521 9.64276 -3.41316 0
M  V30 3121 H 449.891 9.25417 -2.76357 0
M  V30 3122 H 452.53 6.25267 1.07847 0
M  V30 3123 P 454.388 8.791 2.59334e-12 0
M  V30 3124 O 455.81 9.31096 0.027933 0
M  V30 3125 O 454.028 7.77869 -1.04071 0
M  V30 3126 O 454.065 8.09533 1.41463 0
M  V30 3127 C 453.905 9.0349 2.53943 0
M  V30 3128 C 454.445 8.35226 3.79016 0
M  V30 3129 O 453.389 7.57992 4.15078 0
M  V30 3130 C 455.663 7.45087 3.67298 0
M  V30 3131 O 456.401 7.27796 4.85194 0
M  V30 3132 C 454.994 6.17323 3.12027 0
M  V30 3133 O 455.793 5.04231 3.47188 0
M  V30 3134 C 453.657 6.19961 3.81809 0
M  V30 3135 H 453.689 5.58218 4.73051 0
M  V30 3136 H 454.872 6.21726 2.02589 0
M  V30 3137 H 456.356 7.86112 2.9231 0
M  V30 3138 H 454.662 9.11627 4.55076 0
M  V30 3139 H 454.472 9.9573 2.34194 0
M  V30 3140 H 452.842 9.2792 2.67832 0
M  V30 3141 H 455.481 4.67702 4.28772 0
M  V30 3142 P 457.338 7.39546 4.75277 0
M  V30 3143 O 458.739 7.89013 5.04841 0
M  V30 3144 O 456.96 7.16603 3.32298 0
M  V30 3145 O 457.015 6.04468 5.56605 0
M  V30 3146 C 456.855 6.22772 7.02095 0
M  V30 3147 C 457.395 4.97671 7.70322 0
M  V30 3148 O 456.339 4.13208 7.58899 0
M  V30 3149 C 458.612 4.28231 7.11815 0
M  V30 3150 O 459.351 3.49945 8.01648 0
M  V30 3151 C 457.945 3.5063 5.96244 0
M  V30 3152 O 458.743 2.36443 5.64589 0
M  V30 3153 C 456.607 3.15122 6.56374 0
M  V30 3154 N 455.564 3.22311 5.55692 0
M  V30 3155 C 454.529 2.32244 5.62437 0
M  V30 3156 O 454.568 1.43107 6.50341 0
M  V30 3157 N 453.517 2.40811 4.73368 0
M  V30 3158 C 453.565 3.344 3.77753 0
M  V30 3159 C 454.661 4.24712 3.66679 0
M  V30 3160 C 455.627 4.15625 4.58307 0
M  V30 3161 H 456.639 2.13823 6.99656 0
M  V30 3162 H 457.822 4.12931 5.06895 0
M  V30 3163 H 459.306 5.02674 6.71494 0
M  V30 3164 H 457.612 5.20001 8.76217 0
M  V30 3165 H 457.421 7.11046 7.35349 0
M  V30 3166 H 455.791 6.35749 7.26911 0
M  V30 3167 H 454.709 4.9828 2.86753 0
M  V30 3168 H 456.473 4.84464 4.54228 0
M  V30 3169 H 458.527 1.65592 6.23485 0
M  V30 3170 P 460.289 3.65191 7.99657 0
M  V30 3171 O 461.711 3.8425 8.48115 0
M  V30 3172 O 459.929 4.17805 6.64342 0
M  V30 3173 O 459.966 2.07613 7.95143 0
M  V30 3174 C 459.806 1.44328 9.27336 0
M  V30 3175 C 460.346 0.0220036 9.17197 0
M  V30 3176 O 459.29 -0.626867 8.61923 0
M  V30 3177 C 461.564 -0.24586 8.30336 0
M  V30 3178 O 462.302 -1.39011 8.63583 0
M  V30 3179 C 460.895 -0.273849 6.91158 0
M  V30 3180 O 461.694 -1.06348 6.02892 0
M  V30 3181 C 459.558 -0.897649 7.22545 0
M  V30 3182 H 459.59 -1.9841 7.04286 0
M  V30 3183 H 460.773 0.739928 6.497 0
M  V30 3184 H 462.257 0.60668 8.36503 0
M  V30 3185 H 460.563 -0.352479 10.1829 0
M  V30 3186 H 460.373 2.00611 10.0304 0
M  V30 3187 H 458.743 1.41843 9.55327 0
M  V30 3188 H 461.382 -1.95734 6.03555 0
M  V30 3189 P 463.239 -1.25109 8.70152 0
M  V30 3190 O 464.661 -1.35274 9.21221 0
M  V30 3191 O 462.879 -0.0769065 7.84762 0
M  V30 3192 O 462.916 -2.55232 7.81161 0
M  V30 3193 C 462.756 -3.79939 8.58154 0
M  V30 3194 C 463.296 -4.94023 7.72785 0
M  V30 3195 O 462.24 -5.18726 6.91205 0
M  V30 3196 C 464.514 -4.69597 6.85231 0
M  V30 3197 O 465.252 -5.83832 6.51337 0
M  V30 3198 C 463.845 -3.96706 5.66633 0
M  V30 3199 O 464.644 -4.15414 4.49689 0
M  V30 3200 C 462.508 -4.66153 5.59313 0
M  V30 3201 H 462.54 -5.47679 4.85214 0
M  V30 3202 H 463.723 -2.89008 5.86566 0
M  V30 3203 H 465.207 -4.0121 7.36511 0
M  V30 3204 H 463.513 -5.80182 8.37584 0
M  V30 3205 H 463.323 -3.73517 9.52265 0
M  V30 3206 H 461.693 -3.97163 8.80359 0
M  V30 3207 H 464.332 -4.90969 4.01921 0
M  V30 3208 P 466.19 -5.75688 6.64379 0
M  V30 3209 O 467.612 -6.11849 7.01846 0
M  V30 3210 O 465.83 -4.30744 6.56026 0
M  V30 3211 O 465.867 -6.37042 5.19165 0
M  V30 3212 C 465.707 -7.83578 5.16515 0
M  V30 3213 C 466.247 -8.33398 3.83019 0
M  V30 3214 O 465.191 -8.10074 3.01034 0
M  V30 3215 C 467.465 -7.65514 3.2257 0
M  V30 3216 O 468.203 -8.4329 2.32297 0
M  V30 3217 C 466.796 -6.40075 2.62207 0
M  V30 3218 O 467.595 -5.92589 1.53712 0
M  V30 3219 C 465.459 -6.9454 2.18503 0
M  V30 3220 H 465.491 -7.23063 1.12091 0
M  V30 3221 H 466.674 -5.6025 3.37201 0
M  V30 3222 H 468.158 -7.35707 4.02681 0
M  V30 3223 H 466.464 -9.40912 3.9095 0
M  V30 3224 H 466.274 -8.29056 5.99158 0
M  V30 3225 H 464.644 -8.10073 5.25882 0
M  V30 3226 H 467.283 -6.30324 0.726794 0
M  V30 3227 P 469.141 -8.4349 2.47671 0
M  V30 3228 O 470.563 -8.94167 2.5964 0
M  V30 3229 O 468.781 -7.1704 3.19006 0
M  V30 3230 O 468.818 -8.16596 0.923387 0
M  V30 3231 C 468.658 -9.38437 0.108857 0
M  V30 3232 C 469.198 -9.08175 -1.28353 0
M  V30 3233 O 468.142 -8.44229 -1.84713 0
M  V30 3234 C 470.416 -8.18386 -1.42505 0
M  V30 3235 O 471.154 -8.3501 -2.60497 0
M  V30 3236 C 469.747 -6.80225 -1.25468 0
M  V30 3237 O 470.546 -5.81621 -1.91066 0
M  V30 3238 C 468.41 -7.02416 -1.9168 0
M  V30 3239 H 468.442 -6.6888 -2.96621 0
M  V30 3240 H 469.625 -6.53617 -0.192223 0
M  V30 3241 H 471.109 -8.36622 -0.589963 0
M  V30 3242 H 469.415 -10.0291 -1.79807 0
M  V30 3243 H 469.225 -10.2138 0.558219 0
M  V30 3244 H 467.595 -9.6579 0.0444202 0
M  V30 3245 H 470.234 -5.69556 -2.79637 0
M  V30 3246 P 472.091 -8.4349 -2.47671 0
M  V30 3247 O 473.513 -8.92593 -2.65 0
M  V30 3248 O 471.731 -7.7568 -1.19296 0
M  V30 3249 O 471.768 -7.36886 -3.63805 0
M  V30 3250 C 471.608 -7.95349 -4.982 0
M  V30 3251 C 472.148 -6.94612 -5.98974 0
M  V30 3252 O 471.092 -6.10347 -6.11815 0
M  V30 3253 C 473.366 -6.11426 -5.62335 0
M  V30 3254 O 474.104 -5.6162 -6.70584 0
M  V30 3255 C 472.697 -5.04409 -4.73308 0
M  V30 3256 O 473.496 -3.85992 -4.75183 0
M  V30 3257 C 471.36 -4.8728 -5.41006 0
M  V30 3258 H 471.392 -4.02333 -6.11157 0
M  V30 3259 H 472.575 -5.39466 -3.69543 0
M  V30 3260 H 474.059 -6.71916 -5.01943 0
M  V30 3261 H 472.365 -7.4649 -6.93477 0
M  V30 3262 H 472.175 -8.89416 -5.05237 0
M  V30 3263 H 470.545 -8.14876 -5.18409 0
M  V30 3264 H 473.184 -3.27957 -5.4317 0
M  V30 3265 P 475.042 -5.75688 -6.64379 0
M  V30 3266 O 476.464 -6.07627 -7.05504 0
M  V30 3267 O 474.682 -5.88047 -5.19722 0
M  V30 3268 O 474.719 -4.2322 -7.04443 0
M  V30 3269 C 474.559 -3.99743 -8.4911 0
M  V30 3270 C 475.099 -2.60516 -8.79425 0
M  V30 3271 O 474.043 -1.82684 -8.4467 0
M  V30 3272 C 476.317 -2.10343 -8.03628 0
M  V30 3273 O 477.055 -1.09919 -8.67766 0
M  V30 3274 C 475.648 -1.68446 -6.70876 0
M  V30 3275 O 476.447 -0.678137 -6.08433 0
M  V30 3276 C 474.311 -1.17436 -7.18567 0
M  V30 3277 H 474.343 -0.0804732 -7.31656 0
M  V30 3278 H 475.526 -2.54037 -6.02537 0
M  V30 3279 H 477.01 -2.93881 -7.85526 0
M  V30 3280 H 475.316 -2.53065 -9.86973 0
M  V30 3281 H 475.126 -4.75072 -9.05887 0
M  V30 3282 H 473.496 -4.05244 -8.76668 0
M  V30 3283 H 476.135 0.177647 -6.34251 0
M  V30 3284 P 477.992 -1.25109 -8.70152 0
M  V30 3285 O 479.393 -1.3516 -9.26897 0
M  V30 3286 O 477.614 -2.18141 -7.59181 0
M  V30 3287 O 477.669 0.248118 -8.21325 0
M  V30 3288 C 477.509 1.22779 -9.30434 0
M  V30 3289 C 478.049 2.56265 -8.80568 0
M  V30 3290 O 476.993 3.02944 -8.09255 0
M  V30 3291 C 479.266 2.57523 -7.89775 0
M  V30 3292 O 480.005 3.7668 -7.89438 0
M  V30 3293 C 478.599 2.20997 -6.55446 0
M  V30 3294 O 479.397 2.71851 -5.48419 0
M  V30 3295 C 477.261 2.89693 -6.67988 0
M  V30 3296 N 476.218 2.08895 -6.07487 0
M  V30 3297 C 475.183 2.72974 -5.43836 0
M  V30 3298 O 475.222 3.97779 -5.34036 0
M  V30 3299 N 474.171 2.0005 -4.91983 0
M  V30 3300 C 474.219 0.66501 -5.00098 0
M  V30 3301 N 473.209 -0.0305439 -4.4919 0
M  V30 3302 C 475.315 -0.0100979 -5.61099 0
M  V30 3303 C 476.281 0.74189 -6.14236 0
M  V30 3304 H 477.293 3.8874 -6.19774 0
M  V30 3305 H 478.476 1.12673 -6.44018 0
M  V30 3306 H 479.96 1.783 -8.19631 0
M  V30 3307 H 478.266 3.21673 -9.66791 0
M  V30 3308 H 478.075 0.901032 -10.1892 0
M  V30 3309 H 476.445 1.33036 -9.56493 0
M  V30 3310 H 475.363 -1.09591 -5.64358 0
M  V30 3311 H 477.127 0.260263 -6.6359 0
M  V30 3312 H 472.419 0.460194 -4.04793 0
M  V30 3313 H 473.214 -1.05716 -4.53953 0
M  V30 3314 H 479.181 3.62759 -5.33442 0
M  V30 3315 P 480.943 3.65191 -7.99657 0
M  V30 3316 O 482.365 3.89332 -8.45794 0
M  V30 3317 O 480.583 2.28472 -7.50807 0
M  V30 3318 O 480.62 4.64972 -6.77611 0
M  V30 3319 C 480.46 6.06319 -7.16352 0
M  V30 3320 C 481 6.91731 -6.02299 0
M  V30 3321 O 479.944 6.92449 -5.17064 0
M  V30 3322 C 482.218 6.43627 -5.25174 0
M  V30 3323 O 482.956 7.43686 -4.60469 0
M  V30 3324 C 481.549 5.40275 -4.31916 0
M  V30 3325 O 482.348 5.25279 -3.14438 0
M  V30 3326 C 480.212 6.04847 -4.05327 0
M  V30 3327 H 480.244 6.62195 -3.11261 0
M  V30 3328 H 481.427 4.42556 -4.81383 0
M  V30 3329 H 482.911 5.92458 -5.93643 0
M  V30 3330 H 481.217 7.92655 -6.402 0
M  V30 3331 H 481.027 6.26671 -8.0846 0
M  V30 3332 H 479.397 6.29101 -7.32804 0
M  V30 3333 H 482.036 5.84315 -2.47318 0
M  V30 3334 P 483.893 7.39546 -4.75277 0
M  V30 3335 O 485.315 7.84798 -5.01039 0
M  V30 3336 O 483.533 5.9812 -5.08098 0
M  V30 3337 O 483.57 7.57503 -3.1866 0
M  V30 3338 C 483.41 8.97357 -2.74833 0
M  V30 3339 C 483.95 9.07548 -1.32709 0
M  V30 3340 O 482.894 8.62072 -0.606159 0
M  V30 3341 C 485.168 8.25383 -0.938334 0
M  V30 3342 O 485.906 8.74577 0.146954 0
M  V30 3343 C 484.499 6.8802 -0.712559 0
M  V30 3344 O 485.298 6.1189 0.194655 0
M  V30 3345 C 483.162 7.27966 -0.139777 0
M  V30 3346 H 483.194 7.25354 0.961601 0
M  V30 3347 H 484.377 6.32557 -1.65702 0
M  V30 3348 H 485.861 8.19355 -1.79097 0
M  V30 3349 H 484.167 10.1294 -1.10029 0
M  V30 3350 H 483.977 9.64276 -3.41316 0
M  V30 3351 H 482.347 9.25417 -2.76357 0
M  V30 3352 H 484.986 6.25267 1.07847 0
M  V30 3353 P 486.844 8.791 2.9035e-12 0
M  V30 3354 O 488.266 9.31096 0.027933 0
M  V30 3355 O 486.484 7.77869 -1.04071 0
M  V30 3356 O 486.521 8.09533 1.41463 0
M  V30 3357 C 486.361 9.0349 2.53943 0
M  V30 3358 C 486.901 8.35226 3.79016 0
M  V30 3359 O 485.845 7.57992 4.15078 0
M  V30 3360 C 488.119 7.45087 3.67298 0
M  V30 3361 O 488.857 7.27796 4.85194 0
M  V30 3362 C 487.45 6.17323 3.12027 0
M  V30 3363 O 488.249 5.04231 3.47188 0
M  V30 3364 C 486.113 6.19961 3.81809 0
M  V30 3365 H 486.145 5.58218 4.73051 0
M  V30 3366 H 487.328 6.21726 2.02589 0
M  V30 3367 H 488.812 7.86112 2.9231 0
M  V30 3368 H 487.118 9.11627 4.55076 0
M  V30 3369 H 486.928 9.9573 2.34194 0
M  V30 3370 H 485.298 9.2792 2.67832 0
M  V30 3371 H 487.937 4.67702 4.28772 0
M  V30 3372 P 489.795 7.39546 4.75277 0
M  V30 3373 O 491.196 7.89013 5.04841 0
M  V30 3374 O 489.417 7.16603 3.32298 0
M  V30 3375 O 489.472 6.04468 5.56605 0
M  V30 3376 C 489.312 6.22772 7.02095 0
M  V30 3377 C 489.852 4.97671 7.70322 0
M  V30 3378 O 488.796 4.13208 7.58899 0
M  V30 3379 C 491.069 4.28231 7.11815 0
M  V30 3380 O 491.808 3.49945 8.01648 0
M  V30 3381 C 490.402 3.5063 5.96244 0
M  V30 3382 O 491.2 2.36443 5.64589 0
M  V30 3383 C 489.064 3.15122 6.56374 0
M  V30 3384 N 488.021 3.22311 5.55692 0
M  V30 3385 C 486.986 2.32244 5.62437 0
M  V30 3386 O 487.025 1.43107 6.50341 0
M  V30 3387 N 485.974 2.40811 4.73368 0
M  V30 3388 C 486.022 3.344 3.77753 0
M  V30 3389 N 485.012 3.41475 2.91848 0
M  V30 3390 C 487.118 4.24712 3.66679 0
M  V30 3391 C 488.084 4.15625 4.58307 0
M  V30 3392 H 489.096 2.13823 6.99656 0
M  V30 3393 H 490.279 4.12931 5.06895 0
M  V30 3394 H 491.763 5.02674 6.71494 0
M  V30 3395 H 490.069 5.20001 8.76217 0
M  V30 3396 H 489.878 7.11046 7.35349 0
M  V30 3397 H 488.248 6.35749 7.26911 0
M  V30 3398 H 487.166 4.9828 2.86753 0
M  V30 3399 H 488.93 4.84464 4.54228 0
M  V30 3400 H 484.222 2.75785 2.99862 0
M  V30 3401 H 485.017 4.12304 2.17382 0
M  V30 3402 H 490.984 1.65592 6.23485 0
M  V30 3403 P 492.745 3.65191 7.99657 0
M  V30 3404 O 494.167 3.8425 8.48115 0
M  V30 3405 O 492.385 4.17805 6.64342 0
M  V30 3406 O 492.422 2.07613 7.95143 0
M  V30 3407 C 492.262 1.44328 9.27336 0
M  V30 3408 C 492.802 0.0220036 9.17197 0
M  V30 3409 O 491.746 -0.626867 8.61923 0
M  V30 3410 C 494.02 -0.24586 8.30336 0
M  V30 3411 O 494.758 -1.39011 8.63583 0
M  V30 3412 C 493.351 -0.273849 6.91158 0
M  V30 3413 O 494.15 -1.06348 6.02892 0
M  V30 3414 C 492.014 -0.897649 7.22545 0
M  V30 3415 H 492.046 -1.9841 7.04286 0
M  V30 3416 H 493.229 0.739928 6.497 0
M  V30 3417 H 494.713 0.60668 8.36503 0
M  V30 3418 H 493.019 -0.352479 10.1829 0
M  V30 3419 H 492.829 2.00611 10.0304 0
M  V30 3420 H 491.199 1.41843 9.55327 0
M  V30 3421 H 493.838 -1.95734 6.03555 0
M  V30 3422 P 495.696 -1.25109 8.70152 0
M  V30 3423 O 497.118 -1.35274 9.21221 0
M  V30 3424 O 495.336 -0.0769065 7.84762 0
M  V30 3425 O 495.373 -2.55232 7.81161 0
M  V30 3426 C 495.213 -3.79939 8.58154 0
M  V30 3427 C 495.753 -4.94023 7.72785 0
M  V30 3428 O 494.697 -5.18726 6.91205 0
M  V30 3429 C 496.971 -4.69597 6.85231 0
M  V30 3430 O 497.709 -5.83832 6.51337 0
M  V30 3431 C 496.302 -3.96706 5.66633 0
M  V30 3432 O 497.101 -4.15414 4.49689 0
M  V30 3433 C 494.965 -4.66153 5.59313 0
M  V30 3434 H 494.997 -5.47679 4.85214 0
M  V30 3435 H 496.18 -2.89008 5.86566 0
M  V30 3436 H 497.664 -4.0121 7.36511 0
M  V30 3437 H 495.97 -5.80182 8.37584 0
M  V30 3438 H 495.78 -3.73517 9.52265 0
M  V30 3439 H 494.15 -3.97163 8.80359 0
M  V30 3440 H 496.789 -4.90969 4.01921 0
M  V30 3441 P 498.646 -5.75688 6.64379 0
M  V30 3442 O 500.068 -6.11849 7.01846 0
M  V30 3443 O 498.286 -4.30744 6.56026 0
M  V30 3444 O 498.323 -6.37042 5.19165 0
M  V30 3445 C 498.163 -7.83578 5.16515 0
M  V30 3446 C 498.703 -8.33398 3.83019 0
M  V30 3447 O 497.647 -8.10074 3.01034 0
M  V30 3448 C 499.921 -7.65514 3.2257 0
M  V30 3449 O 500.659 -8.4329 2.32297 0
M  V30 3450 C 499.252 -6.40075 2.62207 0
M  V30 3451 O 500.051 -5.92589 1.53712 0
M  V30 3452 C 497.915 -6.9454 2.18503 0
M  V30 3453 H 497.947 -7.23063 1.12091 0
M  V30 3454 H 499.13 -5.6025 3.37201 0
M  V30 3455 H 500.614 -7.35707 4.02681 0
M  V30 3456 H 498.92 -9.40912 3.9095 0
M  V30 3457 H 498.73 -8.29056 5.99158 0
M  V30 3458 H 497.1 -8.10073 5.25882 0
M  V30 3459 H 499.739 -6.30324 0.726794 0
M  V30 3460 P 501.597 -8.4349 2.47671 0
M  V30 3461 O 503.019 -8.94167 2.5964 0
M  V30 3462 O 501.237 -7.1704 3.19006 0
M  V30 3463 O 501.274 -8.16596 0.923387 0
M  V30 3464 C 501.114 -9.38437 0.108857 0
M  V30 3465 C 501.654 -9.08175 -1.28353 0
M  V30 3466 O 500.598 -8.44229 -1.84713 0
M  V30 3467 C 502.872 -8.18386 -1.42505 0
M  V30 3468 O 503.61 -8.3501 -2.60497 0
M  V30 3469 C 502.203 -6.80225 -1.25468 0
M  V30 3470 O 503.002 -5.81621 -1.91066 0
M  V30 3471 C 500.866 -7.02416 -1.9168 0
M  V30 3472 H 500.898 -6.6888 -2.96621 0
M  V30 3473 H 502.081 -6.53617 -0.192223 0
M  V30 3474 H 503.565 -8.36622 -0.589963 0
M  V30 3475 H 501.871 -10.0291 -1.79807 0
M  V30 3476 H 501.681 -10.2138 0.558219 0
M  V30 3477 H 500.051 -9.6579 0.0444202 0
M  V30 3478 H 502.69 -5.69556 -2.79637 0
M  V30 3479 P 504.547 -8.4349 -2.47671 0
M  V30 3480 O 505.969 -8.92593 -2.65 0
M  V30 3481 O 504.187 -7.7568 -1.19296 0
M  V30 3482 O 504.224 -7.36886 -3.63805 0
M  V30 3483 C 504.064 -7.95349 -4.982 0
M  V30 3484 C 504.604 -6.94612 -5.98974 0
M  V30 3485 O 503.548 -6.10347 -6.11815 0
M  V30 3486 C 505.822 -6.11426 -5.62335 0
M  V30 3487 O 506.56 -5.6162 -6.70584 0
M  V30 3488 C 505.153 -5.04409 -4.73308 0
M  V30 3489 O 505.952 -3.85992 -4.75183 0
M  V30 3490 C 503.816 -4.8728 -5.41006 0
M  V30 3491 H 503.848 -4.02333 -6.11157 0
M  V30 3492 H 505.031 -5.39466 -3.69543 0
M  V30 3493 H 506.515 -6.71916 -5.01943 0
M  V30 3494 H 504.821 -7.4649 -6.93477 0
M  V30 3495 H 504.631 -8.89416 -5.05237 0
M  V30 3496 H 503.001 -8.14876 -5.18409 0
M  V30 3497 H 505.64 -3.27957 -5.4317 0
M  V30 3498 P 507.498 -5.75688 -6.64379 0
M  V30 3499 O 508.92 -6.07627 -7.05504 0
M  V30 3500 O 507.138 -5.88047 -5.19722 0
M  V30 3501 O 507.175 -4.2322 -7.04443 0
M  V30 3502 C 507.015 -3.99743 -8.4911 0
M  V30 3503 C 507.555 -2.60516 -8.79425 0
M  V30 3504 O 506.499 -1.82684 -8.4467 0
M  V30 3505 C 508.773 -2.10343 -8.03628 0
M  V30 3506 O 509.511 -1.09919 -8.67766 0
M  V30 3507 C 508.104 -1.68446 -6.70876 0
M  V30 3508 O 508.903 -0.678137 -6.08433 0
M  V30 3509 C 506.767 -1.17436 -7.18567 0
M  V30 3510 H 506.799 -0.0804732 -7.31656 0
M  V30 3511 H 507.982 -2.54037 -6.02537 0
M  V30 3512 H 509.466 -2.93881 -7.85526 0
M  V30 3513 H 507.772 -2.53065 -9.86973 0
M  V30 3514 H 507.582 -4.75072 -9.05887 0
M  V30 3515 H 505.952 -4.05244 -8.76668 0
M  V30 3516 H 508.591 0.177647 -6.34251 0
M  V30 3517 P 510.449 -1.25109 -8.70152 0
M  V30 3518 O 511.871 -1.29744 -9.22016 0
M  V30 3519 O 510.089 -2.13714 -7.55141 0
M  V30 3520 O 510.126 0.248149 -8.21425 0
M  V30 3521 C 509.966 1.22779 -9.30434 0
M  V30 3522 C 510.506 2.56293 -8.80664 0
M  V30 3523 O 509.45 3.02979 -8.09349 0
M  V30 3524 C 511.724 2.57523 -7.89775 0
M  V30 3525 O 512.462 3.7668 -7.89438 0
M  V30 3526 C 511.055 2.20997 -6.55446 0
M  V30 3527 O 511.854 2.71895 -5.48509 0
M  V30 3528 C 509.718 2.89693 -6.67988 0
M  V30 3529 H 509.75 3.88793 -6.19859 0
M  V30 3530 H 510.933 1.12046 -6.44229 0
M  V30 3531 H 512.417 1.7746 -8.19711 0
M  V30 3532 H 510.723 3.20706 -9.67112 0
M  V30 3533 H 510.533 0.901032 -10.1892 0
M  V30 3534 H 508.903 1.33049 -9.56592 0
M  V30 3535 H 511.542 3.57847 -5.23962 0
M  V30 3536 P 513.399 3.65191 -7.99657 0
M  V30 3537 O 514.821 3.89332 -8.45794 0
M  V30 3538 O 513.039 2.28472 -7.50807 0
M  V30 3539 O 513.076 4.64972 -6.77611 0
M  V30 3540 C 512.916 6.06319 -7.16352 0
M  V30 3541 C 513.456 6.91731 -6.02299 0
M  V30 3542 O 512.4 6.92449 -5.17064 0
M  V30 3543 C 514.674 6.43627 -5.25174 0
M  V30 3544 O 515.412 7.43686 -4.60469 0
M  V30 3545 C 514.005 5.40275 -4.31916 0
M  V30 3546 O 514.804 5.25279 -3.14438 0
M  V30 3547 C 512.668 6.04847 -4.05327 0
M  V30 3548 H 512.7 6.62195 -3.11261 0
M  V30 3549 H 513.883 4.42556 -4.81383 0
M  V30 3550 H 515.367 5.92458 -5.93643 0
M  V30 3551 H 513.673 7.92655 -6.402 0
M  V30 3552 H 513.483 6.26671 -8.0846 0
M  V30 3553 H 511.853 6.29101 -7.32804 0
M  V30 3554 H 514.492 5.84315 -2.47318 0
M  V30 3555 P 516.35 7.39546 -4.75277 0
M  V30 3556 O 517.772 7.84798 -5.01039 0
M  V30 3557 O 515.99 5.9812 -5.08098 0
M  V30 3558 O 516.027 7.57503 -3.1866 0
M  V30 3559 C 515.867 8.97357 -2.74833 0
M  V30 3560 C 516.407 9.07548 -1.32709 0
M  V30 3561 O 515.351 8.62072 -0.606159 0
M  V30 3562 C 517.625 8.25383 -0.938334 0
M  V30 3563 O 518.363 8.74577 0.146954 0
M  V30 3564 C 516.956 6.8802 -0.712559 0
M  V30 3565 O 517.755 6.1189 0.194655 0
M  V30 3566 C 515.619 7.27966 -0.139777 0
M  V30 3567 H 515.651 7.25354 0.961601 0
M  V30 3568 H 516.834 6.32557 -1.65702 0
M  V30 3569 H 518.318 8.19355 -1.79097 0
M  V30 3570 H 516.624 10.1294 -1.10029 0
M  V30 3571 H 516.434 9.64276 -3.41316 0
M  V30 3572 H 514.804 9.25417 -2.76357 0
M  V30 3573 H 517.443 6.25267 1.07847 0
M  V30 3574 P 519.3 8.791 3.21367e-12 0
M  V30 3575 O 520.701 9.36698 -0.018734 0
M  V30 3576 O 518.922 7.82499 -1.07878 0
M  V30 3577 O 518.977 8.09434 1.41446 0
M  V30 3578 C 518.817 9.0349 2.53943 0
M  V30 3579 C 519.357 8.35135 3.78975 0
M  V30 3580 O 518.301 7.57904 4.1503 0
M  V30 3581 C 520.574 7.45087 3.67298 0
M  V30 3582 O 521.313 7.27796 4.85194 0
M  V30 3583 C 519.907 6.17323 3.12027 0
M  V30 3584 O 520.705 5.04149 3.47132 0
M  V30 3585 C 518.569 6.19961 3.81809 0
M  V30 3586 N 517.526 5.71575 2.93223 0
M  V30 3587 C 516.491 4.99452 3.47592 0
M  V30 3588 O 516.53 4.7199 4.69732 0
M  V30 3589 N 515.479 4.58505 2.6803 0
M  V30 3590 C 515.527 4.85544 1.36995 0
M  V30 3591 C 516.623 5.55532 0.788532 0
M  V30 3592 C 517.589 5.97426 1.60849 0
M  V30 3593 H 518.601 5.58142 4.72986 0
M  V30 3594 H 519.784 6.21428 2.0318 0
M  V30 3595 H 521.268 7.85913 2.93131 0
M  V30 3596 H 519.574 9.11171 4.55987 0
M  V30 3597 H 519.383 9.9573 2.34194 0
M  V30 3598 H 517.753 9.27824 2.67805 0
M  V30 3599 H 516.671 5.7421 -0.281588 0
M  V30 3600 H 518.435 6.53132 1.202 0
M  V30 3601 H 520.489 4.76386 4.34983 0
M  V30 3602 P 522.251 7.39546 4.75277 0
M  V30 3603 O 523.673 7.81777 5.05738 0
M  V30 3604 O 521.891 7.1065 3.32998 0
M  V30 3605 O 521.928 6.04542 5.56673 0
M  V30 3606 C 521.768 6.22772 7.02095 0
M  V30 3607 C 522.308 4.97725 7.70406 0
M  V30 3608 O 521.252 4.13256 7.58987 0
M  V30 3609 C 523.526 4.28231 7.11815 0
M  V30 3610 O 524.264 3.49945 8.01648 0
M  V30 3611 C 522.857 3.5063 5.96244 0
M  V30 3612 O 523.656 2.36482 5.64681 0
M  V30 3613 C 521.52 3.15122 6.56374 0
M  V30 3614 H 521.552 2.13853 6.99751 0
M  V30 3615 H 522.735 4.13501 5.06559 0
M  V30 3616 H 524.219 5.03285 6.70911 0
M  V30 3617 H 522.525 5.20877 8.75697 0
M  V30 3618 H 522.335 7.11046 7.35349 0
M  V30 3619 H 520.705 6.35815 7.26986 0
M  V30 3620 H 523.344 1.61644 6.13565 0
M  V30 3621 P 525.201 3.65191 7.99657 0
M  V30 3622 O 526.623 3.8425 8.48115 0
M  V30 3623 O 524.841 4.17805 6.64342 0
M  V30 3624 O 524.878 2.07613 7.95143 0
M  V30 3625 C 524.718 1.44328 9.27336 0
M  V30 3626 C 525.258 0.0220036 9.17197 0
M  V30 3627 O 524.202 -0.626867 8.61923 0
M  V30 3628 C 526.476 -0.24586 8.30336 0
M  V30 3629 O 527.214 -1.39011 8.63583 0
M  V30 3630 C 525.807 -0.273849 6.91158 0
M  V30 3631 O 526.606 -1.06348 6.02892 0
M  V30 3632 C 524.47 -0.897649 7.22545 0
M  V30 3633 H 524.502 -1.9841 7.04286 0
M  V30 3634 H 525.685 0.739928 6.497 0
M  V30 3635 H 527.169 0.60668 8.36503 0
M  V30 3636 H 525.475 -0.352479 10.1829 0
M  V30 3637 H 525.285 2.00611 10.0304 0
M  V30 3638 H 523.655 1.41843 9.55327 0
M  V30 3639 H 526.294 -1.95734 6.03555 0
M  V30 3640 P 528.152 -1.25109 8.70152 0
M  V30 3641 O 529.574 -1.35274 9.21221 0
M  V30 3642 O 527.792 -0.0769065 7.84762 0
M  V30 3643 O 527.829 -2.55232 7.81161 0
M  V30 3644 C 527.669 -3.79939 8.58154 0
M  V30 3645 C 528.209 -4.94023 7.72785 0
M  V30 3646 O 527.153 -5.18726 6.91205 0
M  V30 3647 C 529.427 -4.69597 6.85231 0
M  V30 3648 O 530.165 -5.83832 6.51337 0
M  V30 3649 C 528.758 -3.96706 5.66633 0
M  V30 3650 O 529.557 -4.15414 4.49689 0
M  V30 3651 C 527.421 -4.66153 5.59313 0
M  V30 3652 H 527.453 -5.47679 4.85214 0
M  V30 3653 H 528.636 -2.89008 5.86566 0
M  V30 3654 H 530.12 -4.0121 7.36511 0
M  V30 3655 H 528.426 -5.80182 8.37584 0
M  V30 3656 H 528.236 -3.73517 9.52265 0
M  V30 3657 H 526.606 -3.97163 8.80359 0
M  V30 3658 H 529.245 -4.90969 4.01921 0
M  V30 3659 P 531.103 -5.75688 6.64379 0
M  V30 3660 O 532.525 -6.11849 7.01846 0
M  V30 3661 O 530.743 -4.30744 6.56026 0
M  V30 3662 O 530.78 -6.37042 5.19165 0
M  V30 3663 C 530.62 -7.83578 5.16515 0
M  V30 3664 C 531.16 -8.33398 3.83019 0
M  V30 3665 O 530.104 -8.10074 3.01034 0
M  V30 3666 C 532.378 -7.65514 3.2257 0
M  V30 3667 O 533.116 -8.4329 2.32297 0
M  V30 3668 C 531.709 -6.40075 2.62207 0
M  V30 3669 O 532.508 -5.92589 1.53712 0
M  V30 3670 C 530.372 -6.9454 2.18503 0
M  V30 3671 H 530.404 -7.23063 1.12091 0
M  V30 3672 H 531.587 -5.6025 3.37201 0
M  V30 3673 H 533.071 -7.35707 4.02681 0
M  V30 3674 H 531.377 -9.40912 3.9095 0
M  V30 3675 H 531.187 -8.29056 5.99158 0
M  V30 3676 H 529.557 -8.10073 5.25882 0
M  V30 3677 H 532.196 -6.30324 0.726794 0
M  V30 3678 P 534.053 -8.4349 2.47671 0
M  V30 3679 O 535.475 -8.94167 2.5964 0
M  V30 3680 O 533.693 -7.1704 3.19006 0
M  V30 3681 O 533.73 -8.16596 0.923387 0
M  V30 3682 C 533.57 -9.38437 0.108857 0
M  V30 3683 C 534.11 -9.08175 -1.28353 0
M  V30 3684 O 533.054 -8.44229 -1.84713 0
M  V30 3685 C 535.328 -8.18386 -1.42505 0
M  V30 3686 O 536.066 -8.3501 -2.60497 0
M  V30 3687 C 534.659 -6.80225 -1.25468 0
M  V30 3688 O 535.458 -5.81621 -1.91066 0
M  V30 3689 C 533.322 -7.02416 -1.9168 0
M  V30 3690 H 533.354 -6.6888 -2.96621 0
M  V30 3691 H 534.537 -6.53617 -0.192223 0
M  V30 3692 H 536.021 -8.36622 -0.589963 0
M  V30 3693 H 534.327 -10.0291 -1.79807 0
M  V30 3694 H 534.137 -10.2138 0.558219 0
M  V30 3695 H 532.507 -9.6579 0.0444202 0
M  V30 3696 H 535.146 -5.69556 -2.79637 0
M  V30 3697 P 537.004 -8.4349 -2.47671 0
M  V30 3698 O 538.426 -8.92593 -2.65 0
M  V30 3699 O 536.644 -7.7568 -1.19296 0
M  V30 3700 O 536.681 -7.36886 -3.63805 0
M  V30 3701 C 536.521 -7.95349 -4.982 0
M  V30 3702 C 537.061 -6.94612 -5.98974 0
M  V30 3703 O 536.005 -6.10347 -6.11815 0
M  V30 3704 C 538.279 -6.11426 -5.62335 0
M  V30 3705 O 539.017 -5.6162 -6.70584 0
M  V30 3706 C 537.61 -5.04409 -4.73308 0
M  V30 3707 O 538.409 -3.85992 -4.75183 0
M  V30 3708 C 536.273 -4.8728 -5.41006 0
M  V30 3709 H 536.305 -4.02333 -6.11157 0
M  V30 3710 H 537.488 -5.39466 -3.69543 0
M  V30 3711 H 538.972 -6.71916 -5.01943 0
M  V30 3712 H 537.278 -7.4649 -6.93477 0
M  V30 3713 H 537.088 -8.89416 -5.05237 0
M  V30 3714 H 535.458 -8.14876 -5.18409 0
M  V30 3715 H 538.097 -3.27957 -5.4317 0
M  V30 3716 P 539.954 -5.75688 -6.64379 0
M  V30 3717 O 541.376 -6.07627 -7.05504 0
M  V30 3718 O 539.594 -5.88047 -5.19722 0
M  V30 3719 O 539.631 -4.2322 -7.04443 0
M  V30 3720 C 539.471 -3.99743 -8.4911 0
M  V30 3721 C 540.011 -2.60516 -8.79425 0
M  V30 3722 O 538.955 -1.82684 -8.4467 0
M  V30 3723 C 541.229 -2.10343 -8.03628 0
M  V30 3724 O 541.967 -1.09919 -8.67766 0
M  V30 3725 C 540.56 -1.68446 -6.70876 0
M  V30 3726 O 541.359 -0.678137 -6.08433 0
M  V30 3727 C 539.223 -1.17436 -7.18567 0
M  V30 3728 H 539.255 -0.0804732 -7.31656 0
M  V30 3729 H 540.438 -2.54037 -6.02537 0
M  V30 3730 H 541.922 -2.93881 -7.85526 0
M  V30 3731 H 540.228 -2.53065 -9.86973 0
M  V30 3732 H 540.038 -4.75072 -9.05887 0
M  V30 3733 H 538.408 -4.05244 -8.76668 0
M  V30 3734 H 541.047 0.177647 -6.34251 0
M  V30 3735 P 542.905 -1.25109 -8.70152 0
M  V30 3736 O 544.327 -1.29744 -9.22016 0
M  V30 3737 O 542.545 -2.13714 -7.55141 0
M  V30 3738 O 542.582 0.248149 -8.21425 0
M  V30 3739 C 542.422 1.22779 -9.30434 0
M  V30 3740 C 542.962 2.56293 -8.80664 0
M  V30 3741 O 541.906 3.02979 -8.09349 0
M  V30 3742 C 544.18 2.57523 -7.89775 0
M  V30 3743 O 544.918 3.7668 -7.89438 0
M  V30 3744 C 543.511 2.20997 -6.55446 0
M  V30 3745 O 544.31 2.71895 -5.48509 0
M  V30 3746 C 542.174 2.89693 -6.67988 0
M  V30 3747 H 542.206 3.88793 -6.19859 0
M  V30 3748 H 543.389 1.12046 -6.44229 0
M  V30 3749 H 544.873 1.7746 -8.19711 0
M  V30 3750 H 543.179 3.20706 -9.67112 0
M  V30 3751 H 542.989 0.901032 -10.1892 0
M  V30 3752 H 541.359 1.33049 -9.56592 0
M  V30 3753 H 543.998 3.57847 -5.23962 0
M  V30 3754 P 545.855 3.65191 -7.99657 0
M  V30 3755 O 547.277 3.89332 -8.45794 0
M  V30 3756 O 545.495 2.28472 -7.50807 0
M  V30 3757 O 545.532 4.64972 -6.77611 0
M  V30 3758 C 545.372 6.06319 -7.16352 0
M  V30 3759 C 545.912 6.91731 -6.02299 0
M  V30 3760 O 544.856 6.92449 -5.17064 0
M  V30 3761 C 547.13 6.43627 -5.25174 0
M  V30 3762 O 547.868 7.43686 -4.60469 0
M  V30 3763 C 546.461 5.40275 -4.31916 0
M  V30 3764 O 547.26 5.25279 -3.14438 0
M  V30 3765 C 545.124 6.04847 -4.05327 0
M  V30 3766 H 545.156 6.62195 -3.11261 0
M  V30 3767 H 546.339 4.42556 -4.81383 0
M  V30 3768 H 547.823 5.92458 -5.93643 0
M  V30 3769 H 546.129 7.92655 -6.402 0
M  V30 3770 H 545.939 6.26671 -8.0846 0
M  V30 3771 H 544.309 6.29101 -7.32804 0
M  V30 3772 H 546.948 5.84315 -2.47318 0
M  V30 3773 P 548.806 7.39546 -4.75277 0
M  V30 3774 O 550.228 7.84798 -5.01039 0
M  V30 3775 O 548.446 5.9812 -5.08098 0
M  V30 3776 O 548.483 7.57503 -3.1866 0
M  V30 3777 C 548.323 8.97357 -2.74833 0
M  V30 3778 C 548.863 9.07548 -1.32709 0
M  V30 3779 O 547.807 8.62072 -0.606159 0
M  V30 3780 C 550.081 8.25383 -0.938334 0
M  V30 3781 O 550.819 8.74577 0.146954 0
M  V30 3782 C 549.412 6.8802 -0.712559 0
M  V30 3783 O 550.211 6.1189 0.194655 0
M  V30 3784 C 548.075 7.27966 -0.139777 0
M  V30 3785 H 548.107 7.25354 0.961601 0
M  V30 3786 H 549.29 6.32557 -1.65702 0
M  V30 3787 H 550.774 8.19355 -1.79097 0
M  V30 3788 H 549.08 10.1294 -1.10029 0
M  V30 3789 H 548.89 9.64276 -3.41316 0
M  V30 3790 H 547.26 9.25417 -2.76357 0
M  V30 3791 H 549.899 6.25267 1.07847 0
M  V30 3792 P 551.757 8.791 3.52383e-12 0
M  V30 3793 O 553.179 9.31096 0.027933 0
M  V30 3794 O 551.397 7.77869 -1.04071 0
M  V30 3795 O 551.434 8.09533 1.41463 0
M  V30 3796 C 551.274 9.0349 2.53943 0
M  V30 3797 C 551.814 8.35226 3.79016 0
M  V30 3798 O 550.758 7.57992 4.15078 0
M  V30 3799 C 553.032 7.45087 3.67298 0
M  V30 3800 O 553.77 7.27796 4.85194 0
M  V30 3801 C 552.363 6.17323 3.12027 0
M  V30 3802 O 553.162 5.04231 3.47188 0
M  V30 3803 C 551.026 6.19961 3.81809 0
M  V30 3804 H 551.058 5.58218 4.73051 0
M  V30 3805 H 552.241 6.21726 2.02589 0
M  V30 3806 H 553.725 7.86112 2.9231 0
M  V30 3807 H 552.031 9.11627 4.55076 0
M  V30 3808 H 551.841 9.9573 2.34194 0
M  V30 3809 H 550.211 9.2792 2.67832 0
M  V30 3810 H 552.85 4.67702 4.28772 0
M  V30 3811 P 554.707 7.39546 4.75277 0
M  V30 3812 O 556.129 7.81777 5.05738 0
M  V30 3813 O 554.347 7.1065 3.32998 0
M  V30 3814 O 554.384 6.04542 5.56673 0
M  V30 3815 C 554.224 6.22772 7.02095 0
M  V30 3816 C 554.764 4.97725 7.70406 0
M  V30 3817 O 553.708 4.13256 7.58987 0
M  V30 3818 C 555.982 4.28231 7.11815 0
M  V30 3819 O 556.72 3.49945 8.01648 0
M  V30 3820 C 555.313 3.5063 5.96244 0
M  V30 3821 O 556.112 2.36482 5.64681 0
M  V30 3822 C 553.976 3.15122 6.56374 0
M  V30 3823 H 554.008 2.13853 6.99751 0
M  V30 3824 H 555.191 4.13501 5.06559 0
M  V30 3825 H 556.675 5.03285 6.70911 0
M  V30 3826 H 554.981 5.20877 8.75697 0
M  V30 3827 H 554.791 7.11046 7.35349 0
M  V30 3828 H 553.161 6.35815 7.26986 0
M  V30 3829 H 555.8 1.61644 6.13565 0
M  V30 3830 P 557.658 3.65191 7.99657 0
M  V30 3831 O 559.08 3.8425 8.48115 0
M  V30 3832 O 557.298 4.17805 6.64342 0
M  V30 3833 O 557.335 2.07613 7.95143 0
M  V30 3834 C 557.175 1.44328 9.27336 0
M  V30 3835 C 557.715 0.0220036 9.17197 0
M  V30 3836 O 556.659 -0.626867 8.61923 0
M  V30 3837 C 558.933 -0.24586 8.30336 0
M  V30 3838 O 559.671 -1.39011 8.63583 0
M  V30 3839 C 558.264 -0.273849 6.91158 0
M  V30 3840 O 559.063 -1.06348 6.02892 0
M  V30 3841 C 556.927 -0.897649 7.22545 0
M  V30 3842 H 556.959 -1.9841 7.04286 0
M  V30 3843 H 558.142 0.739928 6.497 0
M  V30 3844 H 559.626 0.60668 8.36503 0
M  V30 3845 H 557.932 -0.352479 10.1829 0
M  V30 3846 H 557.742 2.00611 10.0304 0
M  V30 3847 H 556.112 1.41843 9.55327 0
M  V30 3848 H 558.751 -1.95734 6.03555 0
M  V30 3849 P 560.608 -1.25109 8.70152 0
M  V30 3850 O 562.03 -1.35274 9.21221 0
M  V30 3851 O 560.248 -0.0769065 7.84762 0
M  V30 3852 O 560.285 -2.55232 7.81161 0
M  V30 3853 C 560.125 -3.79939 8.58154 0
M  V30 3854 C 560.665 -4.94023 7.72785 0
M  V30 3855 O 559.609 -5.18726 6.91205 0
M  V30 3856 C 561.883 -4.69597 6.85231 0
M  V30 3857 O 562.621 -5.83832 6.51337 0
M  V30 3858 C 561.214 -3.96706 5.66633 0
M  V30 3859 O 562.013 -4.15414 4.49689 0
M  V30 3860 C 559.877 -4.66153 5.59313 0
M  V30 3861 H 559.909 -5.47679 4.85214 0
M  V30 3862 H 561.092 -2.89008 5.86566 0
M  V30 3863 H 562.576 -4.0121 7.36511 0
M  V30 3864 H 560.882 -5.80182 8.37584 0
M  V30 3865 H 560.692 -3.73517 9.52265 0
M  V30 3866 H 559.062 -3.97163 8.80359 0
M  V30 3867 H 561.701 -4.90969 4.01921 0
M  V30 3868 P 563.559 -5.75688 6.64379 0
M  V30 3869 O 564.981 -6.11849 7.01846 0
M  V30 3870 O 563.199 -4.30744 6.56026 0
M  V30 3871 O 563.236 -6.37042 5.19165 0
M  V30 3872 C 563.076 -7.83578 5.16515 0
M  V30 3873 C 563.616 -8.33398 3.83019 0
M  V30 3874 O 562.56 -8.10074 3.01034 0
M  V30 3875 C 564.834 -7.65514 3.2257 0
M  V30 3876 O 565.572 -8.4329 2.32297 0
M  V30 3877 C 564.165 -6.40075 2.62207 0
M  V30 3878 O 564.964 -5.92589 1.53712 0
M  V30 3879 C 562.828 -6.9454 2.18503 0
M  V30 3880 H 562.86 -7.23063 1.12091 0
M  V30 3881 H 564.043 -5.6025 3.37201 0
M  V30 3882 H 565.527 -7.35707 4.02681 0
M  V30 3883 H 563.833 -9.40912 3.9095 0
M  V30 3884 H 563.643 -8.29056 5.99158 0
M  V30 3885 H 562.013 -8.10073 5.25882 0
M  V30 3886 H 564.652 -6.30324 0.726794 0
M  V30 3887 P 566.509 -8.4349 2.47671 0
M  V30 3888 O 567.931 -8.94167 2.5964 0
M  V30 3889 O 566.149 -7.1704 3.19006 0
M  V30 3890 O 566.186 -8.16596 0.923387 0
M  V30 3891 C 566.026 -9.38437 0.108857 0
M  V30 3892 C 566.566 -9.08175 -1.28353 0
M  V30 3893 O 565.51 -8.44229 -1.84713 0
M  V30 3894 C 567.784 -8.18386 -1.42505 0
M  V30 3895 O 568.522 -8.3501 -2.60497 0
M  V30 3896 C 567.115 -6.80225 -1.25468 0
M  V30 3897 O 567.914 -5.81621 -1.91066 0
M  V30 3898 C 565.778 -7.02416 -1.9168 0
M  V30 3899 H 565.81 -6.6888 -2.96621 0
M  V30 3900 H 566.993 -6.53617 -0.192223 0
M  V30 3901 H 568.477 -8.36622 -0.589963 0
M  V30 3902 H 566.783 -10.0291 -1.79807 0
M  V30 3903 H 566.593 -10.2138 0.558219 0
M  V30 3904 H 564.963 -9.6579 0.0444202 0
M  V30 3905 H 567.602 -5.69556 -2.79637 0
M  V30 3906 P 569.46 -8.4349 -2.47671 0
M  V30 3907 O 570.882 -8.92593 -2.65 0
M  V30 3908 O 569.1 -7.7568 -1.19296 0
M  V30 3909 O 569.137 -7.36886 -3.63805 0
M  V30 3910 C 568.977 -7.95349 -4.982 0
M  V30 3911 C 569.517 -6.94612 -5.98974 0
M  V30 3912 O 568.461 -6.10347 -6.11815 0
M  V30 3913 C 570.735 -6.11426 -5.62335 0
M  V30 3914 O 571.473 -5.6162 -6.70584 0
M  V30 3915 C 570.066 -5.04409 -4.73308 0
M  V30 3916 O 570.865 -3.85992 -4.75183 0
M  V30 3917 C 568.729 -4.8728 -5.41006 0
M  V30 3918 H 568.761 -4.02333 -6.11157 0
M  V30 3919 H 569.944 -5.39466 -3.69543 0
M  V30 3920 H 571.428 -6.71916 -5.01943 0
M  V30 3921 H 569.734 -7.4649 -6.93477 0
M  V30 3922 H 569.544 -8.89416 -5.05237 0
M  V30 3923 H 567.914 -8.14876 -5.18409 0
M  V30 3924 H 570.553 -3.27957 -5.4317 0
M  V30 3925 P 572.411 -5.75688 -6.64379 0
M  V30 3926 O 573.833 -6.07627 -7.05504 0
M  V30 3927 O 572.051 -5.88047 -5.19722 0
M  V30 3928 O 572.088 -4.2322 -7.04443 0
M  V30 3929 C 571.928 -3.99743 -8.4911 0
M  V30 3930 C 572.468 -2.60516 -8.79425 0
M  V30 3931 O 571.412 -1.82684 -8.4467 0
M  V30 3932 C 573.686 -2.10343 -8.03628 0
M  V30 3933 O 574.424 -1.09919 -8.67766 0
M  V30 3934 C 573.017 -1.68446 -6.70876 0
M  V30 3935 O 573.816 -0.678137 -6.08433 0
M  V30 3936 C 571.68 -1.17436 -7.18567 0
M  V30 3937 H 571.712 -0.0804732 -7.31656 0
M  V30 3938 H 572.895 -2.54037 -6.02537 0
M  V30 3939 H 574.379 -2.93881 -7.85526 0
M  V30 3940 H 572.685 -2.53065 -9.86973 0
M  V30 3941 H 572.495 -4.75072 -9.05887 0
M  V30 3942 H 570.865 -4.05244 -8.76668 0
M  V30 3943 H 573.504 0.177647 -6.34251 0
M  V30 3944 P 575.361 -1.25109 -8.70152 0
M  V30 3945 O 576.783 -1.29744 -9.22016 0
M  V30 3946 O 575.001 -2.13714 -7.55141 0
M  V30 3947 O 575.038 0.248149 -8.21425 0
M  V30 3948 C 574.878 1.22779 -9.30434 0
M  V30 3949 C 575.418 2.56293 -8.80664 0
M  V30 3950 O 574.362 3.02979 -8.09349 0
M  V30 3951 C 576.636 2.57523 -7.89775 0
M  V30 3952 O 577.374 3.7668 -7.89438 0
M  V30 3953 C 575.967 2.20997 -6.55446 0
M  V30 3954 O 576.766 2.71895 -5.48509 0
M  V30 3955 C 574.63 2.89693 -6.67988 0
M  V30 3956 H 574.662 3.88793 -6.19859 0
M  V30 3957 H 575.845 1.12046 -6.44229 0
M  V30 3958 H 577.329 1.7746 -8.19711 0
M  V30 3959 H 575.635 3.20706 -9.67112 0
M  V30 3960 H 575.445 0.901032 -10.1892 0
M  V30 3961 H 573.815 1.33049 -9.56592 0
M  V30 3962 H 576.454 3.57847 -5.23962 0
M  V30 3963 P 578.312 3.65191 -7.99657 0
M  V30 3964 O 579.734 3.89332 -8.45794 0
M  V30 3965 O 577.952 2.28472 -7.50807 0
M  V30 3966 O 577.989 4.64972 -6.77611 0
M  V30 3967 C 577.829 6.06319 -7.16352 0
M  V30 3968 C 578.369 6.91731 -6.02299 0
M  V30 3969 O 577.313 6.92449 -5.17064 0
M  V30 3970 C 579.587 6.43627 -5.25174 0
M  V30 3971 O 580.325 7.43686 -4.60469 0
M  V30 3972 C 578.918 5.40275 -4.31916 0
M  V30 3973 O 579.717 5.25279 -3.14438 0
M  V30 3974 C 577.581 6.04847 -4.05327 0
M  V30 3975 H 577.613 6.62195 -3.11261 0
M  V30 3976 H 578.796 4.42556 -4.81383 0
M  V30 3977 H 580.28 5.92458 -5.93643 0
M  V30 3978 H 578.586 7.92655 -6.402 0
M  V30 3979 H 578.396 6.26671 -8.0846 0
M  V30 3980 H 576.766 6.29101 -7.32804 0
M  V30 3981 H 579.405 5.84315 -2.47318 0
M  V30 3982 P 581.262 7.39546 -4.75277 0
M  V30 3983 O 582.663 7.86988 -5.07993 0
M  V30 3984 O 580.884 5.99957 -5.13804 0
M  V30 3985 O 580.939 7.57411 -3.18621 0
M  V30 3986 C 580.779 8.97357 -2.74833 0
M  V30 3987 C 581.319 9.0745 -1.32694 0
M  V30 3988 O 580.263 8.61972 -0.606089 0
M  V30 3989 C 582.536 8.25383 -0.938334 0
M  V30 3990 O 583.275 8.74577 0.146954 0
M  V30 3991 C 581.869 6.8802 -0.712559 0
M  V30 3992 O 582.667 6.11791 0.194623 0
M  V30 3993 C 580.531 7.27966 -0.139777 0
M  V30 3994 N 579.488 6.39368 -0.623421 0
M  V30 3995 C 578.453 6.08088 0.223886 0
M  V30 3996 O 578.492 6.5102 1.39986 0
M  V30 3997 N 577.441 5.30627 -0.224051 0
M  V30 3998 C 577.489 4.82531 -1.47257 0
M  V30 3999 C 578.585 5.09974 -2.34008 0
M  V30 4000 C 579.551 5.89548 -1.87678 0
M  V30 4001 H 580.563 7.25255 0.961469 0
M  V30 4002 H 581.746 6.32625 -1.65044 0
M  V30 4003 H 583.23 8.19631 -1.78299 0
M  V30 4004 H 581.536 10.1305 -1.09016 0
M  V30 4005 H 581.345 9.64276 -3.41316 0
M  V30 4006 H 579.715 9.25321 -2.76328 0
M  V30 4007 H 578.633 4.67832 -3.3413 0
M  V30 4008 H 580.397 6.14434 -2.51991 0
M  V30 4009 H 582.451 6.35931 1.08377 0
M  V30 4010 P 584.213 8.791 3.834e-12 0
M  V30 4011 O 585.635 9.31096 0.027933 0
M  V30 4012 O 583.853 7.77869 -1.04071 0
M  V30 4013 O 583.89 8.09533 1.41463 0
M  V30 4014 C 583.73 9.0349 2.53943 0
M  V30 4015 C 584.27 8.35226 3.79016 0
M  V30 4016 O 583.214 7.57992 4.15078 0
M  V30 4017 C 585.488 7.45087 3.67298 0
M  V30 4018 O 586.226 7.27796 4.85194 0
M  V30 4019 C 584.819 6.17323 3.12027 0
M  V30 4020 O 585.618 5.04231 3.47188 0
M  V30 4021 C 583.482 6.19961 3.81809 0
M  V30 4022 H 583.514 5.58218 4.73051 0
M  V30 4023 H 584.697 6.21726 2.02589 0
M  V30 4024 H 586.181 7.86112 2.9231 0
M  V30 4025 H 584.487 9.11627 4.55076 0
M  V30 4026 H 584.297 9.9573 2.34194 0
M  V30 4027 H 582.667 9.2792 2.67832 0
M  V30 4028 H 585.306 4.67702 4.28772 0
M  V30 4029 P 587.163 7.39546 4.75277 0
M  V30 4030 O 588.564 7.89013 5.04841 0
M  V30 4031 O 586.785 7.16603 3.32298 0
M  V30 4032 O 586.84 6.04468 5.56605 0
M  V30 4033 C 586.68 6.22772 7.02095 0
M  V30 4034 C 587.22 4.97671 7.70322 0
M  V30 4035 O 586.164 4.13208 7.58899 0
M  V30 4036 C 588.437 4.28231 7.11815 0
M  V30 4037 O 589.176 3.49945 8.01648 0
M  V30 4038 C 587.77 3.5063 5.96244 0
M  V30 4039 O 588.568 2.36443 5.64589 0
M  V30 4040 C 586.432 3.15122 6.56374 0
M  V30 4041 N 585.389 3.22311 5.55692 0
M  V30 4042 C 584.354 2.32244 5.62437 0
M  V30 4043 O 584.393 1.43107 6.50341 0
M  V30 4044 N 583.342 2.40811 4.73368 0
M  V30 4045 C 583.39 3.344 3.77753 0
M  V30 4046 C 584.486 4.24712 3.66679 0
M  V30 4047 C 585.452 4.15625 4.58307 0
M  V30 4048 H 586.464 2.13823 6.99656 0
M  V30 4049 H 587.647 4.12931 5.06895 0
M  V30 4050 H 589.131 5.02674 6.71494 0
M  V30 4051 H 587.437 5.20001 8.76217 0
M  V30 4052 H 587.246 7.11046 7.35349 0
M  V30 4053 H 585.616 6.35749 7.26911 0
M  V30 4054 H 584.534 4.9828 2.86753 0
M  V30 4055 H 586.298 4.84464 4.54228 0
M  V30 4056 H 588.352 1.65592 6.23485 0
M  V30 4057 P 590.114 3.65191 7.99657 0
M  V30 4058 O 591.536 3.8425 8.48115 0
M  V30 4059 O 589.754 4.17805 6.64342 0
M  V30 4060 O 589.791 2.07613 7.95143 0
M  V30 4061 C 589.631 1.44328 9.27336 0
M  V30 4062 C 590.171 0.0220036 9.17197 0
M  V30 4063 O 589.115 -0.626867 8.61923 0
M  V30 4064 C 591.389 -0.24586 8.30336 0
M  V30 4065 O 592.127 -1.39011 8.63583 0
M  V30 4066 C 590.72 -0.273849 6.91158 0
M  V30 4067 O 591.519 -1.06348 6.02892 0
M  V30 4068 C 589.383 -0.897649 7.22545 0
M  V30 4069 H 589.415 -1.9841 7.04286 0
M  V30 4070 H 590.598 0.739928 6.497 0
M  V30 4071 H 592.082 0.60668 8.36503 0
M  V30 4072 H 590.388 -0.352479 10.1829 0
M  V30 4073 H 590.198 2.00611 10.0304 0
M  V30 4074 H 588.568 1.41843 9.55327 0
M  V30 4075 H 591.207 -1.95734 6.03555 0
M  V30 4076 P 593.065 -1.25109 8.70152 0
M  V30 4077 O 594.487 -1.35274 9.21221 0
M  V30 4078 O 592.705 -0.0769065 7.84762 0
M  V30 4079 O 592.742 -2.55232 7.81161 0
M  V30 4080 C 592.582 -3.79939 8.58154 0
M  V30 4081 C 593.122 -4.94023 7.72785 0
M  V30 4082 O 592.066 -5.18726 6.91205 0
M  V30 4083 C 594.34 -4.69597 6.85231 0
M  V30 4084 O 595.078 -5.83832 6.51337 0
M  V30 4085 C 593.671 -3.96706 5.66633 0
M  V30 4086 O 594.47 -4.15414 4.49689 0
M  V30 4087 C 592.334 -4.66153 5.59313 0
M  V30 4088 H 592.366 -5.47679 4.85214 0
M  V30 4089 H 593.549 -2.89008 5.86566 0
M  V30 4090 H 595.033 -4.0121 7.36511 0
M  V30 4091 H 593.339 -5.80182 8.37584 0
M  V30 4092 H 593.149 -3.73517 9.52265 0
M  V30 4093 H 591.519 -3.97163 8.80359 0
M  V30 4094 H 594.158 -4.90969 4.01921 0
M  V30 4095 P 596.015 -5.75688 6.64379 0
M  V30 4096 O 597.437 -6.11849 7.01846 0
M  V30 4097 O 595.655 -4.30744 6.56026 0
M  V30 4098 O 595.692 -6.37042 5.19165 0
M  V30 4099 C 595.532 -7.83578 5.16515 0
M  V30 4100 C 596.072 -8.33398 3.83019 0
M  V30 4101 O 595.016 -8.10074 3.01034 0
M  V30 4102 C 597.29 -7.65514 3.2257 0
M  V30 4103 O 598.028 -8.4329 2.32297 0
M  V30 4104 C 596.621 -6.40075 2.62207 0
M  V30 4105 O 597.42 -5.92589 1.53712 0
M  V30 4106 C 595.284 -6.9454 2.18503 0
M  V30 4107 H 595.316 -7.23063 1.12091 0
M  V30 4108 H 596.499 -5.6025 3.37201 0
M  V30 4109 H 597.983 -7.35707 4.02681 0
M  V30 4110 H 596.289 -9.40912 3.9095 0
M  V30 4111 H 596.099 -8.29056 5.99158 0
M  V30 4112 H 594.469 -8.10073 5.25882 0
M  V30 4113 H 597.108 -6.30324 0.726794 0
M  V30 4114 P 598.966 -8.4349 2.47671 0
M  V30 4115 O 600.367 -8.98227 2.65696 0
M  V30 4116 O 598.588 -7.20409 3.23964 0
M  V30 4117 O 598.643 -8.16496 0.923275 0
M  V30 4118 C 598.483 -9.38437 0.108857 0
M  V30 4119 C 599.023 -9.08076 -1.28339 0
M  V30 4120 O 597.967 -8.44131 -1.84692 0
M  V30 4121 C 600.24 -8.18386 -1.42505 0
M  V30 4122 O 600.979 -8.3501 -2.60497 0
M  V30 4123 C 599.573 -6.80225 -1.25468 0
M  V30 4124 O 600.371 -5.81526 -1.91035 0
M  V30 4125 C 598.235 -7.02416 -1.9168 0
M  V30 4126 N 597.192 -6.31033 -1.20314 0
M  V30 4127 C 596.157 -5.77149 -1.928 0
M  V30 4128 O 596.196 -5.8521 -3.17729 0
M  V30 4129 N 595.145 -5.15445 -1.27997 0
M  V30 4130 C 595.193 -5.04472 0.0534726 0
M  V30 4131 C 596.289 -5.55244 0.808522 0
M  V30 4132 C 597.255 -6.18542 0.13981 0
M  V30 4133 H 598.267 -6.68789 -2.9658 0
M  V30 4134 H 599.45 -6.53498 -0.198729 0
M  V30 4135 H 600.934 -8.36663 -0.5984 0
M  V30 4136 H 599.24 -10.0273 -1.8081 0
M  V30 4137 H 599.049 -10.2138 0.558219 0
M  V30 4138 H 597.419 -9.6569 0.0444156 0
M  V30 4139 H 596.337 -5.43017 1.88792 0
M  V30 4140 H 598.101 -6.60539 0.686773 0
M  V30 4141 H 600.155 -5.79638 -2.8315 0
M  V30 4142 P 601.916 -8.4349 -2.47671 0
M  V30 4143 O 603.338 -8.92593 -2.65 0
M  V30 4144 O 601.556 -7.7568 -1.19296 0
M  V30 4145 O 601.593 -7.36886 -3.63805 0
M  V30 4146 C 601.433 -7.95349 -4.982 0
M  V30 4147 C 601.973 -6.94612 -5.98974 0
M  V30 4148 O 600.917 -6.10347 -6.11815 0
M  V30 4149 C 603.191 -6.11426 -5.62335 0
M  V30 4150 O 603.929 -5.6162 -6.70584 0
M  V30 4151 C 602.522 -5.04409 -4.73308 0
M  V30 4152 O 603.321 -3.85992 -4.75183 0
M  V30 4153 C 601.185 -4.8728 -5.41006 0
M  V30 4154 H 601.217 -4.02333 -6.11157 0
M  V30 4155 H 602.4 -5.39466 -3.69543 0
M  V30 4156 H 603.884 -6.71916 -5.01943 0
M  V30 4157 H 602.19 -7.4649 -6.93477 0
M  V30 4158 H 602 -8.89416 -5.05237 0
M  V30 4159 H 600.37 -8.14876 -5.18409 0
M  V30 4160 H 603.009 -3.27957 -5.4317 0
M  V30 4161 P 604.867 -5.75688 -6.64379 0
M  V30 4162 O 606.289 -6.07627 -7.05504 0
M  V30 4163 O 604.507 -5.88047 -5.19722 0
M  V30 4164 O 604.544 -4.2322 -7.04443 0
M  V30 4165 C 604.384 -3.99743 -8.4911 0
M  V30 4166 C 604.924 -2.60516 -8.79425 0
M  V30 4167 O 603.868 -1.82684 -8.4467 0
M  V30 4168 C 606.142 -2.10343 -8.03628 0
M  V30 4169 O 606.88 -1.09919 -8.67766 0
M  V30 4170 C 605.473 -1.68446 -6.70876 0
M  V30 4171 O 606.272 -0.678137 -6.08433 0
M  V30 4172 C 604.136 -1.17436 -7.18567 0
M  V30 4173 H 604.168 -0.0804732 -7.31656 0
M  V30 4174 H 605.351 -2.54037 -6.02537 0
M  V30 4175 H 606.835 -2.93881 -7.85526 0
M  V30 4176 H 605.141 -2.53065 -9.86973 0
M  V30 4177 H 604.951 -4.75072 -9.05887 0
M  V30 4178 H 603.321 -4.05244 -8.76668 0
M  V30 4179 H 605.96 0.177647 -6.34251 0
M  V30 4180 P 607.817 -1.25109 -8.70152 0
M  V30 4181 O 609.239 -1.29744 -9.22016 0
M  V30 4182 O 607.457 -2.13714 -7.55141 0
M  V30 4183 O 607.494 0.248149 -8.21425 0
M  V30 4184 C 607.334 1.22779 -9.30434 0
M  V30 4185 C 607.874 2.56293 -8.80664 0
M  V30 4186 O 606.818 3.02979 -8.09349 0
M  V30 4187 C 609.092 2.57523 -7.89775 0
M  V30 4188 O 609.83 3.7668 -7.89438 0
M  V30 4189 C 608.423 2.20997 -6.55446 0
M  V30 4190 O 609.222 2.71895 -5.48509 0
M  V30 4191 C 607.086 2.89693 -6.67988 0
M  V30 4192 H 607.118 3.88793 -6.19859 0
M  V30 4193 H 608.301 1.12046 -6.44229 0
M  V30 4194 H 609.785 1.7746 -8.19711 0
M  V30 4195 H 608.091 3.20706 -9.67112 0
M  V30 4196 H 607.901 0.901032 -10.1892 0
M  V30 4197 H 606.271 1.33049 -9.56592 0
M  V30 4198 H 608.91 3.57847 -5.23962 0
M  V30 4199 P 610.768 3.65191 -7.99657 0
M  V30 4200 O 612.19 3.89332 -8.45794 0
M  V30 4201 O 610.408 2.28472 -7.50807 0
M  V30 4202 O 610.445 4.64972 -6.77611 0
M  V30 4203 C 610.285 6.06319 -7.16352 0
M  V30 4204 C 610.825 6.91731 -6.02299 0
M  V30 4205 O 609.769 6.92449 -5.17064 0
M  V30 4206 C 612.043 6.43627 -5.25174 0
M  V30 4207 O 612.781 7.43686 -4.60469 0
M  V30 4208 C 611.374 5.40275 -4.31916 0
M  V30 4209 O 612.173 5.25279 -3.14438 0
M  V30 4210 C 610.037 6.04847 -4.05327 0
M  V30 4211 H 610.069 6.62195 -3.11261 0
M  V30 4212 H 611.252 4.42556 -4.81383 0
M  V30 4213 H 612.736 5.92458 -5.93643 0
M  V30 4214 H 611.042 7.92655 -6.402 0
M  V30 4215 H 610.852 6.26671 -8.0846 0
M  V30 4216 H 609.222 6.29101 -7.32804 0
M  V30 4217 H 611.861 5.84315 -2.47318 0
M  V30 4218 P 613.719 7.39546 -4.75277 0
M  V30 4219 O 615.141 7.84798 -5.01039 0
M  V30 4220 O 613.359 5.9812 -5.08098 0
M  V30 4221 O 613.396 7.57503 -3.1866 0
M  V30 4222 C 613.236 8.97357 -2.74833 0
M  V30 4223 C 613.776 9.07548 -1.32709 0
M  V30 4224 O 612.72 8.62072 -0.606159 0
M  V30 4225 C 614.994 8.25383 -0.938334 0
M  V30 4226 O 615.732 8.74577 0.146954 0
M  V30 4227 C 614.325 6.8802 -0.712559 0
M  V30 4228 O 615.124 6.1189 0.194655 0
M  V30 4229 C 612.988 7.27966 -0.139777 0
M  V30 4230 H 613.02 7.25354 0.961601 0
M  V30 4231 H 614.203 6.32557 -1.65702 0
M  V30 4232 H 615.687 8.19355 -1.79097 0
M  V30 4233 H 613.993 10.1294 -1.10029 0
M  V30 4234 H 613.803 9.64276 -3.41316 0
M  V30 4235 H 612.173 9.25417 -2.76357 0
M  V30 4236 H 614.812 6.25267 1.07847 0
M  V30 4237 P 616.669 8.791 4.14417e-12 0
M  V30 4238 O 618.091 9.31096 0.027933 0
M  V30 4239 O 616.309 7.77869 -1.04071 0
M  V30 4240 O 616.346 8.09533 1.41463 0
M  V30 4241 C 616.186 9.0349 2.53943 0
M  V30 4242 C 616.726 8.35226 3.79016 0
M  V30 4243 O 615.67 7.57992 4.15078 0
M  V30 4244 C 617.944 7.45087 3.67298 0
M  V30 4245 O 618.682 7.27796 4.85194 0
M  V30 4246 C 617.275 6.17323 3.12027 0
M  V30 4247 O 618.074 5.04231 3.47188 0
M  V30 4248 C 615.938 6.19961 3.81809 0
M  V30 4249 H 615.97 5.58218 4.73051 0
M  V30 4250 H 617.153 6.21726 2.02589 0
M  V30 4251 H 618.637 7.86112 2.9231 0
M  V30 4252 H 616.943 9.11627 4.55076 0
M  V30 4253 H 616.753 9.9573 2.34194 0
M  V30 4254 H 615.123 9.2792 2.67832 0
M  V30 4255 H 617.762 4.67702 4.28772 0
M  V30 4256 P 619.62 7.39546 4.75277 0
M  V30 4257 O 621.042 7.81777 5.05738 0
M  V30 4258 O 619.26 7.1065 3.32998 0
M  V30 4259 O 619.297 6.04542 5.56673 0
M  V30 4260 C 619.137 6.22772 7.02095 0
M  V30 4261 C 619.677 4.97725 7.70406 0
M  V30 4262 O 618.621 4.13256 7.58987 0
M  V30 4263 C 620.895 4.28231 7.11815 0
M  V30 4264 O 621.633 3.49945 8.01648 0
M  V30 4265 C 620.226 3.5063 5.96244 0
M  V30 4266 O 621.025 2.36482 5.64681 0
M  V30 4267 C 618.889 3.15122 6.56374 0
M  V30 4268 H 618.921 2.13853 6.99751 0
M  V30 4269 H 620.104 4.13501 5.06559 0
M  V30 4270 H 621.588 5.03285 6.70911 0
M  V30 4271 H 619.894 5.20877 8.75697 0
M  V30 4272 H 619.704 7.11046 7.35349 0
M  V30 4273 H 618.074 6.35815 7.26986 0
M  V30 4274 H 620.713 1.61644 6.13565 0
M  V30 4275 P 622.57 3.65191 7.99657 0
M  V30 4276 O 623.992 3.8425 8.48115 0
M  V30 4277 O 622.21 4.17805 6.64342 0
M  V30 4278 O 622.247 2.07613 7.95143 0
M  V30 4279 C 622.087 1.44328 9.27336 0
M  V30 4280 C 622.627 0.0220036 9.17197 0
M  V30 4281 O 621.571 -0.626867 8.61923 0
M  V30 4282 C 623.845 -0.24586 8.30336 0
M  V30 4283 O 624.583 -1.39011 8.63583 0
M  V30 4284 C 623.176 -0.273849 6.91158 0
M  V30 4285 O 623.975 -1.06348 6.02892 0
M  V30 4286 C 621.839 -0.897649 7.22545 0
M  V30 4287 H 621.871 -1.9841 7.04286 0
M  V30 4288 H 623.054 0.739928 6.497 0
M  V30 4289 H 624.538 0.60668 8.36503 0
M  V30 4290 H 622.844 -0.352479 10.1829 0
M  V30 4291 H 622.654 2.00611 10.0304 0
M  V30 4292 H 621.024 1.41843 9.55327 0
M  V30 4293 H 623.663 -1.95734 6.03555 0
M  V30 4294 P 625.521 -1.25109 8.70152 0
M  V30 4295 O 626.943 -1.35274 9.21221 0
M  V30 4296 O 625.161 -0.0769065 7.84762 0
M  V30 4297 O 625.198 -2.55232 7.81161 0
M  V30 4298 C 625.038 -3.79939 8.58154 0
M  V30 4299 C 625.578 -4.94023 7.72785 0
M  V30 4300 O 624.522 -5.18726 6.91205 0
M  V30 4301 C 626.796 -4.69597 6.85231 0
M  V30 4302 O 627.534 -5.83832 6.51337 0
M  V30 4303 C 626.127 -3.96706 5.66633 0
M  V30 4304 O 626.926 -4.15414 4.49689 0
M  V30 4305 C 624.79 -4.66153 5.59313 0
M  V30 4306 H 624.822 -5.47679 4.85214 0
M  V30 4307 H 626.005 -2.89008 5.86566 0
M  V30 4308 H 627.489 -4.0121 7.36511 0
M  V30 4309 H 625.795 -5.80182 8.37584 0
M  V30 4310 H 625.605 -3.73517 9.52265 0
M  V30 4311 H 623.975 -3.97163 8.80359 0
M  V30 4312 H 626.614 -4.90969 4.01921 0
M  V30 4313 P 628.471 -5.75688 6.64379 0
M  V30 4314 O 629.893 -6.11849 7.01846 0
M  V30 4315 O 628.111 -4.30744 6.56026 0
M  V30 4316 O 628.148 -6.37042 5.19165 0
M  V30 4317 C 627.988 -7.83578 5.16515 0
M  V30 4318 C 628.528 -8.33398 3.83019 0
M  V30 4319 O 627.472 -8.10074 3.01034 0
M  V30 4320 C 629.746 -7.65514 3.2257 0
M  V30 4321 O 630.484 -8.4329 2.32297 0
M  V30 4322 C 629.077 -6.40075 2.62207 0
M  V30 4323 O 629.876 -5.92589 1.53712 0
M  V30 4324 C 627.74 -6.9454 2.18503 0
M  V30 4325 H 627.772 -7.23063 1.12091 0
M  V30 4326 H 628.955 -5.6025 3.37201 0
M  V30 4327 H 630.439 -7.35707 4.02681 0
M  V30 4328 H 628.745 -9.40912 3.9095 0
M  V30 4329 H 628.555 -8.29056 5.99158 0
M  V30 4330 H 626.925 -8.10073 5.25882 0
M  V30 4331 H 629.564 -6.30324 0.726794 0
M  V30 4332 P 631.422 -8.4349 2.47671 0
M  V30 4333 O 632.844 -8.94167 2.5964 0
M  V30 4334 O 631.062 -7.1704 3.19006 0
M  V30 4335 O 631.099 -8.16596 0.923387 0
M  V30 4336 C 630.939 -9.38437 0.108857 0
M  V30 4337 C 631.479 -9.08175 -1.28353 0
M  V30 4338 O 630.423 -8.44229 -1.84713 0
M  V30 4339 C 632.697 -8.18386 -1.42505 0
M  V30 4340 O 633.435 -8.3501 -2.60497 0
M  V30 4341 C 632.028 -6.80225 -1.25468 0
M  V30 4342 O 632.827 -5.81621 -1.91066 0
M  V30 4343 C 630.691 -7.02416 -1.9168 0
M  V30 4344 H 630.723 -6.6888 -2.96621 0
M  V30 4345 H 631.906 -6.53617 -0.192223 0
M  V30 4346 H 633.39 -8.36622 -0.589963 0
M  V30 4347 H 631.696 -10.0291 -1.79807 0
M  V30 4348 H 631.506 -10.2138 0.558219 0
M  V30 4349 H 629.876 -9.6579 0.0444202 0
M  V30 4350 H 632.515 -5.69556 -2.79637 0
M  V30 4351 P 634.373 -8.4349 -2.47671 0
M  V30 4352 O 635.795 -8.92593 -2.65 0
M  V30 4353 O 634.013 -7.7568 -1.19296 0
M  V30 4354 O 634.05 -7.36886 -3.63805 0
M  V30 4355 C 633.89 -7.95349 -4.982 0
M  V30 4356 C 634.43 -6.94612 -5.98974 0
M  V30 4357 O 633.374 -6.10347 -6.11815 0
M  V30 4358 C 635.648 -6.11426 -5.62335 0
M  V30 4359 O 636.386 -5.6162 -6.70584 0
M  V30 4360 C 634.979 -5.04409 -4.73308 0
M  V30 4361 O 635.778 -3.85992 -4.75183 0
M  V30 4362 C 633.642 -4.8728 -5.41006 0
M  V30 4363 H 633.674 -4.02333 -6.11157 0
M  V30 4364 H 634.857 -5.39466 -3.69543 0
M  V30 4365 H 636.341 -6.71916 -5.01943 0
M  V30 4366 H 634.647 -7.4649 -6.93477 0
M  V30 4367 H 634.457 -8.89416 -5.05237 0
M  V30 4368 H 632.827 -8.14876 -5.18409 0
M  V30 4369 H 635.466 -3.27957 -5.4317 0
M  V30 4370 P 637.323 -5.75688 -6.64379 0
M  V30 4371 O 638.745 -6.07627 -7.05504 0
M  V30 4372 O 636.963 -5.88047 -5.19722 0
M  V30 4373 O 637 -4.2322 -7.04443 0
M  V30 4374 C 636.84 -3.99743 -8.4911 0
M  V30 4375 C 637.38 -2.60516 -8.79425 0
M  V30 4376 O 636.324 -1.82684 -8.4467 0
M  V30 4377 C 638.598 -2.10343 -8.03628 0
M  V30 4378 O 639.336 -1.09919 -8.67766 0
M  V30 4379 C 637.929 -1.68446 -6.70876 0
M  V30 4380 O 638.728 -0.678137 -6.08433 0
M  V30 4381 C 636.592 -1.17436 -7.18567 0
M  V30 4382 H 636.624 -0.0804732 -7.31656 0
M  V30 4383 H 637.807 -2.54037 -6.02537 0
M  V30 4384 H 639.291 -2.93881 -7.85526 0
M  V30 4385 H 637.597 -2.53065 -9.86973 0
M  V30 4386 H 637.407 -4.75072 -9.05887 0
M  V30 4387 H 635.777 -4.05244 -8.76668 0
M  V30 4388 H 638.416 0.177647 -6.34251 0
M  V30 4389 P 640.274 -1.25109 -8.70152 0
M  V30 4390 O 641.696 -1.29744 -9.22016 0
M  V30 4391 O 639.914 -2.13714 -7.55141 0
M  V30 4392 O 639.951 0.248149 -8.21425 0
M  V30 4393 C 639.791 1.22779 -9.30434 0
M  V30 4394 C 640.331 2.56293 -8.80664 0
M  V30 4395 O 639.275 3.02979 -8.09349 0
M  V30 4396 C 641.549 2.57523 -7.89775 0
M  V30 4397 O 642.287 3.7668 -7.89438 0
M  V30 4398 C 640.88 2.20997 -6.55446 0
M  V30 4399 O 641.679 2.71895 -5.48509 0
M  V30 4400 C 639.543 2.89693 -6.67988 0
M  V30 4401 H 639.575 3.88793 -6.19859 0
M  V30 4402 H 640.758 1.12046 -6.44229 0
M  V30 4403 H 642.242 1.7746 -8.19711 0
M  V30 4404 H 640.548 3.20706 -9.67112 0
M  V30 4405 H 640.358 0.901032 -10.1892 0
M  V30 4406 H 638.728 1.33049 -9.56592 0
M  V30 4407 H 641.367 3.57847 -5.23962 0
M  V30 4408 P 643.224 3.65191 -7.99657 0
M  V30 4409 O 644.625 3.87414 -8.52829 0
M  V30 4410 O 642.846 2.26932 -7.566 0
M  V30 4411 O 642.901 4.64915 -6.77529 0
M  V30 4412 C 642.741 6.06319 -7.16352 0
M  V30 4413 C 643.281 6.91655 -6.02234 0
M  V30 4414 O 642.225 6.92369 -5.17005 0
M  V30 4415 C 644.498 6.43627 -5.25174 0
M  V30 4416 O 645.237 7.43686 -4.60469 0
M  V30 4417 C 643.831 5.40275 -4.31916 0
M  V30 4418 O 644.629 5.25193 -3.14386 0
M  V30 4419 C 642.493 6.04847 -4.05327 0
M  V30 4420 N 641.45 5.04166 -3.98114 0
M  V30 4421 C 640.415 5.2366 -3.09923 0
M  V30 4422 O 640.454 6.23355 -2.34204 0
M  V30 4423 N 639.403 4.34279 -3.05727 0
M  V30 4424 C 639.451 3.26317 -3.84756 0
M  V30 4425 C 640.547 3.02504 -4.72573 0
M  V30 4426 C 641.513 3.94493 -4.76618 0
M  V30 4427 H 642.525 6.62104 -3.11218 0
M  V30 4428 H 643.708 4.42969 -4.80867 0
M  V30 4429 H 645.192 5.93122 -5.93121 0
M  V30 4430 H 643.498 7.93295 -6.39407 0
M  V30 4431 H 643.307 6.26671 -8.0846 0
M  V30 4432 H 641.677 6.29036 -7.32728 0
M  V30 4433 H 640.595 2.12921 -5.34017 0
M  V30 4434 H 642.359 3.80658 -5.44176 0
M  V30 4435 H 644.413 5.93572 -2.52637 0
M  V30 4436 P 646.175 7.39546 -4.75277 0
M  V30 4437 O 647.597 7.84798 -5.01039 0
M  V30 4438 O 645.815 5.9812 -5.08098 0
M  V30 4439 O 645.852 7.57503 -3.1866 0
M  V30 4440 C 645.692 8.97357 -2.74833 0
M  V30 4441 C 646.232 9.07548 -1.32709 0
M  V30 4442 O 645.176 8.62072 -0.606159 0
M  V30 4443 C 647.45 8.25383 -0.938334 0
M  V30 4444 O 648.188 8.74577 0.146954 0
M  V30 4445 C 646.781 6.8802 -0.712559 0
M  V30 4446 O 647.58 6.1189 0.194655 0
M  V30 4447 C 645.444 7.27966 -0.139777 0
M  V30 4448 H 645.476 7.25354 0.961601 0
M  V30 4449 H 646.659 6.32557 -1.65702 0
M  V30 4450 H 648.143 8.19355 -1.79097 0
M  V30 4451 H 646.449 10.1294 -1.10029 0
M  V30 4452 H 646.259 9.64276 -3.41316 0
M  V30 4453 H 644.629 9.25417 -2.76357 0
M  V30 4454 H 647.268 6.25267 1.07847 0
M  V30 4455 P 649.125 8.791 4.45433e-12 0
M  V30 4456 O 650.547 9.31096 0.027933 0
M  V30 4457 O 648.765 7.77869 -1.04071 0
M  V30 4458 O 648.802 8.09533 1.41463 0
M  V30 4459 C 648.642 9.0349 2.53943 0
M  V30 4460 C 649.182 8.35226 3.79016 0
M  V30 4461 O 648.126 7.57992 4.15078 0
M  V30 4462 C 650.4 7.45087 3.67298 0
M  V30 4463 O 651.138 7.27796 4.85194 0
M  V30 4464 C 649.731 6.17323 3.12027 0
M  V30 4465 O 650.53 5.04231 3.47188 0
M  V30 4466 C 648.394 6.19961 3.81809 0
M  V30 4467 H 648.426 5.58218 4.73051 0
M  V30 4468 H 649.609 6.21726 2.02589 0
M  V30 4469 H 651.093 7.86112 2.9231 0
M  V30 4470 H 649.399 9.11627 4.55076 0
M  V30 4471 H 649.209 9.9573 2.34194 0
M  V30 4472 H 647.579 9.2792 2.67832 0
M  V30 4473 H 650.218 4.67702 4.28772 0
M  V30 4474 P 652.076 7.39546 4.75277 0
M  V30 4475 O 653.498 7.81777 5.05738 0
M  V30 4476 O 651.716 7.1065 3.32998 0
M  V30 4477 O 651.753 6.04542 5.56673 0
M  V30 4478 C 651.593 6.22772 7.02095 0
M  V30 4479 C 652.133 4.97725 7.70406 0
M  V30 4480 O 651.077 4.13256 7.58987 0
M  V30 4481 C 653.351 4.28231 7.11815 0
M  V30 4482 O 654.089 3.49945 8.01648 0
M  V30 4483 C 652.682 3.5063 5.96244 0
M  V30 4484 O 653.481 2.36482 5.64681 0
M  V30 4485 C 651.345 3.15122 6.56374 0
M  V30 4486 H 651.377 2.13853 6.99751 0
M  V30 4487 H 652.56 4.13501 5.06559 0
M  V30 4488 H 654.044 5.03285 6.70911 0
M  V30 4489 H 652.35 5.20877 8.75697 0
M  V30 4490 H 652.16 7.11046 7.35349 0
M  V30 4491 H 650.53 6.35815 7.26986 0
M  V30 4492 H 653.169 1.61644 6.13565 0
M  V30 4493 P 655.027 3.65191 7.99657 0
M  V30 4494 O 656.449 3.8425 8.48115 0
M  V30 4495 O 654.667 4.17805 6.64342 0
M  V30 4496 O 654.704 2.07613 7.95143 0
M  V30 4497 C 654.544 1.44328 9.27336 0
M  V30 4498 C 655.084 0.0220036 9.17197 0
M  V30 4499 O 654.028 -0.626867 8.61923 0
M  V30 4500 C 656.302 -0.24586 8.30336 0
M  V30 4501 O 657.04 -1.39011 8.63583 0
M  V30 4502 C 655.633 -0.273849 6.91158 0
M  V30 4503 O 656.432 -1.06348 6.02892 0
M  V30 4504 C 654.296 -0.897649 7.22545 0
M  V30 4505 H 654.328 -1.9841 7.04286 0
M  V30 4506 H 655.511 0.739928 6.497 0
M  V30 4507 H 656.995 0.60668 8.36503 0
M  V30 4508 H 655.301 -0.352479 10.1829 0
M  V30 4509 H 655.111 2.00611 10.0304 0
M  V30 4510 H 653.481 1.41843 9.55327 0
M  V30 4511 H 656.12 -1.95734 6.03555 0
M  V30 4512 P 657.977 -1.25109 8.70152 0
M  V30 4513 O 659.399 -1.35274 9.21221 0
M  V30 4514 O 657.617 -0.0769065 7.84762 0
M  V30 4515 O 657.654 -2.55232 7.81161 0
M  V30 4516 C 657.494 -3.79939 8.58154 0
M  V30 4517 C 658.034 -4.94023 7.72785 0
M  V30 4518 O 656.978 -5.18726 6.91205 0
M  V30 4519 C 659.252 -4.69597 6.85231 0
M  V30 4520 O 659.99 -5.83832 6.51337 0
M  V30 4521 C 658.583 -3.96706 5.66633 0
M  V30 4522 O 659.382 -4.15414 4.49689 0
M  V30 4523 C 657.246 -4.66153 5.59313 0
M  V30 4524 H 657.278 -5.47679 4.85214 0
M  V30 4525 H 658.461 -2.89008 5.86566 0
M  V30 4526 H 659.945 -4.0121 7.36511 0
M  V30 4527 H 658.251 -5.80182 8.37584 0
M  V30 4528 H 658.061 -3.73517 9.52265 0
M  V30 4529 H 656.431 -3.97163 8.80359 0
M  V30 4530 H 659.07 -4.90969 4.01921 0
M  V30 4531 P 660.928 -5.75688 6.64379 0
M  V30 4532 O 662.35 -6.11849 7.01846 0
M  V30 4533 O 660.568 -4.30744 6.56026 0
M  V30 4534 O 660.605 -6.37042 5.19165 0
M  V30 4535 C 660.445 -7.83578 5.16515 0
M  V30 4536 C 660.985 -8.33398 3.83019 0
M  V30 4537 O 659.929 -8.10074 3.01034 0
M  V30 4538 C 662.203 -7.65514 3.2257 0
M  V30 4539 O 662.941 -8.4329 2.32297 0
M  V30 4540 C 661.534 -6.40075 2.62207 0
M  V30 4541 O 662.333 -5.92589 1.53712 0
M  V30 4542 C 660.197 -6.9454 2.18503 0
M  V30 4543 H 660.229 -7.23063 1.12091 0
M  V30 4544 H 661.412 -5.6025 3.37201 0
M  V30 4545 H 662.896 -7.35707 4.02681 0
M  V30 4546 H 661.202 -9.40912 3.9095 0
M  V30 4547 H 661.012 -8.29056 5.99158 0
M  V30 4548 H 659.382 -8.10073 5.25882 0
M  V30 4549 H 662.021 -6.30324 0.726794 0
M  V30 4550 P 663.878 -8.4349 2.47671 0
M  V30 4551 O 665.279 -8.98227 2.65696 0
M  V30 4552 O 663.5 -7.20409 3.23964 0
M  V30 4553 O 663.555 -8.16496 0.923275 0
M  V30 4554 C 663.395 -9.38437 0.108857 0
M  V30 4555 C 663.935 -9.08076 -1.28339 0
M  V30 4556 O 662.879 -8.44131 -1.84692 0
M  V30 4557 C 665.152 -8.18386 -1.42505 0
M  V30 4558 O 665.891 -8.3501 -2.60497 0
M  V30 4559 C 664.485 -6.80225 -1.25468 0
M  V30 4560 O 665.283 -5.81526 -1.91035 0
M  V30 4561 C 663.147 -7.02416 -1.9168 0
M  V30 4562 N 662.104 -6.31033 -1.20314 0
M  V30 4563 C 661.069 -5.77149 -1.928 0
M  V30 4564 O 661.108 -5.8521 -3.17729 0
M  V30 4565 N 660.057 -5.15445 -1.27997 0
M  V30 4566 C 660.105 -5.04472 0.0534726 0
M  V30 4567 C 661.201 -5.55244 0.808522 0
M  V30 4568 C 662.167 -6.18542 0.13981 0
M  V30 4569 H 663.179 -6.68789 -2.9658 0
M  V30 4570 H 664.362 -6.53498 -0.198729 0
M  V30 4571 H 665.846 -8.36663 -0.5984 0
M  V30 4572 H 664.152 -10.0273 -1.8081 0
M  V30 4573 H 663.961 -10.2138 0.558219 0
M  V30 4574 H 662.331 -9.6569 0.0444156 0
M  V30 4575 H 661.249 -5.43017 1.88792 0
M  V30 4576 H 663.013 -6.60539 0.686773 0
M  V30 4577 H 665.067 -5.79638 -2.8315 0
M  V30 4578 P 666.829 -8.4349 -2.47671 0
M  V30 4579 O 668.251 -8.92593 -2.65 0
M  V30 4580 O 666.469 -7.7568 -1.19296 0
M  V30 4581 O 666.506 -7.36886 -3.63805 0
M  V30 4582 C 666.346 -7.95349 -4.982 0
M  V30 4583 C 666.886 -6.94612 -5.98974 0
M  V30 4584 O 665.83 -6.10347 -6.11815 0
M  V30 4585 C 668.104 -6.11426 -5.62335 0
M  V30 4586 O 668.842 -5.6162 -6.70584 0
M  V30 4587 C 667.435 -5.04409 -4.73308 0
M  V30 4588 O 668.234 -3.85992 -4.75183 0
M  V30 4589 C 666.098 -4.8728 -5.41006 0
M  V30 4590 H 666.13 -4.02333 -6.11157 0
M  V30 4591 H 667.313 -5.39466 -3.69543 0
M  V30 4592 H 668.797 -6.71916 -5.01943 0
M  V30 4593 H 667.103 -7.4649 -6.93477 0
M  V30 4594 H 666.913 -8.89416 -5.05237 0
M  V30 4595 H 665.283 -8.14876 -5.18409 0
M  V30 4596 H 667.922 -3.27957 -5.4317 0
M  V30 4597 P 669.779 -5.75688 -6.64379 0
M  V30 4598 O 671.201 -6.07627 -7.05504 0
M  V30 4599 O 669.419 -5.88047 -5.19722 0
M  V30 4600 O 669.456 -4.2322 -7.04443 0
M  V30 4601 C 669.296 -3.99743 -8.4911 0
M  V30 4602 C 669.836 -2.60516 -8.79425 0
M  V30 4603 O 668.78 -1.82684 -8.4467 0
M  V30 4604 C 671.054 -2.10343 -8.03628 0
M  V30 4605 O 671.792 -1.09919 -8.67766 0
M  V30 4606 C 670.385 -1.68446 -6.70876 0
M  V30 4607 O 671.184 -0.678137 -6.08433 0
M  V30 4608 C 669.048 -1.17436 -7.18567 0
M  V30 4609 H 669.08 -0.0804732 -7.31656 0
M  V30 4610 H 670.263 -2.54037 -6.02537 0
M  V30 4611 H 671.747 -2.93881 -7.85526 0
M  V30 4612 H 670.053 -2.53065 -9.86973 0
M  V30 4613 H 669.863 -4.75072 -9.05887 0
M  V30 4614 H 668.233 -4.05244 -8.76668 0
M  V30 4615 H 670.872 0.177647 -6.34251 0
M  V30 4616 P 672.73 -1.25109 -8.70152 0
M  V30 4617 O 674.152 -1.29744 -9.22016 0
M  V30 4618 O 672.37 -2.13714 -7.55141 0
M  V30 4619 O 672.407 0.248149 -8.21425 0
M  V30 4620 C 672.247 1.22779 -9.30434 0
M  V30 4621 C 672.787 2.56293 -8.80664 0
M  V30 4622 O 671.731 3.02979 -8.09349 0
M  V30 4623 C 674.005 2.57523 -7.89775 0
M  V30 4624 O 674.743 3.7668 -7.89438 0
M  V30 4625 C 673.336 2.20997 -6.55446 0
M  V30 4626 O 674.135 2.71895 -5.48509 0
M  V30 4627 C 671.999 2.89693 -6.67988 0
M  V30 4628 H 672.031 3.88793 -6.19859 0
M  V30 4629 H 673.214 1.12046 -6.44229 0
M  V30 4630 H 674.698 1.7746 -8.19711 0
M  V30 4631 H 673.004 3.20706 -9.67112 0
M  V30 4632 H 672.814 0.901032 -10.1892 0
M  V30 4633 H 671.184 1.33049 -9.56592 0
M  V30 4634 H 673.823 3.57847 -5.23962 0
M  V30 4635 P 675.681 3.65191 -7.99657 0
M  V30 4636 O 677.102 3.89374 -8.45885 0
M  V30 4637 O 675.321 2.28472 -7.50807 0
M  V30 4638 O 675.358 4.64972 -6.77611 0
M  V30 4639 C 675.197 6.06383 -7.16428 0
M  V30 4640 C 675.738 6.91731 -6.02299 0
M  V30 4641 O 674.683 6.92369 -5.17005 0
M  V30 4642 C 676.956 6.43627 -5.25174 0
M  V30 4643 O 677.694 7.43686 -4.60469 0
M  V30 4644 C 676.288 5.40275 -4.31916 0
M  V30 4645 O 677.086 5.24878 -3.14911 0
M  V30 4646 C 674.95 6.04847 -4.05327 0
M  V30 4647 N 673.907 5.04166 -3.98114 0
M  V30 4648 C 674.076 3.84629 -4.59066 0
M  V30 4649 N 673.049 3.0363 -4.45343 0
M  V30 4650 C 672.164 3.76722 -3.68523 0
M  V30 4651 C 670.897 3.43528 -3.17088 0
M  V30 4652 N 670.298 2.23665 -3.37397 0
M  V30 4653 N 670.332 4.44526 -2.44231 0
M  V30 4654 C 670.934 5.65243 -2.20146 0
M  V30 4655 N 672.111 6.00221 -2.65453 0
M  V30 4656 C 672.686 5.00564 -3.39083 0
M  V30 4657 H 674.982 6.62104 -3.11218 0
M  V30 4658 H 676.165 4.42969 -4.80867 0
M  V30 4659 H 677.648 5.92458 -5.93643 0
M  V30 4660 H 675.954 7.93295 -6.39407 0
M  V30 4661 H 675.764 6.26671 -8.0846 0
M  V30 4662 H 674.134 6.29101 -7.32804 0
M  V30 4663 H 670.398 6.36894 -1.5883 0
M  V30 4664 H 674.976 3.58193 -5.14248 0
M  V30 4665 H 669.368 2.05145 -2.97047 0
M  V30 4666 H 670.772 1.51255 -3.92998 0
M  V30 4667 H 676.774 5.84223 -2.47279 0
M  V30 4668 P 678.631 7.39546 -4.75277 0
M  V30 4669 O 680.053 7.84798 -5.01039 0
M  V30 4670 O 678.271 5.9812 -5.08098 0
M  V30 4671 O 678.308 7.57503 -3.1866 0
M  V30 4672 C 678.148 8.97357 -2.74833 0
M  V30 4673 C 678.688 9.07548 -1.32709 0
M  V30 4674 O 677.632 8.62072 -0.606159 0
M  V30 4675 C 679.906 8.25383 -0.938334 0
M  V30 4676 O 680.644 8.74577 0.146954 0
M  V30 4677 C 679.237 6.8802 -0.712559 0
M  V30 4678 O 680.036 6.1189 0.194655 0
M  V30 4679 C 677.9 7.27966 -0.139777 0
M  V30 4680 H 677.932 7.25354 0.961601 0
M  V30 4681 H 679.115 6.32557 -1.65702 0
M  V30 4682 H 680.599 8.19355 -1.79097 0
M  V30 4683 H 678.905 10.1294 -1.10029 0
M  V30 4684 H 678.715 9.64276 -3.41316 0
M  V30 4685 H 677.085 9.25417 -2.76357 0
M  V30 4686 H 679.724 6.25267 1.07847 0
M  V30 4687 P 681.582 8.791 4.7645e-12 0
M  V30 4688 O 683.004 9.31096 0.027933 0
M  V30 4689 O 681.222 7.77869 -1.04071 0
M  V30 4690 O 681.259 8.09533 1.41463 0
M  V30 4691 C 681.099 9.0349 2.53943 0
M  V30 4692 C 681.639 8.35226 3.79016 0
M  V30 4693 O 680.583 7.57992 4.15078 0
M  V30 4694 C 682.857 7.45087 3.67298 0
M  V30 4695 O 683.595 7.27796 4.85194 0
M  V30 4696 C 682.188 6.17323 3.12027 0
M  V30 4697 O 682.987 5.04231 3.47188 0
M  V30 4698 C 680.851 6.19961 3.81809 0
M  V30 4699 H 680.883 5.58218 4.73051 0
M  V30 4700 H 682.066 6.21726 2.02589 0
M  V30 4701 H 683.55 7.86112 2.9231 0
M  V30 4702 H 681.856 9.11627 4.55076 0
M  V30 4703 H 681.666 9.9573 2.34194 0
M  V30 4704 H 680.036 9.2792 2.67832 0
M  V30 4705 H 682.675 4.67702 4.28772 0
M  V30 4706 P 684.532 7.39546 4.75277 0
M  V30 4707 O 685.933 7.89013 5.04841 0
M  V30 4708 O 684.154 7.16603 3.32298 0
M  V30 4709 O 684.209 6.04468 5.56605 0
M  V30 4710 C 684.049 6.22772 7.02095 0
M  V30 4711 C 684.589 4.97671 7.70322 0
M  V30 4712 O 683.533 4.13208 7.58899 0
M  V30 4713 C 685.806 4.28231 7.11815 0
M  V30 4714 O 686.545 3.49945 8.01648 0
M  V30 4715 C 685.139 3.5063 5.96244 0
M  V30 4716 O 685.937 2.36443 5.64589 0
M  V30 4717 C 683.801 3.15122 6.56374 0
M  V30 4718 N 682.758 3.22311 5.55692 0
M  V30 4719 C 681.723 2.32244 5.62437 0
M  V30 4720 O 681.762 1.43107 6.50341 0
M  V30 4721 N 680.711 2.40811 4.73368 0
M  V30 4722 C 680.759 3.344 3.77753 0
M  V30 4723 C 681.855 4.24712 3.66679 0
M  V30 4724 C 682.821 4.15625 4.58307 0
M  V30 4725 H 683.833 2.13823 6.99656 0
M  V30 4726 H 685.016 4.12931 5.06895 0
M  V30 4727 H 686.5 5.02674 6.71494 0
M  V30 4728 H 684.806 5.20001 8.76217 0
M  V30 4729 H 684.615 7.11046 7.35349 0
M  V30 4730 H 682.985 6.35749 7.26911 0
M  V30 4731 H 681.903 4.9828 2.86753 0
M  V30 4732 H 683.667 4.84464 4.54228 0
M  V30 4733 H 685.721 1.65592 6.23485 0
M  V30 4734 P 687.483 3.65191 7.99657 0
M  V30 4735 O 688.905 3.8425 8.48115 0
M  V30 4736 O 687.123 4.17805 6.64342 0
M  V30 4737 O 687.16 2.07613 7.95143 0
M  V30 4738 C 687 1.44328 9.27336 0
M  V30 4739 C 687.54 0.0220036 9.17197 0
M  V30 4740 O 686.484 -0.626867 8.61923 0
M  V30 4741 C 688.758 -0.24586 8.30336 0
M  V30 4742 O 689.496 -1.39011 8.63583 0
M  V30 4743 C 688.089 -0.273849 6.91158 0
M  V30 4744 O 688.888 -1.06348 6.02892 0
M  V30 4745 C 686.752 -0.897649 7.22545 0
M  V30 4746 H 686.784 -1.9841 7.04286 0
M  V30 4747 H 687.967 0.739928 6.497 0
M  V30 4748 H 689.451 0.60668 8.36503 0
M  V30 4749 H 687.757 -0.352479 10.1829 0
M  V30 4750 H 687.567 2.00611 10.0304 0
M  V30 4751 H 685.937 1.41843 9.55327 0
M  V30 4752 H 688.576 -1.95734 6.03555 0
M  V30 4753 P 690.433 -1.25109 8.70152 0
M  V30 4754 O 691.855 -1.35274 9.21221 0
M  V30 4755 O 690.073 -0.0769065 7.84762 0
M  V30 4756 O 690.11 -2.55232 7.81161 0
M  V30 4757 C 689.95 -3.79939 8.58154 0
M  V30 4758 C 690.49 -4.94023 7.72785 0
M  V30 4759 O 689.434 -5.18726 6.91205 0
M  V30 4760 C 691.708 -4.69597 6.85231 0
M  V30 4761 O 692.446 -5.83832 6.51337 0
M  V30 4762 C 691.039 -3.96706 5.66633 0
M  V30 4763 O 691.838 -4.15414 4.49689 0
M  V30 4764 C 689.702 -4.66153 5.59313 0
M  V30 4765 H 689.734 -5.47679 4.85214 0
M  V30 4766 H 690.917 -2.89008 5.86566 0
M  V30 4767 H 692.401 -4.0121 7.36511 0
M  V30 4768 H 690.707 -5.80182 8.37584 0
M  V30 4769 H 690.517 -3.73517 9.52265 0
M  V30 4770 H 688.887 -3.97163 8.80359 0
M  V30 4771 H 691.526 -4.90969 4.01921 0
M  V30 4772 P 693.384 -5.75688 6.64379 0
M  V30 4773 O 694.806 -6.11981 7.01997 0
M  V30 4774 O 693.024 -4.30744 6.56026 0
M  V30 4775 O 693.061 -6.37042 5.19165 0
M  V30 4776 C 692.901 -7.83578 5.16515 0
M  V30 4777 C 693.441 -8.33307 3.82977 0
M  V30 4778 O 692.386 -8.10074 3.01034 0
M  V30 4779 C 694.659 -7.65514 3.2257 0
M  V30 4780 O 695.397 -8.4329 2.32297 0
M  V30 4781 C 693.991 -6.40075 2.62207 0
M  V30 4782 O 694.789 -5.92492 1.53687 0
M  V30 4783 C 692.653 -6.9454 2.18503 0
M  V30 4784 N 691.61 -5.95905 2.39948 0
M  V30 4785 C 691.672 -5.13994 3.44742 0
M  V30 4786 N 690.627 -4.30684 3.46712 0
M  V30 4787 C 689.893 -4.65583 2.41086 0
M  V30 4788 C 688.587 -4.20877 1.99581 0
M  V30 4789 O 687.854 -3.35913 2.52616 0
M  V30 4790 N 688.157 -4.83271 0.873406 0
M  V30 4791 C 688.906 -5.82006 0.185129 0
M  V30 4792 N 688.309 -6.30619 -0.95439 0
M  V30 4793 N 690.059 -6.28443 0.578524 0
M  V30 4794 C 690.516 -5.68486 1.70138 0
M  V30 4795 H 692.685 -7.23063 1.12091 0
M  V30 4796 H 693.868 -5.60165 3.3715 0
M  V30 4797 H 695.353 -7.3611 4.01946 0
M  V30 4798 H 693.658 -9.40912 3.9095 0
M  V30 4799 H 693.468 -8.29056 5.99158 0
M  V30 4800 H 691.837 -8.10073 5.25882 0
M  V30 4801 H 687.261 -4.58323 0.505262 0
M  V30 4802 H 692.468 -5.14564 4.1935 0
M  V30 4803 H 687.398 -5.93402 -1.25364 0
M  V30 4804 H 688.774 -7.0425 -1.50254 0
M  V30 4805 H 694.478 -6.30224 0.72668 0
M  V30 4806 P 696.335 -8.4349 2.47671 0
M  V30 4807 O 697.757 -8.94167 2.5964 0
M  V30 4808 O 695.975 -7.1704 3.19006 0
M  V30 4809 O 696.012 -8.16596 0.923387 0
M  V30 4810 C 695.852 -9.38437 0.108857 0
M  V30 4811 C 696.392 -9.08175 -1.28353 0
M  V30 4812 O 695.336 -8.44229 -1.84713 0
M  V30 4813 C 697.61 -8.18386 -1.42505 0
M  V30 4814 O 698.348 -8.3501 -2.60497 0
M  V30 4815 C 696.941 -6.80225 -1.25468 0
M  V30 4816 O 697.74 -5.81621 -1.91066 0
M  V30 4817 C 695.604 -7.02416 -1.9168 0
M  V30 4818 H 695.636 -6.6888 -2.96621 0
M  V30 4819 H 696.819 -6.53617 -0.192223 0
M  V30 4820 H 698.303 -8.36622 -0.589963 0
M  V30 4821 H 696.609 -10.0291 -1.79807 0
M  V30 4822 H 696.419 -10.2138 0.558219 0
M  V30 4823 H 694.789 -9.6579 0.0444202 0
M  V30 4824 H 697.428 -5.69556 -2.79637 0
M  V30 4825 P 699.285 -8.4349 -2.47671 0
M  V30 4826 O 700.707 -8.92593 -2.65 0
M  V30 4827 O 698.925 -7.7568 -1.19296 0
M  V30 4828 O 698.962 -7.36886 -3.63805 0
M  V30 4829 C 698.802 -7.95349 -4.982 0
M  V30 4830 C 699.342 -6.94612 -5.98974 0
M  V30 4831 O 698.286 -6.10347 -6.11815 0
M  V30 4832 C 700.56 -6.11426 -5.62335 0
M  V30 4833 O 701.298 -5.6162 -6.70584 0
M  V30 4834 C 699.891 -5.04409 -4.73308 0
M  V30 4835 O 700.69 -3.85992 -4.75183 0
M  V30 4836 C 698.554 -4.8728 -5.41006 0
M  V30 4837 H 698.586 -4.02333 -6.11157 0
M  V30 4838 H 699.769 -5.39466 -3.69543 0
M  V30 4839 H 701.253 -6.71916 -5.01943 0
M  V30 4840 H 699.559 -7.4649 -6.93477 0
M  V30 4841 H 699.369 -8.89416 -5.05237 0
M  V30 4842 H 697.739 -8.14876 -5.18409 0
M  V30 4843 H 700.378 -3.27957 -5.4317 0
M  V30 4844 P 702.236 -5.75688 -6.64379 0
M  V30 4845 O 703.658 -6.07627 -7.05504 0
M  V30 4846 O 701.876 -5.88047 -5.19722 0
M  V30 4847 O 701.913 -4.2322 -7.04443 0
M  V30 4848 C 701.753 -3.99743 -8.4911 0
M  V30 4849 C 702.293 -2.60516 -8.79425 0
M  V30 4850 O 701.237 -1.82684 -8.4467 0
M  V30 4851 C 703.511 -2.10343 -8.03628 0
M  V30 4852 O 704.249 -1.09919 -8.67766 0
M  V30 4853 C 702.842 -1.68446 -6.70876 0
M  V30 4854 O 703.641 -0.678137 -6.08433 0
M  V30 4855 C 701.505 -1.17436 -7.18567 0
M  V30 4856 H 701.537 -0.0804732 -7.31656 0
M  V30 4857 H 702.72 -2.54037 -6.02537 0
M  V30 4858 H 704.204 -2.93881 -7.85526 0
M  V30 4859 H 702.51 -2.53065 -9.86973 0
M  V30 4860 H 702.32 -4.75072 -9.05887 0
M  V30 4861 H 700.69 -4.05244 -8.76668 0
M  V30 4862 H 703.329 0.177647 -6.34251 0
M  V30 4863 P 705.186 -1.25109 -8.70152 0
M  V30 4864 O 706.608 -1.29744 -9.22016 0
M  V30 4865 O 704.826 -2.13714 -7.55141 0
M  V30 4866 O 704.863 0.248149 -8.21425 0
M  V30 4867 C 704.703 1.22779 -9.30434 0
M  V30 4868 C 705.243 2.56293 -8.80664 0
M  V30 4869 O 704.187 3.02979 -8.09349 0
M  V30 4870 C 706.461 2.57523 -7.89775 0
M  V30 4871 O 707.199 3.7668 -7.89438 0
M  V30 4872 C 705.792 2.20997 -6.55446 0
M  V30 4873 O 706.591 2.71895 -5.48509 0
M  V30 4874 C 704.455 2.89693 -6.67988 0
M  V30 4875 H 704.487 3.88793 -6.19859 0
M  V30 4876 H 705.67 1.12046 -6.44229 0
M  V30 4877 H 707.154 1.7746 -8.19711 0
M  V30 4878 H 705.46 3.20706 -9.67112 0
M  V30 4879 H 705.27 0.901032 -10.1892 0
M  V30 4880 H 703.64 1.33049 -9.56592 0
M  V30 4881 H 706.279 3.57847 -5.23962 0
M  V30 4882 P 708.137 3.65191 -7.99657 0
M  V30 4883 O 709.559 3.89416 -8.45976 0
M  V30 4884 O 707.777 2.28472 -7.50807 0
M  V30 4885 O 707.814 4.64972 -6.77611 0
M  V30 4886 C 707.654 6.06319 -7.16352 0
M  V30 4887 C 708.194 6.91655 -6.02234 0
M  V30 4888 O 707.139 6.92449 -5.17064 0
M  V30 4889 C 709.412 6.43627 -5.25174 0
M  V30 4890 O 710.15 7.43686 -4.60469 0
M  V30 4891 C 708.744 5.40275 -4.31916 0
M  V30 4892 O 709.542 5.25193 -3.14386 0
M  V30 4893 C 707.406 6.04847 -4.05327 0
M  V30 4894 N 706.363 5.04166 -3.98114 0
M  V30 4895 C 706.425 3.96049 -4.75587 0
M  V30 4896 N 705.38 3.15559 -4.54006 0
M  V30 4897 C 704.646 3.78802 -3.62491 0
M  V30 4898 C 703.34 3.476 -3.10071 0
M  V30 4899 O 702.607 2.51136 -3.37021 0
M  V30 4900 N 702.91 4.39088 -2.19956 0
M  V30 4901 C 703.659 5.53215 -1.81733 0
M  V30 4902 N 703.062 6.31963 -0.860928 0
M  V30 4903 N 704.812 5.86688 -2.32562 0
M  V30 4904 C 705.269 4.97525 -3.23407 0
M  V30 4905 H 707.438 6.62195 -3.11261 0
M  V30 4906 H 708.621 4.42488 -4.8131 0
M  V30 4907 H 710.106 5.93051 -5.9305 0
M  V30 4908 H 708.411 7.92655 -6.402 0
M  V30 4909 H 708.221 6.26671 -8.0846 0
M  V30 4910 H 706.59 6.29101 -7.32804 0
M  V30 4911 H 702.014 4.25523 -1.77604 0
M  V30 4912 H 707.221 3.75576 -5.47333 0
M  V30 4913 H 702.151 6.04684 -0.468946 0
M  V30 4914 H 703.527 7.18054 -0.542422 0
M  V30 4915 H 709.231 5.84223 -2.47279 0
M  V30 4916 P 711.087 7.39546 -4.75277 0
M  V30 4917 O 712.509 7.84798 -5.01039 0
M  V30 4918 O 710.727 5.9812 -5.08098 0
M  V30 4919 O 710.764 7.57503 -3.1866 0
M  V30 4920 C 710.604 8.97357 -2.74833 0
M  V30 4921 C 711.144 9.07548 -1.32709 0
M  V30 4922 O 710.088 8.62072 -0.606159 0
M  V30 4923 C 712.362 8.25383 -0.938334 0
M  V30 4924 O 713.1 8.74577 0.146954 0
M  V30 4925 C 711.693 6.8802 -0.712559 0
M  V30 4926 O 712.492 6.1189 0.194655 0
M  V30 4927 C 710.356 7.27966 -0.139777 0
M  V30 4928 H 710.388 7.25354 0.961601 0
M  V30 4929 H 711.571 6.32557 -1.65702 0
M  V30 4930 H 713.055 8.19355 -1.79097 0
M  V30 4931 H 711.361 10.1294 -1.10029 0
M  V30 4932 H 711.171 9.64276 -3.41316 0
M  V30 4933 H 709.541 9.25417 -2.76357 0
M  V30 4934 H 712.18 6.25267 1.07847 0
M  V30 4935 P 714.038 8.791 5.07466e-12 0
M  V30 4936 O 715.459 9.31196 0.027936 0
M  V30 4937 O 713.678 7.77869 -1.04071 0
M  V30 4938 O 713.715 8.09533 1.41463 0
M  V30 4939 C 713.554 9.03587 2.5397 0
M  V30 4940 C 714.095 8.35226 3.79016 0
M  V30 4941 O 713.04 7.57904 4.1503 0
M  V30 4942 C 715.313 7.45087 3.67298 0
M  V30 4943 O 716.051 7.27796 4.85194 0
M  V30 4944 C 714.645 6.17323 3.12027 0
M  V30 4945 O 715.443 5.04496 3.46627 0
M  V30 4946 C 713.307 6.19961 3.81809 0
M  V30 4947 N 712.264 5.71575 2.93223 0
M  V30 4948 C 712.433 5.77362 1.59168 0
M  V30 4949 N 711.406 5.3123 0.911893 0
M  V30 4950 C 710.521 4.91717 1.89588 0
M  V30 4951 C 709.254 4.3114 1.8076 0
M  V30 4952 N 708.655 3.99821 0.632928 0
M  V30 4953 N 708.689 4.06823 3.02898 0
M  V30 4954 C 709.291 4.35062 4.22711 0
M  V30 4955 N 710.468 4.90805 4.35707 0
M  V30 4956 C 711.043 5.16382 3.14469 0
M  V30 4957 H 713.339 5.58142 4.72986 0
M  V30 4958 H 714.522 6.21428 2.0318 0
M  V30 4959 H 716.005 7.86112 2.9231 0
M  V30 4960 H 714.311 9.11171 4.55987 0
M  V30 4961 H 714.121 9.9573 2.34194 0
M  V30 4962 H 712.491 9.2792 2.67832 0
M  V30 4963 H 708.755 4.09052 5.13359 0
M  V30 4964 H 713.333 6.16575 1.12198 0
M  V30 4965 H 707.725 3.55423 0.632085 0
M  V30 4966 H 709.129 4.20317 -0.256712 0
M  V30 4967 H 715.131 4.67628 4.28704 0
M  V30 4968 P 716.989 7.39546 4.75277 0
M  V30 4969 O 718.39 7.89013 5.04841 0
M  V30 4970 O 716.611 7.16603 3.32298 0
M  V30 4971 O 716.666 6.04468 5.56605 0
M  V30 4972 C 716.506 6.22772 7.02095 0
M  V30 4973 C 717.046 4.97671 7.70322 0
M  V30 4974 O 715.99 4.13208 7.58899 0
M  V30 4975 C 718.263 4.28231 7.11815 0
M  V30 4976 O 719.002 3.49945 8.01648 0
M  V30 4977 C 717.596 3.5063 5.96244 0
M  V30 4978 O 718.394 2.36443 5.64589 0
M  V30 4979 C 716.258 3.15122 6.56374 0
M  V30 4980 N 715.215 3.22311 5.55692 0
M  V30 4981 C 714.18 2.32244 5.62437 0
M  V30 4982 O 714.219 1.43107 6.50341 0
M  V30 4983 N 713.168 2.40811 4.73368 0
M  V30 4984 C 713.216 3.344 3.77753 0
M  V30 4985 C 714.312 4.24712 3.66679 0
M  V30 4986 C 715.278 4.15625 4.58307 0
M  V30 4987 H 716.29 2.13823 6.99656 0
M  V30 4988 H 717.473 4.12931 5.06895 0
M  V30 4989 H 718.957 5.02674 6.71494 0
M  V30 4990 H 717.263 5.20001 8.76217 0
M  V30 4991 H 717.072 7.11046 7.35349 0
M  V30 4992 H 715.442 6.35749 7.26911 0
M  V30 4993 H 714.36 4.9828 2.86753 0
M  V30 4994 H 716.124 4.84464 4.54228 0
M  V30 4995 H 718.178 1.65592 6.23485 0
M  V30 4996 P 719.939 3.65191 7.99657 0
M  V30 4997 O 721.361 3.8425 8.48115 0
M  V30 4998 O 719.579 4.17805 6.64342 0
M  V30 4999 O 719.616 2.07613 7.95143 0
M  V30 5000 C 719.456 1.44328 9.27336 0
M  V30 5001 C 719.996 0.0220036 9.17197 0
M  V30 5002 O 718.94 -0.626867 8.61923 0
M  V30 5003 C 721.214 -0.24586 8.30336 0
M  V30 5004 O 721.952 -1.39011 8.63583 0
M  V30 5005 C 720.545 -0.273849 6.91158 0
M  V30 5006 O 721.344 -1.06348 6.02892 0
M  V30 5007 C 719.208 -0.897649 7.22545 0
M  V30 5008 H 719.24 -1.9841 7.04286 0
M  V30 5009 H 720.423 0.739928 6.497 0
M  V30 5010 H 721.907 0.60668 8.36503 0
M  V30 5011 H 720.213 -0.352479 10.1829 0
M  V30 5012 H 720.023 2.00611 10.0304 0
M  V30 5013 H 718.393 1.41843 9.55327 0
M  V30 5014 H 721.032 -1.95734 6.03555 0
M  V30 5015 P 722.89 -1.25109 8.70152 0
M  V30 5016 O 724.312 -1.35274 9.21221 0
M  V30 5017 O 722.53 -0.0769065 7.84762 0
M  V30 5018 O 722.567 -2.55232 7.81161 0
M  V30 5019 C 722.407 -3.79939 8.58154 0
M  V30 5020 C 722.947 -4.94023 7.72785 0
M  V30 5021 O 721.891 -5.18726 6.91205 0
M  V30 5022 C 724.165 -4.69597 6.85231 0
M  V30 5023 O 724.903 -5.83832 6.51337 0
M  V30 5024 C 723.496 -3.96706 5.66633 0
M  V30 5025 O 724.295 -4.15414 4.49689 0
M  V30 5026 C 722.159 -4.66153 5.59313 0
M  V30 5027 H 722.191 -5.47679 4.85214 0
M  V30 5028 H 723.374 -2.89008 5.86566 0
M  V30 5029 H 724.858 -4.0121 7.36511 0
M  V30 5030 H 723.164 -5.80182 8.37584 0
M  V30 5031 H 722.974 -3.73517 9.52265 0
M  V30 5032 H 721.344 -3.97163 8.80359 0
M  V30 5033 H 723.983 -4.90969 4.01921 0
M  V30 5034 P 725.84 -5.75688 6.64379 0
M  V30 5035 O 727.262 -6.11849 7.01846 0
M  V30 5036 O 725.48 -4.30744 6.56026 0
M  V30 5037 O 725.517 -6.37042 5.19165 0
M  V30 5038 C 725.357 -7.83578 5.16515 0
M  V30 5039 C 725.897 -8.33398 3.83019 0
M  V30 5040 O 724.841 -8.10074 3.01034 0
M  V30 5041 C 727.115 -7.65514 3.2257 0
M  V30 5042 O 727.853 -8.4329 2.32297 0
M  V30 5043 C 726.446 -6.40075 2.62207 0
M  V30 5044 O 727.245 -5.92589 1.53712 0
M  V30 5045 C 725.109 -6.9454 2.18503 0
M  V30 5046 H 725.141 -7.23063 1.12091 0
M  V30 5047 H 726.324 -5.6025 3.37201 0
M  V30 5048 H 727.808 -7.35707 4.02681 0
M  V30 5049 H 726.114 -9.40912 3.9095 0
M  V30 5050 H 725.924 -8.29056 5.99158 0
M  V30 5051 H 724.294 -8.10073 5.25882 0
M  V30 5052 H 726.933 -6.30324 0.726794 0
M  V30 5053 P 728.791 -8.4349 2.47671 0
M  V30 5054 O 730.213 -8.94167 2.5964 0
M  V30 5055 O 728.431 -7.1704 3.19006 0
M  V30 5056 O 728.468 -8.16596 0.923387 0
M  V30 5057 C 728.308 -9.38437 0.108857 0
M  V30 5058 C 728.848 -9.08175 -1.28353 0
M  V30 5059 O 727.792 -8.44229 -1.84713 0
M  V30 5060 C 730.066 -8.18386 -1.42505 0
M  V30 5061 O 730.804 -8.3501 -2.60497 0
M  V30 5062 C 729.397 -6.80225 -1.25468 0
M  V30 5063 O 730.196 -5.81621 -1.91066 0
M  V30 5064 C 728.06 -7.02416 -1.9168 0
M  V30 5065 H 728.092 -6.6888 -2.96621 0
M  V30 5066 H 729.275 -6.53617 -0.192223 0
M  V30 5067 H 730.759 -8.36622 -0.589963 0
M  V30 5068 H 729.065 -10.0291 -1.79807 0
M  V30 5069 H 728.875 -10.2138 0.558219 0
M  V30 5070 H 727.245 -9.6579 0.0444202 0
M  V30 5071 H 729.884 -5.69556 -2.79637 0
M  V30 5072 P 731.741 -8.4349 -2.47671 0
M  V30 5073 O 733.162 -8.92689 -2.65029 0
M  V30 5074 O 731.381 -7.7568 -1.19296 0
M  V30 5075 O 731.418 -7.36886 -3.63805 0
M  V30 5076 C 731.257 -7.95433 -4.98253 0
M  V30 5077 C 731.798 -6.94612 -5.98974 0
M  V30 5078 O 730.743 -6.10277 -6.11744 0
M  V30 5079 C 733.016 -6.11426 -5.62335 0
M  V30 5080 O 733.754 -5.6162 -6.70584 0
M  V30 5081 C 732.348 -5.04409 -4.73308 0
M  V30 5082 O 733.146 -3.86404 -4.74719 0
M  V30 5083 C 731.01 -4.8728 -5.41006 0
M  V30 5084 N 729.967 -4.65812 -4.42377 0
M  V30 5085 C 730.136 -5.09132 -3.15382 0
M  V30 5086 N 729.109 -4.84021 -2.3716 0
M  V30 5087 C 728.224 -4.18386 -3.20441 0
M  V30 5088 C 726.957 -3.6275 -2.94905 0
M  V30 5089 N 726.358 -3.65794 -1.73372 0
M  V30 5090 N 726.392 -3.05008 -4.05243 0
M  V30 5091 C 726.994 -2.98348 -5.28159 0
M  V30 5092 N 728.171 -3.48171 -5.56333 0
M  V30 5093 C 728.746 -4.06869 -4.47212 0
M  V30 5094 H 731.042 -4.02278 -6.11074 0
M  V30 5095 H 732.225 -5.39013 -3.70026 0
M  V30 5096 H 733.708 -6.71916 -5.01943 0
M  V30 5097 H 732.014 -7.45796 -6.94223 0
M  V30 5098 H 731.824 -8.89416 -5.05237 0
M  V30 5099 H 730.194 -8.14876 -5.18409 0
M  V30 5100 H 726.458 -2.47853 -6.07807 0
M  V30 5101 H 731.036 -5.59989 -2.81362 0
M  V30 5102 H 725.428 -3.23218 -1.60782 0
M  V30 5103 H 726.832 -4.10523 -0.937856 0
M  V30 5104 H 732.834 -3.27906 -5.43085 0
M  V30 5105 P 734.692 -5.75688 -6.64379 0
M  V30 5106 O 736.114 -6.07627 -7.05504 0
M  V30 5107 O 734.332 -5.88047 -5.19722 0
M  V30 5108 O 734.369 -4.2322 -7.04443 0
M  V30 5109 C 734.209 -3.99743 -8.4911 0
M  V30 5110 C 734.749 -2.60516 -8.79425 0
M  V30 5111 O 733.693 -1.82684 -8.4467 0
M  V30 5112 C 735.967 -2.10343 -8.03628 0
M  V30 5113 O 736.705 -1.09919 -8.67766 0
M  V30 5114 C 735.298 -1.68446 -6.70876 0
M  V30 5115 O 736.097 -0.678137 -6.08433 0
M  V30 5116 C 733.961 -1.17436 -7.18567 0
M  V30 5117 H 733.993 -0.0804732 -7.31656 0
M  V30 5118 H 735.176 -2.54037 -6.02537 0
M  V30 5119 H 736.66 -2.93881 -7.85526 0
M  V30 5120 H 734.966 -2.53065 -9.86973 0
M  V30 5121 H 734.776 -4.75072 -9.05887 0
M  V30 5122 H 733.146 -4.05244 -8.76668 0
M  V30 5123 H 735.785 0.177647 -6.34251 0
M  V30 5124 P 737.643 -1.25109 -8.70152 0
M  V30 5125 O 739.064 -1.29758 -9.22115 0
M  V30 5126 O 737.283 -2.13714 -7.55141 0
M  V30 5127 O 737.32 0.248149 -8.21425 0
M  V30 5128 C 737.159 1.22792 -9.30533 0
M  V30 5129 C 737.7 2.56293 -8.80664 0
M  V30 5130 O 736.644 3.02944 -8.09255 0
M  V30 5131 C 738.918 2.57523 -7.89775 0
M  V30 5132 O 739.656 3.7668 -7.89438 0
M  V30 5133 C 738.25 2.20997 -6.55446 0
M  V30 5134 O 739.048 2.71302 -5.48691 0
M  V30 5135 C 736.912 2.89693 -6.67988 0
M  V30 5136 N 735.869 2.08895 -6.07487 0
M  V30 5137 C 736.038 0.753809 -5.94137 0
M  V30 5138 N 735.011 0.146592 -5.38801 0
M  V30 5139 C 734.125 1.1768 -5.13693 0
M  V30 5140 C 732.859 1.17563 -4.52477 0
M  V30 5141 N 732.26 0.057481 -4.04759 0
M  V30 5142 N 732.293 2.41918 -4.45789 0
M  V30 5143 C 732.896 3.56493 -4.90792 0
M  V30 5144 N 734.072 3.61423 -5.47817 0
M  V30 5145 C 734.648 2.37779 -5.5588 0
M  V30 5146 H 736.944 3.8874 -6.19774 0
M  V30 5147 H 738.127 1.12673 -6.44018 0
M  V30 5148 H 739.61 1.7746 -8.19711 0
M  V30 5149 H 737.916 3.21673 -9.66791 0
M  V30 5150 H 737.726 0.901032 -10.1892 0
M  V30 5151 H 736.096 1.33049 -9.56592 0
M  V30 5152 H 732.36 4.49919 -4.77947 0
M  V30 5153 H 736.938 0.233081 -6.26266 0
M  V30 5154 H 731.33 0.119831 -3.60801 0
M  V30 5155 H 732.734 -0.852272 -4.12385 0
M  V30 5156 H 738.736 3.5779 -5.23879 0
M  V30 5157 P 740.593 3.65191 -7.99657 0
M  V30 5158 O 742.015 3.89332 -8.45794 0
M  V30 5159 O 740.233 2.28472 -7.50807 0
M  V30 5160 O 740.27 4.64972 -6.77611 0
M  V30 5161 C 740.11 6.06319 -7.16352 0
M  V30 5162 C 740.65 6.91731 -6.02299 0
M  V30 5163 O 739.594 6.92449 -5.17064 0
M  V30 5164 C 741.868 6.43627 -5.25174 0
M  V30 5165 O 742.606 7.43686 -4.60469 0
M  V30 5166 C 741.199 5.40275 -4.31916 0
M  V30 5167 O 741.998 5.25279 -3.14438 0
M  V30 5168 C 739.862 6.04847 -4.05327 0
M  V30 5169 H 739.894 6.62195 -3.11261 0
M  V30 5170 H 741.077 4.42556 -4.81383 0
M  V30 5171 H 742.561 5.92458 -5.93643 0
M  V30 5172 H 740.867 7.92655 -6.402 0
M  V30 5173 H 740.677 6.26671 -8.0846 0
M  V30 5174 H 739.047 6.29101 -7.32804 0
M  V30 5175 H 741.686 5.84315 -2.47318 0
M  V30 5176 P 743.544 7.39546 -4.75277 0
M  V30 5177 O 744.965 7.84882 -5.01092 0
M  V30 5178 O 743.184 5.9812 -5.08098 0
M  V30 5179 O 743.221 7.57503 -3.1866 0
M  V30 5180 C 743.06 8.97452 -2.74862 0
M  V30 5181 C 743.601 9.07548 -1.32709 0
M  V30 5182 O 742.546 8.61972 -0.606089 0
M  V30 5183 C 744.819 8.25383 -0.938334 0
M  V30 5184 O 745.557 8.74577 0.146954 0
M  V30 5185 C 744.151 6.8802 -0.712559 0
M  V30 5186 O 744.949 6.1181 0.188505 0
M  V30 5187 C 742.813 7.27966 -0.139777 0
M  V30 5188 N 741.77 6.39368 -0.623421 0
M  V30 5189 C 741.939 5.71761 -1.78245 0
M  V30 5190 N 740.912 4.962 -2.10491 0
M  V30 5191 C 740.027 5.16158 -1.0635 0
M  V30 5192 C 738.76 4.60425 -0.810266 0
M  V30 5193 N 738.161 3.7057 -1.62914 0
M  V30 5194 N 738.195 5.06 0.348685 0
M  V30 5195 C 738.797 5.94532 1.20395 0
M  V30 5196 N 739.974 6.48452 1.01191 0
M  V30 5197 C 740.549 6.04423 -0.146291 0
M  V30 5198 H 742.845 7.25255 0.961469 0
M  V30 5199 H 744.028 6.32625 -1.65044 0
M  V30 5200 H 745.511 8.19355 -1.79097 0
M  V30 5201 H 743.817 10.1305 -1.09016 0
M  V30 5202 H 743.627 9.64276 -3.41316 0
M  V30 5203 H 741.997 9.25417 -2.76357 0
M  V30 5204 H 738.261 6.21659 2.10714 0
M  V30 5205 H 742.839 5.79354 -2.38959 0
M  V30 5206 H 737.231 3.33174 -1.38982 0
M  V30 5207 H 738.635 3.39714 -2.48836 0
M  V30 5208 H 744.637 6.25169 1.0783 0
M  V30 5209 P 746.494 8.791 5.38483e-12 0
M  V30 5210 O 747.915 9.31196 0.027936 0
M  V30 5211 O 746.134 7.77869 -1.04071 0
M  V30 5212 O 746.171 8.09533 1.41463 0
M  V30 5213 C 746.01 9.03587 2.5397 0
M  V30 5214 C 746.551 8.35226 3.79016 0
M  V30 5215 O 745.496 7.57904 4.1503 0
M  V30 5216 C 747.769 7.45087 3.67298 0
M  V30 5217 O 748.507 7.27796 4.85194 0
M  V30 5218 C 747.101 6.17323 3.12027 0
M  V30 5219 O 747.899 5.04496 3.46627 0
M  V30 5220 C 745.763 6.19961 3.81809 0
M  V30 5221 N 744.72 5.71575 2.93223 0
M  V30 5222 C 744.889 5.77362 1.59168 0
M  V30 5223 N 743.862 5.3123 0.911893 0
M  V30 5224 C 742.977 4.91717 1.89588 0
M  V30 5225 C 741.71 4.3114 1.8076 0
M  V30 5226 N 741.145 4.06823 3.02898 0
M  V30 5227 C 741.747 4.35062 4.22711 0
M  V30 5228 N 742.924 4.90805 4.35707 0
M  V30 5229 C 743.499 5.16382 3.14469 0
M  V30 5230 H 746.978 6.21428 2.0318 0
M  V30 5231 H 748.461 7.86112 2.9231 0
M  V30 5232 H 746.767 9.11171 4.55987 0
M  V30 5233 H 746.577 9.9573 2.34194 0
M  V30 5234 H 744.947 9.2792 2.67832 0
M  V30 5235 H 745.789 6.16575 1.12198 0
M  V30 5236 H 747.587 4.67628 4.28704 0
M  V30 5237 P 749.445 7.39546 4.75277 0
M  V30 5238 O 750.846 7.89013 5.04841 0
M  V30 5239 O 749.067 7.16603 3.32298 0
M  V30 5240 O 749.122 6.04468 5.56605 0
M  V30 5241 C 748.962 6.22772 7.02095 0
M  V30 5242 C 749.502 4.97671 7.70322 0
M  V30 5243 O 748.446 4.13208 7.58899 0
M  V30 5244 C 750.719 4.28231 7.11815 0
M  V30 5245 O 751.458 3.49945 8.01648 0
M  V30 5246 C 750.052 3.5063 5.96244 0
M  V30 5247 O 750.85 2.36443 5.64589 0
M  V30 5248 C 748.714 3.15122 6.56374 0
M  V30 5249 N 747.671 3.22311 5.55692 0
M  V30 5250 C 746.636 2.32244 5.62437 0
M  V30 5251 O 746.675 1.43107 6.50341 0
M  V30 5252 N 745.624 2.40811 4.73368 0
M  V30 5253 C 745.672 3.344 3.77753 0
M  V30 5254 C 746.768 4.24712 3.66679 0
M  V30 5255 C 747.734 4.15625 4.58307 0
M  V30 5256 H 748.746 2.13823 6.99656 0
M  V30 5257 H 749.929 4.12931 5.06895 0
M  V30 5258 H 751.413 5.02674 6.71494 0
M  V30 5259 H 749.719 5.20001 8.76217 0
M  V30 5260 H 749.528 7.11046 7.35349 0
M  V30 5261 H 747.898 6.35749 7.26911 0
M  V30 5262 H 746.816 4.9828 2.86753 0
M  V30 5263 H 748.58 4.84464 4.54228 0
M  V30 5264 H 750.634 1.65592 6.23485 0
M  V30 5265 P 752.395 3.65191 7.99657 0
M  V30 5266 O 753.817 3.8425 8.48115 0
M  V30 5267 O 752.035 4.17805 6.64342 0
M  V30 5268 O 752.072 2.07613 7.95143 0
M  V30 5269 C 751.912 1.44328 9.27336 0
M  V30 5270 C 752.452 0.0220036 9.17197 0
M  V30 5271 O 751.396 -0.626867 8.61923 0
M  V30 5272 C 753.67 -0.24586 8.30336 0
M  V30 5273 O 754.408 -1.39011 8.63583 0
M  V30 5274 C 753.001 -0.273849 6.91158 0
M  V30 5275 O 753.8 -1.06348 6.02892 0
M  V30 5276 C 751.664 -0.897649 7.22545 0
M  V30 5277 H 751.696 -1.9841 7.04286 0
M  V30 5278 H 752.879 0.739928 6.497 0
M  V30 5279 H 754.363 0.60668 8.36503 0
M  V30 5280 H 752.669 -0.352479 10.1829 0
M  V30 5281 H 752.479 2.00611 10.0304 0
M  V30 5282 H 750.849 1.41843 9.55327 0
M  V30 5283 H 753.488 -1.95734 6.03555 0
M  V30 5284 P 755.346 -1.25109 8.70152 0
M  V30 5285 O 756.768 -1.35274 9.21221 0
M  V30 5286 O 754.986 -0.0769065 7.84762 0
M  V30 5287 O 755.023 -2.55232 7.81161 0
M  V30 5288 C 754.863 -3.79939 8.58154 0
M  V30 5289 C 755.403 -4.94023 7.72785 0
M  V30 5290 O 754.347 -5.18726 6.91205 0
M  V30 5291 C 756.621 -4.69597 6.85231 0
M  V30 5292 O 757.359 -5.83832 6.51337 0
M  V30 5293 C 755.952 -3.96706 5.66633 0
M  V30 5294 O 756.751 -4.15414 4.49689 0
M  V30 5295 C 754.615 -4.66153 5.59313 0
M  V30 5296 H 754.647 -5.47679 4.85214 0
M  V30 5297 H 755.83 -2.89008 5.86566 0
M  V30 5298 H 757.314 -4.0121 7.36511 0
M  V30 5299 H 755.62 -5.80182 8.37584 0
M  V30 5300 H 755.43 -3.73517 9.52265 0
M  V30 5301 H 753.8 -3.97163 8.80359 0
M  V30 5302 H 756.439 -4.90969 4.01921 0
M  V30 5303 P 758.296 -5.75688 6.64379 0
M  V30 5304 O 759.718 -6.11849 7.01846 0
M  V30 5305 O 757.936 -4.30744 6.56026 0
M  V30 5306 O 757.973 -6.37042 5.19165 0
M  V30 5307 C 757.813 -7.83578 5.16515 0
M  V30 5308 C 758.353 -8.33398 3.83019 0
M  V30 5309 O 757.297 -8.10074 3.01034 0
M  V30 5310 C 759.571 -7.65514 3.2257 0
M  V30 5311 O 760.309 -8.4329 2.32297 0
M  V30 5312 C 758.902 -6.40075 2.62207 0
M  V30 5313 O 759.701 -5.92589 1.53712 0
M  V30 5314 C 757.565 -6.9454 2.18503 0
M  V30 5315 H 757.597 -7.23063 1.12091 0
M  V30 5316 H 758.78 -5.6025 3.37201 0
M  V30 5317 H 760.264 -7.35707 4.02681 0
M  V30 5318 H 758.57 -9.40912 3.9095 0
M  V30 5319 H 758.38 -8.29056 5.99158 0
M  V30 5320 H 756.75 -8.10073 5.25882 0
M  V30 5321 H 759.389 -6.30324 0.726794 0
M  V30 5322 P 761.247 -8.4349 2.47671 0
M  V30 5323 O 762.669 -8.94167 2.5964 0
M  V30 5324 O 760.887 -7.1704 3.19006 0
M  V30 5325 O 760.924 -8.16596 0.923387 0
M  V30 5326 C 760.764 -9.38437 0.108857 0
M  V30 5327 C 761.304 -9.08175 -1.28353 0
M  V30 5328 O 760.248 -8.44229 -1.84713 0
M  V30 5329 C 762.522 -8.18386 -1.42505 0
M  V30 5330 O 763.26 -8.3501 -2.60497 0
M  V30 5331 C 761.853 -6.80225 -1.25468 0
M  V30 5332 O 762.652 -5.81621 -1.91066 0
M  V30 5333 C 760.516 -7.02416 -1.9168 0
M  V30 5334 H 760.548 -6.6888 -2.96621 0
M  V30 5335 H 761.731 -6.53617 -0.192223 0
M  V30 5336 H 763.215 -8.36622 -0.589963 0
M  V30 5337 H 761.521 -10.0291 -1.79807 0
M  V30 5338 H 761.331 -10.2138 0.558219 0
M  V30 5339 H 759.701 -9.6579 0.0444202 0
M  V30 5340 H 762.34 -5.69556 -2.79637 0
M  V30 5341 P 764.198 -8.4349 -2.47671 0
M  V30 5342 O 765.62 -8.92785 -2.65057 0
M  V30 5343 O 763.838 -7.7568 -1.19296 0
M  V30 5344 O 763.875 -7.36886 -3.63805 0
M  V30 5345 C 763.715 -7.95349 -4.982 0
M  V30 5346 C 764.255 -6.94537 -5.98908 0
M  V30 5347 O 763.2 -6.10347 -6.11815 0
M  V30 5348 C 765.473 -6.11426 -5.62335 0
M  V30 5349 O 766.211 -5.6162 -6.70584 0
M  V30 5350 C 764.805 -5.04409 -4.73308 0
M  V30 5351 O 765.603 -3.85929 -4.75106 0
M  V30 5352 C 763.467 -4.8728 -5.41006 0
M  V30 5353 N 762.424 -4.65812 -4.42377 0
M  V30 5354 C 762.486 -5.27109 -3.24335 0
M  V30 5355 N 761.441 -4.94293 -2.47735 0
M  V30 5356 C 760.707 -4.1271 -3.23359 0
M  V30 5357 C 759.401 -3.56384 -2.99934 0
M  V30 5358 O 758.668 -3.69331 -2.00616 0
M  V30 5359 N 758.971 -2.80206 -4.03316 0
M  V30 5360 C 759.72 -2.58614 -5.2172 0
M  V30 5361 N 759.123 -1.75154 -6.13278 0
M  V30 5362 N 760.873 -3.13689 -5.47619 0
M  V30 5363 C 761.33 -3.90921 -4.46436 0
M  V30 5364 H 763.499 -4.02333 -6.11157 0
M  V30 5365 H 764.682 -5.39383 -3.69487 0
M  V30 5366 H 766.167 -6.71414 -5.02615 0
M  V30 5367 H 764.472 -7.4649 -6.93477 0
M  V30 5368 H 764.282 -8.89416 -5.05237 0
M  V30 5369 H 762.651 -8.14876 -5.18409 0
M  V30 5370 H 758.075 -2.36355 -3.95916 0
M  V30 5371 H 763.282 -5.95212 -2.93859 0
M  V30 5372 H 758.212 -1.32473 -5.91856 0
M  V30 5373 H 759.588 -1.5588 -7.03026 0
M  V30 5374 H 765.292 -3.27906 -5.43085 0
M  V30 5375 P 767.148 -5.75688 -6.64379 0
M  V30 5376 O 768.569 -6.07692 -7.0558 0
M  V30 5377 O 766.788 -5.88047 -5.19722 0
M  V30 5378 O 766.825 -4.2322 -7.04443 0
M  V30 5379 C 766.664 -3.99785 -8.49201 0
M  V30 5380 C 767.205 -2.60516 -8.79425 0
M  V30 5381 O 766.15 -1.82663 -8.44573 0
M  V30 5382 C 768.423 -2.10343 -8.03628 0
M  V30 5383 O 769.161 -1.09919 -8.67766 0
M  V30 5384 C 767.755 -1.68446 -6.70876 0
M  V30 5385 O 768.553 -0.684109 -6.08265 0
M  V30 5386 C 766.417 -1.17436 -7.18567 0
M  V30 5387 N 765.374 -1.52699 -6.23988 0
M  V30 5388 C 765.543 -2.578 -5.40574 0
M  V30 5389 N 764.516 -2.78966 -4.61193 0
M  V30 5390 C 763.631 -1.78725 -4.95769 0
M  V30 5391 C 762.364 -1.45727 -4.44207 0
M  V30 5392 N 761.799 -0.374977 -5.05812 0
M  V30 5393 C 762.401 0.345585 -6.05615 0
M  V30 5394 N 763.578 0.0787651 -6.56253 0
M  V30 5395 C 764.153 -1.00499 -5.96189 0
M  V30 5396 H 767.632 -2.53396 -6.02698 0
M  V30 5397 H 769.115 -2.93881 -7.85526 0
M  V30 5398 H 767.421 -2.52078 -9.87225 0
M  V30 5399 H 767.231 -4.75072 -9.05887 0
M  V30 5400 H 765.601 -4.05244 -8.76668 0
M  V30 5401 H 766.443 -3.18977 -5.3945 0
M  V30 5402 H 768.241 0.177619 -6.34151 0
M  V30 5403 P 770.099 -1.25109 -8.70152 0
M  V30 5404 O 771.521 -1.29744 -9.22016 0
M  V30 5405 O 769.739 -2.13714 -7.55141 0
M  V30 5406 O 769.776 0.248149 -8.21425 0
M  V30 5407 C 769.616 1.22779 -9.30434 0
M  V30 5408 C 770.156 2.56293 -8.80664 0
M  V30 5409 O 769.1 3.02979 -8.09349 0
M  V30 5410 C 771.374 2.57523 -7.89775 0
M  V30 5411 O 772.112 3.7668 -7.89438 0
M  V30 5412 C 770.705 2.20997 -6.55446 0
M  V30 5413 O 771.504 2.71895 -5.48509 0
M  V30 5414 C 769.368 2.89693 -6.67988 0
M  V30 5415 H 769.4 3.88793 -6.19859 0
M  V30 5416 H 770.583 1.12046 -6.44229 0
M  V30 5417 H 772.067 1.7746 -8.19711 0
M  V30 5418 H 770.373 3.20706 -9.67112 0
M  V30 5419 H 770.183 0.901032 -10.1892 0
M  V30 5420 H 768.553 1.33049 -9.56592 0
M  V30 5421 H 771.192 3.57847 -5.23962 0
M  V30 5422 P 773.049 3.65191 -7.99657 0
M  V30 5423 O 774.471 3.89332 -8.45794 0
M  V30 5424 O 772.689 2.28472 -7.50807 0
M  V30 5425 O 772.726 4.64972 -6.77611 0
M  V30 5426 C 772.566 6.06319 -7.16352 0
M  V30 5427 C 773.106 6.91731 -6.02299 0
M  V30 5428 O 772.05 6.92449 -5.17064 0
M  V30 5429 C 774.324 6.43627 -5.25174 0
M  V30 5430 O 775.062 7.43686 -4.60469 0
M  V30 5431 C 773.655 5.40275 -4.31916 0
M  V30 5432 O 774.454 5.25279 -3.14438 0
M  V30 5433 C 772.318 6.04847 -4.05327 0
M  V30 5434 H 772.35 6.62195 -3.11261 0
M  V30 5435 H 773.533 4.42556 -4.81383 0
M  V30 5436 H 775.017 5.92458 -5.93643 0
M  V30 5437 H 773.323 7.92655 -6.402 0
M  V30 5438 H 773.133 6.26671 -8.0846 0
M  V30 5439 H 771.503 6.29101 -7.32804 0
M  V30 5440 H 774.142 5.84315 -2.47318 0
M  V30 5441 P 776 7.39546 -4.75277 0
M  V30 5442 O 777.422 7.84798 -5.01039 0
M  V30 5443 O 775.64 5.9812 -5.08098 0
M  V30 5444 O 775.677 7.57503 -3.1866 0
M  V30 5445 C 775.517 8.97357 -2.74833 0
M  V30 5446 C 776.057 9.07548 -1.32709 0
M  V30 5447 O 775.001 8.62072 -0.606159 0
M  V30 5448 C 777.275 8.25383 -0.938334 0
M  V30 5449 O 778.013 8.74577 0.146954 0
M  V30 5450 C 776.606 6.8802 -0.712559 0
M  V30 5451 O 777.405 6.1189 0.194655 0
M  V30 5452 C 775.269 7.27966 -0.139777 0
M  V30 5453 H 775.301 7.25354 0.961601 0
M  V30 5454 H 776.484 6.32557 -1.65702 0
M  V30 5455 H 777.968 8.19355 -1.79097 0
M  V30 5456 H 776.274 10.1294 -1.10029 0
M  V30 5457 H 776.084 9.64276 -3.41316 0
M  V30 5458 H 774.454 9.25417 -2.76357 0
M  V30 5459 H 777.093 6.25267 1.07847 0
M  V30 5460 P 778.95 8.791 5.69499e-12 0
M  V30 5461 O 780.372 9.31096 0.027933 0
M  V30 5462 O 778.59 7.77869 -1.04071 0
M  V30 5463 O 778.627 8.09533 1.41463 0
M  V30 5464 C 778.467 9.0349 2.53943 0
M  V30 5465 C 779.007 8.35226 3.79016 0
M  V30 5466 O 777.951 7.57992 4.15078 0
M  V30 5467 C 780.225 7.45087 3.67298 0
M  V30 5468 O 780.963 7.27796 4.85194 0
M  V30 5469 C 779.556 6.17323 3.12027 0
M  V30 5470 O 780.355 5.04231 3.47188 0
M  V30 5471 C 778.219 6.19961 3.81809 0
M  V30 5472 H 778.251 5.58218 4.73051 0
M  V30 5473 H 779.434 6.21726 2.02589 0
M  V30 5474 H 780.918 7.86112 2.9231 0
M  V30 5475 H 779.224 9.11627 4.55076 0
M  V30 5476 H 779.034 9.9573 2.34194 0
M  V30 5477 H 777.404 9.2792 2.67832 0
M  V30 5478 H 780.043 4.67702 4.28772 0
M  V30 5479 P 781.901 7.39546 4.75277 0
M  V30 5480 O 783.323 7.81777 5.05738 0
M  V30 5481 O 781.541 7.1065 3.32998 0
M  V30 5482 O 781.578 6.04542 5.56673 0
M  V30 5483 C 781.418 6.22772 7.02095 0
M  V30 5484 C 781.958 4.97725 7.70406 0
M  V30 5485 O 780.902 4.13256 7.58987 0
M  V30 5486 C 783.176 4.28231 7.11815 0
M  V30 5487 O 783.914 3.49945 8.01648 0
M  V30 5488 C 782.507 3.5063 5.96244 0
M  V30 5489 O 783.306 2.36482 5.64681 0
M  V30 5490 C 781.17 3.15122 6.56374 0
M  V30 5491 H 781.202 2.13853 6.99751 0
M  V30 5492 H 782.385 4.13501 5.06559 0
M  V30 5493 H 783.869 5.03285 6.70911 0
M  V30 5494 H 782.175 5.20877 8.75697 0
M  V30 5495 H 781.985 7.11046 7.35349 0
M  V30 5496 H 780.355 6.35815 7.26986 0
M  V30 5497 H 782.994 1.61644 6.13565 0
M  V30 5498 P 784.852 3.65191 7.99657 0
M  V30 5499 O 786.274 3.8425 8.48115 0
M  V30 5500 O 784.492 4.17805 6.64342 0
M  V30 5501 O 784.529 2.07613 7.95143 0
M  V30 5502 C 784.369 1.44328 9.27336 0
M  V30 5503 C 784.909 0.0220036 9.17197 0
M  V30 5504 O 783.853 -0.626867 8.61923 0
M  V30 5505 C 786.127 -0.24586 8.30336 0
M  V30 5506 O 786.865 -1.39011 8.63583 0
M  V30 5507 C 785.458 -0.273849 6.91158 0
M  V30 5508 O 786.257 -1.06348 6.02892 0
M  V30 5509 C 784.121 -0.897649 7.22545 0
M  V30 5510 H 784.153 -1.9841 7.04286 0
M  V30 5511 H 785.336 0.739928 6.497 0
M  V30 5512 H 786.82 0.60668 8.36503 0
M  V30 5513 H 785.126 -0.352479 10.1829 0
M  V30 5514 H 784.936 2.00611 10.0304 0
M  V30 5515 H 783.306 1.41843 9.55327 0
M  V30 5516 H 785.945 -1.95734 6.03555 0
M  V30 5517 P 787.802 -1.25109 8.70152 0
M  V30 5518 O 789.224 -1.35303 9.21419 0
M  V30 5519 O 787.442 -0.0769065 7.84762 0
M  V30 5520 O 787.479 -2.55232 7.81161 0
M  V30 5521 C 787.319 -3.79939 8.58154 0
M  V30 5522 C 787.859 -4.93969 7.72701 0
M  V30 5523 O 786.804 -5.18726 6.91205 0
M  V30 5524 C 789.077 -4.69597 6.85231 0
M  V30 5525 O 789.815 -5.83832 6.51337 0
M  V30 5526 C 788.409 -3.96706 5.66633 0
M  V30 5527 O 789.207 -4.15346 4.49615 0
M  V30 5528 C 787.071 -4.66153 5.59313 0
M  V30 5529 N 786.028 -3.71582 5.24027 0
M  V30 5530 C 786.09 -2.46018 5.67902 0
M  V30 5531 N 785.045 -1.74868 5.24518 0
M  V30 5532 C 784.311 -2.61333 4.54528 0
M  V30 5533 C 783.005 -2.46162 3.95441 0
M  V30 5534 O 782.272 -1.46013 3.94122 0
M  V30 5535 N 782.575 -3.59334 3.34752 0
M  V30 5536 C 783.324 -4.79605 3.3023 0
M  V30 5537 N 782.727 -5.82109 2.6065 0
M  V30 5538 N 784.477 -4.97402 3.8843 0
M  V30 5539 C 784.934 -3.86258 4.50476 0
M  V30 5540 H 787.103 -5.47679 4.85214 0
M  V30 5541 H 788.286 -2.88964 5.86476 0
M  V30 5542 H 789.771 -4.01947 7.36109 0
M  V30 5543 H 788.076 -5.80182 8.37584 0
M  V30 5544 H 787.886 -3.73517 9.52265 0
M  V30 5545 H 786.255 -3.97163 8.80359 0
M  V30 5546 H 781.679 -3.5825 2.90294 0
M  V30 5547 H 786.886 -2.06161 6.30974 0
M  V30 5548 H 781.816 -5.66979 2.15354 0
M  V30 5549 H 783.192 -6.73686 2.54344 0
M  V30 5550 H 788.896 -4.90891 4.01857 0
M  V30 5551 P 790.753 -5.75688 6.64379 0
M  V30 5552 O 792.174 -6.11915 7.01921 0
M  V30 5553 O 790.393 -4.30744 6.56026 0
M  V30 5554 O 790.43 -6.37042 5.19165 0
M  V30 5555 C 790.269 -7.83662 5.1657 0
M  V30 5556 C 790.81 -8.33398 3.83019 0
M  V30 5557 O 789.755 -8.0998 3.00999 0
M  V30 5558 C 792.028 -7.65514 3.2257 0
M  V30 5559 O 792.766 -8.4329 2.32297 0
M  V30 5560 C 791.36 -6.40075 2.62207 0
M  V30 5561 O 792.158 -5.92338 1.5428 0
M  V30 5562 C 790.022 -6.9454 2.18503 0
M  V30 5563 N 788.979 -5.95905 2.39948 0
M  V30 5564 C 789.148 -4.98383 3.32108 0
M  V30 5565 N 788.121 -4.16798 3.41761 0
M  V30 5566 C 787.236 -4.65287 2.47461 0
M  V30 5567 C 785.969 -4.18946 2.07461 0
M  V30 5568 N 785.37 -3.09661 2.60717 0
M  V30 5569 N 785.404 -4.95327 1.09101 0
M  V30 5570 C 786.006 -6.04369 0.519812 0
M  V30 5571 N 787.183 -6.50694 0.855982 0
M  V30 5572 C 787.758 -5.75818 1.84322 0
M  V30 5573 H 790.054 -7.22964 1.12076 0
M  V30 5574 H 791.237 -5.60502 3.36589 0
M  V30 5575 H 792.72 -7.35707 4.02681 0
M  V30 5576 H 791.026 -9.41302 3.90009 0
M  V30 5577 H 790.836 -8.29056 5.99158 0
M  V30 5578 H 789.206 -8.10073 5.25882 0
M  V30 5579 H 785.47 -6.55843 -0.270373 0
M  V30 5580 H 790.048 -4.88564 3.92502 0
M  V30 5581 H 784.44 -2.80523 2.27218 0
M  V30 5582 H 785.844 -2.55848 3.34465 0
M  V30 5583 H 791.846 -6.30224 0.72668 0
M  V30 5584 P 793.703 -8.4349 2.47671 0
M  V30 5585 O 795.125 -8.94167 2.5964 0
M  V30 5586 O 793.343 -7.1704 3.19006 0
M  V30 5587 O 793.38 -8.16596 0.923387 0
M  V30 5588 C 793.22 -9.38437 0.108857 0
M  V30 5589 C 793.76 -9.08175 -1.28353 0
M  V30 5590 O 792.704 -8.44229 -1.84713 0
M  V30 5591 C 794.978 -8.18386 -1.42505 0
M  V30 5592 O 795.716 -8.3501 -2.60497 0
M  V30 5593 C 794.309 -6.80225 -1.25468 0
M  V30 5594 O 795.108 -5.81621 -1.91066 0
M  V30 5595 C 792.972 -7.02416 -1.9168 0
M  V30 5596 H 793.004 -6.6888 -2.96621 0
M  V30 5597 H 794.187 -6.53617 -0.192223 0
M  V30 5598 H 795.671 -8.36622 -0.589963 0
M  V30 5599 H 793.977 -10.0291 -1.79807 0
M  V30 5600 H 793.787 -10.2138 0.558219 0
M  V30 5601 H 792.157 -9.6579 0.0444202 0
M  V30 5602 H 794.796 -5.69556 -2.79637 0
M  V30 5603 P 796.654 -8.4349 -2.47671 0
M  V30 5604 O 798.076 -8.92593 -2.65 0
M  V30 5605 O 796.294 -7.7568 -1.19296 0
M  V30 5606 O 796.331 -7.36886 -3.63805 0
M  V30 5607 C 796.171 -7.95349 -4.982 0
M  V30 5608 C 796.711 -6.94612 -5.98974 0
M  V30 5609 O 795.655 -6.10347 -6.11815 0
M  V30 5610 C 797.929 -6.11426 -5.62335 0
M  V30 5611 O 798.667 -5.6162 -6.70584 0
M  V30 5612 C 797.26 -5.04409 -4.73308 0
M  V30 5613 O 798.059 -3.85992 -4.75183 0
M  V30 5614 C 795.923 -4.8728 -5.41006 0
M  V30 5615 H 795.955 -4.02333 -6.11157 0
M  V30 5616 H 797.138 -5.39466 -3.69543 0
M  V30 5617 H 798.622 -6.71916 -5.01943 0
M  V30 5618 H 796.928 -7.4649 -6.93477 0
M  V30 5619 H 796.738 -8.89416 -5.05237 0
M  V30 5620 H 795.108 -8.14876 -5.18409 0
M  V30 5621 H 797.747 -3.27957 -5.4317 0
M  V30 5622 P 799.604 -5.75688 -6.64379 0
M  V30 5623 O 801.026 -6.07627 -7.05504 0
M  V30 5624 O 799.244 -5.88047 -5.19722 0
M  V30 5625 O 799.281 -4.2322 -7.04443 0
M  V30 5626 C 799.121 -3.99743 -8.4911 0
M  V30 5627 C 799.661 -2.60516 -8.79425 0
M  V30 5628 O 798.605 -1.82684 -8.4467 0
M  V30 5629 C 800.879 -2.10343 -8.03628 0
M  V30 5630 O 801.617 -1.09919 -8.67766 0
M  V30 5631 C 800.21 -1.68446 -6.70876 0
M  V30 5632 O 801.009 -0.678137 -6.08433 0
M  V30 5633 C 798.873 -1.17436 -7.18567 0
M  V30 5634 H 798.905 -0.0804732 -7.31656 0
M  V30 5635 H 800.088 -2.54037 -6.02537 0
M  V30 5636 H 801.572 -2.93881 -7.85526 0
M  V30 5637 H 799.878 -2.53065 -9.86973 0
M  V30 5638 H 799.688 -4.75072 -9.05887 0
M  V30 5639 H 798.058 -4.05244 -8.76668 0
M  V30 5640 H 800.697 0.177647 -6.34251 0
M  V30 5641 P 802.555 -1.25109 -8.70152 0
M  V30 5642 O 803.977 -1.29772 -9.22214 0
M  V30 5643 O 802.195 -2.13714 -7.55141 0
M  V30 5644 O 802.232 0.248149 -8.21425 0
M  V30 5645 C 802.072 1.22779 -9.30434 0
M  V30 5646 C 802.612 2.56265 -8.80568 0
M  V30 5647 O 801.557 3.02979 -8.09349 0
M  V30 5648 C 803.83 2.57523 -7.89775 0
M  V30 5649 O 804.568 3.7668 -7.89438 0
M  V30 5650 C 803.162 2.20997 -6.55446 0
M  V30 5651 O 803.96 2.71851 -5.48419 0
M  V30 5652 C 801.824 2.89693 -6.67988 0
M  V30 5653 N 800.781 2.08895 -6.07487 0
M  V30 5654 C 800.843 0.760559 -6.14209 0
M  V30 5655 N 799.798 0.200108 -5.52538 0
M  V30 5656 C 799.064 1.22692 -5.09742 0
M  V30 5657 C 797.758 1.24782 -4.48775 0
M  V30 5658 O 797.025 0.290617 -4.19294 0
M  V30 5659 N 797.328 2.50468 -4.22428 0
M  V30 5660 C 798.077 3.67142 -4.51974 0
M  V30 5661 N 797.48 4.85096 -4.14091 0
M  V30 5662 N 799.23 3.67821 -5.12831 0
M  V30 5663 C 799.687 2.43698 -5.4105 0
M  V30 5664 H 801.856 3.88793 -6.19859 0
M  V30 5665 H 803.039 1.12029 -6.4413 0
M  V30 5666 H 804.524 1.78279 -8.19533 0
M  V30 5667 H 802.829 3.20706 -9.67112 0
M  V30 5668 H 802.639 0.901032 -10.1892 0
M  V30 5669 H 801.008 1.33049 -9.56592 0
M  V30 5670 H 796.432 2.61953 -3.79465 0
M  V30 5671 H 801.639 0.200439 -6.63497 0
M  V30 5672 H 796.569 4.8334 -3.66367 0
M  V30 5673 H 797.945 5.7474 -4.33841 0
M  V30 5674 H 803.649 3.5779 -5.23879 0
M  V30 5675 P 805.506 3.65191 -7.99657 0
M  V30 5676 O 806.928 3.89332 -8.45794 0
M  V30 5677 O 805.146 2.28472 -7.50807 0
M  V30 5678 O 805.183 4.64972 -6.77611 0
M  V30 5679 C 805.023 6.06319 -7.16352 0
M  V30 5680 C 805.563 6.91731 -6.02299 0
M  V30 5681 O 804.507 6.92449 -5.17064 0
M  V30 5682 C 806.781 6.43627 -5.25174 0
M  V30 5683 O 807.519 7.43686 -4.60469 0
M  V30 5684 C 806.112 5.40275 -4.31916 0
M  V30 5685 O 806.911 5.25279 -3.14438 0
M  V30 5686 C 804.775 6.04847 -4.05327 0
M  V30 5687 H 804.807 6.62195 -3.11261 0
M  V30 5688 H 805.99 4.42556 -4.81383 0
M  V30 5689 H 807.474 5.92458 -5.93643 0
M  V30 5690 H 805.78 7.92655 -6.402 0
M  V30 5691 H 805.59 6.26671 -8.0846 0
M  V30 5692 H 803.96 6.29101 -7.32804 0
M  V30 5693 H 806.599 5.84315 -2.47318 0
M  V30 5694 P 808.456 7.39546 -4.75277 0
M  V30 5695 O 809.878 7.84798 -5.01039 0
M  V30 5696 O 808.096 5.9812 -5.08098 0
M  V30 5697 O 808.133 7.57503 -3.1866 0
M  V30 5698 C 807.973 8.97357 -2.74833 0
M  V30 5699 C 808.513 9.07548 -1.32709 0
M  V30 5700 O 807.457 8.62072 -0.606159 0
M  V30 5701 C 809.731 8.25383 -0.938334 0
M  V30 5702 O 810.469 8.74577 0.146954 0
M  V30 5703 C 809.062 6.8802 -0.712559 0
M  V30 5704 O 809.861 6.1189 0.194655 0
M  V30 5705 C 807.725 7.27966 -0.139777 0
M  V30 5706 H 807.757 7.25354 0.961601 0
M  V30 5707 H 808.94 6.32557 -1.65702 0
M  V30 5708 H 810.424 8.19355 -1.79097 0
M  V30 5709 H 808.73 10.1294 -1.10029 0
M  V30 5710 H 808.54 9.64276 -3.41316 0
M  V30 5711 H 806.91 9.25417 -2.76357 0
M  V30 5712 H 809.549 6.25267 1.07847 0
M  V30 5713 P 811.407 8.791 6.00516e-12 0
M  V30 5714 O 812.829 9.31096 0.027933 0
M  V30 5715 O 811.047 7.77869 -1.04071 0
M  V30 5716 O 811.084 8.09533 1.41463 0
M  V30 5717 C 810.924 9.0349 2.53943 0
M  V30 5718 C 811.464 8.35226 3.79016 0
M  V30 5719 O 810.408 7.57992 4.15078 0
M  V30 5720 C 812.682 7.45087 3.67298 0
M  V30 5721 O 813.42 7.27796 4.85194 0
M  V30 5722 C 812.013 6.17323 3.12027 0
M  V30 5723 O 812.812 5.04231 3.47188 0
M  V30 5724 C 810.676 6.19961 3.81809 0
M  V30 5725 H 810.708 5.58218 4.73051 0
M  V30 5726 H 811.891 6.21726 2.02589 0
M  V30 5727 H 813.375 7.86112 2.9231 0
M  V30 5728 H 811.681 9.11627 4.55076 0
M  V30 5729 H 811.491 9.9573 2.34194 0
M  V30 5730 H 809.861 9.2792 2.67832 0
M  V30 5731 H 812.5 4.67702 4.28772 0
M  V30 5732 P 814.357 7.39546 4.75277 0
M  V30 5733 O 815.778 7.81861 5.05793 0
M  V30 5734 O 813.997 7.1065 3.32998 0
M  V30 5735 O 814.034 6.04542 5.56673 0
M  V30 5736 C 813.873 6.22839 7.02169 0
M  V30 5737 C 814.414 4.97725 7.70406 0
M  V30 5738 O 813.359 4.13208 7.58899 0
M  V30 5739 C 815.632 4.28231 7.11815 0
M  V30 5740 O 816.37 3.49945 8.01648 0
M  V30 5741 C 814.964 3.5063 5.96244 0
M  V30 5742 O 815.762 2.37008 5.64352 0
M  V30 5743 C 813.626 3.15122 6.56374 0
M  V30 5744 N 812.583 3.22311 5.55692 0
M  V30 5745 C 812.752 3.99655 4.46046 0
M  V30 5746 N 811.725 3.97599 3.63918 0
M  V30 5747 C 810.84 3.11159 4.25334 0
M  V30 5748 C 809.573 2.64972 3.85157 0
M  V30 5749 N 808.974 3.02132 2.69405 0
M  V30 5750 N 809.008 1.78482 4.74759 0
M  V30 5751 C 809.61 1.37463 5.90819 0
M  V30 5752 N 810.787 1.7733 6.31889 0
M  V30 5753 C 811.362 2.64393 5.43725 0
M  V30 5754 H 813.658 2.13823 6.99656 0
M  V30 5755 H 814.841 4.12931 5.06895 0
M  V30 5756 H 816.324 5.03285 6.70911 0
M  V30 5757 H 814.63 5.20001 8.76217 0
M  V30 5758 H 814.44 7.11046 7.35349 0
M  V30 5759 H 812.81 6.35815 7.26986 0
M  V30 5760 H 809.074 0.66574 6.53015 0
M  V30 5761 H 813.652 4.58037 4.27732 0
M  V30 5762 H 808.044 2.64828 2.45331 0
M  V30 5763 H 809.448 3.67472 2.05644 0
M  V30 5764 H 815.45 1.61619 6.13468 0
M  V30 5765 P 817.308 3.65191 7.99657 0
M  V30 5766 O 818.73 3.8425 8.48115 0
M  V30 5767 O 816.948 4.17805 6.64342 0
M  V30 5768 O 816.985 2.07613 7.95143 0
M  V30 5769 C 816.825 1.44328 9.27336 0
M  V30 5770 C 817.365 0.0220036 9.17197 0
M  V30 5771 O 816.309 -0.626867 8.61923 0
M  V30 5772 C 818.583 -0.24586 8.30336 0
M  V30 5773 O 819.321 -1.39011 8.63583 0
M  V30 5774 C 817.914 -0.273849 6.91158 0
M  V30 5775 O 818.713 -1.06348 6.02892 0
M  V30 5776 C 816.577 -0.897649 7.22545 0
M  V30 5777 H 816.609 -1.9841 7.04286 0
M  V30 5778 H 817.792 0.739928 6.497 0
M  V30 5779 H 819.276 0.60668 8.36503 0
M  V30 5780 H 817.582 -0.352479 10.1829 0
M  V30 5781 H 817.392 2.00611 10.0304 0
M  V30 5782 H 815.762 1.41843 9.55327 0
M  V30 5783 H 818.401 -1.95734 6.03555 0
M  V30 5784 P 820.258 -1.25109 8.70152 0
M  V30 5785 O 821.68 -1.35274 9.21221 0
M  V30 5786 O 819.898 -0.0769065 7.84762 0
M  V30 5787 O 819.935 -2.55232 7.81161 0
M  V30 5788 C 819.775 -3.79939 8.58154 0
M  V30 5789 C 820.315 -4.94023 7.72785 0
M  V30 5790 O 819.259 -5.18726 6.91205 0
M  V30 5791 C 821.533 -4.69597 6.85231 0
M  V30 5792 O 822.271 -5.83832 6.51337 0
M  V30 5793 C 820.864 -3.96706 5.66633 0
M  V30 5794 O 821.663 -4.15414 4.49689 0
M  V30 5795 C 819.527 -4.66153 5.59313 0
M  V30 5796 H 819.559 -5.47679 4.85214 0
M  V30 5797 H 820.742 -2.89008 5.86566 0
M  V30 5798 H 822.226 -4.0121 7.36511 0
M  V30 5799 H 820.532 -5.80182 8.37584 0
M  V30 5800 H 820.342 -3.73517 9.52265 0
M  V30 5801 H 818.712 -3.97163 8.80359 0
M  V30 5802 H 821.351 -4.90969 4.01921 0
M  V30 5803 P 823.209 -5.75688 6.64379 0
M  V30 5804 O 824.63 -6.11915 7.01921 0
M  V30 5805 O 822.849 -4.30744 6.56026 0
M  V30 5806 O 822.886 -6.37042 5.19165 0
M  V30 5807 C 822.725 -7.83662 5.1657 0
M  V30 5808 C 823.266 -8.33398 3.83019 0
M  V30 5809 O 822.211 -8.0998 3.00999 0
M  V30 5810 C 824.484 -7.65514 3.2257 0
M  V30 5811 O 825.222 -8.4329 2.32297 0
M  V30 5812 C 823.816 -6.40075 2.62207 0
M  V30 5813 O 824.614 -5.92338 1.5428 0
M  V30 5814 C 822.478 -6.9454 2.18503 0
M  V30 5815 N 821.435 -5.95905 2.39948 0
M  V30 5816 C 821.604 -4.98383 3.32108 0
M  V30 5817 N 820.577 -4.16798 3.41761 0
M  V30 5818 C 819.692 -4.65287 2.47461 0
M  V30 5819 C 818.425 -4.18946 2.07461 0
M  V30 5820 N 817.826 -3.09661 2.60717 0
M  V30 5821 N 817.86 -4.95327 1.09101 0
M  V30 5822 C 818.462 -6.04369 0.519812 0
M  V30 5823 N 819.639 -6.50694 0.855982 0
M  V30 5824 C 820.214 -5.75818 1.84322 0
M  V30 5825 H 822.51 -7.22964 1.12076 0
M  V30 5826 H 823.693 -5.60502 3.36589 0
M  V30 5827 H 825.176 -7.35707 4.02681 0
M  V30 5828 H 823.482 -9.41302 3.90009 0
M  V30 5829 H 823.292 -8.29056 5.99158 0
M  V30 5830 H 821.662 -8.10073 5.25882 0
M  V30 5831 H 817.926 -6.55843 -0.270373 0
M  V30 5832 H 822.504 -4.88564 3.92502 0
M  V30 5833 H 816.896 -2.80523 2.27218 0
M  V30 5834 H 818.3 -2.55848 3.34465 0
M  V30 5835 H 824.302 -6.30224 0.72668 0
M  V30 5836 P 826.16 -8.4349 2.47671 0
M  V30 5837 O 827.581 -8.94263 2.59668 0
M  V30 5838 O 825.8 -7.1704 3.19006 0
M  V30 5839 O 825.837 -8.16596 0.923387 0
M  V30 5840 C 825.676 -9.38537 0.108869 0
M  V30 5841 C 826.217 -9.08175 -1.28353 0
M  V30 5842 O 825.162 -8.44131 -1.84692 0
M  V30 5843 C 827.435 -8.18386 -1.42505 0
M  V30 5844 O 828.173 -8.3501 -2.60497 0
M  V30 5845 C 826.767 -6.80225 -1.25468 0
M  V30 5846 O 827.565 -5.81716 -1.90454 0
M  V30 5847 C 825.429 -7.02416 -1.9168 0
M  V30 5848 N 824.386 -6.31033 -1.20314 0
M  V30 5849 C 824.555 -5.98817 0.0994088 0
M  V30 5850 N 823.528 -5.35403 0.621694 0
M  V30 5851 C 822.643 -5.25212 -0.43376 0
M  V30 5852 C 821.376 -4.64602 -0.519722 0
M  V30 5853 N 820.777 -4.01457 0.519136 0
M  V30 5854 N 820.811 -4.7568 -1.76013 0
M  V30 5855 C 821.413 -5.3653 -2.83017 0
M  V30 5856 N 822.59 -5.93676 -2.79782 0
M  V30 5857 C 823.165 -5.84061 -1.56249 0
M  V30 5858 H 825.461 -6.68789 -2.9658 0
M  V30 5859 H 826.644 -6.53498 -0.198729 0
M  V30 5860 H 828.127 -8.36622 -0.589963 0
M  V30 5861 H 826.433 -10.0273 -1.8081 0
M  V30 5862 H 826.243 -10.2138 0.558219 0
M  V30 5863 H 824.613 -9.6579 0.0444202 0
M  V30 5864 H 820.877 -5.37113 -3.77321 0
M  V30 5865 H 825.455 -6.23209 0.660562 0
M  V30 5866 H 819.847 -3.58834 0.394862 0
M  V30 5867 H 821.251 -3.96059 1.43048 0
M  V30 5868 H 827.253 -5.69466 -2.79593 0
M  V30 5869 P 829.11 -8.4349 -2.47671 0
M  V30 5870 O 830.532 -8.92593 -2.65 0
M  V30 5871 O 828.75 -7.7568 -1.19296 0
M  V30 5872 O 828.787 -7.36886 -3.63805 0
M  V30 5873 C 828.627 -7.95349 -4.982 0
M  V30 5874 C 829.167 -6.94612 -5.98974 0
M  V30 5875 O 828.111 -6.10347 -6.11815 0
M  V30 5876 C 830.385 -6.11426 -5.62335 0
M  V30 5877 O 831.123 -5.6162 -6.70584 0
M  V30 5878 C 829.716 -5.04409 -4.73308 0
M  V30 5879 O 830.515 -3.85992 -4.75183 0
M  V30 5880 C 828.379 -4.8728 -5.41006 0
M  V30 5881 H 828.411 -4.02333 -6.11157 0
M  V30 5882 H 829.594 -5.39466 -3.69543 0
M  V30 5883 H 831.078 -6.71916 -5.01943 0
M  V30 5884 H 829.384 -7.4649 -6.93477 0
M  V30 5885 H 829.194 -8.89416 -5.05237 0
M  V30 5886 H 827.564 -8.14876 -5.18409 0
M  V30 5887 H 830.203 -3.27957 -5.4317 0
M  V30 5888 P 832.061 -5.75688 -6.64379 0
M  V30 5889 O 833.483 -6.07627 -7.05504 0
M  V30 5890 O 831.701 -5.88047 -5.19722 0
M  V30 5891 O 831.738 -4.2322 -7.04443 0
M  V30 5892 C 831.578 -3.99743 -8.4911 0
M  V30 5893 C 832.118 -2.60516 -8.79425 0
M  V30 5894 O 831.062 -1.82684 -8.4467 0
M  V30 5895 C 833.336 -2.10343 -8.03628 0
M  V30 5896 O 834.074 -1.09919 -8.67766 0
M  V30 5897 C 832.667 -1.68446 -6.70876 0
M  V30 5898 O 833.466 -0.678137 -6.08433 0
M  V30 5899 C 831.33 -1.17436 -7.18567 0
M  V30 5900 H 831.362 -0.0804732 -7.31656 0
M  V30 5901 H 832.545 -2.54037 -6.02537 0
M  V30 5902 H 834.029 -2.93881 -7.85526 0
M  V30 5903 H 832.335 -2.53065 -9.86973 0
M  V30 5904 H 832.145 -4.75072 -9.05887 0
M  V30 5905 H 830.515 -4.05244 -8.76668 0
M  V30 5906 H 833.154 0.177647 -6.34251 0
M  V30 5907 P 835.011 -1.25109 -8.70152 0
M  V30 5908 O 836.433 -1.29744 -9.22016 0
M  V30 5909 O 834.651 -2.13714 -7.55141 0
M  V30 5910 O 834.688 0.248149 -8.21425 0
M  V30 5911 C 834.528 1.22779 -9.30434 0
M  V30 5912 C 835.068 2.56293 -8.80664 0
M  V30 5913 O 834.012 3.02979 -8.09349 0
M  V30 5914 C 836.286 2.57523 -7.89775 0
M  V30 5915 O 837.024 3.7668 -7.89438 0
M  V30 5916 C 835.617 2.20997 -6.55446 0
M  V30 5917 O 836.416 2.71895 -5.48509 0
M  V30 5918 C 834.28 2.89693 -6.67988 0
M  V30 5919 H 834.312 3.88793 -6.19859 0
M  V30 5920 H 835.495 1.12046 -6.44229 0
M  V30 5921 H 836.979 1.7746 -8.19711 0
M  V30 5922 H 835.285 3.20706 -9.67112 0
M  V30 5923 H 835.095 0.901032 -10.1892 0
M  V30 5924 H 833.465 1.33049 -9.56592 0
M  V30 5925 H 836.104 3.57847 -5.23962 0
M  V30 5926 P 837.962 3.65191 -7.99657 0
M  V30 5927 O 839.384 3.89332 -8.45794 0
M  V30 5928 O 837.602 2.28472 -7.50807 0
M  V30 5929 O 837.639 4.64972 -6.77611 0
M  V30 5930 C 837.479 6.06319 -7.16352 0
M  V30 5931 C 838.019 6.91731 -6.02299 0
M  V30 5932 O 836.963 6.92449 -5.17064 0
M  V30 5933 C 839.237 6.43627 -5.25174 0
M  V30 5934 O 839.975 7.43686 -4.60469 0
M  V30 5935 C 838.568 5.40275 -4.31916 0
M  V30 5936 O 839.367 5.25279 -3.14438 0
M  V30 5937 C 837.231 6.04847 -4.05327 0
M  V30 5938 H 837.263 6.62195 -3.11261 0
M  V30 5939 H 838.446 4.42556 -4.81383 0
M  V30 5940 H 839.93 5.92458 -5.93643 0
M  V30 5941 H 838.236 7.92655 -6.402 0
M  V30 5942 H 838.046 6.26671 -8.0846 0
M  V30 5943 H 836.416 6.29101 -7.32804 0
M  V30 5944 H 839.055 5.84315 -2.47318 0
M  V30 5945 P 840.912 7.39546 -4.75277 0
M  V30 5946 O 842.334 7.84798 -5.01039 0
M  V30 5947 O 840.552 5.9812 -5.08098 0
M  V30 5948 O 840.589 7.57503 -3.1866 0
M  V30 5949 C 840.429 8.97357 -2.74833 0
M  V30 5950 C 840.969 9.07548 -1.32709 0
M  V30 5951 O 839.913 8.62072 -0.606159 0
M  V30 5952 C 842.187 8.25383 -0.938334 0
M  V30 5953 O 842.925 8.74577 0.146954 0
M  V30 5954 C 841.518 6.8802 -0.712559 0
M  V30 5955 O 842.317 6.1189 0.194655 0
M  V30 5956 C 840.181 7.27966 -0.139777 0
M  V30 5957 H 840.213 7.25354 0.961601 0
M  V30 5958 H 841.396 6.32557 -1.65702 0
M  V30 5959 H 842.88 8.19355 -1.79097 0
M  V30 5960 H 841.186 10.1294 -1.10029 0
M  V30 5961 H 840.996 9.64276 -3.41316 0
M  V30 5962 H 839.366 9.25417 -2.76357 0
M  V30 5963 H 842.005 6.25267 1.07847 0
M  V30 5964 P 843.863 8.791 6.31533e-12 0
M  V30 5965 O 845.285 9.31096 0.027933 0
M  V30 5966 O 843.503 7.77869 -1.04071 0
M  V30 5967 O 843.54 8.09533 1.41463 0
M  V30 5968 C 843.38 9.0349 2.53943 0
M  V30 5969 C 843.92 8.35226 3.79016 0
M  V30 5970 O 842.864 7.57992 4.15078 0
M  V30 5971 C 845.138 7.45087 3.67298 0
M  V30 5972 O 845.876 7.27796 4.85194 0
M  V30 5973 C 844.469 6.17323 3.12027 0
M  V30 5974 O 845.268 5.04231 3.47188 0
M  V30 5975 C 843.132 6.19961 3.81809 0
M  V30 5976 H 843.164 5.58218 4.73051 0
M  V30 5977 H 844.347 6.21726 2.02589 0
M  V30 5978 H 845.831 7.86112 2.9231 0
M  V30 5979 H 844.137 9.11627 4.55076 0
M  V30 5980 H 843.947 9.9573 2.34194 0
M  V30 5981 H 842.317 9.2792 2.67832 0
M  V30 5982 H 844.956 4.67702 4.28772 0
M  V30 5983 P 846.814 7.39546 4.75277 0
M  V30 5984 O 848.236 7.81777 5.05738 0
M  V30 5985 O 846.454 7.1065 3.32998 0
M  V30 5986 O 846.491 6.04542 5.56673 0
M  V30 5987 C 846.331 6.22772 7.02095 0
M  V30 5988 C 846.871 4.97725 7.70406 0
M  V30 5989 O 845.815 4.13256 7.58987 0
M  V30 5990 C 848.089 4.28231 7.11815 0
M  V30 5991 O 848.827 3.49945 8.01648 0
M  V30 5992 C 847.42 3.5063 5.96244 0
M  V30 5993 O 848.219 2.36482 5.64681 0
M  V30 5994 C 846.083 3.15122 6.56374 0
M  V30 5995 H 846.115 2.13853 6.99751 0
M  V30 5996 H 847.298 4.13501 5.06559 0
M  V30 5997 H 848.782 5.03285 6.70911 0
M  V30 5998 H 847.088 5.20877 8.75697 0
M  V30 5999 H 846.898 7.11046 7.35349 0
M  V30 6000 H 845.268 6.35815 7.26986 0
M  V30 6001 H 847.907 1.61644 6.13565 0
M  V30 6002 P 849.764 3.65191 7.99657 0
M  V30 6003 O 851.186 3.8425 8.48115 0
M  V30 6004 O 849.404 4.17805 6.64342 0
M  V30 6005 O 849.441 2.07613 7.95143 0
M  V30 6006 C 849.281 1.44328 9.27336 0
M  V30 6007 C 849.821 0.0220036 9.17197 0
M  V30 6008 O 848.765 -0.626867 8.61923 0
M  V30 6009 C 851.039 -0.24586 8.30336 0
M  V30 6010 O 851.777 -1.39011 8.63583 0
M  V30 6011 C 850.37 -0.273849 6.91158 0
M  V30 6012 O 851.169 -1.06348 6.02892 0
M  V30 6013 C 849.033 -0.897649 7.22545 0
M  V30 6014 H 849.065 -1.9841 7.04286 0
M  V30 6015 H 850.248 0.739928 6.497 0
M  V30 6016 H 851.732 0.60668 8.36503 0
M  V30 6017 H 850.038 -0.352479 10.1829 0
M  V30 6018 H 849.848 2.00611 10.0304 0
M  V30 6019 H 848.218 1.41843 9.55327 0
M  V30 6020 H 850.857 -1.95734 6.03555 0
M  V30 6021 P 852.715 -1.25109 8.70152 0
M  V30 6022 O 854.137 -1.35274 9.21221 0
M  V30 6023 O 852.355 -0.0769065 7.84762 0
M  V30 6024 O 852.392 -2.55232 7.81161 0
M  V30 6025 C 852.232 -3.79939 8.58154 0
M  V30 6026 C 852.772 -4.94023 7.72785 0
M  V30 6027 O 851.716 -5.18726 6.91205 0
M  V30 6028 C 853.99 -4.69597 6.85231 0
M  V30 6029 O 854.728 -5.83832 6.51337 0
M  V30 6030 C 853.321 -3.96706 5.66633 0
M  V30 6031 O 854.12 -4.15414 4.49689 0
M  V30 6032 C 851.984 -4.66153 5.59313 0
M  V30 6033 H 852.016 -5.47679 4.85214 0
M  V30 6034 H 853.199 -2.89008 5.86566 0
M  V30 6035 H 854.683 -4.0121 7.36511 0
M  V30 6036 H 852.989 -5.80182 8.37584 0
M  V30 6037 H 852.799 -3.73517 9.52265 0
M  V30 6038 H 851.169 -3.97163 8.80359 0
M  V30 6039 H 853.808 -4.90969 4.01921 0
M  V30 6040 P 855.665 -5.75688 6.64379 0
M  V30 6041 O 857.066 -6.11991 7.09136 0
M  V30 6042 O 855.287 -4.30899 6.62018 0
M  V30 6043 O 855.342 -6.36965 5.19102 0
M  V30 6044 C 855.182 -7.83578 5.16515 0
M  V30 6045 C 855.722 -8.33307 3.82977 0
M  V30 6046 O 854.666 -8.0998 3.00999 0
M  V30 6047 C 856.939 -7.65514 3.2257 0
M  V30 6048 O 857.678 -8.4329 2.32297 0
M  V30 6049 C 856.272 -6.40075 2.62207 0
M  V30 6050 O 857.07 -5.92492 1.53687 0
M  V30 6051 C 854.934 -6.9454 2.18503 0
M  V30 6052 N 853.891 -5.95905 2.39948 0
M  V30 6053 C 852.856 -5.89764 1.49837 0
M  V30 6054 O 852.895 -6.64088 0.490975 0
M  V30 6055 N 851.844 -5.02821 1.70992 0
M  V30 6056 C 851.892 -4.21498 2.77236 0
M  V30 6057 N 850.882 -3.37475 2.96465 0
M  V30 6058 C 852.988 -4.23389 3.68205 0
M  V30 6059 C 853.954 -5.12792 3.46171 0
M  V30 6060 H 854.966 -7.22964 1.12076 0
M  V30 6061 H 856.149 -5.60502 3.36589 0
M  V30 6062 H 857.633 -7.36197 4.01993 0
M  V30 6063 H 855.939 -9.41302 3.90009 0
M  V30 6064 H 855.748 -8.29056 5.99158 0
M  V30 6065 H 854.118 -8.09989 5.25828 0
M  V30 6066 H 853.036 -3.54747 4.52399 0
M  V30 6067 H 854.8 -5.18551 4.1489 0
M  V30 6068 H 850.092 -3.36058 2.30304 0
M  V30 6069 H 850.887 -2.73846 3.77171 0
M  V30 6070 H 856.854 -6.40705 0.751752 0
M  V30 6071 P 858.616 -8.4349 2.47671 0
M  V30 6072 O 860.038 -8.94167 2.5964 0
M  V30 6073 O 858.256 -7.1704 3.19006 0
M  V30 6074 O 858.293 -8.16596 0.923387 0
M  V30 6075 C 858.133 -9.38437 0.108857 0
M  V30 6076 C 858.673 -9.08175 -1.28353 0
M  V30 6077 O 857.617 -8.44229 -1.84713 0
M  V30 6078 C 859.891 -8.18386 -1.42505 0
M  V30 6079 O 860.629 -8.3501 -2.60497 0
M  V30 6080 C 859.222 -6.80225 -1.25468 0
M  V30 6081 O 860.021 -5.81621 -1.91066 0
M  V30 6082 C 857.885 -7.02416 -1.9168 0
M  V30 6083 H 857.917 -6.6888 -2.96621 0
M  V30 6084 H 859.1 -6.53617 -0.192223 0
M  V30 6085 H 860.584 -8.36622 -0.589963 0
M  V30 6086 H 858.89 -10.0291 -1.79807 0
M  V30 6087 H 858.7 -10.2138 0.558219 0
M  V30 6088 H 857.07 -9.6579 0.0444202 0
M  V30 6089 H 859.709 -5.69556 -2.79637 0
M  V30 6090 P 861.566 -8.4349 -2.47671 0
M  V30 6091 O 862.988 -8.92593 -2.65 0
M  V30 6092 O 861.206 -7.7568 -1.19296 0
M  V30 6093 O 861.243 -7.36886 -3.63805 0
M  V30 6094 C 861.083 -7.95349 -4.982 0
M  V30 6095 C 861.623 -6.94612 -5.98974 0
M  V30 6096 O 860.567 -6.10347 -6.11815 0
M  V30 6097 C 862.841 -6.11426 -5.62335 0
M  V30 6098 O 863.579 -5.6162 -6.70584 0
M  V30 6099 C 862.172 -5.04409 -4.73308 0
M  V30 6100 O 862.971 -3.85992 -4.75183 0
M  V30 6101 C 860.835 -4.8728 -5.41006 0
M  V30 6102 H 860.867 -4.02333 -6.11157 0
M  V30 6103 H 862.05 -5.39466 -3.69543 0
M  V30 6104 H 863.534 -6.71916 -5.01943 0
M  V30 6105 H 861.84 -7.4649 -6.93477 0
M  V30 6106 H 861.65 -8.89416 -5.05237 0
M  V30 6107 H 860.02 -8.14876 -5.18409 0
M  V30 6108 H 862.659 -3.27957 -5.4317 0
M  V30 6109 P 864.517 -5.75688 -6.64379 0
M  V30 6110 O 865.939 -6.07627 -7.05504 0
M  V30 6111 O 864.157 -5.88047 -5.19722 0
M  V30 6112 O 864.194 -4.2322 -7.04443 0
M  V30 6113 C 864.034 -3.99743 -8.4911 0
M  V30 6114 C 864.574 -2.60516 -8.79425 0
M  V30 6115 O 863.518 -1.82684 -8.4467 0
M  V30 6116 C 865.792 -2.10343 -8.03628 0
M  V30 6117 O 866.53 -1.09919 -8.67766 0
M  V30 6118 C 865.123 -1.68446 -6.70876 0
M  V30 6119 O 865.922 -0.678137 -6.08433 0
M  V30 6120 C 863.786 -1.17436 -7.18567 0
M  V30 6121 H 863.818 -0.0804732 -7.31656 0
M  V30 6122 H 865.001 -2.54037 -6.02537 0
M  V30 6123 H 866.485 -2.93881 -7.85526 0
M  V30 6124 H 864.791 -2.53065 -9.86973 0
M  V30 6125 H 864.601 -4.75072 -9.05887 0
M  V30 6126 H 862.971 -4.05244 -8.76668 0
M  V30 6127 H 865.61 0.177647 -6.34251 0
M  V30 6128 P 867.468 -1.25109 -8.70152 0
M  V30 6129 O 868.89 -1.29744 -9.22016 0
M  V30 6130 O 867.108 -2.13714 -7.55141 0
M  V30 6131 O 867.145 0.248149 -8.21425 0
M  V30 6132 C 866.985 1.22779 -9.30434 0
M  V30 6133 C 867.525 2.56293 -8.80664 0
M  V30 6134 O 866.469 3.02979 -8.09349 0
M  V30 6135 C 868.743 2.57523 -7.89775 0
M  V30 6136 O 869.481 3.7668 -7.89438 0
M  V30 6137 C 868.074 2.20997 -6.55446 0
M  V30 6138 O 868.873 2.71895 -5.48509 0
M  V30 6139 C 866.737 2.89693 -6.67988 0
M  V30 6140 H 866.769 3.88793 -6.19859 0
M  V30 6141 H 867.952 1.12046 -6.44229 0
M  V30 6142 H 869.436 1.7746 -8.19711 0
M  V30 6143 H 867.742 3.20706 -9.67112 0
M  V30 6144 H 867.552 0.901032 -10.1892 0
M  V30 6145 H 865.922 1.33049 -9.56592 0
M  V30 6146 H 868.561 3.57847 -5.23962 0
M  V30 6147 P 870.418 3.65191 -7.99657 0
M  V30 6148 O 871.84 3.89332 -8.45794 0
M  V30 6149 O 870.058 2.28472 -7.50807 0
M  V30 6150 O 870.095 4.64972 -6.77611 0
M  V30 6151 C 869.935 6.06319 -7.16352 0
M  V30 6152 C 870.475 6.91731 -6.02299 0
M  V30 6153 O 869.419 6.92449 -5.17064 0
M  V30 6154 C 871.693 6.43627 -5.25174 0
M  V30 6155 O 872.431 7.43686 -4.60469 0
M  V30 6156 C 871.024 5.40275 -4.31916 0
M  V30 6157 O 871.823 5.25279 -3.14438 0
M  V30 6158 C 869.687 6.04847 -4.05327 0
M  V30 6159 H 869.719 6.62195 -3.11261 0
M  V30 6160 H 870.902 4.42556 -4.81383 0
M  V30 6161 H 872.386 5.92458 -5.93643 0
M  V30 6162 H 870.692 7.92655 -6.402 0
M  V30 6163 H 870.502 6.26671 -8.0846 0
M  V30 6164 H 868.872 6.29101 -7.32804 0
M  V30 6165 H 871.511 5.84315 -2.47318 0
M  V30 6166 P 873.369 7.39546 -4.75277 0
M  V30 6167 O 874.791 7.84798 -5.01039 0
M  V30 6168 O 873.009 5.9812 -5.08098 0
M  V30 6169 O 873.046 7.57503 -3.1866 0
M  V30 6170 C 872.886 8.97357 -2.74833 0
M  V30 6171 C 873.426 9.07548 -1.32709 0
M  V30 6172 O 872.37 8.62072 -0.606159 0
M  V30 6173 C 874.644 8.25383 -0.938334 0
M  V30 6174 O 875.382 8.74577 0.146954 0
M  V30 6175 C 873.975 6.8802 -0.712559 0
M  V30 6176 O 874.774 6.1189 0.194655 0
M  V30 6177 C 872.638 7.27966 -0.139777 0
M  V30 6178 H 872.67 7.25354 0.961601 0
M  V30 6179 H 873.853 6.32557 -1.65702 0
M  V30 6180 H 875.337 8.19355 -1.79097 0
M  V30 6181 H 873.643 10.1294 -1.10029 0
M  V30 6182 H 873.453 9.64276 -3.41316 0
M  V30 6183 H 871.823 9.25417 -2.76357 0
M  V30 6184 H 874.462 6.25267 1.07847 0
M  V30 6185 P 876.319 8.791 6.62549e-12 0
M  V30 6186 O 877.741 9.31096 0.027933 0
M  V30 6187 O 875.959 7.77869 -1.04071 0
M  V30 6188 O 875.996 8.09533 1.41463 0
M  V30 6189 C 875.836 9.0349 2.53943 0
M  V30 6190 C 876.376 8.35226 3.79016 0
M  V30 6191 O 875.32 7.57992 4.15078 0
M  V30 6192 C 877.594 7.45087 3.67298 0
M  V30 6193 O 878.332 7.27796 4.85194 0
M  V30 6194 C 876.925 6.17323 3.12027 0
M  V30 6195 O 877.724 5.04231 3.47188 0
M  V30 6196 C 875.588 6.19961 3.81809 0
M  V30 6197 H 875.62 5.58218 4.73051 0
M  V30 6198 H 876.803 6.21726 2.02589 0
M  V30 6199 H 878.287 7.86112 2.9231 0
M  V30 6200 H 876.593 9.11627 4.55076 0
M  V30 6201 H 876.403 9.9573 2.34194 0
M  V30 6202 H 874.773 9.2792 2.67832 0
M  V30 6203 H 877.412 4.67702 4.28772 0
M  V30 6204 P 879.27 7.39546 4.75277 0
M  V30 6205 O 880.692 7.81777 5.05738 0
M  V30 6206 O 878.91 7.1065 3.32998 0
M  V30 6207 O 878.947 6.04542 5.56673 0
M  V30 6208 C 878.787 6.22772 7.02095 0
M  V30 6209 C 879.327 4.97725 7.70406 0
M  V30 6210 O 878.271 4.13256 7.58987 0
M  V30 6211 C 880.545 4.28231 7.11815 0
M  V30 6212 O 881.283 3.49945 8.01648 0
M  V30 6213 C 879.876 3.5063 5.96244 0
M  V30 6214 O 880.675 2.36482 5.64681 0
M  V30 6215 C 878.539 3.15122 6.56374 0
M  V30 6216 H 878.571 2.13853 6.99751 0
M  V30 6217 H 879.754 4.13501 5.06559 0
M  V30 6218 H 881.238 5.03285 6.70911 0
M  V30 6219 H 879.544 5.20877 8.75697 0
M  V30 6220 H 879.354 7.11046 7.35349 0
M  V30 6221 H 877.724 6.35815 7.26986 0
M  V30 6222 H 880.363 1.61644 6.13565 0
M  V30 6223 P 882.22 3.65191 7.99657 0
M  V30 6224 O 883.642 3.8425 8.48115 0
M  V30 6225 O 881.86 4.17805 6.64342 0
M  V30 6226 O 881.897 2.07613 7.95143 0
M  V30 6227 C 881.737 1.44328 9.27336 0
M  V30 6228 C 882.277 0.0220036 9.17197 0
M  V30 6229 O 881.221 -0.626867 8.61923 0
M  V30 6230 C 883.495 -0.24586 8.30336 0
M  V30 6231 O 884.233 -1.39011 8.63583 0
M  V30 6232 C 882.826 -0.273849 6.91158 0
M  V30 6233 O 883.625 -1.06348 6.02892 0
M  V30 6234 C 881.489 -0.897649 7.22545 0
M  V30 6235 H 881.521 -1.9841 7.04286 0
M  V30 6236 H 882.704 0.739928 6.497 0
M  V30 6237 H 884.188 0.60668 8.36503 0
M  V30 6238 H 882.494 -0.352479 10.1829 0
M  V30 6239 H 882.304 2.00611 10.0304 0
M  V30 6240 H 880.674 1.41843 9.55327 0
M  V30 6241 H 883.313 -1.95734 6.03555 0
M  V30 6242 P 885.171 -1.25109 8.70152 0
M  V30 6243 O 886.593 -1.35274 9.21221 0
M  V30 6244 O 884.811 -0.0769065 7.84762 0
M  V30 6245 O 884.848 -2.55232 7.81161 0
M  V30 6246 C 884.688 -3.79939 8.58154 0
M  V30 6247 C 885.228 -4.94023 7.72785 0
M  V30 6248 O 884.172 -5.18726 6.91205 0
M  V30 6249 C 886.446 -4.69597 6.85231 0
M  V30 6250 O 887.184 -5.83832 6.51337 0
M  V30 6251 C 885.777 -3.96706 5.66633 0
M  V30 6252 O 886.576 -4.15414 4.49689 0
M  V30 6253 C 884.44 -4.66153 5.59313 0
M  V30 6254 H 884.472 -5.47679 4.85214 0
M  V30 6255 H 885.655 -2.89008 5.86566 0
M  V30 6256 H 887.139 -4.0121 7.36511 0
M  V30 6257 H 885.445 -5.80182 8.37584 0
M  V30 6258 H 885.255 -3.73517 9.52265 0
M  V30 6259 H 883.625 -3.97163 8.80359 0
M  V30 6260 H 886.264 -4.90969 4.01921 0
M  V30 6261 P 888.122 -5.75688 6.64379 0
M  V30 6262 O 889.544 -6.11849 7.01846 0
M  V30 6263 O 887.762 -4.30744 6.56026 0
M  V30 6264 O 887.799 -6.37042 5.19165 0
M  V30 6265 C 887.639 -7.83578 5.16515 0
M  V30 6266 C 888.179 -8.33398 3.83019 0
M  V30 6267 O 887.123 -8.10074 3.01034 0
M  V30 6268 C 889.397 -7.65514 3.2257 0
M  V30 6269 O 890.135 -8.4329 2.32297 0
M  V30 6270 C 888.728 -6.40075 2.62207 0
M  V30 6271 O 889.527 -5.92589 1.53712 0
M  V30 6272 C 887.391 -6.9454 2.18503 0
M  V30 6273 H 887.423 -7.23063 1.12091 0
M  V30 6274 H 888.606 -5.6025 3.37201 0
M  V30 6275 H 890.09 -7.35707 4.02681 0
M  V30 6276 H 888.396 -9.40912 3.9095 0
M  V30 6277 H 888.206 -8.29056 5.99158 0
M  V30 6278 H 886.576 -8.10073 5.25882 0
M  V30 6279 H 889.215 -6.30324 0.726794 0
M  V30 6280 P 891.072 -8.4349 2.47671 0
M  V30 6281 O 892.494 -8.94167 2.5964 0
M  V30 6282 O 890.712 -7.1704 3.19006 0
M  V30 6283 O 890.749 -8.16596 0.923387 0
M  V30 6284 C 890.589 -9.38437 0.108857 0
M  V30 6285 C 891.129 -9.08175 -1.28353 0
M  V30 6286 O 890.073 -8.44229 -1.84713 0
M  V30 6287 C 892.347 -8.18386 -1.42505 0
M  V30 6288 O 893.085 -8.3501 -2.60497 0
M  V30 6289 C 891.678 -6.80225 -1.25468 0
M  V30 6290 O 892.477 -5.81621 -1.91066 0
M  V30 6291 C 890.341 -7.02416 -1.9168 0
M  V30 6292 H 890.373 -6.6888 -2.96621 0
M  V30 6293 H 891.556 -6.53617 -0.192223 0
M  V30 6294 H 893.04 -8.36622 -0.589963 0
M  V30 6295 H 891.346 -10.0291 -1.79807 0
M  V30 6296 H 891.156 -10.2138 0.558219 0
M  V30 6297 H 889.526 -9.6579 0.0444202 0
M  V30 6298 H 892.165 -5.69556 -2.79637 0
M  V30 6299 P 894.023 -8.4349 -2.47671 0
M  V30 6300 O 895.445 -8.92593 -2.65 0
M  V30 6301 O 893.663 -7.7568 -1.19296 0
M  V30 6302 O 893.7 -7.36886 -3.63805 0
M  V30 6303 C 893.54 -7.95349 -4.982 0
M  V30 6304 C 894.08 -6.94612 -5.98974 0
M  V30 6305 O 893.024 -6.10347 -6.11815 0
M  V30 6306 C 895.298 -6.11426 -5.62335 0
M  V30 6307 O 896.036 -5.6162 -6.70584 0
M  V30 6308 C 894.629 -5.04409 -4.73308 0
M  V30 6309 O 895.428 -3.85992 -4.75183 0
M  V30 6310 C 893.292 -4.8728 -5.41006 0
M  V30 6311 H 893.324 -4.02333 -6.11157 0
M  V30 6312 H 894.507 -5.39466 -3.69543 0
M  V30 6313 H 895.991 -6.71916 -5.01943 0
M  V30 6314 H 894.297 -7.4649 -6.93477 0
M  V30 6315 H 894.107 -8.89416 -5.05237 0
M  V30 6316 H 892.477 -8.14876 -5.18409 0
M  V30 6317 H 895.116 -3.27957 -5.4317 0
M  V30 6318 P 896.973 -5.75688 -6.64379 0
M  V30 6319 O 898.395 -6.07627 -7.05504 0
M  V30 6320 O 896.613 -5.88047 -5.19722 0
M  V30 6321 O 896.65 -4.2322 -7.04443 0
M  V30 6322 C 896.49 -3.99743 -8.4911 0
M  V30 6323 C 897.03 -2.60516 -8.79425 0
M  V30 6324 O 895.974 -1.82684 -8.4467 0
M  V30 6325 C 898.248 -2.10343 -8.03628 0
M  V30 6326 O 898.986 -1.09919 -8.67766 0
M  V30 6327 C 897.579 -1.68446 -6.70876 0
M  V30 6328 O 898.378 -0.678137 -6.08433 0
M  V30 6329 C 896.242 -1.17436 -7.18567 0
M  V30 6330 H 896.274 -0.0804732 -7.31656 0
M  V30 6331 H 897.457 -2.54037 -6.02537 0
M  V30 6332 H 898.941 -2.93881 -7.85526 0
M  V30 6333 H 897.247 -2.53065 -9.86973 0
M  V30 6334 H 897.057 -4.75072 -9.05887 0
M  V30 6335 H 895.427 -4.05244 -8.76668 0
M  V30 6336 H 898.066 0.177647 -6.34251 0
M  V30 6337 P 899.924 -1.25109 -8.70152 0
M  V30 6338 O 901.325 -1.3516 -9.26897 0
M  V30 6339 O 899.546 -2.18141 -7.59181 0
M  V30 6340 O 899.601 0.248118 -8.21325 0
M  V30 6341 C 899.441 1.22779 -9.30434 0
M  V30 6342 C 899.981 2.56265 -8.80568 0
M  V30 6343 O 898.925 3.02944 -8.09255 0
M  V30 6344 C 901.198 2.57523 -7.89775 0
M  V30 6345 O 901.937 3.7668 -7.89438 0
M  V30 6346 C 900.531 2.20997 -6.55446 0
M  V30 6347 O 901.329 2.71851 -5.48419 0
M  V30 6348 C 899.193 2.89693 -6.67988 0
M  V30 6349 N 898.15 2.08895 -6.07487 0
M  V30 6350 C 897.115 2.72974 -5.43836 0
M  V30 6351 O 897.154 3.97779 -5.34036 0
M  V30 6352 N 896.103 2.0005 -4.91983 0
M  V30 6353 C 896.151 0.66501 -5.00098 0
M  V30 6354 C 897.247 -0.0100979 -5.61099 0
M  V30 6355 C 898.213 0.74189 -6.14236 0
M  V30 6356 H 899.225 3.8874 -6.19774 0
M  V30 6357 H 900.408 1.12673 -6.44018 0
M  V30 6358 H 901.892 1.783 -8.19631 0
M  V30 6359 H 900.198 3.21673 -9.66791 0
M  V30 6360 H 900.007 0.901032 -10.1892 0
M  V30 6361 H 898.377 1.33036 -9.56493 0
M  V30 6362 H 897.295 -1.09591 -5.64358 0
M  V30 6363 H 899.059 0.260263 -6.6359 0
M  V30 6364 H 901.113 3.62759 -5.33442 0
M  V30 6365 P 902.874 3.65191 -7.99657 0
M  V30 6366 O 904.296 3.89332 -8.45794 0
M  V30 6367 O 902.514 2.28472 -7.50807 0
M  V30 6368 O 902.551 4.64972 -6.77611 0
M  V30 6369 C 902.391 6.06319 -7.16352 0
M  V30 6370 C 902.931 6.91731 -6.02299 0
M  V30 6371 O 901.875 6.92449 -5.17064 0
M  V30 6372 C 904.149 6.43627 -5.25174 0
M  V30 6373 O 904.887 7.43686 -4.60469 0
M  V30 6374 C 903.48 5.40275 -4.31916 0
M  V30 6375 O 904.279 5.25279 -3.14438 0
M  V30 6376 C 902.143 6.04847 -4.05327 0
M  V30 6377 H 902.175 6.62195 -3.11261 0
M  V30 6378 H 903.358 4.42556 -4.81383 0
M  V30 6379 H 904.842 5.92458 -5.93643 0
M  V30 6380 H 903.148 7.92655 -6.402 0
M  V30 6381 H 902.958 6.26671 -8.0846 0
M  V30 6382 H 901.328 6.29101 -7.32804 0
M  V30 6383 H 903.967 5.84315 -2.47318 0
M  V30 6384 P 905.825 7.39546 -4.75277 0
M  V30 6385 O 907.247 7.84798 -5.01039 0
M  V30 6386 O 905.465 5.9812 -5.08098 0
M  V30 6387 O 905.502 7.57503 -3.1866 0
M  V30 6388 C 905.342 8.97357 -2.74833 0
M  V30 6389 C 905.882 9.07548 -1.32709 0
M  V30 6390 O 904.826 8.62072 -0.606159 0
M  V30 6391 C 907.1 8.25383 -0.938334 0
M  V30 6392 O 907.838 8.74577 0.146954 0
M  V30 6393 C 906.431 6.8802 -0.712559 0
M  V30 6394 O 907.23 6.1189 0.194655 0
M  V30 6395 C 905.094 7.27966 -0.139777 0
M  V30 6396 H 905.126 7.25354 0.961601 0
M  V30 6397 H 906.309 6.32557 -1.65702 0
M  V30 6398 H 907.793 8.19355 -1.79097 0
M  V30 6399 H 906.099 10.1294 -1.10029 0
M  V30 6400 H 905.909 9.64276 -3.41316 0
M  V30 6401 H 904.279 9.25417 -2.76357 0
M  V30 6402 H 906.918 6.25267 1.07847 0
M  V30 6403 P 908.776 8.791 6.93566e-12 0
M  V30 6404 O 910.198 9.31096 0.027933 0
M  V30 6405 O 908.416 7.77869 -1.04071 0
M  V30 6406 O 908.453 8.09533 1.41463 0
M  V30 6407 C 908.293 9.0349 2.53943 0
M  V30 6408 C 908.833 8.35226 3.79016 0
M  V30 6409 O 907.777 7.57992 4.15078 0
M  V30 6410 C 910.051 7.45087 3.67298 0
M  V30 6411 O 910.789 7.27796 4.85194 0
M  V30 6412 C 909.382 6.17323 3.12027 0
M  V30 6413 O 910.181 5.04231 3.47188 0
M  V30 6414 C 908.045 6.19961 3.81809 0
M  V30 6415 H 908.077 5.58218 4.73051 0
M  V30 6416 H 909.26 6.21726 2.02589 0
M  V30 6417 H 910.744 7.86112 2.9231 0
M  V30 6418 H 909.05 9.11627 4.55076 0
M  V30 6419 H 908.86 9.9573 2.34194 0
M  V30 6420 H 907.23 9.2792 2.67832 0
M  V30 6421 H 909.869 4.67702 4.28772 0
M  V30 6422 P 911.726 7.39546 4.75277 0
M  V30 6423 O 913.148 7.81777 5.05738 0
M  V30 6424 O 911.366 7.1065 3.32998 0
M  V30 6425 O 911.403 6.04542 5.56673 0
M  V30 6426 C 911.243 6.22772 7.02095 0
M  V30 6427 C 911.783 4.97725 7.70406 0
M  V30 6428 O 910.727 4.13256 7.58987 0
M  V30 6429 C 913.001 4.28231 7.11815 0
M  V30 6430 O 913.739 3.49945 8.01648 0
M  V30 6431 C 912.332 3.5063 5.96244 0
M  V30 6432 O 913.131 2.36482 5.64681 0
M  V30 6433 C 910.995 3.15122 6.56374 0
M  V30 6434 H 911.027 2.13853 6.99751 0
M  V30 6435 H 912.21 4.13501 5.06559 0
M  V30 6436 H 913.694 5.03285 6.70911 0
M  V30 6437 H 912 5.20877 8.75697 0
M  V30 6438 H 911.81 7.11046 7.35349 0
M  V30 6439 H 910.18 6.35815 7.26986 0
M  V30 6440 H 912.819 1.61644 6.13565 0
M  V30 6441 P 914.677 3.65191 7.99657 0
M  V30 6442 O 916.078 3.90823 8.51272 0
M  V30 6443 O 914.299 4.23191 6.66972 0
M  V30 6444 O 914.354 2.07587 7.95046 0
M  V30 6445 C 914.194 1.44328 9.27336 0
M  V30 6446 C 914.734 0.0220012 9.17097 0
M  V30 6447 O 913.678 -0.626794 8.61824 0
M  V30 6448 C 915.951 -0.24586 8.30336 0
M  V30 6449 O 916.69 -1.39011 8.63583 0
M  V30 6450 C 915.284 -0.273849 6.91158 0
M  V30 6451 O 916.082 -1.06331 6.02794 0
M  V30 6452 C 913.946 -0.897649 7.22545 0
M  V30 6453 N 912.903 -0.292839 6.41732 0
M  V30 6454 C 911.868 -1.08701 5.98712 0
M  V30 6455 O 911.907 -2.31211 6.24471 0
M  V30 6456 N 910.856 -0.533391 5.28415 0
M  V30 6457 C 910.904 0.770866 4.98576 0
M  V30 6458 C 912 1.59049 5.38086 0
M  V30 6459 C 912.966 1.01866 6.10256 0
M  V30 6460 H 913.978 -1.98383 7.04189 0
M  V30 6461 H 915.161 0.733318 6.49674 0
M  V30 6462 H 916.645 0.598386 8.36663 0
M  V30 6463 H 914.951 -0.362662 10.1825 0
M  V30 6464 H 914.76 2.00611 10.0304 0
M  V30 6465 H 913.13 1.41828 9.55228 0
M  V30 6466 H 912.048 2.6415 5.10622 0
M  V30 6467 H 913.812 1.61983 6.44042 0
M  V30 6468 H 915.866 -1.97777 6.14035 0
M  V30 6469 P 917.627 -1.25109 8.70152 0
M  V30 6470 O 919.028 -1.31452 9.27431 0
M  V30 6471 O 917.249 -0.0458113 7.89887 0
M  V30 6472 O 917.304 -2.55201 7.81066 0
M  V30 6473 C 917.144 -3.79939 8.58154 0
M  V30 6474 C 917.684 -4.93969 7.72701 0
M  V30 6475 O 916.628 -5.18666 6.91125 0
M  V30 6476 C 918.901 -4.69597 6.85231 0
M  V30 6477 O 919.64 -5.83832 6.51337 0
M  V30 6478 C 918.234 -3.96706 5.66633 0
M  V30 6479 O 919.032 -4.15346 4.49615 0
M  V30 6480 C 916.896 -4.66153 5.59313 0
M  V30 6481 N 915.853 -3.71582 5.24027 0
M  V30 6482 C 914.818 -4.15133 4.44901 0
M  V30 6483 O 914.857 -5.32122 4.00336 0
M  V30 6484 N 913.806 -3.30554 4.15693 0
M  V30 6485 C 913.854 -2.04701 4.61105 0
M  V30 6486 C 914.95 -1.57111 5.38655 0
M  V30 6487 C 915.916 -2.44234 5.68454 0
M  V30 6488 H 916.928 -5.47604 4.85148 0
M  V30 6489 H 918.111 -2.8955 5.86187 0
M  V30 6490 H 919.595 -4.01995 7.36197 0
M  V30 6491 H 917.901 -5.81019 8.37003 0
M  V30 6492 H 917.71 -3.73517 9.52265 0
M  V30 6493 H 916.08 -3.97122 8.80267 0
M  V30 6494 H 914.998 -0.538464 5.72373 0
M  V30 6495 H 916.762 -2.11927 6.29377 0
M  V30 6496 H 918.816 -4.98352 4.09633 0
M  V30 6497 P 920.578 -5.75688 6.64379 0
M  V30 6498 O 922 -6.11849 7.01846 0
M  V30 6499 O 920.218 -4.30744 6.56026 0
M  V30 6500 O 920.255 -6.37042 5.19165 0
M  V30 6501 C 920.095 -7.83578 5.16515 0
M  V30 6502 C 920.635 -8.33398 3.83019 0
M  V30 6503 O 919.579 -8.10074 3.01034 0
M  V30 6504 C 921.853 -7.65514 3.2257 0
M  V30 6505 O 922.591 -8.4329 2.32297 0
M  V30 6506 C 921.184 -6.40075 2.62207 0
M  V30 6507 O 921.983 -5.92589 1.53712 0
M  V30 6508 C 919.847 -6.9454 2.18503 0
M  V30 6509 H 919.879 -7.23063 1.12091 0
M  V30 6510 H 921.062 -5.6025 3.37201 0
M  V30 6511 H 922.546 -7.35707 4.02681 0
M  V30 6512 H 920.852 -9.40912 3.9095 0
M  V30 6513 H 920.662 -8.29056 5.99158 0
M  V30 6514 H 919.032 -8.10073 5.25882 0
M  V30 6515 H 921.671 -6.30324 0.726794 0
M  V30 6516 P 923.528 -8.4349 2.47671 0
M  V30 6517 O 924.949 -8.94263 2.59668 0
M  V30 6518 O 923.168 -7.1704 3.19006 0
M  V30 6519 O 923.205 -8.16596 0.923387 0
M  V30 6520 C 923.044 -9.38537 0.108869 0
M  V30 6521 C 923.585 -9.08175 -1.28353 0
M  V30 6522 O 922.53 -8.44131 -1.84692 0
M  V30 6523 C 924.803 -8.18386 -1.42505 0
M  V30 6524 O 925.541 -8.3501 -2.60497 0
M  V30 6525 C 924.135 -6.80225 -1.25468 0
M  V30 6526 O 924.933 -5.81716 -1.90454 0
M  V30 6527 C 922.797 -7.02416 -1.9168 0
M  V30 6528 N 921.754 -6.31033 -1.20314 0
M  V30 6529 C 921.923 -5.98817 0.0994088 0
M  V30 6530 N 920.896 -5.35403 0.621694 0
M  V30 6531 C 920.011 -5.25212 -0.43376 0
M  V30 6532 C 918.744 -4.64602 -0.519722 0
M  V30 6533 N 918.179 -4.7568 -1.76013 0
M  V30 6534 C 918.781 -5.3653 -2.83017 0
M  V30 6535 N 919.958 -5.93676 -2.79782 0
M  V30 6536 C 920.533 -5.84061 -1.56249 0
M  V30 6537 H 924.012 -6.53498 -0.198729 0
M  V30 6538 H 925.495 -8.36622 -0.589963 0
M  V30 6539 H 923.801 -10.0273 -1.8081 0
M  V30 6540 H 923.611 -10.2138 0.558219 0
M  V30 6541 H 921.981 -9.6579 0.0444202 0
M  V30 6542 H 922.823 -6.23209 0.660562 0
M  V30 6543 H 924.621 -5.69466 -2.79593 0
M  V30 6544 P 926.479 -8.4349 -2.47671 0
M  V30 6545 O 927.901 -8.92593 -2.65 0
M  V30 6546 O 926.119 -7.7568 -1.19296 0
M  V30 6547 O 926.156 -7.36886 -3.63805 0
M  V30 6548 C 925.996 -7.95349 -4.982 0
M  V30 6549 C 926.536 -6.94612 -5.98974 0
M  V30 6550 O 925.48 -6.10347 -6.11815 0
M  V30 6551 C 927.754 -6.11426 -5.62335 0
M  V30 6552 O 928.492 -5.6162 -6.70584 0
M  V30 6553 C 927.085 -5.04409 -4.73308 0
M  V30 6554 O 927.884 -3.85992 -4.75183 0
M  V30 6555 C 925.748 -4.8728 -5.41006 0
M  V30 6556 H 925.78 -4.02333 -6.11157 0
M  V30 6557 H 926.963 -5.39466 -3.69543 0
M  V30 6558 H 928.447 -6.71916 -5.01943 0
M  V30 6559 H 926.753 -7.4649 -6.93477 0
M  V30 6560 H 926.563 -8.89416 -5.05237 0
M  V30 6561 H 924.933 -8.14876 -5.18409 0
M  V30 6562 H 927.572 -3.27957 -5.4317 0
M  V30 6563 P 929.43 -5.75688 -6.64379 0
M  V30 6564 O 930.852 -6.07627 -7.05504 0
M  V30 6565 O 929.07 -5.88047 -5.19722 0
M  V30 6566 O 929.107 -4.2322 -7.04443 0
M  V30 6567 C 928.947 -3.99743 -8.4911 0
M  V30 6568 C 929.487 -2.60516 -8.79425 0
M  V30 6569 O 928.431 -1.82684 -8.4467 0
M  V30 6570 C 930.705 -2.10343 -8.03628 0
M  V30 6571 O 931.443 -1.09919 -8.67766 0
M  V30 6572 C 930.036 -1.68446 -6.70876 0
M  V30 6573 O 930.835 -0.678137 -6.08433 0
M  V30 6574 C 928.699 -1.17436 -7.18567 0
M  V30 6575 H 928.731 -0.0804732 -7.31656 0
M  V30 6576 H 929.914 -2.54037 -6.02537 0
M  V30 6577 H 931.398 -2.93881 -7.85526 0
M  V30 6578 H 929.704 -2.53065 -9.86973 0
M  V30 6579 H 929.514 -4.75072 -9.05887 0
M  V30 6580 H 927.884 -4.05244 -8.76668 0
M  V30 6581 H 930.523 0.177647 -6.34251 0
M  V30 6582 P 932.38 -1.25109 -8.70152 0
M  V30 6583 O 933.801 -1.29758 -9.22115 0
M  V30 6584 O 932.02 -2.13714 -7.55141 0
M  V30 6585 O 932.057 0.248149 -8.21425 0
M  V30 6586 C 931.896 1.22792 -9.30533 0
M  V30 6587 C 932.437 2.56293 -8.80664 0
M  V30 6588 O 931.382 3.02944 -8.09255 0
M  V30 6589 C 933.655 2.57523 -7.89775 0
M  V30 6590 O 934.393 3.7668 -7.89438 0
M  V30 6591 C 932.987 2.20997 -6.55446 0
M  V30 6592 O 933.785 2.71302 -5.48691 0
M  V30 6593 C 931.649 2.89693 -6.67988 0
M  V30 6594 N 930.606 2.08895 -6.07487 0
M  V30 6595 C 930.775 0.753809 -5.94137 0
M  V30 6596 N 929.748 0.146592 -5.38801 0
M  V30 6597 C 928.863 1.1768 -5.13693 0
M  V30 6598 C 927.596 1.17563 -4.52477 0
M  V30 6599 N 927.031 2.41918 -4.45789 0
M  V30 6600 C 927.633 3.56493 -4.90792 0
M  V30 6601 N 928.81 3.61423 -5.47817 0
M  V30 6602 C 929.385 2.37779 -5.5588 0
M  V30 6603 H 932.864 1.12673 -6.44018 0
M  V30 6604 H 934.347 1.7746 -8.19711 0
M  V30 6605 H 932.653 3.21673 -9.66791 0
M  V30 6606 H 932.463 0.901032 -10.1892 0
M  V30 6607 H 930.833 1.33049 -9.56592 0
M  V30 6608 H 931.675 0.233081 -6.26266 0
M  V30 6609 H 933.473 3.5779 -5.23879 0
M  V30 6610 P 935.331 3.65191 -7.99657 0
M  V30 6611 O 936.753 3.89332 -8.45794 0
M  V30 6612 O 934.971 2.28472 -7.50807 0
M  V30 6613 O 935.008 4.64972 -6.77611 0
M  V30 6614 C 934.848 6.06319 -7.16352 0
M  V30 6615 C 935.388 6.91731 -6.02299 0
M  V30 6616 O 934.332 6.92449 -5.17064 0
M  V30 6617 C 936.606 6.43627 -5.25174 0
M  V30 6618 O 937.344 7.43686 -4.60469 0
M  V30 6619 C 935.937 5.40275 -4.31916 0
M  V30 6620 O 936.736 5.25279 -3.14438 0
M  V30 6621 C 934.6 6.04847 -4.05327 0
M  V30 6622 H 934.632 6.62195 -3.11261 0
M  V30 6623 H 935.815 4.42556 -4.81383 0
M  V30 6624 H 937.299 5.92458 -5.93643 0
M  V30 6625 H 935.605 7.92655 -6.402 0
M  V30 6626 H 935.415 6.26671 -8.0846 0
M  V30 6627 H 933.785 6.29101 -7.32804 0
M  V30 6628 H 936.424 5.84315 -2.47318 0
M  V30 6629 P 938.281 7.39546 -4.75277 0
M  V30 6630 O 939.703 7.84798 -5.01039 0
M  V30 6631 O 937.921 5.9812 -5.08098 0
M  V30 6632 O 937.958 7.57503 -3.1866 0
M  V30 6633 C 937.798 8.97357 -2.74833 0
M  V30 6634 C 938.338 9.07548 -1.32709 0
M  V30 6635 O 937.282 8.62072 -0.606159 0
M  V30 6636 C 939.556 8.25383 -0.938334 0
M  V30 6637 O 940.294 8.74577 0.146954 0
M  V30 6638 C 938.887 6.8802 -0.712559 0
M  V30 6639 O 939.686 6.1189 0.194655 0
M  V30 6640 C 937.55 7.27966 -0.139777 0
M  V30 6641 H 937.582 7.25354 0.961601 0
M  V30 6642 H 938.765 6.32557 -1.65702 0
M  V30 6643 H 940.249 8.19355 -1.79097 0
M  V30 6644 H 938.555 10.1294 -1.10029 0
M  V30 6645 H 938.365 9.64276 -3.41316 0
M  V30 6646 H 936.735 9.25417 -2.76357 0
M  V30 6647 H 939.374 6.25267 1.07847 0
M  V30 6648 P 941.232 8.791 7.24582e-12 0
M  V30 6649 O 942.654 9.31096 0.027933 0
M  V30 6650 O 940.872 7.77869 -1.04071 0
M  V30 6651 O 940.909 8.09533 1.41463 0
M  V30 6652 C 940.749 9.0349 2.53943 0
M  V30 6653 C 941.289 8.35226 3.79016 0
M  V30 6654 O 940.233 7.57992 4.15078 0
M  V30 6655 C 942.507 7.45087 3.67298 0
M  V30 6656 O 943.245 7.27796 4.85194 0
M  V30 6657 C 941.838 6.17323 3.12027 0
M  V30 6658 O 942.637 5.04231 3.47188 0
M  V30 6659 C 940.501 6.19961 3.81809 0
M  V30 6660 H 940.533 5.58218 4.73051 0
M  V30 6661 H 941.716 6.21726 2.02589 0
M  V30 6662 H 943.2 7.86112 2.9231 0
M  V30 6663 H 941.506 9.11627 4.55076 0
M  V30 6664 H 941.316 9.9573 2.34194 0
M  V30 6665 H 939.686 9.2792 2.67832 0
M  V30 6666 H 942.325 4.67702 4.28772 0
M  V30 6667 P 944.182 7.39546 4.75277 0
M  V30 6668 O 945.604 7.81777 5.05738 0
M  V30 6669 O 943.822 7.1065 3.32998 0
M  V30 6670 O 943.859 6.04542 5.56673 0
M  V30 6671 C 943.699 6.22772 7.02095 0
M  V30 6672 C 944.239 4.97725 7.70406 0
M  V30 6673 O 943.183 4.13256 7.58987 0
M  V30 6674 C 945.457 4.28231 7.11815 0
M  V30 6675 O 946.195 3.49945 8.01648 0
M  V30 6676 C 944.788 3.5063 5.96244 0
M  V30 6677 O 945.587 2.36482 5.64681 0
M  V30 6678 C 943.451 3.15122 6.56374 0
M  V30 6679 H 943.483 2.13853 6.99751 0
M  V30 6680 H 944.666 4.13501 5.06559 0
M  V30 6681 H 946.15 5.03285 6.70911 0
M  V30 6682 H 944.456 5.20877 8.75697 0
M  V30 6683 H 944.266 7.11046 7.35349 0
M  V30 6684 H 942.636 6.35815 7.26986 0
M  V30 6685 H 945.275 1.61644 6.13565 0
M  V30 6686 P 947.133 3.65191 7.99657 0
M  V30 6687 O 948.555 3.8425 8.48115 0
M  V30 6688 O 946.773 4.17805 6.64342 0
M  V30 6689 O 946.81 2.07613 7.95143 0
M  V30 6690 C 946.65 1.44328 9.27336 0
M  V30 6691 C 947.19 0.0220036 9.17197 0
M  V30 6692 O 946.134 -0.626867 8.61923 0
M  V30 6693 C 948.408 -0.24586 8.30336 0
M  V30 6694 O 949.146 -1.39011 8.63583 0
M  V30 6695 C 947.739 -0.273849 6.91158 0
M  V30 6696 O 948.538 -1.06348 6.02892 0
M  V30 6697 C 946.402 -0.897649 7.22545 0
M  V30 6698 H 946.434 -1.9841 7.04286 0
M  V30 6699 H 947.617 0.739928 6.497 0
M  V30 6700 H 949.101 0.60668 8.36503 0
M  V30 6701 H 947.407 -0.352479 10.1829 0
M  V30 6702 H 947.217 2.00611 10.0304 0
M  V30 6703 H 945.587 1.41843 9.55327 0
M  V30 6704 H 948.226 -1.95734 6.03555 0
M  V30 6705 P 950.084 -1.25109 8.70152 0
M  V30 6706 O 951.506 -1.35274 9.21221 0
M  V30 6707 O 949.724 -0.0769065 7.84762 0
M  V30 6708 O 949.761 -2.55232 7.81161 0
M  V30 6709 C 949.601 -3.79939 8.58154 0
M  V30 6710 C 950.141 -4.94023 7.72785 0
M  V30 6711 O 949.085 -5.18726 6.91205 0
M  V30 6712 C 951.359 -4.69597 6.85231 0
M  V30 6713 O 952.097 -5.83832 6.51337 0
M  V30 6714 C 950.69 -3.96706 5.66633 0
M  V30 6715 O 951.489 -4.15414 4.49689 0
M  V30 6716 C 949.353 -4.66153 5.59313 0
M  V30 6717 H 949.385 -5.47679 4.85214 0
M  V30 6718 H 950.568 -2.89008 5.86566 0
M  V30 6719 H 952.052 -4.0121 7.36511 0
M  V30 6720 H 950.358 -5.80182 8.37584 0
M  V30 6721 H 950.168 -3.73517 9.52265 0
M  V30 6722 H 948.538 -3.97163 8.80359 0
M  V30 6723 H 951.177 -4.90969 4.01921 0
M  V30 6724 P 953.034 -5.75688 6.64379 0
M  V30 6725 O 954.455 -6.11915 7.01921 0
M  V30 6726 O 952.674 -4.30744 6.56026 0
M  V30 6727 O 952.711 -6.37042 5.19165 0
M  V30 6728 C 952.55 -7.83662 5.1657 0
M  V30 6729 C 953.091 -8.33398 3.83019 0
M  V30 6730 O 952.036 -8.0998 3.00999 0
M  V30 6731 C 954.309 -7.65514 3.2257 0
M  V30 6732 O 955.047 -8.4329 2.32297 0
M  V30 6733 C 953.641 -6.40075 2.62207 0
M  V30 6734 O 954.439 -5.92338 1.5428 0
M  V30 6735 C 952.303 -6.9454 2.18503 0
M  V30 6736 N 951.26 -5.95905 2.39948 0
M  V30 6737 C 951.429 -4.98383 3.32108 0
M  V30 6738 N 950.402 -4.16798 3.41761 0
M  V30 6739 C 949.517 -4.65287 2.47461 0
M  V30 6740 C 948.25 -4.18946 2.07461 0
M  V30 6741 N 947.651 -3.09661 2.60717 0
M  V30 6742 N 947.685 -4.95327 1.09101 0
M  V30 6743 C 948.287 -6.04369 0.519812 0
M  V30 6744 N 949.464 -6.50694 0.855982 0
M  V30 6745 C 950.039 -5.75818 1.84322 0
M  V30 6746 H 952.335 -7.22964 1.12076 0
M  V30 6747 H 953.518 -5.60502 3.36589 0
M  V30 6748 H 955.001 -7.35707 4.02681 0
M  V30 6749 H 953.307 -9.41302 3.90009 0
M  V30 6750 H 953.117 -8.29056 5.99158 0
M  V30 6751 H 951.487 -8.10073 5.25882 0
M  V30 6752 H 947.751 -6.55843 -0.270373 0
M  V30 6753 H 952.329 -4.88564 3.92502 0
M  V30 6754 H 946.721 -2.80523 2.27218 0
M  V30 6755 H 948.125 -2.55848 3.34465 0
M  V30 6756 H 954.127 -6.30224 0.72668 0
M  V30 6757 P 955.985 -8.4349 2.47671 0
M  V30 6758 O 957.407 -8.94167 2.5964 0
M  V30 6759 O 955.625 -7.1704 3.19006 0
M  V30 6760 O 955.662 -8.16596 0.923387 0
M  V30 6761 C 955.502 -9.38437 0.108857 0
M  V30 6762 C 956.042 -9.08175 -1.28353 0
M  V30 6763 O 954.986 -8.44229 -1.84713 0
M  V30 6764 C 957.26 -8.18386 -1.42505 0
M  V30 6765 O 957.998 -8.3501 -2.60497 0
M  V30 6766 C 956.591 -6.80225 -1.25468 0
M  V30 6767 O 957.39 -5.81621 -1.91066 0
M  V30 6768 C 955.254 -7.02416 -1.9168 0
M  V30 6769 H 955.286 -6.6888 -2.96621 0
M  V30 6770 H 956.469 -6.53617 -0.192223 0
M  V30 6771 H 957.953 -8.36622 -0.589963 0
M  V30 6772 H 956.259 -10.0291 -1.79807 0
M  V30 6773 H 956.069 -10.2138 0.558219 0
M  V30 6774 H 954.439 -9.6579 0.0444202 0
M  V30 6775 H 957.078 -5.69556 -2.79637 0
M  V30 6776 P 958.935 -8.4349 -2.47671 0
M  V30 6777 O 960.357 -8.92593 -2.65 0
M  V30 6778 O 958.575 -7.7568 -1.19296 0
M  V30 6779 O 958.612 -7.36886 -3.63805 0
M  V30 6780 C 958.452 -7.95349 -4.982 0
M  V30 6781 C 958.992 -6.94612 -5.98974 0
M  V30 6782 O 957.936 -6.10347 -6.11815 0
M  V30 6783 C 960.21 -6.11426 -5.62335 0
M  V30 6784 O 960.948 -5.6162 -6.70584 0
M  V30 6785 C 959.541 -5.04409 -4.73308 0
M  V30 6786 O 960.34 -3.85992 -4.75183 0
M  V30 6787 C 958.204 -4.8728 -5.41006 0
M  V30 6788 H 958.236 -4.02333 -6.11157 0
M  V30 6789 H 959.419 -5.39466 -3.69543 0
M  V30 6790 H 960.903 -6.71916 -5.01943 0
M  V30 6791 H 959.209 -7.4649 -6.93477 0
M  V30 6792 H 959.019 -8.89416 -5.05237 0
M  V30 6793 H 957.389 -8.14876 -5.18409 0
M  V30 6794 H 960.028 -3.27957 -5.4317 0
M  V30 6795 P 961.886 -5.75688 -6.64379 0
M  V30 6796 O 963.308 -6.07627 -7.05504 0
M  V30 6797 O 961.526 -5.88047 -5.19722 0
M  V30 6798 O 961.563 -4.2322 -7.04443 0
M  V30 6799 C 961.403 -3.99743 -8.4911 0
M  V30 6800 C 961.943 -2.60516 -8.79425 0
M  V30 6801 O 960.887 -1.82684 -8.4467 0
M  V30 6802 C 963.161 -2.10343 -8.03628 0
M  V30 6803 O 963.899 -1.09919 -8.67766 0
M  V30 6804 C 962.492 -1.68446 -6.70876 0
M  V30 6805 O 963.291 -0.678137 -6.08433 0
M  V30 6806 C 961.155 -1.17436 -7.18567 0
M  V30 6807 H 961.187 -0.0804732 -7.31656 0
M  V30 6808 H 962.37 -2.54037 -6.02537 0
M  V30 6809 H 963.854 -2.93881 -7.85526 0
M  V30 6810 H 962.16 -2.53065 -9.86973 0
M  V30 6811 H 961.97 -4.75072 -9.05887 0
M  V30 6812 H 960.34 -4.05244 -8.76668 0
M  V30 6813 H 962.979 0.177647 -6.34251 0
M  V30 6814 P 964.836 -1.25109 -8.70152 0
M  V30 6815 O 966.258 -1.29744 -9.22016 0
M  V30 6816 O 964.476 -2.13714 -7.55141 0
M  V30 6817 O 964.513 0.248149 -8.21425 0
M  V30 6818 C 964.353 1.22779 -9.30434 0
M  V30 6819 C 964.893 2.56293 -8.80664 0
M  V30 6820 O 963.837 3.02979 -8.09349 0
M  V30 6821 C 966.111 2.57523 -7.89775 0
M  V30 6822 O 966.849 3.7668 -7.89438 0
M  V30 6823 C 965.442 2.20997 -6.55446 0
M  V30 6824 O 966.241 2.71895 -5.48509 0
M  V30 6825 C 964.105 2.89693 -6.67988 0
M  V30 6826 H 964.137 3.88793 -6.19859 0
M  V30 6827 H 965.32 1.12046 -6.44229 0
M  V30 6828 H 966.804 1.7746 -8.19711 0
M  V30 6829 H 965.11 3.20706 -9.67112 0
M  V30 6830 H 964.92 0.901032 -10.1892 0
M  V30 6831 H 963.29 1.33049 -9.56592 0
M  V30 6832 H 965.929 3.57847 -5.23962 0
M  V30 6833 P 967.787 3.65191 -7.99657 0
M  V30 6834 O 969.209 3.89332 -8.45794 0
M  V30 6835 O 967.427 2.28472 -7.50807 0
M  V30 6836 O 967.464 4.64972 -6.77611 0
M  V30 6837 C 967.304 6.06319 -7.16352 0
M  V30 6838 C 967.844 6.91731 -6.02299 0
M  V30 6839 O 966.788 6.92449 -5.17064 0
M  V30 6840 C 969.062 6.43627 -5.25174 0
M  V30 6841 O 969.8 7.43686 -4.60469 0
M  V30 6842 C 968.393 5.40275 -4.31916 0
M  V30 6843 O 969.192 5.25279 -3.14438 0
M  V30 6844 C 967.056 6.04847 -4.05327 0
M  V30 6845 H 967.088 6.62195 -3.11261 0
M  V30 6846 H 968.271 4.42556 -4.81383 0
M  V30 6847 H 969.755 5.92458 -5.93643 0
M  V30 6848 H 968.061 7.92655 -6.402 0
M  V30 6849 H 967.871 6.26671 -8.0846 0
M  V30 6850 H 966.241 6.29101 -7.32804 0
M  V30 6851 H 968.88 5.84315 -2.47318 0
M  V30 6852 P 970.738 7.39546 -4.75277 0
M  V30 6853 O 972.16 7.84798 -5.01039 0
M  V30 6854 O 970.378 5.9812 -5.08098 0
M  V30 6855 O 970.415 7.57503 -3.1866 0
M  V30 6856 C 970.255 8.97357 -2.74833 0
M  V30 6857 C 970.795 9.07548 -1.32709 0
M  V30 6858 O 969.739 8.62072 -0.606159 0
M  V30 6859 C 972.013 8.25383 -0.938334 0
M  V30 6860 O 972.751 8.74577 0.146954 0
M  V30 6861 C 971.344 6.8802 -0.712559 0
M  V30 6862 O 972.143 6.1189 0.194655 0
M  V30 6863 C 970.007 7.27966 -0.139777 0
M  V30 6864 H 970.039 7.25354 0.961601 0
M  V30 6865 H 971.222 6.32557 -1.65702 0
M  V30 6866 H 972.706 8.19355 -1.79097 0
M  V30 6867 H 971.012 10.1294 -1.10029 0
M  V30 6868 H 970.822 9.64276 -3.41316 0
M  V30 6869 H 969.192 9.25417 -2.76357 0
M  V30 6870 H 971.831 6.25267 1.07847 0
M  V30 6871 P 973.688 8.791 7.55599e-12 0
M  V30 6872 O 975.089 9.36698 -0.018734 0
M  V30 6873 O 973.31 7.82499 -1.07878 0
M  V30 6874 O 973.365 8.09434 1.41446 0
M  V30 6875 C 973.205 9.0349 2.53943 0
M  V30 6876 C 973.745 8.35135 3.78975 0
M  V30 6877 O 972.689 7.57904 4.1503 0
M  V30 6878 C 974.962 7.45087 3.67298 0
M  V30 6879 O 975.701 7.27796 4.85194 0
M  V30 6880 C 974.295 6.17323 3.12027 0
M  V30 6881 O 975.093 5.04149 3.47132 0
M  V30 6882 C 972.957 6.19961 3.81809 0
M  V30 6883 N 971.914 5.71575 2.93223 0
M  V30 6884 C 970.879 4.99452 3.47592 0
M  V30 6885 O 970.918 4.7199 4.69732 0
M  V30 6886 N 969.867 4.58505 2.6803 0
M  V30 6887 C 969.915 4.85544 1.36995 0
M  V30 6888 N 968.905 4.45052 0.609031 0
M  V30 6889 C 971.011 5.55532 0.788532 0
M  V30 6890 C 971.977 5.97426 1.60849 0
M  V30 6891 H 972.989 5.58142 4.72986 0
M  V30 6892 H 974.172 6.21428 2.0318 0
M  V30 6893 H 975.656 7.85913 2.93131 0
M  V30 6894 H 973.962 9.11171 4.55987 0
M  V30 6895 H 973.771 9.9573 2.34194 0
M  V30 6896 H 972.141 9.27824 2.67805 0
M  V30 6897 H 971.059 5.7421 -0.281588 0
M  V30 6898 H 972.823 6.53132 1.202 0
M  V30 6899 H 968.115 3.94123 1.03159 0
M  V30 6900 H 968.91 4.64377 -0.400352 0
M  V30 6901 H 974.877 4.76386 4.34983 0
M  V30 6902 P 976.639 7.39546 4.75277 0
M  V30 6903 O 978.061 7.81777 5.05738 0
M  V30 6904 O 976.279 7.1065 3.32998 0
M  V30 6905 O 976.316 6.04542 5.56673 0
M  V30 6906 C 976.156 6.22772 7.02095 0
M  V30 6907 C 976.696 4.97725 7.70406 0
M  V30 6908 O 975.64 4.13256 7.58987 0
M  V30 6909 C 977.914 4.28231 7.11815 0
M  V30 6910 O 978.652 3.49945 8.01648 0
M  V30 6911 C 977.245 3.5063 5.96244 0
M  V30 6912 O 978.044 2.36482 5.64681 0
M  V30 6913 C 975.908 3.15122 6.56374 0
M  V30 6914 H 975.94 2.13853 6.99751 0
M  V30 6915 H 977.123 4.13501 5.06559 0
M  V30 6916 H 978.607 5.03285 6.70911 0
M  V30 6917 H 976.913 5.20877 8.75697 0
M  V30 6918 H 976.723 7.11046 7.35349 0
M  V30 6919 H 975.093 6.35815 7.26986 0
M  V30 6920 H 977.732 1.61644 6.13565 0
M  V30 6921 P 979.589 3.65191 7.99657 0
M  V30 6922 O 981.011 3.8425 8.48115 0
M  V30 6923 O 979.229 4.17805 6.64342 0
M  V30 6924 O 979.266 2.07613 7.95143 0
M  V30 6925 C 979.106 1.44328 9.27336 0
M  V30 6926 C 979.646 0.0220036 9.17197 0
M  V30 6927 O 978.59 -0.626867 8.61923 0
M  V30 6928 C 980.864 -0.24586 8.30336 0
M  V30 6929 O 981.602 -1.39011 8.63583 0
M  V30 6930 C 980.195 -0.273849 6.91158 0
M  V30 6931 O 980.994 -1.06348 6.02892 0
M  V30 6932 C 978.858 -0.897649 7.22545 0
M  V30 6933 H 978.89 -1.9841 7.04286 0
M  V30 6934 H 980.073 0.739928 6.497 0
M  V30 6935 H 981.557 0.60668 8.36503 0
M  V30 6936 H 979.863 -0.352479 10.1829 0
M  V30 6937 H 979.673 2.00611 10.0304 0
M  V30 6938 H 978.043 1.41843 9.55327 0
M  V30 6939 H 980.682 -1.95734 6.03555 0
M  V30 6940 P 982.54 -1.25109 8.70152 0
M  V30 6941 O 983.962 -1.35274 9.21221 0
M  V30 6942 O 982.18 -0.0769065 7.84762 0
M  V30 6943 O 982.217 -2.55232 7.81161 0
M  V30 6944 C 982.057 -3.79939 8.58154 0
M  V30 6945 C 982.597 -4.94023 7.72785 0
M  V30 6946 O 981.541 -5.18726 6.91205 0
M  V30 6947 C 983.815 -4.69597 6.85231 0
M  V30 6948 O 984.553 -5.83832 6.51337 0
M  V30 6949 C 983.146 -3.96706 5.66633 0
M  V30 6950 O 983.945 -4.15414 4.49689 0
M  V30 6951 C 981.809 -4.66153 5.59313 0
M  V30 6952 H 981.841 -5.47679 4.85214 0
M  V30 6953 H 983.024 -2.89008 5.86566 0
M  V30 6954 H 984.508 -4.0121 7.36511 0
M  V30 6955 H 982.814 -5.80182 8.37584 0
M  V30 6956 H 982.624 -3.73517 9.52265 0
M  V30 6957 H 980.994 -3.97163 8.80359 0
M  V30 6958 H 983.633 -4.90969 4.01921 0
M  V30 6959 P 985.49 -5.75688 6.64379 0
M  V30 6960 O 986.912 -6.11981 7.01997 0
M  V30 6961 O 985.13 -4.30744 6.56026 0
M  V30 6962 O 985.167 -6.37042 5.19165 0
M  V30 6963 C 985.007 -7.83578 5.16515 0
M  V30 6964 C 985.547 -8.33307 3.82977 0
M  V30 6965 O 984.492 -8.10074 3.01034 0
M  V30 6966 C 986.765 -7.65514 3.2257 0
M  V30 6967 O 987.503 -8.4329 2.32297 0
M  V30 6968 C 986.097 -6.40075 2.62207 0
M  V30 6969 O 986.895 -5.92492 1.53687 0
M  V30 6970 C 984.759 -6.9454 2.18503 0
M  V30 6971 N 983.716 -5.95905 2.39948 0
M  V30 6972 C 983.778 -5.13994 3.44742 0
M  V30 6973 N 982.733 -4.30684 3.46712 0
M  V30 6974 C 981.999 -4.65583 2.41086 0
M  V30 6975 C 980.693 -4.20877 1.99581 0
M  V30 6976 O 979.96 -3.35913 2.52616 0
M  V30 6977 N 980.263 -4.83271 0.873406 0
M  V30 6978 C 981.012 -5.82006 0.185129 0
M  V30 6979 N 980.415 -6.30619 -0.95439 0
M  V30 6980 N 982.165 -6.28443 0.578524 0
M  V30 6981 C 982.622 -5.68486 1.70138 0
M  V30 6982 H 984.791 -7.23063 1.12091 0
M  V30 6983 H 985.974 -5.60165 3.3715 0
M  V30 6984 H 987.459 -7.3611 4.01946 0
M  V30 6985 H 985.764 -9.40912 3.9095 0
M  V30 6986 H 985.574 -8.29056 5.99158 0
M  V30 6987 H 983.943 -8.10073 5.25882 0
M  V30 6988 H 979.367 -4.58323 0.505262 0
M  V30 6989 H 984.574 -5.14564 4.1935 0
M  V30 6990 H 979.504 -5.93402 -1.25364 0
M  V30 6991 H 980.88 -7.0425 -1.50254 0
M  V30 6992 H 986.584 -6.30224 0.72668 0
M  V30 6993 P 988.441 -8.4349 2.47671 0
M  V30 6994 O 989.863 -8.94167 2.5964 0
M  V30 6995 O 988.081 -7.1704 3.19006 0
M  V30 6996 O 988.118 -8.16596 0.923387 0
M  V30 6997 C 987.958 -9.38437 0.108857 0
M  V30 6998 C 988.498 -9.08175 -1.28353 0
M  V30 6999 O 987.442 -8.44229 -1.84713 0
M  V30 7000 C 989.716 -8.18386 -1.42505 0
M  V30 7001 O 990.454 -8.3501 -2.60497 0
M  V30 7002 C 989.047 -6.80225 -1.25468 0
M  V30 7003 O 989.846 -5.81621 -1.91066 0
M  V30 7004 C 987.71 -7.02416 -1.9168 0
M  V30 7005 H 987.742 -6.6888 -2.96621 0
M  V30 7006 H 988.925 -6.53617 -0.192223 0
M  V30 7007 H 990.409 -8.36622 -0.589963 0
M  V30 7008 H 988.715 -10.0291 -1.79807 0
M  V30 7009 H 988.525 -10.2138 0.558219 0
M  V30 7010 H 986.895 -9.6579 0.0444202 0
M  V30 7011 H 989.534 -5.69556 -2.79637 0
M  V30 7012 P 991.392 -8.4349 -2.47671 0
M  V30 7013 O 992.814 -8.92593 -2.65 0
M  V30 7014 O 991.032 -7.7568 -1.19296 0
M  V30 7015 O 991.069 -7.36886 -3.63805 0
M  V30 7016 C 990.909 -7.95349 -4.982 0
M  V30 7017 C 991.449 -6.94612 -5.98974 0
M  V30 7018 O 990.393 -6.10347 -6.11815 0
M  V30 7019 C 992.667 -6.11426 -5.62335 0
M  V30 7020 O 993.405 -5.6162 -6.70584 0
M  V30 7021 C 991.998 -5.04409 -4.73308 0
M  V30 7022 O 992.797 -3.85992 -4.75183 0
M  V30 7023 C 990.661 -4.8728 -5.41006 0
M  V30 7024 H 990.693 -4.02333 -6.11157 0
M  V30 7025 H 991.876 -5.39466 -3.69543 0
M  V30 7026 H 993.36 -6.71916 -5.01943 0
M  V30 7027 H 991.666 -7.4649 -6.93477 0
M  V30 7028 H 991.476 -8.89416 -5.05237 0
M  V30 7029 H 989.846 -8.14876 -5.18409 0
M  V30 7030 H 992.485 -3.27957 -5.4317 0
M  V30 7031 P 994.342 -5.75688 -6.64379 0
M  V30 7032 O 995.743 -6.14823 -7.06682 0
M  V30 7033 O 993.964 -5.93957 -5.20728 0
M  V30 7034 O 994.019 -4.23169 -7.04357 0
M  V30 7035 C 993.859 -3.99743 -8.4911 0
M  V30 7036 C 994.399 -2.60487 -8.79329 0
M  V30 7037 O 993.343 -1.82663 -8.44573 0
M  V30 7038 C 995.616 -2.10343 -8.03628 0
M  V30 7039 O 996.355 -1.09919 -8.67766 0
M  V30 7040 C 994.949 -1.68446 -6.70876 0
M  V30 7041 O 995.747 -0.678026 -6.08333 0
M  V30 7042 C 993.611 -1.17436 -7.18567 0
M  V30 7043 N 992.568 -1.52699 -6.23988 0
M  V30 7044 C 991.533 -0.643793 -6.05085 0
M  V30 7045 O 991.572 0.459118 -6.64315 0
M  V30 7046 N 990.521 -0.976931 -5.22038 0
M  V30 7047 C 990.569 -2.14429 -4.56662 0
M  V30 7048 C 991.665 -3.04203 -4.71481 0
M  V30 7049 C 992.631 -2.69669 -5.56838 0
M  V30 7050 H 993.643 -0.0804622 -7.31556 0
M  V30 7051 H 994.826 -2.53396 -6.02698 0
M  V30 7052 H 996.31 -2.9313 -7.85914 0
M  V30 7053 H 994.616 -2.52078 -9.87225 0
M  V30 7054 H 994.425 -4.75072 -9.05887 0
M  V30 7055 H 992.795 -4.05202 -8.76577 0
M  V30 7056 H 991.713 -3.97309 -4.15519 0
M  V30 7057 H 993.477 -3.36869 -5.72318 0
M  V30 7058 H 995.531 0.167718 -6.44882 0
M  V30 7059 P 997.293 -1.25109 -8.70152 0
M  V30 7060 O 998.715 -1.29744 -9.22016 0
M  V30 7061 O 996.933 -2.13714 -7.55141 0
M  V30 7062 O 996.97 0.248149 -8.21425 0
M  V30 7063 C 996.81 1.22779 -9.30434 0
M  V30 7064 C 997.35 2.56293 -8.80664 0
M  V30 7065 O 996.294 3.02979 -8.09349 0
M  V30 7066 C 998.568 2.57523 -7.89775 0
M  V30 7067 O 999.306 3.7668 -7.89438 0
M  V30 7068 C 997.899 2.20997 -6.55446 0
M  V30 7069 O 998.698 2.71895 -5.48509 0
M  V30 7070 C 996.562 2.89693 -6.67988 0
M  V30 7071 H 996.594 3.88793 -6.19859 0
M  V30 7072 H 997.777 1.12046 -6.44229 0
M  V30 7073 H 999.261 1.7746 -8.19711 0
M  V30 7074 H 997.567 3.20706 -9.67112 0
M  V30 7075 H 997.377 0.901032 -10.1892 0
M  V30 7076 H 995.747 1.33049 -9.56592 0
M  V30 7077 H 998.386 3.57847 -5.23962 0
M  V30 7078 P 1000.24 3.65191 -7.99657 0
M  V30 7079 O 1001.67 3.89416 -8.45976 0
M  V30 7080 O 999.883 2.28472 -7.50807 0
M  V30 7081 O 999.92 4.64972 -6.77611 0
M  V30 7082 C 999.76 6.06319 -7.16352 0
M  V30 7083 C 1000.3 6.91655 -6.02234 0
M  V30 7084 O 999.245 6.92449 -5.17064 0
M  V30 7085 C 1001.52 6.43627 -5.25174 0
M  V30 7086 O 1002.26 7.43686 -4.60469 0
M  V30 7087 C 1000.85 5.40275 -4.31916 0
M  V30 7088 O 1001.65 5.25193 -3.14386 0
M  V30 7089 C 999.512 6.04847 -4.05327 0
M  V30 7090 N 998.469 5.04166 -3.98114 0
M  V30 7091 C 998.531 3.96049 -4.75587 0
M  V30 7092 N 997.486 3.15559 -4.54006 0
M  V30 7093 C 996.752 3.78802 -3.62491 0
M  V30 7094 C 995.446 3.476 -3.10071 0
M  V30 7095 O 994.713 2.51136 -3.37021 0
M  V30 7096 N 995.016 4.39088 -2.19956 0
M  V30 7097 C 995.765 5.53215 -1.81733 0
M  V30 7098 N 995.168 6.31963 -0.860928 0
M  V30 7099 N 996.918 5.86688 -2.32562 0
M  V30 7100 C 997.375 4.97525 -3.23407 0
M  V30 7101 H 999.544 6.62195 -3.11261 0
M  V30 7102 H 1000.73 4.42488 -4.8131 0
M  V30 7103 H 1002.21 5.93051 -5.9305 0
M  V30 7104 H 1000.52 7.92655 -6.402 0
M  V30 7105 H 1000.33 6.26671 -8.0846 0
M  V30 7106 H 998.696 6.29101 -7.32804 0
M  V30 7107 H 994.12 4.25523 -1.77604 0
M  V30 7108 H 999.327 3.75576 -5.47333 0
M  V30 7109 H 994.257 6.04684 -0.468946 0
M  V30 7110 H 995.633 7.18054 -0.542422 0
M  V30 7111 H 1001.34 5.84223 -2.47279 0
M  V30 7112 P 1003.19 7.39546 -4.75277 0
M  V30 7113 O 1004.62 7.84798 -5.01039 0
M  V30 7114 O 1002.83 5.9812 -5.08098 0
M  V30 7115 O 1002.87 7.57503 -3.1866 0
M  V30 7116 C 1002.71 8.97357 -2.74833 0
M  V30 7117 C 1003.25 9.07548 -1.32709 0
M  V30 7118 O 1002.19 8.62072 -0.606159 0
M  V30 7119 C 1004.47 8.25383 -0.938334 0
M  V30 7120 O 1005.21 8.74577 0.146954 0
M  V30 7121 C 1003.8 6.8802 -0.712559 0
M  V30 7122 O 1004.6 6.1189 0.194655 0
M  V30 7123 C 1002.46 7.27966 -0.139777 0
M  V30 7124 H 1002.49 7.25354 0.961601 0
M  V30 7125 H 1003.68 6.32557 -1.65702 0
M  V30 7126 H 1005.16 8.19355 -1.79097 0
M  V30 7127 H 1003.47 10.1294 -1.10029 0
M  V30 7128 H 1003.28 9.64276 -3.41316 0
M  V30 7129 H 1001.65 9.25417 -2.76357 0
M  V30 7130 H 1004.29 6.25267 1.07847 0
M  V30 7131 P 1006.14 8.791 7.86616e-12 0
M  V30 7132 O 1007.55 9.36698 -0.018734 0
M  V30 7133 O 1005.77 7.82499 -1.07878 0
M  V30 7134 O 1005.82 8.09434 1.41446 0
M  V30 7135 C 1005.66 9.0349 2.53943 0
M  V30 7136 C 1006.2 8.35135 3.78975 0
M  V30 7137 O 1005.15 7.57904 4.1503 0
M  V30 7138 C 1007.42 7.45087 3.67298 0
M  V30 7139 O 1008.16 7.27796 4.85194 0
M  V30 7140 C 1006.75 6.17323 3.12027 0
M  V30 7141 O 1007.55 5.04149 3.47132 0
M  V30 7142 C 1005.41 6.19961 3.81809 0
M  V30 7143 N 1004.37 5.71575 2.93223 0
M  V30 7144 C 1003.34 4.99452 3.47592 0
M  V30 7145 O 1003.37 4.7199 4.69732 0
M  V30 7146 N 1002.32 4.58505 2.6803 0
M  V30 7147 C 1002.37 4.85544 1.36995 0
M  V30 7148 C 1003.47 5.55532 0.788532 0
M  V30 7149 C 1004.43 5.97426 1.60849 0
M  V30 7150 H 1005.45 5.58142 4.72986 0
M  V30 7151 H 1006.63 6.21428 2.0318 0
M  V30 7152 H 1008.11 7.85913 2.93131 0
M  V30 7153 H 1006.42 9.11171 4.55987 0
M  V30 7154 H 1006.23 9.9573 2.34194 0
M  V30 7155 H 1004.6 9.27824 2.67805 0
M  V30 7156 H 1003.52 5.7421 -0.281588 0
M  V30 7157 H 1005.28 6.53132 1.202 0
M  V30 7158 H 1007.33 4.76386 4.34983 0
M  V30 7159 P 1009.09 7.39546 4.75277 0
M  V30 7160 O 1010.52 7.81777 5.05738 0
M  V30 7161 O 1008.73 7.1065 3.32998 0
M  V30 7162 O 1008.77 6.04542 5.56673 0
M  V30 7163 C 1008.61 6.22772 7.02095 0
M  V30 7164 C 1009.15 4.97725 7.70406 0
M  V30 7165 O 1008.1 4.13256 7.58987 0
M  V30 7166 C 1010.37 4.28231 7.11815 0
M  V30 7167 O 1011.11 3.49945 8.01648 0
M  V30 7168 C 1009.7 3.5063 5.96244 0
M  V30 7169 O 1010.5 2.36482 5.64681 0
M  V30 7170 C 1008.36 3.15122 6.56374 0
M  V30 7171 H 1008.4 2.13853 6.99751 0
M  V30 7172 H 1009.58 4.13501 5.06559 0
M  V30 7173 H 1011.06 5.03285 6.70911 0
M  V30 7174 H 1009.37 5.20877 8.75697 0
M  V30 7175 H 1009.18 7.11046 7.35349 0
M  V30 7176 H 1007.55 6.35815 7.26986 0
M  V30 7177 H 1010.19 1.61644 6.13565 0
M  V30 7178 P 1012.05 3.65191 7.99657 0
M  V30 7179 O 1013.47 3.84333 8.48297 0
M  V30 7180 O 1011.69 4.17805 6.64342 0
M  V30 7181 O 1011.72 2.07613 7.95143 0
M  V30 7182 C 1011.56 1.44328 9.27336 0
M  V30 7183 C 1012.1 0.0220012 9.17097 0
M  V30 7184 O 1011.05 -0.626867 8.61923 0
M  V30 7185 C 1013.32 -0.24586 8.30336 0
M  V30 7186 O 1014.06 -1.39011 8.63583 0
M  V30 7187 C 1012.65 -0.273849 6.91158 0
M  V30 7188 O 1013.45 -1.06331 6.02794 0
M  V30 7189 C 1011.31 -0.897649 7.22545 0
M  V30 7190 N 1010.27 -0.292839 6.41732 0
M  V30 7191 C 1010.33 1.00068 6.10757 0
M  V30 7192 N 1009.29 1.36468 5.35794 0
M  V30 7193 C 1008.55 0.258894 5.2366 0
M  V30 7194 C 1007.25 0.0670682 4.65752 0
M  V30 7195 O 1006.52 0.902443 4.10497 0
M  V30 7196 N 1006.82 -1.2131 4.75881 0
M  V30 7197 C 1007.57 -2.24934 5.37101 0
M  V30 7198 N 1006.97 -3.48783 5.33984 0
M  V30 7199 N 1008.72 -2.0844 5.95684 0
M  V30 7200 C 1009.18 -0.81395 5.87791 0
M  V30 7201 H 1011.35 -1.9841 7.04286 0
M  V30 7202 H 1012.53 0.739815 6.49601 0
M  V30 7203 H 1014.01 0.598315 8.36563 0
M  V30 7204 H 1012.32 -0.352479 10.1829 0
M  V30 7205 H 1012.13 2.00611 10.0304 0
M  V30 7206 H 1010.5 1.41843 9.55327 0
M  V30 7207 H 1005.92 -1.44434 4.37895 0
M  V30 7208 H 1011.13 1.67697 6.42268 0
M  V30 7209 H 1006.06 -3.60543 4.87699 0
M  V30 7210 H 1007.44 -4.29232 5.7819 0
M  V30 7211 H 1013.14 -1.95704 6.0346 0
M  V30 7212 P 1015 -1.25109 8.70152 0
M  V30 7213 O 1016.42 -1.35274 9.21221 0
M  V30 7214 O 1014.64 -0.0769065 7.84762 0
M  V30 7215 O 1014.67 -2.55232 7.81161 0
M  V30 7216 C 1014.51 -3.79939 8.58154 0
M  V30 7217 C 1015.05 -4.94023 7.72785 0
M  V30 7218 O 1014 -5.18726 6.91205 0
M  V30 7219 C 1016.27 -4.69597 6.85231 0
M  V30 7220 O 1017.01 -5.83832 6.51337 0
M  V30 7221 C 1015.6 -3.96706 5.66633 0
M  V30 7222 O 1016.4 -4.15414 4.49689 0
M  V30 7223 C 1014.27 -4.66153 5.59313 0
M  V30 7224 H 1014.3 -5.47679 4.85214 0
M  V30 7225 H 1015.48 -2.89008 5.86566 0
M  V30 7226 H 1016.96 -4.0121 7.36511 0
M  V30 7227 H 1015.27 -5.80182 8.37584 0
M  V30 7228 H 1015.08 -3.73517 9.52265 0
M  V30 7229 H 1013.45 -3.97163 8.80359 0
M  V30 7230 H 1016.09 -4.90969 4.01921 0
M  V30 7231 P 1017.95 -5.75688 6.64379 0
M  V30 7232 O 1019.35 -6.11991 7.09136 0
M  V30 7233 O 1017.57 -4.30899 6.62018 0
M  V30 7234 O 1017.62 -6.36965 5.19102 0
M  V30 7235 C 1017.46 -7.83578 5.16515 0
M  V30 7236 C 1018 -8.33307 3.82977 0
M  V30 7237 O 1016.95 -8.0998 3.00999 0
M  V30 7238 C 1019.22 -7.65514 3.2257 0
M  V30 7239 O 1019.96 -8.4329 2.32297 0
M  V30 7240 C 1018.55 -6.40075 2.62207 0
M  V30 7241 O 1019.35 -5.92492 1.53687 0
M  V30 7242 C 1017.22 -6.9454 2.18503 0
M  V30 7243 N 1016.17 -5.95905 2.39948 0
M  V30 7244 C 1015.14 -5.89764 1.49837 0
M  V30 7245 O 1015.18 -6.64088 0.490975 0
M  V30 7246 N 1014.13 -5.02821 1.70992 0
M  V30 7247 C 1014.17 -4.21498 2.77236 0
M  V30 7248 C 1015.27 -4.23389 3.68205 0
M  V30 7249 C 1016.24 -5.12792 3.46171 0
M  V30 7250 H 1017.25 -7.22964 1.12076 0
M  V30 7251 H 1018.43 -5.60502 3.36589 0
M  V30 7252 H 1019.91 -7.36197 4.01993 0
M  V30 7253 H 1018.22 -9.41302 3.90009 0
M  V30 7254 H 1018.03 -8.29056 5.99158 0
M  V30 7255 H 1016.4 -8.09989 5.25828 0
M  V30 7256 H 1015.32 -3.54747 4.52399 0
M  V30 7257 H 1017.08 -5.18551 4.1489 0
M  V30 7258 H 1019.14 -6.40705 0.751752 0
M  V30 7259 P 1020.9 -8.4349 2.47671 0
M  V30 7260 O 1022.32 -8.94167 2.5964 0
M  V30 7261 O 1020.54 -7.1704 3.19006 0
M  V30 7262 O 1020.57 -8.16596 0.923387 0
M  V30 7263 C 1020.41 -9.38437 0.108857 0
M  V30 7264 C 1020.95 -9.08175 -1.28353 0
M  V30 7265 O 1019.9 -8.44229 -1.84713 0
M  V30 7266 C 1022.17 -8.18386 -1.42505 0
M  V30 7267 O 1022.91 -8.3501 -2.60497 0
M  V30 7268 C 1021.5 -6.80225 -1.25468 0
M  V30 7269 O 1022.3 -5.81621 -1.91066 0
M  V30 7270 C 1020.17 -7.02416 -1.9168 0
M  V30 7271 H 1020.2 -6.6888 -2.96621 0
M  V30 7272 H 1021.38 -6.53617 -0.192223 0
M  V30 7273 H 1022.87 -8.36622 -0.589963 0
M  V30 7274 H 1021.17 -10.0291 -1.79807 0
M  V30 7275 H 1020.98 -10.2138 0.558219 0
M  V30 7276 H 1019.35 -9.6579 0.0444202 0
M  V30 7277 H 1021.99 -5.69556 -2.79637 0
M  V30 7278 P 1023.85 -8.4349 -2.47671 0
M  V30 7279 O 1025.27 -8.92593 -2.65 0
M  V30 7280 O 1023.49 -7.7568 -1.19296 0
M  V30 7281 O 1023.52 -7.36886 -3.63805 0
M  V30 7282 C 1023.36 -7.95349 -4.982 0
M  V30 7283 C 1023.9 -6.94612 -5.98974 0
M  V30 7284 O 1022.85 -6.10347 -6.11815 0
M  V30 7285 C 1025.12 -6.11426 -5.62335 0
M  V30 7286 O 1025.86 -5.6162 -6.70584 0
M  V30 7287 C 1024.45 -5.04409 -4.73308 0
M  V30 7288 O 1025.25 -3.85992 -4.75183 0
M  V30 7289 C 1023.12 -4.8728 -5.41006 0
M  V30 7290 H 1023.15 -4.02333 -6.11157 0
M  V30 7291 H 1024.33 -5.39466 -3.69543 0
M  V30 7292 H 1025.82 -6.71916 -5.01943 0
M  V30 7293 H 1024.12 -7.4649 -6.93477 0
M  V30 7294 H 1023.93 -8.89416 -5.05237 0
M  V30 7295 H 1022.3 -8.14876 -5.18409 0
M  V30 7296 H 1024.94 -3.27957 -5.4317 0
M  V30 7297 P 1026.8 -5.75688 -6.64379 0
M  V30 7298 O 1028.22 -6.07692 -7.0558 0
M  V30 7299 O 1026.44 -5.88047 -5.19722 0
M  V30 7300 O 1026.48 -4.2322 -7.04443 0
M  V30 7301 C 1026.31 -3.99785 -8.49201 0
M  V30 7302 C 1026.86 -2.60516 -8.79425 0
M  V30 7303 O 1025.8 -1.82663 -8.44573 0
M  V30 7304 C 1028.07 -2.10343 -8.03628 0
M  V30 7305 O 1028.81 -1.09919 -8.67766 0
M  V30 7306 C 1027.41 -1.68446 -6.70876 0
M  V30 7307 O 1028.2 -0.684109 -6.08265 0
M  V30 7308 C 1026.07 -1.17436 -7.18567 0
M  V30 7309 N 1025.02 -1.52699 -6.23988 0
M  V30 7310 C 1025.19 -2.578 -5.40574 0
M  V30 7311 N 1024.17 -2.78966 -4.61193 0
M  V30 7312 C 1023.28 -1.78725 -4.95769 0
M  V30 7313 C 1022.01 -1.45727 -4.44207 0
M  V30 7314 N 1021.45 -0.374977 -5.05812 0
M  V30 7315 C 1022.05 0.345585 -6.05615 0
M  V30 7316 N 1023.23 0.0787651 -6.56253 0
M  V30 7317 C 1023.8 -1.00499 -5.96189 0
M  V30 7318 H 1027.28 -2.53396 -6.02698 0
M  V30 7319 H 1028.77 -2.93881 -7.85526 0
M  V30 7320 H 1027.07 -2.52078 -9.87225 0
M  V30 7321 H 1026.88 -4.75072 -9.05887 0
M  V30 7322 H 1025.25 -4.05244 -8.76668 0
M  V30 7323 H 1026.09 -3.18977 -5.3945 0
M  V30 7324 H 1027.89 0.177619 -6.34151 0
M  V30 7325 P 1029.75 -1.25109 -8.70152 0
M  V30 7326 O 1031.17 -1.29744 -9.22016 0
M  V30 7327 O 1029.39 -2.13714 -7.55141 0
M  V30 7328 O 1029.43 0.248149 -8.21425 0
M  V30 7329 C 1029.27 1.22779 -9.30434 0
M  V30 7330 C 1029.81 2.56293 -8.80664 0
M  V30 7331 O 1028.75 3.02979 -8.09349 0
M  V30 7332 C 1031.02 2.57523 -7.89775 0
M  V30 7333 O 1031.76 3.7668 -7.89438 0
M  V30 7334 C 1030.35 2.20997 -6.55446 0
M  V30 7335 O 1031.15 2.71895 -5.48509 0
M  V30 7336 C 1029.02 2.89693 -6.67988 0
M  V30 7337 H 1029.05 3.88793 -6.19859 0
M  V30 7338 H 1030.23 1.12046 -6.44229 0
M  V30 7339 H 1031.72 1.7746 -8.19711 0
M  V30 7340 H 1030.02 3.20706 -9.67112 0
M  V30 7341 H 1029.83 0.901032 -10.1892 0
M  V30 7342 H 1028.2 1.33049 -9.56592 0
M  V30 7343 H 1030.84 3.57847 -5.23962 0
M  V30 7344 P 1032.7 3.65191 -7.99657 0
M  V30 7345 O 1034.12 3.89332 -8.45794 0
M  V30 7346 O 1032.34 2.28472 -7.50807 0
M  V30 7347 O 1032.38 4.64972 -6.77611 0
M  V30 7348 C 1032.22 6.06319 -7.16352 0
M  V30 7349 C 1032.76 6.91731 -6.02299 0
M  V30 7350 O 1031.7 6.92449 -5.17064 0
M  V30 7351 C 1033.97 6.43627 -5.25174 0
M  V30 7352 O 1034.71 7.43686 -4.60469 0
M  V30 7353 C 1033.31 5.40275 -4.31916 0
M  V30 7354 O 1034.1 5.25279 -3.14438 0
M  V30 7355 C 1031.97 6.04847 -4.05327 0
M  V30 7356 H 1032 6.62195 -3.11261 0
M  V30 7357 H 1033.18 4.42556 -4.81383 0
M  V30 7358 H 1034.67 5.92458 -5.93643 0
M  V30 7359 H 1032.97 7.92655 -6.402 0
M  V30 7360 H 1032.78 6.26671 -8.0846 0
M  V30 7361 H 1031.15 6.29101 -7.32804 0
M  V30 7362 H 1033.79 5.84315 -2.47318 0
M  V30 7363 P 1035.65 7.39546 -4.75277 0
M  V30 7364 O 1037.07 7.84798 -5.01039 0
M  V30 7365 O 1035.29 5.9812 -5.08098 0
M  V30 7366 O 1035.33 7.57503 -3.1866 0
M  V30 7367 C 1035.17 8.97357 -2.74833 0
M  V30 7368 C 1035.71 9.07548 -1.32709 0
M  V30 7369 O 1034.65 8.62072 -0.606159 0
M  V30 7370 C 1036.93 8.25383 -0.938334 0
M  V30 7371 O 1037.66 8.74577 0.146954 0
M  V30 7372 C 1036.26 6.8802 -0.712559 0
M  V30 7373 O 1037.06 6.1189 0.194655 0
M  V30 7374 C 1034.92 7.27966 -0.139777 0
M  V30 7375 H 1034.95 7.25354 0.961601 0
M  V30 7376 H 1036.13 6.32557 -1.65702 0
M  V30 7377 H 1037.62 8.19355 -1.79097 0
M  V30 7378 H 1035.92 10.1294 -1.10029 0
M  V30 7379 H 1035.73 9.64276 -3.41316 0
M  V30 7380 H 1034.1 9.25417 -2.76357 0
M  V30 7381 H 1036.74 6.25267 1.07847 0
M  V30 7382 P 1038.6 8.791 8.17632e-12 0
M  V30 7383 O 1040 9.36698 -0.018734 0
M  V30 7384 O 1038.22 7.82499 -1.07878 0
M  V30 7385 O 1038.28 8.09434 1.41446 0
M  V30 7386 C 1038.12 9.0349 2.53943 0
M  V30 7387 C 1038.66 8.35135 3.78975 0
M  V30 7388 O 1037.6 7.57904 4.1503 0
M  V30 7389 C 1039.87 7.45087 3.67298 0
M  V30 7390 O 1040.61 7.27796 4.85194 0
M  V30 7391 C 1039.21 6.17323 3.12027 0
M  V30 7392 O 1040.01 5.04149 3.47132 0
M  V30 7393 C 1037.87 6.19961 3.81809 0
M  V30 7394 N 1036.83 5.71575 2.93223 0
M  V30 7395 C 1035.79 4.99452 3.47592 0
M  V30 7396 O 1035.83 4.7199 4.69732 0
M  V30 7397 N 1034.78 4.58505 2.6803 0
M  V30 7398 C 1034.83 4.85544 1.36995 0
M  V30 7399 C 1035.92 5.55532 0.788532 0
M  V30 7400 C 1036.89 5.97426 1.60849 0
M  V30 7401 H 1037.9 5.58142 4.72986 0
M  V30 7402 H 1039.08 6.21428 2.0318 0
M  V30 7403 H 1040.57 7.85913 2.93131 0
M  V30 7404 H 1038.87 9.11171 4.55987 0
M  V30 7405 H 1038.68 9.9573 2.34194 0
M  V30 7406 H 1037.05 9.27824 2.67805 0
M  V30 7407 H 1035.97 5.7421 -0.281588 0
M  V30 7408 H 1037.74 6.53132 1.202 0
M  V30 7409 H 1039.79 4.76386 4.34983 0
M  V30 7410 P 1041.55 7.39546 4.75277 0
M  V30 7411 O 1042.97 7.81777 5.05738 0
M  V30 7412 O 1041.19 7.1065 3.32998 0
M  V30 7413 O 1041.23 6.04542 5.56673 0
M  V30 7414 C 1041.07 6.22772 7.02095 0
M  V30 7415 C 1041.61 4.97725 7.70406 0
M  V30 7416 O 1040.55 4.13256 7.58987 0
M  V30 7417 C 1042.83 4.28231 7.11815 0
M  V30 7418 O 1043.56 3.49945 8.01648 0
M  V30 7419 C 1042.16 3.5063 5.96244 0
M  V30 7420 O 1042.96 2.36482 5.64681 0
M  V30 7421 C 1040.82 3.15122 6.56374 0
M  V30 7422 H 1040.85 2.13853 6.99751 0
M  V30 7423 H 1042.04 4.13501 5.06559 0
M  V30 7424 H 1043.52 5.03285 6.70911 0
M  V30 7425 H 1041.83 5.20877 8.75697 0
M  V30 7426 H 1041.64 7.11046 7.35349 0
M  V30 7427 H 1040.01 6.35815 7.26986 0
M  V30 7428 H 1042.64 1.61644 6.13565 0
M  V30 7429 P 1044.5 3.65191 7.99657 0
M  V30 7430 O 1045.92 3.8425 8.48115 0
M  V30 7431 O 1044.14 4.17805 6.64342 0
M  V30 7432 O 1044.18 2.07613 7.95143 0
M  V30 7433 C 1044.02 1.44328 9.27336 0
M  V30 7434 C 1044.56 0.0220036 9.17197 0
M  V30 7435 O 1043.5 -0.626867 8.61923 0
M  V30 7436 C 1045.78 -0.24586 8.30336 0
M  V30 7437 O 1046.51 -1.39011 8.63583 0
M  V30 7438 C 1045.11 -0.273849 6.91158 0
M  V30 7439 O 1045.91 -1.06348 6.02892 0
M  V30 7440 C 1043.77 -0.897649 7.22545 0
M  V30 7441 H 1043.8 -1.9841 7.04286 0
M  V30 7442 H 1044.99 0.739928 6.497 0
M  V30 7443 H 1046.47 0.60668 8.36503 0
M  V30 7444 H 1044.78 -0.352479 10.1829 0
M  V30 7445 H 1044.59 2.00611 10.0304 0
M  V30 7446 H 1042.96 1.41843 9.55327 0
M  V30 7447 H 1045.59 -1.95734 6.03555 0
M  V30 7448 P 1047.45 -1.25109 8.70152 0
M  V30 7449 O 1048.87 -1.35274 9.21221 0
M  V30 7450 O 1047.09 -0.0769065 7.84762 0
M  V30 7451 O 1047.13 -2.55232 7.81161 0
M  V30 7452 C 1046.97 -3.79939 8.58154 0
M  V30 7453 C 1047.51 -4.94023 7.72785 0
M  V30 7454 O 1046.45 -5.18726 6.91205 0
M  V30 7455 C 1048.73 -4.69597 6.85231 0
M  V30 7456 O 1049.47 -5.83832 6.51337 0
M  V30 7457 C 1048.06 -3.96706 5.66633 0
M  V30 7458 O 1048.86 -4.15414 4.49689 0
M  V30 7459 C 1046.72 -4.66153 5.59313 0
M  V30 7460 H 1046.75 -5.47679 4.85214 0
M  V30 7461 H 1047.94 -2.89008 5.86566 0
M  V30 7462 H 1049.42 -4.0121 7.36511 0
M  V30 7463 H 1047.73 -5.80182 8.37584 0
M  V30 7464 H 1047.54 -3.73517 9.52265 0
M  V30 7465 H 1045.91 -3.97163 8.80359 0
M  V30 7466 H 1048.55 -4.90969 4.01921 0
M  V30 7467 P 1050.4 -5.75688 6.64379 0
M  V30 7468 O 1051.82 -6.11849 7.01846 0
M  V30 7469 O 1050.04 -4.30744 6.56026 0
M  V30 7470 O 1050.08 -6.37042 5.19165 0
M  V30 7471 C 1049.92 -7.83578 5.16515 0
M  V30 7472 C 1050.46 -8.33398 3.83019 0
M  V30 7473 O 1049.4 -8.10074 3.01034 0
M  V30 7474 C 1051.68 -7.65514 3.2257 0
M  V30 7475 O 1052.42 -8.4329 2.32297 0
M  V30 7476 C 1051.01 -6.40075 2.62207 0
M  V30 7477 O 1051.81 -5.92589 1.53712 0
M  V30 7478 C 1049.67 -6.9454 2.18503 0
M  V30 7479 H 1049.7 -7.23063 1.12091 0
M  V30 7480 H 1050.89 -5.6025 3.37201 0
M  V30 7481 H 1052.37 -7.35707 4.02681 0
M  V30 7482 H 1050.68 -9.40912 3.9095 0
M  V30 7483 H 1050.49 -8.29056 5.99158 0
M  V30 7484 H 1048.86 -8.10073 5.25882 0
M  V30 7485 H 1051.5 -6.30324 0.726794 0
M  V30 7486 P 1053.35 -8.4349 2.47671 0
M  V30 7487 O 1054.78 -8.94167 2.5964 0
M  V30 7488 O 1052.99 -7.1704 3.19006 0
M  V30 7489 O 1053.03 -8.16596 0.923387 0
M  V30 7490 C 1052.87 -9.38437 0.108857 0
M  V30 7491 C 1053.41 -9.08175 -1.28353 0
M  V30 7492 O 1052.35 -8.44229 -1.84713 0
M  V30 7493 C 1054.63 -8.18386 -1.42505 0
M  V30 7494 O 1055.37 -8.3501 -2.60497 0
M  V30 7495 C 1053.96 -6.80225 -1.25468 0
M  V30 7496 O 1054.76 -5.81621 -1.91066 0
M  V30 7497 C 1052.62 -7.02416 -1.9168 0
M  V30 7498 H 1052.65 -6.6888 -2.96621 0
M  V30 7499 H 1053.84 -6.53617 -0.192223 0
M  V30 7500 H 1055.32 -8.36622 -0.589963 0
M  V30 7501 H 1053.63 -10.0291 -1.79807 0
M  V30 7502 H 1053.44 -10.2138 0.558219 0
M  V30 7503 H 1051.81 -9.6579 0.0444202 0
M  V30 7504 H 1054.45 -5.69556 -2.79637 0
M  V30 7505 P 1056.3 -8.4349 -2.47671 0
M  V30 7506 O 1057.73 -8.92689 -2.65029 0
M  V30 7507 O 1055.94 -7.7568 -1.19296 0
M  V30 7508 O 1055.98 -7.36886 -3.63805 0
M  V30 7509 C 1055.82 -7.95433 -4.98253 0
M  V30 7510 C 1056.36 -6.94612 -5.98974 0
M  V30 7511 O 1055.31 -6.10277 -6.11744 0
M  V30 7512 C 1057.58 -6.11426 -5.62335 0
M  V30 7513 O 1058.32 -5.6162 -6.70584 0
M  V30 7514 C 1056.91 -5.04409 -4.73308 0
M  V30 7515 O 1057.71 -3.86404 -4.74719 0
M  V30 7516 C 1055.57 -4.8728 -5.41006 0
M  V30 7517 N 1054.53 -4.65812 -4.42377 0
M  V30 7518 C 1054.7 -5.09132 -3.15382 0
M  V30 7519 N 1053.67 -4.84021 -2.3716 0
M  V30 7520 C 1052.79 -4.18386 -3.20441 0
M  V30 7521 C 1051.52 -3.6275 -2.94905 0
M  V30 7522 N 1050.92 -3.65794 -1.73372 0
M  V30 7523 N 1050.96 -3.05008 -4.05243 0
M  V30 7524 C 1051.56 -2.98348 -5.28159 0
M  V30 7525 N 1052.73 -3.48171 -5.56333 0
M  V30 7526 C 1053.31 -4.06869 -4.47212 0
M  V30 7527 H 1055.61 -4.02278 -6.11074 0
M  V30 7528 H 1056.79 -5.39013 -3.70026 0
M  V30 7529 H 1058.27 -6.71916 -5.01943 0
M  V30 7530 H 1056.58 -7.45796 -6.94223 0
M  V30 7531 H 1056.39 -8.89416 -5.05237 0
M  V30 7532 H 1054.76 -8.14876 -5.18409 0
M  V30 7533 H 1051.02 -2.47853 -6.07807 0
M  V30 7534 H 1055.6 -5.59989 -2.81362 0
M  V30 7535 H 1049.99 -3.23218 -1.60782 0
M  V30 7536 H 1051.4 -4.10523 -0.937856 0
M  V30 7537 H 1057.4 -3.27906 -5.43085 0
M  V30 7538 P 1059.25 -5.75688 -6.64379 0
M  V30 7539 O 1060.68 -6.07627 -7.05504 0
M  V30 7540 O 1058.89 -5.88047 -5.19722 0
M  V30 7541 O 1058.93 -4.2322 -7.04443 0
M  V30 7542 C 1058.77 -3.99743 -8.4911 0
M  V30 7543 C 1059.31 -2.60516 -8.79425 0
M  V30 7544 O 1058.26 -1.82684 -8.4467 0
M  V30 7545 C 1060.53 -2.10343 -8.03628 0
M  V30 7546 O 1061.27 -1.09919 -8.67766 0
M  V30 7547 C 1059.86 -1.68446 -6.70876 0
M  V30 7548 O 1060.66 -0.678137 -6.08433 0
M  V30 7549 C 1058.52 -1.17436 -7.18567 0
M  V30 7550 H 1058.56 -0.0804732 -7.31656 0
M  V30 7551 H 1059.74 -2.54037 -6.02537 0
M  V30 7552 H 1061.22 -2.93881 -7.85526 0
M  V30 7553 H 1059.53 -2.53065 -9.86973 0
M  V30 7554 H 1059.34 -4.75072 -9.05887 0
M  V30 7555 H 1057.71 -4.05244 -8.76668 0
M  V30 7556 H 1060.35 0.177647 -6.34251 0
M  V30 7557 P 1062.21 -1.25109 -8.70152 0
M  V30 7558 O 1063.63 -1.29744 -9.22016 0
M  V30 7559 O 1061.85 -2.13714 -7.55141 0
M  V30 7560 O 1061.88 0.248149 -8.21425 0
M  V30 7561 C 1061.72 1.22779 -9.30434 0
M  V30 7562 C 1062.26 2.56293 -8.80664 0
M  V30 7563 O 1061.21 3.02979 -8.09349 0
M  V30 7564 C 1063.48 2.57523 -7.89775 0
M  V30 7565 O 1064.22 3.7668 -7.89438 0
M  V30 7566 C 1062.81 2.20997 -6.55446 0
M  V30 7567 O 1063.61 2.71895 -5.48509 0
M  V30 7568 C 1061.47 2.89693 -6.67988 0
M  V30 7569 H 1061.51 3.88793 -6.19859 0
M  V30 7570 H 1062.69 1.12046 -6.44229 0
M  V30 7571 H 1064.17 1.7746 -8.19711 0
M  V30 7572 H 1062.48 3.20706 -9.67112 0
M  V30 7573 H 1062.29 0.901032 -10.1892 0
M  V30 7574 H 1060.66 1.33049 -9.56592 0
M  V30 7575 H 1063.3 3.57847 -5.23962 0
M  V30 7576 P 1065.16 3.65191 -7.99657 0
M  V30 7577 O 1066.58 3.89332 -8.45794 0
M  V30 7578 O 1064.8 2.28472 -7.50807 0
M  V30 7579 O 1064.83 4.64972 -6.77611 0
M  V30 7580 C 1064.67 6.06319 -7.16352 0
M  V30 7581 C 1065.21 6.91731 -6.02299 0
M  V30 7582 O 1064.16 6.92449 -5.17064 0
M  V30 7583 C 1066.43 6.43627 -5.25174 0
M  V30 7584 O 1067.17 7.43686 -4.60469 0
M  V30 7585 C 1065.76 5.40275 -4.31916 0
M  V30 7586 O 1066.56 5.25279 -3.14438 0
M  V30 7587 C 1064.42 6.04847 -4.05327 0
M  V30 7588 H 1064.46 6.62195 -3.11261 0
M  V30 7589 H 1065.64 4.42556 -4.81383 0
M  V30 7590 H 1067.12 5.92458 -5.93643 0
M  V30 7591 H 1065.43 7.92655 -6.402 0
M  V30 7592 H 1065.24 6.26671 -8.0846 0
M  V30 7593 H 1063.61 6.29101 -7.32804 0
M  V30 7594 H 1066.25 5.84315 -2.47318 0
M  V30 7595 P 1068.11 7.39546 -4.75277 0
M  V30 7596 O 1069.53 7.84798 -5.01039 0
M  V30 7597 O 1067.75 5.9812 -5.08098 0
M  V30 7598 O 1067.78 7.57503 -3.1866 0
M  V30 7599 C 1067.62 8.97357 -2.74833 0
M  V30 7600 C 1068.16 9.07548 -1.32709 0
M  V30 7601 O 1067.11 8.62072 -0.606159 0
M  V30 7602 C 1069.38 8.25383 -0.938334 0
M  V30 7603 O 1070.12 8.74577 0.146954 0
M  V30 7604 C 1068.71 6.8802 -0.712559 0
M  V30 7605 O 1069.51 6.1189 0.194655 0
M  V30 7606 C 1067.38 7.27966 -0.139777 0
M  V30 7607 H 1067.41 7.25354 0.961601 0
M  V30 7608 H 1068.59 6.32557 -1.65702 0
M  V30 7609 H 1070.07 8.19355 -1.79097 0
M  V30 7610 H 1068.38 10.1294 -1.10029 0
M  V30 7611 H 1068.19 9.64276 -3.41316 0
M  V30 7612 H 1066.56 9.25417 -2.76357 0
M  V30 7613 H 1069.2 6.25267 1.07847 0
M  V30 7614 P 1071.06 8.791 8.48649e-12 0
M  V30 7615 O 1072.46 9.36698 -0.018734 0
M  V30 7616 O 1070.68 7.82499 -1.07878 0
M  V30 7617 O 1070.73 8.09434 1.41446 0
M  V30 7618 C 1070.57 9.0349 2.53943 0
M  V30 7619 C 1071.11 8.35135 3.78975 0
M  V30 7620 O 1070.06 7.57904 4.1503 0
M  V30 7621 C 1072.33 7.45087 3.67298 0
M  V30 7622 O 1073.07 7.27796 4.85194 0
M  V30 7623 C 1071.66 6.17323 3.12027 0
M  V30 7624 O 1072.46 5.04149 3.47132 0
M  V30 7625 C 1070.33 6.19961 3.81809 0
M  V30 7626 N 1069.28 5.71575 2.93223 0
M  V30 7627 C 1068.25 4.99452 3.47592 0
M  V30 7628 O 1068.29 4.7199 4.69732 0
M  V30 7629 N 1067.24 4.58505 2.6803 0
M  V30 7630 C 1067.28 4.85544 1.36995 0
M  V30 7631 C 1068.38 5.55532 0.788532 0
M  V30 7632 C 1069.35 5.97426 1.60849 0
M  V30 7633 H 1070.36 5.58142 4.72986 0
M  V30 7634 H 1071.54 6.21428 2.0318 0
M  V30 7635 H 1073.02 7.85913 2.93131 0
M  V30 7636 H 1071.33 9.11171 4.55987 0
M  V30 7637 H 1071.14 9.9573 2.34194 0
M  V30 7638 H 1069.51 9.27824 2.67805 0
M  V30 7639 H 1068.43 5.7421 -0.281588 0
M  V30 7640 H 1070.19 6.53132 1.202 0
M  V30 7641 H 1072.25 4.76386 4.34983 0
M  V30 7642 P 1074.01 7.39546 4.75277 0
M  V30 7643 O 1075.43 7.81777 5.05738 0
M  V30 7644 O 1073.65 7.1065 3.32998 0
M  V30 7645 O 1073.68 6.04542 5.56673 0
M  V30 7646 C 1073.52 6.22772 7.02095 0
M  V30 7647 C 1074.06 4.97725 7.70406 0
M  V30 7648 O 1073.01 4.13256 7.58987 0
M  V30 7649 C 1075.28 4.28231 7.11815 0
M  V30 7650 O 1076.02 3.49945 8.01648 0
M  V30 7651 C 1074.61 3.5063 5.96244 0
M  V30 7652 O 1075.41 2.36482 5.64681 0
M  V30 7653 C 1073.28 3.15122 6.56374 0
M  V30 7654 H 1073.31 2.13853 6.99751 0
M  V30 7655 H 1074.49 4.13501 5.06559 0
M  V30 7656 H 1075.98 5.03285 6.70911 0
M  V30 7657 H 1074.28 5.20877 8.75697 0
M  V30 7658 H 1074.09 7.11046 7.35349 0
M  V30 7659 H 1072.46 6.35815 7.26986 0
M  V30 7660 H 1075.1 1.61644 6.13565 0
M  V30 7661 P 1076.96 3.65191 7.99657 0
M  V30 7662 O 1078.38 3.8425 8.48115 0
M  V30 7663 O 1076.6 4.17805 6.64342 0
M  V30 7664 O 1076.64 2.07613 7.95143 0
M  V30 7665 C 1076.48 1.44328 9.27336 0
M  V30 7666 C 1077.02 0.0220036 9.17197 0
M  V30 7667 O 1075.96 -0.626867 8.61923 0
M  V30 7668 C 1078.23 -0.24586 8.30336 0
M  V30 7669 O 1078.97 -1.39011 8.63583 0
M  V30 7670 C 1077.56 -0.273849 6.91158 0
M  V30 7671 O 1078.36 -1.06348 6.02892 0
M  V30 7672 C 1076.23 -0.897649 7.22545 0
M  V30 7673 H 1076.26 -1.9841 7.04286 0
M  V30 7674 H 1077.44 0.739928 6.497 0
M  V30 7675 H 1078.93 0.60668 8.36503 0
M  V30 7676 H 1077.23 -0.352479 10.1829 0
M  V30 7677 H 1077.04 2.00611 10.0304 0
M  V30 7678 H 1075.41 1.41843 9.55327 0
M  V30 7679 H 1078.05 -1.95734 6.03555 0
M  V30 7680 P 1079.91 -1.25109 8.70152 0
M  V30 7681 O 1081.33 -1.35274 9.21221 0
M  V30 7682 O 1079.55 -0.0769065 7.84762 0
M  V30 7683 O 1079.59 -2.55232 7.81161 0
M  V30 7684 C 1079.43 -3.79939 8.58154 0
M  V30 7685 C 1079.97 -4.94023 7.72785 0
M  V30 7686 O 1078.91 -5.18726 6.91205 0
M  V30 7687 C 1081.18 -4.69597 6.85231 0
M  V30 7688 O 1081.92 -5.83832 6.51337 0
M  V30 7689 C 1080.51 -3.96706 5.66633 0
M  V30 7690 O 1081.31 -4.15414 4.49689 0
M  V30 7691 C 1079.18 -4.66153 5.59313 0
M  V30 7692 H 1079.21 -5.47679 4.85214 0
M  V30 7693 H 1080.39 -2.89008 5.86566 0
M  V30 7694 H 1081.88 -4.0121 7.36511 0
M  V30 7695 H 1080.18 -5.80182 8.37584 0
M  V30 7696 H 1079.99 -3.73517 9.52265 0
M  V30 7697 H 1078.36 -3.97163 8.80359 0
M  V30 7698 H 1081 -4.90969 4.01921 0
M  V30 7699 P 1082.86 -5.75688 6.64379 0
M  V30 7700 O 1084.28 -6.11849 7.01846 0
M  V30 7701 O 1082.5 -4.30744 6.56026 0
M  V30 7702 O 1082.54 -6.37042 5.19165 0
M  V30 7703 C 1082.38 -7.83578 5.16515 0
M  V30 7704 C 1082.92 -8.33398 3.83019 0
M  V30 7705 O 1081.86 -8.10074 3.01034 0
M  V30 7706 C 1084.13 -7.65514 3.2257 0
M  V30 7707 O 1084.87 -8.4329 2.32297 0
M  V30 7708 C 1083.47 -6.40075 2.62207 0
M  V30 7709 O 1084.26 -5.92589 1.53712 0
M  V30 7710 C 1082.13 -6.9454 2.18503 0
M  V30 7711 H 1082.16 -7.23063 1.12091 0
M  V30 7712 H 1083.34 -5.6025 3.37201 0
M  V30 7713 H 1084.83 -7.35707 4.02681 0
M  V30 7714 H 1083.13 -9.40912 3.9095 0
M  V30 7715 H 1082.94 -8.29056 5.99158 0
M  V30 7716 H 1081.31 -8.10073 5.25882 0
M  V30 7717 H 1083.95 -6.30324 0.726794 0
M  V30 7718 P 1085.81 -8.4349 2.47671 0
M  V30 7719 O 1087.23 -8.94167 2.5964 0
M  V30 7720 O 1085.45 -7.1704 3.19006 0
M  V30 7721 O 1085.49 -8.16596 0.923387 0
M  V30 7722 C 1085.33 -9.38437 0.108857 0
M  V30 7723 C 1085.87 -9.08175 -1.28353 0
M  V30 7724 O 1084.81 -8.44229 -1.84713 0
M  V30 7725 C 1087.08 -8.18386 -1.42505 0
M  V30 7726 O 1087.82 -8.3501 -2.60497 0
M  V30 7727 C 1086.42 -6.80225 -1.25468 0
M  V30 7728 O 1087.21 -5.81621 -1.91066 0
M  V30 7729 C 1085.08 -7.02416 -1.9168 0
M  V30 7730 H 1085.11 -6.6888 -2.96621 0
M  V30 7731 H 1086.29 -6.53617 -0.192223 0
M  V30 7732 H 1087.78 -8.36622 -0.589963 0
M  V30 7733 H 1086.08 -10.0291 -1.79807 0
M  V30 7734 H 1085.89 -10.2138 0.558219 0
M  V30 7735 H 1084.26 -9.6579 0.0444202 0
M  V30 7736 H 1086.9 -5.69556 -2.79637 0
M  V30 7737 P 1088.76 -8.4349 -2.47671 0
M  V30 7738 O 1090.18 -8.92593 -2.65 0
M  V30 7739 O 1088.4 -7.7568 -1.19296 0
M  V30 7740 O 1088.44 -7.36886 -3.63805 0
M  V30 7741 C 1088.28 -7.95349 -4.982 0
M  V30 7742 C 1088.82 -6.94612 -5.98974 0
M  V30 7743 O 1087.76 -6.10347 -6.11815 0
M  V30 7744 C 1090.04 -6.11426 -5.62335 0
M  V30 7745 O 1090.77 -5.6162 -6.70584 0
M  V30 7746 C 1089.37 -5.04409 -4.73308 0
M  V30 7747 O 1090.17 -3.85992 -4.75183 0
M  V30 7748 C 1088.03 -4.8728 -5.41006 0
M  V30 7749 H 1088.06 -4.02333 -6.11157 0
M  V30 7750 H 1089.24 -5.39466 -3.69543 0
M  V30 7751 H 1090.73 -6.71916 -5.01943 0
M  V30 7752 H 1089.03 -7.4649 -6.93477 0
M  V30 7753 H 1088.84 -8.89416 -5.05237 0
M  V30 7754 H 1087.21 -8.14876 -5.18409 0
M  V30 7755 H 1089.85 -3.27957 -5.4317 0
M  V30 7756 P 1091.71 -5.75688 -6.64379 0
M  V30 7757 O 1093.13 -6.07627 -7.05504 0
M  V30 7758 O 1091.35 -5.88047 -5.19722 0
M  V30 7759 O 1091.39 -4.2322 -7.04443 0
M  V30 7760 C 1091.23 -3.99743 -8.4911 0
M  V30 7761 C 1091.77 -2.60516 -8.79425 0
M  V30 7762 O 1090.71 -1.82684 -8.4467 0
M  V30 7763 C 1092.99 -2.10343 -8.03628 0
M  V30 7764 O 1093.72 -1.09919 -8.67766 0
M  V30 7765 C 1092.32 -1.68446 -6.70876 0
M  V30 7766 O 1093.12 -0.678137 -6.08433 0
M  V30 7767 C 1090.98 -1.17436 -7.18567 0
M  V30 7768 H 1091.01 -0.0804732 -7.31656 0
M  V30 7769 H 1092.19 -2.54037 -6.02537 0
M  V30 7770 H 1093.68 -2.93881 -7.85526 0
M  V30 7771 H 1091.98 -2.53065 -9.86973 0
M  V30 7772 H 1091.79 -4.75072 -9.05887 0
M  V30 7773 H 1090.16 -4.05244 -8.76668 0
M  V30 7774 H 1092.8 0.177647 -6.34251 0
M  V30 7775 P 1094.66 -1.25109 -8.70152 0
M  V30 7776 O 1096.08 -1.29744 -9.22016 0
M  V30 7777 O 1094.3 -2.13714 -7.55141 0
M  V30 7778 O 1094.34 0.248149 -8.21425 0
M  V30 7779 C 1094.18 1.22779 -9.30434 0
M  V30 7780 C 1094.72 2.56293 -8.80664 0
M  V30 7781 O 1093.66 3.02979 -8.09349 0
M  V30 7782 C 1095.94 2.57523 -7.89775 0
M  V30 7783 O 1096.67 3.7668 -7.89438 0
M  V30 7784 C 1095.27 2.20997 -6.55446 0
M  V30 7785 O 1096.07 2.71895 -5.48509 0
M  V30 7786 C 1093.93 2.89693 -6.67988 0
M  V30 7787 H 1093.96 3.88793 -6.19859 0
M  V30 7788 H 1095.15 1.12046 -6.44229 0
M  V30 7789 H 1096.63 1.7746 -8.19711 0
M  V30 7790 H 1094.94 3.20706 -9.67112 0
M  V30 7791 H 1094.75 0.901032 -10.1892 0
M  V30 7792 H 1093.12 1.33049 -9.56592 0
M  V30 7793 H 1095.75 3.57847 -5.23962 0
M  V30 7794 P 1097.61 3.65191 -7.99657 0
M  V30 7795 O 1099.03 3.89332 -8.45794 0
M  V30 7796 O 1097.25 2.28472 -7.50807 0
M  V30 7797 O 1097.29 4.64972 -6.77611 0
M  V30 7798 C 1097.13 6.06319 -7.16352 0
M  V30 7799 C 1097.67 6.91731 -6.02299 0
M  V30 7800 O 1096.61 6.92449 -5.17064 0
M  V30 7801 C 1098.89 6.43627 -5.25174 0
M  V30 7802 O 1099.63 7.43686 -4.60469 0
M  V30 7803 C 1098.22 5.40275 -4.31916 0
M  V30 7804 O 1099.02 5.25279 -3.14438 0
M  V30 7805 C 1096.88 6.04847 -4.05327 0
M  V30 7806 H 1096.91 6.62195 -3.11261 0
M  V30 7807 H 1098.1 4.42556 -4.81383 0
M  V30 7808 H 1099.58 5.92458 -5.93643 0
M  V30 7809 H 1097.89 7.92655 -6.402 0
M  V30 7810 H 1097.7 6.26671 -8.0846 0
M  V30 7811 H 1096.07 6.29101 -7.32804 0
M  V30 7812 H 1098.71 5.84315 -2.47318 0
M  V30 7813 P 1100.56 7.39546 -4.75277 0
M  V30 7814 O 1101.98 7.84798 -5.01039 0
M  V30 7815 O 1100.2 5.9812 -5.08098 0
M  V30 7816 O 1100.24 7.57503 -3.1866 0
M  V30 7817 C 1100.08 8.97357 -2.74833 0
M  V30 7818 C 1100.62 9.07548 -1.32709 0
M  V30 7819 O 1099.56 8.62072 -0.606159 0
M  V30 7820 C 1101.84 8.25383 -0.938334 0
M  V30 7821 O 1102.58 8.74577 0.146954 0
M  V30 7822 C 1101.17 6.8802 -0.712559 0
M  V30 7823 O 1101.97 6.1189 0.194655 0
M  V30 7824 C 1099.83 7.27966 -0.139777 0
M  V30 7825 H 1099.86 7.25354 0.961601 0
M  V30 7826 H 1101.05 6.32557 -1.65702 0
M  V30 7827 H 1102.53 8.19355 -1.79097 0
M  V30 7828 H 1100.84 10.1294 -1.10029 0
M  V30 7829 H 1100.65 9.64276 -3.41316 0
M  V30 7830 H 1099.02 9.25417 -2.76357 0
M  V30 7831 H 1101.66 6.25267 1.07847 0
M  V30 7832 P 1103.51 8.791 8.79665e-12 0
M  V30 7833 O 1104.94 9.31096 0.027933 0
M  V30 7834 O 1103.15 7.77869 -1.04071 0
M  V30 7835 O 1103.19 8.09533 1.41463 0
M  V30 7836 C 1103.03 9.0349 2.53943 0
M  V30 7837 C 1103.57 8.35226 3.79016 0
M  V30 7838 O 1102.51 7.57992 4.15078 0
M  V30 7839 C 1104.79 7.45087 3.67298 0
M  V30 7840 O 1105.53 7.27796 4.85194 0
M  V30 7841 C 1104.12 6.17323 3.12027 0
M  V30 7842 O 1104.92 5.04231 3.47188 0
M  V30 7843 C 1102.78 6.19961 3.81809 0
M  V30 7844 H 1102.81 5.58218 4.73051 0
M  V30 7845 H 1104 6.21726 2.02589 0
M  V30 7846 H 1105.48 7.86112 2.9231 0
M  V30 7847 H 1103.79 9.11627 4.55076 0
M  V30 7848 H 1103.6 9.9573 2.34194 0
M  V30 7849 H 1101.97 9.2792 2.67832 0
M  V30 7850 H 1104.61 4.67702 4.28772 0
M  V30 7851 P 1106.46 7.39546 4.75277 0
M  V30 7852 O 1107.89 7.81777 5.05738 0
M  V30 7853 O 1106.1 7.1065 3.32998 0
M  V30 7854 O 1106.14 6.04542 5.56673 0
M  V30 7855 C 1105.98 6.22772 7.02095 0
M  V30 7856 C 1106.52 4.97725 7.70406 0
M  V30 7857 O 1105.46 4.13256 7.58987 0
M  V30 7858 C 1107.74 4.28231 7.11815 0
M  V30 7859 O 1108.48 3.49945 8.01648 0
M  V30 7860 C 1107.07 3.5063 5.96244 0
M  V30 7861 O 1107.87 2.36482 5.64681 0
M  V30 7862 C 1105.73 3.15122 6.56374 0
M  V30 7863 H 1105.76 2.13853 6.99751 0
M  V30 7864 H 1106.95 4.13501 5.06559 0
M  V30 7865 H 1108.43 5.03285 6.70911 0
M  V30 7866 H 1106.74 5.20877 8.75697 0
M  V30 7867 H 1106.55 7.11046 7.35349 0
M  V30 7868 H 1104.92 6.35815 7.26986 0
M  V30 7869 H 1107.56 1.61644 6.13565 0
M  V30 7870 P 1109.41 3.65191 7.99657 0
M  V30 7871 O 1110.84 3.8425 8.48115 0
M  V30 7872 O 1109.05 4.17805 6.64342 0
M  V30 7873 O 1109.09 2.07613 7.95143 0
M  V30 7874 C 1108.93 1.44328 9.27336 0
M  V30 7875 C 1109.47 0.0220036 9.17197 0
M  V30 7876 O 1108.42 -0.626867 8.61923 0
M  V30 7877 C 1110.69 -0.24586 8.30336 0
M  V30 7878 O 1111.43 -1.39011 8.63583 0
M  V30 7879 C 1110.02 -0.273849 6.91158 0
M  V30 7880 O 1110.82 -1.06348 6.02892 0
M  V30 7881 C 1108.68 -0.897649 7.22545 0
M  V30 7882 H 1108.72 -1.9841 7.04286 0
M  V30 7883 H 1109.9 0.739928 6.497 0
M  V30 7884 H 1111.38 0.60668 8.36503 0
M  V30 7885 H 1109.69 -0.352479 10.1829 0
M  V30 7886 H 1109.5 2.00611 10.0304 0
M  V30 7887 H 1107.87 1.41843 9.55327 0
M  V30 7888 H 1110.51 -1.95734 6.03555 0
M  V30 7889 P 1112.36 -1.25109 8.70152 0
M  V30 7890 O 1113.79 -1.35274 9.21221 0
M  V30 7891 O 1112 -0.0769065 7.84762 0
M  V30 7892 O 1112.04 -2.55232 7.81161 0
M  V30 7893 C 1111.88 -3.79939 8.58154 0
M  V30 7894 C 1112.42 -4.94023 7.72785 0
M  V30 7895 O 1111.37 -5.18726 6.91205 0
M  V30 7896 C 1113.64 -4.69597 6.85231 0
M  V30 7897 O 1114.38 -5.83832 6.51337 0
M  V30 7898 C 1112.97 -3.96706 5.66633 0
M  V30 7899 O 1113.77 -4.15414 4.49689 0
M  V30 7900 C 1111.63 -4.66153 5.59313 0
M  V30 7901 H 1111.67 -5.47679 4.85214 0
M  V30 7902 H 1112.85 -2.89008 5.86566 0
M  V30 7903 H 1114.33 -4.0121 7.36511 0
M  V30 7904 H 1112.64 -5.80182 8.37584 0
M  V30 7905 H 1112.45 -3.73517 9.52265 0
M  V30 7906 H 1110.82 -3.97163 8.80359 0
M  V30 7907 H 1113.46 -4.90969 4.01921 0
M  V30 7908 P 1115.32 -5.75688 6.64379 0
M  V30 7909 O 1116.74 -6.11849 7.01846 0
M  V30 7910 O 1114.96 -4.30744 6.56026 0
M  V30 7911 O 1114.99 -6.37042 5.19165 0
M  V30 7912 C 1114.83 -7.83578 5.16515 0
M  V30 7913 C 1115.37 -8.33398 3.83019 0
M  V30 7914 O 1114.32 -8.10074 3.01034 0
M  V30 7915 C 1116.59 -7.65514 3.2257 0
M  V30 7916 O 1117.33 -8.4329 2.32297 0
M  V30 7917 C 1115.92 -6.40075 2.62207 0
M  V30 7918 O 1116.72 -5.92589 1.53712 0
M  V30 7919 C 1114.58 -6.9454 2.18503 0
M  V30 7920 H 1114.62 -7.23063 1.12091 0
M  V30 7921 H 1115.8 -5.6025 3.37201 0
M  V30 7922 H 1117.28 -7.35707 4.02681 0
M  V30 7923 H 1115.59 -9.40912 3.9095 0
M  V30 7924 H 1115.4 -8.29056 5.99158 0
M  V30 7925 H 1113.77 -8.10073 5.25882 0
M  V30 7926 H 1116.41 -6.30324 0.726794 0
M  V30 7927 P 1118.27 -8.4349 2.47671 0
M  V30 7928 O 1119.69 -8.94167 2.5964 0
M  V30 7929 O 1117.91 -7.1704 3.19006 0
M  V30 7930 O 1117.94 -8.16596 0.923387 0
M  V30 7931 C 1117.78 -9.38437 0.108857 0
M  V30 7932 C 1118.32 -9.08175 -1.28353 0
M  V30 7933 O 1117.27 -8.44229 -1.84713 0
M  V30 7934 C 1119.54 -8.18386 -1.42505 0
M  V30 7935 O 1120.28 -8.3501 -2.60497 0
M  V30 7936 C 1118.87 -6.80225 -1.25468 0
M  V30 7937 O 1119.67 -5.81621 -1.91066 0
M  V30 7938 C 1117.54 -7.02416 -1.9168 0
M  V30 7939 H 1117.57 -6.6888 -2.96621 0
M  V30 7940 H 1118.75 -6.53617 -0.192223 0
M  V30 7941 H 1120.23 -8.36622 -0.589963 0
M  V30 7942 H 1118.54 -10.0291 -1.79807 0
M  V30 7943 H 1118.35 -10.2138 0.558219 0
M  V30 7944 H 1116.72 -9.6579 0.0444202 0
M  V30 7945 H 1119.36 -5.69556 -2.79637 0
M  V30 7946 P 1121.22 -8.4349 -2.47671 0
M  V30 7947 O 1122.62 -8.99283 -2.62101 0
M  V30 7948 O 1120.84 -7.81195 -1.16947 0
M  V30 7949 O 1120.89 -7.36797 -3.63761 0
M  V30 7950 C 1120.73 -7.95349 -4.982 0
M  V30 7951 C 1121.27 -6.94537 -5.98908 0
M  V30 7952 O 1120.22 -6.10277 -6.11744 0
M  V30 7953 C 1122.49 -6.11426 -5.62335 0
M  V30 7954 O 1123.23 -5.6162 -6.70584 0
M  V30 7955 C 1121.82 -5.04409 -4.73308 0
M  V30 7956 O 1122.62 -3.85929 -4.75106 0
M  V30 7957 C 1120.49 -4.8728 -5.41006 0
M  V30 7958 N 1119.44 -4.65812 -4.42377 0
M  V30 7959 C 1118.41 -3.81293 -4.74224 0
M  V30 7960 O 1118.45 -3.20533 -5.83679 0
M  V30 7961 N 1117.4 -3.6442 -3.86349 0
M  V30 7962 C 1117.44 -4.2728 -2.6824 0
M  V30 7963 C 1118.54 -5.10813 -2.3217 0
M  V30 7964 C 1119.51 -5.27909 -3.22647 0
M  V30 7965 H 1120.52 -4.02278 -6.11074 0
M  V30 7966 H 1121.7 -5.39013 -3.70026 0
M  V30 7967 H 1123.18 -6.71494 -5.02675 0
M  V30 7968 H 1121.49 -7.45796 -6.94223 0
M  V30 7969 H 1121.3 -8.89416 -5.05237 0
M  V30 7970 H 1119.67 -8.14791 -5.18355 0
M  V30 7971 H 1118.59 -5.58884 -1.34755 0
M  V30 7972 H 1120.35 -5.92811 -2.9934 0
M  V30 7973 H 1122.41 -3.3454 -5.51577 0
M  V30 7974 P 1124.17 -5.75688 -6.64379 0
M  V30 7975 O 1125.59 -6.07627 -7.05504 0
M  V30 7976 O 1123.81 -5.88047 -5.19722 0
M  V30 7977 O 1123.84 -4.2322 -7.04443 0
M  V30 7978 C 1123.68 -3.99743 -8.4911 0
M  V30 7979 C 1124.22 -2.60516 -8.79425 0
M  V30 7980 O 1123.17 -1.82684 -8.4467 0
M  V30 7981 C 1125.44 -2.10343 -8.03628 0
M  V30 7982 O 1126.18 -1.09919 -8.67766 0
M  V30 7983 C 1124.77 -1.68446 -6.70876 0
M  V30 7984 O 1125.57 -0.678137 -6.08433 0
M  V30 7985 C 1123.44 -1.17436 -7.18567 0
M  V30 7986 H 1123.47 -0.0804732 -7.31656 0
M  V30 7987 H 1124.65 -2.54037 -6.02537 0
M  V30 7988 H 1126.14 -2.93881 -7.85526 0
M  V30 7989 H 1124.44 -2.53065 -9.86973 0
M  V30 7990 H 1124.25 -4.75072 -9.05887 0
M  V30 7991 H 1122.62 -4.05244 -8.76668 0
M  V30 7992 H 1125.26 0.177647 -6.34251 0
M  V30 7993 P 1127.12 -1.25109 -8.70152 0
M  V30 7994 O 1128.54 -1.29744 -9.22016 0
M  V30 7995 O 1126.76 -2.13714 -7.55141 0
M  V30 7996 O 1126.79 0.248149 -8.21425 0
M  V30 7997 C 1126.63 1.22779 -9.30434 0
M  V30 7998 C 1127.17 2.56293 -8.80664 0
M  V30 7999 O 1126.12 3.02979 -8.09349 0
M  V30 8000 C 1128.39 2.57523 -7.89775 0
M  V30 8001 O 1129.13 3.7668 -7.89438 0
M  V30 8002 C 1127.72 2.20997 -6.55446 0
M  V30 8003 O 1128.52 2.71895 -5.48509 0
M  V30 8004 C 1126.39 2.89693 -6.67988 0
M  V30 8005 H 1126.42 3.88793 -6.19859 0
M  V30 8006 H 1127.6 1.12046 -6.44229 0
M  V30 8007 H 1129.09 1.7746 -8.19711 0
M  V30 8008 H 1127.39 3.20706 -9.67112 0
M  V30 8009 H 1127.2 0.901032 -10.1892 0
M  V30 8010 H 1125.57 1.33049 -9.56592 0
M  V30 8011 H 1128.21 3.57847 -5.23962 0
M  V30 8012 P 1130.07 3.65191 -7.99657 0
M  V30 8013 O 1131.49 3.89332 -8.45794 0
M  V30 8014 O 1129.71 2.28472 -7.50807 0
M  V30 8015 O 1129.75 4.64972 -6.77611 0
M  V30 8016 C 1129.59 6.06319 -7.16352 0
M  V30 8017 C 1130.13 6.91731 -6.02299 0
M  V30 8018 O 1129.07 6.92449 -5.17064 0
M  V30 8019 C 1131.34 6.43627 -5.25174 0
M  V30 8020 O 1132.08 7.43686 -4.60469 0
M  V30 8021 C 1130.67 5.40275 -4.31916 0
M  V30 8022 O 1131.47 5.25279 -3.14438 0
M  V30 8023 C 1129.34 6.04847 -4.05327 0
M  V30 8024 H 1129.37 6.62195 -3.11261 0
M  V30 8025 H 1130.55 4.42556 -4.81383 0
M  V30 8026 H 1132.04 5.92458 -5.93643 0
M  V30 8027 H 1130.34 7.92655 -6.402 0
M  V30 8028 H 1130.15 6.26671 -8.0846 0
M  V30 8029 H 1128.52 6.29101 -7.32804 0
M  V30 8030 H 1131.16 5.84315 -2.47318 0
M  V30 8031 P 1133.02 7.39546 -4.75277 0
M  V30 8032 O 1134.44 7.84798 -5.01039 0
M  V30 8033 O 1132.66 5.9812 -5.08098 0
M  V30 8034 O 1132.7 7.57503 -3.1866 0
M  V30 8035 C 1132.54 8.97357 -2.74833 0
M  V30 8036 C 1133.08 9.07548 -1.32709 0
M  V30 8037 O 1132.02 8.62072 -0.606159 0
M  V30 8038 C 1134.29 8.25383 -0.938334 0
M  V30 8039 O 1135.03 8.74577 0.146954 0
M  V30 8040 C 1133.62 6.8802 -0.712559 0
M  V30 8041 O 1134.42 6.1189 0.194655 0
M  V30 8042 C 1132.29 7.27966 -0.139777 0
M  V30 8043 H 1132.32 7.25354 0.961601 0
M  V30 8044 H 1133.5 6.32557 -1.65702 0
M  V30 8045 H 1134.99 8.19355 -1.79097 0
M  V30 8046 H 1133.29 10.1294 -1.10029 0
M  V30 8047 H 1133.1 9.64276 -3.41316 0
M  V30 8048 H 1131.47 9.25417 -2.76357 0
M  V30 8049 H 1134.11 6.25267 1.07847 0
M  V30 8050 P 1135.97 8.791 9.10682e-12 0
M  V30 8051 O 1137.39 9.31096 0.027933 0
M  V30 8052 O 1135.61 7.77869 -1.04071 0
M  V30 8053 O 1135.65 8.09533 1.41463 0
M  V30 8054 C 1135.49 9.0349 2.53943 0
M  V30 8055 C 1136.03 8.35226 3.79016 0
M  V30 8056 O 1134.97 7.57992 4.15078 0
M  V30 8057 C 1137.24 7.45087 3.67298 0
M  V30 8058 O 1137.98 7.27796 4.85194 0
M  V30 8059 C 1136.58 6.17323 3.12027 0
M  V30 8060 O 1137.37 5.04231 3.47188 0
M  V30 8061 C 1135.24 6.19961 3.81809 0
M  V30 8062 H 1135.27 5.58218 4.73051 0
M  V30 8063 H 1136.45 6.21726 2.02589 0
M  V30 8064 H 1137.94 7.86112 2.9231 0
M  V30 8065 H 1136.24 9.11627 4.55076 0
M  V30 8066 H 1136.05 9.9573 2.34194 0
M  V30 8067 H 1134.42 9.2792 2.67832 0
M  V30 8068 H 1137.06 4.67702 4.28772 0
M  V30 8069 P 1138.92 7.39546 4.75277 0
M  V30 8070 O 1140.34 7.81777 5.05738 0
M  V30 8071 O 1138.56 7.1065 3.32998 0
M  V30 8072 O 1138.6 6.04542 5.56673 0
M  V30 8073 C 1138.44 6.22772 7.02095 0
M  V30 8074 C 1138.98 4.97725 7.70406 0
M  V30 8075 O 1137.92 4.13256 7.58987 0
M  V30 8076 C 1140.2 4.28231 7.11815 0
M  V30 8077 O 1140.93 3.49945 8.01648 0
M  V30 8078 C 1139.53 3.5063 5.96244 0
M  V30 8079 O 1140.33 2.36482 5.64681 0
M  V30 8080 C 1138.19 3.15122 6.56374 0
M  V30 8081 H 1138.22 2.13853 6.99751 0
M  V30 8082 H 1139.4 4.13501 5.06559 0
M  V30 8083 H 1140.89 5.03285 6.70911 0
M  V30 8084 H 1139.19 5.20877 8.75697 0
M  V30 8085 H 1139 7.11046 7.35349 0
M  V30 8086 H 1137.37 6.35815 7.26986 0
M  V30 8087 H 1140.01 1.61644 6.13565 0
M  V30 8088 P 1141.87 3.65191 7.99657 0
M  V30 8089 O 1143.27 3.90823 8.51272 0
M  V30 8090 O 1141.49 4.23191 6.66972 0
M  V30 8091 O 1141.55 2.07587 7.95046 0
M  V30 8092 C 1141.39 1.44328 9.27336 0
M  V30 8093 C 1141.93 0.0220012 9.17097 0
M  V30 8094 O 1140.87 -0.626794 8.61824 0
M  V30 8095 C 1143.14 -0.24586 8.30336 0
M  V30 8096 O 1143.88 -1.39011 8.63583 0
M  V30 8097 C 1142.48 -0.273849 6.91158 0
M  V30 8098 O 1143.28 -1.06331 6.02794 0
M  V30 8099 C 1141.14 -0.897649 7.22545 0
M  V30 8100 N 1140.1 -0.292839 6.41732 0
M  V30 8101 C 1139.06 -1.08701 5.98712 0
M  V30 8102 O 1139.1 -2.31211 6.24471 0
M  V30 8103 N 1138.05 -0.533391 5.28415 0
M  V30 8104 C 1138.1 0.770866 4.98576 0
M  V30 8105 C 1139.19 1.59049 5.38086 0
M  V30 8106 C 1140.16 1.01866 6.10256 0
M  V30 8107 H 1141.17 -1.98383 7.04189 0
M  V30 8108 H 1142.35 0.733318 6.49674 0
M  V30 8109 H 1143.84 0.598386 8.36663 0
M  V30 8110 H 1142.14 -0.362662 10.1825 0
M  V30 8111 H 1141.95 2.00611 10.0304 0
M  V30 8112 H 1140.32 1.41828 9.55228 0
M  V30 8113 H 1139.24 2.6415 5.10622 0
M  V30 8114 H 1141.01 1.61983 6.44042 0
M  V30 8115 H 1143.06 -1.97777 6.14035 0
M  V30 8116 P 1144.82 -1.25109 8.70152 0
M  V30 8117 O 1146.24 -1.35274 9.21221 0
M  V30 8118 O 1144.46 -0.0769065 7.84762 0
M  V30 8119 O 1144.5 -2.55232 7.81161 0
M  V30 8120 C 1144.34 -3.79939 8.58154 0
M  V30 8121 C 1144.88 -4.94023 7.72785 0
M  V30 8122 O 1143.82 -5.18726 6.91205 0
M  V30 8123 C 1146.1 -4.69597 6.85231 0
M  V30 8124 O 1146.83 -5.83832 6.51337 0
M  V30 8125 C 1145.43 -3.96706 5.66633 0
M  V30 8126 O 1146.23 -4.15414 4.49689 0
M  V30 8127 C 1144.09 -4.66153 5.59313 0
M  V30 8128 H 1144.12 -5.47679 4.85214 0
M  V30 8129 H 1145.31 -2.89008 5.86566 0
M  V30 8130 H 1146.79 -4.0121 7.36511 0
M  V30 8131 H 1145.1 -5.80182 8.37584 0
M  V30 8132 H 1144.91 -3.73517 9.52265 0
M  V30 8133 H 1143.28 -3.97163 8.80359 0
M  V30 8134 H 1145.91 -4.90969 4.01921 0
M  V30 8135 P 1147.77 -5.75688 6.64379 0
M  V30 8136 O 1149.19 -6.11849 7.01846 0
M  V30 8137 O 1147.41 -4.30744 6.56026 0
M  V30 8138 O 1147.45 -6.37042 5.19165 0
M  V30 8139 C 1147.29 -7.83578 5.16515 0
M  V30 8140 C 1147.83 -8.33398 3.83019 0
M  V30 8141 O 1146.77 -8.10074 3.01034 0
M  V30 8142 C 1149.05 -7.65514 3.2257 0
M  V30 8143 O 1149.78 -8.4329 2.32297 0
M  V30 8144 C 1148.38 -6.40075 2.62207 0
M  V30 8145 O 1149.18 -5.92589 1.53712 0
M  V30 8146 C 1147.04 -6.9454 2.18503 0
M  V30 8147 H 1147.07 -7.23063 1.12091 0
M  V30 8148 H 1148.26 -5.6025 3.37201 0
M  V30 8149 H 1149.74 -7.35707 4.02681 0
M  V30 8150 H 1148.05 -9.40912 3.9095 0
M  V30 8151 H 1147.86 -8.29056 5.99158 0
M  V30 8152 H 1146.23 -8.10073 5.25882 0
M  V30 8153 H 1148.86 -6.30324 0.726794 0
M  V30 8154 P 1150.72 -8.4349 2.47671 0
M  V30 8155 O 1152.14 -8.94167 2.5964 0
M  V30 8156 O 1150.36 -7.1704 3.19006 0
M  V30 8157 O 1150.4 -8.16596 0.923387 0
M  V30 8158 C 1150.24 -9.38437 0.108857 0
M  V30 8159 C 1150.78 -9.08175 -1.28353 0
M  V30 8160 O 1149.72 -8.44229 -1.84713 0
M  V30 8161 C 1152 -8.18386 -1.42505 0
M  V30 8162 O 1152.74 -8.3501 -2.60497 0
M  V30 8163 C 1151.33 -6.80225 -1.25468 0
M  V30 8164 O 1152.13 -5.81621 -1.91066 0
M  V30 8165 C 1149.99 -7.02416 -1.9168 0
M  V30 8166 H 1150.02 -6.6888 -2.96621 0
M  V30 8167 H 1151.21 -6.53617 -0.192223 0
M  V30 8168 H 1152.69 -8.36622 -0.589963 0
M  V30 8169 H 1151 -10.0291 -1.79807 0
M  V30 8170 H 1150.81 -10.2138 0.558219 0
M  V30 8171 H 1149.18 -9.6579 0.0444202 0
M  V30 8172 H 1151.82 -5.69556 -2.79637 0
M  V30 8173 P 1153.67 -8.4349 -2.47671 0
M  V30 8174 O 1155.09 -8.92593 -2.65 0
M  V30 8175 O 1153.31 -7.7568 -1.19296 0
M  V30 8176 O 1153.35 -7.36886 -3.63805 0
M  V30 8177 C 1153.19 -7.95349 -4.982 0
M  V30 8178 C 1153.73 -6.94612 -5.98974 0
M  V30 8179 O 1152.67 -6.10347 -6.11815 0
M  V30 8180 C 1154.95 -6.11426 -5.62335 0
M  V30 8181 O 1155.69 -5.6162 -6.70584 0
M  V30 8182 C 1154.28 -5.04409 -4.73308 0
M  V30 8183 O 1155.08 -3.85992 -4.75183 0
M  V30 8184 C 1152.94 -4.8728 -5.41006 0
M  V30 8185 H 1152.97 -4.02333 -6.11157 0
M  V30 8186 H 1154.16 -5.39466 -3.69543 0
M  V30 8187 H 1155.64 -6.71916 -5.01943 0
M  V30 8188 H 1153.95 -7.4649 -6.93477 0
M  V30 8189 H 1153.76 -8.89416 -5.05237 0
M  V30 8190 H 1152.13 -8.14876 -5.18409 0
M  V30 8191 H 1154.77 -3.27957 -5.4317 0
M  V30 8192 P 1156.62 -5.75688 -6.64379 0
M  V30 8193 O 1158.05 -6.07627 -7.05504 0
M  V30 8194 O 1156.26 -5.88047 -5.19722 0
M  V30 8195 O 1156.3 -4.2322 -7.04443 0
M  V30 8196 C 1156.14 -3.99743 -8.4911 0
M  V30 8197 C 1156.68 -2.60516 -8.79425 0
M  V30 8198 O 1155.62 -1.82684 -8.4467 0
M  V30 8199 C 1157.9 -2.10343 -8.03628 0
M  V30 8200 O 1158.64 -1.09919 -8.67766 0
M  V30 8201 C 1157.23 -1.68446 -6.70876 0
M  V30 8202 O 1158.03 -0.678137 -6.08433 0
M  V30 8203 C 1155.89 -1.17436 -7.18567 0
M  V30 8204 H 1155.92 -0.0804732 -7.31656 0
M  V30 8205 H 1157.11 -2.54037 -6.02537 0
M  V30 8206 H 1158.59 -2.93881 -7.85526 0
M  V30 8207 H 1156.9 -2.53065 -9.86973 0
M  V30 8208 H 1156.71 -4.75072 -9.05887 0
M  V30 8209 H 1155.08 -4.05244 -8.76668 0
M  V30 8210 H 1157.72 0.177647 -6.34251 0
M  V30 8211 P 1159.57 -1.25109 -8.70152 0
M  V30 8212 O 1161 -1.29744 -9.22016 0
M  V30 8213 O 1159.21 -2.13714 -7.55141 0
M  V30 8214 O 1159.25 0.248149 -8.21425 0
M  V30 8215 C 1159.09 1.22779 -9.30434 0
M  V30 8216 C 1159.63 2.56293 -8.80664 0
M  V30 8217 O 1158.58 3.02979 -8.09349 0
M  V30 8218 C 1160.85 2.57523 -7.89775 0
M  V30 8219 O 1161.59 3.7668 -7.89438 0
M  V30 8220 C 1160.18 2.20997 -6.55446 0
M  V30 8221 O 1160.98 2.71895 -5.48509 0
M  V30 8222 C 1158.84 2.89693 -6.67988 0
M  V30 8223 H 1158.88 3.88793 -6.19859 0
M  V30 8224 H 1160.06 1.12046 -6.44229 0
M  V30 8225 H 1161.54 1.7746 -8.19711 0
M  V30 8226 H 1159.85 3.20706 -9.67112 0
M  V30 8227 H 1159.66 0.901032 -10.1892 0
M  V30 8228 H 1158.03 1.33049 -9.56592 0
M  V30 8229 H 1160.67 3.57847 -5.23962 0
M  V30 8230 P 1162.52 3.65191 -7.99657 0
M  V30 8231 O 1163.93 3.87414 -8.52829 0
M  V30 8232 O 1162.15 2.26932 -7.566 0
M  V30 8233 O 1162.2 4.64915 -6.77529 0
M  V30 8234 C 1162.04 6.06319 -7.16352 0
M  V30 8235 C 1162.58 6.91655 -6.02234 0
M  V30 8236 O 1161.53 6.92369 -5.17005 0
M  V30 8237 C 1163.8 6.43627 -5.25174 0
M  V30 8238 O 1164.54 7.43686 -4.60469 0
M  V30 8239 C 1163.13 5.40275 -4.31916 0
M  V30 8240 O 1163.93 5.25193 -3.14386 0
M  V30 8241 C 1161.79 6.04847 -4.05327 0
M  V30 8242 N 1160.75 5.04166 -3.98114 0
M  V30 8243 C 1159.72 5.2366 -3.09923 0
M  V30 8244 O 1159.75 6.23355 -2.34204 0
M  V30 8245 N 1158.7 4.34279 -3.05727 0
M  V30 8246 C 1158.75 3.26317 -3.84756 0
M  V30 8247 C 1159.85 3.02504 -4.72573 0
M  V30 8248 C 1160.81 3.94493 -4.76618 0
M  V30 8249 H 1161.83 6.62104 -3.11218 0
M  V30 8250 H 1163.01 4.42969 -4.80867 0
M  V30 8251 H 1164.49 5.93122 -5.93121 0
M  V30 8252 H 1162.8 7.93295 -6.39407 0
M  V30 8253 H 1162.61 6.26671 -8.0846 0
M  V30 8254 H 1160.98 6.29036 -7.32728 0
M  V30 8255 H 1159.9 2.12921 -5.34017 0
M  V30 8256 H 1161.66 3.80658 -5.44176 0
M  V30 8257 H 1163.71 5.93572 -2.52637 0
M  V30 8258 P 1165.48 7.39546 -4.75277 0
M  V30 8259 O 1166.9 7.84798 -5.01039 0
M  V30 8260 O 1165.12 5.9812 -5.08098 0
M  V30 8261 O 1165.15 7.57503 -3.1866 0
M  V30 8262 C 1164.99 8.97357 -2.74833 0
M  V30 8263 C 1165.53 9.07548 -1.32709 0
M  V30 8264 O 1164.48 8.62072 -0.606159 0
M  V30 8265 C 1166.75 8.25383 -0.938334 0
M  V30 8266 O 1167.49 8.74577 0.146954 0
M  V30 8267 C 1166.08 6.8802 -0.712559 0
M  V30 8268 O 1166.88 6.1189 0.194655 0
M  V30 8269 C 1164.74 7.27966 -0.139777 0
M  V30 8270 H 1164.78 7.25354 0.961601 0
M  V30 8271 H 1165.96 6.32557 -1.65702 0
M  V30 8272 H 1167.44 8.19355 -1.79097 0
M  V30 8273 H 1165.75 10.1294 -1.10029 0
M  V30 8274 H 1165.56 9.64276 -3.41316 0
M  V30 8275 H 1163.93 9.25417 -2.76357 0
M  V30 8276 H 1166.57 6.25267 1.07847 0
M  V30 8277 P 1168.43 8.791 9.41699e-12 0
M  V30 8278 O 1169.85 9.31096 0.027933 0
M  V30 8279 O 1168.07 7.77869 -1.04071 0
M  V30 8280 O 1168.1 8.09533 1.41463 0
M  V30 8281 C 1167.94 9.0349 2.53943 0
M  V30 8282 C 1168.48 8.35226 3.79016 0
M  V30 8283 O 1167.43 7.57992 4.15078 0
M  V30 8284 C 1169.7 7.45087 3.67298 0
M  V30 8285 O 1170.44 7.27796 4.85194 0
M  V30 8286 C 1169.03 6.17323 3.12027 0
M  V30 8287 O 1169.83 5.04231 3.47188 0
M  V30 8288 C 1167.69 6.19961 3.81809 0
M  V30 8289 H 1167.73 5.58218 4.73051 0
M  V30 8290 H 1168.91 6.21726 2.02589 0
M  V30 8291 H 1170.39 7.86112 2.9231 0
M  V30 8292 H 1168.7 9.11627 4.55076 0
M  V30 8293 H 1168.51 9.9573 2.34194 0
M  V30 8294 H 1166.88 9.2792 2.67832 0
M  V30 8295 H 1169.52 4.67702 4.28772 0
M  V30 8296 P 1171.38 7.39546 4.75277 0
M  V30 8297 O 1172.8 7.81777 5.05738 0
M  V30 8298 O 1171.02 7.1065 3.32998 0
M  V30 8299 O 1171.05 6.04542 5.56673 0
M  V30 8300 C 1170.89 6.22772 7.02095 0
M  V30 8301 C 1171.43 4.97725 7.70406 0
M  V30 8302 O 1170.38 4.13256 7.58987 0
M  V30 8303 C 1172.65 4.28231 7.11815 0
M  V30 8304 O 1173.39 3.49945 8.01648 0
M  V30 8305 C 1171.98 3.5063 5.96244 0
M  V30 8306 O 1172.78 2.36482 5.64681 0
M  V30 8307 C 1170.65 3.15122 6.56374 0
M  V30 8308 H 1170.68 2.13853 6.99751 0
M  V30 8309 H 1171.86 4.13501 5.06559 0
M  V30 8310 H 1173.34 5.03285 6.70911 0
M  V30 8311 H 1171.65 5.20877 8.75697 0
M  V30 8312 H 1171.46 7.11046 7.35349 0
M  V30 8313 H 1169.83 6.35815 7.26986 0
M  V30 8314 H 1172.47 1.61644 6.13565 0
M  V30 8315 P 1174.33 3.65191 7.99657 0
M  V30 8316 O 1175.75 3.8425 8.48115 0
M  V30 8317 O 1173.97 4.17805 6.64342 0
M  V30 8318 O 1174 2.07613 7.95143 0
M  V30 8319 C 1173.84 1.44328 9.27336 0
M  V30 8320 C 1174.38 0.0220036 9.17197 0
M  V30 8321 O 1173.33 -0.626867 8.61923 0
M  V30 8322 C 1175.6 -0.24586 8.30336 0
M  V30 8323 O 1176.34 -1.39011 8.63583 0
M  V30 8324 C 1174.93 -0.273849 6.91158 0
M  V30 8325 O 1175.73 -1.06348 6.02892 0
M  V30 8326 C 1173.6 -0.897649 7.22545 0
M  V30 8327 H 1173.63 -1.9841 7.04286 0
M  V30 8328 H 1174.81 0.739928 6.497 0
M  V30 8329 H 1176.29 0.60668 8.36503 0
M  V30 8330 H 1174.6 -0.352479 10.1829 0
M  V30 8331 H 1174.41 2.00611 10.0304 0
M  V30 8332 H 1172.78 1.41843 9.55327 0
M  V30 8333 H 1175.42 -1.95734 6.03555 0
M  V30 8334 P 1177.28 -1.25109 8.70152 0
M  V30 8335 O 1178.7 -1.35274 9.21221 0
M  V30 8336 O 1176.92 -0.0769065 7.84762 0
M  V30 8337 O 1176.95 -2.55232 7.81161 0
M  V30 8338 C 1176.79 -3.79939 8.58154 0
M  V30 8339 C 1177.33 -4.94023 7.72785 0
M  V30 8340 O 1176.28 -5.18726 6.91205 0
M  V30 8341 C 1178.55 -4.69597 6.85231 0
M  V30 8342 O 1179.29 -5.83832 6.51337 0
M  V30 8343 C 1177.88 -3.96706 5.66633 0
M  V30 8344 O 1178.68 -4.15414 4.49689 0
M  V30 8345 C 1176.55 -4.66153 5.59313 0
M  V30 8346 H 1176.58 -5.47679 4.85214 0
M  V30 8347 H 1177.76 -2.89008 5.86566 0
M  V30 8348 H 1179.25 -4.0121 7.36511 0
M  V30 8349 H 1177.55 -5.80182 8.37584 0
M  V30 8350 H 1177.36 -3.73517 9.52265 0
M  V30 8351 H 1175.73 -3.97163 8.80359 0
M  V30 8352 H 1178.37 -4.90969 4.01921 0
M  V30 8353 P 1180.23 -5.75688 6.64379 0
M  V30 8354 O 1181.65 -6.11849 7.01846 0
M  V30 8355 O 1179.87 -4.30744 6.56026 0
M  V30 8356 O 1179.9 -6.37042 5.19165 0
M  V30 8357 C 1179.74 -7.83578 5.16515 0
M  V30 8358 C 1180.28 -8.33398 3.83019 0
M  V30 8359 O 1179.23 -8.10074 3.01034 0
M  V30 8360 C 1181.5 -7.65514 3.2257 0
M  V30 8361 O 1182.24 -8.4329 2.32297 0
M  V30 8362 C 1180.83 -6.40075 2.62207 0
M  V30 8363 O 1181.63 -5.92589 1.53712 0
M  V30 8364 C 1179.5 -6.9454 2.18503 0
M  V30 8365 H 1179.53 -7.23063 1.12091 0
M  V30 8366 H 1180.71 -5.6025 3.37201 0
M  V30 8367 H 1182.2 -7.35707 4.02681 0
M  V30 8368 H 1180.5 -9.40912 3.9095 0
M  V30 8369 H 1180.31 -8.29056 5.99158 0
M  V30 8370 H 1178.68 -8.10073 5.25882 0
M  V30 8371 H 1181.32 -6.30324 0.726794 0
M  V30 8372 P 1183.18 -8.4349 2.47671 0
M  V30 8373 O 1184.58 -8.98227 2.65696 0
M  V30 8374 O 1182.8 -7.20409 3.23964 0
M  V30 8375 O 1182.86 -8.16496 0.923275 0
M  V30 8376 C 1182.7 -9.38437 0.108857 0
M  V30 8377 C 1183.24 -9.08076 -1.28339 0
M  V30 8378 O 1182.18 -8.44131 -1.84692 0
M  V30 8379 C 1184.45 -8.18386 -1.42505 0
M  V30 8380 O 1185.19 -8.3501 -2.60497 0
M  V30 8381 C 1183.79 -6.80225 -1.25468 0
M  V30 8382 O 1184.58 -5.81526 -1.91035 0
M  V30 8383 C 1182.45 -7.02416 -1.9168 0
M  V30 8384 N 1181.4 -6.31033 -1.20314 0
M  V30 8385 C 1180.37 -5.77149 -1.928 0
M  V30 8386 O 1180.41 -5.8521 -3.17729 0
M  V30 8387 N 1179.36 -5.15445 -1.27997 0
M  V30 8388 C 1179.41 -5.04472 0.0534726 0
M  V30 8389 C 1180.5 -5.55244 0.808522 0
M  V30 8390 C 1181.47 -6.18542 0.13981 0
M  V30 8391 H 1182.48 -6.68789 -2.9658 0
M  V30 8392 H 1183.66 -6.53498 -0.198729 0
M  V30 8393 H 1185.15 -8.36663 -0.5984 0
M  V30 8394 H 1183.45 -10.0273 -1.8081 0
M  V30 8395 H 1183.26 -10.2138 0.558219 0
M  V30 8396 H 1181.63 -9.6569 0.0444156 0
M  V30 8397 H 1180.55 -5.43017 1.88792 0
M  V30 8398 H 1182.31 -6.60539 0.686773 0
M  V30 8399 H 1184.37 -5.79638 -2.8315 0
M  V30 8400 P 1186.13 -8.4349 -2.47671 0
M  V30 8401 O 1187.55 -8.92593 -2.65 0
M  V30 8402 O 1185.77 -7.7568 -1.19296 0
M  V30 8403 O 1185.81 -7.36886 -3.63805 0
M  V30 8404 C 1185.65 -7.95349 -4.982 0
M  V30 8405 C 1186.19 -6.94612 -5.98974 0
M  V30 8406 O 1185.13 -6.10347 -6.11815 0
M  V30 8407 C 1187.4 -6.11426 -5.62335 0
M  V30 8408 O 1188.14 -5.6162 -6.70584 0
M  V30 8409 C 1186.74 -5.04409 -4.73308 0
M  V30 8410 O 1187.53 -3.85992 -4.75183 0
M  V30 8411 C 1185.4 -4.8728 -5.41006 0
M  V30 8412 H 1185.43 -4.02333 -6.11157 0
M  V30 8413 H 1186.61 -5.39466 -3.69543 0
M  V30 8414 H 1188.1 -6.71916 -5.01943 0
M  V30 8415 H 1186.4 -7.4649 -6.93477 0
M  V30 8416 H 1186.21 -8.89416 -5.05237 0
M  V30 8417 H 1184.58 -8.14876 -5.18409 0
M  V30 8418 H 1187.22 -3.27957 -5.4317 0
M  V30 8419 P 1189.08 -5.75688 -6.64379 0
M  V30 8420 O 1190.5 -6.07627 -7.05504 0
M  V30 8421 O 1188.72 -5.88047 -5.19722 0
M  V30 8422 O 1188.76 -4.2322 -7.04443 0
M  V30 8423 C 1188.6 -3.99743 -8.4911 0
M  V30 8424 C 1189.14 -2.60516 -8.79425 0
M  V30 8425 O 1188.08 -1.82684 -8.4467 0
M  V30 8426 C 1190.35 -2.10343 -8.03628 0
M  V30 8427 O 1191.09 -1.09919 -8.67766 0
M  V30 8428 C 1189.69 -1.68446 -6.70876 0
M  V30 8429 O 1190.48 -0.678137 -6.08433 0
M  V30 8430 C 1188.35 -1.17436 -7.18567 0
M  V30 8431 H 1188.38 -0.0804732 -7.31656 0
M  V30 8432 H 1189.56 -2.54037 -6.02537 0
M  V30 8433 H 1191.05 -2.93881 -7.85526 0
M  V30 8434 H 1189.35 -2.53065 -9.86973 0
M  V30 8435 H 1189.16 -4.75072 -9.05887 0
M  V30 8436 H 1187.53 -4.05244 -8.76668 0
M  V30 8437 H 1190.17 0.177647 -6.34251 0
M  V30 8438 P 1192.03 -1.25109 -8.70152 0
M  V30 8439 O 1193.45 -1.29744 -9.22016 0
M  V30 8440 O 1191.67 -2.13714 -7.55141 0
M  V30 8441 O 1191.71 0.248149 -8.21425 0
M  V30 8442 C 1191.55 1.22779 -9.30434 0
M  V30 8443 C 1192.09 2.56293 -8.80664 0
M  V30 8444 O 1191.03 3.02979 -8.09349 0
M  V30 8445 C 1193.31 2.57523 -7.89775 0
M  V30 8446 O 1194.04 3.7668 -7.89438 0
M  V30 8447 C 1192.64 2.20997 -6.55446 0
M  V30 8448 O 1193.44 2.71895 -5.48509 0
M  V30 8449 C 1191.3 2.89693 -6.67988 0
M  V30 8450 H 1191.33 3.88793 -6.19859 0
M  V30 8451 H 1192.51 1.12046 -6.44229 0
M  V30 8452 H 1194 1.7746 -8.19711 0
M  V30 8453 H 1192.3 3.20706 -9.67112 0
M  V30 8454 H 1192.11 0.901032 -10.1892 0
M  V30 8455 H 1190.48 1.33049 -9.56592 0
M  V30 8456 H 1193.12 3.57847 -5.23962 0
M  V30 8457 P 1194.98 3.65191 -7.99657 0
M  V30 8458 O 1196.4 3.89332 -8.45794 0
M  V30 8459 O 1194.62 2.28472 -7.50807 0
M  V30 8460 O 1194.66 4.64972 -6.77611 0
M  V30 8461 C 1194.5 6.06319 -7.16352 0
M  V30 8462 C 1195.04 6.91731 -6.02299 0
M  V30 8463 O 1193.98 6.92449 -5.17064 0
M  V30 8464 C 1196.26 6.43627 -5.25174 0
M  V30 8465 O 1196.99 7.43686 -4.60469 0
M  V30 8466 C 1195.59 5.40275 -4.31916 0
M  V30 8467 O 1196.39 5.25279 -3.14438 0
M  V30 8468 C 1194.25 6.04847 -4.05327 0
M  V30 8469 H 1194.28 6.62195 -3.11261 0
M  V30 8470 H 1195.46 4.42556 -4.81383 0
M  V30 8471 H 1196.95 5.92458 -5.93643 0
M  V30 8472 H 1195.25 7.92655 -6.402 0
M  V30 8473 H 1195.06 6.26671 -8.0846 0
M  V30 8474 H 1193.43 6.29101 -7.32804 0
M  V30 8475 H 1196.07 5.84315 -2.47318 0
M  V30 8476 P 1197.93 7.39546 -4.75277 0
M  V30 8477 O 1199.35 7.84798 -5.01039 0
M  V30 8478 O 1197.57 5.9812 -5.08098 0
M  V30 8479 O 1197.61 7.57503 -3.1866 0
M  V30 8480 C 1197.45 8.97357 -2.74833 0
M  V30 8481 C 1197.99 9.07548 -1.32709 0
M  V30 8482 O 1196.93 8.62072 -0.606159 0
M  V30 8483 C 1199.21 8.25383 -0.938334 0
M  V30 8484 O 1199.94 8.74577 0.146954 0
M  V30 8485 C 1198.54 6.8802 -0.712559 0
M  V30 8486 O 1199.34 6.1189 0.194655 0
M  V30 8487 C 1197.2 7.27966 -0.139777 0
M  V30 8488 H 1197.23 7.25354 0.961601 0
M  V30 8489 H 1198.42 6.32557 -1.65702 0
M  V30 8490 H 1199.9 8.19355 -1.79097 0
M  V30 8491 H 1198.21 10.1294 -1.10029 0
M  V30 8492 H 1198.02 9.64276 -3.41316 0
M  V30 8493 H 1196.39 9.25417 -2.76357 0
M  V30 8494 H 1199.02 6.25267 1.07847 0
M  V30 8495 P 1200.88 8.791 9.72715e-12 0
M  V30 8496 O 1202.3 9.31096 0.027933 0
M  V30 8497 O 1200.52 7.77869 -1.04071 0
M  V30 8498 O 1200.56 8.09533 1.41463 0
M  V30 8499 C 1200.4 9.0349 2.53943 0
M  V30 8500 C 1200.94 8.35226 3.79016 0
M  V30 8501 O 1199.88 7.57992 4.15078 0
M  V30 8502 C 1202.16 7.45087 3.67298 0
M  V30 8503 O 1202.89 7.27796 4.85194 0
M  V30 8504 C 1201.49 6.17323 3.12027 0
M  V30 8505 O 1202.29 5.04231 3.47188 0
M  V30 8506 C 1200.15 6.19961 3.81809 0
M  V30 8507 H 1200.18 5.58218 4.73051 0
M  V30 8508 H 1201.37 6.21726 2.02589 0
M  V30 8509 H 1202.85 7.86112 2.9231 0
M  V30 8510 H 1201.16 9.11627 4.55076 0
M  V30 8511 H 1200.97 9.9573 2.34194 0
M  V30 8512 H 1199.34 9.2792 2.67832 0
M  V30 8513 H 1201.97 4.67702 4.28772 0
M  V30 8514 P 1203.83 7.39546 4.75277 0
M  V30 8515 O 1205.25 7.81861 5.05793 0
M  V30 8516 O 1203.47 7.1065 3.32998 0
M  V30 8517 O 1203.51 6.04542 5.56673 0
M  V30 8518 C 1203.35 6.22839 7.02169 0
M  V30 8519 C 1203.89 4.97725 7.70406 0
M  V30 8520 O 1202.83 4.13208 7.58899 0
M  V30 8521 C 1205.11 4.28231 7.11815 0
M  V30 8522 O 1205.85 3.49945 8.01648 0
M  V30 8523 C 1204.44 3.5063 5.96244 0
M  V30 8524 O 1205.24 2.37008 5.64352 0
M  V30 8525 C 1203.1 3.15122 6.56374 0
M  V30 8526 N 1202.06 3.22311 5.55692 0
M  V30 8527 C 1202.23 3.99655 4.46046 0
M  V30 8528 N 1201.2 3.97599 3.63918 0
M  V30 8529 C 1200.32 3.11159 4.25334 0
M  V30 8530 C 1199.05 2.64972 3.85157 0
M  V30 8531 N 1198.48 1.78482 4.74759 0
M  V30 8532 C 1199.09 1.37463 5.90819 0
M  V30 8533 N 1200.26 1.7733 6.31889 0
M  V30 8534 C 1200.84 2.64393 5.43725 0
M  V30 8535 H 1204.32 4.12931 5.06895 0
M  V30 8536 H 1205.8 5.03285 6.70911 0
M  V30 8537 H 1204.11 5.20001 8.76217 0
M  V30 8538 H 1203.92 7.11046 7.35349 0
M  V30 8539 H 1202.29 6.35815 7.26986 0
M  V30 8540 H 1203.13 4.58037 4.27732 0
M  V30 8541 H 1204.93 1.61619 6.13468 0
M  V30 8542 P 1206.78 3.65191 7.99657 0
M  V30 8543 O 1208.21 3.8425 8.48115 0
M  V30 8544 O 1206.42 4.17805 6.64342 0
M  V30 8545 O 1206.46 2.07613 7.95143 0
M  V30 8546 C 1206.3 1.44328 9.27336 0
M  V30 8547 C 1206.84 0.0220036 9.17197 0
M  V30 8548 O 1205.78 -0.626867 8.61923 0
M  V30 8549 C 1208.06 -0.24586 8.30336 0
M  V30 8550 O 1208.8 -1.39011 8.63583 0
M  V30 8551 C 1207.39 -0.273849 6.91158 0
M  V30 8552 O 1208.19 -1.06348 6.02892 0
M  V30 8553 C 1206.05 -0.897649 7.22545 0
M  V30 8554 H 1206.08 -1.9841 7.04286 0
M  V30 8555 H 1207.27 0.739928 6.497 0
M  V30 8556 H 1208.75 0.60668 8.36503 0
M  V30 8557 H 1207.06 -0.352479 10.1829 0
M  V30 8558 H 1206.87 2.00611 10.0304 0
M  V30 8559 H 1205.24 1.41843 9.55327 0
M  V30 8560 H 1207.88 -1.95734 6.03555 0
M  V30 8561 P 1209.73 -1.25109 8.70152 0
M  V30 8562 O 1211.16 -1.35274 9.21221 0
M  V30 8563 O 1209.37 -0.0769065 7.84762 0
M  V30 8564 O 1209.41 -2.55232 7.81161 0
M  V30 8565 C 1209.25 -3.79939 8.58154 0
M  V30 8566 C 1209.79 -4.94023 7.72785 0
M  V30 8567 O 1208.73 -5.18726 6.91205 0
M  V30 8568 C 1211.01 -4.69597 6.85231 0
M  V30 8569 O 1211.75 -5.83832 6.51337 0
M  V30 8570 C 1210.34 -3.96706 5.66633 0
M  V30 8571 O 1211.14 -4.15414 4.49689 0
M  V30 8572 C 1209 -4.66153 5.59313 0
M  V30 8573 H 1209.03 -5.47679 4.85214 0
M  V30 8574 H 1210.22 -2.89008 5.86566 0
M  V30 8575 H 1211.7 -4.0121 7.36511 0
M  V30 8576 H 1210.01 -5.80182 8.37584 0
M  V30 8577 H 1209.82 -3.73517 9.52265 0
M  V30 8578 H 1208.19 -3.97163 8.80359 0
M  V30 8579 H 1210.83 -4.90969 4.01921 0
M  V30 8580 P 1212.68 -5.75688 6.64379 0
M  V30 8581 O 1214.11 -6.11849 7.01846 0
M  V30 8582 O 1212.32 -4.30744 6.56026 0
M  V30 8583 O 1212.36 -6.37042 5.19165 0
M  V30 8584 C 1212.2 -7.83578 5.16515 0
M  V30 8585 C 1212.74 -8.33398 3.83019 0
M  V30 8586 O 1211.69 -8.10074 3.01034 0
M  V30 8587 C 1213.96 -7.65514 3.2257 0
M  V30 8588 O 1214.7 -8.4329 2.32297 0
M  V30 8589 C 1213.29 -6.40075 2.62207 0
M  V30 8590 O 1214.09 -5.92589 1.53712 0
M  V30 8591 C 1211.95 -6.9454 2.18503 0
M  V30 8592 H 1211.99 -7.23063 1.12091 0
M  V30 8593 H 1213.17 -5.6025 3.37201 0
M  V30 8594 H 1214.65 -7.35707 4.02681 0
M  V30 8595 H 1212.96 -9.40912 3.9095 0
M  V30 8596 H 1212.77 -8.29056 5.99158 0
M  V30 8597 H 1211.14 -8.10073 5.25882 0
M  V30 8598 H 1213.78 -6.30324 0.726794 0
M  V30 8599 P 1215.63 -8.4349 2.47671 0
M  V30 8600 O 1217.06 -8.94167 2.5964 0
M  V30 8601 O 1215.27 -7.1704 3.19006 0
M  V30 8602 O 1215.31 -8.16596 0.923387 0
M  V30 8603 C 1215.15 -9.38437 0.108857 0
M  V30 8604 C 1215.69 -9.08175 -1.28353 0
M  V30 8605 O 1214.64 -8.44229 -1.84713 0
M  V30 8606 C 1216.91 -8.18386 -1.42505 0
M  V30 8607 O 1217.65 -8.3501 -2.60497 0
M  V30 8608 C 1216.24 -6.80225 -1.25468 0
M  V30 8609 O 1217.04 -5.81621 -1.91066 0
M  V30 8610 C 1214.9 -7.02416 -1.9168 0
M  V30 8611 H 1214.94 -6.6888 -2.96621 0
M  V30 8612 H 1216.12 -6.53617 -0.192223 0
M  V30 8613 H 1217.6 -8.36622 -0.589963 0
M  V30 8614 H 1215.91 -10.0291 -1.79807 0
M  V30 8615 H 1215.72 -10.2138 0.558219 0
M  V30 8616 H 1214.09 -9.6579 0.0444202 0
M  V30 8617 H 1216.73 -5.69556 -2.79637 0
M  V30 8618 P 1218.59 -8.4349 -2.47671 0
M  V30 8619 O 1220.01 -8.92593 -2.65 0
M  V30 8620 O 1218.23 -7.7568 -1.19296 0
M  V30 8621 O 1218.26 -7.36886 -3.63805 0
M  V30 8622 C 1218.1 -7.95349 -4.982 0
M  V30 8623 C 1218.64 -6.94612 -5.98974 0
M  V30 8624 O 1217.59 -6.10347 -6.11815 0
M  V30 8625 C 1219.86 -6.11426 -5.62335 0
M  V30 8626 O 1220.6 -5.6162 -6.70584 0
M  V30 8627 C 1219.19 -5.04409 -4.73308 0
M  V30 8628 O 1219.99 -3.85992 -4.75183 0
M  V30 8629 C 1217.85 -4.8728 -5.41006 0
M  V30 8630 H 1217.89 -4.02333 -6.11157 0
M  V30 8631 H 1219.07 -5.39466 -3.69543 0
M  V30 8632 H 1220.55 -6.71916 -5.01943 0
M  V30 8633 H 1218.86 -7.4649 -6.93477 0
M  V30 8634 H 1218.67 -8.89416 -5.05237 0
M  V30 8635 H 1217.04 -8.14876 -5.18409 0
M  V30 8636 H 1219.68 -3.27957 -5.4317 0
M  V30 8637 P 1221.54 -5.75688 -6.64379 0
M  V30 8638 O 1222.96 -6.07692 -7.0558 0
M  V30 8639 O 1221.18 -5.88047 -5.19722 0
M  V30 8640 O 1221.21 -4.2322 -7.04443 0
M  V30 8641 C 1221.05 -3.99785 -8.49201 0
M  V30 8642 C 1221.59 -2.60516 -8.79425 0
M  V30 8643 O 1220.54 -1.82663 -8.44573 0
M  V30 8644 C 1222.81 -2.10343 -8.03628 0
M  V30 8645 O 1223.55 -1.09919 -8.67766 0
M  V30 8646 C 1222.14 -1.68446 -6.70876 0
M  V30 8647 O 1222.94 -0.684109 -6.08265 0
M  V30 8648 C 1220.8 -1.17436 -7.18567 0
M  V30 8649 N 1219.76 -1.52699 -6.23988 0
M  V30 8650 C 1219.93 -2.578 -5.40574 0
M  V30 8651 N 1218.9 -2.78966 -4.61193 0
M  V30 8652 C 1218.02 -1.78725 -4.95769 0
M  V30 8653 C 1216.75 -1.45727 -4.44207 0
M  V30 8654 N 1216.19 -0.374977 -5.05812 0
M  V30 8655 C 1216.79 0.345585 -6.05615 0
M  V30 8656 N 1217.97 0.0787651 -6.56253 0
M  V30 8657 C 1218.54 -1.00499 -5.96189 0
M  V30 8658 H 1222.02 -2.53396 -6.02698 0
M  V30 8659 H 1223.5 -2.93881 -7.85526 0
M  V30 8660 H 1221.81 -2.52078 -9.87225 0
M  V30 8661 H 1221.62 -4.75072 -9.05887 0
M  V30 8662 H 1219.99 -4.05244 -8.76668 0
M  V30 8663 H 1220.83 -3.18977 -5.3945 0
M  V30 8664 H 1222.63 0.177619 -6.34151 0
M  V30 8665 P 1224.49 -1.25109 -8.70152 0
M  V30 8666 O 1225.91 -1.29744 -9.22016 0
M  V30 8667 O 1224.13 -2.13714 -7.55141 0
M  V30 8668 O 1224.16 0.248149 -8.21425 0
M  V30 8669 C 1224 1.22779 -9.30434 0
M  V30 8670 C 1224.54 2.56293 -8.80664 0
M  V30 8671 O 1223.49 3.02979 -8.09349 0
M  V30 8672 C 1225.76 2.57523 -7.89775 0
M  V30 8673 O 1226.5 3.7668 -7.89438 0
M  V30 8674 C 1225.09 2.20997 -6.55446 0
M  V30 8675 O 1225.89 2.71895 -5.48509 0
M  V30 8676 C 1223.76 2.89693 -6.67988 0
M  V30 8677 H 1223.79 3.88793 -6.19859 0
M  V30 8678 H 1224.97 1.12046 -6.44229 0
M  V30 8679 H 1226.45 1.7746 -8.19711 0
M  V30 8680 H 1224.76 3.20706 -9.67112 0
M  V30 8681 H 1224.57 0.901032 -10.1892 0
M  V30 8682 H 1222.94 1.33049 -9.56592 0
M  V30 8683 H 1225.58 3.57847 -5.23962 0
M  V30 8684 P 1227.44 3.65191 -7.99657 0
M  V30 8685 O 1228.86 3.89332 -8.45794 0
M  V30 8686 O 1227.08 2.28472 -7.50807 0
M  V30 8687 O 1227.11 4.64972 -6.77611 0
M  V30 8688 C 1226.95 6.06319 -7.16352 0
M  V30 8689 C 1227.49 6.91731 -6.02299 0
M  V30 8690 O 1226.44 6.92449 -5.17064 0
M  V30 8691 C 1228.71 6.43627 -5.25174 0
M  V30 8692 O 1229.45 7.43686 -4.60469 0
M  V30 8693 C 1228.04 5.40275 -4.31916 0
M  V30 8694 O 1228.84 5.25279 -3.14438 0
M  V30 8695 C 1226.71 6.04847 -4.05327 0
M  V30 8696 H 1226.74 6.62195 -3.11261 0
M  V30 8697 H 1227.92 4.42556 -4.81383 0
M  V30 8698 H 1229.41 5.92458 -5.93643 0
M  V30 8699 H 1227.71 7.92655 -6.402 0
M  V30 8700 H 1227.52 6.26671 -8.0846 0
M  V30 8701 H 1225.89 6.29101 -7.32804 0
M  V30 8702 H 1228.53 5.84315 -2.47318 0
M  V30 8703 P 1230.39 7.39546 -4.75277 0
M  V30 8704 O 1231.81 7.84798 -5.01039 0
M  V30 8705 O 1230.03 5.9812 -5.08098 0
M  V30 8706 O 1230.06 7.57503 -3.1866 0
M  V30 8707 C 1229.9 8.97357 -2.74833 0
M  V30 8708 C 1230.44 9.07548 -1.32709 0
M  V30 8709 O 1229.39 8.62072 -0.606159 0
M  V30 8710 C 1231.66 8.25383 -0.938334 0
M  V30 8711 O 1232.4 8.74577 0.146954 0
M  V30 8712 C 1230.99 6.8802 -0.712559 0
M  V30 8713 O 1231.79 6.1189 0.194655 0
M  V30 8714 C 1229.66 7.27966 -0.139777 0
M  V30 8715 H 1229.69 7.25354 0.961601 0
M  V30 8716 H 1230.87 6.32557 -1.65702 0
M  V30 8717 H 1232.36 8.19355 -1.79097 0
M  V30 8718 H 1230.66 10.1294 -1.10029 0
M  V30 8719 H 1230.47 9.64276 -3.41316 0
M  V30 8720 H 1228.84 9.25417 -2.76357 0
M  V30 8721 H 1231.48 6.25267 1.07847 0
M  V30 8722 P 1233.34 8.791 1.00373e-11 0
M  V30 8723 O 1234.76 9.31096 0.027933 0
M  V30 8724 O 1232.98 7.77869 -1.04071 0
M  V30 8725 O 1233.02 8.09533 1.41463 0
M  V30 8726 C 1232.86 9.0349 2.53943 0
M  V30 8727 C 1233.4 8.35226 3.79016 0
M  V30 8728 O 1232.34 7.57992 4.15078 0
M  V30 8729 C 1234.61 7.45087 3.67298 0
M  V30 8730 O 1235.35 7.27796 4.85194 0
M  V30 8731 C 1233.94 6.17323 3.12027 0
M  V30 8732 O 1234.74 5.04231 3.47188 0
M  V30 8733 C 1232.61 6.19961 3.81809 0
M  V30 8734 H 1232.64 5.58218 4.73051 0
M  V30 8735 H 1233.82 6.21726 2.02589 0
M  V30 8736 H 1235.31 7.86112 2.9231 0
M  V30 8737 H 1233.61 9.11627 4.55076 0
M  V30 8738 H 1233.42 9.9573 2.34194 0
M  V30 8739 H 1231.79 9.2792 2.67832 0
M  V30 8740 H 1234.43 4.67702 4.28772 0
M  V30 8741 P 1236.29 7.39546 4.75277 0
M  V30 8742 O 1237.71 7.81777 5.05738 0
M  V30 8743 O 1235.93 7.1065 3.32998 0
M  V30 8744 O 1235.97 6.04542 5.56673 0
M  V30 8745 C 1235.81 6.22772 7.02095 0
M  V30 8746 C 1236.35 4.97725 7.70406 0
M  V30 8747 O 1235.29 4.13256 7.58987 0
M  V30 8748 C 1237.56 4.28231 7.11815 0
M  V30 8749 O 1238.3 3.49945 8.01648 0
M  V30 8750 C 1236.89 3.5063 5.96244 0
M  V30 8751 O 1237.69 2.36482 5.64681 0
M  V30 8752 C 1235.56 3.15122 6.56374 0
M  V30 8753 H 1235.59 2.13853 6.99751 0
M  V30 8754 H 1236.77 4.13501 5.06559 0
M  V30 8755 H 1238.26 5.03285 6.70911 0
M  V30 8756 H 1236.56 5.20877 8.75697 0
M  V30 8757 H 1236.37 7.11046 7.35349 0
M  V30 8758 H 1234.74 6.35815 7.26986 0
M  V30 8759 H 1237.38 1.61644 6.13565 0
M  V30 8760 P 1239.24 3.65191 7.99657 0
M  V30 8761 O 1240.66 3.84292 8.48206 0
M  V30 8762 O 1238.88 4.17805 6.64342 0
M  V30 8763 O 1238.92 2.07613 7.95143 0
M  V30 8764 C 1238.76 1.44344 9.27435 0
M  V30 8765 C 1239.3 0.0220036 9.17197 0
M  V30 8766 O 1238.24 -0.626794 8.61824 0
M  V30 8767 C 1240.51 -0.24586 8.30336 0
M  V30 8768 O 1241.25 -1.39011 8.63583 0
M  V30 8769 C 1239.85 -0.273849 6.91158 0
M  V30 8770 O 1240.64 -1.05728 6.029 0
M  V30 8771 C 1238.51 -0.897649 7.22545 0
M  V30 8772 N 1237.47 -0.292839 6.41732 0
M  V30 8773 C 1237.63 0.950603 5.91308 0
M  V30 8774 N 1236.61 1.37732 5.21105 0
M  V30 8775 C 1235.72 0.318109 5.26039 0
M  V30 8776 C 1234.46 0.146766 4.6727 0
M  V30 8777 N 1233.86 1.08519 3.89983 0
M  V30 8778 N 1233.89 -1.06525 4.95887 0
M  V30 8779 C 1234.49 -2.0378 5.71347 0
M  V30 8780 N 1235.67 -1.92445 6.27451 0
M  V30 8781 C 1236.24 -0.715382 6.00353 0
M  V30 8782 H 1238.54 -1.98383 7.04189 0
M  V30 8783 H 1239.72 0.733318 6.49674 0
M  V30 8784 H 1241.21 0.60668 8.36503 0
M  V30 8785 H 1239.51 -0.362662 10.1825 0
M  V30 8786 H 1239.32 2.00611 10.0304 0
M  V30 8787 H 1237.69 1.41843 9.55327 0
M  V30 8788 H 1233.96 -2.97041 5.85344 0
M  V30 8789 H 1238.53 1.54076 6.07465 0
M  V30 8790 H 1232.93 0.901517 3.49562 0
M  V30 8791 H 1234.33 1.97957 3.71669 0
M  V30 8792 H 1240.33 -1.95704 6.0346 0
M  V30 8793 P 1242.19 -1.25109 8.70152 0
M  V30 8794 O 1243.61 -1.35274 9.21221 0
M  V30 8795 O 1241.83 -0.0769065 7.84762 0
M  V30 8796 O 1241.87 -2.55232 7.81161 0
M  V30 8797 C 1241.71 -3.79939 8.58154 0
M  V30 8798 C 1242.25 -4.94023 7.72785 0
M  V30 8799 O 1241.19 -5.18726 6.91205 0
M  V30 8800 C 1243.46 -4.69597 6.85231 0
M  V30 8801 O 1244.2 -5.83832 6.51337 0
M  V30 8802 C 1242.8 -3.96706 5.66633 0
M  V30 8803 O 1243.59 -4.15414 4.49689 0
M  V30 8804 C 1241.46 -4.66153 5.59313 0
M  V30 8805 H 1241.49 -5.47679 4.85214 0
M  V30 8806 H 1242.67 -2.89008 5.86566 0
M  V30 8807 H 1244.16 -4.0121 7.36511 0
M  V30 8808 H 1242.46 -5.80182 8.37584 0
M  V30 8809 H 1242.27 -3.73517 9.52265 0
M  V30 8810 H 1240.64 -3.97163 8.80359 0
M  V30 8811 H 1243.28 -4.90969 4.01921 0
M  V30 8812 P 1245.14 -5.75688 6.64379 0
M  V30 8813 O 1246.56 -6.11849 7.01846 0
M  V30 8814 O 1244.78 -4.30744 6.56026 0
M  V30 8815 O 1244.82 -6.37042 5.19165 0
M  V30 8816 C 1244.66 -7.83578 5.16515 0
M  V30 8817 C 1245.2 -8.33398 3.83019 0
M  V30 8818 O 1244.14 -8.10074 3.01034 0
M  V30 8819 C 1246.42 -7.65514 3.2257 0
M  V30 8820 O 1247.15 -8.4329 2.32297 0
M  V30 8821 C 1245.75 -6.40075 2.62207 0
M  V30 8822 O 1246.55 -5.92589 1.53712 0
M  V30 8823 C 1244.41 -6.9454 2.18503 0
M  V30 8824 H 1244.44 -7.23063 1.12091 0
M  V30 8825 H 1245.62 -5.6025 3.37201 0
M  V30 8826 H 1247.11 -7.35707 4.02681 0
M  V30 8827 H 1245.41 -9.40912 3.9095 0
M  V30 8828 H 1245.22 -8.29056 5.99158 0
M  V30 8829 H 1243.59 -8.10073 5.25882 0
M  V30 8830 H 1246.23 -6.30324 0.726794 0
M  V30 8831 P 1248.09 -8.4349 2.47671 0
M  V30 8832 O 1249.51 -8.94167 2.5964 0
M  V30 8833 O 1247.73 -7.1704 3.19006 0
M  V30 8834 O 1247.77 -8.16596 0.923387 0
M  V30 8835 C 1247.61 -9.38437 0.108857 0
M  V30 8836 C 1248.15 -9.08175 -1.28353 0
M  V30 8837 O 1247.09 -8.44229 -1.84713 0
M  V30 8838 C 1249.37 -8.18386 -1.42505 0
M  V30 8839 O 1250.1 -8.3501 -2.60497 0
M  V30 8840 C 1248.7 -6.80225 -1.25468 0
M  V30 8841 O 1249.5 -5.81621 -1.91066 0
M  V30 8842 C 1247.36 -7.02416 -1.9168 0
M  V30 8843 H 1247.39 -6.6888 -2.96621 0
M  V30 8844 H 1248.58 -6.53617 -0.192223 0
M  V30 8845 H 1250.06 -8.36622 -0.589963 0
M  V30 8846 H 1248.37 -10.0291 -1.79807 0
M  V30 8847 H 1248.18 -10.2138 0.558219 0
M  V30 8848 H 1246.55 -9.6579 0.0444202 0
M  V30 8849 H 1249.18 -5.69556 -2.79637 0
M  V30 8850 P 1251.04 -8.4349 -2.47671 0
M  V30 8851 O 1252.44 -8.99283 -2.62101 0
M  V30 8852 O 1250.66 -7.81195 -1.16947 0
M  V30 8853 O 1250.72 -7.36797 -3.63761 0
M  V30 8854 C 1250.56 -7.95349 -4.982 0
M  V30 8855 C 1251.1 -6.94537 -5.98908 0
M  V30 8856 O 1250.04 -6.10277 -6.11744 0
M  V30 8857 C 1252.32 -6.11426 -5.62335 0
M  V30 8858 O 1253.05 -5.6162 -6.70584 0
M  V30 8859 C 1251.65 -5.04409 -4.73308 0
M  V30 8860 O 1252.45 -3.85929 -4.75106 0
M  V30 8861 C 1250.31 -4.8728 -5.41006 0
M  V30 8862 N 1249.27 -4.65812 -4.42377 0
M  V30 8863 C 1248.23 -3.81293 -4.74224 0
M  V30 8864 O 1248.27 -3.20533 -5.83679 0
M  V30 8865 N 1247.22 -3.6442 -3.86349 0
M  V30 8866 C 1247.27 -4.2728 -2.6824 0
M  V30 8867 N 1246.26 -4.09866 -1.83822 0
M  V30 8868 C 1248.36 -5.10813 -2.3217 0
M  V30 8869 C 1249.33 -5.27909 -3.22647 0
M  V30 8870 H 1250.34 -4.02278 -6.11074 0
M  V30 8871 H 1251.53 -5.39013 -3.70026 0
M  V30 8872 H 1253.01 -6.71494 -5.02675 0
M  V30 8873 H 1251.32 -7.45796 -6.94223 0
M  V30 8874 H 1251.12 -8.89416 -5.05237 0
M  V30 8875 H 1249.49 -8.14791 -5.18355 0
M  V30 8876 H 1248.41 -5.58884 -1.34755 0
M  V30 8877 H 1250.18 -5.92811 -2.9934 0
M  V30 8878 H 1245.47 -3.49095 -2.10018 0
M  V30 8879 H 1246.26 -4.56846 -0.924167 0
M  V30 8880 H 1252.23 -3.3454 -5.51577 0
M  V30 8881 P 1253.99 -5.75688 -6.64379 0
M  V30 8882 O 1255.41 -6.07627 -7.05504 0
M  V30 8883 O 1253.63 -5.88047 -5.19722 0
M  V30 8884 O 1253.67 -4.2322 -7.04443 0
M  V30 8885 C 1253.51 -3.99743 -8.4911 0
M  V30 8886 C 1254.05 -2.60516 -8.79425 0
M  V30 8887 O 1252.99 -1.82684 -8.4467 0
M  V30 8888 C 1255.27 -2.10343 -8.03628 0
M  V30 8889 O 1256.01 -1.09919 -8.67766 0
M  V30 8890 C 1254.6 -1.68446 -6.70876 0
M  V30 8891 O 1255.4 -0.678137 -6.08433 0
M  V30 8892 C 1253.26 -1.17436 -7.18567 0
M  V30 8893 H 1253.29 -0.0804732 -7.31656 0
M  V30 8894 H 1254.48 -2.54037 -6.02537 0
M  V30 8895 H 1255.96 -2.93881 -7.85526 0
M  V30 8896 H 1254.27 -2.53065 -9.86973 0
M  V30 8897 H 1254.08 -4.75072 -9.05887 0
M  V30 8898 H 1252.45 -4.05244 -8.76668 0
M  V30 8899 H 1255.09 0.177647 -6.34251 0
M  V30 8900 P 1256.94 -1.25109 -8.70152 0
M  V30 8901 O 1258.36 -1.29758 -9.22115 0
M  V30 8902 O 1256.58 -2.13714 -7.55141 0
M  V30 8903 O 1256.62 0.248149 -8.21425 0
M  V30 8904 C 1256.46 1.22792 -9.30533 0
M  V30 8905 C 1257 2.56293 -8.80664 0
M  V30 8906 O 1255.94 3.02944 -8.09255 0
M  V30 8907 C 1258.22 2.57523 -7.89775 0
M  V30 8908 O 1258.96 3.7668 -7.89438 0
M  V30 8909 C 1257.55 2.20997 -6.55446 0
M  V30 8910 O 1258.35 2.71302 -5.48691 0
M  V30 8911 C 1256.21 2.89693 -6.67988 0
M  V30 8912 N 1255.17 2.08895 -6.07487 0
M  V30 8913 C 1255.34 0.753809 -5.94137 0
M  V30 8914 N 1254.31 0.146592 -5.38801 0
M  V30 8915 C 1253.43 1.1768 -5.13693 0
M  V30 8916 C 1252.16 1.17563 -4.52477 0
M  V30 8917 N 1251.59 2.41918 -4.45789 0
M  V30 8918 C 1252.2 3.56493 -4.90792 0
M  V30 8919 N 1253.37 3.61423 -5.47817 0
M  V30 8920 C 1253.95 2.37779 -5.5588 0
M  V30 8921 H 1257.43 1.12673 -6.44018 0
M  V30 8922 H 1258.91 1.7746 -8.19711 0
M  V30 8923 H 1257.22 3.21673 -9.66791 0
M  V30 8924 H 1257.03 0.901032 -10.1892 0
M  V30 8925 H 1255.4 1.33049 -9.56592 0
M  V30 8926 H 1256.24 0.233081 -6.26266 0
M  V30 8927 H 1258.04 3.5779 -5.23879 0
M  V30 8928 P 1259.89 3.65191 -7.99657 0
M  V30 8929 O 1261.32 3.89332 -8.45794 0
M  V30 8930 O 1259.53 2.28472 -7.50807 0
M  V30 8931 O 1259.57 4.64972 -6.77611 0
M  V30 8932 C 1259.41 6.06319 -7.16352 0
M  V30 8933 C 1259.95 6.91731 -6.02299 0
M  V30 8934 O 1258.89 6.92449 -5.17064 0
M  V30 8935 C 1261.17 6.43627 -5.25174 0
M  V30 8936 O 1261.91 7.43686 -4.60469 0
M  V30 8937 C 1260.5 5.40275 -4.31916 0
M  V30 8938 O 1261.3 5.25279 -3.14438 0
M  V30 8939 C 1259.16 6.04847 -4.05327 0
M  V30 8940 H 1259.19 6.62195 -3.11261 0
M  V30 8941 H 1260.38 4.42556 -4.81383 0
M  V30 8942 H 1261.86 5.92458 -5.93643 0
M  V30 8943 H 1260.17 7.92655 -6.402 0
M  V30 8944 H 1259.98 6.26671 -8.0846 0
M  V30 8945 H 1258.35 6.29101 -7.32804 0
M  V30 8946 H 1260.99 5.84315 -2.47318 0
M  V30 8947 P 1262.84 7.39546 -4.75277 0
M  V30 8948 O 1264.27 7.84798 -5.01039 0
M  V30 8949 O 1262.48 5.9812 -5.08098 0
M  V30 8950 O 1262.52 7.57503 -3.1866 0
M  V30 8951 C 1262.36 8.97357 -2.74833 0
M  V30 8952 C 1262.9 9.07548 -1.32709 0
M  V30 8953 O 1261.84 8.62072 -0.606159 0
M  V30 8954 C 1264.12 8.25383 -0.938334 0
M  V30 8955 O 1264.86 8.74577 0.146954 0
M  V30 8956 C 1263.45 6.8802 -0.712559 0
M  V30 8957 O 1264.25 6.1189 0.194655 0
M  V30 8958 C 1262.11 7.27966 -0.139777 0
M  V30 8959 H 1262.14 7.25354 0.961601 0
M  V30 8960 H 1263.33 6.32557 -1.65702 0
M  V30 8961 H 1264.81 8.19355 -1.79097 0
M  V30 8962 H 1263.12 10.1294 -1.10029 0
M  V30 8963 H 1262.93 9.64276 -3.41316 0
M  V30 8964 H 1261.3 9.25417 -2.76357 0
M  V30 8965 H 1263.94 6.25267 1.07847 0
M  V30 8966 P 1265.79 8.791 1.03475e-11 0
M  V30 8967 O 1267.22 9.31096 0.027933 0
M  V30 8968 O 1265.43 7.77869 -1.04071 0
M  V30 8969 O 1265.47 8.09533 1.41463 0
M  V30 8970 C 1265.31 9.0349 2.53943 0
M  V30 8971 C 1265.85 8.35226 3.79016 0
M  V30 8972 O 1264.8 7.57992 4.15078 0
M  V30 8973 C 1267.07 7.45087 3.67298 0
M  V30 8974 O 1267.81 7.27796 4.85194 0
M  V30 8975 C 1266.4 6.17323 3.12027 0
M  V30 8976 O 1267.2 5.04231 3.47188 0
M  V30 8977 C 1265.06 6.19961 3.81809 0
M  V30 8978 H 1265.1 5.58218 4.73051 0
M  V30 8979 H 1266.28 6.21726 2.02589 0
M  V30 8980 H 1267.76 7.86112 2.9231 0
M  V30 8981 H 1266.07 9.11627 4.55076 0
M  V30 8982 H 1265.88 9.9573 2.34194 0
M  V30 8983 H 1264.25 9.2792 2.67832 0
M  V30 8984 H 1266.89 4.67702 4.28772 0
M  V30 8985 P 1268.75 7.39546 4.75277 0
M  V30 8986 O 1270.17 7.81777 5.05738 0
M  V30 8987 O 1268.39 7.1065 3.32998 0
M  V30 8988 O 1268.42 6.04542 5.56673 0
M  V30 8989 C 1268.26 6.22772 7.02095 0
M  V30 8990 C 1268.8 4.97725 7.70406 0
M  V30 8991 O 1267.75 4.13256 7.58987 0
M  V30 8992 C 1270.02 4.28231 7.11815 0
M  V30 8993 O 1270.76 3.49945 8.01648 0
M  V30 8994 C 1269.35 3.5063 5.96244 0
M  V30 8995 O 1270.15 2.36482 5.64681 0
M  V30 8996 C 1268.01 3.15122 6.56374 0
M  V30 8997 H 1268.05 2.13853 6.99751 0
M  V30 8998 H 1269.23 4.13501 5.06559 0
M  V30 8999 H 1270.71 5.03285 6.70911 0
M  V30 9000 H 1269.02 5.20877 8.75697 0
M  V30 9001 H 1268.83 7.11046 7.35349 0
M  V30 9002 H 1267.2 6.35815 7.26986 0
M  V30 9003 H 1269.84 1.61644 6.13565 0
M  V30 9004 P 1271.7 3.65191 7.99657 0
M  V30 9005 O 1273.12 3.8425 8.48115 0
M  V30 9006 O 1271.34 4.17805 6.64342 0
M  V30 9007 O 1271.37 2.07613 7.95143 0
M  V30 9008 C 1271.21 1.44328 9.27336 0
M  V30 9009 C 1271.75 0.0220036 9.17197 0
M  V30 9010 O 1270.7 -0.626867 8.61923 0
M  V30 9011 C 1272.97 -0.24586 8.30336 0
M  V30 9012 O 1273.71 -1.39011 8.63583 0
M  V30 9013 C 1272.3 -0.273849 6.91158 0
M  V30 9014 O 1273.1 -1.06348 6.02892 0
M  V30 9015 C 1270.96 -0.897649 7.22545 0
M  V30 9016 H 1271 -1.9841 7.04286 0
M  V30 9017 H 1272.18 0.739928 6.497 0
M  V30 9018 H 1273.66 0.60668 8.36503 0
M  V30 9019 H 1271.97 -0.352479 10.1829 0
M  V30 9020 H 1271.78 2.00611 10.0304 0
M  V30 9021 H 1270.15 1.41843 9.55327 0
M  V30 9022 H 1272.79 -1.95734 6.03555 0
M  V30 9023 P 1274.65 -1.25109 8.70152 0
M  V30 9024 O 1276.07 -1.35303 9.21419 0
M  V30 9025 O 1274.29 -0.0769065 7.84762 0
M  V30 9026 O 1274.32 -2.55232 7.81161 0
M  V30 9027 C 1274.16 -3.79939 8.58154 0
M  V30 9028 C 1274.7 -4.93969 7.72701 0
M  V30 9029 O 1273.65 -5.18726 6.91205 0
M  V30 9030 C 1275.92 -4.69597 6.85231 0
M  V30 9031 O 1276.66 -5.83832 6.51337 0
M  V30 9032 C 1275.25 -3.96706 5.66633 0
M  V30 9033 O 1276.05 -4.15346 4.49615 0
M  V30 9034 C 1273.92 -4.66153 5.59313 0
M  V30 9035 N 1272.87 -3.71582 5.24027 0
M  V30 9036 C 1272.93 -2.46018 5.67902 0
M  V30 9037 N 1271.89 -1.74868 5.24518 0
M  V30 9038 C 1271.16 -2.61333 4.54528 0
M  V30 9039 C 1269.85 -2.46162 3.95441 0
M  V30 9040 O 1269.12 -1.46013 3.94122 0
M  V30 9041 N 1269.42 -3.59334 3.34752 0
M  V30 9042 C 1270.17 -4.79605 3.3023 0
M  V30 9043 N 1269.57 -5.82109 2.6065 0
M  V30 9044 N 1271.32 -4.97402 3.8843 0
M  V30 9045 C 1271.78 -3.86258 4.50476 0
M  V30 9046 H 1273.95 -5.47679 4.85214 0
M  V30 9047 H 1275.13 -2.88964 5.86476 0
M  V30 9048 H 1276.62 -4.01947 7.36109 0
M  V30 9049 H 1274.92 -5.80182 8.37584 0
M  V30 9050 H 1274.73 -3.73517 9.52265 0
M  V30 9051 H 1273.1 -3.97163 8.80359 0
M  V30 9052 H 1268.52 -3.5825 2.90294 0
M  V30 9053 H 1273.73 -2.06161 6.30974 0
M  V30 9054 H 1268.66 -5.66979 2.15354 0
M  V30 9055 H 1270.04 -6.73686 2.54344 0
M  V30 9056 H 1275.74 -4.90891 4.01857 0
M  V30 9057 P 1277.6 -5.75688 6.64379 0
M  V30 9058 O 1279.02 -6.11849 7.01846 0
M  V30 9059 O 1277.24 -4.30744 6.56026 0
M  V30 9060 O 1277.27 -6.37042 5.19165 0
M  V30 9061 C 1277.11 -7.83578 5.16515 0
M  V30 9062 C 1277.65 -8.33398 3.83019 0
M  V30 9063 O 1276.6 -8.10074 3.01034 0
M  V30 9064 C 1278.87 -7.65514 3.2257 0
M  V30 9065 O 1279.61 -8.4329 2.32297 0
M  V30 9066 C 1278.2 -6.40075 2.62207 0
M  V30 9067 O 1279 -5.92589 1.53712 0
M  V30 9068 C 1276.87 -6.9454 2.18503 0
M  V30 9069 H 1276.9 -7.23063 1.12091 0
M  V30 9070 H 1278.08 -5.6025 3.37201 0
M  V30 9071 H 1279.56 -7.35707 4.02681 0
M  V30 9072 H 1277.87 -9.40912 3.9095 0
M  V30 9073 H 1277.68 -8.29056 5.99158 0
M  V30 9074 H 1276.05 -8.10073 5.25882 0
M  V30 9075 H 1278.69 -6.30324 0.726794 0
M  V30 9076 P 1280.55 -8.4349 2.47671 0
M  V30 9077 O 1281.97 -8.94167 2.5964 0
M  V30 9078 O 1280.19 -7.1704 3.19006 0
M  V30 9079 O 1280.22 -8.16596 0.923387 0
M  V30 9080 C 1280.06 -9.38437 0.108857 0
M  V30 9081 C 1280.6 -9.08175 -1.28353 0
M  V30 9082 O 1279.55 -8.44229 -1.84713 0
M  V30 9083 C 1281.82 -8.18386 -1.42505 0
M  V30 9084 O 1282.56 -8.3501 -2.60497 0
M  V30 9085 C 1281.15 -6.80225 -1.25468 0
M  V30 9086 O 1281.95 -5.81621 -1.91066 0
M  V30 9087 C 1279.82 -7.02416 -1.9168 0
M  V30 9088 H 1279.85 -6.6888 -2.96621 0
M  V30 9089 H 1281.03 -6.53617 -0.192223 0
M  V30 9090 H 1282.52 -8.36622 -0.589963 0
M  V30 9091 H 1280.82 -10.0291 -1.79807 0
M  V30 9092 H 1280.63 -10.2138 0.558219 0
M  V30 9093 H 1279 -9.6579 0.0444202 0
M  V30 9094 H 1281.64 -5.69556 -2.79637 0
M  V30 9095 P 1283.5 -8.4349 -2.47671 0
M  V30 9096 O 1284.92 -8.92593 -2.65 0
M  V30 9097 O 1283.14 -7.7568 -1.19296 0
M  V30 9098 O 1283.17 -7.36886 -3.63805 0
M  V30 9099 C 1283.01 -7.95349 -4.982 0
M  V30 9100 C 1283.55 -6.94612 -5.98974 0
M  V30 9101 O 1282.5 -6.10347 -6.11815 0
M  V30 9102 C 1284.77 -6.11426 -5.62335 0
M  V30 9103 O 1285.51 -5.6162 -6.70584 0
M  V30 9104 C 1284.1 -5.04409 -4.73308 0
M  V30 9105 O 1284.9 -3.85992 -4.75183 0
M  V30 9106 C 1282.77 -4.8728 -5.41006 0
M  V30 9107 H 1282.8 -4.02333 -6.11157 0
M  V30 9108 H 1283.98 -5.39466 -3.69543 0
M  V30 9109 H 1285.47 -6.71916 -5.01943 0
M  V30 9110 H 1283.77 -7.4649 -6.93477 0
M  V30 9111 H 1283.58 -8.89416 -5.05237 0
M  V30 9112 H 1281.95 -8.14876 -5.18409 0
M  V30 9113 H 1284.59 -3.27957 -5.4317 0
M  V30 9114 P 1286.45 -5.75688 -6.64379 0
M  V30 9115 O 1287.87 -6.07627 -7.05504 0
M  V30 9116 O 1286.09 -5.88047 -5.19722 0
M  V30 9117 O 1286.13 -4.2322 -7.04443 0
M  V30 9118 C 1285.97 -3.99743 -8.4911 0
M  V30 9119 C 1286.51 -2.60516 -8.79425 0
M  V30 9120 O 1285.45 -1.82684 -8.4467 0
M  V30 9121 C 1287.72 -2.10343 -8.03628 0
M  V30 9122 O 1288.46 -1.09919 -8.67766 0
M  V30 9123 C 1287.05 -1.68446 -6.70876 0
M  V30 9124 O 1287.85 -0.678137 -6.08433 0
M  V30 9125 C 1285.72 -1.17436 -7.18567 0
M  V30 9126 H 1285.75 -0.0804732 -7.31656 0
M  V30 9127 H 1286.93 -2.54037 -6.02537 0
M  V30 9128 H 1288.42 -2.93881 -7.85526 0
M  V30 9129 H 1286.72 -2.53065 -9.86973 0
M  V30 9130 H 1286.53 -4.75072 -9.05887 0
M  V30 9131 H 1284.9 -4.05244 -8.76668 0
M  V30 9132 H 1287.54 0.177647 -6.34251 0
M  V30 9133 P 1289.4 -1.25109 -8.70152 0
M  V30 9134 O 1290.82 -1.29744 -9.22016 0
M  V30 9135 O 1289.04 -2.13714 -7.55141 0
M  V30 9136 O 1289.08 0.248149 -8.21425 0
M  V30 9137 C 1288.92 1.22779 -9.30434 0
M  V30 9138 C 1289.46 2.56293 -8.80664 0
M  V30 9139 O 1288.4 3.02979 -8.09349 0
M  V30 9140 C 1290.67 2.57523 -7.89775 0
M  V30 9141 O 1291.41 3.7668 -7.89438 0
M  V30 9142 C 1290.01 2.20997 -6.55446 0
M  V30 9143 O 1290.8 2.71895 -5.48509 0
M  V30 9144 C 1288.67 2.89693 -6.67988 0
M  V30 9145 H 1288.7 3.88793 -6.19859 0
M  V30 9146 H 1289.88 1.12046 -6.44229 0
M  V30 9147 H 1291.37 1.7746 -8.19711 0
M  V30 9148 H 1289.67 3.20706 -9.67112 0
M  V30 9149 H 1289.48 0.901032 -10.1892 0
M  V30 9150 H 1287.85 1.33049 -9.56592 0
M  V30 9151 H 1290.49 3.57847 -5.23962 0
M  V30 9152 P 1292.35 3.65191 -7.99657 0
M  V30 9153 O 1293.77 3.89332 -8.45794 0
M  V30 9154 O 1291.99 2.28472 -7.50807 0
M  V30 9155 O 1292.03 4.64972 -6.77611 0
M  V30 9156 C 1291.87 6.06319 -7.16352 0
M  V30 9157 C 1292.41 6.91731 -6.02299 0
M  V30 9158 O 1291.35 6.92449 -5.17064 0
M  V30 9159 C 1293.62 6.43627 -5.25174 0
M  V30 9160 O 1294.36 7.43686 -4.60469 0
M  V30 9161 C 1292.96 5.40275 -4.31916 0
M  V30 9162 O 1293.75 5.25279 -3.14438 0
M  V30 9163 C 1291.62 6.04847 -4.05327 0
M  V30 9164 H 1291.65 6.62195 -3.11261 0
M  V30 9165 H 1292.83 4.42556 -4.81383 0
M  V30 9166 H 1294.32 5.92458 -5.93643 0
M  V30 9167 H 1292.62 7.92655 -6.402 0
M  V30 9168 H 1292.43 6.26671 -8.0846 0
M  V30 9169 H 1290.8 6.29101 -7.32804 0
M  V30 9170 H 1293.44 5.84315 -2.47318 0
M  V30 9171 P 1295.3 7.39546 -4.75277 0
M  V30 9172 O 1296.72 7.84798 -5.01039 0
M  V30 9173 O 1294.94 5.9812 -5.08098 0
M  V30 9174 O 1294.98 7.57503 -3.1866 0
M  V30 9175 C 1294.82 8.97357 -2.74833 0
M  V30 9176 C 1295.36 9.07548 -1.32709 0
M  V30 9177 O 1294.3 8.62072 -0.606159 0
M  V30 9178 C 1296.58 8.25383 -0.938334 0
M  V30 9179 O 1297.31 8.74577 0.146954 0
M  V30 9180 C 1295.91 6.8802 -0.712559 0
M  V30 9181 O 1296.71 6.1189 0.194655 0
M  V30 9182 C 1294.57 7.27966 -0.139777 0
M  V30 9183 H 1294.6 7.25354 0.961601 0
M  V30 9184 H 1295.78 6.32557 -1.65702 0
M  V30 9185 H 1297.27 8.19355 -1.79097 0
M  V30 9186 H 1295.57 10.1294 -1.10029 0
M  V30 9187 H 1295.38 9.64276 -3.41316 0
M  V30 9188 H 1293.75 9.25417 -2.76357 0
M  V30 9189 H 1296.39 6.25267 1.07847 0
M  V30 9190 P 1298.25 8.791 1.06576e-11 0
M  V30 9191 O 1299.67 9.31096 0.027933 0
M  V30 9192 O 1297.89 7.77869 -1.04071 0
M  V30 9193 O 1297.93 8.09533 1.41463 0
M  V30 9194 C 1297.77 9.0349 2.53943 0
M  V30 9195 C 1298.31 8.35226 3.79016 0
M  V30 9196 O 1297.25 7.57992 4.15078 0
M  V30 9197 C 1299.53 7.45087 3.67298 0
M  V30 9198 O 1300.26 7.27796 4.85194 0
M  V30 9199 C 1298.86 6.17323 3.12027 0
M  V30 9200 O 1299.66 5.04231 3.47188 0
M  V30 9201 C 1297.52 6.19961 3.81809 0
M  V30 9202 H 1297.55 5.58218 4.73051 0
M  V30 9203 H 1298.73 6.21726 2.02589 0
M  V30 9204 H 1300.22 7.86112 2.9231 0
M  V30 9205 H 1298.52 9.11627 4.55076 0
M  V30 9206 H 1298.33 9.9573 2.34194 0
M  V30 9207 H 1296.7 9.2792 2.67832 0
M  V30 9208 H 1299.34 4.67702 4.28772 0
M  V30 9209 P 1301.2 7.39546 4.75277 0
M  V30 9210 O 1302.62 7.81777 5.05738 0
M  V30 9211 O 1300.84 7.1065 3.32998 0
M  V30 9212 O 1300.88 6.04542 5.56673 0
M  V30 9213 C 1300.72 6.22772 7.02095 0
M  V30 9214 C 1301.26 4.97725 7.70406 0
M  V30 9215 O 1300.2 4.13256 7.58987 0
M  V30 9216 C 1302.48 4.28231 7.11815 0
M  V30 9217 O 1303.21 3.49945 8.01648 0
M  V30 9218 C 1301.81 3.5063 5.96244 0
M  V30 9219 O 1302.61 2.36482 5.64681 0
M  V30 9220 C 1300.47 3.15122 6.56374 0
M  V30 9221 H 1300.5 2.13853 6.99751 0
M  V30 9222 H 1301.69 4.13501 5.06559 0
M  V30 9223 H 1303.17 5.03285 6.70911 0
M  V30 9224 H 1301.48 5.20877 8.75697 0
M  V30 9225 H 1301.29 7.11046 7.35349 0
M  V30 9226 H 1299.66 6.35815 7.26986 0
M  V30 9227 H 1302.29 1.61644 6.13565 0
M  V30 9228 P 1304.15 3.65191 7.99657 0
M  V30 9229 O 1305.57 3.8425 8.48115 0
M  V30 9230 O 1303.79 4.17805 6.64342 0
M  V30 9231 O 1303.83 2.07613 7.95143 0
M  V30 9232 C 1303.67 1.44328 9.27336 0
M  V30 9233 C 1304.21 0.0220036 9.17197 0
M  V30 9234 O 1303.15 -0.626867 8.61923 0
M  V30 9235 C 1305.43 -0.24586 8.30336 0
M  V30 9236 O 1306.16 -1.39011 8.63583 0
M  V30 9237 C 1304.76 -0.273849 6.91158 0
M  V30 9238 O 1305.56 -1.06348 6.02892 0
M  V30 9239 C 1303.42 -0.897649 7.22545 0
M  V30 9240 H 1303.45 -1.9841 7.04286 0
M  V30 9241 H 1304.64 0.739928 6.497 0
M  V30 9242 H 1306.12 0.60668 8.36503 0
M  V30 9243 H 1304.43 -0.352479 10.1829 0
M  V30 9244 H 1304.24 2.00611 10.0304 0
M  V30 9245 H 1302.61 1.41843 9.55327 0
M  V30 9246 H 1305.24 -1.95734 6.03555 0
M  V30 9247 P 1307.1 -1.25109 8.70152 0
M  V30 9248 O 1308.52 -1.35274 9.21221 0
M  V30 9249 O 1306.74 -0.0769065 7.84762 0
M  V30 9250 O 1306.78 -2.55232 7.81161 0
M  V30 9251 C 1306.62 -3.79939 8.58154 0
M  V30 9252 C 1307.16 -4.94023 7.72785 0
M  V30 9253 O 1306.1 -5.18726 6.91205 0
M  V30 9254 C 1308.38 -4.69597 6.85231 0
M  V30 9255 O 1309.12 -5.83832 6.51337 0
M  V30 9256 C 1307.71 -3.96706 5.66633 0
M  V30 9257 O 1308.51 -4.15414 4.49689 0
M  V30 9258 C 1306.37 -4.66153 5.59313 0
M  V30 9259 H 1306.4 -5.47679 4.85214 0
M  V30 9260 H 1307.59 -2.89008 5.86566 0
M  V30 9261 H 1309.07 -4.0121 7.36511 0
M  V30 9262 H 1307.38 -5.80182 8.37584 0
M  V30 9263 H 1307.19 -3.73517 9.52265 0
M  V30 9264 H 1305.56 -3.97163 8.80359 0
M  V30 9265 H 1308.2 -4.90969 4.01921 0
M  V30 9266 P 1310.05 -5.75688 6.64379 0
M  V30 9267 O 1311.45 -6.11991 7.09136 0
M  V30 9268 O 1309.68 -4.30899 6.62018 0
M  V30 9269 O 1309.73 -6.36965 5.19102 0
M  V30 9270 C 1309.57 -7.83578 5.16515 0
M  V30 9271 C 1310.11 -8.33307 3.82977 0
M  V30 9272 O 1309.05 -8.0998 3.00999 0
M  V30 9273 C 1311.33 -7.65514 3.2257 0
M  V30 9274 O 1312.07 -8.4329 2.32297 0
M  V30 9275 C 1310.66 -6.40075 2.62207 0
M  V30 9276 O 1311.46 -5.92492 1.53687 0
M  V30 9277 C 1309.32 -6.9454 2.18503 0
M  V30 9278 N 1308.28 -5.95905 2.39948 0
M  V30 9279 C 1307.24 -5.89764 1.49837 0
M  V30 9280 O 1307.28 -6.64088 0.490975 0
M  V30 9281 N 1306.23 -5.02821 1.70992 0
M  V30 9282 C 1306.28 -4.21498 2.77236 0
M  V30 9283 C 1307.38 -4.23389 3.68205 0
M  V30 9284 C 1308.34 -5.12792 3.46171 0
M  V30 9285 H 1309.35 -7.22964 1.12076 0
M  V30 9286 H 1310.54 -5.60502 3.36589 0
M  V30 9287 H 1312.02 -7.36197 4.01993 0
M  V30 9288 H 1310.33 -9.41302 3.90009 0
M  V30 9289 H 1310.14 -8.29056 5.99158 0
M  V30 9290 H 1308.51 -8.09989 5.25828 0
M  V30 9291 H 1307.42 -3.54747 4.52399 0
M  V30 9292 H 1309.19 -5.18551 4.1489 0
M  V30 9293 H 1311.24 -6.40705 0.751752 0
M  V30 9294 P 1313 -8.4349 2.47671 0
M  V30 9295 O 1314.43 -8.94167 2.5964 0
M  V30 9296 O 1312.64 -7.1704 3.19006 0
M  V30 9297 O 1312.68 -8.16596 0.923387 0
M  V30 9298 C 1312.52 -9.38437 0.108857 0
M  V30 9299 C 1313.06 -9.08175 -1.28353 0
M  V30 9300 O 1312 -8.44229 -1.84713 0
M  V30 9301 C 1314.28 -8.18386 -1.42505 0
M  V30 9302 O 1315.02 -8.3501 -2.60497 0
M  V30 9303 C 1313.61 -6.80225 -1.25468 0
M  V30 9304 O 1314.41 -5.81621 -1.91066 0
M  V30 9305 C 1312.27 -7.02416 -1.9168 0
M  V30 9306 H 1312.3 -6.6888 -2.96621 0
M  V30 9307 H 1313.49 -6.53617 -0.192223 0
M  V30 9308 H 1314.97 -8.36622 -0.589963 0
M  V30 9309 H 1313.28 -10.0291 -1.79807 0
M  V30 9310 H 1313.09 -10.2138 0.558219 0
M  V30 9311 H 1311.46 -9.6579 0.0444202 0
M  V30 9312 H 1314.1 -5.69556 -2.79637 0
M  V30 9313 P 1315.95 -8.4349 -2.47671 0
M  V30 9314 O 1317.38 -8.92593 -2.65 0
M  V30 9315 O 1315.59 -7.7568 -1.19296 0
M  V30 9316 O 1315.63 -7.36886 -3.63805 0
M  V30 9317 C 1315.47 -7.95349 -4.982 0
M  V30 9318 C 1316.01 -6.94612 -5.98974 0
M  V30 9319 O 1314.96 -6.10347 -6.11815 0
M  V30 9320 C 1317.23 -6.11426 -5.62335 0
M  V30 9321 O 1317.97 -5.6162 -6.70584 0
M  V30 9322 C 1316.56 -5.04409 -4.73308 0
M  V30 9323 O 1317.36 -3.85992 -4.75183 0
M  V30 9324 C 1315.22 -4.8728 -5.41006 0
M  V30 9325 H 1315.26 -4.02333 -6.11157 0
M  V30 9326 H 1316.44 -5.39466 -3.69543 0
M  V30 9327 H 1317.92 -6.71916 -5.01943 0
M  V30 9328 H 1316.23 -7.4649 -6.93477 0
M  V30 9329 H 1316.04 -8.89416 -5.05237 0
M  V30 9330 H 1314.41 -8.14876 -5.18409 0
M  V30 9331 H 1317.05 -3.27957 -5.4317 0
M  V30 9332 P 1318.9 -5.75688 -6.64379 0
M  V30 9333 O 1320.33 -6.07627 -7.05504 0
M  V30 9334 O 1318.54 -5.88047 -5.19722 0
M  V30 9335 O 1318.58 -4.2322 -7.04443 0
M  V30 9336 C 1318.42 -3.99743 -8.4911 0
M  V30 9337 C 1318.96 -2.60516 -8.79425 0
M  V30 9338 O 1317.91 -1.82684 -8.4467 0
M  V30 9339 C 1320.18 -2.10343 -8.03628 0
M  V30 9340 O 1320.92 -1.09919 -8.67766 0
M  V30 9341 C 1319.51 -1.68446 -6.70876 0
M  V30 9342 O 1320.31 -0.678137 -6.08433 0
M  V30 9343 C 1318.17 -1.17436 -7.18567 0
M  V30 9344 H 1318.21 -0.0804732 -7.31656 0
M  V30 9345 H 1319.39 -2.54037 -6.02537 0
M  V30 9346 H 1320.87 -2.93881 -7.85526 0
M  V30 9347 H 1319.18 -2.53065 -9.86973 0
M  V30 9348 H 1318.99 -4.75072 -9.05887 0
M  V30 9349 H 1317.36 -4.05244 -8.76668 0
M  V30 9350 H 1320 0.177647 -6.34251 0
M  V30 9351 P 1321.86 -1.25109 -8.70152 0
M  V30 9352 O 1323.28 -1.29744 -9.22016 0
M  V30 9353 O 1321.5 -2.13714 -7.55141 0
M  V30 9354 O 1321.53 0.248149 -8.21425 0
M  V30 9355 C 1321.37 1.22779 -9.30434 0
M  V30 9356 C 1321.91 2.56293 -8.80664 0
M  V30 9357 O 1320.86 3.02979 -8.09349 0
M  V30 9358 C 1323.13 2.57523 -7.89775 0
M  V30 9359 O 1323.87 3.7668 -7.89438 0
M  V30 9360 C 1322.46 2.20997 -6.55446 0
M  V30 9361 O 1323.26 2.71895 -5.48509 0
M  V30 9362 C 1321.12 2.89693 -6.67988 0
M  V30 9363 H 1321.16 3.88793 -6.19859 0
M  V30 9364 H 1322.34 1.12046 -6.44229 0
M  V30 9365 H 1323.82 1.7746 -8.19711 0
M  V30 9366 H 1322.13 3.20706 -9.67112 0
M  V30 9367 H 1321.94 0.901032 -10.1892 0
M  V30 9368 H 1320.31 1.33049 -9.56592 0
M  V30 9369 H 1322.95 3.57847 -5.23962 0
M  V30 9370 P 1324.81 3.65191 -7.99657 0
M  V30 9371 O 1326.23 3.89374 -8.45885 0
M  V30 9372 O 1324.45 2.28472 -7.50807 0
M  V30 9373 O 1324.48 4.64972 -6.77611 0
M  V30 9374 C 1324.32 6.06383 -7.16428 0
M  V30 9375 C 1324.86 6.91731 -6.02299 0
M  V30 9376 O 1323.81 6.92369 -5.17005 0
M  V30 9377 C 1326.08 6.43627 -5.25174 0
M  V30 9378 O 1326.82 7.43686 -4.60469 0
M  V30 9379 C 1325.41 5.40275 -4.31916 0
M  V30 9380 O 1326.21 5.24878 -3.14911 0
M  V30 9381 C 1324.07 6.04847 -4.05327 0
M  V30 9382 N 1323.03 5.04166 -3.98114 0
M  V30 9383 C 1323.2 3.84629 -4.59066 0
M  V30 9384 N 1322.17 3.0363 -4.45343 0
M  V30 9385 C 1321.29 3.76722 -3.68523 0
M  V30 9386 C 1320.02 3.43528 -3.17088 0
M  V30 9387 N 1319.42 2.23665 -3.37397 0
M  V30 9388 N 1319.46 4.44526 -2.44231 0
M  V30 9389 C 1320.06 5.65243 -2.20146 0
M  V30 9390 N 1321.24 6.00221 -2.65453 0
M  V30 9391 C 1321.81 5.00564 -3.39083 0
M  V30 9392 H 1324.11 6.62104 -3.11218 0
M  V30 9393 H 1325.29 4.42969 -4.80867 0
M  V30 9394 H 1326.77 5.92458 -5.93643 0
M  V30 9395 H 1325.08 7.93295 -6.39407 0
M  V30 9396 H 1324.89 6.26671 -8.0846 0
M  V30 9397 H 1323.26 6.29101 -7.32804 0
M  V30 9398 H 1319.52 6.36894 -1.5883 0
M  V30 9399 H 1324.1 3.58193 -5.14248 0
M  V30 9400 H 1318.49 2.05145 -2.97047 0
M  V30 9401 H 1319.9 1.51255 -3.92998 0
M  V30 9402 H 1325.9 5.84223 -2.47279 0
M  V30 9403 P 1327.76 7.39546 -4.75277 0
M  V30 9404 O 1329.18 7.84798 -5.01039 0
M  V30 9405 O 1327.4 5.9812 -5.08098 0
M  V30 9406 O 1327.43 7.57503 -3.1866 0
M  V30 9407 C 1327.27 8.97357 -2.74833 0
M  V30 9408 C 1327.81 9.07548 -1.32709 0
M  V30 9409 O 1326.76 8.62072 -0.606159 0
M  V30 9410 C 1329.03 8.25383 -0.938334 0
M  V30 9411 O 1329.77 8.74577 0.146954 0
M  V30 9412 C 1328.36 6.8802 -0.712559 0
M  V30 9413 O 1329.16 6.1189 0.194655 0
M  V30 9414 C 1327.03 7.27966 -0.139777 0
M  V30 9415 H 1327.06 7.25354 0.961601 0
M  V30 9416 H 1328.24 6.32557 -1.65702 0
M  V30 9417 H 1329.72 8.19355 -1.79097 0
M  V30 9418 H 1328.03 10.1294 -1.10029 0
M  V30 9419 H 1327.84 9.64276 -3.41316 0
M  V30 9420 H 1326.21 9.25417 -2.76357 0
M  V30 9421 H 1328.85 6.25267 1.07847 0
M  V30 9422 P 1330.71 8.791 1.0718e-11 0
M  V30 9423 O 1332.13 9.31096 0.027933 0
M  V30 9424 O 1330.35 7.77869 -1.04071 0
M  V30 9425 O 1330.38 8.09533 1.41463 0
M  V30 9426 C 1330.22 9.0349 2.53943 0
M  V30 9427 C 1330.76 8.35226 3.79016 0
M  V30 9428 O 1329.71 7.57992 4.15078 0
M  V30 9429 C 1331.98 7.45087 3.67298 0
M  V30 9430 O 1332.72 7.27796 4.85194 0
M  V30 9431 C 1331.31 6.17323 3.12027 0
M  V30 9432 O 1332.11 5.04231 3.47188 0
M  V30 9433 C 1329.98 6.19961 3.81809 0
M  V30 9434 H 1330.01 5.58218 4.73051 0
M  V30 9435 H 1331.19 6.21726 2.02589 0
M  V30 9436 H 1332.68 7.86112 2.9231 0
M  V30 9437 H 1330.98 9.11627 4.55076 0
M  V30 9438 H 1330.79 9.9573 2.34194 0
M  V30 9439 H 1329.16 9.2792 2.67832 0
M  V30 9440 H 1331.8 4.67702 4.28772 0
M  V30 9441 P 1333.66 7.39546 4.75277 0
M  V30 9442 O 1335.08 7.81777 5.05738 0
M  V30 9443 O 1333.3 7.1065 3.32998 0
M  V30 9444 O 1333.33 6.04542 5.56673 0
M  V30 9445 C 1333.17 6.22772 7.02095 0
M  V30 9446 C 1333.71 4.97725 7.70406 0
M  V30 9447 O 1332.66 4.13256 7.58987 0
M  V30 9448 C 1334.93 4.28231 7.11815 0
M  V30 9449 O 1335.67 3.49945 8.01648 0
M  V30 9450 C 1334.26 3.5063 5.96244 0
M  V30 9451 O 1335.06 2.36482 5.64681 0
M  V30 9452 C 1332.93 3.15122 6.56374 0
M  V30 9453 H 1332.96 2.13853 6.99751 0
M  V30 9454 H 1334.14 4.13501 5.06559 0
M  V30 9455 H 1335.63 5.03285 6.70911 0
M  V30 9456 H 1333.93 5.20877 8.75697 0
M  V30 9457 H 1333.74 7.11046 7.35349 0
M  V30 9458 H 1332.11 6.35815 7.26986 0
M  V30 9459 H 1334.75 1.61644 6.13565 0
M  V30 9460 P 1336.61 3.65191 7.99657 0
M  V30 9461 O 1338.01 3.90823 8.51272 0
M  V30 9462 O 1336.23 4.23191 6.66972 0
M  V30 9463 O 1336.29 2.07587 7.95046 0
M  V30 9464 C 1336.13 1.44328 9.27336 0
M  V30 9465 C 1336.67 0.0220012 9.17097 0
M  V30 9466 O 1335.61 -0.626794 8.61824 0
M  V30 9467 C 1337.88 -0.24586 8.30336 0
M  V30 9468 O 1338.62 -1.39011 8.63583 0
M  V30 9469 C 1337.22 -0.273849 6.91158 0
M  V30 9470 O 1338.01 -1.06331 6.02794 0
M  V30 9471 C 1335.88 -0.897649 7.22545 0
M  V30 9472 N 1334.83 -0.292839 6.41732 0
M  V30 9473 C 1333.8 -1.08701 5.98712 0
M  V30 9474 O 1333.84 -2.31211 6.24471 0
M  V30 9475 N 1332.79 -0.533391 5.28415 0
M  V30 9476 C 1332.84 0.770866 4.98576 0
M  V30 9477 C 1333.93 1.59049 5.38086 0
M  V30 9478 C 1334.9 1.01866 6.10256 0
M  V30 9479 H 1335.91 -1.98383 7.04189 0
M  V30 9480 H 1337.09 0.733318 6.49674 0
M  V30 9481 H 1338.58 0.598386 8.36663 0
M  V30 9482 H 1336.88 -0.362662 10.1825 0
M  V30 9483 H 1336.69 2.00611 10.0304 0
M  V30 9484 H 1335.06 1.41828 9.55228 0
M  V30 9485 H 1333.98 2.6415 5.10622 0
M  V30 9486 H 1335.74 1.61983 6.44042 0
M  V30 9487 H 1337.8 -1.97777 6.14035 0
M  V30 9488 P 1339.56 -1.25109 8.70152 0
M  V30 9489 O 1340.96 -1.31452 9.27431 0
M  V30 9490 O 1339.18 -0.0458113 7.89887 0
M  V30 9491 O 1339.24 -2.55201 7.81066 0
M  V30 9492 C 1339.08 -3.79939 8.58154 0
M  V30 9493 C 1339.62 -4.93969 7.72701 0
M  V30 9494 O 1338.56 -5.18666 6.91125 0
M  V30 9495 C 1340.83 -4.69597 6.85231 0
M  V30 9496 O 1341.57 -5.83832 6.51337 0
M  V30 9497 C 1340.17 -3.96706 5.66633 0
M  V30 9498 O 1340.96 -4.15346 4.49615 0
M  V30 9499 C 1338.83 -4.66153 5.59313 0
M  V30 9500 N 1337.78 -3.71582 5.24027 0
M  V30 9501 C 1336.75 -4.15133 4.44901 0
M  V30 9502 O 1336.79 -5.32122 4.00336 0
M  V30 9503 N 1335.74 -3.30554 4.15693 0
M  V30 9504 C 1335.79 -2.04701 4.61105 0
M  V30 9505 C 1336.88 -1.57111 5.38655 0
M  V30 9506 C 1337.85 -2.44234 5.68454 0
M  V30 9507 H 1338.86 -5.47604 4.85148 0
M  V30 9508 H 1340.04 -2.8955 5.86187 0
M  V30 9509 H 1341.53 -4.01995 7.36197 0
M  V30 9510 H 1339.83 -5.81019 8.37003 0
M  V30 9511 H 1339.64 -3.73517 9.52265 0
M  V30 9512 H 1338.01 -3.97122 8.80267 0
M  V30 9513 H 1336.93 -0.538464 5.72373 0
M  V30 9514 H 1338.69 -2.11927 6.29377 0
M  V30 9515 H 1340.75 -4.98352 4.09633 0
M  V30 9516 P 1342.51 -5.75688 6.64379 0
M  V30 9517 O 1343.93 -6.11849 7.01846 0
M  V30 9518 O 1342.15 -4.30744 6.56026 0
M  V30 9519 O 1342.19 -6.37042 5.19165 0
M  V30 9520 C 1342.03 -7.83578 5.16515 0
M  V30 9521 C 1342.57 -8.33398 3.83019 0
M  V30 9522 O 1341.51 -8.10074 3.01034 0
M  V30 9523 C 1343.78 -7.65514 3.2257 0
M  V30 9524 O 1344.52 -8.4329 2.32297 0
M  V30 9525 C 1343.12 -6.40075 2.62207 0
M  V30 9526 O 1343.91 -5.92589 1.53712 0
M  V30 9527 C 1341.78 -6.9454 2.18503 0
M  V30 9528 H 1341.81 -7.23063 1.12091 0
M  V30 9529 H 1342.99 -5.6025 3.37201 0
M  V30 9530 H 1344.48 -7.35707 4.02681 0
M  V30 9531 H 1342.78 -9.40912 3.9095 0
M  V30 9532 H 1342.59 -8.29056 5.99158 0
M  V30 9533 H 1340.96 -8.10073 5.25882 0
M  V30 9534 H 1343.6 -6.30324 0.726794 0
M  V30 9535 P 1345.46 -8.4349 2.47671 0
M  V30 9536 O 1346.88 -8.94167 2.5964 0
M  V30 9537 O 1345.1 -7.1704 3.19006 0
M  V30 9538 O 1345.14 -8.16596 0.923387 0
M  V30 9539 C 1344.98 -9.38437 0.108857 0
M  V30 9540 C 1345.52 -9.08175 -1.28353 0
M  V30 9541 O 1344.46 -8.44229 -1.84713 0
M  V30 9542 C 1346.73 -8.18386 -1.42505 0
M  V30 9543 O 1347.47 -8.3501 -2.60497 0
M  V30 9544 C 1346.07 -6.80225 -1.25468 0
M  V30 9545 O 1346.86 -5.81621 -1.91066 0
M  V30 9546 C 1344.73 -7.02416 -1.9168 0
M  V30 9547 H 1344.76 -6.6888 -2.96621 0
M  V30 9548 H 1345.94 -6.53617 -0.192223 0
M  V30 9549 H 1347.43 -8.36622 -0.589963 0
M  V30 9550 H 1345.73 -10.0291 -1.79807 0
M  V30 9551 H 1345.54 -10.2138 0.558219 0
M  V30 9552 H 1343.91 -9.6579 0.0444202 0
M  V30 9553 H 1346.55 -5.69556 -2.79637 0
M  V30 9554 P 1348.41 -8.4349 -2.47671 0
M  V30 9555 O 1349.81 -8.99283 -2.62101 0
M  V30 9556 O 1348.03 -7.81195 -1.16947 0
M  V30 9557 O 1348.09 -7.36797 -3.63761 0
M  V30 9558 C 1347.93 -7.95349 -4.982 0
M  V30 9559 C 1348.47 -6.94537 -5.98908 0
M  V30 9560 O 1347.41 -6.10277 -6.11744 0
M  V30 9561 C 1349.68 -6.11426 -5.62335 0
M  V30 9562 O 1350.42 -5.6162 -6.70584 0
M  V30 9563 C 1349.02 -5.04409 -4.73308 0
M  V30 9564 O 1349.82 -3.85929 -4.75106 0
M  V30 9565 C 1347.68 -4.8728 -5.41006 0
M  V30 9566 N 1346.64 -4.65812 -4.42377 0
M  V30 9567 C 1345.6 -3.81293 -4.74224 0
M  V30 9568 O 1345.64 -3.20533 -5.83679 0
M  V30 9569 N 1344.59 -3.6442 -3.86349 0
M  V30 9570 C 1344.64 -4.2728 -2.6824 0
M  V30 9571 N 1343.63 -4.09866 -1.83822 0
M  V30 9572 C 1345.73 -5.10813 -2.3217 0
M  V30 9573 C 1346.7 -5.27909 -3.22647 0
M  V30 9574 H 1347.71 -4.02278 -6.11074 0
M  V30 9575 H 1348.89 -5.39013 -3.70026 0
M  V30 9576 H 1350.38 -6.71494 -5.02675 0
M  V30 9577 H 1348.68 -7.45796 -6.94223 0
M  V30 9578 H 1348.49 -8.89416 -5.05237 0
M  V30 9579 H 1346.86 -8.14791 -5.18355 0
M  V30 9580 H 1345.78 -5.58884 -1.34755 0
M  V30 9581 H 1347.55 -5.92811 -2.9934 0
M  V30 9582 H 1342.84 -3.49095 -2.10018 0
M  V30 9583 H 1343.63 -4.56846 -0.924167 0
M  V30 9584 H 1349.6 -3.3454 -5.51577 0
M  V30 9585 P 1351.36 -5.75688 -6.64379 0
M  V30 9586 O 1352.78 -6.07627 -7.05504 0
M  V30 9587 O 1351 -5.88047 -5.19722 0
M  V30 9588 O 1351.04 -4.2322 -7.04443 0
M  V30 9589 C 1350.88 -3.99743 -8.4911 0
M  V30 9590 C 1351.42 -2.60516 -8.79425 0
M  V30 9591 O 1350.36 -1.82684 -8.4467 0
M  V30 9592 C 1352.64 -2.10343 -8.03628 0
M  V30 9593 O 1353.37 -1.09919 -8.67766 0
M  V30 9594 C 1351.97 -1.68446 -6.70876 0
M  V30 9595 O 1352.77 -0.678137 -6.08433 0
M  V30 9596 C 1350.63 -1.17436 -7.18567 0
M  V30 9597 H 1350.66 -0.0804732 -7.31656 0
M  V30 9598 H 1351.85 -2.54037 -6.02537 0
M  V30 9599 H 1353.33 -2.93881 -7.85526 0
M  V30 9600 H 1351.64 -2.53065 -9.86973 0
M  V30 9601 H 1351.45 -4.75072 -9.05887 0
M  V30 9602 H 1349.82 -4.05244 -8.76668 0
M  V30 9603 H 1352.45 0.177647 -6.34251 0
M  V30 9604 P 1354.31 -1.25109 -8.70152 0
M  V30 9605 O 1355.73 -1.29744 -9.22016 0
M  V30 9606 O 1353.95 -2.13714 -7.55141 0
M  V30 9607 O 1353.99 0.248149 -8.21425 0
M  V30 9608 C 1353.83 1.22779 -9.30434 0
M  V30 9609 C 1354.37 2.56293 -8.80664 0
M  V30 9610 O 1353.31 3.02979 -8.09349 0
M  V30 9611 C 1355.59 2.57523 -7.89775 0
M  V30 9612 O 1356.32 3.7668 -7.89438 0
M  V30 9613 C 1354.92 2.20997 -6.55446 0
M  V30 9614 O 1355.72 2.71895 -5.48509 0
M  V30 9615 C 1353.58 2.89693 -6.67988 0
M  V30 9616 H 1353.61 3.88793 -6.19859 0
M  V30 9617 H 1354.8 1.12046 -6.44229 0
M  V30 9618 H 1356.28 1.7746 -8.19711 0
M  V30 9619 H 1354.59 3.20706 -9.67112 0
M  V30 9620 H 1354.4 0.901032 -10.1892 0
M  V30 9621 H 1352.77 1.33049 -9.56592 0
M  V30 9622 H 1355.4 3.57847 -5.23962 0
M  V30 9623 P 1357.26 3.65191 -7.99657 0
M  V30 9624 O 1358.68 3.89332 -8.45794 0
M  V30 9625 O 1356.9 2.28472 -7.50807 0
M  V30 9626 O 1356.94 4.64972 -6.77611 0
M  V30 9627 C 1356.78 6.06319 -7.16352 0
M  V30 9628 C 1357.32 6.91731 -6.02299 0
M  V30 9629 O 1356.26 6.92449 -5.17064 0
M  V30 9630 C 1358.54 6.43627 -5.25174 0
M  V30 9631 O 1359.28 7.43686 -4.60469 0
M  V30 9632 C 1357.87 5.40275 -4.31916 0
M  V30 9633 O 1358.67 5.25279 -3.14438 0
M  V30 9634 C 1356.53 6.04847 -4.05327 0
M  V30 9635 H 1356.56 6.62195 -3.11261 0
M  V30 9636 H 1357.75 4.42556 -4.81383 0
M  V30 9637 H 1359.23 5.92458 -5.93643 0
M  V30 9638 H 1357.54 7.92655 -6.402 0
M  V30 9639 H 1357.35 6.26671 -8.0846 0
M  V30 9640 H 1355.72 6.29101 -7.32804 0
M  V30 9641 H 1358.36 5.84315 -2.47318 0
M  V30 9642 P 1360.21 7.39546 -4.75277 0
M  V30 9643 O 1361.63 7.84798 -5.01039 0
M  V30 9644 O 1359.85 5.9812 -5.08098 0
M  V30 9645 O 1359.89 7.57503 -3.1866 0
M  V30 9646 C 1359.73 8.97357 -2.74833 0
M  V30 9647 C 1360.27 9.07548 -1.32709 0
M  V30 9648 O 1359.21 8.62072 -0.606159 0
M  V30 9649 C 1361.49 8.25383 -0.938334 0
M  V30 9650 O 1362.23 8.74577 0.146954 0
M  V30 9651 C 1360.82 6.8802 -0.712559 0
M  V30 9652 O 1361.62 6.1189 0.194655 0
M  V30 9653 C 1359.48 7.27966 -0.139777 0
M  V30 9654 H 1359.51 7.25354 0.961601 0
M  V30 9655 H 1360.7 6.32557 -1.65702 0
M  V30 9656 H 1362.18 8.19355 -1.79097 0
M  V30 9657 H 1360.49 10.1294 -1.10029 0
M  V30 9658 H 1360.3 9.64276 -3.41316 0
M  V30 9659 H 1358.67 9.25417 -2.76357 0
M  V30 9660 H 1361.31 6.25267 1.07847 0
M  V30 9661 P 1363.16 8.791 1.10281e-11 0
M  V30 9662 O 1364.59 9.31296 0.027939 0
M  V30 9663 O 1362.8 7.77869 -1.04071 0
M  V30 9664 O 1362.84 8.09533 1.41463 0
M  V30 9665 C 1362.68 9.0349 2.53943 0
M  V30 9666 C 1363.22 8.35135 3.78975 0
M  V30 9667 O 1362.17 7.57992 4.15078 0
M  V30 9668 C 1364.44 7.45087 3.67298 0
M  V30 9669 O 1365.18 7.27796 4.85194 0
M  V30 9670 C 1363.77 6.17323 3.12027 0
M  V30 9671 O 1364.57 5.04149 3.47132 0
M  V30 9672 C 1362.43 6.19961 3.81809 0
M  V30 9673 N 1361.39 5.71575 2.93223 0
M  V30 9674 C 1361.45 5.97133 1.62693 0
M  V30 9675 N 1360.41 5.44066 0.984414 0
M  V30 9676 C 1359.67 4.87093 1.93987 0
M  V30 9677 C 1358.37 4.26449 1.8738 0
M  V30 9678 O 1357.63 4.1089 0.884377 0
M  V30 9679 N 1357.94 3.82483 3.08036 0
M  V30 9680 C 1358.69 3.95124 4.27727 0
M  V30 9681 N 1358.09 3.4084 5.39089 0
M  V30 9682 N 1359.84 4.55264 4.3706 0
M  V30 9683 C 1360.3 5.00861 3.18217 0
M  V30 9684 H 1362.46 5.58218 4.73051 0
M  V30 9685 H 1363.65 6.21631 2.02558 0
M  V30 9686 H 1365.13 7.85819 2.93096 0
M  V30 9687 H 1363.44 9.11627 4.55076 0
M  V30 9688 H 1363.25 9.9573 2.34194 0
M  V30 9689 H 1361.62 9.2792 2.67832 0
M  V30 9690 H 1357.04 3.38323 3.1329 0
M  V30 9691 H 1362.25 6.53891 1.14265 0
M  V30 9692 H 1357.18 2.93852 5.30559 0
M  V30 9693 H 1358.55 3.47631 6.30632 0
M  V30 9694 H 1364.26 4.67628 4.28704 0
M  V30 9695 P 1366.11 7.39546 4.75277 0
M  V30 9696 O 1367.54 7.81777 5.05738 0
M  V30 9697 O 1365.75 7.1065 3.32998 0
M  V30 9698 O 1365.79 6.04542 5.56673 0
M  V30 9699 C 1365.63 6.22772 7.02095 0
M  V30 9700 C 1366.17 4.97725 7.70406 0
M  V30 9701 O 1365.11 4.13256 7.58987 0
M  V30 9702 C 1367.39 4.28231 7.11815 0
M  V30 9703 O 1368.13 3.49945 8.01648 0
M  V30 9704 C 1366.72 3.5063 5.96244 0
M  V30 9705 O 1367.52 2.36482 5.64681 0
M  V30 9706 C 1365.38 3.15122 6.56374 0
M  V30 9707 H 1365.41 2.13853 6.99751 0
M  V30 9708 H 1366.6 4.13501 5.06559 0
M  V30 9709 H 1368.08 5.03285 6.70911 0
M  V30 9710 H 1366.39 5.20877 8.75697 0
M  V30 9711 H 1366.2 7.11046 7.35349 0
M  V30 9712 H 1364.57 6.35815 7.26986 0
M  V30 9713 H 1367.21 1.61644 6.13565 0
M  V30 9714 P 1369.06 3.65191 7.99657 0
M  V30 9715 O 1370.49 3.8425 8.48115 0
M  V30 9716 O 1368.7 4.17805 6.64342 0
M  V30 9717 O 1368.74 2.07613 7.95143 0
M  V30 9718 C 1368.58 1.44328 9.27336 0
M  V30 9719 C 1369.12 0.0220036 9.17197 0
M  V30 9720 O 1368.07 -0.626867 8.61923 0
M  V30 9721 C 1370.34 -0.24586 8.30336 0
M  V30 9722 O 1371.08 -1.39011 8.63583 0
M  V30 9723 C 1369.67 -0.273849 6.91158 0
M  V30 9724 O 1370.47 -1.06348 6.02892 0
M  V30 9725 C 1368.33 -0.897649 7.22545 0
M  V30 9726 H 1368.37 -1.9841 7.04286 0
M  V30 9727 H 1369.55 0.739928 6.497 0
M  V30 9728 H 1371.03 0.60668 8.36503 0
M  V30 9729 H 1369.34 -0.352479 10.1829 0
M  V30 9730 H 1369.15 2.00611 10.0304 0
M  V30 9731 H 1367.52 1.41843 9.55327 0
M  V30 9732 H 1370.16 -1.95734 6.03555 0
M  V30 9733 P 1372.02 -1.25109 8.70152 0
M  V30 9734 O 1373.44 -1.35274 9.21221 0
M  V30 9735 O 1371.66 -0.0769065 7.84762 0
M  V30 9736 O 1371.69 -2.55232 7.81161 0
M  V30 9737 C 1371.53 -3.79939 8.58154 0
M  V30 9738 C 1372.07 -4.94023 7.72785 0
M  V30 9739 O 1371.02 -5.18726 6.91205 0
M  V30 9740 C 1373.29 -4.69597 6.85231 0
M  V30 9741 O 1374.03 -5.83832 6.51337 0
M  V30 9742 C 1372.62 -3.96706 5.66633 0
M  V30 9743 O 1373.42 -4.15414 4.49689 0
M  V30 9744 C 1371.28 -4.66153 5.59313 0
M  V30 9745 H 1371.32 -5.47679 4.85214 0
M  V30 9746 H 1372.5 -2.89008 5.86566 0
M  V30 9747 H 1373.98 -4.0121 7.36511 0
M  V30 9748 H 1372.29 -5.80182 8.37584 0
M  V30 9749 H 1372.1 -3.73517 9.52265 0
M  V30 9750 H 1370.47 -3.97163 8.80359 0
M  V30 9751 H 1373.11 -4.90969 4.01921 0
M  V30 9752 P 1374.97 -5.75688 6.64379 0
M  V30 9753 O 1376.37 -6.11991 7.09136 0
M  V30 9754 O 1374.59 -4.30899 6.62018 0
M  V30 9755 O 1374.64 -6.36965 5.19102 0
M  V30 9756 C 1374.48 -7.83578 5.16515 0
M  V30 9757 C 1375.02 -8.33307 3.82977 0
M  V30 9758 O 1373.97 -8.0998 3.00999 0
M  V30 9759 C 1376.24 -7.65514 3.2257 0
M  V30 9760 O 1376.98 -8.4329 2.32297 0
M  V30 9761 C 1375.57 -6.40075 2.62207 0
M  V30 9762 O 1376.37 -5.92492 1.53687 0
M  V30 9763 C 1374.23 -6.9454 2.18503 0
M  V30 9764 N 1373.19 -5.95905 2.39948 0
M  V30 9765 C 1372.16 -5.89764 1.49837 0
M  V30 9766 O 1372.2 -6.64088 0.490975 0
M  V30 9767 N 1371.14 -5.02821 1.70992 0
M  V30 9768 C 1371.19 -4.21498 2.77236 0
M  V30 9769 C 1372.29 -4.23389 3.68205 0
M  V30 9770 C 1373.25 -5.12792 3.46171 0
M  V30 9771 H 1374.27 -7.22964 1.12076 0
M  V30 9772 H 1375.45 -5.60502 3.36589 0
M  V30 9773 H 1376.93 -7.36197 4.01993 0
M  V30 9774 H 1375.24 -9.41302 3.90009 0
M  V30 9775 H 1375.05 -8.29056 5.99158 0
M  V30 9776 H 1373.42 -8.09989 5.25828 0
M  V30 9777 H 1372.34 -3.54747 4.52399 0
M  V30 9778 H 1374.1 -5.18551 4.1489 0
M  V30 9779 H 1376.15 -6.40705 0.751752 0
M  V30 9780 P 1377.92 -8.4349 2.47671 0
M  V30 9781 O 1379.34 -8.94167 2.5964 0
M  V30 9782 O 1377.56 -7.1704 3.19006 0
M  V30 9783 O 1377.59 -8.16596 0.923387 0
M  V30 9784 C 1377.43 -9.38437 0.108857 0
M  V30 9785 C 1377.97 -9.08175 -1.28353 0
M  V30 9786 O 1376.92 -8.44229 -1.84713 0
M  V30 9787 C 1379.19 -8.18386 -1.42505 0
M  V30 9788 O 1379.93 -8.3501 -2.60497 0
M  V30 9789 C 1378.52 -6.80225 -1.25468 0
M  V30 9790 O 1379.32 -5.81621 -1.91066 0
M  V30 9791 C 1377.19 -7.02416 -1.9168 0
M  V30 9792 H 1377.22 -6.6888 -2.96621 0
M  V30 9793 H 1378.4 -6.53617 -0.192223 0
M  V30 9794 H 1379.88 -8.36622 -0.589963 0
M  V30 9795 H 1378.19 -10.0291 -1.79807 0
M  V30 9796 H 1378 -10.2138 0.558219 0
M  V30 9797 H 1376.37 -9.6579 0.0444202 0
M  V30 9798 H 1379.01 -5.69556 -2.79637 0
M  V30 9799 P 1380.87 -8.4349 -2.47671 0
M  V30 9800 O 1382.29 -8.92593 -2.65 0
M  V30 9801 O 1380.51 -7.7568 -1.19296 0
M  V30 9802 O 1380.54 -7.36886 -3.63805 0
M  V30 9803 C 1380.38 -7.95349 -4.982 0
M  V30 9804 C 1380.92 -6.94612 -5.98974 0
M  V30 9805 O 1379.87 -6.10347 -6.11815 0
M  V30 9806 C 1382.14 -6.11426 -5.62335 0
M  V30 9807 O 1382.88 -5.6162 -6.70584 0
M  V30 9808 C 1381.47 -5.04409 -4.73308 0
M  V30 9809 O 1382.27 -3.85992 -4.75183 0
M  V30 9810 C 1380.14 -4.8728 -5.41006 0
M  V30 9811 H 1380.17 -4.02333 -6.11157 0
M  V30 9812 H 1381.35 -5.39466 -3.69543 0
M  V30 9813 H 1382.83 -6.71916 -5.01943 0
M  V30 9814 H 1381.14 -7.4649 -6.93477 0
M  V30 9815 H 1380.95 -8.89416 -5.05237 0
M  V30 9816 H 1379.32 -8.14876 -5.18409 0
M  V30 9817 H 1381.96 -3.27957 -5.4317 0
M  V30 9818 P 1383.82 -5.75688 -6.64379 0
M  V30 9819 O 1385.24 -6.07692 -7.0558 0
M  V30 9820 O 1383.46 -5.88047 -5.19722 0
M  V30 9821 O 1383.49 -4.2322 -7.04443 0
M  V30 9822 C 1383.33 -3.99785 -8.49201 0
M  V30 9823 C 1383.87 -2.60516 -8.79425 0
M  V30 9824 O 1382.82 -1.82663 -8.44573 0
M  V30 9825 C 1385.09 -2.10343 -8.03628 0
M  V30 9826 O 1385.83 -1.09919 -8.67766 0
M  V30 9827 C 1384.42 -1.68446 -6.70876 0
M  V30 9828 O 1385.22 -0.684109 -6.08265 0
M  V30 9829 C 1383.09 -1.17436 -7.18567 0
M  V30 9830 N 1382.04 -1.52699 -6.23988 0
M  V30 9831 C 1382.21 -2.578 -5.40574 0
M  V30 9832 N 1381.19 -2.78966 -4.61193 0
M  V30 9833 C 1380.3 -1.78725 -4.95769 0
M  V30 9834 C 1379.03 -1.45727 -4.44207 0
M  V30 9835 N 1378.43 -2.13994 -3.43613 0
M  V30 9836 N 1378.47 -0.374977 -5.05812 0
M  V30 9837 C 1379.07 0.345585 -6.05615 0
M  V30 9838 N 1380.25 0.0787651 -6.56253 0
M  V30 9839 C 1380.82 -1.00499 -5.96189 0
M  V30 9840 H 1383.12 -0.0804622 -7.31556 0
M  V30 9841 H 1384.3 -2.53396 -6.02698 0
M  V30 9842 H 1385.78 -2.93881 -7.85526 0
M  V30 9843 H 1384.09 -2.52078 -9.87225 0
M  V30 9844 H 1383.9 -4.75072 -9.05887 0
M  V30 9845 H 1382.27 -4.05244 -8.76668 0
M  V30 9846 H 1378.53 1.20098 -6.4532 0
M  V30 9847 H 1383.11 -3.18977 -5.3945 0
M  V30 9848 H 1377.5 -1.84983 -3.10004 0
M  V30 9849 H 1378.91 -2.9465 -3.00843 0
M  V30 9850 H 1384.91 0.177619 -6.34151 0
M  V30 9851 P 1386.77 -1.25109 -8.70152 0
M  V30 9852 O 1388.19 -1.29744 -9.22016 0
M  V30 9853 O 1386.41 -2.13714 -7.55141 0
M  V30 9854 O 1386.44 0.248149 -8.21425 0
M  V30 9855 C 1386.28 1.22779 -9.30434 0
M  V30 9856 C 1386.82 2.56293 -8.80664 0
M  V30 9857 O 1385.77 3.02979 -8.09349 0
M  V30 9858 C 1388.04 2.57523 -7.89775 0
M  V30 9859 O 1388.78 3.7668 -7.89438 0
M  V30 9860 C 1387.37 2.20997 -6.55446 0
M  V30 9861 O 1388.17 2.71895 -5.48509 0
M  V30 9862 C 1386.04 2.89693 -6.67988 0
M  V30 9863 H 1386.07 3.88793 -6.19859 0
M  V30 9864 H 1387.25 1.12046 -6.44229 0
M  V30 9865 H 1388.74 1.7746 -8.19711 0
M  V30 9866 H 1387.04 3.20706 -9.67112 0
M  V30 9867 H 1386.85 0.901032 -10.1892 0
M  V30 9868 H 1385.22 1.33049 -9.56592 0
M  V30 9869 H 1387.86 3.57847 -5.23962 0
M  V30 9870 P 1389.72 3.65191 -7.99657 0
M  V30 9871 O 1391.14 3.89332 -8.45794 0
M  V30 9872 O 1389.36 2.28472 -7.50807 0
M  V30 9873 O 1389.4 4.64972 -6.77611 0
M  V30 9874 C 1389.24 6.06319 -7.16352 0
M  V30 9875 C 1389.78 6.91731 -6.02299 0
M  V30 9876 O 1388.72 6.92449 -5.17064 0
M  V30 9877 C 1390.99 6.43627 -5.25174 0
M  V30 9878 O 1391.73 7.43686 -4.60469 0
M  V30 9879 C 1390.32 5.40275 -4.31916 0
M  V30 9880 O 1391.12 5.25279 -3.14438 0
M  V30 9881 C 1388.99 6.04847 -4.05327 0
M  V30 9882 H 1389.02 6.62195 -3.11261 0
M  V30 9883 H 1390.2 4.42556 -4.81383 0
M  V30 9884 H 1391.69 5.92458 -5.93643 0
M  V30 9885 H 1389.99 7.92655 -6.402 0
M  V30 9886 H 1389.8 6.26671 -8.0846 0
M  V30 9887 H 1388.17 6.29101 -7.32804 0
M  V30 9888 H 1390.81 5.84315 -2.47318 0
M  V30 9889 P 1392.67 7.39546 -4.75277 0
M  V30 9890 O 1394.09 7.84798 -5.01039 0
M  V30 9891 O 1392.31 5.9812 -5.08098 0
M  V30 9892 O 1392.35 7.57503 -3.1866 0
M  V30 9893 C 1392.19 8.97357 -2.74833 0
M  V30 9894 C 1392.73 9.07548 -1.32709 0
M  V30 9895 O 1391.67 8.62072 -0.606159 0
M  V30 9896 C 1393.94 8.25383 -0.938334 0
M  V30 9897 O 1394.68 8.74577 0.146954 0
M  V30 9898 C 1393.28 6.8802 -0.712559 0
M  V30 9899 O 1394.07 6.1189 0.194655 0
M  V30 9900 C 1391.94 7.27966 -0.139777 0
M  V30 9901 H 1391.97 7.25354 0.961601 0
M  V30 9902 H 1393.15 6.32557 -1.65702 0
M  V30 9903 H 1394.64 8.19355 -1.79097 0
M  V30 9904 H 1392.94 10.1294 -1.10029 0
M  V30 9905 H 1392.75 9.64276 -3.41316 0
M  V30 9906 H 1391.12 9.25417 -2.76357 0
M  V30 9907 H 1393.76 6.25267 1.07847 0
M  V30 9908 P 1395.62 8.791 1.13383e-11 0
M  V30 9909 O 1397.04 9.31096 0.027933 0
M  V30 9910 O 1395.26 7.77869 -1.04071 0
M  V30 9911 O 1395.3 8.09533 1.41463 0
M  V30 9912 C 1395.14 9.0349 2.53943 0
M  V30 9913 C 1395.68 8.35226 3.79016 0
M  V30 9914 O 1394.62 7.57992 4.15078 0
M  V30 9915 C 1396.89 7.45087 3.67298 0
M  V30 9916 O 1397.63 7.27796 4.85194 0
M  V30 9917 C 1396.23 6.17323 3.12027 0
M  V30 9918 O 1397.02 5.04231 3.47188 0
M  V30 9919 C 1394.89 6.19961 3.81809 0
M  V30 9920 H 1394.92 5.58218 4.73051 0
M  V30 9921 H 1396.1 6.21726 2.02589 0
M  V30 9922 H 1397.59 7.86112 2.9231 0
M  V30 9923 H 1395.89 9.11627 4.55076 0
M  V30 9924 H 1395.7 9.9573 2.34194 0
M  V30 9925 H 1394.07 9.2792 2.67832 0
M  V30 9926 H 1396.71 4.67702 4.28772 0
M  V30 9927 P 1398.57 7.39546 4.75277 0
M  V30 9928 O 1399.99 7.81777 5.05738 0
M  V30 9929 O 1398.21 7.1065 3.32998 0
M  V30 9930 O 1398.25 6.04542 5.56673 0
M  V30 9931 C 1398.09 6.22772 7.02095 0
M  V30 9932 C 1398.63 4.97725 7.70406 0
M  V30 9933 O 1397.57 4.13256 7.58987 0
M  V30 9934 C 1399.85 4.28231 7.11815 0
M  V30 9935 O 1400.58 3.49945 8.01648 0
M  V30 9936 C 1399.18 3.5063 5.96244 0
M  V30 9937 O 1399.98 2.36482 5.64681 0
M  V30 9938 C 1397.84 3.15122 6.56374 0
M  V30 9939 H 1397.87 2.13853 6.99751 0
M  V30 9940 H 1399.05 4.13501 5.06559 0
M  V30 9941 H 1400.54 5.03285 6.70911 0
M  V30 9942 H 1398.84 5.20877 8.75697 0
M  V30 9943 H 1398.65 7.11046 7.35349 0
M  V30 9944 H 1397.02 6.35815 7.26986 0
M  V30 9945 H 1399.66 1.61644 6.13565 0
M  V30 9946 P 1401.52 3.65191 7.99657 0
M  V30 9947 O 1402.94 3.84333 8.48297 0
M  V30 9948 O 1401.16 4.17805 6.64342 0
M  V30 9949 O 1401.2 2.07613 7.95143 0
M  V30 9950 C 1401.04 1.44328 9.27336 0
M  V30 9951 C 1401.58 0.0220012 9.17097 0
M  V30 9952 O 1400.52 -0.626867 8.61923 0
M  V30 9953 C 1402.8 -0.24586 8.30336 0
M  V30 9954 O 1403.53 -1.39011 8.63583 0
M  V30 9955 C 1402.13 -0.273849 6.91158 0
M  V30 9956 O 1402.93 -1.06331 6.02794 0
M  V30 9957 C 1400.79 -0.897649 7.22545 0
M  V30 9958 N 1399.75 -0.292839 6.41732 0
M  V30 9959 C 1399.81 1.00068 6.10757 0
M  V30 9960 N 1398.76 1.36468 5.35794 0
M  V30 9961 C 1398.03 0.258894 5.2366 0
M  V30 9962 C 1396.72 0.0670682 4.65752 0
M  V30 9963 O 1395.99 0.902443 4.10497 0
M  V30 9964 N 1396.29 -1.2131 4.75881 0
M  V30 9965 C 1397.04 -2.24934 5.37101 0
M  V30 9966 N 1396.45 -3.48783 5.33984 0
M  V30 9967 N 1398.2 -2.0844 5.95684 0
M  V30 9968 C 1398.65 -0.81395 5.87791 0
M  V30 9969 H 1400.82 -1.9841 7.04286 0
M  V30 9970 H 1402 0.739815 6.49601 0
M  V30 9971 H 1403.49 0.598315 8.36563 0
M  V30 9972 H 1401.79 -0.352479 10.1829 0
M  V30 9973 H 1401.6 2.00611 10.0304 0
M  V30 9974 H 1399.97 1.41843 9.55327 0
M  V30 9975 H 1395.4 -1.44434 4.37895 0
M  V30 9976 H 1400.6 1.67697 6.42268 0
M  V30 9977 H 1395.53 -3.60543 4.87699 0
M  V30 9978 H 1396.91 -4.29232 5.7819 0
M  V30 9979 H 1402.61 -1.95704 6.0346 0
M  V30 9980 P 1404.47 -1.25109 8.70152 0
M  V30 9981 O 1405.89 -1.35274 9.21221 0
M  V30 9982 O 1404.11 -0.0769065 7.84762 0
M  V30 9983 O 1404.15 -2.55232 7.81161 0
M  V30 9984 C 1403.99 -3.79939 8.58154 0
M  V30 9985 C 1404.53 -4.94023 7.72785 0
M  V30 9986 O 1403.47 -5.18726 6.91205 0
M  V30 9987 C 1405.75 -4.69597 6.85231 0
M  V30 9988 O 1406.48 -5.83832 6.51337 0
M  V30 9989 C 1405.08 -3.96706 5.66633 0
M  V30 9990 O 1405.88 -4.15414 4.49689 0
M  V30 9991 C 1403.74 -4.66153 5.59313 0
M  V30 9992 H 1403.77 -5.47679 4.85214 0
M  V30 9993 H 1404.96 -2.89008 5.86566 0
M  V30 9994 H 1406.44 -4.0121 7.36511 0
M  V30 9995 H 1404.75 -5.80182 8.37584 0
M  V30 9996 H 1404.56 -3.73517 9.52265 0
M  V30 9997 H 1402.93 -3.97163 8.80359 0
M  V30 9998 H 1405.56 -4.90969 4.01921 0
M  V30 9999 P 1407.42 -5.75688 6.64379 0
M  V30 10000 O 1408.84 -6.11849 7.01846 0
M  V30 10001 O 1407.06 -4.30744 6.56026 0
M  V30 10002 O 1407.1 -6.37042 5.19165 0
M  V30 10003 C 1406.94 -7.83578 5.16515 0
M  V30 10004 C 1407.48 -8.33398 3.83019 0
M  V30 10005 O 1406.42 -8.10074 3.01034 0
M  V30 10006 C 1408.7 -7.65514 3.2257 0
M  V30 10007 O 1409.43 -8.4329 2.32297 0
M  V30 10008 C 1408.03 -6.40075 2.62207 0
M  V30 10009 O 1408.83 -5.92589 1.53712 0
M  V30 10010 C 1406.69 -6.9454 2.18503 0
M  V30 10011 H 1406.72 -7.23063 1.12091 0
M  V30 10012 H 1407.91 -5.6025 3.37201 0
M  V30 10013 H 1409.39 -7.35707 4.02681 0
M  V30 10014 H 1407.7 -9.40912 3.9095 0
M  V30 10015 H 1407.51 -8.29056 5.99158 0
M  V30 10016 H 1405.88 -8.10073 5.25882 0
M  V30 10017 H 1408.51 -6.30324 0.726794 0
M  V30 10018 P 1410.37 -8.4349 2.47671 0
M  V30 10019 O 1411.79 -8.94167 2.5964 0
M  V30 10020 O 1410.01 -7.1704 3.19006 0
M  V30 10021 O 1410.05 -8.16596 0.923387 0
M  V30 10022 C 1409.89 -9.38437 0.108857 0
M  V30 10023 C 1410.43 -9.08175 -1.28353 0
M  V30 10024 O 1409.37 -8.44229 -1.84713 0
M  V30 10025 C 1411.65 -8.18386 -1.42505 0
M  V30 10026 O 1412.39 -8.3501 -2.60497 0
M  V30 10027 C 1410.98 -6.80225 -1.25468 0
M  V30 10028 O 1411.78 -5.81621 -1.91066 0
M  V30 10029 C 1409.64 -7.02416 -1.9168 0
M  V30 10030 H 1409.67 -6.6888 -2.96621 0
M  V30 10031 H 1410.86 -6.53617 -0.192223 0
M  V30 10032 H 1412.34 -8.36622 -0.589963 0
M  V30 10033 H 1410.65 -10.0291 -1.79807 0
M  V30 10034 H 1410.46 -10.2138 0.558219 0
M  V30 10035 H 1408.83 -9.6579 0.0444202 0
M  V30 10036 H 1411.47 -5.69556 -2.79637 0
M  V30 10037 P 1413.32 -8.4349 -2.47671 0
M  V30 10038 O 1414.75 -8.92593 -2.65 0
M  V30 10039 O 1412.96 -7.7568 -1.19296 0
M  V30 10040 O 1413 -7.36886 -3.63805 0
M  V30 10041 C 1412.84 -7.95349 -4.982 0
M  V30 10042 C 1413.38 -6.94612 -5.98974 0
M  V30 10043 O 1412.32 -6.10347 -6.11815 0
M  V30 10044 C 1414.6 -6.11426 -5.62335 0
M  V30 10045 O 1415.34 -5.6162 -6.70584 0
M  V30 10046 C 1413.93 -5.04409 -4.73308 0
M  V30 10047 O 1414.73 -3.85992 -4.75183 0
M  V30 10048 C 1412.59 -4.8728 -5.41006 0
M  V30 10049 H 1412.62 -4.02333 -6.11157 0
M  V30 10050 H 1413.81 -5.39466 -3.69543 0
M  V30 10051 H 1415.29 -6.71916 -5.01943 0
M  V30 10052 H 1413.6 -7.4649 -6.93477 0
M  V30 10053 H 1413.41 -8.89416 -5.05237 0
M  V30 10054 H 1411.78 -8.14876 -5.18409 0
M  V30 10055 H 1414.42 -3.27957 -5.4317 0
M  V30 10056 P 1416.27 -5.75688 -6.64379 0
M  V30 10057 O 1417.7 -6.07627 -7.05504 0
M  V30 10058 O 1415.91 -5.88047 -5.19722 0
M  V30 10059 O 1415.95 -4.2322 -7.04443 0
M  V30 10060 C 1415.79 -3.99743 -8.4911 0
M  V30 10061 C 1416.33 -2.60516 -8.79425 0
M  V30 10062 O 1415.27 -1.82684 -8.4467 0
M  V30 10063 C 1417.55 -2.10343 -8.03628 0
M  V30 10064 O 1418.29 -1.09919 -8.67766 0
M  V30 10065 C 1416.88 -1.68446 -6.70876 0
M  V30 10066 O 1417.68 -0.678137 -6.08433 0
M  V30 10067 C 1415.54 -1.17436 -7.18567 0
M  V30 10068 H 1415.57 -0.0804732 -7.31656 0
M  V30 10069 H 1416.76 -2.54037 -6.02537 0
M  V30 10070 H 1418.24 -2.93881 -7.85526 0
M  V30 10071 H 1416.55 -2.53065 -9.86973 0
M  V30 10072 H 1416.36 -4.75072 -9.05887 0
M  V30 10073 H 1414.73 -4.05244 -8.76668 0
M  V30 10074 H 1417.37 0.177647 -6.34251 0
M  V30 10075 P 1419.22 -1.25109 -8.70152 0
M  V30 10076 O 1420.65 -1.29744 -9.22016 0
M  V30 10077 O 1418.86 -2.13714 -7.55141 0
M  V30 10078 O 1418.9 0.248149 -8.21425 0
M  V30 10079 C 1418.74 1.22779 -9.30434 0
M  V30 10080 C 1419.28 2.56293 -8.80664 0
M  V30 10081 O 1418.23 3.02979 -8.09349 0
M  V30 10082 C 1420.5 2.57523 -7.89775 0
M  V30 10083 O 1421.24 3.7668 -7.89438 0
M  V30 10084 C 1419.83 2.20997 -6.55446 0
M  V30 10085 O 1420.63 2.71895 -5.48509 0
M  V30 10086 C 1418.49 2.89693 -6.67988 0
M  V30 10087 H 1418.53 3.88793 -6.19859 0
M  V30 10088 H 1419.71 1.12046 -6.44229 0
M  V30 10089 H 1421.19 1.7746 -8.19711 0
M  V30 10090 H 1419.5 3.20706 -9.67112 0
M  V30 10091 H 1419.31 0.901032 -10.1892 0
M  V30 10092 H 1417.68 1.33049 -9.56592 0
M  V30 10093 H 1420.32 3.57847 -5.23962 0
M  V30 10094 P 1422.17 3.65191 -7.99657 0
M  V30 10095 O 1423.6 3.89332 -8.45794 0
M  V30 10096 O 1421.81 2.28472 -7.50807 0
M  V30 10097 O 1421.85 4.64972 -6.77611 0
M  V30 10098 C 1421.69 6.06319 -7.16352 0
M  V30 10099 C 1422.23 6.91731 -6.02299 0
M  V30 10100 O 1421.18 6.92449 -5.17064 0
M  V30 10101 C 1423.45 6.43627 -5.25174 0
M  V30 10102 O 1424.19 7.43686 -4.60469 0
M  V30 10103 C 1422.78 5.40275 -4.31916 0
M  V30 10104 O 1423.58 5.25279 -3.14438 0
M  V30 10105 C 1421.44 6.04847 -4.05327 0
M  V30 10106 H 1421.48 6.62195 -3.11261 0
M  V30 10107 H 1422.66 4.42556 -4.81383 0
M  V30 10108 H 1424.14 5.92458 -5.93643 0
M  V30 10109 H 1422.45 7.92655 -6.402 0
M  V30 10110 H 1422.26 6.26671 -8.0846 0
M  V30 10111 H 1420.63 6.29101 -7.32804 0
M  V30 10112 H 1423.27 5.84315 -2.47318 0
M  V30 10113 P 1425.13 7.39546 -4.75277 0
M  V30 10114 O 1426.55 7.84798 -5.01039 0
M  V30 10115 O 1424.77 5.9812 -5.08098 0
M  V30 10116 O 1424.8 7.57503 -3.1866 0
M  V30 10117 C 1424.64 8.97357 -2.74833 0
M  V30 10118 C 1425.18 9.07548 -1.32709 0
M  V30 10119 O 1424.13 8.62072 -0.606159 0
M  V30 10120 C 1426.4 8.25383 -0.938334 0
M  V30 10121 O 1427.14 8.74577 0.146954 0
M  V30 10122 C 1425.73 6.8802 -0.712559 0
M  V30 10123 O 1426.53 6.1189 0.194655 0
M  V30 10124 C 1424.39 7.27966 -0.139777 0
M  V30 10125 H 1424.43 7.25354 0.961601 0
M  V30 10126 H 1425.61 6.32557 -1.65702 0
M  V30 10127 H 1427.09 8.19355 -1.79097 0
M  V30 10128 H 1425.4 10.1294 -1.10029 0
M  V30 10129 H 1425.21 9.64276 -3.41316 0
M  V30 10130 H 1423.58 9.25417 -2.76357 0
M  V30 10131 H 1426.22 6.25267 1.07847 0
M  V30 10132 P 1428.08 8.791 1.16485e-11 0
M  V30 10133 O 1429.5 9.31096 0.027933 0
M  V30 10134 O 1427.72 7.77869 -1.04071 0
M  V30 10135 O 1427.75 8.09533 1.41463 0
M  V30 10136 C 1427.59 9.0349 2.53943 0
M  V30 10137 C 1428.13 8.35226 3.79016 0
M  V30 10138 O 1427.08 7.57992 4.15078 0
M  V30 10139 C 1429.35 7.45087 3.67298 0
M  V30 10140 O 1430.09 7.27796 4.85194 0
M  V30 10141 C 1428.68 6.17323 3.12027 0
M  V30 10142 O 1429.48 5.04231 3.47188 0
M  V30 10143 C 1427.34 6.19961 3.81809 0
M  V30 10144 H 1427.38 5.58218 4.73051 0
M  V30 10145 H 1428.56 6.21726 2.02589 0
M  V30 10146 H 1430.04 7.86112 2.9231 0
M  V30 10147 H 1428.35 9.11627 4.55076 0
M  V30 10148 H 1428.16 9.9573 2.34194 0
M  V30 10149 H 1426.53 9.2792 2.67832 0
M  V30 10150 H 1429.17 4.67702 4.28772 0
M  V30 10151 P 1431.03 7.39546 4.75277 0
M  V30 10152 O 1432.45 7.81777 5.05738 0
M  V30 10153 O 1430.67 7.1065 3.32998 0
M  V30 10154 O 1430.7 6.04542 5.56673 0
M  V30 10155 C 1430.54 6.22772 7.02095 0
M  V30 10156 C 1431.08 4.97725 7.70406 0
M  V30 10157 O 1430.03 4.13256 7.58987 0
M  V30 10158 C 1432.3 4.28231 7.11815 0
M  V30 10159 O 1433.04 3.49945 8.01648 0
M  V30 10160 C 1431.63 3.5063 5.96244 0
M  V30 10161 O 1432.43 2.36482 5.64681 0
M  V30 10162 C 1430.3 3.15122 6.56374 0
M  V30 10163 H 1430.33 2.13853 6.99751 0
M  V30 10164 H 1431.51 4.13501 5.06559 0
M  V30 10165 H 1432.99 5.03285 6.70911 0
M  V30 10166 H 1431.3 5.20877 8.75697 0
M  V30 10167 H 1431.11 7.11046 7.35349 0
M  V30 10168 H 1429.48 6.35815 7.26986 0
M  V30 10169 H 1432.12 1.61644 6.13565 0
M  V30 10170 P 1433.98 3.65191 7.99657 0
M  V30 10171 O 1435.4 3.8425 8.48115 0
M  V30 10172 O 1433.62 4.17805 6.64342 0
M  V30 10173 O 1433.65 2.07613 7.95143 0
M  V30 10174 C 1433.49 1.44328 9.27336 0
M  V30 10175 C 1434.03 0.0220036 9.17197 0
M  V30 10176 O 1432.98 -0.626867 8.61923 0
M  V30 10177 C 1435.25 -0.24586 8.30336 0
M  V30 10178 O 1435.99 -1.39011 8.63583 0
M  V30 10179 C 1434.58 -0.273849 6.91158 0
M  V30 10180 O 1435.38 -1.06348 6.02892 0
M  V30 10181 C 1433.25 -0.897649 7.22545 0
M  V30 10182 H 1433.28 -1.9841 7.04286 0
M  V30 10183 H 1434.46 0.739928 6.497 0
M  V30 10184 H 1435.95 0.60668 8.36503 0
M  V30 10185 H 1434.25 -0.352479 10.1829 0
M  V30 10186 H 1434.06 2.00611 10.0304 0
M  V30 10187 H 1432.43 1.41843 9.55327 0
M  V30 10188 H 1435.07 -1.95734 6.03555 0
M  V30 10189 P 1436.93 -1.25109 8.70152 0
M  V30 10190 O 1438.35 -1.35274 9.21221 0
M  V30 10191 O 1436.57 -0.0769065 7.84762 0
M  V30 10192 O 1436.6 -2.55232 7.81161 0
M  V30 10193 C 1436.44 -3.79939 8.58154 0
M  V30 10194 C 1436.98 -4.94023 7.72785 0
M  V30 10195 O 1435.93 -5.18726 6.91205 0
M  V30 10196 C 1438.2 -4.69597 6.85231 0
M  V30 10197 O 1438.94 -5.83832 6.51337 0
M  V30 10198 C 1437.53 -3.96706 5.66633 0
M  V30 10199 O 1438.33 -4.15414 4.49689 0
M  V30 10200 C 1436.2 -4.66153 5.59313 0
M  V30 10201 H 1436.23 -5.47679 4.85214 0
M  V30 10202 H 1437.41 -2.89008 5.86566 0
M  V30 10203 H 1438.9 -4.0121 7.36511 0
M  V30 10204 H 1437.2 -5.80182 8.37584 0
M  V30 10205 H 1437.01 -3.73517 9.52265 0
M  V30 10206 H 1435.38 -3.97163 8.80359 0
M  V30 10207 H 1438.02 -4.90969 4.01921 0
M  V30 10208 P 1439.88 -5.75688 6.64379 0
M  V30 10209 O 1441.3 -6.11849 7.01846 0
M  V30 10210 O 1439.52 -4.30744 6.56026 0
M  V30 10211 O 1439.56 -6.37042 5.19165 0
M  V30 10212 C 1439.4 -7.83578 5.16515 0
M  V30 10213 C 1439.94 -8.33398 3.83019 0
M  V30 10214 O 1438.88 -8.10074 3.01034 0
M  V30 10215 C 1441.15 -7.65514 3.2257 0
M  V30 10216 O 1441.89 -8.4329 2.32297 0
M  V30 10217 C 1440.48 -6.40075 2.62207 0
M  V30 10218 O 1441.28 -5.92589 1.53712 0
M  V30 10219 C 1439.15 -6.9454 2.18503 0
M  V30 10220 H 1439.18 -7.23063 1.12091 0
M  V30 10221 H 1440.36 -5.6025 3.37201 0
M  V30 10222 H 1441.85 -7.35707 4.02681 0
M  V30 10223 H 1440.15 -9.40912 3.9095 0
M  V30 10224 H 1439.96 -8.29056 5.99158 0
M  V30 10225 H 1438.33 -8.10073 5.25882 0
M  V30 10226 H 1440.97 -6.30324 0.726794 0
M  V30 10227 P 1442.83 -8.4349 2.47671 0
M  V30 10228 O 1444.25 -8.94167 2.5964 0
M  V30 10229 O 1442.47 -7.1704 3.19006 0
M  V30 10230 O 1442.51 -8.16596 0.923387 0
M  V30 10231 C 1442.35 -9.38437 0.108857 0
M  V30 10232 C 1442.89 -9.08175 -1.28353 0
M  V30 10233 O 1441.83 -8.44229 -1.84713 0
M  V30 10234 C 1444.1 -8.18386 -1.42505 0
M  V30 10235 O 1444.84 -8.3501 -2.60497 0
M  V30 10236 C 1443.43 -6.80225 -1.25468 0
M  V30 10237 O 1444.23 -5.81621 -1.91066 0
M  V30 10238 C 1442.1 -7.02416 -1.9168 0
M  V30 10239 H 1442.13 -6.6888 -2.96621 0
M  V30 10240 H 1443.31 -6.53617 -0.192223 0
M  V30 10241 H 1444.8 -8.36622 -0.589963 0
M  V30 10242 H 1443.1 -10.0291 -1.79807 0
M  V30 10243 H 1442.91 -10.2138 0.558219 0
M  V30 10244 H 1441.28 -9.6579 0.0444202 0
M  V30 10245 H 1443.92 -5.69556 -2.79637 0
M  V30 10246 P 1445.78 -8.4349 -2.47671 0
M  V30 10247 O 1447.2 -8.92593 -2.65 0
M  V30 10248 O 1445.42 -7.7568 -1.19296 0
M  V30 10249 O 1445.46 -7.36886 -3.63805 0
M  V30 10250 C 1445.3 -7.95349 -4.982 0
M  V30 10251 C 1445.84 -6.94612 -5.98974 0
M  V30 10252 O 1444.78 -6.10347 -6.11815 0
M  V30 10253 C 1447.05 -6.11426 -5.62335 0
M  V30 10254 O 1447.79 -5.6162 -6.70584 0
M  V30 10255 C 1446.39 -5.04409 -4.73308 0
M  V30 10256 O 1447.18 -3.85992 -4.75183 0
M  V30 10257 C 1445.05 -4.8728 -5.41006 0
M  V30 10258 H 1445.08 -4.02333 -6.11157 0
M  V30 10259 H 1446.26 -5.39466 -3.69543 0
M  V30 10260 H 1447.75 -6.71916 -5.01943 0
M  V30 10261 H 1446.05 -7.4649 -6.93477 0
M  V30 10262 H 1445.86 -8.89416 -5.05237 0
M  V30 10263 H 1444.23 -8.14876 -5.18409 0
M  V30 10264 H 1446.87 -3.27957 -5.4317 0
M  V30 10265 P 1448.73 -5.75688 -6.64379 0
M  V30 10266 O 1450.15 -6.07627 -7.05504 0
M  V30 10267 O 1448.37 -5.88047 -5.19722 0
M  V30 10268 O 1448.41 -4.2322 -7.04443 0
M  V30 10269 C 1448.25 -3.99743 -8.4911 0
M  V30 10270 C 1448.79 -2.60516 -8.79425 0
M  V30 10271 O 1447.73 -1.82684 -8.4467 0
M  V30 10272 C 1450 -2.10343 -8.03628 0
M  V30 10273 O 1450.74 -1.09919 -8.67766 0
M  V30 10274 C 1449.34 -1.68446 -6.70876 0
M  V30 10275 O 1450.13 -0.678137 -6.08433 0
M  V30 10276 C 1448 -1.17436 -7.18567 0
M  V30 10277 H 1448.03 -0.0804732 -7.31656 0
M  V30 10278 H 1449.21 -2.54037 -6.02537 0
M  V30 10279 H 1450.7 -2.93881 -7.85526 0
M  V30 10280 H 1449 -2.53065 -9.86973 0
M  V30 10281 H 1448.81 -4.75072 -9.05887 0
M  V30 10282 H 1447.18 -4.05244 -8.76668 0
M  V30 10283 H 1449.82 0.177647 -6.34251 0
M  V30 10284 P 1451.68 -1.25109 -8.70152 0
M  V30 10285 O 1453.1 -1.29744 -9.22016 0
M  V30 10286 O 1451.32 -2.13714 -7.55141 0
M  V30 10287 O 1451.36 0.248149 -8.21425 0
M  V30 10288 C 1451.2 1.22779 -9.30434 0
M  V30 10289 C 1451.74 2.56293 -8.80664 0
M  V30 10290 O 1450.68 3.02979 -8.09349 0
M  V30 10291 C 1452.96 2.57523 -7.89775 0
M  V30 10292 O 1453.69 3.7668 -7.89438 0
M  V30 10293 C 1452.29 2.20997 -6.55446 0
M  V30 10294 O 1453.09 2.71895 -5.48509 0
M  V30 10295 C 1450.95 2.89693 -6.67988 0
M  V30 10296 H 1450.98 3.88793 -6.19859 0
M  V30 10297 H 1452.16 1.12046 -6.44229 0
M  V30 10298 H 1453.65 1.7746 -8.19711 0
M  V30 10299 H 1451.95 3.20706 -9.67112 0
M  V30 10300 H 1451.76 0.901032 -10.1892 0
M  V30 10301 H 1450.13 1.33049 -9.56592 0
M  V30 10302 H 1452.77 3.57847 -5.23962 0
M  V30 10303 P 1454.63 3.65191 -7.99657 0
M  V30 10304 O 1456.05 3.89374 -8.45885 0
M  V30 10305 O 1454.27 2.28472 -7.50807 0
M  V30 10306 O 1454.31 4.64972 -6.77611 0
M  V30 10307 C 1454.15 6.06383 -7.16428 0
M  V30 10308 C 1454.69 6.91731 -6.02299 0
M  V30 10309 O 1453.63 6.92369 -5.17005 0
M  V30 10310 C 1455.91 6.43627 -5.25174 0
M  V30 10311 O 1456.64 7.43686 -4.60469 0
M  V30 10312 C 1455.24 5.40275 -4.31916 0
M  V30 10313 O 1456.04 5.24878 -3.14911 0
M  V30 10314 C 1453.9 6.04847 -4.05327 0
M  V30 10315 N 1452.86 5.04166 -3.98114 0
M  V30 10316 C 1453.03 3.84629 -4.59066 0
M  V30 10317 N 1452 3.0363 -4.45343 0
M  V30 10318 C 1451.11 3.76722 -3.68523 0
M  V30 10319 C 1449.85 3.43528 -3.17088 0
M  V30 10320 N 1449.25 2.23665 -3.37397 0
M  V30 10321 N 1449.28 4.44526 -2.44231 0
M  V30 10322 C 1449.88 5.65243 -2.20146 0
M  V30 10323 N 1451.06 6.00221 -2.65453 0
M  V30 10324 C 1451.64 5.00564 -3.39083 0
M  V30 10325 H 1453.93 6.62104 -3.11218 0
M  V30 10326 H 1455.12 4.42969 -4.80867 0
M  V30 10327 H 1456.6 5.92458 -5.93643 0
M  V30 10328 H 1454.9 7.93295 -6.39407 0
M  V30 10329 H 1454.71 6.26671 -8.0846 0
M  V30 10330 H 1453.08 6.29101 -7.32804 0
M  V30 10331 H 1449.35 6.36894 -1.5883 0
M  V30 10332 H 1453.93 3.58193 -5.14248 0
M  V30 10333 H 1448.32 2.05145 -2.97047 0
M  V30 10334 H 1449.72 1.51255 -3.92998 0
M  V30 10335 H 1455.72 5.84223 -2.47279 0
M  V30 10336 P 1457.58 7.39546 -4.75277 0
M  V30 10337 O 1459 7.84798 -5.01039 0
M  V30 10338 O 1457.22 5.9812 -5.08098 0
M  V30 10339 O 1457.26 7.57503 -3.1866 0
M  V30 10340 C 1457.1 8.97357 -2.74833 0
M  V30 10341 C 1457.64 9.07548 -1.32709 0
M  V30 10342 O 1456.58 8.62072 -0.606159 0
M  V30 10343 C 1458.86 8.25383 -0.938334 0
M  V30 10344 O 1459.59 8.74577 0.146954 0
M  V30 10345 C 1458.19 6.8802 -0.712559 0
M  V30 10346 O 1458.99 6.1189 0.194655 0
M  V30 10347 C 1456.85 7.27966 -0.139777 0
M  V30 10348 H 1456.88 7.25354 0.961601 0
M  V30 10349 H 1458.07 6.32557 -1.65702 0
M  V30 10350 H 1459.55 8.19355 -1.79097 0
M  V30 10351 H 1457.86 10.1294 -1.10029 0
M  V30 10352 H 1457.67 9.64276 -3.41316 0
M  V30 10353 H 1456.04 9.25417 -2.76357 0
M  V30 10354 H 1458.67 6.25267 1.07847 0
M  V30 10355 P 1460.53 8.791 1.19586e-11 0
M  V30 10356 O 1461.95 9.31096 0.027933 0
M  V30 10357 O 1460.17 7.77869 -1.04071 0
M  V30 10358 O 1460.21 8.09533 1.41463 0
M  V30 10359 C 1460.05 9.0349 2.53943 0
M  V30 10360 C 1460.59 8.35226 3.79016 0
M  V30 10361 O 1459.53 7.57992 4.15078 0
M  V30 10362 C 1461.81 7.45087 3.67298 0
M  V30 10363 O 1462.55 7.27796 4.85194 0
M  V30 10364 C 1461.14 6.17323 3.12027 0
M  V30 10365 O 1461.94 5.04231 3.47188 0
M  V30 10366 C 1459.8 6.19961 3.81809 0
M  V30 10367 H 1459.83 5.58218 4.73051 0
M  V30 10368 H 1461.02 6.21726 2.02589 0
M  V30 10369 H 1462.5 7.86112 2.9231 0
M  V30 10370 H 1460.81 9.11627 4.55076 0
M  V30 10371 H 1460.62 9.9573 2.34194 0
M  V30 10372 H 1458.99 9.2792 2.67832 0
M  V30 10373 H 1461.63 4.67702 4.28772 0
M  V30 10374 P 1463.48 7.39546 4.75277 0
M  V30 10375 O 1464.9 7.81777 5.05738 0
M  V30 10376 O 1463.12 7.1065 3.32998 0
M  V30 10377 O 1463.16 6.04542 5.56673 0
M  V30 10378 C 1463 6.22772 7.02095 0
M  V30 10379 C 1463.54 4.97725 7.70406 0
M  V30 10380 O 1462.48 4.13256 7.58987 0
M  V30 10381 C 1464.76 4.28231 7.11815 0
M  V30 10382 O 1465.5 3.49945 8.01648 0
M  V30 10383 C 1464.09 3.5063 5.96244 0
M  V30 10384 O 1464.89 2.36482 5.64681 0
M  V30 10385 C 1462.75 3.15122 6.56374 0
M  V30 10386 H 1462.78 2.13853 6.99751 0
M  V30 10387 H 1463.97 4.13501 5.06559 0
M  V30 10388 H 1465.45 5.03285 6.70911 0
M  V30 10389 H 1463.76 5.20877 8.75697 0
M  V30 10390 H 1463.57 7.11046 7.35349 0
M  V30 10391 H 1461.94 6.35815 7.26986 0
M  V30 10392 H 1464.58 1.61644 6.13565 0
M  V30 10393 P 1466.43 3.65191 7.99657 0
M  V30 10394 O 1467.86 3.8425 8.48115 0
M  V30 10395 O 1466.07 4.17805 6.64342 0
M  V30 10396 O 1466.11 2.07613 7.95143 0
M  V30 10397 C 1465.95 1.44328 9.27336 0
M  V30 10398 C 1466.49 0.0220036 9.17197 0
M  V30 10399 O 1465.43 -0.626867 8.61923 0
M  V30 10400 C 1467.71 -0.24586 8.30336 0
M  V30 10401 O 1468.45 -1.39011 8.63583 0
M  V30 10402 C 1467.04 -0.273849 6.91158 0
M  V30 10403 O 1467.84 -1.06348 6.02892 0
M  V30 10404 C 1465.7 -0.897649 7.22545 0
M  V30 10405 H 1465.73 -1.9841 7.04286 0
M  V30 10406 H 1466.92 0.739928 6.497 0
M  V30 10407 H 1468.4 0.60668 8.36503 0
M  V30 10408 H 1466.71 -0.352479 10.1829 0
M  V30 10409 H 1466.52 2.00611 10.0304 0
M  V30 10410 H 1464.89 1.41843 9.55327 0
M  V30 10411 H 1467.53 -1.95734 6.03555 0
M  V30 10412 P 1469.38 -1.25109 8.70152 0
M  V30 10413 O 1470.81 -1.35274 9.21221 0
M  V30 10414 O 1469.02 -0.0769065 7.84762 0
M  V30 10415 O 1469.06 -2.55232 7.81161 0
M  V30 10416 C 1468.9 -3.79939 8.58154 0
M  V30 10417 C 1469.44 -4.94023 7.72785 0
M  V30 10418 O 1468.38 -5.18726 6.91205 0
M  V30 10419 C 1470.66 -4.69597 6.85231 0
M  V30 10420 O 1471.4 -5.83832 6.51337 0
M  V30 10421 C 1469.99 -3.96706 5.66633 0
M  V30 10422 O 1470.79 -4.15414 4.49689 0
M  V30 10423 C 1468.65 -4.66153 5.59313 0
M  V30 10424 H 1468.68 -5.47679 4.85214 0
M  V30 10425 H 1469.87 -2.89008 5.86566 0
M  V30 10426 H 1471.35 -4.0121 7.36511 0
M  V30 10427 H 1469.66 -5.80182 8.37584 0
M  V30 10428 H 1469.47 -3.73517 9.52265 0
M  V30 10429 H 1467.84 -3.97163 8.80359 0
M  V30 10430 H 1470.48 -4.90969 4.01921 0
M  V30 10431 P 1472.33 -5.75688 6.64379 0
M  V30 10432 O 1473.76 -6.11849 7.01846 0
M  V30 10433 O 1471.97 -4.30744 6.56026 0
M  V30 10434 O 1472.01 -6.37042 5.19165 0
M  V30 10435 C 1471.85 -7.83578 5.16515 0
M  V30 10436 C 1472.39 -8.33398 3.83019 0
M  V30 10437 O 1471.34 -8.10074 3.01034 0
M  V30 10438 C 1473.61 -7.65514 3.2257 0
M  V30 10439 O 1474.35 -8.4329 2.32297 0
M  V30 10440 C 1472.94 -6.40075 2.62207 0
M  V30 10441 O 1473.74 -5.92589 1.53712 0
M  V30 10442 C 1471.6 -6.9454 2.18503 0
M  V30 10443 H 1471.64 -7.23063 1.12091 0
M  V30 10444 H 1472.82 -5.6025 3.37201 0
M  V30 10445 H 1474.3 -7.35707 4.02681 0
M  V30 10446 H 1472.61 -9.40912 3.9095 0
M  V30 10447 H 1472.42 -8.29056 5.99158 0
M  V30 10448 H 1470.79 -8.10073 5.25882 0
M  V30 10449 H 1473.43 -6.30324 0.726794 0
M  V30 10450 P 1475.28 -8.4349 2.47671 0
M  V30 10451 O 1476.71 -8.94167 2.5964 0
M  V30 10452 O 1474.92 -7.1704 3.19006 0
M  V30 10453 O 1474.96 -8.16596 0.923387 0
M  V30 10454 C 1474.8 -9.38437 0.108857 0
M  V30 10455 C 1475.34 -9.08175 -1.28353 0
M  V30 10456 O 1474.29 -8.44229 -1.84713 0
M  V30 10457 C 1476.56 -8.18386 -1.42505 0
M  V30 10458 O 1477.3 -8.3501 -2.60497 0
M  V30 10459 C 1475.89 -6.80225 -1.25468 0
M  V30 10460 O 1476.69 -5.81621 -1.91066 0
M  V30 10461 C 1474.55 -7.02416 -1.9168 0
M  V30 10462 H 1474.59 -6.6888 -2.96621 0
M  V30 10463 H 1475.77 -6.53617 -0.192223 0
M  V30 10464 H 1477.25 -8.36622 -0.589963 0
M  V30 10465 H 1475.56 -10.0291 -1.79807 0
M  V30 10466 H 1475.37 -10.2138 0.558219 0
M  V30 10467 H 1473.74 -9.6579 0.0444202 0
M  V30 10468 H 1476.38 -5.69556 -2.79637 0
M  V30 10469 P 1478.24 -8.4349 -2.47671 0
M  V30 10470 O 1479.66 -8.92593 -2.65 0
M  V30 10471 O 1477.88 -7.7568 -1.19296 0
M  V30 10472 O 1477.91 -7.36886 -3.63805 0
M  V30 10473 C 1477.75 -7.95349 -4.982 0
M  V30 10474 C 1478.29 -6.94612 -5.98974 0
M  V30 10475 O 1477.24 -6.10347 -6.11815 0
M  V30 10476 C 1479.51 -6.11426 -5.62335 0
M  V30 10477 O 1480.25 -5.6162 -6.70584 0
M  V30 10478 C 1478.84 -5.04409 -4.73308 0
M  V30 10479 O 1479.64 -3.85992 -4.75183 0
M  V30 10480 C 1477.5 -4.8728 -5.41006 0
M  V30 10481 H 1477.54 -4.02333 -6.11157 0
M  V30 10482 H 1478.72 -5.39466 -3.69543 0
M  V30 10483 H 1480.2 -6.71916 -5.01943 0
M  V30 10484 H 1478.51 -7.4649 -6.93477 0
M  V30 10485 H 1478.32 -8.89416 -5.05237 0
M  V30 10486 H 1476.69 -8.14876 -5.18409 0
M  V30 10487 H 1479.33 -3.27957 -5.4317 0
M  V30 10488 P 1481.19 -5.75688 -6.64379 0
M  V30 10489 O 1482.61 -6.07627 -7.05504 0
M  V30 10490 O 1480.83 -5.88047 -5.19722 0
M  V30 10491 O 1480.86 -4.2322 -7.04443 0
M  V30 10492 C 1480.7 -3.99743 -8.4911 0
M  V30 10493 C 1481.24 -2.60516 -8.79425 0
M  V30 10494 O 1480.19 -1.82684 -8.4467 0
M  V30 10495 C 1482.46 -2.10343 -8.03628 0
M  V30 10496 O 1483.2 -1.09919 -8.67766 0
M  V30 10497 C 1481.79 -1.68446 -6.70876 0
M  V30 10498 O 1482.59 -0.678137 -6.08433 0
M  V30 10499 C 1480.46 -1.17436 -7.18567 0
M  V30 10500 H 1480.49 -0.0804732 -7.31656 0
M  V30 10501 H 1481.67 -2.54037 -6.02537 0
M  V30 10502 H 1483.15 -2.93881 -7.85526 0
M  V30 10503 H 1481.46 -2.53065 -9.86973 0
M  V30 10504 H 1481.27 -4.75072 -9.05887 0
M  V30 10505 H 1479.64 -4.05244 -8.76668 0
M  V30 10506 H 1482.28 0.177647 -6.34251 0
M  V30 10507 P 1484.14 -1.25109 -8.70152 0
M  V30 10508 O 1485.56 -1.29744 -9.22016 0
M  V30 10509 O 1483.78 -2.13714 -7.55141 0
M  V30 10510 O 1483.81 0.248149 -8.21425 0
M  V30 10511 C 1483.65 1.22779 -9.30434 0
M  V30 10512 C 1484.19 2.56293 -8.80664 0
M  V30 10513 O 1483.14 3.02979 -8.09349 0
M  V30 10514 C 1485.41 2.57523 -7.89775 0
M  V30 10515 O 1486.15 3.7668 -7.89438 0
M  V30 10516 C 1484.74 2.20997 -6.55446 0
M  V30 10517 O 1485.54 2.71895 -5.48509 0
M  V30 10518 C 1483.41 2.89693 -6.67988 0
M  V30 10519 H 1483.44 3.88793 -6.19859 0
M  V30 10520 H 1484.62 1.12046 -6.44229 0
M  V30 10521 H 1486.1 1.7746 -8.19711 0
M  V30 10522 H 1484.41 3.20706 -9.67112 0
M  V30 10523 H 1484.22 0.901032 -10.1892 0
M  V30 10524 H 1482.59 1.33049 -9.56592 0
M  V30 10525 H 1485.23 3.57847 -5.23962 0
M  V30 10526 P 1487.09 3.65191 -7.99657 0
M  V30 10527 O 1488.51 3.89332 -8.45794 0
M  V30 10528 O 1486.73 2.28472 -7.50807 0
M  V30 10529 O 1486.76 4.64972 -6.77611 0
M  V30 10530 C 1486.6 6.06319 -7.16352 0
M  V30 10531 C 1487.14 6.91731 -6.02299 0
M  V30 10532 O 1486.09 6.92449 -5.17064 0
M  V30 10533 C 1488.36 6.43627 -5.25174 0
M  V30 10534 O 1489.1 7.43686 -4.60469 0
M  V30 10535 C 1487.69 5.40275 -4.31916 0
M  V30 10536 O 1488.49 5.25279 -3.14438 0
M  V30 10537 C 1486.36 6.04847 -4.05327 0
M  V30 10538 H 1486.39 6.62195 -3.11261 0
M  V30 10539 H 1487.57 4.42556 -4.81383 0
M  V30 10540 H 1489.06 5.92458 -5.93643 0
M  V30 10541 H 1487.36 7.92655 -6.402 0
M  V30 10542 H 1487.17 6.26671 -8.0846 0
M  V30 10543 H 1485.54 6.29101 -7.32804 0
M  V30 10544 H 1488.18 5.84315 -2.47318 0
M  V30 10545 P 1490.04 7.39546 -4.75277 0
M  V30 10546 O 1491.46 7.84966 -5.01146 0
M  V30 10547 O 1489.68 5.9812 -5.08098 0
M  V30 10548 O 1489.71 7.57503 -3.1866 0
M  V30 10549 C 1489.55 8.97357 -2.74833 0
M  V30 10550 C 1490.09 9.0745 -1.32694 0
M  V30 10551 O 1489.04 8.62072 -0.606159 0
M  V30 10552 C 1491.31 8.25383 -0.938334 0
M  V30 10553 O 1492.05 8.74577 0.146954 0
M  V30 10554 C 1490.64 6.8802 -0.712559 0
M  V30 10555 O 1491.44 6.11791 0.194623 0
M  V30 10556 C 1489.31 7.27966 -0.139777 0
M  V30 10557 N 1488.26 6.39368 -0.623421 0
M  V30 10558 C 1488.33 5.90299 -1.85969 0
M  V30 10559 N 1487.28 5.10919 -2.1133 0
M  V30 10560 C 1486.55 5.14646 -1.0015 0
M  V30 10561 C 1485.24 4.60057 -0.729219 0
M  V30 10562 O 1484.51 3.93476 -1.47746 0
M  V30 10563 N 1484.81 4.88302 0.523505 0
M  V30 10564 C 1485.56 5.63646 1.46207 0
M  V30 10565 N 1484.96 5.78186 2.69239 0
M  V30 10566 N 1486.71 6.19285 1.21544 0
M  V30 10567 C 1487.17 5.93392 -0.0308487 0
M  V30 10568 H 1489.34 7.25354 0.961601 0
M  V30 10569 H 1490.52 6.3246 -1.65676 0
M  V30 10570 H 1492.01 8.19533 -1.78278 0
M  V30 10571 H 1490.31 10.1294 -1.10029 0
M  V30 10572 H 1490.12 9.64276 -3.41316 0
M  V30 10573 H 1488.49 9.25417 -2.76357 0
M  V30 10574 H 1483.91 4.53993 0.806451 0
M  V30 10575 H 1489.12 6.11865 -2.57394 0
M  V30 10576 H 1484.05 5.34046 2.87467 0
M  V30 10577 H 1485.43 6.33391 3.42578 0
M  V30 10578 H 1491.13 6.25169 1.0783 0
M  V30 10579 P 1492.99 8.791 1.22688e-11 0
M  V30 10580 O 1494.41 9.31096 0.027933 0
M  V30 10581 O 1492.63 7.77869 -1.04071 0
M  V30 10582 O 1492.67 8.09533 1.41463 0
M  V30 10583 C 1492.51 9.0349 2.53943 0
M  V30 10584 C 1493.05 8.35226 3.79016 0
M  V30 10585 O 1491.99 7.57992 4.15078 0
M  V30 10586 C 1494.26 7.45087 3.67298 0
M  V30 10587 O 1495 7.27796 4.85194 0
M  V30 10588 C 1493.59 6.17323 3.12027 0
M  V30 10589 O 1494.39 5.04231 3.47188 0
M  V30 10590 C 1492.26 6.19961 3.81809 0
M  V30 10591 H 1492.29 5.58218 4.73051 0
M  V30 10592 H 1493.47 6.21726 2.02589 0
M  V30 10593 H 1494.96 7.86112 2.9231 0
M  V30 10594 H 1493.26 9.11627 4.55076 0
M  V30 10595 H 1493.07 9.9573 2.34194 0
M  V30 10596 H 1491.44 9.2792 2.67832 0
M  V30 10597 H 1494.08 4.67702 4.28772 0
M  V30 10598 P 1495.94 7.39546 4.75277 0
M  V30 10599 O 1497.36 7.81777 5.05738 0
M  V30 10600 O 1495.58 7.1065 3.32998 0
M  V30 10601 O 1495.62 6.04542 5.56673 0
M  V30 10602 C 1495.46 6.22772 7.02095 0
M  V30 10603 C 1496 4.97725 7.70406 0
M  V30 10604 O 1494.94 4.13256 7.58987 0
M  V30 10605 C 1497.21 4.28231 7.11815 0
M  V30 10606 O 1497.95 3.49945 8.01648 0
M  V30 10607 C 1496.54 3.5063 5.96244 0
M  V30 10608 O 1497.34 2.36482 5.64681 0
M  V30 10609 C 1495.21 3.15122 6.56374 0
M  V30 10610 H 1495.24 2.13853 6.99751 0
M  V30 10611 H 1496.42 4.13501 5.06559 0
M  V30 10612 H 1497.91 5.03285 6.70911 0
M  V30 10613 H 1496.21 5.20877 8.75697 0
M  V30 10614 H 1496.02 7.11046 7.35349 0
M  V30 10615 H 1494.39 6.35815 7.26986 0
M  V30 10616 H 1497.03 1.61644 6.13565 0
M  V30 10617 P 1498.89 3.65191 7.99657 0
M  V30 10618 O 1500.31 3.8425 8.48115 0
M  V30 10619 O 1498.53 4.17805 6.64342 0
M  V30 10620 O 1498.57 2.07613 7.95143 0
M  V30 10621 C 1498.41 1.44328 9.27336 0
M  V30 10622 C 1498.95 0.0220036 9.17197 0
M  V30 10623 O 1497.89 -0.626867 8.61923 0
M  V30 10624 C 1500.16 -0.24586 8.30336 0
M  V30 10625 O 1500.9 -1.39011 8.63583 0
M  V30 10626 C 1499.5 -0.273849 6.91158 0
M  V30 10627 O 1500.29 -1.06348 6.02892 0
M  V30 10628 C 1498.16 -0.897649 7.22545 0
M  V30 10629 H 1498.19 -1.9841 7.04286 0
M  V30 10630 H 1499.37 0.739928 6.497 0
M  V30 10631 H 1500.86 0.60668 8.36503 0
M  V30 10632 H 1499.16 -0.352479 10.1829 0
M  V30 10633 H 1498.97 2.00611 10.0304 0
M  V30 10634 H 1497.34 1.41843 9.55327 0
M  V30 10635 H 1499.98 -1.95734 6.03555 0
M  V30 10636 P 1501.84 -1.25109 8.70152 0
M  V30 10637 O 1503.26 -1.35288 9.2132 0
M  V30 10638 O 1501.48 -0.0769065 7.84762 0
M  V30 10639 O 1501.52 -2.55232 7.81161 0
M  V30 10640 C 1501.36 -3.79979 8.58246 0
M  V30 10641 C 1501.9 -4.94023 7.72785 0
M  V30 10642 O 1500.84 -5.18666 6.91125 0
M  V30 10643 C 1503.12 -4.69597 6.85231 0
M  V30 10644 O 1503.85 -5.83832 6.51337 0
M  V30 10645 C 1502.45 -3.96706 5.66633 0
M  V30 10646 O 1503.25 -4.14896 4.5003 0
M  V30 10647 C 1501.11 -4.66153 5.59313 0
M  V30 10648 N 1500.07 -3.71582 5.24027 0
M  V30 10649 C 1500.24 -2.39715 5.48833 0
M  V30 10650 N 1499.21 -1.65863 5.12845 0
M  V30 10651 C 1498.32 -2.57637 4.5973 0
M  V30 10652 C 1497.06 -2.40278 4.01027 0
M  V30 10653 N 1496.46 -1.19549 3.86744 0
M  V30 10654 N 1496.49 -3.57711 3.59575 0
M  V30 10655 C 1497.09 -4.80324 3.70476 0
M  V30 10656 N 1498.27 -5.01121 4.23801 0
M  V30 10657 C 1498.85 -3.84757 4.66372 0
M  V30 10658 H 1501.14 -5.47604 4.85148 0
M  V30 10659 H 1502.32 -2.8955 5.86187 0
M  V30 10660 H 1503.81 -4.0121 7.36511 0
M  V30 10661 H 1502.11 -5.81019 8.37003 0
M  V30 10662 H 1501.92 -3.73517 9.52265 0
M  V30 10663 H 1500.29 -3.97163 8.80359 0
M  V30 10664 H 1496.56 -5.66348 3.3183 0
M  V30 10665 H 1501.14 -1.98804 5.94332 0
M  V30 10666 H 1495.53 -1.13147 3.4281 0
M  V30 10667 H 1496.93 -0.344074 4.19692 0
M  V30 10668 H 1502.93 -4.90891 4.01857 0
M  V30 10669 P 1504.79 -5.75688 6.64379 0
M  V30 10670 O 1506.21 -6.11915 7.01921 0
M  V30 10671 O 1504.43 -4.30744 6.56026 0
M  V30 10672 O 1504.47 -6.37042 5.19165 0
M  V30 10673 C 1504.31 -7.83662 5.1657 0
M  V30 10674 C 1504.85 -8.33398 3.83019 0
M  V30 10675 O 1503.79 -8.0998 3.00999 0
M  V30 10676 C 1506.07 -7.65514 3.2257 0
M  V30 10677 O 1506.8 -8.4329 2.32297 0
M  V30 10678 C 1505.4 -6.40075 2.62207 0
M  V30 10679 O 1506.2 -5.92338 1.5428 0
M  V30 10680 C 1504.06 -6.9454 2.18503 0
M  V30 10681 N 1503.02 -5.95905 2.39948 0
M  V30 10682 C 1503.19 -4.98383 3.32108 0
M  V30 10683 N 1502.16 -4.16798 3.41761 0
M  V30 10684 C 1501.27 -4.65287 2.47461 0
M  V30 10685 C 1500.01 -4.18946 2.07461 0
M  V30 10686 N 1499.41 -3.09661 2.60717 0
M  V30 10687 N 1499.44 -4.95327 1.09101 0
M  V30 10688 C 1500.04 -6.04369 0.519812 0
M  V30 10689 N 1501.22 -6.50694 0.855982 0
M  V30 10690 C 1501.8 -5.75818 1.84322 0
M  V30 10691 H 1504.09 -7.22964 1.12076 0
M  V30 10692 H 1505.27 -5.60502 3.36589 0
M  V30 10693 H 1506.76 -7.35707 4.02681 0
M  V30 10694 H 1505.06 -9.41302 3.90009 0
M  V30 10695 H 1504.87 -8.29056 5.99158 0
M  V30 10696 H 1503.24 -8.10073 5.25882 0
M  V30 10697 H 1499.51 -6.55843 -0.270373 0
M  V30 10698 H 1504.09 -4.88564 3.92502 0
M  V30 10699 H 1498.48 -2.80523 2.27218 0
M  V30 10700 H 1499.88 -2.55848 3.34465 0
M  V30 10701 H 1505.88 -6.30224 0.72668 0
M  V30 10702 P 1507.74 -8.4349 2.47671 0
M  V30 10703 O 1509.16 -8.94167 2.5964 0
M  V30 10704 O 1507.38 -7.1704 3.19006 0
M  V30 10705 O 1507.42 -8.16596 0.923387 0
M  V30 10706 C 1507.26 -9.38437 0.108857 0
M  V30 10707 C 1507.8 -9.08175 -1.28353 0
M  V30 10708 O 1506.74 -8.44229 -1.84713 0
M  V30 10709 C 1509.02 -8.18386 -1.42505 0
M  V30 10710 O 1509.75 -8.3501 -2.60497 0
M  V30 10711 C 1508.35 -6.80225 -1.25468 0
M  V30 10712 O 1509.15 -5.81621 -1.91066 0
M  V30 10713 C 1507.01 -7.02416 -1.9168 0
M  V30 10714 H 1507.04 -6.6888 -2.96621 0
M  V30 10715 H 1508.23 -6.53617 -0.192223 0
M  V30 10716 H 1509.71 -8.36622 -0.589963 0
M  V30 10717 H 1508.02 -10.0291 -1.79807 0
M  V30 10718 H 1507.83 -10.2138 0.558219 0
M  V30 10719 H 1506.2 -9.6579 0.0444202 0
M  V30 10720 H 1508.83 -5.69556 -2.79637 0
M  V30 10721 P 1510.69 -8.4349 -2.47671 0
M  V30 10722 O 1512.11 -8.92785 -2.65057 0
M  V30 10723 O 1510.33 -7.7568 -1.19296 0
M  V30 10724 O 1510.37 -7.36886 -3.63805 0
M  V30 10725 C 1510.21 -7.95349 -4.982 0
M  V30 10726 C 1510.75 -6.94537 -5.98908 0
M  V30 10727 O 1509.69 -6.10347 -6.11815 0
M  V30 10728 C 1511.97 -6.11426 -5.62335 0
M  V30 10729 O 1512.7 -5.6162 -6.70584 0
M  V30 10730 C 1511.3 -5.04409 -4.73308 0
M  V30 10731 O 1512.1 -3.85929 -4.75106 0
M  V30 10732 C 1509.96 -4.8728 -5.41006 0
M  V30 10733 N 1508.92 -4.65812 -4.42377 0
M  V30 10734 C 1508.98 -5.27109 -3.24335 0
M  V30 10735 N 1507.93 -4.94293 -2.47735 0
M  V30 10736 C 1507.2 -4.1271 -3.23359 0
M  V30 10737 C 1505.89 -3.56384 -2.99934 0
M  V30 10738 O 1505.16 -3.69331 -2.00616 0
M  V30 10739 N 1505.46 -2.80206 -4.03316 0
M  V30 10740 C 1506.21 -2.58614 -5.2172 0
M  V30 10741 N 1505.62 -1.75154 -6.13278 0
M  V30 10742 N 1507.37 -3.13689 -5.47619 0
M  V30 10743 C 1507.82 -3.90921 -4.46436 0
M  V30 10744 H 1509.99 -4.02333 -6.11157 0
M  V30 10745 H 1511.18 -5.39383 -3.69487 0
M  V30 10746 H 1512.66 -6.71414 -5.02615 0
M  V30 10747 H 1510.97 -7.4649 -6.93477 0
M  V30 10748 H 1510.78 -8.89416 -5.05237 0
M  V30 10749 H 1509.14 -8.14876 -5.18409 0
M  V30 10750 H 1504.57 -2.36355 -3.95916 0
M  V30 10751 H 1509.78 -5.95212 -2.93859 0
M  V30 10752 H 1504.71 -1.32473 -5.91856 0
M  V30 10753 H 1506.08 -1.5588 -7.03026 0
M  V30 10754 H 1511.79 -3.27906 -5.43085 0
M  V30 10755 P 1513.64 -5.75688 -6.64379 0
M  V30 10756 O 1515.06 -6.07627 -7.05504 0
M  V30 10757 O 1513.28 -5.88047 -5.19722 0
M  V30 10758 O 1513.32 -4.2322 -7.04443 0
M  V30 10759 C 1513.16 -3.99743 -8.4911 0
M  V30 10760 C 1513.7 -2.60516 -8.79425 0
M  V30 10761 O 1512.64 -1.82684 -8.4467 0
M  V30 10762 C 1514.92 -2.10343 -8.03628 0
M  V30 10763 O 1515.66 -1.09919 -8.67766 0
M  V30 10764 C 1514.25 -1.68446 -6.70876 0
M  V30 10765 O 1515.05 -0.678137 -6.08433 0
M  V30 10766 C 1512.91 -1.17436 -7.18567 0
M  V30 10767 H 1512.94 -0.0804732 -7.31656 0
M  V30 10768 H 1514.13 -2.54037 -6.02537 0
M  V30 10769 H 1515.61 -2.93881 -7.85526 0
M  V30 10770 H 1513.92 -2.53065 -9.86973 0
M  V30 10771 H 1513.73 -4.75072 -9.05887 0
M  V30 10772 H 1512.1 -4.05244 -8.76668 0
M  V30 10773 H 1514.74 0.177647 -6.34251 0
M  V30 10774 P 1516.59 -1.25109 -8.70152 0
M  V30 10775 O 1518.01 -1.29744 -9.22016 0
M  V30 10776 O 1516.23 -2.13714 -7.55141 0
M  V30 10777 O 1516.27 0.248149 -8.21425 0
M  V30 10778 C 1516.11 1.22779 -9.30434 0
M  V30 10779 C 1516.65 2.56293 -8.80664 0
M  V30 10780 O 1515.59 3.02979 -8.09349 0
M  V30 10781 C 1517.87 2.57523 -7.89775 0
M  V30 10782 O 1518.61 3.7668 -7.89438 0
M  V30 10783 C 1517.2 2.20997 -6.55446 0
M  V30 10784 O 1518 2.71895 -5.48509 0
M  V30 10785 C 1515.86 2.89693 -6.67988 0
M  V30 10786 H 1515.89 3.88793 -6.19859 0
M  V30 10787 H 1517.08 1.12046 -6.44229 0
M  V30 10788 H 1518.56 1.7746 -8.19711 0
M  V30 10789 H 1516.87 3.20706 -9.67112 0
M  V30 10790 H 1516.68 0.901032 -10.1892 0
M  V30 10791 H 1515.05 1.33049 -9.56592 0
M  V30 10792 H 1517.69 3.57847 -5.23962 0
M  V30 10793 P 1519.54 3.65191 -7.99657 0
M  V30 10794 O 1520.97 3.89332 -8.45794 0
M  V30 10795 O 1519.18 2.28472 -7.50807 0
M  V30 10796 O 1519.22 4.64972 -6.77611 0
M  V30 10797 C 1519.06 6.06319 -7.16352 0
M  V30 10798 C 1519.6 6.91731 -6.02299 0
M  V30 10799 O 1518.54 6.92449 -5.17064 0
M  V30 10800 C 1520.82 6.43627 -5.25174 0
M  V30 10801 O 1521.56 7.43686 -4.60469 0
M  V30 10802 C 1520.15 5.40275 -4.31916 0
M  V30 10803 O 1520.95 5.25279 -3.14438 0
M  V30 10804 C 1518.81 6.04847 -4.05327 0
M  V30 10805 H 1518.84 6.62195 -3.11261 0
M  V30 10806 H 1520.03 4.42556 -4.81383 0
M  V30 10807 H 1521.51 5.92458 -5.93643 0
M  V30 10808 H 1519.82 7.92655 -6.402 0
M  V30 10809 H 1519.63 6.26671 -8.0846 0
M  V30 10810 H 1518 6.29101 -7.32804 0
M  V30 10811 H 1520.64 5.84315 -2.47318 0
M  V30 10812 P 1522.49 7.39546 -4.75277 0
M  V30 10813 O 1523.92 7.84798 -5.01039 0
M  V30 10814 O 1522.13 5.9812 -5.08098 0
M  V30 10815 O 1522.17 7.57503 -3.1866 0
M  V30 10816 C 1522.01 8.97357 -2.74833 0
M  V30 10817 C 1522.55 9.07548 -1.32709 0
M  V30 10818 O 1521.5 8.62072 -0.606159 0
M  V30 10819 C 1523.77 8.25383 -0.938334 0
M  V30 10820 O 1524.51 8.74577 0.146954 0
M  V30 10821 C 1523.1 6.8802 -0.712559 0
M  V30 10822 O 1523.9 6.1189 0.194655 0
M  V30 10823 C 1521.76 7.27966 -0.139777 0
M  V30 10824 H 1521.8 7.25354 0.961601 0
M  V30 10825 H 1522.98 6.32557 -1.65702 0
M  V30 10826 H 1524.46 8.19355 -1.79097 0
M  V30 10827 H 1522.77 10.1294 -1.10029 0
M  V30 10828 H 1522.58 9.64276 -3.41316 0
M  V30 10829 H 1520.95 9.25417 -2.76357 0
M  V30 10830 H 1523.59 6.25267 1.07847 0
M  V30 10831 P 1525.44 8.791 1.2579e-11 0
M  V30 10832 O 1526.87 9.31096 0.027933 0
M  V30 10833 O 1525.08 7.77869 -1.04071 0
M  V30 10834 O 1525.12 8.09533 1.41463 0
M  V30 10835 C 1524.96 9.0349 2.53943 0
M  V30 10836 C 1525.5 8.35226 3.79016 0
M  V30 10837 O 1524.45 7.57992 4.15078 0
M  V30 10838 C 1526.72 7.45087 3.67298 0
M  V30 10839 O 1527.46 7.27796 4.85194 0
M  V30 10840 C 1526.05 6.17323 3.12027 0
M  V30 10841 O 1526.85 5.04231 3.47188 0
M  V30 10842 C 1524.71 6.19961 3.81809 0
M  V30 10843 H 1524.75 5.58218 4.73051 0
M  V30 10844 H 1525.93 6.21726 2.02589 0
M  V30 10845 H 1527.41 7.86112 2.9231 0
M  V30 10846 H 1525.72 9.11627 4.55076 0
M  V30 10847 H 1525.53 9.9573 2.34194 0
M  V30 10848 H 1523.9 9.2792 2.67832 0
M  V30 10849 H 1526.54 4.67702 4.28772 0
M  V30 10850 P 1528.4 7.39546 4.75277 0
M  V30 10851 O 1529.82 7.81777 5.05738 0
M  V30 10852 O 1528.04 7.1065 3.32998 0
M  V30 10853 O 1528.07 6.04542 5.56673 0
M  V30 10854 C 1527.91 6.22772 7.02095 0
M  V30 10855 C 1528.45 4.97725 7.70406 0
M  V30 10856 O 1527.4 4.13256 7.58987 0
M  V30 10857 C 1529.67 4.28231 7.11815 0
M  V30 10858 O 1530.41 3.49945 8.01648 0
M  V30 10859 C 1529 3.5063 5.96244 0
M  V30 10860 O 1529.8 2.36482 5.64681 0
M  V30 10861 C 1527.66 3.15122 6.56374 0
M  V30 10862 H 1527.7 2.13853 6.99751 0
M  V30 10863 H 1528.88 4.13501 5.06559 0
M  V30 10864 H 1530.36 5.03285 6.70911 0
M  V30 10865 H 1528.67 5.20877 8.75697 0
M  V30 10866 H 1528.48 7.11046 7.35349 0
M  V30 10867 H 1526.85 6.35815 7.26986 0
M  V30 10868 H 1529.49 1.61644 6.13565 0
M  V30 10869 P 1531.35 3.65191 7.99657 0
M  V30 10870 O 1532.77 3.8425 8.48115 0
M  V30 10871 O 1530.99 4.17805 6.64342 0
M  V30 10872 O 1531.02 2.07613 7.95143 0
M  V30 10873 C 1530.86 1.44328 9.27336 0
M  V30 10874 C 1531.4 0.0220036 9.17197 0
M  V30 10875 O 1530.35 -0.626867 8.61923 0
M  V30 10876 C 1532.62 -0.24586 8.30336 0
M  V30 10877 O 1533.36 -1.39011 8.63583 0
M  V30 10878 C 1531.95 -0.273849 6.91158 0
M  V30 10879 O 1532.75 -1.06348 6.02892 0
M  V30 10880 C 1530.61 -0.897649 7.22545 0
M  V30 10881 H 1530.65 -1.9841 7.04286 0
M  V30 10882 H 1531.83 0.739928 6.497 0
M  V30 10883 H 1533.31 0.60668 8.36503 0
M  V30 10884 H 1531.62 -0.352479 10.1829 0
M  V30 10885 H 1531.43 2.00611 10.0304 0
M  V30 10886 H 1529.8 1.41843 9.55327 0
M  V30 10887 H 1532.44 -1.95734 6.03555 0
M  V30 10888 P 1534.3 -1.25109 8.70152 0
M  V30 10889 O 1535.72 -1.35303 9.21419 0
M  V30 10890 O 1533.94 -0.0769065 7.84762 0
M  V30 10891 O 1533.97 -2.55232 7.81161 0
M  V30 10892 C 1533.81 -3.79939 8.58154 0
M  V30 10893 C 1534.35 -4.93969 7.72701 0
M  V30 10894 O 1533.3 -5.18726 6.91205 0
M  V30 10895 C 1535.57 -4.69597 6.85231 0
M  V30 10896 O 1536.31 -5.83832 6.51337 0
M  V30 10897 C 1534.9 -3.96706 5.66633 0
M  V30 10898 O 1535.7 -4.15346 4.49615 0
M  V30 10899 C 1533.57 -4.66153 5.59313 0
M  V30 10900 N 1532.52 -3.71582 5.24027 0
M  V30 10901 C 1532.58 -2.46018 5.67902 0
M  V30 10902 N 1531.54 -1.74868 5.24518 0
M  V30 10903 C 1530.81 -2.61333 4.54528 0
M  V30 10904 C 1529.5 -2.46162 3.95441 0
M  V30 10905 O 1528.77 -1.46013 3.94122 0
M  V30 10906 N 1529.07 -3.59334 3.34752 0
M  V30 10907 C 1529.82 -4.79605 3.3023 0
M  V30 10908 N 1529.22 -5.82109 2.6065 0
M  V30 10909 N 1530.97 -4.97402 3.8843 0
M  V30 10910 C 1531.43 -3.86258 4.50476 0
M  V30 10911 H 1533.6 -5.47679 4.85214 0
M  V30 10912 H 1534.78 -2.88964 5.86476 0
M  V30 10913 H 1536.27 -4.01947 7.36109 0
M  V30 10914 H 1534.57 -5.80182 8.37584 0
M  V30 10915 H 1534.38 -3.73517 9.52265 0
M  V30 10916 H 1532.75 -3.97163 8.80359 0
M  V30 10917 H 1528.17 -3.5825 2.90294 0
M  V30 10918 H 1533.38 -2.06161 6.30974 0
M  V30 10919 H 1528.31 -5.66979 2.15354 0
M  V30 10920 H 1529.69 -6.73686 2.54344 0
M  V30 10921 H 1535.39 -4.90891 4.01857 0
M  V30 10922 P 1537.25 -5.75688 6.64379 0
M  V30 10923 O 1538.67 -6.11849 7.01846 0
M  V30 10924 O 1536.89 -4.30744 6.56026 0
M  V30 10925 O 1536.92 -6.37042 5.19165 0
M  V30 10926 C 1536.76 -7.83578 5.16515 0
M  V30 10927 C 1537.3 -8.33398 3.83019 0
M  V30 10928 O 1536.25 -8.10074 3.01034 0
M  V30 10929 C 1538.52 -7.65514 3.2257 0
M  V30 10930 O 1539.26 -8.4329 2.32297 0
M  V30 10931 C 1537.85 -6.40075 2.62207 0
M  V30 10932 O 1538.65 -5.92589 1.53712 0
M  V30 10933 C 1536.52 -6.9454 2.18503 0
M  V30 10934 H 1536.55 -7.23063 1.12091 0
M  V30 10935 H 1537.73 -5.6025 3.37201 0
M  V30 10936 H 1539.21 -7.35707 4.02681 0
M  V30 10937 H 1537.52 -9.40912 3.9095 0
M  V30 10938 H 1537.33 -8.29056 5.99158 0
M  V30 10939 H 1535.7 -8.10073 5.25882 0
M  V30 10940 H 1538.34 -6.30324 0.726794 0
M  V30 10941 P 1540.2 -8.4349 2.47671 0
M  V30 10942 O 1541.62 -8.94167 2.5964 0
M  V30 10943 O 1539.84 -7.1704 3.19006 0
M  V30 10944 O 1539.87 -8.16596 0.923387 0
M  V30 10945 C 1539.71 -9.38437 0.108857 0
M  V30 10946 C 1540.25 -9.08175 -1.28353 0
M  V30 10947 O 1539.2 -8.44229 -1.84713 0
M  V30 10948 C 1541.47 -8.18386 -1.42505 0
M  V30 10949 O 1542.21 -8.3501 -2.60497 0
M  V30 10950 C 1540.8 -6.80225 -1.25468 0
M  V30 10951 O 1541.6 -5.81621 -1.91066 0
M  V30 10952 C 1539.47 -7.02416 -1.9168 0
M  V30 10953 H 1539.5 -6.6888 -2.96621 0
M  V30 10954 H 1540.68 -6.53617 -0.192223 0
M  V30 10955 H 1542.17 -8.36622 -0.589963 0
M  V30 10956 H 1540.47 -10.0291 -1.79807 0
M  V30 10957 H 1540.28 -10.2138 0.558219 0
M  V30 10958 H 1538.65 -9.6579 0.0444202 0
M  V30 10959 H 1541.29 -5.69556 -2.79637 0
M  V30 10960 P 1543.15 -8.4349 -2.47671 0
M  V30 10961 O 1544.57 -8.92593 -2.65 0
M  V30 10962 O 1542.79 -7.7568 -1.19296 0
M  V30 10963 O 1542.83 -7.36886 -3.63805 0
M  V30 10964 C 1542.67 -7.95349 -4.982 0
M  V30 10965 C 1543.21 -6.94612 -5.98974 0
M  V30 10966 O 1542.15 -6.10347 -6.11815 0
M  V30 10967 C 1544.42 -6.11426 -5.62335 0
M  V30 10968 O 1545.16 -5.6162 -6.70584 0
M  V30 10969 C 1543.75 -5.04409 -4.73308 0
M  V30 10970 O 1544.55 -3.85992 -4.75183 0
M  V30 10971 C 1542.42 -4.8728 -5.41006 0
M  V30 10972 H 1542.45 -4.02333 -6.11157 0
M  V30 10973 H 1543.63 -5.39466 -3.69543 0
M  V30 10974 H 1545.12 -6.71916 -5.01943 0
M  V30 10975 H 1543.42 -7.4649 -6.93477 0
M  V30 10976 H 1543.23 -8.89416 -5.05237 0
M  V30 10977 H 1541.6 -8.14876 -5.18409 0
M  V30 10978 H 1544.24 -3.27957 -5.4317 0
M  V30 10979 P 1546.1 -5.75688 -6.64379 0
M  V30 10980 O 1547.52 -6.07627 -7.05504 0
M  V30 10981 O 1545.74 -5.88047 -5.19722 0
M  V30 10982 O 1545.78 -4.2322 -7.04443 0
M  V30 10983 C 1545.62 -3.99743 -8.4911 0
M  V30 10984 C 1546.16 -2.60516 -8.79425 0
M  V30 10985 O 1545.1 -1.82684 -8.4467 0
M  V30 10986 C 1547.37 -2.10343 -8.03628 0
M  V30 10987 O 1548.11 -1.09919 -8.67766 0
M  V30 10988 C 1546.7 -1.68446 -6.70876 0
M  V30 10989 O 1547.5 -0.678137 -6.08433 0
M  V30 10990 C 1545.37 -1.17436 -7.18567 0
M  V30 10991 H 1545.4 -0.0804732 -7.31656 0
M  V30 10992 H 1546.58 -2.54037 -6.02537 0
M  V30 10993 H 1548.07 -2.93881 -7.85526 0
M  V30 10994 H 1546.37 -2.53065 -9.86973 0
M  V30 10995 H 1546.18 -4.75072 -9.05887 0
M  V30 10996 H 1544.55 -4.05244 -8.76668 0
M  V30 10997 H 1547.19 0.177647 -6.34251 0
M  V30 10998 P 1549.05 -1.25109 -8.70152 0
M  V30 10999 O 1550.47 -1.29744 -9.22016 0
M  V30 11000 O 1548.69 -2.13714 -7.55141 0
M  V30 11001 O 1548.73 0.248149 -8.21425 0
M  V30 11002 C 1548.57 1.22779 -9.30434 0
M  V30 11003 C 1549.11 2.56293 -8.80664 0
M  V30 11004 O 1548.05 3.02979 -8.09349 0
M  V30 11005 C 1550.32 2.57523 -7.89775 0
M  V30 11006 O 1551.06 3.7668 -7.89438 0
M  V30 11007 C 1549.66 2.20997 -6.55446 0
M  V30 11008 O 1550.45 2.71895 -5.48509 0
M  V30 11009 C 1548.32 2.89693 -6.67988 0
M  V30 11010 H 1548.35 3.88793 -6.19859 0
M  V30 11011 H 1549.53 1.12046 -6.44229 0
M  V30 11012 H 1551.02 1.7746 -8.19711 0
M  V30 11013 H 1549.32 3.20706 -9.67112 0
M  V30 11014 H 1549.13 0.901032 -10.1892 0
M  V30 11015 H 1547.5 1.33049 -9.56592 0
M  V30 11016 H 1550.14 3.57847 -5.23962 0
M  V30 11017 P 1552 3.65191 -7.99657 0
M  V30 11018 O 1553.42 3.89332 -8.45794 0
M  V30 11019 O 1551.64 2.28472 -7.50807 0
M  V30 11020 O 1551.68 4.64972 -6.77611 0
M  V30 11021 C 1551.52 6.06319 -7.16352 0
M  V30 11022 C 1552.06 6.91731 -6.02299 0
M  V30 11023 O 1551 6.92449 -5.17064 0
M  V30 11024 C 1553.27 6.43627 -5.25174 0
M  V30 11025 O 1554.01 7.43686 -4.60469 0
M  V30 11026 C 1552.61 5.40275 -4.31916 0
M  V30 11027 O 1553.4 5.25279 -3.14438 0
M  V30 11028 C 1551.27 6.04847 -4.05327 0
M  V30 11029 H 1551.3 6.62195 -3.11261 0
M  V30 11030 H 1552.48 4.42556 -4.81383 0
M  V30 11031 H 1553.97 5.92458 -5.93643 0
M  V30 11032 H 1552.27 7.92655 -6.402 0
M  V30 11033 H 1552.08 6.26671 -8.0846 0
M  V30 11034 H 1550.45 6.29101 -7.32804 0
M  V30 11035 H 1553.09 5.84315 -2.47318 0
M  V30 11036 P 1554.95 7.39546 -4.75277 0
M  V30 11037 O 1556.37 7.84798 -5.01039 0
M  V30 11038 O 1554.59 5.9812 -5.08098 0
M  V30 11039 O 1554.63 7.57503 -3.1866 0
M  V30 11040 C 1554.47 8.97357 -2.74833 0
M  V30 11041 C 1555.01 9.07548 -1.32709 0
M  V30 11042 O 1553.95 8.62072 -0.606159 0
M  V30 11043 C 1556.23 8.25383 -0.938334 0
M  V30 11044 O 1556.96 8.74577 0.146954 0
M  V30 11045 C 1555.56 6.8802 -0.712559 0
M  V30 11046 O 1556.36 6.1189 0.194655 0
M  V30 11047 C 1554.22 7.27966 -0.139777 0
M  V30 11048 H 1554.25 7.25354 0.961601 0
M  V30 11049 H 1555.43 6.32557 -1.65702 0
M  V30 11050 H 1556.92 8.19355 -1.79097 0
M  V30 11051 H 1555.22 10.1294 -1.10029 0
M  V30 11052 H 1555.03 9.64276 -3.41316 0
M  V30 11053 H 1553.4 9.25417 -2.76357 0
M  V30 11054 H 1556.04 6.25267 1.07847 0
M  V30 11055 P 1557.9 8.791 1.28891e-11 0
M  V30 11056 O 1559.32 9.31096 0.027933 0
M  V30 11057 O 1557.54 7.77869 -1.04071 0
M  V30 11058 O 1557.58 8.09533 1.41463 0
M  V30 11059 C 1557.42 9.0349 2.53943 0
M  V30 11060 C 1557.96 8.35226 3.79016 0
M  V30 11061 O 1556.9 7.57992 4.15078 0
M  V30 11062 C 1559.18 7.45087 3.67298 0
M  V30 11063 O 1559.91 7.27796 4.85194 0
M  V30 11064 C 1558.51 6.17323 3.12027 0
M  V30 11065 O 1559.31 5.04231 3.47188 0
M  V30 11066 C 1557.17 6.19961 3.81809 0
M  V30 11067 H 1557.2 5.58218 4.73051 0
M  V30 11068 H 1558.38 6.21726 2.02589 0
M  V30 11069 H 1559.87 7.86112 2.9231 0
M  V30 11070 H 1558.17 9.11627 4.55076 0
M  V30 11071 H 1557.98 9.9573 2.34194 0
M  V30 11072 H 1556.35 9.2792 2.67832 0
M  V30 11073 H 1558.99 4.67702 4.28772 0
M  V30 11074 P 1560.85 7.39546 4.75277 0
M  V30 11075 O 1562.27 7.81777 5.05738 0
M  V30 11076 O 1560.49 7.1065 3.32998 0
M  V30 11077 O 1560.53 6.04542 5.56673 0
M  V30 11078 C 1560.37 6.22772 7.02095 0
M  V30 11079 C 1560.91 4.97725 7.70406 0
M  V30 11080 O 1559.85 4.13256 7.58987 0
M  V30 11081 C 1562.13 4.28231 7.11815 0
M  V30 11082 O 1562.86 3.49945 8.01648 0
M  V30 11083 C 1561.46 3.5063 5.96244 0
M  V30 11084 O 1562.26 2.36482 5.64681 0
M  V30 11085 C 1560.12 3.15122 6.56374 0
M  V30 11086 H 1560.15 2.13853 6.99751 0
M  V30 11087 H 1561.34 4.13501 5.06559 0
M  V30 11088 H 1562.82 5.03285 6.70911 0
M  V30 11089 H 1561.13 5.20877 8.75697 0
M  V30 11090 H 1560.94 7.11046 7.35349 0
M  V30 11091 H 1559.31 6.35815 7.26986 0
M  V30 11092 H 1561.94 1.61644 6.13565 0
M  V30 11093 P 1563.8 3.65191 7.99657 0
M  V30 11094 O 1565.22 3.8425 8.48115 0
M  V30 11095 O 1563.44 4.17805 6.64342 0
M  V30 11096 O 1563.48 2.07613 7.95143 0
M  V30 11097 C 1563.32 1.44328 9.27336 0
M  V30 11098 C 1563.86 0.0220036 9.17197 0
M  V30 11099 O 1562.8 -0.626867 8.61923 0
M  V30 11100 C 1565.08 -0.24586 8.30336 0
M  V30 11101 O 1565.82 -1.39011 8.63583 0
M  V30 11102 C 1564.41 -0.273849 6.91158 0
M  V30 11103 O 1565.21 -1.06348 6.02892 0
M  V30 11104 C 1563.07 -0.897649 7.22545 0
M  V30 11105 H 1563.1 -1.9841 7.04286 0
M  V30 11106 H 1564.29 0.739928 6.497 0
M  V30 11107 H 1565.77 0.60668 8.36503 0
M  V30 11108 H 1564.08 -0.352479 10.1829 0
M  V30 11109 H 1563.89 2.00611 10.0304 0
M  V30 11110 H 1562.26 1.41843 9.55327 0
M  V30 11111 H 1564.9 -1.95734 6.03555 0
M  V30 11112 P 1566.75 -1.25109 8.70152 0
M  V30 11113 O 1568.17 -1.35274 9.21221 0
M  V30 11114 O 1566.39 -0.0769065 7.84762 0
M  V30 11115 O 1566.43 -2.55232 7.81161 0
M  V30 11116 C 1566.27 -3.79939 8.58154 0
M  V30 11117 C 1566.81 -4.94023 7.72785 0
M  V30 11118 O 1565.75 -5.18726 6.91205 0
M  V30 11119 C 1568.03 -4.69597 6.85231 0
M  V30 11120 O 1568.77 -5.83832 6.51337 0
M  V30 11121 C 1567.36 -3.96706 5.66633 0
M  V30 11122 O 1568.16 -4.15414 4.49689 0
M  V30 11123 C 1566.02 -4.66153 5.59313 0
M  V30 11124 H 1566.05 -5.47679 4.85214 0
M  V30 11125 H 1567.24 -2.89008 5.86566 0
M  V30 11126 H 1568.72 -4.0121 7.36511 0
M  V30 11127 H 1567.03 -5.80182 8.37584 0
M  V30 11128 H 1566.84 -3.73517 9.52265 0
M  V30 11129 H 1565.21 -3.97163 8.80359 0
M  V30 11130 H 1567.85 -4.90969 4.01921 0
M  V30 11131 P 1569.7 -5.75688 6.64379 0
M  V30 11132 O 1571.1 -6.11991 7.09136 0
M  V30 11133 O 1569.33 -4.30899 6.62018 0
M  V30 11134 O 1569.38 -6.36965 5.19102 0
M  V30 11135 C 1569.22 -7.83578 5.16515 0
M  V30 11136 C 1569.76 -8.33307 3.82977 0
M  V30 11137 O 1568.7 -8.0998 3.00999 0
M  V30 11138 C 1570.98 -7.65514 3.2257 0
M  V30 11139 O 1571.72 -8.4329 2.32297 0
M  V30 11140 C 1570.31 -6.40075 2.62207 0
M  V30 11141 O 1571.11 -5.92492 1.53687 0
M  V30 11142 C 1568.97 -6.9454 2.18503 0
M  V30 11143 N 1567.93 -5.95905 2.39948 0
M  V30 11144 C 1566.89 -5.89764 1.49837 0
M  V30 11145 O 1566.93 -6.64088 0.490975 0
M  V30 11146 N 1565.88 -5.02821 1.70992 0
M  V30 11147 C 1565.93 -4.21498 2.77236 0
M  V30 11148 C 1567.03 -4.23389 3.68205 0
M  V30 11149 C 1567.99 -5.12792 3.46171 0
M  V30 11150 H 1569 -7.22964 1.12076 0
M  V30 11151 H 1570.19 -5.60502 3.36589 0
M  V30 11152 H 1571.67 -7.36197 4.01993 0
M  V30 11153 H 1569.98 -9.41302 3.90009 0
M  V30 11154 H 1569.79 -8.29056 5.99158 0
M  V30 11155 H 1568.16 -8.09989 5.25828 0
M  V30 11156 H 1567.07 -3.54747 4.52399 0
M  V30 11157 H 1568.84 -5.18551 4.1489 0
M  V30 11158 H 1570.89 -6.40705 0.751752 0
M  V30 11159 P 1572.65 -8.4349 2.47671 0
M  V30 11160 O 1574.08 -8.94359 2.59696 0
M  V30 11161 O 1572.29 -7.1704 3.19006 0
M  V30 11162 O 1572.33 -8.16596 0.923387 0
M  V30 11163 C 1572.17 -9.38437 0.108857 0
M  V30 11164 C 1572.71 -9.08076 -1.28339 0
M  V30 11165 O 1571.66 -8.44229 -1.84713 0
M  V30 11166 C 1573.93 -8.18386 -1.42505 0
M  V30 11167 O 1574.67 -8.3501 -2.60497 0
M  V30 11168 C 1573.26 -6.80225 -1.25468 0
M  V30 11169 O 1574.06 -5.81526 -1.91035 0
M  V30 11170 C 1571.92 -7.02416 -1.9168 0
M  V30 11171 N 1570.88 -6.31033 -1.20314 0
M  V30 11172 C 1570.94 -6.18781 0.121293 0
M  V30 11173 N 1569.9 -5.49762 0.588272 0
M  V30 11174 C 1569.16 -5.22015 -0.488988 0
M  V30 11175 C 1567.86 -4.61966 -0.596448 0
M  V30 11176 O 1567.12 -4.19162 0.309059 0
M  V30 11177 N 1567.43 -4.53773 -1.878 0
M  V30 11178 C 1568.18 -4.99623 -2.99082 0
M  V30 11179 N 1567.58 -4.78912 -4.21227 0
M  V30 11180 N 1569.33 -5.59957 -2.91093 0
M  V30 11181 C 1569.79 -5.70225 -1.64218 0
M  V30 11182 H 1571.95 -6.6888 -2.96621 0
M  V30 11183 H 1573.14 -6.53517 -0.192194 0
M  V30 11184 H 1574.62 -8.36563 -0.598329 0
M  V30 11185 H 1572.93 -10.0291 -1.79807 0
M  V30 11186 H 1572.74 -10.2138 0.558219 0
M  V30 11187 H 1571.11 -9.6579 0.0444202 0
M  V30 11188 H 1566.53 -4.12883 -2.05283 0
M  V30 11189 H 1571.74 -6.59596 0.745856 0
M  V30 11190 H 1566.67 -4.31425 -4.2628 0
M  V30 11191 H 1568.04 -5.11219 -5.07148 0
M  V30 11192 H 1573.75 -5.69466 -2.79593 0
M  V30 11193 P 1575.6 -8.4349 -2.47671 0
M  V30 11194 O 1577.03 -8.92689 -2.65029 0
M  V30 11195 O 1575.24 -7.7568 -1.19296 0
M  V30 11196 O 1575.28 -7.36886 -3.63805 0
M  V30 11197 C 1575.12 -7.95433 -4.98253 0
M  V30 11198 C 1575.66 -6.94612 -5.98974 0
M  V30 11199 O 1574.61 -6.10277 -6.11744 0
M  V30 11200 C 1576.88 -6.11426 -5.62335 0
M  V30 11201 O 1577.62 -5.6162 -6.70584 0
M  V30 11202 C 1576.21 -5.04409 -4.73308 0
M  V30 11203 O 1577.01 -3.86404 -4.74719 0
M  V30 11204 C 1574.87 -4.8728 -5.41006 0
M  V30 11205 N 1573.83 -4.65812 -4.42377 0
M  V30 11206 C 1574 -5.09132 -3.15382 0
M  V30 11207 N 1572.97 -4.84021 -2.3716 0
M  V30 11208 C 1572.09 -4.18386 -3.20441 0
M  V30 11209 C 1570.82 -3.6275 -2.94905 0
M  V30 11210 N 1570.22 -3.65794 -1.73372 0
M  V30 11211 N 1570.26 -3.05008 -4.05243 0
M  V30 11212 C 1570.86 -2.98348 -5.28159 0
M  V30 11213 N 1572.03 -3.48171 -5.56333 0
M  V30 11214 C 1572.61 -4.06869 -4.47212 0
M  V30 11215 H 1574.91 -4.02278 -6.11074 0
M  V30 11216 H 1576.09 -5.39013 -3.70026 0
M  V30 11217 H 1577.57 -6.71916 -5.01943 0
M  V30 11218 H 1575.88 -7.45796 -6.94223 0
M  V30 11219 H 1575.69 -8.89416 -5.05237 0
M  V30 11220 H 1574.06 -8.14876 -5.18409 0
M  V30 11221 H 1570.32 -2.47853 -6.07807 0
M  V30 11222 H 1574.9 -5.59989 -2.81362 0
M  V30 11223 H 1569.29 -3.23218 -1.60782 0
M  V30 11224 H 1570.7 -4.10523 -0.937856 0
M  V30 11225 H 1576.7 -3.27906 -5.43085 0
M  V30 11226 P 1578.55 -5.75688 -6.64379 0
M  V30 11227 O 1579.98 -6.07627 -7.05504 0
M  V30 11228 O 1578.19 -5.88047 -5.19722 0
M  V30 11229 O 1578.23 -4.2322 -7.04443 0
M  V30 11230 C 1578.07 -3.99743 -8.4911 0
M  V30 11231 C 1578.61 -2.60516 -8.79425 0
M  V30 11232 O 1577.56 -1.82684 -8.4467 0
M  V30 11233 C 1579.83 -2.10343 -8.03628 0
M  V30 11234 O 1580.57 -1.09919 -8.67766 0
M  V30 11235 C 1579.16 -1.68446 -6.70876 0
M  V30 11236 O 1579.96 -0.678137 -6.08433 0
M  V30 11237 C 1577.82 -1.17436 -7.18567 0
M  V30 11238 H 1577.86 -0.0804732 -7.31656 0
M  V30 11239 H 1579.04 -2.54037 -6.02537 0
M  V30 11240 H 1580.52 -2.93881 -7.85526 0
M  V30 11241 H 1578.83 -2.53065 -9.86973 0
M  V30 11242 H 1578.64 -4.75072 -9.05887 0
M  V30 11243 H 1577.01 -4.05244 -8.76668 0
M  V30 11244 H 1579.65 0.177647 -6.34251 0
M  V30 11245 P 1581.51 -1.25109 -8.70152 0
M  V30 11246 O 1582.93 -1.29758 -9.22115 0
M  V30 11247 O 1581.15 -2.13714 -7.55141 0
M  V30 11248 O 1581.18 0.248149 -8.21425 0
M  V30 11249 C 1581.02 1.22792 -9.30533 0
M  V30 11250 C 1581.56 2.56293 -8.80664 0
M  V30 11251 O 1580.51 3.02944 -8.09255 0
M  V30 11252 C 1582.78 2.57523 -7.89775 0
M  V30 11253 O 1583.52 3.7668 -7.89438 0
M  V30 11254 C 1582.11 2.20997 -6.55446 0
M  V30 11255 O 1582.91 2.71302 -5.48691 0
M  V30 11256 C 1580.77 2.89693 -6.67988 0
M  V30 11257 N 1579.73 2.08895 -6.07487 0
M  V30 11258 C 1579.9 0.753809 -5.94137 0
M  V30 11259 N 1578.87 0.146592 -5.38801 0
M  V30 11260 C 1577.99 1.1768 -5.13693 0
M  V30 11261 C 1576.72 1.17563 -4.52477 0
M  V30 11262 N 1576.12 0.057481 -4.04759 0
M  V30 11263 N 1576.16 2.41918 -4.45789 0
M  V30 11264 C 1576.76 3.56493 -4.90792 0
M  V30 11265 N 1577.94 3.61423 -5.47817 0
M  V30 11266 C 1578.51 2.37779 -5.5588 0
M  V30 11267 H 1580.81 3.8874 -6.19774 0
M  V30 11268 H 1581.99 1.12673 -6.44018 0
M  V30 11269 H 1583.47 1.7746 -8.19711 0
M  V30 11270 H 1581.78 3.21673 -9.66791 0
M  V30 11271 H 1581.59 0.901032 -10.1892 0
M  V30 11272 H 1579.96 1.33049 -9.56592 0
M  V30 11273 H 1576.22 4.49919 -4.77947 0
M  V30 11274 H 1580.8 0.233081 -6.26266 0
M  V30 11275 H 1575.19 0.119831 -3.60801 0
M  V30 11276 H 1576.6 -0.852272 -4.12385 0
M  V30 11277 H 1582.6 3.5779 -5.23879 0
M  V30 11278 P 1584.46 3.65191 -7.99657 0
M  V30 11279 O 1585.88 3.89332 -8.45794 0
M  V30 11280 O 1584.1 2.28472 -7.50807 0
M  V30 11281 O 1584.13 4.64972 -6.77611 0
M  V30 11282 C 1583.97 6.06319 -7.16352 0
M  V30 11283 C 1584.51 6.91731 -6.02299 0
M  V30 11284 O 1583.46 6.92449 -5.17064 0
M  V30 11285 C 1585.73 6.43627 -5.25174 0
M  V30 11286 O 1586.47 7.43686 -4.60469 0
M  V30 11287 C 1585.06 5.40275 -4.31916 0
M  V30 11288 O 1585.86 5.25279 -3.14438 0
M  V30 11289 C 1583.73 6.04847 -4.05327 0
M  V30 11290 H 1583.76 6.62195 -3.11261 0
M  V30 11291 H 1584.94 4.42556 -4.81383 0
M  V30 11292 H 1586.42 5.92458 -5.93643 0
M  V30 11293 H 1584.73 7.92655 -6.402 0
M  V30 11294 H 1584.54 6.26671 -8.0846 0
M  V30 11295 H 1582.91 6.29101 -7.32804 0
M  V30 11296 H 1585.55 5.84315 -2.47318 0
M  V30 11297 P 1587.41 7.39546 -4.75277 0
M  V30 11298 O 1588.83 7.84882 -5.01092 0
M  V30 11299 O 1587.05 5.9812 -5.08098 0
M  V30 11300 O 1587.08 7.57503 -3.1866 0
M  V30 11301 C 1586.92 8.97452 -2.74862 0
M  V30 11302 C 1587.46 9.07548 -1.32709 0
M  V30 11303 O 1586.41 8.61972 -0.606089 0
M  V30 11304 C 1588.68 8.25383 -0.938334 0
M  V30 11305 O 1589.42 8.74577 0.146954 0
M  V30 11306 C 1588.01 6.8802 -0.712559 0
M  V30 11307 O 1588.81 6.1181 0.188505 0
M  V30 11308 C 1586.68 7.27966 -0.139777 0
M  V30 11309 N 1585.63 6.39368 -0.623421 0
M  V30 11310 C 1585.8 5.71761 -1.78245 0
M  V30 11311 N 1584.77 4.962 -2.10491 0
M  V30 11312 C 1583.89 5.16158 -1.0635 0
M  V30 11313 C 1582.62 4.60425 -0.810266 0
M  V30 11314 N 1582.06 5.06 0.348685 0
M  V30 11315 C 1582.66 5.94532 1.20395 0
M  V30 11316 N 1583.84 6.48452 1.01191 0
M  V30 11317 C 1584.41 6.04423 -0.146291 0
M  V30 11318 H 1587.89 6.32625 -1.65044 0
M  V30 11319 H 1589.37 8.19355 -1.79097 0
M  V30 11320 H 1587.68 10.1305 -1.09016 0
M  V30 11321 H 1587.49 9.64276 -3.41316 0
M  V30 11322 H 1585.86 9.25417 -2.76357 0
M  V30 11323 H 1586.7 5.79354 -2.38959 0
M  V30 11324 H 1588.5 6.25169 1.0783 0
M  V30 11325 P 1590.36 8.791 1.31993e-11 0
M  V30 11326 O 1591.76 9.36698 -0.018734 0
M  V30 11327 O 1589.98 7.82499 -1.07878 0
M  V30 11328 O 1590.03 8.09434 1.41446 0
M  V30 11329 C 1589.87 9.0349 2.53943 0
M  V30 11330 C 1590.41 8.35135 3.78975 0
M  V30 11331 O 1589.36 7.57904 4.1503 0
M  V30 11332 C 1591.63 7.45087 3.67298 0
M  V30 11333 O 1592.37 7.27796 4.85194 0
M  V30 11334 C 1590.96 6.17323 3.12027 0
M  V30 11335 O 1591.76 5.04149 3.47132 0
M  V30 11336 C 1589.63 6.19961 3.81809 0
M  V30 11337 N 1588.58 5.71575 2.93223 0
M  V30 11338 C 1587.55 4.99452 3.47592 0
M  V30 11339 O 1587.59 4.7199 4.69732 0
M  V30 11340 N 1586.54 4.58505 2.6803 0
M  V30 11341 C 1586.58 4.85544 1.36995 0
M  V30 11342 C 1587.68 5.55532 0.788532 0
M  V30 11343 C 1588.65 5.97426 1.60849 0
M  V30 11344 H 1589.66 5.58142 4.72986 0
M  V30 11345 H 1590.84 6.21428 2.0318 0
M  V30 11346 H 1592.33 7.85913 2.93131 0
M  V30 11347 H 1590.63 9.11171 4.55987 0
M  V30 11348 H 1590.44 9.9573 2.34194 0
M  V30 11349 H 1588.81 9.27824 2.67805 0
M  V30 11350 H 1587.73 5.7421 -0.281588 0
M  V30 11351 H 1589.49 6.53132 1.202 0
M  V30 11352 H 1591.55 4.76386 4.34983 0
M  V30 11353 P 1593.31 7.39546 4.75277 0
M  V30 11354 O 1594.73 7.81777 5.05738 0
M  V30 11355 O 1592.95 7.1065 3.32998 0
M  V30 11356 O 1592.98 6.04542 5.56673 0
M  V30 11357 C 1592.82 6.22772 7.02095 0
M  V30 11358 C 1593.36 4.97725 7.70406 0
M  V30 11359 O 1592.31 4.13256 7.58987 0
M  V30 11360 C 1594.58 4.28231 7.11815 0
M  V30 11361 O 1595.32 3.49945 8.01648 0
M  V30 11362 C 1593.91 3.5063 5.96244 0
M  V30 11363 O 1594.71 2.36482 5.64681 0
M  V30 11364 C 1592.58 3.15122 6.56374 0
M  V30 11365 H 1592.61 2.13853 6.99751 0
M  V30 11366 H 1593.79 4.13501 5.06559 0
M  V30 11367 H 1595.28 5.03285 6.70911 0
M  V30 11368 H 1593.58 5.20877 8.75697 0
M  V30 11369 H 1593.39 7.11046 7.35349 0
M  V30 11370 H 1591.76 6.35815 7.26986 0
M  V30 11371 H 1594.4 1.61644 6.13565 0
M  V30 11372 P 1596.26 3.65191 7.99657 0
M  V30 11373 O 1597.68 3.8425 8.48115 0
M  V30 11374 O 1595.9 4.17805 6.64342 0
M  V30 11375 O 1595.94 2.07613 7.95143 0
M  V30 11376 C 1595.78 1.44328 9.27336 0
M  V30 11377 C 1596.32 0.0220036 9.17197 0
M  V30 11378 O 1595.26 -0.626867 8.61923 0
M  V30 11379 C 1597.53 -0.24586 8.30336 0
M  V30 11380 O 1598.27 -1.39011 8.63583 0
M  V30 11381 C 1596.86 -0.273849 6.91158 0
M  V30 11382 O 1597.66 -1.06348 6.02892 0
M  V30 11383 C 1595.53 -0.897649 7.22545 0
M  V30 11384 H 1595.56 -1.9841 7.04286 0
M  V30 11385 H 1596.74 0.739928 6.497 0
M  V30 11386 H 1598.23 0.60668 8.36503 0
M  V30 11387 H 1596.53 -0.352479 10.1829 0
M  V30 11388 H 1596.34 2.00611 10.0304 0
M  V30 11389 H 1594.71 1.41843 9.55327 0
M  V30 11390 H 1597.35 -1.95734 6.03555 0
M  V30 11391 P 1599.21 -1.25109 8.70152 0
M  V30 11392 O 1600.63 -1.35274 9.21221 0
M  V30 11393 O 1598.85 -0.0769065 7.84762 0
M  V30 11394 O 1598.89 -2.55232 7.81161 0
M  V30 11395 C 1598.73 -3.79939 8.58154 0
M  V30 11396 C 1599.27 -4.94023 7.72785 0
M  V30 11397 O 1598.21 -5.18726 6.91205 0
M  V30 11398 C 1600.48 -4.69597 6.85231 0
M  V30 11399 O 1601.22 -5.83832 6.51337 0
M  V30 11400 C 1599.81 -3.96706 5.66633 0
M  V30 11401 O 1600.61 -4.15414 4.49689 0
M  V30 11402 C 1598.48 -4.66153 5.59313 0
M  V30 11403 H 1598.51 -5.47679 4.85214 0
M  V30 11404 H 1599.69 -2.89008 5.86566 0
M  V30 11405 H 1601.18 -4.0121 7.36511 0
M  V30 11406 H 1599.48 -5.80182 8.37584 0
M  V30 11407 H 1599.29 -3.73517 9.52265 0
M  V30 11408 H 1597.66 -3.97163 8.80359 0
M  V30 11409 H 1600.3 -4.90969 4.01921 0
M  V30 11410 P 1602.16 -5.75688 6.64379 0
M  V30 11411 O 1603.58 -6.11849 7.01846 0
M  V30 11412 O 1601.8 -4.30744 6.56026 0
M  V30 11413 O 1601.84 -6.37042 5.19165 0
M  V30 11414 C 1601.68 -7.83578 5.16515 0
M  V30 11415 C 1602.22 -8.33398 3.83019 0
M  V30 11416 O 1601.16 -8.10074 3.01034 0
M  V30 11417 C 1603.43 -7.65514 3.2257 0
M  V30 11418 O 1604.17 -8.4329 2.32297 0
M  V30 11419 C 1602.77 -6.40075 2.62207 0
M  V30 11420 O 1603.56 -5.92589 1.53712 0
M  V30 11421 C 1601.43 -6.9454 2.18503 0
M  V30 11422 H 1601.46 -7.23063 1.12091 0
M  V30 11423 H 1602.64 -5.6025 3.37201 0
M  V30 11424 H 1604.13 -7.35707 4.02681 0
M  V30 11425 H 1602.43 -9.40912 3.9095 0
M  V30 11426 H 1602.24 -8.29056 5.99158 0
M  V30 11427 H 1600.61 -8.10073 5.25882 0
M  V30 11428 H 1603.25 -6.30324 0.726794 0
M  V30 11429 P 1605.11 -8.4349 2.47671 0
M  V30 11430 O 1606.53 -8.94167 2.5964 0
M  V30 11431 O 1604.75 -7.1704 3.19006 0
M  V30 11432 O 1604.79 -8.16596 0.923387 0
M  V30 11433 C 1604.63 -9.38437 0.108857 0
M  V30 11434 C 1605.17 -9.08175 -1.28353 0
M  V30 11435 O 1604.11 -8.44229 -1.84713 0
M  V30 11436 C 1606.39 -8.18386 -1.42505 0
M  V30 11437 O 1607.12 -8.3501 -2.60497 0
M  V30 11438 C 1605.72 -6.80225 -1.25468 0
M  V30 11439 O 1606.52 -5.81621 -1.91066 0
M  V30 11440 C 1604.38 -7.02416 -1.9168 0
M  V30 11441 H 1604.41 -6.6888 -2.96621 0
M  V30 11442 H 1605.59 -6.53617 -0.192223 0
M  V30 11443 H 1607.08 -8.36622 -0.589963 0
M  V30 11444 H 1605.38 -10.0291 -1.79807 0
M  V30 11445 H 1605.19 -10.2138 0.558219 0
M  V30 11446 H 1603.56 -9.6579 0.0444202 0
M  V30 11447 H 1606.2 -5.69556 -2.79637 0
M  V30 11448 P 1608.06 -8.4349 -2.47671 0
M  V30 11449 O 1609.48 -8.92593 -2.65 0
M  V30 11450 O 1607.7 -7.7568 -1.19296 0
M  V30 11451 O 1607.74 -7.36886 -3.63805 0
M  V30 11452 C 1607.58 -7.95349 -4.982 0
M  V30 11453 C 1608.12 -6.94612 -5.98974 0
M  V30 11454 O 1607.06 -6.10347 -6.11815 0
M  V30 11455 C 1609.34 -6.11426 -5.62335 0
M  V30 11456 O 1610.07 -5.6162 -6.70584 0
M  V30 11457 C 1608.67 -5.04409 -4.73308 0
M  V30 11458 O 1609.47 -3.85992 -4.75183 0
M  V30 11459 C 1607.33 -4.8728 -5.41006 0
M  V30 11460 H 1607.36 -4.02333 -6.11157 0
M  V30 11461 H 1608.54 -5.39466 -3.69543 0
M  V30 11462 H 1610.03 -6.71916 -5.01943 0
M  V30 11463 H 1608.33 -7.4649 -6.93477 0
M  V30 11464 H 1608.14 -8.89416 -5.05237 0
M  V30 11465 H 1606.51 -8.14876 -5.18409 0
M  V30 11466 H 1609.15 -3.27957 -5.4317 0
M  V30 11467 P 1611.01 -5.75688 -6.64379 0
M  V30 11468 O 1612.43 -6.07627 -7.05504 0
M  V30 11469 O 1610.65 -5.88047 -5.19722 0
M  V30 11470 O 1610.69 -4.2322 -7.04443 0
M  V30 11471 C 1610.53 -3.99743 -8.4911 0
M  V30 11472 C 1611.07 -2.60516 -8.79425 0
M  V30 11473 O 1610.01 -1.82684 -8.4467 0
M  V30 11474 C 1612.29 -2.10343 -8.03628 0
M  V30 11475 O 1613.02 -1.09919 -8.67766 0
M  V30 11476 C 1611.62 -1.68446 -6.70876 0
M  V30 11477 O 1612.42 -0.678137 -6.08433 0
M  V30 11478 C 1610.28 -1.17436 -7.18567 0
M  V30 11479 H 1610.31 -0.0804732 -7.31656 0
M  V30 11480 H 1611.5 -2.54037 -6.02537 0
M  V30 11481 H 1612.98 -2.93881 -7.85526 0
M  V30 11482 H 1611.29 -2.53065 -9.86973 0
M  V30 11483 H 1611.1 -4.75072 -9.05887 0
M  V30 11484 H 1609.47 -4.05244 -8.76668 0
M  V30 11485 H 1612.1 0.177647 -6.34251 0
M  V30 11486 P 1613.96 -1.25109 -8.70152 0
M  V30 11487 O 1615.38 -1.29758 -9.22115 0
M  V30 11488 O 1613.6 -2.13714 -7.55141 0
M  V30 11489 O 1613.64 0.248149 -8.21425 0
M  V30 11490 C 1613.48 1.22792 -9.30533 0
M  V30 11491 C 1614.02 2.56293 -8.80664 0
M  V30 11492 O 1612.96 3.02944 -8.09255 0
M  V30 11493 C 1615.24 2.57523 -7.89775 0
M  V30 11494 O 1615.97 3.7668 -7.89438 0
M  V30 11495 C 1614.57 2.20997 -6.55446 0
M  V30 11496 O 1615.37 2.71302 -5.48691 0
M  V30 11497 C 1613.23 2.89693 -6.67988 0
M  V30 11498 N 1612.19 2.08895 -6.07487 0
M  V30 11499 C 1612.36 0.753809 -5.94137 0
M  V30 11500 N 1611.33 0.146592 -5.38801 0
M  V30 11501 C 1610.44 1.1768 -5.13693 0
M  V30 11502 C 1609.18 1.17563 -4.52477 0
M  V30 11503 N 1608.61 2.41918 -4.45789 0
M  V30 11504 C 1609.21 3.56493 -4.90792 0
M  V30 11505 N 1610.39 3.61423 -5.47817 0
M  V30 11506 C 1610.97 2.37779 -5.5588 0
M  V30 11507 H 1614.45 1.12673 -6.44018 0
M  V30 11508 H 1615.93 1.7746 -8.19711 0
M  V30 11509 H 1614.23 3.21673 -9.66791 0
M  V30 11510 H 1614.04 0.901032 -10.1892 0
M  V30 11511 H 1612.41 1.33049 -9.56592 0
M  V30 11512 H 1613.26 0.233081 -6.26266 0
M  V30 11513 H 1615.05 3.5779 -5.23879 0
M  V30 11514 P 1616.91 3.65191 -7.99657 0
M  V30 11515 O 1618.33 3.89416 -8.45976 0
M  V30 11516 O 1616.55 2.28472 -7.50807 0
M  V30 11517 O 1616.59 4.64972 -6.77611 0
M  V30 11518 C 1616.43 6.06319 -7.16352 0
M  V30 11519 C 1616.97 6.91655 -6.02234 0
M  V30 11520 O 1615.91 6.92449 -5.17064 0
M  V30 11521 C 1618.19 6.43627 -5.25174 0
M  V30 11522 O 1618.93 7.43686 -4.60469 0
M  V30 11523 C 1617.52 5.40275 -4.31916 0
M  V30 11524 O 1618.32 5.25193 -3.14386 0
M  V30 11525 C 1616.18 6.04847 -4.05327 0
M  V30 11526 N 1615.14 5.04166 -3.98114 0
M  V30 11527 C 1615.2 3.96049 -4.75587 0
M  V30 11528 N 1614.16 3.15559 -4.54006 0
M  V30 11529 C 1613.42 3.78802 -3.62491 0
M  V30 11530 C 1612.12 3.476 -3.10071 0
M  V30 11531 O 1611.38 2.51136 -3.37021 0
M  V30 11532 N 1611.69 4.39088 -2.19956 0
M  V30 11533 C 1612.43 5.53215 -1.81733 0
M  V30 11534 N 1611.84 6.31963 -0.860928 0
M  V30 11535 N 1613.59 5.86688 -2.32562 0
M  V30 11536 C 1614.04 4.97525 -3.23407 0
M  V30 11537 H 1616.21 6.62195 -3.11261 0
M  V30 11538 H 1617.4 4.42488 -4.8131 0
M  V30 11539 H 1618.88 5.93051 -5.9305 0
M  V30 11540 H 1617.19 7.92655 -6.402 0
M  V30 11541 H 1617 6.26671 -8.0846 0
M  V30 11542 H 1615.37 6.29101 -7.32804 0
M  V30 11543 H 1610.79 4.25523 -1.77604 0
M  V30 11544 H 1616 3.75576 -5.47333 0
M  V30 11545 H 1610.93 6.04684 -0.468946 0
M  V30 11546 H 1612.3 7.18054 -0.542422 0
M  V30 11547 H 1618.01 5.84223 -2.47279 0
M  V30 11548 P 1619.86 7.39546 -4.75277 0
M  V30 11549 O 1621.26 7.86988 -5.07993 0
M  V30 11550 O 1619.48 5.99957 -5.13804 0
M  V30 11551 O 1619.54 7.57411 -3.18621 0
M  V30 11552 C 1619.38 8.97357 -2.74833 0
M  V30 11553 C 1619.92 9.0745 -1.32694 0
M  V30 11554 O 1618.86 8.61972 -0.606089 0
M  V30 11555 C 1621.14 8.25383 -0.938334 0
M  V30 11556 O 1621.88 8.74577 0.146954 0
M  V30 11557 C 1620.47 6.8802 -0.712559 0
M  V30 11558 O 1621.27 6.11791 0.194623 0
M  V30 11559 C 1619.13 7.27966 -0.139777 0
M  V30 11560 N 1618.09 6.39368 -0.623421 0
M  V30 11561 C 1617.05 6.08088 0.223886 0
M  V30 11562 O 1617.09 6.5102 1.39986 0
M  V30 11563 N 1616.04 5.30627 -0.224051 0
M  V30 11564 C 1616.09 4.82531 -1.47257 0
M  V30 11565 N 1615.08 4.07328 -1.89378 0
M  V30 11566 C 1617.19 5.09974 -2.34008 0
M  V30 11567 C 1618.15 5.89548 -1.87678 0
M  V30 11568 H 1619.16 7.25255 0.961469 0
M  V30 11569 H 1620.35 6.32625 -1.65044 0
M  V30 11570 H 1621.83 8.19631 -1.78299 0
M  V30 11571 H 1620.14 10.1305 -1.09016 0
M  V30 11572 H 1619.95 9.64276 -3.41316 0
M  V30 11573 H 1618.32 9.25321 -2.76328 0
M  V30 11574 H 1617.23 4.67832 -3.3413 0
M  V30 11575 H 1619 6.14434 -2.51991 0
M  V30 11576 H 1614.29 3.87329 -1.26296 0
M  V30 11577 H 1615.08 3.69014 -2.84741 0
M  V30 11578 H 1621.05 6.35931 1.08377 0
M  V30 11579 P 1622.81 8.791 1.35095e-11 0
M  V30 11580 O 1624.24 9.31096 0.027933 0
M  V30 11581 O 1622.45 7.77869 -1.04071 0
M  V30 11582 O 1622.49 8.09533 1.41463 0
M  V30 11583 C 1622.33 9.0349 2.53943 0
M  V30 11584 C 1622.87 8.35226 3.79016 0
M  V30 11585 O 1621.81 7.57992 4.15078 0
M  V30 11586 C 1624.09 7.45087 3.67298 0
M  V30 11587 O 1624.83 7.27796 4.85194 0
M  V30 11588 C 1623.42 6.17323 3.12027 0
M  V30 11589 O 1624.22 5.04231 3.47188 0
M  V30 11590 C 1622.08 6.19961 3.81809 0
M  V30 11591 H 1622.11 5.58218 4.73051 0
M  V30 11592 H 1623.3 6.21726 2.02589 0
M  V30 11593 H 1624.78 7.86112 2.9231 0
M  V30 11594 H 1623.09 9.11627 4.55076 0
M  V30 11595 H 1622.9 9.9573 2.34194 0
M  V30 11596 H 1621.27 9.2792 2.67832 0
M  V30 11597 H 1623.91 4.67702 4.28772 0
M  V30 11598 P 1625.76 7.39546 4.75277 0
M  V30 11599 O 1627.19 7.81777 5.05738 0
M  V30 11600 O 1625.4 7.1065 3.32998 0
M  V30 11601 O 1625.44 6.04542 5.56673 0
M  V30 11602 C 1625.28 6.22772 7.02095 0
M  V30 11603 C 1625.82 4.97725 7.70406 0
M  V30 11604 O 1624.77 4.13256 7.58987 0
M  V30 11605 C 1627.04 4.28231 7.11815 0
M  V30 11606 O 1627.78 3.49945 8.01648 0
M  V30 11607 C 1626.37 3.5063 5.96244 0
M  V30 11608 O 1627.17 2.36482 5.64681 0
M  V30 11609 C 1625.03 3.15122 6.56374 0
M  V30 11610 H 1625.07 2.13853 6.99751 0
M  V30 11611 H 1626.25 4.13501 5.06559 0
M  V30 11612 H 1627.73 5.03285 6.70911 0
M  V30 11613 H 1626.04 5.20877 8.75697 0
M  V30 11614 H 1625.85 7.11046 7.35349 0
M  V30 11615 H 1624.22 6.35815 7.26986 0
M  V30 11616 H 1626.86 1.61644 6.13565 0
M  V30 11617 P 1628.71 3.65191 7.99657 0
M  V30 11618 O 1630.14 3.84292 8.48206 0
M  V30 11619 O 1628.35 4.17805 6.64342 0
M  V30 11620 O 1628.39 2.07613 7.95143 0
M  V30 11621 C 1628.23 1.44344 9.27435 0
M  V30 11622 C 1628.77 0.0220036 9.17197 0
M  V30 11623 O 1627.72 -0.626794 8.61824 0
M  V30 11624 C 1629.99 -0.24586 8.30336 0
M  V30 11625 O 1630.73 -1.39011 8.63583 0
M  V30 11626 C 1629.32 -0.273849 6.91158 0
M  V30 11627 O 1630.12 -1.05728 6.029 0
M  V30 11628 C 1627.98 -0.897649 7.22545 0
M  V30 11629 N 1626.94 -0.292839 6.41732 0
M  V30 11630 C 1627.11 0.950603 5.91308 0
M  V30 11631 N 1626.08 1.37732 5.21105 0
M  V30 11632 C 1625.2 0.318109 5.26039 0
M  V30 11633 C 1623.93 0.146766 4.6727 0
M  V30 11634 N 1623.37 -1.06525 4.95887 0
M  V30 11635 C 1623.97 -2.0378 5.71347 0
M  V30 11636 N 1625.14 -1.92445 6.27451 0
M  V30 11637 C 1625.72 -0.715382 6.00353 0
M  V30 11638 H 1629.2 0.733318 6.49674 0
M  V30 11639 H 1630.68 0.60668 8.36503 0
M  V30 11640 H 1628.99 -0.362662 10.1825 0
M  V30 11641 H 1628.8 2.00611 10.0304 0
M  V30 11642 H 1627.17 1.41843 9.55327 0
M  V30 11643 H 1628.01 1.54076 6.07465 0
M  V30 11644 H 1629.81 -1.95704 6.0346 0
M  V30 11645 P 1631.67 -1.25109 8.70152 0
M  V30 11646 O 1633.09 -1.35274 9.21221 0
M  V30 11647 O 1631.31 -0.0769065 7.84762 0
M  V30 11648 O 1631.34 -2.55232 7.81161 0
M  V30 11649 C 1631.18 -3.79939 8.58154 0
M  V30 11650 C 1631.72 -4.94023 7.72785 0
M  V30 11651 O 1630.67 -5.18726 6.91205 0
M  V30 11652 C 1632.94 -4.69597 6.85231 0
M  V30 11653 O 1633.68 -5.83832 6.51337 0
M  V30 11654 C 1632.27 -3.96706 5.66633 0
M  V30 11655 O 1633.07 -4.15414 4.49689 0
M  V30 11656 C 1630.93 -4.66153 5.59313 0
M  V30 11657 H 1630.97 -5.47679 4.85214 0
M  V30 11658 H 1632.15 -2.89008 5.86566 0
M  V30 11659 H 1633.63 -4.0121 7.36511 0
M  V30 11660 H 1631.94 -5.80182 8.37584 0
M  V30 11661 H 1631.75 -3.73517 9.52265 0
M  V30 11662 H 1630.12 -3.97163 8.80359 0
M  V30 11663 H 1632.76 -4.90969 4.01921 0
M  V30 11664 P 1634.62 -5.75688 6.64379 0
M  V30 11665 O 1636.04 -6.11849 7.01846 0
M  V30 11666 O 1634.26 -4.30744 6.56026 0
M  V30 11667 O 1634.29 -6.37042 5.19165 0
M  V30 11668 C 1634.13 -7.83578 5.16515 0
M  V30 11669 C 1634.67 -8.33398 3.83019 0
M  V30 11670 O 1633.62 -8.10074 3.01034 0
M  V30 11671 C 1635.89 -7.65514 3.2257 0
M  V30 11672 O 1636.63 -8.4329 2.32297 0
M  V30 11673 C 1635.22 -6.40075 2.62207 0
M  V30 11674 O 1636.02 -5.92589 1.53712 0
M  V30 11675 C 1633.88 -6.9454 2.18503 0
M  V30 11676 H 1633.92 -7.23063 1.12091 0
M  V30 11677 H 1635.1 -5.6025 3.37201 0
M  V30 11678 H 1636.58 -7.35707 4.02681 0
M  V30 11679 H 1634.89 -9.40912 3.9095 0
M  V30 11680 H 1634.7 -8.29056 5.99158 0
M  V30 11681 H 1633.07 -8.10073 5.25882 0
M  V30 11682 H 1635.71 -6.30324 0.726794 0
M  V30 11683 P 1637.57 -8.4349 2.47671 0
M  V30 11684 O 1638.99 -8.94167 2.5964 0
M  V30 11685 O 1637.21 -7.1704 3.19006 0
M  V30 11686 O 1637.24 -8.16596 0.923387 0
M  V30 11687 C 1637.08 -9.38437 0.108857 0
M  V30 11688 C 1637.62 -9.08175 -1.28353 0
M  V30 11689 O 1636.57 -8.44229 -1.84713 0
M  V30 11690 C 1638.84 -8.18386 -1.42505 0
M  V30 11691 O 1639.58 -8.3501 -2.60497 0
M  V30 11692 C 1638.17 -6.80225 -1.25468 0
M  V30 11693 O 1638.97 -5.81621 -1.91066 0
M  V30 11694 C 1636.84 -7.02416 -1.9168 0
M  V30 11695 H 1636.87 -6.6888 -2.96621 0
M  V30 11696 H 1638.05 -6.53617 -0.192223 0
M  V30 11697 H 1639.53 -8.36622 -0.589963 0
M  V30 11698 H 1637.84 -10.0291 -1.79807 0
M  V30 11699 H 1637.65 -10.2138 0.558219 0
M  V30 11700 H 1636.02 -9.6579 0.0444202 0
M  V30 11701 H 1638.66 -5.69556 -2.79637 0
M  V30 11702 P 1640.52 -8.4349 -2.47671 0
M  V30 11703 O 1641.94 -8.92593 -2.65 0
M  V30 11704 O 1640.16 -7.7568 -1.19296 0
M  V30 11705 O 1640.19 -7.36886 -3.63805 0
M  V30 11706 C 1640.03 -7.95349 -4.982 0
M  V30 11707 C 1640.57 -6.94612 -5.98974 0
M  V30 11708 O 1639.52 -6.10347 -6.11815 0
M  V30 11709 C 1641.79 -6.11426 -5.62335 0
M  V30 11710 O 1642.53 -5.6162 -6.70584 0
M  V30 11711 C 1641.12 -5.04409 -4.73308 0
M  V30 11712 O 1641.92 -3.85992 -4.75183 0
M  V30 11713 C 1639.79 -4.8728 -5.41006 0
M  V30 11714 H 1639.82 -4.02333 -6.11157 0
M  V30 11715 H 1641 -5.39466 -3.69543 0
M  V30 11716 H 1642.48 -6.71916 -5.01943 0
M  V30 11717 H 1640.79 -7.4649 -6.93477 0
M  V30 11718 H 1640.6 -8.89416 -5.05237 0
M  V30 11719 H 1638.97 -8.14876 -5.18409 0
M  V30 11720 H 1641.61 -3.27957 -5.4317 0
M  V30 11721 P 1643.47 -5.75688 -6.64379 0
M  V30 11722 O 1644.89 -6.07627 -7.05504 0
M  V30 11723 O 1643.11 -5.88047 -5.19722 0
M  V30 11724 O 1643.14 -4.2322 -7.04443 0
M  V30 11725 C 1642.98 -3.99743 -8.4911 0
M  V30 11726 C 1643.52 -2.60516 -8.79425 0
M  V30 11727 O 1642.47 -1.82684 -8.4467 0
M  V30 11728 C 1644.74 -2.10343 -8.03628 0
M  V30 11729 O 1645.48 -1.09919 -8.67766 0
M  V30 11730 C 1644.07 -1.68446 -6.70876 0
M  V30 11731 O 1644.87 -0.678137 -6.08433 0
M  V30 11732 C 1642.74 -1.17436 -7.18567 0
M  V30 11733 H 1642.77 -0.0804732 -7.31656 0
M  V30 11734 H 1643.95 -2.54037 -6.02537 0
M  V30 11735 H 1645.44 -2.93881 -7.85526 0
M  V30 11736 H 1643.74 -2.53065 -9.86973 0
M  V30 11737 H 1643.55 -4.75072 -9.05887 0
M  V30 11738 H 1641.92 -4.05244 -8.76668 0
M  V30 11739 H 1644.56 0.177647 -6.34251 0
M  V30 11740 P 1646.42 -1.25109 -8.70152 0
M  V30 11741 O 1647.84 -1.29744 -9.22016 0
M  V30 11742 O 1646.06 -2.13714 -7.55141 0
M  V30 11743 O 1646.1 0.248149 -8.21425 0
M  V30 11744 C 1645.94 1.22779 -9.30434 0
M  V30 11745 C 1646.48 2.56293 -8.80664 0
M  V30 11746 O 1645.42 3.02979 -8.09349 0
M  V30 11747 C 1647.69 2.57523 -7.89775 0
M  V30 11748 O 1648.43 3.7668 -7.89438 0
M  V30 11749 C 1647.02 2.20997 -6.55446 0
M  V30 11750 O 1647.82 2.71895 -5.48509 0
M  V30 11751 C 1645.69 2.89693 -6.67988 0
M  V30 11752 H 1645.72 3.88793 -6.19859 0
M  V30 11753 H 1646.9 1.12046 -6.44229 0
M  V30 11754 H 1648.39 1.7746 -8.19711 0
M  V30 11755 H 1646.69 3.20706 -9.67112 0
M  V30 11756 H 1646.5 0.901032 -10.1892 0
M  V30 11757 H 1644.87 1.33049 -9.56592 0
M  V30 11758 H 1647.51 3.57847 -5.23962 0
M  V30 11759 P 1649.37 3.65191 -7.99657 0
M  V30 11760 O 1650.79 3.89332 -8.45794 0
M  V30 11761 O 1649.01 2.28472 -7.50807 0
M  V30 11762 O 1649.05 4.64972 -6.77611 0
M  V30 11763 C 1648.89 6.06319 -7.16352 0
M  V30 11764 C 1649.43 6.91731 -6.02299 0
M  V30 11765 O 1648.37 6.92449 -5.17064 0
M  V30 11766 C 1650.64 6.43627 -5.25174 0
M  V30 11767 O 1651.38 7.43686 -4.60469 0
M  V30 11768 C 1649.97 5.40275 -4.31916 0
M  V30 11769 O 1650.77 5.25279 -3.14438 0
M  V30 11770 C 1648.64 6.04847 -4.05327 0
M  V30 11771 H 1648.67 6.62195 -3.11261 0
M  V30 11772 H 1649.85 4.42556 -4.81383 0
M  V30 11773 H 1651.34 5.92458 -5.93643 0
M  V30 11774 H 1649.64 7.92655 -6.402 0
M  V30 11775 H 1649.45 6.26671 -8.0846 0
M  V30 11776 H 1647.82 6.29101 -7.32804 0
M  V30 11777 H 1650.46 5.84315 -2.47318 0
M  V30 11778 P 1652.32 7.39546 -4.75277 0
M  V30 11779 O 1653.74 7.84798 -5.01039 0
M  V30 11780 O 1651.96 5.9812 -5.08098 0
M  V30 11781 O 1652 7.57503 -3.1866 0
M  V30 11782 C 1651.84 8.97357 -2.74833 0
M  V30 11783 C 1652.38 9.07548 -1.32709 0
M  V30 11784 O 1651.32 8.62072 -0.606159 0
M  V30 11785 C 1653.59 8.25383 -0.938334 0
M  V30 11786 O 1654.33 8.74577 0.146954 0
M  V30 11787 C 1652.93 6.8802 -0.712559 0
M  V30 11788 O 1653.72 6.1189 0.194655 0
M  V30 11789 C 1651.59 7.27966 -0.139777 0
M  V30 11790 H 1651.62 7.25354 0.961601 0
M  V30 11791 H 1652.8 6.32557 -1.65702 0
M  V30 11792 H 1654.29 8.19355 -1.79097 0
M  V30 11793 H 1652.59 10.1294 -1.10029 0
M  V30 11794 H 1652.4 9.64276 -3.41316 0
M  V30 11795 H 1650.77 9.25417 -2.76357 0
M  V30 11796 H 1653.41 6.25267 1.07847 0
M  V30 11797 P 1655.27 8.791 1.38196e-11 0
M  V30 11798 O 1656.69 9.31096 0.027933 0
M  V30 11799 O 1654.91 7.77869 -1.04071 0
M  V30 11800 O 1654.95 8.09533 1.41463 0
M  V30 11801 C 1654.79 9.0349 2.53943 0
M  V30 11802 C 1655.33 8.35226 3.79016 0
M  V30 11803 O 1654.27 7.57992 4.15078 0
M  V30 11804 C 1656.54 7.45087 3.67298 0
M  V30 11805 O 1657.28 7.27796 4.85194 0
M  V30 11806 C 1655.88 6.17323 3.12027 0
M  V30 11807 O 1656.67 5.04231 3.47188 0
M  V30 11808 C 1654.54 6.19961 3.81809 0
M  V30 11809 H 1654.57 5.58218 4.73051 0
M  V30 11810 H 1655.75 6.21726 2.02589 0
M  V30 11811 H 1657.24 7.86112 2.9231 0
M  V30 11812 H 1655.54 9.11627 4.55076 0
M  V30 11813 H 1655.35 9.9573 2.34194 0
M  V30 11814 H 1653.72 9.2792 2.67832 0
M  V30 11815 H 1656.36 4.67702 4.28772 0
M  V30 11816 P 1658.22 7.39546 4.75277 0
M  V30 11817 O 1659.62 7.89013 5.04841 0
M  V30 11818 O 1657.84 7.16603 3.32298 0
M  V30 11819 O 1657.9 6.04468 5.56605 0
M  V30 11820 C 1657.74 6.22772 7.02095 0
M  V30 11821 C 1658.28 4.97671 7.70322 0
M  V30 11822 O 1657.22 4.13208 7.58899 0
M  V30 11823 C 1659.49 4.28231 7.11815 0
M  V30 11824 O 1660.23 3.49945 8.01648 0
M  V30 11825 C 1658.83 3.5063 5.96244 0
M  V30 11826 O 1659.63 2.36443 5.64589 0
M  V30 11827 C 1657.49 3.15122 6.56374 0
M  V30 11828 N 1656.45 3.22311 5.55692 0
M  V30 11829 C 1655.41 2.32244 5.62437 0
M  V30 11830 O 1655.45 1.43107 6.50341 0
M  V30 11831 N 1654.4 2.40811 4.73368 0
M  V30 11832 C 1654.45 3.344 3.77753 0
M  V30 11833 N 1653.44 3.41475 2.91848 0
M  V30 11834 C 1655.54 4.24712 3.66679 0
M  V30 11835 C 1656.51 4.15625 4.58307 0
M  V30 11836 H 1657.52 2.13823 6.99656 0
M  V30 11837 H 1658.7 4.12931 5.06895 0
M  V30 11838 H 1660.19 5.02674 6.71494 0
M  V30 11839 H 1658.49 5.20001 8.76217 0
M  V30 11840 H 1658.3 7.11046 7.35349 0
M  V30 11841 H 1656.67 6.35749 7.26911 0
M  V30 11842 H 1655.59 4.9828 2.86753 0
M  V30 11843 H 1657.36 4.84464 4.54228 0
M  V30 11844 H 1652.65 2.75785 2.99862 0
M  V30 11845 H 1653.44 4.12304 2.17382 0
M  V30 11846 H 1659.41 1.65592 6.23485 0
M  V30 11847 P 1661.17 3.65191 7.99657 0
M  V30 11848 O 1662.59 3.8425 8.48115 0
M  V30 11849 O 1660.81 4.17805 6.64342 0
M  V30 11850 O 1660.85 2.07613 7.95143 0
M  V30 11851 C 1660.69 1.44328 9.27336 0
M  V30 11852 C 1661.23 0.0220036 9.17197 0
M  V30 11853 O 1660.17 -0.626867 8.61923 0
M  V30 11854 C 1662.45 -0.24586 8.30336 0
M  V30 11855 O 1663.18 -1.39011 8.63583 0
M  V30 11856 C 1661.78 -0.273849 6.91158 0
M  V30 11857 O 1662.58 -1.06348 6.02892 0
M  V30 11858 C 1660.44 -0.897649 7.22545 0
M  V30 11859 H 1660.47 -1.9841 7.04286 0
M  V30 11860 H 1661.65 0.739928 6.497 0
M  V30 11861 H 1663.14 0.60668 8.36503 0
M  V30 11862 H 1661.44 -0.352479 10.1829 0
M  V30 11863 H 1661.25 2.00611 10.0304 0
M  V30 11864 H 1659.62 1.41843 9.55327 0
M  V30 11865 H 1662.26 -1.95734 6.03555 0
M  V30 11866 P 1664.12 -1.25109 8.70152 0
M  V30 11867 O 1665.54 -1.35274 9.21221 0
M  V30 11868 O 1663.76 -0.0769065 7.84762 0
M  V30 11869 O 1663.8 -2.55232 7.81161 0
M  V30 11870 C 1663.64 -3.79939 8.58154 0
M  V30 11871 C 1664.18 -4.94023 7.72785 0
M  V30 11872 O 1663.12 -5.18726 6.91205 0
M  V30 11873 C 1665.4 -4.69597 6.85231 0
M  V30 11874 O 1666.13 -5.83832 6.51337 0
M  V30 11875 C 1664.73 -3.96706 5.66633 0
M  V30 11876 O 1665.53 -4.15414 4.49689 0
M  V30 11877 C 1663.39 -4.66153 5.59313 0
M  V30 11878 H 1663.42 -5.47679 4.85214 0
M  V30 11879 H 1664.61 -2.89008 5.86566 0
M  V30 11880 H 1666.09 -4.0121 7.36511 0
M  V30 11881 H 1664.4 -5.80182 8.37584 0
M  V30 11882 H 1664.21 -3.73517 9.52265 0
M  V30 11883 H 1662.58 -3.97163 8.80359 0
M  V30 11884 H 1665.21 -4.90969 4.01921 0
M  V30 11885 P 1667.07 -5.75688 6.64379 0
M  V30 11886 O 1668.49 -6.11849 7.01846 0
M  V30 11887 O 1666.71 -4.30744 6.56026 0
M  V30 11888 O 1666.75 -6.37042 5.19165 0
M  V30 11889 C 1666.59 -7.83578 5.16515 0
M  V30 11890 C 1667.13 -8.33398 3.83019 0
M  V30 11891 O 1666.07 -8.10074 3.01034 0
M  V30 11892 C 1668.35 -7.65514 3.2257 0
M  V30 11893 O 1669.09 -8.4329 2.32297 0
M  V30 11894 C 1667.68 -6.40075 2.62207 0
M  V30 11895 O 1668.48 -5.92589 1.53712 0
M  V30 11896 C 1666.34 -6.9454 2.18503 0
M  V30 11897 H 1666.37 -7.23063 1.12091 0
M  V30 11898 H 1667.56 -5.6025 3.37201 0
M  V30 11899 H 1669.04 -7.35707 4.02681 0
M  V30 11900 H 1667.35 -9.40912 3.9095 0
M  V30 11901 H 1667.16 -8.29056 5.99158 0
M  V30 11902 H 1665.53 -8.10073 5.25882 0
M  V30 11903 H 1668.17 -6.30324 0.726794 0
M  V30 11904 P 1670.02 -8.4349 2.47671 0
M  V30 11905 O 1671.44 -8.94167 2.5964 0
M  V30 11906 O 1669.66 -7.1704 3.19006 0
M  V30 11907 O 1669.7 -8.16596 0.923387 0
M  V30 11908 C 1669.54 -9.38437 0.108857 0
M  V30 11909 C 1670.08 -9.08175 -1.28353 0
M  V30 11910 O 1669.02 -8.44229 -1.84713 0
M  V30 11911 C 1671.3 -8.18386 -1.42505 0
M  V30 11912 O 1672.04 -8.3501 -2.60497 0
M  V30 11913 C 1670.63 -6.80225 -1.25468 0
M  V30 11914 O 1671.43 -5.81621 -1.91066 0
M  V30 11915 C 1669.29 -7.02416 -1.9168 0
M  V30 11916 H 1669.32 -6.6888 -2.96621 0
M  V30 11917 H 1670.51 -6.53617 -0.192223 0
M  V30 11918 H 1671.99 -8.36622 -0.589963 0
M  V30 11919 H 1670.3 -10.0291 -1.79807 0
M  V30 11920 H 1670.11 -10.2138 0.558219 0
M  V30 11921 H 1668.48 -9.6579 0.0444202 0
M  V30 11922 H 1671.12 -5.69556 -2.79637 0
M  V30 11923 P 1672.97 -8.4349 -2.47671 0
M  V30 11924 O 1674.39 -8.92689 -2.65029 0
M  V30 11925 O 1672.61 -7.7568 -1.19296 0
M  V30 11926 O 1672.65 -7.36886 -3.63805 0
M  V30 11927 C 1672.49 -7.95433 -4.98253 0
M  V30 11928 C 1673.03 -6.94612 -5.98974 0
M  V30 11929 O 1671.98 -6.10277 -6.11744 0
M  V30 11930 C 1674.25 -6.11426 -5.62335 0
M  V30 11931 O 1674.99 -5.6162 -6.70584 0
M  V30 11932 C 1673.58 -5.04409 -4.73308 0
M  V30 11933 O 1674.38 -3.86404 -4.74719 0
M  V30 11934 C 1672.24 -4.8728 -5.41006 0
M  V30 11935 N 1671.2 -4.65812 -4.42377 0
M  V30 11936 C 1671.37 -5.09132 -3.15382 0
M  V30 11937 N 1670.34 -4.84021 -2.3716 0
M  V30 11938 C 1669.46 -4.18386 -3.20441 0
M  V30 11939 C 1668.19 -3.6275 -2.94905 0
M  V30 11940 N 1667.59 -3.65794 -1.73372 0
M  V30 11941 N 1667.62 -3.05008 -4.05243 0
M  V30 11942 C 1668.23 -2.98348 -5.28159 0
M  V30 11943 N 1669.4 -3.48171 -5.56333 0
M  V30 11944 C 1669.98 -4.06869 -4.47212 0
M  V30 11945 H 1672.27 -4.02278 -6.11074 0
M  V30 11946 H 1673.46 -5.39013 -3.70026 0
M  V30 11947 H 1674.94 -6.71916 -5.01943 0
M  V30 11948 H 1673.25 -7.45796 -6.94223 0
M  V30 11949 H 1673.06 -8.89416 -5.05237 0
M  V30 11950 H 1671.43 -8.14876 -5.18409 0
M  V30 11951 H 1667.69 -2.47853 -6.07807 0
M  V30 11952 H 1672.27 -5.59989 -2.81362 0
M  V30 11953 H 1666.66 -3.23218 -1.60782 0
M  V30 11954 H 1668.06 -4.10523 -0.937856 0
M  V30 11955 H 1674.07 -3.27906 -5.43085 0
M  V30 11956 P 1675.92 -5.75688 -6.64379 0
M  V30 11957 O 1677.35 -6.07627 -7.05504 0
M  V30 11958 O 1675.56 -5.88047 -5.19722 0
M  V30 11959 O 1675.6 -4.2322 -7.04443 0
M  V30 11960 C 1675.44 -3.99743 -8.4911 0
M  V30 11961 C 1675.98 -2.60516 -8.79425 0
M  V30 11962 O 1674.92 -1.82684 -8.4467 0
M  V30 11963 C 1677.2 -2.10343 -8.03628 0
M  V30 11964 O 1677.94 -1.09919 -8.67766 0
M  V30 11965 C 1676.53 -1.68446 -6.70876 0
M  V30 11966 O 1677.33 -0.678137 -6.08433 0
M  V30 11967 C 1675.19 -1.17436 -7.18567 0
M  V30 11968 H 1675.22 -0.0804732 -7.31656 0
M  V30 11969 H 1676.41 -2.54037 -6.02537 0
M  V30 11970 H 1677.89 -2.93881 -7.85526 0
M  V30 11971 H 1676.2 -2.53065 -9.86973 0
M  V30 11972 H 1676.01 -4.75072 -9.05887 0
M  V30 11973 H 1674.38 -4.05244 -8.76668 0
M  V30 11974 H 1677.02 0.177647 -6.34251 0
M  V30 11975 P 1678.87 -1.25109 -8.70152 0
M  V30 11976 O 1680.3 -1.29744 -9.22016 0
M  V30 11977 O 1678.51 -2.13714 -7.55141 0
M  V30 11978 O 1678.55 0.248149 -8.21425 0
M  V30 11979 C 1678.39 1.22779 -9.30434 0
M  V30 11980 C 1678.93 2.56293 -8.80664 0
M  V30 11981 O 1677.88 3.02979 -8.09349 0
M  V30 11982 C 1680.15 2.57523 -7.89775 0
M  V30 11983 O 1680.89 3.7668 -7.89438 0
M  V30 11984 C 1679.48 2.20997 -6.55446 0
M  V30 11985 O 1680.28 2.71895 -5.48509 0
M  V30 11986 C 1678.14 2.89693 -6.67988 0
M  V30 11987 H 1678.18 3.88793 -6.19859 0
M  V30 11988 H 1679.36 1.12046 -6.44229 0
M  V30 11989 H 1680.84 1.7746 -8.19711 0
M  V30 11990 H 1679.15 3.20706 -9.67112 0
M  V30 11991 H 1678.96 0.901032 -10.1892 0
M  V30 11992 H 1677.33 1.33049 -9.56592 0
M  V30 11993 H 1679.97 3.57847 -5.23962 0
M  V30 11994 P 1681.82 3.65191 -7.99657 0
M  V30 11995 O 1683.25 3.89332 -8.45794 0
M  V30 11996 O 1681.46 2.28472 -7.50807 0
M  V30 11997 O 1681.5 4.64972 -6.77611 0
M  V30 11998 C 1681.34 6.06319 -7.16352 0
M  V30 11999 C 1681.88 6.91731 -6.02299 0
M  V30 12000 O 1680.83 6.92449 -5.17064 0
M  V30 12001 C 1683.1 6.43627 -5.25174 0
M  V30 12002 O 1683.84 7.43686 -4.60469 0
M  V30 12003 C 1682.43 5.40275 -4.31916 0
M  V30 12004 O 1683.23 5.25279 -3.14438 0
M  V30 12005 C 1681.09 6.04847 -4.05327 0
M  V30 12006 H 1681.13 6.62195 -3.11261 0
M  V30 12007 H 1682.31 4.42556 -4.81383 0
M  V30 12008 H 1683.79 5.92458 -5.93643 0
M  V30 12009 H 1682.1 7.92655 -6.402 0
M  V30 12010 H 1681.91 6.26671 -8.0846 0
M  V30 12011 H 1680.28 6.29101 -7.32804 0
M  V30 12012 H 1682.92 5.84315 -2.47318 0
M  V30 12013 P 1684.78 7.39546 -4.75277 0
M  V30 12014 O 1686.2 7.84966 -5.01146 0
M  V30 12015 O 1684.42 5.9812 -5.08098 0
M  V30 12016 O 1684.45 7.57503 -3.1866 0
M  V30 12017 C 1684.29 8.97357 -2.74833 0
M  V30 12018 C 1684.83 9.0745 -1.32694 0
M  V30 12019 O 1683.78 8.62072 -0.606159 0
M  V30 12020 C 1686.05 8.25383 -0.938334 0
M  V30 12021 O 1686.79 8.74577 0.146954 0
M  V30 12022 C 1685.38 6.8802 -0.712559 0
M  V30 12023 O 1686.18 6.11791 0.194623 0
M  V30 12024 C 1684.04 7.27966 -0.139777 0
M  V30 12025 N 1683 6.39368 -0.623421 0
M  V30 12026 C 1683.06 5.90299 -1.85969 0
M  V30 12027 N 1682.02 5.10919 -2.1133 0
M  V30 12028 C 1681.28 5.14646 -1.0015 0
M  V30 12029 C 1679.98 4.60057 -0.729219 0
M  V30 12030 O 1679.25 3.93476 -1.47746 0
M  V30 12031 N 1679.55 4.88302 0.523505 0
M  V30 12032 C 1680.3 5.63646 1.46207 0
M  V30 12033 N 1679.7 5.78186 2.69239 0
M  V30 12034 N 1681.45 6.19285 1.21544 0
M  V30 12035 C 1681.91 5.93392 -0.0308487 0
M  V30 12036 H 1684.08 7.25354 0.961601 0
M  V30 12037 H 1685.26 6.3246 -1.65676 0
M  V30 12038 H 1686.74 8.19533 -1.78278 0
M  V30 12039 H 1685.05 10.1294 -1.10029 0
M  V30 12040 H 1684.86 9.64276 -3.41316 0
M  V30 12041 H 1683.23 9.25417 -2.76357 0
M  V30 12042 H 1678.65 4.53993 0.806451 0
M  V30 12043 H 1683.86 6.11865 -2.57394 0
M  V30 12044 H 1678.79 5.34046 2.87467 0
M  V30 12045 H 1680.17 6.33391 3.42578 0
M  V30 12046 H 1685.87 6.25169 1.0783 0
M  V30 12047 P 1687.73 8.791 1.41298e-11 0
M  V30 12048 O 1689.15 9.31096 0.027933 0
M  V30 12049 O 1687.37 7.77869 -1.04071 0
M  V30 12050 O 1687.4 8.09533 1.41463 0
M  V30 12051 C 1687.24 9.0349 2.53943 0
M  V30 12052 C 1687.78 8.35226 3.79016 0
M  V30 12053 O 1686.73 7.57992 4.15078 0
M  V30 12054 C 1689 7.45087 3.67298 0
M  V30 12055 O 1689.74 7.27796 4.85194 0
M  V30 12056 C 1688.33 6.17323 3.12027 0
M  V30 12057 O 1689.13 5.04231 3.47188 0
M  V30 12058 C 1687 6.19961 3.81809 0
M  V30 12059 H 1687.03 5.58218 4.73051 0
M  V30 12060 H 1688.21 6.21726 2.02589 0
M  V30 12061 H 1689.69 7.86112 2.9231 0
M  V30 12062 H 1688 9.11627 4.55076 0
M  V30 12063 H 1687.81 9.9573 2.34194 0
M  V30 12064 H 1686.18 9.2792 2.67832 0
M  V30 12065 H 1688.82 4.67702 4.28772 0
M  V30 12066 P 1690.68 7.39546 4.75277 0
M  V30 12067 O 1692.1 7.81777 5.05738 0
M  V30 12068 O 1690.32 7.1065 3.32998 0
M  V30 12069 O 1690.35 6.04542 5.56673 0
M  V30 12070 C 1690.19 6.22772 7.02095 0
M  V30 12071 C 1690.73 4.97725 7.70406 0
M  V30 12072 O 1689.68 4.13256 7.58987 0
M  V30 12073 C 1691.95 4.28231 7.11815 0
M  V30 12074 O 1692.69 3.49945 8.01648 0
M  V30 12075 C 1691.28 3.5063 5.96244 0
M  V30 12076 O 1692.08 2.36482 5.64681 0
M  V30 12077 C 1689.95 3.15122 6.56374 0
M  V30 12078 H 1689.98 2.13853 6.99751 0
M  V30 12079 H 1691.16 4.13501 5.06559 0
M  V30 12080 H 1692.64 5.03285 6.70911 0
M  V30 12081 H 1690.95 5.20877 8.75697 0
M  V30 12082 H 1690.76 7.11046 7.35349 0
M  V30 12083 H 1689.13 6.35815 7.26986 0
M  V30 12084 H 1691.77 1.61644 6.13565 0
M  V30 12085 P 1693.63 3.65191 7.99657 0
M  V30 12086 O 1695.05 3.8425 8.48115 0
M  V30 12087 O 1693.27 4.17805 6.64342 0
M  V30 12088 O 1693.3 2.07613 7.95143 0
M  V30 12089 C 1693.14 1.44328 9.27336 0
M  V30 12090 C 1693.68 0.0220036 9.17197 0
M  V30 12091 O 1692.63 -0.626867 8.61923 0
M  V30 12092 C 1694.9 -0.24586 8.30336 0
M  V30 12093 O 1695.64 -1.39011 8.63583 0
M  V30 12094 C 1694.23 -0.273849 6.91158 0
M  V30 12095 O 1695.03 -1.06348 6.02892 0
M  V30 12096 C 1692.9 -0.897649 7.22545 0
M  V30 12097 H 1692.93 -1.9841 7.04286 0
M  V30 12098 H 1694.11 0.739928 6.497 0
M  V30 12099 H 1695.6 0.60668 8.36503 0
M  V30 12100 H 1693.9 -0.352479 10.1829 0
M  V30 12101 H 1693.71 2.00611 10.0304 0
M  V30 12102 H 1692.08 1.41843 9.55327 0
M  V30 12103 H 1694.72 -1.95734 6.03555 0
M  V30 12104 P 1696.58 -1.25109 8.70152 0
M  V30 12105 O 1698 -1.35274 9.21221 0
M  V30 12106 O 1696.22 -0.0769065 7.84762 0
M  V30 12107 O 1696.25 -2.55232 7.81161 0
M  V30 12108 C 1696.09 -3.79939 8.58154 0
M  V30 12109 C 1696.63 -4.94023 7.72785 0
M  V30 12110 O 1695.58 -5.18726 6.91205 0
M  V30 12111 C 1697.85 -4.69597 6.85231 0
M  V30 12112 O 1698.59 -5.83832 6.51337 0
M  V30 12113 C 1697.18 -3.96706 5.66633 0
M  V30 12114 O 1697.98 -4.15414 4.49689 0
M  V30 12115 C 1695.85 -4.66153 5.59313 0
M  V30 12116 H 1695.88 -5.47679 4.85214 0
M  V30 12117 H 1697.06 -2.89008 5.86566 0
M  V30 12118 H 1698.55 -4.0121 7.36511 0
M  V30 12119 H 1696.85 -5.80182 8.37584 0
M  V30 12120 H 1696.66 -3.73517 9.52265 0
M  V30 12121 H 1695.03 -3.97163 8.80359 0
M  V30 12122 H 1697.67 -4.90969 4.01921 0
M  V30 12123 P 1699.53 -5.75688 6.64379 0
M  V30 12124 O 1700.95 -6.11915 7.01921 0
M  V30 12125 O 1699.17 -4.30744 6.56026 0
M  V30 12126 O 1699.21 -6.37042 5.19165 0
M  V30 12127 C 1699.04 -7.83662 5.1657 0
M  V30 12128 C 1699.59 -8.33398 3.83019 0
M  V30 12129 O 1698.53 -8.0998 3.00999 0
M  V30 12130 C 1700.8 -7.65514 3.2257 0
M  V30 12131 O 1701.54 -8.4329 2.32297 0
M  V30 12132 C 1700.14 -6.40075 2.62207 0
M  V30 12133 O 1700.93 -5.92338 1.5428 0
M  V30 12134 C 1698.8 -6.9454 2.18503 0
M  V30 12135 N 1697.75 -5.95905 2.39948 0
M  V30 12136 C 1697.92 -4.98383 3.32108 0
M  V30 12137 N 1696.9 -4.16798 3.41761 0
M  V30 12138 C 1696.01 -4.65287 2.47461 0
M  V30 12139 C 1694.74 -4.18946 2.07461 0
M  V30 12140 N 1694.18 -4.95327 1.09101 0
M  V30 12141 C 1694.78 -6.04369 0.519812 0
M  V30 12142 N 1695.96 -6.50694 0.855982 0
M  V30 12143 C 1696.53 -5.75818 1.84322 0
M  V30 12144 H 1700.01 -5.60502 3.36589 0
M  V30 12145 H 1701.5 -7.35707 4.02681 0
M  V30 12146 H 1699.8 -9.41302 3.90009 0
M  V30 12147 H 1699.61 -8.29056 5.99158 0
M  V30 12148 H 1697.98 -8.10073 5.25882 0
M  V30 12149 H 1698.82 -4.88564 3.92502 0
M  V30 12150 H 1700.62 -6.30224 0.72668 0
M  V30 12151 P 1702.48 -8.4349 2.47671 0
M  V30 12152 O 1703.9 -8.94167 2.5964 0
M  V30 12153 O 1702.12 -7.1704 3.19006 0
M  V30 12154 O 1702.16 -8.16596 0.923387 0
M  V30 12155 C 1702 -9.38437 0.108857 0
M  V30 12156 C 1702.54 -9.08175 -1.28353 0
M  V30 12157 O 1701.48 -8.44229 -1.84713 0
M  V30 12158 C 1703.75 -8.18386 -1.42505 0
M  V30 12159 O 1704.49 -8.3501 -2.60497 0
M  V30 12160 C 1703.08 -6.80225 -1.25468 0
M  V30 12161 O 1703.88 -5.81621 -1.91066 0
M  V30 12162 C 1701.75 -7.02416 -1.9168 0
M  V30 12163 H 1701.78 -6.6888 -2.96621 0
M  V30 12164 H 1702.96 -6.53617 -0.192223 0
M  V30 12165 H 1704.45 -8.36622 -0.589963 0
M  V30 12166 H 1702.75 -10.0291 -1.79807 0
M  V30 12167 H 1702.56 -10.2138 0.558219 0
M  V30 12168 H 1700.93 -9.6579 0.0444202 0
M  V30 12169 H 1703.57 -5.69556 -2.79637 0
M  V30 12170 P 1705.43 -8.4349 -2.47671 0
M  V30 12171 O 1706.85 -8.92593 -2.65 0
M  V30 12172 O 1705.07 -7.7568 -1.19296 0
M  V30 12173 O 1705.11 -7.36886 -3.63805 0
M  V30 12174 C 1704.95 -7.95349 -4.982 0
M  V30 12175 C 1705.49 -6.94612 -5.98974 0
M  V30 12176 O 1704.43 -6.10347 -6.11815 0
M  V30 12177 C 1706.7 -6.11426 -5.62335 0
M  V30 12178 O 1707.44 -5.6162 -6.70584 0
M  V30 12179 C 1706.04 -5.04409 -4.73308 0
M  V30 12180 O 1706.83 -3.85992 -4.75183 0
M  V30 12181 C 1704.7 -4.8728 -5.41006 0
M  V30 12182 H 1704.73 -4.02333 -6.11157 0
M  V30 12183 H 1705.91 -5.39466 -3.69543 0
M  V30 12184 H 1707.4 -6.71916 -5.01943 0
M  V30 12185 H 1705.7 -7.4649 -6.93477 0
M  V30 12186 H 1705.51 -8.89416 -5.05237 0
M  V30 12187 H 1703.88 -8.14876 -5.18409 0
M  V30 12188 H 1706.52 -3.27957 -5.4317 0
M  V30 12189 P 1708.38 -5.75688 -6.64379 0
M  V30 12190 O 1709.8 -6.07627 -7.05504 0
M  V30 12191 O 1708.02 -5.88047 -5.19722 0
M  V30 12192 O 1708.06 -4.2322 -7.04443 0
M  V30 12193 C 1707.9 -3.99743 -8.4911 0
M  V30 12194 C 1708.44 -2.60516 -8.79425 0
M  V30 12195 O 1707.38 -1.82684 -8.4467 0
M  V30 12196 C 1709.66 -2.10343 -8.03628 0
M  V30 12197 O 1710.39 -1.09919 -8.67766 0
M  V30 12198 C 1708.99 -1.68446 -6.70876 0
M  V30 12199 O 1709.79 -0.678137 -6.08433 0
M  V30 12200 C 1707.65 -1.17436 -7.18567 0
M  V30 12201 H 1707.68 -0.0804732 -7.31656 0
M  V30 12202 H 1708.86 -2.54037 -6.02537 0
M  V30 12203 H 1710.35 -2.93881 -7.85526 0
M  V30 12204 H 1708.65 -2.53065 -9.86973 0
M  V30 12205 H 1708.46 -4.75072 -9.05887 0
M  V30 12206 H 1706.83 -4.05244 -8.76668 0
M  V30 12207 H 1709.47 0.177647 -6.34251 0
M  V30 12208 P 1711.33 -1.25109 -8.70152 0
M  V30 12209 O 1712.75 -1.29744 -9.22016 0
M  V30 12210 O 1710.97 -2.13714 -7.55141 0
M  V30 12211 O 1711.01 0.248149 -8.21425 0
M  V30 12212 C 1710.85 1.22779 -9.30434 0
M  V30 12213 C 1711.39 2.56293 -8.80664 0
M  V30 12214 O 1710.33 3.02979 -8.09349 0
M  V30 12215 C 1712.61 2.57523 -7.89775 0
M  V30 12216 O 1713.34 3.7668 -7.89438 0
M  V30 12217 C 1711.94 2.20997 -6.55446 0
M  V30 12218 O 1712.74 2.71895 -5.48509 0
M  V30 12219 C 1710.6 2.89693 -6.67988 0
M  V30 12220 H 1710.63 3.88793 -6.19859 0
M  V30 12221 H 1711.81 1.12046 -6.44229 0
M  V30 12222 H 1713.3 1.7746 -8.19711 0
M  V30 12223 H 1711.6 3.20706 -9.67112 0
M  V30 12224 H 1711.41 0.901032 -10.1892 0
M  V30 12225 H 1709.78 1.33049 -9.56592 0
M  V30 12226 H 1712.42 3.57847 -5.23962 0
M  V30 12227 P 1714.28 3.65191 -7.99657 0
M  V30 12228 O 1715.68 3.87414 -8.52829 0
M  V30 12229 O 1713.9 2.26932 -7.566 0
M  V30 12230 O 1713.96 4.64915 -6.77529 0
M  V30 12231 C 1713.8 6.06319 -7.16352 0
M  V30 12232 C 1714.34 6.91655 -6.02234 0
M  V30 12233 O 1713.28 6.92369 -5.17005 0
M  V30 12234 C 1715.56 6.43627 -5.25174 0
M  V30 12235 O 1716.29 7.43686 -4.60469 0
M  V30 12236 C 1714.89 5.40275 -4.31916 0
M  V30 12237 O 1715.69 5.25193 -3.14386 0
M  V30 12238 C 1713.55 6.04847 -4.05327 0
M  V30 12239 N 1712.51 5.04166 -3.98114 0
M  V30 12240 C 1711.47 5.2366 -3.09923 0
M  V30 12241 O 1711.51 6.23355 -2.34204 0
M  V30 12242 N 1710.46 4.34279 -3.05727 0
M  V30 12243 C 1710.51 3.26317 -3.84756 0
M  V30 12244 N 1709.5 2.40281 -3.79534 0
M  V30 12245 C 1711.6 3.02504 -4.72573 0
M  V30 12246 C 1712.57 3.94493 -4.76618 0
M  V30 12247 H 1713.58 6.62104 -3.11218 0
M  V30 12248 H 1714.77 4.42969 -4.80867 0
M  V30 12249 H 1716.25 5.93122 -5.93121 0
M  V30 12250 H 1714.56 7.93295 -6.39407 0
M  V30 12251 H 1714.36 6.26671 -8.0846 0
M  V30 12252 H 1712.73 6.29036 -7.32728 0
M  V30 12253 H 1711.65 2.12921 -5.34017 0
M  V30 12254 H 1713.42 3.80658 -5.44176 0
M  V30 12255 H 1708.71 2.57561 -3.15653 0
M  V30 12256 H 1709.5 1.56492 -4.39044 0
M  V30 12257 H 1715.47 5.93572 -2.52637 0
M  V30 12258 P 1717.23 7.39546 -4.75277 0
M  V30 12259 O 1718.65 7.84798 -5.01039 0
M  V30 12260 O 1716.87 5.9812 -5.08098 0
M  V30 12261 O 1716.91 7.57503 -3.1866 0
M  V30 12262 C 1716.75 8.97357 -2.74833 0
M  V30 12263 C 1717.29 9.07548 -1.32709 0
M  V30 12264 O 1716.23 8.62072 -0.606159 0
M  V30 12265 C 1718.51 8.25383 -0.938334 0
M  V30 12266 O 1719.24 8.74577 0.146954 0
M  V30 12267 C 1717.84 6.8802 -0.712559 0
M  V30 12268 O 1718.64 6.1189 0.194655 0
M  V30 12269 C 1716.5 7.27966 -0.139777 0
M  V30 12270 H 1716.53 7.25354 0.961601 0
M  V30 12271 H 1717.72 6.32557 -1.65702 0
M  V30 12272 H 1719.2 8.19355 -1.79097 0
M  V30 12273 H 1717.51 10.1294 -1.10029 0
M  V30 12274 H 1717.32 9.64276 -3.41316 0
M  V30 12275 H 1715.69 9.25417 -2.76357 0
M  V30 12276 H 1718.32 6.25267 1.07847 0
M  V30 12277 P 1720.18 8.791 1.44399e-11 0
M  V30 12278 O 1721.6 9.31096 0.027933 0
M  V30 12279 O 1719.82 7.77869 -1.04071 0
M  V30 12280 O 1719.86 8.09533 1.41463 0
M  V30 12281 C 1719.7 9.0349 2.53943 0
M  V30 12282 C 1720.24 8.35226 3.79016 0
M  V30 12283 O 1719.18 7.57992 4.15078 0
M  V30 12284 C 1721.46 7.45087 3.67298 0
M  V30 12285 O 1722.2 7.27796 4.85194 0
M  V30 12286 C 1720.79 6.17323 3.12027 0
M  V30 12287 O 1721.59 5.04231 3.47188 0
M  V30 12288 C 1719.45 6.19961 3.81809 0
M  V30 12289 H 1719.48 5.58218 4.73051 0
M  V30 12290 H 1720.67 6.21726 2.02589 0
M  V30 12291 H 1722.15 7.86112 2.9231 0
M  V30 12292 H 1720.46 9.11627 4.55076 0
M  V30 12293 H 1720.27 9.9573 2.34194 0
M  V30 12294 H 1718.64 9.2792 2.67832 0
M  V30 12295 H 1721.28 4.67702 4.28772 0
M  V30 12296 P 1723.13 7.39546 4.75277 0
M  V30 12297 O 1724.53 7.89013 5.04841 0
M  V30 12298 O 1722.75 7.16603 3.32298 0
M  V30 12299 O 1722.81 6.04468 5.56605 0
M  V30 12300 C 1722.65 6.22772 7.02095 0
M  V30 12301 C 1723.19 4.97671 7.70322 0
M  V30 12302 O 1722.13 4.13208 7.58899 0
M  V30 12303 C 1724.41 4.28231 7.11815 0
M  V30 12304 O 1725.15 3.49945 8.01648 0
M  V30 12305 C 1723.74 3.5063 5.96244 0
M  V30 12306 O 1724.54 2.36443 5.64589 0
M  V30 12307 C 1722.4 3.15122 6.56374 0
M  V30 12308 N 1721.36 3.22311 5.55692 0
M  V30 12309 C 1720.32 2.32244 5.62437 0
M  V30 12310 O 1720.36 1.43107 6.50341 0
M  V30 12311 N 1719.31 2.40811 4.73368 0
M  V30 12312 C 1719.36 3.344 3.77753 0
M  V30 12313 N 1718.35 3.41475 2.91848 0
M  V30 12314 C 1720.46 4.24712 3.66679 0
M  V30 12315 C 1721.42 4.15625 4.58307 0
M  V30 12316 H 1722.43 2.13823 6.99656 0
M  V30 12317 H 1723.62 4.12931 5.06895 0
M  V30 12318 H 1725.1 5.02674 6.71494 0
M  V30 12319 H 1723.41 5.20001 8.76217 0
M  V30 12320 H 1723.22 7.11046 7.35349 0
M  V30 12321 H 1721.59 6.35749 7.26911 0
M  V30 12322 H 1720.5 4.9828 2.86753 0
M  V30 12323 H 1722.27 4.84464 4.54228 0
M  V30 12324 H 1717.56 2.75785 2.99862 0
M  V30 12325 H 1718.35 4.12304 2.17382 0
M  V30 12326 H 1724.32 1.65592 6.23485 0
M  V30 12327 P 1726.08 3.65191 7.99657 0
M  V30 12328 O 1727.51 3.8425 8.48115 0
M  V30 12329 O 1725.72 4.17805 6.64342 0
M  V30 12330 O 1725.76 2.07613 7.95143 0
M  V30 12331 C 1725.6 1.44328 9.27336 0
M  V30 12332 C 1726.14 0.0220036 9.17197 0
M  V30 12333 O 1725.08 -0.626867 8.61923 0
M  V30 12334 C 1727.36 -0.24586 8.30336 0
M  V30 12335 O 1728.1 -1.39011 8.63583 0
M  V30 12336 C 1726.69 -0.273849 6.91158 0
M  V30 12337 O 1727.49 -1.06348 6.02892 0
M  V30 12338 C 1725.35 -0.897649 7.22545 0
M  V30 12339 H 1725.38 -1.9841 7.04286 0
M  V30 12340 H 1726.57 0.739928 6.497 0
M  V30 12341 H 1728.05 0.60668 8.36503 0
M  V30 12342 H 1726.36 -0.352479 10.1829 0
M  V30 12343 H 1726.17 2.00611 10.0304 0
M  V30 12344 H 1724.54 1.41843 9.55327 0
M  V30 12345 H 1727.18 -1.95734 6.03555 0
M  V30 12346 P 1729.03 -1.25109 8.70152 0
M  V30 12347 O 1730.46 -1.35274 9.21221 0
M  V30 12348 O 1728.67 -0.0769065 7.84762 0
M  V30 12349 O 1728.71 -2.55232 7.81161 0
M  V30 12350 C 1728.55 -3.79939 8.58154 0
M  V30 12351 C 1729.09 -4.94023 7.72785 0
M  V30 12352 O 1728.04 -5.18726 6.91205 0
M  V30 12353 C 1730.31 -4.69597 6.85231 0
M  V30 12354 O 1731.05 -5.83832 6.51337 0
M  V30 12355 C 1729.64 -3.96706 5.66633 0
M  V30 12356 O 1730.44 -4.15414 4.49689 0
M  V30 12357 C 1728.3 -4.66153 5.59313 0
M  V30 12358 H 1728.34 -5.47679 4.85214 0
M  V30 12359 H 1729.52 -2.89008 5.86566 0
M  V30 12360 H 1731 -4.0121 7.36511 0
M  V30 12361 H 1729.31 -5.80182 8.37584 0
M  V30 12362 H 1729.12 -3.73517 9.52265 0
M  V30 12363 H 1727.49 -3.97163 8.80359 0
M  V30 12364 H 1730.13 -4.90969 4.01921 0
M  V30 12365 P 1731.98 -5.75688 6.64379 0
M  V30 12366 O 1733.41 -6.11849 7.01846 0
M  V30 12367 O 1731.62 -4.30744 6.56026 0
M  V30 12368 O 1731.66 -6.37042 5.19165 0
M  V30 12369 C 1731.5 -7.83578 5.16515 0
M  V30 12370 C 1732.04 -8.33398 3.83019 0
M  V30 12371 O 1730.99 -8.10074 3.01034 0
M  V30 12372 C 1733.26 -7.65514 3.2257 0
M  V30 12373 O 1734 -8.4329 2.32297 0
M  V30 12374 C 1732.59 -6.40075 2.62207 0
M  V30 12375 O 1733.39 -5.92589 1.53712 0
M  V30 12376 C 1731.25 -6.9454 2.18503 0
M  V30 12377 H 1731.29 -7.23063 1.12091 0
M  V30 12378 H 1732.47 -5.6025 3.37201 0
M  V30 12379 H 1733.95 -7.35707 4.02681 0
M  V30 12380 H 1732.26 -9.40912 3.9095 0
M  V30 12381 H 1732.07 -8.29056 5.99158 0
M  V30 12382 H 1730.44 -8.10073 5.25882 0
M  V30 12383 H 1733.08 -6.30324 0.726794 0
M  V30 12384 P 1734.94 -8.4349 2.47671 0
M  V30 12385 O 1736.36 -8.94167 2.5964 0
M  V30 12386 O 1734.58 -7.1704 3.19006 0
M  V30 12387 O 1734.61 -8.16596 0.923387 0
M  V30 12388 C 1734.45 -9.38437 0.108857 0
M  V30 12389 C 1734.99 -9.08175 -1.28353 0
M  V30 12390 O 1733.94 -8.44229 -1.84713 0
M  V30 12391 C 1736.21 -8.18386 -1.42505 0
M  V30 12392 O 1736.95 -8.3501 -2.60497 0
M  V30 12393 C 1735.54 -6.80225 -1.25468 0
M  V30 12394 O 1736.34 -5.81621 -1.91066 0
M  V30 12395 C 1734.2 -7.02416 -1.9168 0
M  V30 12396 H 1734.24 -6.6888 -2.96621 0
M  V30 12397 H 1735.42 -6.53617 -0.192223 0
M  V30 12398 H 1736.9 -8.36622 -0.589963 0
M  V30 12399 H 1735.21 -10.0291 -1.79807 0
M  V30 12400 H 1735.02 -10.2138 0.558219 0
M  V30 12401 H 1733.39 -9.6579 0.0444202 0
M  V30 12402 H 1736.03 -5.69556 -2.79637 0
M  V30 12403 P 1737.89 -8.4349 -2.47671 0
M  V30 12404 O 1739.31 -8.92593 -2.65 0
M  V30 12405 O 1737.53 -7.7568 -1.19296 0
M  V30 12406 O 1737.56 -7.36886 -3.63805 0
M  V30 12407 C 1737.4 -7.95349 -4.982 0
M  V30 12408 C 1737.94 -6.94612 -5.98974 0
M  V30 12409 O 1736.89 -6.10347 -6.11815 0
M  V30 12410 C 1739.16 -6.11426 -5.62335 0
M  V30 12411 O 1739.9 -5.6162 -6.70584 0
M  V30 12412 C 1738.49 -5.04409 -4.73308 0
M  V30 12413 O 1739.29 -3.85992 -4.75183 0
M  V30 12414 C 1737.15 -4.8728 -5.41006 0
M  V30 12415 H 1737.19 -4.02333 -6.11157 0
M  V30 12416 H 1738.37 -5.39466 -3.69543 0
M  V30 12417 H 1739.85 -6.71916 -5.01943 0
M  V30 12418 H 1738.16 -7.4649 -6.93477 0
M  V30 12419 H 1737.97 -8.89416 -5.05237 0
M  V30 12420 H 1736.34 -8.14876 -5.18409 0
M  V30 12421 H 1738.98 -3.27957 -5.4317 0
M  V30 12422 P 1740.84 -5.75688 -6.64379 0
M  V30 12423 O 1742.26 -6.07627 -7.05504 0
M  V30 12424 O 1740.48 -5.88047 -5.19722 0
M  V30 12425 O 1740.51 -4.2322 -7.04443 0
M  V30 12426 C 1740.35 -3.99743 -8.4911 0
M  V30 12427 C 1740.89 -2.60516 -8.79425 0
M  V30 12428 O 1739.84 -1.82684 -8.4467 0
M  V30 12429 C 1742.11 -2.10343 -8.03628 0
M  V30 12430 O 1742.85 -1.09919 -8.67766 0
M  V30 12431 C 1741.44 -1.68446 -6.70876 0
M  V30 12432 O 1742.24 -0.678137 -6.08433 0
M  V30 12433 C 1740.11 -1.17436 -7.18567 0
M  V30 12434 H 1740.14 -0.0804732 -7.31656 0
M  V30 12435 H 1741.32 -2.54037 -6.02537 0
M  V30 12436 H 1742.8 -2.93881 -7.85526 0
M  V30 12437 H 1741.11 -2.53065 -9.86973 0
M  V30 12438 H 1740.92 -4.75072 -9.05887 0
M  V30 12439 H 1739.29 -4.05244 -8.76668 0
M  V30 12440 H 1741.93 0.177647 -6.34251 0
M  V30 12441 P 1743.79 -1.25109 -8.70152 0
M  V30 12442 O 1745.21 -1.29758 -9.22115 0
M  V30 12443 O 1743.43 -2.13714 -7.55141 0
M  V30 12444 O 1743.46 0.248149 -8.21425 0
M  V30 12445 C 1743.3 1.22792 -9.30533 0
M  V30 12446 C 1743.84 2.56293 -8.80664 0
M  V30 12447 O 1742.79 3.02944 -8.09255 0
M  V30 12448 C 1745.06 2.57523 -7.89775 0
M  V30 12449 O 1745.8 3.7668 -7.89438 0
M  V30 12450 C 1744.39 2.20997 -6.55446 0
M  V30 12451 O 1745.19 2.71302 -5.48691 0
M  V30 12452 C 1743.06 2.89693 -6.67988 0
M  V30 12453 N 1742.01 2.08895 -6.07487 0
M  V30 12454 C 1742.18 0.753809 -5.94137 0
M  V30 12455 N 1741.15 0.146592 -5.38801 0
M  V30 12456 C 1740.27 1.1768 -5.13693 0
M  V30 12457 C 1739 1.17563 -4.52477 0
M  V30 12458 N 1738.4 0.057481 -4.04759 0
M  V30 12459 N 1738.44 2.41918 -4.45789 0
M  V30 12460 C 1739.04 3.56493 -4.90792 0
M  V30 12461 N 1740.22 3.61423 -5.47817 0
M  V30 12462 C 1740.79 2.37779 -5.5588 0
M  V30 12463 H 1743.09 3.8874 -6.19774 0
M  V30 12464 H 1744.27 1.12673 -6.44018 0
M  V30 12465 H 1745.75 1.7746 -8.19711 0
M  V30 12466 H 1744.06 3.21673 -9.66791 0
M  V30 12467 H 1743.87 0.901032 -10.1892 0
M  V30 12468 H 1742.24 1.33049 -9.56592 0
M  V30 12469 H 1738.5 4.49919 -4.77947 0
M  V30 12470 H 1743.08 0.233081 -6.26266 0
M  V30 12471 H 1737.47 0.119831 -3.60801 0
M  V30 12472 H 1738.88 -0.852272 -4.12385 0
M  V30 12473 H 1744.88 3.5779 -5.23879 0
M  V30 12474 P 1746.74 3.65191 -7.99657 0
M  V30 12475 O 1748.16 3.89332 -8.45794 0
M  V30 12476 O 1746.38 2.28472 -7.50807 0
M  V30 12477 O 1746.41 4.64972 -6.77611 0
M  V30 12478 C 1746.25 6.06319 -7.16352 0
M  V30 12479 C 1746.79 6.91731 -6.02299 0
M  V30 12480 O 1745.74 6.92449 -5.17064 0
M  V30 12481 C 1748.01 6.43627 -5.25174 0
M  V30 12482 O 1748.75 7.43686 -4.60469 0
M  V30 12483 C 1747.34 5.40275 -4.31916 0
M  V30 12484 O 1748.14 5.25279 -3.14438 0
M  V30 12485 C 1746.01 6.04847 -4.05327 0
M  V30 12486 H 1746.04 6.62195 -3.11261 0
M  V30 12487 H 1747.22 4.42556 -4.81383 0
M  V30 12488 H 1748.71 5.92458 -5.93643 0
M  V30 12489 H 1747.01 7.92655 -6.402 0
M  V30 12490 H 1746.82 6.26671 -8.0846 0
M  V30 12491 H 1745.19 6.29101 -7.32804 0
M  V30 12492 H 1747.83 5.84315 -2.47318 0
M  V30 12493 P 1749.69 7.39546 -4.75277 0
M  V30 12494 O 1751.09 7.86988 -5.07993 0
M  V30 12495 O 1749.31 5.99957 -5.13804 0
M  V30 12496 O 1749.37 7.57411 -3.18621 0
M  V30 12497 C 1749.21 8.97357 -2.74833 0
M  V30 12498 C 1749.75 9.0745 -1.32694 0
M  V30 12499 O 1748.69 8.61972 -0.606089 0
M  V30 12500 C 1750.96 8.25383 -0.938334 0
M  V30 12501 O 1751.7 8.74577 0.146954 0
M  V30 12502 C 1750.3 6.8802 -0.712559 0
M  V30 12503 O 1751.09 6.11791 0.194623 0
M  V30 12504 C 1748.96 7.27966 -0.139777 0
M  V30 12505 N 1747.91 6.39368 -0.623421 0
M  V30 12506 C 1746.88 6.08088 0.223886 0
M  V30 12507 O 1746.92 6.5102 1.39986 0
M  V30 12508 N 1745.87 5.30627 -0.224051 0
M  V30 12509 C 1745.92 4.82531 -1.47257 0
M  V30 12510 C 1747.01 5.09974 -2.34008 0
M  V30 12511 C 1747.98 5.89548 -1.87678 0
M  V30 12512 H 1748.99 7.25255 0.961469 0
M  V30 12513 H 1750.17 6.32625 -1.65044 0
M  V30 12514 H 1751.66 8.19631 -1.78299 0
M  V30 12515 H 1749.96 10.1305 -1.09016 0
M  V30 12516 H 1749.77 9.64276 -3.41316 0
M  V30 12517 H 1748.14 9.25321 -2.76328 0
M  V30 12518 H 1747.06 4.67832 -3.3413 0
M  V30 12519 H 1748.82 6.14434 -2.51991 0
M  V30 12520 H 1750.88 6.35931 1.08377 0
M  V30 12521 P 1752.64 8.791 1.47501e-11 0
M  V30 12522 O 1754.06 9.31096 0.027933 0
M  V30 12523 O 1752.28 7.77869 -1.04071 0
M  V30 12524 O 1752.32 8.09533 1.41463 0
M  V30 12525 C 1752.16 9.0349 2.53943 0
M  V30 12526 C 1752.7 8.35226 3.79016 0
M  V30 12527 O 1751.64 7.57992 4.15078 0
M  V30 12528 C 1753.91 7.45087 3.67298 0
M  V30 12529 O 1754.65 7.27796 4.85194 0
M  V30 12530 C 1753.24 6.17323 3.12027 0
M  V30 12531 O 1754.04 5.04231 3.47188 0
M  V30 12532 C 1751.91 6.19961 3.81809 0
M  V30 12533 H 1751.94 5.58218 4.73051 0
M  V30 12534 H 1753.12 6.21726 2.02589 0
M  V30 12535 H 1754.61 7.86112 2.9231 0
M  V30 12536 H 1752.91 9.11627 4.55076 0
M  V30 12537 H 1752.72 9.9573 2.34194 0
M  V30 12538 H 1751.09 9.2792 2.67832 0
M  V30 12539 H 1753.73 4.67702 4.28772 0
M  V30 12540 P 1755.59 7.39546 4.75277 0
M  V30 12541 O 1757.01 7.81777 5.05738 0
M  V30 12542 O 1755.23 7.1065 3.32998 0
M  V30 12543 O 1755.27 6.04542 5.56673 0
M  V30 12544 C 1755.11 6.22772 7.02095 0
M  V30 12545 C 1755.65 4.97725 7.70406 0
M  V30 12546 O 1754.59 4.13256 7.58987 0
M  V30 12547 C 1756.86 4.28231 7.11815 0
M  V30 12548 O 1757.6 3.49945 8.01648 0
M  V30 12549 C 1756.2 3.5063 5.96244 0
M  V30 12550 O 1756.99 2.36482 5.64681 0
M  V30 12551 C 1754.86 3.15122 6.56374 0
M  V30 12552 H 1754.89 2.13853 6.99751 0
M  V30 12553 H 1756.07 4.13501 5.06559 0
M  V30 12554 H 1757.56 5.03285 6.70911 0
M  V30 12555 H 1755.86 5.20877 8.75697 0
M  V30 12556 H 1755.67 7.11046 7.35349 0
M  V30 12557 H 1754.04 6.35815 7.26986 0
M  V30 12558 H 1756.68 1.61644 6.13565 0
M  V30 12559 P 1758.54 3.65191 7.99657 0
M  V30 12560 O 1759.94 3.90823 8.51272 0
M  V30 12561 O 1758.16 4.23191 6.66972 0
M  V30 12562 O 1758.22 2.07587 7.95046 0
M  V30 12563 C 1758.06 1.44328 9.27336 0
M  V30 12564 C 1758.6 0.0220012 9.17097 0
M  V30 12565 O 1757.54 -0.626794 8.61824 0
M  V30 12566 C 1759.81 -0.24586 8.30336 0
M  V30 12567 O 1760.55 -1.39011 8.63583 0
M  V30 12568 C 1759.15 -0.273849 6.91158 0
M  V30 12569 O 1759.94 -1.06331 6.02794 0
M  V30 12570 C 1757.81 -0.897649 7.22545 0
M  V30 12571 N 1756.77 -0.292839 6.41732 0
M  V30 12572 C 1755.73 -1.08701 5.98712 0
M  V30 12573 O 1755.77 -2.31211 6.24471 0
M  V30 12574 N 1754.72 -0.533391 5.28415 0
M  V30 12575 C 1754.77 0.770866 4.98576 0
M  V30 12576 C 1755.86 1.59049 5.38086 0
M  V30 12577 C 1756.83 1.01866 6.10256 0
M  V30 12578 H 1757.84 -1.98383 7.04189 0
M  V30 12579 H 1759.02 0.733318 6.49674 0
M  V30 12580 H 1760.51 0.598386 8.36663 0
M  V30 12581 H 1758.81 -0.362662 10.1825 0
M  V30 12582 H 1758.62 2.00611 10.0304 0
M  V30 12583 H 1756.99 1.41828 9.55228 0
M  V30 12584 H 1755.91 2.6415 5.10622 0
M  V30 12585 H 1757.67 1.61983 6.44042 0
M  V30 12586 H 1759.73 -1.97777 6.14035 0
M  V30 12587 P 1761.49 -1.25109 8.70152 0
M  V30 12588 O 1762.91 -1.35274 9.21221 0
M  V30 12589 O 1761.13 -0.0769065 7.84762 0
M  V30 12590 O 1761.17 -2.55232 7.81161 0
M  V30 12591 C 1761.01 -3.79939 8.58154 0
M  V30 12592 C 1761.55 -4.94023 7.72785 0
M  V30 12593 O 1760.49 -5.18726 6.91205 0
M  V30 12594 C 1762.77 -4.69597 6.85231 0
M  V30 12595 O 1763.5 -5.83832 6.51337 0
M  V30 12596 C 1762.1 -3.96706 5.66633 0
M  V30 12597 O 1762.9 -4.15414 4.49689 0
M  V30 12598 C 1760.76 -4.66153 5.59313 0
M  V30 12599 H 1760.79 -5.47679 4.85214 0
M  V30 12600 H 1761.97 -2.89008 5.86566 0
M  V30 12601 H 1763.46 -4.0121 7.36511 0
M  V30 12602 H 1761.76 -5.80182 8.37584 0
M  V30 12603 H 1761.57 -3.73517 9.52265 0
M  V30 12604 H 1759.94 -3.97163 8.80359 0
M  V30 12605 H 1762.58 -4.90969 4.01921 0
M  V30 12606 P 1764.44 -5.75688 6.64379 0
M  V30 12607 O 1765.86 -6.11849 7.01846 0
M  V30 12608 O 1764.08 -4.30744 6.56026 0
M  V30 12609 O 1764.12 -6.37042 5.19165 0
M  V30 12610 C 1763.96 -7.83578 5.16515 0
M  V30 12611 C 1764.5 -8.33398 3.83019 0
M  V30 12612 O 1763.44 -8.10074 3.01034 0
M  V30 12613 C 1765.72 -7.65514 3.2257 0
M  V30 12614 O 1766.45 -8.4329 2.32297 0
M  V30 12615 C 1765.05 -6.40075 2.62207 0
M  V30 12616 O 1765.85 -5.92589 1.53712 0
M  V30 12617 C 1763.71 -6.9454 2.18503 0
M  V30 12618 H 1763.74 -7.23063 1.12091 0
M  V30 12619 H 1764.92 -5.6025 3.37201 0
M  V30 12620 H 1766.41 -7.35707 4.02681 0
M  V30 12621 H 1764.71 -9.40912 3.9095 0
M  V30 12622 H 1764.52 -8.29056 5.99158 0
M  V30 12623 H 1762.89 -8.10073 5.25882 0
M  V30 12624 H 1765.53 -6.30324 0.726794 0
M  V30 12625 P 1767.39 -8.4349 2.47671 0
M  V30 12626 O 1768.81 -8.94167 2.5964 0
M  V30 12627 O 1767.03 -7.1704 3.19006 0
M  V30 12628 O 1767.07 -8.16596 0.923387 0
M  V30 12629 C 1766.91 -9.38437 0.108857 0
M  V30 12630 C 1767.45 -9.08175 -1.28353 0
M  V30 12631 O 1766.39 -8.44229 -1.84713 0
M  V30 12632 C 1768.67 -8.18386 -1.42505 0
M  V30 12633 O 1769.4 -8.3501 -2.60497 0
M  V30 12634 C 1768 -6.80225 -1.25468 0
M  V30 12635 O 1768.8 -5.81621 -1.91066 0
M  V30 12636 C 1766.66 -7.02416 -1.9168 0
M  V30 12637 H 1766.69 -6.6888 -2.96621 0
M  V30 12638 H 1767.88 -6.53617 -0.192223 0
M  V30 12639 H 1769.36 -8.36622 -0.589963 0
M  V30 12640 H 1767.67 -10.0291 -1.79807 0
M  V30 12641 H 1767.48 -10.2138 0.558219 0
M  V30 12642 H 1765.85 -9.6579 0.0444202 0
M  V30 12643 H 1768.48 -5.69556 -2.79637 0
M  V30 12644 P 1770.34 -8.4349 -2.47671 0
M  V30 12645 O 1771.76 -8.92593 -2.65 0
M  V30 12646 O 1769.98 -7.7568 -1.19296 0
M  V30 12647 O 1770.02 -7.36886 -3.63805 0
M  V30 12648 C 1769.86 -7.95349 -4.982 0
M  V30 12649 C 1770.4 -6.94612 -5.98974 0
M  V30 12650 O 1769.34 -6.10347 -6.11815 0
M  V30 12651 C 1771.62 -6.11426 -5.62335 0
M  V30 12652 O 1772.35 -5.6162 -6.70584 0
M  V30 12653 C 1770.95 -5.04409 -4.73308 0
M  V30 12654 O 1771.75 -3.85992 -4.75183 0
M  V30 12655 C 1769.61 -4.8728 -5.41006 0
M  V30 12656 H 1769.64 -4.02333 -6.11157 0
M  V30 12657 H 1770.83 -5.39466 -3.69543 0
M  V30 12658 H 1772.31 -6.71916 -5.01943 0
M  V30 12659 H 1770.62 -7.4649 -6.93477 0
M  V30 12660 H 1770.43 -8.89416 -5.05237 0
M  V30 12661 H 1768.8 -8.14876 -5.18409 0
M  V30 12662 H 1771.43 -3.27957 -5.4317 0
M  V30 12663 P 1773.29 -5.75688 -6.64379 0
M  V30 12664 O 1774.71 -6.07627 -7.05504 0
M  V30 12665 O 1772.93 -5.88047 -5.19722 0
M  V30 12666 O 1772.97 -4.2322 -7.04443 0
M  V30 12667 C 1772.81 -3.99743 -8.4911 0
M  V30 12668 C 1773.35 -2.60516 -8.79425 0
M  V30 12669 O 1772.29 -1.82684 -8.4467 0
M  V30 12670 C 1774.57 -2.10343 -8.03628 0
M  V30 12671 O 1775.31 -1.09919 -8.67766 0
M  V30 12672 C 1773.9 -1.68446 -6.70876 0
M  V30 12673 O 1774.7 -0.678137 -6.08433 0
M  V30 12674 C 1772.56 -1.17436 -7.18567 0
M  V30 12675 H 1772.59 -0.0804732 -7.31656 0
M  V30 12676 H 1773.78 -2.54037 -6.02537 0
M  V30 12677 H 1775.26 -2.93881 -7.85526 0
M  V30 12678 H 1773.57 -2.53065 -9.86973 0
M  V30 12679 H 1773.38 -4.75072 -9.05887 0
M  V30 12680 H 1771.75 -4.05244 -8.76668 0
M  V30 12681 H 1774.39 0.177647 -6.34251 0
M  V30 12682 P 1776.24 -1.25109 -8.70152 0
M  V30 12683 O 1777.67 -1.29744 -9.22016 0
M  V30 12684 O 1775.88 -2.13714 -7.55141 0
M  V30 12685 O 1775.92 0.248149 -8.21425 0
M  V30 12686 C 1775.76 1.22779 -9.30434 0
M  V30 12687 C 1776.3 2.56293 -8.80664 0
M  V30 12688 O 1775.24 3.02979 -8.09349 0
M  V30 12689 C 1777.52 2.57523 -7.89775 0
M  V30 12690 O 1778.26 3.7668 -7.89438 0
M  V30 12691 C 1776.85 2.20997 -6.55446 0
M  V30 12692 O 1777.65 2.71895 -5.48509 0
M  V30 12693 C 1775.51 2.89693 -6.67988 0
M  V30 12694 H 1775.54 3.88793 -6.19859 0
M  V30 12695 H 1776.73 1.12046 -6.44229 0
M  V30 12696 H 1778.21 1.7746 -8.19711 0
M  V30 12697 H 1776.52 3.20706 -9.67112 0
M  V30 12698 H 1776.33 0.901032 -10.1892 0
M  V30 12699 H 1774.7 1.33049 -9.56592 0
M  V30 12700 H 1777.34 3.57847 -5.23962 0
M  V30 12701 P 1779.19 3.65191 -7.99657 0
M  V30 12702 O 1780.62 3.89332 -8.45794 0
M  V30 12703 O 1778.83 2.28472 -7.50807 0
M  V30 12704 O 1778.87 4.64972 -6.77611 0
M  V30 12705 C 1778.71 6.06319 -7.16352 0
M  V30 12706 C 1779.25 6.91731 -6.02299 0
M  V30 12707 O 1778.19 6.92449 -5.17064 0
M  V30 12708 C 1780.47 6.43627 -5.25174 0
M  V30 12709 O 1781.21 7.43686 -4.60469 0
M  V30 12710 C 1779.8 5.40275 -4.31916 0
M  V30 12711 O 1780.6 5.25279 -3.14438 0
M  V30 12712 C 1778.46 6.04847 -4.05327 0
M  V30 12713 H 1778.49 6.62195 -3.11261 0
M  V30 12714 H 1779.68 4.42556 -4.81383 0
M  V30 12715 H 1781.16 5.92458 -5.93643 0
M  V30 12716 H 1779.47 7.92655 -6.402 0
M  V30 12717 H 1779.28 6.26671 -8.0846 0
M  V30 12718 H 1777.65 6.29101 -7.32804 0
M  V30 12719 H 1780.29 5.84315 -2.47318 0
M  V30 12720 P 1782.14 7.39546 -4.75277 0
M  V30 12721 O 1783.57 7.84798 -5.01039 0
M  V30 12722 O 1781.78 5.9812 -5.08098 0
M  V30 12723 O 1781.82 7.57503 -3.1866 0
M  V30 12724 C 1781.66 8.97357 -2.74833 0
M  V30 12725 C 1782.2 9.07548 -1.32709 0
M  V30 12726 O 1781.15 8.62072 -0.606159 0
M  V30 12727 C 1783.42 8.25383 -0.938334 0
M  V30 12728 O 1784.16 8.74577 0.146954 0
M  V30 12729 C 1782.75 6.8802 -0.712559 0
M  V30 12730 O 1783.55 6.1189 0.194655 0
M  V30 12731 C 1781.41 7.27966 -0.139777 0
M  V30 12732 H 1781.45 7.25354 0.961601 0
M  V30 12733 H 1782.63 6.32557 -1.65702 0
M  V30 12734 H 1784.11 8.19355 -1.79097 0
M  V30 12735 H 1782.42 10.1294 -1.10029 0
M  V30 12736 H 1782.23 9.64276 -3.41316 0
M  V30 12737 H 1780.6 9.25417 -2.76357 0
M  V30 12738 H 1783.24 6.25267 1.07847 0
M  V30 12739 P 1785.09 8.791 1.50603e-11 0
M  V30 12740 O 1786.52 9.31096 0.027933 0
M  V30 12741 O 1784.73 7.77869 -1.04071 0
M  V30 12742 O 1784.77 8.09533 1.41463 0
M  V30 12743 C 1784.61 9.0349 2.53943 0
M  V30 12744 C 1785.15 8.35226 3.79016 0
M  V30 12745 O 1784.1 7.57992 4.15078 0
M  V30 12746 C 1786.37 7.45087 3.67298 0
M  V30 12747 O 1787.11 7.27796 4.85194 0
M  V30 12748 C 1785.7 6.17323 3.12027 0
M  V30 12749 O 1786.5 5.04231 3.47188 0
M  V30 12750 C 1784.36 6.19961 3.81809 0
M  V30 12751 H 1784.4 5.58218 4.73051 0
M  V30 12752 H 1785.58 6.21726 2.02589 0
M  V30 12753 H 1787.06 7.86112 2.9231 0
M  V30 12754 H 1785.37 9.11627 4.55076 0
M  V30 12755 H 1785.18 9.9573 2.34194 0
M  V30 12756 H 1783.55 9.2792 2.67832 0
M  V30 12757 H 1786.19 4.67702 4.28772 0
M  V30 12758 P 1788.05 7.39546 4.75277 0
M  V30 12759 O 1789.47 7.81777 5.05738 0
M  V30 12760 O 1787.69 7.1065 3.32998 0
M  V30 12761 O 1787.72 6.04542 5.56673 0
M  V30 12762 C 1787.56 6.22772 7.02095 0
M  V30 12763 C 1788.1 4.97725 7.70406 0
M  V30 12764 O 1787.05 4.13256 7.58987 0
M  V30 12765 C 1789.32 4.28231 7.11815 0
M  V30 12766 O 1790.06 3.49945 8.01648 0
M  V30 12767 C 1788.65 3.5063 5.96244 0
M  V30 12768 O 1789.45 2.36482 5.64681 0
M  V30 12769 C 1787.31 3.15122 6.56374 0
M  V30 12770 H 1787.35 2.13853 6.99751 0
M  V30 12771 H 1788.53 4.13501 5.06559 0
M  V30 12772 H 1790.01 5.03285 6.70911 0
M  V30 12773 H 1788.32 5.20877 8.75697 0
M  V30 12774 H 1788.13 7.11046 7.35349 0
M  V30 12775 H 1786.5 6.35815 7.26986 0
M  V30 12776 H 1789.14 1.61644 6.13565 0
M  V30 12777 P 1791 3.65191 7.99657 0
M  V30 12778 O 1792.42 3.8425 8.48115 0
M  V30 12779 O 1790.64 4.17805 6.64342 0
M  V30 12780 O 1790.67 2.07613 7.95143 0
M  V30 12781 C 1790.51 1.44328 9.27336 0
M  V30 12782 C 1791.05 0.0220036 9.17197 0
M  V30 12783 O 1790 -0.626867 8.61923 0
M  V30 12784 C 1792.27 -0.24586 8.30336 0
M  V30 12785 O 1793.01 -1.39011 8.63583 0
M  V30 12786 C 1791.6 -0.273849 6.91158 0
M  V30 12787 O 1792.4 -1.06348 6.02892 0
M  V30 12788 C 1790.26 -0.897649 7.22545 0
M  V30 12789 H 1790.3 -1.9841 7.04286 0
M  V30 12790 H 1791.48 0.739928 6.497 0
M  V30 12791 H 1792.96 0.60668 8.36503 0
M  V30 12792 H 1791.27 -0.352479 10.1829 0
M  V30 12793 H 1791.08 2.00611 10.0304 0
M  V30 12794 H 1789.45 1.41843 9.55327 0
M  V30 12795 H 1792.09 -1.95734 6.03555 0
M  V30 12796 P 1793.95 -1.25109 8.70152 0
M  V30 12797 O 1795.37 -1.35274 9.21221 0
M  V30 12798 O 1793.59 -0.0769065 7.84762 0
M  V30 12799 O 1793.62 -2.55232 7.81161 0
M  V30 12800 C 1793.46 -3.79939 8.58154 0
M  V30 12801 C 1794 -4.94023 7.72785 0
M  V30 12802 O 1792.95 -5.18726 6.91205 0
M  V30 12803 C 1795.22 -4.69597 6.85231 0
M  V30 12804 O 1795.96 -5.83832 6.51337 0
M  V30 12805 C 1794.55 -3.96706 5.66633 0
M  V30 12806 O 1795.35 -4.15414 4.49689 0
M  V30 12807 C 1793.22 -4.66153 5.59313 0
M  V30 12808 H 1793.25 -5.47679 4.85214 0
M  V30 12809 H 1794.43 -2.89008 5.86566 0
M  V30 12810 H 1795.91 -4.0121 7.36511 0
M  V30 12811 H 1794.22 -5.80182 8.37584 0
M  V30 12812 H 1794.03 -3.73517 9.52265 0
M  V30 12813 H 1792.4 -3.97163 8.80359 0
M  V30 12814 H 1795.04 -4.90969 4.01921 0
M  V30 12815 P 1796.9 -5.75688 6.64379 0
M  V30 12816 O 1798.32 -6.11849 7.01846 0
M  V30 12817 O 1796.54 -4.30744 6.56026 0
M  V30 12818 O 1796.57 -6.37042 5.19165 0
M  V30 12819 C 1796.41 -7.83578 5.16515 0
M  V30 12820 C 1796.95 -8.33398 3.83019 0
M  V30 12821 O 1795.9 -8.10074 3.01034 0
M  V30 12822 C 1798.17 -7.65514 3.2257 0
M  V30 12823 O 1798.91 -8.4329 2.32297 0
M  V30 12824 C 1797.5 -6.40075 2.62207 0
M  V30 12825 O 1798.3 -5.92589 1.53712 0
M  V30 12826 C 1796.17 -6.9454 2.18503 0
M  V30 12827 H 1796.2 -7.23063 1.12091 0
M  V30 12828 H 1797.38 -5.6025 3.37201 0
M  V30 12829 H 1798.87 -7.35707 4.02681 0
M  V30 12830 H 1797.17 -9.40912 3.9095 0
M  V30 12831 H 1796.98 -8.29056 5.99158 0
M  V30 12832 H 1795.35 -8.10073 5.25882 0
M  V30 12833 H 1797.99 -6.30324 0.726794 0
M  V30 12834 P 1799.85 -8.4349 2.47671 0
M  V30 12835 O 1801.27 -8.94263 2.59668 0
M  V30 12836 O 1799.49 -7.1704 3.19006 0
M  V30 12837 O 1799.52 -8.16596 0.923387 0
M  V30 12838 C 1799.36 -9.38537 0.108869 0
M  V30 12839 C 1799.9 -9.08175 -1.28353 0
M  V30 12840 O 1798.85 -8.44131 -1.84692 0
M  V30 12841 C 1801.12 -8.18386 -1.42505 0
M  V30 12842 O 1801.86 -8.3501 -2.60497 0
M  V30 12843 C 1800.45 -6.80225 -1.25468 0
M  V30 12844 O 1801.25 -5.81716 -1.90454 0
M  V30 12845 C 1799.12 -7.02416 -1.9168 0
M  V30 12846 N 1798.07 -6.31033 -1.20314 0
M  V30 12847 C 1798.24 -5.98817 0.0994088 0
M  V30 12848 N 1797.22 -5.35403 0.621694 0
M  V30 12849 C 1796.33 -5.25212 -0.43376 0
M  V30 12850 C 1795.06 -4.64602 -0.519722 0
M  V30 12851 N 1794.5 -4.7568 -1.76013 0
M  V30 12852 C 1795.1 -5.3653 -2.83017 0
M  V30 12853 N 1796.28 -5.93676 -2.79782 0
M  V30 12854 C 1796.85 -5.84061 -1.56249 0
M  V30 12855 H 1800.33 -6.53498 -0.198729 0
M  V30 12856 H 1801.81 -8.36622 -0.589963 0
M  V30 12857 H 1800.12 -10.0273 -1.8081 0
M  V30 12858 H 1799.93 -10.2138 0.558219 0
M  V30 12859 H 1798.3 -9.6579 0.0444202 0
M  V30 12860 H 1799.14 -6.23209 0.660562 0
M  V30 12861 H 1800.94 -5.69466 -2.79593 0
M  V30 12862 P 1802.8 -8.4349 -2.47671 0
M  V30 12863 O 1804.22 -8.92593 -2.65 0
M  V30 12864 O 1802.44 -7.7568 -1.19296 0
M  V30 12865 O 1802.48 -7.36886 -3.63805 0
M  V30 12866 C 1802.32 -7.95349 -4.982 0
M  V30 12867 C 1802.86 -6.94612 -5.98974 0
M  V30 12868 O 1801.8 -6.10347 -6.11815 0
M  V30 12869 C 1804.07 -6.11426 -5.62335 0
M  V30 12870 O 1804.81 -5.6162 -6.70584 0
M  V30 12871 C 1803.4 -5.04409 -4.73308 0
M  V30 12872 O 1804.2 -3.85992 -4.75183 0
M  V30 12873 C 1802.07 -4.8728 -5.41006 0
M  V30 12874 H 1802.1 -4.02333 -6.11157 0
M  V30 12875 H 1803.28 -5.39466 -3.69543 0
M  V30 12876 H 1804.77 -6.71916 -5.01943 0
M  V30 12877 H 1803.07 -7.4649 -6.93477 0
M  V30 12878 H 1802.88 -8.89416 -5.05237 0
M  V30 12879 H 1801.25 -8.14876 -5.18409 0
M  V30 12880 H 1803.89 -3.27957 -5.4317 0
M  V30 12881 P 1805.75 -5.75688 -6.64379 0
M  V30 12882 O 1807.17 -6.07627 -7.05504 0
M  V30 12883 O 1805.39 -5.88047 -5.19722 0
M  V30 12884 O 1805.43 -4.2322 -7.04443 0
M  V30 12885 C 1805.27 -3.99743 -8.4911 0
M  V30 12886 C 1805.81 -2.60516 -8.79425 0
M  V30 12887 O 1804.75 -1.82684 -8.4467 0
M  V30 12888 C 1807.02 -2.10343 -8.03628 0
M  V30 12889 O 1807.76 -1.09919 -8.67766 0
M  V30 12890 C 1806.35 -1.68446 -6.70876 0
M  V30 12891 O 1807.15 -0.678137 -6.08433 0
M  V30 12892 C 1805.02 -1.17436 -7.18567 0
M  V30 12893 H 1805.05 -0.0804732 -7.31656 0
M  V30 12894 H 1806.23 -2.54037 -6.02537 0
M  V30 12895 H 1807.72 -2.93881 -7.85526 0
M  V30 12896 H 1806.02 -2.53065 -9.86973 0
M  V30 12897 H 1805.83 -4.75072 -9.05887 0
M  V30 12898 H 1804.2 -4.05244 -8.76668 0
M  V30 12899 H 1806.84 0.177647 -6.34251 0
M  V30 12900 P 1808.7 -1.25109 -8.70152 0
M  V30 12901 O 1810.1 -1.3516 -9.26897 0
M  V30 12902 O 1808.32 -2.18141 -7.59181 0
M  V30 12903 O 1808.38 0.248118 -8.21325 0
M  V30 12904 C 1808.22 1.22779 -9.30434 0
M  V30 12905 C 1808.76 2.56265 -8.80568 0
M  V30 12906 O 1807.7 3.02944 -8.09255 0
M  V30 12907 C 1809.97 2.57523 -7.89775 0
M  V30 12908 O 1810.71 3.7668 -7.89438 0
M  V30 12909 C 1809.31 2.20997 -6.55446 0
M  V30 12910 O 1810.1 2.71851 -5.48419 0
M  V30 12911 C 1807.97 2.89693 -6.67988 0
M  V30 12912 N 1806.93 2.08895 -6.07487 0
M  V30 12913 C 1805.89 2.72974 -5.43836 0
M  V30 12914 O 1805.93 3.97779 -5.34036 0
M  V30 12915 N 1804.88 2.0005 -4.91983 0
M  V30 12916 C 1804.93 0.66501 -5.00098 0
M  V30 12917 C 1806.02 -0.0100979 -5.61099 0
M  V30 12918 C 1806.99 0.74189 -6.14236 0
M  V30 12919 H 1808 3.8874 -6.19774 0
M  V30 12920 H 1809.18 1.12673 -6.44018 0
M  V30 12921 H 1810.67 1.783 -8.19631 0
M  V30 12922 H 1808.97 3.21673 -9.66791 0
M  V30 12923 H 1808.78 0.901032 -10.1892 0
M  V30 12924 H 1807.15 1.33036 -9.56493 0
M  V30 12925 H 1806.07 -1.09591 -5.64358 0
M  V30 12926 H 1807.83 0.260263 -6.6359 0
M  V30 12927 H 1809.89 3.62759 -5.33442 0
M  V30 12928 P 1811.65 3.65191 -7.99657 0
M  V30 12929 O 1813.07 3.89332 -8.45794 0
M  V30 12930 O 1811.29 2.28472 -7.50807 0
M  V30 12931 O 1811.33 4.64972 -6.77611 0
M  V30 12932 C 1811.17 6.06319 -7.16352 0
M  V30 12933 C 1811.71 6.91731 -6.02299 0
M  V30 12934 O 1810.65 6.92449 -5.17064 0
M  V30 12935 C 1812.92 6.43627 -5.25174 0
M  V30 12936 O 1813.66 7.43686 -4.60469 0
M  V30 12937 C 1812.26 5.40275 -4.31916 0
M  V30 12938 O 1813.05 5.25279 -3.14438 0
M  V30 12939 C 1810.92 6.04847 -4.05327 0
M  V30 12940 H 1810.95 6.62195 -3.11261 0
M  V30 12941 H 1812.13 4.42556 -4.81383 0
M  V30 12942 H 1813.62 5.92458 -5.93643 0
M  V30 12943 H 1811.92 7.92655 -6.402 0
M  V30 12944 H 1811.73 6.26671 -8.0846 0
M  V30 12945 H 1810.1 6.29101 -7.32804 0
M  V30 12946 H 1812.74 5.84315 -2.47318 0
M  V30 12947 P 1814.6 7.39546 -4.75277 0
M  V30 12948 O 1816.02 7.84798 -5.01039 0
M  V30 12949 O 1814.24 5.9812 -5.08098 0
M  V30 12950 O 1814.28 7.57503 -3.1866 0
M  V30 12951 C 1814.12 8.97357 -2.74833 0
M  V30 12952 C 1814.66 9.07548 -1.32709 0
M  V30 12953 O 1813.6 8.62072 -0.606159 0
M  V30 12954 C 1815.88 8.25383 -0.938334 0
M  V30 12955 O 1816.61 8.74577 0.146954 0
M  V30 12956 C 1815.21 6.8802 -0.712559 0
M  V30 12957 O 1816.01 6.1189 0.194655 0
M  V30 12958 C 1813.87 7.27966 -0.139777 0
M  V30 12959 H 1813.9 7.25354 0.961601 0
M  V30 12960 H 1815.08 6.32557 -1.65702 0
M  V30 12961 H 1816.57 8.19355 -1.79097 0
M  V30 12962 H 1814.87 10.1294 -1.10029 0
M  V30 12963 H 1814.68 9.64276 -3.41316 0
M  V30 12964 H 1813.05 9.25417 -2.76357 0
M  V30 12965 H 1815.69 6.25267 1.07847 0
M  V30 12966 P 1817.55 8.791 1.53704e-11 0
M  V30 12967 O 1818.97 9.31096 0.027933 0
M  V30 12968 O 1817.19 7.77869 -1.04071 0
M  V30 12969 O 1817.23 8.09533 1.41463 0
M  V30 12970 C 1817.07 9.0349 2.53943 0
M  V30 12971 C 1817.61 8.35226 3.79016 0
M  V30 12972 O 1816.55 7.57992 4.15078 0
M  V30 12973 C 1818.83 7.45087 3.67298 0
M  V30 12974 O 1819.56 7.27796 4.85194 0
M  V30 12975 C 1818.16 6.17323 3.12027 0
M  V30 12976 O 1818.96 5.04231 3.47188 0
M  V30 12977 C 1816.82 6.19961 3.81809 0
M  V30 12978 H 1816.85 5.58218 4.73051 0
M  V30 12979 H 1818.04 6.21726 2.02589 0
M  V30 12980 H 1819.52 7.86112 2.9231 0
M  V30 12981 H 1817.83 9.11627 4.55076 0
M  V30 12982 H 1817.64 9.9573 2.34194 0
M  V30 12983 H 1816.01 9.2792 2.67832 0
M  V30 12984 H 1818.64 4.67702 4.28772 0
M  V30 12985 P 1820.5 7.39546 4.75277 0
M  V30 12986 O 1821.92 7.81777 5.05738 0
M  V30 12987 O 1820.14 7.1065 3.32998 0
M  V30 12988 O 1820.18 6.04542 5.56673 0
M  V30 12989 C 1820.02 6.22772 7.02095 0
M  V30 12990 C 1820.56 4.97725 7.70406 0
M  V30 12991 O 1819.5 4.13256 7.58987 0
M  V30 12992 C 1821.78 4.28231 7.11815 0
M  V30 12993 O 1822.51 3.49945 8.01648 0
M  V30 12994 C 1821.11 3.5063 5.96244 0
M  V30 12995 O 1821.91 2.36482 5.64681 0
M  V30 12996 C 1819.77 3.15122 6.56374 0
M  V30 12997 H 1819.8 2.13853 6.99751 0
M  V30 12998 H 1820.99 4.13501 5.06559 0
M  V30 12999 H 1822.47 5.03285 6.70911 0
M  V30 13000 H 1820.78 5.20877 8.75697 0
M  V30 13001 H 1820.59 7.11046 7.35349 0
M  V30 13002 H 1818.96 6.35815 7.26986 0
M  V30 13003 H 1821.59 1.61644 6.13565 0
M  V30 13004 P 1823.45 3.65191 7.99657 0
M  V30 13005 O 1824.87 3.8425 8.48115 0
M  V30 13006 O 1823.09 4.17805 6.64342 0
M  V30 13007 O 1823.13 2.07613 7.95143 0
M  V30 13008 C 1822.97 1.44328 9.27336 0
M  V30 13009 C 1823.51 0.0220036 9.17197 0
M  V30 13010 O 1822.45 -0.626867 8.61923 0
M  V30 13011 C 1824.73 -0.24586 8.30336 0
M  V30 13012 O 1825.47 -1.39011 8.63583 0
M  V30 13013 C 1824.06 -0.273849 6.91158 0
M  V30 13014 O 1824.86 -1.06348 6.02892 0
M  V30 13015 C 1822.72 -0.897649 7.22545 0
M  V30 13016 H 1822.75 -1.9841 7.04286 0
M  V30 13017 H 1823.94 0.739928 6.497 0
M  V30 13018 H 1825.42 0.60668 8.36503 0
M  V30 13019 H 1823.73 -0.352479 10.1829 0
M  V30 13020 H 1823.54 2.00611 10.0304 0
M  V30 13021 H 1821.91 1.41843 9.55327 0
M  V30 13022 H 1824.55 -1.95734 6.03555 0
M  V30 13023 P 1826.4 -1.25109 8.70152 0
M  V30 13024 O 1827.8 -1.31452 9.27431 0
M  V30 13025 O 1826.02 -0.0458113 7.89887 0
M  V30 13026 O 1826.08 -2.55201 7.81066 0
M  V30 13027 C 1825.92 -3.79939 8.58154 0
M  V30 13028 C 1826.46 -4.93969 7.72701 0
M  V30 13029 O 1825.4 -5.18666 6.91125 0
M  V30 13030 C 1827.68 -4.69597 6.85231 0
M  V30 13031 O 1828.42 -5.83832 6.51337 0
M  V30 13032 C 1827.01 -3.96706 5.66633 0
M  V30 13033 O 1827.81 -4.15346 4.49615 0
M  V30 13034 C 1825.67 -4.66153 5.59313 0
M  V30 13035 N 1824.63 -3.71582 5.24027 0
M  V30 13036 C 1823.59 -4.15133 4.44901 0
M  V30 13037 O 1823.63 -5.32122 4.00336 0
M  V30 13038 N 1822.58 -3.30554 4.15693 0
M  V30 13039 C 1822.63 -2.04701 4.61105 0
M  V30 13040 N 1821.62 -1.23621 4.31855 0
M  V30 13041 C 1823.73 -1.57111 5.38655 0
M  V30 13042 C 1824.69 -2.44234 5.68454 0
M  V30 13043 H 1825.7 -5.47604 4.85148 0
M  V30 13044 H 1826.89 -2.8955 5.86187 0
M  V30 13045 H 1828.37 -4.01995 7.36197 0
M  V30 13046 H 1826.68 -5.81019 8.37003 0
M  V30 13047 H 1826.49 -3.73517 9.52265 0
M  V30 13048 H 1824.86 -3.97122 8.80267 0
M  V30 13049 H 1823.77 -0.538464 5.72373 0
M  V30 13050 H 1825.54 -2.11927 6.29377 0
M  V30 13051 H 1820.83 -1.58199 3.7543 0
M  V30 13052 H 1821.62 -0.264601 4.65348 0
M  V30 13053 H 1827.59 -4.98352 4.09633 0
M  V30 13054 P 1829.35 -5.75688 6.64379 0
M  V30 13055 O 1830.78 -6.11849 7.01846 0
M  V30 13056 O 1828.99 -4.30744 6.56026 0
M  V30 13057 O 1829.03 -6.37042 5.19165 0
M  V30 13058 C 1828.87 -7.83578 5.16515 0
M  V30 13059 C 1829.41 -8.33398 3.83019 0
M  V30 13060 O 1828.35 -8.10074 3.01034 0
M  V30 13061 C 1830.63 -7.65514 3.2257 0
M  V30 13062 O 1831.37 -8.4329 2.32297 0
M  V30 13063 C 1829.96 -6.40075 2.62207 0
M  V30 13064 O 1830.76 -5.92589 1.53712 0
M  V30 13065 C 1828.62 -6.9454 2.18503 0
M  V30 13066 H 1828.65 -7.23063 1.12091 0
M  V30 13067 H 1829.84 -5.6025 3.37201 0
M  V30 13068 H 1831.32 -7.35707 4.02681 0
M  V30 13069 H 1829.63 -9.40912 3.9095 0
M  V30 13070 H 1829.44 -8.29056 5.99158 0
M  V30 13071 H 1827.81 -8.10073 5.25882 0
M  V30 13072 H 1830.45 -6.30324 0.726794 0
M  V30 13073 P 1832.3 -8.4349 2.47671 0
M  V30 13074 O 1833.73 -8.94167 2.5964 0
M  V30 13075 O 1831.94 -7.1704 3.19006 0
M  V30 13076 O 1831.98 -8.16596 0.923387 0
M  V30 13077 C 1831.82 -9.38437 0.108857 0
M  V30 13078 C 1832.36 -9.08175 -1.28353 0
M  V30 13079 O 1831.3 -8.44229 -1.84713 0
M  V30 13080 C 1833.58 -8.18386 -1.42505 0
M  V30 13081 O 1834.32 -8.3501 -2.60497 0
M  V30 13082 C 1832.91 -6.80225 -1.25468 0
M  V30 13083 O 1833.71 -5.81621 -1.91066 0
M  V30 13084 C 1831.57 -7.02416 -1.9168 0
M  V30 13085 H 1831.6 -6.6888 -2.96621 0
M  V30 13086 H 1832.79 -6.53617 -0.192223 0
M  V30 13087 H 1834.27 -8.36622 -0.589963 0
M  V30 13088 H 1832.58 -10.0291 -1.79807 0
M  V30 13089 H 1832.39 -10.2138 0.558219 0
M  V30 13090 H 1830.76 -9.6579 0.0444202 0
M  V30 13091 H 1833.4 -5.69556 -2.79637 0
M  V30 13092 P 1835.25 -8.4349 -2.47671 0
M  V30 13093 O 1836.68 -8.92593 -2.65 0
M  V30 13094 O 1834.89 -7.7568 -1.19296 0
M  V30 13095 O 1834.93 -7.36886 -3.63805 0
M  V30 13096 C 1834.77 -7.95349 -4.982 0
M  V30 13097 C 1835.31 -6.94612 -5.98974 0
M  V30 13098 O 1834.26 -6.10347 -6.11815 0
M  V30 13099 C 1836.53 -6.11426 -5.62335 0
M  V30 13100 O 1837.27 -5.6162 -6.70584 0
M  V30 13101 C 1835.86 -5.04409 -4.73308 0
M  V30 13102 O 1836.66 -3.85992 -4.75183 0
M  V30 13103 C 1834.52 -4.8728 -5.41006 0
M  V30 13104 H 1834.56 -4.02333 -6.11157 0
M  V30 13105 H 1835.74 -5.39466 -3.69543 0
M  V30 13106 H 1837.22 -6.71916 -5.01943 0
M  V30 13107 H 1835.53 -7.4649 -6.93477 0
M  V30 13108 H 1835.34 -8.89416 -5.05237 0
M  V30 13109 H 1833.71 -8.14876 -5.18409 0
M  V30 13110 H 1836.35 -3.27957 -5.4317 0
M  V30 13111 P 1838.21 -5.75688 -6.64379 0
M  V30 13112 O 1839.61 -6.14823 -7.06682 0
M  V30 13113 O 1837.83 -5.93957 -5.20728 0
M  V30 13114 O 1837.88 -4.23169 -7.04357 0
M  V30 13115 C 1837.72 -3.99743 -8.4911 0
M  V30 13116 C 1838.26 -2.60487 -8.79329 0
M  V30 13117 O 1837.21 -1.82663 -8.44573 0
M  V30 13118 C 1839.48 -2.10343 -8.03628 0
M  V30 13119 O 1840.22 -1.09919 -8.67766 0
M  V30 13120 C 1838.81 -1.68446 -6.70876 0
M  V30 13121 O 1839.61 -0.678026 -6.08333 0
M  V30 13122 C 1837.47 -1.17436 -7.18567 0
M  V30 13123 N 1836.43 -1.52699 -6.23988 0
M  V30 13124 C 1835.4 -0.643793 -6.05085 0
M  V30 13125 O 1835.44 0.459118 -6.64315 0
M  V30 13126 N 1834.38 -0.976931 -5.22038 0
M  V30 13127 C 1834.43 -2.14429 -4.56662 0
M  V30 13128 N 1833.42 -2.4542 -3.76231 0
M  V30 13129 C 1835.53 -3.04203 -4.71481 0
M  V30 13130 C 1836.49 -2.69669 -5.56838 0
M  V30 13131 H 1837.51 -0.0804622 -7.31556 0
M  V30 13132 H 1838.69 -2.53396 -6.02698 0
M  V30 13133 H 1840.17 -2.9313 -7.85914 0
M  V30 13134 H 1838.48 -2.52078 -9.87225 0
M  V30 13135 H 1838.29 -4.75072 -9.05887 0
M  V30 13136 H 1836.66 -4.05202 -8.76577 0
M  V30 13137 H 1835.58 -3.97309 -4.15519 0
M  V30 13138 H 1837.34 -3.36869 -5.72318 0
M  V30 13139 H 1832.63 -1.80133 -3.65413 0
M  V30 13140 H 1833.43 -3.34359 -3.24736 0
M  V30 13141 H 1839.39 0.167718 -6.44882 0
M  V30 13142 P 1841.16 -1.25109 -8.70152 0
M  V30 13143 O 1842.56 -1.3516 -9.26897 0
M  V30 13144 O 1840.78 -2.18141 -7.59181 0
M  V30 13145 O 1840.83 0.248118 -8.21325 0
M  V30 13146 C 1840.67 1.22779 -9.30434 0
M  V30 13147 C 1841.21 2.56265 -8.80568 0
M  V30 13148 O 1840.16 3.02944 -8.09255 0
M  V30 13149 C 1842.43 2.57523 -7.89775 0
M  V30 13150 O 1843.17 3.7668 -7.89438 0
M  V30 13151 C 1841.76 2.20997 -6.55446 0
M  V30 13152 O 1842.56 2.71851 -5.48419 0
M  V30 13153 C 1840.42 2.89693 -6.67988 0
M  V30 13154 N 1839.38 2.08895 -6.07487 0
M  V30 13155 C 1838.35 2.72974 -5.43836 0
M  V30 13156 O 1838.39 3.97779 -5.34036 0
M  V30 13157 N 1837.33 2.0005 -4.91983 0
M  V30 13158 C 1837.38 0.66501 -5.00098 0
M  V30 13159 N 1836.37 -0.0305439 -4.4919 0
M  V30 13160 C 1838.48 -0.0100979 -5.61099 0
M  V30 13161 C 1839.44 0.74189 -6.14236 0
M  V30 13162 H 1840.46 3.8874 -6.19774 0
M  V30 13163 H 1841.64 1.12673 -6.44018 0
M  V30 13164 H 1843.12 1.783 -8.19631 0
M  V30 13165 H 1841.43 3.21673 -9.66791 0
M  V30 13166 H 1841.24 0.901032 -10.1892 0
M  V30 13167 H 1839.61 1.33036 -9.56493 0
M  V30 13168 H 1838.53 -1.09591 -5.64358 0
M  V30 13169 H 1840.29 0.260263 -6.6359 0
M  V30 13170 H 1835.58 0.460194 -4.04793 0
M  V30 13171 H 1836.38 -1.05716 -4.53953 0
M  V30 13172 H 1842.34 3.62759 -5.33442 0
M  V30 13173 P 1844.11 3.65191 -7.99657 0
M  V30 13174 O 1845.53 3.89332 -8.45794 0
M  V30 13175 O 1843.75 2.28472 -7.50807 0
M  V30 13176 O 1843.78 4.64972 -6.77611 0
M  V30 13177 C 1843.62 6.06319 -7.16352 0
M  V30 13178 C 1844.16 6.91731 -6.02299 0
M  V30 13179 O 1843.11 6.92449 -5.17064 0
M  V30 13180 C 1845.38 6.43627 -5.25174 0
M  V30 13181 O 1846.12 7.43686 -4.60469 0
M  V30 13182 C 1844.71 5.40275 -4.31916 0
M  V30 13183 O 1845.51 5.25279 -3.14438 0
M  V30 13184 C 1843.38 6.04847 -4.05327 0
M  V30 13185 H 1843.41 6.62195 -3.11261 0
M  V30 13186 H 1844.59 4.42556 -4.81383 0
M  V30 13187 H 1846.07 5.92458 -5.93643 0
M  V30 13188 H 1844.38 7.92655 -6.402 0
M  V30 13189 H 1844.19 6.26671 -8.0846 0
M  V30 13190 H 1842.56 6.29101 -7.32804 0
M  V30 13191 H 1845.2 5.84315 -2.47318 0
M  V30 13192 P 1847.06 7.39546 -4.75277 0
M  V30 13193 O 1848.48 7.84798 -5.01039 0
M  V30 13194 O 1846.7 5.9812 -5.08098 0
M  V30 13195 O 1846.73 7.57503 -3.1866 0
M  V30 13196 C 1846.57 8.97357 -2.74833 0
M  V30 13197 C 1847.11 9.07548 -1.32709 0
M  V30 13198 O 1846.06 8.62072 -0.606159 0
M  V30 13199 C 1848.33 8.25383 -0.938334 0
M  V30 13200 O 1849.07 8.74577 0.146954 0
M  V30 13201 C 1847.66 6.8802 -0.712559 0
M  V30 13202 O 1848.46 6.1189 0.194655 0
M  V30 13203 C 1846.33 7.27966 -0.139777 0
M  V30 13204 H 1846.36 7.25354 0.961601 0
M  V30 13205 H 1847.54 6.32557 -1.65702 0
M  V30 13206 H 1849.02 8.19355 -1.79097 0
M  V30 13207 H 1847.33 10.1294 -1.10029 0
M  V30 13208 H 1847.14 9.64276 -3.41316 0
M  V30 13209 H 1845.51 9.25417 -2.76357 0
M  V30 13210 H 1848.15 6.25267 1.07847 0
M  V30 13211 P 1850.01 8.791 1.56806e-11 0
M  V30 13212 O 1851.43 9.31096 0.027933 0
M  V30 13213 O 1849.65 7.77869 -1.04071 0
M  V30 13214 O 1849.68 8.09533 1.41463 0
M  V30 13215 C 1849.52 9.0349 2.53943 0
M  V30 13216 C 1850.06 8.35226 3.79016 0
M  V30 13217 O 1849.01 7.57992 4.15078 0
M  V30 13218 C 1851.28 7.45087 3.67298 0
M  V30 13219 O 1852.02 7.27796 4.85194 0
M  V30 13220 C 1850.61 6.17323 3.12027 0
M  V30 13221 O 1851.41 5.04231 3.47188 0
M  V30 13222 C 1849.28 6.19961 3.81809 0
M  V30 13223 H 1849.31 5.58218 4.73051 0
M  V30 13224 H 1850.49 6.21726 2.02589 0
M  V30 13225 H 1851.98 7.86112 2.9231 0
M  V30 13226 H 1850.28 9.11627 4.55076 0
M  V30 13227 H 1850.09 9.9573 2.34194 0
M  V30 13228 H 1848.46 9.2792 2.67832 0
M  V30 13229 H 1851.1 4.67702 4.28772 0
M  V30 13230 P 1852.96 7.39546 4.75277 0
M  V30 13231 O 1854.38 7.81777 5.05738 0
M  V30 13232 O 1852.6 7.1065 3.32998 0
M  V30 13233 O 1852.63 6.04542 5.56673 0
M  V30 13234 C 1852.47 6.22772 7.02095 0
M  V30 13235 C 1853.01 4.97725 7.70406 0
M  V30 13236 O 1851.96 4.13256 7.58987 0
M  V30 13237 C 1854.23 4.28231 7.11815 0
M  V30 13238 O 1854.97 3.49945 8.01648 0
M  V30 13239 C 1853.56 3.5063 5.96244 0
M  V30 13240 O 1854.36 2.36482 5.64681 0
M  V30 13241 C 1852.23 3.15122 6.56374 0
M  V30 13242 H 1852.26 2.13853 6.99751 0
M  V30 13243 H 1853.44 4.13501 5.06559 0
M  V30 13244 H 1854.93 5.03285 6.70911 0
M  V30 13245 H 1853.23 5.20877 8.75697 0
M  V30 13246 H 1853.04 7.11046 7.35349 0
M  V30 13247 H 1851.41 6.35815 7.26986 0
M  V30 13248 H 1854.05 1.61644 6.13565 0
M  V30 13249 P 1855.91 3.65191 7.99657 0
M  V30 13250 O 1857.33 3.8425 8.48115 0
M  V30 13251 O 1855.55 4.17805 6.64342 0
M  V30 13252 O 1855.59 2.07613 7.95143 0
M  V30 13253 C 1855.43 1.44328 9.27336 0
M  V30 13254 C 1855.97 0.0220036 9.17197 0
M  V30 13255 O 1854.91 -0.626867 8.61923 0
M  V30 13256 C 1857.18 -0.24586 8.30336 0
M  V30 13257 O 1857.92 -1.39011 8.63583 0
M  V30 13258 C 1856.51 -0.273849 6.91158 0
M  V30 13259 O 1857.31 -1.06348 6.02892 0
M  V30 13260 C 1855.18 -0.897649 7.22545 0
M  V30 13261 H 1855.21 -1.9841 7.04286 0
M  V30 13262 H 1856.39 0.739928 6.497 0
M  V30 13263 H 1857.88 0.60668 8.36503 0
M  V30 13264 H 1856.18 -0.352479 10.1829 0
M  V30 13265 H 1855.99 2.00611 10.0304 0
M  V30 13266 H 1854.36 1.41843 9.55327 0
M  V30 13267 H 1857 -1.95734 6.03555 0
M  V30 13268 P 1858.86 -1.25109 8.70152 0
M  V30 13269 O 1860.28 -1.35274 9.21221 0
M  V30 13270 O 1858.5 -0.0769065 7.84762 0
M  V30 13271 O 1858.54 -2.55232 7.81161 0
M  V30 13272 C 1858.38 -3.79939 8.58154 0
M  V30 13273 C 1858.92 -4.94023 7.72785 0
M  V30 13274 O 1857.86 -5.18726 6.91205 0
M  V30 13275 C 1860.13 -4.69597 6.85231 0
M  V30 13276 O 1860.87 -5.83832 6.51337 0
M  V30 13277 C 1859.47 -3.96706 5.66633 0
M  V30 13278 O 1860.26 -4.15414 4.49689 0
M  V30 13279 C 1858.13 -4.66153 5.59313 0
M  V30 13280 H 1858.16 -5.47679 4.85214 0
M  V30 13281 H 1859.34 -2.89008 5.86566 0
M  V30 13282 H 1860.83 -4.0121 7.36511 0
M  V30 13283 H 1859.13 -5.80182 8.37584 0
M  V30 13284 H 1858.94 -3.73517 9.52265 0
M  V30 13285 H 1857.31 -3.97163 8.80359 0
M  V30 13286 H 1859.95 -4.90969 4.01921 0
M  V30 13287 P 1861.81 -5.75688 6.64379 0
M  V30 13288 O 1863.21 -6.11991 7.09136 0
M  V30 13289 O 1861.43 -4.30899 6.62018 0
M  V30 13290 O 1861.49 -6.36965 5.19102 0
M  V30 13291 C 1861.33 -7.83578 5.16515 0
M  V30 13292 C 1861.87 -8.33307 3.82977 0
M  V30 13293 O 1860.81 -8.0998 3.00999 0
M  V30 13294 C 1863.08 -7.65514 3.2257 0
M  V30 13295 O 1863.82 -8.4329 2.32297 0
M  V30 13296 C 1862.42 -6.40075 2.62207 0
M  V30 13297 O 1863.21 -5.92492 1.53687 0
M  V30 13298 C 1861.08 -6.9454 2.18503 0
M  V30 13299 N 1860.04 -5.95905 2.39948 0
M  V30 13300 C 1859 -5.89764 1.49837 0
M  V30 13301 O 1859.04 -6.64088 0.490975 0
M  V30 13302 N 1857.99 -5.02821 1.70992 0
M  V30 13303 C 1858.04 -4.21498 2.77236 0
M  V30 13304 N 1857.03 -3.37475 2.96465 0
M  V30 13305 C 1859.13 -4.23389 3.68205 0
M  V30 13306 C 1860.1 -5.12792 3.46171 0
M  V30 13307 H 1861.11 -7.22964 1.12076 0
M  V30 13308 H 1862.29 -5.60502 3.36589 0
M  V30 13309 H 1863.78 -7.36197 4.01993 0
M  V30 13310 H 1862.08 -9.41302 3.90009 0
M  V30 13311 H 1861.89 -8.29056 5.99158 0
M  V30 13312 H 1860.26 -8.09989 5.25828 0
M  V30 13313 H 1859.18 -3.54747 4.52399 0
M  V30 13314 H 1860.94 -5.18551 4.1489 0
M  V30 13315 H 1856.24 -3.36058 2.30304 0
M  V30 13316 H 1857.03 -2.73846 3.77171 0
M  V30 13317 H 1863 -6.40705 0.751752 0
M  V30 13318 P 1864.76 -8.4349 2.47671 0
M  V30 13319 O 1866.18 -8.94167 2.5964 0
M  V30 13320 O 1864.4 -7.1704 3.19006 0
M  V30 13321 O 1864.44 -8.16596 0.923387 0
M  V30 13322 C 1864.28 -9.38437 0.108857 0
M  V30 13323 C 1864.82 -9.08175 -1.28353 0
M  V30 13324 O 1863.76 -8.44229 -1.84713 0
M  V30 13325 C 1866.04 -8.18386 -1.42505 0
M  V30 13326 O 1866.77 -8.3501 -2.60497 0
M  V30 13327 C 1865.37 -6.80225 -1.25468 0
M  V30 13328 O 1866.17 -5.81621 -1.91066 0
M  V30 13329 C 1864.03 -7.02416 -1.9168 0
M  V30 13330 H 1864.06 -6.6888 -2.96621 0
M  V30 13331 H 1865.24 -6.53617 -0.192223 0
M  V30 13332 H 1866.73 -8.36622 -0.589963 0
M  V30 13333 H 1865.03 -10.0291 -1.79807 0
M  V30 13334 H 1864.84 -10.2138 0.558219 0
M  V30 13335 H 1863.21 -9.6579 0.0444202 0
M  V30 13336 H 1865.85 -5.69556 -2.79637 0
M  V30 13337 P 1867.71 -8.4349 -2.47671 0
M  V30 13338 O 1869.13 -8.92593 -2.65 0
M  V30 13339 O 1867.35 -7.7568 -1.19296 0
M  V30 13340 O 1867.39 -7.36886 -3.63805 0
M  V30 13341 C 1867.23 -7.95349 -4.982 0
M  V30 13342 C 1867.77 -6.94612 -5.98974 0
M  V30 13343 O 1866.71 -6.10347 -6.11815 0
M  V30 13344 C 1868.99 -6.11426 -5.62335 0
M  V30 13345 O 1869.72 -5.6162 -6.70584 0
M  V30 13346 C 1868.32 -5.04409 -4.73308 0
M  V30 13347 O 1869.12 -3.85992 -4.75183 0
M  V30 13348 C 1866.98 -4.8728 -5.41006 0
M  V30 13349 H 1867.01 -4.02333 -6.11157 0
M  V30 13350 H 1868.19 -5.39466 -3.69543 0
M  V30 13351 H 1869.68 -6.71916 -5.01943 0
M  V30 13352 H 1867.98 -7.4649 -6.93477 0
M  V30 13353 H 1867.79 -8.89416 -5.05237 0
M  V30 13354 H 1866.16 -8.14876 -5.18409 0
M  V30 13355 H 1868.8 -3.27957 -5.4317 0
M  V30 13356 P 1870.66 -5.75688 -6.64379 0
M  V30 13357 O 1872.08 -6.07627 -7.05504 0
M  V30 13358 O 1870.3 -5.88047 -5.19722 0
M  V30 13359 O 1870.34 -4.2322 -7.04443 0
M  V30 13360 C 1870.18 -3.99743 -8.4911 0
M  V30 13361 C 1870.72 -2.60516 -8.79425 0
M  V30 13362 O 1869.66 -1.82684 -8.4467 0
M  V30 13363 C 1871.94 -2.10343 -8.03628 0
M  V30 13364 O 1872.67 -1.09919 -8.67766 0
M  V30 13365 C 1871.27 -1.68446 -6.70876 0
M  V30 13366 O 1872.07 -0.678137 -6.08433 0
M  V30 13367 C 1869.93 -1.17436 -7.18567 0
M  V30 13368 H 1869.96 -0.0804732 -7.31656 0
M  V30 13369 H 1871.15 -2.54037 -6.02537 0
M  V30 13370 H 1872.63 -2.93881 -7.85526 0
M  V30 13371 H 1870.94 -2.53065 -9.86973 0
M  V30 13372 H 1870.75 -4.75072 -9.05887 0
M  V30 13373 H 1869.12 -4.05244 -8.76668 0
M  V30 13374 H 1871.75 0.177647 -6.34251 0
M  V30 13375 P 1873.61 -1.25109 -8.70152 0
M  V30 13376 O 1875.03 -1.29744 -9.22016 0
M  V30 13377 O 1873.25 -2.13714 -7.55141 0
M  V30 13378 O 1873.29 0.248149 -8.21425 0
M  V30 13379 C 1873.13 1.22779 -9.30434 0
M  V30 13380 C 1873.67 2.56293 -8.80664 0
M  V30 13381 O 1872.61 3.02979 -8.09349 0
M  V30 13382 C 1874.89 2.57523 -7.89775 0
M  V30 13383 O 1875.62 3.7668 -7.89438 0
M  V30 13384 C 1874.22 2.20997 -6.55446 0
M  V30 13385 O 1875.02 2.71895 -5.48509 0
M  V30 13386 C 1872.88 2.89693 -6.67988 0
M  V30 13387 H 1872.91 3.88793 -6.19859 0
M  V30 13388 H 1874.1 1.12046 -6.44229 0
M  V30 13389 H 1875.58 1.7746 -8.19711 0
M  V30 13390 H 1873.89 3.20706 -9.67112 0
M  V30 13391 H 1873.7 0.901032 -10.1892 0
M  V30 13392 H 1872.07 1.33049 -9.56592 0
M  V30 13393 H 1874.7 3.57847 -5.23962 0
M  V30 13394 P 1876.56 3.65191 -7.99657 0
M  V30 13395 O 1877.98 3.89332 -8.45794 0
M  V30 13396 O 1876.2 2.28472 -7.50807 0
M  V30 13397 O 1876.24 4.64972 -6.77611 0
M  V30 13398 C 1876.08 6.06319 -7.16352 0
M  V30 13399 C 1876.62 6.91731 -6.02299 0
M  V30 13400 O 1875.56 6.92449 -5.17064 0
M  V30 13401 C 1877.84 6.43627 -5.25174 0
M  V30 13402 O 1878.58 7.43686 -4.60469 0
M  V30 13403 C 1877.17 5.40275 -4.31916 0
M  V30 13404 O 1877.97 5.25279 -3.14438 0
M  V30 13405 C 1875.83 6.04847 -4.05327 0
M  V30 13406 H 1875.86 6.62195 -3.11261 0
M  V30 13407 H 1877.05 4.42556 -4.81383 0
M  V30 13408 H 1878.53 5.92458 -5.93643 0
M  V30 13409 H 1876.84 7.92655 -6.402 0
M  V30 13410 H 1876.65 6.26671 -8.0846 0
M  V30 13411 H 1875.02 6.29101 -7.32804 0
M  V30 13412 H 1877.66 5.84315 -2.47318 0
M  V30 13413 P 1879.51 7.39546 -4.75277 0
M  V30 13414 O 1880.94 7.84798 -5.01039 0
M  V30 13415 O 1879.15 5.9812 -5.08098 0
M  V30 13416 O 1879.19 7.57503 -3.1866 0
M  V30 13417 C 1879.03 8.97357 -2.74833 0
M  V30 13418 C 1879.57 9.07548 -1.32709 0
M  V30 13419 O 1878.51 8.62072 -0.606159 0
M  V30 13420 C 1880.79 8.25383 -0.938334 0
M  V30 13421 O 1881.53 8.74577 0.146954 0
M  V30 13422 C 1880.12 6.8802 -0.712559 0
M  V30 13423 O 1880.92 6.1189 0.194655 0
M  V30 13424 C 1878.78 7.27966 -0.139777 0
M  V30 13425 H 1878.81 7.25354 0.961601 0
M  V30 13426 H 1880 6.32557 -1.65702 0
M  V30 13427 H 1881.48 8.19355 -1.79097 0
M  V30 13428 H 1879.79 10.1294 -1.10029 0
M  V30 13429 H 1879.6 9.64276 -3.41316 0
M  V30 13430 H 1877.97 9.25417 -2.76357 0
M  V30 13431 H 1880.61 6.25267 1.07847 0
M  V30 13432 P 1882.46 8.791 1.59908e-11 0
M  V30 13433 O 1883.89 9.31096 0.027933 0
M  V30 13434 O 1882.1 7.77869 -1.04071 0
M  V30 13435 O 1882.14 8.09533 1.41463 0
M  V30 13436 C 1881.98 9.0349 2.53943 0
M  V30 13437 C 1882.52 8.35226 3.79016 0
M  V30 13438 O 1881.46 7.57992 4.15078 0
M  V30 13439 C 1883.74 7.45087 3.67298 0
M  V30 13440 O 1884.48 7.27796 4.85194 0
M  V30 13441 C 1883.07 6.17323 3.12027 0
M  V30 13442 O 1883.87 5.04231 3.47188 0
M  V30 13443 C 1881.73 6.19961 3.81809 0
M  V30 13444 H 1881.76 5.58218 4.73051 0
M  V30 13445 H 1882.95 6.21726 2.02589 0
M  V30 13446 H 1884.43 7.86112 2.9231 0
M  V30 13447 H 1882.74 9.11627 4.55076 0
M  V30 13448 H 1882.55 9.9573 2.34194 0
M  V30 13449 H 1880.92 9.2792 2.67832 0
M  V30 13450 H 1883.56 4.67702 4.28772 0
M  V30 13451 P 1885.41 7.39546 4.75277 0
M  V30 13452 O 1886.84 7.81777 5.05738 0
M  V30 13453 O 1885.05 7.1065 3.32998 0
M  V30 13454 O 1885.09 6.04542 5.56673 0
M  V30 13455 C 1884.93 6.22772 7.02095 0
M  V30 13456 C 1885.47 4.97725 7.70406 0
M  V30 13457 O 1884.42 4.13256 7.58987 0
M  V30 13458 C 1886.69 4.28231 7.11815 0
M  V30 13459 O 1887.43 3.49945 8.01648 0
M  V30 13460 C 1886.02 3.5063 5.96244 0
M  V30 13461 O 1886.82 2.36482 5.64681 0
M  V30 13462 C 1884.68 3.15122 6.56374 0
M  V30 13463 H 1884.72 2.13853 6.99751 0
M  V30 13464 H 1885.9 4.13501 5.06559 0
M  V30 13465 H 1887.38 5.03285 6.70911 0
M  V30 13466 H 1885.69 5.20877 8.75697 0
M  V30 13467 H 1885.5 7.11046 7.35349 0
M  V30 13468 H 1883.87 6.35815 7.26986 0
M  V30 13469 H 1886.51 1.61644 6.13565 0
M  V30 13470 P 1888.36 3.65191 7.99657 0
M  V30 13471 O 1889.79 3.8425 8.48115 0
M  V30 13472 O 1888 4.17805 6.64342 0
M  V30 13473 O 1888.04 2.07613 7.95143 0
M  V30 13474 C 1887.88 1.44328 9.27336 0
M  V30 13475 C 1888.42 0.0220036 9.17197 0
M  V30 13476 O 1887.37 -0.626867 8.61923 0
M  V30 13477 C 1889.64 -0.24586 8.30336 0
M  V30 13478 O 1890.38 -1.39011 8.63583 0
M  V30 13479 C 1888.97 -0.273849 6.91158 0
M  V30 13480 O 1889.77 -1.06348 6.02892 0
M  V30 13481 C 1887.63 -0.897649 7.22545 0
M  V30 13482 H 1887.67 -1.9841 7.04286 0
M  V30 13483 H 1888.85 0.739928 6.497 0
M  V30 13484 H 1890.33 0.60668 8.36503 0
M  V30 13485 H 1888.64 -0.352479 10.1829 0
M  V30 13486 H 1888.45 2.00611 10.0304 0
M  V30 13487 H 1886.82 1.41843 9.55327 0
M  V30 13488 H 1889.46 -1.95734 6.03555 0
M  V30 13489 P 1891.32 -1.25109 8.70152 0
M  V30 13490 O 1892.74 -1.35274 9.21221 0
M  V30 13491 O 1890.96 -0.0769065 7.84762 0
M  V30 13492 O 1890.99 -2.55232 7.81161 0
M  V30 13493 C 1890.83 -3.79939 8.58154 0
M  V30 13494 C 1891.37 -4.94023 7.72785 0
M  V30 13495 O 1890.32 -5.18726 6.91205 0
M  V30 13496 C 1892.59 -4.69597 6.85231 0
M  V30 13497 O 1893.33 -5.83832 6.51337 0
M  V30 13498 C 1891.92 -3.96706 5.66633 0
M  V30 13499 O 1892.72 -4.15414 4.49689 0
M  V30 13500 C 1890.58 -4.66153 5.59313 0
M  V30 13501 H 1890.62 -5.47679 4.85214 0
M  V30 13502 H 1891.8 -2.89008 5.86566 0
M  V30 13503 H 1893.28 -4.0121 7.36511 0
M  V30 13504 H 1891.59 -5.80182 8.37584 0
M  V30 13505 H 1891.4 -3.73517 9.52265 0
M  V30 13506 H 1889.77 -3.97163 8.80359 0
M  V30 13507 H 1892.41 -4.90969 4.01921 0
M  V30 13508 P 1894.27 -5.75688 6.64379 0
M  V30 13509 O 1895.69 -6.11915 7.01921 0
M  V30 13510 O 1893.91 -4.30744 6.56026 0
M  V30 13511 O 1893.94 -6.37042 5.19165 0
M  V30 13512 C 1893.78 -7.83662 5.1657 0
M  V30 13513 C 1894.32 -8.33398 3.83019 0
M  V30 13514 O 1893.27 -8.0998 3.00999 0
M  V30 13515 C 1895.54 -7.65514 3.2257 0
M  V30 13516 O 1896.28 -8.4329 2.32297 0
M  V30 13517 C 1894.87 -6.40075 2.62207 0
M  V30 13518 O 1895.67 -5.92338 1.5428 0
M  V30 13519 C 1893.53 -6.9454 2.18503 0
M  V30 13520 N 1892.49 -5.95905 2.39948 0
M  V30 13521 C 1892.66 -4.98383 3.32108 0
M  V30 13522 N 1891.63 -4.16798 3.41761 0
M  V30 13523 C 1890.75 -4.65287 2.47461 0
M  V30 13524 C 1889.48 -4.18946 2.07461 0
M  V30 13525 N 1888.88 -3.09661 2.60717 0
M  V30 13526 N 1888.92 -4.95327 1.09101 0
M  V30 13527 C 1889.52 -6.04369 0.519812 0
M  V30 13528 N 1890.7 -6.50694 0.855982 0
M  V30 13529 C 1891.27 -5.75818 1.84322 0
M  V30 13530 H 1893.57 -7.22964 1.12076 0
M  V30 13531 H 1894.75 -5.60502 3.36589 0
M  V30 13532 H 1896.23 -7.35707 4.02681 0
M  V30 13533 H 1894.54 -9.41302 3.90009 0
M  V30 13534 H 1894.35 -8.29056 5.99158 0
M  V30 13535 H 1892.72 -8.10073 5.25882 0
M  V30 13536 H 1888.98 -6.55843 -0.270373 0
M  V30 13537 H 1893.56 -4.88564 3.92502 0
M  V30 13538 H 1887.95 -2.80523 2.27218 0
M  V30 13539 H 1889.36 -2.55848 3.34465 0
M  V30 13540 H 1895.36 -6.30224 0.72668 0
M  V30 13541 P 1897.22 -8.4349 2.47671 0
M  V30 13542 O 1898.64 -8.94167 2.5964 0
M  V30 13543 O 1896.86 -7.1704 3.19006 0
M  V30 13544 O 1896.89 -8.16596 0.923387 0
M  V30 13545 C 1896.73 -9.38437 0.108857 0
M  V30 13546 C 1897.27 -9.08175 -1.28353 0
M  V30 13547 O 1896.22 -8.44229 -1.84713 0
M  V30 13548 C 1898.49 -8.18386 -1.42505 0
M  V30 13549 O 1899.23 -8.3501 -2.60497 0
M  V30 13550 C 1897.82 -6.80225 -1.25468 0
M  V30 13551 O 1898.62 -5.81621 -1.91066 0
M  V30 13552 C 1896.49 -7.02416 -1.9168 0
M  V30 13553 H 1896.52 -6.6888 -2.96621 0
M  V30 13554 H 1897.7 -6.53617 -0.192223 0
M  V30 13555 H 1899.18 -8.36622 -0.589963 0
M  V30 13556 H 1897.49 -10.0291 -1.79807 0
M  V30 13557 H 1897.3 -10.2138 0.558219 0
M  V30 13558 H 1895.67 -9.6579 0.0444202 0
M  V30 13559 H 1898.31 -5.69556 -2.79637 0
M  V30 13560 P 1900.17 -8.4349 -2.47671 0
M  V30 13561 O 1901.59 -8.92593 -2.65 0
M  V30 13562 O 1899.81 -7.7568 -1.19296 0
M  V30 13563 O 1899.84 -7.36886 -3.63805 0
M  V30 13564 C 1899.68 -7.95349 -4.982 0
M  V30 13565 C 1900.22 -6.94612 -5.98974 0
M  V30 13566 O 1899.17 -6.10347 -6.11815 0
M  V30 13567 C 1901.44 -6.11426 -5.62335 0
M  V30 13568 O 1902.18 -5.6162 -6.70584 0
M  V30 13569 C 1900.77 -5.04409 -4.73308 0
M  V30 13570 O 1901.57 -3.85992 -4.75183 0
M  V30 13571 C 1899.44 -4.8728 -5.41006 0
M  V30 13572 H 1899.47 -4.02333 -6.11157 0
M  V30 13573 H 1900.65 -5.39466 -3.69543 0
M  V30 13574 H 1902.14 -6.71916 -5.01943 0
M  V30 13575 H 1900.44 -7.4649 -6.93477 0
M  V30 13576 H 1900.25 -8.89416 -5.05237 0
M  V30 13577 H 1898.62 -8.14876 -5.18409 0
M  V30 13578 H 1901.26 -3.27957 -5.4317 0
M  V30 13579 P 1903.12 -5.75688 -6.64379 0
M  V30 13580 O 1904.54 -6.07627 -7.05504 0
M  V30 13581 O 1902.76 -5.88047 -5.19722 0
M  V30 13582 O 1902.79 -4.2322 -7.04443 0
M  V30 13583 C 1902.63 -3.99743 -8.4911 0
M  V30 13584 C 1903.17 -2.60516 -8.79425 0
M  V30 13585 O 1902.12 -1.82684 -8.4467 0
M  V30 13586 C 1904.39 -2.10343 -8.03628 0
M  V30 13587 O 1905.13 -1.09919 -8.67766 0
M  V30 13588 C 1903.72 -1.68446 -6.70876 0
M  V30 13589 O 1904.52 -0.678137 -6.08433 0
M  V30 13590 C 1902.39 -1.17436 -7.18567 0
M  V30 13591 H 1902.42 -0.0804732 -7.31656 0
M  V30 13592 H 1903.6 -2.54037 -6.02537 0
M  V30 13593 H 1905.09 -2.93881 -7.85526 0
M  V30 13594 H 1903.39 -2.53065 -9.86973 0
M  V30 13595 H 1903.2 -4.75072 -9.05887 0
M  V30 13596 H 1901.57 -4.05244 -8.76668 0
M  V30 13597 H 1904.21 0.177647 -6.34251 0
M  V30 13598 P 1906.07 -1.25109 -8.70152 0
M  V30 13599 O 1907.47 -1.3516 -9.26897 0
M  V30 13600 O 1905.69 -2.18141 -7.59181 0
M  V30 13601 O 1905.75 0.248118 -8.21325 0
M  V30 13602 C 1905.59 1.22779 -9.30434 0
M  V30 13603 C 1906.13 2.56265 -8.80568 0
M  V30 13604 O 1905.07 3.02944 -8.09255 0
M  V30 13605 C 1907.34 2.57523 -7.89775 0
M  V30 13606 O 1908.08 3.7668 -7.89438 0
M  V30 13607 C 1906.68 2.20997 -6.55446 0
M  V30 13608 O 1907.47 2.71851 -5.48419 0
M  V30 13609 C 1905.34 2.89693 -6.67988 0
M  V30 13610 N 1904.29 2.08895 -6.07487 0
M  V30 13611 C 1903.26 2.72974 -5.43836 0
M  V30 13612 O 1903.3 3.97779 -5.34036 0
M  V30 13613 N 1902.25 2.0005 -4.91983 0
M  V30 13614 C 1902.3 0.66501 -5.00098 0
M  V30 13615 C 1903.39 -0.0100979 -5.61099 0
M  V30 13616 C 1904.36 0.74189 -6.14236 0
M  V30 13617 H 1905.37 3.8874 -6.19774 0
M  V30 13618 H 1906.55 1.12673 -6.44018 0
M  V30 13619 H 1908.04 1.783 -8.19631 0
M  V30 13620 H 1906.34 3.21673 -9.66791 0
M  V30 13621 H 1906.15 0.901032 -10.1892 0
M  V30 13622 H 1904.52 1.33036 -9.56493 0
M  V30 13623 H 1903.44 -1.09591 -5.64358 0
M  V30 13624 H 1905.2 0.260263 -6.6359 0
M  V30 13625 H 1907.26 3.62759 -5.33442 0
M  V30 13626 P 1909.02 3.65191 -7.99657 0
M  V30 13627 O 1910.44 3.89332 -8.45794 0
M  V30 13628 O 1908.66 2.28472 -7.50807 0
M  V30 13629 O 1908.7 4.64972 -6.77611 0
M  V30 13630 C 1908.54 6.06319 -7.16352 0
M  V30 13631 C 1909.08 6.91731 -6.02299 0
M  V30 13632 O 1908.02 6.92449 -5.17064 0
M  V30 13633 C 1910.29 6.43627 -5.25174 0
M  V30 13634 O 1911.03 7.43686 -4.60469 0
M  V30 13635 C 1909.62 5.40275 -4.31916 0
M  V30 13636 O 1910.42 5.25279 -3.14438 0
M  V30 13637 C 1908.29 6.04847 -4.05327 0
M  V30 13638 H 1908.32 6.62195 -3.11261 0
M  V30 13639 H 1909.5 4.42556 -4.81383 0
M  V30 13640 H 1910.99 5.92458 -5.93643 0
M  V30 13641 H 1909.29 7.92655 -6.402 0
M  V30 13642 H 1909.1 6.26671 -8.0846 0
M  V30 13643 H 1907.47 6.29101 -7.32804 0
M  V30 13644 H 1910.11 5.84315 -2.47318 0
M  V30 13645 P 1911.97 7.39546 -4.75277 0
M  V30 13646 O 1913.39 7.84798 -5.01039 0
M  V30 13647 O 1911.61 5.9812 -5.08098 0
M  V30 13648 O 1911.65 7.57503 -3.1866 0
M  V30 13649 C 1911.49 8.97357 -2.74833 0
M  V30 13650 C 1912.03 9.07548 -1.32709 0
M  V30 13651 O 1910.97 8.62072 -0.606159 0
M  V30 13652 C 1913.24 8.25383 -0.938334 0
M  V30 13653 O 1913.98 8.74577 0.146954 0
M  V30 13654 C 1912.58 6.8802 -0.712559 0
M  V30 13655 O 1913.37 6.1189 0.194655 0
M  V30 13656 C 1911.24 7.27966 -0.139777 0
M  V30 13657 H 1911.27 7.25354 0.961601 0
M  V30 13658 H 1912.45 6.32557 -1.65702 0
M  V30 13659 H 1913.94 8.19355 -1.79097 0
M  V30 13660 H 1912.24 10.1294 -1.10029 0
M  V30 13661 H 1912.05 9.64276 -3.41316 0
M  V30 13662 H 1910.42 9.25417 -2.76357 0
M  V30 13663 H 1913.06 6.25267 1.07847 0
M  V30 13664 P 1914.92 8.791 1.63009e-11 0
M  V30 13665 O 1916.34 9.31096 0.027933 0
M  V30 13666 O 1914.56 7.77869 -1.04071 0
M  V30 13667 O 1914.6 8.09533 1.41463 0
M  V30 13668 C 1914.44 9.0349 2.53943 0
M  V30 13669 C 1914.98 8.35226 3.79016 0
M  V30 13670 O 1913.92 7.57992 4.15078 0
M  V30 13671 C 1916.19 7.45087 3.67298 0
M  V30 13672 O 1916.93 7.27796 4.85194 0
M  V30 13673 C 1915.53 6.17323 3.12027 0
M  V30 13674 O 1916.32 5.04231 3.47188 0
M  V30 13675 C 1914.19 6.19961 3.81809 0
M  V30 13676 H 1914.22 5.58218 4.73051 0
M  V30 13677 H 1915.4 6.21726 2.02589 0
M  V30 13678 H 1916.89 7.86112 2.9231 0
M  V30 13679 H 1915.19 9.11627 4.55076 0
M  V30 13680 H 1915 9.9573 2.34194 0
M  V30 13681 H 1913.37 9.2792 2.67832 0
M  V30 13682 H 1916.01 4.67702 4.28772 0
M  V30 13683 P 1917.87 7.39546 4.75277 0
M  V30 13684 O 1919.29 7.81777 5.05738 0
M  V30 13685 O 1917.51 7.1065 3.32998 0
M  V30 13686 O 1917.55 6.04542 5.56673 0
M  V30 13687 C 1917.39 6.22772 7.02095 0
M  V30 13688 C 1917.93 4.97725 7.70406 0
M  V30 13689 O 1916.87 4.13256 7.58987 0
M  V30 13690 C 1919.15 4.28231 7.11815 0
M  V30 13691 O 1919.88 3.49945 8.01648 0
M  V30 13692 C 1918.48 3.5063 5.96244 0
M  V30 13693 O 1919.28 2.36482 5.64681 0
M  V30 13694 C 1917.14 3.15122 6.56374 0
M  V30 13695 H 1917.17 2.13853 6.99751 0
M  V30 13696 H 1918.35 4.13501 5.06559 0
M  V30 13697 H 1919.84 5.03285 6.70911 0
M  V30 13698 H 1918.14 5.20877 8.75697 0
M  V30 13699 H 1917.95 7.11046 7.35349 0
M  V30 13700 H 1916.32 6.35815 7.26986 0
M  V30 13701 H 1918.96 1.61644 6.13565 0
M  V30 13702 P 1920.82 3.65191 7.99657 0
M  V30 13703 O 1922.24 3.8425 8.48115 0
M  V30 13704 O 1920.46 4.17805 6.64342 0
M  V30 13705 O 1920.5 2.07613 7.95143 0
M  V30 13706 C 1920.34 1.44328 9.27336 0
M  V30 13707 C 1920.88 0.0220036 9.17197 0
M  V30 13708 O 1919.82 -0.626867 8.61923 0
M  V30 13709 C 1922.1 -0.24586 8.30336 0
M  V30 13710 O 1922.83 -1.39011 8.63583 0
M  V30 13711 C 1921.43 -0.273849 6.91158 0
M  V30 13712 O 1922.23 -1.06348 6.02892 0
M  V30 13713 C 1920.09 -0.897649 7.22545 0
M  V30 13714 H 1920.12 -1.9841 7.04286 0
M  V30 13715 H 1921.31 0.739928 6.497 0
M  V30 13716 H 1922.79 0.60668 8.36503 0
M  V30 13717 H 1921.1 -0.352479 10.1829 0
M  V30 13718 H 1920.91 2.00611 10.0304 0
M  V30 13719 H 1919.28 1.41843 9.55327 0
M  V30 13720 H 1921.91 -1.95734 6.03555 0
M  V30 13721 P 1923.77 -1.25109 8.70152 0
M  V30 13722 O 1925.19 -1.35274 9.21221 0
M  V30 13723 O 1923.41 -0.0769065 7.84762 0
M  V30 13724 O 1923.45 -2.55232 7.81161 0
M  V30 13725 C 1923.29 -3.79939 8.58154 0
M  V30 13726 C 1923.83 -4.94023 7.72785 0
M  V30 13727 O 1922.77 -5.18726 6.91205 0
M  V30 13728 C 1925.05 -4.69597 6.85231 0
M  V30 13729 O 1925.78 -5.83832 6.51337 0
M  V30 13730 C 1924.38 -3.96706 5.66633 0
M  V30 13731 O 1925.18 -4.15414 4.49689 0
M  V30 13732 C 1923.04 -4.66153 5.59313 0
M  V30 13733 H 1923.07 -5.47679 4.85214 0
M  V30 13734 H 1924.26 -2.89008 5.86566 0
M  V30 13735 H 1925.74 -4.0121 7.36511 0
M  V30 13736 H 1924.05 -5.80182 8.37584 0
M  V30 13737 H 1923.86 -3.73517 9.52265 0
M  V30 13738 H 1922.23 -3.97163 8.80359 0
M  V30 13739 H 1924.86 -4.90969 4.01921 0
M  V30 13740 P 1926.72 -5.75688 6.64379 0
M  V30 13741 O 1928.14 -6.11849 7.01846 0
M  V30 13742 O 1926.36 -4.30744 6.56026 0
M  V30 13743 O 1926.4 -6.37042 5.19165 0
M  V30 13744 C 1926.24 -7.83578 5.16515 0
M  V30 13745 C 1926.78 -8.33398 3.83019 0
M  V30 13746 O 1925.72 -8.10074 3.01034 0
M  V30 13747 C 1928 -7.65514 3.2257 0
M  V30 13748 O 1928.74 -8.4329 2.32297 0
M  V30 13749 C 1927.33 -6.40075 2.62207 0
M  V30 13750 O 1928.13 -5.92589 1.53712 0
M  V30 13751 C 1925.99 -6.9454 2.18503 0
M  V30 13752 H 1926.02 -7.23063 1.12091 0
M  V30 13753 H 1927.21 -5.6025 3.37201 0
M  V30 13754 H 1928.69 -7.35707 4.02681 0
M  V30 13755 H 1927 -9.40912 3.9095 0
M  V30 13756 H 1926.81 -8.29056 5.99158 0
M  V30 13757 H 1925.18 -8.10073 5.25882 0
M  V30 13758 H 1927.82 -6.30324 0.726794 0
M  V30 13759 P 1929.67 -8.4349 2.47671 0
M  V30 13760 O 1931.09 -8.94167 2.5964 0
M  V30 13761 O 1929.31 -7.1704 3.19006 0
M  V30 13762 O 1929.35 -8.16596 0.923387 0
M  V30 13763 C 1929.19 -9.38437 0.108857 0
M  V30 13764 C 1929.73 -9.08175 -1.28353 0
M  V30 13765 O 1928.67 -8.44229 -1.84713 0
M  V30 13766 C 1930.95 -8.18386 -1.42505 0
M  V30 13767 O 1931.69 -8.3501 -2.60497 0
M  V30 13768 C 1930.28 -6.80225 -1.25468 0
M  V30 13769 O 1931.08 -5.81621 -1.91066 0
M  V30 13770 C 1928.94 -7.02416 -1.9168 0
M  V30 13771 H 1928.97 -6.6888 -2.96621 0
M  V30 13772 H 1930.16 -6.53617 -0.192223 0
M  V30 13773 H 1931.64 -8.36622 -0.589963 0
M  V30 13774 H 1929.95 -10.0291 -1.79807 0
M  V30 13775 H 1929.76 -10.2138 0.558219 0
M  V30 13776 H 1928.13 -9.6579 0.0444202 0
M  V30 13777 H 1930.77 -5.69556 -2.79637 0
M  V30 13778 P 1932.62 -8.4349 -2.47671 0
M  V30 13779 O 1934.05 -8.92593 -2.65 0
M  V30 13780 O 1932.26 -7.7568 -1.19296 0
M  V30 13781 O 1932.3 -7.36886 -3.63805 0
M  V30 13782 C 1932.14 -7.95349 -4.982 0
M  V30 13783 C 1932.68 -6.94612 -5.98974 0
M  V30 13784 O 1931.62 -6.10347 -6.11815 0
M  V30 13785 C 1933.9 -6.11426 -5.62335 0
M  V30 13786 O 1934.64 -5.6162 -6.70584 0
M  V30 13787 C 1933.23 -5.04409 -4.73308 0
M  V30 13788 O 1934.03 -3.85992 -4.75183 0
M  V30 13789 C 1931.89 -4.8728 -5.41006 0
M  V30 13790 H 1931.92 -4.02333 -6.11157 0
M  V30 13791 H 1933.11 -5.39466 -3.69543 0
M  V30 13792 H 1934.59 -6.71916 -5.01943 0
M  V30 13793 H 1932.9 -7.4649 -6.93477 0
M  V30 13794 H 1932.71 -8.89416 -5.05237 0
M  V30 13795 H 1931.08 -8.14876 -5.18409 0
M  V30 13796 H 1933.72 -3.27957 -5.4317 0
M  V30 13797 P 1935.57 -5.75688 -6.64379 0
M  V30 13798 O 1937 -6.07627 -7.05504 0
M  V30 13799 O 1935.21 -5.88047 -5.19722 0
M  V30 13800 O 1935.25 -4.2322 -7.04443 0
M  V30 13801 C 1935.09 -3.99743 -8.4911 0
M  V30 13802 C 1935.63 -2.60516 -8.79425 0
M  V30 13803 O 1934.57 -1.82684 -8.4467 0
M  V30 13804 C 1936.85 -2.10343 -8.03628 0
M  V30 13805 O 1937.59 -1.09919 -8.67766 0
M  V30 13806 C 1936.18 -1.68446 -6.70876 0
M  V30 13807 O 1936.98 -0.678137 -6.08433 0
M  V30 13808 C 1934.84 -1.17436 -7.18567 0
M  V30 13809 H 1934.87 -0.0804732 -7.31656 0
M  V30 13810 H 1936.06 -2.54037 -6.02537 0
M  V30 13811 H 1937.54 -2.93881 -7.85526 0
M  V30 13812 H 1935.85 -2.53065 -9.86973 0
M  V30 13813 H 1935.66 -4.75072 -9.05887 0
M  V30 13814 H 1934.03 -4.05244 -8.76668 0
M  V30 13815 H 1936.67 0.177647 -6.34251 0
M  V30 13816 P 1938.52 -1.25109 -8.70152 0
M  V30 13817 O 1939.95 -1.29744 -9.22016 0
M  V30 13818 O 1938.16 -2.13714 -7.55141 0
M  V30 13819 O 1938.2 0.248149 -8.21425 0
M  V30 13820 C 1938.04 1.22779 -9.30434 0
M  V30 13821 C 1938.58 2.56293 -8.80664 0
M  V30 13822 O 1937.53 3.02979 -8.09349 0
M  V30 13823 C 1939.8 2.57523 -7.89775 0
M  V30 13824 O 1940.54 3.7668 -7.89438 0
M  V30 13825 C 1939.13 2.20997 -6.55446 0
M  V30 13826 O 1939.93 2.71895 -5.48509 0
M  V30 13827 C 1937.79 2.89693 -6.67988 0
M  V30 13828 H 1937.83 3.88793 -6.19859 0
M  V30 13829 H 1939.01 1.12046 -6.44229 0
M  V30 13830 H 1940.49 1.7746 -8.19711 0
M  V30 13831 H 1938.8 3.20706 -9.67112 0
M  V30 13832 H 1938.61 0.901032 -10.1892 0
M  V30 13833 H 1936.98 1.33049 -9.56592 0
M  V30 13834 H 1939.62 3.57847 -5.23962 0
M  V30 13835 P 1941.48 3.65191 -7.99657 0
M  V30 13836 O 1942.9 3.89332 -8.45794 0
M  V30 13837 O 1941.12 2.28472 -7.50807 0
M  V30 13838 O 1941.15 4.64972 -6.77611 0
M  V30 13839 C 1940.99 6.06319 -7.16352 0
M  V30 13840 C 1941.53 6.91731 -6.02299 0
M  V30 13841 O 1940.48 6.92449 -5.17064 0
M  V30 13842 C 1942.75 6.43627 -5.25174 0
M  V30 13843 O 1943.49 7.43686 -4.60469 0
M  V30 13844 C 1942.08 5.40275 -4.31916 0
M  V30 13845 O 1942.88 5.25279 -3.14438 0
M  V30 13846 C 1940.74 6.04847 -4.05327 0
M  V30 13847 H 1940.78 6.62195 -3.11261 0
M  V30 13848 H 1941.96 4.42556 -4.81383 0
M  V30 13849 H 1943.44 5.92458 -5.93643 0
M  V30 13850 H 1941.75 7.92655 -6.402 0
M  V30 13851 H 1941.56 6.26671 -8.0846 0
M  V30 13852 H 1939.93 6.29101 -7.32804 0
M  V30 13853 H 1942.57 5.84315 -2.47318 0
M  V30 13854 P 1944.43 7.39546 -4.75277 0
M  V30 13855 O 1945.85 7.84882 -5.01092 0
M  V30 13856 O 1944.07 5.9812 -5.08098 0
M  V30 13857 O 1944.1 7.57503 -3.1866 0
M  V30 13858 C 1943.94 8.97452 -2.74862 0
M  V30 13859 C 1944.48 9.07548 -1.32709 0
M  V30 13860 O 1943.43 8.61972 -0.606089 0
M  V30 13861 C 1945.7 8.25383 -0.938334 0
M  V30 13862 O 1946.44 8.74577 0.146954 0
M  V30 13863 C 1945.03 6.8802 -0.712559 0
M  V30 13864 O 1945.83 6.1181 0.188505 0
M  V30 13865 C 1943.69 7.27966 -0.139777 0
M  V30 13866 N 1942.65 6.39368 -0.623421 0
M  V30 13867 C 1942.82 5.71761 -1.78245 0
M  V30 13868 N 1941.79 4.962 -2.10491 0
M  V30 13869 C 1940.91 5.16158 -1.0635 0
M  V30 13870 C 1939.64 4.60425 -0.810266 0
M  V30 13871 N 1939.08 5.06 0.348685 0
M  V30 13872 C 1939.68 5.94532 1.20395 0
M  V30 13873 N 1940.86 6.48452 1.01191 0
M  V30 13874 C 1941.43 6.04423 -0.146291 0
M  V30 13875 H 1944.91 6.32625 -1.65044 0
M  V30 13876 H 1946.39 8.19355 -1.79097 0
M  V30 13877 H 1944.7 10.1305 -1.09016 0
M  V30 13878 H 1944.51 9.64276 -3.41316 0
M  V30 13879 H 1942.88 9.25417 -2.76357 0
M  V30 13880 H 1943.72 5.79354 -2.38959 0
M  V30 13881 H 1945.52 6.25169 1.0783 0
M  V30 13882 P 1947.38 8.791 1.66111e-11 0
M  V30 13883 O 1948.8 9.31096 0.027933 0
M  V30 13884 O 1947.02 7.77869 -1.04071 0
M  V30 13885 O 1947.05 8.09533 1.41463 0
M  V30 13886 C 1946.89 9.0349 2.53943 0
M  V30 13887 C 1947.43 8.35226 3.79016 0
M  V30 13888 O 1946.38 7.57992 4.15078 0
M  V30 13889 C 1948.65 7.45087 3.67298 0
M  V30 13890 O 1949.39 7.27796 4.85194 0
M  V30 13891 C 1947.98 6.17323 3.12027 0
M  V30 13892 O 1948.78 5.04231 3.47188 0
M  V30 13893 C 1946.65 6.19961 3.81809 0
M  V30 13894 H 1946.68 5.58218 4.73051 0
M  V30 13895 H 1947.86 6.21726 2.02589 0
M  V30 13896 H 1949.34 7.86112 2.9231 0
M  V30 13897 H 1947.65 9.11627 4.55076 0
M  V30 13898 H 1947.46 9.9573 2.34194 0
M  V30 13899 H 1945.83 9.2792 2.67832 0
M  V30 13900 H 1948.47 4.67702 4.28772 0
M  V30 13901 P 1950.33 7.39546 4.75277 0
M  V30 13902 O 1951.75 7.81777 5.05738 0
M  V30 13903 O 1949.97 7.1065 3.32998 0
M  V30 13904 O 1950 6.04542 5.56673 0
M  V30 13905 C 1949.84 6.22772 7.02095 0
M  V30 13906 C 1950.38 4.97725 7.70406 0
M  V30 13907 O 1949.33 4.13256 7.58987 0
M  V30 13908 C 1951.6 4.28231 7.11815 0
M  V30 13909 O 1952.34 3.49945 8.01648 0
M  V30 13910 C 1950.93 3.5063 5.96244 0
M  V30 13911 O 1951.73 2.36482 5.64681 0
M  V30 13912 C 1949.6 3.15122 6.56374 0
M  V30 13913 H 1949.63 2.13853 6.99751 0
M  V30 13914 H 1950.81 4.13501 5.06559 0
M  V30 13915 H 1952.29 5.03285 6.70911 0
M  V30 13916 H 1950.6 5.20877 8.75697 0
M  V30 13917 H 1950.41 7.11046 7.35349 0
M  V30 13918 H 1948.78 6.35815 7.26986 0
M  V30 13919 H 1951.42 1.61644 6.13565 0
M  V30 13920 P 1953.28 3.65191 7.99657 0
M  V30 13921 O 1954.7 3.8425 8.48115 0
M  V30 13922 O 1952.92 4.17805 6.64342 0
M  V30 13923 O 1952.95 2.07613 7.95143 0
M  V30 13924 C 1952.79 1.44328 9.27336 0
M  V30 13925 C 1953.33 0.0220036 9.17197 0
M  V30 13926 O 1952.28 -0.626867 8.61923 0
M  V30 13927 C 1954.55 -0.24586 8.30336 0
M  V30 13928 O 1955.29 -1.39011 8.63583 0
M  V30 13929 C 1953.88 -0.273849 6.91158 0
M  V30 13930 O 1954.68 -1.06348 6.02892 0
M  V30 13931 C 1952.55 -0.897649 7.22545 0
M  V30 13932 H 1952.58 -1.9841 7.04286 0
M  V30 13933 H 1953.76 0.739928 6.497 0
M  V30 13934 H 1955.25 0.60668 8.36503 0
M  V30 13935 H 1953.55 -0.352479 10.1829 0
M  V30 13936 H 1953.36 2.00611 10.0304 0
M  V30 13937 H 1951.73 1.41843 9.55327 0
M  V30 13938 H 1954.37 -1.95734 6.03555 0
M  V30 13939 P 1956.23 -1.25109 8.70152 0
M  V30 13940 O 1957.65 -1.35274 9.21221 0
M  V30 13941 O 1955.87 -0.0769065 7.84762 0
M  V30 13942 O 1955.9 -2.55232 7.81161 0
M  V30 13943 C 1955.74 -3.79939 8.58154 0
M  V30 13944 C 1956.28 -4.94023 7.72785 0
M  V30 13945 O 1955.23 -5.18726 6.91205 0
M  V30 13946 C 1957.5 -4.69597 6.85231 0
M  V30 13947 O 1958.24 -5.83832 6.51337 0
M  V30 13948 C 1956.83 -3.96706 5.66633 0
M  V30 13949 O 1957.63 -4.15414 4.49689 0
M  V30 13950 C 1955.5 -4.66153 5.59313 0
M  V30 13951 H 1955.53 -5.47679 4.85214 0
M  V30 13952 H 1956.71 -2.89008 5.86566 0
M  V30 13953 H 1958.2 -4.0121 7.36511 0
M  V30 13954 H 1956.5 -5.80182 8.37584 0
M  V30 13955 H 1956.31 -3.73517 9.52265 0
M  V30 13956 H 1954.68 -3.97163 8.80359 0
M  V30 13957 H 1957.32 -4.90969 4.01921 0
M  V30 13958 P 1959.18 -5.75688 6.64379 0
M  V30 13959 O 1960.6 -6.11915 7.01921 0
M  V30 13960 O 1958.82 -4.30744 6.56026 0
M  V30 13961 O 1958.86 -6.37042 5.19165 0
M  V30 13962 C 1958.69 -7.83662 5.1657 0
M  V30 13963 C 1959.24 -8.33398 3.83019 0
M  V30 13964 O 1958.18 -8.0998 3.00999 0
M  V30 13965 C 1960.45 -7.65514 3.2257 0
M  V30 13966 O 1961.19 -8.4329 2.32297 0
M  V30 13967 C 1959.79 -6.40075 2.62207 0
M  V30 13968 O 1960.58 -5.92338 1.5428 0
M  V30 13969 C 1958.45 -6.9454 2.18503 0
M  V30 13970 N 1957.4 -5.95905 2.39948 0
M  V30 13971 C 1957.57 -4.98383 3.32108 0
M  V30 13972 N 1956.55 -4.16798 3.41761 0
M  V30 13973 C 1955.66 -4.65287 2.47461 0
M  V30 13974 C 1954.39 -4.18946 2.07461 0
M  V30 13975 N 1953.8 -3.09661 2.60717 0
M  V30 13976 N 1953.83 -4.95327 1.09101 0
M  V30 13977 C 1954.43 -6.04369 0.519812 0
M  V30 13978 N 1955.61 -6.50694 0.855982 0
M  V30 13979 C 1956.18 -5.75818 1.84322 0
M  V30 13980 H 1958.48 -7.22964 1.12076 0
M  V30 13981 H 1959.66 -5.60502 3.36589 0
M  V30 13982 H 1961.15 -7.35707 4.02681 0
M  V30 13983 H 1959.45 -9.41302 3.90009 0
M  V30 13984 H 1959.26 -8.29056 5.99158 0
M  V30 13985 H 1957.63 -8.10073 5.25882 0
M  V30 13986 H 1953.9 -6.55843 -0.270373 0
M  V30 13987 H 1958.47 -4.88564 3.92502 0
M  V30 13988 H 1952.87 -2.80523 2.27218 0
M  V30 13989 H 1954.27 -2.55848 3.34465 0
M  V30 13990 H 1960.27 -6.30224 0.72668 0
M  V30 13991 P 1962.13 -8.4349 2.47671 0
M  V30 13992 O 1963.55 -8.94167 2.5964 0
M  V30 13993 O 1961.77 -7.1704 3.19006 0
M  V30 13994 O 1961.81 -8.16596 0.923387 0
M  V30 13995 C 1961.65 -9.38437 0.108857 0
M  V30 13996 C 1962.19 -9.08175 -1.28353 0
M  V30 13997 O 1961.13 -8.44229 -1.84713 0
M  V30 13998 C 1963.4 -8.18386 -1.42505 0
M  V30 13999 O 1964.14 -8.3501 -2.60497 0
M  V30 14000 C 1962.74 -6.80225 -1.25468 0
M  V30 14001 O 1963.53 -5.81621 -1.91066 0
M  V30 14002 C 1961.4 -7.02416 -1.9168 0
M  V30 14003 H 1961.43 -6.6888 -2.96621 0
M  V30 14004 H 1962.61 -6.53617 -0.192223 0
M  V30 14005 H 1964.1 -8.36622 -0.589963 0
M  V30 14006 H 1962.4 -10.0291 -1.79807 0
M  V30 14007 H 1962.21 -10.2138 0.558219 0
M  V30 14008 H 1960.58 -9.6579 0.0444202 0
M  V30 14009 H 1963.22 -5.69556 -2.79637 0
M  V30 14010 P 1965.08 -8.4349 -2.47671 0
M  V30 14011 O 1966.48 -8.99283 -2.62101 0
M  V30 14012 O 1964.7 -7.81195 -1.16947 0
M  V30 14013 O 1964.76 -7.36797 -3.63761 0
M  V30 14014 C 1964.6 -7.95349 -4.982 0
M  V30 14015 C 1965.14 -6.94537 -5.98908 0
M  V30 14016 O 1964.08 -6.10277 -6.11744 0
M  V30 14017 C 1966.35 -6.11426 -5.62335 0
M  V30 14018 O 1967.09 -5.6162 -6.70584 0
M  V30 14019 C 1965.69 -5.04409 -4.73308 0
M  V30 14020 O 1966.48 -3.85929 -4.75106 0
M  V30 14021 C 1964.35 -4.8728 -5.41006 0
M  V30 14022 N 1963.31 -4.65812 -4.42377 0
M  V30 14023 C 1962.27 -3.81293 -4.74224 0
M  V30 14024 O 1962.31 -3.20533 -5.83679 0
M  V30 14025 N 1961.26 -3.6442 -3.86349 0
M  V30 14026 C 1961.31 -4.2728 -2.6824 0
M  V30 14027 C 1962.4 -5.10813 -2.3217 0
M  V30 14028 C 1963.37 -5.27909 -3.22647 0
M  V30 14029 H 1964.38 -4.02278 -6.11074 0
M  V30 14030 H 1965.56 -5.39013 -3.70026 0
M  V30 14031 H 1967.05 -6.71494 -5.02675 0
M  V30 14032 H 1965.35 -7.45796 -6.94223 0
M  V30 14033 H 1965.16 -8.89416 -5.05237 0
M  V30 14034 H 1963.53 -8.14791 -5.18355 0
M  V30 14035 H 1962.45 -5.58884 -1.34755 0
M  V30 14036 H 1964.21 -5.92811 -2.9934 0
M  V30 14037 H 1966.27 -3.3454 -5.51577 0
M  V30 14038 P 1968.03 -5.75688 -6.64379 0
M  V30 14039 O 1969.45 -6.07627 -7.05504 0
M  V30 14040 O 1967.67 -5.88047 -5.19722 0
M  V30 14041 O 1967.71 -4.2322 -7.04443 0
M  V30 14042 C 1967.55 -3.99743 -8.4911 0
M  V30 14043 C 1968.09 -2.60516 -8.79425 0
M  V30 14044 O 1967.03 -1.82684 -8.4467 0
M  V30 14045 C 1969.31 -2.10343 -8.03628 0
M  V30 14046 O 1970.04 -1.09919 -8.67766 0
M  V30 14047 C 1968.64 -1.68446 -6.70876 0
M  V30 14048 O 1969.44 -0.678137 -6.08433 0
M  V30 14049 C 1967.3 -1.17436 -7.18567 0
M  V30 14050 H 1967.33 -0.0804732 -7.31656 0
M  V30 14051 H 1968.51 -2.54037 -6.02537 0
M  V30 14052 H 1970 -2.93881 -7.85526 0
M  V30 14053 H 1968.3 -2.53065 -9.86973 0
M  V30 14054 H 1968.11 -4.75072 -9.05887 0
M  V30 14055 H 1966.48 -4.05244 -8.76668 0
M  V30 14056 H 1969.12 0.177647 -6.34251 0
M  V30 14057 P 1970.98 -1.25109 -8.70152 0
M  V30 14058 O 1972.4 -1.29744 -9.22016 0
M  V30 14059 O 1970.62 -2.13714 -7.55141 0
M  V30 14060 O 1970.66 0.248149 -8.21425 0
M  V30 14061 C 1970.5 1.22779 -9.30434 0
M  V30 14062 C 1971.04 2.56293 -8.80664 0
M  V30 14063 O 1969.98 3.02979 -8.09349 0
M  V30 14064 C 1972.26 2.57523 -7.89775 0
M  V30 14065 O 1972.99 3.7668 -7.89438 0
M  V30 14066 C 1971.59 2.20997 -6.55446 0
M  V30 14067 O 1972.39 2.71895 -5.48509 0
M  V30 14068 C 1970.25 2.89693 -6.67988 0
M  V30 14069 H 1970.28 3.88793 -6.19859 0
M  V30 14070 H 1971.46 1.12046 -6.44229 0
M  V30 14071 H 1972.95 1.7746 -8.19711 0
M  V30 14072 H 1971.25 3.20706 -9.67112 0
M  V30 14073 H 1971.06 0.901032 -10.1892 0
M  V30 14074 H 1969.43 1.33049 -9.56592 0
M  V30 14075 H 1972.07 3.57847 -5.23962 0
M  V30 14076 P 1973.93 3.65191 -7.99657 0
M  V30 14077 O 1975.35 3.89374 -8.45885 0
M  V30 14078 O 1973.57 2.28472 -7.50807 0
M  V30 14079 O 1973.61 4.64972 -6.77611 0
M  V30 14080 C 1973.45 6.06383 -7.16428 0
M  V30 14081 C 1973.99 6.91731 -6.02299 0
M  V30 14082 O 1972.93 6.92369 -5.17005 0
M  V30 14083 C 1975.21 6.43627 -5.25174 0
M  V30 14084 O 1975.94 7.43686 -4.60469 0
M  V30 14085 C 1974.54 5.40275 -4.31916 0
M  V30 14086 O 1975.34 5.24878 -3.14911 0
M  V30 14087 C 1973.2 6.04847 -4.05327 0
M  V30 14088 N 1972.16 5.04166 -3.98114 0
M  V30 14089 C 1972.33 3.84629 -4.59066 0
M  V30 14090 N 1971.3 3.0363 -4.45343 0
M  V30 14091 C 1970.41 3.76722 -3.68523 0
M  V30 14092 C 1969.15 3.43528 -3.17088 0
M  V30 14093 N 1968.55 2.23665 -3.37397 0
M  V30 14094 N 1968.58 4.44526 -2.44231 0
M  V30 14095 C 1969.18 5.65243 -2.20146 0
M  V30 14096 N 1970.36 6.00221 -2.65453 0
M  V30 14097 C 1970.94 5.00564 -3.39083 0
M  V30 14098 H 1973.23 6.62104 -3.11218 0
M  V30 14099 H 1974.42 4.42969 -4.80867 0
M  V30 14100 H 1975.9 5.92458 -5.93643 0
M  V30 14101 H 1974.2 7.93295 -6.39407 0
M  V30 14102 H 1974.01 6.26671 -8.0846 0
M  V30 14103 H 1972.38 6.29101 -7.32804 0
M  V30 14104 H 1968.65 6.36894 -1.5883 0
M  V30 14105 H 1973.23 3.58193 -5.14248 0
M  V30 14106 H 1967.62 2.05145 -2.97047 0
M  V30 14107 H 1969.02 1.51255 -3.92998 0
M  V30 14108 H 1975.02 5.84223 -2.47279 0
M  V30 14109 P 1976.88 7.39546 -4.75277 0
M  V30 14110 O 1978.3 7.84798 -5.01039 0
M  V30 14111 O 1976.52 5.9812 -5.08098 0
M  V30 14112 O 1976.56 7.57503 -3.1866 0
M  V30 14113 C 1976.4 8.97357 -2.74833 0
M  V30 14114 C 1976.94 9.07548 -1.32709 0
M  V30 14115 O 1975.88 8.62072 -0.606159 0
M  V30 14116 C 1978.16 8.25383 -0.938334 0
M  V30 14117 O 1978.89 8.74577 0.146954 0
M  V30 14118 C 1977.49 6.8802 -0.712559 0
M  V30 14119 O 1978.29 6.1189 0.194655 0
M  V30 14120 C 1976.15 7.27966 -0.139777 0
M  V30 14121 H 1976.18 7.25354 0.961601 0
M  V30 14122 H 1977.37 6.32557 -1.65702 0
M  V30 14123 H 1978.85 8.19355 -1.79097 0
M  V30 14124 H 1977.16 10.1294 -1.10029 0
M  V30 14125 H 1976.97 9.64276 -3.41316 0
M  V30 14126 H 1975.34 9.25417 -2.76357 0
M  V30 14127 H 1977.97 6.25267 1.07847 0
M  V30 14128 P 1979.83 8.791 1.69213e-11 0
M  V30 14129 O 1981.23 9.36698 -0.018734 0
M  V30 14130 O 1979.45 7.82499 -1.07878 0
M  V30 14131 O 1979.51 8.09434 1.41446 0
M  V30 14132 C 1979.35 9.0349 2.53943 0
M  V30 14133 C 1979.89 8.35135 3.78975 0
M  V30 14134 O 1978.83 7.57904 4.1503 0
M  V30 14135 C 1981.11 7.45087 3.67298 0
M  V30 14136 O 1981.85 7.27796 4.85194 0
M  V30 14137 C 1980.44 6.17323 3.12027 0
M  V30 14138 O 1981.24 5.04149 3.47132 0
M  V30 14139 C 1979.1 6.19961 3.81809 0
M  V30 14140 N 1978.06 5.71575 2.93223 0
M  V30 14141 C 1977.02 4.99452 3.47592 0
M  V30 14142 O 1977.06 4.7199 4.69732 0
M  V30 14143 N 1976.01 4.58505 2.6803 0
M  V30 14144 C 1976.06 4.85544 1.36995 0
M  V30 14145 C 1977.16 5.55532 0.788532 0
M  V30 14146 C 1978.12 5.97426 1.60849 0
M  V30 14147 H 1979.13 5.58142 4.72986 0
M  V30 14148 H 1980.32 6.21428 2.0318 0
M  V30 14149 H 1981.8 7.85913 2.93131 0
M  V30 14150 H 1980.11 9.11171 4.55987 0
M  V30 14151 H 1979.92 9.9573 2.34194 0
M  V30 14152 H 1978.29 9.27824 2.67805 0
M  V30 14153 H 1977.2 5.7421 -0.281588 0
M  V30 14154 H 1978.97 6.53132 1.202 0
M  V30 14155 H 1981.02 4.76386 4.34983 0
M  V30 14156 P 1982.78 7.39546 4.75277 0
M  V30 14157 O 1984.21 7.81777 5.05738 0
M  V30 14158 O 1982.42 7.1065 3.32998 0
M  V30 14159 O 1982.46 6.04542 5.56673 0
M  V30 14160 C 1982.3 6.22772 7.02095 0
M  V30 14161 C 1982.84 4.97725 7.70406 0
M  V30 14162 O 1981.78 4.13256 7.58987 0
M  V30 14163 C 1984.06 4.28231 7.11815 0
M  V30 14164 O 1984.8 3.49945 8.01648 0
M  V30 14165 C 1983.39 3.5063 5.96244 0
M  V30 14166 O 1984.19 2.36482 5.64681 0
M  V30 14167 C 1982.05 3.15122 6.56374 0
M  V30 14168 H 1982.08 2.13853 6.99751 0
M  V30 14169 H 1983.27 4.13501 5.06559 0
M  V30 14170 H 1984.75 5.03285 6.70911 0
M  V30 14171 H 1983.06 5.20877 8.75697 0
M  V30 14172 H 1982.87 7.11046 7.35349 0
M  V30 14173 H 1981.24 6.35815 7.26986 0
M  V30 14174 H 1983.88 1.61644 6.13565 0
M  V30 14175 P 1985.73 3.65191 7.99657 0
M  V30 14176 O 1987.16 3.8425 8.48115 0
M  V30 14177 O 1985.37 4.17805 6.64342 0
M  V30 14178 O 1985.41 2.07613 7.95143 0
M  V30 14179 C 1985.25 1.44328 9.27336 0
M  V30 14180 C 1985.79 0.0220036 9.17197 0
M  V30 14181 O 1984.73 -0.626867 8.61923 0
M  V30 14182 C 1987.01 -0.24586 8.30336 0
M  V30 14183 O 1987.75 -1.39011 8.63583 0
M  V30 14184 C 1986.34 -0.273849 6.91158 0
M  V30 14185 O 1987.14 -1.06348 6.02892 0
M  V30 14186 C 1985 -0.897649 7.22545 0
M  V30 14187 H 1985.03 -1.9841 7.04286 0
M  V30 14188 H 1986.22 0.739928 6.497 0
M  V30 14189 H 1987.7 0.60668 8.36503 0
M  V30 14190 H 1986.01 -0.352479 10.1829 0
M  V30 14191 H 1985.82 2.00611 10.0304 0
M  V30 14192 H 1984.19 1.41843 9.55327 0
M  V30 14193 H 1986.83 -1.95734 6.03555 0
M  V30 14194 P 1988.68 -1.25109 8.70152 0
M  V30 14195 O 1990.11 -1.35274 9.21221 0
M  V30 14196 O 1988.32 -0.0769065 7.84762 0
M  V30 14197 O 1988.36 -2.55232 7.81161 0
M  V30 14198 C 1988.2 -3.79939 8.58154 0
M  V30 14199 C 1988.74 -4.94023 7.72785 0
M  V30 14200 O 1987.69 -5.18726 6.91205 0
M  V30 14201 C 1989.96 -4.69597 6.85231 0
M  V30 14202 O 1990.7 -5.83832 6.51337 0
M  V30 14203 C 1989.29 -3.96706 5.66633 0
M  V30 14204 O 1990.09 -4.15414 4.49689 0
M  V30 14205 C 1987.95 -4.66153 5.59313 0
M  V30 14206 H 1987.99 -5.47679 4.85214 0
M  V30 14207 H 1989.17 -2.89008 5.86566 0
M  V30 14208 H 1990.65 -4.0121 7.36511 0
M  V30 14209 H 1988.96 -5.80182 8.37584 0
M  V30 14210 H 1988.77 -3.73517 9.52265 0
M  V30 14211 H 1987.14 -3.97163 8.80359 0
M  V30 14212 H 1989.78 -4.90969 4.01921 0
M  V30 14213 P 1991.63 -5.75688 6.64379 0
M  V30 14214 O 1993.06 -6.11849 7.01846 0
M  V30 14215 O 1991.27 -4.30744 6.56026 0
M  V30 14216 O 1991.31 -6.37042 5.19165 0
M  V30 14217 C 1991.15 -7.83578 5.16515 0
M  V30 14218 C 1991.69 -8.33398 3.83019 0
M  V30 14219 O 1990.64 -8.10074 3.01034 0
M  V30 14220 C 1992.91 -7.65514 3.2257 0
M  V30 14221 O 1993.65 -8.4329 2.32297 0
M  V30 14222 C 1992.24 -6.40075 2.62207 0
M  V30 14223 O 1993.04 -5.92589 1.53712 0
M  V30 14224 C 1990.9 -6.9454 2.18503 0
M  V30 14225 H 1990.94 -7.23063 1.12091 0
M  V30 14226 H 1992.12 -5.6025 3.37201 0
M  V30 14227 H 1993.6 -7.35707 4.02681 0
M  V30 14228 H 1991.91 -9.40912 3.9095 0
M  V30 14229 H 1991.72 -8.29056 5.99158 0
M  V30 14230 H 1990.09 -8.10073 5.25882 0
M  V30 14231 H 1992.73 -6.30324 0.726794 0
M  V30 14232 P 1994.59 -8.4349 2.47671 0
M  V30 14233 O 1996.01 -8.94167 2.5964 0
M  V30 14234 O 1994.23 -7.1704 3.19006 0
M  V30 14235 O 1994.26 -8.16596 0.923387 0
M  V30 14236 C 1994.1 -9.38437 0.108857 0
M  V30 14237 C 1994.64 -9.08175 -1.28353 0
M  V30 14238 O 1993.59 -8.44229 -1.84713 0
M  V30 14239 C 1995.86 -8.18386 -1.42505 0
M  V30 14240 O 1996.6 -8.3501 -2.60497 0
M  V30 14241 C 1995.19 -6.80225 -1.25468 0
M  V30 14242 O 1995.99 -5.81621 -1.91066 0
M  V30 14243 C 1993.85 -7.02416 -1.9168 0
M  V30 14244 H 1993.89 -6.6888 -2.96621 0
M  V30 14245 H 1995.07 -6.53617 -0.192223 0
M  V30 14246 H 1996.55 -8.36622 -0.589963 0
M  V30 14247 H 1994.86 -10.0291 -1.79807 0
M  V30 14248 H 1994.67 -10.2138 0.558219 0
M  V30 14249 H 1993.04 -9.6579 0.0444202 0
M  V30 14250 H 1995.68 -5.69556 -2.79637 0
M  V30 14251 P 1997.54 -8.4349 -2.47671 0
M  V30 14252 O 1998.96 -8.92593 -2.65 0
M  V30 14253 O 1997.18 -7.7568 -1.19296 0
M  V30 14254 O 1997.21 -7.36886 -3.63805 0
M  V30 14255 C 1997.05 -7.95349 -4.982 0
M  V30 14256 C 1997.59 -6.94612 -5.98974 0
M  V30 14257 O 1996.54 -6.10347 -6.11815 0
M  V30 14258 C 1998.81 -6.11426 -5.62335 0
M  V30 14259 O 1999.55 -5.6162 -6.70584 0
M  V30 14260 C 1998.14 -5.04409 -4.73308 0
M  V30 14261 O 1998.94 -3.85992 -4.75183 0
M  V30 14262 C 1996.8 -4.8728 -5.41006 0
M  V30 14263 H 1996.84 -4.02333 -6.11157 0
M  V30 14264 H 1998.02 -5.39466 -3.69543 0
M  V30 14265 H 1999.5 -6.71916 -5.01943 0
M  V30 14266 H 1997.81 -7.4649 -6.93477 0
M  V30 14267 H 1997.62 -8.89416 -5.05237 0
M  V30 14268 H 1995.99 -8.14876 -5.18409 0
M  V30 14269 H 1998.63 -3.27957 -5.4317 0
M  V30 14270 P 2000.49 -5.75688 -6.64379 0
M  V30 14271 O 2001.91 -6.07627 -7.05504 0
M  V30 14272 O 2000.13 -5.88047 -5.19722 0
M  V30 14273 O 2000.16 -4.2322 -7.04443 0
M  V30 14274 C 2000 -3.99743 -8.4911 0
M  V30 14275 C 2000.54 -2.60516 -8.79425 0
M  V30 14276 O 1999.49 -1.82684 -8.4467 0
M  V30 14277 C 2001.76 -2.10343 -8.03628 0
M  V30 14278 O 2002.5 -1.09919 -8.67766 0
M  V30 14279 C 2001.09 -1.68446 -6.70876 0
M  V30 14280 O 2001.89 -0.678137 -6.08433 0
M  V30 14281 C 1999.76 -1.17436 -7.18567 0
M  V30 14282 H 1999.79 -0.0804732 -7.31656 0
M  V30 14283 H 2000.97 -2.54037 -6.02537 0
M  V30 14284 H 2002.45 -2.93881 -7.85526 0
M  V30 14285 H 2000.76 -2.53065 -9.86973 0
M  V30 14286 H 2000.57 -4.75072 -9.05887 0
M  V30 14287 H 1998.94 -4.05244 -8.76668 0
M  V30 14288 H 2001.58 0.177647 -6.34251 0
M  V30 14289 P 2003.44 -1.25109 -8.70152 0
M  V30 14290 O 2004.86 -1.29744 -9.22016 0
M  V30 14291 O 2003.08 -2.13714 -7.55141 0
M  V30 14292 O 2003.11 0.248149 -8.21425 0
M  V30 14293 C 2002.95 1.22779 -9.30434 0
M  V30 14294 C 2003.49 2.56293 -8.80664 0
M  V30 14295 O 2002.44 3.02979 -8.09349 0
M  V30 14296 C 2004.71 2.57523 -7.89775 0
M  V30 14297 O 2005.45 3.7668 -7.89438 0
M  V30 14298 C 2004.04 2.20997 -6.55446 0
M  V30 14299 O 2004.84 2.71895 -5.48509 0
M  V30 14300 C 2002.71 2.89693 -6.67988 0
M  V30 14301 H 2002.74 3.88793 -6.19859 0
M  V30 14302 H 2003.92 1.12046 -6.44229 0
M  V30 14303 H 2005.41 1.7746 -8.19711 0
M  V30 14304 H 2003.71 3.20706 -9.67112 0
M  V30 14305 H 2003.52 0.901032 -10.1892 0
M  V30 14306 H 2001.89 1.33049 -9.56592 0
M  V30 14307 H 2004.53 3.57847 -5.23962 0
M  V30 14308 P 2006.39 3.65191 -7.99657 0
M  V30 14309 O 2007.81 3.89332 -8.45794 0
M  V30 14310 O 2006.03 2.28472 -7.50807 0
M  V30 14311 O 2006.06 4.64972 -6.77611 0
M  V30 14312 C 2005.9 6.06319 -7.16352 0
M  V30 14313 C 2006.44 6.91731 -6.02299 0
M  V30 14314 O 2005.39 6.92449 -5.17064 0
M  V30 14315 C 2007.66 6.43627 -5.25174 0
M  V30 14316 O 2008.4 7.43686 -4.60469 0
M  V30 14317 C 2006.99 5.40275 -4.31916 0
M  V30 14318 O 2007.79 5.25279 -3.14438 0
M  V30 14319 C 2005.66 6.04847 -4.05327 0
M  V30 14320 H 2005.69 6.62195 -3.11261 0
M  V30 14321 H 2006.87 4.42556 -4.81383 0
M  V30 14322 H 2008.36 5.92458 -5.93643 0
M  V30 14323 H 2006.66 7.92655 -6.402 0
M  V30 14324 H 2006.47 6.26671 -8.0846 0
M  V30 14325 H 2004.84 6.29101 -7.32804 0
M  V30 14326 H 2007.48 5.84315 -2.47318 0
M  V30 14327 P 2009.34 7.39546 -4.75277 0
M  V30 14328 O 2010.76 7.84798 -5.01039 0
M  V30 14329 O 2008.98 5.9812 -5.08098 0
M  V30 14330 O 2009.02 7.57503 -3.1866 0
M  V30 14331 C 2008.86 8.97357 -2.74833 0
M  V30 14332 C 2009.4 9.07548 -1.32709 0
M  V30 14333 O 2008.34 8.62072 -0.606159 0
M  V30 14334 C 2010.61 8.25383 -0.938334 0
M  V30 14335 O 2011.35 8.74577 0.146954 0
M  V30 14336 C 2009.94 6.8802 -0.712559 0
M  V30 14337 O 2010.74 6.1189 0.194655 0
M  V30 14338 C 2008.61 7.27966 -0.139777 0
M  V30 14339 H 2008.64 7.25354 0.961601 0
M  V30 14340 H 2009.82 6.32557 -1.65702 0
M  V30 14341 H 2011.31 8.19355 -1.79097 0
M  V30 14342 H 2009.61 10.1294 -1.10029 0
M  V30 14343 H 2009.42 9.64276 -3.41316 0
M  V30 14344 H 2007.79 9.25417 -2.76357 0
M  V30 14345 H 2010.43 6.25267 1.07847 0
M  V30 14346 P 2012.29 8.791 1.72314e-11 0
M  V30 14347 O 2013.71 9.31096 0.027933 0
M  V30 14348 O 2011.93 7.77869 -1.04071 0
M  V30 14349 O 2011.97 8.09533 1.41463 0
M  V30 14350 C 2011.81 9.0349 2.53943 0
M  V30 14351 C 2012.35 8.35226 3.79016 0
M  V30 14352 O 2011.29 7.57992 4.15078 0
M  V30 14353 C 2013.56 7.45087 3.67298 0
M  V30 14354 O 2014.3 7.27796 4.85194 0
M  V30 14355 C 2012.89 6.17323 3.12027 0
M  V30 14356 O 2013.69 5.04231 3.47188 0
M  V30 14357 C 2011.56 6.19961 3.81809 0
M  V30 14358 H 2011.59 5.58218 4.73051 0
M  V30 14359 H 2012.77 6.21726 2.02589 0
M  V30 14360 H 2014.26 7.86112 2.9231 0
M  V30 14361 H 2012.56 9.11627 4.55076 0
M  V30 14362 H 2012.37 9.9573 2.34194 0
M  V30 14363 H 2010.74 9.2792 2.67832 0
M  V30 14364 H 2013.38 4.67702 4.28772 0
M  V30 14365 P 2015.24 7.39546 4.75277 0
M  V30 14366 O 2016.66 7.81777 5.05738 0
M  V30 14367 O 2014.88 7.1065 3.32998 0
M  V30 14368 O 2014.92 6.04542 5.56673 0
M  V30 14369 C 2014.76 6.22772 7.02095 0
M  V30 14370 C 2015.3 4.97725 7.70406 0
M  V30 14371 O 2014.24 4.13256 7.58987 0
M  V30 14372 C 2016.51 4.28231 7.11815 0
M  V30 14373 O 2017.25 3.49945 8.01648 0
M  V30 14374 C 2015.85 3.5063 5.96244 0
M  V30 14375 O 2016.64 2.36482 5.64681 0
M  V30 14376 C 2014.51 3.15122 6.56374 0
M  V30 14377 H 2014.54 2.13853 6.99751 0
M  V30 14378 H 2015.72 4.13501 5.06559 0
M  V30 14379 H 2017.21 5.03285 6.70911 0
M  V30 14380 H 2015.51 5.20877 8.75697 0
M  V30 14381 H 2015.32 7.11046 7.35349 0
M  V30 14382 H 2013.69 6.35815 7.26986 0
M  V30 14383 H 2016.33 1.61644 6.13565 0
M  V30 14384 P 2018.19 3.65191 7.99657 0
M  V30 14385 O 2019.61 3.8425 8.48115 0
M  V30 14386 O 2017.83 4.17805 6.64342 0
M  V30 14387 O 2017.87 2.07613 7.95143 0
M  V30 14388 C 2017.71 1.44328 9.27336 0
M  V30 14389 C 2018.25 0.0220036 9.17197 0
M  V30 14390 O 2017.19 -0.626867 8.61923 0
M  V30 14391 C 2019.46 -0.24586 8.30336 0
M  V30 14392 O 2020.2 -1.39011 8.63583 0
M  V30 14393 C 2018.8 -0.273849 6.91158 0
M  V30 14394 O 2019.59 -1.06348 6.02892 0
M  V30 14395 C 2017.46 -0.897649 7.22545 0
M  V30 14396 H 2017.49 -1.9841 7.04286 0
M  V30 14397 H 2018.67 0.739928 6.497 0
M  V30 14398 H 2020.16 0.60668 8.36503 0
M  V30 14399 H 2018.46 -0.352479 10.1829 0
M  V30 14400 H 2018.27 2.00611 10.0304 0
M  V30 14401 H 2016.64 1.41843 9.55327 0
M  V30 14402 H 2019.28 -1.95734 6.03555 0
M  V30 14403 P 2021.14 -1.25109 8.70152 0
M  V30 14404 O 2022.56 -1.35274 9.21221 0
M  V30 14405 O 2020.78 -0.0769065 7.84762 0
M  V30 14406 O 2020.82 -2.55232 7.81161 0
M  V30 14407 C 2020.66 -3.79939 8.58154 0
M  V30 14408 C 2021.2 -4.94023 7.72785 0
M  V30 14409 O 2020.14 -5.18726 6.91205 0
M  V30 14410 C 2022.42 -4.69597 6.85231 0
M  V30 14411 O 2023.15 -5.83832 6.51337 0
M  V30 14412 C 2021.75 -3.96706 5.66633 0
M  V30 14413 O 2022.55 -4.15414 4.49689 0
M  V30 14414 C 2020.41 -4.66153 5.59313 0
M  V30 14415 H 2020.44 -5.47679 4.85214 0
M  V30 14416 H 2021.62 -2.89008 5.86566 0
M  V30 14417 H 2023.11 -4.0121 7.36511 0
M  V30 14418 H 2021.41 -5.80182 8.37584 0
M  V30 14419 H 2021.22 -3.73517 9.52265 0
M  V30 14420 H 2019.59 -3.97163 8.80359 0
M  V30 14421 H 2022.23 -4.90969 4.01921 0
M  V30 14422 P 2024.09 -5.75688 6.64379 0
M  V30 14423 O 2025.51 -6.11849 7.01846 0
M  V30 14424 O 2023.73 -4.30744 6.56026 0
M  V30 14425 O 2023.77 -6.37042 5.19165 0
M  V30 14426 C 2023.61 -7.83578 5.16515 0
M  V30 14427 C 2024.15 -8.33398 3.83019 0
M  V30 14428 O 2023.09 -8.10074 3.01034 0
M  V30 14429 C 2025.37 -7.65514 3.2257 0
M  V30 14430 O 2026.1 -8.4329 2.32297 0
M  V30 14431 C 2024.7 -6.40075 2.62207 0
M  V30 14432 O 2025.5 -5.92589 1.53712 0
M  V30 14433 C 2023.36 -6.9454 2.18503 0
M  V30 14434 H 2023.39 -7.23063 1.12091 0
M  V30 14435 H 2024.58 -5.6025 3.37201 0
M  V30 14436 H 2026.06 -7.35707 4.02681 0
M  V30 14437 H 2024.37 -9.40912 3.9095 0
M  V30 14438 H 2024.18 -8.29056 5.99158 0
M  V30 14439 H 2022.55 -8.10073 5.25882 0
M  V30 14440 H 2025.18 -6.30324 0.726794 0
M  V30 14441 P 2027.04 -8.4349 2.47671 0
M  V30 14442 O 2028.46 -8.94167 2.5964 0
M  V30 14443 O 2026.68 -7.1704 3.19006 0
M  V30 14444 O 2026.72 -8.16596 0.923387 0
M  V30 14445 C 2026.56 -9.38437 0.108857 0
M  V30 14446 C 2027.1 -9.08175 -1.28353 0
M  V30 14447 O 2026.04 -8.44229 -1.84713 0
M  V30 14448 C 2028.32 -8.18386 -1.42505 0
M  V30 14449 O 2029.05 -8.3501 -2.60497 0
M  V30 14450 C 2027.65 -6.80225 -1.25468 0
M  V30 14451 O 2028.45 -5.81621 -1.91066 0
M  V30 14452 C 2026.31 -7.02416 -1.9168 0
M  V30 14453 H 2026.34 -6.6888 -2.96621 0
M  V30 14454 H 2027.53 -6.53617 -0.192223 0
M  V30 14455 H 2029.01 -8.36622 -0.589963 0
M  V30 14456 H 2027.32 -10.0291 -1.79807 0
M  V30 14457 H 2027.13 -10.2138 0.558219 0
M  V30 14458 H 2025.5 -9.6579 0.0444202 0
M  V30 14459 H 2028.13 -5.69556 -2.79637 0
M  V30 14460 P 2029.99 -8.4349 -2.47671 0
M  V30 14461 O 2031.41 -8.92593 -2.65 0
M  V30 14462 O 2029.63 -7.7568 -1.19296 0
M  V30 14463 O 2029.67 -7.36886 -3.63805 0
M  V30 14464 C 2029.51 -7.95349 -4.982 0
M  V30 14465 C 2030.05 -6.94612 -5.98974 0
M  V30 14466 O 2028.99 -6.10347 -6.11815 0
M  V30 14467 C 2031.27 -6.11426 -5.62335 0
M  V30 14468 O 2032.01 -5.6162 -6.70584 0
M  V30 14469 C 2030.6 -5.04409 -4.73308 0
M  V30 14470 O 2031.4 -3.85992 -4.75183 0
M  V30 14471 C 2029.26 -4.8728 -5.41006 0
M  V30 14472 H 2029.29 -4.02333 -6.11157 0
M  V30 14473 H 2030.48 -5.39466 -3.69543 0
M  V30 14474 H 2031.96 -6.71916 -5.01943 0
M  V30 14475 H 2030.27 -7.4649 -6.93477 0
M  V30 14476 H 2030.08 -8.89416 -5.05237 0
M  V30 14477 H 2028.45 -8.14876 -5.18409 0
M  V30 14478 H 2031.09 -3.27957 -5.4317 0
M  V30 14479 P 2032.94 -5.75688 -6.64379 0
M  V30 14480 O 2034.36 -6.07627 -7.05504 0
M  V30 14481 O 2032.58 -5.88047 -5.19722 0
M  V30 14482 O 2032.62 -4.2322 -7.04443 0
M  V30 14483 C 2032.46 -3.99743 -8.4911 0
M  V30 14484 C 2033 -2.60516 -8.79425 0
M  V30 14485 O 2031.94 -1.82684 -8.4467 0
M  V30 14486 C 2034.22 -2.10343 -8.03628 0
M  V30 14487 O 2034.96 -1.09919 -8.67766 0
M  V30 14488 C 2033.55 -1.68446 -6.70876 0
M  V30 14489 O 2034.35 -0.678137 -6.08433 0
M  V30 14490 C 2032.21 -1.17436 -7.18567 0
M  V30 14491 H 2032.24 -0.0804732 -7.31656 0
M  V30 14492 H 2033.43 -2.54037 -6.02537 0
M  V30 14493 H 2034.91 -2.93881 -7.85526 0
M  V30 14494 H 2033.22 -2.53065 -9.86973 0
M  V30 14495 H 2033.03 -4.75072 -9.05887 0
M  V30 14496 H 2031.4 -4.05244 -8.76668 0
M  V30 14497 H 2034.04 0.177647 -6.34251 0
M  V30 14498 P 2035.89 -1.25109 -8.70152 0
M  V30 14499 O 2037.32 -1.29744 -9.22016 0
M  V30 14500 O 2035.53 -2.13714 -7.55141 0
M  V30 14501 O 2035.57 0.248149 -8.21425 0
M  V30 14502 C 2035.41 1.22779 -9.30434 0
M  V30 14503 C 2035.95 2.56293 -8.80664 0
M  V30 14504 O 2034.89 3.02979 -8.09349 0
M  V30 14505 C 2037.17 2.57523 -7.89775 0
M  V30 14506 O 2037.91 3.7668 -7.89438 0
M  V30 14507 C 2036.5 2.20997 -6.55446 0
M  V30 14508 O 2037.3 2.71895 -5.48509 0
M  V30 14509 C 2035.16 2.89693 -6.67988 0
M  V30 14510 H 2035.19 3.88793 -6.19859 0
M  V30 14511 H 2036.38 1.12046 -6.44229 0
M  V30 14512 H 2037.86 1.7746 -8.19711 0
M  V30 14513 H 2036.17 3.20706 -9.67112 0
M  V30 14514 H 2035.98 0.901032 -10.1892 0
M  V30 14515 H 2034.35 1.33049 -9.56592 0
M  V30 14516 H 2036.99 3.57847 -5.23962 0
M  V30 14517 P 2038.84 3.65191 -7.99657 0
M  V30 14518 O 2040.27 3.89332 -8.45794 0
M  V30 14519 O 2038.48 2.28472 -7.50807 0
M  V30 14520 O 2038.52 4.64972 -6.77611 0
M  V30 14521 C 2038.36 6.06319 -7.16352 0
M  V30 14522 C 2038.9 6.91731 -6.02299 0
M  V30 14523 O 2037.84 6.92449 -5.17064 0
M  V30 14524 C 2040.12 6.43627 -5.25174 0
M  V30 14525 O 2040.86 7.43686 -4.60469 0
M  V30 14526 C 2039.45 5.40275 -4.31916 0
M  V30 14527 O 2040.25 5.25279 -3.14438 0
M  V30 14528 C 2038.11 6.04847 -4.05327 0
M  V30 14529 H 2038.14 6.62195 -3.11261 0
M  V30 14530 H 2039.33 4.42556 -4.81383 0
M  V30 14531 H 2040.81 5.92458 -5.93643 0
M  V30 14532 H 2039.12 7.92655 -6.402 0
M  V30 14533 H 2038.93 6.26671 -8.0846 0
M  V30 14534 H 2037.3 6.29101 -7.32804 0
M  V30 14535 H 2039.94 5.84315 -2.47318 0
M  V30 14536 P 2041.79 7.39546 -4.75277 0
M  V30 14537 O 2043.22 7.84798 -5.01039 0
M  V30 14538 O 2041.43 5.9812 -5.08098 0
M  V30 14539 O 2041.47 7.57503 -3.1866 0
M  V30 14540 C 2041.31 8.97357 -2.74833 0
M  V30 14541 C 2041.85 9.07548 -1.32709 0
M  V30 14542 O 2040.8 8.62072 -0.606159 0
M  V30 14543 C 2043.07 8.25383 -0.938334 0
M  V30 14544 O 2043.81 8.74577 0.146954 0
M  V30 14545 C 2042.4 6.8802 -0.712559 0
M  V30 14546 O 2043.2 6.1189 0.194655 0
M  V30 14547 C 2041.06 7.27966 -0.139777 0
M  V30 14548 H 2041.1 7.25354 0.961601 0
M  V30 14549 H 2042.28 6.32557 -1.65702 0
M  V30 14550 H 2043.76 8.19355 -1.79097 0
M  V30 14551 H 2042.07 10.1294 -1.10029 0
M  V30 14552 H 2041.88 9.64276 -3.41316 0
M  V30 14553 H 2040.25 9.25417 -2.76357 0
M  V30 14554 H 2042.89 6.25267 1.07847 0
M  V30 14555 P 2044.75 8.791 1.75416e-11 0
M  V30 14556 O 2046.17 9.31096 0.027933 0
M  V30 14557 O 2044.39 7.77869 -1.04071 0
M  V30 14558 O 2044.42 8.09533 1.41463 0
M  V30 14559 C 2044.26 9.0349 2.53943 0
M  V30 14560 C 2044.8 8.35226 3.79016 0
M  V30 14561 O 2043.75 7.57992 4.15078 0
M  V30 14562 C 2046.02 7.45087 3.67298 0
M  V30 14563 O 2046.76 7.27796 4.85194 0
M  V30 14564 C 2045.35 6.17323 3.12027 0
M  V30 14565 O 2046.15 5.04231 3.47188 0
M  V30 14566 C 2044.01 6.19961 3.81809 0
M  V30 14567 H 2044.05 5.58218 4.73051 0
M  V30 14568 H 2045.23 6.21726 2.02589 0
M  V30 14569 H 2046.71 7.86112 2.9231 0
M  V30 14570 H 2045.02 9.11627 4.55076 0
M  V30 14571 H 2044.83 9.9573 2.34194 0
M  V30 14572 H 2043.2 9.2792 2.67832 0
M  V30 14573 H 2045.84 4.67702 4.28772 0
M  V30 14574 P 2047.7 7.39546 4.75277 0
M  V30 14575 O 2049.12 7.81777 5.05738 0
M  V30 14576 O 2047.34 7.1065 3.32998 0
M  V30 14577 O 2047.37 6.04542 5.56673 0
M  V30 14578 C 2047.21 6.22772 7.02095 0
M  V30 14579 C 2047.75 4.97725 7.70406 0
M  V30 14580 O 2046.7 4.13256 7.58987 0
M  V30 14581 C 2048.97 4.28231 7.11815 0
M  V30 14582 O 2049.71 3.49945 8.01648 0
M  V30 14583 C 2048.3 3.5063 5.96244 0
M  V30 14584 O 2049.1 2.36482 5.64681 0
M  V30 14585 C 2046.96 3.15122 6.56374 0
M  V30 14586 H 2047 2.13853 6.99751 0
M  V30 14587 H 2048.18 4.13501 5.06559 0
M  V30 14588 H 2049.66 5.03285 6.70911 0
M  V30 14589 H 2047.97 5.20877 8.75697 0
M  V30 14590 H 2047.78 7.11046 7.35349 0
M  V30 14591 H 2046.15 6.35815 7.26986 0
M  V30 14592 H 2048.79 1.61644 6.13565 0
M  V30 14593 P 2050.65 3.65191 7.99657 0
M  V30 14594 O 2052.07 3.84292 8.48206 0
M  V30 14595 O 2050.29 4.17805 6.64342 0
M  V30 14596 O 2050.32 2.07613 7.95143 0
M  V30 14597 C 2050.16 1.44344 9.27435 0
M  V30 14598 C 2050.7 0.0220036 9.17197 0
M  V30 14599 O 2049.65 -0.626794 8.61824 0
M  V30 14600 C 2051.92 -0.24586 8.30336 0
M  V30 14601 O 2052.66 -1.39011 8.63583 0
M  V30 14602 C 2051.25 -0.273849 6.91158 0
M  V30 14603 O 2052.05 -1.05728 6.029 0
M  V30 14604 C 2049.92 -0.897649 7.22545 0
M  V30 14605 N 2048.87 -0.292839 6.41732 0
M  V30 14606 C 2049.04 0.950603 5.91308 0
M  V30 14607 N 2048.01 1.37732 5.21105 0
M  V30 14608 C 2047.13 0.318109 5.26039 0
M  V30 14609 C 2045.86 0.146766 4.6727 0
M  V30 14610 N 2045.26 1.08519 3.89983 0
M  V30 14611 N 2045.3 -1.06525 4.95887 0
M  V30 14612 C 2045.9 -2.0378 5.71347 0
M  V30 14613 N 2047.08 -1.92445 6.27451 0
M  V30 14614 C 2047.65 -0.715382 6.00353 0
M  V30 14615 H 2049.95 -1.98383 7.04189 0
M  V30 14616 H 2051.13 0.733318 6.49674 0
M  V30 14617 H 2052.61 0.60668 8.36503 0
M  V30 14618 H 2050.92 -0.362662 10.1825 0
M  V30 14619 H 2050.73 2.00611 10.0304 0
M  V30 14620 H 2049.1 1.41843 9.55327 0
M  V30 14621 H 2045.36 -2.97041 5.85344 0
M  V30 14622 H 2049.94 1.54076 6.07465 0
M  V30 14623 H 2044.33 0.901517 3.49562 0
M  V30 14624 H 2045.74 1.97957 3.71669 0
M  V30 14625 H 2051.74 -1.95704 6.0346 0
M  V30 14626 P 2053.6 -1.25109 8.70152 0
M  V30 14627 O 2055.02 -1.35274 9.21221 0
M  V30 14628 O 2053.24 -0.0769065 7.84762 0
M  V30 14629 O 2053.27 -2.55232 7.81161 0
M  V30 14630 C 2053.11 -3.79939 8.58154 0
M  V30 14631 C 2053.65 -4.94023 7.72785 0
M  V30 14632 O 2052.6 -5.18726 6.91205 0
M  V30 14633 C 2054.87 -4.69597 6.85231 0
M  V30 14634 O 2055.61 -5.83832 6.51337 0
M  V30 14635 C 2054.2 -3.96706 5.66633 0
M  V30 14636 O 2055 -4.15414 4.49689 0
M  V30 14637 C 2052.87 -4.66153 5.59313 0
M  V30 14638 H 2052.9 -5.47679 4.85214 0
M  V30 14639 H 2054.08 -2.89008 5.86566 0
M  V30 14640 H 2055.56 -4.0121 7.36511 0
M  V30 14641 H 2053.87 -5.80182 8.37584 0
M  V30 14642 H 2053.68 -3.73517 9.52265 0
M  V30 14643 H 2052.05 -3.97163 8.80359 0
M  V30 14644 H 2054.69 -4.90969 4.01921 0
M  V30 14645 P 2056.55 -5.75688 6.64379 0
M  V30 14646 O 2057.97 -6.11849 7.01846 0
M  V30 14647 O 2056.19 -4.30744 6.56026 0
M  V30 14648 O 2056.22 -6.37042 5.19165 0
M  V30 14649 C 2056.06 -7.83578 5.16515 0
M  V30 14650 C 2056.6 -8.33398 3.83019 0
M  V30 14651 O 2055.55 -8.10074 3.01034 0
M  V30 14652 C 2057.82 -7.65514 3.2257 0
M  V30 14653 O 2058.56 -8.4329 2.32297 0
M  V30 14654 C 2057.15 -6.40075 2.62207 0
M  V30 14655 O 2057.95 -5.92589 1.53712 0
M  V30 14656 C 2055.82 -6.9454 2.18503 0
M  V30 14657 H 2055.85 -7.23063 1.12091 0
M  V30 14658 H 2057.03 -5.6025 3.37201 0
M  V30 14659 H 2058.52 -7.35707 4.02681 0
M  V30 14660 H 2056.82 -9.40912 3.9095 0
M  V30 14661 H 2056.63 -8.29056 5.99158 0
M  V30 14662 H 2055 -8.10073 5.25882 0
M  V30 14663 H 2057.64 -6.30324 0.726794 0
M  V30 14664 P 2059.5 -8.4349 2.47671 0
M  V30 14665 O 2060.92 -8.94167 2.5964 0
M  V30 14666 O 2059.14 -7.1704 3.19006 0
M  V30 14667 O 2059.17 -8.16596 0.923387 0
M  V30 14668 C 2059.01 -9.38437 0.108857 0
M  V30 14669 C 2059.55 -9.08175 -1.28353 0
M  V30 14670 O 2058.5 -8.44229 -1.84713 0
M  V30 14671 C 2060.77 -8.18386 -1.42505 0
M  V30 14672 O 2061.51 -8.3501 -2.60497 0
M  V30 14673 C 2060.1 -6.80225 -1.25468 0
M  V30 14674 O 2060.9 -5.81621 -1.91066 0
M  V30 14675 C 2058.77 -7.02416 -1.9168 0
M  V30 14676 H 2058.8 -6.6888 -2.96621 0
M  V30 14677 H 2059.98 -6.53617 -0.192223 0
M  V30 14678 H 2061.47 -8.36622 -0.589963 0
M  V30 14679 H 2059.77 -10.0291 -1.79807 0
M  V30 14680 H 2059.58 -10.2138 0.558219 0
M  V30 14681 H 2057.95 -9.6579 0.0444202 0
M  V30 14682 H 2060.59 -5.69556 -2.79637 0
M  V30 14683 P 2062.45 -8.4349 -2.47671 0
M  V30 14684 O 2063.87 -8.92593 -2.65 0
M  V30 14685 O 2062.09 -7.7568 -1.19296 0
M  V30 14686 O 2062.13 -7.36886 -3.63805 0
M  V30 14687 C 2061.97 -7.95349 -4.982 0
M  V30 14688 C 2062.51 -6.94612 -5.98974 0
M  V30 14689 O 2061.45 -6.10347 -6.11815 0
M  V30 14690 C 2063.72 -6.11426 -5.62335 0
M  V30 14691 O 2064.46 -5.6162 -6.70584 0
M  V30 14692 C 2063.05 -5.04409 -4.73308 0
M  V30 14693 O 2063.85 -3.85992 -4.75183 0
M  V30 14694 C 2061.72 -4.8728 -5.41006 0
M  V30 14695 H 2061.75 -4.02333 -6.11157 0
M  V30 14696 H 2062.93 -5.39466 -3.69543 0
M  V30 14697 H 2064.42 -6.71916 -5.01943 0
M  V30 14698 H 2062.72 -7.4649 -6.93477 0
M  V30 14699 H 2062.53 -8.89416 -5.05237 0
M  V30 14700 H 2060.9 -8.14876 -5.18409 0
M  V30 14701 H 2063.54 -3.27957 -5.4317 0
M  V30 14702 P 2065.4 -5.75688 -6.64379 0
M  V30 14703 O 2066.82 -6.07627 -7.05504 0
M  V30 14704 O 2065.04 -5.88047 -5.19722 0
M  V30 14705 O 2065.08 -4.2322 -7.04443 0
M  V30 14706 C 2064.92 -3.99743 -8.4911 0
M  V30 14707 C 2065.46 -2.60516 -8.79425 0
M  V30 14708 O 2064.4 -1.82684 -8.4467 0
M  V30 14709 C 2066.67 -2.10343 -8.03628 0
M  V30 14710 O 2067.41 -1.09919 -8.67766 0
M  V30 14711 C 2066 -1.68446 -6.70876 0
M  V30 14712 O 2066.8 -0.678137 -6.08433 0
M  V30 14713 C 2064.67 -1.17436 -7.18567 0
M  V30 14714 H 2064.7 -0.0804732 -7.31656 0
M  V30 14715 H 2065.88 -2.54037 -6.02537 0
M  V30 14716 H 2067.37 -2.93881 -7.85526 0
M  V30 14717 H 2065.67 -2.53065 -9.86973 0
M  V30 14718 H 2065.48 -4.75072 -9.05887 0
M  V30 14719 H 2063.85 -4.05244 -8.76668 0
M  V30 14720 H 2066.49 0.177647 -6.34251 0
M  V30 14721 P 2068.35 -1.25109 -8.70152 0
M  V30 14722 O 2069.77 -1.29744 -9.22016 0
M  V30 14723 O 2067.99 -2.13714 -7.55141 0
M  V30 14724 O 2068.03 0.248149 -8.21425 0
M  V30 14725 C 2067.87 1.22779 -9.30434 0
M  V30 14726 C 2068.41 2.56293 -8.80664 0
M  V30 14727 O 2067.35 3.02979 -8.09349 0
M  V30 14728 C 2069.62 2.57523 -7.89775 0
M  V30 14729 O 2070.36 3.7668 -7.89438 0
M  V30 14730 C 2068.96 2.20997 -6.55446 0
M  V30 14731 O 2069.75 2.71895 -5.48509 0
M  V30 14732 C 2067.62 2.89693 -6.67988 0
M  V30 14733 H 2067.65 3.88793 -6.19859 0
M  V30 14734 H 2068.83 1.12046 -6.44229 0
M  V30 14735 H 2070.32 1.7746 -8.19711 0
M  V30 14736 H 2068.62 3.20706 -9.67112 0
M  V30 14737 H 2068.43 0.901032 -10.1892 0
M  V30 14738 H 2066.8 1.33049 -9.56592 0
M  V30 14739 H 2069.44 3.57847 -5.23962 0
M  V30 14740 P 2071.3 3.65191 -7.99657 0
M  V30 14741 O 2072.72 3.89332 -8.45794 0
M  V30 14742 O 2070.94 2.28472 -7.50807 0
M  V30 14743 O 2070.98 4.64972 -6.77611 0
M  V30 14744 C 2070.82 6.06319 -7.16352 0
M  V30 14745 C 2071.36 6.91731 -6.02299 0
M  V30 14746 O 2070.3 6.92449 -5.17064 0
M  V30 14747 C 2072.58 6.43627 -5.25174 0
M  V30 14748 O 2073.31 7.43686 -4.60469 0
M  V30 14749 C 2071.91 5.40275 -4.31916 0
M  V30 14750 O 2072.71 5.25279 -3.14438 0
M  V30 14751 C 2070.57 6.04847 -4.05327 0
M  V30 14752 H 2070.6 6.62195 -3.11261 0
M  V30 14753 H 2071.78 4.42556 -4.81383 0
M  V30 14754 H 2073.27 5.92458 -5.93643 0
M  V30 14755 H 2071.57 7.92655 -6.402 0
M  V30 14756 H 2071.38 6.26671 -8.0846 0
M  V30 14757 H 2069.75 6.29101 -7.32804 0
M  V30 14758 H 2072.39 5.84315 -2.47318 0
M  V30 14759 P 2074.25 7.39546 -4.75277 0
M  V30 14760 O 2075.67 7.84798 -5.01039 0
M  V30 14761 O 2073.89 5.9812 -5.08098 0
M  V30 14762 O 2073.93 7.57503 -3.1866 0
M  V30 14763 C 2073.77 8.97357 -2.74833 0
M  V30 14764 C 2074.31 9.07548 -1.32709 0
M  V30 14765 O 2073.25 8.62072 -0.606159 0
M  V30 14766 C 2075.53 8.25383 -0.938334 0
M  V30 14767 O 2076.26 8.74577 0.146954 0
M  V30 14768 C 2074.86 6.8802 -0.712559 0
M  V30 14769 O 2075.66 6.1189 0.194655 0
M  V30 14770 C 2073.52 7.27966 -0.139777 0
M  V30 14771 H 2073.55 7.25354 0.961601 0
M  V30 14772 H 2074.73 6.32557 -1.65702 0
M  V30 14773 H 2076.22 8.19355 -1.79097 0
M  V30 14774 H 2074.52 10.1294 -1.10029 0
M  V30 14775 H 2074.33 9.64276 -3.41316 0
M  V30 14776 H 2072.7 9.25417 -2.76357 0
M  V30 14777 H 2075.34 6.25267 1.07847 0
M  V30 14778 P 2077.2 8.791 1.78518e-11 0
M  V30 14779 O 2078.62 9.31096 0.027933 0
M  V30 14780 O 2076.84 7.77869 -1.04071 0
M  V30 14781 O 2076.88 8.09533 1.41463 0
M  V30 14782 C 2076.72 9.0349 2.53943 0
M  V30 14783 C 2077.26 8.35226 3.79016 0
M  V30 14784 O 2076.2 7.57992 4.15078 0
M  V30 14785 C 2078.48 7.45087 3.67298 0
M  V30 14786 O 2079.21 7.27796 4.85194 0
M  V30 14787 C 2077.81 6.17323 3.12027 0
M  V30 14788 O 2078.61 5.04231 3.47188 0
M  V30 14789 C 2076.47 6.19961 3.81809 0
M  V30 14790 H 2076.5 5.58218 4.73051 0
M  V30 14791 H 2077.69 6.21726 2.02589 0
M  V30 14792 H 2079.17 7.86112 2.9231 0
M  V30 14793 H 2077.48 9.11627 4.55076 0
M  V30 14794 H 2077.29 9.9573 2.34194 0
M  V30 14795 H 2075.66 9.2792 2.67832 0
M  V30 14796 H 2078.29 4.67702 4.28772 0
M  V30 14797 P 2080.15 7.39546 4.75277 0
M  V30 14798 O 2081.57 7.81777 5.05738 0
M  V30 14799 O 2079.79 7.1065 3.32998 0
M  V30 14800 O 2079.83 6.04542 5.56673 0
M  V30 14801 C 2079.67 6.22772 7.02095 0
M  V30 14802 C 2080.21 4.97725 7.70406 0
M  V30 14803 O 2079.15 4.13256 7.58987 0
M  V30 14804 C 2081.43 4.28231 7.11815 0
M  V30 14805 O 2082.16 3.49945 8.01648 0
M  V30 14806 C 2080.76 3.5063 5.96244 0
M  V30 14807 O 2081.56 2.36482 5.64681 0
M  V30 14808 C 2079.42 3.15122 6.56374 0
M  V30 14809 H 2079.45 2.13853 6.99751 0
M  V30 14810 H 2080.64 4.13501 5.06559 0
M  V30 14811 H 2082.12 5.03285 6.70911 0
M  V30 14812 H 2080.43 5.20877 8.75697 0
M  V30 14813 H 2080.24 7.11046 7.35349 0
M  V30 14814 H 2078.61 6.35815 7.26986 0
M  V30 14815 H 2081.24 1.61644 6.13565 0
M  V30 14816 P 2083.1 3.65191 7.99657 0
M  V30 14817 O 2084.52 3.8425 8.48115 0
M  V30 14818 O 2082.74 4.17805 6.64342 0
M  V30 14819 O 2082.78 2.07613 7.95143 0
M  V30 14820 C 2082.62 1.44328 9.27336 0
M  V30 14821 C 2083.16 0.0220036 9.17197 0
M  V30 14822 O 2082.1 -0.626867 8.61923 0
M  V30 14823 C 2084.38 -0.24586 8.30336 0
M  V30 14824 O 2085.12 -1.39011 8.63583 0
M  V30 14825 C 2083.71 -0.273849 6.91158 0
M  V30 14826 O 2084.51 -1.06348 6.02892 0
M  V30 14827 C 2082.37 -0.897649 7.22545 0
M  V30 14828 H 2082.4 -1.9841 7.04286 0
M  V30 14829 H 2083.59 0.739928 6.497 0
M  V30 14830 H 2085.07 0.60668 8.36503 0
M  V30 14831 H 2083.38 -0.352479 10.1829 0
M  V30 14832 H 2083.19 2.00611 10.0304 0
M  V30 14833 H 2081.56 1.41843 9.55327 0
M  V30 14834 H 2084.2 -1.95734 6.03555 0
M  V30 14835 P 2086.05 -1.25109 8.70152 0
M  V30 14836 O 2087.47 -1.35303 9.21419 0
M  V30 14837 O 2085.69 -0.0769065 7.84762 0
M  V30 14838 O 2085.73 -2.55232 7.81161 0
M  V30 14839 C 2085.57 -3.79939 8.58154 0
M  V30 14840 C 2086.11 -4.93969 7.72701 0
M  V30 14841 O 2085.05 -5.18726 6.91205 0
M  V30 14842 C 2087.33 -4.69597 6.85231 0
M  V30 14843 O 2088.07 -5.83832 6.51337 0
M  V30 14844 C 2086.66 -3.96706 5.66633 0
M  V30 14845 O 2087.46 -4.15346 4.49615 0
M  V30 14846 C 2085.32 -4.66153 5.59313 0
M  V30 14847 N 2084.28 -3.71582 5.24027 0
M  V30 14848 C 2084.34 -2.46018 5.67902 0
M  V30 14849 N 2083.3 -1.74868 5.24518 0
M  V30 14850 C 2082.56 -2.61333 4.54528 0
M  V30 14851 C 2081.26 -2.46162 3.95441 0
M  V30 14852 O 2080.52 -1.46013 3.94122 0
M  V30 14853 N 2080.83 -3.59334 3.34752 0
M  V30 14854 C 2081.57 -4.79605 3.3023 0
M  V30 14855 N 2080.98 -5.82109 2.6065 0
M  V30 14856 N 2082.73 -4.97402 3.8843 0
M  V30 14857 C 2083.18 -3.86258 4.50476 0
M  V30 14858 H 2085.35 -5.47679 4.85214 0
M  V30 14859 H 2086.54 -2.88964 5.86476 0
M  V30 14860 H 2088.02 -4.01947 7.36109 0
M  V30 14861 H 2086.33 -5.80182 8.37584 0
M  V30 14862 H 2086.14 -3.73517 9.52265 0
M  V30 14863 H 2084.51 -3.97163 8.80359 0
M  V30 14864 H 2079.93 -3.5825 2.90294 0
M  V30 14865 H 2085.14 -2.06161 6.30974 0
M  V30 14866 H 2080.07 -5.66979 2.15354 0
M  V30 14867 H 2081.44 -6.73686 2.54344 0
M  V30 14868 H 2087.15 -4.90891 4.01857 0
M  V30 14869 P 2089 -5.75688 6.64379 0
M  V30 14870 O 2090.43 -6.11849 7.01846 0
M  V30 14871 O 2088.64 -4.30744 6.56026 0
M  V30 14872 O 2088.68 -6.37042 5.19165 0
M  V30 14873 C 2088.52 -7.83578 5.16515 0
M  V30 14874 C 2089.06 -8.33398 3.83019 0
M  V30 14875 O 2088 -8.10074 3.01034 0
M  V30 14876 C 2090.28 -7.65514 3.2257 0
M  V30 14877 O 2091.02 -8.4329 2.32297 0
M  V30 14878 C 2089.61 -6.40075 2.62207 0
M  V30 14879 O 2090.41 -5.92589 1.53712 0
M  V30 14880 C 2088.27 -6.9454 2.18503 0
M  V30 14881 H 2088.3 -7.23063 1.12091 0
M  V30 14882 H 2089.49 -5.6025 3.37201 0
M  V30 14883 H 2090.97 -7.35707 4.02681 0
M  V30 14884 H 2089.28 -9.40912 3.9095 0
M  V30 14885 H 2089.09 -8.29056 5.99158 0
M  V30 14886 H 2087.46 -8.10073 5.25882 0
M  V30 14887 H 2090.1 -6.30324 0.726794 0
M  V30 14888 P 2091.95 -8.4349 2.47671 0
M  V30 14889 O 2093.38 -8.94167 2.5964 0
M  V30 14890 O 2091.59 -7.1704 3.19006 0
M  V30 14891 O 2091.63 -8.16596 0.923387 0
M  V30 14892 C 2091.47 -9.38437 0.108857 0
M  V30 14893 C 2092.01 -9.08175 -1.28353 0
M  V30 14894 O 2090.96 -8.44229 -1.84713 0
M  V30 14895 C 2093.23 -8.18386 -1.42505 0
M  V30 14896 O 2093.97 -8.3501 -2.60497 0
M  V30 14897 C 2092.56 -6.80225 -1.25468 0
M  V30 14898 O 2093.36 -5.81621 -1.91066 0
M  V30 14899 C 2091.22 -7.02416 -1.9168 0
M  V30 14900 H 2091.26 -6.6888 -2.96621 0
M  V30 14901 H 2092.44 -6.53617 -0.192223 0
M  V30 14902 H 2093.92 -8.36622 -0.589963 0
M  V30 14903 H 2092.23 -10.0291 -1.79807 0
M  V30 14904 H 2092.04 -10.2138 0.558219 0
M  V30 14905 H 2090.41 -9.6579 0.0444202 0
M  V30 14906 H 2093.05 -5.69556 -2.79637 0
M  V30 14907 P 2094.9 -8.4349 -2.47671 0
M  V30 14908 O 2096.33 -8.92593 -2.65 0
M  V30 14909 O 2094.54 -7.7568 -1.19296 0
M  V30 14910 O 2094.58 -7.36886 -3.63805 0
M  V30 14911 C 2094.42 -7.95349 -4.982 0
M  V30 14912 C 2094.96 -6.94612 -5.98974 0
M  V30 14913 O 2093.91 -6.10347 -6.11815 0
M  V30 14914 C 2096.18 -6.11426 -5.62335 0
M  V30 14915 O 2096.92 -5.6162 -6.70584 0
M  V30 14916 C 2095.51 -5.04409 -4.73308 0
M  V30 14917 O 2096.31 -3.85992 -4.75183 0
M  V30 14918 C 2094.17 -4.8728 -5.41006 0
M  V30 14919 H 2094.21 -4.02333 -6.11157 0
M  V30 14920 H 2095.39 -5.39466 -3.69543 0
M  V30 14921 H 2096.87 -6.71916 -5.01943 0
M  V30 14922 H 2095.18 -7.4649 -6.93477 0
M  V30 14923 H 2094.99 -8.89416 -5.05237 0
M  V30 14924 H 2093.36 -8.14876 -5.18409 0
M  V30 14925 H 2096 -3.27957 -5.4317 0
M  V30 14926 P 2097.86 -5.75688 -6.64379 0
M  V30 14927 O 2099.28 -6.07627 -7.05504 0
M  V30 14928 O 2097.5 -5.88047 -5.19722 0
M  V30 14929 O 2097.53 -4.2322 -7.04443 0
M  V30 14930 C 2097.37 -3.99743 -8.4911 0
M  V30 14931 C 2097.91 -2.60516 -8.79425 0
M  V30 14932 O 2096.86 -1.82684 -8.4467 0
M  V30 14933 C 2099.13 -2.10343 -8.03628 0
M  V30 14934 O 2099.87 -1.09919 -8.67766 0
M  V30 14935 C 2098.46 -1.68446 -6.70876 0
M  V30 14936 O 2099.26 -0.678137 -6.08433 0
M  V30 14937 C 2097.12 -1.17436 -7.18567 0
M  V30 14938 H 2097.16 -0.0804732 -7.31656 0
M  V30 14939 H 2098.34 -2.54037 -6.02537 0
M  V30 14940 H 2099.82 -2.93881 -7.85526 0
M  V30 14941 H 2098.13 -2.53065 -9.86973 0
M  V30 14942 H 2097.94 -4.75072 -9.05887 0
M  V30 14943 H 2096.31 -4.05244 -8.76668 0
M  V30 14944 H 2098.95 0.177647 -6.34251 0
M  V30 14945 P 2100.81 -1.25109 -8.70152 0
M  V30 14946 O 2102.23 -1.29744 -9.22016 0
M  V30 14947 O 2100.45 -2.13714 -7.55141 0
M  V30 14948 O 2100.48 0.248149 -8.21425 0
M  V30 14949 C 2100.32 1.22779 -9.30434 0
M  V30 14950 C 2100.86 2.56293 -8.80664 0
M  V30 14951 O 2099.81 3.02979 -8.09349 0
M  V30 14952 C 2102.08 2.57523 -7.89775 0
M  V30 14953 O 2102.82 3.7668 -7.89438 0
M  V30 14954 C 2101.41 2.20997 -6.55446 0
M  V30 14955 O 2102.21 2.71895 -5.48509 0
M  V30 14956 C 2100.07 2.89693 -6.67988 0
M  V30 14957 H 2100.11 3.88793 -6.19859 0
M  V30 14958 H 2101.29 1.12046 -6.44229 0
M  V30 14959 H 2102.77 1.7746 -8.19711 0
M  V30 14960 H 2101.08 3.20706 -9.67112 0
M  V30 14961 H 2100.89 0.901032 -10.1892 0
M  V30 14962 H 2099.26 1.33049 -9.56592 0
M  V30 14963 H 2101.9 3.57847 -5.23962 0
M  V30 14964 P 2103.76 3.65191 -7.99657 0
M  V30 14965 O 2105.18 3.89332 -8.45794 0
M  V30 14966 O 2103.4 2.28472 -7.50807 0
M  V30 14967 O 2103.43 4.64972 -6.77611 0
M  V30 14968 C 2103.27 6.06319 -7.16352 0
M  V30 14969 C 2103.81 6.91731 -6.02299 0
M  V30 14970 O 2102.76 6.92449 -5.17064 0
M  V30 14971 C 2105.03 6.43627 -5.25174 0
M  V30 14972 O 2105.77 7.43686 -4.60469 0
M  V30 14973 C 2104.36 5.40275 -4.31916 0
M  V30 14974 O 2105.16 5.25279 -3.14438 0
M  V30 14975 C 2103.03 6.04847 -4.05327 0
M  V30 14976 H 2103.06 6.62195 -3.11261 0
M  V30 14977 H 2104.24 4.42556 -4.81383 0
M  V30 14978 H 2105.72 5.92458 -5.93643 0
M  V30 14979 H 2104.03 7.92655 -6.402 0
M  V30 14980 H 2103.84 6.26671 -8.0846 0
M  V30 14981 H 2102.21 6.29101 -7.32804 0
M  V30 14982 H 2104.85 5.84315 -2.47318 0
M  V30 14983 P 2106.71 7.39546 -4.75277 0
M  V30 14984 O 2108.13 7.84798 -5.01039 0
M  V30 14985 O 2106.35 5.9812 -5.08098 0
M  V30 14986 O 2106.38 7.57503 -3.1866 0
M  V30 14987 C 2106.22 8.97357 -2.74833 0
M  V30 14988 C 2106.76 9.07548 -1.32709 0
M  V30 14989 O 2105.71 8.62072 -0.606159 0
M  V30 14990 C 2107.98 8.25383 -0.938334 0
M  V30 14991 O 2108.72 8.74577 0.146954 0
M  V30 14992 C 2107.31 6.8802 -0.712559 0
M  V30 14993 O 2108.11 6.1189 0.194655 0
M  V30 14994 C 2105.98 7.27966 -0.139777 0
M  V30 14995 H 2106.01 7.25354 0.961601 0
M  V30 14996 H 2107.19 6.32557 -1.65702 0
M  V30 14997 H 2108.67 8.19355 -1.79097 0
M  V30 14998 H 2106.98 10.1294 -1.10029 0
M  V30 14999 H 2106.79 9.64276 -3.41316 0
M  V30 15000 H 2105.16 9.25417 -2.76357 0
M  V30 15001 H 2107.8 6.25267 1.07847 0
M  V30 15002 P 2109.66 8.791 1.81619e-11 0
M  V30 15003 O 2111.08 9.31096 0.027933 0
M  V30 15004 O 2109.3 7.77869 -1.04071 0
M  V30 15005 O 2109.33 8.09533 1.41463 0
M  V30 15006 C 2109.17 9.0349 2.53943 0
M  V30 15007 C 2109.71 8.35226 3.79016 0
M  V30 15008 O 2108.66 7.57992 4.15078 0
M  V30 15009 C 2110.93 7.45087 3.67298 0
M  V30 15010 O 2111.67 7.27796 4.85194 0
M  V30 15011 C 2110.26 6.17323 3.12027 0
M  V30 15012 O 2111.06 5.04231 3.47188 0
M  V30 15013 C 2108.93 6.19961 3.81809 0
M  V30 15014 H 2108.96 5.58218 4.73051 0
M  V30 15015 H 2110.14 6.21726 2.02589 0
M  V30 15016 H 2111.63 7.86112 2.9231 0
M  V30 15017 H 2109.93 9.11627 4.55076 0
M  V30 15018 H 2109.74 9.9573 2.34194 0
M  V30 15019 H 2108.11 9.2792 2.67832 0
M  V30 15020 H 2110.75 4.67702 4.28772 0
M  V30 15021 P 2112.61 7.39546 4.75277 0
M  V30 15022 O 2114.03 7.81777 5.05738 0
M  V30 15023 O 2112.25 7.1065 3.32998 0
M  V30 15024 O 2112.29 6.04542 5.56673 0
M  V30 15025 C 2112.13 6.22772 7.02095 0
M  V30 15026 C 2112.67 4.97725 7.70406 0
M  V30 15027 O 2111.61 4.13256 7.58987 0
M  V30 15028 C 2113.88 4.28231 7.11815 0
M  V30 15029 O 2114.62 3.49945 8.01648 0
M  V30 15030 C 2113.21 3.5063 5.96244 0
M  V30 15031 O 2114.01 2.36482 5.64681 0
M  V30 15032 C 2111.88 3.15122 6.56374 0
M  V30 15033 H 2111.91 2.13853 6.99751 0
M  V30 15034 H 2113.09 4.13501 5.06559 0
M  V30 15035 H 2114.58 5.03285 6.70911 0
M  V30 15036 H 2112.88 5.20877 8.75697 0
M  V30 15037 H 2112.69 7.11046 7.35349 0
M  V30 15038 H 2111.06 6.35815 7.26986 0
M  V30 15039 H 2113.7 1.61644 6.13565 0
M  V30 15040 P 2115.56 3.65191 7.99657 0
M  V30 15041 O 2116.98 3.8425 8.48115 0
M  V30 15042 O 2115.2 4.17805 6.64342 0
M  V30 15043 O 2115.24 2.07613 7.95143 0
M  V30 15044 C 2115.08 1.44328 9.27336 0
M  V30 15045 C 2115.62 0.0220036 9.17197 0
M  V30 15046 O 2114.56 -0.626867 8.61923 0
M  V30 15047 C 2116.83 -0.24586 8.30336 0
M  V30 15048 O 2117.57 -1.39011 8.63583 0
M  V30 15049 C 2116.16 -0.273849 6.91158 0
M  V30 15050 O 2116.96 -1.06348 6.02892 0
M  V30 15051 C 2114.83 -0.897649 7.22545 0
M  V30 15052 H 2114.86 -1.9841 7.04286 0
M  V30 15053 H 2116.04 0.739928 6.497 0
M  V30 15054 H 2117.53 0.60668 8.36503 0
M  V30 15055 H 2115.83 -0.352479 10.1829 0
M  V30 15056 H 2115.64 2.00611 10.0304 0
M  V30 15057 H 2114.01 1.41843 9.55327 0
M  V30 15058 H 2116.65 -1.95734 6.03555 0
M  V30 15059 P 2118.51 -1.25109 8.70152 0
M  V30 15060 O 2119.93 -1.35274 9.21221 0
M  V30 15061 O 2118.15 -0.0769065 7.84762 0
M  V30 15062 O 2118.19 -2.55232 7.81161 0
M  V30 15063 C 2118.03 -3.79939 8.58154 0
M  V30 15064 C 2118.57 -4.94023 7.72785 0
M  V30 15065 O 2117.51 -5.18726 6.91205 0
M  V30 15066 C 2119.78 -4.69597 6.85231 0
M  V30 15067 O 2120.52 -5.83832 6.51337 0
M  V30 15068 C 2119.12 -3.96706 5.66633 0
M  V30 15069 O 2119.91 -4.15414 4.49689 0
M  V30 15070 C 2117.78 -4.66153 5.59313 0
M  V30 15071 H 2117.81 -5.47679 4.85214 0
M  V30 15072 H 2118.99 -2.89008 5.86566 0
M  V30 15073 H 2120.48 -4.0121 7.36511 0
M  V30 15074 H 2118.78 -5.80182 8.37584 0
M  V30 15075 H 2118.59 -3.73517 9.52265 0
M  V30 15076 H 2116.96 -3.97163 8.80359 0
M  V30 15077 H 2119.6 -4.90969 4.01921 0
M  V30 15078 P 2121.46 -5.75688 6.64379 0
M  V30 15079 O 2122.88 -6.11849 7.01846 0
M  V30 15080 O 2121.1 -4.30744 6.56026 0
M  V30 15081 O 2121.14 -6.37042 5.19165 0
M  V30 15082 C 2120.98 -7.83578 5.16515 0
M  V30 15083 C 2121.52 -8.33398 3.83019 0
M  V30 15084 O 2120.46 -8.10074 3.01034 0
M  V30 15085 C 2122.73 -7.65514 3.2257 0
M  V30 15086 O 2123.47 -8.4329 2.32297 0
M  V30 15087 C 2122.07 -6.40075 2.62207 0
M  V30 15088 O 2122.86 -5.92589 1.53712 0
M  V30 15089 C 2120.73 -6.9454 2.18503 0
M  V30 15090 H 2120.76 -7.23063 1.12091 0
M  V30 15091 H 2121.94 -5.6025 3.37201 0
M  V30 15092 H 2123.43 -7.35707 4.02681 0
M  V30 15093 H 2121.73 -9.40912 3.9095 0
M  V30 15094 H 2121.54 -8.29056 5.99158 0
M  V30 15095 H 2119.91 -8.10073 5.25882 0
M  V30 15096 H 2122.55 -6.30324 0.726794 0
M  V30 15097 P 2124.41 -8.4349 2.47671 0
M  V30 15098 O 2125.81 -8.98227 2.65696 0
M  V30 15099 O 2124.03 -7.20409 3.23964 0
M  V30 15100 O 2124.09 -8.16496 0.923275 0
M  V30 15101 C 2123.93 -9.38437 0.108857 0
M  V30 15102 C 2124.47 -9.08076 -1.28339 0
M  V30 15103 O 2123.41 -8.44131 -1.84692 0
M  V30 15104 C 2125.68 -8.18386 -1.42505 0
M  V30 15105 O 2126.42 -8.3501 -2.60497 0
M  V30 15106 C 2125.02 -6.80225 -1.25468 0
M  V30 15107 O 2125.82 -5.81526 -1.91035 0
M  V30 15108 C 2123.68 -7.02416 -1.9168 0
M  V30 15109 N 2122.64 -6.31033 -1.20314 0
M  V30 15110 C 2121.6 -5.77149 -1.928 0
M  V30 15111 O 2121.64 -5.8521 -3.17729 0
M  V30 15112 N 2120.59 -5.15445 -1.27997 0
M  V30 15113 C 2120.64 -5.04472 0.0534726 0
M  V30 15114 C 2121.73 -5.55244 0.808522 0
M  V30 15115 C 2122.7 -6.18542 0.13981 0
M  V30 15116 H 2123.71 -6.68789 -2.9658 0
M  V30 15117 H 2124.89 -6.53498 -0.198729 0
M  V30 15118 H 2126.38 -8.36663 -0.5984 0
M  V30 15119 H 2124.68 -10.0273 -1.8081 0
M  V30 15120 H 2124.49 -10.2138 0.558219 0
M  V30 15121 H 2122.86 -9.6569 0.0444156 0
M  V30 15122 H 2121.78 -5.43017 1.88792 0
M  V30 15123 H 2123.55 -6.60539 0.686773 0
M  V30 15124 H 2125.6 -5.79638 -2.8315 0
M  V30 15125 P 2127.36 -8.4349 -2.47671 0
M  V30 15126 O 2128.78 -8.92593 -2.65 0
M  V30 15127 O 2127 -7.7568 -1.19296 0
M  V30 15128 O 2127.04 -7.36886 -3.63805 0
M  V30 15129 C 2126.88 -7.95349 -4.982 0
M  V30 15130 C 2127.42 -6.94612 -5.98974 0
M  V30 15131 O 2126.36 -6.10347 -6.11815 0
M  V30 15132 C 2128.64 -6.11426 -5.62335 0
M  V30 15133 O 2129.37 -5.6162 -6.70584 0
M  V30 15134 C 2127.97 -5.04409 -4.73308 0
M  V30 15135 O 2128.77 -3.85992 -4.75183 0
M  V30 15136 C 2126.63 -4.8728 -5.41006 0
M  V30 15137 H 2126.66 -4.02333 -6.11157 0
M  V30 15138 H 2127.84 -5.39466 -3.69543 0
M  V30 15139 H 2129.33 -6.71916 -5.01943 0
M  V30 15140 H 2127.63 -7.4649 -6.93477 0
M  V30 15141 H 2127.44 -8.89416 -5.05237 0
M  V30 15142 H 2125.81 -8.14876 -5.18409 0
M  V30 15143 H 2128.45 -3.27957 -5.4317 0
M  V30 15144 P 2130.31 -5.75688 -6.64379 0
M  V30 15145 O 2131.73 -6.07627 -7.05504 0
M  V30 15146 O 2129.95 -5.88047 -5.19722 0
M  V30 15147 O 2129.99 -4.2322 -7.04443 0
M  V30 15148 C 2129.83 -3.99743 -8.4911 0
M  V30 15149 C 2130.37 -2.60516 -8.79425 0
M  V30 15150 O 2129.31 -1.82684 -8.4467 0
M  V30 15151 C 2131.59 -2.10343 -8.03628 0
M  V30 15152 O 2132.32 -1.09919 -8.67766 0
M  V30 15153 C 2130.92 -1.68446 -6.70876 0
M  V30 15154 O 2131.72 -0.678137 -6.08433 0
M  V30 15155 C 2129.58 -1.17436 -7.18567 0
M  V30 15156 H 2129.61 -0.0804732 -7.31656 0
M  V30 15157 H 2130.8 -2.54037 -6.02537 0
M  V30 15158 H 2132.28 -2.93881 -7.85526 0
M  V30 15159 H 2130.59 -2.53065 -9.86973 0
M  V30 15160 H 2130.4 -4.75072 -9.05887 0
M  V30 15161 H 2128.77 -4.05244 -8.76668 0
M  V30 15162 H 2131.4 0.177647 -6.34251 0
M  V30 15163 P 2133.26 -1.25109 -8.70152 0
M  V30 15164 O 2134.68 -1.29744 -9.22016 0
M  V30 15165 O 2132.9 -2.13714 -7.55141 0
M  V30 15166 O 2132.94 0.248149 -8.21425 0
M  V30 15167 C 2132.78 1.22779 -9.30434 0
M  V30 15168 C 2133.32 2.56293 -8.80664 0
M  V30 15169 O 2132.26 3.02979 -8.09349 0
M  V30 15170 C 2134.54 2.57523 -7.89775 0
M  V30 15171 O 2135.28 3.7668 -7.89438 0
M  V30 15172 C 2133.87 2.20997 -6.55446 0
M  V30 15173 O 2134.67 2.71895 -5.48509 0
M  V30 15174 C 2132.53 2.89693 -6.67988 0
M  V30 15175 H 2132.56 3.88793 -6.19859 0
M  V30 15176 H 2133.75 1.12046 -6.44229 0
M  V30 15177 H 2135.23 1.7746 -8.19711 0
M  V30 15178 H 2133.54 3.20706 -9.67112 0
M  V30 15179 H 2133.35 0.901032 -10.1892 0
M  V30 15180 H 2131.72 1.33049 -9.56592 0
M  V30 15181 H 2134.36 3.57847 -5.23962 0
M  V30 15182 P 2136.21 3.65191 -7.99657 0
M  V30 15183 O 2137.63 3.89332 -8.45794 0
M  V30 15184 O 2135.85 2.28472 -7.50807 0
M  V30 15185 O 2135.89 4.64972 -6.77611 0
M  V30 15186 C 2135.73 6.06319 -7.16352 0
M  V30 15187 C 2136.27 6.91731 -6.02299 0
M  V30 15188 O 2135.21 6.92449 -5.17064 0
M  V30 15189 C 2137.49 6.43627 -5.25174 0
M  V30 15190 O 2138.23 7.43686 -4.60469 0
M  V30 15191 C 2136.82 5.40275 -4.31916 0
M  V30 15192 O 2137.62 5.25279 -3.14438 0
M  V30 15193 C 2135.48 6.04847 -4.05327 0
M  V30 15194 H 2135.51 6.62195 -3.11261 0
M  V30 15195 H 2136.7 4.42556 -4.81383 0
M  V30 15196 H 2138.18 5.92458 -5.93643 0
M  V30 15197 H 2136.49 7.92655 -6.402 0
M  V30 15198 H 2136.3 6.26671 -8.0846 0
M  V30 15199 H 2134.67 6.29101 -7.32804 0
M  V30 15200 H 2137.31 5.84315 -2.47318 0
M  V30 15201 P 2139.16 7.39546 -4.75277 0
M  V30 15202 O 2140.58 7.84882 -5.01092 0
M  V30 15203 O 2138.8 5.9812 -5.08098 0
M  V30 15204 O 2138.84 7.57503 -3.1866 0
M  V30 15205 C 2138.68 8.97452 -2.74862 0
M  V30 15206 C 2139.22 9.07548 -1.32709 0
M  V30 15207 O 2138.17 8.61972 -0.606089 0
M  V30 15208 C 2140.44 8.25383 -0.938334 0
M  V30 15209 O 2141.18 8.74577 0.146954 0
M  V30 15210 C 2139.77 6.8802 -0.712559 0
M  V30 15211 O 2140.57 6.1181 0.188505 0
M  V30 15212 C 2138.43 7.27966 -0.139777 0
M  V30 15213 N 2137.39 6.39368 -0.623421 0
M  V30 15214 C 2137.56 5.71761 -1.78245 0
M  V30 15215 N 2136.53 4.962 -2.10491 0
M  V30 15216 C 2135.65 5.16158 -1.0635 0
M  V30 15217 C 2134.38 4.60425 -0.810266 0
M  V30 15218 N 2133.78 3.7057 -1.62914 0
M  V30 15219 N 2133.81 5.06 0.348685 0
M  V30 15220 C 2134.42 5.94532 1.20395 0
M  V30 15221 N 2135.59 6.48452 1.01191 0
M  V30 15222 C 2136.17 6.04423 -0.146291 0
M  V30 15223 H 2138.46 7.25255 0.961469 0
M  V30 15224 H 2139.65 6.32625 -1.65044 0
M  V30 15225 H 2141.13 8.19355 -1.79097 0
M  V30 15226 H 2139.44 10.1305 -1.09016 0
M  V30 15227 H 2139.25 9.64276 -3.41316 0
M  V30 15228 H 2137.62 9.25417 -2.76357 0
M  V30 15229 H 2133.88 6.21659 2.10714 0
M  V30 15230 H 2138.46 5.79354 -2.38959 0
M  V30 15231 H 2132.85 3.33174 -1.38982 0
M  V30 15232 H 2134.25 3.39714 -2.48836 0
M  V30 15233 H 2140.26 6.25169 1.0783 0
M  V30 15234 P 2142.11 8.791 1.84721e-11 0
M  V30 15235 O 2143.54 9.31096 0.027933 0
M  V30 15236 O 2141.75 7.77869 -1.04071 0
M  V30 15237 O 2141.79 8.09533 1.41463 0
M  V30 15238 C 2141.63 9.0349 2.53943 0
M  V30 15239 C 2142.17 8.35226 3.79016 0
M  V30 15240 O 2141.11 7.57992 4.15078 0
M  V30 15241 C 2143.39 7.45087 3.67298 0
M  V30 15242 O 2144.13 7.27796 4.85194 0
M  V30 15243 C 2142.72 6.17323 3.12027 0
M  V30 15244 O 2143.52 5.04231 3.47188 0
M  V30 15245 C 2141.38 6.19961 3.81809 0
M  V30 15246 H 2141.41 5.58218 4.73051 0
M  V30 15247 H 2142.6 6.21726 2.02589 0
M  V30 15248 H 2144.08 7.86112 2.9231 0
M  V30 15249 H 2142.39 9.11627 4.55076 0
M  V30 15250 H 2142.2 9.9573 2.34194 0
M  V30 15251 H 2140.57 9.2792 2.67832 0
M  V30 15252 H 2143.21 4.67702 4.28772 0
M  V30 15253 P 2145.06 7.39546 4.75277 0
M  V30 15254 O 2146.49 7.81777 5.05738 0
M  V30 15255 O 2144.7 7.1065 3.32998 0
M  V30 15256 O 2144.74 6.04542 5.56673 0
M  V30 15257 C 2144.58 6.22772 7.02095 0
M  V30 15258 C 2145.12 4.97725 7.70406 0
M  V30 15259 O 2144.07 4.13256 7.58987 0
M  V30 15260 C 2146.34 4.28231 7.11815 0
M  V30 15261 O 2147.08 3.49945 8.01648 0
M  V30 15262 C 2145.67 3.5063 5.96244 0
M  V30 15263 O 2146.47 2.36482 5.64681 0
M  V30 15264 C 2144.33 3.15122 6.56374 0
M  V30 15265 H 2144.37 2.13853 6.99751 0
M  V30 15266 H 2145.55 4.13501 5.06559 0
M  V30 15267 H 2147.03 5.03285 6.70911 0
M  V30 15268 H 2145.34 5.20877 8.75697 0
M  V30 15269 H 2145.15 7.11046 7.35349 0
M  V30 15270 H 2143.52 6.35815 7.26986 0
M  V30 15271 H 2146.16 1.61644 6.13565 0
M  V30 15272 P 2148.01 3.65191 7.99657 0
M  V30 15273 O 2149.44 3.8425 8.48115 0
M  V30 15274 O 2147.65 4.17805 6.64342 0
M  V30 15275 O 2147.69 2.07613 7.95143 0
M  V30 15276 C 2147.53 1.44328 9.27336 0
M  V30 15277 C 2148.07 0.0220036 9.17197 0
M  V30 15278 O 2147.02 -0.626867 8.61923 0
M  V30 15279 C 2149.29 -0.24586 8.30336 0
M  V30 15280 O 2150.03 -1.39011 8.63583 0
M  V30 15281 C 2148.62 -0.273849 6.91158 0
M  V30 15282 O 2149.42 -1.06348 6.02892 0
M  V30 15283 C 2147.28 -0.897649 7.22545 0
M  V30 15284 H 2147.32 -1.9841 7.04286 0
M  V30 15285 H 2148.5 0.739928 6.497 0
M  V30 15286 H 2149.98 0.60668 8.36503 0
M  V30 15287 H 2148.29 -0.352479 10.1829 0
M  V30 15288 H 2148.1 2.00611 10.0304 0
M  V30 15289 H 2146.47 1.41843 9.55327 0
M  V30 15290 H 2149.11 -1.95734 6.03555 0
M  V30 15291 P 2150.97 -1.25109 8.70152 0
M  V30 15292 O 2152.39 -1.35274 9.21221 0
M  V30 15293 O 2150.61 -0.0769065 7.84762 0
M  V30 15294 O 2150.64 -2.55232 7.81161 0
M  V30 15295 C 2150.48 -3.79939 8.58154 0
M  V30 15296 C 2151.02 -4.94023 7.72785 0
M  V30 15297 O 2149.97 -5.18726 6.91205 0
M  V30 15298 C 2152.24 -4.69597 6.85231 0
M  V30 15299 O 2152.98 -5.83832 6.51337 0
M  V30 15300 C 2151.57 -3.96706 5.66633 0
M  V30 15301 O 2152.37 -4.15414 4.49689 0
M  V30 15302 C 2150.23 -4.66153 5.59313 0
M  V30 15303 H 2150.27 -5.47679 4.85214 0
M  V30 15304 H 2151.45 -2.89008 5.86566 0
M  V30 15305 H 2152.93 -4.0121 7.36511 0
M  V30 15306 H 2151.24 -5.80182 8.37584 0
M  V30 15307 H 2151.05 -3.73517 9.52265 0
M  V30 15308 H 2149.42 -3.97163 8.80359 0
M  V30 15309 H 2152.06 -4.90969 4.01921 0
M  V30 15310 P 2153.92 -5.75688 6.64379 0
M  V30 15311 O 2155.34 -6.11849 7.01846 0
M  V30 15312 O 2153.56 -4.30744 6.56026 0
M  V30 15313 O 2153.59 -6.37042 5.19165 0
M  V30 15314 C 2153.43 -7.83578 5.16515 0
M  V30 15315 C 2153.97 -8.33398 3.83019 0
M  V30 15316 O 2152.92 -8.10074 3.01034 0
M  V30 15317 C 2155.19 -7.65514 3.2257 0
M  V30 15318 O 2155.93 -8.4329 2.32297 0
M  V30 15319 C 2154.52 -6.40075 2.62207 0
M  V30 15320 O 2155.32 -5.92589 1.53712 0
M  V30 15321 C 2153.19 -6.9454 2.18503 0
M  V30 15322 H 2153.22 -7.23063 1.12091 0
M  V30 15323 H 2154.4 -5.6025 3.37201 0
M  V30 15324 H 2155.88 -7.35707 4.02681 0
M  V30 15325 H 2154.19 -9.40912 3.9095 0
M  V30 15326 H 2154 -8.29056 5.99158 0
M  V30 15327 H 2152.37 -8.10073 5.25882 0
M  V30 15328 H 2155.01 -6.30324 0.726794 0
M  V30 15329 P 2156.87 -8.4349 2.47671 0
M  V30 15330 O 2158.29 -8.94167 2.5964 0
M  V30 15331 O 2156.51 -7.1704 3.19006 0
M  V30 15332 O 2156.54 -8.16596 0.923387 0
M  V30 15333 C 2156.38 -9.38437 0.108857 0
M  V30 15334 C 2156.92 -9.08175 -1.28353 0
M  V30 15335 O 2155.87 -8.44229 -1.84713 0
M  V30 15336 C 2158.14 -8.18386 -1.42505 0
M  V30 15337 O 2158.88 -8.3501 -2.60497 0
M  V30 15338 C 2157.47 -6.80225 -1.25468 0
M  V30 15339 O 2158.27 -5.81621 -1.91066 0
M  V30 15340 C 2156.14 -7.02416 -1.9168 0
M  V30 15341 H 2156.17 -6.6888 -2.96621 0
M  V30 15342 H 2157.35 -6.53617 -0.192223 0
M  V30 15343 H 2158.83 -8.36622 -0.589963 0
M  V30 15344 H 2157.14 -10.0291 -1.79807 0
M  V30 15345 H 2156.95 -10.2138 0.558219 0
M  V30 15346 H 2155.32 -9.6579 0.0444202 0
M  V30 15347 H 2157.96 -5.69556 -2.79637 0
M  V30 15348 P 2159.82 -8.4349 -2.47671 0
M  V30 15349 O 2161.24 -8.92593 -2.65 0
M  V30 15350 O 2159.46 -7.7568 -1.19296 0
M  V30 15351 O 2159.49 -7.36886 -3.63805 0
M  V30 15352 C 2159.33 -7.95349 -4.982 0
M  V30 15353 C 2159.87 -6.94612 -5.98974 0
M  V30 15354 O 2158.82 -6.10347 -6.11815 0
M  V30 15355 C 2161.09 -6.11426 -5.62335 0
M  V30 15356 O 2161.83 -5.6162 -6.70584 0
M  V30 15357 C 2160.42 -5.04409 -4.73308 0
M  V30 15358 O 2161.22 -3.85992 -4.75183 0
M  V30 15359 C 2159.09 -4.8728 -5.41006 0
M  V30 15360 H 2159.12 -4.02333 -6.11157 0
M  V30 15361 H 2160.3 -5.39466 -3.69543 0
M  V30 15362 H 2161.79 -6.71916 -5.01943 0
M  V30 15363 H 2160.09 -7.4649 -6.93477 0
M  V30 15364 H 2159.9 -8.89416 -5.05237 0
M  V30 15365 H 2158.27 -8.14876 -5.18409 0
M  V30 15366 H 2160.91 -3.27957 -5.4317 0
M  V30 15367 P 2162.77 -5.75688 -6.64379 0
M  V30 15368 O 2164.19 -6.07627 -7.05504 0
M  V30 15369 O 2162.41 -5.88047 -5.19722 0
M  V30 15370 O 2162.44 -4.2322 -7.04443 0
M  V30 15371 C 2162.28 -3.99743 -8.4911 0
M  V30 15372 C 2162.82 -2.60516 -8.79425 0
M  V30 15373 O 2161.77 -1.82684 -8.4467 0
M  V30 15374 C 2164.04 -2.10343 -8.03628 0
M  V30 15375 O 2164.78 -1.09919 -8.67766 0
M  V30 15376 C 2163.37 -1.68446 -6.70876 0
M  V30 15377 O 2164.17 -0.678137 -6.08433 0
M  V30 15378 C 2162.04 -1.17436 -7.18567 0
M  V30 15379 H 2162.07 -0.0804732 -7.31656 0
M  V30 15380 H 2163.25 -2.54037 -6.02537 0
M  V30 15381 H 2164.74 -2.93881 -7.85526 0
M  V30 15382 H 2163.04 -2.53065 -9.86973 0
M  V30 15383 H 2162.85 -4.75072 -9.05887 0
M  V30 15384 H 2161.22 -4.05244 -8.76668 0
M  V30 15385 H 2163.86 0.177647 -6.34251 0
M  V30 15386 P 2165.72 -1.25109 -8.70152 0
M  V30 15387 O 2167.14 -1.29744 -9.22016 0
M  V30 15388 O 2165.36 -2.13714 -7.55141 0
M  V30 15389 O 2165.4 0.248149 -8.21425 0
M  V30 15390 C 2165.24 1.22779 -9.30434 0
M  V30 15391 C 2165.78 2.56293 -8.80664 0
M  V30 15392 O 2164.72 3.02979 -8.09349 0
M  V30 15393 C 2166.99 2.57523 -7.89775 0
M  V30 15394 O 2167.73 3.7668 -7.89438 0
M  V30 15395 C 2166.32 2.20997 -6.55446 0
M  V30 15396 O 2167.12 2.71895 -5.48509 0
M  V30 15397 C 2164.99 2.89693 -6.67988 0
M  V30 15398 H 2165.02 3.88793 -6.19859 0
M  V30 15399 H 2166.2 1.12046 -6.44229 0
M  V30 15400 H 2167.69 1.7746 -8.19711 0
M  V30 15401 H 2165.99 3.20706 -9.67112 0
M  V30 15402 H 2165.8 0.901032 -10.1892 0
M  V30 15403 H 2164.17 1.33049 -9.56592 0
M  V30 15404 H 2166.81 3.57847 -5.23962 0
M  V30 15405 P 2168.67 3.65191 -7.99657 0
M  V30 15406 O 2170.09 3.89374 -8.45885 0
M  V30 15407 O 2168.31 2.28472 -7.50807 0
M  V30 15408 O 2168.35 4.64972 -6.77611 0
M  V30 15409 C 2168.18 6.06383 -7.16428 0
M  V30 15410 C 2168.73 6.91731 -6.02299 0
M  V30 15411 O 2167.67 6.92369 -5.17005 0
M  V30 15412 C 2169.94 6.43627 -5.25174 0
M  V30 15413 O 2170.68 7.43686 -4.60469 0
M  V30 15414 C 2169.28 5.40275 -4.31916 0
M  V30 15415 O 2170.07 5.24878 -3.14911 0
M  V30 15416 C 2167.94 6.04847 -4.05327 0
M  V30 15417 N 2166.89 5.04166 -3.98114 0
M  V30 15418 C 2167.06 3.84629 -4.59066 0
M  V30 15419 N 2166.04 3.0363 -4.45343 0
M  V30 15420 C 2165.15 3.76722 -3.68523 0
M  V30 15421 C 2163.88 3.43528 -3.17088 0
M  V30 15422 N 2163.32 4.44526 -2.44231 0
M  V30 15423 C 2163.92 5.65243 -2.20146 0
M  V30 15424 N 2165.1 6.00221 -2.65453 0
M  V30 15425 C 2165.67 5.00564 -3.39083 0
M  V30 15426 H 2169.15 4.42969 -4.80867 0
M  V30 15427 H 2170.64 5.92458 -5.93643 0
M  V30 15428 H 2168.94 7.93295 -6.39407 0
M  V30 15429 H 2168.75 6.26671 -8.0846 0
M  V30 15430 H 2167.12 6.29101 -7.32804 0
M  V30 15431 H 2167.96 3.58193 -5.14248 0
M  V30 15432 H 2169.76 5.84223 -2.47279 0
M  V30 15433 P 2171.62 7.39546 -4.75277 0
M  V30 15434 O 2173.04 7.84798 -5.01039 0
M  V30 15435 O 2171.26 5.9812 -5.08098 0
M  V30 15436 O 2171.3 7.57503 -3.1866 0
M  V30 15437 C 2171.14 8.97357 -2.74833 0
M  V30 15438 C 2171.68 9.07548 -1.32709 0
M  V30 15439 O 2170.62 8.62072 -0.606159 0
M  V30 15440 C 2172.89 8.25383 -0.938334 0
M  V30 15441 O 2173.63 8.74577 0.146954 0
M  V30 15442 C 2172.23 6.8802 -0.712559 0
M  V30 15443 O 2173.02 6.1189 0.194655 0
M  V30 15444 C 2170.89 7.27966 -0.139777 0
M  V30 15445 H 2170.92 7.25354 0.961601 0
M  V30 15446 H 2172.1 6.32557 -1.65702 0
M  V30 15447 H 2173.59 8.19355 -1.79097 0
M  V30 15448 H 2171.89 10.1294 -1.10029 0
M  V30 15449 H 2171.7 9.64276 -3.41316 0
M  V30 15450 H 2170.07 9.25417 -2.76357 0
M  V30 15451 H 2172.71 6.25267 1.07847 0
M  V30 15452 P 2174.57 8.791 1.87823e-11 0
M  V30 15453 O 2175.97 9.36698 -0.018734 0
M  V30 15454 O 2174.19 7.82499 -1.07878 0
M  V30 15455 O 2174.25 8.09434 1.41446 0
M  V30 15456 C 2174.09 9.0349 2.53943 0
M  V30 15457 C 2174.63 8.35135 3.78975 0
M  V30 15458 O 2173.57 7.57904 4.1503 0
M  V30 15459 C 2175.84 7.45087 3.67298 0
M  V30 15460 O 2176.58 7.27796 4.85194 0
M  V30 15461 C 2175.18 6.17323 3.12027 0
M  V30 15462 O 2175.98 5.04149 3.47132 0
M  V30 15463 C 2173.84 6.19961 3.81809 0
M  V30 15464 N 2172.8 5.71575 2.93223 0
M  V30 15465 C 2171.76 4.99452 3.47592 0
M  V30 15466 O 2171.8 4.7199 4.69732 0
M  V30 15467 N 2170.75 4.58505 2.6803 0
M  V30 15468 C 2170.8 4.85544 1.36995 0
M  V30 15469 N 2169.79 4.45052 0.609031 0
M  V30 15470 C 2171.89 5.55532 0.788532 0
M  V30 15471 C 2172.86 5.97426 1.60849 0
M  V30 15472 H 2173.87 5.58142 4.72986 0
M  V30 15473 H 2175.05 6.21428 2.0318 0
M  V30 15474 H 2176.54 7.85913 2.93131 0
M  V30 15475 H 2174.84 9.11171 4.55987 0
M  V30 15476 H 2174.65 9.9573 2.34194 0
M  V30 15477 H 2173.02 9.27824 2.67805 0
M  V30 15478 H 2171.94 5.7421 -0.281588 0
M  V30 15479 H 2173.71 6.53132 1.202 0
M  V30 15480 H 2169 3.94123 1.03159 0
M  V30 15481 H 2169.79 4.64377 -0.400352 0
M  V30 15482 H 2175.76 4.76386 4.34983 0
M  V30 15483 P 2177.52 7.39546 4.75277 0
M  V30 15484 O 2178.94 7.81777 5.05738 0
M  V30 15485 O 2177.16 7.1065 3.32998 0
M  V30 15486 O 2177.2 6.04542 5.56673 0
M  V30 15487 C 2177.04 6.22772 7.02095 0
M  V30 15488 C 2177.58 4.97725 7.70406 0
M  V30 15489 O 2176.52 4.13256 7.58987 0
M  V30 15490 C 2178.8 4.28231 7.11815 0
M  V30 15491 O 2179.53 3.49945 8.01648 0
M  V30 15492 C 2178.13 3.5063 5.96244 0
M  V30 15493 O 2178.93 2.36482 5.64681 0
M  V30 15494 C 2176.79 3.15122 6.56374 0
M  V30 15495 H 2176.82 2.13853 6.99751 0
M  V30 15496 H 2178 4.13501 5.06559 0
M  V30 15497 H 2179.49 5.03285 6.70911 0
M  V30 15498 H 2177.79 5.20877 8.75697 0
M  V30 15499 H 2177.6 7.11046 7.35349 0
M  V30 15500 H 2175.97 6.35815 7.26986 0
M  V30 15501 H 2178.61 1.61644 6.13565 0
M  V30 15502 P 2180.47 3.65191 7.99657 0
M  V30 15503 O 2181.89 3.8425 8.48115 0
M  V30 15504 O 2180.11 4.17805 6.64342 0
M  V30 15505 O 2180.15 2.07613 7.95143 0
M  V30 15506 C 2179.99 1.44328 9.27336 0
M  V30 15507 C 2180.53 0.0220036 9.17197 0
M  V30 15508 O 2179.47 -0.626867 8.61923 0
M  V30 15509 C 2181.75 -0.24586 8.30336 0
M  V30 15510 O 2182.48 -1.39011 8.63583 0
M  V30 15511 C 2181.08 -0.273849 6.91158 0
M  V30 15512 O 2181.88 -1.06348 6.02892 0
M  V30 15513 C 2179.74 -0.897649 7.22545 0
M  V30 15514 H 2179.77 -1.9841 7.04286 0
M  V30 15515 H 2180.96 0.739928 6.497 0
M  V30 15516 H 2182.44 0.60668 8.36503 0
M  V30 15517 H 2180.75 -0.352479 10.1829 0
M  V30 15518 H 2180.56 2.00611 10.0304 0
M  V30 15519 H 2178.93 1.41843 9.55327 0
M  V30 15520 H 2181.56 -1.95734 6.03555 0
M  V30 15521 P 2183.42 -1.25109 8.70152 0
M  V30 15522 O 2184.84 -1.35274 9.21221 0
M  V30 15523 O 2183.06 -0.0769065 7.84762 0
M  V30 15524 O 2183.1 -2.55232 7.81161 0
M  V30 15525 C 2182.94 -3.79939 8.58154 0
M  V30 15526 C 2183.48 -4.94023 7.72785 0
M  V30 15527 O 2182.42 -5.18726 6.91205 0
M  V30 15528 C 2184.7 -4.69597 6.85231 0
M  V30 15529 O 2185.43 -5.83832 6.51337 0
M  V30 15530 C 2184.03 -3.96706 5.66633 0
M  V30 15531 O 2184.83 -4.15414 4.49689 0
M  V30 15532 C 2182.69 -4.66153 5.59313 0
M  V30 15533 H 2182.72 -5.47679 4.85214 0
M  V30 15534 H 2183.91 -2.89008 5.86566 0
M  V30 15535 H 2185.39 -4.0121 7.36511 0
M  V30 15536 H 2183.7 -5.80182 8.37584 0
M  V30 15537 H 2183.51 -3.73517 9.52265 0
M  V30 15538 H 2181.88 -3.97163 8.80359 0
M  V30 15539 H 2184.51 -4.90969 4.01921 0
M  V30 15540 P 2186.37 -5.75688 6.64379 0
M  V30 15541 O 2187.79 -6.11849 7.01846 0
M  V30 15542 O 2186.01 -4.30744 6.56026 0
M  V30 15543 O 2186.05 -6.37042 5.19165 0
M  V30 15544 C 2185.89 -7.83578 5.16515 0
M  V30 15545 C 2186.43 -8.33398 3.83019 0
M  V30 15546 O 2185.37 -8.10074 3.01034 0
M  V30 15547 C 2187.65 -7.65514 3.2257 0
M  V30 15548 O 2188.39 -8.4329 2.32297 0
M  V30 15549 C 2186.98 -6.40075 2.62207 0
M  V30 15550 O 2187.78 -5.92589 1.53712 0
M  V30 15551 C 2185.64 -6.9454 2.18503 0
M  V30 15552 H 2185.67 -7.23063 1.12091 0
M  V30 15553 H 2186.86 -5.6025 3.37201 0
M  V30 15554 H 2188.34 -7.35707 4.02681 0
M  V30 15555 H 2186.65 -9.40912 3.9095 0
M  V30 15556 H 2186.46 -8.29056 5.99158 0
M  V30 15557 H 2184.83 -8.10073 5.25882 0
M  V30 15558 H 2187.47 -6.30324 0.726794 0
M  V30 15559 P 2189.32 -8.4349 2.47671 0
M  V30 15560 O 2190.74 -8.94167 2.5964 0
M  V30 15561 O 2188.96 -7.1704 3.19006 0
M  V30 15562 O 2189 -8.16596 0.923387 0
M  V30 15563 C 2188.84 -9.38437 0.108857 0
M  V30 15564 C 2189.38 -9.08175 -1.28353 0
M  V30 15565 O 2188.32 -8.44229 -1.84713 0
M  V30 15566 C 2190.6 -8.18386 -1.42505 0
M  V30 15567 O 2191.34 -8.3501 -2.60497 0
M  V30 15568 C 2189.93 -6.80225 -1.25468 0
M  V30 15569 O 2190.73 -5.81621 -1.91066 0
M  V30 15570 C 2188.59 -7.02416 -1.9168 0
M  V30 15571 H 2188.62 -6.6888 -2.96621 0
M  V30 15572 H 2189.81 -6.53617 -0.192223 0
M  V30 15573 H 2191.29 -8.36622 -0.589963 0
M  V30 15574 H 2189.6 -10.0291 -1.79807 0
M  V30 15575 H 2189.41 -10.2138 0.558219 0
M  V30 15576 H 2187.78 -9.6579 0.0444202 0
M  V30 15577 H 2190.42 -5.69556 -2.79637 0
M  V30 15578 P 2192.27 -8.4349 -2.47671 0
M  V30 15579 O 2193.7 -8.92593 -2.65 0
M  V30 15580 O 2191.91 -7.7568 -1.19296 0
M  V30 15581 O 2191.95 -7.36886 -3.63805 0
M  V30 15582 C 2191.79 -7.95349 -4.982 0
M  V30 15583 C 2192.33 -6.94612 -5.98974 0
M  V30 15584 O 2191.27 -6.10347 -6.11815 0
M  V30 15585 C 2193.55 -6.11426 -5.62335 0
M  V30 15586 O 2194.29 -5.6162 -6.70584 0
M  V30 15587 C 2192.88 -5.04409 -4.73308 0
M  V30 15588 O 2193.68 -3.85992 -4.75183 0
M  V30 15589 C 2191.54 -4.8728 -5.41006 0
M  V30 15590 H 2191.57 -4.02333 -6.11157 0
M  V30 15591 H 2192.76 -5.39466 -3.69543 0
M  V30 15592 H 2194.24 -6.71916 -5.01943 0
M  V30 15593 H 2192.55 -7.4649 -6.93477 0
M  V30 15594 H 2192.36 -8.89416 -5.05237 0
M  V30 15595 H 2190.73 -8.14876 -5.18409 0
M  V30 15596 H 2193.37 -3.27957 -5.4317 0
M  V30 15597 P 2195.22 -5.75688 -6.64379 0
M  V30 15598 O 2196.65 -6.07627 -7.05504 0
M  V30 15599 O 2194.86 -5.88047 -5.19722 0
M  V30 15600 O 2194.9 -4.2322 -7.04443 0
M  V30 15601 C 2194.74 -3.99743 -8.4911 0
M  V30 15602 C 2195.28 -2.60516 -8.79425 0
M  V30 15603 O 2194.23 -1.82684 -8.4467 0
M  V30 15604 C 2196.5 -2.10343 -8.03628 0
M  V30 15605 O 2197.24 -1.09919 -8.67766 0
M  V30 15606 C 2195.83 -1.68446 -6.70876 0
M  V30 15607 O 2196.63 -0.678137 -6.08433 0
M  V30 15608 C 2194.49 -1.17436 -7.18567 0
M  V30 15609 H 2194.53 -0.0804732 -7.31656 0
M  V30 15610 H 2195.71 -2.54037 -6.02537 0
M  V30 15611 H 2197.19 -2.93881 -7.85526 0
M  V30 15612 H 2195.5 -2.53065 -9.86973 0
M  V30 15613 H 2195.31 -4.75072 -9.05887 0
M  V30 15614 H 2193.68 -4.05244 -8.76668 0
M  V30 15615 H 2196.32 0.177647 -6.34251 0
M  V30 15616 P 2198.17 -1.25109 -8.70152 0
M  V30 15617 O 2199.6 -1.29744 -9.22016 0
M  V30 15618 O 2197.81 -2.13714 -7.55141 0
M  V30 15619 O 2197.85 0.248149 -8.21425 0
M  V30 15620 C 2197.69 1.22779 -9.30434 0
M  V30 15621 C 2198.23 2.56293 -8.80664 0
M  V30 15622 O 2197.18 3.02979 -8.09349 0
M  V30 15623 C 2199.45 2.57523 -7.89775 0
M  V30 15624 O 2200.19 3.7668 -7.89438 0
M  V30 15625 C 2198.78 2.20997 -6.55446 0
M  V30 15626 O 2199.58 2.71895 -5.48509 0
M  V30 15627 C 2197.44 2.89693 -6.67988 0
M  V30 15628 H 2197.48 3.88793 -6.19859 0
M  V30 15629 H 2198.66 1.12046 -6.44229 0
M  V30 15630 H 2200.14 1.7746 -8.19711 0
M  V30 15631 H 2198.45 3.20706 -9.67112 0
M  V30 15632 H 2198.26 0.901032 -10.1892 0
M  V30 15633 H 2196.63 1.33049 -9.56592 0
M  V30 15634 H 2199.27 3.57847 -5.23962 0
M  V30 15635 P 2201.13 3.65191 -7.99657 0
M  V30 15636 O 2202.55 3.89332 -8.45794 0
M  V30 15637 O 2200.77 2.28472 -7.50807 0
M  V30 15638 O 2200.8 4.64972 -6.77611 0
M  V30 15639 C 2200.64 6.06319 -7.16352 0
M  V30 15640 C 2201.18 6.91731 -6.02299 0
M  V30 15641 O 2200.13 6.92449 -5.17064 0
M  V30 15642 C 2202.4 6.43627 -5.25174 0
M  V30 15643 O 2203.14 7.43686 -4.60469 0
M  V30 15644 C 2201.73 5.40275 -4.31916 0
M  V30 15645 O 2202.53 5.25279 -3.14438 0
M  V30 15646 C 2200.39 6.04847 -4.05327 0
M  V30 15647 H 2200.43 6.62195 -3.11261 0
M  V30 15648 H 2201.61 4.42556 -4.81383 0
M  V30 15649 H 2203.09 5.92458 -5.93643 0
M  V30 15650 H 2201.4 7.92655 -6.402 0
M  V30 15651 H 2201.21 6.26671 -8.0846 0
M  V30 15652 H 2199.58 6.29101 -7.32804 0
M  V30 15653 H 2202.22 5.84315 -2.47318 0
M  V30 15654 P 2204.08 7.39546 -4.75277 0
M  V30 15655 O 2205.5 7.84798 -5.01039 0
M  V30 15656 O 2203.72 5.9812 -5.08098 0
M  V30 15657 O 2203.75 7.57503 -3.1866 0
M  V30 15658 C 2203.59 8.97357 -2.74833 0
M  V30 15659 C 2204.13 9.07548 -1.32709 0
M  V30 15660 O 2203.08 8.62072 -0.606159 0
M  V30 15661 C 2205.35 8.25383 -0.938334 0
M  V30 15662 O 2206.09 8.74577 0.146954 0
M  V30 15663 C 2204.68 6.8802 -0.712559 0
M  V30 15664 O 2205.48 6.1189 0.194655 0
M  V30 15665 C 2203.34 7.27966 -0.139777 0
M  V30 15666 H 2203.38 7.25354 0.961601 0
M  V30 15667 H 2204.56 6.32557 -1.65702 0
M  V30 15668 H 2206.04 8.19355 -1.79097 0
M  V30 15669 H 2204.35 10.1294 -1.10029 0
M  V30 15670 H 2204.16 9.64276 -3.41316 0
M  V30 15671 H 2202.53 9.25417 -2.76357 0
M  V30 15672 H 2205.17 6.25267 1.07847 0
M  V30 15673 P 2207.03 8.791 1.90924e-11 0
M  V30 15674 O 2208.45 9.31096 0.027933 0
M  V30 15675 O 2206.67 7.77869 -1.04071 0
M  V30 15676 O 2206.7 8.09533 1.41463 0
M  V30 15677 C 2206.54 9.0349 2.53943 0
M  V30 15678 C 2207.08 8.35226 3.79016 0
M  V30 15679 O 2206.03 7.57992 4.15078 0
M  V30 15680 C 2208.3 7.45087 3.67298 0
M  V30 15681 O 2209.04 7.27796 4.85194 0
M  V30 15682 C 2207.63 6.17323 3.12027 0
M  V30 15683 O 2208.43 5.04231 3.47188 0
M  V30 15684 C 2206.3 6.19961 3.81809 0
M  V30 15685 H 2206.33 5.58218 4.73051 0
M  V30 15686 H 2207.51 6.21726 2.02589 0
M  V30 15687 H 2208.99 7.86112 2.9231 0
M  V30 15688 H 2207.3 9.11627 4.55076 0
M  V30 15689 H 2207.11 9.9573 2.34194 0
M  V30 15690 H 2205.48 9.2792 2.67832 0
M  V30 15691 H 2208.12 4.67702 4.28772 0
M  V30 15692 P 2209.98 7.39546 4.75277 0
M  V30 15693 O 2211.4 7.81777 5.05738 0
M  V30 15694 O 2209.62 7.1065 3.32998 0
M  V30 15695 O 2209.65 6.04542 5.56673 0
M  V30 15696 C 2209.49 6.22772 7.02095 0
M  V30 15697 C 2210.03 4.97725 7.70406 0
M  V30 15698 O 2208.98 4.13256 7.58987 0
M  V30 15699 C 2211.25 4.28231 7.11815 0
M  V30 15700 O 2211.99 3.49945 8.01648 0
M  V30 15701 C 2210.58 3.5063 5.96244 0
M  V30 15702 O 2211.38 2.36482 5.64681 0
M  V30 15703 C 2209.25 3.15122 6.56374 0
M  V30 15704 H 2209.28 2.13853 6.99751 0
M  V30 15705 H 2210.46 4.13501 5.06559 0
M  V30 15706 H 2211.94 5.03285 6.70911 0
M  V30 15707 H 2210.25 5.20877 8.75697 0
M  V30 15708 H 2210.06 7.11046 7.35349 0
M  V30 15709 H 2208.43 6.35815 7.26986 0
M  V30 15710 H 2211.07 1.61644 6.13565 0
M  V30 15711 P 2212.93 3.65191 7.99657 0
M  V30 15712 O 2214.35 3.8425 8.48115 0
M  V30 15713 O 2212.57 4.17805 6.64342 0
M  V30 15714 O 2212.6 2.07613 7.95143 0
M  V30 15715 C 2212.44 1.44328 9.27336 0
M  V30 15716 C 2212.98 0.0220036 9.17197 0
M  V30 15717 O 2211.93 -0.626867 8.61923 0
M  V30 15718 C 2214.2 -0.24586 8.30336 0
M  V30 15719 O 2214.94 -1.39011 8.63583 0
M  V30 15720 C 2213.53 -0.273849 6.91158 0
M  V30 15721 O 2214.33 -1.06348 6.02892 0
M  V30 15722 C 2212.2 -0.897649 7.22545 0
M  V30 15723 H 2212.23 -1.9841 7.04286 0
M  V30 15724 H 2213.41 0.739928 6.497 0
M  V30 15725 H 2214.9 0.60668 8.36503 0
M  V30 15726 H 2213.2 -0.352479 10.1829 0
M  V30 15727 H 2213.01 2.00611 10.0304 0
M  V30 15728 H 2211.38 1.41843 9.55327 0
M  V30 15729 H 2214.02 -1.95734 6.03555 0
M  V30 15730 P 2215.88 -1.25109 8.70152 0
M  V30 15731 O 2217.3 -1.35274 9.21221 0
M  V30 15732 O 2215.52 -0.0769065 7.84762 0
M  V30 15733 O 2215.56 -2.55232 7.81161 0
M  V30 15734 C 2215.4 -3.79939 8.58154 0
M  V30 15735 C 2215.94 -4.94023 7.72785 0
M  V30 15736 O 2214.88 -5.18726 6.91205 0
M  V30 15737 C 2217.15 -4.69597 6.85231 0
M  V30 15738 O 2217.89 -5.83832 6.51337 0
M  V30 15739 C 2216.48 -3.96706 5.66633 0
M  V30 15740 O 2217.28 -4.15414 4.49689 0
M  V30 15741 C 2215.15 -4.66153 5.59313 0
M  V30 15742 H 2215.18 -5.47679 4.85214 0
M  V30 15743 H 2216.36 -2.89008 5.86566 0
M  V30 15744 H 2217.85 -4.0121 7.36511 0
M  V30 15745 H 2216.15 -5.80182 8.37584 0
M  V30 15746 H 2215.96 -3.73517 9.52265 0
M  V30 15747 H 2214.33 -3.97163 8.80359 0
M  V30 15748 H 2216.97 -4.90969 4.01921 0
M  V30 15749 P 2218.83 -5.75688 6.64379 0
M  V30 15750 O 2220.25 -6.11849 7.01846 0
M  V30 15751 O 2218.47 -4.30744 6.56026 0
M  V30 15752 O 2218.51 -6.37042 5.19165 0
M  V30 15753 C 2218.35 -7.83578 5.16515 0
M  V30 15754 C 2218.89 -8.33398 3.83019 0
M  V30 15755 O 2217.83 -8.10074 3.01034 0
M  V30 15756 C 2220.1 -7.65514 3.2257 0
M  V30 15757 O 2220.84 -8.4329 2.32297 0
M  V30 15758 C 2219.43 -6.40075 2.62207 0
M  V30 15759 O 2220.23 -5.92589 1.53712 0
M  V30 15760 C 2218.1 -6.9454 2.18503 0
M  V30 15761 H 2218.13 -7.23063 1.12091 0
M  V30 15762 H 2219.31 -5.6025 3.37201 0
M  V30 15763 H 2220.8 -7.35707 4.02681 0
M  V30 15764 H 2219.1 -9.40912 3.9095 0
M  V30 15765 H 2218.91 -8.29056 5.99158 0
M  V30 15766 H 2217.28 -8.10073 5.25882 0
M  V30 15767 H 2219.92 -6.30324 0.726794 0
M  V30 15768 P 2221.78 -8.4349 2.47671 0
M  V30 15769 O 2223.2 -8.94167 2.5964 0
M  V30 15770 O 2221.42 -7.1704 3.19006 0
M  V30 15771 O 2221.46 -8.16596 0.923387 0
M  V30 15772 C 2221.3 -9.38437 0.108857 0
M  V30 15773 C 2221.84 -9.08175 -1.28353 0
M  V30 15774 O 2220.78 -8.44229 -1.84713 0
M  V30 15775 C 2223.05 -8.18386 -1.42505 0
M  V30 15776 O 2223.79 -8.3501 -2.60497 0
M  V30 15777 C 2222.39 -6.80225 -1.25468 0
M  V30 15778 O 2223.18 -5.81621 -1.91066 0
M  V30 15779 C 2221.05 -7.02416 -1.9168 0
M  V30 15780 H 2221.08 -6.6888 -2.96621 0
M  V30 15781 H 2222.26 -6.53617 -0.192223 0
M  V30 15782 H 2223.75 -8.36622 -0.589963 0
M  V30 15783 H 2222.05 -10.0291 -1.79807 0
M  V30 15784 H 2221.86 -10.2138 0.558219 0
M  V30 15785 H 2220.23 -9.6579 0.0444202 0
M  V30 15786 H 2222.87 -5.69556 -2.79637 0
M  V30 15787 P 2224.73 -8.4349 -2.47671 0
M  V30 15788 O 2226.13 -8.99283 -2.62101 0
M  V30 15789 O 2224.35 -7.81195 -1.16947 0
M  V30 15790 O 2224.41 -7.36797 -3.63761 0
M  V30 15791 C 2224.25 -7.95349 -4.982 0
M  V30 15792 C 2224.79 -6.94537 -5.98908 0
M  V30 15793 O 2223.73 -6.10277 -6.11744 0
M  V30 15794 C 2226 -6.11426 -5.62335 0
M  V30 15795 O 2226.74 -5.6162 -6.70584 0
M  V30 15796 C 2225.34 -5.04409 -4.73308 0
M  V30 15797 O 2226.13 -3.85929 -4.75106 0
M  V30 15798 C 2224 -4.8728 -5.41006 0
M  V30 15799 N 2222.96 -4.65812 -4.42377 0
M  V30 15800 C 2221.92 -3.81293 -4.74224 0
M  V30 15801 O 2221.96 -3.20533 -5.83679 0
M  V30 15802 N 2220.91 -3.6442 -3.86349 0
M  V30 15803 C 2220.96 -4.2728 -2.6824 0
M  V30 15804 N 2219.95 -4.09866 -1.83822 0
M  V30 15805 C 2222.05 -5.10813 -2.3217 0
M  V30 15806 C 2223.02 -5.27909 -3.22647 0
M  V30 15807 H 2224.03 -4.02278 -6.11074 0
M  V30 15808 H 2225.21 -5.39013 -3.70026 0
M  V30 15809 H 2226.7 -6.71494 -5.02675 0
M  V30 15810 H 2225 -7.45796 -6.94223 0
M  V30 15811 H 2224.81 -8.89416 -5.05237 0
M  V30 15812 H 2223.18 -8.14791 -5.18355 0
M  V30 15813 H 2222.1 -5.58884 -1.34755 0
M  V30 15814 H 2223.86 -5.92811 -2.9934 0
M  V30 15815 H 2219.16 -3.49095 -2.10018 0
M  V30 15816 H 2219.95 -4.56846 -0.924167 0
M  V30 15817 H 2225.92 -3.3454 -5.51577 0
M  V30 15818 P 2227.68 -5.75688 -6.64379 0
M  V30 15819 O 2229.1 -6.07627 -7.05504 0
M  V30 15820 O 2227.32 -5.88047 -5.19722 0
M  V30 15821 O 2227.36 -4.2322 -7.04443 0
M  V30 15822 C 2227.2 -3.99743 -8.4911 0
M  V30 15823 C 2227.74 -2.60516 -8.79425 0
M  V30 15824 O 2226.68 -1.82684 -8.4467 0
M  V30 15825 C 2228.96 -2.10343 -8.03628 0
M  V30 15826 O 2229.69 -1.09919 -8.67766 0
M  V30 15827 C 2228.29 -1.68446 -6.70876 0
M  V30 15828 O 2229.09 -0.678137 -6.08433 0
M  V30 15829 C 2226.95 -1.17436 -7.18567 0
M  V30 15830 H 2226.98 -0.0804732 -7.31656 0
M  V30 15831 H 2228.16 -2.54037 -6.02537 0
M  V30 15832 H 2229.65 -2.93881 -7.85526 0
M  V30 15833 H 2227.95 -2.53065 -9.86973 0
M  V30 15834 H 2227.76 -4.75072 -9.05887 0
M  V30 15835 H 2226.13 -4.05244 -8.76668 0
M  V30 15836 H 2228.77 0.177647 -6.34251 0
M  V30 15837 P 2230.63 -1.25109 -8.70152 0
M  V30 15838 O 2232.05 -1.29744 -9.22016 0
M  V30 15839 O 2230.27 -2.13714 -7.55141 0
M  V30 15840 O 2230.31 0.248149 -8.21425 0
M  V30 15841 C 2230.15 1.22779 -9.30434 0
M  V30 15842 C 2230.69 2.56293 -8.80664 0
M  V30 15843 O 2229.63 3.02979 -8.09349 0
M  V30 15844 C 2231.91 2.57523 -7.89775 0
M  V30 15845 O 2232.64 3.7668 -7.89438 0
M  V30 15846 C 2231.24 2.20997 -6.55446 0
M  V30 15847 O 2232.04 2.71895 -5.48509 0
M  V30 15848 C 2229.9 2.89693 -6.67988 0
M  V30 15849 H 2229.93 3.88793 -6.19859 0
M  V30 15850 H 2231.11 1.12046 -6.44229 0
M  V30 15851 H 2232.6 1.7746 -8.19711 0
M  V30 15852 H 2230.9 3.20706 -9.67112 0
M  V30 15853 H 2230.71 0.901032 -10.1892 0
M  V30 15854 H 2229.08 1.33049 -9.56592 0
M  V30 15855 H 2231.72 3.57847 -5.23962 0
M  V30 15856 P 2233.58 3.65191 -7.99657 0
M  V30 15857 O 2235 3.89332 -8.45794 0
M  V30 15858 O 2233.22 2.28472 -7.50807 0
M  V30 15859 O 2233.26 4.64972 -6.77611 0
M  V30 15860 C 2233.1 6.06319 -7.16352 0
M  V30 15861 C 2233.64 6.91731 -6.02299 0
M  V30 15862 O 2232.58 6.92449 -5.17064 0
M  V30 15863 C 2234.86 6.43627 -5.25174 0
M  V30 15864 O 2235.59 7.43686 -4.60469 0
M  V30 15865 C 2234.19 5.40275 -4.31916 0
M  V30 15866 O 2234.99 5.25279 -3.14438 0
M  V30 15867 C 2232.85 6.04847 -4.05327 0
M  V30 15868 H 2232.88 6.62195 -3.11261 0
M  V30 15869 H 2234.07 4.42556 -4.81383 0
M  V30 15870 H 2235.55 5.92458 -5.93643 0
M  V30 15871 H 2233.86 7.92655 -6.402 0
M  V30 15872 H 2233.67 6.26671 -8.0846 0
M  V30 15873 H 2232.04 6.29101 -7.32804 0
M  V30 15874 H 2234.67 5.84315 -2.47318 0
M  V30 15875 P 2236.53 7.39546 -4.75277 0
M  V30 15876 O 2237.95 7.84798 -5.01039 0
M  V30 15877 O 2236.17 5.9812 -5.08098 0
M  V30 15878 O 2236.21 7.57503 -3.1866 0
M  V30 15879 C 2236.05 8.97357 -2.74833 0
M  V30 15880 C 2236.59 9.07548 -1.32709 0
M  V30 15881 O 2235.53 8.62072 -0.606159 0
M  V30 15882 C 2237.81 8.25383 -0.938334 0
M  V30 15883 O 2238.55 8.74577 0.146954 0
M  V30 15884 C 2237.14 6.8802 -0.712559 0
M  V30 15885 O 2237.94 6.1189 0.194655 0
M  V30 15886 C 2235.8 7.27966 -0.139777 0
M  V30 15887 H 2235.83 7.25354 0.961601 0
M  V30 15888 H 2237.02 6.32557 -1.65702 0
M  V30 15889 H 2238.5 8.19355 -1.79097 0
M  V30 15890 H 2236.81 10.1294 -1.10029 0
M  V30 15891 H 2236.62 9.64276 -3.41316 0
M  V30 15892 H 2234.99 9.25417 -2.76357 0
M  V30 15893 H 2237.63 6.25267 1.07847 0
M  V30 15894 P 2239.48 8.791 1.94026e-11 0
M  V30 15895 O 2240.9 9.31096 0.027933 0
M  V30 15896 O 2239.12 7.77869 -1.04071 0
M  V30 15897 O 2239.16 8.09533 1.41463 0
M  V30 15898 C 2239 9.0349 2.53943 0
M  V30 15899 C 2239.54 8.35226 3.79016 0
M  V30 15900 O 2238.48 7.57992 4.15078 0
M  V30 15901 C 2240.76 7.45087 3.67298 0
M  V30 15902 O 2241.5 7.27796 4.85194 0
M  V30 15903 C 2240.09 6.17323 3.12027 0
M  V30 15904 O 2240.89 5.04231 3.47188 0
M  V30 15905 C 2238.75 6.19961 3.81809 0
M  V30 15906 H 2238.78 5.58218 4.73051 0
M  V30 15907 H 2239.97 6.21726 2.02589 0
M  V30 15908 H 2241.45 7.86112 2.9231 0
M  V30 15909 H 2239.76 9.11627 4.55076 0
M  V30 15910 H 2239.57 9.9573 2.34194 0
M  V30 15911 H 2237.94 9.2792 2.67832 0
M  V30 15912 H 2240.58 4.67702 4.28772 0
M  V30 15913 P 2242.43 7.39546 4.75277 0
M  V30 15914 O 2243.86 7.81777 5.05738 0
M  V30 15915 O 2242.07 7.1065 3.32998 0
M  V30 15916 O 2242.11 6.04542 5.56673 0
M  V30 15917 C 2241.95 6.22772 7.02095 0
M  V30 15918 C 2242.49 4.97725 7.70406 0
M  V30 15919 O 2241.43 4.13256 7.58987 0
M  V30 15920 C 2243.71 4.28231 7.11815 0
M  V30 15921 O 2244.45 3.49945 8.01648 0
M  V30 15922 C 2243.04 3.5063 5.96244 0
M  V30 15923 O 2243.84 2.36482 5.64681 0
M  V30 15924 C 2241.7 3.15122 6.56374 0
M  V30 15925 H 2241.73 2.13853 6.99751 0
M  V30 15926 H 2242.92 4.13501 5.06559 0
M  V30 15927 H 2244.4 5.03285 6.70911 0
M  V30 15928 H 2242.71 5.20877 8.75697 0
M  V30 15929 H 2242.52 7.11046 7.35349 0
M  V30 15930 H 2240.89 6.35815 7.26986 0
M  V30 15931 H 2243.53 1.61644 6.13565 0
M  V30 15932 P 2245.38 3.65191 7.99657 0
M  V30 15933 O 2246.81 3.8425 8.48115 0
M  V30 15934 O 2245.02 4.17805 6.64342 0
M  V30 15935 O 2245.06 2.07613 7.95143 0
M  V30 15936 C 2244.9 1.44328 9.27336 0
M  V30 15937 C 2245.44 0.0220036 9.17197 0
M  V30 15938 O 2244.38 -0.626867 8.61923 0
M  V30 15939 C 2246.66 -0.24586 8.30336 0
M  V30 15940 O 2247.4 -1.39011 8.63583 0
M  V30 15941 C 2245.99 -0.273849 6.91158 0
M  V30 15942 O 2246.79 -1.06348 6.02892 0
M  V30 15943 C 2244.65 -0.897649 7.22545 0
M  V30 15944 H 2244.68 -1.9841 7.04286 0
M  V30 15945 H 2245.87 0.739928 6.497 0
M  V30 15946 H 2247.35 0.60668 8.36503 0
M  V30 15947 H 2245.66 -0.352479 10.1829 0
M  V30 15948 H 2245.47 2.00611 10.0304 0
M  V30 15949 H 2243.84 1.41843 9.55327 0
M  V30 15950 H 2246.48 -1.95734 6.03555 0
M  V30 15951 P 2248.33 -1.25109 8.70152 0
M  V30 15952 O 2249.76 -1.35274 9.21221 0
M  V30 15953 O 2247.97 -0.0769065 7.84762 0
M  V30 15954 O 2248.01 -2.55232 7.81161 0
M  V30 15955 C 2247.85 -3.79939 8.58154 0
M  V30 15956 C 2248.39 -4.94023 7.72785 0
M  V30 15957 O 2247.34 -5.18726 6.91205 0
M  V30 15958 C 2249.61 -4.69597 6.85231 0
M  V30 15959 O 2250.35 -5.83832 6.51337 0
M  V30 15960 C 2248.94 -3.96706 5.66633 0
M  V30 15961 O 2249.74 -4.15414 4.49689 0
M  V30 15962 C 2247.6 -4.66153 5.59313 0
M  V30 15963 H 2247.64 -5.47679 4.85214 0
M  V30 15964 H 2248.82 -2.89008 5.86566 0
M  V30 15965 H 2250.3 -4.0121 7.36511 0
M  V30 15966 H 2248.61 -5.80182 8.37584 0
M  V30 15967 H 2248.42 -3.73517 9.52265 0
M  V30 15968 H 2246.79 -3.97163 8.80359 0
M  V30 15969 H 2249.43 -4.90969 4.01921 0
M  V30 15970 P 2251.28 -5.75688 6.64379 0
M  V30 15971 O 2252.71 -6.11849 7.01846 0
M  V30 15972 O 2250.92 -4.30744 6.56026 0
M  V30 15973 O 2250.96 -6.37042 5.19165 0
M  V30 15974 C 2250.8 -7.83578 5.16515 0
M  V30 15975 C 2251.34 -8.33398 3.83019 0
M  V30 15976 O 2250.29 -8.10074 3.01034 0
M  V30 15977 C 2252.56 -7.65514 3.2257 0
M  V30 15978 O 2253.3 -8.4329 2.32297 0
M  V30 15979 C 2251.89 -6.40075 2.62207 0
M  V30 15980 O 2252.69 -5.92589 1.53712 0
M  V30 15981 C 2250.55 -6.9454 2.18503 0
M  V30 15982 H 2250.59 -7.23063 1.12091 0
M  V30 15983 H 2251.77 -5.6025 3.37201 0
M  V30 15984 H 2253.25 -7.35707 4.02681 0
M  V30 15985 H 2251.56 -9.40912 3.9095 0
M  V30 15986 H 2251.37 -8.29056 5.99158 0
M  V30 15987 H 2249.74 -8.10073 5.25882 0
M  V30 15988 H 2252.38 -6.30324 0.726794 0
M  V30 15989 P 2254.24 -8.4349 2.47671 0
M  V30 15990 O 2255.66 -8.94167 2.5964 0
M  V30 15991 O 2253.88 -7.1704 3.19006 0
M  V30 15992 O 2253.91 -8.16596 0.923387 0
M  V30 15993 C 2253.75 -9.38437 0.108857 0
M  V30 15994 C 2254.29 -9.08175 -1.28353 0
M  V30 15995 O 2253.24 -8.44229 -1.84713 0
M  V30 15996 C 2255.51 -8.18386 -1.42505 0
M  V30 15997 O 2256.25 -8.3501 -2.60497 0
M  V30 15998 C 2254.84 -6.80225 -1.25468 0
M  V30 15999 O 2255.64 -5.81621 -1.91066 0
M  V30 16000 C 2253.5 -7.02416 -1.9168 0
M  V30 16001 H 2253.54 -6.6888 -2.96621 0
M  V30 16002 H 2254.72 -6.53617 -0.192223 0
M  V30 16003 H 2256.2 -8.36622 -0.589963 0
M  V30 16004 H 2254.51 -10.0291 -1.79807 0
M  V30 16005 H 2254.32 -10.2138 0.558219 0
M  V30 16006 H 2252.69 -9.6579 0.0444202 0
M  V30 16007 H 2255.33 -5.69556 -2.79637 0
M  V30 16008 P 2257.19 -8.4349 -2.47671 0
M  V30 16009 O 2258.61 -8.92689 -2.65029 0
M  V30 16010 O 2256.83 -7.7568 -1.19296 0
M  V30 16011 O 2256.86 -7.36886 -3.63805 0
M  V30 16012 C 2256.7 -7.95433 -4.98253 0
M  V30 16013 C 2257.24 -6.94612 -5.98974 0
M  V30 16014 O 2256.19 -6.10277 -6.11744 0
M  V30 16015 C 2258.46 -6.11426 -5.62335 0
M  V30 16016 O 2259.2 -5.6162 -6.70584 0
M  V30 16017 C 2257.79 -5.04409 -4.73308 0
M  V30 16018 O 2258.59 -3.86404 -4.74719 0
M  V30 16019 C 2256.46 -4.8728 -5.41006 0
M  V30 16020 N 2255.41 -4.65812 -4.42377 0
M  V30 16021 C 2255.58 -5.09132 -3.15382 0
M  V30 16022 N 2254.55 -4.84021 -2.3716 0
M  V30 16023 C 2253.67 -4.18386 -3.20441 0
M  V30 16024 C 2252.4 -3.6275 -2.94905 0
M  V30 16025 N 2251.8 -3.65794 -1.73372 0
M  V30 16026 N 2251.84 -3.05008 -4.05243 0
M  V30 16027 C 2252.44 -2.98348 -5.28159 0
M  V30 16028 N 2253.62 -3.48171 -5.56333 0
M  V30 16029 C 2254.19 -4.06869 -4.47212 0
M  V30 16030 H 2256.49 -4.02278 -6.11074 0
M  V30 16031 H 2257.67 -5.39013 -3.70026 0
M  V30 16032 H 2259.15 -6.71916 -5.01943 0
M  V30 16033 H 2257.46 -7.45796 -6.94223 0
M  V30 16034 H 2257.27 -8.89416 -5.05237 0
M  V30 16035 H 2255.64 -8.14876 -5.18409 0
M  V30 16036 H 2251.9 -2.47853 -6.07807 0
M  V30 16037 H 2256.48 -5.59989 -2.81362 0
M  V30 16038 H 2250.87 -3.23218 -1.60782 0
M  V30 16039 H 2252.28 -4.10523 -0.937856 0
M  V30 16040 H 2258.28 -3.27906 -5.43085 0
M  V30 16041 P 2260.14 -5.75688 -6.64379 0
M  V30 16042 O 2261.56 -6.07627 -7.05504 0
M  V30 16043 O 2259.78 -5.88047 -5.19722 0
M  V30 16044 O 2259.81 -4.2322 -7.04443 0
M  V30 16045 C 2259.65 -3.99743 -8.4911 0
M  V30 16046 C 2260.19 -2.60516 -8.79425 0
M  V30 16047 O 2259.14 -1.82684 -8.4467 0
M  V30 16048 C 2261.41 -2.10343 -8.03628 0
M  V30 16049 O 2262.15 -1.09919 -8.67766 0
M  V30 16050 C 2260.74 -1.68446 -6.70876 0
M  V30 16051 O 2261.54 -0.678137 -6.08433 0
M  V30 16052 C 2259.41 -1.17436 -7.18567 0
M  V30 16053 H 2259.44 -0.0804732 -7.31656 0
M  V30 16054 H 2260.62 -2.54037 -6.02537 0
M  V30 16055 H 2262.1 -2.93881 -7.85526 0
M  V30 16056 H 2260.41 -2.53065 -9.86973 0
M  V30 16057 H 2260.22 -4.75072 -9.05887 0
M  V30 16058 H 2258.59 -4.05244 -8.76668 0
M  V30 16059 H 2261.23 0.177647 -6.34251 0
M  V30 16060 P 2263.09 -1.25109 -8.70152 0
M  V30 16061 O 2264.51 -1.29744 -9.22016 0
M  V30 16062 O 2262.73 -2.13714 -7.55141 0
M  V30 16063 O 2262.76 0.248149 -8.21425 0
M  V30 16064 C 2262.6 1.22779 -9.30434 0
M  V30 16065 C 2263.14 2.56293 -8.80664 0
M  V30 16066 O 2262.09 3.02979 -8.09349 0
M  V30 16067 C 2264.36 2.57523 -7.89775 0
M  V30 16068 O 2265.1 3.7668 -7.89438 0
M  V30 16069 C 2263.69 2.20997 -6.55446 0
M  V30 16070 O 2264.49 2.71895 -5.48509 0
M  V30 16071 C 2262.36 2.89693 -6.67988 0
M  V30 16072 H 2262.39 3.88793 -6.19859 0
M  V30 16073 H 2263.57 1.12046 -6.44229 0
M  V30 16074 H 2265.06 1.7746 -8.19711 0
M  V30 16075 H 2263.36 3.20706 -9.67112 0
M  V30 16076 H 2263.17 0.901032 -10.1892 0
M  V30 16077 H 2261.54 1.33049 -9.56592 0
M  V30 16078 H 2264.18 3.57847 -5.23962 0
M  V30 16079 P 2266.04 3.65191 -7.99657 0
M  V30 16080 O 2267.44 3.87414 -8.52829 0
M  V30 16081 O 2265.66 2.26932 -7.566 0
M  V30 16082 O 2265.71 4.64915 -6.77529 0
M  V30 16083 C 2265.55 6.06319 -7.16352 0
M  V30 16084 C 2266.09 6.91655 -6.02234 0
M  V30 16085 O 2265.04 6.92369 -5.17005 0
M  V30 16086 C 2267.31 6.43627 -5.25174 0
M  V30 16087 O 2268.05 7.43686 -4.60469 0
M  V30 16088 C 2266.64 5.40275 -4.31916 0
M  V30 16089 O 2267.44 5.25193 -3.14386 0
M  V30 16090 C 2265.31 6.04847 -4.05327 0
M  V30 16091 N 2264.26 5.04166 -3.98114 0
M  V30 16092 C 2263.23 5.2366 -3.09923 0
M  V30 16093 O 2263.27 6.23355 -2.34204 0
M  V30 16094 N 2262.22 4.34279 -3.05727 0
M  V30 16095 C 2262.26 3.26317 -3.84756 0
M  V30 16096 C 2263.36 3.02504 -4.72573 0
M  V30 16097 C 2264.33 3.94493 -4.76618 0
M  V30 16098 H 2265.34 6.62104 -3.11218 0
M  V30 16099 H 2266.52 4.42969 -4.80867 0
M  V30 16100 H 2268.01 5.93122 -5.93121 0
M  V30 16101 H 2266.31 7.93295 -6.39407 0
M  V30 16102 H 2266.12 6.26671 -8.0846 0
M  V30 16103 H 2264.49 6.29036 -7.32728 0
M  V30 16104 H 2263.41 2.12921 -5.34017 0
M  V30 16105 H 2265.17 3.80658 -5.44176 0
M  V30 16106 H 2267.23 5.93572 -2.52637 0
M  V30 16107 P 2268.99 7.39546 -4.75277 0
M  V30 16108 O 2270.41 7.84798 -5.01039 0
M  V30 16109 O 2268.63 5.9812 -5.08098 0
M  V30 16110 O 2268.67 7.57503 -3.1866 0
M  V30 16111 C 2268.51 8.97357 -2.74833 0
M  V30 16112 C 2269.05 9.07548 -1.32709 0
M  V30 16113 O 2267.99 8.62072 -0.606159 0
M  V30 16114 C 2270.26 8.25383 -0.938334 0
M  V30 16115 O 2271 8.74577 0.146954 0
M  V30 16116 C 2269.59 6.8802 -0.712559 0
M  V30 16117 O 2270.39 6.1189 0.194655 0
M  V30 16118 C 2268.26 7.27966 -0.139777 0
M  V30 16119 H 2268.29 7.25354 0.961601 0
M  V30 16120 H 2269.47 6.32557 -1.65702 0
M  V30 16121 H 2270.96 8.19355 -1.79097 0
M  V30 16122 H 2269.26 10.1294 -1.10029 0
M  V30 16123 H 2269.07 9.64276 -3.41316 0
M  V30 16124 H 2267.44 9.25417 -2.76357 0
M  V30 16125 H 2270.08 6.25267 1.07847 0
M  V30 16126 P 2271.94 8.791 1.97128e-11 0
M  V30 16127 O 2273.36 9.31096 0.027933 0
M  V30 16128 O 2271.58 7.77869 -1.04071 0
M  V30 16129 O 2271.62 8.09533 1.41463 0
M  V30 16130 C 2271.46 9.0349 2.53943 0
M  V30 16131 C 2272 8.35226 3.79016 0
M  V30 16132 O 2270.94 7.57992 4.15078 0
M  V30 16133 C 2273.21 7.45087 3.67298 0
M  V30 16134 O 2273.95 7.27796 4.85194 0
M  V30 16135 C 2272.54 6.17323 3.12027 0
M  V30 16136 O 2273.34 5.04231 3.47188 0
M  V30 16137 C 2271.21 6.19961 3.81809 0
M  V30 16138 H 2271.24 5.58218 4.73051 0
M  V30 16139 H 2272.42 6.21726 2.02589 0
M  V30 16140 H 2273.91 7.86112 2.9231 0
M  V30 16141 H 2272.21 9.11627 4.55076 0
M  V30 16142 H 2272.02 9.9573 2.34194 0
M  V30 16143 H 2270.39 9.2792 2.67832 0
M  V30 16144 H 2273.03 4.67702 4.28772 0
M  V30 16145 P 2274.89 7.39546 4.75277 0
M  V30 16146 O 2276.29 7.89013 5.04841 0
M  V30 16147 O 2274.51 7.16603 3.32298 0
M  V30 16148 O 2274.57 6.04468 5.56605 0
M  V30 16149 C 2274.41 6.22772 7.02095 0
M  V30 16150 C 2274.95 4.97671 7.70322 0
M  V30 16151 O 2273.89 4.13208 7.58899 0
M  V30 16152 C 2276.16 4.28231 7.11815 0
M  V30 16153 O 2276.9 3.49945 8.01648 0
M  V30 16154 C 2275.5 3.5063 5.96244 0
M  V30 16155 O 2276.29 2.36443 5.64589 0
M  V30 16156 C 2274.16 3.15122 6.56374 0
M  V30 16157 N 2273.12 3.22311 5.55692 0
M  V30 16158 C 2272.08 2.32244 5.62437 0
M  V30 16159 O 2272.12 1.43107 6.50341 0
M  V30 16160 N 2271.07 2.40811 4.73368 0
M  V30 16161 C 2271.12 3.344 3.77753 0
M  V30 16162 C 2272.21 4.24712 3.66679 0
M  V30 16163 C 2273.18 4.15625 4.58307 0
M  V30 16164 H 2274.19 2.13823 6.99656 0
M  V30 16165 H 2275.37 4.12931 5.06895 0
M  V30 16166 H 2276.86 5.02674 6.71494 0
M  V30 16167 H 2275.16 5.20001 8.76217 0
M  V30 16168 H 2274.97 7.11046 7.35349 0
M  V30 16169 H 2273.34 6.35749 7.26911 0
M  V30 16170 H 2272.26 4.9828 2.86753 0
M  V30 16171 H 2274.02 4.84464 4.54228 0
M  V30 16172 H 2276.08 1.65592 6.23485 0
M  V30 16173 P 2277.84 3.65191 7.99657 0
M  V30 16174 O 2279.26 3.8425 8.48115 0
M  V30 16175 O 2277.48 4.17805 6.64342 0
M  V30 16176 O 2277.52 2.07613 7.95143 0
M  V30 16177 C 2277.36 1.44328 9.27336 0
M  V30 16178 C 2277.9 0.0220036 9.17197 0
M  V30 16179 O 2276.84 -0.626867 8.61923 0
M  V30 16180 C 2279.12 -0.24586 8.30336 0
M  V30 16181 O 2279.85 -1.39011 8.63583 0
M  V30 16182 C 2278.45 -0.273849 6.91158 0
M  V30 16183 O 2279.25 -1.06348 6.02892 0
M  V30 16184 C 2277.11 -0.897649 7.22545 0
M  V30 16185 H 2277.14 -1.9841 7.04286 0
M  V30 16186 H 2278.32 0.739928 6.497 0
M  V30 16187 H 2279.81 0.60668 8.36503 0
M  V30 16188 H 2278.11 -0.352479 10.1829 0
M  V30 16189 H 2277.92 2.00611 10.0304 0
M  V30 16190 H 2276.29 1.41843 9.55327 0
M  V30 16191 H 2278.93 -1.95734 6.03555 0
M  V30 16192 P 2280.79 -1.25109 8.70152 0
M  V30 16193 O 2282.21 -1.35274 9.21221 0
M  V30 16194 O 2280.43 -0.0769065 7.84762 0
M  V30 16195 O 2280.47 -2.55232 7.81161 0
M  V30 16196 C 2280.31 -3.79939 8.58154 0
M  V30 16197 C 2280.85 -4.94023 7.72785 0
M  V30 16198 O 2279.79 -5.18726 6.91205 0
M  V30 16199 C 2282.07 -4.69597 6.85231 0
M  V30 16200 O 2282.8 -5.83832 6.51337 0
M  V30 16201 C 2281.4 -3.96706 5.66633 0
M  V30 16202 O 2282.2 -4.15414 4.49689 0
M  V30 16203 C 2280.06 -4.66153 5.59313 0
M  V30 16204 H 2280.09 -5.47679 4.85214 0
M  V30 16205 H 2281.27 -2.89008 5.86566 0
M  V30 16206 H 2282.76 -4.0121 7.36511 0
M  V30 16207 H 2281.06 -5.80182 8.37584 0
M  V30 16208 H 2280.87 -3.73517 9.52265 0
M  V30 16209 H 2279.24 -3.97163 8.80359 0
M  V30 16210 H 2281.88 -4.90969 4.01921 0
M  V30 16211 P 2283.74 -5.75688 6.64379 0
M  V30 16212 O 2285.16 -6.11849 7.01846 0
M  V30 16213 O 2283.38 -4.30744 6.56026 0
M  V30 16214 O 2283.42 -6.37042 5.19165 0
M  V30 16215 C 2283.26 -7.83578 5.16515 0
M  V30 16216 C 2283.8 -8.33398 3.83019 0
M  V30 16217 O 2282.74 -8.10074 3.01034 0
M  V30 16218 C 2285.02 -7.65514 3.2257 0
M  V30 16219 O 2285.75 -8.4329 2.32297 0
M  V30 16220 C 2284.35 -6.40075 2.62207 0
M  V30 16221 O 2285.15 -5.92589 1.53712 0
M  V30 16222 C 2283.01 -6.9454 2.18503 0
M  V30 16223 H 2283.04 -7.23063 1.12091 0
M  V30 16224 H 2284.23 -5.6025 3.37201 0
M  V30 16225 H 2285.71 -7.35707 4.02681 0
M  V30 16226 H 2284.02 -9.40912 3.9095 0
M  V30 16227 H 2283.83 -8.29056 5.99158 0
M  V30 16228 H 2282.2 -8.10073 5.25882 0
M  V30 16229 H 2284.83 -6.30324 0.726794 0
M  V30 16230 P 2286.69 -8.4349 2.47671 0
M  V30 16231 O 2288.11 -8.94167 2.5964 0
M  V30 16232 O 2286.33 -7.1704 3.19006 0
M  V30 16233 O 2286.37 -8.16596 0.923387 0
M  V30 16234 C 2286.21 -9.38437 0.108857 0
M  V30 16235 C 2286.75 -9.08175 -1.28353 0
M  V30 16236 O 2285.69 -8.44229 -1.84713 0
M  V30 16237 C 2287.97 -8.18386 -1.42505 0
M  V30 16238 O 2288.7 -8.3501 -2.60497 0
M  V30 16239 C 2287.3 -6.80225 -1.25468 0
M  V30 16240 O 2288.1 -5.81621 -1.91066 0
M  V30 16241 C 2285.96 -7.02416 -1.9168 0
M  V30 16242 H 2285.99 -6.6888 -2.96621 0
M  V30 16243 H 2287.18 -6.53617 -0.192223 0
M  V30 16244 H 2288.66 -8.36622 -0.589963 0
M  V30 16245 H 2286.97 -10.0291 -1.79807 0
M  V30 16246 H 2286.78 -10.2138 0.558219 0
M  V30 16247 H 2285.15 -9.6579 0.0444202 0
M  V30 16248 H 2287.78 -5.69556 -2.79637 0
M  V30 16249 P 2289.64 -8.4349 -2.47671 0
M  V30 16250 O 2291.06 -8.92593 -2.65 0
M  V30 16251 O 2289.28 -7.7568 -1.19296 0
M  V30 16252 O 2289.32 -7.36886 -3.63805 0
M  V30 16253 C 2289.16 -7.95349 -4.982 0
M  V30 16254 C 2289.7 -6.94612 -5.98974 0
M  V30 16255 O 2288.64 -6.10347 -6.11815 0
M  V30 16256 C 2290.92 -6.11426 -5.62335 0
M  V30 16257 O 2291.66 -5.6162 -6.70584 0
M  V30 16258 C 2290.25 -5.04409 -4.73308 0
M  V30 16259 O 2291.05 -3.85992 -4.75183 0
M  V30 16260 C 2288.91 -4.8728 -5.41006 0
M  V30 16261 H 2288.94 -4.02333 -6.11157 0
M  V30 16262 H 2290.13 -5.39466 -3.69543 0
M  V30 16263 H 2291.61 -6.71916 -5.01943 0
M  V30 16264 H 2289.92 -7.4649 -6.93477 0
M  V30 16265 H 2289.73 -8.89416 -5.05237 0
M  V30 16266 H 2288.1 -8.14876 -5.18409 0
M  V30 16267 H 2290.74 -3.27957 -5.4317 0
M  V30 16268 P 2292.59 -5.75688 -6.64379 0
M  V30 16269 O 2294.01 -6.07627 -7.05504 0
M  V30 16270 O 2292.23 -5.88047 -5.19722 0
M  V30 16271 O 2292.27 -4.2322 -7.04443 0
M  V30 16272 C 2292.11 -3.99743 -8.4911 0
M  V30 16273 C 2292.65 -2.60516 -8.79425 0
M  V30 16274 O 2291.59 -1.82684 -8.4467 0
M  V30 16275 C 2293.87 -2.10343 -8.03628 0
M  V30 16276 O 2294.61 -1.09919 -8.67766 0
M  V30 16277 C 2293.2 -1.68446 -6.70876 0
M  V30 16278 O 2294 -0.678137 -6.08433 0
M  V30 16279 C 2291.86 -1.17436 -7.18567 0
M  V30 16280 H 2291.89 -0.0804732 -7.31656 0
M  V30 16281 H 2293.08 -2.54037 -6.02537 0
M  V30 16282 H 2294.56 -2.93881 -7.85526 0
M  V30 16283 H 2292.87 -2.53065 -9.86973 0
M  V30 16284 H 2292.68 -4.75072 -9.05887 0
M  V30 16285 H 2291.05 -4.05244 -8.76668 0
M  V30 16286 H 2293.69 0.177647 -6.34251 0
M  V30 16287 P 2295.54 -1.25109 -8.70152 0
M  V30 16288 O 2296.97 -1.29744 -9.22016 0
M  V30 16289 O 2295.18 -2.13714 -7.55141 0
M  V30 16290 O 2295.22 0.248149 -8.21425 0
M  V30 16291 C 2295.06 1.22779 -9.30434 0
M  V30 16292 C 2295.6 2.56293 -8.80664 0
M  V30 16293 O 2294.54 3.02979 -8.09349 0
M  V30 16294 C 2296.82 2.57523 -7.89775 0
M  V30 16295 O 2297.56 3.7668 -7.89438 0
M  V30 16296 C 2296.15 2.20997 -6.55446 0
M  V30 16297 O 2296.95 2.71895 -5.48509 0
M  V30 16298 C 2294.81 2.89693 -6.67988 0
M  V30 16299 H 2294.84 3.88793 -6.19859 0
M  V30 16300 H 2296.03 1.12046 -6.44229 0
M  V30 16301 H 2297.51 1.7746 -8.19711 0
M  V30 16302 H 2295.82 3.20706 -9.67112 0
M  V30 16303 H 2295.63 0.901032 -10.1892 0
M  V30 16304 H 2294 1.33049 -9.56592 0
M  V30 16305 H 2296.64 3.57847 -5.23962 0
M  V30 16306 P 2298.49 3.65191 -7.99657 0
M  V30 16307 O 2299.92 3.89332 -8.45794 0
M  V30 16308 O 2298.13 2.28472 -7.50807 0
M  V30 16309 O 2298.17 4.64972 -6.77611 0
M  V30 16310 C 2298.01 6.06319 -7.16352 0
M  V30 16311 C 2298.55 6.91731 -6.02299 0
M  V30 16312 O 2297.5 6.92449 -5.17064 0
M  V30 16313 C 2299.77 6.43627 -5.25174 0
M  V30 16314 O 2300.51 7.43686 -4.60469 0
M  V30 16315 C 2299.1 5.40275 -4.31916 0
M  V30 16316 O 2299.9 5.25279 -3.14438 0
M  V30 16317 C 2297.76 6.04847 -4.05327 0
M  V30 16318 H 2297.8 6.62195 -3.11261 0
M  V30 16319 H 2298.98 4.42556 -4.81383 0
M  V30 16320 H 2300.46 5.92458 -5.93643 0
M  V30 16321 H 2298.77 7.92655 -6.402 0
M  V30 16322 H 2298.58 6.26671 -8.0846 0
M  V30 16323 H 2296.95 6.29101 -7.32804 0
M  V30 16324 H 2299.59 5.84315 -2.47318 0
M  V30 16325 P 2301.44 7.39546 -4.75277 0
M  V30 16326 O 2302.87 7.84798 -5.01039 0
M  V30 16327 O 2301.08 5.9812 -5.08098 0
M  V30 16328 O 2301.12 7.57503 -3.1866 0
M  V30 16329 C 2300.96 8.97357 -2.74833 0
M  V30 16330 C 2301.5 9.07548 -1.32709 0
M  V30 16331 O 2300.45 8.62072 -0.606159 0
M  V30 16332 C 2302.72 8.25383 -0.938334 0
M  V30 16333 O 2303.46 8.74577 0.146954 0
M  V30 16334 C 2302.05 6.8802 -0.712559 0
M  V30 16335 O 2302.85 6.1189 0.194655 0
M  V30 16336 C 2300.71 7.27966 -0.139777 0
M  V30 16337 H 2300.75 7.25354 0.961601 0
M  V30 16338 H 2301.93 6.32557 -1.65702 0
M  V30 16339 H 2303.41 8.19355 -1.79097 0
M  V30 16340 H 2301.72 10.1294 -1.10029 0
M  V30 16341 H 2301.53 9.64276 -3.41316 0
M  V30 16342 H 2299.9 9.25417 -2.76357 0
M  V30 16343 H 2302.54 6.25267 1.07847 0
M  V30 16344 P 2304.4 8.791 2.00229e-11 0
M  V30 16345 O 2305.82 9.31096 0.027933 0
M  V30 16346 O 2304.04 7.77869 -1.04071 0
M  V30 16347 O 2304.07 8.09533 1.41463 0
M  V30 16348 C 2303.91 9.0349 2.53943 0
M  V30 16349 C 2304.45 8.35226 3.79016 0
M  V30 16350 O 2303.4 7.57992 4.15078 0
M  V30 16351 C 2305.67 7.45087 3.67298 0
M  V30 16352 O 2306.41 7.27796 4.85194 0
M  V30 16353 C 2305 6.17323 3.12027 0
M  V30 16354 O 2305.8 5.04231 3.47188 0
M  V30 16355 C 2303.66 6.19961 3.81809 0
M  V30 16356 H 2303.7 5.58218 4.73051 0
M  V30 16357 H 2304.88 6.21726 2.02589 0
M  V30 16358 H 2306.36 7.86112 2.9231 0
M  V30 16359 H 2304.67 9.11627 4.55076 0
M  V30 16360 H 2304.48 9.9573 2.34194 0
M  V30 16361 H 2302.85 9.2792 2.67832 0
M  V30 16362 H 2305.49 4.67702 4.28772 0
M  V30 16363 P 2307.35 7.39546 4.75277 0
M  V30 16364 O 2308.77 7.81777 5.05738 0
M  V30 16365 O 2306.99 7.1065 3.32998 0
M  V30 16366 O 2307.02 6.04542 5.56673 0
M  V30 16367 C 2306.86 6.22772 7.02095 0
M  V30 16368 C 2307.4 4.97725 7.70406 0
M  V30 16369 O 2306.35 4.13256 7.58987 0
M  V30 16370 C 2308.62 4.28231 7.11815 0
M  V30 16371 O 2309.36 3.49945 8.01648 0
M  V30 16372 C 2307.95 3.5063 5.96244 0
M  V30 16373 O 2308.75 2.36482 5.64681 0
M  V30 16374 C 2306.61 3.15122 6.56374 0
M  V30 16375 H 2306.65 2.13853 6.99751 0
M  V30 16376 H 2307.83 4.13501 5.06559 0
M  V30 16377 H 2309.31 5.03285 6.70911 0
M  V30 16378 H 2307.62 5.20877 8.75697 0
M  V30 16379 H 2307.43 7.11046 7.35349 0
M  V30 16380 H 2305.8 6.35815 7.26986 0
M  V30 16381 H 2308.44 1.61644 6.13565 0
M  V30 16382 P 2310.3 3.65191 7.99657 0
M  V30 16383 O 2311.72 3.8425 8.48115 0
M  V30 16384 O 2309.94 4.17805 6.64342 0
M  V30 16385 O 2309.97 2.07613 7.95143 0
M  V30 16386 C 2309.81 1.44328 9.27336 0
M  V30 16387 C 2310.35 0.0220036 9.17197 0
M  V30 16388 O 2309.3 -0.626867 8.61923 0
M  V30 16389 C 2311.57 -0.24586 8.30336 0
M  V30 16390 O 2312.31 -1.39011 8.63583 0
M  V30 16391 C 2310.9 -0.273849 6.91158 0
M  V30 16392 O 2311.7 -1.06348 6.02892 0
M  V30 16393 C 2309.57 -0.897649 7.22545 0
M  V30 16394 H 2309.6 -1.9841 7.04286 0
M  V30 16395 H 2310.78 0.739928 6.497 0
M  V30 16396 H 2312.26 0.60668 8.36503 0
M  V30 16397 H 2310.57 -0.352479 10.1829 0
M  V30 16398 H 2310.38 2.00611 10.0304 0
M  V30 16399 H 2308.75 1.41843 9.55327 0
M  V30 16400 H 2311.39 -1.95734 6.03555 0
M  V30 16401 P 2313.25 -1.25109 8.70152 0
M  V30 16402 O 2314.67 -1.35274 9.21221 0
M  V30 16403 O 2312.89 -0.0769065 7.84762 0
M  V30 16404 O 2312.92 -2.55232 7.81161 0
M  V30 16405 C 2312.76 -3.79939 8.58154 0
M  V30 16406 C 2313.3 -4.94023 7.72785 0
M  V30 16407 O 2312.25 -5.18726 6.91205 0
M  V30 16408 C 2314.52 -4.69597 6.85231 0
M  V30 16409 O 2315.26 -5.83832 6.51337 0
M  V30 16410 C 2313.85 -3.96706 5.66633 0
M  V30 16411 O 2314.65 -4.15414 4.49689 0
M  V30 16412 C 2312.52 -4.66153 5.59313 0
M  V30 16413 H 2312.55 -5.47679 4.85214 0
M  V30 16414 H 2313.73 -2.89008 5.86566 0
M  V30 16415 H 2315.21 -4.0121 7.36511 0
M  V30 16416 H 2313.52 -5.80182 8.37584 0
M  V30 16417 H 2313.33 -3.73517 9.52265 0
M  V30 16418 H 2311.7 -3.97163 8.80359 0
M  V30 16419 H 2314.34 -4.90969 4.01921 0
M  V30 16420 P 2316.2 -5.75688 6.64379 0
M  V30 16421 O 2317.62 -6.11915 7.01921 0
M  V30 16422 O 2315.84 -4.30744 6.56026 0
M  V30 16423 O 2315.87 -6.37042 5.19165 0
M  V30 16424 C 2315.71 -7.83662 5.1657 0
M  V30 16425 C 2316.25 -8.33398 3.83019 0
M  V30 16426 O 2315.2 -8.0998 3.00999 0
M  V30 16427 C 2317.47 -7.65514 3.2257 0
M  V30 16428 O 2318.21 -8.4329 2.32297 0
M  V30 16429 C 2316.8 -6.40075 2.62207 0
M  V30 16430 O 2317.6 -5.92338 1.5428 0
M  V30 16431 C 2315.47 -6.9454 2.18503 0
M  V30 16432 N 2314.42 -5.95905 2.39948 0
M  V30 16433 C 2314.59 -4.98383 3.32108 0
M  V30 16434 N 2313.57 -4.16798 3.41761 0
M  V30 16435 C 2312.68 -4.65287 2.47461 0
M  V30 16436 C 2311.41 -4.18946 2.07461 0
M  V30 16437 N 2310.81 -3.09661 2.60717 0
M  V30 16438 N 2310.85 -4.95327 1.09101 0
M  V30 16439 C 2311.45 -6.04369 0.519812 0
M  V30 16440 N 2312.63 -6.50694 0.855982 0
M  V30 16441 C 2313.2 -5.75818 1.84322 0
M  V30 16442 H 2315.5 -7.22964 1.12076 0
M  V30 16443 H 2316.68 -5.60502 3.36589 0
M  V30 16444 H 2318.16 -7.35707 4.02681 0
M  V30 16445 H 2316.47 -9.41302 3.90009 0
M  V30 16446 H 2316.28 -8.29056 5.99158 0
M  V30 16447 H 2314.65 -8.10073 5.25882 0
M  V30 16448 H 2310.91 -6.55843 -0.270373 0
M  V30 16449 H 2315.49 -4.88564 3.92502 0
M  V30 16450 H 2309.88 -2.80523 2.27218 0
M  V30 16451 H 2311.29 -2.55848 3.34465 0
M  V30 16452 H 2317.29 -6.30224 0.72668 0
M  V30 16453 P 2319.15 -8.4349 2.47671 0
M  V30 16454 O 2320.57 -8.94167 2.5964 0
M  V30 16455 O 2318.79 -7.1704 3.19006 0
M  V30 16456 O 2318.83 -8.16596 0.923387 0
M  V30 16457 C 2318.67 -9.38437 0.108857 0
M  V30 16458 C 2319.21 -9.08175 -1.28353 0
M  V30 16459 O 2318.15 -8.44229 -1.84713 0
M  V30 16460 C 2320.42 -8.18386 -1.42505 0
M  V30 16461 O 2321.16 -8.3501 -2.60497 0
M  V30 16462 C 2319.75 -6.80225 -1.25468 0
M  V30 16463 O 2320.55 -5.81621 -1.91066 0
M  V30 16464 C 2318.42 -7.02416 -1.9168 0
M  V30 16465 H 2318.45 -6.6888 -2.96621 0
M  V30 16466 H 2319.63 -6.53617 -0.192223 0
M  V30 16467 H 2321.12 -8.36622 -0.589963 0
M  V30 16468 H 2319.42 -10.0291 -1.79807 0
M  V30 16469 H 2319.23 -10.2138 0.558219 0
M  V30 16470 H 2317.6 -9.6579 0.0444202 0
M  V30 16471 H 2320.24 -5.69556 -2.79637 0
M  V30 16472 P 2322.1 -8.4349 -2.47671 0
M  V30 16473 O 2323.52 -8.92593 -2.65 0
M  V30 16474 O 2321.74 -7.7568 -1.19296 0
M  V30 16475 O 2321.78 -7.36886 -3.63805 0
M  V30 16476 C 2321.62 -7.95349 -4.982 0
M  V30 16477 C 2322.16 -6.94612 -5.98974 0
M  V30 16478 O 2321.1 -6.10347 -6.11815 0
M  V30 16479 C 2323.37 -6.11426 -5.62335 0
M  V30 16480 O 2324.11 -5.6162 -6.70584 0
M  V30 16481 C 2322.7 -5.04409 -4.73308 0
M  V30 16482 O 2323.5 -3.85992 -4.75183 0
M  V30 16483 C 2321.37 -4.8728 -5.41006 0
M  V30 16484 H 2321.4 -4.02333 -6.11157 0
M  V30 16485 H 2322.58 -5.39466 -3.69543 0
M  V30 16486 H 2324.07 -6.71916 -5.01943 0
M  V30 16487 H 2322.37 -7.4649 -6.93477 0
M  V30 16488 H 2322.18 -8.89416 -5.05237 0
M  V30 16489 H 2320.55 -8.14876 -5.18409 0
M  V30 16490 H 2323.19 -3.27957 -5.4317 0
M  V30 16491 P 2325.05 -5.75688 -6.64379 0
M  V30 16492 O 2326.47 -6.07627 -7.05504 0
M  V30 16493 O 2324.69 -5.88047 -5.19722 0
M  V30 16494 O 2324.73 -4.2322 -7.04443 0
M  V30 16495 C 2324.57 -3.99743 -8.4911 0
M  V30 16496 C 2325.11 -2.60516 -8.79425 0
M  V30 16497 O 2324.05 -1.82684 -8.4467 0
M  V30 16498 C 2326.32 -2.10343 -8.03628 0
M  V30 16499 O 2327.06 -1.09919 -8.67766 0
M  V30 16500 C 2325.66 -1.68446 -6.70876 0
M  V30 16501 O 2326.45 -0.678137 -6.08433 0
M  V30 16502 C 2324.32 -1.17436 -7.18567 0
M  V30 16503 H 2324.35 -0.0804732 -7.31656 0
M  V30 16504 H 2325.53 -2.54037 -6.02537 0
M  V30 16505 H 2327.02 -2.93881 -7.85526 0
M  V30 16506 H 2325.32 -2.53065 -9.86973 0
M  V30 16507 H 2325.13 -4.75072 -9.05887 0
M  V30 16508 H 2323.5 -4.05244 -8.76668 0
M  V30 16509 H 2326.14 0.177647 -6.34251 0
M  V30 16510 P 2328 -1.25109 -8.70152 0
M  V30 16511 O 2329.42 -1.29744 -9.22016 0
M  V30 16512 O 2327.64 -2.13714 -7.55141 0
M  V30 16513 O 2327.68 0.248149 -8.21425 0
M  V30 16514 C 2327.52 1.22779 -9.30434 0
M  V30 16515 C 2328.06 2.56293 -8.80664 0
M  V30 16516 O 2327 3.02979 -8.09349 0
M  V30 16517 C 2329.27 2.57523 -7.89775 0
M  V30 16518 O 2330.01 3.7668 -7.89438 0
M  V30 16519 C 2328.61 2.20997 -6.55446 0
M  V30 16520 O 2329.4 2.71895 -5.48509 0
M  V30 16521 C 2327.27 2.89693 -6.67988 0
M  V30 16522 H 2327.3 3.88793 -6.19859 0
M  V30 16523 H 2328.48 1.12046 -6.44229 0
M  V30 16524 H 2329.97 1.7746 -8.19711 0
M  V30 16525 H 2328.27 3.20706 -9.67112 0
M  V30 16526 H 2328.08 0.901032 -10.1892 0
M  V30 16527 H 2326.45 1.33049 -9.56592 0
M  V30 16528 H 2329.09 3.57847 -5.23962 0
M  V30 16529 P 2330.95 3.65191 -7.99657 0
M  V30 16530 O 2332.37 3.89332 -8.45794 0
M  V30 16531 O 2330.59 2.28472 -7.50807 0
M  V30 16532 O 2330.63 4.64972 -6.77611 0
M  V30 16533 C 2330.47 6.06319 -7.16352 0
M  V30 16534 C 2331.01 6.91731 -6.02299 0
M  V30 16535 O 2329.95 6.92449 -5.17064 0
M  V30 16536 C 2332.23 6.43627 -5.25174 0
M  V30 16537 O 2332.96 7.43686 -4.60469 0
M  V30 16538 C 2331.56 5.40275 -4.31916 0
M  V30 16539 O 2332.36 5.25279 -3.14438 0
M  V30 16540 C 2330.22 6.04847 -4.05327 0
M  V30 16541 H 2330.25 6.62195 -3.11261 0
M  V30 16542 H 2331.43 4.42556 -4.81383 0
M  V30 16543 H 2332.92 5.92458 -5.93643 0
M  V30 16544 H 2331.22 7.92655 -6.402 0
M  V30 16545 H 2331.03 6.26671 -8.0846 0
M  V30 16546 H 2329.4 6.29101 -7.32804 0
M  V30 16547 H 2332.04 5.84315 -2.47318 0
M  V30 16548 P 2333.9 7.39546 -4.75277 0
M  V30 16549 O 2335.32 7.84798 -5.01039 0
M  V30 16550 O 2333.54 5.9812 -5.08098 0
M  V30 16551 O 2333.58 7.57503 -3.1866 0
M  V30 16552 C 2333.42 8.97357 -2.74833 0
M  V30 16553 C 2333.96 9.07548 -1.32709 0
M  V30 16554 O 2332.9 8.62072 -0.606159 0
M  V30 16555 C 2335.18 8.25383 -0.938334 0
M  V30 16556 O 2335.91 8.74577 0.146954 0
M  V30 16557 C 2334.51 6.8802 -0.712559 0
M  V30 16558 O 2335.31 6.1189 0.194655 0
M  V30 16559 C 2333.17 7.27966 -0.139777 0
M  V30 16560 H 2333.2 7.25354 0.961601 0
M  V30 16561 H 2334.38 6.32557 -1.65702 0
M  V30 16562 H 2335.87 8.19355 -1.79097 0
M  V30 16563 H 2334.17 10.1294 -1.10029 0
M  V30 16564 H 2333.98 9.64276 -3.41316 0
M  V30 16565 H 2332.35 9.25417 -2.76357 0
M  V30 16566 H 2334.99 6.25267 1.07847 0
M  V30 16567 P 2336.85 8.791 2.03331e-11 0
M  V30 16568 O 2338.27 9.31096 0.027933 0
M  V30 16569 O 2336.49 7.77869 -1.04071 0
M  V30 16570 O 2336.53 8.09533 1.41463 0
M  V30 16571 C 2336.37 9.0349 2.53943 0
M  V30 16572 C 2336.91 8.35226 3.79016 0
M  V30 16573 O 2335.85 7.57992 4.15078 0
M  V30 16574 C 2338.13 7.45087 3.67298 0
M  V30 16575 O 2338.86 7.27796 4.85194 0
M  V30 16576 C 2337.46 6.17323 3.12027 0
M  V30 16577 O 2338.26 5.04231 3.47188 0
M  V30 16578 C 2336.12 6.19961 3.81809 0
M  V30 16579 H 2336.15 5.58218 4.73051 0
M  V30 16580 H 2337.34 6.21726 2.02589 0
M  V30 16581 H 2338.82 7.86112 2.9231 0
M  V30 16582 H 2337.13 9.11627 4.55076 0
M  V30 16583 H 2336.94 9.9573 2.34194 0
M  V30 16584 H 2335.31 9.2792 2.67832 0
M  V30 16585 H 2337.94 4.67702 4.28772 0
M  V30 16586 P 2339.8 7.39546 4.75277 0
M  V30 16587 O 2341.22 7.81777 5.05738 0
M  V30 16588 O 2339.44 7.1065 3.32998 0
M  V30 16589 O 2339.48 6.04542 5.56673 0
M  V30 16590 C 2339.32 6.22772 7.02095 0
M  V30 16591 C 2339.86 4.97725 7.70406 0
M  V30 16592 O 2338.8 4.13256 7.58987 0
M  V30 16593 C 2341.08 4.28231 7.11815 0
M  V30 16594 O 2341.82 3.49945 8.01648 0
M  V30 16595 C 2340.41 3.5063 5.96244 0
M  V30 16596 O 2341.21 2.36482 5.64681 0
M  V30 16597 C 2339.07 3.15122 6.56374 0
M  V30 16598 H 2339.1 2.13853 6.99751 0
M  V30 16599 H 2340.29 4.13501 5.06559 0
M  V30 16600 H 2341.77 5.03285 6.70911 0
M  V30 16601 H 2340.08 5.20877 8.75697 0
M  V30 16602 H 2339.89 7.11046 7.35349 0
M  V30 16603 H 2338.26 6.35815 7.26986 0
M  V30 16604 H 2340.9 1.61644 6.13565 0
M  V30 16605 P 2342.75 3.65191 7.99657 0
M  V30 16606 O 2344.17 3.8425 8.48115 0
M  V30 16607 O 2342.39 4.17805 6.64342 0
M  V30 16608 O 2342.43 2.07613 7.95143 0
M  V30 16609 C 2342.27 1.44328 9.27336 0
M  V30 16610 C 2342.81 0.0220036 9.17197 0
M  V30 16611 O 2341.75 -0.626867 8.61923 0
M  V30 16612 C 2344.03 -0.24586 8.30336 0
M  V30 16613 O 2344.77 -1.39011 8.63583 0
M  V30 16614 C 2343.36 -0.273849 6.91158 0
M  V30 16615 O 2344.16 -1.06348 6.02892 0
M  V30 16616 C 2342.02 -0.897649 7.22545 0
M  V30 16617 H 2342.05 -1.9841 7.04286 0
M  V30 16618 H 2343.24 0.739928 6.497 0
M  V30 16619 H 2344.72 0.60668 8.36503 0
M  V30 16620 H 2343.03 -0.352479 10.1829 0
M  V30 16621 H 2342.84 2.00611 10.0304 0
M  V30 16622 H 2341.21 1.41843 9.55327 0
M  V30 16623 H 2343.85 -1.95734 6.03555 0
M  V30 16624 P 2345.7 -1.25109 8.70152 0
M  V30 16625 O 2347.13 -1.35274 9.21221 0
M  V30 16626 O 2345.34 -0.0769065 7.84762 0
M  V30 16627 O 2345.38 -2.55232 7.81161 0
M  V30 16628 C 2345.22 -3.79939 8.58154 0
M  V30 16629 C 2345.76 -4.94023 7.72785 0
M  V30 16630 O 2344.7 -5.18726 6.91205 0
M  V30 16631 C 2346.98 -4.69597 6.85231 0
M  V30 16632 O 2347.72 -5.83832 6.51337 0
M  V30 16633 C 2346.31 -3.96706 5.66633 0
M  V30 16634 O 2347.11 -4.15414 4.49689 0
M  V30 16635 C 2344.97 -4.66153 5.59313 0
M  V30 16636 H 2345 -5.47679 4.85214 0
M  V30 16637 H 2346.19 -2.89008 5.86566 0
M  V30 16638 H 2347.67 -4.0121 7.36511 0
M  V30 16639 H 2345.98 -5.80182 8.37584 0
M  V30 16640 H 2345.79 -3.73517 9.52265 0
M  V30 16641 H 2344.16 -3.97163 8.80359 0
M  V30 16642 H 2346.8 -4.90969 4.01921 0
M  V30 16643 P 2348.65 -5.75688 6.64379 0
M  V30 16644 O 2350.08 -6.11849 7.01846 0
M  V30 16645 O 2348.29 -4.30744 6.56026 0
M  V30 16646 O 2348.33 -6.37042 5.19165 0
M  V30 16647 C 2348.17 -7.83578 5.16515 0
M  V30 16648 C 2348.71 -8.33398 3.83019 0
M  V30 16649 O 2347.65 -8.10074 3.01034 0
M  V30 16650 C 2349.93 -7.65514 3.2257 0
M  V30 16651 O 2350.67 -8.4329 2.32297 0
M  V30 16652 C 2349.26 -6.40075 2.62207 0
M  V30 16653 O 2350.06 -5.92589 1.53712 0
M  V30 16654 C 2347.92 -6.9454 2.18503 0
M  V30 16655 H 2347.95 -7.23063 1.12091 0
M  V30 16656 H 2349.14 -5.6025 3.37201 0
M  V30 16657 H 2350.62 -7.35707 4.02681 0
M  V30 16658 H 2348.93 -9.40912 3.9095 0
M  V30 16659 H 2348.74 -8.29056 5.99158 0
M  V30 16660 H 2347.11 -8.10073 5.25882 0
M  V30 16661 H 2349.75 -6.30324 0.726794 0
M  V30 16662 P 2351.6 -8.4349 2.47671 0
M  V30 16663 O 2353.03 -8.94167 2.5964 0
M  V30 16664 O 2351.24 -7.1704 3.19006 0
M  V30 16665 O 2351.28 -8.16596 0.923387 0
M  V30 16666 C 2351.12 -9.38437 0.108857 0
M  V30 16667 C 2351.66 -9.08175 -1.28353 0
M  V30 16668 O 2350.61 -8.44229 -1.84713 0
M  V30 16669 C 2352.88 -8.18386 -1.42505 0
M  V30 16670 O 2353.62 -8.3501 -2.60497 0
M  V30 16671 C 2352.21 -6.80225 -1.25468 0
M  V30 16672 O 2353.01 -5.81621 -1.91066 0
M  V30 16673 C 2350.87 -7.02416 -1.9168 0
M  V30 16674 H 2350.91 -6.6888 -2.96621 0
M  V30 16675 H 2352.09 -6.53617 -0.192223 0
M  V30 16676 H 2353.57 -8.36622 -0.589963 0
M  V30 16677 H 2351.88 -10.0291 -1.79807 0
M  V30 16678 H 2351.69 -10.2138 0.558219 0
M  V30 16679 H 2350.06 -9.6579 0.0444202 0
M  V30 16680 H 2352.7 -5.69556 -2.79637 0
M  V30 16681 P 2354.55 -8.4349 -2.47671 0
M  V30 16682 O 2355.98 -8.92593 -2.65 0
M  V30 16683 O 2354.19 -7.7568 -1.19296 0
M  V30 16684 O 2354.23 -7.36886 -3.63805 0
M  V30 16685 C 2354.07 -7.95349 -4.982 0
M  V30 16686 C 2354.61 -6.94612 -5.98974 0
M  V30 16687 O 2353.56 -6.10347 -6.11815 0
M  V30 16688 C 2355.83 -6.11426 -5.62335 0
M  V30 16689 O 2356.57 -5.6162 -6.70584 0
M  V30 16690 C 2355.16 -5.04409 -4.73308 0
M  V30 16691 O 2355.96 -3.85992 -4.75183 0
M  V30 16692 C 2353.82 -4.8728 -5.41006 0
M  V30 16693 H 2353.86 -4.02333 -6.11157 0
M  V30 16694 H 2355.04 -5.39466 -3.69543 0
M  V30 16695 H 2356.52 -6.71916 -5.01943 0
M  V30 16696 H 2354.83 -7.4649 -6.93477 0
M  V30 16697 H 2354.64 -8.89416 -5.05237 0
M  V30 16698 H 2353.01 -8.14876 -5.18409 0
M  V30 16699 H 2355.65 -3.27957 -5.4317 0
M  V30 16700 P 2357.51 -5.75688 -6.64379 0
M  V30 16701 O 2358.93 -6.07627 -7.05504 0
M  V30 16702 O 2357.15 -5.88047 -5.19722 0
M  V30 16703 O 2357.18 -4.2322 -7.04443 0
M  V30 16704 C 2357.02 -3.99743 -8.4911 0
M  V30 16705 C 2357.56 -2.60516 -8.79425 0
M  V30 16706 O 2356.51 -1.82684 -8.4467 0
M  V30 16707 C 2358.78 -2.10343 -8.03628 0
M  V30 16708 O 2359.52 -1.09919 -8.67766 0
M  V30 16709 C 2358.11 -1.68446 -6.70876 0
M  V30 16710 O 2358.91 -0.678137 -6.08433 0
M  V30 16711 C 2356.77 -1.17436 -7.18567 0
M  V30 16712 H 2356.81 -0.0804732 -7.31656 0
M  V30 16713 H 2357.99 -2.54037 -6.02537 0
M  V30 16714 H 2359.47 -2.93881 -7.85526 0
M  V30 16715 H 2357.78 -2.53065 -9.86973 0
M  V30 16716 H 2357.59 -4.75072 -9.05887 0
M  V30 16717 H 2355.96 -4.05244 -8.76668 0
M  V30 16718 H 2358.6 0.177647 -6.34251 0
M  V30 16719 P 2360.46 -1.25109 -8.70152 0
M  V30 16720 O 2361.88 -1.29744 -9.22016 0
M  V30 16721 O 2360.1 -2.13714 -7.55141 0
M  V30 16722 O 2360.13 0.248149 -8.21425 0
M  V30 16723 C 2359.97 1.22779 -9.30434 0
M  V30 16724 C 2360.51 2.56293 -8.80664 0
M  V30 16725 O 2359.46 3.02979 -8.09349 0
M  V30 16726 C 2361.73 2.57523 -7.89775 0
M  V30 16727 O 2362.47 3.7668 -7.89438 0
M  V30 16728 C 2361.06 2.20997 -6.55446 0
M  V30 16729 O 2361.86 2.71895 -5.48509 0
M  V30 16730 C 2359.72 2.89693 -6.67988 0
M  V30 16731 H 2359.76 3.88793 -6.19859 0
M  V30 16732 H 2360.94 1.12046 -6.44229 0
M  V30 16733 H 2362.42 1.7746 -8.19711 0
M  V30 16734 H 2360.73 3.20706 -9.67112 0
M  V30 16735 H 2360.54 0.901032 -10.1892 0
M  V30 16736 H 2358.91 1.33049 -9.56592 0
M  V30 16737 H 2361.55 3.57847 -5.23962 0
M  V30 16738 P 2363.41 3.65191 -7.99657 0
M  V30 16739 O 2364.83 3.89374 -8.45885 0
M  V30 16740 O 2363.05 2.28472 -7.50807 0
M  V30 16741 O 2363.08 4.64972 -6.77611 0
M  V30 16742 C 2362.92 6.06383 -7.16428 0
M  V30 16743 C 2363.46 6.91731 -6.02299 0
M  V30 16744 O 2362.41 6.92369 -5.17005 0
M  V30 16745 C 2364.68 6.43627 -5.25174 0
M  V30 16746 O 2365.42 7.43686 -4.60469 0
M  V30 16747 C 2364.01 5.40275 -4.31916 0
M  V30 16748 O 2364.81 5.24878 -3.14911 0
M  V30 16749 C 2362.68 6.04847 -4.05327 0
M  V30 16750 N 2361.63 5.04166 -3.98114 0
M  V30 16751 C 2361.8 3.84629 -4.59066 0
M  V30 16752 N 2360.77 3.0363 -4.45343 0
M  V30 16753 C 2359.89 3.76722 -3.68523 0
M  V30 16754 C 2358.62 3.43528 -3.17088 0
M  V30 16755 N 2358.02 2.23665 -3.37397 0
M  V30 16756 N 2358.06 4.44526 -2.44231 0
M  V30 16757 C 2358.66 5.65243 -2.20146 0
M  V30 16758 N 2359.84 6.00221 -2.65453 0
M  V30 16759 C 2360.41 5.00564 -3.39083 0
M  V30 16760 H 2362.71 6.62104 -3.11218 0
M  V30 16761 H 2363.89 4.42969 -4.80867 0
M  V30 16762 H 2365.37 5.92458 -5.93643 0
M  V30 16763 H 2363.68 7.93295 -6.39407 0
M  V30 16764 H 2363.49 6.26671 -8.0846 0
M  V30 16765 H 2361.86 6.29101 -7.32804 0
M  V30 16766 H 2358.12 6.36894 -1.5883 0
M  V30 16767 H 2362.7 3.58193 -5.14248 0
M  V30 16768 H 2357.09 2.05145 -2.97047 0
M  V30 16769 H 2358.5 1.51255 -3.92998 0
M  V30 16770 H 2364.5 5.84223 -2.47279 0
M  V30 16771 P 2366.36 7.39546 -4.75277 0
M  V30 16772 O 2367.78 7.84798 -5.01039 0
M  V30 16773 O 2366 5.9812 -5.08098 0
M  V30 16774 O 2366.03 7.57503 -3.1866 0
M  V30 16775 C 2365.87 8.97357 -2.74833 0
M  V30 16776 C 2366.41 9.07548 -1.32709 0
M  V30 16777 O 2365.36 8.62072 -0.606159 0
M  V30 16778 C 2367.63 8.25383 -0.938334 0
M  V30 16779 O 2368.37 8.74577 0.146954 0
M  V30 16780 C 2366.96 6.8802 -0.712559 0
M  V30 16781 O 2367.76 6.1189 0.194655 0
M  V30 16782 C 2365.63 7.27966 -0.139777 0
M  V30 16783 H 2365.66 7.25354 0.961601 0
M  V30 16784 H 2366.84 6.32557 -1.65702 0
M  V30 16785 H 2368.33 8.19355 -1.79097 0
M  V30 16786 H 2366.63 10.1294 -1.10029 0
M  V30 16787 H 2366.44 9.64276 -3.41316 0
M  V30 16788 H 2364.81 9.25417 -2.76357 0
M  V30 16789 H 2367.45 6.25267 1.07847 0
M  V30 16790 P 2369.31 8.791 2.06433e-11 0
M  V30 16791 O 2370.73 9.31096 0.027933 0
M  V30 16792 O 2368.95 7.77869 -1.04071 0
M  V30 16793 O 2368.98 8.09533 1.41463 0
M  V30 16794 C 2368.82 9.0349 2.53943 0
M  V30 16795 C 2369.36 8.35226 3.79016 0
M  V30 16796 O 2368.31 7.57992 4.15078 0
M  V30 16797 C 2370.58 7.45087 3.67298 0
M  V30 16798 O 2371.32 7.27796 4.85194 0
M  V30 16799 C 2369.91 6.17323 3.12027 0
M  V30 16800 O 2370.71 5.04231 3.47188 0
M  V30 16801 C 2368.58 6.19961 3.81809 0
M  V30 16802 H 2368.61 5.58218 4.73051 0
M  V30 16803 H 2369.79 6.21726 2.02589 0
M  V30 16804 H 2371.28 7.86112 2.9231 0
M  V30 16805 H 2369.58 9.11627 4.55076 0
M  V30 16806 H 2369.39 9.9573 2.34194 0
M  V30 16807 H 2367.76 9.2792 2.67832 0
M  V30 16808 H 2370.4 4.67702 4.28772 0
M  V30 16809 P 2372.26 7.39546 4.75277 0
M  V30 16810 O 2373.68 7.81777 5.05738 0
M  V30 16811 O 2371.9 7.1065 3.32998 0
M  V30 16812 O 2371.94 6.04542 5.56673 0
M  V30 16813 C 2371.78 6.22772 7.02095 0
M  V30 16814 C 2372.32 4.97725 7.70406 0
M  V30 16815 O 2371.26 4.13256 7.58987 0
M  V30 16816 C 2373.53 4.28231 7.11815 0
M  V30 16817 O 2374.27 3.49945 8.01648 0
M  V30 16818 C 2372.86 3.5063 5.96244 0
M  V30 16819 O 2373.66 2.36482 5.64681 0
M  V30 16820 C 2371.53 3.15122 6.56374 0
M  V30 16821 H 2371.56 2.13853 6.99751 0
M  V30 16822 H 2372.74 4.13501 5.06559 0
M  V30 16823 H 2374.23 5.03285 6.70911 0
M  V30 16824 H 2372.53 5.20877 8.75697 0
M  V30 16825 H 2372.34 7.11046 7.35349 0
M  V30 16826 H 2370.71 6.35815 7.26986 0
M  V30 16827 H 2373.35 1.61644 6.13565 0
M  V30 16828 P 2375.21 3.65191 7.99657 0
M  V30 16829 O 2376.63 3.8425 8.48115 0
M  V30 16830 O 2374.85 4.17805 6.64342 0
M  V30 16831 O 2374.89 2.07613 7.95143 0
M  V30 16832 C 2374.73 1.44328 9.27336 0
M  V30 16833 C 2375.27 0.0220036 9.17197 0
M  V30 16834 O 2374.21 -0.626867 8.61923 0
M  V30 16835 C 2376.48 -0.24586 8.30336 0
M  V30 16836 O 2377.22 -1.39011 8.63583 0
M  V30 16837 C 2375.81 -0.273849 6.91158 0
M  V30 16838 O 2376.61 -1.06348 6.02892 0
M  V30 16839 C 2374.48 -0.897649 7.22545 0
M  V30 16840 H 2374.51 -1.9841 7.04286 0
M  V30 16841 H 2375.69 0.739928 6.497 0
M  V30 16842 H 2377.18 0.60668 8.36503 0
M  V30 16843 H 2375.48 -0.352479 10.1829 0
M  V30 16844 H 2375.29 2.00611 10.0304 0
M  V30 16845 H 2373.66 1.41843 9.55327 0
M  V30 16846 H 2376.3 -1.95734 6.03555 0
M  V30 16847 P 2378.16 -1.25109 8.70152 0
M  V30 16848 O 2379.58 -1.35274 9.21221 0
M  V30 16849 O 2377.8 -0.0769065 7.84762 0
M  V30 16850 O 2377.84 -2.55232 7.81161 0
M  V30 16851 C 2377.68 -3.79939 8.58154 0
M  V30 16852 C 2378.22 -4.94023 7.72785 0
M  V30 16853 O 2377.16 -5.18726 6.91205 0
M  V30 16854 C 2379.43 -4.69597 6.85231 0
M  V30 16855 O 2380.17 -5.83832 6.51337 0
M  V30 16856 C 2378.77 -3.96706 5.66633 0
M  V30 16857 O 2379.56 -4.15414 4.49689 0
M  V30 16858 C 2377.43 -4.66153 5.59313 0
M  V30 16859 H 2377.46 -5.47679 4.85214 0
M  V30 16860 H 2378.64 -2.89008 5.86566 0
M  V30 16861 H 2380.13 -4.0121 7.36511 0
M  V30 16862 H 2378.43 -5.80182 8.37584 0
M  V30 16863 H 2378.24 -3.73517 9.52265 0
M  V30 16864 H 2376.61 -3.97163 8.80359 0
M  V30 16865 H 2379.25 -4.90969 4.01921 0
M  V30 16866 P 2381.11 -5.75688 6.64379 0
M  V30 16867 O 2382.53 -6.11915 7.01921 0
M  V30 16868 O 2380.75 -4.30744 6.56026 0
M  V30 16869 O 2380.79 -6.37042 5.19165 0
M  V30 16870 C 2380.63 -7.83662 5.1657 0
M  V30 16871 C 2381.17 -8.33398 3.83019 0
M  V30 16872 O 2380.11 -8.0998 3.00999 0
M  V30 16873 C 2382.38 -7.65514 3.2257 0
M  V30 16874 O 2383.12 -8.4329 2.32297 0
M  V30 16875 C 2381.72 -6.40075 2.62207 0
M  V30 16876 O 2382.51 -5.92338 1.5428 0
M  V30 16877 C 2380.38 -6.9454 2.18503 0
M  V30 16878 N 2379.34 -5.95905 2.39948 0
M  V30 16879 C 2379.5 -4.98383 3.32108 0
M  V30 16880 N 2378.48 -4.16798 3.41761 0
M  V30 16881 C 2377.59 -4.65287 2.47461 0
M  V30 16882 C 2376.33 -4.18946 2.07461 0
M  V30 16883 N 2375.76 -4.95327 1.09101 0
M  V30 16884 C 2376.36 -6.04369 0.519812 0
M  V30 16885 N 2377.54 -6.50694 0.855982 0
M  V30 16886 C 2378.11 -5.75818 1.84322 0
M  V30 16887 H 2381.59 -5.60502 3.36589 0
M  V30 16888 H 2383.08 -7.35707 4.02681 0
M  V30 16889 H 2381.38 -9.41302 3.90009 0
M  V30 16890 H 2381.19 -8.29056 5.99158 0
M  V30 16891 H 2379.56 -8.10073 5.25882 0
M  V30 16892 H 2380.4 -4.88564 3.92502 0
M  V30 16893 H 2382.2 -6.30224 0.72668 0
M  V30 16894 P 2384.06 -8.4349 2.47671 0
M  V30 16895 O 2385.48 -8.94167 2.5964 0
M  V30 16896 O 2383.7 -7.1704 3.19006 0
M  V30 16897 O 2383.74 -8.16596 0.923387 0
M  V30 16898 C 2383.58 -9.38437 0.108857 0
M  V30 16899 C 2384.12 -9.08175 -1.28353 0
M  V30 16900 O 2383.06 -8.44229 -1.84713 0
M  V30 16901 C 2385.34 -8.18386 -1.42505 0
M  V30 16902 O 2386.07 -8.3501 -2.60497 0
M  V30 16903 C 2384.67 -6.80225 -1.25468 0
M  V30 16904 O 2385.47 -5.81621 -1.91066 0
M  V30 16905 C 2383.33 -7.02416 -1.9168 0
M  V30 16906 H 2383.36 -6.6888 -2.96621 0
M  V30 16907 H 2384.54 -6.53617 -0.192223 0
M  V30 16908 H 2386.03 -8.36622 -0.589963 0
M  V30 16909 H 2384.33 -10.0291 -1.79807 0
M  V30 16910 H 2384.14 -10.2138 0.558219 0
M  V30 16911 H 2382.51 -9.6579 0.0444202 0
M  V30 16912 H 2385.15 -5.69556 -2.79637 0
M  V30 16913 P 2387.01 -8.4349 -2.47671 0
M  V30 16914 O 2388.43 -8.92593 -2.65 0
M  V30 16915 O 2386.65 -7.7568 -1.19296 0
M  V30 16916 O 2386.69 -7.36886 -3.63805 0
M  V30 16917 C 2386.53 -7.95349 -4.982 0
M  V30 16918 C 2387.07 -6.94612 -5.98974 0
M  V30 16919 O 2386.01 -6.10347 -6.11815 0
M  V30 16920 C 2388.29 -6.11426 -5.62335 0
M  V30 16921 O 2389.02 -5.6162 -6.70584 0
M  V30 16922 C 2387.62 -5.04409 -4.73308 0
M  V30 16923 O 2388.42 -3.85992 -4.75183 0
M  V30 16924 C 2386.28 -4.8728 -5.41006 0
M  V30 16925 H 2386.31 -4.02333 -6.11157 0
M  V30 16926 H 2387.5 -5.39466 -3.69543 0
M  V30 16927 H 2388.98 -6.71916 -5.01943 0
M  V30 16928 H 2387.29 -7.4649 -6.93477 0
M  V30 16929 H 2387.1 -8.89416 -5.05237 0
M  V30 16930 H 2385.47 -8.14876 -5.18409 0
M  V30 16931 H 2388.1 -3.27957 -5.4317 0
M  V30 16932 P 2389.96 -5.75688 -6.64379 0
M  V30 16933 O 2391.38 -6.07627 -7.05504 0
M  V30 16934 O 2389.6 -5.88047 -5.19722 0
M  V30 16935 O 2389.64 -4.2322 -7.04443 0
M  V30 16936 C 2389.48 -3.99743 -8.4911 0
M  V30 16937 C 2390.02 -2.60516 -8.79425 0
M  V30 16938 O 2388.96 -1.82684 -8.4467 0
M  V30 16939 C 2391.24 -2.10343 -8.03628 0
M  V30 16940 O 2391.97 -1.09919 -8.67766 0
M  V30 16941 C 2390.57 -1.68446 -6.70876 0
M  V30 16942 O 2391.37 -0.678137 -6.08433 0
M  V30 16943 C 2389.23 -1.17436 -7.18567 0
M  V30 16944 H 2389.26 -0.0804732 -7.31656 0
M  V30 16945 H 2390.45 -2.54037 -6.02537 0
M  V30 16946 H 2391.93 -2.93881 -7.85526 0
M  V30 16947 H 2390.24 -2.53065 -9.86973 0
M  V30 16948 H 2390.05 -4.75072 -9.05887 0
M  V30 16949 H 2388.42 -4.05244 -8.76668 0
M  V30 16950 H 2391.05 0.177647 -6.34251 0
M  V30 16951 P 2392.91 -1.25109 -8.70152 0
M  V30 16952 O 2394.33 -1.29744 -9.22016 0
M  V30 16953 O 2392.55 -2.13714 -7.55141 0
M  V30 16954 O 2392.59 0.248149 -8.21425 0
M  V30 16955 C 2392.43 1.22779 -9.30434 0
M  V30 16956 C 2392.97 2.56293 -8.80664 0
M  V30 16957 O 2391.91 3.02979 -8.09349 0
M  V30 16958 C 2394.19 2.57523 -7.89775 0
M  V30 16959 O 2394.93 3.7668 -7.89438 0
M  V30 16960 C 2393.52 2.20997 -6.55446 0
M  V30 16961 O 2394.32 2.71895 -5.48509 0
M  V30 16962 C 2392.18 2.89693 -6.67988 0
M  V30 16963 H 2392.21 3.88793 -6.19859 0
M  V30 16964 H 2393.4 1.12046 -6.44229 0
M  V30 16965 H 2394.88 1.7746 -8.19711 0
M  V30 16966 H 2393.19 3.20706 -9.67112 0
M  V30 16967 H 2393 0.901032 -10.1892 0
M  V30 16968 H 2391.37 1.33049 -9.56592 0
M  V30 16969 H 2394.01 3.57847 -5.23962 0
M  V30 16970 P 2395.86 3.65191 -7.99657 0
M  V30 16971 O 2397.28 3.89332 -8.45794 0
M  V30 16972 O 2395.5 2.28472 -7.50807 0
M  V30 16973 O 2395.54 4.64972 -6.77611 0
M  V30 16974 C 2395.38 6.06319 -7.16352 0
M  V30 16975 C 2395.92 6.91731 -6.02299 0
M  V30 16976 O 2394.86 6.92449 -5.17064 0
M  V30 16977 C 2397.14 6.43627 -5.25174 0
M  V30 16978 O 2397.88 7.43686 -4.60469 0
M  V30 16979 C 2396.47 5.40275 -4.31916 0
M  V30 16980 O 2397.27 5.25279 -3.14438 0
M  V30 16981 C 2395.13 6.04847 -4.05327 0
M  V30 16982 H 2395.16 6.62195 -3.11261 0
M  V30 16983 H 2396.35 4.42556 -4.81383 0
M  V30 16984 H 2397.83 5.92458 -5.93643 0
M  V30 16985 H 2396.14 7.92655 -6.402 0
M  V30 16986 H 2395.95 6.26671 -8.0846 0
M  V30 16987 H 2394.32 6.29101 -7.32804 0
M  V30 16988 H 2396.96 5.84315 -2.47318 0
M  V30 16989 P 2398.81 7.39546 -4.75277 0
M  V30 16990 O 2400.24 7.84798 -5.01039 0
M  V30 16991 O 2398.45 5.9812 -5.08098 0
M  V30 16992 O 2398.49 7.57503 -3.1866 0
M  V30 16993 C 2398.33 8.97357 -2.74833 0
M  V30 16994 C 2398.87 9.07548 -1.32709 0
M  V30 16995 O 2397.81 8.62072 -0.606159 0
M  V30 16996 C 2400.09 8.25383 -0.938334 0
M  V30 16997 O 2400.83 8.74577 0.146954 0
M  V30 16998 C 2399.42 6.8802 -0.712559 0
M  V30 16999 O 2400.22 6.1189 0.194655 0
M  V30 17000 C 2398.08 7.27966 -0.139777 0
M  V30 17001 H 2398.11 7.25354 0.961601 0
M  V30 17002 H 2399.3 6.32557 -1.65702 0
M  V30 17003 H 2400.78 8.19355 -1.79097 0
M  V30 17004 H 2399.09 10.1294 -1.10029 0
M  V30 17005 H 2398.9 9.64276 -3.41316 0
M  V30 17006 H 2397.27 9.25417 -2.76357 0
M  V30 17007 H 2399.91 6.25267 1.07847 0
M  V30 17008 P 2401.76 8.791 2.09534e-11 0
M  V30 17009 O 2403.19 9.31096 0.027933 0
M  V30 17010 O 2401.4 7.77869 -1.04071 0
M  V30 17011 O 2401.44 8.09533 1.41463 0
M  V30 17012 C 2401.28 9.0349 2.53943 0
M  V30 17013 C 2401.82 8.35226 3.79016 0
M  V30 17014 O 2400.76 7.57992 4.15078 0
M  V30 17015 C 2403.04 7.45087 3.67298 0
M  V30 17016 O 2403.78 7.27796 4.85194 0
M  V30 17017 C 2402.37 6.17323 3.12027 0
M  V30 17018 O 2403.17 5.04231 3.47188 0
M  V30 17019 C 2401.03 6.19961 3.81809 0
M  V30 17020 H 2401.06 5.58218 4.73051 0
M  V30 17021 H 2402.25 6.21726 2.02589 0
M  V30 17022 H 2403.73 7.86112 2.9231 0
M  V30 17023 H 2402.04 9.11627 4.55076 0
M  V30 17024 H 2401.85 9.9573 2.34194 0
M  V30 17025 H 2400.22 9.2792 2.67832 0
M  V30 17026 H 2402.86 4.67702 4.28772 0
M  V30 17027 P 2404.71 7.39546 4.75277 0
M  V30 17028 O 2406.14 7.81777 5.05738 0
M  V30 17029 O 2404.35 7.1065 3.32998 0
M  V30 17030 O 2404.39 6.04542 5.56673 0
M  V30 17031 C 2404.23 6.22772 7.02095 0
M  V30 17032 C 2404.77 4.97725 7.70406 0
M  V30 17033 O 2403.72 4.13256 7.58987 0
M  V30 17034 C 2405.99 4.28231 7.11815 0
M  V30 17035 O 2406.73 3.49945 8.01648 0
M  V30 17036 C 2405.32 3.5063 5.96244 0
M  V30 17037 O 2406.12 2.36482 5.64681 0
M  V30 17038 C 2403.98 3.15122 6.56374 0
M  V30 17039 H 2404.02 2.13853 6.99751 0
M  V30 17040 H 2405.2 4.13501 5.06559 0
M  V30 17041 H 2406.68 5.03285 6.70911 0
M  V30 17042 H 2404.99 5.20877 8.75697 0
M  V30 17043 H 2404.8 7.11046 7.35349 0
M  V30 17044 H 2403.17 6.35815 7.26986 0
M  V30 17045 H 2405.81 1.61644 6.13565 0
M  V30 17046 P 2407.67 3.65191 7.99657 0
M  V30 17047 O 2409.09 3.8425 8.48115 0
M  V30 17048 O 2407.31 4.17805 6.64342 0
M  V30 17049 O 2407.34 2.07613 7.95143 0
M  V30 17050 C 2407.18 1.44328 9.27336 0
M  V30 17051 C 2407.72 0.0220036 9.17197 0
M  V30 17052 O 2406.67 -0.626867 8.61923 0
M  V30 17053 C 2408.94 -0.24586 8.30336 0
M  V30 17054 O 2409.68 -1.39011 8.63583 0
M  V30 17055 C 2408.27 -0.273849 6.91158 0
M  V30 17056 O 2409.07 -1.06348 6.02892 0
M  V30 17057 C 2406.93 -0.897649 7.22545 0
M  V30 17058 H 2406.97 -1.9841 7.04286 0
M  V30 17059 H 2408.15 0.739928 6.497 0
M  V30 17060 H 2409.63 0.60668 8.36503 0
M  V30 17061 H 2407.94 -0.352479 10.1829 0
M  V30 17062 H 2407.75 2.00611 10.0304 0
M  V30 17063 H 2406.12 1.41843 9.55327 0
M  V30 17064 H 2408.76 -1.95734 6.03555 0
M  V30 17065 P 2410.62 -1.25109 8.70152 0
M  V30 17066 O 2412.04 -1.35274 9.21221 0
M  V30 17067 O 2410.26 -0.0769065 7.84762 0
M  V30 17068 O 2410.29 -2.55232 7.81161 0
M  V30 17069 C 2410.13 -3.79939 8.58154 0
M  V30 17070 C 2410.67 -4.94023 7.72785 0
M  V30 17071 O 2409.62 -5.18726 6.91205 0
M  V30 17072 C 2411.89 -4.69597 6.85231 0
M  V30 17073 O 2412.63 -5.83832 6.51337 0
M  V30 17074 C 2411.22 -3.96706 5.66633 0
M  V30 17075 O 2412.02 -4.15414 4.49689 0
M  V30 17076 C 2409.88 -4.66153 5.59313 0
M  V30 17077 H 2409.92 -5.47679 4.85214 0
M  V30 17078 H 2411.1 -2.89008 5.86566 0
M  V30 17079 H 2412.58 -4.0121 7.36511 0
M  V30 17080 H 2410.89 -5.80182 8.37584 0
M  V30 17081 H 2410.7 -3.73517 9.52265 0
M  V30 17082 H 2409.07 -3.97163 8.80359 0
M  V30 17083 H 2411.71 -4.90969 4.01921 0
M  V30 17084 P 2413.57 -5.75688 6.64379 0
M  V30 17085 O 2414.99 -6.11915 7.01921 0
M  V30 17086 O 2413.21 -4.30744 6.56026 0
M  V30 17087 O 2413.24 -6.37042 5.19165 0
M  V30 17088 C 2413.08 -7.83662 5.1657 0
M  V30 17089 C 2413.62 -8.33398 3.83019 0
M  V30 17090 O 2412.57 -8.0998 3.00999 0
M  V30 17091 C 2414.84 -7.65514 3.2257 0
M  V30 17092 O 2415.58 -8.4329 2.32297 0
M  V30 17093 C 2414.17 -6.40075 2.62207 0
M  V30 17094 O 2414.97 -5.92338 1.5428 0
M  V30 17095 C 2412.84 -6.9454 2.18503 0
M  V30 17096 N 2411.79 -5.95905 2.39948 0
M  V30 17097 C 2411.96 -4.98383 3.32108 0
M  V30 17098 N 2410.93 -4.16798 3.41761 0
M  V30 17099 C 2410.05 -4.65287 2.47461 0
M  V30 17100 C 2408.78 -4.18946 2.07461 0
M  V30 17101 N 2408.22 -4.95327 1.09101 0
M  V30 17102 C 2408.82 -6.04369 0.519812 0
M  V30 17103 N 2410 -6.50694 0.855982 0
M  V30 17104 C 2410.57 -5.75818 1.84322 0
M  V30 17105 H 2414.05 -5.60502 3.36589 0
M  V30 17106 H 2415.53 -7.35707 4.02681 0
M  V30 17107 H 2413.84 -9.41302 3.90009 0
M  V30 17108 H 2413.65 -8.29056 5.99158 0
M  V30 17109 H 2412.02 -8.10073 5.25882 0
M  V30 17110 H 2412.86 -4.88564 3.92502 0
M  V30 17111 H 2414.66 -6.30224 0.72668 0
M  V30 17112 P 2416.52 -8.4349 2.47671 0
M  V30 17113 O 2417.94 -8.94167 2.5964 0
M  V30 17114 O 2416.16 -7.1704 3.19006 0
M  V30 17115 O 2416.19 -8.16596 0.923387 0
M  V30 17116 C 2416.03 -9.38437 0.108857 0
M  V30 17117 C 2416.57 -9.08175 -1.28353 0
M  V30 17118 O 2415.52 -8.44229 -1.84713 0
M  V30 17119 C 2417.79 -8.18386 -1.42505 0
M  V30 17120 O 2418.53 -8.3501 -2.60497 0
M  V30 17121 C 2417.12 -6.80225 -1.25468 0
M  V30 17122 O 2417.92 -5.81621 -1.91066 0
M  V30 17123 C 2415.79 -7.02416 -1.9168 0
M  V30 17124 H 2415.82 -6.6888 -2.96621 0
M  V30 17125 H 2417 -6.53617 -0.192223 0
M  V30 17126 H 2418.48 -8.36622 -0.589963 0
M  V30 17127 H 2416.79 -10.0291 -1.79807 0
M  V30 17128 H 2416.6 -10.2138 0.558219 0
M  V30 17129 H 2414.97 -9.6579 0.0444202 0
M  V30 17130 H 2417.61 -5.69556 -2.79637 0
M  V30 17131 P 2419.47 -8.4349 -2.47671 0
M  V30 17132 O 2420.89 -8.92593 -2.65 0
M  V30 17133 O 2419.11 -7.7568 -1.19296 0
M  V30 17134 O 2419.14 -7.36886 -3.63805 0
M  V30 17135 C 2418.98 -7.95349 -4.982 0
M  V30 17136 C 2419.52 -6.94612 -5.98974 0
M  V30 17137 O 2418.47 -6.10347 -6.11815 0
M  V30 17138 C 2420.74 -6.11426 -5.62335 0
M  V30 17139 O 2421.48 -5.6162 -6.70584 0
M  V30 17140 C 2420.07 -5.04409 -4.73308 0
M  V30 17141 O 2420.87 -3.85992 -4.75183 0
M  V30 17142 C 2418.74 -4.8728 -5.41006 0
M  V30 17143 H 2418.77 -4.02333 -6.11157 0
M  V30 17144 H 2419.95 -5.39466 -3.69543 0
M  V30 17145 H 2421.44 -6.71916 -5.01943 0
M  V30 17146 H 2419.74 -7.4649 -6.93477 0
M  V30 17147 H 2419.55 -8.89416 -5.05237 0
M  V30 17148 H 2417.92 -8.14876 -5.18409 0
M  V30 17149 H 2420.56 -3.27957 -5.4317 0
M  V30 17150 P 2422.42 -5.75688 -6.64379 0
M  V30 17151 O 2423.84 -6.07627 -7.05504 0
M  V30 17152 O 2422.06 -5.88047 -5.19722 0
M  V30 17153 O 2422.09 -4.2322 -7.04443 0
M  V30 17154 C 2421.93 -3.99743 -8.4911 0
M  V30 17155 C 2422.47 -2.60516 -8.79425 0
M  V30 17156 O 2421.42 -1.82684 -8.4467 0
M  V30 17157 C 2423.69 -2.10343 -8.03628 0
M  V30 17158 O 2424.43 -1.09919 -8.67766 0
M  V30 17159 C 2423.02 -1.68446 -6.70876 0
M  V30 17160 O 2423.82 -0.678137 -6.08433 0
M  V30 17161 C 2421.69 -1.17436 -7.18567 0
M  V30 17162 H 2421.72 -0.0804732 -7.31656 0
M  V30 17163 H 2422.9 -2.54037 -6.02537 0
M  V30 17164 H 2424.39 -2.93881 -7.85526 0
M  V30 17165 H 2422.69 -2.53065 -9.86973 0
M  V30 17166 H 2422.5 -4.75072 -9.05887 0
M  V30 17167 H 2420.87 -4.05244 -8.76668 0
M  V30 17168 H 2423.51 0.177647 -6.34251 0
M  V30 17169 P 2425.37 -1.25109 -8.70152 0
M  V30 17170 O 2426.79 -1.29772 -9.22214 0
M  V30 17171 O 2425.01 -2.13714 -7.55141 0
M  V30 17172 O 2425.05 0.248149 -8.21425 0
M  V30 17173 C 2424.89 1.22779 -9.30434 0
M  V30 17174 C 2425.43 2.56265 -8.80568 0
M  V30 17175 O 2424.37 3.02979 -8.09349 0
M  V30 17176 C 2426.64 2.57523 -7.89775 0
M  V30 17177 O 2427.38 3.7668 -7.89438 0
M  V30 17178 C 2425.98 2.20997 -6.55446 0
M  V30 17179 O 2426.77 2.71851 -5.48419 0
M  V30 17180 C 2424.64 2.89693 -6.67988 0
M  V30 17181 N 2423.59 2.08895 -6.07487 0
M  V30 17182 C 2423.66 0.760559 -6.14209 0
M  V30 17183 N 2422.61 0.200108 -5.52538 0
M  V30 17184 C 2421.88 1.22692 -5.09742 0
M  V30 17185 C 2420.57 1.24782 -4.48775 0
M  V30 17186 O 2419.84 0.290617 -4.19294 0
M  V30 17187 N 2420.14 2.50468 -4.22428 0
M  V30 17188 C 2420.89 3.67142 -4.51974 0
M  V30 17189 N 2420.29 4.85096 -4.14091 0
M  V30 17190 N 2422.04 3.67821 -5.12831 0
M  V30 17191 C 2422.5 2.43698 -5.4105 0
M  V30 17192 H 2424.67 3.88793 -6.19859 0
M  V30 17193 H 2425.85 1.12029 -6.4413 0
M  V30 17194 H 2427.34 1.78279 -8.19533 0
M  V30 17195 H 2425.64 3.20706 -9.67112 0
M  V30 17196 H 2425.45 0.901032 -10.1892 0
M  V30 17197 H 2423.82 1.33049 -9.56592 0
M  V30 17198 H 2419.25 2.61953 -3.79465 0
M  V30 17199 H 2424.45 0.200439 -6.63497 0
M  V30 17200 H 2419.38 4.8334 -3.66367 0
M  V30 17201 H 2420.76 5.7474 -4.33841 0
M  V30 17202 H 2426.46 3.5779 -5.23879 0
M  V30 17203 P 2428.32 3.65191 -7.99657 0
M  V30 17204 O 2429.74 3.89332 -8.45794 0
M  V30 17205 O 2427.96 2.28472 -7.50807 0
M  V30 17206 O 2428 4.64972 -6.77611 0
M  V30 17207 C 2427.84 6.06319 -7.16352 0
M  V30 17208 C 2428.38 6.91731 -6.02299 0
M  V30 17209 O 2427.32 6.92449 -5.17064 0
M  V30 17210 C 2429.59 6.43627 -5.25174 0
M  V30 17211 O 2430.33 7.43686 -4.60469 0
M  V30 17212 C 2428.93 5.40275 -4.31916 0
M  V30 17213 O 2429.72 5.25279 -3.14438 0
M  V30 17214 C 2427.59 6.04847 -4.05327 0
M  V30 17215 H 2427.62 6.62195 -3.11261 0
M  V30 17216 H 2428.8 4.42556 -4.81383 0
M  V30 17217 H 2430.29 5.92458 -5.93643 0
M  V30 17218 H 2428.59 7.92655 -6.402 0
M  V30 17219 H 2428.4 6.26671 -8.0846 0
M  V30 17220 H 2426.77 6.29101 -7.32804 0
M  V30 17221 H 2429.41 5.84315 -2.47318 0
M  V30 17222 P 2431.27 7.39546 -4.75277 0
M  V30 17223 O 2432.69 7.84798 -5.01039 0
M  V30 17224 O 2430.91 5.9812 -5.08098 0
M  V30 17225 O 2430.95 7.57503 -3.1866 0
M  V30 17226 C 2430.79 8.97357 -2.74833 0
M  V30 17227 C 2431.33 9.07548 -1.32709 0
M  V30 17228 O 2430.27 8.62072 -0.606159 0
M  V30 17229 C 2432.54 8.25383 -0.938334 0
M  V30 17230 O 2433.28 8.74577 0.146954 0
M  V30 17231 C 2431.88 6.8802 -0.712559 0
M  V30 17232 O 2432.67 6.1189 0.194655 0
M  V30 17233 C 2430.54 7.27966 -0.139777 0
M  V30 17234 H 2430.57 7.25354 0.961601 0
M  V30 17235 H 2431.75 6.32557 -1.65702 0
M  V30 17236 H 2433.24 8.19355 -1.79097 0
M  V30 17237 H 2431.54 10.1294 -1.10029 0
M  V30 17238 H 2431.35 9.64276 -3.41316 0
M  V30 17239 H 2429.72 9.25417 -2.76357 0
M  V30 17240 H 2432.36 6.25267 1.07847 0
M  V30 17241 P 2434.22 8.791 2.12636e-11 0
M  V30 17242 O 2435.64 9.31096 0.027933 0
M  V30 17243 O 2433.86 7.77869 -1.04071 0
M  V30 17244 O 2433.9 8.09533 1.41463 0
M  V30 17245 C 2433.74 9.0349 2.53943 0
M  V30 17246 C 2434.28 8.35226 3.79016 0
M  V30 17247 O 2433.22 7.57992 4.15078 0
M  V30 17248 C 2435.5 7.45087 3.67298 0
M  V30 17249 O 2436.23 7.27796 4.85194 0
M  V30 17250 C 2434.83 6.17323 3.12027 0
M  V30 17251 O 2435.63 5.04231 3.47188 0
M  V30 17252 C 2433.49 6.19961 3.81809 0
M  V30 17253 H 2433.52 5.58218 4.73051 0
M  V30 17254 H 2434.7 6.21726 2.02589 0
M  V30 17255 H 2436.19 7.86112 2.9231 0
M  V30 17256 H 2434.49 9.11627 4.55076 0
M  V30 17257 H 2434.3 9.9573 2.34194 0
M  V30 17258 H 2432.67 9.2792 2.67832 0
M  V30 17259 H 2435.31 4.67702 4.28772 0
M  V30 17260 P 2437.17 7.39546 4.75277 0
M  V30 17261 O 2438.59 7.81777 5.05738 0
M  V30 17262 O 2436.81 7.1065 3.32998 0
M  V30 17263 O 2436.85 6.04542 5.56673 0
M  V30 17264 C 2436.69 6.22772 7.02095 0
M  V30 17265 C 2437.23 4.97725 7.70406 0
M  V30 17266 O 2436.17 4.13256 7.58987 0
M  V30 17267 C 2438.45 4.28231 7.11815 0
M  V30 17268 O 2439.18 3.49945 8.01648 0
M  V30 17269 C 2437.78 3.5063 5.96244 0
M  V30 17270 O 2438.58 2.36482 5.64681 0
M  V30 17271 C 2436.44 3.15122 6.56374 0
M  V30 17272 H 2436.47 2.13853 6.99751 0
M  V30 17273 H 2437.65 4.13501 5.06559 0
M  V30 17274 H 2439.14 5.03285 6.70911 0
M  V30 17275 H 2437.44 5.20877 8.75697 0
M  V30 17276 H 2437.25 7.11046 7.35349 0
M  V30 17277 H 2435.62 6.35815 7.26986 0
M  V30 17278 H 2438.26 1.61644 6.13565 0
M  V30 17279 P 2440.12 3.65191 7.99657 0
M  V30 17280 O 2441.54 3.84333 8.48297 0
M  V30 17281 O 2439.76 4.17805 6.64342 0
M  V30 17282 O 2439.8 2.07613 7.95143 0
M  V30 17283 C 2439.64 1.44328 9.27336 0
M  V30 17284 C 2440.18 0.0220012 9.17097 0
M  V30 17285 O 2439.12 -0.626867 8.61923 0
M  V30 17286 C 2441.4 -0.24586 8.30336 0
M  V30 17287 O 2442.13 -1.39011 8.63583 0
M  V30 17288 C 2440.73 -0.273849 6.91158 0
M  V30 17289 O 2441.53 -1.06331 6.02794 0
M  V30 17290 C 2439.39 -0.897649 7.22545 0
M  V30 17291 N 2438.35 -0.292839 6.41732 0
M  V30 17292 C 2438.41 1.00068 6.10757 0
M  V30 17293 N 2437.36 1.36468 5.35794 0
M  V30 17294 C 2436.63 0.258894 5.2366 0
M  V30 17295 C 2435.32 0.0670682 4.65752 0
M  V30 17296 O 2434.59 0.902443 4.10497 0
M  V30 17297 N 2434.89 -1.2131 4.75881 0
M  V30 17298 C 2435.64 -2.24934 5.37101 0
M  V30 17299 N 2435.05 -3.48783 5.33984 0
M  V30 17300 N 2436.8 -2.0844 5.95684 0
M  V30 17301 C 2437.25 -0.81395 5.87791 0
M  V30 17302 H 2439.42 -1.9841 7.04286 0
M  V30 17303 H 2440.61 0.739815 6.49601 0
M  V30 17304 H 2442.09 0.598315 8.36563 0
M  V30 17305 H 2440.4 -0.352479 10.1829 0
M  V30 17306 H 2440.21 2.00611 10.0304 0
M  V30 17307 H 2438.57 1.41843 9.55327 0
M  V30 17308 H 2434 -1.44434 4.37895 0
M  V30 17309 H 2439.21 1.67697 6.42268 0
M  V30 17310 H 2434.14 -3.60543 4.87699 0
M  V30 17311 H 2435.51 -4.29232 5.7819 0
M  V30 17312 H 2441.22 -1.95704 6.0346 0
M  V30 17313 P 2443.07 -1.25109 8.70152 0
M  V30 17314 O 2444.49 -1.35274 9.21221 0
M  V30 17315 O 2442.71 -0.0769065 7.84762 0
M  V30 17316 O 2442.75 -2.55232 7.81161 0
M  V30 17317 C 2442.59 -3.79939 8.58154 0
M  V30 17318 C 2443.13 -4.94023 7.72785 0
M  V30 17319 O 2442.07 -5.18726 6.91205 0
M  V30 17320 C 2444.35 -4.69597 6.85231 0
M  V30 17321 O 2445.08 -5.83832 6.51337 0
M  V30 17322 C 2443.68 -3.96706 5.66633 0
M  V30 17323 O 2444.48 -4.15414 4.49689 0
M  V30 17324 C 2442.34 -4.66153 5.59313 0
M  V30 17325 H 2442.37 -5.47679 4.85214 0
M  V30 17326 H 2443.56 -2.89008 5.86566 0
M  V30 17327 H 2445.04 -4.0121 7.36511 0
M  V30 17328 H 2443.35 -5.80182 8.37584 0
M  V30 17329 H 2443.16 -3.73517 9.52265 0
M  V30 17330 H 2441.53 -3.97163 8.80359 0
M  V30 17331 H 2444.16 -4.90969 4.01921 0
M  V30 17332 P 2446.02 -5.75688 6.64379 0
M  V30 17333 O 2447.44 -6.11849 7.01846 0
M  V30 17334 O 2445.66 -4.30744 6.56026 0
M  V30 17335 O 2445.7 -6.37042 5.19165 0
M  V30 17336 C 2445.54 -7.83578 5.16515 0
M  V30 17337 C 2446.08 -8.33398 3.83019 0
M  V30 17338 O 2445.02 -8.10074 3.01034 0
M  V30 17339 C 2447.3 -7.65514 3.2257 0
M  V30 17340 O 2448.04 -8.4329 2.32297 0
M  V30 17341 C 2446.63 -6.40075 2.62207 0
M  V30 17342 O 2447.43 -5.92589 1.53712 0
M  V30 17343 C 2445.29 -6.9454 2.18503 0
M  V30 17344 H 2445.32 -7.23063 1.12091 0
M  V30 17345 H 2446.51 -5.6025 3.37201 0
M  V30 17346 H 2447.99 -7.35707 4.02681 0
M  V30 17347 H 2446.3 -9.40912 3.9095 0
M  V30 17348 H 2446.11 -8.29056 5.99158 0
M  V30 17349 H 2444.48 -8.10073 5.25882 0
M  V30 17350 H 2447.12 -6.30324 0.726794 0
M  V30 17351 P 2448.97 -8.4349 2.47671 0
M  V30 17352 O 2450.37 -8.98227 2.65696 0
M  V30 17353 O 2448.6 -7.20409 3.23964 0
M  V30 17354 O 2448.65 -8.16496 0.923275 0
M  V30 17355 C 2448.49 -9.38437 0.108857 0
M  V30 17356 C 2449.03 -9.08076 -1.28339 0
M  V30 17357 O 2447.97 -8.44131 -1.84692 0
M  V30 17358 C 2450.25 -8.18386 -1.42505 0
M  V30 17359 O 2450.99 -8.3501 -2.60497 0
M  V30 17360 C 2449.58 -6.80225 -1.25468 0
M  V30 17361 O 2450.38 -5.81526 -1.91035 0
M  V30 17362 C 2448.24 -7.02416 -1.9168 0
M  V30 17363 N 2447.2 -6.31033 -1.20314 0
M  V30 17364 C 2446.16 -5.77149 -1.928 0
M  V30 17365 O 2446.2 -5.8521 -3.17729 0
M  V30 17366 N 2445.15 -5.15445 -1.27997 0
M  V30 17367 C 2445.2 -5.04472 0.0534726 0
M  V30 17368 C 2446.3 -5.55244 0.808522 0
M  V30 17369 C 2447.26 -6.18542 0.13981 0
M  V30 17370 H 2448.27 -6.68789 -2.9658 0
M  V30 17371 H 2449.46 -6.53498 -0.198729 0
M  V30 17372 H 2450.94 -8.36663 -0.5984 0
M  V30 17373 H 2449.25 -10.0273 -1.8081 0
M  V30 17374 H 2449.06 -10.2138 0.558219 0
M  V30 17375 H 2447.43 -9.6569 0.0444156 0
M  V30 17376 H 2446.34 -5.43017 1.88792 0
M  V30 17377 H 2448.11 -6.60539 0.686773 0
M  V30 17378 H 2450.16 -5.79638 -2.8315 0
M  V30 17379 P 2451.92 -8.4349 -2.47671 0
M  V30 17380 O 2453.35 -8.92593 -2.65 0
M  V30 17381 O 2451.56 -7.7568 -1.19296 0
M  V30 17382 O 2451.6 -7.36886 -3.63805 0
M  V30 17383 C 2451.44 -7.95349 -4.982 0
M  V30 17384 C 2451.98 -6.94612 -5.98974 0
M  V30 17385 O 2450.92 -6.10347 -6.11815 0
M  V30 17386 C 2453.2 -6.11426 -5.62335 0
M  V30 17387 O 2453.94 -5.6162 -6.70584 0
M  V30 17388 C 2452.53 -5.04409 -4.73308 0
M  V30 17389 O 2453.33 -3.85992 -4.75183 0
M  V30 17390 C 2451.19 -4.8728 -5.41006 0
M  V30 17391 H 2451.22 -4.02333 -6.11157 0
M  V30 17392 H 2452.41 -5.39466 -3.69543 0
M  V30 17393 H 2453.89 -6.71916 -5.01943 0
M  V30 17394 H 2452.2 -7.4649 -6.93477 0
M  V30 17395 H 2452.01 -8.89416 -5.05237 0
M  V30 17396 H 2450.38 -8.14876 -5.18409 0
M  V30 17397 H 2453.02 -3.27957 -5.4317 0
M  V30 17398 P 2454.87 -5.75688 -6.64379 0
M  V30 17399 O 2456.3 -6.07627 -7.05504 0
M  V30 17400 O 2454.51 -5.88047 -5.19722 0
M  V30 17401 O 2454.55 -4.2322 -7.04443 0
M  V30 17402 C 2454.39 -3.99743 -8.4911 0
M  V30 17403 C 2454.93 -2.60516 -8.79425 0
M  V30 17404 O 2453.88 -1.82684 -8.4467 0
M  V30 17405 C 2456.15 -2.10343 -8.03628 0
M  V30 17406 O 2456.89 -1.09919 -8.67766 0
M  V30 17407 C 2455.48 -1.68446 -6.70876 0
M  V30 17408 O 2456.28 -0.678137 -6.08433 0
M  V30 17409 C 2454.14 -1.17436 -7.18567 0
M  V30 17410 H 2454.18 -0.0804732 -7.31656 0
M  V30 17411 H 2455.36 -2.54037 -6.02537 0
M  V30 17412 H 2456.84 -2.93881 -7.85526 0
M  V30 17413 H 2455.15 -2.53065 -9.86973 0
M  V30 17414 H 2454.96 -4.75072 -9.05887 0
M  V30 17415 H 2453.33 -4.05244 -8.76668 0
M  V30 17416 H 2455.97 0.177647 -6.34251 0
M  V30 17417 P 2457.82 -1.25109 -8.70152 0
M  V30 17418 O 2459.25 -1.29744 -9.22016 0
M  V30 17419 O 2457.46 -2.13714 -7.55141 0
M  V30 17420 O 2457.5 0.248149 -8.21425 0
M  V30 17421 C 2457.34 1.22779 -9.30434 0
M  V30 17422 C 2457.88 2.56293 -8.80664 0
M  V30 17423 O 2456.83 3.02979 -8.09349 0
M  V30 17424 C 2459.1 2.57523 -7.89775 0
M  V30 17425 O 2459.84 3.7668 -7.89438 0
M  V30 17426 C 2458.43 2.20997 -6.55446 0
M  V30 17427 O 2459.23 2.71895 -5.48509 0
M  V30 17428 C 2457.09 2.89693 -6.67988 0
M  V30 17429 H 2457.13 3.88793 -6.19859 0
M  V30 17430 H 2458.31 1.12046 -6.44229 0
M  V30 17431 H 2459.79 1.7746 -8.19711 0
M  V30 17432 H 2458.1 3.20706 -9.67112 0
M  V30 17433 H 2457.91 0.901032 -10.1892 0
M  V30 17434 H 2456.28 1.33049 -9.56592 0
M  V30 17435 H 2458.92 3.57847 -5.23962 0
M  V30 17436 P 2460.78 3.65191 -7.99657 0
M  V30 17437 O 2462.2 3.89332 -8.45794 0
M  V30 17438 O 2460.42 2.28472 -7.50807 0
M  V30 17439 O 2460.45 4.64972 -6.77611 0
M  V30 17440 C 2460.29 6.06319 -7.16352 0
M  V30 17441 C 2460.83 6.91731 -6.02299 0
M  V30 17442 O 2459.78 6.92449 -5.17064 0
M  V30 17443 C 2462.05 6.43627 -5.25174 0
M  V30 17444 O 2462.79 7.43686 -4.60469 0
M  V30 17445 C 2461.38 5.40275 -4.31916 0
M  V30 17446 O 2462.18 5.25279 -3.14438 0
M  V30 17447 C 2460.04 6.04847 -4.05327 0
M  V30 17448 H 2460.08 6.62195 -3.11261 0
M  V30 17449 H 2461.26 4.42556 -4.81383 0
M  V30 17450 H 2462.74 5.92458 -5.93643 0
M  V30 17451 H 2461.05 7.92655 -6.402 0
M  V30 17452 H 2460.86 6.26671 -8.0846 0
M  V30 17453 H 2459.23 6.29101 -7.32804 0
M  V30 17454 H 2461.87 5.84315 -2.47318 0
M  V30 17455 P 2463.73 7.39546 -4.75277 0
M  V30 17456 O 2465.15 7.84798 -5.01039 0
M  V30 17457 O 2463.37 5.9812 -5.08098 0
M  V30 17458 O 2463.4 7.57503 -3.1866 0
M  V30 17459 C 2463.24 8.97357 -2.74833 0
M  V30 17460 C 2463.78 9.07548 -1.32709 0
M  V30 17461 O 2462.73 8.62072 -0.606159 0
M  V30 17462 C 2465 8.25383 -0.938334 0
M  V30 17463 O 2465.74 8.74577 0.146954 0
M  V30 17464 C 2464.33 6.8802 -0.712559 0
M  V30 17465 O 2465.13 6.1189 0.194655 0
M  V30 17466 C 2462.99 7.27966 -0.139777 0
M  V30 17467 H 2463.03 7.25354 0.961601 0
M  V30 17468 H 2464.21 6.32557 -1.65702 0
M  V30 17469 H 2465.69 8.19355 -1.79097 0
M  V30 17470 H 2464 10.1294 -1.10029 0
M  V30 17471 H 2463.81 9.64276 -3.41316 0
M  V30 17472 H 2462.18 9.25417 -2.76357 0
M  V30 17473 H 2464.82 6.25267 1.07847 0
M  V30 17474 P 2466.68 8.791 2.15738e-11 0
M  V30 17475 O 2468.1 9.31096 0.027933 0
M  V30 17476 O 2466.32 7.77869 -1.04071 0
M  V30 17477 O 2466.35 8.09533 1.41463 0
M  V30 17478 C 2466.19 9.0349 2.53943 0
M  V30 17479 C 2466.73 8.35226 3.79016 0
M  V30 17480 O 2465.68 7.57992 4.15078 0
M  V30 17481 C 2467.95 7.45087 3.67298 0
M  V30 17482 O 2468.69 7.27796 4.85194 0
M  V30 17483 C 2467.28 6.17323 3.12027 0
M  V30 17484 O 2468.08 5.04231 3.47188 0
M  V30 17485 C 2465.95 6.19961 3.81809 0
M  V30 17486 H 2465.98 5.58218 4.73051 0
M  V30 17487 H 2467.16 6.21726 2.02589 0
M  V30 17488 H 2468.64 7.86112 2.9231 0
M  V30 17489 H 2466.95 9.11627 4.55076 0
M  V30 17490 H 2466.76 9.9573 2.34194 0
M  V30 17491 H 2465.13 9.2792 2.67832 0
M  V30 17492 H 2467.77 4.67702 4.28772 0
M  V30 17493 P 2469.63 7.39546 4.75277 0
M  V30 17494 O 2471.05 7.81861 5.05793 0
M  V30 17495 O 2469.27 7.1065 3.32998 0
M  V30 17496 O 2469.3 6.04542 5.56673 0
M  V30 17497 C 2469.14 6.22839 7.02169 0
M  V30 17498 C 2469.68 4.97725 7.70406 0
M  V30 17499 O 2468.63 4.13208 7.58899 0
M  V30 17500 C 2470.9 4.28231 7.11815 0
M  V30 17501 O 2471.64 3.49945 8.01648 0
M  V30 17502 C 2470.23 3.5063 5.96244 0
M  V30 17503 O 2471.03 2.37008 5.64352 0
M  V30 17504 C 2468.9 3.15122 6.56374 0
M  V30 17505 N 2467.85 3.22311 5.55692 0
M  V30 17506 C 2468.02 3.99655 4.46046 0
M  V30 17507 N 2467 3.97599 3.63918 0
M  V30 17508 C 2466.11 3.11159 4.25334 0
M  V30 17509 C 2464.84 2.64972 3.85157 0
M  V30 17510 N 2464.28 1.78482 4.74759 0
M  V30 17511 C 2464.88 1.37463 5.90819 0
M  V30 17512 N 2466.06 1.7733 6.31889 0
M  V30 17513 C 2466.63 2.64393 5.43725 0
M  V30 17514 H 2470.11 4.12931 5.06895 0
M  V30 17515 H 2471.59 5.03285 6.70911 0
M  V30 17516 H 2469.9 5.20001 8.76217 0
M  V30 17517 H 2469.71 7.11046 7.35349 0
M  V30 17518 H 2468.08 6.35815 7.26986 0
M  V30 17519 H 2468.92 4.58037 4.27732 0
M  V30 17520 H 2470.72 1.61619 6.13468 0
M  V30 17521 P 2472.58 3.65191 7.99657 0
M  V30 17522 O 2474 3.8425 8.48115 0
M  V30 17523 O 2472.22 4.17805 6.64342 0
M  V30 17524 O 2472.25 2.07613 7.95143 0
M  V30 17525 C 2472.09 1.44328 9.27336 0
M  V30 17526 C 2472.63 0.0220036 9.17197 0
M  V30 17527 O 2471.58 -0.626867 8.61923 0
M  V30 17528 C 2473.85 -0.24586 8.30336 0
M  V30 17529 O 2474.59 -1.39011 8.63583 0
M  V30 17530 C 2473.18 -0.273849 6.91158 0
M  V30 17531 O 2473.98 -1.06348 6.02892 0
M  V30 17532 C 2471.85 -0.897649 7.22545 0
M  V30 17533 H 2471.88 -1.9841 7.04286 0
M  V30 17534 H 2473.06 0.739928 6.497 0
M  V30 17535 H 2474.55 0.60668 8.36503 0
M  V30 17536 H 2472.85 -0.352479 10.1829 0
M  V30 17537 H 2472.66 2.00611 10.0304 0
M  V30 17538 H 2471.03 1.41843 9.55327 0
M  V30 17539 H 2473.67 -1.95734 6.03555 0
M  V30 17540 P 2475.53 -1.25109 8.70152 0
M  V30 17541 O 2476.95 -1.35274 9.21221 0
M  V30 17542 O 2475.17 -0.0769065 7.84762 0
M  V30 17543 O 2475.21 -2.55232 7.81161 0
M  V30 17544 C 2475.05 -3.79939 8.58154 0
M  V30 17545 C 2475.59 -4.94023 7.72785 0
M  V30 17546 O 2474.53 -5.18726 6.91205 0
M  V30 17547 C 2476.8 -4.69597 6.85231 0
M  V30 17548 O 2477.54 -5.83832 6.51337 0
M  V30 17549 C 2476.13 -3.96706 5.66633 0
M  V30 17550 O 2476.93 -4.15414 4.49689 0
M  V30 17551 C 2474.8 -4.66153 5.59313 0
M  V30 17552 H 2474.83 -5.47679 4.85214 0
M  V30 17553 H 2476.01 -2.89008 5.86566 0
M  V30 17554 H 2477.5 -4.0121 7.36511 0
M  V30 17555 H 2475.8 -5.80182 8.37584 0
M  V30 17556 H 2475.61 -3.73517 9.52265 0
M  V30 17557 H 2473.98 -3.97163 8.80359 0
M  V30 17558 H 2476.62 -4.90969 4.01921 0
M  V30 17559 P 2478.48 -5.75688 6.64379 0
M  V30 17560 O 2479.9 -6.11849 7.01846 0
M  V30 17561 O 2478.12 -4.30744 6.56026 0
M  V30 17562 O 2478.16 -6.37042 5.19165 0
M  V30 17563 C 2478 -7.83578 5.16515 0
M  V30 17564 C 2478.54 -8.33398 3.83019 0
M  V30 17565 O 2477.48 -8.10074 3.01034 0
M  V30 17566 C 2479.75 -7.65514 3.2257 0
M  V30 17567 O 2480.49 -8.4329 2.32297 0
M  V30 17568 C 2479.08 -6.40075 2.62207 0
M  V30 17569 O 2479.88 -5.92589 1.53712 0
M  V30 17570 C 2477.75 -6.9454 2.18503 0
M  V30 17571 H 2477.78 -7.23063 1.12091 0
M  V30 17572 H 2478.96 -5.6025 3.37201 0
M  V30 17573 H 2480.45 -7.35707 4.02681 0
M  V30 17574 H 2478.75 -9.40912 3.9095 0
M  V30 17575 H 2478.56 -8.29056 5.99158 0
M  V30 17576 H 2476.93 -8.10073 5.25882 0
M  V30 17577 H 2479.57 -6.30324 0.726794 0
M  V30 17578 P 2481.43 -8.4349 2.47671 0
M  V30 17579 O 2482.85 -8.94167 2.5964 0
M  V30 17580 O 2481.07 -7.1704 3.19006 0
M  V30 17581 O 2481.11 -8.16596 0.923387 0
M  V30 17582 C 2480.95 -9.38437 0.108857 0
M  V30 17583 C 2481.49 -9.08175 -1.28353 0
M  V30 17584 O 2480.43 -8.44229 -1.84713 0
M  V30 17585 C 2482.7 -8.18386 -1.42505 0
M  V30 17586 O 2483.44 -8.3501 -2.60497 0
M  V30 17587 C 2482.04 -6.80225 -1.25468 0
M  V30 17588 O 2482.83 -5.81621 -1.91066 0
M  V30 17589 C 2480.7 -7.02416 -1.9168 0
M  V30 17590 H 2480.73 -6.6888 -2.96621 0
M  V30 17591 H 2481.91 -6.53617 -0.192223 0
M  V30 17592 H 2483.4 -8.36622 -0.589963 0
M  V30 17593 H 2481.7 -10.0291 -1.79807 0
M  V30 17594 H 2481.51 -10.2138 0.558219 0
M  V30 17595 H 2479.88 -9.6579 0.0444202 0
M  V30 17596 H 2482.52 -5.69556 -2.79637 0
M  V30 17597 P 2484.38 -8.4349 -2.47671 0
M  V30 17598 O 2485.8 -8.92593 -2.65 0
M  V30 17599 O 2484.02 -7.7568 -1.19296 0
M  V30 17600 O 2484.06 -7.36886 -3.63805 0
M  V30 17601 C 2483.9 -7.95349 -4.982 0
M  V30 17602 C 2484.44 -6.94612 -5.98974 0
M  V30 17603 O 2483.38 -6.10347 -6.11815 0
M  V30 17604 C 2485.65 -6.11426 -5.62335 0
M  V30 17605 O 2486.39 -5.6162 -6.70584 0
M  V30 17606 C 2484.99 -5.04409 -4.73308 0
M  V30 17607 O 2485.78 -3.85992 -4.75183 0
M  V30 17608 C 2483.65 -4.8728 -5.41006 0
M  V30 17609 H 2483.68 -4.02333 -6.11157 0
M  V30 17610 H 2484.86 -5.39466 -3.69543 0
M  V30 17611 H 2486.35 -6.71916 -5.01943 0
M  V30 17612 H 2484.65 -7.4649 -6.93477 0
M  V30 17613 H 2484.46 -8.89416 -5.05237 0
M  V30 17614 H 2482.83 -8.14876 -5.18409 0
M  V30 17615 H 2485.47 -3.27957 -5.4317 0
M  V30 17616 P 2487.33 -5.75688 -6.64379 0
M  V30 17617 O 2488.75 -6.07627 -7.05504 0
M  V30 17618 O 2486.97 -5.88047 -5.19722 0
M  V30 17619 O 2487.01 -4.2322 -7.04443 0
M  V30 17620 C 2486.85 -3.99743 -8.4911 0
M  V30 17621 C 2487.39 -2.60516 -8.79425 0
M  V30 17622 O 2486.33 -1.82684 -8.4467 0
M  V30 17623 C 2488.61 -2.10343 -8.03628 0
M  V30 17624 O 2489.34 -1.09919 -8.67766 0
M  V30 17625 C 2487.94 -1.68446 -6.70876 0
M  V30 17626 O 2488.74 -0.678137 -6.08433 0
M  V30 17627 C 2486.6 -1.17436 -7.18567 0
M  V30 17628 H 2486.63 -0.0804732 -7.31656 0
M  V30 17629 H 2487.81 -2.54037 -6.02537 0
M  V30 17630 H 2489.3 -2.93881 -7.85526 0
M  V30 17631 H 2487.6 -2.53065 -9.86973 0
M  V30 17632 H 2487.41 -4.75072 -9.05887 0
M  V30 17633 H 2485.78 -4.05244 -8.76668 0
M  V30 17634 H 2488.42 0.177647 -6.34251 0
M  V30 17635 P 2490.28 -1.25109 -8.70152 0
M  V30 17636 O 2491.7 -1.29744 -9.22016 0
M  V30 17637 O 2489.92 -2.13714 -7.55141 0
M  V30 17638 O 2489.96 0.248149 -8.21425 0
M  V30 17639 C 2489.8 1.22779 -9.30434 0
M  V30 17640 C 2490.34 2.56293 -8.80664 0
M  V30 17641 O 2489.28 3.02979 -8.09349 0
M  V30 17642 C 2491.56 2.57523 -7.89775 0
M  V30 17643 O 2492.29 3.7668 -7.89438 0
M  V30 17644 C 2490.89 2.20997 -6.55446 0
M  V30 17645 O 2491.69 2.71895 -5.48509 0
M  V30 17646 C 2489.55 2.89693 -6.67988 0
M  V30 17647 H 2489.58 3.88793 -6.19859 0
M  V30 17648 H 2490.77 1.12046 -6.44229 0
M  V30 17649 H 2492.25 1.7746 -8.19711 0
M  V30 17650 H 2490.56 3.20706 -9.67112 0
M  V30 17651 H 2490.37 0.901032 -10.1892 0
M  V30 17652 H 2488.74 1.33049 -9.56592 0
M  V30 17653 H 2491.37 3.57847 -5.23962 0
M  V30 17654 P 2493.23 3.65191 -7.99657 0
M  V30 17655 O 2494.65 3.89332 -8.45794 0
M  V30 17656 O 2492.87 2.28472 -7.50807 0
M  V30 17657 O 2492.91 4.64972 -6.77611 0
M  V30 17658 C 2492.75 6.06319 -7.16352 0
M  V30 17659 C 2493.29 6.91731 -6.02299 0
M  V30 17660 O 2492.23 6.92449 -5.17064 0
M  V30 17661 C 2494.51 6.43627 -5.25174 0
M  V30 17662 O 2495.24 7.43686 -4.60469 0
M  V30 17663 C 2493.84 5.40275 -4.31916 0
M  V30 17664 O 2494.64 5.25279 -3.14438 0
M  V30 17665 C 2492.5 6.04847 -4.05327 0
M  V30 17666 H 2492.53 6.62195 -3.11261 0
M  V30 17667 H 2493.72 4.42556 -4.81383 0
M  V30 17668 H 2495.2 5.92458 -5.93643 0
M  V30 17669 H 2493.51 7.92655 -6.402 0
M  V30 17670 H 2493.32 6.26671 -8.0846 0
M  V30 17671 H 2491.69 6.29101 -7.32804 0
M  V30 17672 H 2494.32 5.84315 -2.47318 0
M  V30 17673 P 2496.18 7.39546 -4.75277 0
M  V30 17674 O 2497.6 7.84798 -5.01039 0
M  V30 17675 O 2495.82 5.9812 -5.08098 0
M  V30 17676 O 2495.86 7.57503 -3.1866 0
M  V30 17677 C 2495.7 8.97357 -2.74833 0
M  V30 17678 C 2496.24 9.07548 -1.32709 0
M  V30 17679 O 2495.18 8.62072 -0.606159 0
M  V30 17680 C 2497.46 8.25383 -0.938334 0
M  V30 17681 O 2498.2 8.74577 0.146954 0
M  V30 17682 C 2496.79 6.8802 -0.712559 0
M  V30 17683 O 2497.59 6.1189 0.194655 0
M  V30 17684 C 2495.45 7.27966 -0.139777 0
M  V30 17685 H 2495.48 7.25354 0.961601 0
M  V30 17686 H 2496.67 6.32557 -1.65702 0
M  V30 17687 H 2498.15 8.19355 -1.79097 0
M  V30 17688 H 2496.46 10.1294 -1.10029 0
M  V30 17689 H 2496.27 9.64276 -3.41316 0
M  V30 17690 H 2494.64 9.25417 -2.76357 0
M  V30 17691 H 2497.28 6.25267 1.07847 0
M  V30 17692 P 2499.13 8.791 2.18839e-11 0
M  V30 17693 O 2500.55 9.31096 0.027933 0
M  V30 17694 O 2498.77 7.77869 -1.04071 0
M  V30 17695 O 2498.81 8.09533 1.41463 0
M  V30 17696 C 2498.65 9.0349 2.53943 0
M  V30 17697 C 2499.19 8.35226 3.79016 0
M  V30 17698 O 2498.13 7.57992 4.15078 0
M  V30 17699 C 2500.41 7.45087 3.67298 0
M  V30 17700 O 2501.15 7.27796 4.85194 0
M  V30 17701 C 2499.74 6.17323 3.12027 0
M  V30 17702 O 2500.54 5.04231 3.47188 0
M  V30 17703 C 2498.4 6.19961 3.81809 0
M  V30 17704 H 2498.43 5.58218 4.73051 0
M  V30 17705 H 2499.62 6.21726 2.02589 0
M  V30 17706 H 2501.1 7.86112 2.9231 0
M  V30 17707 H 2499.41 9.11627 4.55076 0
M  V30 17708 H 2499.22 9.9573 2.34194 0
M  V30 17709 H 2497.59 9.2792 2.67832 0
M  V30 17710 H 2500.23 4.67702 4.28772 0
M  V30 17711 P 2502.08 7.39546 4.75277 0
M  V30 17712 O 2503.51 7.81777 5.05738 0
M  V30 17713 O 2501.72 7.1065 3.32998 0
M  V30 17714 O 2501.76 6.04542 5.56673 0
M  V30 17715 C 2501.6 6.22772 7.02095 0
M  V30 17716 C 2502.14 4.97725 7.70406 0
M  V30 17717 O 2501.08 4.13256 7.58987 0
M  V30 17718 C 2503.36 4.28231 7.11815 0
M  V30 17719 O 2504.1 3.49945 8.01648 0
M  V30 17720 C 2502.69 3.5063 5.96244 0
M  V30 17721 O 2503.49 2.36482 5.64681 0
M  V30 17722 C 2501.35 3.15122 6.56374 0
M  V30 17723 H 2501.38 2.13853 6.99751 0
M  V30 17724 H 2502.57 4.13501 5.06559 0
M  V30 17725 H 2504.05 5.03285 6.70911 0
M  V30 17726 H 2502.36 5.20877 8.75697 0
M  V30 17727 H 2502.17 7.11046 7.35349 0
M  V30 17728 H 2500.54 6.35815 7.26986 0
M  V30 17729 H 2503.18 1.61644 6.13565 0
M  V30 17730 P 2505.03 3.65191 7.99657 0
M  V30 17731 O 2506.46 3.8425 8.48115 0
M  V30 17732 O 2504.67 4.17805 6.64342 0
M  V30 17733 O 2504.71 2.07613 7.95143 0
M  V30 17734 C 2504.55 1.44328 9.27336 0
M  V30 17735 C 2505.09 0.0220036 9.17197 0
M  V30 17736 O 2504.03 -0.626867 8.61923 0
M  V30 17737 C 2506.31 -0.24586 8.30336 0
M  V30 17738 O 2507.05 -1.39011 8.63583 0
M  V30 17739 C 2505.64 -0.273849 6.91158 0
M  V30 17740 O 2506.44 -1.06348 6.02892 0
M  V30 17741 C 2504.3 -0.897649 7.22545 0
M  V30 17742 H 2504.33 -1.9841 7.04286 0
M  V30 17743 H 2505.52 0.739928 6.497 0
M  V30 17744 H 2507 0.60668 8.36503 0
M  V30 17745 H 2505.31 -0.352479 10.1829 0
M  V30 17746 H 2505.12 2.00611 10.0304 0
M  V30 17747 H 2503.49 1.41843 9.55327 0
M  V30 17748 H 2506.13 -1.95734 6.03555 0
M  V30 17749 P 2507.98 -1.25109 8.70152 0
M  V30 17750 O 2509.41 -1.35274 9.21221 0
M  V30 17751 O 2507.62 -0.0769065 7.84762 0
M  V30 17752 O 2507.66 -2.55232 7.81161 0
M  V30 17753 C 2507.5 -3.79939 8.58154 0
M  V30 17754 C 2508.04 -4.94023 7.72785 0
M  V30 17755 O 2506.99 -5.18726 6.91205 0
M  V30 17756 C 2509.26 -4.69597 6.85231 0
M  V30 17757 O 2510 -5.83832 6.51337 0
M  V30 17758 C 2508.59 -3.96706 5.66633 0
M  V30 17759 O 2509.39 -4.15414 4.49689 0
M  V30 17760 C 2507.25 -4.66153 5.59313 0
M  V30 17761 H 2507.29 -5.47679 4.85214 0
M  V30 17762 H 2508.47 -2.89008 5.86566 0
M  V30 17763 H 2509.95 -4.0121 7.36511 0
M  V30 17764 H 2508.26 -5.80182 8.37584 0
M  V30 17765 H 2508.07 -3.73517 9.52265 0
M  V30 17766 H 2506.44 -3.97163 8.80359 0
M  V30 17767 H 2509.08 -4.90969 4.01921 0
M  V30 17768 P 2510.94 -5.75688 6.64379 0
M  V30 17769 O 2512.36 -6.11849 7.01846 0
M  V30 17770 O 2510.58 -4.30744 6.56026 0
M  V30 17771 O 2510.61 -6.37042 5.19165 0
M  V30 17772 C 2510.45 -7.83578 5.16515 0
M  V30 17773 C 2510.99 -8.33398 3.83019 0
M  V30 17774 O 2509.94 -8.10074 3.01034 0
M  V30 17775 C 2512.21 -7.65514 3.2257 0
M  V30 17776 O 2512.95 -8.4329 2.32297 0
M  V30 17777 C 2511.54 -6.40075 2.62207 0
M  V30 17778 O 2512.34 -5.92589 1.53712 0
M  V30 17779 C 2510.2 -6.9454 2.18503 0
M  V30 17780 H 2510.24 -7.23063 1.12091 0
M  V30 17781 H 2511.42 -5.6025 3.37201 0
M  V30 17782 H 2512.9 -7.35707 4.02681 0
M  V30 17783 H 2511.21 -9.40912 3.9095 0
M  V30 17784 H 2511.02 -8.29056 5.99158 0
M  V30 17785 H 2509.39 -8.10073 5.25882 0
M  V30 17786 H 2512.03 -6.30324 0.726794 0
M  V30 17787 P 2513.89 -8.4349 2.47671 0
M  V30 17788 O 2515.31 -8.94167 2.5964 0
M  V30 17789 O 2513.53 -7.1704 3.19006 0
M  V30 17790 O 2513.56 -8.16596 0.923387 0
M  V30 17791 C 2513.4 -9.38437 0.108857 0
M  V30 17792 C 2513.94 -9.08175 -1.28353 0
M  V30 17793 O 2512.89 -8.44229 -1.84713 0
M  V30 17794 C 2515.16 -8.18386 -1.42505 0
M  V30 17795 O 2515.9 -8.3501 -2.60497 0
M  V30 17796 C 2514.49 -6.80225 -1.25468 0
M  V30 17797 O 2515.29 -5.81621 -1.91066 0
M  V30 17798 C 2513.15 -7.02416 -1.9168 0
M  V30 17799 H 2513.19 -6.6888 -2.96621 0
M  V30 17800 H 2514.37 -6.53617 -0.192223 0
M  V30 17801 H 2515.85 -8.36622 -0.589963 0
M  V30 17802 H 2514.16 -10.0291 -1.79807 0
M  V30 17803 H 2513.97 -10.2138 0.558219 0
M  V30 17804 H 2512.34 -9.6579 0.0444202 0
M  V30 17805 H 2514.98 -5.69556 -2.79637 0
M  V30 17806 P 2516.84 -8.4349 -2.47671 0
M  V30 17807 O 2518.26 -8.92593 -2.65 0
M  V30 17808 O 2516.48 -7.7568 -1.19296 0
M  V30 17809 O 2516.51 -7.36886 -3.63805 0
M  V30 17810 C 2516.35 -7.95349 -4.982 0
M  V30 17811 C 2516.89 -6.94612 -5.98974 0
M  V30 17812 O 2515.84 -6.10347 -6.11815 0
M  V30 17813 C 2518.11 -6.11426 -5.62335 0
M  V30 17814 O 2518.85 -5.6162 -6.70584 0
M  V30 17815 C 2517.44 -5.04409 -4.73308 0
M  V30 17816 O 2518.24 -3.85992 -4.75183 0
M  V30 17817 C 2516.11 -4.8728 -5.41006 0
M  V30 17818 H 2516.14 -4.02333 -6.11157 0
M  V30 17819 H 2517.32 -5.39466 -3.69543 0
M  V30 17820 H 2518.8 -6.71916 -5.01943 0
M  V30 17821 H 2517.11 -7.4649 -6.93477 0
M  V30 17822 H 2516.92 -8.89416 -5.05237 0
M  V30 17823 H 2515.29 -8.14876 -5.18409 0
M  V30 17824 H 2517.93 -3.27957 -5.4317 0
M  V30 17825 P 2519.79 -5.75688 -6.64379 0
M  V30 17826 O 2521.21 -6.07627 -7.05504 0
M  V30 17827 O 2519.43 -5.88047 -5.19722 0
M  V30 17828 O 2519.46 -4.2322 -7.04443 0
M  V30 17829 C 2519.3 -3.99743 -8.4911 0
M  V30 17830 C 2519.84 -2.60516 -8.79425 0
M  V30 17831 O 2518.79 -1.82684 -8.4467 0
M  V30 17832 C 2521.06 -2.10343 -8.03628 0
M  V30 17833 O 2521.8 -1.09919 -8.67766 0
M  V30 17834 C 2520.39 -1.68446 -6.70876 0
M  V30 17835 O 2521.19 -0.678137 -6.08433 0
M  V30 17836 C 2519.06 -1.17436 -7.18567 0
M  V30 17837 H 2519.09 -0.0804732 -7.31656 0
M  V30 17838 H 2520.27 -2.54037 -6.02537 0
M  V30 17839 H 2521.75 -2.93881 -7.85526 0
M  V30 17840 H 2520.06 -2.53065 -9.86973 0
M  V30 17841 H 2519.87 -4.75072 -9.05887 0
M  V30 17842 H 2518.24 -4.05244 -8.76668 0
M  V30 17843 H 2520.88 0.177647 -6.34251 0
M  V30 17844 P 2522.74 -1.25109 -8.70152 0
M  V30 17845 O 2524.16 -1.29744 -9.22016 0
M  V30 17846 O 2522.38 -2.13714 -7.55141 0
M  V30 17847 O 2522.41 0.248149 -8.21425 0
M  V30 17848 C 2522.25 1.22779 -9.30434 0
M  V30 17849 C 2522.79 2.56293 -8.80664 0
M  V30 17850 O 2521.74 3.02979 -8.09349 0
M  V30 17851 C 2524.01 2.57523 -7.89775 0
M  V30 17852 O 2524.75 3.7668 -7.89438 0
M  V30 17853 C 2523.34 2.20997 -6.55446 0
M  V30 17854 O 2524.14 2.71895 -5.48509 0
M  V30 17855 C 2522.01 2.89693 -6.67988 0
M  V30 17856 H 2522.04 3.88793 -6.19859 0
M  V30 17857 H 2523.22 1.12046 -6.44229 0
M  V30 17858 H 2524.71 1.7746 -8.19711 0
M  V30 17859 H 2523.01 3.20706 -9.67112 0
M  V30 17860 H 2522.82 0.901032 -10.1892 0
M  V30 17861 H 2521.19 1.33049 -9.56592 0
M  V30 17862 H 2523.83 3.57847 -5.23962 0
M  V30 17863 P 2525.69 3.65191 -7.99657 0
M  V30 17864 O 2527.11 3.89332 -8.45794 0
M  V30 17865 O 2525.33 2.28472 -7.50807 0
M  V30 17866 O 2525.36 4.64972 -6.77611 0
M  V30 17867 C 2525.2 6.06319 -7.16352 0
M  V30 17868 C 2525.74 6.91731 -6.02299 0
M  V30 17869 O 2524.69 6.92449 -5.17064 0
M  V30 17870 C 2526.96 6.43627 -5.25174 0
M  V30 17871 O 2527.7 7.43686 -4.60469 0
M  V30 17872 C 2526.29 5.40275 -4.31916 0
M  V30 17873 O 2527.09 5.25279 -3.14438 0
M  V30 17874 C 2524.96 6.04847 -4.05327 0
M  V30 17875 H 2524.99 6.62195 -3.11261 0
M  V30 17876 H 2526.17 4.42556 -4.81383 0
M  V30 17877 H 2527.66 5.92458 -5.93643 0
M  V30 17878 H 2525.96 7.92655 -6.402 0
M  V30 17879 H 2525.77 6.26671 -8.0846 0
M  V30 17880 H 2524.14 6.29101 -7.32804 0
M  V30 17881 H 2526.78 5.84315 -2.47318 0
M  V30 17882 P 2528.64 7.39546 -4.75277 0
M  V30 17883 O 2530.04 7.86988 -5.07993 0
M  V30 17884 O 2528.26 5.99957 -5.13804 0
M  V30 17885 O 2528.32 7.57411 -3.18621 0
M  V30 17886 C 2528.16 8.97357 -2.74833 0
M  V30 17887 C 2528.7 9.0745 -1.32694 0
M  V30 17888 O 2527.64 8.61972 -0.606089 0
M  V30 17889 C 2529.91 8.25383 -0.938334 0
M  V30 17890 O 2530.65 8.74577 0.146954 0
M  V30 17891 C 2529.25 6.8802 -0.712559 0
M  V30 17892 O 2530.04 6.11791 0.194623 0
M  V30 17893 C 2527.91 7.27966 -0.139777 0
M  V30 17894 N 2526.86 6.39368 -0.623421 0
M  V30 17895 C 2525.83 6.08088 0.223886 0
M  V30 17896 O 2525.87 6.5102 1.39986 0
M  V30 17897 N 2524.82 5.30627 -0.224051 0
M  V30 17898 C 2524.87 4.82531 -1.47257 0
M  V30 17899 N 2523.86 4.07328 -1.89378 0
M  V30 17900 C 2525.96 5.09974 -2.34008 0
M  V30 17901 C 2526.93 5.89548 -1.87678 0
M  V30 17902 H 2527.94 7.25255 0.961469 0
M  V30 17903 H 2529.12 6.32625 -1.65044 0
M  V30 17904 H 2530.61 8.19631 -1.78299 0
M  V30 17905 H 2528.91 10.1305 -1.09016 0
M  V30 17906 H 2528.72 9.64276 -3.41316 0
M  V30 17907 H 2527.09 9.25321 -2.76328 0
M  V30 17908 H 2526.01 4.67832 -3.3413 0
M  V30 17909 H 2527.77 6.14434 -2.51991 0
M  V30 17910 H 2523.07 3.87329 -1.26296 0
M  V30 17911 H 2523.86 3.69014 -2.84741 0
M  V30 17912 H 2529.83 6.35931 1.08377 0
M  V30 17913 P 2531.59 8.791 2.21941e-11 0
M  V30 17914 O 2533.01 9.31096 0.027933 0
M  V30 17915 O 2531.23 7.77869 -1.04071 0
M  V30 17916 O 2531.27 8.09533 1.41463 0
M  V30 17917 C 2531.11 9.0349 2.53943 0
M  V30 17918 C 2531.65 8.35226 3.79016 0
M  V30 17919 O 2530.59 7.57992 4.15078 0
M  V30 17920 C 2532.86 7.45087 3.67298 0
M  V30 17921 O 2533.6 7.27796 4.85194 0
M  V30 17922 C 2532.2 6.17323 3.12027 0
M  V30 17923 O 2532.99 5.04231 3.47188 0
M  V30 17924 C 2530.86 6.19961 3.81809 0
M  V30 17925 H 2530.89 5.58218 4.73051 0
M  V30 17926 H 2532.07 6.21726 2.02589 0
M  V30 17927 H 2533.56 7.86112 2.9231 0
M  V30 17928 H 2531.86 9.11627 4.55076 0
M  V30 17929 H 2531.67 9.9573 2.34194 0
M  V30 17930 H 2530.04 9.2792 2.67832 0
M  V30 17931 H 2532.68 4.67702 4.28772 0
M  V30 17932 P 2534.54 7.39546 4.75277 0
M  V30 17933 O 2535.96 7.81777 5.05738 0
M  V30 17934 O 2534.18 7.1065 3.32998 0
M  V30 17935 O 2534.22 6.04542 5.56673 0
M  V30 17936 C 2534.06 6.22772 7.02095 0
M  V30 17937 C 2534.6 4.97725 7.70406 0
M  V30 17938 O 2533.54 4.13256 7.58987 0
M  V30 17939 C 2535.81 4.28231 7.11815 0
M  V30 17940 O 2536.55 3.49945 8.01648 0
M  V30 17941 C 2535.15 3.5063 5.96244 0
M  V30 17942 O 2535.94 2.36482 5.64681 0
M  V30 17943 C 2533.81 3.15122 6.56374 0
M  V30 17944 H 2533.84 2.13853 6.99751 0
M  V30 17945 H 2535.02 4.13501 5.06559 0
M  V30 17946 H 2536.51 5.03285 6.70911 0
M  V30 17947 H 2534.81 5.20877 8.75697 0
M  V30 17948 H 2534.62 7.11046 7.35349 0
M  V30 17949 H 2532.99 6.35815 7.26986 0
M  V30 17950 H 2535.63 1.61644 6.13565 0
M  V30 17951 P 2537.49 3.65191 7.99657 0
M  V30 17952 O 2538.91 3.8425 8.48115 0
M  V30 17953 O 2537.13 4.17805 6.64342 0
M  V30 17954 O 2537.17 2.07613 7.95143 0
M  V30 17955 C 2537.01 1.44328 9.27336 0
M  V30 17956 C 2537.55 0.0220036 9.17197 0
M  V30 17957 O 2536.49 -0.626867 8.61923 0
M  V30 17958 C 2538.77 -0.24586 8.30336 0
M  V30 17959 O 2539.5 -1.39011 8.63583 0
M  V30 17960 C 2538.1 -0.273849 6.91158 0
M  V30 17961 O 2538.9 -1.06348 6.02892 0
M  V30 17962 C 2536.76 -0.897649 7.22545 0
M  V30 17963 H 2536.79 -1.9841 7.04286 0
M  V30 17964 H 2537.97 0.739928 6.497 0
M  V30 17965 H 2539.46 0.60668 8.36503 0
M  V30 17966 H 2537.76 -0.352479 10.1829 0
M  V30 17967 H 2537.57 2.00611 10.0304 0
M  V30 17968 H 2535.94 1.41843 9.55327 0
M  V30 17969 H 2538.58 -1.95734 6.03555 0
M  V30 17970 P 2540.44 -1.25109 8.70152 0
M  V30 17971 O 2541.86 -1.35274 9.21221 0
M  V30 17972 O 2540.08 -0.0769065 7.84762 0
M  V30 17973 O 2540.12 -2.55232 7.81161 0
M  V30 17974 C 2539.96 -3.79939 8.58154 0
M  V30 17975 C 2540.5 -4.94023 7.72785 0
M  V30 17976 O 2539.44 -5.18726 6.91205 0
M  V30 17977 C 2541.72 -4.69597 6.85231 0
M  V30 17978 O 2542.45 -5.83832 6.51337 0
M  V30 17979 C 2541.05 -3.96706 5.66633 0
M  V30 17980 O 2541.85 -4.15414 4.49689 0
M  V30 17981 C 2539.71 -4.66153 5.59313 0
M  V30 17982 H 2539.74 -5.47679 4.85214 0
M  V30 17983 H 2540.92 -2.89008 5.86566 0
M  V30 17984 H 2542.41 -4.0121 7.36511 0
M  V30 17985 H 2540.71 -5.80182 8.37584 0
M  V30 17986 H 2540.52 -3.73517 9.52265 0
M  V30 17987 H 2538.89 -3.97163 8.80359 0
M  V30 17988 H 2541.53 -4.90969 4.01921 0
M  V30 17989 P 2543.39 -5.75688 6.64379 0
M  V30 17990 O 2544.81 -6.11849 7.01846 0
M  V30 17991 O 2543.03 -4.30744 6.56026 0
M  V30 17992 O 2543.07 -6.37042 5.19165 0
M  V30 17993 C 2542.91 -7.83578 5.16515 0
M  V30 17994 C 2543.45 -8.33398 3.83019 0
M  V30 17995 O 2542.39 -8.10074 3.01034 0
M  V30 17996 C 2544.67 -7.65514 3.2257 0
M  V30 17997 O 2545.4 -8.4329 2.32297 0
M  V30 17998 C 2544 -6.40075 2.62207 0
M  V30 17999 O 2544.8 -5.92589 1.53712 0
M  V30 18000 C 2542.66 -6.9454 2.18503 0
M  V30 18001 H 2542.69 -7.23063 1.12091 0
M  V30 18002 H 2543.88 -5.6025 3.37201 0
M  V30 18003 H 2545.36 -7.35707 4.02681 0
M  V30 18004 H 2543.67 -9.40912 3.9095 0
M  V30 18005 H 2543.48 -8.29056 5.99158 0
M  V30 18006 H 2541.85 -8.10073 5.25882 0
M  V30 18007 H 2544.48 -6.30324 0.726794 0
M  V30 18008 P 2546.34 -8.4349 2.47671 0
M  V30 18009 O 2547.76 -8.94167 2.5964 0
M  V30 18010 O 2545.98 -7.1704 3.19006 0
M  V30 18011 O 2546.02 -8.16596 0.923387 0
M  V30 18012 C 2545.86 -9.38437 0.108857 0
M  V30 18013 C 2546.4 -9.08175 -1.28353 0
M  V30 18014 O 2545.34 -8.44229 -1.84713 0
M  V30 18015 C 2547.62 -8.18386 -1.42505 0
M  V30 18016 O 2548.35 -8.3501 -2.60497 0
M  V30 18017 C 2546.95 -6.80225 -1.25468 0
M  V30 18018 O 2547.75 -5.81621 -1.91066 0
M  V30 18019 C 2545.61 -7.02416 -1.9168 0
M  V30 18020 H 2545.64 -6.6888 -2.96621 0
M  V30 18021 H 2546.83 -6.53617 -0.192223 0
M  V30 18022 H 2548.31 -8.36622 -0.589963 0
M  V30 18023 H 2546.62 -10.0291 -1.79807 0
M  V30 18024 H 2546.43 -10.2138 0.558219 0
M  V30 18025 H 2544.8 -9.6579 0.0444202 0
M  V30 18026 H 2547.43 -5.69556 -2.79637 0
M  V30 18027 P 2549.29 -8.4349 -2.47671 0
M  V30 18028 O 2550.71 -8.92593 -2.65 0
M  V30 18029 O 2548.93 -7.7568 -1.19296 0
M  V30 18030 O 2548.97 -7.36886 -3.63805 0
M  V30 18031 C 2548.81 -7.95349 -4.982 0
M  V30 18032 C 2549.35 -6.94612 -5.98974 0
M  V30 18033 O 2548.29 -6.10347 -6.11815 0
M  V30 18034 C 2550.57 -6.11426 -5.62335 0
M  V30 18035 O 2551.31 -5.6162 -6.70584 0
M  V30 18036 C 2549.9 -5.04409 -4.73308 0
M  V30 18037 O 2550.7 -3.85992 -4.75183 0
M  V30 18038 C 2548.56 -4.8728 -5.41006 0
M  V30 18039 H 2548.59 -4.02333 -6.11157 0
M  V30 18040 H 2549.78 -5.39466 -3.69543 0
M  V30 18041 H 2551.26 -6.71916 -5.01943 0
M  V30 18042 H 2549.57 -7.4649 -6.93477 0
M  V30 18043 H 2549.38 -8.89416 -5.05237 0
M  V30 18044 H 2547.75 -8.14876 -5.18409 0
M  V30 18045 H 2550.39 -3.27957 -5.4317 0
M  V30 18046 P 2552.24 -5.75688 -6.64379 0
M  V30 18047 O 2553.67 -6.07627 -7.05504 0
M  V30 18048 O 2551.88 -5.88047 -5.19722 0
M  V30 18049 O 2551.92 -4.2322 -7.04443 0
M  V30 18050 C 2551.76 -3.99743 -8.4911 0
M  V30 18051 C 2552.3 -2.60516 -8.79425 0
M  V30 18052 O 2551.24 -1.82684 -8.4467 0
M  V30 18053 C 2553.52 -2.10343 -8.03628 0
M  V30 18054 O 2554.26 -1.09919 -8.67766 0
M  V30 18055 C 2552.85 -1.68446 -6.70876 0
M  V30 18056 O 2553.65 -0.678137 -6.08433 0
M  V30 18057 C 2551.51 -1.17436 -7.18567 0
M  V30 18058 H 2551.54 -0.0804732 -7.31656 0
M  V30 18059 H 2552.73 -2.54037 -6.02537 0
M  V30 18060 H 2554.21 -2.93881 -7.85526 0
M  V30 18061 H 2552.52 -2.53065 -9.86973 0
M  V30 18062 H 2552.33 -4.75072 -9.05887 0
M  V30 18063 H 2550.7 -4.05244 -8.76668 0
M  V30 18064 H 2553.34 0.177647 -6.34251 0
M  V30 18065 P 2555.19 -1.25109 -8.70152 0
M  V30 18066 O 2556.62 -1.29744 -9.22016 0
M  V30 18067 O 2554.83 -2.13714 -7.55141 0
M  V30 18068 O 2554.87 0.248149 -8.21425 0
M  V30 18069 C 2554.71 1.22779 -9.30434 0
M  V30 18070 C 2555.25 2.56293 -8.80664 0
M  V30 18071 O 2554.19 3.02979 -8.09349 0
M  V30 18072 C 2556.47 2.57523 -7.89775 0
M  V30 18073 O 2557.21 3.7668 -7.89438 0
M  V30 18074 C 2555.8 2.20997 -6.55446 0
M  V30 18075 O 2556.6 2.71895 -5.48509 0
M  V30 18076 C 2554.46 2.89693 -6.67988 0
M  V30 18077 H 2554.49 3.88793 -6.19859 0
M  V30 18078 H 2555.68 1.12046 -6.44229 0
M  V30 18079 H 2557.16 1.7746 -8.19711 0
M  V30 18080 H 2555.47 3.20706 -9.67112 0
M  V30 18081 H 2555.28 0.901032 -10.1892 0
M  V30 18082 H 2553.65 1.33049 -9.56592 0
M  V30 18083 H 2556.29 3.57847 -5.23962 0
M  V30 18084 P 2558.14 3.65191 -7.99657 0
M  V30 18085 O 2559.57 3.89332 -8.45794 0
M  V30 18086 O 2557.78 2.28472 -7.50807 0
M  V30 18087 O 2557.82 4.64972 -6.77611 0
M  V30 18088 C 2557.66 6.06319 -7.16352 0
M  V30 18089 C 2558.2 6.91731 -6.02299 0
M  V30 18090 O 2557.15 6.92449 -5.17064 0
M  V30 18091 C 2559.42 6.43627 -5.25174 0
M  V30 18092 O 2560.16 7.43686 -4.60469 0
M  V30 18093 C 2558.75 5.40275 -4.31916 0
M  V30 18094 O 2559.55 5.25279 -3.14438 0
M  V30 18095 C 2557.41 6.04847 -4.05327 0
M  V30 18096 H 2557.45 6.62195 -3.11261 0
M  V30 18097 H 2558.63 4.42556 -4.81383 0
M  V30 18098 H 2560.11 5.92458 -5.93643 0
M  V30 18099 H 2558.42 7.92655 -6.402 0
M  V30 18100 H 2558.23 6.26671 -8.0846 0
M  V30 18101 H 2556.6 6.29101 -7.32804 0
M  V30 18102 H 2559.24 5.84315 -2.47318 0
M  V30 18103 P 2561.09 7.39546 -4.75277 0
M  V30 18104 O 2562.52 7.84882 -5.01092 0
M  V30 18105 O 2560.73 5.9812 -5.08098 0
M  V30 18106 O 2560.77 7.57503 -3.1866 0
M  V30 18107 C 2560.61 8.97452 -2.74862 0
M  V30 18108 C 2561.15 9.07548 -1.32709 0
M  V30 18109 O 2560.1 8.61972 -0.606089 0
M  V30 18110 C 2562.37 8.25383 -0.938334 0
M  V30 18111 O 2563.11 8.74577 0.146954 0
M  V30 18112 C 2561.7 6.8802 -0.712559 0
M  V30 18113 O 2562.5 6.1181 0.188505 0
M  V30 18114 C 2560.36 7.27966 -0.139777 0
M  V30 18115 N 2559.32 6.39368 -0.623421 0
M  V30 18116 C 2559.49 5.71761 -1.78245 0
M  V30 18117 N 2558.46 4.962 -2.10491 0
M  V30 18118 C 2557.58 5.16158 -1.0635 0
M  V30 18119 C 2556.31 4.60425 -0.810266 0
M  V30 18120 N 2555.71 3.7057 -1.62914 0
M  V30 18121 N 2555.75 5.06 0.348685 0
M  V30 18122 C 2556.35 5.94532 1.20395 0
M  V30 18123 N 2557.52 6.48452 1.01191 0
M  V30 18124 C 2558.1 6.04423 -0.146291 0
M  V30 18125 H 2560.4 7.25255 0.961469 0
M  V30 18126 H 2561.58 6.32625 -1.65044 0
M  V30 18127 H 2563.06 8.19355 -1.79097 0
M  V30 18128 H 2561.37 10.1305 -1.09016 0
M  V30 18129 H 2561.18 9.64276 -3.41316 0
M  V30 18130 H 2559.55 9.25417 -2.76357 0
M  V30 18131 H 2555.81 6.21659 2.10714 0
M  V30 18132 H 2560.39 5.79354 -2.38959 0
M  V30 18133 H 2554.78 3.33174 -1.38982 0
M  V30 18134 H 2556.19 3.39714 -2.48836 0
M  V30 18135 H 2562.19 6.25169 1.0783 0
M  V30 18136 P 2564.05 8.791 2.25043e-11 0
M  V30 18137 O 2565.47 9.31096 0.027933 0
M  V30 18138 O 2563.69 7.77869 -1.04071 0
M  V30 18139 O 2563.72 8.09533 1.41463 0
M  V30 18140 C 2563.56 9.0349 2.53943 0
M  V30 18141 C 2564.1 8.35226 3.79016 0
M  V30 18142 O 2563.05 7.57992 4.15078 0
M  V30 18143 C 2565.32 7.45087 3.67298 0
M  V30 18144 O 2566.06 7.27796 4.85194 0
M  V30 18145 C 2564.65 6.17323 3.12027 0
M  V30 18146 O 2565.45 5.04231 3.47188 0
M  V30 18147 C 2563.31 6.19961 3.81809 0
M  V30 18148 H 2563.35 5.58218 4.73051 0
M  V30 18149 H 2564.53 6.21726 2.02589 0
M  V30 18150 H 2566.01 7.86112 2.9231 0
M  V30 18151 H 2564.32 9.11627 4.55076 0
M  V30 18152 H 2564.13 9.9573 2.34194 0
M  V30 18153 H 2562.5 9.2792 2.67832 0
M  V30 18154 H 2565.14 4.67702 4.28772 0
M  V30 18155 P 2567 7.39546 4.75277 0
M  V30 18156 O 2568.42 7.81777 5.05738 0
M  V30 18157 O 2566.64 7.1065 3.32998 0
M  V30 18158 O 2566.67 6.04542 5.56673 0
M  V30 18159 C 2566.51 6.22772 7.02095 0
M  V30 18160 C 2567.05 4.97725 7.70406 0
M  V30 18161 O 2566 4.13256 7.58987 0
M  V30 18162 C 2568.27 4.28231 7.11815 0
M  V30 18163 O 2569.01 3.49945 8.01648 0
M  V30 18164 C 2567.6 3.5063 5.96244 0
M  V30 18165 O 2568.4 2.36482 5.64681 0
M  V30 18166 C 2566.26 3.15122 6.56374 0
M  V30 18167 H 2566.3 2.13853 6.99751 0
M  V30 18168 H 2567.48 4.13501 5.06559 0
M  V30 18169 H 2568.96 5.03285 6.70911 0
M  V30 18170 H 2567.27 5.20877 8.75697 0
M  V30 18171 H 2567.08 7.11046 7.35349 0
M  V30 18172 H 2565.45 6.35815 7.26986 0
M  V30 18173 H 2568.09 1.61644 6.13565 0
M  V30 18174 P 2569.95 3.65191 7.99657 0
M  V30 18175 O 2571.37 3.8425 8.48115 0
M  V30 18176 O 2569.59 4.17805 6.64342 0
M  V30 18177 O 2569.62 2.07613 7.95143 0
M  V30 18178 C 2569.46 1.44328 9.27336 0
M  V30 18179 C 2570 0.0220036 9.17197 0
M  V30 18180 O 2568.95 -0.626867 8.61923 0
M  V30 18181 C 2571.22 -0.24586 8.30336 0
M  V30 18182 O 2571.96 -1.39011 8.63583 0
M  V30 18183 C 2570.55 -0.273849 6.91158 0
M  V30 18184 O 2571.35 -1.06348 6.02892 0
M  V30 18185 C 2569.22 -0.897649 7.22545 0
M  V30 18186 H 2569.25 -1.9841 7.04286 0
M  V30 18187 H 2570.43 0.739928 6.497 0
M  V30 18188 H 2571.91 0.60668 8.36503 0
M  V30 18189 H 2570.22 -0.352479 10.1829 0
M  V30 18190 H 2570.03 2.00611 10.0304 0
M  V30 18191 H 2568.4 1.41843 9.55327 0
M  V30 18192 H 2571.04 -1.95734 6.03555 0
M  V30 18193 P 2572.9 -1.25109 8.70152 0
M  V30 18194 O 2574.32 -1.35274 9.21221 0
M  V30 18195 O 2572.54 -0.0769065 7.84762 0
M  V30 18196 O 2572.57 -2.55232 7.81161 0
M  V30 18197 C 2572.41 -3.79939 8.58154 0
M  V30 18198 C 2572.95 -4.94023 7.72785 0
M  V30 18199 O 2571.9 -5.18726 6.91205 0
M  V30 18200 C 2574.17 -4.69597 6.85231 0
M  V30 18201 O 2574.91 -5.83832 6.51337 0
M  V30 18202 C 2573.5 -3.96706 5.66633 0
M  V30 18203 O 2574.3 -4.15414 4.49689 0
M  V30 18204 C 2572.17 -4.66153 5.59313 0
M  V30 18205 H 2572.2 -5.47679 4.85214 0
M  V30 18206 H 2573.38 -2.89008 5.86566 0
M  V30 18207 H 2574.87 -4.0121 7.36511 0
M  V30 18208 H 2573.17 -5.80182 8.37584 0
M  V30 18209 H 2572.98 -3.73517 9.52265 0
M  V30 18210 H 2571.35 -3.97163 8.80359 0
M  V30 18211 H 2573.99 -4.90969 4.01921 0
M  V30 18212 P 2575.85 -5.75688 6.64379 0
M  V30 18213 O 2577.27 -6.11849 7.01846 0
M  V30 18214 O 2575.49 -4.30744 6.56026 0
M  V30 18215 O 2575.52 -6.37042 5.19165 0
M  V30 18216 C 2575.36 -7.83578 5.16515 0
M  V30 18217 C 2575.9 -8.33398 3.83019 0
M  V30 18218 O 2574.85 -8.10074 3.01034 0
M  V30 18219 C 2577.12 -7.65514 3.2257 0
M  V30 18220 O 2577.86 -8.4329 2.32297 0
M  V30 18221 C 2576.45 -6.40075 2.62207 0
M  V30 18222 O 2577.25 -5.92589 1.53712 0
M  V30 18223 C 2575.12 -6.9454 2.18503 0
M  V30 18224 H 2575.15 -7.23063 1.12091 0
M  V30 18225 H 2576.33 -5.6025 3.37201 0
M  V30 18226 H 2577.82 -7.35707 4.02681 0
M  V30 18227 H 2576.12 -9.40912 3.9095 0
M  V30 18228 H 2575.93 -8.29056 5.99158 0
M  V30 18229 H 2574.3 -8.10073 5.25882 0
M  V30 18230 H 2576.94 -6.30324 0.726794 0
M  V30 18231 P 2578.8 -8.4349 2.47671 0
M  V30 18232 O 2580.22 -8.94167 2.5964 0
M  V30 18233 O 2578.44 -7.1704 3.19006 0
M  V30 18234 O 2578.48 -8.16596 0.923387 0
M  V30 18235 C 2578.32 -9.38437 0.108857 0
M  V30 18236 C 2578.86 -9.08175 -1.28353 0
M  V30 18237 O 2577.8 -8.44229 -1.84713 0
M  V30 18238 C 2580.07 -8.18386 -1.42505 0
M  V30 18239 O 2580.81 -8.3501 -2.60497 0
M  V30 18240 C 2579.4 -6.80225 -1.25468 0
M  V30 18241 O 2580.2 -5.81621 -1.91066 0
M  V30 18242 C 2578.07 -7.02416 -1.9168 0
M  V30 18243 H 2578.1 -6.6888 -2.96621 0
M  V30 18244 H 2579.28 -6.53617 -0.192223 0
M  V30 18245 H 2580.77 -8.36622 -0.589963 0
M  V30 18246 H 2579.07 -10.0291 -1.79807 0
M  V30 18247 H 2578.88 -10.2138 0.558219 0
M  V30 18248 H 2577.25 -9.6579 0.0444202 0
M  V30 18249 H 2579.89 -5.69556 -2.79637 0
M  V30 18250 P 2581.75 -8.4349 -2.47671 0
M  V30 18251 O 2583.17 -8.92593 -2.65 0
M  V30 18252 O 2581.39 -7.7568 -1.19296 0
M  V30 18253 O 2581.43 -7.36886 -3.63805 0
M  V30 18254 C 2581.27 -7.95349 -4.982 0
M  V30 18255 C 2581.81 -6.94612 -5.98974 0
M  V30 18256 O 2580.75 -6.10347 -6.11815 0
M  V30 18257 C 2583.02 -6.11426 -5.62335 0
M  V30 18258 O 2583.76 -5.6162 -6.70584 0
M  V30 18259 C 2582.35 -5.04409 -4.73308 0
M  V30 18260 O 2583.15 -3.85992 -4.75183 0
M  V30 18261 C 2581.02 -4.8728 -5.41006 0
M  V30 18262 H 2581.05 -4.02333 -6.11157 0
M  V30 18263 H 2582.23 -5.39466 -3.69543 0
M  V30 18264 H 2583.72 -6.71916 -5.01943 0
M  V30 18265 H 2582.02 -7.4649 -6.93477 0
M  V30 18266 H 2581.83 -8.89416 -5.05237 0
M  V30 18267 H 2580.2 -8.14876 -5.18409 0
M  V30 18268 H 2582.84 -3.27957 -5.4317 0
M  V30 18269 P 2584.7 -5.75688 -6.64379 0
M  V30 18270 O 2586.1 -6.14823 -7.06682 0
M  V30 18271 O 2584.32 -5.93957 -5.20728 0
M  V30 18272 O 2584.38 -4.23169 -7.04357 0
M  V30 18273 C 2584.22 -3.99743 -8.4911 0
M  V30 18274 C 2584.76 -2.60487 -8.79329 0
M  V30 18275 O 2583.7 -1.82663 -8.44573 0
M  V30 18276 C 2585.97 -2.10343 -8.03628 0
M  V30 18277 O 2586.71 -1.09919 -8.67766 0
M  V30 18278 C 2585.31 -1.68446 -6.70876 0
M  V30 18279 O 2586.1 -0.678026 -6.08333 0
M  V30 18280 C 2583.97 -1.17436 -7.18567 0
M  V30 18281 N 2582.93 -1.52699 -6.23988 0
M  V30 18282 C 2581.89 -0.643793 -6.05085 0
M  V30 18283 O 2581.93 0.459118 -6.64315 0
M  V30 18284 N 2580.88 -0.976931 -5.22038 0
M  V30 18285 C 2580.93 -2.14429 -4.56662 0
M  V30 18286 C 2582.02 -3.04203 -4.71481 0
M  V30 18287 C 2582.99 -2.69669 -5.56838 0
M  V30 18288 H 2584 -0.0804622 -7.31556 0
M  V30 18289 H 2585.18 -2.53396 -6.02698 0
M  V30 18290 H 2586.67 -2.9313 -7.85914 0
M  V30 18291 H 2584.97 -2.52078 -9.87225 0
M  V30 18292 H 2584.78 -4.75072 -9.05887 0
M  V30 18293 H 2583.15 -4.05202 -8.76577 0
M  V30 18294 H 2582.07 -3.97309 -4.15519 0
M  V30 18295 H 2583.83 -3.36869 -5.72318 0
M  V30 18296 H 2585.89 0.167718 -6.44882 0
M  V30 18297 P 2587.65 -1.25109 -8.70152 0
M  V30 18298 O 2589.07 -1.29744 -9.22016 0
M  V30 18299 O 2587.29 -2.13714 -7.55141 0
M  V30 18300 O 2587.33 0.248149 -8.21425 0
M  V30 18301 C 2587.17 1.22779 -9.30434 0
M  V30 18302 C 2587.71 2.56293 -8.80664 0
M  V30 18303 O 2586.65 3.02979 -8.09349 0
M  V30 18304 C 2588.92 2.57523 -7.89775 0
M  V30 18305 O 2589.66 3.7668 -7.89438 0
M  V30 18306 C 2588.26 2.20997 -6.55446 0
M  V30 18307 O 2589.05 2.71895 -5.48509 0
M  V30 18308 C 2586.92 2.89693 -6.67988 0
M  V30 18309 H 2586.95 3.88793 -6.19859 0
M  V30 18310 H 2588.13 1.12046 -6.44229 0
M  V30 18311 H 2589.62 1.7746 -8.19711 0
M  V30 18312 H 2587.92 3.20706 -9.67112 0
M  V30 18313 H 2587.73 0.901032 -10.1892 0
M  V30 18314 H 2586.1 1.33049 -9.56592 0
M  V30 18315 H 2588.74 3.57847 -5.23962 0
M  V30 18316 P 2590.6 3.65191 -7.99657 0
M  V30 18317 O 2592.02 3.89332 -8.45794 0
M  V30 18318 O 2590.24 2.28472 -7.50807 0
M  V30 18319 O 2590.28 4.64972 -6.77611 0
M  V30 18320 C 2590.12 6.06319 -7.16352 0
M  V30 18321 C 2590.66 6.91731 -6.02299 0
M  V30 18322 O 2589.6 6.92449 -5.17064 0
M  V30 18323 C 2591.88 6.43627 -5.25174 0
M  V30 18324 O 2592.61 7.43686 -4.60469 0
M  V30 18325 C 2591.21 5.40275 -4.31916 0
M  V30 18326 O 2592.01 5.25279 -3.14438 0
M  V30 18327 C 2589.87 6.04847 -4.05327 0
M  V30 18328 H 2589.9 6.62195 -3.11261 0
M  V30 18329 H 2591.08 4.42556 -4.81383 0
M  V30 18330 H 2592.57 5.92458 -5.93643 0
M  V30 18331 H 2590.87 7.92655 -6.402 0
M  V30 18332 H 2590.68 6.26671 -8.0846 0
M  V30 18333 H 2589.05 6.29101 -7.32804 0
M  V30 18334 H 2591.69 5.84315 -2.47318 0
M  V30 18335 P 2593.55 7.39546 -4.75277 0
M  V30 18336 O 2594.97 7.84798 -5.01039 0
M  V30 18337 O 2593.19 5.9812 -5.08098 0
M  V30 18338 O 2593.23 7.57503 -3.1866 0
M  V30 18339 C 2593.07 8.97357 -2.74833 0
M  V30 18340 C 2593.61 9.07548 -1.32709 0
M  V30 18341 O 2592.55 8.62072 -0.606159 0
M  V30 18342 C 2594.83 8.25383 -0.938334 0
M  V30 18343 O 2595.56 8.74577 0.146954 0
M  V30 18344 C 2594.16 6.8802 -0.712559 0
M  V30 18345 O 2594.96 6.1189 0.194655 0
M  V30 18346 C 2592.82 7.27966 -0.139777 0
M  V30 18347 H 2592.85 7.25354 0.961601 0
M  V30 18348 H 2594.04 6.32557 -1.65702 0
M  V30 18349 H 2595.52 8.19355 -1.79097 0
M  V30 18350 H 2593.83 10.1294 -1.10029 0
M  V30 18351 H 2593.64 9.64276 -3.41316 0
M  V30 18352 H 2592.01 9.25417 -2.76357 0
M  V30 18353 H 2594.64 6.25267 1.07847 0
M  V30 18354 P 2596.5 8.791 2.28144e-11 0
M  V30 18355 O 2597.92 9.31096 0.027933 0
M  V30 18356 O 2596.14 7.77869 -1.04071 0
M  V30 18357 O 2596.18 8.09533 1.41463 0
M  V30 18358 C 2596.02 9.0349 2.53943 0
M  V30 18359 C 2596.56 8.35226 3.79016 0
M  V30 18360 O 2595.5 7.57992 4.15078 0
M  V30 18361 C 2597.78 7.45087 3.67298 0
M  V30 18362 O 2598.51 7.27796 4.85194 0
M  V30 18363 C 2597.11 6.17323 3.12027 0
M  V30 18364 O 2597.91 5.04231 3.47188 0
M  V30 18365 C 2595.77 6.19961 3.81809 0
M  V30 18366 H 2595.8 5.58218 4.73051 0
M  V30 18367 H 2596.99 6.21726 2.02589 0
M  V30 18368 H 2598.47 7.86112 2.9231 0
M  V30 18369 H 2596.78 9.11627 4.55076 0
M  V30 18370 H 2596.59 9.9573 2.34194 0
M  V30 18371 H 2594.96 9.2792 2.67832 0
M  V30 18372 H 2597.59 4.67702 4.28772 0
M  V30 18373 P 2599.45 7.39546 4.75277 0
M  V30 18374 O 2600.87 7.81777 5.05738 0
M  V30 18375 O 2599.09 7.1065 3.32998 0
M  V30 18376 O 2599.13 6.04542 5.56673 0
M  V30 18377 C 2598.97 6.22772 7.02095 0
M  V30 18378 C 2599.51 4.97725 7.70406 0
M  V30 18379 O 2598.45 4.13256 7.58987 0
M  V30 18380 C 2600.73 4.28231 7.11815 0
M  V30 18381 O 2601.47 3.49945 8.01648 0
M  V30 18382 C 2600.06 3.5063 5.96244 0
M  V30 18383 O 2600.86 2.36482 5.64681 0
M  V30 18384 C 2598.72 3.15122 6.56374 0
M  V30 18385 H 2598.75 2.13853 6.99751 0
M  V30 18386 H 2599.94 4.13501 5.06559 0
M  V30 18387 H 2601.42 5.03285 6.70911 0
M  V30 18388 H 2599.73 5.20877 8.75697 0
M  V30 18389 H 2599.54 7.11046 7.35349 0
M  V30 18390 H 2597.91 6.35815 7.26986 0
M  V30 18391 H 2600.55 1.61644 6.13565 0
M  V30 18392 P 2602.4 3.65191 7.99657 0
M  V30 18393 O 2603.82 3.8425 8.48115 0
M  V30 18394 O 2602.04 4.17805 6.64342 0
M  V30 18395 O 2602.08 2.07613 7.95143 0
M  V30 18396 C 2601.92 1.44328 9.27336 0
M  V30 18397 C 2602.46 0.0220036 9.17197 0
M  V30 18398 O 2601.4 -0.626867 8.61923 0
M  V30 18399 C 2603.68 -0.24586 8.30336 0
M  V30 18400 O 2604.42 -1.39011 8.63583 0
M  V30 18401 C 2603.01 -0.273849 6.91158 0
M  V30 18402 O 2603.81 -1.06348 6.02892 0
M  V30 18403 C 2601.67 -0.897649 7.22545 0
M  V30 18404 H 2601.7 -1.9841 7.04286 0
M  V30 18405 H 2602.89 0.739928 6.497 0
M  V30 18406 H 2604.37 0.60668 8.36503 0
M  V30 18407 H 2602.68 -0.352479 10.1829 0
M  V30 18408 H 2602.49 2.00611 10.0304 0
M  V30 18409 H 2600.86 1.41843 9.55327 0
M  V30 18410 H 2603.5 -1.95734 6.03555 0
M  V30 18411 P 2605.35 -1.25109 8.70152 0
M  V30 18412 O 2606.78 -1.35303 9.21419 0
M  V30 18413 O 2604.99 -0.0769065 7.84762 0
M  V30 18414 O 2605.03 -2.55232 7.81161 0
M  V30 18415 C 2604.87 -3.79939 8.58154 0
M  V30 18416 C 2605.41 -4.93969 7.72701 0
M  V30 18417 O 2604.36 -5.18726 6.91205 0
M  V30 18418 C 2606.63 -4.69597 6.85231 0
M  V30 18419 O 2607.37 -5.83832 6.51337 0
M  V30 18420 C 2605.96 -3.96706 5.66633 0
M  V30 18421 O 2606.76 -4.15346 4.49615 0
M  V30 18422 C 2604.62 -4.66153 5.59313 0
M  V30 18423 N 2603.58 -3.71582 5.24027 0
M  V30 18424 C 2603.64 -2.46018 5.67902 0
M  V30 18425 N 2602.6 -1.74868 5.24518 0
M  V30 18426 C 2601.86 -2.61333 4.54528 0
M  V30 18427 C 2600.56 -2.46162 3.95441 0
M  V30 18428 O 2599.82 -1.46013 3.94122 0
M  V30 18429 N 2600.13 -3.59334 3.34752 0
M  V30 18430 C 2600.88 -4.79605 3.3023 0
M  V30 18431 N 2600.28 -5.82109 2.6065 0
M  V30 18432 N 2602.03 -4.97402 3.8843 0
M  V30 18433 C 2602.49 -3.86258 4.50476 0
M  V30 18434 H 2604.65 -5.47679 4.85214 0
M  V30 18435 H 2605.84 -2.88964 5.86476 0
M  V30 18436 H 2607.32 -4.01947 7.36109 0
M  V30 18437 H 2605.63 -5.80182 8.37584 0
M  V30 18438 H 2605.44 -3.73517 9.52265 0
M  V30 18439 H 2603.81 -3.97163 8.80359 0
M  V30 18440 H 2599.23 -3.5825 2.90294 0
M  V30 18441 H 2604.44 -2.06161 6.30974 0
M  V30 18442 H 2599.37 -5.66979 2.15354 0
M  V30 18443 H 2600.74 -6.73686 2.54344 0
M  V30 18444 H 2606.45 -4.90891 4.01857 0
M  V30 18445 P 2608.3 -5.75688 6.64379 0
M  V30 18446 O 2609.73 -6.11849 7.01846 0
M  V30 18447 O 2607.94 -4.30744 6.56026 0
M  V30 18448 O 2607.98 -6.37042 5.19165 0
M  V30 18449 C 2607.82 -7.83578 5.16515 0
M  V30 18450 C 2608.36 -8.33398 3.83019 0
M  V30 18451 O 2607.3 -8.10074 3.01034 0
M  V30 18452 C 2609.58 -7.65514 3.2257 0
M  V30 18453 O 2610.32 -8.4329 2.32297 0
M  V30 18454 C 2608.91 -6.40075 2.62207 0
M  V30 18455 O 2609.71 -5.92589 1.53712 0
M  V30 18456 C 2607.57 -6.9454 2.18503 0
M  V30 18457 H 2607.6 -7.23063 1.12091 0
M  V30 18458 H 2608.79 -5.6025 3.37201 0
M  V30 18459 H 2610.27 -7.35707 4.02681 0
M  V30 18460 H 2608.58 -9.40912 3.9095 0
M  V30 18461 H 2608.39 -8.29056 5.99158 0
M  V30 18462 H 2606.76 -8.10073 5.25882 0
M  V30 18463 H 2609.4 -6.30324 0.726794 0
M  V30 18464 P 2611.25 -8.4349 2.47671 0
M  V30 18465 O 2612.68 -8.94167 2.5964 0
M  V30 18466 O 2610.89 -7.1704 3.19006 0
M  V30 18467 O 2610.93 -8.16596 0.923387 0
M  V30 18468 C 2610.77 -9.38437 0.108857 0
M  V30 18469 C 2611.31 -9.08175 -1.28353 0
M  V30 18470 O 2610.26 -8.44229 -1.84713 0
M  V30 18471 C 2612.53 -8.18386 -1.42505 0
M  V30 18472 O 2613.27 -8.3501 -2.60497 0
M  V30 18473 C 2611.86 -6.80225 -1.25468 0
M  V30 18474 O 2612.66 -5.81621 -1.91066 0
M  V30 18475 C 2610.52 -7.02416 -1.9168 0
M  V30 18476 H 2610.56 -6.6888 -2.96621 0
M  V30 18477 H 2611.74 -6.53617 -0.192223 0
M  V30 18478 H 2613.22 -8.36622 -0.589963 0
M  V30 18479 H 2611.53 -10.0291 -1.79807 0
M  V30 18480 H 2611.34 -10.2138 0.558219 0
M  V30 18481 H 2609.71 -9.6579 0.0444202 0
M  V30 18482 H 2612.35 -5.69556 -2.79637 0
M  V30 18483 P 2614.21 -8.4349 -2.47671 0
M  V30 18484 O 2615.63 -8.92593 -2.65 0
M  V30 18485 O 2613.85 -7.7568 -1.19296 0
M  V30 18486 O 2613.88 -7.36886 -3.63805 0
M  V30 18487 C 2613.72 -7.95349 -4.982 0
M  V30 18488 C 2614.26 -6.94612 -5.98974 0
M  V30 18489 O 2613.21 -6.10347 -6.11815 0
M  V30 18490 C 2615.48 -6.11426 -5.62335 0
M  V30 18491 O 2616.22 -5.6162 -6.70584 0
M  V30 18492 C 2614.81 -5.04409 -4.73308 0
M  V30 18493 O 2615.61 -3.85992 -4.75183 0
M  V30 18494 C 2613.47 -4.8728 -5.41006 0
M  V30 18495 H 2613.51 -4.02333 -6.11157 0
M  V30 18496 H 2614.69 -5.39466 -3.69543 0
M  V30 18497 H 2616.17 -6.71916 -5.01943 0
M  V30 18498 H 2614.48 -7.4649 -6.93477 0
M  V30 18499 H 2614.29 -8.89416 -5.05237 0
M  V30 18500 H 2612.66 -8.14876 -5.18409 0
M  V30 18501 H 2615.3 -3.27957 -5.4317 0
M  V30 18502 P 2617.16 -5.75688 -6.64379 0
M  V30 18503 O 2618.58 -6.07627 -7.05504 0
M  V30 18504 O 2616.8 -5.88047 -5.19722 0
M  V30 18505 O 2616.83 -4.2322 -7.04443 0
M  V30 18506 C 2616.67 -3.99743 -8.4911 0
M  V30 18507 C 2617.21 -2.60516 -8.79425 0
M  V30 18508 O 2616.16 -1.82684 -8.4467 0
M  V30 18509 C 2618.43 -2.10343 -8.03628 0
M  V30 18510 O 2619.17 -1.09919 -8.67766 0
M  V30 18511 C 2617.76 -1.68446 -6.70876 0
M  V30 18512 O 2618.56 -0.678137 -6.08433 0
M  V30 18513 C 2616.42 -1.17436 -7.18567 0
M  V30 18514 H 2616.46 -0.0804732 -7.31656 0
M  V30 18515 H 2617.64 -2.54037 -6.02537 0
M  V30 18516 H 2619.12 -2.93881 -7.85526 0
M  V30 18517 H 2617.43 -2.53065 -9.86973 0
M  V30 18518 H 2617.24 -4.75072 -9.05887 0
M  V30 18519 H 2615.61 -4.05244 -8.76668 0
M  V30 18520 H 2618.25 0.177647 -6.34251 0
M  V30 18521 P 2620.11 -1.25109 -8.70152 0
M  V30 18522 O 2621.53 -1.29744 -9.22016 0
M  V30 18523 O 2619.75 -2.13714 -7.55141 0
M  V30 18524 O 2619.78 0.248149 -8.21425 0
M  V30 18525 C 2619.62 1.22779 -9.30434 0
M  V30 18526 C 2620.16 2.56293 -8.80664 0
M  V30 18527 O 2619.11 3.02979 -8.09349 0
M  V30 18528 C 2621.38 2.57523 -7.89775 0
M  V30 18529 O 2622.12 3.7668 -7.89438 0
M  V30 18530 C 2620.71 2.20997 -6.55446 0
M  V30 18531 O 2621.51 2.71895 -5.48509 0
M  V30 18532 C 2619.38 2.89693 -6.67988 0
M  V30 18533 H 2619.41 3.88793 -6.19859 0
M  V30 18534 H 2620.59 1.12046 -6.44229 0
M  V30 18535 H 2622.07 1.7746 -8.19711 0
M  V30 18536 H 2620.38 3.20706 -9.67112 0
M  V30 18537 H 2620.19 0.901032 -10.1892 0
M  V30 18538 H 2618.56 1.33049 -9.56592 0
M  V30 18539 H 2621.2 3.57847 -5.23962 0
M  V30 18540 H 2623.75 3.39234 -7.5115 0
M  V30 END ATOM
M  V30 BEGIN BOND
M  V30 END BOND
M  V30 END CTAB
M  END
$$$$
