drugbank_target|Q8IJK8 60S ribosomal protein L30e, putative (DB11638)
 OpenBabel12092121123D

  0  0  0     0  0            999 V3000
M  V30 BEGIN CTAB
M  V30 COUNTS 1676 1684 0 0 0
M  V30 BEGIN ATOM
M  V30 1 H -0.908 1.98254 -0.117106 0
M  V30 2 N 0 1.576 0 0
M  V30 3 C 0.933 2.03868 1.02534 0
M  V30 4 C 1.911 0.928543 1.3348 0
M  V30 5 O 3.095 1.19667 1.45644 0
M  V30 6 C 0.222 2.43627 2.35294 0
M  V30 7 C -0.732 3.65373 2.2001 0
M  V30 8 S 0.101 5.13292 1.52614 0
M  V30 9 C 1.257 5.56322 2.86805 0
M  V30 10 H 1.49 2.90518 0.631377 0
M  V30 11 H -0.977 1.52953 0.210867 0
M  V30 12 H 0.981 2.67203 3.11629 0
M  V30 13 H -0.358 1.57376 2.7183 0
M  V30 14 H -1.165 3.90944 3.18086 0
M  V30 15 H -1.563 3.418 1.51819 0
M  V30 16 H 0.729 5.58782 3.83104 0
M  V30 17 H 1.672 6.56266 2.65933 0
M  V30 18 H 2.08 4.83886 2.90714 0
M  V30 19 N 1.4781 -0.272755 1.55222 0
M  V30 20 C 2.4411 -1.32041 1.87344 0
M  V30 21 C 3.4411 -1.42342 0.74803 0
M  V30 22 O 4.6311 -1.41488 1.0162 0
M  V30 23 C 1.7631 -2.70173 2.07893 0
M  V30 24 H 2.9561 -1.04789 2.80997 0
M  V30 25 H 0.5091 -0.51083 1.47717 0
M  V30 26 H 1.2441 -3.02605 1.16622 0
M  V30 27 H 1.0291 -2.64082 2.89833 0
M  V30 28 H 2.5191 -3.45869 2.34017 0
M  V30 29 N 2.9562 -1.48159 -0.537278 0
M  V30 30 C 3.9032 -1.62138 -1.64256 0
M  V30 31 C 4.8732 -0.463668 -1.59497 0
M  V30 32 O 6.0582 -0.686241 -1.78032 0
M  V30 33 C 3.1982 -1.66028 -3.02537 0
M  V30 34 C 2.3112 -2.92855 -3.17585 0
M  V30 35 C 1.4462 -2.87952 -4.46382 0
M  V30 36 C 0.4852 -4.09516 -4.54932 0
M  V30 37 N -0.3778 -4.02733 -5.75109 0
M  V30 38 H 4.4622 -2.56529 -1.51647 0
M  V30 39 H 1.9992 -1.27224 -0.738414 0
M  V30 40 H 3.9572 -1.66265 -3.82638 0
M  V30 41 H 2.5872 -0.751331 -3.13934 0
M  V30 42 H 1.6392 -3.02395 -2.30784 0
M  V30 43 H 2.9512 -3.82822 -3.19764 0
M  V30 44 H 2.1052 -2.8655 -5.34765 0
M  V30 45 H 0.8442 -1.95702 -4.46712 0
M  V30 46 H -0.1508 -4.11201 -3.64957 0
M  V30 47 H 1.0742 -5.02917 -4.56346 0
M  V30 48 H -0.9798 -3.13299 -5.76351 0
M  V30 49 H -1.0628 -4.86397 -5.78752 0
M  V30 50 H 0.2052 -4.05379 -6.65799 0
M  V30 51 N 4.4343 0.785586 -1.36625 0
M  V30 52 C 5.3813 1.89838 -1.31264 0
M  V30 53 C 6.3513 1.65115 -0.180633 0
M  V30 54 O 7.5363 1.87222 -0.36777 0
M  V30 55 C 4.6763 3.26706 -1.11163 0
M  V30 56 C 3.7893 3.63476 -2.33472 0
M  V30 57 C 2.9243 4.89481 -2.06353 0
M  V30 58 C 1.9633 5.18941 -3.24602 0
M  V30 59 N 1.1003 6.36131 -2.97123 0
M  V30 60 H 5.9403 1.93756 -2.26413 0
M  V30 61 H 3.4773 0.947454 -1.12524 0
M  V30 62 H 5.4353 4.05639 -0.975337 0
M  V30 63 H 4.0653 3.222 -0.196674 0
M  V30 64 H 3.1173 2.79636 -2.57891 0
M  V30 65 H 4.4293 3.81193 -3.21704 0
M  V30 66 H 3.5833 5.76288 -1.89675 0
M  V30 67 H 2.3223 4.73841 -1.15437 0
M  V30 68 H 1.3273 4.30615 -3.41834 0
M  V30 69 H 2.5523 5.36498 -4.16349 0
M  V30 70 H 0.4983 6.21875 -2.08823 0
M  V30 71 H 0.4153 6.54198 -3.78894 0
M  V30 72 H 1.6833 7.2591 -2.84033 0
M  V30 73 N 5.9124 1.20967 1.01018 0
M  V30 74 C 7.1374 1.0503 1.78839 0
M  V30 75 C 7.5624 -0.395752 1.8389 0
M  V30 76 O 6.9204 -1.28529 1.27867 0
M  V30 77 C 6.9684 1.64602 3.2084 0
M  V30 78 O 6.0724 0.887988 4.02726 0
M  V30 79 H 5.4134 0.369987 0.551367 0
M  V30 80 H 7.9434 1.60399 1.27018 0
M  V30 81 H 7.9534 1.68607 3.71532 0
M  V30 82 H 6.6284 2.69841 3.16479 0
M  V30 83 H 5.2054 0.922648 3.61305 0
M  V30 84 N 7.3905 -1.2043 1.01659 0
M  V30 85 C 8.3375 -2.23215 0.586822 0
M  V30 86 C 9.3075 -1.61382 -0.393085 0
M  V30 87 O 10.4925 -1.88544 -0.292525 0
M  V30 88 C 7.6325 -3.45032 -0.0687464 0
M  V30 89 C 6.7455 -4.21296 0.955724 0
M  V30 90 C 5.8805 -5.30507 0.271208 0
M  V30 91 C 4.9195 -5.98515 1.28244 0
M  V30 92 N 4.0565 -6.99316 0.62459 0
M  V30 93 H 8.8965 -2.59336 1.46796 0
M  V30 94 H 6.4335 -1.27431 0.734836 0
M  V30 95 H 8.3915 -4.1459 -0.465965 0
M  V30 96 H 7.0215 -3.09604 -0.913529 0
M  V30 97 H 6.0735 -3.50803 1.4711 0
M  V30 98 H 7.3855 -4.6803 1.72479 0
M  V30 99 H 6.5395 -6.06428 -0.18151 0
M  V30 100 H 5.2785 -4.8481 -0.530163 0
M  V30 101 H 4.2835 -5.21355 1.74554 0
M  V30 102 H 5.5085 -6.46298 2.08509 0
M  V30 103 H 3.4545 -6.55812 -0.156914 0
M  V30 104 H 3.3715 -7.44178 1.33172 0
M  V30 105 H 4.6395 -7.79255 0.195462 0
M  V30 106 N 8.8686 -0.792821 -1.36206 0
M  V30 107 C 9.8156 -0.191653 -2.30003 0
M  V30 108 C 10.7856 0.666453 -1.52143 0
M  V30 109 O 11.9706 0.61442 -1.80636 0
M  V30 110 C 9.1106 0.664848 -3.38635 0
M  V30 111 C 8.2236 -0.212175 -4.31479 0
M  V30 112 C 7.3586 0.651022 -5.27196 0
M  V30 113 C 6.3976 -0.227247 -6.11678 0
M  V30 114 N 5.5346 0.595127 -6.99573 0
M  V30 115 H 10.3746 -0.996978 -2.80828 0
M  V30 116 H 7.9116 -0.503206 -1.38225 0
M  V30 117 H 9.8696 1.17645 -4.00269 0
M  V30 118 H 8.4996 1.43557 -2.89122 0
M  V30 119 H 7.5516 -0.841777 -3.70969 0
M  V30 120 H 8.8636 -0.888751 -4.90818 0
M  V30 121 H 8.0176 1.2283 -5.94136 0
M  V30 122 H 6.7566 1.36121 -4.68319 0
M  V30 123 H 5.7616 -0.816904 -5.43697 0
M  V30 124 H 6.9866 -0.93509 -6.72631 0
M  V30 125 H 4.9326 1.28955 -6.432 0
M  V30 126 H 4.8496 -0.0236952 -7.55996 0
M  V30 127 H 6.1176 1.15613 -7.70879 0
M  V30 128 N 10.3467 1.47872 -0.545128 0
M  V30 129 C 11.5717 2.07391 -0.0190611 0
M  V30 130 C 11.9967 1.39688 1.25971 0
M  V30 131 O 11.3547 0.467816 1.7516 0
M  V30 132 C 11.4027 3.60188 0.172335 0
M  V30 133 O 10.5067 3.9339 1.23766 0
M  V30 134 H 9.8477 0.662411 -0.0459059 0
M  V30 135 H 12.3777 1.90066 -0.757365 0
M  V30 136 H 12.3877 4.06129 0.390305 0
M  V30 137 H 11.0627 4.08865 -0.761725 0
M  V30 138 H 9.6397 3.5921 1.00114 0
M  V30 139 N 11.8248 0.280983 1.55075 0
M  V30 140 C 12.7878 -0.590896 2.21452 0
M  V30 141 C 13.7878 -1.07682 1.19421 0
M  V30 142 O 14.9778 -0.97605 1.44288 0
M  V30 143 C 12.1098 -1.81587 2.88511 0
M  V30 144 H 13.3028 -0.0112554 2.99898 0
M  V30 145 H 10.8558 0.0316438 1.56268 0
M  V30 146 H 11.5908 -2.43587 2.14093 0
M  V30 147 H 11.3758 -1.4753 3.63287 0
M  V30 148 H 12.8658 -2.43575 3.39206 0
M  V30 149 N 13.3029 -1.57598 0.00835791 0
M  V30 150 C 14.5509 -1.90551 -0.6734 0
M  V30 151 C 14.8719 -0.883301 -1.73847 0
M  V30 152 O 14.1419 0.0781442 -1.95744 0
M  V30 153 H 12.7219 -0.703312 -0.251717 0
M  V30 154 H 15.3839 -1.94833 0.0512592 0
M  V30 155 H 14.4799 -2.9056 -1.13935 0
M  V30 156 N 14.781 0.264519 -1.55364 0
M  V30 157 C 16.058 1.01677 -1.67096 0
M  V30 158 C 16.438 2.03996 -0.543015 0
M  V30 159 O 15.786 2.23907 0.45585 0
M  V30 160 C 15.996 1.66596 -3.0667 0
M  V30 161 C 17.344 2.17442 -3.64697 0
M  V30 162 O 18.368 1.76568 -3.09358 0
M  V30 163 O 17.227 2.92439 -4.61673 0
M  V30 164 H 14.321 0.472161 -0.678965 0
M  V30 165 H 16.867 0.259703 -1.67701 0
M  V30 166 H 15.639 0.924962 -3.80211 0
M  V30 167 H 15.262 2.48968 -3.10001 0
M  V30 168 N 16.2591 1.48442 0.529413 0
M  V30 169 C 17.2071 1.63452 1.65487 0
M  V30 170 C 18.2011 0.500955 1.61823 0
M  V30 171 O 19.4071 0.679695 1.66674 0
M  V30 172 H 15.7821 0.514905 0.548066 0
M  V30 173 H 17.7531 2.57975 1.49971 0
M  V30 174 C 16.5021 1.69196 3.03756 0
M  V30 175 H 15.8251 2.55784 3.07269 0
M  V30 176 H 17.2651 1.83743 3.82119 0
M  V30 177 C 15.7241 0.430765 3.34135 0
M  V30 178 O 16.2541 -0.4561 3.99102 0
M  V30 179 N 14.4601 0.302293 2.89023 0
M  V30 180 H 14.0071 1.02496 2.36331 0
M  V30 181 H 13.9651 -0.540546 3.09718 0
M  V30 182 N 17.7372 -0.778329 1.37039 0
M  V30 183 C 18.9862 -1.53189 1.3121 0
M  V30 184 C 19.2992 -1.95328 -0.103095 0
M  V30 185 O 20.5052 -2.70012 -0.283826 0
M  V30 186 C 18.9612 -2.76591 2.30272 0
M  V30 187 C 18.5692 -2.41577 3.77286 0
M  V30 188 C 20.3132 -3.5455 2.33441 0
M  V30 189 C 18.2202 -3.61441 4.68096 0
M  V30 190 H 17.1502 -0.5751 0.487622 0
M  V30 191 H 19.8012 -0.853101 1.62464 0
M  V30 192 H 18.1832 -3.46326 1.92027 0
M  V30 193 H 19.3572 -1.79668 4.2433 0
M  V30 194 H 17.6722 -1.76806 3.76999 0
M  V30 195 H 20.2692 -4.43628 2.98493 0
M  V30 196 H 20.6122 -3.93936 1.34611 0
M  V30 197 H 21.1452 -2.91805 2.7036 0
M  V30 198 H 17.8842 -3.27142 5.6803 0
M  V30 199 H 17.4042 -4.22478 4.25761 0
M  V30 200 H 19.0832 -4.28335 4.8491 0
M  V30 201 N 19.2153 -1.21501 -1.00376 0
M  V30 202 C 20.1633 -0.972442 -2.11297 0
M  V30 203 C 21.1573 0.080731 -1.69208 0
M  V30 204 O 22.3633 -0.0707666 -1.79861 0
M  V30 205 H 18.7383 -0.297218 -0.690772 0
M  V30 206 H 20.7093 -1.91394 -2.28934 0
M  V30 207 C 19.4583 -0.555065 -3.43241 0
M  V30 208 H 18.7813 -1.35709 -3.76062 0
M  V30 209 H 20.2213 -0.424664 -4.21868 0
M  V30 210 C 18.6803 0.734147 -3.28804 0
M  V30 211 O 19.2103 1.78937 -3.59645 0
M  V30 212 N 17.4163 0.701133 -2.82015 0
M  V30 213 H 16.9633 -0.157874 -2.57116 0
M  V30 214 H 16.9213 1.56403 -2.72737 0
M  V30 215 N 20.6934 1.19889 -1.02296 0
M  V30 216 C 21.6564 2.21116 -0.603351 0
M  V30 217 C 22.6564 1.5738 0.329884 0
M  V30 218 O 23.8464 1.73802 0.117702 0
M  V30 219 C 20.9784 3.40696 0.117992 0
M  V30 220 H 22.1714 2.59754 -1.49893 0
M  V30 221 H 19.7244 1.33463 -0.813468 0
M  V30 222 H 20.4594 3.07569 1.0282 0
M  V30 223 H 20.2444 3.88188 -0.552511 0
M  V30 224 H 21.7344 4.15692 0.398696 0
M  V30 225 N 22.1715 0.800033 1.35784 0
M  V30 226 C 23.1185 0.203848 2.29898 0
M  V30 227 C 24.0885 -0.658375 1.52495 0
M  V30 228 O 25.2735 -0.604832 1.8096 0
M  V30 229 C 22.4135 -0.64688 3.38983 0
M  V30 230 C 21.5265 0.235054 4.3136 0
M  V30 231 C 20.6615 -0.623054 5.27533 0
M  V30 232 C 19.7005 0.259682 6.11549 0
M  V30 233 N 18.8375 -0.558019 6.99879 0
M  V30 234 H 23.6775 1.01186 2.80295 0
M  V30 235 H 21.2145 0.51053 1.37957 0
M  V30 236 H 23.1725 -1.15521 4.00887 0
M  V30 237 H 21.8025 -1.42021 2.89879 0
M  V30 238 H 20.8545 0.861438 3.70518 0
M  V30 239 H 22.1665 0.914768 4.9034 0
M  V30 240 H 21.3205 -1.19678 5.94779 0
M  V30 241 H 20.0595 -1.33636 4.69034 0
M  V30 242 H 19.0645 0.845726 5.43256 0
M  V30 243 H 20.2895 0.970748 6.72126 0
M  V30 244 H 18.2355 -1.25542 6.43875 0
M  V30 245 H 18.1525 0.0637872 7.55973 0
M  V30 246 H 19.4205 -1.11523 7.71481 0
M  V30 247 N 23.6496 -1.47581 0.552962 0
M  V30 248 C 24.5796 -2.32762 -0.185451 0
M  V30 249 C 25.5606 -1.43527 -0.912905 0
M  V30 250 O 26.7456 -1.72388 -0.894201 0
M  V30 251 C 23.8756 -3.25219 -1.21859 0
M  V30 252 C 22.8296 -4.23661 -0.607864 0
M  V30 253 C 22.1556 -5.05413 -1.74533 0
M  V30 254 C 23.4556 -5.20481 0.435582 0
M  V30 255 H 25.1496 -2.94749 0.525684 0
M  V30 256 H 22.6956 -1.41738 0.254251 0
M  V30 257 H 24.6486 -3.8365 -1.7433 0
M  V30 258 H 23.3726 -2.61279 -1.95961 0
M  V30 259 H 22.0316 -3.66451 -0.104489 0
M  V30 260 H 21.6796 -4.3788 -2.47529 0
M  V30 261 H 21.3796 -5.72059 -1.34249 0
M  V30 262 H 22.9036 -5.66701 -2.27338 0
M  V30 263 H 24.3176 -5.733 -0.00290157 0
M  V30 264 H 22.7146 -5.95305 0.757067 0
M  V30 265 H 23.7846 -4.66217 1.33303 0
M  V30 266 N 25.1277 -0.289203 -1.54924 0
M  V30 267 C 26.0597 0.625583 -2.20497 0
M  V30 268 C 27.0727 1.10667 -1.19402 0
M  V30 269 O 28.2617 1.02615 -1.46056 0
M  V30 270 C 25.3617 1.86702 -2.82835 0
M  V30 271 C 24.5347 1.5304 -4.09753 0
M  V30 272 C 23.5937 2.62576 -4.56005 0
M  V30 273 O 22.6197 2.28167 -5.21468 0
M  V30 274 N 23.8217 3.92901 -4.27328 0
M  V30 275 H 26.5867 0.0642801 -2.99631 0
M  V30 276 H 24.1477 -0.110896 -1.6152 0
M  V30 277 H 26.1397 2.59304 -3.10715 0
M  V30 278 H 24.7097 2.33702 -2.07611 0
M  V30 279 H 23.9297 0.637564 -3.8901 0
M  V30 280 H 25.2177 1.28072 -4.92418 0
M  V30 281 H 24.6157 4.23671 -3.74859 0
M  V30 282 H 23.1727 4.61837 -4.59946 0
M  V30 283 N 26.6058 1.57591 -0.0167156 0
M  V30 284 C 27.5358 2.12496 0.967858 0
M  V30 285 C 28.5168 1.03807 1.34752 0
M  V30 286 O 29.7018 1.31577 1.42833 0
M  V30 287 C 26.8318 2.64194 2.25431 0
M  V30 288 C 25.7858 3.77559 2.01576 0
M  V30 289 C 25.1118 4.15636 3.36379 0
M  V30 290 C 26.4118 5.04151 1.36489 0
M  V30 291 H 28.1058 2.95013 0.510643 0
M  V30 292 H 25.6518 1.41915 0.244181 0
M  V30 293 H 27.6048 3.01236 2.94678 0
M  V30 294 H 26.3288 1.78821 2.73296 0
M  V30 295 H 24.9878 3.40937 1.34751 0
M  V30 296 H 24.6358 3.27263 3.81979 0
M  V30 297 H 24.3358 4.92022 3.21229 0
M  V30 298 H 25.8598 4.5525 4.06915 0
M  V30 299 H 27.2738 5.38857 1.95718 0
M  V30 300 H 25.6708 5.85453 1.31776 0
M  V30 301 H 26.7408 4.83733 0.336219 0
M  V30 302 N 28.0839 -0.256276 1.55502 0
M  V30 303 C 29.3299 -0.987079 1.77157 0
M  V30 304 C 29.6629 -1.85327 0.580315 0
M  V30 305 O 28.9379 -1.89874 -0.421686 0
M  V30 306 C 29.2209 -1.85553 3.08613 0
M  V30 307 C 29.0739 -1.01816 4.38125 0
M  V30 308 C 30.3929 -2.8397 3.36228 0
M  V30 309 H 27.5119 -0.357428 0.644526 0
M  V30 310 H 30.1539 -0.258239 1.88237 0
M  V30 311 H 28.3039 -2.47695 2.99298 0
M  V30 312 H 29.9759 -0.416159 4.59419 0
M  V30 313 H 28.2189 -0.322178 4.32602 0
M  V30 314 H 28.8899 -1.65939 5.26468 0
M  V30 315 H 31.3659 -2.31964 3.45445 0
M  V30 316 H 30.2419 -3.41864 4.29442 0
M  V30 317 H 30.5029 -3.59955 2.56681 0
M  V30 318 N 29.562 -1.4872 -0.521534 0
M  V30 319 C 30.495 -1.58451 -1.64221 0
M  V30 320 C 31.473 -0.434513 -1.56687 0
M  V30 321 O 32.657 -0.647275 -1.77038 0
M  V30 322 C 29.784 -1.52037 -3.02659 0
M  V30 323 C 28.83 -2.71981 -3.28525 0
M  V30 324 S 29.663 -4.33869 -3.13876 0
M  V30 325 C 30.819 -4.30067 -4.54745 0
M  V30 326 H 31.052 -2.53256 -1.55719 0
M  V30 327 H 28.585 -1.37358 -0.705143 0
M  V30 328 H 30.543 -1.49023 -3.82495 0
M  V30 329 H 29.204 -0.585541 -3.08594 0
M  V30 330 H 28.397 -2.63656 -4.29536 0
M  V30 331 H 27.999 -2.72302 -2.56374 0
M  V30 332 H 30.291 -4.00521 -5.46433 0
M  V30 333 H 31.234 -5.31287 -4.68123 0
M  V30 334 H 31.642 -3.60419 -4.34463 0
M  V30 335 N 31.0401 0.771051 -1.3745 0
M  V30 336 C 31.9871 1.88435 -1.3327 0
M  V30 337 C 32.9571 1.64914 -0.198136 0
M  V30 338 O 34.1421 1.86821 -0.387606 0
M  V30 339 C 31.2821 3.25509 -1.14622 0
M  V30 340 C 30.3951 3.60979 -2.37314 0
M  V30 341 C 29.5301 4.87265 -2.11533 0
M  V30 342 C 28.5691 5.15469 -3.30088 0
M  V30 343 N 27.7061 6.32944 -3.03853 0
M  V30 344 H 32.5461 1.91344 -2.28455 0
M  V30 345 H 30.0831 0.935466 -1.13523 0
M  V30 346 H 32.0411 4.04582 -1.01831 0
M  V30 347 H 30.6711 3.21974 -0.230837 0
M  V30 348 H 29.7231 2.76885 -2.60842 0
M  V30 349 H 31.0351 3.77759 -3.25729 0
M  V30 350 H 30.1891 5.74244 -1.95777 0
M  V30 351 H 28.9281 4.7259 -1.20457 0
M  V30 352 H 27.9331 4.26966 -3.46382 0
M  V30 353 H 29.1581 5.32052 -4.22016 0
M  V30 354 H 27.1041 6.19625 -2.15407 0
M  V30 355 H 27.0211 6.50143 -3.85812 0
M  V30 356 H 28.2891 7.22857 -2.91716 0
M  V30 357 N 32.5182 1.22032 0.997298 0
M  V30 358 C 33.7432 1.06921 1.77715 0
M  V30 359 C 34.1682 -0.376226 1.84299 0
M  V30 360 O 33.5262 -1.27165 1.29223 0
M  V30 361 C 33.5742 1.67996 3.19076 0
M  V30 362 O 32.6782 0.930653 4.01762 0
M  V30 363 H 32.0192 0.375814 0.547412 0
M  V30 364 H 34.5492 1.61737 1.25309 0
M  V30 365 H 34.5592 1.72538 3.69723 0
M  V30 366 H 33.2342 2.73182 3.13599 0
M  V30 367 H 31.8112 0.960917 3.60307 0
M  V30 368 N 33.9963 -1.19345 1.0293 0
M  V30 369 C 35.2443 -1.88665 0.724574 0
M  V30 370 C 35.5653 -1.80036 -0.749144 0
M  V30 371 O 34.8353 -1.2111 -1.53978 0
M  V30 372 H 33.4153 -0.698406 0.265025 0
M  V30 373 H 36.0773 -1.44885 1.30362 0
M  V30 374 H 35.1733 -2.94987 1.01926 0
M  V30 375 N 35.4744 -0.807222 -1.35358 0
M  V30 376 C 36.4214 -0.216037 -2.29787 0
M  V30 377 C 37.3914 0.650278 -1.52842 0
M  V30 378 O 38.5764 0.595227 -1.81278 0
M  V30 379 C 35.7164 0.628893 -3.39321 0
M  V30 380 C 34.8294 -0.257927 -4.31229 0
M  V30 381 C 33.9644 0.595069 -5.27856 0
M  V30 382 C 33.0034 -0.292111 -6.11403 0
M  V30 383 N 32.1404 0.520895 -7.00165 0
M  V30 384 H 36.9804 -1.02671 -2.79755 0
M  V30 385 H 34.5174 -0.517839 -1.37684 0
M  V30 386 H 36.4754 1.13393 -4.01494 0
M  V30 387 H 35.1054 1.40482 -2.90628 0
M  V30 388 H 34.1574 -0.881076 -3.70056 0
M  V30 389 H 35.4694 -0.940759 -4.89848 0
M  V30 390 H 34.6234 1.16522 -5.95405 0
M  V30 391 H 33.3624 1.31146 -4.69736 0
M  V30 392 H 32.3674 -0.874525 -5.428 0
M  V30 393 H 33.5924 -1.00638 -6.71602 0
M  V30 394 H 31.5384 1.22125 -6.44532 0
M  V30 395 H 31.4554 -0.103877 -7.55929 0
M  V30 396 H 32.7234 1.0743 -7.72062 0
M  V30 397 N 36.9525 1.47285 -0.560781 0
M  V30 398 C 38.1825 2.06555 -0.0429638 0
M  V30 399 C 38.5905 1.41339 1.25777 0
M  V30 400 O 37.9335 0.505182 1.76617 0
M  V30 401 C 37.9955 3.58827 0.219887 0
M  V30 402 C 37.6595 4.46105 -0.991944 0
M  V30 403 C 38.6565 4.84 -1.89843 0
M  V30 404 C 36.3415 4.87567 -1.20762 0
M  V30 405 C 38.3355 5.6216 -3.00425 0
M  V30 406 C 36.0225 5.65491 -2.31653 0
M  V30 407 C 37.0205 6.02699 -3.21315 0
M  V30 408 O 36.7085 6.79052 -4.30283 0
M  V30 409 H 36.4405 0.674537 -0.0444468 0
M  V30 410 H 38.9945 1.90225 -0.774818 0
M  V30 411 H 37.2245 3.73383 1.00609 0
M  V30 412 H 38.9135 4.00103 0.683522 0
M  V30 413 H 39.6795 4.52564 -1.74387 0
M  V30 414 H 35.5585 4.5807 -0.518893 0
M  V30 415 H 39.1025 5.9112 -3.70436 0
M  V30 416 H 34.9995 5.9634 -2.47081 0
M  V30 417 H 35.7675 6.9745 -4.28376 0
M  V30 418 N 38.4306 0.297415 1.54768 0
M  V30 419 C 39.3626 -0.613881 2.20826 0
M  V30 420 C 40.3756 -1.10032 1.19987 0
M  V30 421 O 41.5646 -1.01839 1.46598 0
M  V30 422 C 38.6646 -1.852 2.83821 0
M  V30 423 C 37.8376 -1.50865 4.10559 0
M  V30 424 C 36.8966 -2.60154 4.57391 0
M  V30 425 O 35.9226 -2.25398 5.2267 0
M  V30 426 N 37.1246 -3.90629 4.29406 0
M  V30 427 H 39.8896 -0.048389 2.99661 0
M  V30 428 H 37.4506 0.11946 1.61459 0
M  V30 429 H 39.4426 -2.57652 3.12086 0
M  V30 430 H 38.0126 -2.32597 2.08847 0
M  V30 431 H 37.2326 -0.616925 3.89343 0
M  V30 432 H 38.5206 -1.25458 4.9309 0
M  V30 433 H 37.9186 -4.21677 3.77101 0
M  V30 434 H 36.4756 -4.59391 4.62388 0
M  V30 435 N 39.9087 -1.5758 0.0250728 0
M  V30 436 C 41.1557 -1.91633 -0.654444 0
M  V30 437 C 41.4837 -0.901103 -1.72367 0
M  V30 438 O 40.7387 0.0905647 -1.9549 0
M  V30 439 C 41.0377 -3.32421 -1.31268 0
M  V30 440 C 40.7037 -4.49344 -0.374223 0
M  V30 441 C 39.3657 -4.8106 -0.115911 0
M  V30 442 C 41.7177 -5.20498 0.270432 0
M  V30 443 C 39.0457 -5.8129 0.79493 0
M  V30 444 C 41.3977 -6.21699 1.1693 0
M  V30 445 C 40.0617 -6.51859 1.43655 0
M  V30 446 H 39.3317 -0.701236 -0.239478 0
M  V30 447 H 41.9787 -1.91307 0.0859734 0
M  V30 448 H 40.2837 -3.28989 -2.12775 0
M  V30 449 H 41.9807 -3.56038 -1.84494 0
M  V30 450 H 38.5707 -4.24579 -0.58573 0
M  V30 451 H 42.7547 -4.96229 0.0839194 0
M  V30 452 H 38.0107 -6.03005 1.00973 0
M  V30 453 H 42.1847 -6.75955 1.67504 0
M  V30 454 H 39.8117 -7.2934 2.144 0
M  V30 455 N 41.3868 0.248026 -1.55636 0
M  V30 456 C 42.6348 0.974295 -1.77065 0
M  V30 457 C 42.9558 1.85897 -0.588849 0
M  V30 458 O 42.2258 1.91868 0.395407 0
M  V30 459 H 40.8058 0.362733 -0.653019 0
M  V30 460 H 43.4678 0.266244 -1.93073 0
M  V30 461 H 42.5638 1.59667 -2.68166 0
M  V30 462 N 42.8649 1.48995 0.513639 0
M  V30 463 C 44.2809 1.35478 0.843682 0
M  V30 464 C 44.4809 0.378213 1.97919 0
M  V30 465 O 43.5369 -0.194689 2.51748 0
M  V30 466 C 44.8499 2.75901 1.1958 0
M  V30 467 C 46.3979 2.84509 1.30474 0
M  V30 468 C 46.8729 4.25671 1.69021 0
M  V30 469 N 48.3639 4.28422 1.76094 0
M  V30 470 C 49.0989 5.34601 2.07338 0
M  V30 471 N 48.5949 6.5104 2.36894 0
M  V30 472 N 50.3879 5.22007 2.08483 0
M  V30 473 H 42.5389 2.11092 -0.235328 0
M  V30 474 H 44.8019 0.947039 -0.0426669 0
M  V30 475 H 44.5079 3.49001 0.434913 0
M  V30 476 H 44.3819 3.10467 2.1422 0
M  V30 477 H 46.7689 2.11655 2.05637 0
M  V30 478 H 46.8499 2.53542 0.339155 0
M  V30 479 H 46.4939 4.99048 0.944135 0
M  V30 480 H 46.4239 4.54094 2.66658 0
M  V30 481 H 48.9149 3.44441 1.55464 0
M  V30 482 H 49.2279 7.2779 2.59887 0
M  V30 483 H 47.5729 6.54287 2.34378 0
M  V30 484 H 50.7639 4.30051 1.84861 0
M  V30 485 H 50.9369 6.04854 2.325 0
M  V30 486 N 44.343 -0.763751 1.37857 0
M  V30 487 C 45.29 -1.87726 1.34267 0
M  V30 488 C 46.26 -1.64807 0.206879 0
M  V30 489 O 47.445 -1.86613 0.397508 0
M  V30 490 C 44.585 -3.24896 1.16346 0
M  V30 491 C 43.698 -3.59716 2.39225 0
M  V30 492 C 42.833 -4.86137 2.14114 0
M  V30 493 C 41.872 -5.13711 3.32817 0
M  V30 494 N 41.009 -6.31323 3.07206 0
M  V30 495 H 45.849 -1.90129 2.29466 0
M  V30 496 H 43.386 -0.929433 1.14017 0
M  V30 497 H 45.344 -4.04036 1.03975 0
M  V30 498 H 43.974 -3.21847 0.247909 0
M  V30 499 H 43.026 -2.75498 2.62307 0
M  V30 500 H 44.338 -3.76027 3.27728 0
M  V30 501 H 43.492 -5.73198 1.9882 0
M  V30 502 H 42.231 -4.71945 1.22961 0
M  V30 503 H 41.236 -4.25123 3.48641 0
M  V30 504 H 42.461 -5.29807 4.24832 0
M  V30 505 H 40.407 -6.18474 2.1869 0
M  V30 506 H 40.324 -6.48087 3.89254 0
M  V30 507 H 41.592 -7.213 2.95546 0
M  V30 508 N 45.8211 -1.22559 -0.990812 0
M  V30 509 C 47.0461 -1.07862 -1.77145 0
M  V30 510 C 47.4711 0.366447 -1.84496 0
M  V30 511 O 46.8291 1.26478 -1.29896 0
M  V30 512 C 46.8771 -1.69686 -3.18181 0
M  V30 513 O 45.9811 -0.951946 -4.01263 0
M  V30 514 H 45.3221 -0.378712 -0.545411 0
M  V30 515 H 47.8521 -1.62399 -1.2445 0
M  V30 516 H 47.8621 -1.74496 -3.68802 0
M  V30 517 H 46.5371 -2.74841 -3.12146 0
M  V30 518 H 45.1141 -0.980011 -3.59792 0
M  V30 519 N 47.2992 1.18797 -1.03562 0
M  V30 520 C 48.5392 1.90346 -0.744832 0
M  V30 521 C 48.9032 1.78231 0.713972 0
M  V30 522 O 50.1042 2.44441 1.11813 0
M  V30 523 C 48.3752 3.36942 -1.19184 0
M  V30 524 S 49.9342 4.26638 -1.02593 0
M  V30 525 H 46.7522 0.657343 -0.270963 0
M  V30 526 H 49.3542 1.43579 -1.32685 0
M  V30 527 H 48.0582 3.43287 -2.24905 0
M  V30 528 H 47.5892 3.88745 -0.603397 0
M  V30 529 H 49.6042 4.96164 0.0596033 0
M  V30 530 N 48.7773 0.814389 1.34928 0
M  V30 531 C 49.7073 0.244827 2.32213 0
M  V30 532 C 50.6883 -0.634024 1.57842 0
M  V30 533 O 51.8733 -0.562676 1.8587 0
M  V30 534 C 49.0033 -0.601106 3.42058 0
M  V30 535 C 47.9573 0.179896 4.27622 0
M  V30 536 C 47.2833 -0.788237 5.28858 0
M  V30 537 C 48.5833 1.38329 5.03649 0
M  V30 538 H 50.2773 1.05763 2.80097 0
M  V30 539 H 47.8233 0.510029 1.34665 0
M  V30 540 H 49.7763 -1.00968 4.09125 0
M  V30 541 H 48.5003 -1.44688 2.92802 0
M  V30 542 H 47.1593 0.569739 3.62146 0
M  V30 543 H 46.8073 -1.62973 4.75866 0
M  V30 544 H 46.5073 -0.269942 5.8698 0
M  V30 545 H 48.0313 -1.19485 5.98795 0
M  V30 546 H 49.4453 1.04918 5.63618 0
M  V30 547 H 47.8423 1.83662 5.71304 0
M  V30 548 H 48.9123 2.16592 4.33839 0
M  V30 549 N 50.2554 -1.46986 0.568584 0
M  V30 550 C 51.2024 -2.30153 -0.172707 0
M  V30 551 C 52.1724 -1.39759 -0.897586 0
M  V30 552 O 53.3574 -1.68716 -0.891044 0
M  V30 553 C 50.4974 -3.23952 -1.1895 0
M  V30 554 C 49.6104 -4.29441 -0.469517 0
M  V30 555 C 48.7454 -5.1038 -1.47259 0
M  V30 556 C 47.7844 -6.07632 -0.738225 0
M  V30 557 N 46.9214 -6.8149 -1.68868 0
M  V30 558 H 51.7614 -2.93019 0.542596 0
M  V30 559 H 49.2984 -1.44422 0.279401 0
M  V30 560 H 51.2564 -3.76767 -1.79173 0
M  V30 561 H 49.8864 -2.62926 -1.87269 0
M  V30 562 H 48.9384 -3.79594 0.247467 0
M  V30 563 H 50.2504 -4.98689 0.105241 0
M  V30 564 H 49.4044 -5.67402 -2.14803 0
M  V30 565 H 48.1434 -4.4106 -2.08128 0
M  V30 566 H 47.1484 -5.49778 -0.0489293 0
M  V30 567 H 48.3734 -6.78966 -0.135129 0
M  V30 568 H 46.3194 -6.14891 -2.28573 0
M  V30 569 H 46.2364 -7.46948 -1.16636 0
M  V30 570 H 47.5044 -7.43078 -2.3549 0
M  V30 571 N 51.7335 -0.305618 -1.54608 0
M  V30 572 C 52.6965 0.555591 -2.22364 0
M  V30 573 C 53.6965 1.05768 -1.21119 0
M  V30 574 O 54.8865 0.952972 -1.45822 0
M  V30 575 C 52.0185 1.76974 -2.91364 0
M  V30 576 H 53.2115 -0.0364572 -2.99878 0
M  V30 577 H 50.7645 -0.0565007 -1.56198 0
M  V30 578 H 51.4995 2.40151 -2.17941 0
M  V30 579 H 51.2845 1.41732 -3.65588 0
M  V30 580 H 52.7745 2.38148 -3.43038 0
M  V30 581 N 53.2116 1.57565 -0.0334293 0
M  V30 582 C 54.1416 2.13511 0.945265 0
M  V30 583 C 55.1226 1.05231 1.33643 0
M  V30 584 O 56.3076 1.33084 1.41429 0
M  V30 585 C 53.4376 2.6657 2.22616 0
M  V30 586 C 52.3916 3.79676 1.97561 0
M  V30 587 C 51.7176 4.1918 3.31952 0
M  V30 588 C 53.0176 5.0557 1.31135 0
M  V30 589 H 54.7116 2.95538 0.479325 0
M  V30 590 H 52.2576 1.42166 0.229115 0
M  V30 591 H 54.2106 3.04344 2.91466 0
M  V30 592 H 52.9346 1.8171 2.71384 0
M  V30 593 H 51.5936 3.42347 1.31127 0
M  V30 594 H 51.2416 3.31296 3.78487 0
M  V30 595 H 50.9416 4.95402 3.15992 0
M  V30 596 H 52.4656 4.59541 4.02063 0
M  V30 597 H 53.8796 5.40903 1.89992 0
M  V30 598 H 52.2766 5.86818 1.25559 0
M  V30 599 H 53.3466 4.84062 0.284894 0
M  V30 600 N 54.6897 -0.239769 1.55765 0
M  V30 601 C 56.1057 -0.588624 1.48349 0
M  V30 602 C 56.3057 -1.88005 0.72502 0
M  V30 603 O 55.3617 -2.51186 0.257269 0
M  V30 604 C 56.6747 -0.68474 2.928 0
M  V30 605 C 58.2227 -0.77659 3.03213 0
M  V30 606 C 58.6977 -0.904207 4.48986 0
M  V30 607 N 60.1887 -0.968896 4.52953 0
M  V30 608 C 60.9237 -1.08703 5.63002 0
M  V30 609 N 60.4197 -1.17026 6.82845 0
M  V30 610 N 62.2127 -1.12074 5.50814 0
M  V30 611 H 54.3637 0.607911 2.03515 0
M  V30 612 H 56.6267 0.21083 0.924259 0
M  V30 613 H 56.3327 0.194284 3.51163 0
M  V30 614 H 56.2067 -1.55435 3.43686 0
M  V30 615 H 58.5937 -1.64606 2.44926 0
M  V30 616 H 58.6747 0.118315 2.55526 0
M  V30 617 H 58.3187 -0.0392633 5.07885 0
M  V30 618 H 58.2487 -1.81426 4.9436 0
M  V30 619 H 60.7397 -0.915633 3.6664 0
M  V30 620 H 61.0527 -1.25966 7.62465 0
M  V30 621 H 59.3977 -1.13971 6.85591 0
M  V30 622 H 62.5887 -1.05226 4.5612 0
M  V30 623 H 62.7617 -1.20936 6.36615 0
M  V30 624 N 56.1678 -1.49265 -0.50573 0
M  V30 625 C 57.3958 -1.62215 -1.28429 0
M  V30 626 C 57.8108 -0.291697 -1.86533 0
M  V30 627 O 57.1678 0.722233 -1.67601 0
M  V30 628 C 57.2188 -2.68735 -2.41793 0
M  V30 629 O 56.9398 -3.96619 -1.86078 0
M  V30 630 C 58.4408 -2.92346 -3.3324 0
M  V30 631 H 55.6608 -0.546239 -0.389697 0
M  V30 632 H 58.2048 -1.95265 -0.607609 0
M  V30 633 H 56.3598 -2.38476 -3.053 0
M  V30 634 H 56.7738 -4.55256 -2.60465 0
M  V30 635 H 58.2478 -3.70623 -4.09075 0
M  V30 636 H 58.7248 -2.02081 -3.89948 0
M  V30 637 H 59.3308 -3.24003 -2.75503 0
M  V30 638 N 57.6459 0.756429 -1.3826 0
M  V30 639 C 58.8939 1.51248 -1.34047 0
M  V30 640 C 59.2149 1.94875 0.0698372 0
M  V30 641 O 58.4849 1.67436 1.01696 0
M  V30 642 H 57.0649 0.561018 -0.493222 0
M  V30 643 H 59.7269 0.899347 -1.7291 0
M  V30 644 H 58.8229 2.40472 -1.98947 0
M  V30 645 N 59.124 1.23083 0.984299 0
M  V30 646 C 60.071 1.00854 2.07598 0
M  V30 647 C 61.041 -0.0726709 1.65941 0
M  V30 648 O 62.226 0.0786535 1.90638 0
M  V30 649 C 59.366 0.601645 3.39815 0
M  V30 650 C 58.479 1.75456 3.94765 0
M  V30 651 C 57.614 1.29482 5.15177 0
M  V30 652 C 56.653 2.41873 5.62284 0
M  V30 653 N 55.79 1.96885 6.73929 0
M  V30 654 H 60.63 1.943 2.25946 0
M  V30 655 H 58.167 0.968001 1.10762 0
M  V30 656 H 60.125 0.346854 4.15756 0
M  V30 657 H 58.755 -0.295803 3.21442 0
M  V30 658 H 57.807 2.12346 3.15616 0
M  V30 659 H 59.119 2.59965 4.25699 0
M  V30 660 H 58.273 0.997923 5.98437 0
M  V30 661 H 57.012 0.420046 4.85888 0
M  V30 662 H 56.017 2.72342 4.77608 0
M  V30 663 H 57.242 3.29881 5.93595 0
M  V30 664 H 55.188 1.11782 6.46406 0
M  V30 665 H 55.105 2.74956 7.04227 0
M  V30 666 H 56.373 1.70289 7.60672 0
M  V30 667 N 60.6021 -1.18246 1.0419 0
M  V30 668 C 61.8501 -1.87886 0.744543 0
M  V30 669 C 62.1711 -1.8082 -0.730006 0
M  V30 670 O 61.4411 -1.22736 -1.52685 0
M  V30 671 H 60.0211 -0.695556 0.272417 0
M  V30 672 H 62.6831 -1.43494 1.31892 0
M  V30 673 H 61.7791 -2.9389 1.05049 0
M  V30 674 N 62.0802 -0.821533 -1.34494 0
M  V30 675 C 63.0272 -0.240397 -2.29545 0
M  V30 676 C 63.9972 0.634031 -1.53523 0
M  V30 677 O 65.1822 0.575966 -1.81899 0
M  V30 678 C 62.3222 0.592869 -3.39969 0
M  V30 679 C 61.4352 -0.30365 -4.30932 0
M  V30 680 C 60.5702 0.539049 -5.28458 0
M  V30 681 C 59.6092 -0.356942 -6.11058 0
M  V30 682 N 58.7462 0.446603 -7.00678 0
M  V30 683 H 63.5862 -1.05632 -2.7865 0
M  V30 684 H 61.1232 -0.532413 -1.37127 0
M  V30 685 H 63.0812 1.09129 -4.02675 0
M  V30 686 H 61.7112 1.37392 -2.92102 0
M  V30 687 H 60.7632 -0.920276 -3.691 0
M  V30 688 H 62.0752 -0.992661 -4.88823 0
M  V30 689 H 61.2292 1.102 -5.96608 0
M  V30 690 H 59.9682 1.26157 -4.71101 0
M  V30 691 H 58.9732 -0.932047 -5.41842 0
M  V30 692 H 60.1982 -1.07755 -6.70497 0
M  V30 693 H 58.1442 1.15282 -6.45791 0
M  V30 694 H 58.0612 -0.184048 -7.55776 0
M  V30 695 H 59.3292 0.992352 -7.73158 0
M  V30 696 N 63.5583 1.46682 -0.576371 0
M  V30 697 C 64.4883 2.33028 0.148397 0
M  V30 698 C 65.4693 1.44961 0.889956 0
M  V30 699 O 66.6543 1.73789 0.866662 0
M  V30 700 C 63.7843 3.27117 1.1667 0
M  V30 701 C 62.7383 4.24575 0.540386 0
M  V30 702 C 62.0643 5.08126 1.6647 0
M  V30 703 C 63.3643 5.19722 -0.518331 0
M  V30 704 H 65.0583 2.93875 -0.572509 0
M  V30 705 H 62.6043 1.41315 -0.276768 0
M  V30 706 H 64.5573 3.86374 1.68204 0
M  V30 707 H 63.2813 2.64364 1.9178 0
M  V30 708 H 61.9403 3.66571 0.0461769 0
M  V30 709 H 61.5883 4.41762 2.40531 0
M  V30 710 H 61.2883 5.74122 1.25131 0
M  V30 711 H 62.8123 5.70246 2.18293 0
M  V30 712 H 64.2263 5.73232 -0.0883058 0
M  V30 713 H 62.6233 5.94026 -0.851679 0
M  V30 714 H 63.6933 4.64037 -1.40703 0
M  V30 715 N 65.0364 0.313813 1.54444 0
M  V30 716 C 66.2824 -0.292108 2.00685 0
M  V30 717 C 66.6154 -1.52548 1.20177 0
M  V30 718 O 65.8904 -1.92452 0.281531 0
M  V30 719 C 66.1734 -0.635968 3.5444 0
M  V30 720 C 66.0264 0.607437 4.4568 0
M  V30 721 C 67.3454 -1.45747 4.15266 0
M  V30 722 H 64.4644 -0.104697 0.729526 0
M  V30 723 H 67.1064 0.428457 1.85106 0
M  V30 724 H 65.2564 -1.24986 3.67846 0
M  V30 725 H 66.9284 1.24581 4.44159 0
M  V30 726 H 65.1714 1.23822 4.15753 0
M  V30 727 H 65.8424 0.322515 5.51057 0
M  V30 728 H 68.3184 -0.938645 4.05375 0
M  V30 729 H 67.1944 -1.66683 5.2298 0
M  V30 730 H 67.4554 -2.45063 3.67963 0
M  V30 731 N 66.5145 -1.57545 0.0417849 0
M  V30 732 C 67.7635 -1.91494 -0.633492 0
M  V30 733 C 68.0765 -0.921084 -1.72556 0
M  V30 734 O 69.2825 -1.15228 -2.45835 0
M  V30 735 C 67.7385 -3.40072 -1.17808 0
M  V30 736 C 67.3465 -4.47843 -0.118633 0
M  V30 737 C 69.0905 -3.8307 -1.82915 0
M  V30 738 C 66.9975 -5.87529 -0.675578 0
M  V30 739 H 65.9275 -0.714653 -0.24039 0
M  V30 740 H 68.5785 -1.83175 0.109148 0
M  V30 741 H 66.9605 -3.43364 -1.97274 0
M  V30 742 H 68.1345 -4.56128 0.654494 0
M  V30 743 H 66.4495 -4.14128 0.434414 0
M  V30 744 H 69.0465 -4.84794 -2.25563 0
M  V30 745 H 69.3895 -3.1881 -2.67705 0
M  V30 746 H 69.9225 -3.82255 -1.10119 0
M  V30 747 H 66.6615 -6.55362 0.134475 0
M  V30 748 H 66.1815 -5.82824 -1.4169 0
M  V30 749 H 67.8605 -6.36491 -1.1614 0
M  V30 750 N 67.9926 0.231505 -1.5589 0
M  V30 751 C 69.2386 0.95877 -1.78705 0
M  V30 752 C 69.5716 1.8438 -0.609725 0
M  V30 753 O 68.8466 1.90521 0.391426 0
M  V30 754 C 69.1296 1.8062 -3.11526 0
M  V30 755 C 68.9826 0.948328 -4.39689 0
M  V30 756 C 70.3016 2.78585 -3.40703 0
M  V30 757 H 67.4206 0.347129 -0.650131 0
M  V30 758 H 70.0626 0.228259 -1.88624 0
M  V30 759 H 68.2126 2.42902 -3.03201 0
M  V30 760 H 69.8846 0.343016 -4.60023 0
M  V30 761 H 68.1276 0.253314 -4.3306 0
M  V30 762 H 68.7986 1.57543 -5.29041 0
M  V30 763 H 71.2746 2.26439 -3.49091 0
M  V30 764 H 70.1506 3.34988 -4.34826 0
M  V30 765 H 70.4116 3.55825 -2.62375 0
M  V30 766 N 69.4707 1.49531 0.497807 0
M  V30 767 C 70.6957 1.63159 1.28039 0
M  V30 768 C 71.1207 0.30418 1.85624 0
M  V30 769 O 70.4787 -0.728618 1.66015 0
M  V30 770 C 70.5267 2.70537 2.38416 0
M  V30 771 O 69.6307 2.29931 3.42353 0
M  V30 772 H 68.9717 0.546001 0.377861 0
M  V30 773 H 71.5017 1.9574 0.59558 0
M  V30 774 H 71.5117 2.92802 2.84132 0
M  V30 775 H 70.1867 3.6689 1.95869 0
M  V30 776 H 68.7637 2.18009 3.02533 0
M  V30 777 N 70.9488 -0.749086 1.3866 0
M  V30 778 C 72.1738 -1.54344 1.38538 0
M  V30 779 C 72.5988 -1.88088 -0.0216655 0
M  V30 780 O 71.9568 -1.50899 -1.00494 0
M  V30 781 C 72.0048 -2.8164 2.25192 0
M  V30 782 O 71.1088 -3.7698 1.67212 0
M  V30 783 H 70.4498 -0.466654 0.472367 0
M  V30 784 H 72.9798 -0.925355 1.82478 0
M  V30 785 H 72.9898 -3.30519 2.3921 0
M  V30 786 H 71.6648 -2.56411 3.27454 0
M  V30 787 H 70.2418 -3.35699 1.6236 0
M  V30 788 N 72.4269 -1.23603 -0.977757 0
M  V30 789 C 73.3749 -1.01704 -2.09187 0
M  V30 790 C 74.3689 0.0448214 -1.69341 0
M  V30 791 O 75.5749 -0.108902 -1.7967 0
M  V30 792 H 71.9499 -0.311803 -0.684312 0
M  V30 793 H 73.9209 -1.96207 -2.24823 0
M  V30 794 C 72.6699 -0.627746 -3.41986 0
M  V30 795 H 71.9929 -1.43656 -3.73099 0
M  V30 796 H 73.4329 -0.514053 -4.20872 0
M  V30 797 C 71.8919 0.664238 -3.30287 0
M  V30 798 O 72.4219 1.71268 -3.6336 0
M  V30 799 N 70.6279 0.641156 -2.83439 0
M  V30 800 H 70.1749 -0.212376 -2.56723 0
M  V30 801 H 70.1329 1.50583 -2.75993 0
M  V30 802 N 73.905 1.17692 -1.04816 0
M  V30 803 C 75.145 1.89545 -0.764979 0
M  V30 804 C 75.509 1.78979 0.695028 0
M  V30 805 O 76.71 2.45613 1.09215 0
M  V30 806 C 74.981 3.35659 -1.22751 0
M  V30 807 S 76.54 4.25526 -1.07112 0
M  V30 808 H 73.358 0.654432 -0.27792 0
M  V30 809 H 75.96 1.42163 -1.34201 0
M  V30 810 H 74.664 3.40882 -2.28533 0
M  V30 811 H 74.195 3.88083 -0.644594 0
M  V30 812 H 76.21 4.962 0.00697508 0
M  V30 813 N 75.3831 0.828654 1.34056 0
M  V30 814 C 76.7941 0.477534 1.8049 0
M  V30 815 C 77.1451 -1.00258 1.6865 0
M  V30 816 O 76.2701 -1.78057 1.22982 0
M  V30 817 C 76.8651 0.860018 3.27703 0
M  V30 818 C 75.4241 0.561185 3.72193 0
M  V30 819 C 74.5711 1.07385 2.55663 0
M  V30 820 H 77.5221 1.0183 1.21722 0
M  V30 821 H 77.5431 0.166038 3.80138 0
M  V30 822 H 77.0551 1.93731 3.36288 0
M  V30 823 H 75.1561 -0.506465 3.69142 0
M  V30 824 H 75.2691 1.10926 4.66082 0
M  V30 825 H 73.6331 0.495149 2.49841 0
M  V30 826 H 74.4161 2.15771 2.67016 0
M  V30 827 N 76.8612 -1.46375 0.584142 0
M  V30 828 C 78.0862 -2.07268 0.0740405 0
M  V30 829 C 78.5112 -1.42979 -1.22223 0
M  V30 830 O 77.8692 -0.514092 -1.73859 0
M  V30 831 C 77.9172 -3.60518 -0.0767769 0
M  V30 832 O 77.0212 -3.96533 -1.13292 0
M  V30 833 H 76.3622 -0.660961 0.0634524 0
M  V30 834 H 78.8922 -1.87991 0.807492 0
M  V30 835 H 78.9022 -4.07021 -0.282489 0
M  V30 836 H 77.5772 -4.06702 0.86986 0
M  V30 837 H 76.1542 -3.61738 -0.905553 0
M  V30 838 N 78.3393 -0.321999 -1.54275 0
M  V30 839 C 79.5883 0.281931 -1.9972 0
M  V30 840 C 79.9013 1.53369 -1.21397 0
M  V30 841 O 81.1073 2.21352 -1.57211 0
M  V30 842 C 79.5633 0.5529 -3.55628 0
M  V30 843 C 79.1713 -0.681721 -4.42783 0
M  V30 844 C 80.9153 1.11687 -4.09544 0
M  V30 845 C 78.8223 -0.382742 -5.9016 0
M  V30 846 H 77.7523 0.109124 -0.746062 0
M  V30 847 H 80.4033 -0.43398 -1.78294 0
M  V30 848 H 78.7853 1.32896 -3.73035 0
M  V30 849 H 79.9593 -1.45723 -4.37151 0
M  V30 850 H 78.2743 -1.1658 -3.99748 0
M  V30 851 H 80.8713 1.35515 -5.17242 0
M  V30 852 H 81.2143 2.06575 -3.61431 0
M  V30 853 H 81.7473 0.402032 -3.95763 0
M  V30 854 H 78.4863 -1.30076 -6.42464 0
M  V30 855 H 78.0063 0.355094 -5.98748 0
M  V30 856 H 79.6853 0.00800157 -6.47 0
M  V30 857 N 79.8174 1.5752 -0.0501392 0
M  V30 858 C 80.7494 2.08413 0.95376 0
M  V30 859 C 81.7624 1.01175 1.27544 0
M  V30 860 O 82.9514 1.28744 1.23641 0
M  V30 861 C 80.0514 2.51138 2.27559 0
M  V30 862 C 79.2244 3.817 2.13598 0
M  V30 863 C 78.2834 4.10749 3.28895 0
M  V30 864 O 77.3094 4.80685 3.04845 0
M  V30 865 N 78.5114 3.62579 4.5334 0
M  V30 866 H 81.2764 2.95165 0.519383 0
M  V30 867 H 78.8374 1.61327 0.136127 0
M  V30 868 H 80.8294 2.67648 3.03557 0
M  V30 869 H 79.3994 1.6964 2.62567 0
M  V30 870 H 78.6194 3.74782 1.22197 0
M  V30 871 H 79.9074 4.67201 2.01496 0
M  V30 872 H 79.3054 3.06039 4.75769 0
M  V30 873 H 77.8624 3.84329 5.26436 0
M  V30 874 N 81.2955 -0.223234 1.56011 0
M  V30 875 C 82.7115 -0.572856 1.48965 0
M  V30 876 C 82.9115 -1.87225 0.74492 0
M  V30 877 O 81.9675 -2.50899 0.283896 0
M  V30 878 C 83.2805 -0.653646 2.9351 0
M  V30 879 C 84.8285 -0.744386 3.0402 0
M  V30 880 C 85.3035 -0.856535 4.49919 0
M  V30 881 N 86.7945 -0.9208 4.53955 0
M  V30 882 C 87.5295 -1.02726 5.64123 0
M  V30 883 N 87.0255 -1.09777 6.84047 0
M  V30 884 N 88.8185 -1.06226 5.51971 0
M  V30 885 H 80.9695 0.629462 2.02858 0
M  V30 886 H 83.2325 0.220621 0.921971 0
M  V30 887 H 82.9385 0.231518 3.50937 0
M  V30 888 H 82.8125 -1.51781 3.45315 0
M  V30 889 H 85.1995 -1.61999 2.46658 0
M  V30 890 H 85.2805 0.14541 2.55386 0
M  V30 891 H 84.9245 0.0146069 5.07898 0
M  V30 892 H 84.8545 -1.76172 4.96257 0
M  V30 893 H 87.3455 -0.876694 3.6759 0
M  V30 894 H 87.6585 -1.17872 7.63758 0
M  V30 895 H 86.0035 -1.06693 6.86762 0
M  V30 896 H 89.1945 -1.00382 4.5721 0
M  V30 897 H 89.3675 -1.14177 6.37862 0
M  V30 898 N 82.7736 -1.49793 -0.48987 0
M  V30 899 C 83.9986 -1.63836 -1.27172 0
M  V30 900 C 84.4236 -0.31402 -1.8546 0
M  V30 901 O 83.7816 0.719803 -1.66399 0
M  V30 902 C 83.8296 -2.71797 -2.36978 0
M  V30 903 O 82.9336 -2.31744 -3.41128 0
M  V30 904 H 82.2746 -0.547997 -0.37496 0
M  V30 905 H 84.8046 -1.96053 -0.585191 0
M  V30 906 H 84.8146 -2.94305 -2.82575 0
M  V30 907 H 83.4896 -3.67923 -1.93921 0
M  V30 908 H 82.0666 -2.1961 -3.01373 0
M  V30 909 N 84.2517 0.741722 -1.39055 0
M  V30 910 C 85.4977 1.50336 -1.36113 0
M  V30 911 C 85.8307 1.94148 0.0450796 0
M  V30 912 O 85.1057 1.66301 1.00868 0
M  V30 913 C 85.3887 2.74773 -2.32749 0
M  V30 914 C 85.2417 2.37023 -3.82283 0
M  V30 915 C 86.5607 3.76846 -2.27322 0
M  V30 916 H 83.6797 0.545351 -0.495743 0
M  V30 917 H 86.3217 0.848624 -1.69995 0
M  V30 918 H 84.4717 3.30639 -2.03986 0
M  V30 919 H 86.1437 1.8684 -4.21768 0
M  V30 920 H 84.3867 1.69334 -3.99385 0
M  V30 921 H 85.0577 3.26104 -4.45376 0
M  V30 922 H 87.5337 3.30548 -2.5274 0
M  V30 923 H 86.4097 4.6159 -2.97028 0
M  V30 924 H 86.6707 4.23286 -1.27599 0
M  V30 925 N 85.7298 1.2412 0.971189 0
M  V30 926 C 86.9788 1.07284 1.70801 0
M  V30 927 C 87.2918 -0.388902 1.91695 0
M  V30 928 O 88.4978 -0.677379 2.62914 0
M  V30 929 C 86.9538 1.87145 3.07416 0
M  V30 930 C 86.5618 3.37707 2.94377 0
M  V30 931 C 88.3058 1.78828 3.84995 0
M  V30 932 C 86.2128 4.09925 4.26281 0
M  V30 933 H 85.1428 0.397854 0.64049 0
M  V30 934 H 87.7938 1.4817 1.0825 0
M  V30 935 H 86.1758 1.39071 3.70777 0
M  V30 936 H 87.3498 3.93335 2.4005 0
M  V30 937 H 85.6648 3.46938 2.30267 0
M  V30 938 H 88.2618 2.30089 4.82662 0
M  V30 939 H 88.6048 0.75284 4.09436 0
M  V30 940 H 89.1378 2.24563 3.28354 0
M  V30 941 H 85.8768 5.13813 4.07033 0
M  V30 942 H 85.3968 3.59083 4.80437 0
M  V30 943 H 87.0758 4.1673 4.94919 0
M  V30 944 N 87.2079 -1.17134 1.05439 0
M  V30 945 C 88.1179 -2.24878 0.668365 0
M  V30 946 C 89.1339 -1.71186 -0.311687 0
M  V30 947 O 90.3099 -2.00738 -0.163161 0
M  V30 948 C 87.3749 -3.46662 0.051648 0
M  V30 949 C 86.4359 -4.15429 1.08246 0
M  V30 950 C 85.6689 -5.31399 0.495082 0
M  V30 951 O 85.8919 -5.66153 -0.694743 0
M  V30 952 O 84.8259 -5.89187 1.23056 0
M  V30 953 H 88.6519 -2.60189 1.56637 0
M  V30 954 H 86.2369 -1.24482 0.826104 0
M  V30 955 H 88.1189 -4.20394 -0.290966 0
M  V30 956 H 86.7939 -3.13142 -0.819971 0
M  V30 957 H 85.7009 -3.43704 1.47711 0
M  V30 958 H 87.0339 -4.52982 1.92532 0
M  V30 959 N 88.686 -0.835752 -1.33615 0
M  V30 960 C 89.916 -0.442701 -2.01801 0
M  V30 961 C 90.324 0.959807 -1.63047 0
M  V30 962 O 89.667 1.63468 -0.838088 0
M  V30 963 C 89.729 -0.480125 -3.56279 0
M  V30 964 C 89.393 -1.8382 -4.18401 0
M  V30 965 C 90.39 -2.80097 -4.37998 0
M  V30 966 C 88.075 -2.13019 -4.54894 0
M  V30 967 C 90.069 -4.03736 -4.9323 0
M  V30 968 C 87.756 -3.36916 -5.09834 0
M  V30 969 C 88.754 -4.32091 -5.28948 0
M  V30 970 O 88.442 -5.53797 -5.82721 0
M  V30 971 H 88.174 -0.17441 -0.653114 0
M  V30 972 H 90.728 -1.129 -1.71589 0
M  V30 973 H 88.958 0.262931 -3.85805 0
M  V30 974 H 90.647 -0.105335 -4.05763 0
M  V30 975 H 91.413 -2.58838 -4.10156 0
M  V30 976 H 87.292 -1.39733 -4.39313 0
M  V30 977 H 90.836 -4.78034 -5.08064 0
M  V30 978 H 86.733 -3.58033 -5.37106 0
M  V30 979 H 87.501 -5.55494 -6.0114 0
M  V30 980 N 90.1641 1.46063 -0.591896 0
M  V30 981 C 91.3941 2.06418 -0.0867676 0
M  V30 982 C 91.8021 1.43975 1.22751 0
M  V30 983 O 91.1451 0.542531 1.75506 0
M  V30 984 C 91.2071 3.59213 0.143725 0
M  V30 985 C 90.8711 4.439 -1.08635 0
M  V30 986 C 91.8681 4.79864 -2.00067 0
M  V30 987 C 89.5531 4.84896 -1.31077 0
M  V30 988 C 91.5471 5.55661 -3.12282 0
M  V30 989 C 89.2341 5.6045 -2.43596 0
M  V30 990 C 90.2321 5.95747 -3.34027 0
M  V30 991 O 89.9201 6.69772 -4.4459 0
M  V30 992 H 89.6521 0.673443 -0.0587447 0
M  V30 993 H 92.2061 1.88539 -0.814994 0
M  V30 994 H 90.4361 3.75433 0.926668 0
M  V30 995 H 92.1251 4.01463 0.5985 0
M  V30 996 H 92.8911 4.48763 -1.83947 0
M  V30 997 H 88.7701 4.56867 -0.61594 0
M  V30 998 H 92.3141 5.8313 -3.82891 0
M  V30 999 H 88.2111 5.90965 -2.59674 0
M  V30 1000 H 88.9791 6.88207 -4.43073 0
M  V30 1001 N 91.6422 0.330177 1.54103 0
M  V30 1002 C 92.6052 -0.520144 2.2322 0
M  V30 1003 C 93.6052 -1.03828 1.22786 0
M  V30 1004 O 94.7952 -0.929652 1.4732 0
M  V30 1005 C 91.9272 -1.72317 2.94142 0
M  V30 1006 H 93.1202 0.0841605 2.99782 0
M  V30 1007 H 90.6732 0.0813433 1.56088 0
M  V30 1008 H 91.4082 -2.36653 2.21734 0
M  V30 1009 H 91.1932 -1.35898 3.67796 0
M  V30 1010 H 92.6832 -2.3266 3.46784 0
M  V30 1011 N 93.1203 -1.57491 0.0584922 0
M  V30 1012 C 94.0533 -2.07533 -0.948969 0
M  V30 1013 C 95.0313 -0.977444 -1.29942 0
M  V30 1014 O 96.2153 -1.2499 -1.41102 0
M  V30 1015 C 93.3423 -2.52192 -2.2609 0
M  V30 1016 C 92.3883 -3.73287 -2.06298 0
M  V30 1017 S 93.2213 -5.18603 -1.33459 0
M  V30 1018 C 94.3773 -5.66583 -2.65959 0
M  V30 1019 H 94.6103 -2.92662 -0.523118 0
M  V30 1020 H 92.1433 -1.53631 -0.153954 0
M  V30 1021 H 94.1013 -2.78585 -3.01498 0
M  V30 1022 H 92.7623 -1.67356 -2.65802 0
M  V30 1023 H 91.9553 -4.0248 -3.03357 0
M  V30 1024 H 91.5573 -3.47199 -1.39029 0
M  V30 1025 H 93.8493 -5.72616 -3.62101 0
M  V30 1026 H 94.7923 -6.65684 -2.41393 0
M  V30 1027 H 95.2003 -4.94342 -2.72554 0
M  V30 1028 N 94.5984 0.214957 -1.56127 0
M  V30 1029 C 95.5284 1.2695 -1.95974 0
M  V30 1030 C 96.5094 1.48539 -0.828868 0
M  V30 1031 O 97.6944 1.60611 -1.09168 0
M  V30 1032 C 94.8244 2.61794 -2.28214 0
M  V30 1033 C 93.7784 2.54851 -3.43853 0
M  V30 1034 C 93.1044 3.93785 -3.61715 0
M  V30 1035 C 94.4044 2.09065 -4.78632 0
M  V30 1036 H 96.0984 0.93846 -2.84312 0
M  V30 1037 H 93.6444 0.449996 -1.36788 0
M  V30 1038 H 95.5974 3.35731 -2.54682 0
M  V30 1039 H 94.3214 2.96599 -1.36736 0
M  V30 1040 H 92.9804 1.8337 -3.17444 0
M  V30 1041 H 92.6284 4.25908 -2.67602 0
M  V30 1042 H 92.3284 3.90019 -4.39498 0
M  V30 1043 H 93.8524 4.69374 -3.90539 0
M  V30 1044 H 95.2664 2.7275 -5.04262 0
M  V30 1045 H 93.6634 2.16346 -5.59745 0
M  V30 1046 H 94.7334 1.04315 -4.73547 0
M  V30 1047 N 96.0765 1.50051 0.48192 0
M  V30 1048 C 97.3015 1.64508 1.26301 0
M  V30 1049 C 97.7265 0.323851 1.85291 0
M  V30 1050 O 97.0845 -0.710969 1.66778 0
M  V30 1051 C 97.1325 2.7305 2.35533 0
M  V30 1052 O 96.2365 2.3355 3.39895 0
M  V30 1053 H 95.5775 0.549978 0.372048 0
M  V30 1054 H 98.1075 1.9636 0.574786 0
M  V30 1055 H 98.1175 2.95799 2.8101 0
M  V30 1056 H 96.7925 3.68946 1.91967 0
M  V30 1057 H 95.3695 2.21205 3.00204 0
M  V30 1058 N 97.5546 -0.734337 1.39446 0
M  V30 1059 C 98.5016 -1.84835 1.38219 0
M  V30 1060 C 99.4716 -1.64331 0.24179 0
M  V30 1061 O 100.657 -1.85728 0.437002 0
M  V30 1062 C 97.7966 -3.22355 1.23212 0
M  V30 1063 C 96.9096 -3.5456 2.46801 0
M  V30 1064 C 96.0446 -4.81485 2.24377 0
M  V30 1065 C 95.0836 -5.06536 3.43639 0
M  V30 1066 N 94.2206 -6.24665 3.20528 0
M  V30 1067 H 99.0606 -1.85219 2.33448 0
M  V30 1068 H 96.5976 -0.905039 1.15963 0
M  V30 1069 H 98.5556 -4.0174 1.12522 0
M  V30 1070 H 97.1856 -3.21248 0.316121 0
M  V30 1071 H 96.2376 -2.69872 2.68092 0
M  V30 1072 H 97.5496 -3.6899 3.3563 0
M  V30 1073 H 96.7036 -5.68852 2.10933 0
M  V30 1074 H 95.4426 -4.6923 1.32944 0
M  V30 1075 H 94.4476 -4.17632 3.5758 0
M  V30 1076 H 95.6726 -5.20676 4.35974 0
M  V30 1077 H 93.6186 -6.13696 2.3176 0
M  V30 1078 H 93.5356 -6.39685 4.02913 0
M  V30 1079 H 94.8036 -7.14868 3.10779 0
M  V30 1080 N 99.0327 -1.24633 -0.964593 0
M  V30 1081 C 100.273 -1.09981 -1.72289 0
M  V30 1082 C 100.637 0.354792 -1.88693 0
M  V30 1083 O 101.838 0.62289 -2.61483 0
M  V30 1084 C 100.109 -1.82262 -3.07434 0
M  V30 1085 S 101.668 -1.83379 -3.98645 0
M  V30 1086 H 98.4857 -0.393292 -0.59232 0
M  V30 1087 H 101.088 -1.58009 -1.15123 0
M  V30 1088 H 99.7917 -2.87206 -2.93157 0
M  V30 1089 H 99.3227 -1.3458 -3.69664 0
M  V30 1090 H 101.338 -0.903691 -4.87901 0
M  V30 1091 N 100.511 1.16574 -1.06058 0
M  V30 1092 C 101.759 1.86677 -0.77434 0
M  V30 1093 C 102.08 1.81959 0.701147 0
M  V30 1094 O 101.35 1.2515 1.50713 0
M  V30 1095 H 99.9298 0.691134 -0.283449 0
M  V30 1096 H 102.592 1.41378 -1.34158 0
M  V30 1097 H 101.688 2.92181 -1.09711 0
M  V30 1098 N 101.989 0.842826 1.3317 0
M  V30 1099 C 103.235 0.441099 1.97945 0
M  V30 1100 C 103.568 -0.998024 1.66593 0
M  V30 1101 O 102.843 -1.69839 0.947898 0
M  V30 1102 C 103.126 0.666841 3.53872 0
M  V30 1103 C 102.979 2.15352 3.94897 0
M  V30 1104 C 104.298 0.115544 4.39948 0
M  V30 1105 H 101.417 0.161739 0.719034 0
M  V30 1106 H 104.059 1.05907 1.57746 0
M  V30 1107 H 102.209 0.140828 3.88245 0
M  V30 1108 H 103.881 2.7447 3.70761 0
M  V30 1109 H 102.124 2.63653 3.44484 0
M  V30 1110 H 102.795 2.26221 5.03516 0
M  V30 1111 H 105.271 0.565213 4.12243 0
M  V30 1112 H 104.147 0.303152 5.48062 0
M  V30 1113 H 104.408 -0.980935 4.3108 0
M  V30 1114 N 103.467 -1.45747 0.599634 0
M  V30 1115 C 104.417 -2.27538 -0.145107 0
M  V30 1116 C 105.401 -1.3686 -0.846055 0
M  V30 1117 O 106.593 -1.6091 -0.737357 0
M  V30 1118 C 103.722 -3.23569 -1.14708 0
M  V30 1119 C 102.808 -4.21734 -0.447383 0
M  V30 1120 N 103.199 -5.03257 0.506535 0
M  V30 1121 C 101.497 -4.40536 -0.695966 0
M  V30 1122 C 102.198 -5.74426 0.917068 0
M  V30 1123 N 101.174 -5.42966 0.26253 0
M  V30 1124 H 104.976 -2.87965 0.587672 0
M  V30 1125 H 102.49 -1.56803 0.422697 0
M  V30 1126 H 104.487 -3.8089 -1.69495 0
M  V30 1127 H 103.147 -2.64702 -1.8805 0
M  V30 1128 H 104.158 -5.10319 0.882899 0
M  V30 1129 H 100.835 -3.92802 -1.41467 0
M  V30 1130 H 102.225 -6.4995 1.70338 0
M  V30 1131 N 104.945 -0.338344 -1.53925 0
M  V30 1132 C 106.222 0.314774 -1.93051 0
M  V30 1133 C 106.602 1.68669 -1.26941 0
M  V30 1134 O 105.95 2.24636 -0.418445 0
M  V30 1135 C 106.16 0.392249 -3.46789 0
M  V30 1136 C 107.508 0.645554 -4.19664 0
M  V30 1137 O 108.532 0.474575 -3.53024 0
M  V30 1138 O 107.391 0.976408 -5.37707 0
M  V30 1139 H 104.485 0.182598 -0.80659 0
M  V30 1140 H 107.031 -0.389141 -1.65178 0
M  V30 1141 H 105.803 -0.570702 -3.87116 0
M  V30 1142 H 105.426 1.14316 -3.80812 0
M  V30 1143 N 106.423 1.57458 -0.0668435 0
M  V30 1144 C 107.653 1.97337 0.611677 0
M  V30 1145 C 108.061 0.943744 1.63982 0
M  V30 1146 O 107.404 -0.0785584 1.83532 0
M  V30 1147 C 107.466 3.33511 1.34205 0
M  V30 1148 C 107.13 4.54598 0.467941 0
M  V30 1149 C 108.127 5.19186 -0.272439 0
M  V30 1150 C 105.812 5.0075 0.39427 0
M  V30 1151 C 107.806 6.28274 -1.07476 0
M  V30 1152 C 105.493 6.09711 -0.411729 0
M  V30 1153 C 106.491 6.73335 -1.14492 0
M  V30 1154 O 106.179 7.80199 -1.93763 0
M  V30 1155 H 105.911 0.654042 0.170893 0
M  V30 1156 H 108.465 2.04961 -0.134289 0
M  V30 1157 H 106.695 3.22487 2.13398 0
M  V30 1158 H 108.384 3.58029 1.91233 0
M  V30 1159 H 109.15 4.84477 -0.225086 0
M  V30 1160 H 105.029 4.51009 0.954569 0
M  V30 1161 H 108.573 6.77866 -1.64755 0
M  V30 1162 H 104.47 6.43854 -0.460664 0
M  V30 1163 H 105.238 7.97053 -1.86142 0
M  V30 1164 N 107.901 -0.206675 1.56239 0
M  V30 1165 C 108.851 -1.26 1.90021 0
M  V30 1166 C 109.835 -1.41566 0.764721 0
M  V30 1167 O 111.027 -1.44131 1.02739 0
M  V30 1168 C 108.156 -2.6073 2.23326 0
M  V30 1169 C 107.242 -2.49005 3.43304 0
M  V30 1170 N 107.633 -2.06946 4.61527 0
M  V30 1171 C 105.931 -2.79927 3.47213 0
M  V30 1172 C 106.632 -2.06832 5.43687 0
M  V30 1173 N 105.608 -2.47892 4.83788 0
M  V30 1174 H 109.41 -0.925955 2.78932 0
M  V30 1175 H 106.924 -0.415172 1.57003 0
M  V30 1176 H 108.921 -3.36798 2.45708 0
M  V30 1177 H 107.581 -2.94968 1.35735 0
M  V30 1178 H 108.592 -1.77839 4.86409 0
M  V30 1179 H 105.269 -3.18438 2.70006 0
M  V30 1180 H 106.659 -1.76312 6.48354 0
M  V30 1181 N 109.379 -1.50304 -0.473955 0
M  V30 1182 C 110.627 -1.60832 -1.22382 0
M  V30 1183 C 110.948 -0.30939 -1.9253 0
M  V30 1184 O 110.218 0.67296 -1.83978 0
M  V30 1185 H 108.798 -0.592652 -0.454723 0
M  V30 1186 H 111.46 -1.87068 -0.546968 0
M  V30 1187 H 110.556 -2.41803 -1.97327 0
M  V30 1188 N 110.857 0.726932 -1.39834 0
M  V30 1189 C 112.134 1.47902 -1.28001 0
M  V30 1190 C 112.514 2.1083 0.106789 0
M  V30 1191 O 111.862 1.99242 1.11869 0
M  V30 1192 C 112.072 2.52392 -2.41038 0
M  V30 1193 C 113.42 3.18546 -2.80737 0
M  V30 1194 O 114.444 2.62708 -2.40547 0
M  V30 1195 O 113.303 4.19604 -3.50135 0
M  V30 1196 H 110.397 0.657163 -0.502062 0
M  V30 1197 H 112.943 0.760071 -1.51727 0
M  V30 1198 H 111.715 2.04329 -3.33715 0
M  V30 1199 H 111.338 3.31837 -2.19021 0
M  V30 1200 N 112.336 1.25143 0.95797 0
M  V30 1201 C 113.284 1.05019 2.07542 0
M  V30 1202 C 114.278 -0.0178751 1.69391 0
M  V30 1203 O 115.484 0.137472 1.79474 0
M  V30 1204 H 111.859 0.32265 0.679265 0
M  V30 1205 H 113.83 1.99759 2.21673 0
M  V30 1206 C 112.579 0.682074 3.40944 0
M  V30 1207 H 111.902 1.49573 3.70767 0
M  V30 1208 H 113.342 0.580945 4.20001 0
M  V30 1209 C 111.801 -0.611608 3.31302 0
M  V30 1210 O 112.331 -1.65465 3.66038 0
M  V30 1211 N 110.537 -0.595982 2.84423 0
M  V30 1212 H 110.084 0.253192 2.56353 0
M  V30 1213 H 110.042 -1.46173 2.78354 0
M  V30 1214 N 113.814 -1.1601 1.06675 0
M  V30 1215 C 114.762 -2.22586 0.675157 0
M  V30 1216 C 115.756 -1.66525 -0.310766 0
M  V30 1217 O 116.962 -1.79145 -0.175215 0
M  V30 1218 H 113.337 -0.724855 0.200223 0
M  V30 1219 H 115.308 -2.52899 1.58381 0
M  V30 1220 C 114.057 -3.47604 0.0817162 0
M  V30 1221 H 113.38 -3.91058 0.831484 0
M  V30 1222 H 114.82 -4.23718 -0.154708 0
M  V30 1223 C 113.279 -3.15718 -1.17576 0
M  V30 1224 O 113.809 -3.31878 -2.26318 0
M  V30 1225 N 112.015 -2.69816 -1.07923 0
M  V30 1226 H 111.562 -2.56866 -0.194293 0
M  V30 1227 H 111.52 -2.48855 -1.92141 0
M  V30 1228 N 115.292 -0.849877 -1.32721 0
M  V30 1229 C 116.569 -0.372405 -1.92022 0
M  V30 1230 C 116.949 1.1435 -1.77447 0
M  V30 1231 O 116.297 1.96296 -1.16962 0
M  V30 1232 C 116.507 -0.831482 -3.3895 0
M  V30 1233 C 117.855 -0.845882 -4.16089 0
M  V30 1234 O 118.879 -0.775806 -3.47649 0
M  V30 1235 O 117.738 -0.943753 -5.38289 0
M  V30 1236 H 114.832 -0.107667 -0.819961 0
M  V30 1237 H 117.378 -0.93646 -1.41522 0
M  V30 1238 H 116.15 -1.87448 -3.4348 0
M  V30 1239 H 115.773 -0.24461 -3.96847 0
M  V30 1240 N 116.77 1.45427 -0.607355 0
M  V30 1241 C 117.7 2.3329 0.0989352 0
M  V30 1242 C 118.681 1.46816 0.859007 0
M  V30 1243 O 119.866 1.75588 0.829604 0
M  V30 1244 C 116.996 3.29518 1.09705 0
M  V30 1245 C 115.95 4.25626 0.450206 0
M  V30 1246 C 115.276 5.11542 1.55655 0
M  V30 1247 C 116.576 5.18505 -0.628455 0
M  V30 1248 H 118.27 2.92595 -0.634716 0
M  V30 1249 H 115.816 1.40696 -0.306681 0
M  V30 1250 H 117.769 3.89855 1.59971 0
M  V30 1251 H 116.493 2.68372 1.86129 0
M  V30 1252 H 115.152 3.66586 -0.0315886 0
M  V30 1253 H 114.8 4.46765 2.31107 0
M  V30 1254 H 114.5 5.76647 1.12925 0
M  V30 1255 H 116.024 5.74748 2.06148 0
M  V30 1256 H 117.438 5.72916 -0.209877 0
M  V30 1257 H 115.835 5.92085 -0.977489 0
M  V30 1258 H 116.905 4.60948 -1.50514 0
M  V30 1259 N 118.248 0.346503 1.53744 0
M  V30 1260 C 119.496 -0.248612 2.00565 0
M  V30 1261 C 119.817 -1.5083 1.23593 0
M  V30 1262 O 119.087 -1.92858 0.343912 0
M  V30 1263 H 117.667 -0.0948564 0.740953 0
M  V30 1264 H 120.329 0.468341 1.89189 0
M  V30 1265 H 119.425 -0.488994 3.08245 0
M  V30 1266 N 119.726 -1.57421 0.075193 0
M  V30 1267 C 120.954 -1.97946 -0.602076 0
M  V30 1268 C 121.369 -0.953674 -1.62943 0
M  V30 1269 O 120.726 0.0592551 -1.82404 0
M  V30 1270 C 120.777 -3.38546 -1.26762 0
M  V30 1271 O 120.498 -4.37195 -0.281376 0
M  V30 1272 C 121.999 -3.93966 -2.03239 0
M  V30 1273 H 119.219 -0.650918 -0.162931 0
M  V30 1274 H 121.763 -2.03959 0.148601 0
M  V30 1275 H 119.918 -3.33609 -1.96936 0
M  V30 1276 H 120.332 -5.18975 -0.759267 0
M  V30 1277 H 121.806 -4.94555 -2.45193 0
M  V30 1278 H 122.283 -3.30693 -2.8903 0
M  V30 1279 H 122.889 -4.02315 -1.37924 0
M  V30 1280 N 121.204 0.198386 -1.56346 0
M  V30 1281 C 122.167 1.22952 -1.93431 0
M  V30 1282 C 123.167 1.38611 -0.815092 0
M  V30 1283 O 124.357 1.36479 -1.08255 0
M  V30 1284 C 121.489 2.59946 -2.20546 0
M  V30 1285 H 122.682 0.912626 -2.85677 0
M  V30 1286 H 120.235 0.43977 -1.49986 0
M  V30 1287 H 120.97 2.96696 -1.30927 0
M  V30 1288 H 120.755 2.49953 -3.02102 0
M  V30 1289 H 122.245 3.3431 -2.50253 0
M  V30 1290 N 122.682 1.50554 0.465978 0
M  V30 1291 C 123.922 1.63439 1.22747 0
M  V30 1292 C 124.286 0.329822 1.89146 0
M  V30 1293 O 125.487 0.334161 2.66715 0
M  V30 1294 C 123.758 2.78542 2.2394 0
M  V30 1295 S 125.317 3.11591 3.0896 0
M  V30 1296 H 122.135 0.576113 0.416672 0
M  V30 1297 H 124.737 1.88357 0.523641 0
M  V30 1298 H 123.441 3.71805 1.7375 0
M  V30 1299 H 122.972 2.55726 2.98944 0
M  V30 1300 H 124.987 2.55811 4.25176 0
M  V30 1301 N 124.16 -0.719506 1.40217 0
M  V30 1302 C 125.408 -1.47641 1.3801 0
M  V30 1303 C 125.729 -1.94992 -0.018145 0
M  V30 1304 O 124.999 -1.70073 -0.972207 0
M  V30 1305 H 123.579 -0.547744 0.507923 0
M  V30 1306 H 126.241 -0.853187 1.75233 0
M  V30 1307 H 125.337 -2.35112 2.05253 0
M  V30 1308 N 125.638 -1.25649 -0.95132 0
M  V30 1309 C 126.585 -1.06323 -2.04851 0
M  V30 1310 C 127.555 0.0286491 -1.66075 0
M  V30 1311 O 128.74 -0.12917 -1.90362 0
M  V30 1312 C 125.88 -0.691529 -3.381 0
M  V30 1313 C 124.993 -1.85861 -3.89974 0
M  V30 1314 C 124.128 -1.43096 -5.11563 0
M  V30 1315 C 123.167 -2.56696 -5.55674 0
M  V30 1316 N 122.304 -2.14684 -6.68472 0
M  V30 1317 H 127.144 -2.00222 -2.20715 0
M  V30 1318 H 124.681 -0.997027 -1.08156 0
M  V30 1319 H 126.639 -0.456963 -4.1469 0
M  V30 1320 H 125.269 0.210474 -3.22113 0
M  V30 1321 H 124.321 -2.20639 -3.09875 0
M  V30 1322 H 125.633 -2.71161 -4.18657 0
M  V30 1323 H 124.787 -1.15624 -5.9558 0
M  V30 1324 H 123.526 -0.548722 -4.84603 0
M  V30 1325 H 122.531 -2.84909 -4.7022 0
M  V30 1326 H 123.756 -3.45503 -5.8464 0
M  V30 1327 H 121.702 -1.28881 -6.43215 0
M  V30 1328 H 121.619 -2.9353 -6.96689 0
M  V30 1329 H 122.887 -1.90397 -7.5589 0
M  V30 1330 N 127.117 1.15442 -1.07289 0
M  V30 1331 C 128.047 2.22312 -0.714107 0
M  V30 1332 C 129.028 1.67467 0.298155 0
M  V30 1333 O 130.213 1.93445 0.171048 0
M  V30 1334 C 127.343 3.47124 -0.110448 0
M  V30 1335 C 126.297 4.14926 -1.04979 0
M  V30 1336 C 125.623 5.33807 -0.308924 0
M  V30 1337 C 126.923 4.64762 -2.38314 0
M  V30 1338 H 128.617 2.5258 -1.6076 0
M  V30 1339 H 126.163 1.21404 -0.77441 0
M  V30 1340 H 128.116 4.21124 0.152482 0
M  V30 1341 H 126.84 3.16187 0.81812 0
M  V30 1342 H 125.499 3.42866 -1.29764 0
M  V30 1343 H 125.147 4.99126 0.623084 0
M  V30 1344 H 124.847 5.80113 -0.935036 0
M  V30 1345 H 126.371 6.10576 -0.0537771 0
M  V30 1346 H 127.785 5.30292 -2.1786 0
M  V30 1347 H 126.182 5.21728 -2.96514 0
M  V30 1348 H 127.252 3.80434 -3.00663 0
M  V30 1349 N 128.595 0.856903 1.32268 0
M  V30 1350 C 129.842 0.461386 1.97174 0
M  V30 1351 C 130.17 -0.983491 1.67803 0
M  V30 1352 O 129.425 -1.70541 0.959903 0
M  V30 1353 C 129.724 0.649919 3.51441 0
M  V30 1354 C 129.39 2.0656 4.00804 0
M  V30 1355 C 128.052 2.45279 4.13995 0
M  V30 1356 C 130.404 2.98947 4.26943 0
M  V30 1357 C 127.732 3.75653 4.50668 0
M  V30 1358 C 130.084 4.28822 4.65075 0
M  V30 1359 C 128.748 4.67472 4.76472 0
M  V30 1360 H 128.018 0.168833 0.72151 0
M  V30 1361 H 130.665 1.08739 1.57633 0
M  V30 1362 H 128.97 -0.0593018 3.91755 0
M  V30 1363 H 130.667 0.32391 3.9969 0
M  V30 1364 H 127.257 1.75495 3.91024 0
M  V30 1365 H 131.441 2.70265 4.16258 0
M  V30 1366 H 126.697 4.05379 4.57688 0
M  V30 1367 H 130.871 5.0047 4.84255 0
M  V30 1368 H 128.498 5.68539 5.04646 0
M  V30 1369 N 130.073 -1.45103 0.615059 0
M  V30 1370 C 131.489 -1.57137 0.279322 0
M  V30 1371 C 131.689 -1.60523 -1.21797 0
M  V30 1372 O 130.745 -1.53956 -2.00134 0
M  V30 1373 C 132.058 -2.85062 0.957083 0
M  V30 1374 C 133.606 -2.98749 0.933706 0
M  V30 1375 C 134.081 -4.29455 1.59162 0
M  V30 1376 N 135.572 -4.36231 1.55746 0
M  V30 1377 C 136.307 -5.36051 2.0356 0
M  V30 1378 N 135.803 -6.42367 2.59494 0
M  V30 1379 N 137.596 -5.27456 1.94284 0
M  V30 1380 H 129.747 -1.41148 1.58717 0
M  V30 1381 H 132.01 -0.675331 0.665306 0
M  V30 1382 H 131.716 -2.88488 2.01166 0
M  V30 1383 H 131.59 -3.7407 0.48494 0
M  V30 1384 H 133.977 -2.94886 -0.112347 0
M  V30 1385 H 134.058 -2.11132 1.44419 0
M  V30 1386 H 133.702 -4.34077 2.63704 0
M  V30 1387 H 133.632 -5.15901 1.0561 0
M  V30 1388 H 136.123 -3.60011 1.14893 0
M  V30 1389 H 136.436 -7.14793 2.93752 0
M  V30 1390 H 134.781 -6.43097 2.63537 0
M  V30 1391 H 137.972 -4.43308 1.5032 0
M  V30 1392 H 138.145 -6.05099 2.3186 0
M  V30 1393 N 131.551 -0.354651 -1.53558 0
M  V30 1394 C 132.8 0.239504 -2.00273 0
M  V30 1395 C 133.113 1.50759 -1.24623 0
M  V30 1396 O 134.319 2.17968 -1.61871 0
M  V30 1397 C 132.775 0.477341 -3.5672 0
M  V30 1398 C 132.383 -0.775488 -4.41237 0
M  V30 1399 C 134.127 1.02975 -4.11821 0
M  V30 1400 C 132.034 -0.507838 -5.89216 0
M  V30 1401 H 130.964 0.0932743 -0.748208 0
M  V30 1402 H 133.615 -0.471701 -1.77334 0
M  V30 1403 H 131.997 1.24953 -3.7577 0
M  V30 1404 H 133.171 -1.54963 -4.33962 0
M  V30 1405 H 131.486 -1.25033 -3.97185 0
M  V30 1406 H 134.083 1.24513 -5.2 0
M  V30 1407 H 134.426 1.98862 -3.65731 0
M  V30 1408 H 134.959 0.317994 -3.96527 0
M  V30 1409 H 131.698 -1.43674 -6.39561 0
M  V30 1410 H 131.218 0.228011 -5.99366 0
M  V30 1411 H 132.897 -0.129238 -6.46871 0
M  V30 1412 N 133.029 1.57378 -0.0835403 0
M  V30 1413 C 134.254 1.98682 0.594987 0
M  V30 1414 C 134.679 0.961969 1.61641 0
M  V30 1415 O 134.037 -0.0709989 1.81161 0
M  V30 1416 C 134.085 3.38988 1.2296 0
M  V30 1417 O 133.189 3.39208 2.34546 0
M  V30 1418 H 132.53 0.646368 0.152002 0
M  V30 1419 H 135.06 2.03961 -0.161533 0
M  V30 1420 H 135.07 3.76431 1.57366 0
M  V30 1421 H 133.745 4.13107 0.481228 0
M  V30 1422 H 132.322 3.13548 2.01846 0
M  V30 1423 N 134.507 -0.190092 1.56449 0
M  V30 1424 C 135.747 -0.916414 1.82705 0
M  V30 1425 C 136.111 -1.80235 0.661763 0
M  V30 1426 O 137.312 -2.56484 0.80433 0
M  V30 1427 C 135.583 -1.70691 3.14005 0
M  V30 1428 S 137.142 -2.48457 3.61683 0
M  V30 1429 H 133.96 -0.307281 0.64117 0
M  V30 1430 H 136.562 -0.179433 1.94675 0
M  V30 1431 H 135.266 -1.04677 3.96826 0
M  V30 1432 H 134.797 -2.48562 3.04927 0
M  V30 1433 H 136.812 -3.72756 3.27517 0
M  V30 1434 N 135.985 -1.50799 -0.457987 0
M  V30 1435 C 136.915 -1.73553 -1.5621 0
M  V30 1436 C 137.896 -0.584774 -1.59732 0
M  V30 1437 O 139.081 -0.825314 -1.7579 0
M  V30 1438 C 136.211 -1.84169 -2.94447 0
M  V30 1439 C 135.165 -2.99461 -3.0579 0
M  V30 1440 C 134.491 -2.95235 -4.45803 0
M  V30 1441 C 135.791 -4.39766 -2.81786 0
M  V30 1442 H 137.485 -2.66 -1.37421 0
M  V30 1443 H 135.031 -1.28002 -0.659662 0
M  V30 1444 H 136.984 -1.98672 -3.71628 0
M  V30 1445 H 135.708 -0.883545 -3.14422 0
M  V30 1446 H 134.367 -2.8463 -2.31044 0
M  V30 1447 H 134.015 -1.97239 -4.62715 0
M  V30 1448 H 133.715 -3.72642 -4.54326 0
M  V30 1449 H 135.239 -3.11803 -5.24987 0
M  V30 1450 H 136.653 -4.55054 -3.4871 0
M  V30 1451 H 135.05 -5.18722 -3.0174 0
M  V30 1452 H 136.12 -4.51229 -1.7754 0
M  V30 1453 N 137.463 0.71206 -1.40597 0
M  V30 1454 C 138.709 1.47416 -1.39271 0
M  V30 1455 C 139.042 1.942 0.00388791 0
M  V30 1456 O 138.317 1.68403 0.973179 0
M  V30 1457 C 138.6 2.69774 -2.38525 0
M  V30 1458 C 138.453 2.28861 -3.87224 0
M  V30 1459 C 139.772 3.71939 -2.35264 0
M  V30 1460 H 136.891 0.534713 -0.5072 0
M  V30 1461 H 139.533 0.812375 -1.71757 0
M  V30 1462 H 137.683 3.26238 -2.10953 0
M  V30 1463 H 139.355 1.77852 -4.25636 0
M  V30 1464 H 137.598 1.60824 -4.02887 0
M  V30 1465 H 138.269 3.16584 -4.52193 0
M  V30 1466 H 140.745 3.25113 -2.59694 0
M  V30 1467 H 139.621 4.55186 -3.06753 0
M  V30 1468 H 139.882 4.20484 -1.36549 0
M  V30 1469 N 138.941 1.26152 0.944643 0
M  V30 1470 C 140.19 1.10883 1.68487 0
M  V30 1471 C 140.503 -0.348153 1.92477 0
M  V30 1472 O 141.709 -0.621459 2.64292 0
M  V30 1473 C 140.165 1.93624 3.03377 0
M  V30 1474 C 139.773 3.43875 2.87148 0
M  V30 1475 C 141.517 1.86954 3.81115 0
M  V30 1476 C 139.424 4.18875 4.1749 0
M  V30 1477 H 138.354 0.41135 0.631907 0
M  V30 1478 H 141.005 1.50433 1.05082 0
M  V30 1479 H 139.387 1.46904 3.67743 0
M  V30 1480 H 140.561 3.98338 2.31653 0
M  V30 1481 H 138.876 3.51744 2.22856 0
M  V30 1482 H 141.473 2.40275 4.77673 0
M  V30 1483 H 141.816 0.839518 4.07747 0
M  V30 1484 H 142.349 2.31477 3.23517 0
M  V30 1485 H 139.088 5.22332 3.96043 0
M  V30 1486 H 138.608 3.69193 4.72712 0
M  V30 1487 H 140.287 4.27134 4.85968 0
M  V30 1488 N 140.419 -1.14872 1.07899 0
M  V30 1489 C 141.647 -1.89661 0.82683 0
M  V30 1490 C 142.062 -1.78312 -0.620519 0
M  V30 1491 O 141.419 -1.13888 -1.42604 0
M  V30 1492 C 141.47 -3.39817 1.23316 0
M  V30 1493 O 141.191 -3.50845 2.62372 0
M  V30 1494 C 142.692 -4.31615 1.0111 0
M  V30 1495 H 139.912 -0.60092 0.298557 0
M  V30 1496 H 142.456 -1.4551 1.43691 0
M  V30 1497 H 140.611 -3.8161 0.667286 0
M  V30 1498 H 141.025 -4.44076 2.79101 0
M  V30 1499 H 142.499 -5.35367 1.34486 0
M  V30 1500 H 142.976 -4.39169 -0.0522168 0
M  V30 1501 H 143.582 -3.95572 1.56215 0
M  V30 1502 N 141.898 -0.863906 -1.31812 0
M  V30 1503 C 143.175 -0.39275 -1.91616 0
M  V30 1504 C 143.555 1.12461 -1.7865 0
M  V30 1505 O 142.903 1.95045 -1.19037 0
M  V30 1506 C 143.113 -0.867385 -3.38049 0
M  V30 1507 C 144.461 -0.889966 -4.15168 0
M  V30 1508 O 145.485 -0.812635 -3.46806 0
M  V30 1509 O 144.344 -1.00079 -5.37258 0
M  V30 1510 H 141.438 -0.116358 -0.818773 0
M  V30 1511 H 143.984 -0.951418 -1.40521 0
M  V30 1512 H 142.756 -1.91081 -3.41473 0
M  V30 1513 H 142.379 -0.286687 -3.96565 0
M  V30 1514 N 143.376 1.44774 -0.622745 0
M  V30 1515 C 144.622 2.0242 -0.124083 0
M  V30 1516 C 144.955 1.4881 1.24777 0
M  V30 1517 O 144.23 0.668799 1.8264 0
M  V30 1518 C 144.513 3.59957 -0.101619 0
M  V30 1519 C 144.366 4.23867 -1.50521 0
M  V30 1520 C 145.685 4.36284 0.578272 0
M  V30 1521 H 142.804 0.735528 -0.0465645 0
M  V30 1522 H 145.446 1.72447 -0.797617 0
M  V30 1523 H 143.596 3.85623 0.471934 0
M  V30 1524 H 145.268 4.09336 -2.12701 0
M  V30 1525 H 143.511 3.81684 -2.06154 0
M  V30 1526 H 144.182 5.32843 -1.4416 0
M  V30 1527 H 146.658 4.16001 0.0906057 0
M  V30 1528 H 145.534 5.46004 0.563149 0
M  V30 1529 H 145.795 4.10271 1.64713 0
M  V30 1530 N 144.854 0.36279 1.53368 0
M  V30 1531 C 146.102 -0.227326 2.00817 0
M  V30 1532 C 146.423 -1.49511 1.25186 0
M  V30 1533 O 145.693 -1.92482 0.364348 0
M  V30 1534 H 144.273 -0.0869923 0.741917 0
M  V30 1535 H 146.935 0.488381 1.88682 0
M  V30 1536 H 146.031 -0.456273 3.08747 0
M  V30 1537 N 146.332 -1.57332 0.0918853 0
M  V30 1538 C 147.609 -1.85691 -0.614668 0
M  V30 1539 C 147.989 -0.988146 -1.86545 0
M  V30 1540 O 147.337 -0.0597055 -2.28422 0
M  V30 1541 C 147.547 -3.36294 -0.933126 0
M  V30 1542 C 148.895 -4.04275 -1.29796 0
M  V30 1543 O 149.919 -3.41157 -1.02424 0
M  V30 1544 O 148.778 -5.1564 -1.81047 0
M  V30 1545 H 145.872 -0.767802 -0.307261 0
M  V30 1546 H 148.418 -1.69244 0.12434 0
M  V30 1547 H 147.19 -3.91273 -0.0456404 0
M  V30 1548 H 146.813 -3.58076 -1.72822 0
M  V30 1549 N 147.81 0.181792 -1.56548 0
M  V30 1550 C 149.035 0.920019 -1.85877 0
M  V30 1551 C 149.46 1.75494 -0.677021 0
M  V30 1552 O 148.818 1.77399 0.374056 0
M  V30 1553 C 148.866 1.78112 -3.13542 0
M  V30 1554 O 147.97 2.88152 -2.95029 0
M  V30 1555 H 147.311 0.258334 -0.611686 0
M  V30 1556 H 149.841 0.183092 -2.03779 0
M  V30 1557 H 149.851 2.18314 -3.44678 0
M  V30 1558 H 148.526 1.16777 -3.99169 0
M  V30 1559 H 147.103 2.51609 -2.75222 0
M  V30 1560 N 149.288 1.51039 0.449983 0
M  V30 1561 C 150.565 1.53612 1.21089 0
M  V30 1562 C 150.945 0.292997 2.09057 0
M  V30 1563 O 150.293 -0.72259 2.16774 0
M  V30 1564 C 150.503 2.84337 2.0237 0
M  V30 1565 C 151.851 3.35807 2.59843 0
M  V30 1566 O 152.875 2.85802 2.12593 0
M  V30 1567 O 151.734 4.23029 3.45989 0
M  V30 1568 H 148.828 0.617057 0.550608 0
M  V30 1569 H 151.374 1.63344 0.460082 0
M  V30 1570 H 150.146 3.66278 1.37681 0
M  V30 1571 H 149.769 2.77708 2.84542 0
M  V30 1572 N 150.766 -0.704594 1.40972 0
M  V30 1573 C 152.015 -1.46018 1.39146 0
M  V30 1574 C 152.328 -1.956 0.000589254 0
M  V30 1575 O 153.534 -2.71137 -0.1403 0
M  V30 1576 C 151.99 -2.63996 2.4461 0
M  V30 1577 C 151.598 -2.21238 3.89561 0
M  V30 1578 C 153.342 -3.41677 2.51907 0
M  V30 1579 C 151.249 -3.3612 4.86598 0
M  V30 1580 H 150.179 -0.548444 0.517422 0
M  V30 1581 H 152.83 -0.765784 1.66757 0
M  V30 1582 H 151.212 -3.3566 2.10115 0
M  V30 1583 H 152.386 -1.56923 4.33257 0
M  V30 1584 H 150.701 -1.56574 3.85841 0
M  V30 1585 H 153.298 -4.27182 3.2159 0
M  V30 1586 H 153.641 -3.86247 1.55303 0
M  V30 1587 H 154.174 -2.77064 2.85448 0
M  V30 1588 H 150.913 -2.96572 5.84573 0
M  V30 1589 H 150.433 -3.99315 4.47557 0
M  V30 1590 H 152.112 -4.02029 5.06934 0
M  V30 1591 N 152.244 -1.26651 -0.937939 0
M  V30 1592 C 153.493 -1.11775 -1.67897 0
M  V30 1593 C 153.806 0.33794 -1.92659 0
M  V30 1594 O 155.012 0.607434 -2.64618 0
M  V30 1595 C 153.468 -1.9523 -3.02346 0
M  V30 1596 C 153.076 -3.45393 -2.8532 0
M  V30 1597 C 154.82 -1.88972 -3.80118 0
M  V30 1598 C 152.727 -4.21083 -4.15263 0
M  V30 1599 H 151.657 -0.414696 -0.629717 0
M  V30 1600 H 154.308 -1.50988 -1.04283 0
M  V30 1601 H 152.69 -1.48853 -3.66959 0
M  V30 1602 H 153.864 -3.99561 -2.29537 0
M  V30 1603 H 152.179 -3.52921 -2.20988 0
M  V30 1604 H 154.776 -2.42805 -4.76392 0
M  V30 1605 H 155.119 -0.86113 -4.07296 0
M  V30 1606 H 155.652 -2.33189 -3.22285 0
M  V30 1607 H 152.391 -5.24425 -3.93267 0
M  V30 1608 H 151.911 -3.71695 -4.70747 0
M  V30 1609 H 153.59 -4.29706 -4.83696 0
M  V30 1610 N 153.722 1.14298 -1.08507 0
M  V30 1611 C 154.669 2.19414 -0.715965 0
M  V30 1612 C 155.639 1.63399 0.298326 0
M  V30 1613 O 156.824 1.89929 0.182101 0
M  V30 1614 C 153.964 3.44845 -0.132534 0
M  V30 1615 C 153.077 4.15007 -1.19973 0
M  V30 1616 C 152.212 5.28024 -0.580048 0
M  V30 1617 C 151.251 5.9002 -1.62921 0
M  V30 1618 N 150.388 6.94485 -1.03125 0
M  V30 1619 H 155.228 2.50336 -1.61666 0
M  V30 1620 H 152.765 1.2293 -0.807882 0
M  V30 1621 H 154.723 4.16601 0.223454 0
M  V30 1622 H 153.353 3.14403 0.731467 0
M  V30 1623 H 152.405 3.41629 -1.67313 0
M  V30 1624 H 153.717 4.57178 -1.99473 0
M  V30 1625 H 152.871 6.06455 -0.172364 0
M  V30 1626 H 151.61 4.87076 0.246603 0
M  V30 1627 H 150.615 5.10291 -2.04654 0
M  V30 1628 H 151.84 6.33042 -2.45835 0
M  V30 1629 H 149.786 6.55612 -0.225711 0
M  V30 1630 H 149.703 7.35148 -1.76334 0
M  V30 1631 H 150.971 7.7679 -0.649458 0
M  V30 1632 N 155.201 0.870884 1.31352 0
M  V30 1633 C 156.429 0.49677 2.00848 0
M  V30 1634 C 156.844 -0.910998 1.65367 0
M  V30 1635 O 156.201 -1.59696 0.883374 0
M  V30 1636 C 156.252 0.645308 3.55694 0
M  V30 1637 O 155.973 1.99764 3.89905 0
M  V30 1638 C 157.474 0.272326 4.42463 0
M  V30 1639 H 154.694 0.193462 0.642506 0
M  V30 1640 H 157.238 1.1723 1.67563 0
M  V30 1641 H 155.393 0.0173176 3.87396 0
M  V30 1642 H 155.807 2.00607 4.84621 0
M  V30 1643 H 157.281 0.427208 5.50344 0
M  V30 1644 H 157.758 -0.788587 4.32062 0
M  V30 1645 H 158.364 0.876054 4.1618 0
M  V30 1646 N 156.679 -1.44442 0.630414 0
M  V30 1647 C 157.627 -2.32437 -0.0871428 0
M  V30 1648 C 158.621 -1.47304 -0.836525 0
M  V30 1649 O 159.827 -1.63653 -0.749506 0
M  V30 1650 H 156.202 -0.750533 -0.0469495 0
M  V30 1651 H 158.173 -2.90709 0.673096 0
M  V30 1652 C 156.922 -3.31288 -1.05563 0
M  V30 1653 H 156.245 -3.96805 -0.488426 0
M  V30 1654 H 157.685 -3.9554 -1.52721 0
M  V30 1655 C 156.144 -2.6016 -2.14052 0
M  V30 1656 O 156.674 -2.39997 -3.22124 0
M  V30 1657 N 154.88 -2.19911 -1.89967 0
M  V30 1658 H 154.427 -2.36509 -1.02085 0
M  V30 1659 H 154.385 -1.72646 -2.62756 0
M  V30 1660 N 158.157 -0.370918 -1.53173 0
M  V30 1661 C 159.067 0.480823 -2.2962 0
M  V30 1662 C 160.083 1.08789 -1.35798 0
M  V30 1663 O 161.259 1.09768 -1.68858 0
M  V30 1664 C 158.324 1.60227 -3.07454 0
M  V30 1665 C 157.385 1.0222 -4.16953 0
M  V30 1666 C 156.618 2.0902 -4.91066 0
M  V30 1667 O 156.841 3.30222 -4.65091 0
M  V30 1668 O 155.775 1.71778 -5.76867 0
M  V30 1669 H 159.601 -0.141421 -3.03371 0
M  V30 1670 H 157.186 -0.135146 -1.48787 0
M  V30 1671 H 159.068 2.25417 -3.56041 0
M  V30 1672 H 157.743 2.20982 -2.36535 0
M  V30 1673 H 156.65 0.334064 -3.72605 0
M  V30 1674 H 157.983 0.459131 -4.90054 0
M  V30 1675 O 159.674 1.59701 -0.240351 0
M  V30 1676 H 160.365 1.90754 0.336524 0
M  V30 END ATOM
M  V30 BEGIN BOND
M  V30 END BOND
M  V30 END CTAB
M  END
$$$$
