drugbank_target|Q8IKH8 40S ribosomal protein S3 (DB11638)
 OpenBabel12092121103D

  0  0  0     0  0            999 V3000
M  V30 BEGIN CTAB
M  V30 COUNTS 3564 3583 0 0 0
M  V30 BEGIN ATOM
M  V30 1 H -0.908 1.98254 -0.117106 0
M  V30 2 N 0 1.576 0 0
M  V30 3 C 0.933 2.03868 1.02534 0
M  V30 4 C 1.911 0.928543 1.3348 0
M  V30 5 O 3.095 1.19667 1.45644 0
M  V30 6 C 0.222 2.43627 2.35294 0
M  V30 7 C -0.732 3.65373 2.2001 0
M  V30 8 S 0.101 5.13292 1.52614 0
M  V30 9 C 1.257 5.56322 2.86805 0
M  V30 10 H 1.49 2.90518 0.631377 0
M  V30 11 H -0.977 1.52953 0.210867 0
M  V30 12 H 0.981 2.67203 3.11629 0
M  V30 13 H -0.358 1.57376 2.7183 0
M  V30 14 H -1.165 3.90944 3.18086 0
M  V30 15 H -1.563 3.418 1.51819 0
M  V30 16 H 0.729 5.58782 3.83104 0
M  V30 17 H 1.672 6.56266 2.65933 0
M  V30 18 H 2.08 4.83886 2.90714 0
M  V30 19 N 1.4781 -0.272755 1.55222 0
M  V30 20 C 2.7031 -1.02683 1.80197 0
M  V30 21 C 3.1281 -1.79142 0.573551 0
M  V30 22 O 2.4861 -1.74917 -0.476849 0
M  V30 23 C 2.5341 -1.9609 3.02624 0
M  V30 24 O 1.6381 -3.04863 2.77727 0
M  V30 25 H 0.9791 -0.293557 0.595584 0
M  V30 26 H 3.5091 -0.30159 2.02365 0
M  V30 27 H 3.5191 -2.38039 3.31363 0
M  V30 28 H 2.1941 -1.39851 3.91682 0
M  V30 29 H 0.7711 -2.67228 2.60084 0
M  V30 30 N 2.9562 -1.48159 -0.537278 0
M  V30 31 C 3.9192 -1.61665 -1.62472 0
M  V30 32 C 4.9192 -0.490395 -1.5314 0
M  V30 33 O 6.1092 -0.755998 -1.5694 0
M  V30 34 C 3.2412 -1.57997 -3.02076 0
M  V30 35 H 4.4342 -2.58621 -1.51839 0
M  V30 36 H 1.9872 -1.36647 -0.758771 0
M  V30 37 H 2.7222 -0.624913 -3.18222 0
M  V30 38 H 2.5072 -2.39755 -3.10258 0
M  V30 39 H 3.9972 -1.70627 -3.81151 0
M  V30 40 N 4.4343 0.785586 -1.36625 0
M  V30 41 C 5.8453 1.36101 -1.27803 0
M  V30 42 C 6.1963 1.96035 0.0804875 0
M  V30 43 O 5.3213 1.92834 0.982042 0
M  V30 44 C 5.9163 2.47442 -2.31426 0
M  V30 45 C 4.4753 3.00789 -2.26281 0
M  V30 46 C 3.6223 1.73896 -2.15999 0
M  V30 47 H 6.5733 0.586928 -1.47448 0
M  V30 48 H 6.5943 3.2656 -1.95291 0
M  V30 49 H 6.1063 2.03791 -3.30289 0
M  V30 50 H 4.2073 3.48851 -1.30896 0
M  V30 51 H 4.3203 3.57343 -3.19128 0
M  V30 52 H 2.6843 1.9628 -1.62316 0
M  V30 53 H 3.4673 1.32368 -3.16755 0
M  V30 54 N 5.9124 1.20967 1.01018 0
M  V30 55 C 7.1614 1.01796 1.74128 0
M  V30 56 C 7.4744 -0.449691 1.90361 0
M  V30 57 O 8.6804 -0.76068 2.60626 0
M  V30 58 C 7.1364 1.7727 3.13215 0
M  V30 59 C 6.7444 3.28171 3.04972 0
M  V30 60 C 8.4884 1.66489 3.90489 0
M  V30 61 C 6.3954 3.96156 4.39107 0
M  V30 62 H 5.3254 0.377276 0.652824 0
M  V30 63 H 7.9764 1.44651 1.12909 0
M  V30 64 H 6.3584 1.27205 3.75013 0
M  V30 65 H 7.5324 3.85499 2.52443 0
M  V30 66 H 5.8474 3.39437 2.41188 0
M  V30 67 H 8.4444 2.14617 4.89738 0
M  V30 68 H 8.7874 0.6222 4.11624 0
M  V30 69 H 9.3204 2.14003 3.35332 0
M  V30 70 H 6.0594 5.00604 4.23174 0
M  V30 71 H 5.5794 3.43617 4.91617 0
M  V30 72 H 7.2584 4.00774 5.07926 0
M  V30 73 N 7.3905 -1.2043 1.01659 0
M  V30 74 C 8.6155 -1.94318 0.724942 0
M  V30 75 C 9.0405 -1.74266 -0.708034 0
M  V30 76 O 8.3985 -1.03694 -1.48719 0
M  V30 77 C 8.4465 -3.44486 1.06591 0
M  V30 78 O 7.5505 -4.12017 0.177599 0
M  V30 79 H 6.8915 -0.60708 0.26898 0
M  V30 80 H 9.4215 -1.52861 1.35995 0
M  V30 81 H 9.4315 -3.95106 1.01762 0
M  V30 82 H 8.1065 -3.58404 2.10997 0
M  V30 83 H 6.6835 -3.71821 0.283421 0
M  V30 84 N 8.8686 -0.792821 -1.36206 0
M  V30 85 C 9.8156 -0.191653 -2.30003 0
M  V30 86 C 10.7856 0.666453 -1.52143 0
M  V30 87 O 11.9706 0.61442 -1.80636 0
M  V30 88 C 9.1106 0.664848 -3.38635 0
M  V30 89 C 8.2236 -0.212175 -4.31479 0
M  V30 90 C 7.3586 0.651022 -5.27196 0
M  V30 91 C 6.3976 -0.227247 -6.11678 0
M  V30 92 N 5.5346 0.595127 -6.99573 0
M  V30 93 H 10.3746 -0.996978 -2.80828 0
M  V30 94 H 7.9116 -0.503206 -1.38225 0
M  V30 95 H 9.8696 1.17645 -4.00269 0
M  V30 96 H 8.4996 1.43557 -2.89122 0
M  V30 97 H 7.5516 -0.841777 -3.70969 0
M  V30 98 H 8.8636 -0.888751 -4.90818 0
M  V30 99 H 8.0176 1.2283 -5.94136 0
M  V30 100 H 6.7566 1.36121 -4.68319 0
M  V30 101 H 5.7616 -0.816904 -5.43697 0
M  V30 102 H 6.9866 -0.93509 -6.72631 0
M  V30 103 H 4.9326 1.28955 -6.432 0
M  V30 104 H 4.8496 -0.0236952 -7.55996 0
M  V30 105 H 6.1176 1.15613 -7.70879 0
M  V30 106 N 10.3467 1.47872 -0.545128 0
M  V30 107 C 11.2937 2.29849 0.2093 0
M  V30 108 C 12.2637 1.38313 0.919707 0
M  V30 109 O 13.4487 1.67277 0.917772 0
M  V30 110 C 10.5887 3.22019 1.24088 0
M  V30 111 C 9.7017 4.2864 0.537778 0
M  V30 112 C 8.8367 5.07973 1.5536 0
M  V30 113 C 7.8757 6.06381 0.8348 0
M  V30 114 N 7.0127 6.78717 1.79688 0
M  V30 115 H 11.8527 2.93845 -0.49591 0
M  V30 116 H 9.3897 1.44848 -0.256389 0
M  V30 117 H 11.3477 3.73868 1.85144 0
M  V30 118 H 9.9777 2.59914 1.91428 0
M  V30 119 H 9.0297 3.7994 -0.187046 0
M  V30 120 H 10.3417 4.98793 -0.0258907 0
M  V30 121 H 9.4957 5.63912 2.23803 0
M  V30 122 H 8.2347 4.37693 2.15118 0
M  V30 123 H 7.2397 5.49631 0.136388 0
M  V30 124 H 8.4647 6.78665 0.24313 0
M  V30 125 H 6.4107 6.11177 2.38326 0
M  V30 126 H 6.3277 7.44998 1.28505 0
M  V30 127 H 7.5957 7.39237 2.47282 0
M  V30 128 N 11.8248 0.280983 1.55075 0
M  V30 129 C 13.2408 -0.0729964 1.59433 0
M  V30 130 C 13.4408 -1.5411 1.29817 0
M  V30 131 O 12.4968 -2.29086 1.06187 0
M  V30 132 C 13.8098 0.306921 2.9913 0
M  V30 133 C 15.3578 0.254023 3.11968 0
M  V30 134 C 15.8328 0.608467 4.5394 0
M  V30 135 N 17.3238 0.560241 4.59799 0
M  V30 136 C 18.0588 0.80722 5.6769 0
M  V30 137 N 17.5548 1.11912 6.83701 0
M  V30 138 N 19.3478 0.735623 5.57266 0
M  V30 139 H 11.4988 1.238 1.7259 0
M  V30 140 H 13.7618 0.500547 0.805082 0
M  V30 141 H 13.4678 1.32816 3.25657 0
M  V30 142 H 13.3418 -0.349363 3.75579 0
M  V30 143 H 15.7288 -0.75794 2.852 0
M  V30 144 H 15.8098 0.944649 2.37718 0
M  V30 145 H 15.4538 1.61814 4.81434 0
M  V30 146 H 15.3838 -0.104013 5.26497 0
M  V30 147 H 17.8748 0.329288 3.76463 0
M  V30 148 H 18.1878 1.29409 7.61888 0
M  V30 149 H 16.5328 1.15695 6.85303 0
M  V30 150 H 19.7238 0.491752 4.6551 0
M  V30 151 H 19.8968 0.931482 6.4127 0
M  V30 152 N 13.3029 -1.57598 0.00835791 0
M  V30 153 C 14.2499 -2.08945 -0.980346 0
M  V30 154 C 15.2199 -0.986738 -1.33614 0
M  V30 155 O 16.4049 -1.25968 -1.43306 0
M  V30 156 C 13.5449 -2.60425 -2.26435 0
M  V30 157 C 12.6579 -3.84628 -1.96685 0
M  V30 158 C 11.7929 -4.24579 -3.19228 0
M  V30 159 C 10.8319 -5.41596 -2.85202 0
M  V30 160 N 9.9689 -5.768 -4.00307 0
M  V30 161 H 14.8089 -2.93148 -0.535551 0
M  V30 162 H 12.3459 -1.44912 -0.252776 0
M  V30 163 H 14.3039 -2.88354 -3.01509 0
M  V30 164 H 12.9339 -1.79083 -2.68568 0
M  V30 165 H 11.9859 -3.63556 -1.11942 0
M  V30 166 H 13.2979 -4.69796 -1.67611 0
M  V30 167 H 12.4519 -4.53834 -4.02641 0
M  V30 168 H 11.1909 -3.38137 -3.51447 0
M  V30 169 H 10.1959 -5.12056 -2.00198 0
M  V30 170 H 11.4209 -6.29721 -2.54222 0
M  V30 171 H 9.3669 -4.93316 -4.32407 0
M  V30 172 H 9.2839 -6.5656 -3.74786 0
M  V30 173 H 10.5519 -6.10652 -4.84484 0
M  V30 174 N 14.781 0.264519 -1.55364 0
M  V30 175 C 16.028 0.994986 -1.7637 0
M  V30 176 C 16.356 1.85976 -0.5695 0
M  V30 177 O 15.611 1.90509 0.44776 0
M  V30 178 C 15.91 1.9004 -3.02687 0
M  V30 179 C 15.576 1.19243 -4.34847 0
M  V30 180 C 14.238 0.996709 -4.70764 0
M  V30 181 C 16.59 0.689296 -5.16622 0
M  V30 182 C 13.918 0.285261 -5.86006 0
M  V30 183 C 16.27 -0.00860079 -6.32599 0
M  V30 184 C 14.934 -0.215963 -6.67151 0
M  V30 185 H 14.204 0.364091 -0.645383 0
M  V30 186 H 16.851 0.266543 -1.89636 0
M  V30 187 H 15.156 2.69533 -2.84357 0
M  V30 188 H 16.853 2.46695 -3.16137 0
M  V30 189 H 13.443 1.3549 -4.06621 0
M  V30 190 H 17.627 0.828108 -4.89342 0
M  V30 191 H 12.883 0.113961 -6.11294 0
M  V30 192 H 17.057 -0.406186 -6.95214 0
M  V30 193 H 14.684 -0.769217 -7.56298 0
M  V30 194 N 16.2591 1.48442 0.529413 0
M  V30 195 C 17.5081 1.55742 1.28169 0
M  V30 196 C 17.8211 0.236511 1.94165 0
M  V30 197 O 19.0271 0.187761 2.7085 0
M  V30 198 C 17.4831 2.74667 2.32564 0
M  V30 199 C 17.0911 4.13402 1.72636 0
M  V30 200 C 18.8351 2.9128 3.08798 0
M  V30 201 C 16.7421 5.23587 2.74975 0
M  V30 202 H 15.6721 0.579796 0.48203 0
M  V30 203 H 18.3231 1.74776 0.559056 0
M  V30 204 H 16.7051 2.49067 3.07866 0
M  V30 205 H 17.8791 4.49022 1.03519 0
M  V30 206 H 16.1941 4.0191 1.08892 0
M  V30 207 H 18.7911 3.70767 3.85274 0
M  V30 208 H 19.1341 2.00757 3.64695 0
M  V30 209 H 19.6671 3.16782 2.40611 0
M  V30 210 H 16.4061 6.16076 2.23897 0
M  V30 211 H 15.9261 4.92454 3.42417 0
M  V30 212 H 17.6051 5.51724 3.37949 0
M  V30 213 N 17.7372 -0.778329 1.37039 0
M  V30 214 C 18.6852 -1.91278 1.32345 0
M  V30 215 C 19.6792 -1.68051 0.213331 0
M  V30 216 O 20.8852 -1.75922 0.38098 0
M  V30 217 H 17.2602 -0.628909 0.412283 0
M  V30 218 H 19.2312 -1.92355 2.28127 0
M  V30 219 C 17.9802 -3.28455 1.14073 0
M  V30 220 H 17.3032 -3.46901 1.98746 0
M  V30 221 H 18.7432 -4.08152 1.14837 0
M  V30 222 C 17.2022 -3.36548 -0.154015 0
M  V30 223 O 17.7322 -3.85186 -1.13993 0
M  V30 224 N 15.9382 -2.89894 -0.202475 0
M  V30 225 H 15.4852 -2.50504 0.600476 0
M  V30 226 H 15.4432 -2.9569 -1.06841 0
M  V30 227 N 19.2153 -1.21501 -1.00376 0
M  V30 228 C 20.4923 -0.941745 -1.71437 0
M  V30 229 C 20.8723 0.546114 -2.03914 0
M  V30 230 O 20.2203 1.51128 -1.71384 0
M  V30 231 C 20.4303 -1.82812 -2.97289 0
M  V30 232 C 21.7783 -2.07771 -3.70292 0
M  V30 233 O 22.8023 -1.80171 -3.07273 0
M  V30 234 O 21.6613 -2.54456 -4.83647 0
M  V30 235 H 18.7553 -0.353243 -0.747762 0
M  V30 236 H 21.3013 -1.32436 -1.06108 0
M  V30 237 H 20.0733 -2.83501 -2.69709 0
M  V30 238 H 19.6963 -1.4464 -3.70358 0
M  V30 239 N 20.6934 1.19889 -1.02296 0
M  V30 240 C 21.9414 1.89046 -0.714558 0
M  V30 241 C 22.2624 1.79636 0.758681 0
M  V30 242 O 21.5324 1.20292 1.54618 0
M  V30 243 H 20.1124 0.699802 -0.261317 0
M  V30 244 H 22.7744 1.45574 -1.29592 0
M  V30 245 H 21.8704 2.95524 -1.0036 0
M  V30 246 N 22.1715 0.800033 1.35784 0
M  V30 247 C 23.4175 0.377901 1.99248 0
M  V30 248 C 23.7505 -1.05052 1.63333 0
M  V30 249 O 23.0255 -1.72768 0.893385 0
M  V30 250 C 23.3085 0.553922 3.55814 0
M  V30 251 C 23.1615 2.0268 4.01548 0
M  V30 252 C 24.4805 -0.0244802 4.40093 0
M  V30 253 H 21.5995 0.138782 0.723815 0
M  V30 254 H 24.2415 1.00835 1.61035 0
M  V30 255 H 22.3915 0.0172398 3.88496 0
M  V30 256 H 24.0635 2.62536 3.79305 0
M  V30 257 H 22.3065 2.5256 3.52698 0
M  V30 258 H 22.9775 2.10087 5.10458 0
M  V30 259 H 25.4535 0.433775 4.13833 0
M  V30 260 H 24.3295 0.128637 5.48749 0
M  V30 261 H 24.5905 -1.11758 4.27741 0
M  V30 262 N 23.6496 -1.47581 0.552962 0
M  V30 263 C 24.8966 -2.02482 0.0273243 0
M  V30 264 C 25.2246 -1.42776 -1.32081 0
M  V30 265 O 24.4796 -0.571393 -1.87173 0
M  V30 266 C 24.7786 -3.57199 -0.119728 0
M  V30 267 C 24.4446 -4.35804 1.15697 0
M  V30 268 C 23.1066 -4.57 1.50681 0
M  V30 269 C 25.4586 -4.81167 2.00319 0
M  V30 270 C 22.7866 -5.20807 2.70142 0
M  V30 271 C 25.1386 -5.46293 3.18978 0
M  V30 272 C 23.8026 -5.65722 3.54281 0
M  V30 273 H 23.0726 -0.740933 0.00999866 0
M  V30 274 H 25.7196 -1.77302 0.72362 0
M  V30 275 H 24.0246 -3.81348 -0.89896 0
M  V30 276 H 25.7216 -3.97324 -0.541718 0
M  V30 277 H 22.3116 -4.19582 0.874561 0
M  V30 278 H 26.4956 -4.64574 1.74599 0
M  V30 279 H 21.7516 -5.34045 2.97668 0
M  V30 280 H 25.9256 -5.80407 3.84838 0
M  V30 281 H 23.5526 -6.14936 4.46942 0
M  V30 282 N 25.1277 -0.289203 -1.54924 0
M  V30 283 C 26.0597 0.625583 -2.20497 0
M  V30 284 C 27.0727 1.10667 -1.19402 0
M  V30 285 O 28.2617 1.02615 -1.46056 0
M  V30 286 C 25.3617 1.86702 -2.82835 0
M  V30 287 C 24.5347 1.5304 -4.09753 0
M  V30 288 C 23.5937 2.62576 -4.56005 0
M  V30 289 O 22.6197 2.28167 -5.21468 0
M  V30 290 N 23.8217 3.92901 -4.27328 0
M  V30 291 H 26.5867 0.0642801 -2.99631 0
M  V30 292 H 24.1477 -0.110896 -1.6152 0
M  V30 293 H 26.1397 2.59304 -3.10715 0
M  V30 294 H 24.7097 2.33702 -2.07611 0
M  V30 295 H 23.9297 0.637564 -3.8901 0
M  V30 296 H 25.2177 1.28072 -4.92418 0
M  V30 297 H 24.6157 4.23671 -3.74859 0
M  V30 298 H 23.1727 4.61837 -4.59946 0
M  V30 299 N 26.6058 1.57591 -0.0167156 0
M  V30 300 C 27.5688 2.08393 0.954204 0
M  V30 301 C 28.5688 0.996531 1.26198 0
M  V30 302 O 29.7588 1.25858 1.20438 0
M  V30 303 C 26.8908 2.5394 2.27436 0
M  V30 304 H 28.0838 2.95455 0.514451 0
M  V30 305 H 25.6368 1.54582 0.231089 0
M  V30 306 H 26.3718 1.70171 2.76066 0
M  V30 307 H 26.1568 3.33371 2.06412 0
M  V30 308 H 27.6468 2.93512 2.97053 0
M  V30 309 N 28.0839 -0.256276 1.55502 0
M  V30 310 C 28.9939 -1.33882 1.92647 0
M  V30 311 C 30.0099 -1.53159 0.825727 0
M  V30 312 O 31.1859 -1.66963 1.12629 0
M  V30 313 C 28.2509 -2.6751 2.20543 0
M  V30 314 C 27.3119 -2.56836 3.43997 0
M  V30 315 C 26.5449 -3.84092 3.70553 0
M  V30 316 O 26.7679 -4.85545 2.99336 0
M  V30 317 O 25.7019 -3.83288 4.64084 0
M  V30 318 H 29.5279 -1.05374 2.84833 0
M  V30 319 H 27.1129 -0.456237 1.42263 0
M  V30 320 H 28.9949 -3.46492 2.39835 0
M  V30 321 H 27.6699 -2.9577 1.31536 0
M  V30 322 H 26.5769 -1.76172 3.30021 0
M  V30 323 H 27.9099 -2.33523 4.33275 0
M  V30 324 N 29.562 -1.4872 -0.521534 0
M  V30 325 C 30.492 -1.66771 -1.63431 0
M  V30 326 C 31.473 -0.516499 -1.62069 0
M  V30 327 O 32.658 -0.750013 -1.79132 0
M  V30 328 C 29.788 -1.71515 -3.01993 0
M  V30 329 C 28.742 -2.86222 -3.18216 0
M  V30 330 C 28.068 -2.76061 -4.57924 0
M  V30 331 C 29.368 -4.27419 -3.00184 0
M  V30 332 H 31.062 -2.59932 -1.48579 0
M  V30 333 H 28.608 -1.25089 -0.713358 0
M  V30 334 H 30.561 -1.82731 -3.7972 0
M  V30 335 H 29.285 -0.749393 -3.17886 0
M  V30 336 H 27.944 -2.74575 -2.42908 0
M  V30 337 H 27.592 -1.77437 -4.70665 0
M  V30 338 H 27.292 -3.53037 -4.69722 0
M  V30 339 H 28.816 -2.89256 -5.37739 0
M  V30 340 H 30.23 -4.39855 -3.67697 0
M  V30 341 H 28.627 -5.05458 -3.2347 0
M  V30 342 H 29.697 -4.43293 -1.96518 0
M  V30 343 N 31.0401 0.771051 -1.3745 0
M  V30 344 C 31.9881 1.90574 -1.33358 0
M  V30 345 C 32.9821 1.67936 -0.22224 0
M  V30 346 O 34.1881 1.75717 -0.390304 0
M  V30 347 H 30.5631 0.626714 -0.415612 0
M  V30 348 H 32.5341 1.91142 -2.29144 0
M  V30 349 C 31.2831 3.27845 -1.15813 0
M  V30 350 H 30.6061 3.45842 -2.00583 0
M  V30 351 H 32.0461 4.07538 -1.17 0
M  V30 352 C 30.5051 3.36625 0.136165 0
M  V30 353 O 31.0351 3.85785 1.11949 0
M  V30 354 N 29.2411 2.89997 0.187099 0
M  V30 355 H 28.7881 2.50182 -0.613753 0
M  V30 356 H 28.7461 2.96252 1.05272 0
M  V30 357 N 32.5182 1.22032 0.997298 0
M  V30 358 C 33.4282 1.00271 2.12092 0
M  V30 359 C 34.4442 -0.047621 1.73935 0
M  V30 360 O 35.6202 0.144136 2.00884 0
M  V30 361 C 32.6852 0.578449 3.4184 0
M  V30 362 C 31.7462 1.70189 3.94125 0
M  V30 363 C 30.9792 1.29778 5.17681 0
M  V30 364 O 31.2022 0.174676 5.70132 0
M  V30 365 O 30.1362 2.11261 5.63607 0
M  V30 366 H 33.9622 1.94398 2.3333 0
M  V30 367 H 31.5472 1.00587 1.10465 0
M  V30 368 H 33.4292 0.351998 4.19927 0
M  V30 369 H 32.1042 -0.334019 3.21972 0
M  V30 370 H 31.0112 1.98282 3.1723 0
M  V30 371 H 32.3442 2.59206 4.18417 0
M  V30 372 N 33.9963 -1.19345 1.0293 0
M  V30 373 C 35.2433 -1.89038 0.726008 0
M  V30 374 C 35.5713 -1.79649 -0.745427 0
M  V30 375 O 34.8263 -1.18354 -1.55855 0
M  V30 376 C 35.1253 -3.39292 1.12319 0
M  V30 377 C 34.7913 -3.68885 2.59297 0
M  V30 378 C 33.4533 -3.76671 2.99453 0
M  V30 379 C 35.8053 -3.82178 3.54386 0
M  V30 380 C 33.1333 -3.9522 4.33611 0
M  V30 381 C 35.4853 -4.0224 4.88248 0
M  V30 382 C 34.1493 -4.08259 5.28092 0
M  V30 383 H 33.4193 -0.691739 0.265665 0
M  V30 384 H 36.0663 -1.41328 1.29223 0
M  V30 385 H 34.3713 -3.88903 0.475584 0
M  V30 386 H 36.0683 -3.91536 0.866037 0
M  V30 387 H 32.6583 -3.63433 2.27189 0
M  V30 388 H 36.8423 -3.75505 3.24514 0
M  V30 389 H 32.0983 -3.98119 4.64016 0
M  V30 390 H 36.2723 -4.11468 5.61843 0
M  V30 391 H 33.8993 -4.22384 6.32057 0
M  V30 392 N 35.4744 -0.807222 -1.35358 0
M  V30 393 C 36.4044 -0.232509 -2.3234 0
M  V30 394 C 37.3854 0.642386 -1.57504 0
M  V30 395 O 38.5704 0.572526 -1.85569 0
M  V30 396 C 35.7004 0.619238 -3.41735 0
M  V30 397 C 34.6544 -0.157215 -4.27711 0
M  V30 398 C 33.9804 0.816273 -5.28433 0
M  V30 399 C 35.2804 -1.35656 -5.04376 0
M  V30 400 H 36.9744 -1.04276 -2.80654 0
M  V30 401 H 34.5204 -0.50288 -1.34934 0
M  V30 402 H 36.4734 1.03137 -4.08584 0
M  V30 403 H 35.1974 1.46239 -2.92031 0
M  V30 404 H 33.8564 -0.550525 -3.62443 0
M  V30 405 H 33.5044 1.65494 -4.74996 0
M  V30 406 H 33.2044 0.301067 -5.86828 0
M  V30 407 H 34.7284 1.22659 -5.98153 0
M  V30 408 H 36.1424 -1.01927 -5.64166 0
M  V30 409 H 34.5394 -1.8063 -5.7227 0
M  V30 410 H 35.6094 -2.14288 -4.34981 0
M  V30 411 N 36.9525 1.47285 -0.560781 0
M  V30 412 C 37.9155 2.28535 0.174488 0
M  V30 413 C 38.9155 1.37153 0.839388 0
M  V30 414 O 40.1055 1.59748 0.694702 0
M  V30 415 C 37.2375 3.16934 1.25561 0
M  V30 416 H 38.4305 2.95012 -0.539262 0
M  V30 417 H 35.9835 1.53034 -0.317865 0
M  V30 418 H 36.7185 2.55157 2.00164 0
M  V30 419 H 36.5035 3.8419 0.783604 0
M  V30 420 H 37.9935 3.78143 1.77193 0
M  V30 421 N 38.4306 0.297415 1.54768 0
M  V30 422 C 39.8466 -0.0560823 1.59501 0
M  V30 423 C 40.0466 -1.52725 1.31444 0
M  V30 424 O 39.1026 -2.27947 1.08611 0
M  V30 425 C 40.4156 0.338631 2.98787 0
M  V30 426 C 41.9636 0.287097 3.11681 0
M  V30 427 C 42.4386 0.656579 4.53269 0
M  V30 428 N 43.9296 0.608977 4.59179 0
M  V30 429 C 44.6646 0.867385 5.66802 0
M  V30 430 N 44.1606 1.19157 6.82476 0
M  V30 431 N 45.9536 0.794687 5.56454 0
M  V30 432 H 38.1046 1.25624 1.71267 0
M  V30 433 H 40.3676 0.509057 0.799728 0
M  V30 434 H 40.0736 1.36263 3.2423 0
M  V30 435 H 39.9476 -0.309508 3.75928 0
M  V30 436 H 42.3346 -0.727649 2.85988 0
M  V30 437 H 42.4156 0.969809 2.36703 0
M  V30 438 H 42.0596 1.66912 4.7969 0
M  V30 439 H 41.9896 -0.0481649 5.26578 0
M  V30 440 H 44.4806 0.369198 3.76092 0
M  V30 441 H 44.7936 1.37482 7.60473 0
M  V30 442 H 43.1386 1.22958 6.84037 0
M  V30 443 H 46.3296 0.541098 4.64962 0
M  V30 444 H 46.5026 0.999445 6.40246 0
M  V30 445 N 39.9087 -1.5758 0.0250728 0
M  V30 446 C 41.1577 -1.90811 -0.653767 0
M  V30 447 C 41.4707 -0.90273 -1.73523 0
M  V30 448 O 42.6767 -1.12614 -2.47043 0
M  V30 449 C 41.1327 -3.38804 -1.21409 0
M  V30 450 C 40.7407 -4.47692 -0.166126 0
M  V30 451 C 42.4847 -3.81108 -1.86967 0
M  V30 452 C 40.3917 -5.86779 -0.737856 0
M  V30 453 H 39.3217 -0.712063 -0.247956 0
M  V30 454 H 41.9727 -1.83281 0.0897137 0
M  V30 455 H 40.3547 -3.41252 -2.00905 0
M  V30 456 H 41.5287 -4.56797 0.606079 0
M  V30 457 H 39.8437 -4.14565 0.390466 0
M  V30 458 H 42.4407 -4.82375 -2.30692 0
M  V30 459 H 42.7837 -3.15953 -2.71071 0
M  V30 460 H 43.3167 -3.81065 -1.14167 0
M  V30 461 H 40.0557 -6.55468 0.0649577 0
M  V30 462 H 39.5757 -5.81288 -1.47864 0
M  V30 463 H 41.2547 -6.35223 -1.22884 0
M  V30 464 N 41.3868 0.248026 -1.55636 0
M  V30 465 C 42.3168 1.31079 -1.93237 0
M  V30 466 C 43.2978 1.50264 -0.797174 0
M  V30 467 O 44.4828 1.62891 -1.05737 0
M  V30 468 C 41.6128 2.66575 -2.22609 0
M  V30 469 C 40.5668 2.62087 -3.3837 0
M  V30 470 C 39.8928 4.01369 -3.53281 0
M  V30 471 C 41.1928 2.19171 -4.7409 0
M  V30 472 H 42.8868 0.998556 -2.82257 0
M  V30 473 H 40.4328 0.47891 -1.35803 0
M  V30 474 H 42.3858 3.41057 -2.47503 0
M  V30 475 H 41.1098 2.99432 -1.30414 0
M  V30 476 H 39.7688 1.90063 -3.13483 0
M  V30 477 H 39.4168 4.31489 -2.58508 0
M  V30 478 H 39.1168 3.99254 -4.31127 0
M  V30 479 H 40.6408 4.77552 -3.80495 0
M  V30 480 H 42.0548 2.83384 -4.98363 0
M  V30 481 H 40.4518 2.2817 -5.5503 0
M  V30 482 H 41.5218 1.14336 -4.71227 0
M  V30 483 N 42.8649 1.48995 0.513639 0
M  V30 484 C 43.8279 1.64229 1.59879 0
M  V30 485 C 44.8279 0.514696 1.5234 0
M  V30 486 O 46.0179 0.78087 1.55718 0
M  V30 487 C 43.1499 1.62783 2.99524 0
M  V30 488 H 44.3429 2.61004 1.47705 0
M  V30 489 H 41.8959 1.37837 0.736936 0
M  V30 490 H 42.6309 0.675461 3.17188 0
M  V30 491 H 42.4159 2.4466 3.06404 0
M  V30 492 H 43.9059 1.76669 3.78388 0
M  V30 493 N 44.343 -0.763751 1.37857 0
M  V30 494 C 45.253 -1.90817 1.36478 0
M  V30 495 C 46.269 -1.71997 0.263248 0
M  V30 496 O 47.445 -1.95095 0.499979 0
M  V30 497 C 44.51 -3.2605 1.17864 0
M  V30 498 C 43.571 -3.57467 2.3773 0
M  V30 499 C 42.804 -4.86249 2.19995 0
M  V30 500 O 43.027 -5.57884 1.18836 0
M  V30 501 O 41.961 -5.16911 3.08361 0
M  V30 502 H 45.787 -1.94933 2.32884 0
M  V30 503 H 43.372 -0.907619 1.1867 0
M  V30 504 H 45.254 -4.06924 1.09504 0
M  V30 505 H 43.929 -3.22769 0.245372 0
M  V30 506 H 42.836 -2.76796 2.51664 0
M  V30 507 H 44.169 -3.655 3.29652 0
M  V30 508 N 45.8211 -1.22559 -0.990812 0
M  V30 509 C 47.0981 -0.959875 -1.70428 0
M  V30 510 C 47.4781 0.524455 -2.04481 0
M  V30 511 O 46.8261 1.49302 -1.72977 0
M  V30 512 C 47.0361 -1.85955 -2.95333 0
M  V30 513 C 48.3841 -2.11687 -3.68068 0
M  V30 514 O 49.4081 -1.8342 -3.05345 0
M  V30 515 O 48.2671 -2.59572 -4.80921 0
M  V30 516 H 45.3611 -0.361154 -0.743974 0
M  V30 517 H 47.9071 -1.33554 -1.04697 0
M  V30 518 H 46.6791 -2.86346 -2.66687 0
M  V30 519 H 46.3021 -1.4856 -3.68803 0
M  V30 520 N 47.2992 1.18797 -1.03562 0
M  V30 521 C 48.5472 1.88278 -0.734569 0
M  V30 522 C 48.8682 1.8043 0.739586 0
M  V30 523 O 48.1382 1.21925 1.53333 0
M  V30 524 H 46.7182 0.696991 -0.268725 0
M  V30 525 H 49.3802 1.44192 -1.31129 0
M  V30 526 H 48.4762 2.94443 -1.03489 0
M  V30 527 N 48.7773 0.814389 1.34928 0
M  V30 528 C 50.0073 0.41054 2.0248 0
M  V30 529 C 50.4153 -0.985625 1.61499 0
M  V30 530 O 49.7583 -1.64781 0.811976 0
M  V30 531 C 49.8203 0.423384 3.56998 0
M  V30 532 C 49.4843 1.77141 4.21272 0
M  V30 533 C 50.4813 2.73093 4.42398 0
M  V30 534 C 48.1663 2.05755 4.58225 0
M  V30 535 C 50.1603 3.95838 4.9959 0
M  V30 536 C 47.8473 3.28762 5.1513 0
M  V30 537 C 48.8453 4.23621 5.35755 0
M  V30 538 O 48.5333 5.44456 5.91458 0
M  V30 539 H 48.2653 0.163997 0.655806 0
M  V30 540 H 50.8193 1.10155 1.73364 0
M  V30 541 H 49.0493 -0.324276 3.85338 0
M  V30 542 H 50.7383 0.0407683 4.0588 0
M  V30 543 H 51.5043 2.5228 4.14222 0
M  V30 544 H 47.3833 1.32727 4.4148 0
M  V30 545 H 50.9273 4.69891 5.15605 0
M  V30 546 H 46.8243 3.49443 5.42734 0
M  V30 547 H 47.5923 5.4586 6.09901 0
M  V30 548 N 50.2554 -1.46986 0.568584 0
M  V30 549 C 51.4804 -2.07335 0.0520528 0
M  V30 550 C 51.9054 -1.41675 -1.23733 0
M  V30 551 O 51.2634 -0.495623 -1.74394 0
M  V30 552 C 51.3114 -3.60417 -0.11501 0
M  V30 553 O 50.4154 -3.95309 -1.17492 0
M  V30 554 H 49.7564 -0.661597 0.0564385 0
M  V30 555 H 52.2864 -1.88837 0.787507 0
M  V30 556 H 52.2964 -4.06698 -0.325644 0
M  V30 557 H 50.9714 -4.07601 0.826675 0
M  V30 558 H 49.5484 -3.60757 -0.943869 0
M  V30 559 N 51.7335 -0.305618 -1.54608 0
M  V30 560 C 52.9815 0.301701 -1.99835 0
M  V30 561 C 53.3025 1.54054 -1.19551 0
M  V30 562 O 52.5725 1.93702 -0.292658 0
M  V30 563 H 51.1525 0.114468 -0.738178 0
M  V30 564 H 53.8145 -0.418016 -1.90364 0
M  V30 565 H 52.9105 0.570548 -3.06841 0
M  V30 566 N 53.2116 1.57565 -0.0334293 0
M  V30 567 C 54.4576 1.92262 0.645226 0
M  V30 568 C 54.7906 0.910543 1.71531 0
M  V30 569 O 54.0656 -0.066099 1.94388 0
M  V30 570 C 54.3486 3.37422 1.2577 0
M  V30 571 C 54.2016 4.49369 0.196891 0
M  V30 572 C 55.5206 3.82628 2.17449 0
M  V30 573 H 52.6396 0.699171 0.233085 0
M  V30 574 H 55.2816 1.89779 -0.0915694 0
M  V30 575 H 53.4316 3.39669 1.88566 0
M  V30 576 H 55.1036 4.59254 -0.433962 0
M  V30 577 H 53.3466 4.31168 -0.477137 0
M  V30 578 H 54.0176 5.47978 0.665124 0
M  V30 579 H 56.4936 3.82145 1.64634 0
M  V30 580 H 55.3696 4.84883 2.57254 0
M  V30 581 H 55.6306 3.18376 3.0674 0
M  V30 582 N 54.6897 -0.239769 1.55765 0
M  V30 583 C 55.5997 -1.31831 1.94056 0
M  V30 584 C 56.6157 -1.52275 0.841925 0
M  V30 585 O 57.7917 -1.65759 1.14394 0
M  V30 586 C 54.8567 -2.65156 2.23368 0
M  V30 587 C 53.9177 -2.53173 3.46701 0
M  V30 588 C 53.1507 -3.8014 3.74606 0
M  V30 589 O 53.3737 -4.82343 3.04469 0
M  V30 590 O 52.3077 -3.78344 4.68123 0
M  V30 591 H 56.1337 -1.02347 2.85935 0
M  V30 592 H 53.7187 -0.441123 1.42739 0
M  V30 593 H 55.6007 -3.43929 2.43497 0
M  V30 594 H 54.2757 -2.94358 1.34666 0
M  V30 595 H 53.1827 -1.72662 3.31871 0
M  V30 596 H 54.5157 -2.28915 4.35728 0
M  V30 597 N 56.1678 -1.49265 -0.50573 0
M  V30 598 C 57.4138 -1.58748 -1.26202 0
M  V30 599 C 57.7468 -0.271227 -1.92297 0
M  V30 600 O 57.0218 0.724831 -1.80489 0
M  V30 601 C 57.3048 -2.74332 -2.33268 0
M  V30 602 C 57.1578 -4.15737 -1.71705 0
M  V30 603 C 58.4768 -2.85576 -3.34865 0
M  V30 604 H 55.5958 -0.577826 -0.457478 0
M  V30 605 H 58.2378 -1.81532 -0.560897 0
M  V30 606 H 56.3878 -2.55036 -2.93068 0
M  V30 607 H 58.0598 -4.46537 -1.15769 0
M  V30 608 H 56.3028 -4.21605 -1.02135 0
M  V30 609 H 56.9738 -4.92477 -2.49341 0
M  V30 610 H 59.4498 -3.03127 -2.8505 0
M  V30 611 H 58.3258 -3.68135 -4.07146 0
M  V30 612 H 58.5868 -1.94732 -3.96903 0
M  V30 613 N 57.6459 0.756429 -1.3826 0
M  V30 614 C 59.0619 1.0591 -1.19395 0
M  V30 615 C 59.2619 2.01459 -0.0406567 0
M  V30 616 O 58.3179 2.44909 0.614467 0
M  V30 617 C 59.6309 1.64191 -2.51916 0
M  V30 618 C 61.1789 1.76376 -2.58574 0
M  V30 619 C 61.6539 2.38069 -3.91264 0
M  V30 620 N 63.1449 2.45503 -3.92788 0
M  V30 621 C 63.8799 2.94126 -4.92217 0
M  V30 622 N 63.3759 3.42805 -6.02043 0
M  V30 623 N 65.1689 2.9314 -4.7961 0
M  V30 624 H 57.3199 0.122313 -2.12048 0
M  V30 625 H 59.5829 0.116892 -0.940766 0
M  V30 626 H 59.2889 1.01451 -3.3675 0
M  V30 627 H 59.1629 2.6329 -2.70108 0
M  V30 628 H 61.5499 2.38244 -1.74137 0
M  V30 629 H 61.6309 0.759894 -2.44252 0
M  V30 630 H 61.2749 1.76835 -4.76121 0
M  V30 631 H 61.2049 3.39091 -4.02895 0
M  V30 632 H 63.6959 2.1107 -3.13461 0
M  V30 633 H 64.0089 3.78354 -6.73846 0
M  V30 634 H 62.3539 3.4087 -6.05667 0
M  V30 635 H 65.5449 2.54419 -3.92923 0
M  V30 636 H 65.7179 3.30721 -5.5725 0
M  V30 637 N 59.124 1.23083 0.984299 0
M  V30 638 C 60.37 1.06214 1.72761 0
M  V30 639 C 60.703 -0.400584 1.90024 0
M  V30 640 O 59.978 -1.29672 1.44967 0
M  V30 641 C 60.261 1.78375 3.12817 0
M  V30 642 C 60.114 3.32296 3.03149 0
M  V30 643 C 61.433 1.54309 4.12161 0
M  V30 644 H 58.552 0.387251 0.627061 0
M  V30 645 H 61.194 1.51536 1.14616 0
M  V30 646 H 59.344 1.39848 3.62457 0
M  V30 647 H 61.016 3.8032 2.61064 0
M  V30 648 H 59.259 3.6153 2.39747 0
M  V30 649 H 59.93 3.77972 4.02295 0
M  V30 650 H 62.406 1.87791 3.71314 0
M  V30 651 H 61.282 2.07281 5.08258 0
M  V30 652 H 61.543 0.477572 4.39513 0
M  V30 653 N 60.6021 -1.18246 1.0419 0
M  V30 654 C 61.8301 -1.92195 0.766072 0
M  V30 655 C 62.2451 -1.76247 -0.676933 0
M  V30 656 O 61.6021 -1.09293 -1.46155 0
M  V30 657 C 61.6531 -3.43568 1.12442 0
M  V30 658 O 61.3741 -3.59015 2.51078 0
M  V30 659 C 62.8751 -4.34613 0.873275 0
M  V30 660 H 60.0951 -0.610114 0.279288 0
M  V30 661 H 62.6391 -1.50007 1.38989 0
M  V30 662 H 60.7941 -3.8354 0.545542 0
M  V30 663 H 61.2081 -4.5273 2.64831 0
M  V30 664 H 62.6821 -5.39374 1.17385 0
M  V30 665 H 63.1591 -4.38781 -0.191909 0
M  V30 666 H 63.7651 -4.00341 1.43551 0
M  V30 667 N 62.0802 -0.821533 -1.34494 0
M  V30 668 C 63.4912 -0.467956 -1.8074 0
M  V30 669 C 63.8422 1.01151 -1.68116 0
M  V30 670 O 62.9672 1.78707 -1.22036 0
M  V30 671 C 63.5622 -0.842627 -3.28154 0
M  V30 672 C 62.1212 -0.541439 -3.72485 0
M  V30 673 C 61.2682 -1.06028 -2.56229 0
M  V30 674 H 64.2192 -1.01183 -1.22261 0
M  V30 675 H 64.2402 -0.145876 -3.8022 0
M  V30 676 H 63.7522 -1.91945 -3.37311 0
M  V30 677 H 61.8532 0.526034 -3.68868 0
M  V30 678 H 61.9662 -1.08453 -4.66663 0
M  V30 679 H 60.3302 -0.481892 -2.501 0
M  V30 680 H 61.1132 -2.14352 -2.68157 0
M  V30 681 N 63.5583 1.46682 -0.576371 0
M  V30 682 C 64.8073 2.01619 -0.0572825 0
M  V30 683 C 65.1203 1.45417 1.30818 0
M  V30 684 O 66.3263 1.92133 1.91825 0
M  V30 685 C 64.7823 3.59863 -0.0518371 0
M  V30 686 C 64.3903 4.25059 -1.41523 0
M  V30 687 C 66.1343 4.2248 0.413639 0
M  V30 688 C 64.0413 5.75364 -1.36785 0
M  V30 689 H 62.9713 0.753794 -0.0176448 0
M  V30 690 H 65.6223 1.68481 -0.727076 0
M  V30 691 H 64.0043 3.90048 0.683994 0
M  V30 692 H 65.1783 4.06491 -2.17029 0
M  V30 693 H 63.4933 3.7451 -1.8202 0
M  V30 694 H 66.0903 5.3265 0.467779 0
M  V30 695 H 66.4333 3.90976 1.42982 0
M  V30 696 H 66.9663 3.96897 -0.267929 0
M  V30 697 H 63.7053 6.11518 -2.36063 0
M  V30 698 H 63.2253 5.96214 -0.654895 0
M  V30 699 H 64.9043 6.37955 -1.07805 0
M  V30 700 N 65.0364 0.313813 1.54444 0
M  V30 701 C 66.4524 -0.0391619 1.59552 0
M  V30 702 C 66.6524 -1.51322 1.33056 0
M  V30 703 O 65.7084 -2.26782 1.11022 0
M  V30 704 C 67.0214 0.370302 2.98411 0
M  V30 705 C 68.5694 0.320139 3.11358 0
M  V30 706 C 69.0444 0.704617 4.52547 0
M  V30 707 N 70.5354 0.657645 4.58508 0
M  V30 708 C 71.2704 0.927453 5.6585 0
M  V30 709 N 70.7664 1.26389 6.81174 0
M  V30 710 N 72.5594 0.853662 5.5558 0
M  V30 711 H 64.7104 1.27433 1.69925 0
M  V30 712 H 66.9734 0.517511 0.794284 0
M  V30 713 H 66.6794 1.39694 3.22767 0
M  V30 714 H 66.5534 -0.269619 3.76235 0
M  V30 715 H 68.9404 -0.697275 2.86744 0
M  V30 716 H 69.0214 0.99486 2.35661 0
M  V30 717 H 68.6654 1.7199 4.77893 0
M  V30 718 H 68.5954 0.00768843 5.26599 0
M  V30 719 H 71.0864 0.409067 3.75679 0
M  V30 720 H 71.3994 1.4554 7.58972 0
M  V30 721 H 69.7444 1.30206 6.82694 0
M  V30 722 H 72.9354 0.590383 4.64362 0
M  V30 723 H 73.1084 1.0673 6.3915 0
M  V30 724 N 66.5145 -1.57545 0.0417849 0
M  V30 725 C 67.7425 -1.96624 -0.643928 0
M  V30 726 C 68.1575 -0.918897 -1.64929 0
M  V30 727 O 67.5145 0.0979323 -1.82237 0
M  V30 728 C 67.5655 -3.35781 -1.33914 0
M  V30 729 O 67.2865 -4.365 -0.374048 0
M  V30 730 C 68.7875 -3.89566 -2.1155 0
M  V30 731 H 66.0075 -0.647316 -0.176702 0
M  V30 732 H 68.5515 -2.04229 0.105304 0
M  V30 733 H 66.7065 -3.29357 -2.03968 0
M  V30 734 H 67.1205 -5.17248 -0.869179 0
M  V30 735 H 68.5945 -4.89242 -2.55628 0
M  V30 736 H 69.0715 -3.24488 -2.9598 0
M  V30 737 H 69.6775 -3.99298 -1.46427 0
M  V30 738 N 67.9926 0.231505 -1.5589 0
M  V30 739 C 68.9026 1.308 -1.94752 0
M  V30 740 C 69.9186 1.51826 -0.849989 0
M  V30 741 O 71.0946 1.6515 -1.15271 0
M  V30 742 C 68.1596 2.63968 -2.24771 0
M  V30 743 C 67.2206 2.51331 -3.48039 0
M  V30 744 C 66.4536 3.78148 -3.76616 0
M  V30 745 O 66.6766 4.80722 -3.07022 0
M  V30 746 O 65.6106 3.75857 -4.70123 0
M  V30 747 H 69.4366 1.0083 -2.86474 0
M  V30 748 H 67.0216 0.433547 -1.42971 0
M  V30 749 H 68.9036 3.42633 -2.45318 0
M  V30 750 H 67.5786 2.9364 -1.36225 0
M  V30 751 H 66.4856 1.709 -3.32782 0
M  V30 752 H 67.8186 2.26601 -4.36936 0
M  V30 753 N 69.4707 1.49531 0.497807 0
M  V30 754 C 70.7167 1.59415 1.25358 0
M  V30 755 C 71.0497 0.281422 1.9215 0
M  V30 756 O 70.3247 -0.715249 1.80871 0
M  V30 757 C 70.6077 2.75566 2.3181 0
M  V30 758 C 70.4607 4.16642 1.69498 0
M  V30 759 C 71.7797 2.87347 3.33346 0
M  V30 760 H 68.8987 0.580244 0.454408 0
M  V30 761 H 71.5407 1.81827 0.551262 0
M  V30 762 H 69.6907 2.56587 2.91711 0
M  V30 763 H 71.3627 4.47145 1.13399 0
M  V30 764 H 69.6057 4.22141 0.998978 0
M  V30 765 H 70.2767 4.93792 2.46725 0
M  V30 766 H 72.7527 3.04634 2.83438 0
M  V30 767 H 71.6287 3.70289 4.05188 0
M  V30 768 H 71.8897 1.96834 3.95865 0
M  V30 769 N 70.9488 -0.749086 1.3866 0
M  V30 770 C 72.1978 -1.50371 1.3443 0
M  V30 771 C 72.5108 -1.95503 -0.0616397 0
M  V30 772 O 73.7168 -2.70554 -0.226489 0
M  V30 773 C 72.1728 -2.71644 2.36088 0
M  V30 774 C 71.7808 -2.3352 3.82325 0
M  V30 775 C 73.5248 -3.49518 2.40909 0
M  V30 776 C 71.4318 -3.51431 4.75658 0
M  V30 777 H 70.3618 -0.564628 0.499712 0
M  V30 778 H 73.0128 -0.818449 1.64237 0
M  V30 779 H 71.3948 -3.42175 1.9933 0
M  V30 780 H 72.5688 -1.70627 4.28046 0
M  V30 781 H 70.8838 -1.6877 3.80665 0
M  V30 782 H 73.4808 -4.37197 3.07836 0
M  V30 783 H 73.8238 -3.90992 1.42937 0
M  V30 784 H 74.3568 -2.86005 2.76489 0
M  V30 785 H 71.0958 -3.15019 5.74842 0
M  V30 786 H 70.6158 -4.13352 4.34627 0
M  V30 787 H 72.2948 -4.17953 4.93887 0
M  V30 788 N 72.4269 -1.23603 -0.977757 0
M  V30 789 C 73.6759 -1.06377 -1.71368 0
M  V30 790 C 73.9889 0.399062 -1.91486 0
M  V30 791 O 75.1949 0.691312 -2.62551 0
M  V30 792 C 73.6509 -1.85512 -3.08404 0
M  V30 793 C 73.2589 -3.36141 -2.96164 0
M  V30 794 C 75.0029 -1.76783 -3.85938 0
M  V30 795 C 72.9099 -4.07659 -4.28449 0
M  V30 796 H 71.8399 -0.394452 -0.642591 0
M  V30 797 H 74.4909 -1.47594 -1.09034 0
M  V30 798 H 72.8729 -1.37103 -3.71509 0
M  V30 799 H 74.0469 -3.92056 -2.42133 0
M  V30 800 H 72.3619 -3.45712 -2.32104 0
M  V30 801 H 74.9589 -2.27526 -4.83876 0
M  V30 802 H 75.3019 -0.731116 -4.0983 0
M  V30 803 H 75.8349 -2.22818 -3.2954 0
M  V30 804 H 72.5739 -5.11648 -4.09752 0
M  V30 805 H 72.0939 -3.5653 -4.82334 0
M  V30 806 H 73.7729 -4.141 -4.97122 0
M  V30 807 N 73.905 1.17692 -1.04816 0
M  V30 808 C 75.321 1.39863 -0.768794 0
M  V30 809 C 75.521 1.91118 0.638451 0
M  V30 810 O 74.577 2.10036 1.40146 0
M  V30 811 C 75.89 2.39274 -1.82122 0
M  V30 812 C 77.438 2.52987 -1.843 0
M  V30 813 C 77.913 3.55669 -2.88555 0
M  V30 814 N 79.404 3.63183 -2.87493 0
M  V30 815 C 80.139 4.42381 -3.64811 0
M  V30 816 N 79.635 5.25125 -4.51903 0
M  V30 817 N 81.428 4.37217 -3.53267 0
M  V30 818 H 73.579 0.82752 -1.95617 0
M  V30 819 H 75.842 0.426123 -0.846831 0
M  V30 820 H 75.548 2.08678 -2.83102 0
M  V30 821 H 75.422 3.38725 -1.65967 0
M  V30 822 H 77.809 2.82896 -0.839869 0
M  V30 823 H 77.89 1.53623 -2.04532 0
M  V30 824 H 77.534 3.26499 -3.89051 0
M  V30 825 H 77.464 4.54728 -2.65575 0
M  V30 826 H 79.955 3.04103 -2.24343 0
M  V30 827 H 80.268 5.82728 -5.07591 0
M  V30 828 H 78.613 5.24519 -4.55966 0
M  V30 829 H 81.804 3.71626 -2.84625 0
M  V30 830 H 81.977 4.98696 -4.13771 0
M  V30 831 N 75.3831 0.828654 1.34056 0
M  V30 832 C 76.3461 0.259927 2.27721 0
M  V30 833 C 77.3461 -0.565478 1.50529 0
M  V30 834 O 78.5361 -0.38075 1.69988 0
M  V30 835 C 75.6681 -0.634944 3.34935 0
M  V30 836 H 76.8611 1.0863 2.79534 0
M  V30 837 H 74.4141 0.600951 1.44285 0
M  V30 838 H 75.1491 -1.48416 2.88346 0
M  V30 839 H 74.9341 -0.0444999 3.92075 0
M  V30 840 H 76.4241 -1.02648 4.04788 0
M  V30 841 N 76.8612 -1.46375 0.584142 0
M  V30 842 C 78.0892 -2.06761 0.0759296 0
M  V30 843 C 78.5042 -1.43266 -1.22965 0
M  V30 844 O 77.8612 -0.538458 -1.74376 0
M  V30 845 C 77.9122 -3.61375 -0.0950384 0
M  V30 846 O 77.6332 -4.22495 1.15887 0
M  V30 847 C 79.1342 -4.38693 -0.637434 0
M  V30 848 H 76.3542 -0.668479 0.0581075 0
M  V30 849 H 78.8982 -1.8798 0.805218 0
M  V30 850 H 77.0532 -3.79578 -0.774554 0
M  V30 851 H 77.4672 -5.15385 0.973598 0
M  V30 852 H 78.9412 -5.47464 -0.706237 0
M  V30 853 H 79.4182 -4.06836 -1.65472 0
M  V30 854 H 80.0242 -4.25299 0.00725967 0
M  V30 855 N 78.3393 -0.321999 -1.54275 0
M  V30 856 C 79.7553 0.0306999 -1.5957 0
M  V30 857 C 79.9553 1.50614 -1.33857 0
M  V30 858 O 79.0113 2.2619 -1.12223 0
M  V30 859 C 80.3243 -0.386122 -2.98211 0
M  V30 860 C 81.8723 -0.336647 -3.11184 0
M  V30 861 C 82.3473 -0.728607 -4.52167 0
M  V30 862 N 83.8383 -0.681952 -4.58152 0
M  V30 863 C 84.5733 -0.957449 -5.6535 0
M  V30 864 N 84.0693 -1.3 -6.80494 0
M  V30 865 N 85.8623 -0.883113 -5.55119 0
M  V30 866 H 78.0133 -1.28332 -1.69247 0
M  V30 867 H 80.2763 -0.521716 -0.791528 0
M  V30 868 H 79.9823 -1.41404 -3.22022 0
M  V30 869 H 79.8563 0.249662 -3.76373 0
M  V30 870 H 82.2433 0.682058 -2.8711 0
M  V30 871 H 82.3243 -1.00734 -2.3513 0
M  V30 872 H 81.9683 -1.74522 -4.76974 0
M  V30 873 H 81.8983 -0.0356152 -5.26588 0
M  V30 874 H 84.3893 -0.428985 -3.75457 0
M  V30 875 H 84.7023 -1.49563 -7.58189 0
M  V30 876 H 83.0473 -1.33824 -6.81994 0
M  V30 877 H 86.2383 -0.615001 -4.64042 0
M  V30 878 H 86.4113 -1.10118 -6.38575 0
M  V30 879 N 79.8174 1.5752 -0.0501392 0
M  V30 880 C 81.0454 1.96963 0.633492 0
M  V30 881 C 81.4604 0.927631 1.6444 0
M  V30 882 O 80.8174 -0.0882665 1.82286 0
M  V30 883 C 80.8684 3.36487 1.32132 0
M  V30 884 O 80.5894 4.36693 0.350894 0
M  V30 885 C 82.0904 3.90682 2.09481 0
M  V30 886 H 79.3104 0.648244 0.173266 0
M  V30 887 H 81.8544 2.0417 -0.116134 0
M  V30 888 H 80.0094 3.30434 2.02218 0
M  V30 889 H 80.4234 5.17702 0.841735 0
M  V30 890 H 81.8974 4.90591 2.5303 0
M  V30 891 H 82.3744 3.26053 2.94255 0
M  V30 892 H 82.9804 4.00069 1.44307 0
M  V30 893 N 81.2955 -0.223234 1.56011 0
M  V30 894 C 82.7115 -0.572856 1.48965 0
M  V30 895 C 82.9115 -1.87225 0.74492 0
M  V30 896 O 81.9675 -2.50899 0.283896 0
M  V30 897 C 83.2805 -0.653646 2.9351 0
M  V30 898 C 84.8285 -0.744386 3.0402 0
M  V30 899 C 85.3035 -0.856535 4.49919 0
M  V30 900 N 86.7945 -0.9208 4.53955 0
M  V30 901 C 87.5295 -1.02726 5.64123 0
M  V30 902 N 87.0255 -1.09777 6.84047 0
M  V30 903 N 88.8185 -1.06226 5.51971 0
M  V30 904 H 80.9695 0.629462 2.02858 0
M  V30 905 H 83.2325 0.220621 0.921971 0
M  V30 906 H 82.9385 0.231518 3.50937 0
M  V30 907 H 82.8125 -1.51781 3.45315 0
M  V30 908 H 85.1995 -1.61999 2.46658 0
M  V30 909 H 85.2805 0.14541 2.55386 0
M  V30 910 H 84.9245 0.0146069 5.07898 0
M  V30 911 H 84.8545 -1.76172 4.96257 0
M  V30 912 H 87.3455 -0.876694 3.6759 0
M  V30 913 H 87.6585 -1.17872 7.63758 0
M  V30 914 H 86.0035 -1.06693 6.86762 0
M  V30 915 H 89.1945 -1.00382 4.5721 0
M  V30 916 H 89.3675 -1.14177 6.37862 0
M  V30 917 N 82.7736 -1.49793 -0.48987 0
M  V30 918 C 83.6836 -1.70036 -1.61632 0
M  V30 919 C 84.6996 -0.583102 -1.63939 0
M  V30 920 O 85.8756 -0.859169 -1.82154 0
M  V30 921 C 82.9406 -1.77277 -2.97949 0
M  V30 922 C 82.0016 -3.00918 -3.06181 0
M  V30 923 C 81.2346 -3.07804 -4.35996 0
M  V30 924 O 81.4576 -2.21982 -5.25433 0
M  V30 925 O 80.3916 -4.00369 -4.49431 0
M  V30 926 H 84.2176 -2.65486 -1.47482 0
M  V30 927 H 81.8026 -1.33666 -0.667362 0
M  V30 928 H 83.6846 -1.84329 -3.78947 0
M  V30 929 H 82.3596 -0.850076 -3.12339 0
M  V30 930 H 81.2666 -2.99377 -2.2433 0
M  V30 931 H 82.5996 -3.92704 -2.96723 0
M  V30 932 N 84.2517 0.741722 -1.39055 0
M  V30 933 C 85.4977 1.50336 -1.36113 0
M  V30 934 C 85.8307 1.94148 0.0450796 0
M  V30 935 O 85.1057 1.66301 1.00868 0
M  V30 936 C 85.3887 2.74773 -2.32749 0
M  V30 937 C 85.2417 2.37023 -3.82283 0
M  V30 938 C 86.5607 3.76846 -2.27322 0
M  V30 939 H 83.6797 0.545351 -0.495743 0
M  V30 940 H 86.3217 0.848624 -1.69995 0
M  V30 941 H 84.4717 3.30639 -2.03986 0
M  V30 942 H 86.1437 1.8684 -4.21768 0
M  V30 943 H 84.3867 1.69334 -3.99385 0
M  V30 944 H 85.0577 3.26104 -4.45376 0
M  V30 945 H 87.5337 3.30548 -2.5274 0
M  V30 946 H 86.4097 4.6159 -2.97028 0
M  V30 947 H 86.6707 4.23286 -1.27599 0
M  V30 948 N 85.7298 1.2412 0.971189 0
M  V30 949 C 86.6598 1.05508 2.08304 0
M  V30 950 C 87.6408 -0.0308864 1.70072 0
M  V30 951 O 88.8258 0.135521 1.93727 0
M  V30 952 C 85.9558 0.655365 3.4106 0
M  V30 953 C 84.9098 1.68971 3.93234 0
M  V30 954 C 84.2358 1.14516 5.22293 0
M  V30 955 C 85.5358 3.08487 4.21465 0
M  V30 956 H 87.2298 1.98507 2.24132 0
M  V30 957 H 84.7758 0.955821 1.07704 0
M  V30 958 H 86.7288 0.51217 4.18276 0
M  V30 959 H 85.4528 -0.31032 3.25122 0
M  V30 960 H 84.1118 1.82106 3.18171 0
M  V30 961 H 83.7598 0.170189 5.02712 0
M  V30 962 H 83.4598 1.83635 5.58168 0
M  V30 963 H 84.9838 1.01401 6.02121 0
M  V30 964 H 86.3978 2.98601 4.89398 0
M  V30 965 H 84.7948 3.74926 4.68562 0
M  V30 966 H 85.8648 3.56787 3.28376 0
M  V30 967 N 87.2079 -1.17134 1.05439 0
M  V30 968 C 88.4559 -1.87085 0.764429 0
M  V30 969 C 88.7769 -1.81584 -0.710787 0
M  V30 970 O 88.0469 -1.24349 -1.51374 0
M  V30 971 H 86.6269 -0.692627 0.279779 0
M  V30 972 H 89.2889 -1.42087 1.33406 0
M  V30 973 H 88.3849 -2.92759 1.0816 0
M  V30 974 N 88.686 -0.835752 -1.33615 0
M  V30 975 C 89.963 -0.352017 -1.92406 0
M  V30 976 C 90.343 1.16225 -1.76224 0
M  V30 977 O 89.691 1.97526 -1.14873 0
M  V30 978 C 89.901 -0.795485 -3.39813 0
M  V30 979 C 91.249 -0.801703 -4.16963 0
M  V30 980 O 92.273 -0.738889 -3.48452 0
M  V30 981 O 91.132 -0.886607 -5.3926 0
M  V30 982 H 88.226 -0.0989641 -0.821057 0
M  V30 983 H 90.772 -0.921397 -1.42507 0
M  V30 984 H 89.544 -1.83795 -3.45449 0
M  V30 985 H 89.167 -0.202505 -3.97084 0
M  V30 986 N 90.1641 1.46063 -0.591896 0
M  V30 987 C 91.1111 2.30399 0.136069 0
M  V30 988 C 92.0811 1.41169 0.875238 0
M  V30 989 O 93.2661 1.70112 0.86409 0
M  V30 990 C 90.4061 3.25804 1.13781 0
M  V30 991 C 89.5191 4.30134 0.401137 0
M  V30 992 C 88.6541 5.12659 1.39121 0
M  V30 993 C 87.6931 6.0873 0.641462 0
M  V30 994 N 86.8301 6.8409 1.58004 0
M  V30 995 H 91.6701 2.92118 -0.589144 0
M  V30 996 H 89.2071 1.43959 -0.302342 0
M  V30 997 H 91.1651 3.79569 1.73156 0
M  V30 998 H 89.7951 2.65872 1.83062 0
M  V30 999 H 88.8471 3.79152 -0.307826 0
M  V30 1000 H 90.1591 4.98458 -0.184565 0
M  V30 1001 H 89.3131 5.70747 2.05749 0
M  V30 1002 H 88.0521 4.44316 2.01084 0
M  V30 1003 H 87.0571 5.49786 -0.0385419 0
M  V30 1004 H 88.2821 6.79095 0.0270945 0
M  V30 1005 H 86.2281 6.18449 2.18761 0
M  V30 1006 H 86.1451 7.48709 1.04738 0
M  V30 1007 H 87.4131 7.4673 2.23639 0
M  V30 1008 N 91.6422 0.330177 1.54103 0
M  V30 1009 C 92.8902 -0.269871 2.0029 0
M  V30 1010 C 93.2112 -1.52133 1.21986 0
M  V30 1011 O 92.4812 -1.93212 0.323438 0
M  V30 1012 H 91.0612 -0.10271 0.739905 0
M  V30 1013 H 93.7232 0.448249 1.89675 0
M  V30 1014 H 92.8192 -0.52166 3.07709 0
M  V30 1015 N 93.1203 -1.57491 0.0584922 0
M  V30 1016 C 94.5363 -1.56792 -0.298091 0
M  V30 1017 C 94.7363 -1.06679 -1.70944 0
M  V30 1018 O 93.7923 -0.726672 -2.41818 0
M  V30 1019 C 95.1053 -3.00461 -0.119879 0
M  V30 1020 C 96.6533 -3.1242 -0.190428 0
M  V30 1021 C 97.1283 -4.57982 -0.0406567 0
M  V30 1022 N 98.6193 -4.63099 -0.0966958 0
M  V30 1023 C 99.3543 -5.734 -0.00502943 0
M  V30 1024 N 98.8503 -6.9266 0.139402 0
M  V30 1025 N 100.643 -5.62067 -0.0611391 0
M  V30 1026 H 92.7943 -1.88386 0.98105 0
M  V30 1027 H 95.0573 -0.867865 0.381463 0
M  V30 1028 H 94.7633 -3.41187 0.85349 0
M  V30 1029 H 94.6373 -3.66843 -0.877833 0
M  V30 1030 H 97.0243 -2.71589 -1.15427 0
M  V30 1031 H 97.1053 -2.48702 0.598405 0
M  V30 1032 H 96.7493 -4.995 0.919897 0
M  V30 1033 H 96.6793 -5.19715 -0.848727 0
M  V30 1034 H 99.1703 -3.77331 -0.207277 0
M  V30 1035 H 99.4833 -7.72536 0.201855 0
M  V30 1036 H 97.8283 -6.94781 0.174586 0
M  V30 1037 H 101.019 -4.67782 -0.172583 0
M  V30 1038 H 101.192 -6.47999 0.0137562 0
M  V30 1039 N 94.5984 0.214957 -1.56127 0
M  V30 1040 C 96.0144 0.564948 -1.49267 0
M  V30 1041 C 96.2144 1.86827 -0.754838 0
M  V30 1042 O 95.2704 2.50745 -0.297198 0
M  V30 1043 C 96.5834 0.638071 -2.93852 0
M  V30 1044 C 98.1314 0.728253 -3.0441 0
M  V30 1045 C 98.6064 0.832663 -4.50367 0
M  V30 1046 N 100.097 0.896712 -4.54437 0
M  V30 1047 C 100.832 0.997324 -5.6466 0
M  V30 1048 N 100.328 1.06147 -6.8462 0
M  V30 1049 N 102.121 1.03297 -5.52527 0
M  V30 1050 H 94.2724 -0.640211 -2.02522 0
M  V30 1051 H 96.5354 -0.225507 -0.920788 0
M  V30 1052 H 96.2414 -0.250126 -3.50809 0
M  V30 1053 H 96.1154 1.49947 -3.46115 0
M  V30 1054 H 98.5024 1.60689 -2.47514 0
M  V30 1055 H 98.5834 -0.158952 -2.55306 0
M  V30 1056 H 98.2274 -0.0415417 -5.07883 0
M  V30 1057 H 98.1574 1.73538 -4.97184 0
M  V30 1058 H 100.648 0.857188 -3.6805 0
M  V30 1059 H 100.961 1.1382 -7.64372 0
M  V30 1060 H 99.3064 1.03049 -6.87318 0
M  V30 1061 H 102.497 0.979558 -4.57736 0
M  V30 1062 H 102.67 1.10793 -6.38458 0
M  V30 1063 N 96.0765 1.50051 0.48192 0
M  V30 1064 C 97.3255 1.59741 1.23149 0
M  V30 1065 C 97.6385 0.298163 1.93314 0
M  V30 1066 O 98.8445 0.273835 2.70116 0
M  V30 1067 C 97.3005 2.81926 2.23708 0
M  V30 1068 C 96.9085 4.18685 1.59396 0
M  V30 1069 C 98.6525 3.00956 2.99375 0
M  V30 1070 C 96.5595 5.3207 2.58178 0
M  V30 1071 H 95.4895 0.594838 0.46334 0
M  V30 1072 H 98.1405 1.76467 0.503169 0
M  V30 1073 H 96.5225 2.58736 2.99786 0
M  V30 1074 H 97.6965 4.52088 0.891811 0
M  V30 1075 H 96.0115 4.05171 0.960503 0
M  V30 1076 H 98.6085 3.82836 3.73283 0
M  V30 1077 H 98.9515 2.12258 3.58123 0
M  V30 1078 H 99.4845 3.24277 2.30411 0
M  V30 1079 H 96.2235 6.22888 2.04184 0
M  V30 1080 H 95.7435 5.03098 3.26577 0
M  V30 1081 H 97.4225 5.62196 3.20225 0
M  V30 1082 N 97.5546 -0.734337 1.39446 0
M  V30 1083 C 98.9706 -1.03997 1.21065 0
M  V30 1084 C 99.1706 -2.01369 0.0727019 0
M  V30 1085 O 98.2266 -2.45856 -0.575426 0
M  V30 1086 C 99.5396 -1.60163 2.54496 0
M  V30 1087 C 101.088 -1.7224 2.61347 0
M  V30 1088 C 101.563 -2.31814 3.95002 0
M  V30 1089 N 103.054 -2.39223 3.96644 0
M  V30 1090 C 103.789 -2.86258 4.96834 0
M  V30 1091 N 103.285 -3.33184 6.07421 0
M  V30 1092 N 105.078 -2.85473 4.84213 0
M  V30 1093 H 97.2286 -0.0885624 2.12215 0
M  V30 1094 H 99.4916 -0.10191 0.942506 0
M  V30 1095 H 99.1976 -0.960811 3.38321 0
M  V30 1096 H 99.0716 -2.5896 2.74262 0
M  V30 1097 H 101.459 -2.35443 1.77906 0
M  V30 1098 H 101.54 -0.720939 2.4543 0
M  V30 1099 H 101.184 -1.69238 4.78875 0
M  V30 1100 H 101.114 -3.32638 4.08239 0
M  V30 1101 H 103.605 -2.06057 3.16779 0
M  V30 1102 H 103.918 -3.67586 6.7978 0
M  V30 1103 H 102.263 -3.31191 6.11013 0
M  V30 1104 H 105.454 -2.48136 3.96921 0
M  V30 1105 H 105.627 -3.21814 5.62441 0
M  V30 1106 N 99.0327 -1.24633 -0.964593 0
M  V30 1107 C 99.9427 -1.05859 -2.09359 0
M  V30 1108 C 100.959 0.00148855 -1.74 0
M  V30 1109 O 102.135 -0.197346 -2.00431 0
M  V30 1110 C 99.1997 -0.668879 -3.40187 0
M  V30 1111 C 98.2607 -1.80578 -3.89474 0
M  V30 1112 C 97.4937 -1.43457 -5.14058 0
M  V30 1113 O 97.7167 -0.325775 -5.69469 0
M  V30 1114 O 96.6507 -2.2613 -5.57807 0
M  V30 1115 H 100.477 -2.00516 -2.28094 0
M  V30 1116 H 98.0617 -1.03481 -1.0776 0
M  V30 1117 H 99.9437 -0.463211 -4.18846 0
M  V30 1118 H 98.6187 0.248536 -3.22744 0
M  V30 1119 H 97.5257 -2.06623 -3.11862 0
M  V30 1120 H 98.8587 -2.70208 -4.11398 0
M  V30 1121 N 100.511 1.16574 -1.06058 0
M  V30 1122 C 101.441 2.23057 -0.690488 0
M  V30 1123 C 102.422 1.67141 0.315901 0
M  V30 1124 O 103.607 1.93253 0.191556 0
M  V30 1125 C 100.737 3.47222 -0.073625 0
M  V30 1126 C 99.6908 4.16016 -1.00573 0
M  V30 1127 C 99.0168 5.34104 -0.252289 0
M  V30 1128 C 100.317 4.67264 -2.33371 0
M  V30 1129 H 102.011 2.54271 -1.58072 0
M  V30 1130 H 99.5568 1.22218 -0.76149 0
M  V30 1131 H 101.51 4.20939 0.19714 0
M  V30 1132 H 100.234 3.15302 0.85161 0
M  V30 1133 H 98.8928 3.44223 -1.2612 0
M  V30 1134 H 98.5408 4.98437 0.675988 0
M  V30 1135 H 98.2408 5.81072 -0.873455 0
M  V30 1136 H 99.7648 6.10599 0.0109857 0
M  V30 1137 H 101.179 5.32573 -2.12223 0
M  V30 1138 H 99.5758 5.24843 -2.90963 0
M  V30 1139 H 100.646 3.83602 -2.96611 0
M  V30 1140 N 101.989 0.842826 1.3317 0
M  V30 1141 C 103.217 0.454055 2.01856 0
M  V30 1142 C 103.632 -0.94587 1.63397 0
M  V30 1143 O 102.989 -1.61534 0.849302 0
M  V30 1144 C 103.04 0.569715 3.56982 0
M  V30 1145 O 102.761 1.91448 3.94055 0
M  V30 1146 C 104.262 0.178412 4.42941 0
M  V30 1147 H 101.482 0.17979 0.646465 0
M  V30 1148 H 104.026 1.1365 1.70012 0
M  V30 1149 H 102.181 -0.0648587 3.87346 0
M  V30 1150 H 102.595 1.90282 4.88767 0
M  V30 1151 H 104.069 0.310376 5.51127 0
M  V30 1152 H 104.546 -0.880056 4.30293 0
M  V30 1153 H 105.152 0.787579 4.17944 0
M  V30 1154 N 103.467 -1.45747 0.599634 0
M  V30 1155 C 104.692 -2.07178 0.0960198 0
M  V30 1156 C 105.117 -1.44268 -1.207 0
M  V30 1157 O 104.475 -0.532503 -1.73303 0
M  V30 1158 C 104.523 -3.60579 -0.0385348 0
M  V30 1159 O 103.627 -3.97713 -1.0908 0
M  V30 1160 H 102.968 -0.660251 0.0704593 0
M  V30 1161 H 105.498 -1.87124 0.827385 0
M  V30 1162 H 105.508 -4.07298 -0.239304 0
M  V30 1163 H 104.183 -4.05756 0.912947 0
M  V30 1164 H 102.76 -3.62678 -0.867135 0
M  V30 1165 N 104.945 -0.338344 -1.53925 0
M  V30 1166 C 105.875 0.51328 -2.27789 0
M  V30 1167 C 106.856 1.107 -1.29149 0
M  V30 1168 O 108.041 1.12937 -1.57984 0
M  V30 1169 C 105.171 1.66697 -3.04679 0
M  V30 1170 C 104.125 1.20183 -4.1078 0
M  V30 1171 C 103.451 2.44363 -4.75595 0
M  V30 1172 C 104.751 0.30605 -5.21403 0
M  V30 1173 H 106.445 -0.102883 -2.99223 0
M  V30 1174 H 103.991 -0.0509219 -1.4391 0
M  V30 1175 H 105.944 2.26915 -3.55088 0
M  V30 1176 H 104.668 2.30995 -2.30887 0
M  V30 1177 H 103.327 0.622499 -3.61276 0
M  V30 1178 H 102.975 3.07057 -3.98403 0
M  V30 1179 H 102.675 2.13925 -5.47275 0
M  V30 1180 H 104.199 3.05317 -5.28786 0
M  V30 1181 H 105.613 0.814929 -5.67478 0
M  V30 1182 H 104.01 0.0937929 -6.00027 0
M  V30 1183 H 105.08 -0.65921 -4.80398 0
M  V30 1184 N 106.423 1.57458 -0.0668435 0
M  V30 1185 C 107.669 1.93587 0.6043 0
M  V30 1186 C 108.002 0.946722 1.69561 0
M  V30 1187 O 107.277 -0.0248516 1.94484 0
M  V30 1188 C 107.56 3.40014 1.18585 0
M  V30 1189 C 107.413 4.49685 0.101529 0
M  V30 1190 C 108.732 3.87154 2.09284 0
M  V30 1191 H 105.851 0.703958 0.218202 0
M  V30 1192 H 108.493 1.89542 -0.131804 0
M  V30 1193 H 106.643 3.43592 1.81319 0
M  V30 1194 H 108.315 4.5823 -0.531279 0
M  V30 1195 H 106.558 4.30059 -0.568487 0
M  V30 1196 H 107.229 5.49266 0.54874 0
M  V30 1197 H 109.705 3.85551 1.56491 0
M  V30 1198 H 108.581 4.90231 2.46911 0
M  V30 1199 H 108.842 3.2481 2.99918 0
M  V30 1200 N 107.901 -0.206675 1.56239 0
M  V30 1201 C 108.833 -1.27997 1.9013 0
M  V30 1202 C 109.846 -1.42299 0.790883 0
M  V30 1203 O 111.035 -1.42931 1.06925 0
M  V30 1204 C 108.135 -2.65368 2.10792 0
M  V30 1205 C 107.308 -2.72824 3.41886 0
M  V30 1206 C 106.367 -3.9131 3.51799 0
M  V30 1207 O 105.393 -3.78953 4.24716 0
M  V30 1208 N 106.595 -5.06265 2.84035 0
M  V30 1209 H 109.36 -0.992444 2.82791 0
M  V30 1210 H 106.921 -0.396652 1.56966 0
M  V30 1211 H 108.913 -3.43039 2.14724 0
M  V30 1212 H 107.483 -2.86657 1.24685 0
M  V30 1213 H 106.703 -1.81515 3.49923 0
M  V30 1214 H 107.991 -2.74786 4.28217 0
M  V30 1215 H 107.389 -5.19203 2.246 0
M  V30 1216 H 105.946 -5.81925 2.93609 0
M  V30 1217 N 109.379 -1.50304 -0.473955 0
M  V30 1218 C 110.326 -1.68959 -1.57231 0
M  V30 1219 C 111.296 -0.530899 -1.57387 0
M  V30 1220 O 112.481 -0.761133 -1.74961 0
M  V30 1221 C 109.621 -1.7871 -2.95223 0
M  V30 1222 C 108.734 -3.06061 -3.04878 0
M  V30 1223 C 107.869 -3.06626 -4.33767 0
M  V30 1224 C 106.908 -4.28443 -4.37154 0
M  V30 1225 N 106.045 -4.26763 -5.5751 0
M  V30 1226 H 110.885 -2.6273 -1.40631 0
M  V30 1227 H 108.422 -1.30241 -0.683789 0
M  V30 1228 H 110.38 -1.82344 -3.75242 0
M  V30 1229 H 109.01 -0.883806 -3.10465 0
M  V30 1230 H 108.062 -3.11911 -2.17751 0
M  V30 1231 H 109.374 -3.96039 -3.0324 0
M  V30 1232 H 108.528 -3.08973 -5.22131 0
M  V30 1233 H 107.267 -2.14473 -4.3801 0
M  V30 1234 H 106.272 -4.2631 -3.47188 0
M  V30 1235 H 107.497 -5.2182 -4.34605 0
M  V30 1236 H 105.443 -3.37462 -5.62544 0
M  V30 1237 H 105.36 -5.10507 -5.57601 0
M  V30 1238 H 106.628 -4.33253 -6.48006 0
M  V30 1239 N 110.857 0.726932 -1.39834 0
M  V30 1240 C 112.273 1.03354 -1.21615 0
M  V30 1241 C 112.473 2.01327 -0.08338 0
M  V30 1242 O 111.529 2.46158 0.56238 0
M  V30 1243 C 112.842 1.58811 -2.55342 0
M  V30 1244 C 114.39 1.70851 -2.62257 0
M  V30 1245 C 114.865 2.29716 -3.96225 0
M  V30 1246 N 116.356 2.37116 -3.97907 0
M  V30 1247 C 117.091 2.83619 -4.98345 0
M  V30 1248 N 116.587 3.29958 -6.09179 0
M  V30 1249 N 118.38 2.82901 -4.8572 0
M  V30 1250 H 110.531 0.0773069 -2.12259 0
M  V30 1251 H 112.794 0.0969102 -0.943034 0
M  V30 1252 H 112.5 0.942855 -3.38826 0
M  V30 1253 H 112.374 2.57502 -2.75632 0
M  V30 1254 H 114.761 2.34497 -1.79152 0
M  V30 1255 H 114.842 0.707913 -2.45809 0
M  V30 1256 H 114.486 1.66696 -4.79765 0
M  V30 1257 H 114.416 3.30469 -4.09997 0
M  V30 1258 H 116.907 2.04374 -3.17868 0
M  V30 1259 H 117.22 3.63976 -6.8172 0
M  V30 1260 H 115.565 3.27946 -6.12761 0
M  V30 1261 H 118.756 2.46027 -3.98231 0
M  V30 1262 H 118.929 3.18827 -5.6414 0
M  V30 1263 N 112.336 1.25143 0.95797 0
M  V30 1264 C 113.583 1.09692 1.70217 0
M  V30 1265 C 113.911 -0.362654 1.91089 0
M  V30 1266 O 113.166 -1.28386 1.47701 0
M  V30 1267 C 113.465 1.79272 3.09187 0
M  V30 1268 C 113.131 3.29196 3.08125 0
M  V30 1269 C 111.793 3.70096 3.07543 0
M  V30 1270 C 114.145 4.24995 3.0171 0
M  V30 1271 C 111.473 5.05213 2.9829 0
M  V30 1272 C 113.825 5.60132 2.93999 0
M  V30 1273 C 112.489 6.00365 2.9175 0
M  V30 1274 H 111.759 0.401393 0.622868 0
M  V30 1275 H 114.406 1.55372 1.11945 0
M  V30 1276 H 112.711 1.26014 3.70982 0
M  V30 1277 H 114.408 1.64773 3.65583 0
M  V30 1278 H 110.998 2.96651 3.09348 0
M  V30 1279 H 115.182 3.9439 3.01281 0
M  V30 1280 H 110.438 5.35569 2.94916 0
M  V30 1281 H 114.612 6.3406 2.87996 0
M  V30 1282 H 112.239 7.05023 2.84336 0
M  V30 1283 N 113.814 -1.1601 1.06675 0
M  V30 1284 C 115.061 -1.86633 0.785781 0
M  V30 1285 C 115.389 -1.81929 -0.687896 0
M  V30 1286 O 114.644 -1.23253 -1.52011 0
M  V30 1287 C 114.943 -3.35547 1.23057 0
M  V30 1288 C 114.609 -3.60448 2.70902 0
M  V30 1289 C 113.271 -3.66954 3.11285 0
M  V30 1290 C 115.623 -3.7071 3.66365 0
M  V30 1291 C 112.951 -3.81225 4.45965 0
M  V30 1292 C 115.303 -3.86503 5.00797 0
M  V30 1293 C 113.967 -3.91252 5.40813 0
M  V30 1294 H 113.237 -0.682937 0.287538 0
M  V30 1295 H 115.884 -1.37146 1.33654 0
M  V30 1296 H 114.189 -3.87193 0.59907 0
M  V30 1297 H 115.886 -3.88583 0.990163 0
M  V30 1298 H 112.476 -3.56021 2.38636 0
M  V30 1299 H 116.66 -3.64991 3.36296 0
M  V30 1300 H 111.916 -3.83155 4.76447 0
M  V30 1301 H 116.09 -3.93385 5.74649 0
M  V30 1302 H 113.717 -4.02062 6.45174 0
M  V30 1303 N 115.292 -0.849877 -1.32721 0
M  V30 1304 C 116.24 -0.279745 -2.30912 0
M  V30 1305 C 117.234 0.594278 -1.58634 0
M  V30 1306 O 118.44 0.482613 -1.73409 0
M  V30 1307 H 114.815 -0.0717521 -0.748569 0
M  V30 1308 H 116.786 -1.12222 -2.76494 0
M  V30 1309 C 115.535 0.521108 -3.43773 0
M  V30 1310 H 114.858 -0.142141 -3.99547 0
M  V30 1311 H 116.298 0.885693 -4.14646 0
M  V30 1312 C 114.757 1.70442 -2.90605 0
M  V30 1313 O 115.287 2.8034 -2.87702 0
M  V30 1314 N 113.493 1.52991 -2.47067 0
M  V30 1315 H 113.04 0.635914 -2.49628 0
M  V30 1316 H 112.998 2.32311 -2.11847 0
M  V30 1317 N 116.77 1.45427 -0.607355 0
M  V30 1318 C 117.717 2.3053 0.111625 0
M  V30 1319 C 118.687 1.4209 0.860216 0
M  V30 1320 O 119.872 1.71019 0.845998 0
M  V30 1321 C 117.012 3.26992 1.10319 0
M  V30 1322 C 116.125 4.30535 0.355493 0
M  V30 1323 C 115.26 5.14105 1.33676 0
M  V30 1324 C 114.299 6.09376 0.576862 0
M  V30 1325 N 113.436 6.85727 1.5074 0
M  V30 1326 H 118.276 2.91477 -0.620093 0
M  V30 1327 H 115.813 1.43631 -0.317594 0
M  V30 1328 H 117.771 3.81385 1.6912 0
M  V30 1329 H 116.401 2.67799 1.80232 0
M  V30 1330 H 115.453 3.78805 -0.348023 0
M  V30 1331 H 116.765 4.98235 -0.237423 0
M  V30 1332 H 115.919 5.72897 1.99684 0
M  V30 1333 H 114.658 4.46423 1.9636 0
M  V30 1334 H 113.663 5.49715 -0.0968519 0
M  V30 1335 H 114.888 6.79085 -0.0449341 0
M  V30 1336 H 112.834 6.20735 2.12189 0
M  V30 1337 H 112.751 7.49778 0.967913 0
M  V30 1338 H 114.019 7.4906 2.15706 0
M  V30 1339 N 118.248 0.346503 1.53744 0
M  V30 1340 C 119.473 -0.253074 2.0585 0
M  V30 1341 C 119.898 -1.43202 1.21962 0
M  V30 1342 O 119.256 -1.79783 0.234073 0
M  V30 1343 C 119.304 -0.643193 3.54817 0
M  V30 1344 O 118.408 -1.74286 3.73762 0
M  V30 1345 H 117.749 -0.0413583 0.662711 0
M  V30 1346 H 120.279 0.501574 1.98357 0
M  V30 1347 H 120.289 -0.919526 3.97503 0
M  V30 1348 H 118.964 0.218966 4.15323 0
M  V30 1349 H 117.541 -1.46356 3.42979 0
M  V30 1350 N 119.726 -1.57421 0.075193 0
M  V30 1351 C 120.954 -1.97946 -0.602076 0
M  V30 1352 C 121.369 -0.953674 -1.62943 0
M  V30 1353 O 120.726 0.0592551 -1.82404 0
M  V30 1354 C 120.777 -3.38546 -1.26762 0
M  V30 1355 O 120.498 -4.37195 -0.281376 0
M  V30 1356 C 121.999 -3.93966 -2.03239 0
M  V30 1357 H 119.219 -0.650918 -0.162931 0
M  V30 1358 H 121.763 -2.03959 0.148601 0
M  V30 1359 H 119.918 -3.33609 -1.96936 0
M  V30 1360 H 120.332 -5.18975 -0.759267 0
M  V30 1361 H 121.806 -4.94555 -2.45193 0
M  V30 1362 H 122.283 -3.30693 -2.8903 0
M  V30 1363 H 122.889 -4.02315 -1.37924 0
M  V30 1364 N 121.204 0.198386 -1.56346 0
M  V30 1365 C 122.152 1.26538 -1.95169 0
M  V30 1366 C 123.146 1.47295 -0.836685 0
M  V30 1367 O 124.352 1.48195 -1.02167 0
M  V30 1368 H 120.727 0.424744 -0.620561 0
M  V30 1369 H 122.698 0.910904 -2.84157 0
M  V30 1370 C 121.447 2.6035 -2.30463 0
M  V30 1371 H 120.77 2.45192 -3.15786 0
M  V30 1372 H 122.21 3.33762 -2.61494 0
M  V30 1373 C 120.669 3.17096 -1.13806 0
M  V30 1374 O 121.199 3.99588 -0.41135 0
M  V30 1375 N 119.405 2.75795 -0.915736 0
M  V30 1376 H 118.952 2.08816 -1.50843 0
M  V30 1377 H 118.91 3.14101 -0.136979 0
M  V30 1378 N 122.682 1.50554 0.465978 0
M  V30 1379 C 123.907 1.65838 1.24549 0
M  V30 1380 C 124.332 0.343486 1.84937 0
M  V30 1381 O 123.69 -0.69324 1.67523 0
M  V30 1382 C 123.738 2.75533 2.32624 0
M  V30 1383 O 122.842 2.37142 3.37398 0
M  V30 1384 H 122.183 0.553893 0.366194 0
M  V30 1385 H 124.713 1.96959 0.553927 0
M  V30 1386 H 124.723 2.98763 2.77857 0
M  V30 1387 H 123.398 3.70962 1.88043 0
M  V30 1388 H 121.975 2.24377 2.97841 0
M  V30 1389 N 124.16 -0.719506 1.40217 0
M  V30 1390 C 125.406 -1.48152 1.38488 0
M  V30 1391 C 125.739 -1.94195 -0.0141867 0
M  V30 1392 O 125.014 -1.67884 -0.982096 0
M  V30 1393 C 125.297 -2.71035 2.37091 0
M  V30 1394 C 125.15 -2.30912 3.86005 0
M  V30 1395 C 126.469 -3.73182 2.33288 0
M  V30 1396 H 123.588 -0.537395 0.504357 0
M  V30 1397 H 126.23 -0.821472 1.71324 0
M  V30 1398 H 124.38 -3.27352 2.0922 0
M  V30 1399 H 126.052 -1.80107 4.24687 0
M  V30 1400 H 124.295 -1.62958 4.02029 0
M  V30 1401 H 124.966 -3.18978 4.50508 0
M  V30 1402 H 127.442 -3.26485 2.57966 0
M  V30 1403 H 126.318 -4.56806 3.04334 0
M  V30 1404 H 126.579 -4.21202 1.34317 0
M  V30 1405 N 125.638 -1.25649 -0.95132 0
M  V30 1406 C 126.548 -1.08073 -2.08224 0
M  V30 1407 C 127.564 -0.0169666 -1.73992 0
M  V30 1408 O 128.74 -0.218593 -2.0021 0
M  V30 1409 C 125.805 -0.704922 -3.39458 0
M  V30 1410 C 124.866 -1.84699 -3.87537 0
M  V30 1411 C 124.099 -1.48902 -5.12508 0
M  V30 1412 O 124.322 -0.386156 -5.69091 0
M  V30 1413 O 123.256 -2.32033 -5.55378 0
M  V30 1414 H 127.082 -2.02924 -2.25954 0
M  V30 1415 H 124.667 -1.04618 -1.06656 0
M  V30 1416 H 126.549 -0.507609 -4.18332 0
M  V30 1417 H 125.224 0.214291 -3.2299 0
M  V30 1418 H 124.131 -2.09919 -3.09653 0
M  V30 1419 H 125.464 -2.74557 -4.08509 0
M  V30 1420 N 127.117 1.15442 -1.07289 0
M  V30 1421 C 128.047 2.22312 -0.714107 0
M  V30 1422 C 129.028 1.67467 0.298155 0
M  V30 1423 O 130.213 1.93445 0.171048 0
M  V30 1424 C 127.343 3.47124 -0.110448 0
M  V30 1425 C 126.297 4.14926 -1.04979 0
M  V30 1426 C 125.623 5.33807 -0.308924 0
M  V30 1427 C 126.923 4.64762 -2.38314 0
M  V30 1428 H 128.617 2.5258 -1.6076 0
M  V30 1429 H 126.163 1.21404 -0.77441 0
M  V30 1430 H 128.116 4.21124 0.152482 0
M  V30 1431 H 126.84 3.16187 0.81812 0
M  V30 1432 H 125.499 3.42866 -1.29764 0
M  V30 1433 H 125.147 4.99126 0.623084 0
M  V30 1434 H 124.847 5.80113 -0.935036 0
M  V30 1435 H 126.371 6.10576 -0.0537771 0
M  V30 1436 H 127.785 5.30292 -2.1786 0
M  V30 1437 H 126.182 5.21728 -2.96514 0
M  V30 1438 H 127.252 3.80434 -3.00663 0
M  V30 1439 N 128.595 0.856903 1.32268 0
M  V30 1440 C 129.842 0.461386 1.97174 0
M  V30 1441 C 130.17 -0.983491 1.67803 0
M  V30 1442 O 129.425 -1.70541 0.959903 0
M  V30 1443 C 129.724 0.649919 3.51441 0
M  V30 1444 C 129.39 2.0656 4.00804 0
M  V30 1445 C 128.052 2.45279 4.13995 0
M  V30 1446 C 130.404 2.98947 4.26943 0
M  V30 1447 C 127.732 3.75653 4.50668 0
M  V30 1448 C 130.084 4.28822 4.65075 0
M  V30 1449 C 128.748 4.67472 4.76472 0
M  V30 1450 H 128.018 0.168833 0.72151 0
M  V30 1451 H 130.665 1.08739 1.57633 0
M  V30 1452 H 128.97 -0.0593018 3.91755 0
M  V30 1453 H 130.667 0.32391 3.9969 0
M  V30 1454 H 127.257 1.75495 3.91024 0
M  V30 1455 H 131.441 2.70265 4.16258 0
M  V30 1456 H 126.697 4.05379 4.57688 0
M  V30 1457 H 130.871 5.0047 4.84255 0
M  V30 1458 H 128.498 5.68539 5.04646 0
M  V30 1459 N 130.073 -1.45103 0.615059 0
M  V30 1460 C 131.036 -2.29025 -0.0895485 0
M  V30 1461 C 132.036 -1.40174 -0.787906 0
M  V30 1462 O 133.226 -1.62217 -0.634933 0
M  V30 1463 C 130.358 -3.21376 -1.13711 0
M  V30 1464 H 131.551 -2.92807 0.648382 0
M  V30 1465 H 129.104 -1.51749 0.374444 0
M  V30 1466 H 129.839 -2.6241 -1.90556 0
M  V30 1467 H 129.624 -3.86834 -0.640475 0
M  V30 1468 H 131.114 -3.84459 -1.63036 0
M  V30 1469 N 131.551 -0.354651 -1.53558 0
M  V30 1470 C 132.461 0.50515 -2.29097 0
M  V30 1471 C 133.477 1.10223 -1.34636 0
M  V30 1472 O 134.653 1.11553 -1.67684 0
M  V30 1473 C 131.718 1.63479 -3.05738 0
M  V30 1474 C 130.779 1.06636 -4.15845 0
M  V30 1475 C 130.012 2.14217 -4.88822 0
M  V30 1476 O 130.235 3.35137 -4.61562 0
M  V30 1477 O 129.169 1.77887 -5.75013 0
M  V30 1478 H 132.995 -0.109237 -3.03503 0
M  V30 1479 H 130.58 -0.119357 -1.48922 0
M  V30 1480 H 132.462 2.2918 -3.5363 0
M  V30 1481 H 131.137 2.23478 -2.34178 0
M  V30 1482 H 130.044 0.373565 -3.7223 0
M  V30 1483 H 131.377 0.511081 -4.89539 0
M  V30 1484 N 133.029 1.57378 -0.0835403 0
M  V30 1485 C 134.445 1.57246 0.273109 0
M  V30 1486 C 134.645 1.09385 1.69225 0
M  V30 1487 O 133.701 0.765051 2.40631 0
M  V30 1488 C 135.014 3.00614 0.0720628 0
M  V30 1489 C 136.562 3.12684 0.1407 0
M  V30 1490 C 137.037 4.57989 -0.0322094 0
M  V30 1491 N 138.528 4.63194 0.0230085 0
M  V30 1492 C 139.263 5.73335 -0.0861941 0
M  V30 1493 N 138.759 6.9235 -0.24958 0
M  V30 1494 N 140.552 5.62093 -0.0282886 0
M  V30 1495 H 132.703 1.86801 -1.0109 0
M  V30 1496 H 134.966 0.861687 -0.395222 0
M  V30 1497 H 134.672 3.39786 -0.907662 0
M  V30 1498 H 134.546 3.68193 0.81936 0
M  V30 1499 H 136.933 2.73391 1.11092 0
M  V30 1500 H 137.014 2.47719 -0.637896 0
M  V30 1501 H 136.658 4.97973 -0.999247 0
M  V30 1502 H 136.588 5.21 0.765937 0
M  V30 1503 H 139.079 3.77613 0.14722 0
M  V30 1504 H 139.392 7.72117 -0.324733 0
M  V30 1505 H 137.737 6.94415 -0.285097 0
M  V30 1506 H 140.928 4.67997 0.0981408 0
M  V30 1507 H 141.101 6.47895 -0.116845 0
M  V30 1508 N 134.507 -0.190092 1.56449 0
M  V30 1509 C 135.753 -0.911052 1.81184 0
M  V30 1510 C 136.086 -1.82699 0.658396 0
M  V30 1511 O 135.361 -1.91491 -0.340775 0
M  V30 1512 C 135.644 -1.72297 3.16205 0
M  V30 1513 C 135.497 -0.831419 4.42049 0
M  V30 1514 C 136.816 -2.69454 3.47969 0
M  V30 1515 H 133.935 -0.32977 0.659106 0
M  V30 1516 H 136.577 -0.178169 1.89163 0
M  V30 1517 H 134.727 -2.34778 3.09534 0
M  V30 1518 H 136.399 -0.220929 4.60771 0
M  V30 1519 H 134.642 -0.138406 4.33579 0
M  V30 1520 H 135.313 -1.43461 5.33032 0
M  V30 1521 H 137.789 -2.17104 3.54972 0
M  V30 1522 H 136.665 -3.23342 4.43555 0
M  V30 1523 H 136.926 -3.48744 2.71717 0
M  V30 1524 N 135.985 -1.50799 -0.457987 0
M  V30 1525 C 136.895 -1.73426 -1.57989 0
M  V30 1526 C 137.911 -0.617745 -1.62665 0
M  V30 1527 O 139.087 -0.897614 -1.80291 0
M  V30 1528 C 136.152 -1.83557 -2.94122 0
M  V30 1529 C 135.213 -3.07345 -2.99729 0
M  V30 1530 C 134.446 -3.16983 -4.29368 0
M  V30 1531 O 134.669 -2.33077 -5.20607 0
M  V30 1532 O 133.603 -4.09812 -4.40837 0
M  V30 1533 H 137.429 -2.68555 -1.41817 0
M  V30 1534 H 135.014 -1.35052 -0.638859 0
M  V30 1535 H 136.896 -1.92326 -3.74952 0
M  V30 1536 H 135.571 -0.916137 -3.10465 0
M  V30 1537 H 134.478 -3.04068 -2.1793 0
M  V30 1538 H 135.811 -3.9891 -2.88326 0
M  V30 1539 N 137.463 0.71206 -1.40597 0
M  V30 1540 C 138.413 1.81783 -1.37619 0
M  V30 1541 C 139.397 1.58896 -0.253162 0
M  V30 1542 O 140.589 1.70009 -0.492547 0
M  V30 1543 C 137.718 3.19944 -1.24462 0
M  V30 1544 C 136.804 3.48582 -2.4156 0
M  V30 1545 N 137.195 3.48016 -3.67041 0
M  V30 1546 C 135.493 3.79056 -2.35016 0
M  V30 1547 C 136.194 3.75096 -4.44609 0
M  V30 1548 N 135.17 3.94022 -3.74497 0
M  V30 1549 H 138.972 1.79683 -2.32575 0
M  V30 1550 H 136.486 0.91134 -1.34419 0
M  V30 1551 H 138.483 3.99133 -1.20411 0
M  V30 1552 H 137.143 3.23267 -0.304762 0
M  V30 1553 H 138.154 3.28782 -4.00153 0
M  V30 1554 H 134.831 3.89848 -1.49415 0
M  V30 1555 H 136.221 3.80934 -5.53479 0
M  V30 1556 N 138.941 1.26152 0.944643 0
M  V30 1557 C 140.357 1.03189 1.21754 0
M  V30 1558 C 140.557 -0.245112 2.00004 0
M  V30 1559 O 139.613 -0.955176 2.33736 0
M  V30 1560 C 140.926 2.26119 1.98219 0
M  V30 1561 C 142.474 2.30984 2.11224 0
M  V30 1562 C 142.949 3.53597 2.91089 0
M  V30 1563 N 144.44 3.54053 2.98664 0
M  V30 1564 C 145.175 4.45593 3.60881 0
M  V30 1565 N 144.671 5.47416 4.24626 0
M  V30 1566 N 146.464 4.33252 3.58119 0
M  V30 1567 H 138.615 2.08177 0.421437 0
M  V30 1568 H 140.878 0.914723 0.248969 0
M  V30 1569 H 140.584 3.18984 1.48128 0
M  V30 1570 H 140.458 2.3009 2.98895 0
M  V30 1571 H 142.845 1.38635 2.60508 0
M  V30 1572 H 142.926 2.31026 1.09821 0
M  V30 1573 H 142.57 4.46273 2.42493 0
M  V30 1574 H 142.5 3.50802 3.92741 0
M  V30 1575 H 144.991 2.80403 2.53343 0
M  V30 1576 H 145.304 6.13459 4.69987 0
M  V30 1577 H 143.649 5.51278 4.23223 0
M  V30 1578 H 146.84 3.52924 3.0751 0
M  V30 1579 H 147.013 5.04786 4.06319 0
M  V30 1580 N 140.419 -1.14872 1.07899 0
M  V30 1581 C 141.667 -1.85422 0.803941 0
M  V30 1582 C 141.988 -1.83051 -0.67211 0
M  V30 1583 O 141.258 -1.27532 -1.48703 0
M  V30 1584 H 139.838 -0.686537 0.294408 0
M  V30 1585 H 142.5 -1.39226 1.3639 0
M  V30 1586 H 141.596 -2.90399 1.14346 0
M  V30 1587 N 141.898 -0.863906 -1.31812 0
M  V30 1588 C 142.828 -0.330843 -2.31144 0
M  V30 1589 C 143.809 0.575005 -1.60087 0
M  V30 1590 O 144.994 0.493304 -1.8783 0
M  V30 1591 C 142.124 0.47374 -3.44054 0
M  V30 1592 C 141.078 -0.338481 -4.26659 0
M  V30 1593 C 140.404 0.591412 -5.31419 0
M  V30 1594 C 141.704 -1.56926 -4.98168 0
M  V30 1595 H 143.398 -1.16086 -2.75979 0
M  V30 1596 H 140.944 -0.559657 -1.32679 0
M  V30 1597 H 142.897 0.857143 -4.12591 0
M  V30 1598 H 141.621 1.33721 -2.9797 0
M  V30 1599 H 140.28 -0.703754 -3.59782 0
M  V30 1600 H 139.928 1.45199 -4.81587 0
M  V30 1601 H 139.628 0.0519022 -5.87577 0
M  V30 1602 H 141.152 0.97179 -6.02817 0
M  V30 1603 H 142.566 -1.25764 -5.59336 0
M  V30 1604 H 140.963 -2.04739 -5.64094 0
M  V30 1605 H 142.033 -2.32544 -4.25501 0
M  V30 1606 N 143.376 1.44774 -0.622745 0
M  V30 1607 C 144.616 2.04004 -0.127102 0
M  V30 1608 C 144.98 1.47862 1.22478 0
M  V30 1609 O 146.181 1.98541 1.81204 0
M  V30 1610 C 144.452 3.57247 -0.104429 0
M  V30 1611 S 146.011 4.37574 0.327814 0
M  V30 1612 H 142.829 0.708713 -0.0569776 0
M  V30 1613 H 145.431 1.77275 -0.824253 0
M  V30 1614 H 144.135 3.95616 -1.09159 0
M  V30 1615 H 143.666 3.88575 0.614236 0
M  V30 1616 H 145.681 4.70575 1.57395 0
M  V30 1617 N 144.854 0.36279 1.53368 0
M  V30 1618 C 145.817 -0.472679 2.24273 0
M  V30 1619 C 146.817 -1.012 1.24961 0
M  V30 1620 O 148.007 -0.898194 1.49259 0
M  V30 1621 C 145.139 -1.66039 2.97731 0
M  V30 1622 H 146.332 0.14773 2.99536 0
M  V30 1623 H 143.885 0.114434 1.55881 0
M  V30 1624 H 144.62 -2.31896 2.26704 0
M  V30 1625 H 144.405 -1.28066 3.70596 0
M  V30 1626 H 145.895 -2.25252 3.51641 0
M  V30 1627 N 146.332 -1.57332 0.0918853 0
M  V30 1628 C 147.265 -2.09499 -0.904735 0
M  V30 1629 C 148.243 -1.00479 -1.27839 0
M  V30 1630 O 149.427 -1.27954 -1.38419 0
M  V30 1631 C 146.554 -2.56931 -2.2069 0
M  V30 1632 C 145.6 -3.77579 -1.98334 0
M  V30 1633 S 146.433 -5.21317 -1.22428 0
M  V30 1634 C 147.589 -5.72097 -2.53882 0
M  V30 1635 H 147.822 -2.93705 -0.460922 0
M  V30 1636 H 145.355 -1.53923 -0.121332 0
M  V30 1637 H 147.313 -2.84917 -2.95521 0
M  V30 1638 H 145.974 -1.72956 -2.62192 0
M  V30 1639 H 145.167 -4.08824 -2.94752 0
M  V30 1640 H 144.769 -3.5007 -1.31633 0
M  V30 1641 H 147.061 -5.80168 -3.49874 0
M  V30 1642 H 148.004 -6.70654 -2.27219 0
M  V30 1643 H 148.412 -5.00012 -2.62007 0
M  V30 1644 N 147.81 0.181792 -1.56548 0
M  V30 1645 C 148.773 1.20894 -1.94724 0
M  V30 1646 C 149.773 1.37738 -0.829747 0
M  V30 1647 O 150.963 1.35323 -1.09697 0
M  V30 1648 C 148.095 2.57593 -2.23291 0
M  V30 1649 H 149.288 0.882275 -2.86629 0
M  V30 1650 H 146.841 0.423838 -1.50444 0
M  V30 1651 H 147.576 2.95291 -1.34067 0
M  V30 1652 H 147.361 2.46735 -3.04736 0
M  V30 1653 H 148.851 3.31637 -2.53785 0
M  V30 1654 N 149.288 1.51039 0.449983 0
M  V30 1655 C 150.22 1.67617 1.56324 0
M  V30 1656 C 151.233 0.557083 1.52972 0
M  V30 1657 O 152.422 0.830989 1.57977 0
M  V30 1658 C 149.522 1.66402 2.95235 0
M  V30 1659 C 148.695 2.9469 3.23229 0
M  V30 1660 C 147.754 2.85832 4.41799 0
M  V30 1661 O 146.78 3.59785 4.41071 0
M  V30 1662 N 147.982 2.00821 5.44657 0
M  V30 1663 H 150.747 2.63648 1.42512 0
M  V30 1664 H 148.308 1.48767 0.638737 0
M  V30 1665 H 150.3 1.58062 3.72557 0
M  V30 1666 H 148.87 0.780182 3.02708 0
M  V30 1667 H 148.09 3.16996 2.34323 0
M  V30 1668 H 149.378 3.79636 3.38754 0
M  V30 1669 H 148.776 1.40091 5.48079 0
M  V30 1670 H 147.333 1.98368 6.20881 0
M  V30 1671 N 150.766 -0.704594 1.40972 0
M  V30 1672 C 151.729 -1.80035 1.41845 0
M  V30 1673 C 152.729 -1.57774 0.310474 0
M  V30 1674 O 153.919 -1.64613 0.56992 0
M  V30 1675 C 151.051 -3.18284 1.22098 0
M  V30 1676 H 152.244 -1.80658 2.3938 0
M  V30 1677 H 149.797 -0.911329 1.26982 0
M  V30 1678 H 150.532 -3.23306 0.253672 0
M  V30 1679 H 150.317 -3.35843 2.02366 0
M  V30 1680 H 151.807 -3.98289 1.25522 0
M  V30 1681 N 152.244 -1.26651 -0.937939 0
M  V30 1682 C 153.154 -1.10276 -2.07066 0
M  V30 1683 C 154.17 -0.0354197 -1.73964 0
M  V30 1684 O 155.346 -0.239816 -1.99967 0
M  V30 1685 C 152.411 -0.740887 -3.38691 0
M  V30 1686 C 151.472 -1.88799 -3.85556 0
M  V30 1687 C 150.705 -1.54329 -5.10899 0
M  V30 1688 O 150.928 -0.446494 -5.6865 0
M  V30 1689 O 149.862 -2.37911 -5.52885 0
M  V30 1690 H 153.688 -2.05309 -2.23789 0
M  V30 1691 H 151.273 -1.05743 -1.0554 0
M  V30 1692 H 153.155 -0.55195 -4.1777 0
M  V30 1693 H 151.83 0.180022 -3.23199 0
M  V30 1694 H 150.737 -2.13191 -3.07409 0
M  V30 1695 H 152.07 -2.78874 -4.05574 0
M  V30 1696 N 153.722 1.14298 -1.08507 0
M  V30 1697 C 154.947 1.8976 -0.837001 0
M  V30 1698 C 155.372 1.78097 0.605228 0
M  V30 1699 O 154.73 1.12188 1.4242 0
M  V30 1700 C 154.778 3.37685 -1.26495 0
M  V30 1701 O 153.882 4.10281 -0.417514 0
M  V30 1702 H 153.223 0.590365 -0.303917 0
M  V30 1703 H 155.753 1.44672 -1.44676 0
M  V30 1704 H 155.763 3.88501 -1.24625 0
M  V30 1705 H 154.438 3.45492 -2.31534 0
M  V30 1706 H 153.015 3.69536 -0.499722 0
M  V30 1707 N 155.201 0.870884 1.31352 0
M  V30 1708 C 156.131 0.343096 2.30966 0
M  V30 1709 C 157.112 -0.566507 1.60389 0
M  V30 1710 O 158.297 -0.483336 1.88089 0
M  V30 1711 C 155.427 -0.455487 3.443 0
M  V30 1712 C 154.381 0.361103 4.26474 0
M  V30 1713 C 153.707 -0.563221 5.31725 0
M  V30 1714 C 155.007 1.59566 4.97329 0
M  V30 1715 H 156.701 1.17548 2.75359 0
M  V30 1716 H 154.247 0.566686 1.32381 0
M  V30 1717 H 156.2 -0.83525 4.13039 0
M  V30 1718 H 154.924 -1.32139 2.98675 0
M  V30 1719 H 153.583 0.722825 3.59403 0
M  V30 1720 H 153.231 -1.42643 4.82351 0
M  V30 1721 H 152.931 -0.0207409 5.87596 0
M  V30 1722 H 154.455 -0.939808 6.03324 0
M  V30 1723 H 155.869 1.28728 5.58661 0
M  V30 1724 H 154.266 2.07728 5.63 0
M  V30 1725 H 155.336 2.34798 4.24262 0
M  V30 1726 N 156.679 -1.44442 0.630414 0
M  V30 1727 C 158.095 -1.56832 0.295973 0
M  V30 1728 C 158.295 -1.61806 -1.20088 0
M  V30 1729 O 157.351 -1.5607 -1.9849 0
M  V30 1730 C 158.664 -2.84031 0.987264 0
M  V30 1731 C 160.212 -2.97742 0.96534 0
M  V30 1732 C 160.687 -4.27743 1.63708 0
M  V30 1733 N 162.178 -4.34555 1.60364 0
M  V30 1734 C 162.913 -5.33862 2.09234 0
M  V30 1735 N 162.409 -6.39578 2.66292 0
M  V30 1736 N 164.202 -5.25366 1.99867 0
M  V30 1737 H 156.353 -1.39457 1.60205 0
M  V30 1738 H 158.616 -0.668237 0.672431 0
M  V30 1739 H 158.322 -2.86338 2.04215 0
M  V30 1740 H 158.196 -3.73534 0.524588 0
M  V30 1741 H 160.583 -2.94989 -0.0810639 0
M  V30 1742 H 160.664 -2.09589 1.4665 0
M  V30 1743 H 160.308 -4.31255 2.68293 0
M  V30 1744 H 160.238 -5.14752 1.11076 0
M  V30 1745 H 162.729 -3.58772 1.18705 0
M  V30 1746 H 163.042 -7.11637 3.01317 0
M  V30 1747 H 161.387 -6.40265 2.70343 0
M  V30 1748 H 164.578 -4.41688 1.55013 0
M  V30 1749 H 164.751 -6.02606 2.38265 0
M  V30 1750 N 158.157 -0.370918 -1.53173 0
M  V30 1751 C 159.387 0.217389 -2.05453 0
M  V30 1752 C 159.795 1.42568 -1.24382 0
M  V30 1753 O 159.138 1.81571 -0.278839 0
M  V30 1754 C 159.2 0.669827 -3.53205 0
M  V30 1755 C 158.864 -0.4225 -4.55043 0
M  V30 1756 C 159.861 -1.27407 -5.04047 0
M  V30 1757 C 157.546 -0.58427 -4.9889 0
M  V30 1758 C 159.54 -2.27271 -5.95505 0
M  V30 1759 C 157.227 -1.58627 -5.90153 0
M  V30 1760 C 158.225 -2.42892 -6.38351 0
M  V30 1761 O 157.913 -3.41382 -7.27814 0
M  V30 1762 H 157.645 0.0408171 -0.674767 0
M  V30 1763 H 160.199 -0.5292 -1.98466 0
M  V30 1764 H 158.429 1.4681 -3.57748 0
M  V30 1765 H 160.118 1.18173 -3.88317 0
M  V30 1766 H 160.884 -1.16031 -4.70916 0
M  V30 1767 H 156.763 0.061851 -4.60959 0
M  V30 1768 H 160.307 -2.93079 -6.33049 0
M  V30 1769 H 156.204 -1.70048 -6.22699 0
M  V30 1770 H 156.972 -3.37173 -7.45826 0
M  V30 1771 N 159.635 1.57281 -0.100228 0
M  V30 1772 C 160.582 2.14305 0.856858 0
M  V30 1773 C 161.552 1.06296 1.27634 0
M  V30 1774 O 162.737 1.34109 1.35718 0
M  V30 1775 C 159.877 2.73184 2.10866 0
M  V30 1776 C 158.99 3.95442 1.73925 0
M  V30 1777 C 158.125 4.42468 2.93931 0
M  V30 1778 C 157.164 5.57303 2.5314 0
M  V30 1779 N 156.301 5.99158 3.65997 0
M  V30 1780 H 161.141 2.95772 0.363726 0
M  V30 1781 H 158.678 1.46139 0.167858 0
M  V30 1782 H 160.636 3.05442 2.84185 0
M  V30 1783 H 159.266 1.94437 2.57671 0
M  V30 1784 H 158.318 3.69464 0.905554 0
M  V30 1785 H 159.63 4.78769 1.39935 0
M  V30 1786 H 158.784 4.76537 3.75496 0
M  V30 1787 H 157.523 3.58052 3.31134 0
M  V30 1788 H 156.528 5.22857 1.70003 0
M  V30 1789 H 157.753 6.43471 2.17075 0
M  V30 1790 H 155.699 5.17687 4.02909 0
M  V30 1791 H 155.616 6.77295 3.35869 0
M  V30 1792 H 156.884 6.3786 4.48057 0
M  V30 1793 N 161.113 -0.173488 1.56642 0
M  V30 1794 C 162.043 -1.2171 1.99271 0
M  V30 1795 C 163.024 -1.46289 0.867959 0
M  V30 1796 O 164.209 -1.5766 1.13388 0
M  V30 1797 C 161.339 -2.55651 2.35074 0
M  V30 1798 C 160.293 -2.45645 3.50489 0
M  V30 1799 C 159.619 -3.84056 3.72028 0
M  V30 1800 C 160.919 -1.96302 4.84007 0
M  V30 1801 H 162.613 -0.86275 2.867 0
M  V30 1802 H 160.159 -0.413571 1.37933 0
M  V30 1803 H 162.112 -3.2886 2.63494 0
M  V30 1804 H 160.836 -2.92869 1.44552 0
M  V30 1805 H 159.495 -1.7489 3.22194 0
M  V30 1806 H 159.143 -4.18664 2.788 0
M  V30 1807 H 158.843 -3.7823 4.49684 0
M  V30 1808 H 160.367 -4.58854 4.02846 0
M  V30 1809 H 161.781 -2.59284 5.11317 0
M  V30 1810 H 160.178 -2.01429 5.65284 0
M  V30 1811 H 161.248 -0.917226 4.76146 0
M  V30 1812 N 162.591 -1.51276 -0.441967 0
M  V30 1813 C 163.521 -1.752 -1.54361 0
M  V30 1814 C 164.502 -0.601682 -1.59103 0
M  V30 1815 O 165.687 -0.843913 -1.74905 0
M  V30 1816 C 162.817 -1.87282 -2.92477 0
M  V30 1817 C 161.771 -3.02687 -3.02596 0
M  V30 1818 C 161.097 -2.99947 -4.42647 0
M  V30 1819 C 162.397 -4.4273 -2.77106 0
M  V30 1820 H 164.091 -2.67442 -1.34592 0
M  V30 1821 H 161.637 -1.28694 -0.646048 0
M  V30 1822 H 163.59 -2.02602 -3.695 0
M  V30 1823 H 162.314 -0.916844 -3.13467 0
M  V30 1824 H 160.973 -2.87065 -2.28012 0
M  V30 1825 H 160.621 -2.02136 -4.60597 0
M  V30 1826 H 160.321 -3.77439 -4.50348 0
M  V30 1827 H 161.845 -3.17354 -5.2165 0
M  V30 1828 H 163.259 -4.58727 -3.43864 0
M  V30 1829 H 161.656 -5.21893 -2.96222 0
M  V30 1830 H 162.726 -4.53087 -1.72744 0
M  V30 1831 N 164.069 0.697108 -1.41344 0
M  V30 1832 C 165.016 1.81106 -1.43071 0
M  V30 1833 C 165.986 1.63632 -0.285275 0
M  V30 1834 O 167.171 1.84504 -0.486091 0
M  V30 1835 C 164.311 3.18975 -1.31715 0
M  V30 1836 C 163.424 3.47892 -2.56115 0
M  V30 1837 C 162.559 4.75367 -2.37064 0
M  V30 1838 C 161.598 4.97247 -3.56948 0
M  V30 1839 N 160.735 6.15947 -3.36977 0
M  V30 1840 H 165.575 1.78965 -2.38276 0
M  V30 1841 H 163.112 0.873975 -1.18322 0
M  V30 1842 H 165.07 3.98615 -1.23133 0
M  V30 1843 H 163.7 3.20297 -0.401183 0
M  V30 1844 H 162.752 2.62669 -2.75153 0
M  V30 1845 H 164.064 3.59962 -3.45295 0
M  V30 1846 H 163.218 5.63059 -2.25941 0
M  V30 1847 H 161.957 4.65541 -1.45338 0
M  V30 1848 H 160.962 4.08004 -3.68527 0
M  V30 1849 H 162.187 5.08934 -4.49626 0
M  V30 1850 H 160.133 6.07336 -2.47949 0
M  V30 1851 H 160.05 6.28777 -4.19732 0
M  V30 1852 H 161.318 7.06377 -3.29623 0
M  V30 1853 N 165.547 1.27147 0.931209 0
M  V30 1854 C 166.795 1.13055 1.6752 0
M  V30 1855 C 167.116 -0.324791 1.92276 0
M  V30 1856 O 166.386 -1.22775 1.52654 0
M  V30 1857 H 164.966 0.415391 0.620854 0
M  V30 1858 H 167.628 1.59623 1.11833 0
M  V30 1859 H 166.724 1.65694 2.64485 0
M  V30 1860 N 167.025 -1.13721 1.09112 0
M  V30 1861 C 167.955 -2.21148 0.749385 0
M  V30 1862 C 168.936 -1.6792 -0.271475 0
M  V30 1863 O 170.121 -1.93693 -0.140251 0
M  V30 1864 C 167.251 -3.46905 0.165659 0
M  V30 1865 C 166.205 -4.13203 1.11567 0
M  V30 1866 C 165.531 -5.33248 0.393809 0
M  V30 1867 C 166.831 -4.60912 2.45678 0
M  V30 1868 H 168.525 -2.4999 1.64758 0
M  V30 1869 H 166.071 -1.20156 0.793626 0
M  V30 1870 H 168.024 -4.21313 -0.085466 0
M  V30 1871 H 166.748 -3.17449 -0.767714 0
M  V30 1872 H 165.407 -3.40758 1.35202 0
M  V30 1873 H 165.055 -5.00054 -0.543599 0
M  V30 1874 H 164.755 -5.78552 1.02721 0
M  V30 1875 H 166.279 -6.10413 0.150908 0
M  V30 1876 H 167.693 -5.26759 2.26269 0
M  V30 1877 H 166.09 -5.16944 3.04776 0
M  V30 1878 H 167.16 -3.75603 3.06677 0
M  V30 1879 N 168.503 -0.877838 -1.30888 0
M  V30 1880 C 169.466 -0.344265 -2.266 0
M  V30 1881 C 170.466 0.50922 -1.52524 0
M  V30 1882 O 171.656 0.317398 -1.71284 0
M  V30 1883 C 168.788 0.510198 -3.37061 0
M  V30 1884 H 169.981 -1.1893 -2.7531 0
M  V30 1885 H 167.534 -0.654088 -1.41956 0
M  V30 1886 H 168.269 1.37612 -2.93655 0
M  V30 1887 H 168.054 -0.101047 -3.9197 0
M  V30 1888 H 169.544 0.875537 -4.08319 0
M  V30 1889 N 169.982 1.44106 -0.638065 0
M  V30 1890 C 171.228 2.02277 -0.145546 0
M  V30 1891 C 171.561 1.50125 1.23191 0
M  V30 1892 O 170.836 0.688133 1.8192 0
M  V30 1893 C 171.119 3.59829 -0.139791 0
M  V30 1894 C 170.972 4.22247 -1.55008 0
M  V30 1895 C 172.291 4.36873 0.531966 0
M  V30 1896 H 169.41 0.734992 -0.0543632 0
M  V30 1897 H 172.052 1.71592 -0.815863 0
M  V30 1898 H 170.202 3.86102 0.431007 0
M  V30 1899 H 171.874 4.07057 -2.1703 0
M  V30 1900 H 170.117 3.79476 -2.10191 0
M  V30 1901 H 170.788 5.31284 -1.49804 0
M  V30 1902 H 173.264 4.16074 0.0464781 0
M  V30 1903 H 172.14 5.4657 0.505206 0
M  V30 1904 H 172.401 4.11995 1.60352 0
M  V30 1905 N 171.46 0.379036 1.52974 0
M  V30 1906 C 172.876 0.0285448 1.59574 0
M  V30 1907 C 173.076 -1.45542 1.39355 0
M  V30 1908 O 172.132 -2.2187 1.20541 0
M  V30 1909 C 173.445 0.496535 2.96572 0
M  V30 1910 C 174.993 0.451909 3.0972 0
M  V30 1911 C 175.468 0.895924 4.49152 0
M  V30 1912 N 176.959 0.851522 4.55306 0
M  V30 1913 C 177.694 1.16661 5.61407 0
M  V30 1914 N 177.19 1.55166 6.752 0
M  V30 1915 N 178.983 1.08853 5.51459 0
M  V30 1916 H 171.134 1.34525 1.64367 0
M  V30 1917 H 173.397 0.550733 0.771619 0
M  V30 1918 H 173.103 1.53258 3.16552 0
M  V30 1919 H 172.977 -0.109802 3.7704 0
M  V30 1920 H 175.364 -0.575029 2.89443 0
M  V30 1921 H 175.445 1.09392 2.3123 0
M  V30 1922 H 175.089 1.92104 4.70168 0
M  V30 1923 H 175.019 0.23103 5.26093 0
M  V30 1924 H 177.51 0.568038 3.73606 0
M  V30 1925 H 177.823 1.776 7.52116 0
M  V30 1926 H 176.168 1.59044 6.76557 0
M  V30 1927 H 179.359 0.786803 4.6144 0
M  V30 1928 H 179.532 1.33742 6.34048 0
M  V30 1929 N 172.938 -1.57226 0.108567 0
M  V30 1930 C 174.354 -1.5766 -0.248058 0
M  V30 1931 C 174.554 -1.12063 -1.67464 0
M  V30 1932 O 173.61 -0.803236 -2.39383 0
M  V30 1933 C 174.923 -3.0069 -0.0242287 0
M  V30 1934 C 176.471 -3.12868 -0.0909372 0
M  V30 1935 C 176.946 -4.57879 0.105067 0
M  V30 1936 N 178.437 -4.63172 0.0506846 0
M  V30 1937 C 179.172 -5.73126 0.177396 0
M  V30 1938 N 178.668 -6.91866 0.359696 0
M  V30 1939 N 180.461 -5.61977 0.117709 0
M  V30 1940 H 172.612 -1.85169 1.04049 0
M  V30 1941 H 174.875 -0.85529 0.40888 0
M  V30 1942 H 174.581 -3.38299 0.961604 0
M  V30 1943 H 174.455 -3.6945 -0.76068 0
M  V30 1944 H 176.842 -2.75124 -1.06729 0
M  V30 1945 H 176.923 -2.46672 0.677225 0
M  V30 1946 H 176.567 -4.96321 1.07834 0
M  V30 1947 H 176.497 -5.22153 -0.682954 0
M  V30 1948 H 178.988 -3.778 -0.0871266 0
M  V30 1949 H 179.301 -7.71503 0.447529 0
M  V30 1950 H 177.646 -6.93874 0.395536 0
M  V30 1951 H 180.837 -4.68094 -0.0236741 0
M  V30 1952 H 181.01 -6.47627 0.219905 0
M  V30 1953 N 174.416 0.165178 -1.56732 0
M  V30 1954 C 175.379 1.18822 -1.95995 0
M  V30 1955 C 176.379 1.3685 -0.84431 0
M  V30 1956 O 177.569 1.34152 -1.11126 0
M  V30 1957 C 174.701 2.5521 -2.26011 0
M  V30 1958 H 175.894 0.851825 -2.87548 0
M  V30 1959 H 173.447 0.407857 -1.50885 0
M  V30 1960 H 174.182 2.93852 -1.37191 0
M  V30 1961 H 173.967 2.43489 -3.07336 0
M  V30 1962 H 175.457 3.28927 -2.57288 0
M  V30 1963 N 175.894 1.51508 0.433938 0
M  V30 1964 C 177.134 1.66006 1.19253 0
M  V30 1965 C 177.498 0.369868 1.88404 0
M  V30 1966 O 178.699 0.39066 2.65946 0
M  V30 1967 C 176.97 2.83229 2.17981 0
M  V30 1968 S 178.529 3.18075 3.02281 0
M  V30 1969 H 175.347 0.584821 0.404358 0
M  V30 1970 H 177.949 1.89425 0.48357 0
M  V30 1971 H 176.653 3.75407 1.65824 0
M  V30 1972 H 176.184 2.6201 2.93453 0
M  V30 1973 H 178.199 2.64772 4.19655 0
M  V30 1974 N 177.372 -0.689602 1.41712 0
M  V30 1975 C 178.602 -1.47613 1.44548 0
M  V30 1976 C 179.01 -1.89132 0.0509034 0
M  V30 1977 O 178.353 -1.57741 -0.94146 0
M  V30 1978 C 178.415 -2.76596 2.2964 0
M  V30 1979 C 178.079 -2.57245 3.77722 0
M  V30 1980 C 179.076 -2.22804 4.69739 0
M  V30 1981 C 176.761 -2.727 4.2183 0
M  V30 1982 C 178.755 -2.04064 6.03851 0
M  V30 1983 C 176.442 -2.53576 5.56006 0
M  V30 1984 C 177.44 -2.1931 6.46832 0
M  V30 1985 O 177.128 -2.00359 7.78532 0
M  V30 1986 H 176.86 -0.461227 0.494212 0
M  V30 1987 H 179.414 -0.856045 1.86711 0
M  V30 1988 H 177.644 -3.41033 1.82301 0
M  V30 1989 H 179.333 -3.38424 2.24107 0
M  V30 1990 H 180.099 -2.10473 4.36951 0
M  V30 1991 H 175.978 -2.98353 3.51435 0
M  V30 1992 H 179.522 -1.77241 6.74708 0
M  V30 1993 H 175.419 -2.65499 5.88371 0
M  V30 1994 H 176.187 -2.15075 7.89737 0
M  V30 1995 N 178.85 -1.27639 -0.924453 0
M  V30 1996 C 180.098 -1.13941 -1.66918 0
M  V30 1997 C 180.419 0.314589 -1.92446 0
M  V30 1998 O 179.689 1.21964 -1.53303 0
M  V30 1999 H 178.269 -0.418678 -0.618642 0
M  V30 2000 H 180.931 -1.60213 -1.10985 0
M  V30 2001 H 180.027 -1.67094 -2.63602 0
M  V30 2002 N 180.328 1.1314 -1.09713 0
M  V30 2003 C 181.574 1.84757 -0.836224 0
M  V30 2004 C 181.907 1.8347 0.636598 0
M  V30 2005 O 181.182 1.27491 1.46889 0
M  V30 2006 C 181.465 3.32782 -1.37578 0
M  V30 2007 C 181.318 3.42567 -2.91493 0
M  V30 2008 C 182.637 4.28307 -1.01198 0
M  V30 2009 H 179.756 0.67082 -0.305236 0
M  V30 2010 H 182.398 1.3278 -1.35903 0
M  V30 2011 H 180.548 3.77177 -0.931097 0
M  V30 2012 H 182.22 3.06862 -3.44432 0
M  V30 2013 H 180.463 2.83349 -3.28475 0
M  V30 2014 H 181.134 4.46674 -3.24324 0
M  V30 2015 H 183.61 3.91999 -1.39556 0
M  V30 2016 H 182.486 5.30307 -1.41653 0
M  V30 2017 H 182.747 4.42029 0.0794833 0
M  V30 2018 N 181.806 0.884767 1.30421 0
M  V30 2019 C 182.736 0.367574 2.30589 0
M  V30 2020 C 183.717 -0.549464 1.60981 0
M  V30 2021 O 184.902 -0.46336 1.88591 0
M  V30 2022 C 182.032 -0.418944 3.44764 0
M  V30 2023 C 180.986 0.406316 4.26067 0
M  V30 2024 C 180.312 -0.506793 5.32293 0
M  V30 2025 C 181.612 1.64832 4.95608 0
M  V30 2026 H 183.306 1.20462 2.74097 0
M  V30 2027 H 180.852 0.580695 1.31772 0
M  V30 2028 H 182.805 -0.791395 4.13902 0
M  V30 2029 H 181.529 -1.28964 3.0006 0
M  V30 2030 H 180.188 0.760903 3.58617 0
M  V30 2031 H 179.836 -1.37519 4.83836 0
M  V30 2032 H 179.536 0.0415828 5.87585 0
M  V30 2033 H 181.06 -0.875764 6.04287 0
M  V30 2034 H 182.474 1.34646 5.57264 0
M  V30 2035 H 180.871 2.13688 5.60765 0
M  V30 2036 H 181.941 2.39284 4.21748 0
M  V30 2037 N 183.284 -1.43765 0.645699 0
M  V30 2038 C 184.7 -1.56509 0.312591 0
M  V30 2039 C 184.9 -1.6307 -1.18365 0
M  V30 2040 O 183.956 -1.58167 -1.96824 0
M  V30 2041 C 185.269 -2.82968 1.01733 0
M  V30 2042 C 186.817 -2.96701 0.996865 0
M  V30 2043 C 187.292 -4.25982 1.68236 0
M  V30 2044 N 188.783 -4.32829 1.64964 0
M  V30 2045 C 189.518 -5.31613 2.14885 0
M  V30 2046 N 189.014 -6.36718 2.73061 0
M  V30 2047 N 190.807 -5.23217 2.05428 0
M  V30 2048 H 182.958 -1.3775 1.61675 0
M  V30 2049 H 185.221 -0.661067 0.679481 0
M  V30 2050 H 184.927 -2.84156 2.0724 0
M  V30 2051 H 184.801 -3.72957 0.564177 0
M  V30 2052 H 187.188 -2.95058 -0.0497719 0
M  V30 2053 H 187.269 -2.08022 1.48865 0
M  V30 2054 H 186.913 -4.28386 2.72852 0
M  V30 2055 H 186.843 -5.13545 1.16529 0
M  V30 2056 H 189.334 -3.57493 1.22503 0
M  V30 2057 H 189.647 -7.08401 3.08848 0
M  V30 2058 H 187.992 -6.37362 2.77118 0
M  V30 2059 H 191.183 -4.40019 1.59689 0
M  V30 2060 H 191.356 -6.00045 2.44643 0
M  V30 2061 N 184.763 -0.387143 -1.52771 0
M  V30 2062 C 185.713 0.465942 -2.23188 0
M  V30 2063 C 186.697 1.03138 -1.23496 0
M  V30 2064 O 187.889 0.957845 -1.48843 0
M  V30 2065 C 185.018 1.59384 -3.04059 0
M  V30 2066 C 184.104 1.04024 -4.11144 0
M  V30 2067 N 184.495 0.211416 -5.05358 0
M  V30 2068 C 182.793 1.31295 -4.26237 0
M  V30 2069 C 183.494 -0.0941698 -5.81624 0
M  V30 2070 N 182.47 0.509207 -5.4121 0
M  V30 2071 H 186.272 -0.173856 -2.93385 0
M  V30 2072 H 183.786 -0.19633 -1.61209 0
M  V30 2073 H 185.783 2.21738 -3.53041 0
M  V30 2074 H 184.443 2.23648 -2.35397 0
M  V30 2075 H 185.454 -0.151151 -5.17679 0
M  V30 2076 H 182.131 1.95679 -3.68803 0
M  V30 2077 H 183.521 -0.765572 -6.67524 0
M  V30 2078 N 186.241 1.57166 -0.116904 0
M  V30 2079 C 187.49 1.94298 0.541407 0
M  V30 2080 C 187.803 1.00236 1.67964 0
M  V30 2081 O 189.009 1.26826 2.40057 0
M  V30 2082 C 187.465 3.45306 1.01449 0
M  V30 2083 C 187.073 4.47899 -0.0951738 0
M  V30 2084 C 188.817 3.91361 1.6443 0
M  V30 2085 C 186.724 5.90083 0.394491 0
M  V30 2086 H 185.654 0.725308 0.206019 0
M  V30 2087 H 188.305 1.82446 -0.196419 0
M  V30 2088 H 186.687 3.52385 1.80667 0
M  V30 2089 H 187.861 4.52486 -0.871374 0
M  V30 2090 H 186.176 4.11583 -0.631505 0
M  V30 2091 H 188.773 4.95004 2.02176 0
M  V30 2092 H 189.116 3.3122 2.52189 0
M  V30 2093 H 189.649 3.87073 0.917559 0
M  V30 2094 H 186.388 6.53974 -0.447004 0
M  V30 2095 H 185.908 5.88921 1.13722 0
M  V30 2096 H 187.587 6.41307 0.856399 0
M  V30 2097 N 187.719 -0.156864 1.56817 0
M  V30 2098 C 188.652 -1.22316 1.9265 0
M  V30 2099 C 189.63 -1.42059 0.791076 0
M  V30 2100 O 190.814 -1.56831 1.04576 0
M  V30 2101 C 187.941 -2.58375 2.18998 0
M  V30 2102 C 186.987 -2.55284 3.41661 0
M  V30 2103 S 187.82 -2.02946 4.95553 0
M  V30 2104 C 188.976 -3.40753 5.25013 0
M  V30 2105 H 189.209 -0.917403 2.82791 0
M  V30 2106 H 186.742 -0.362059 1.50095 0
M  V30 2107 H 188.7 -3.36677 2.34859 0
M  V30 2108 H 187.361 -2.86145 1.29538 0
M  V30 2109 H 186.554 -3.55418 3.57343 0
M  V30 2110 H 186.156 -1.85086 3.24991 0
M  V30 2111 H 188.448 -4.36819 5.17876 0
M  V30 2112 H 189.391 -3.29933 6.26538 0
M  V30 2113 H 189.799 -3.37433 4.52548 0
M  V30 2114 N 189.197 -1.51736 -0.425897 0
M  V30 2115 C 190.107 -1.76738 -1.54275 0
M  V30 2116 C 191.123 -0.65211 -1.61318 0
M  V30 2117 O 192.299 -0.935654 -1.78346 0
M  V30 2118 C 189.364 -1.89755 -2.90162 0
M  V30 2119 C 188.425 -3.13633 -2.93143 0
M  V30 2120 C 187.658 -3.2602 -4.22548 0
M  V30 2121 O 187.881 -2.44067 -5.15546 0
M  V30 2122 O 186.815 -4.19071 -4.32046 0
M  V30 2123 H 190.641 -2.71502 -1.36089 0
M  V30 2124 H 188.226 -1.36376 -0.610069 0
M  V30 2125 H 190.108 -2.00236 -3.70788 0
M  V30 2126 H 188.783 -0.981785 -3.08452 0
M  V30 2127 H 187.69 -3.08622 -2.11431 0
M  V30 2128 H 189.023 -4.04936 -2.798 0
M  V30 2129 N 190.675 0.682077 -1.42076 0
M  V30 2130 C 191.9 1.47558 -1.45744 0
M  V30 2131 C 192.325 1.87977 -0.0680981 0
M  V30 2132 O 191.683 1.55522 0.9318 0
M  V30 2133 C 191.731 2.70575 -2.38373 0
M  V30 2134 O 190.835 3.68573 -1.85007 0
M  V30 2135 H 190.176 0.443585 -0.494093 0
M  V30 2136 H 192.706 0.837238 -1.86686 0
M  V30 2137 H 192.716 3.18729 -2.54707 0
M  V30 2138 H 191.391 2.40495 -3.39315 0
M  V30 2139 H 189.968 3.2757 -1.78192 0
M  V30 2140 N 192.153 1.28127 0.917671 0
M  V30 2141 C 193.401 1.14825 1.66312 0
M  V30 2142 C 193.722 -0.304379 1.9261 0
M  V30 2143 O 192.992 -1.21149 1.53947 0
M  V30 2144 H 191.572 0.421953 0.616413 0
M  V30 2145 H 194.234 1.608 1.10134 0
M  V30 2146 H 193.33 1.68489 2.62712 0
M  V30 2147 N 193.631 -1.12557 1.10312 0
M  V30 2148 C 194.594 -2.16434 0.75424 0
M  V30 2149 C 195.594 -1.59278 -0.220685 0
M  V30 2150 O 196.784 -1.742 0.00230591 0
M  V30 2151 C 193.916 -3.40699 0.116987 0
M  V30 2152 H 195.109 -2.48811 1.67431 0
M  V30 2153 H 192.662 -1.27542 0.903475 0
M  V30 2154 H 193.397 -3.13921 -0.813877 0
M  V30 2155 H 193.182 -3.83459 0.818613 0
M  V30 2156 H 194.672 -4.17451 -0.111387 0
M  V30 2157 N 195.109 -0.891671 -1.2995 0
M  V30 2158 C 196.056 -0.361736 -2.27948 0
M  V30 2159 C 197.026 0.551761 -1.56668 0
M  V30 2160 O 198.211 0.478736 -1.84696 0
M  V30 2161 C 195.351 0.411825 -3.42634 0
M  V30 2162 C 194.464 -0.531651 -4.28716 0
M  V30 2163 C 193.599 0.258167 -5.30572 0
M  V30 2164 C 192.638 -0.680349 -6.08307 0
M  V30 2165 N 191.775 0.0745613 -7.0206 0
M  V30 2166 H 196.615 -1.20254 -2.72659 0
M  V30 2167 H 194.152 -0.604352 -1.34112 0
M  V30 2168 H 196.11 0.876304 -4.07893 0
M  V30 2169 H 194.74 1.21715 -2.98974 0
M  V30 2170 H 193.792 -1.11463 -3.63703 0
M  V30 2171 H 195.104 -1.25038 -4.82874 0
M  V30 2172 H 194.258 0.784204 -6.0161 0
M  V30 2173 H 192.997 1.01008 -4.77126 0
M  V30 2174 H 192.002 -1.21796 -5.3614 0
M  V30 2175 H 193.227 -1.43145 -6.63842 0
M  V30 2176 H 191.173 0.808883 -6.50994 0
M  V30 2177 H 191.09 -0.584409 -7.53738 0
M  V30 2178 H 192.358 0.581123 -7.77331 0
M  V30 2179 N 196.587 1.43421 -0.653314 0
M  V30 2180 C 197.835 2.01414 -0.166415 0
M  V30 2181 C 198.156 1.51803 1.22397 0
M  V30 2182 O 197.426 0.730693 1.81763 0
M  V30 2183 H 196.006 0.744703 -0.0585319 0
M  V30 2184 H 198.668 1.75629 -0.845003 0
M  V30 2185 H 197.764 3.11734 -0.151111 0
M  V30 2186 N 198.065 0.39524 1.52563 0
M  V30 2187 C 199.305 -0.184744 2.03563 0
M  V30 2188 C 199.669 -1.43548 1.27507 0
M  V30 2189 O 200.87 -2.093 1.68662 0
M  V30 2190 C 199.141 -0.440294 3.54678 0
M  V30 2191 S 200.7 -0.989712 4.27493 0
M  V30 2192 H 197.518 -0.0515075 0.709132 0
M  V30 2193 H 200.12 0.544957 1.87751 0
M  V30 2194 H 198.824 0.477005 4.07618 0
M  V30 2195 H 198.355 -1.19825 3.74707 0
M  V30 2196 H 200.37 -2.27155 4.41152 0
M  V30 2197 N 199.544 -1.57102 0.125237 0
M  V30 2198 C 200.454 -2.19191 -0.8362 0
M  V30 2199 C 201.47 -1.16985 -1.28805 0
M  V30 2200 O 202.646 -1.49479 -1.34974 0
M  V30 2201 C 199.711 -2.78407 -2.06617 0
M  V30 2202 C 198.772 -3.9567 -1.66565 0
M  V30 2203 C 198.005 -4.52052 -2.83698 0
M  V30 2204 O 198.228 -4.07326 -3.99302 0
M  V30 2205 O 197.162 -5.42645 -2.60423 0
M  V30 2206 H 200.988 -3.01816 -0.337776 0
M  V30 2207 H 198.573 -1.4906 -0.100695 0
M  V30 2208 H 200.455 -3.16129 -2.7864 0
M  V30 2209 H 199.13 -1.9881 -2.55453 0
M  V30 2210 H 198.037 -3.62705 -0.916296 0
M  V30 2211 H 199.37 -4.76722 -1.22464 0
M  V30 2212 N 201.022 0.148545 -1.56898 0
M  V30 2213 C 202.268 0.862694 -1.83536 0
M  V30 2214 C 202.601 1.80889 -0.706604 0
M  V30 2215 O 201.876 1.92328 0.289885 0
M  V30 2216 C 202.159 1.63853 -3.20662 0
M  V30 2217 C 202.012 0.713925 -4.44098 0
M  V30 2218 C 203.331 2.60133 -3.54991 0
M  V30 2219 H 200.45 0.312179 -0.667618 0
M  V30 2220 H 203.092 0.127953 -1.89569 0
M  V30 2221 H 201.242 2.26489 -3.1565 0
M  V30 2222 H 202.914 0.098686 -4.61194 0
M  V30 2223 H 201.157 0.0234019 -4.33794 0
M  V30 2224 H 201.828 1.29278 -5.36648 0
M  V30 2225 H 204.304 2.07616 -3.60603 0
M  V30 2226 H 203.18 3.11468 -4.51972 0
M  V30 2227 H 203.441 3.41417 -2.80868 0
M  V30 2228 N 202.5 1.5196 0.417844 0
M  V30 2229 C 203.749 1.6482 1.16264 0
M  V30 2230 C 204.062 0.379886 1.91876 0
M  V30 2231 O 205.268 0.388154 2.68711 0
M  V30 2232 C 203.724 2.91161 2.1155 0
M  V30 2233 C 203.332 4.25068 1.41495 0
M  V30 2234 C 205.076 3.13383 2.86341 0
M  V30 2235 C 202.983 5.42541 2.35379 0
M  V30 2236 H 201.913 0.613954 0.437694 0
M  V30 2237 H 204.564 1.78442 0.427871 0
M  V30 2238 H 202.946 2.71218 2.88543 0
M  V30 2239 H 204.12 4.55463 0.699263 0
M  V30 2240 H 202.435 4.0888 0.787792 0
M  V30 2241 H 205.032 3.98324 3.5671 0
M  V30 2242 H 205.375 2.27256 3.48798 0
M  V30 2243 H 205.908 3.33757 2.1645 0
M  V30 2244 H 202.647 6.30987 1.77582 0
M  V30 2245 H 202.167 5.16497 3.04945 0
M  V30 2246 H 203.846 5.75272 2.96093 0
M  V30 2247 N 203.978 -0.674533 1.42435 0
M  V30 2248 C 205.224 -1.43671 1.43131 0
M  V30 2249 C 205.557 -1.94142 0.0476021 0
M  V30 2250 O 204.832 -1.70924 -0.928188 0
M  V30 2251 C 205.115 -2.63355 2.45594 0
M  V30 2252 C 204.968 -2.18514 3.93156 0
M  V30 2253 C 206.287 -3.65571 2.45043 0
M  V30 2254 H 203.406 -0.521077 0.521198 0
M  V30 2255 H 206.048 -0.766551 1.7385 0
M  V30 2256 H 204.198 -3.2053 2.19528 0
M  V30 2257 H 205.87 -1.66504 4.30202 0
M  V30 2258 H 204.113 -1.50086 4.07009 0
M  V30 2259 H 204.784 -3.04484 4.60428 0
M  V30 2260 H 207.26 -3.18113 2.68223 0
M  V30 2261 H 206.136 -4.46893 3.18713 0
M  V30 2262 H 206.397 -4.16716 1.47649 0
M  V30 2263 N 205.456 -1.28612 -0.910864 0
M  V30 2264 C 206.681 -1.1891 -1.69927 0
M  V30 2265 C 207.106 0.248372 -1.86453 0
M  V30 2266 O 206.464 1.17961 -1.37676 0
M  V30 2267 C 206.512 -1.89578 -3.06745 0
M  V30 2268 O 205.616 -1.20521 -3.94396 0
M  V30 2269 H 204.957 -0.412632 -0.520222 0
M  V30 2270 H 207.487 -1.69985 -1.1387 0
M  V30 2271 H 207.497 -1.97597 -3.56958 0
M  V30 2272 H 206.172 -2.94136 -2.94035 0
M  V30 2273 H 204.749 -1.20684 -3.52831 0
M  V30 2274 N 206.934 1.1197 -1.10907 0
M  V30 2275 C 208.182 1.83225 -0.852819 0
M  V30 2276 C 208.503 1.84769 0.623341 0
M  V30 2277 O 207.773 1.3143 1.45269 0
M  V30 2278 H 206.353 0.67849 -0.312507 0
M  V30 2279 H 209.015 1.3556 -1.40033 0
M  V30 2280 H 208.111 2.87265 -1.22005 0
M  V30 2281 N 208.412 0.89855 1.29475 0
M  V30 2282 C 209.359 0.373819 2.27753 0
M  V30 2283 C 210.329 -0.543444 1.56958 0
M  V30 2284 O 211.514 -0.468934 1.84948 0
M  V30 2285 C 208.654 -0.393648 3.42848 0
M  V30 2286 C 207.767 0.554379 4.28428 0
M  V30 2287 C 206.902 -0.230026 5.30702 0
M  V30 2288 C 205.941 0.712599 6.07938 0
M  V30 2289 N 205.078 -0.0373283 7.0209 0
M  V30 2290 H 209.918 1.21699 2.72017 0
M  V30 2291 H 207.455 0.611456 1.33789 0
M  V30 2292 H 209.413 -0.85466 4.08352 0
M  V30 2293 H 208.043 -1.20128 2.99615 0
M  V30 2294 H 207.095 1.13391 3.63107 0
M  V30 2295 H 208.407 1.27597 4.82204 0
M  V30 2296 H 207.561 -0.752288 6.02018 0
M  V30 2297 H 206.3 -0.984758 4.77654 0
M  V30 2298 H 205.305 1.24637 5.35486 0
M  V30 2299 H 206.53 1.46664 6.63074 0
M  V30 2300 H 204.476 -0.774348 6.51414 0
M  V30 2301 H 204.393 0.624374 7.53417 0
M  V30 2302 H 205.661 -0.539891 7.77628 0
M  V30 2303 N 209.89 -1.43072 0.660911 0
M  V30 2304 C 210.82 -2.33497 -0.0122829 0
M  V30 2305 C 211.801 -1.49903 -0.803925 0
M  V30 2306 O 212.986 -1.78546 -0.763864 0
M  V30 2307 C 210.116 -3.33363 -0.973994 0
M  V30 2308 C 209.07 -4.27003 -0.291928 0
M  V30 2309 C 208.396 -5.16967 -1.36562 0
M  V30 2310 C 209.696 -5.15816 0.820462 0
M  V30 2311 H 211.39 -2.90038 0.742873 0
M  V30 2312 H 208.936 -1.39461 0.358688 0
M  V30 2313 H 210.889 -3.95524 -1.45392 0
M  V30 2314 H 209.613 -2.75095 -1.7604 0
M  V30 2315 H 208.272 -3.66217 0.167623 0
M  V30 2316 H 207.92 -4.55034 -2.14366 0
M  V30 2317 H 207.62 -5.80441 -0.914454 0
M  V30 2318 H 209.144 -5.82003 -1.84675 0
M  V30 2319 H 210.558 -5.71742 0.422366 0
M  V30 2320 H 208.955 -5.8805 1.19656 0
M  V30 2321 H 210.025 -4.55045 1.67518 0
M  V30 2322 N 211.368 -0.403325 -1.52352 0
M  V30 2323 C 212.784 -0.0539281 -1.59509 0
M  V30 2324 C 212.984 1.43307 -1.41652 0
M  V30 2325 O 212.04 2.19924 -1.24056 0
M  V30 2326 C 213.353 -0.543654 -2.95745 0
M  V30 2327 C 214.901 -0.501125 -3.08962 0
M  V30 2328 C 215.376 -0.967267 -4.47669 0
M  V30 2329 N 216.867 -0.923849 -4.53893 0
M  V30 2330 C 217.602 -1.25578 -5.5948 0
M  V30 2331 N 217.098 -1.65889 -6.72646 0
M  V30 2332 N 218.891 -1.17613 -5.49658 0
M  V30 2333 H 211.042 -1.37123 -1.62206 0
M  V30 2334 H 213.305 -0.56294 -0.76276 0
M  V30 2335 H 213.011 -1.58275 -3.14073 0
M  V30 2336 H 212.885 0.0498042 -3.77167 0
M  V30 2337 H 215.272 0.528909 -2.90321 0
M  V30 2338 H 215.353 -1.13056 -2.2946 0
M  V30 2339 H 214.997 -1.9956 -4.67053 0
M  V30 2340 H 214.927 -0.314698 -5.25659 0
M  V30 2341 H 217.418 -0.627403 -3.72655 0
M  V30 2342 H 217.731 -1.89543 -7.49195 0
M  V30 2343 H 216.076 -1.69787 -6.73942 0
M  V30 2344 H 219.267 -0.860115 -4.6013 0
M  V30 2345 H 219.44 -1.43812 -6.3184 0
M  V30 2346 N 212.846 1.57033 -0.133567 0
M  V30 2347 C 213.809 2.14897 0.796995 0
M  V30 2348 C 214.809 1.0874 1.18458 0
M  V30 2349 O 215.999 1.34446 1.1077 0
M  V30 2350 C 213.131 2.70112 2.07973 0
M  V30 2351 H 214.324 2.98457 0.293873 0
M  V30 2352 H 211.877 1.55871 0.115787 0
M  V30 2353 H 212.612 1.9018 2.62682 0
M  V30 2354 H 212.397 3.47764 1.81115 0
M  V30 2355 H 213.887 3.14738 2.74462 0
M  V30 2356 N 214.325 -0.140222 1.56975 0
M  V30 2357 C 215.257 -1.19818 1.95388 0
M  V30 2358 C 216.27 -1.38816 0.850525 0
M  V30 2359 O 217.459 -1.38267 1.12891 0
M  V30 2360 C 214.559 -2.56189 2.21857 0
M  V30 2361 C 213.732 -2.58077 3.5315 0
M  V30 2362 C 212.791 -3.76037 3.6808 0
M  V30 2363 O 211.817 -3.60598 4.40406 0
M  V30 2364 N 213.019 -4.93763 3.05251 0
M  V30 2365 H 215.784 -0.871609 2.86746 0
M  V30 2366 H 213.345 -0.32972 1.58507 0
M  V30 2367 H 215.337 -3.33623 2.2908 0
M  V30 2368 H 213.907 -2.81111 1.36731 0
M  V30 2369 H 213.127 -1.6651 3.57307 0
M  V30 2370 H 214.415 -2.56377 4.39486 0
M  V30 2371 H 213.813 -5.09209 2.46419 0
M  V30 2372 H 212.37 -5.68949 3.18026 0
M  V30 2373 N 215.803 -1.52179 -0.40978 0
M  V30 2374 C 217.219 -1.40968 -0.74835 0
M  V30 2375 C 217.419 -0.513657 -1.94843 0
M  V30 2376 O 216.475 0.0208026 -2.52491 0
M  V30 2377 C 217.788 -2.83483 -1.0029 0
M  V30 2378 C 219.336 -2.92821 -1.10565 0
M  V30 2379 C 219.811 -4.36303 -1.39296 0
M  V30 2380 N 221.302 -4.39535 -1.46162 0
M  V30 2381 C 222.037 -5.47614 -1.70018 0
M  V30 2382 N 221.533 -6.65812 -1.91483 0
M  V30 2383 N 223.326 -5.35129 -1.72027 0
M  V30 2384 H 215.477 -2.0897 0.380186 0
M  V30 2385 H 217.74 -0.94185 0.107805 0
M  V30 2386 H 217.446 -3.51168 -0.193461 0
M  V30 2387 H 217.32 -3.24487 -1.92323 0
M  V30 2388 H 219.707 -2.25318 -1.90568 0
M  V30 2389 H 219.788 -2.55276 -0.16369 0
M  V30 2390 H 219.432 -5.04366 -0.598109 0
M  V30 2391 H 219.362 -4.71385 -2.34743 0
M  V30 2392 H 221.853 -3.54332 -1.31367 0
M  V30 2393 H 222.166 -7.43964 -2.09134 0
M  V30 2394 H 220.511 -6.68879 -1.88749 0
M  V30 2395 H 223.702 -4.41764 -1.54796 0
M  V30 2396 H 223.875 -6.19433 -1.9028 0
M  V30 2397 N 217.281 0.66697 -1.42791 0
M  V30 2398 C 218.244 1.76211 -1.46568 0
M  V30 2399 C 219.244 1.56896 -0.352196 0
M  V30 2400 O 220.434 1.63044 -0.613364 0
M  V30 2401 C 217.566 3.14935 -1.30494 0
M  V30 2402 H 218.759 1.74247 -2.44086 0
M  V30 2403 H 216.312 0.877342 -1.29354 0
M  V30 2404 H 217.047 3.2252 -0.339301 0
M  V30 2405 H 216.832 3.30359 -2.11199 0
M  V30 2406 H 218.322 3.94821 -1.36038 0
M  V30 2407 N 218.759 1.29093 0.90403 0
M  V30 2408 C 219.706 1.13853 2.00764 0
M  V30 2409 C 220.676 0.0330084 1.66067 0
M  V30 2410 O 221.861 0.199733 1.89752 0
M  V30 2411 C 219.001 0.816537 3.35301 0
M  V30 2412 C 218.114 2.00206 3.82807 0
M  V30 2413 C 217.249 1.61983 5.059 0
M  V30 2414 C 216.288 2.77143 5.45764 0
M  V30 2415 N 215.425 2.39346 6.60044 0
M  V30 2416 H 220.265 2.08276 2.13132 0
M  V30 2417 H 217.802 1.03648 1.04381 0
M  V30 2418 H 219.76 0.610557 4.12708 0
M  V30 2419 H 218.39 -0.090779 3.22672 0
M  V30 2420 H 217.442 2.31988 3.01473 0
M  V30 2421 H 218.754 2.86512 4.08304 0
M  V30 2422 H 217.908 1.37649 5.90879 0
M  V30 2423 H 216.647 0.728202 4.82233 0
M  V30 2424 H 215.652 3.02165 4.59322 0
M  V30 2425 H 216.877 3.66964 5.71414 0
M  V30 2426 H 214.823 1.52665 6.37989 0
M  V30 2427 H 214.74 3.19185 6.85315 0
M  V30 2428 H 216.008 2.1832 7.48303 0
M  V30 2429 N 220.237 -1.11381 1.11499 0
M  V30 2430 C 221.462 -1.87475 0.887019 0
M  V30 2431 C 221.887 -1.79639 -0.557796 0
M  V30 2432 O 221.245 -1.15924 -1.39396 0
M  V30 2433 C 221.293 -3.34213 1.35403 0
M  V30 2434 O 220.397 -4.0903 0.526146 0
M  V30 2435 H 219.738 -0.582099 0.319463 0
M  V30 2436 H 222.268 -1.40785 1.48461 0
M  V30 2437 H 222.278 -3.8506 1.34881 0
M  V30 2438 H 220.953 -3.39232 2.40612 0
M  V30 2439 H 219.53 -3.68082 0.597522 0
M  V30 2440 N 221.715 -0.905404 -1.28997 0
M  V30 2441 C 222.648 -0.331959 -2.25773 0
M  V30 2442 C 223.626 0.559099 -1.52685 0
M  V30 2443 O 224.81 0.50463 -1.8162 0
M  V30 2444 C 221.937 0.526276 -3.34586 0
M  V30 2445 C 220.983 -0.298249 -4.25456 0
M  V30 2446 S 221.816 -1.69968 -5.0781 0
M  V30 2447 C 222.972 -0.848519 -6.20122 0
M  V30 2448 H 223.205 -1.15222 -2.74064 0
M  V30 2449 H 220.738 -0.706112 -1.37308 0
M  V30 2450 H 222.696 1.01565 -3.97737 0
M  V30 2451 H 221.357 1.32084 -2.84978 0
M  V30 2452 H 220.55 0.357607 -5.0273 0
M  V30 2453 H 220.152 -0.720968 -3.66985 0
M  V30 2454 H 222.444 -0.0744325 -6.77459 0
M  V30 2455 H 223.387 -1.59353 -6.89937 0
M  V30 2456 H 223.795 -0.400383 -5.63078 0
M  V30 2457 N 223.193 1.4272 -0.668489 0
M  V30 2458 C 224.14 2.30796 0.0137489 0
M  V30 2459 C 225.11 1.4561 0.799177 0
M  V30 2460 O 226.295 1.74453 0.772702 0
M  V30 2461 C 223.435 3.31377 0.963507 0
M  V30 2462 C 222.548 4.31655 0.172569 0
M  V30 2463 C 221.683 5.19312 1.1175 0
M  V30 2464 C 220.722 6.11274 0.317886 0
M  V30 2465 N 219.859 6.91504 1.2152 0
M  V30 2466 H 224.699 2.88585 -0.743161 0
M  V30 2467 H 222.236 1.42154 -0.378226 0
M  V30 2468 H 224.194 3.88214 1.52792 0
M  V30 2469 H 222.824 2.75202 1.68712 0
M  V30 2470 H 221.876 3.76988 -0.508374 0
M  V30 2471 H 223.188 4.96779 -0.448527 0
M  V30 2472 H 222.342 5.80851 1.75206 0
M  V30 2473 H 221.081 4.5435 1.77249 0
M  V30 2474 H 220.086 5.48809 -0.329918 0
M  V30 2475 H 221.311 6.78283 -0.332917 0
M  V30 2476 H 219.257 6.29176 1.85671 0
M  V30 2477 H 219.174 7.53209 0.649036 0
M  V30 2478 H 220.442 7.57535 1.83742 0
M  V30 2479 N 224.671 0.411399 1.52136 0
M  V30 2480 C 225.918 -0.163645 2.01838 0
M  V30 2481 C 226.246 -1.4495 1.29691 0
M  V30 2482 O 225.501 -1.91725 0.392431 0
M  V30 2483 C 225.8 -0.455872 3.54481 0
M  V30 2484 C 225.466 0.741055 4.44769 0
M  V30 2485 C 224.128 1.06936 4.69167 0
M  V30 2486 C 226.48 1.54075 4.97906 0
M  V30 2487 C 223.808 2.19851 5.43951 0
M  V30 2488 C 226.16 2.66067 5.73926 0
M  V30 2489 C 224.824 2.99381 5.96596 0
M  V30 2490 H 224.094 -0.0598821 0.738576 0
M  V30 2491 H 226.741 0.553283 1.83333 0
M  V30 2492 H 225.046 -1.2544 3.71177 0
M  V30 2493 H 226.743 -0.913802 3.90449 0
M  V30 2494 H 223.333 0.475192 4.25958 0
M  V30 2495 H 227.517 1.30033 4.78963 0
M  V30 2496 H 222.773 2.46006 5.59724 0
M  V30 2497 H 226.947 3.28419 6.14096 0
M  V30 2498 H 224.574 3.86992 6.54325 0
M  V30 2499 N 226.149 -1.5696 0.141893 0
M  V30 2500 C 227.565 -1.58151 -0.21456 0
M  V30 2501 C 227.765 -1.1559 -1.65049 0
M  V30 2502 O 226.821 -0.853832 -2.37626 0
M  V30 2503 C 228.134 -3.00674 0.0395576 0
M  V30 2504 C 229.682 -3.1299 -0.0245529 0
M  V30 2505 C 230.157 -4.57554 0.202167 0
M  V30 2506 N 231.648 -4.62961 0.148919 0
M  V30 2507 C 232.383 -5.7262 0.298924 0
M  V30 2508 N 231.879 -6.90947 0.50637 0
M  V30 2509 N 233.672 -5.61601 0.236886 0
M  V30 2510 H 225.823 -1.8292 1.07953 0
M  V30 2511 H 228.086 -0.846425 0.42693 0
M  V30 2512 H 227.792 -3.36183 1.03315 0
M  V30 2513 H 227.666 -3.70981 -0.682143 0
M  V30 2514 H 230.053 -2.77326 -1.00869 0
M  V30 2515 H 230.134 -2.4518 0.729396 0
M  V30 2516 H 229.778 -4.93922 1.18338 0
M  V30 2517 H 229.708 -5.23484 -0.572044 0
M  V30 2518 H 232.199 -3.77899 -0.00697015 0
M  V30 2519 H 232.512 -7.7038 0.611076 0
M  V30 2520 H 230.857 -6.92878 0.542628 0
M  V30 2521 H 234.048 -4.68039 0.0756209 0
M  V30 2522 H 234.221 -6.47015 0.357227 0
M  V30 2523 N 227.627 0.131896 -1.57047 0
M  V30 2524 C 228.904 0.871495 -1.75112 0
M  V30 2525 C 229.284 1.9866 -0.713949 0
M  V30 2526 O 228.632 2.26965 0.264447 0
M  V30 2527 C 228.842 1.40007 -3.19686 0
M  V30 2528 C 230.19 1.85752 -3.81813 0
M  V30 2529 O 231.214 1.49715 -3.23209 0
M  V30 2530 O 230.073 2.5226 -4.84796 0
M  V30 2531 H 227.167 0.412919 -0.716538 0
M  V30 2532 H 229.713 0.116641 -1.69299 0
M  V30 2533 H 228.485 0.599404 -3.86682 0
M  V30 2534 H 228.108 2.218 -3.29986 0
M  V30 2535 N 229.106 1.52395 0.401703 0
M  V30 2536 C 230.354 1.66488 1.14569 0
M  V30 2537 C 230.675 0.400897 1.90835 0
M  V30 2538 O 229.945 -0.584415 1.8698 0
M  V30 2539 H 228.525 0.613672 0.425929 0
M  V30 2540 H 231.187 1.89464 0.457093 0
M  V30 2541 H 230.283 2.50942 1.85566 0
M  V30 2542 N 230.584 -0.659388 1.43143 0
M  V30 2543 C 231.814 -1.44513 1.47646 0
M  V30 2544 C 232.222 -1.88981 0.0910095 0
M  V30 2545 O 231.565 -1.59702 -0.907789 0
M  V30 2546 C 231.627 -2.71663 2.35456 0
M  V30 2547 C 231.291 -2.49175 3.83094 0
M  V30 2548 C 232.288 -2.1279 4.74359 0
M  V30 2549 C 229.973 -2.63691 4.27519 0
M  V30 2550 C 231.967 -1.9121 6.08044 0
M  V30 2551 C 229.654 -2.41726 5.61259 0
M  V30 2552 C 230.652 -2.0554 6.51339 0
M  V30 2553 O 230.34 -1.838 7.82606 0
M  V30 2554 H 230.072 -0.45064 0.503884 0
M  V30 2555 H 232.626 -0.816248 1.88485 0
M  V30 2556 H 230.856 -3.37089 1.89493 0
M  V30 2557 H 232.545 -3.33595 2.31235 0
M  V30 2558 H 233.311 -2.01157 4.41317 0
M  V30 2559 H 229.19 -2.90832 3.57684 0
M  V30 2560 H 232.734 -1.62889 6.78316 0
M  V30 2561 H 228.631 -2.52959 5.9387 0
M  V30 2562 H 229.399 -1.98275 7.94122 0
M  V30 2563 N 232.062 -1.29571 -0.897171 0
M  V30 2564 C 232.992 -1.17473 -2.01798 0
M  V30 2565 C 233.973 -0.068323 -1.69963 0
M  V30 2566 O 235.158 -0.248239 -1.92607 0
M  V30 2567 C 232.288 -0.853099 -3.36659 0
M  V30 2568 C 231.242 -1.9161 -3.82713 0
M  V30 2569 C 230.568 -1.44773 -5.14728 0
M  V30 2570 C 231.868 -3.32535 -4.02763 0
M  V30 2571 H 233.562 -2.11237 -2.12177 0
M  V30 2572 H 231.108 -1.01699 -1.01948 0
M  V30 2573 H 233.061 -0.755165 -4.14578 0
M  V30 2574 H 231.785 0.120236 -3.26379 0
M  V30 2575 H 230.444 -2.00346 -3.07013 0
M  V30 2576 H 230.092 -0.462995 -5.00865 0
M  V30 2577 H 229.792 -2.15865 -5.46513 0
M  V30 2578 H 231.316 -1.36334 -5.95185 0
M  V30 2579 H 232.73 -3.26626 -4.71156 0
M  V30 2580 H 231.127 -4.01607 -4.45905 0
M  V30 2581 H 232.197 -3.75326 -3.07016 0
M  V30 2582 N 233.54 1.10788 -1.12088 0
M  V30 2583 C 234.789 1.82036 -0.868659 0
M  V30 2584 C 235.102 1.85929 0.607426 0
M  V30 2585 O 236.308 2.53346 0.97613 0
M  V30 2586 C 234.764 3.26951 -1.50435 0
M  V30 2587 C 234.372 3.31367 -3.01496 0
M  V30 2588 C 236.116 4.03053 -1.33225 0
M  V30 2589 C 234.023 4.7072 -3.58017 0
M  V30 2590 H 232.953 0.682108 -0.321318 0
M  V30 2591 H 235.604 1.24618 -1.34694 0
M  V30 2592 H 233.986 3.84343 -0.953735 0
M  V30 2593 H 235.16 2.83819 -3.6302 0
M  V30 2594 H 233.475 2.6875 -3.18061 0
M  V30 2595 H 236.072 5.05981 -1.72878 0
M  V30 2596 H 236.415 4.15387 -0.275529 0
M  V30 2597 H 236.948 3.52066 -1.85188 0
M  V30 2598 H 233.687 4.63585 -4.63432 0
M  V30 2599 H 233.207 5.1865 -3.01268 0
M  V30 2600 H 234.886 5.39685 -3.56859 0
M  V30 2601 N 235.018 0.912232 1.28515 0
M  V30 2602 C 236.243 0.559774 1.99703 0
M  V30 2603 C 236.668 -0.851393 1.67729 0
M  V30 2604 O 236.026 -1.56875 0.908834 0
M  V30 2605 C 236.074 0.773874 3.52198 0
M  V30 2606 O 235.178 -0.167842 4.12058 0
M  V30 2607 H 234.519 0.21723 0.627461 0
M  V30 2608 H 237.049 1.22725 1.63706 0
M  V30 2609 H 237.059 0.683386 4.02236 0
M  V30 2610 H 235.734 1.80261 3.74805 0
M  V30 2611 H 234.311 -0.0287509 3.72889 0
M  V30 2612 N 236.496 -1.42363 0.676048 0
M  V30 2613 C 237.724 -2.05859 0.207268 0
M  V30 2614 C 238.139 -1.50796 -1.13605 0
M  V30 2615 O 237.496 -0.648265 -1.70598 0
M  V30 2616 C 237.547 -3.61248 0.134975 0
M  V30 2617 O 237.268 -4.1427 1.42521 0
M  V30 2618 C 238.769 -4.41859 -0.357151 0
M  V30 2619 H 235.989 -0.663431 0.100503 0
M  V30 2620 H 238.533 -1.82479 0.923136 0
M  V30 2621 H 236.688 -3.83735 -0.531588 0
M  V30 2622 H 237.102 -5.0815 1.29939 0
M  V30 2623 H 238.576 -5.50847 -0.356641 0
M  V30 2624 H 239.053 -4.16536 -1.39264 0
M  V30 2625 H 239.659 -4.24392 0.27772 0
M  V30 2626 N 237.974 -0.419461 -1.51915 0
M  V30 2627 C 239.222 0.152637 -2.01523 0
M  V30 2628 C 239.543 1.44762 -1.30649 0
M  V30 2629 O 238.813 1.90997 -0.435535 0
M  V30 2630 H 237.393 0.0593966 -0.744635 0
M  V30 2631 H 240.055 -0.558073 -1.86739 0
M  V30 2632 H 239.151 0.341369 -3.10227 0
M  V30 2633 N 239.452 1.56882 -0.150215 0
M  V30 2634 C 240.362 2.20494 0.801222 0
M  V30 2635 C 241.378 1.19019 1.26927 0
M  V30 2636 O 242.554 1.51607 1.32579 0
M  V30 2637 C 239.619 2.81659 2.02161 0
M  V30 2638 C 238.68 3.9827 1.60249 0
M  V30 2639 C 237.913 4.56508 2.7647 0
M  V30 2640 O 238.136 4.13627 3.92771 0
M  V30 2641 O 237.07 5.46719 2.51757 0
M  V30 2642 H 240.896 3.02315 0.289717 0
M  V30 2643 H 238.481 1.49202 0.0769684 0
M  V30 2644 H 240.363 3.20522 2.73576 0
M  V30 2645 H 239.038 2.02849 2.52258 0
M  V30 2646 H 237.945 3.64117 0.858477 0
M  V30 2647 H 239.278 4.78609 1.14864 0
M  V30 2648 N 240.93 -0.123565 1.57115 0
M  V30 2649 C 242.341 -0.681198 1.73829 0
M  V30 2650 C 242.692 -1.80535 0.768214 0
M  V30 2651 O 241.817 -2.16317 -0.0599103 0
M  V30 2652 C 242.412 -1.24246 3.15196 0
M  V30 2653 C 240.971 -1.74643 3.33432 0
M  V30 2654 C 240.118 -0.644284 2.69711 0
M  V30 2655 H 243.069 0.102315 1.5837 0
M  V30 2656 H 243.09 -2.11216 3.16493 0
M  V30 2657 H 242.602 -0.424062 3.85776 0
M  V30 2658 H 240.703 -2.58974 2.67886 0
M  V30 2659 H 240.816 -1.85902 4.41562 0
M  V30 2660 H 239.18 -1.07676 2.3082 0
M  V30 2661 H 239.963 0.163058 3.42913 0
M  V30 2662 N 242.408 -1.52605 -0.393616 0
M  V30 2663 C 243.633 -1.71592 -1.16495 0
M  V30 2664 C 244.058 -0.43133 -1.83088 0
M  V30 2665 O 243.416 0.612523 -1.7064 0
M  V30 2666 C 243.464 -2.86318 -2.19213 0
M  V30 2667 O 242.568 -2.52969 -3.257 0
M  V30 2668 H 241.909 -0.570734 -0.33935 0
M  V30 2669 H 244.439 -1.99377 -0.459324 0
M  V30 2670 H 244.449 -3.1168 -2.63286 0
M  V30 2671 H 243.124 -3.79511 -1.7013 0
M  V30 2672 H 241.701 -2.38332 -2.86797 0
M  V30 2673 N 243.887 0.651787 -1.4349 0
M  V30 2674 C 244.834 1.76462 -1.4876 0
M  V30 2675 C 245.804 1.62641 -0.337189 0
M  V30 2676 O 246.989 1.82864 -0.544544 0
M  V30 2677 C 244.129 3.14623 -1.41796 0
M  V30 2678 C 243.242 3.39568 -2.67053 0
M  V30 2679 C 242.377 4.67585 -2.52068 0
M  V30 2680 C 241.416 4.85639 -3.72587 0
M  V30 2681 N 240.553 6.04915 -3.56402 0
M  V30 2682 H 245.393 1.71293 -2.43849 0
M  V30 2683 H 242.93 0.835889 -1.21043 0
M  V30 2684 H 244.888 3.94496 -1.35753 0
M  V30 2685 H 243.518 3.18859 -0.50288 0
M  V30 2686 H 242.57 2.53783 -2.8337 0
M  V30 2687 H 243.882 3.48795 -3.56572 0
M  V30 2688 H 243.036 5.55586 -2.4374 0
M  V30 2689 H 241.775 4.60681 -1.60075 0
M  V30 2690 H 240.78 3.96073 -3.81321 0
M  V30 2691 H 242.005 4.94372 -4.65589 0
M  V30 2692 H 239.951 5.9914 -2.67146 0
M  V30 2693 H 239.868 6.15106 -4.39524 0
M  V30 2694 H 241.136 6.95533 -3.51929 0
M  V30 2695 N 245.365 1.30045 0.890287 0
M  V30 2696 C 246.781 1.08261 1.17268 0
M  V30 2697 C 246.981 -0.160063 2.00863 0
M  V30 2698 O 246.037 -0.855181 2.37577 0
M  V30 2699 C 247.35 2.34323 1.8845 0
M  V30 2700 C 248.898 2.39735 2.01237 0
M  V30 2701 C 249.373 3.65625 2.7583 0
M  V30 2702 N 250.864 3.66402 2.83379 0
M  V30 2703 C 251.599 4.60498 3.41657 0
M  V30 2704 N 251.095 5.64933 4.01026 0
M  V30 2705 N 252.888 4.48051 3.39421 0
M  V30 2706 H 245.039 2.09777 0.332762 0
M  V30 2707 H 247.302 0.92446 0.209948 0
M  V30 2708 H 247.008 3.2498 1.34465 0
M  V30 2709 H 246.882 2.4256 2.88867 0
M  V30 2710 H 249.269 1.4956 2.54393 0
M  V30 2711 H 249.35 2.35476 0.999232 0
M  V30 2712 H 248.994 4.56156 2.23347 0
M  V30 2713 H 248.924 3.67144 3.77509 0
M  V30 2714 H 251.415 2.90896 2.41222 0
M  V30 2715 H 251.728 6.32841 4.43545 0
M  V30 2716 H 250.073 5.68732 3.99461 0
M  V30 2717 H 253.264 3.65649 2.92264 0
M  V30 2718 H 253.437 5.21565 3.84544 0
M  V30 2719 N 246.843 -1.10192 1.12674 0
M  V30 2720 C 248.09 -1.82205 0.883606 0
M  V30 2721 C 248.418 -1.8532 -0.590492 0
M  V30 2722 O 247.673 -1.31137 -1.45264 0
M  V30 2723 C 247.972 -3.28552 1.4067 0
M  V30 2724 C 247.638 -3.45582 2.89627 0
M  V30 2725 C 246.3 -3.49937 3.30299 0
M  V30 2726 C 248.652 -3.50768 3.85501 0
M  V30 2727 C 245.98 -3.57049 4.65546 0
M  V30 2728 C 248.332 -3.59414 5.20581 0
M  V30 2729 C 246.996 -3.62034 5.60792 0
M  V30 2730 H 246.266 -0.666735 0.323334 0
M  V30 2731 H 248.913 -1.29868 1.40736 0
M  V30 2732 H 247.218 -3.83473 0.80347 0
M  V30 2733 H 248.915 -3.82788 1.19475 0
M  V30 2734 H 245.505 -3.42871 2.57172 0
M  V30 2735 H 249.689 -3.46651 3.55171 0
M  V30 2736 H 244.945 -3.57361 4.96088 0
M  V30 2737 H 249.119 -3.62371 5.94693 0
M  V30 2738 H 246.746 -3.67298 6.6558 0
M  V30 2739 N 248.321 -0.919034 -1.28029 0
M  V30 2740 C 249.567 -0.555757 -1.95036 0
M  V30 2741 C 249.9 0.899198 -1.72128 0
M  V30 2742 O 249.175 1.64023 -1.04531 0
M  V30 2743 C 249.458 -0.872024 -3.49382 0
M  V30 2744 C 249.311 -2.3801 -3.81669 0
M  V30 2745 C 250.63 -0.37185 -4.38526 0
M  V30 2746 H 247.749 -0.203386 -0.708381 0
M  V30 2747 H 250.391 -1.14924 -1.51303 0
M  V30 2748 H 248.541 -0.366946 -3.86763 0
M  V30 2749 H 250.213 -2.9562 -3.54128 0
M  V30 2750 H 248.456 -2.83289 -3.28526 0
M  V30 2751 H 249.127 -2.55192 -4.8947 0
M  V30 2752 H 251.603 -0.804602 -4.08247 0
M  V30 2753 H 250.479 -0.622173 -5.45362 0
M  V30 2754 H 250.74 0.727934 -4.36066 0
M  V30 2755 N 249.799 1.42003 -0.683588 0
M  V30 2756 C 250.747 2.326 0.000815408 0
M  V30 2757 C 251.741 1.50308 0.781278 0
M  V30 2758 O 252.947 1.66322 0.688251 0
M  V30 2759 H 249.322 0.751758 0.0190616 0
M  V30 2760 H 251.293 2.88011 -0.780528 0
M  V30 2761 C 250.042 3.34978 0.93195 0
M  V30 2762 H 249.365 3.98345 0.340817 0
M  V30 2763 H 250.805 4.00936 1.37936 0
M  V30 2764 C 249.264 2.67925 2.04249 0
M  V30 2765 O 249.794 2.51788 3.12995 0
M  V30 2766 N 248 2.2681 1.81675 0
M  V30 2767 H 247.547 2.40135 0.932363 0
M  V30 2768 H 247.505 1.8228 2.56167 0
M  V30 2769 N 251.277 0.427512 1.51691 0
M  V30 2770 C 252.505 -0.141191 2.06418 0
M  V30 2771 C 252.92 -1.37303 1.29589 0
M  V30 2772 O 252.277 -1.79059 0.352732 0
M  V30 2773 C 252.328 -0.473266 3.58389 0
M  V30 2774 O 252.049 0.709673 4.32314 0
M  V30 2775 C 253.55 -1.09371 4.29596 0
M  V30 2776 H 250.77 -0.0122747 0.670888 0
M  V30 2777 H 253.314 0.603764 1.95384 0
M  V30 2778 H 251.469 -1.16812 3.69369 0
M  V30 2779 H 251.883 0.42807 5.2275 0
M  V30 2780 H 253.357 -1.27613 5.37046 0
M  V30 2781 H 253.834 -2.072 3.87253 0
M  V30 2782 H 254.44 -0.43853 4.23033 0
M  V30 2783 N 252.755 -1.56801 0.158532 0
M  V30 2784 C 253.718 -2.16138 -0.762705 0
M  V30 2785 C 254.718 -1.1061 -1.16713 0
M  V30 2786 O 255.908 -1.36191 -1.08617 0
M  V30 2787 C 253.04 -2.73386 -2.03649 0
M  V30 2788 H 254.233 -2.98886 -0.246354 0
M  V30 2789 H 251.786 -1.56035 -0.0909744 0
M  V30 2790 H 252.521 -1.94335 -2.59623 0
M  V30 2791 H 252.306 -3.50601 -1.75559 0
M  V30 2792 H 253.796 -3.19065 -2.6942 0
M  V30 2793 N 254.233 0.115231 -1.57178 0
M  V30 2794 C 255.461 0.836437 -1.89239 0
M  V30 2795 C 255.876 1.73256 -0.750175 0
M  V30 2796 O 255.233 1.80357 0.278832 0
M  V30 2797 C 255.284 1.66671 -3.20785 0
M  V30 2798 O 255.005 0.806652 -4.3061 0
M  V30 2799 C 256.506 2.49274 -3.66575 0
M  V30 2800 H 253.726 0.240253 -0.626514 0
M  V30 2801 H 256.27 0.0984932 -2.04263 0
M  V30 2802 H 254.425 2.35737 -3.0742 0
M  V30 2803 H 254.839 1.37969 -5.06028 0
M  V30 2804 H 256.313 3.03055 -4.6137 0
M  V30 2805 H 256.79 3.26807 -2.93417 0
M  V30 2806 H 257.396 1.85443 -3.82741 0
M  V30 2807 N 255.711 1.52812 0.385517 0
M  V30 2808 C 257.127 1.4214 0.725829 0
M  V30 2809 C 257.327 0.544589 1.94001 0
M  V30 2810 O 256.383 0.0193693 2.52493 0
M  V30 2811 C 257.696 2.85042 0.957668 0
M  V30 2812 C 259.244 2.94543 1.05892 0
M  V30 2813 C 259.719 4.38464 1.32337 0
M  V30 2814 N 261.21 4.41804 1.39151 0
M  V30 2815 C 261.945 5.5025 1.61285 0
M  V30 2816 N 261.441 6.68775 1.80866 0
M  V30 2817 N 263.234 5.37798 1.63492 0
M  V30 2818 H 255.385 2.08338 -0.413383 0
M  V30 2819 H 257.648 0.940016 -0.122775 0
M  V30 2820 H 257.354 3.51431 0.137568 0
M  V30 2821 H 257.228 3.27505 1.87137 0
M  V30 2822 H 259.615 2.28321 1.86959 0
M  V30 2823 H 259.696 2.55504 0.123057 0
M  V30 2824 H 259.34 5.05254 0.517793 0
M  V30 2825 H 259.27 4.75059 2.27214 0
M  V30 2826 H 261.761 3.56377 1.25713 0
M  V30 2827 H 262.074 7.47197 1.97271 0
M  V30 2828 H 260.419 6.71797 1.78083 0
M  V30 2829 H 263.61 4.44171 1.47749 0
M  V30 2830 H 263.783 6.22382 1.80402 0
M  V30 2831 N 257.189 -0.644168 1.43834 0
M  V30 2832 C 258.414 -1.43642 1.49605 0
M  V30 2833 C 258.839 -1.8773 0.117913 0
M  V30 2834 O 258.197 -1.57938 -0.890239 0
M  V30 2835 C 258.245 -2.6416 2.45463 0
M  V30 2836 O 257.349 -3.63538 1.94714 0
M  V30 2837 H 256.69 -0.430329 0.50568 0
M  V30 2838 H 259.22 -0.787448 1.8884 0
M  V30 2839 H 259.23 -3.11864 2.63068 0
M  V30 2840 H 257.905 -2.31414 3.45572 0
M  V30 2841 H 256.482 -3.2273 1.86814 0
M  V30 2842 N 258.668 -1.30515 -0.883378 0
M  V30 2843 C 259.631 -1.1701 -1.97082 0
M  V30 2844 C 260.631 -0.10089 -1.60483 0
M  V30 2845 O 261.821 -0.349127 -1.70666 0
M  V30 2846 C 258.953 -0.793045 -3.31547 0
M  V30 2847 H 260.146 -2.13622 -2.10489 0
M  V30 2848 H 257.699 -1.13935 -1.06998 0
M  V30 2849 H 258.434 0.172499 -3.23841 0
M  V30 2850 H 258.219 -1.56576 -3.5948 0
M  V30 2851 H 259.709 -0.722073 -4.1131 0
M  V30 2852 N 260.146 1.09593 -1.13257 0
M  V30 2853 C 261.078 2.16015 -0.766167 0
M  V30 2854 C 262.091 1.61423 0.211303 0
M  V30 2855 O 263.28 1.78498 -0.00863946 0
M  V30 2856 C 260.38 3.38706 -0.114662 0
M  V30 2857 C 259.553 4.22717 -1.12379 0
M  V30 2858 C 258.612 5.23835 -0.498301 0
M  V30 2859 O 257.638 5.573 -1.15781 0
M  V30 2860 N 258.84 5.75886 0.730417 0
M  V30 2861 H 261.605 2.48055 -1.68193 0
M  V30 2862 H 259.166 1.25292 -1.02535 0
M  V30 2863 H 261.158 4.03464 0.315991 0
M  V30 2864 H 259.728 3.04569 0.704011 0
M  V30 2865 H 258.948 3.54122 -1.73179 0
M  V30 2866 H 260.236 4.75673 -1.80589 0
M  V30 2867 H 259.634 5.50911 1.28504 0
M  V30 2868 H 258.191 6.42387 1.10376 0
M  V30 2869 N 261.624 0.925811 1.2754 0
M  V30 2870 C 262.554 0.440748 2.29303 0
M  V30 2871 C 263.535 -0.497971 1.62648 0
M  V30 2872 O 264.72 -0.403126 1.8997 0
M  V30 2873 C 261.85 -0.309048 3.45922 0
M  V30 2874 C 260.804 0.54166 4.24559 0
M  V30 2875 C 260.13 -0.337191 5.33636 0
M  V30 2876 C 261.43 1.80516 4.90114 0
M  V30 2877 H 263.124 1.29121 2.70126 0
M  V30 2878 H 260.67 0.622323 1.29858 0
M  V30 2879 H 262.623 -0.659315 4.1621 0
M  V30 2880 H 261.347 -1.19352 3.04011 0
M  V30 2881 H 260.006 0.874609 3.56014 0
M  V30 2882 H 259.654 -1.22056 4.87966 0
M  V30 2883 H 259.354 0.228497 5.87156 0
M  V30 2884 H 260.878 -0.683072 6.06767 0
M  V30 2885 H 262.292 1.52307 5.52698 0
M  V30 2886 H 260.689 2.3142 5.53683 0
M  V30 2887 H 261.759 2.52581 4.13921 0
M  V30 2888 N 263.102 -1.41638 0.69111 0
M  V30 2889 C 264.049 -2.30789 0.0229705 0
M  V30 2890 C 265.019 -1.46863 -0.775911 0
M  V30 2891 O 266.204 -1.75661 -0.74485 0
M  V30 2892 C 263.344 -3.32868 -0.910666 0
M  V30 2893 C 262.457 -4.31875 -0.103874 0
M  V30 2894 C 261.592 -5.21024 -1.03475 0
M  V30 2895 C 260.631 -6.11702 -0.220598 0
M  V30 2896 N 259.768 -6.93349 -1.10504 0
M  V30 2897 H 264.608 -2.87366 0.788978 0
M  V30 2898 H 262.145 -1.41535 0.400794 0
M  V30 2899 H 264.103 -3.90596 -1.46597 0
M  V30 2900 H 262.733 -2.77851 -1.64312 0
M  V30 2901 H 261.785 -3.76131 0.568285 0
M  V30 2902 H 263.097 -4.96003 0.527504 0
M  V30 2903 H 262.251 -5.83565 -1.65943 0
M  V30 2904 H 260.99 -4.57112 -1.69999 0
M  V30 2905 H 259.995 -5.48215 0.417187 0
M  V30 2906 H 261.22 -6.77668 0.440784 0
M  V30 2907 H 259.166 -6.3205 -1.75638 0
M  V30 2908 H 259.083 -7.54146 -0.529125 0
M  V30 2909 H 260.351 -7.60362 -1.71667 0
M  V30 2910 N 264.58 -0.43555 -1.51462 0
M  V30 2911 C 265.512 0.41257 -2.25456 0
M  V30 2912 C 266.525 0.987822 -1.29406 0
M  V30 2913 O 267.714 0.882266 -1.55172 0
M  V30 2914 C 264.814 1.58894 -2.99342 0
M  V30 2915 C 263.987 1.13288 -4.22474 0
M  V30 2916 C 263.046 2.17917 -4.78956 0
M  V30 2917 O 262.072 1.77425 -5.40841 0
M  V30 2918 N 263.274 3.50382 -4.62832 0
M  V30 2919 H 266.039 -0.221603 -2.9888 0
M  V30 2920 H 263.6 -0.264342 -1.59727 0
M  V30 2921 H 265.592 2.28508 -3.34015 0
M  V30 2922 H 264.162 2.12849 -2.28941 0
M  V30 2923 H 263.382 0.263881 -3.93316 0
M  V30 2924 H 264.67 0.805542 -5.02383 0
M  V30 2925 H 264.068 3.86013 -4.13534 0
M  V30 2926 H 262.625 4.15895 -5.01871 0
M  V30 2927 N 266.058 1.56714 -0.166846 0
M  V30 2928 C 267.306 1.96358 0.478305 0
M  V30 2929 C 267.627 1.0537 1.6408 0
M  V30 2930 O 266.897 0.119154 1.95537 0
M  V30 2931 H 265.477 0.725065 0.179692 0
M  V30 2932 H 268.139 1.93329 -0.246985 0
M  V30 2933 H 267.235 3.00547 0.841292 0
M  V30 2934 N 267.536 -0.106894 1.57237 0
M  V30 2935 C 268.782 -0.81373 1.85759 0
M  V30 2936 C 269.115 -1.78952 0.754315 0
M  V30 2937 O 268.39 -1.93029 -0.23879 0
M  V30 2938 C 268.673 -1.55293 3.24894 0
M  V30 2939 C 268.526 -0.595929 4.45835 0
M  V30 2940 C 269.845 -2.5063 3.61763 0
M  V30 2941 H 266.964 -0.294369 0.67566 0
M  V30 2942 H 269.606 -0.0776472 1.89841 0
M  V30 2943 H 267.756 -2.1804 3.21544 0
M  V30 2944 H 269.428 0.0236262 4.61294 0
M  V30 2945 H 267.671 0.0916191 4.33703 0
M  V30 2946 H 268.342 -1.15004 5.39887 0
M  V30 2947 H 270.818 -1.97982 3.65981 0
M  V30 2948 H 269.694 -2.99376 4.60071 0
M  V30 2949 H 269.955 -3.3385 2.89821 0
M  V30 2950 N 269.014 -1.53014 -0.377408 0
M  V30 2951 C 269.944 -1.81589 -1.46791 0
M  V30 2952 C 270.925 -0.668622 -1.56408 0
M  V30 2953 O 272.11 -0.917337 -1.71168 0
M  V30 2954 C 269.24 -1.99519 -2.8427 0
M  V30 2955 C 268.194 -3.15249 -2.89486 0
M  V30 2956 C 267.52 -3.18451 -4.29527 0
M  V30 2957 C 268.82 -4.54084 -2.58079 0
M  V30 2958 H 270.514 -2.7291 -1.23127 0
M  V30 2959 H 268.06 -1.31319 -0.590883 0
M  V30 2960 H 270.013 -2.18092 -3.60575 0
M  V30 2961 H 268.737 -1.04897 -3.09296 0
M  V30 2962 H 267.396 -2.96477 -2.15631 0
M  V30 2963 H 267.044 -2.2149 -4.5161 0
M  V30 2964 H 266.744 -3.962 -4.33934 0
M  V30 2965 H 268.268 -3.39193 -5.07721 0
M  V30 2966 H 269.682 -4.72899 -3.24098 0
M  V30 2967 H 268.079 -5.33987 -2.7382 0
M  V30 2968 H 269.149 -4.60006 -1.53372 0
M  V30 2969 N 270.492 0.636531 -1.44174 0
M  V30 2970 C 271.74 1.39343 -1.46383 0
M  V30 2971 C 272.061 1.94766 -0.0955715 0
M  V30 2972 O 271.331 1.75452 0.871395 0
M  V30 2973 H 269.911 0.517199 -0.538994 0
M  V30 2974 H 272.573 0.74957 -1.7991 0
M  V30 2975 H 271.669 2.22746 -2.18611 0
M  V30 2976 N 271.97 1.30982 0.876444 0
M  V30 2977 C 273.219 1.19658 1.62373 0
M  V30 2978 C 273.532 -0.245636 1.94052 0
M  V30 2979 O 274.738 -0.48049 2.67214 0
M  V30 2980 C 273.194 2.09433 2.92687 0
M  V30 2981 C 272.802 3.58613 2.68516 0
M  V30 2982 C 274.546 2.06893 3.70669 0
M  V30 2983 C 272.453 4.40416 3.94699 0
M  V30 2984 H 271.383 0.444268 0.609214 0
M  V30 2985 H 274.034 1.55791 0.969605 0
M  V30 2986 H 272.416 1.66191 3.59439 0
M  V30 2987 H 273.59 4.10058 2.10212 0
M  V30 2988 H 271.905 3.63063 2.03898 0
M  V30 2989 H 274.502 2.65258 4.64265 0
M  V30 2990 H 274.845 1.05448 4.02724 0
M  V30 2991 H 275.378 2.48301 3.10792 0
M  V30 2992 H 272.117 5.42591 3.67798 0
M  V30 2993 H 271.637 3.93731 4.52477 0
M  V30 2994 H 273.316 4.52294 4.62644 0
M  V30 2995 N 273.449 -1.08991 1.13837 0
M  V30 2996 C 274.396 -2.15748 0.819835 0
M  V30 2997 C 275.366 -1.64636 -0.220026 0
M  V30 2998 O 276.551 -1.90582 -0.0912757 0
M  V30 2999 C 273.691 -3.4382 0.296913 0
M  V30 3000 C 272.804 -4.0881 1.39636 0
M  V30 3001 C 271.939 -5.24655 0.831314 0
M  V30 3002 C 270.978 -5.81575 1.90886 0
M  V30 3003 N 270.115 -6.88774 1.36142 0
M  V30 3004 H 274.955 -2.42338 1.73426 0
M  V30 3005 H 272.492 -1.18935 0.865613 0
M  V30 3006 H 274.45 -4.17193 -0.0244339 0
M  V30 3007 H 273.08 -3.17535 -0.580628 0
M  V30 3008 H 272.132 -3.33258 1.83422 0
M  V30 3009 H 273.444 -4.47141 2.21058 0
M  V30 3010 H 272.598 -6.04942 0.461515 0
M  V30 3011 H 271.337 -4.87698 -0.013932 0
M  V30 3012 H 270.342 -4.99946 2.28767 0
M  V30 3013 H 271.567 -6.20592 2.75758 0
M  V30 3014 H 269.513 -6.53788 0.538254 0
M  V30 3015 H 269.43 -7.25898 2.11208 0
M  V30 3016 H 270.698 -7.72806 1.01933 0
M  V30 3017 N 274.927 -0.932562 -1.27047 0
M  V30 3018 C 276.173 -0.576412 -1.94436 0
M  V30 3019 C 276.506 0.880891 -1.73072 0
M  V30 3020 O 275.781 1.62905 -1.06264 0
M  V30 3021 C 276.064 -0.909031 -3.48437 0
M  V30 3022 C 275.917 -2.42044 -3.79123 0
M  V30 3023 C 277.236 -0.418341 -4.38107 0
M  V30 3024 H 274.355 -0.210888 -0.706184 0
M  V30 3025 H 276.997 -1.16522 -1.50075 0
M  V30 3026 H 275.147 -0.407947 -3.86352 0
M  V30 3027 H 276.819 -2.99359 -3.50973 0
M  V30 3028 H 275.062 -2.86758 -3.25503 0
M  V30 3029 H 275.733 -2.6037 -4.86736 0
M  V30 3030 H 278.209 -0.847856 -4.0737 0
M  V30 3031 H 277.085 -0.679981 -5.44672 0
M  V30 3032 H 277.346 0.681642 -4.36814 0
M  V30 3033 N 276.405 1.4127 -0.698611 0
M  V30 3034 C 277.352 2.30773 -0.0352094 0
M  V30 3035 C 278.322 1.47273 0.768111 0
M  V30 3036 O 279.507 1.76053 0.735524 0
M  V30 3037 C 276.647 3.33346 0.893 0
M  V30 3038 C 275.76 4.31924 0.0809695 0
M  V30 3039 C 274.895 5.21566 1.0071 0
M  V30 3040 C 273.934 6.11811 0.188155 0
M  V30 3041 N 273.071 6.93926 1.06825 0
M  V30 3042 H 277.911 2.86943 -0.804207 0
M  V30 3043 H 275.448 1.4132 -0.408294 0
M  V30 3044 H 277.406 3.91368 1.44523 0
M  V30 3045 H 276.036 2.78719 1.62836 0
M  V30 3046 H 275.088 3.75825 -0.588224 0
M  V30 3047 H 276.4 4.95716 -0.553801 0
M  V30 3048 H 275.554 5.84437 1.62845 0
M  V30 3049 H 274.293 4.58008 1.67572 0
M  V30 3050 H 273.298 5.47986 -0.446254 0
M  V30 3051 H 274.523 6.77425 -0.476716 0
M  V30 3052 H 272.469 6.32973 1.72283 0
M  V30 3053 H 272.386 7.54416 0.489123 0
M  V30 3054 H 273.654 7.61262 1.67632 0
M  V30 3055 N 277.883 0.443576 1.51229 0
M  V30 3056 C 279.132 -0.122332 2.01329 0
M  V30 3057 C 279.445 -1.43237 1.33201 0
M  V30 3058 O 280.651 -2.0816 1.74304 0
M  V30 3059 C 279.107 -0.268551 3.58897 0
M  V30 3060 C 278.715 1.03142 4.35965 0
M  V30 3061 C 280.459 -0.787894 4.17124 0
M  V30 3062 C 278.366 0.850504 5.85252 0
M  V30 3063 H 277.296 -0.0494929 0.752374 0
M  V30 3064 H 279.947 0.574289 1.74282 0
M  V30 3065 H 278.329 -1.02832 3.82415 0
M  V30 3066 H 279.503 1.80001 4.24189 0
M  V30 3067 H 277.818 1.47977 3.89219 0
M  V30 3068 H 280.415 -0.939841 5.26375 0
M  V30 3069 H 280.758 -1.77201 3.76703 0
M  V30 3070 H 281.291 -0.0862669 3.97706 0
M  V30 3071 H 278.03 1.80718 6.30096 0
M  V30 3072 H 277.55 0.121825 5.99676 0
M  V30 3073 H 279.229 0.506163 6.45017 0
M  V30 3074 N 279.361 -1.56624 0.175154 0
M  V30 3075 C 280.294 -2.14 -0.792412 0
M  V30 3076 C 281.272 -1.07114 -1.22333 0
M  V30 3077 O 282.456 -1.35112 -1.31442 0
M  V30 3078 C 279.583 -2.68268 -2.0676 0
M  V30 3079 C 278.629 -3.87562 -1.7804 0
M  V30 3080 S 279.462 -5.27074 -0.946222 0
M  V30 3081 C 280.618 -5.8475 -2.23199 0
M  V30 3082 H 280.851 -2.95736 -0.304588 0
M  V30 3083 H 278.384 -1.54349 -0.0395705 0
M  V30 3084 H 280.342 -3.00182 -2.80002 0
M  V30 3085 H 279.003 -1.86612 -2.52656 0
M  V30 3086 H 278.196 -4.23874 -2.72666 0
M  V30 3087 H 277.798 -3.56555 -1.12891 0
M  V30 3088 H 280.09 -5.97898 -3.18629 0
M  V30 3089 H 281.033 -6.81756 -1.91349 0
M  V30 3090 H 281.441 -5.13198 -2.35134 0
M  V30 3091 N 280.839 0.0985539 -1.57292 0
M  V30 3092 C 281.769 1.12064 -2.04851 0
M  V30 3093 C 282.75 1.41981 -0.936767 0
M  V30 3094 O 283.935 1.52071 -1.20781 0
M  V30 3095 C 281.065 2.44144 -2.47004 0
M  V30 3096 C 280.019 2.28643 -3.6181 0
M  V30 3097 C 279.345 3.65869 -3.89929 0
M  V30 3098 C 280.645 1.72986 -4.92822 0
M  V30 3099 H 282.339 0.724979 -2.9049 0
M  V30 3100 H 279.885 0.34729 -1.39749 0
M  V30 3101 H 281.838 3.15914 -2.78884 0
M  V30 3102 H 280.562 2.85639 -1.5836 0
M  V30 3103 H 279.221 1.59318 -3.30172 0
M  V30 3104 H 278.869 4.04885 -2.98458 0
M  V30 3105 H 278.569 3.56344 -4.67218 0
M  V30 3106 H 280.093 4.39112 -4.2428 0
M  V30 3107 H 281.507 2.34593 -5.23105 0
M  V30 3108 H 279.904 1.74229 -5.74251 0
M  V30 3109 H 280.974 0.689007 -4.7998 0
M  V30 3110 N 282.317 1.53212 0.369288 0
M  V30 3111 C 283.728 1.60943 0.946276 0
M  V30 3112 C 284.079 0.47452 1.90375 0
M  V30 3113 O 283.204 -0.399597 2.12679 0
M  V30 3114 C 283.799 2.91715 1.72302 0
M  V30 3115 C 282.358 3.01792 2.24941 0
M  V30 3116 C 281.505 2.56211 1.06072 0
M  V30 3117 H 284.456 1.58007 0.148198 0
M  V30 3118 H 284.477 2.79309 2.58393 0
M  V30 3119 H 283.989 3.74295 1.0259 0
M  V30 3120 H 282.09 2.23791 2.97906 0
M  V30 3121 H 282.203 4.06803 2.53077 0
M  V30 3122 H 280.567 2.10998 1.4266 0
M  V30 3123 H 281.35 3.41206 0.378639 0
M  V30 3124 N 283.795 -0.628877 1.44509 0
M  V30 3125 C 285.023 -1.41554 1.50897 0
M  V30 3126 C 285.438 -1.8832 0.134564 0
M  V30 3127 O 284.795 -1.60969 -0.859965 0
M  V30 3128 C 284.846 -2.63435 2.47556 0
M  V30 3129 O 284.567 -2.18619 3.79654 0
M  V30 3130 C 286.068 -3.56537 2.63431 0
M  V30 3131 H 283.288 -0.434044 0.511709 0
M  V30 3132 H 285.832 -0.768895 1.89495 0
M  V30 3133 H 283.987 -3.24187 2.12089 0
M  V30 3134 H 284.401 -2.97652 4.31861 0
M  V30 3135 H 285.875 -4.38657 3.35088 0
M  V30 3136 H 286.352 -4.05493 1.68738 0
M  V30 3137 H 286.958 -3.01653 2.9981 0
M  V30 3138 N 285.273 -1.31445 -0.869486 0
M  V30 3139 C 286.236 -1.19094 -1.9583 0
M  V30 3140 C 287.236 -0.117906 -1.60367 0
M  V30 3141 O 288.426 -0.367208 -1.70286 0
M  V30 3142 C 285.558 -0.828165 -3.30688 0
M  V30 3143 H 286.751 -2.15842 -2.08212 0
M  V30 3144 H 284.304 -1.15063 -1.05784 0
M  V30 3145 H 285.039 0.138142 -3.24006 0
M  V30 3146 H 284.824 -1.6038 -3.578 0
M  V30 3147 H 286.314 -0.765658 -4.10521 0
M  V30 3148 N 286.751 1.08385 -1.14413 0
M  V30 3149 C 288 1.80153 -0.907076 0
M  V30 3150 C 288.313 1.87176 0.567851 0
M  V30 3151 O 289.519 2.55359 0.922172 0
M  V30 3152 C 287.975 3.23687 -1.57336 0
M  V30 3153 C 287.583 3.24897 -3.08457 0
M  V30 3154 C 289.327 4.00136 -1.41744 0
M  V30 3155 C 287.234 4.6302 -3.67921 0
M  V30 3156 H 286.164 0.675139 -0.335714 0
M  V30 3157 H 288.815 1.21733 -1.37307 0
M  V30 3158 H 287.197 3.82234 -1.03505 0
M  V30 3159 H 288.371 2.76055 -3.68958 0
M  V30 3160 H 286.686 2.61943 -3.2369 0
M  V30 3161 H 289.283 5.02201 -1.83572 0
M  V30 3162 H 289.626 4.14709 -0.363576 0
M  V30 3163 H 290.159 3.48058 -1.92614 0
M  V30 3164 H 286.898 4.5365 -4.73161 0
M  V30 3165 H 286.418 5.12143 -3.12201 0
M  V30 3166 H 288.097 5.31994 -3.68227 0
M  V30 3167 N 288.23 0.939286 1.26551 0
M  V30 3168 C 289.507 0.5038 1.89001 0
M  V30 3169 C 289.887 -1.01854 1.84903 0
M  V30 3170 O 289.235 -1.87773 1.30206 0
M  V30 3171 C 289.445 1.063 3.32417 0
M  V30 3172 C 290.793 1.13051 4.09273 0
M  V30 3173 O 291.817 1.01345 3.41479 0
M  V30 3174 O 290.676 1.31233 5.30509 0
M  V30 3175 H 287.77 0.163897 0.810597 0
M  V30 3176 H 290.316 1.03173 1.34735 0
M  V30 3177 H 289.088 2.10665 3.29752 0
M  V30 3178 H 288.711 0.517408 3.94219 0
M  V30 3179 N 289.708 -1.40897 0.706093 0
M  V30 3180 C 290.936 -2.05373 0.250887 0
M  V30 3181 C 291.351 -1.53172 -1.10381 0
M  V30 3182 O 290.708 -0.684305 -1.69185 0
M  V30 3183 C 290.759 -3.6088 0.211571 0
M  V30 3184 O 290.48 -4.11153 1.51276 0
M  V30 3185 C 291.981 -4.42517 -0.263346 0
M  V30 3186 H 289.201 -0.66115 0.114552 0
M  V30 3187 H 291.745 -1.80479 0.961635 0
M  V30 3188 H 289.9 -3.84777 -0.450073 0
M  V30 3189 H 290.314 -5.05279 1.40689 0
M  V30 3190 H 291.788 -5.51479 -0.239718 0
M  V30 3191 H 292.265 -4.19396 -1.30397 0
M  V30 3192 H 292.871 -4.23708 0.367677 0
M  V30 3193 N 291.186 -0.45159 -1.50991 0
M  V30 3194 C 292.602 -0.104647 -1.59257 0
M  V30 3195 C 292.802 1.38728 -1.4614 0
M  V30 3196 O 291.858 2.15866 -1.30989 0
M  V30 3197 C 293.171 -0.637468 -2.93865 0
M  V30 3198 C 294.719 -0.599166 -3.07212 0
M  V30 3199 C 295.194 -1.1092 -4.44366 0
M  V30 3200 N 296.685 -1.06778 -4.50725 0
M  V30 3201 C 297.42 -1.43314 -5.55201 0
M  V30 3202 N 296.916 -1.87204 -6.67028 0
M  V30 3203 N 298.709 -1.3504 -5.45638 0
M  V30 3204 H 290.86 -1.42214 -1.57762 0
M  V30 3205 H 293.123 -0.586921 -0.744465 0
M  V30 3206 H 292.829 -1.68187 -3.08879 0
M  V30 3207 H 292.703 -0.0702139 -3.77135 0
M  V30 3208 H 295.09 0.436277 -2.91857 0
M  V30 3209 H 295.171 -1.20299 -2.25747 0
M  V30 3210 H 294.815 -2.14318 -4.60467 0
M  V30 3211 H 294.745 -0.481773 -5.24392 0
M  V30 3212 H 297.236 -0.745643 -3.70471 0
M  V30 3213 H 297.549 -2.13282 -7.42786 0
M  V30 3214 H 295.894 -1.91142 -6.68199 0
M  V30 3215 H 299.085 -1.00607 -4.57161 0
M  V30 3216 H 299.258 -1.63841 -6.26945 0
M  V30 3217 N 292.664 1.56529 -0.183458 0
M  V30 3218 C 293.892 2.01623 0.464285 0
M  V30 3219 C 294.307 1.06366 1.55986 0
M  V30 3220 O 293.664 0.0665398 1.82379 0
M  V30 3221 C 293.715 3.46475 1.03139 0
M  V30 3222 O 293.436 4.38095 -0.0204675 0
M  V30 3223 C 294.937 4.0703 1.75617 0
M  V30 3224 H 292.157 0.660596 0.117704 0
M  V30 3225 H 294.701 2.02451 -0.288751 0
M  V30 3226 H 292.856 3.46383 1.73486 0
M  V30 3227 H 293.27 5.22973 0.399952 0
M  V30 3228 H 294.744 5.10271 2.10542 0
M  V30 3229 H 295.221 3.49819 2.65563 0
M  V30 3230 H 295.827 4.1086 1.09882 0
M  V30 3231 N 294.142 -0.090211 1.57342 0
M  V30 3232 C 295.39 -0.791241 1.85967 0
M  V30 3233 C 295.711 -1.7903 0.772859 0
M  V30 3234 O 294.981 -1.94872 -0.200398 0
M  V30 3235 H 293.561 -0.295205 0.686195 0
M  V30 3236 H 296.223 -0.0706782 1.94772 0
M  V30 3237 H 295.319 -1.31882 2.82867 0
M  V30 3238 N 295.62 -1.53406 -0.361157 0
M  V30 3239 C 296.55 -1.83136 -1.44857 0
M  V30 3240 C 297.531 -0.685174 -1.5569 0
M  V30 3241 O 298.716 -0.93544 -1.70186 0
M  V30 3242 C 295.846 -2.02522 -2.82138 0
M  V30 3243 C 294.8 -3.18302 -2.86126 0
M  V30 3244 C 294.126 -3.22989 -4.26125 0
M  V30 3245 C 295.426 -4.56796 -2.53248 0
M  V30 3246 H 297.12 -2.74201 -1.20226 0
M  V30 3247 H 294.666 -1.31938 -0.576922 0
M  V30 3248 H 296.619 -2.21904 -3.58241 0
M  V30 3249 H 295.343 -1.08172 -3.08166 0
M  V30 3250 H 294.002 -2.98747 -2.12475 0
M  V30 3251 H 293.65 -2.26267 -4.49235 0
M  V30 3252 H 293.35 -4.00781 -4.29708 0
M  V30 3253 H 294.874 -3.44559 -5.04094 0
M  V30 3254 H 296.288 -4.7631 -3.19064 0
M  V30 3255 H 294.685 -5.36862 -2.68141 0
M  V30 3256 H 295.755 -4.61606 -1.48484 0
M  V30 3257 N 297.098 0.621204 -1.44841 0
M  V30 3258 C 298.326 1.40752 -1.51646 0
M  V30 3259 C 298.741 1.88246 -0.144549 0
M  V30 3260 O 298.098 1.61422 0.851416 0
M  V30 3261 C 298.149 2.62119 -2.4895 0
M  V30 3262 O 297.87 2.16602 -3.80808 0
M  V30 3263 C 299.371 3.55135 -2.65319 0
M  V30 3264 H 296.591 0.431325 -0.514004 0
M  V30 3265 H 299.135 0.758835 -1.899 0
M  V30 3266 H 297.29 3.23058 -2.13805 0
M  V30 3267 H 297.704 2.95358 -4.33433 0
M  V30 3268 H 299.178 4.36874 -3.37409 0
M  V30 3269 H 299.655 4.04592 -1.70886 0
M  V30 3270 H 300.261 3.00058 -3.01405 0
M  V30 3271 N 298.576 1.31904 0.862503 0
M  V30 3272 C 299.801 1.25135 1.65397 0
M  V30 3273 C 300.226 -0.179 1.87246 0
M  V30 3274 O 299.584 -1.1277 1.4196 0
M  V30 3275 C 299.632 2.00832 2.99498 0
M  V30 3276 O 298.736 1.35075 3.89652 0
M  V30 3277 H 298.077 0.431655 0.504549 0
M  V30 3278 H 300.607 1.74094 1.07483 0
M  V30 3279 H 300.617 2.10709 3.49379 0
M  V30 3280 H 299.292 3.04847 2.82916 0
M  V30 3281 H 297.869 1.33696 3.48109 0
M  V30 3282 N 300.054 -1.07777 1.14986 0
M  V30 3283 C 301.303 -1.79669 0.916617 0
M  V30 3284 C 301.616 -1.87474 -0.557917 0
M  V30 3285 O 302.822 -2.55845 -0.908617 0
M  V30 3286 C 301.278 -3.22848 1.59051 0
M  V30 3287 C 300.886 -3.23257 3.10176 0
M  V30 3288 C 302.63 -3.99379 1.43864 0
M  V30 3289 C 300.537 -4.61063 3.70372 0
M  V30 3290 H 299.467 -0.673349 0.33929 0
M  V30 3291 H 302.118 -1.21003 1.37951 0
M  V30 3292 H 300.5 -3.8168 1.0553 0
M  V30 3293 H 301.674 -2.74095 3.70417 0
M  V30 3294 H 299.989 -2.60222 3.25074 0
M  V30 3295 H 302.586 -5.0122 1.86232 0
M  V30 3296 H 302.929 -4.14511 0.385564 0
M  V30 3297 H 303.462 -3.47032 1.94457 0
M  V30 3298 H 300.201 -4.51135 4.7556 0
M  V30 3299 H 299.721 -5.1048 3.14913 0
M  V30 3300 H 301.4 -5.30034 3.71043 0
M  V30 3301 N 301.532 -0.945985 -1.26051 0
M  V30 3302 C 302.462 -0.477172 -2.28572 0
M  V30 3303 C 303.443 0.472032 -1.63419 0
M  V30 3304 O 304.628 0.372853 -1.90587 0
M  V30 3305 C 301.758 0.253975 -3.4637 0
M  V30 3306 C 300.712 -0.609135 -4.23643 0
M  V30 3307 C 300.038 0.252252 -5.34105 0
M  V30 3308 C 301.338 -1.8829 -4.8718 0
M  V30 3309 H 303.032 -1.33402 -2.68038 0
M  V30 3310 H 300.578 -0.642904 -1.28852 0
M  V30 3311 H 302.531 0.593016 -4.17207 0
M  V30 3312 H 301.255 1.145 -3.05871 0
M  V30 3313 H 299.914 -0.931138 -3.54578 0
M  V30 3314 H 299.562 1.14278 -4.89846 0
M  V30 3315 H 299.262 -0.32188 -5.86718 0
M  V30 3316 H 300.786 0.586454 -6.07777 0
M  V30 3317 H 302.2 -1.61081 -5.50205 0
M  V30 3318 H 300.597 -2.40199 -5.49931 0
M  V30 3319 H 301.667 -2.59134 -4.09851 0
M  V30 3320 N 303.011 1.40521 -0.713556 0
M  V30 3321 C 304.422 1.83853 -0.324807 0
M  V30 3322 C 304.773 1.59667 1.14021 0
M  V30 3323 O 303.898 1.07649 1.87725 0
M  V30 3324 C 304.493 3.33751 -0.582746 0
M  V30 3325 C 303.052 3.75584 -0.247727 0
M  V30 3326 C 302.199 2.63753 -0.856121 0
M  V30 3327 H 305.15 1.29817 -0.91286 0
M  V30 3328 H 305.171 3.80194 0.152682 0
M  V30 3329 H 304.683 3.51322 -1.64908 0
M  V30 3330 H 302.784 3.63608 0.813624 0
M  V30 3331 H 302.897 4.7373 -0.715307 0
M  V30 3332 H 301.261 2.53108 -0.28432 0
M  V30 3333 H 302.044 2.84137 -1.92668 0
M  V30 3334 N 304.489 0.459591 1.5075 0
M  V30 3335 C 305.766 -0.160371 1.94941 0
M  V30 3336 C 306.146 -1.58048 1.39943 0
M  V30 3337 O 305.494 -2.206 0.595629 0
M  V30 3338 C 305.704 -0.115432 3.48809 0
M  V30 3339 C 307.052 -0.310026 4.23467 0
M  V30 3340 O 308.076 -0.192543 3.55679 0
M  V30 3341 O 306.935 -0.546031 5.43765 0
M  V30 3342 H 304.029 -0.117925 0.818549 0
M  V30 3343 H 306.575 0.519169 1.61563 0
M  V30 3344 H 305.347 0.87652 3.81357 0
M  V30 3345 H 304.97 -0.836928 3.88692 0
M  V30 3346 N 305.967 -1.56429 0.191757 0
M  V30 3347 C 306.915 -2.20273 -0.747174 0
M  V30 3348 C 307.909 -1.17288 -1.22229 0
M  V30 3349 O 309.115 -1.35441 -1.18557 0
M  V30 3350 H 305.49 -0.705885 -0.259289 0
M  V30 3351 H 307.461 -2.97826 -0.184963 0
M  V30 3352 C 306.21 -2.87356 -1.95759 0
M  V30 3353 H 305.533 -3.66341 -1.60106 0
M  V30 3354 H 306.973 -3.3547 -2.59299 0
M  V30 3355 C 305.432 -1.88213 -2.79423 0
M  V30 3356 O 305.962 -1.38033 -3.7724 0
M  V30 3357 N 304.168 -1.56516 -2.44849 0
M  V30 3358 H 303.715 -1.97516 -1.65364 0
M  V30 3359 H 303.673 -0.904369 -3.01112 0
M  V30 3360 N 307.445 0.0818655 -1.57387 0
M  V30 3361 C 308.694 0.781681 -1.85937 0
M  V30 3362 C 309.007 1.79246 -0.782957 0
M  V30 3363 O 310.213 2.54112 -0.955987 0
M  V30 3364 C 308.669 1.44109 -3.29789 0
M  V30 3365 C 308.277 0.469396 -4.45534 0
M  V30 3366 C 310.021 2.12386 -3.67549 0
M  V30 3367 C 307.928 1.13415 -5.80423 0
M  V30 3368 H 306.858 0.295682 -0.693605 0
M  V30 3369 H 309.509 0.0348051 -1.83467 0
M  V30 3370 H 307.891 2.23588 -3.2684 0
M  V30 3371 H 309.065 -0.294856 -4.59856 0
M  V30 3372 H 307.38 -0.108383 -4.16259 0
M  V30 3373 H 309.977 2.62878 -4.65617 0
M  V30 3374 H 310.32 2.91877 -2.96839 0
M  V30 3375 H 310.853 1.39751 -3.72444 0
M  V30 3376 H 307.592 0.379771 -6.54399 0
M  V30 3377 H 307.112 1.8695 -5.69921 0
M  V30 3378 H 308.791 1.65686 -6.25426 0
M  V30 3379 N 308.923 1.53595 0.353017 0
M  V30 3380 C 310.148 1.7462 1.11904 0
M  V30 3381 C 310.573 0.479721 1.8188 0
M  V30 3382 O 309.931 -0.567066 1.72204 0
M  V30 3383 C 309.979 2.92029 2.11545 0
M  V30 3384 O 309.083 2.61516 3.18878 0
M  V30 3385 H 308.424 0.579531 0.324099 0
M  V30 3386 H 310.954 2.00525 0.406301 0
M  V30 3387 H 310.964 3.18551 2.5493 0
M  V30 3388 H 309.639 3.83888 1.60008 0
M  V30 3389 H 308.216 2.45852 2.80377 0
M  V30 3390 N 310.401 -0.613514 1.45168 0
M  V30 3391 C 311.647 -1.37471 1.49096 0
M  V30 3392 C 311.98 -1.93765 0.129901 0
M  V30 3393 O 311.255 -1.74707 -0.854858 0
M  V30 3394 C 311.538 -2.52701 2.56542 0
M  V30 3395 C 311.391 -2.01643 4.0207 0
M  V30 3396 C 312.71 -3.54849 2.60327 0
M  V30 3397 H 309.829 -0.498502 0.54283 0
M  V30 3398 H 312.471 -0.692125 1.76945 0
M  V30 3399 H 310.621 -3.10931 2.32926 0
M  V30 3400 H 312.293 -1.48108 4.36877 0
M  V30 3401 H 310.536 -1.32688 4.13009 0
M  V30 3402 H 311.207 -2.84681 4.72928 0
M  V30 3403 H 313.683 -3.0645 2.81474 0
M  V30 3404 H 312.559 -4.32973 3.37381 0
M  V30 3405 H 312.82 -4.10079 1.6519 0
M  V30 3406 N 311.879 -1.3236 -0.855495 0
M  V30 3407 C 312.809 -1.23833 -1.97958 0
M  V30 3408 C 313.79 -0.122361 -1.69659 0
M  V30 3409 O 314.975 -0.30939 -1.9172 0
M  V30 3410 C 312.105 -0.959772 -3.33775 0
M  V30 3411 C 311.059 -2.03689 -3.76424 0
M  V30 3412 C 310.385 -1.61075 -5.09862 0
M  V30 3413 C 311.685 -3.4518 -3.9198 0
M  V30 3414 H 313.379 -2.1788 -2.0535 0
M  V30 3415 H 310.925 -1.04891 -0.986605 0
M  V30 3416 H 312.878 -0.886678 -4.11966 0
M  V30 3417 H 311.602 0.0163404 -3.26596 0
M  V30 3418 H 310.261 -2.10012 -3.00484 0
M  V30 3419 H 309.909 -0.622107 -4.99138 0
M  V30 3420 H 309.609 -2.33143 -5.39368 0
M  V30 3421 H 311.133 -1.55201 -5.90546 0
M  V30 3422 H 312.547 -3.4145 -4.60526 0
M  V30 3423 H 310.944 -4.1559 -4.32903 0
M  V30 3424 H 312.014 -3.84903 -2.94919 0
M  V30 3425 N 313.357 1.07166 -1.15556 0
M  V30 3426 C 314.267 2.17947 -0.868116 0
M  V30 3427 C 315.283 1.73297 0.156297 0
M  V30 3428 O 316.459 2.01392 -0.0182327 0
M  V30 3429 C 313.524 3.44789 -0.36355 0
M  V30 3430 C 312.585 4.03996 -1.45209 0
M  V30 3431 C 311.818 5.24783 -0.971508 0
M  V30 3432 O 312.041 5.70109 0.182194 0
M  V30 3433 O 310.975 5.75715 -1.75603 0
M  V30 3434 H 314.801 2.4503 -1.79427 0
M  V30 3435 H 312.386 1.16539 -0.934824 0
M  V30 3436 H 314.268 4.21307 -0.0887113 0
M  V30 3437 H 312.943 3.19253 0.534708 0
M  V30 3438 H 311.85 3.29009 -1.78056 0
M  V30 3439 H 313.183 4.33808 -2.32533 0
M  V30 3440 N 314.835 0.952656 1.25548 0
M  V30 3441 C 316.246 0.647392 1.75116 0
M  V30 3442 C 316.597 -0.837274 1.77438 0
M  V30 3443 O 315.722 -1.65525 1.39393 0
M  V30 3444 C 316.317 1.16845 3.18014 0
M  V30 3445 C 314.876 0.913382 3.6515 0
M  V30 3446 C 314.023 1.31265 2.44264 0
M  V30 3447 H 316.974 1.12968 1.11462 0
M  V30 3448 H 316.995 0.527606 3.76824 0
M  V30 3449 H 316.507 2.24902 3.16292 0
M  V30 3450 H 314.608 -0.152316 3.72289 0
M  V30 3451 H 314.721 1.54845 4.53387 0
M  V30 3452 H 313.085 0.731028 2.43984 0
M  V30 3453 H 313.868 2.40239 2.45234 0
M  V30 3454 N 316.313 -1.40141 0.720998 0
M  V30 3455 C 317.26 -2.30688 0.071919 0
M  V30 3456 C 318.23 -1.48476 -0.744584 0
M  V30 3457 O 319.415 -1.77201 -0.707423 0
M  V30 3458 C 316.555 -3.34724 -0.839855 0
M  V30 3459 C 315.668 -4.31998 -0.0122438 0
M  V30 3460 C 314.803 -5.23102 -0.923995 0
M  V30 3461 C 313.842 -6.12033 -0.0907969 0
M  V30 3462 N 312.979 -6.95537 -0.957718 0
M  V30 3463 H 317.819 -2.85628 0.849755 0
M  V30 3464 H 315.356 -1.40653 0.430726 0
M  V30 3465 H 317.314 -3.93618 -1.38279 0
M  V30 3466 H 315.944 -2.81274 -1.58381 0
M  V30 3467 H 314.996 -3.74841 0.64794 0
M  V30 3468 H 316.308 -4.94772 0.632595 0
M  V30 3469 H 315.462 -5.86953 -1.53527 0
M  V30 3470 H 314.201 -4.60615 -1.60264 0
M  V30 3471 H 313.206 -5.47207 0.533377 0
M  V30 3472 H 314.431 -6.76581 0.584428 0
M  V30 3473 H 312.377 -6.35633 -1.62192 0
M  V30 3474 H 312.294 -7.55099 -0.36904 0
M  V30 3475 H 313.562 -7.63832 -1.555 0
M  V30 3476 N 317.792 -0.46758 -1.50504 0
M  V30 3477 C 319.02 0.0864133 -2.06719 0
M  V30 3478 C 319.435 1.33819 -1.33184 0
M  V30 3479 O 318.792 1.78061 -0.400083 0
M  V30 3480 C 318.843 0.378079 -3.59517 0
M  V30 3481 O 318.564 -0.824044 -4.3028 0
M  V30 3482 C 320.065 0.979426 -4.32345 0
M  V30 3483 H 317.285 -0.00551697 -0.670977 0
M  V30 3484 H 319.829 -0.655354 -1.93715 0
M  V30 3485 H 317.984 1.06977 -3.72337 0
M  V30 3486 H 318.398 -0.566518 -5.21432 0
M  V30 3487 H 319.872 1.1333 -5.40241 0
M  V30 3488 H 320.349 1.9686 -3.9261 0
M  V30 3489 H 320.955 0.326216 -4.24047 0
M  V30 3490 N 319.27 1.56325 -0.20005 0
M  V30 3491 C 320.547 1.89484 0.48529 0
M  V30 3492 C 320.927 1.1143 1.79294 0
M  V30 3493 O 320.275 0.216919 2.27468 0
M  V30 3494 C 320.485 3.41923 0.699243 0
M  V30 3495 C 321.833 4.12256 1.01638 0
M  V30 3496 O 322.857 3.47402 0.786792 0
M  V30 3497 O 321.716 5.26887 1.45095 0
M  V30 3498 H 318.81 0.787144 0.253639 0
M  V30 3499 H 321.356 1.67985 -0.240633 0
M  V30 3500 H 320.128 3.90658 -0.224008 0
M  V30 3501 H 319.751 3.69131 1.47744 0
M  V30 3502 N 320.748 -0.0735177 1.57428 0
M  V30 3503 C 321.976 -0.785969 1.9139 0
M  V30 3504 C 322.391 -1.71207 0.795847 0
M  V30 3505 O 321.748 -1.81033 -0.230915 0
M  V30 3506 C 321.799 -1.58107 3.25091 0
M  V30 3507 O 321.52 -0.6922 4.32597 0
M  V30 3508 C 323.021 -2.39467 3.73055 0
M  V30 3509 H 320.241 -0.223558 0.632663 0
M  V30 3510 H 322.785 -0.044302 2.04452 0
M  V30 3511 H 320.94 -2.27503 3.13562 0
M  V30 3512 H 321.354 -1.24504 5.09508 0
M  V30 3513 H 322.828 -2.90716 4.69242 0
M  V30 3514 H 323.305 -3.18913 3.01979 0
M  V30 3515 H 323.911 -1.7523 3.87523 0
M  V30 3516 N 322.226 -1.5378 -0.344866 0
M  V30 3517 C 323.472 -1.71216 -1.08687 0
M  V30 3518 C 323.805 -0.473281 -1.88345 0
M  V30 3519 O 323.08 0.52968 -1.87149 0
M  V30 3520 C 323.363 -2.97486 -2.02914 0
M  V30 3521 C 323.216 -4.31579 -1.26727 0
M  V30 3522 C 324.535 -3.19422 -3.0275 0
M  V30 3523 H 321.654 -0.62301 -0.393735 0
M  V30 3524 H 324.296 -1.8645 -0.365563 0
M  V30 3525 H 322.446 -2.84629 -2.64421 0
M  V30 3526 H 324.118 -4.56284 -0.67845 0
M  V30 3527 H 322.361 -4.30049 -0.569273 0
M  V30 3528 H 323.032 -5.16106 -1.95803 0
M  V30 3529 H 325.508 -3.316 -2.51357 0
M  V30 3530 H 324.384 -4.09169 -3.65885 0
M  V30 3531 H 324.645 -2.35656 -3.74057 0
M  V30 3532 N 323.704 0.605807 -1.45491 0
M  V30 3533 C 324.981 1.36522 -1.40075 0
M  V30 3534 C 325.361 2.10976 -0.0722744 0
M  V30 3535 O 324.709 2.08007 0.945808 0
M  V30 3536 C 324.919 2.31056 -2.61561 0
M  V30 3537 C 326.267 2.93608 -3.06724 0
M  V30 3538 O 327.291 2.41376 -2.61946 0
M  V30 3539 O 326.15 3.88421 -3.84437 0
M  V30 3540 H 323.244 0.612248 -0.555951 0
M  V30 3541 H 325.79 0.628747 -1.57623 0
M  V30 3542 H 324.562 1.75311 -3.49831 0
M  V30 3543 H 324.185 3.12081 -2.46356 0
M  V30 3544 N 325.182 1.32811 0.848464 0
M  V30 3545 C 326.112 1.24882 1.97299 0
M  V30 3546 C 327.093 0.131357 1.69592 0
M  V30 3547 O 328.278 0.319553 1.91553 0
M  V30 3548 C 325.408 0.97746 3.33261 0
M  V30 3549 C 324.362 2.05682 3.75338 0
M  V30 3550 C 323.688 1.63777 5.09 0
M  V30 3551 C 324.988 3.47254 3.90144 0
M  V30 3552 H 326.682 2.18966 2.04191 0
M  V30 3553 H 324.228 1.05413 0.981029 0
M  V30 3554 H 326.181 0.908513 4.1149 0
M  V30 3555 H 324.905 0.000980011 3.266 0
M  V30 3556 H 323.564 2.11603 2.99366 0
M  V30 3557 H 323.212 0.648569 4.98801 0
M  V30 3558 H 322.912 2.36 5.38124 0
M  V30 3559 H 324.436 1.5833 5.89715 0
M  V30 3560 H 325.85 3.43888 4.58709 0
M  V30 3561 H 324.247 4.1788 4.30693 0
M  V30 3562 H 325.317 3.86462 2.92874 0
M  V30 3563 O 326.699 -0.985968 1.2791 0
M  V30 3564 H 327.39 -1.60943 1.07783 0
M  V30 END ATOM
M  V30 BEGIN BOND
M  V30 END BOND
M  V30 END CTAB
M  END
$$$$
