drugbank_target|Q8IKL4 Thioredoxin-like protein (DB11638)
 OpenBabel12092121123D

  0  0  0     0  0            999 V3000
M  V30 BEGIN CTAB
M  V30 COUNTS 2024 2044 0 0 0
M  V30 BEGIN ATOM
M  V30 1 H -0.908 1.98254 -0.117106 0
M  V30 2 N 0 1.576 0 0
M  V30 3 C 0.933 2.03868 1.02534 0
M  V30 4 C 1.911 0.928543 1.3348 0
M  V30 5 O 3.095 1.19667 1.45644 0
M  V30 6 C 0.222 2.43627 2.35294 0
M  V30 7 C -0.732 3.65373 2.2001 0
M  V30 8 S 0.101 5.13292 1.52614 0
M  V30 9 C 1.257 5.56322 2.86805 0
M  V30 10 H 1.49 2.90518 0.631377 0
M  V30 11 H -0.977 1.52953 0.210867 0
M  V30 12 H 0.981 2.67203 3.11629 0
M  V30 13 H -0.358 1.57376 2.7183 0
M  V30 14 H -1.165 3.90944 3.18086 0
M  V30 15 H -1.563 3.418 1.51819 0
M  V30 16 H 0.729 5.58782 3.83104 0
M  V30 17 H 1.672 6.56266 2.65933 0
M  V30 18 H 2.08 4.83886 2.90714 0
M  V30 19 N 1.4781 -0.272755 1.55222 0
M  V30 20 C 2.4251 -1.33716 1.88119 0
M  V30 21 C 3.3951 -1.49066 0.73271 0
M  V30 22 O 4.5801 -1.63469 0.984002 0
M  V30 23 C 1.7201 -2.69238 2.15882 0
M  V30 24 C 0.8331 -2.62108 3.43399 0
M  V30 25 C -0.0319 -3.89811 3.60861 0
M  V30 26 C -0.9929 -3.77193 4.8207 0
M  V30 27 N -1.8559 -4.9673 4.96189 0
M  V30 28 H 2.9841 -1.04962 2.78903 0
M  V30 29 H 0.5211 -0.507088 1.38083 0
M  V30 30 H 2.4791 -3.48089 2.29978 0
M  V30 31 H 1.1091 -2.96194 1.28331 0
M  V30 32 H 0.1611 -1.74967 3.37773 0
M  V30 33 H 1.4731 -2.48685 4.32386 0
M  V30 34 H 0.6271 -4.77103 3.74777 0
M  V30 35 H -0.6339 -4.06102 2.7006 0
M  V30 36 H -1.6289 -2.88284 4.68159 0
M  V30 37 H -0.4039 -3.62421 5.74307 0
M  V30 38 H -2.4579 -5.13431 4.08319 0
M  V30 39 H -2.5409 -4.85839 5.79221 0
M  V30 40 H -1.2729 -5.85594 5.1449 0
M  V30 41 N 2.9562 -1.48159 -0.537278 0
M  V30 42 C 4.3722 -1.34118 -0.865129 0
M  V30 43 C 4.5722 -0.346678 -1.98495 0
M  V30 44 O 3.6282 0.234715 -2.51407 0
M  V30 45 C 4.9412 -2.73963 -1.23954 0
M  V30 46 C 6.4892 -2.82397 -1.34984 0
M  V30 47 C 6.9642 -4.22928 -1.75772 0
M  V30 48 N 8.4552 -4.25566 -1.82887 0
M  V30 49 C 9.1902 -5.31235 -2.15817 0
M  V30 50 N 8.6862 -6.47189 -2.47222 0
M  V30 51 N 10.4792 -5.18624 -2.16761 0
M  V30 52 H 2.6302 -2.1144 0.201715 0
M  V30 53 H 4.8932 -0.947598 0.0275949 0
M  V30 54 H 4.5992 -3.48264 -0.490381 0
M  V30 55 H 4.4732 -3.0702 -2.19132 0
M  V30 56 H 6.8602 -2.08356 -2.08978 0
M  V30 57 H 6.9412 -2.5297 -0.379448 0
M  V30 58 H 6.5852 -4.97482 -1.02341 0
M  V30 59 H 6.5152 -4.49794 -2.73848 0
M  V30 60 H 9.0062 -3.41924 -1.60924 0
M  V30 61 H 9.3192 -7.23564 -2.71433 0
M  V30 62 H 7.6642 -6.50476 -2.44757 0
M  V30 63 H 10.8552 -4.27056 -1.91679 0
M  V30 64 H 11.0282 -6.01078 -2.42093 0
M  V30 65 N 4.4343 0.785586 -1.36625 0
M  V30 66 C 5.6623 1.57448 -1.3423 0
M  V30 67 C 6.0773 1.88649 0.0755653 0
M  V30 68 O 5.4343 1.50414 1.03354 0
M  V30 69 C 5.4853 2.89316 -2.16745 0
M  V30 70 O 5.2063 2.59459 -3.53005 0
M  V30 71 C 6.7073 3.83606 -2.22174 0
M  V30 72 H 3.9273 0.488226 -0.4603 0
M  V30 73 H 6.4713 0.974733 -1.79775 0
M  V30 74 H 4.6263 3.4575 -1.74745 0
M  V30 75 H 5.0403 3.43804 -3.96105 0
M  V30 76 H 6.5143 4.73181 -2.8426 0
M  V30 77 H 6.9913 4.21734 -1.22627 0
M  V30 78 H 7.5973 3.33104 -2.64427 0
M  V30 79 N 5.9124 1.20967 1.01018 0
M  V30 80 C 7.1894 0.93264 1.71934 0
M  V30 81 C 7.5694 -0.55692 2.03621 0
M  V30 82 O 6.9174 -1.52035 1.7058 0
M  V30 83 C 7.1274 1.81233 2.98254 0
M  V30 84 C 8.4754 2.05804 3.71389 0
M  V30 85 O 9.4994 1.78539 3.08225 0
M  V30 86 O 8.3584 2.51888 4.84989 0
M  V30 87 H 5.4524 0.349272 0.749625 0
M  V30 88 H 7.9984 1.31871 1.06808 0
M  V30 89 H 6.7704 2.82067 2.71208 0
M  V30 90 H 6.3934 1.42674 3.7112 0
M  V30 91 N 7.3905 -1.2043 1.01659 0
M  V30 92 C 8.6675 -1.8548 0.621004 0
M  V30 93 C 9.0475 -1.9091 -0.900919 0
M  V30 94 O 8.3955 -1.41694 -1.79263 0
M  V30 95 C 8.6055 -3.25119 1.2688 0
M  V30 96 C 9.9535 -4.01403 1.38423 0
M  V30 97 O 10.9775 -3.34473 1.22501 0
M  V30 98 O 9.8365 -5.21265 1.64151 0
M  V30 99 H 6.9305 -0.798761 0.214266 0
M  V30 100 H 9.4765 -1.28019 1.11396 0
M  V30 101 H 8.2485 -3.15932 2.30873 0
M  V30 102 H 7.8715 -3.90212 0.762917 0
M  V30 103 N 8.8686 -0.792821 -1.36206 0
M  V30 104 C 9.8156 -0.191653 -2.30003 0
M  V30 105 C 10.7856 0.666453 -1.52143 0
M  V30 106 O 11.9706 0.61442 -1.80636 0
M  V30 107 C 9.1106 0.664848 -3.38635 0
M  V30 108 C 8.2236 -0.212175 -4.31479 0
M  V30 109 C 7.3586 0.651022 -5.27196 0
M  V30 110 C 6.3976 -0.227247 -6.11678 0
M  V30 111 N 5.5346 0.595127 -6.99573 0
M  V30 112 H 10.3746 -0.996978 -2.80828 0
M  V30 113 H 7.9116 -0.503206 -1.38225 0
M  V30 114 H 9.8696 1.17645 -4.00269 0
M  V30 115 H 8.4996 1.43557 -2.89122 0
M  V30 116 H 7.5516 -0.841777 -3.70969 0
M  V30 117 H 8.8636 -0.888751 -4.90818 0
M  V30 118 H 8.0176 1.2283 -5.94136 0
M  V30 119 H 6.7566 1.36121 -4.68319 0
M  V30 120 H 5.7616 -0.816904 -5.43697 0
M  V30 121 H 6.9866 -0.93509 -6.72631 0
M  V30 122 H 4.9326 1.28955 -6.432 0
M  V30 123 H 4.8496 -0.0236952 -7.55996 0
M  V30 124 H 6.1176 1.15613 -7.70879 0
M  V30 125 N 10.3467 1.47872 -0.545128 0
M  V30 126 C 11.5957 2.01695 -0.0145033 0
M  V30 127 C 11.9087 1.42609 1.33873 0
M  V30 128 O 13.1147 1.88021 1.95858 0
M  V30 129 C 11.5707 3.59892 0.0245068 0
M  V30 130 C 11.1787 4.27966 -1.32475 0
M  V30 131 C 12.9227 4.21507 0.50316 0
M  V30 132 C 10.8297 5.78136 -1.2455 0
M  V30 133 H 9.7597 0.753998 -0.00165172 0
M  V30 134 H 12.4107 1.69985 -0.691175 0
M  V30 135 H 10.7927 3.88509 0.766575 0
M  V30 136 H 11.9667 4.11003 -2.08357 0
M  V30 137 H 10.2817 3.78286 -1.74036 0
M  V30 138 H 12.8787 5.31538 0.580656 0
M  V30 139 H 13.2217 3.87855 1.51243 0
M  V30 140 H 13.7547 3.97376 -0.183681 0
M  V30 141 H 10.4937 6.16388 -2.23039 0
M  V30 142 H 10.0137 5.97469 -0.528282 0
M  V30 143 H 11.6927 6.40099 -0.942488 0
M  V30 144 N 11.8248 0.280983 1.55075 0
M  V30 145 C 13.0548 -0.336804 2.03836 0
M  V30 146 C 13.4628 -1.49577 1.15859 0
M  V30 147 O 12.8058 -1.82888 0.172503 0
M  V30 148 C 12.8678 -0.874616 3.48699 0
M  V30 149 C 12.5318 0.156478 4.56732 0
M  V30 150 C 13.5288 0.978032 5.10618 0
M  V30 151 C 11.2138 0.292409 5.01448 0
M  V30 152 C 13.2078 1.92165 6.07743 0
M  V30 153 C 10.8948 1.23949 5.98398 0
M  V30 154 C 11.8928 2.05261 6.51427 0
M  V30 155 O 11.5808 2.98367 7.4648 0
M  V30 156 H 11.3128 -0.0800885 0.671239 0
M  V30 157 H 13.8668 0.412589 2.01213 0
M  V30 158 H 12.0968 -1.67418 3.4858 0
M  V30 159 H 13.7858 -1.40612 3.80766 0
M  V30 160 H 14.5518 0.883782 4.7688 0
M  V30 161 H 10.4308 -0.330498 4.59814 0
M  V30 162 H 13.9748 2.55672 6.49059 0
M  V30 163 H 9.8718 1.33454 6.31554 0
M  V30 164 H 10.6398 2.93116 7.64215 0
M  V30 165 N 13.3029 -1.57598 0.00835791 0
M  V30 166 C 14.5489 -1.91211 -0.675732 0
M  V30 167 C 14.8819 -0.883139 -1.72958 0
M  V30 168 O 14.1569 0.097016 -1.94258 0
M  V30 169 C 14.4399 -3.35379 -1.31123 0
M  V30 170 C 14.2929 -4.48999 -0.268356 0
M  V30 171 C 15.6119 -3.7912 -2.23508 0
M  V30 172 H 12.7309 -0.695374 -0.244179 0
M  V30 173 H 15.3729 -1.89901 0.0613655 0
M  V30 174 H 13.5229 -3.36626 -1.93946 0
M  V30 175 H 15.1949 -4.59887 0.360844 0
M  V30 176 H 13.4379 -4.31873 0.408482 0
M  V30 177 H 14.1089 -5.46851 -0.752218 0
M  V30 178 H 16.5849 -3.79477 -1.70693 0
M  V30 179 H 15.4609 -4.80729 -2.64936 0
M  V30 180 H 15.7219 -3.13455 -3.11766 0
M  V30 181 N 14.781 0.264519 -1.55364 0
M  V30 182 C 16.058 1.01677 -1.67096 0
M  V30 183 C 16.438 2.03996 -0.543015 0
M  V30 184 O 15.786 2.23907 0.45585 0
M  V30 185 C 15.996 1.66596 -3.0667 0
M  V30 186 C 17.344 2.17442 -3.64697 0
M  V30 187 O 18.368 1.76568 -3.09358 0
M  V30 188 O 17.227 2.92439 -4.61673 0
M  V30 189 H 14.321 0.472161 -0.678965 0
M  V30 190 H 16.867 0.259703 -1.67701 0
M  V30 191 H 15.639 0.924962 -3.80211 0
M  V30 192 H 15.262 2.48968 -3.10001 0
M  V30 193 N 16.2591 1.48442 0.529413 0
M  V30 194 C 17.5081 1.55742 1.28169 0
M  V30 195 C 17.8211 0.236511 1.94165 0
M  V30 196 O 19.0271 0.187761 2.7085 0
M  V30 197 C 17.4831 2.74667 2.32564 0
M  V30 198 C 17.0911 4.13402 1.72636 0
M  V30 199 C 18.8351 2.9128 3.08798 0
M  V30 200 C 16.7421 5.23587 2.74975 0
M  V30 201 H 15.6721 0.579796 0.48203 0
M  V30 202 H 18.3231 1.74776 0.559056 0
M  V30 203 H 16.7051 2.49067 3.07866 0
M  V30 204 H 17.8791 4.49022 1.03519 0
M  V30 205 H 16.1941 4.0191 1.08892 0
M  V30 206 H 18.7911 3.70767 3.85274 0
M  V30 207 H 19.1341 2.00757 3.64695 0
M  V30 208 H 19.6671 3.16782 2.40611 0
M  V30 209 H 16.4061 6.16076 2.23897 0
M  V30 210 H 15.9261 4.92454 3.42417 0
M  V30 211 H 17.6051 5.51724 3.37949 0
M  V30 212 N 17.7372 -0.778329 1.37039 0
M  V30 213 C 18.6852 -1.91278 1.32345 0
M  V30 214 C 19.6792 -1.68051 0.213331 0
M  V30 215 O 20.8852 -1.75922 0.38098 0
M  V30 216 H 17.2602 -0.628909 0.412283 0
M  V30 217 H 19.2312 -1.92355 2.28127 0
M  V30 218 C 17.9802 -3.28455 1.14073 0
M  V30 219 H 17.3032 -3.46901 1.98746 0
M  V30 220 H 18.7432 -4.08152 1.14837 0
M  V30 221 C 17.2022 -3.36548 -0.154015 0
M  V30 222 O 17.7322 -3.85186 -1.13993 0
M  V30 223 N 15.9382 -2.89894 -0.202475 0
M  V30 224 H 15.4852 -2.50504 0.600476 0
M  V30 225 H 15.4432 -2.9569 -1.06841 0
M  V30 226 N 19.2153 -1.21501 -1.00376 0
M  V30 227 C 20.1633 -0.972442 -2.11297 0
M  V30 228 C 21.1573 0.080731 -1.69208 0
M  V30 229 O 22.3633 -0.0707666 -1.79861 0
M  V30 230 H 18.7383 -0.297218 -0.690772 0
M  V30 231 H 20.7093 -1.91394 -2.28934 0
M  V30 232 C 19.4583 -0.555065 -3.43241 0
M  V30 233 H 18.7813 -1.35709 -3.76062 0
M  V30 234 H 20.2213 -0.424664 -4.21868 0
M  V30 235 C 18.6803 0.734147 -3.28804 0
M  V30 236 O 19.2103 1.78937 -3.59645 0
M  V30 237 N 17.4163 0.701133 -2.82015 0
M  V30 238 H 16.9633 -0.157874 -2.57116 0
M  V30 239 H 16.9213 1.56403 -2.72737 0
M  V30 240 N 20.6934 1.19889 -1.02296 0
M  V30 241 C 21.6034 2.26571 -0.608508 0
M  V30 242 C 22.6194 1.70299 0.356964 0
M  V30 243 O 23.7954 2.00235 0.216326 0
M  V30 244 C 20.8604 3.46677 0.0402814 0
M  V30 245 C 19.9214 4.18153 -0.97194 0
M  V30 246 C 19.1544 5.32525 -0.354016 0
M  V30 247 O 19.3774 5.64112 0.844604 0
M  V30 248 O 18.3114 5.92242 -1.07391 0
M  V30 249 H 22.1374 2.64251 -1.49684 0
M  V30 250 H 19.7224 1.26629 -0.792809 0
M  V30 251 H 21.6044 4.19475 0.402324 0
M  V30 252 H 20.2794 3.10858 0.902707 0
M  V30 253 H 19.1864 3.47499 -1.38546 0
M  V30 254 H 20.5194 4.57927 -1.80454 0
M  V30 255 N 22.1715 0.800033 1.35784 0
M  V30 256 C 23.0815 0.207204 2.33683 0
M  V30 257 C 24.0975 -0.64631 1.61551 0
M  V30 258 O 25.2735 -0.559604 1.93469 0
M  V30 259 C 22.3385 -0.639659 3.40748 0
M  V30 260 C 21.3995 0.233585 4.28664 0
M  V30 261 C 20.6325 -0.572954 5.30616 0
M  V30 262 O 20.8555 -1.80816 5.40982 0
M  V30 263 O 19.7895 0.0327285 6.01891 0
M  V30 264 H 23.6155 1.01692 2.86169 0
M  V30 265 H 21.2005 0.561691 1.38439 0
M  V30 266 H 23.0825 -1.12223 4.06182 0
M  V30 267 H 21.7575 -1.42708 2.90544 0
M  V30 268 H 20.6645 0.763147 3.66233 0
M  V30 269 H 21.9975 0.984784 4.82248 0
M  V30 270 N 23.6496 -1.47581 0.552962 0
M  V30 271 C 24.5596 -2.33743 -0.200353 0
M  V30 272 C 25.5756 -1.47928 -0.916151 0
M  V30 273 O 26.7516 -1.80865 -0.885993 0
M  V30 274 C 23.8166 -3.24536 -1.21973 0
M  V30 275 C 22.8776 -4.26238 -0.511819 0
M  V30 276 C 22.1106 -5.12693 -1.48263 0
M  V30 277 O 22.3336 -5.01525 -2.71714 0
M  V30 278 O 21.2676 -5.93375 -1.00945 0
M  V30 279 H 25.0936 -2.9945 0.506304 0
M  V30 280 H 22.6786 -1.46071 0.313622 0
M  V30 281 H 24.5606 -3.80631 -1.80827 0
M  V30 282 H 23.2356 -2.61462 -1.90839 0
M  V30 283 H 22.1426 -3.73914 0.117799 0
M  V30 284 H 23.4756 -4.92014 0.135308 0
M  V30 285 N 25.1277 -0.289203 -1.54924 0
M  V30 286 C 26.3577 0.325989 -2.04012 0
M  V30 287 C 26.7657 1.48961 -1.1665 0
M  V30 288 O 26.1087 1.82794 -0.1822 0
M  V30 289 C 26.1707 0.856112 -3.49158 0
M  V30 290 C 25.8347 -0.180697 -4.56643 0
M  V30 291 C 26.8317 -1.0051 -5.10092 0
M  V30 292 C 24.5167 -0.318998 -5.01286 0
M  V30 293 C 26.5107 -1.95385 -6.06715 0
M  V30 294 C 24.1977 -1.27121 -5.97732 0
M  V30 295 C 25.1957 -2.08713 -6.50329 0
M  V30 296 O 24.8837 -3.02322 -7.44887 0
M  V30 297 H 24.6157 0.0765276 -0.671654 0
M  V30 298 H 27.1697 -0.423254 -2.00992 0
M  V30 299 H 25.3997 1.65567 -3.49463 0
M  V30 300 H 27.0887 1.38591 -3.81507 0
M  V30 301 H 27.8547 -0.90906 -4.76404 0
M  V30 302 H 23.7337 0.306108 -4.59983 0
M  V30 303 H 27.2777 -2.59111 -6.47694 0
M  V30 304 H 23.1747 -1.36801 -6.30837 0
M  V30 305 H 23.9427 -2.97165 -7.6265 0
M  V30 306 N 26.6058 1.57591 -0.0167156 0
M  V30 307 C 27.5528 2.09462 0.969251 0
M  V30 308 C 28.5228 0.99381 1.33089 0
M  V30 309 O 29.7078 1.26726 1.42636 0
M  V30 310 C 26.8478 2.61622 2.25051 0
M  V30 311 C 25.9608 3.85666 1.94642 0
M  V30 312 C 25.0958 4.26266 3.16972 0
M  V30 313 C 24.1348 5.43101 2.82326 0
M  V30 314 N 23.2718 5.78915 3.97243 0
M  V30 315 H 28.1118 2.93428 0.519997 0
M  V30 316 H 25.6488 1.45044 0.245087 0
M  V30 317 H 27.6068 2.89949 2.99976 0
M  V30 318 H 26.2368 1.80505 2.67615 0
M  V30 319 H 25.2888 3.64145 1.10013 0
M  V30 320 H 26.6008 4.70678 1.65117 0
M  V30 321 H 25.7548 4.55963 4.00228 0
M  V30 322 H 24.4938 3.39996 3.49648 0
M  V30 323 H 23.4988 5.1311 1.97479 0
M  V30 324 H 24.7238 6.3106 2.50879 0
M  V30 325 H 22.6698 4.95602 4.29785 0
M  V30 326 H 22.5868 6.58539 3.71299 0
M  V30 327 H 23.8548 6.13212 4.81239 0
M  V30 328 N 28.0839 -0.256276 1.55502 0
M  V30 329 C 29.0319 -1.33694 1.90338 0
M  V30 330 C 30.0259 -1.50299 0.781441 0
M  V30 331 O 31.2319 -1.51885 0.965966 0
M  V30 332 H 27.6069 -0.447483 0.60437 0
M  V30 333 H 29.5779 -1.01574 2.8058 0
M  V30 334 C 28.3269 -2.68724 2.20642 0
M  V30 335 H 27.6499 -2.56743 3.06469 0
M  V30 336 H 29.0899 -3.43237 2.48926 0
M  V30 337 C 27.5489 -3.21101 1.01959 0
M  V30 338 O 28.0789 -4.0084 0.262762 0
M  V30 339 N 26.2849 -2.79003 0.812746 0
M  V30 340 H 25.8319 -2.14271 1.42989 0
M  V30 341 H 25.7899 -3.14393 0.0203076 0
M  V30 342 N 29.562 -1.4872 -0.521534 0
M  V30 343 C 30.492 -1.66771 -1.63431 0
M  V30 344 C 31.473 -0.516499 -1.62069 0
M  V30 345 O 32.658 -0.750013 -1.79132 0
M  V30 346 C 29.788 -1.71515 -3.01993 0
M  V30 347 C 28.742 -2.86222 -3.18216 0
M  V30 348 C 28.068 -2.76061 -4.57924 0
M  V30 349 C 29.368 -4.27419 -3.00184 0
M  V30 350 H 31.062 -2.59932 -1.48579 0
M  V30 351 H 28.608 -1.25089 -0.713358 0
M  V30 352 H 30.561 -1.82731 -3.7972 0
M  V30 353 H 29.285 -0.749393 -3.17886 0
M  V30 354 H 27.944 -2.74575 -2.42908 0
M  V30 355 H 27.592 -1.77437 -4.70665 0
M  V30 356 H 27.292 -3.53037 -4.69722 0
M  V30 357 H 28.816 -2.89256 -5.37739 0
M  V30 358 H 30.23 -4.39855 -3.67697 0
M  V30 359 H 28.627 -5.05458 -3.2347 0
M  V30 360 H 29.697 -4.43293 -1.96518 0
M  V30 361 N 31.0401 0.771051 -1.3745 0
M  V30 362 C 32.2871 1.52963 -1.32697 0
M  V30 363 C 32.6151 1.94299 0.0883274 0
M  V30 364 O 31.8701 1.64397 1.0617 0
M  V30 365 C 32.1691 2.80676 -2.2126 0
M  V30 366 C 31.8351 2.58389 -3.69521 0
M  V30 367 C 30.4971 2.52019 -4.09927 0
M  V30 368 C 32.8491 2.38469 -4.63446 0
M  V30 369 C 30.1771 2.23721 -5.42371 0
M  V30 370 C 32.5291 2.11694 -5.96128 0
M  V30 371 C 31.1931 2.03769 -6.35637 0
M  V30 372 H 30.4631 0.559732 -0.485573 0
M  V30 373 H 33.1101 0.888083 -1.69662 0
M  V30 374 H 31.4151 3.49392 -1.77291 0
M  V30 375 H 33.1121 3.38557 -2.14895 0
M  V30 376 H 29.7021 2.6421 -3.37478 0
M  V30 377 H 33.8861 2.4238 -4.33089 0
M  V30 378 H 29.1421 2.16081 -5.71943 0
M  V30 379 H 33.3161 1.9528 -6.6846 0
M  V30 380 H 30.9431 1.81606 -7.38189 0
M  V30 381 N 32.5182 1.22032 0.997298 0
M  V30 382 C 33.7952 0.950823 1.70935 0
M  V30 383 C 34.1752 -0.535292 2.042 0
M  V30 384 O 33.5232 -1.50217 1.72183 0
M  V30 385 C 33.7332 1.84386 2.96315 0
M  V30 386 C 35.0812 2.09732 3.69185 0
M  V30 387 O 36.1052 1.81798 3.06314 0
M  V30 388 O 34.9642 2.57018 4.82291 0
M  V30 389 H 32.0582 0.357204 0.745878 0
M  V30 390 H 34.6042 1.32997 1.05404 0
M  V30 391 H 33.3762 2.84928 2.68201 0
M  V30 392 H 32.9992 1.46602 3.69586 0
M  V30 393 N 33.9963 -1.19345 1.0293 0
M  V30 394 C 35.2733 -1.84811 0.640642 0
M  V30 395 C 35.6533 -1.91855 -0.88062 0
M  V30 396 O 35.0013 -1.43587 -1.7775 0
M  V30 397 C 35.2113 -3.23755 1.30321 0
M  V30 398 C 36.5593 -3.99912 1.42673 0
M  V30 399 O 37.5833 -3.33155 1.26041 0
M  V30 400 O 36.4423 -5.19494 1.6967 0
M  V30 401 H 33.5363 -0.796443 0.222726 0
M  V30 402 H 36.0823 -1.26831 1.12748 0
M  V30 403 H 34.8543 -3.13466 2.34211 0
M  V30 404 H 34.4773 -3.89381 0.804261 0
M  V30 405 N 35.4744 -0.807222 -1.35358 0
M  V30 406 C 36.4214 -0.216037 -2.29787 0
M  V30 407 C 37.3914 0.650278 -1.52842 0
M  V30 408 O 38.5764 0.595227 -1.81278 0
M  V30 409 C 35.7164 0.628893 -3.39321 0
M  V30 410 C 34.8294 -0.257927 -4.31229 0
M  V30 411 C 33.9644 0.595069 -5.27856 0
M  V30 412 C 33.0034 -0.292111 -6.11403 0
M  V30 413 N 32.1404 0.520895 -7.00165 0
M  V30 414 H 36.9804 -1.02671 -2.79755 0
M  V30 415 H 34.5174 -0.517839 -1.37684 0
M  V30 416 H 36.4754 1.13393 -4.01494 0
M  V30 417 H 35.1054 1.40482 -2.90628 0
M  V30 418 H 34.1574 -0.881076 -3.70056 0
M  V30 419 H 35.4694 -0.940759 -4.89848 0
M  V30 420 H 34.6234 1.16522 -5.95405 0
M  V30 421 H 33.3624 1.31146 -4.69736 0
M  V30 422 H 32.3674 -0.874525 -5.428 0
M  V30 423 H 33.5924 -1.00638 -6.71602 0
M  V30 424 H 31.5384 1.22125 -6.44532 0
M  V30 425 H 31.4554 -0.103877 -7.55929 0
M  V30 426 H 32.7234 1.0743 -7.72062 0
M  V30 427 N 36.9525 1.47285 -0.560781 0
M  V30 428 C 37.9005 2.31756 0.197942 0
M  V30 429 C 38.8945 1.43146 0.905854 0
M  V30 430 O 40.1005 1.59891 0.826733 0
M  V30 431 H 36.4755 0.747438 0.0827049 0
M  V30 432 H 38.4465 2.9359 -0.533629 0
M  V30 433 C 37.1955 3.25874 1.21249 0
M  V30 434 H 36.5185 3.94023 0.67719 0
M  V30 435 H 37.9585 3.87803 1.71419 0
M  V30 436 C 36.4175 2.49651 2.26221 0
M  V30 437 O 36.9475 2.24355 3.33208 0
M  V30 438 N 35.1535 2.10597 2.00243 0
M  V30 439 H 34.7005 2.31369 1.13252 0
M  V30 440 H 34.6585 1.59913 2.70694 0
M  V30 441 N 38.4306 0.297415 1.54768 0
M  V30 442 C 39.7076 -0.365847 1.92148 0
M  V30 443 C 40.0876 -1.71975 1.22424 0
M  V30 444 O 39.4356 -2.25666 0.358739 0
M  V30 445 C 39.6456 -0.484056 3.45627 0
M  V30 446 C 40.9936 -0.756594 4.17805 0
M  V30 447 O 42.0176 -0.568007 3.51642 0
M  V30 448 O 40.8766 -1.11863 5.34929 0
M  V30 449 H 37.9706 -0.203919 0.801465 0
M  V30 450 H 40.5166 0.34521 1.66152 0
M  V30 451 H 39.2886 0.467865 3.88493 0
M  V30 452 H 38.9116 -1.24372 3.77647 0
M  V30 453 N 39.9087 -1.5758 0.0250728 0
M  V30 454 C 41.1577 -1.90811 -0.653767 0
M  V30 455 C 41.4707 -0.90273 -1.73523 0
M  V30 456 O 42.6767 -1.12614 -2.47043 0
M  V30 457 C 41.1327 -3.38804 -1.21409 0
M  V30 458 C 40.7407 -4.47692 -0.166126 0
M  V30 459 C 42.4847 -3.81108 -1.86967 0
M  V30 460 C 40.3917 -5.86779 -0.737856 0
M  V30 461 H 39.3217 -0.712063 -0.247956 0
M  V30 462 H 41.9727 -1.83281 0.0897137 0
M  V30 463 H 40.3547 -3.41252 -2.00905 0
M  V30 464 H 41.5287 -4.56797 0.606079 0
M  V30 465 H 39.8437 -4.14565 0.390466 0
M  V30 466 H 42.4407 -4.82375 -2.30692 0
M  V30 467 H 42.7837 -3.15953 -2.71071 0
M  V30 468 H 43.3167 -3.81065 -1.14167 0
M  V30 469 H 40.0557 -6.55468 0.0649577 0
M  V30 470 H 39.5757 -5.81288 -1.47864 0
M  V30 471 H 41.2547 -6.35223 -1.22884 0
M  V30 472 N 41.3868 0.248026 -1.55636 0
M  V30 473 C 42.3168 1.31079 -1.93237 0
M  V30 474 C 43.2978 1.50264 -0.797174 0
M  V30 475 O 44.4828 1.62891 -1.05737 0
M  V30 476 C 41.6128 2.66575 -2.22609 0
M  V30 477 C 40.5668 2.62087 -3.3837 0
M  V30 478 C 39.8928 4.01369 -3.53281 0
M  V30 479 C 41.1928 2.19171 -4.7409 0
M  V30 480 H 42.8868 0.998556 -2.82257 0
M  V30 481 H 40.4328 0.47891 -1.35803 0
M  V30 482 H 42.3858 3.41057 -2.47503 0
M  V30 483 H 41.1098 2.99432 -1.30414 0
M  V30 484 H 39.7688 1.90063 -3.13483 0
M  V30 485 H 39.4168 4.31489 -2.58508 0
M  V30 486 H 39.1168 3.99254 -4.31127 0
M  V30 487 H 40.6408 4.77552 -3.80495 0
M  V30 488 H 42.0548 2.83384 -4.98363 0
M  V30 489 H 40.4518 2.2817 -5.5503 0
M  V30 490 H 41.5218 1.14336 -4.71227 0
M  V30 491 N 42.8649 1.48995 0.513639 0
M  V30 492 C 44.0949 1.61297 1.291 0
M  V30 493 C 44.5029 0.278656 1.87137 0
M  V30 494 O 43.8459 -0.744325 1.67945 0
M  V30 495 C 43.9079 2.61326 2.46879 0
M  V30 496 C 43.5719 4.05993 2.09807 0
M  V30 497 C 44.5689 4.93183 1.64519 0
M  V30 498 C 42.2539 4.51642 2.19829 0
M  V30 499 C 44.2479 6.24056 1.2974 0
M  V30 500 C 41.9349 5.82532 1.84662 0
M  V30 501 C 42.9329 6.68562 1.3969 0
M  V30 502 O 42.6209 7.97014 1.04992 0
M  V30 503 H 42.3529 0.546236 0.39825 0
M  V30 504 H 44.9069 1.95673 0.62459 0
M  V30 505 H 43.1369 2.22104 3.16554 0
M  V30 506 H 44.8259 2.6329 3.08923 0
M  V30 507 H 45.5919 4.59147 1.56233 0
M  V30 508 H 41.4709 3.84855 2.53786 0
M  V30 509 H 45.0149 6.91161 0.945659 0
M  V30 510 H 40.9119 6.16099 1.92594 0
M  V30 511 H 41.6799 8.09913 1.18249 0
M  V30 512 N 44.343 -0.763751 1.37857 0
M  V30 513 C 45.592 -1.51789 1.32827 0
M  V30 514 C 45.905 -1.95426 -0.0823719 0
M  V30 515 O 47.111 -2.70298 -0.255172 0
M  V30 516 C 45.567 -2.74133 2.33193 0
M  V30 517 C 45.175 -2.37562 3.79827 0
M  V30 518 C 46.919 -3.52054 2.37188 0
M  V30 519 C 44.826 -3.56456 4.71904 0
M  V30 520 H 43.756 -0.569896 0.493695 0
M  V30 521 H 46.407 -0.835822 1.63359 0
M  V30 522 H 44.789 -3.4427 1.9569 0
M  V30 523 H 45.963 -1.75157 4.26212 0
M  V30 524 H 44.278 -1.72798 3.78853 0
M  V30 525 H 46.875 -4.40437 3.03182 0
M  V30 526 H 47.218 -3.92486 1.38782 0
M  V30 527 H 47.751 -2.88921 2.7344 0
M  V30 528 H 44.49 -3.21099 5.71468 0
M  V30 529 H 44.01 -4.17938 4.30218 0
M  V30 530 H 45.689 -4.23168 4.89426 0
M  V30 531 N 45.8211 -1.22559 -0.990812 0
M  V30 532 C 47.0701 -1.04553 -1.72486 0
M  V30 533 C 47.3831 0.419349 -1.91052 0
M  V30 534 O 48.5891 0.719121 -2.61803 0
M  V30 535 C 47.0451 -1.82231 -3.10355 0
M  V30 536 C 46.6531 -3.32981 -2.99713 0
M  V30 537 C 48.3971 -1.7268 -3.87791 0
M  V30 538 C 46.3041 -4.03091 -4.32748 0
M  V30 539 H 45.2341 -0.387614 -0.646739 0
M  V30 540 H 47.8851 -1.46429 -1.10593 0
M  V30 541 H 46.2671 -1.33155 -3.72942 0
M  V30 542 H 47.4411 -3.89466 -2.46278 0
M  V30 543 H 45.7561 -3.43231 -2.35758 0
M  V30 544 H 48.3531 -2.22381 -4.86262 0
M  V30 545 H 48.6961 -0.687607 -4.10582 0
M  V30 546 H 49.2291 -2.1931 -3.31885 0
M  V30 547 H 45.9681 -5.07273 -4.15156 0
M  V30 548 H 45.4881 -3.51394 -4.86089 0
M  V30 549 H 47.1671 -4.08804 -5.01486 0
M  V30 550 N 47.2992 1.18797 -1.03562 0
M  V30 551 C 48.5762 1.84469 -0.650434 0
M  V30 552 C 48.9562 1.92319 0.870433 0
M  V30 553 O 48.3042 1.44528 1.76986 0
M  V30 554 C 48.5142 3.2306 -1.32036 0
M  V30 555 C 49.8622 3.9915 -1.44792 0
M  V30 556 O 50.8862 3.32481 -1.27806 0
M  V30 557 O 49.7452 5.18587 -1.72423 0
M  V30 558 H 46.8392 0.795251 -0.226946 0
M  V30 559 H 49.3852 1.26231 -1.13419 0
M  V30 560 H 48.1572 3.1222 -2.3587 0
M  V30 561 H 47.7802 3.88949 -0.8249 0
M  V30 562 N 48.7773 0.814389 1.34928 0
M  V30 563 C 50.0263 0.394871 1.97797 0
M  V30 564 C 50.3393 -1.04555 1.65311 0
M  V30 565 O 51.5453 -1.56856 2.21604 0
M  V30 566 C 50.0013 0.655103 3.53888 0
M  V30 567 C 49.6093 2.10858 3.95276 0
M  V30 568 C 51.3533 0.301329 4.23429 0
M  V30 569 C 49.2603 2.31415 5.44244 0
M  V30 570 H 48.1903 0.143913 0.740139 0
M  V30 571 H 50.8413 0.999544 1.53888 0
M  V30 572 H 49.2233 -0.0196253 3.95995 0
M  V30 573 H 50.3973 2.82176 3.64298 0
M  V30 574 H 48.7123 2.42297 3.38646 0
M  V30 575 H 51.3093 0.432869 5.32945 0
M  V30 576 H 51.6523 -0.75331 4.09428 0
M  V30 577 H 52.1853 0.930288 3.86769 0
M  V30 578 H 48.9243 3.35353 5.63222 0
M  V30 579 H 48.4443 1.6463 5.76764 0
M  V30 580 H 50.1233 2.13352 6.10811 0
M  V30 581 N 50.2554 -1.46986 0.568584 0
M  V30 582 C 51.4854 -2.0653 0.0539173 0
M  V30 583 C 51.8934 -1.42004 -1.25026 0
M  V30 584 O 51.2364 -0.514541 -1.76347 0
M  V30 585 C 51.2984 -3.58938 -0.200854 0
M  V30 586 C 50.9624 -4.45572 1.01559 0
M  V30 587 C 51.9594 -4.82986 1.92407 0
M  V30 588 C 49.6444 -4.8692 1.23346 0
M  V30 589 C 51.6384 -5.60559 3.03402 0
M  V30 590 C 49.3254 -5.64255 2.34649 0
M  V30 591 C 50.3234 -6.00986 3.24507 0
M  V30 592 O 50.0114 -6.76761 4.33878 0
M  V30 593 H 49.7434 -0.674292 0.0480234 0
M  V30 594 H 52.2974 -1.89812 0.784896 0
M  V30 595 H 50.5274 -3.73911 -0.986279 0
M  V30 596 H 52.2164 -4.0046 -0.662294 0
M  V30 597 H 52.9824 -4.51633 1.76785 0
M  V30 598 H 48.8614 -4.57789 0.543178 0
M  V30 599 H 52.4054 -5.89147 3.73565 0
M  V30 600 H 48.3024 -5.95021 2.5024 0
M  V30 601 H 49.0704 -6.95168 4.32068 0
M  V30 602 N 51.7335 -0.305618 -1.54608 0
M  V30 603 C 52.9615 0.304775 -2.04643 0
M  V30 604 C 53.3765 1.47167 -1.18268 0
M  V30 605 O 52.7335 1.81296 -0.209328 0
M  V30 606 C 52.7845 0.756564 -3.53495 0
M  V30 607 O 52.5055 -0.36389 -4.36586 0
M  V30 608 C 54.0065 1.43163 -4.19546 0
M  V30 609 H 51.2265 0.0655481 -0.667791 0
M  V30 610 H 53.7705 -0.446592 -1.99564 0
M  V30 611 H 51.9255 1.45794 -3.58919 0
M  V30 612 H 52.3395 -0.0113121 -5.24499 0
M  V30 613 H 53.8135 1.69886 -5.25207 0
M  V30 614 H 54.2905 2.37318 -3.69563 0
M  V30 615 H 54.8965 0.773307 -4.18211 0
M  V30 616 N 53.2116 1.57565 -0.0334293 0
M  V30 617 C 54.6276 1.56297 0.322997 0
M  V30 618 C 54.8276 1.03945 1.7262 0
M  V30 619 O 53.8836 0.688109 2.42943 0
M  V30 620 C 55.1966 3.00232 0.167664 0
M  V30 621 C 56.7446 3.12078 0.240107 0
M  V30 622 C 57.2196 4.57859 0.113513 0
M  V30 623 N 58.7106 4.62887 0.170359 0
M  V30 624 C 59.4456 5.73319 0.0962517 0
M  V30 625 N 58.9416 6.92794 -0.0291881 0
M  V30 626 N 60.7346 5.61898 0.150551 0
M  V30 627 H 52.8856 1.89923 -0.950956 0
M  V30 628 H 55.1486 0.873824 -0.367608 0
M  V30 629 H 54.8546 3.42501 -0.799102 0
M  V30 630 H 54.7286 3.654 0.936083 0
M  V30 631 H 57.1156 2.69718 1.19733 0
M  V30 632 H 57.1966 2.49623 -0.558763 0
M  V30 633 H 56.8406 5.009 -0.840314 0
M  V30 634 H 56.7706 5.18299 0.931302 0
M  V30 635 H 59.2616 3.76954 0.26728 0
M  V30 636 H 59.5746 7.7276 -0.0789252 0
M  V30 637 H 57.9196 6.94971 -0.0640299 0
M  V30 638 H 61.1106 4.67448 0.246981 0
M  V30 639 H 61.2836 6.47938 0.0893365 0
M  V30 640 N 54.6897 -0.239769 1.55765 0
M  V30 641 C 55.9357 -0.963942 1.79108 0
M  V30 642 C 56.2907 -1.82689 0.60352 0
M  V30 643 O 55.5837 -1.87313 -0.403033 0
M  V30 644 C 55.7777 -1.852 3.05672 0
M  V30 645 C 55.6067 -1.07651 4.36625 0
M  V30 646 C 54.3767 -0.778738 4.99263 0
M  V30 647 C 56.5747 -0.45062 5.12322 0
M  V30 648 N 54.5567 0.0200708 6.13897 0
M  V30 649 C 55.9277 0.212429 6.19636 0
M  V30 650 C 57.9827 -0.361806 4.96584 0
M  V30 651 C 56.6857 0.955772 7.12922 0
M  V30 652 C 58.7117 0.368023 5.90254 0
M  V30 653 C 58.0737 1.01968 6.96981 0
M  V30 654 H 54.1727 -0.333601 0.707272 0
M  V30 655 H 56.7567 -0.236425 1.93259 0
M  V30 656 H 54.9277 -2.55149 2.92837 0
M  V30 657 H 56.6597 -2.51228 3.1728 0
M  V30 658 H 53.4147 -1.09229 4.60832 0
M  V30 659 H 53.8387 0.407777 6.75771 0
M  V30 660 H 58.4807 -0.851286 4.14141 0
M  V30 661 H 56.1987 1.45683 7.9486 0
M  V30 662 H 59.7847 0.437504 5.80153 0
M  V30 663 H 58.6647 1.5754 7.68213 0
M  V30 664 N 56.1678 -1.49265 -0.50573 0
M  V30 665 C 57.4078 -1.60128 -1.27038 0
M  V30 666 C 57.7718 -0.279557 -1.89954 0
M  V30 667 O 58.9728 -0.263329 -2.67507 0
M  V30 668 C 57.2438 -2.72507 -2.31246 0
M  V30 669 S 58.8028 -3.0329 -3.17113 0
M  V30 670 H 55.6208 -0.564863 -0.4318 0
M  V30 671 H 58.2228 -1.86902 -0.573397 0
M  V30 672 H 56.9268 -3.67068 -1.83546 0
M  V30 673 H 56.4578 -2.4771 -3.05619 0
M  V30 674 H 58.4728 -2.44448 -4.31809 0
M  V30 675 N 57.6459 0.756429 -1.3826 0
M  V30 676 C 58.8939 1.51248 -1.34047 0
M  V30 677 C 59.2149 1.94875 0.0698372 0
M  V30 678 O 58.4849 1.67436 1.01696 0
M  V30 679 H 57.0649 0.561018 -0.493222 0
M  V30 680 H 59.7269 0.899347 -1.7291 0
M  V30 681 H 58.8229 2.40472 -1.98947 0
M  V30 682 N 59.124 1.23083 0.984299 0
M  V30 683 C 60.535 1.05609 1.5396 0
M  V30 684 C 60.886 -0.377793 1.92528 0
M  V30 685 O 60.011 -1.26398 1.75649 0
M  V30 686 C 60.606 1.91087 2.7977 0
M  V30 687 C 59.165 1.77885 3.31713 0
M  V30 688 C 58.312 1.87028 2.04733 0
M  V30 689 H 61.263 1.36802 0.804419 0
M  V30 690 H 61.284 1.43336 3.5247 0
M  V30 691 H 60.796 2.9544 2.51668 0
M  V30 692 H 58.897 0.762995 3.64704 0
M  V30 693 H 59.01 2.61047 4.01735 0
M  V30 694 H 57.374 1.30565 2.18689 0
M  V30 695 H 58.157 2.92929 1.79017 0
M  V30 696 N 60.6021 -1.18246 1.0419 0
M  V30 697 C 61.8421 -1.89948 0.754916 0
M  V30 698 C 62.2061 -1.78608 -0.70451 0
M  V30 699 O 63.4071 -2.4503 -1.10516 0
M  V30 700 C 61.6781 -3.36305 1.20969 0
M  V30 701 S 63.2371 -4.26088 1.04854 0
M  V30 702 H 60.0551 -0.655897 0.274446 0
M  V30 703 H 62.6571 -1.42873 1.33445 0
M  V30 704 H 61.3611 -3.42089 2.26722 0
M  V30 705 H 60.8921 -3.8842 0.624004 0
M  V30 706 H 62.9071 -4.96189 -0.0332896 0
M  V30 707 N 62.0802 -0.821533 -1.34494 0
M  V30 708 C 63.3292 -0.405355 -1.97585 0
M  V30 709 C 63.6422 1.03677 -1.65863 0
M  V30 710 O 64.8482 1.55679 -2.22433 0
M  V30 711 C 63.3042 -0.673861 -3.53535 0
M  V30 712 C 62.9122 -2.12951 -3.94152 0
M  V30 713 C 64.6562 -0.32378 -4.23263 0
M  V30 714 C 62.5632 -2.34298 -5.43009 0
M  V30 715 H 61.4932 -0.147836 -0.739365 0
M  V30 716 H 64.1442 -1.00769 -1.53355 0
M  V30 717 H 62.5262 -0.00137554 -3.96 0
M  V30 718 H 63.7002 -2.84104 -3.62797 0
M  V30 719 H 62.0152 -2.44089 -3.37356 0
M  V30 720 H 64.6122 -0.461126 -5.32708 0
M  V30 721 H 64.9552 0.731586 -4.09821 0
M  V30 722 H 65.4882 -0.950786 -3.8627 0
M  V30 723 H 62.2272 -3.38335 -5.61435 0
M  V30 724 H 61.7472 -1.67687 -5.75883 0
M  V30 725 H 63.4262 -2.16588 -6.09671 0
M  V30 726 N 63.5583 1.46682 -0.576371 0
M  V30 727 C 64.8053 2.02412 -0.0595339 0
M  V30 728 C 65.1333 1.44859 1.29793 0
M  V30 729 O 64.3883 0.601099 1.8624 0
M  V30 730 C 64.6873 3.57345 0.062886 0
M  V30 731 C 64.3533 4.33908 -1.22616 0
M  V30 732 C 63.0153 4.54544 -1.57933 0
M  V30 733 C 65.3673 4.77919 -2.07948 0
M  V30 734 C 62.6953 5.16444 -2.78393 0
M  V30 735 C 65.0473 5.41149 -3.27629 0
M  V30 736 C 63.7113 5.60014 -3.63236 0
M  V30 737 H 62.9813 0.74068 -0.021785 0
M  V30 738 H 65.6283 1.76128 -0.751735 0
M  V30 739 H 63.9333 3.82729 0.838178 0
M  V30 740 H 65.6303 3.98136 0.478439 0
M  V30 741 H 62.2203 4.18138 -0.941202 0
M  V30 742 H 66.4043 4.61738 -1.81967 0
M  V30 743 H 61.6603 5.29242 -3.06126 0
M  V30 744 H 65.8343 5.74211 -3.94023 0
M  V30 745 H 63.4613 6.07748 -4.56669 0
M  V30 746 N 65.0364 0.313813 1.54444 0
M  V30 747 C 66.2644 -0.293918 2.04802 0
M  V30 748 C 66.6794 -1.46537 1.19047 0
M  V30 749 O 66.0364 -1.81182 0.218939 0
M  V30 750 C 66.0874 -0.737806 3.53891 0
M  V30 751 O 65.8084 0.387038 4.36387 0
M  V30 752 C 67.3094 -1.40936 4.203 0
M  V30 753 H 64.5294 -0.0620057 0.668129 0
M  V30 754 H 67.0734 0.457169 1.99324 0
M  V30 755 H 65.2284 -1.43889 3.59687 0
M  V30 756 H 65.6424 0.0391274 5.24485 0
M  V30 757 H 67.1164 -1.67099 5.26101 0
M  V30 758 H 67.5934 -2.35355 3.70816 0
M  V30 759 H 68.1994 -0.751117 4.18615 0
M  V30 760 N 66.5145 -1.57545 0.0417849 0
M  V30 761 C 67.7615 -1.92317 -0.634082 0
M  V30 762 C 68.0895 -0.919334 -1.71402 0
M  V30 763 O 67.3445 0.0698253 -1.95575 0
M  V30 764 C 67.6435 -3.33794 -1.27735 0
M  V30 765 C 67.3095 -4.49716 -0.326543 0
M  V30 766 C 65.9715 -4.81156 -0.0648814 0
M  V30 767 C 68.3235 -5.20182 0.325623 0
M  V30 768 C 65.6515 -5.80414 0.856539 0
M  V30 769 C 68.0035 -6.20424 1.23518 0
M  V30 770 C 66.6675 -6.50298 1.5056 0
M  V30 771 H 65.9375 -0.703736 -0.232027 0
M  V30 772 H 68.5845 -1.91205 0.106259 0
M  V30 773 H 66.8895 -3.31228 -2.09274 0
M  V30 774 H 68.5865 -3.57975 -1.80707 0
M  V30 775 H 65.1765 -4.25176 -0.540665 0
M  V30 776 H 69.3605 -4.96112 0.136546 0
M  V30 777 H 64.6165 -6.019 1.07363 0
M  V30 778 H 68.7905 -6.74141 1.74664 0
M  V30 779 H 66.4175 -7.27025 2.22123 0
M  V30 780 N 67.9926 0.231505 -1.5589 0
M  V30 781 C 68.9026 1.308 -1.94752 0
M  V30 782 C 69.9186 1.51826 -0.849989 0
M  V30 783 O 71.0946 1.6515 -1.15271 0
M  V30 784 C 68.1596 2.63968 -2.24771 0
M  V30 785 C 67.2206 2.51331 -3.48039 0
M  V30 786 C 66.4536 3.78148 -3.76616 0
M  V30 787 O 66.6766 4.80722 -3.07022 0
M  V30 788 O 65.6106 3.75857 -4.70123 0
M  V30 789 H 69.4366 1.0083 -2.86474 0
M  V30 790 H 67.0216 0.433547 -1.42971 0
M  V30 791 H 68.9036 3.42633 -2.45318 0
M  V30 792 H 67.5786 2.9364 -1.36225 0
M  V30 793 H 66.4856 1.709 -3.32782 0
M  V30 794 H 67.8186 2.26601 -4.36936 0
M  V30 795 N 69.4707 1.49531 0.497807 0
M  V30 796 C 70.4037 1.61043 1.6168 0
M  V30 797 C 71.3817 0.459386 1.55976 0
M  V30 798 O 72.5657 0.675358 1.75986 0
M  V30 799 C 69.6927 1.56833 3.00202 0
M  V30 800 C 68.7387 2.77173 3.24156 0
M  V30 801 S 69.5717 4.38808 3.06933 0
M  V30 802 C 70.7277 4.37248 4.47845 0
M  V30 803 H 70.9607 2.55702 1.51671 0
M  V30 804 H 68.4937 1.38462 0.683201 0
M  V30 805 H 70.4517 1.55089 3.80076 0
M  V30 806 H 69.1127 0.634561 3.07623 0
M  V30 807 H 68.3057 2.70456 4.25288 0
M  V30 808 H 67.9077 2.76346 2.5201 0
M  V30 809 H 70.1997 4.09164 5.39992 0
M  V30 810 H 71.1427 5.38668 4.59612 0
M  V30 811 H 71.5507 3.67286 4.28674 0
M  V30 812 N 70.9488 -0.749086 1.3866 0
M  V30 813 C 72.1978 -1.50371 1.3443 0
M  V30 814 C 72.5108 -1.95503 -0.0616397 0
M  V30 815 O 73.7168 -2.70554 -0.226489 0
M  V30 816 C 72.1728 -2.71644 2.36088 0
M  V30 817 C 71.7808 -2.3352 3.82325 0
M  V30 818 C 73.5248 -3.49518 2.40909 0
M  V30 819 C 71.4318 -3.51431 4.75658 0
M  V30 820 H 70.3618 -0.564628 0.499712 0
M  V30 821 H 73.0128 -0.818449 1.64237 0
M  V30 822 H 71.3948 -3.42175 1.9933 0
M  V30 823 H 72.5688 -1.70627 4.28046 0
M  V30 824 H 70.8838 -1.6877 3.80665 0
M  V30 825 H 73.4808 -4.37197 3.07836 0
M  V30 826 H 73.8238 -3.90992 1.42937 0
M  V30 827 H 74.3568 -2.86005 2.76489 0
M  V30 828 H 71.0958 -3.15019 5.74842 0
M  V30 829 H 70.6158 -4.13352 4.34627 0
M  V30 830 H 72.2948 -4.17953 4.93887 0
M  V30 831 N 72.4269 -1.23603 -0.977757 0
M  V30 832 C 73.3749 -1.01704 -2.09187 0
M  V30 833 C 74.3689 0.0448214 -1.69341 0
M  V30 834 O 75.5749 -0.108902 -1.7967 0
M  V30 835 H 71.9499 -0.311803 -0.684312 0
M  V30 836 H 73.9209 -1.96207 -2.24823 0
M  V30 837 C 72.6699 -0.627746 -3.41986 0
M  V30 838 H 71.9929 -1.43656 -3.73099 0
M  V30 839 H 73.4329 -0.514053 -4.20872 0
M  V30 840 C 71.8919 0.664238 -3.30287 0
M  V30 841 O 72.4219 1.71268 -3.6336 0
M  V30 842 N 70.6279 0.641156 -2.83439 0
M  V30 843 H 70.1749 -0.212376 -2.56723 0
M  V30 844 H 70.1329 1.50583 -2.75993 0
M  V30 845 N 73.905 1.17692 -1.04816 0
M  V30 846 C 74.852 2.21581 -0.645797 0
M  V30 847 C 75.822 1.62367 0.350159 0
M  V30 848 O 77.007 1.89254 0.242433 0
M  V30 849 C 74.147 3.45092 -0.0227568 0
M  V30 850 C 73.26 4.18613 -1.06709 0
M  V30 851 C 72.395 5.29602 -0.411767 0
M  V30 852 C 71.434 5.94904 -1.44067 0
M  V30 853 N 70.571 6.97414 -0.809781 0
M  V30 854 H 75.411 2.55353 -1.5362 0
M  V30 855 H 72.948 1.25438 -0.768364 0
M  V30 856 H 74.906 4.15679 0.35588 0
M  V30 857 H 73.536 3.11917 0.831122 0
M  V30 858 H 72.588 3.46779 -1.5636 0
M  V30 859 H 73.9 4.63293 -1.84827 0
M  V30 860 H 73.054 6.06696 0.0206623 0
M  V30 861 H 71.793 4.86045 0.401438 0
M  V30 862 H 70.798 5.16544 -1.88316 0
M  V30 863 H 72.023 6.40542 -2.25571 0
M  V30 864 H 69.969 6.55998 -0.0170186 0
M  V30 865 H 69.886 7.40386 -1.52856 0
M  V30 866 H 71.154 7.78463 -0.401999 0
M  V30 867 N 75.3831 0.828654 1.34056 0
M  V30 868 C 76.6321 0.415828 1.97367 0
M  V30 869 C 76.9451 -1.02796 1.6641 0
M  V30 870 O 78.1511 -1.54497 2.23255 0
M  V30 871 C 76.6071 0.692601 3.53173 0
M  V30 872 C 76.2151 2.15038 3.93017 0
M  V30 873 C 77.9591 0.346222 4.23086 0
M  V30 874 C 75.8661 2.37174 5.41758 0
M  V30 875 H 74.7961 0.151755 0.738571 0
M  V30 876 H 77.4471 1.01581 1.52819 0
M  V30 877 H 75.8291 0.0223764 3.95994 0
M  V30 878 H 77.0031 2.86024 3.61285 0
M  V30 879 H 75.3181 2.45875 3.36057 0
M  V30 880 H 77.9151 0.48937 5.32456 0
M  V30 881 H 78.2581 -0.709842 4.10204 0
M  V30 882 H 78.7911 0.971258 3.85761 0
M  V30 883 H 75.5301 3.41308 5.59633 0
M  V30 884 H 75.0501 1.70738 5.74986 0
M  V30 885 H 76.7291 2.19818 6.08514 0
M  V30 886 N 76.8612 -1.46375 0.584142 0
M  V30 887 C 78.0912 -2.06461 0.0758195 0
M  V30 888 C 78.4992 -1.43322 -1.23512 0
M  V30 889 O 77.8422 -0.533216 -1.75791 0
M  V30 890 C 77.9042 -3.59131 -0.162773 0
M  V30 891 C 77.5682 -4.4447 1.06279 0
M  V30 892 C 78.5652 -4.80918 1.97519 0
M  V30 893 C 76.2502 -4.85584 1.28504 0
M  V30 894 C 78.2442 -5.57309 3.09331 0
M  V30 895 C 75.9312 -5.61734 2.4062 0
M  V30 896 C 76.9292 -5.9751 3.30863 0
M  V30 897 O 76.6172 -6.72121 4.41032 0
M  V30 898 H 76.3492 -0.673745 0.0551725 0
M  V30 899 H 78.9032 -1.88969 0.804984 0
M  V30 900 H 77.1332 -3.74936 -0.946565 0
M  V30 901 H 78.8222 -4.0114 -0.619782 0
M  V30 902 H 79.5882 -4.49732 1.81565 0
M  V30 903 H 75.4672 -4.57187 0.591702 0
M  V30 904 H 79.0112 -5.85152 3.79793 0
M  V30 905 H 74.9082 -5.92334 2.56537 0
M  V30 906 H 75.6762 -6.90547 4.39417 0
M  V30 907 N 78.3393 -0.321999 -1.54275 0
M  V30 908 C 79.2863 0.544664 -2.24281 0
M  V30 909 C 80.2563 1.1129 -1.23303 0
M  V30 910 O 81.4413 1.15354 -1.51981 0
M  V30 911 C 78.5813 1.70045 -3.00298 0
M  V30 912 C 77.6943 1.16159 -4.1609 0
M  V30 913 C 76.8293 2.28293 -4.79641 0
M  V30 914 C 75.8683 1.71648 -5.8754 0
M  V30 915 N 75.0053 2.77438 -6.44959 0
M  V30 916 H 79.8453 -0.0588907 -2.97942 0
M  V30 917 H 77.3823 -0.0408345 -1.47043 0
M  V30 918 H 79.3403 2.38054 -3.42616 0
M  V30 919 H 77.9703 2.27531 -2.28975 0
M  V30 920 H 77.0223 0.373092 -3.78566 0
M  V30 921 H 78.3343 0.707087 -4.93763 0
M  V30 922 H 77.4883 3.0421 -5.2492 0
M  V30 923 H 76.2273 2.77079 -4.01346 0
M  V30 924 H 75.2323 0.942282 -5.41665 0
M  V30 925 H 76.4573 1.23741 -6.67731 0
M  V30 926 H 74.4033 3.25519 -5.69538 0
M  V30 927 H 74.3203 2.36547 -7.1804 0
M  V30 928 H 75.5883 3.53189 -6.94894 0
M  V30 929 N 79.8174 1.5752 -0.0501392 0
M  V30 930 C 80.7654 2.12651 0.942459 0
M  V30 931 C 81.7594 1.05807 1.32292 0
M  V30 932 O 82.9654 1.24217 1.3027 0
M  V30 933 H 79.3404 0.679673 0.321789 0
M  V30 934 H 81.3114 2.94951 0.452356 0
M  V30 935 C 80.0604 2.68565 2.20836 0
M  V30 936 H 79.3834 3.50439 1.92439 0
M  V30 937 H 80.8234 3.10761 2.8845 0
M  V30 938 C 79.2824 1.62291 2.95234 0
M  V30 939 O 79.8124 1.03508 3.88135 0
M  V30 940 N 78.0184 1.33836 2.57946 0
M  V30 941 H 77.5654 1.81826 1.82475 0
M  V30 942 H 77.5234 0.629595 3.08032 0
M  V30 943 N 81.2955 -0.223234 1.56011 0
M  V30 944 C 82.2435 -1.29627 1.93131 0
M  V30 945 C 83.2375 -1.48608 0.813146 0
M  V30 946 O 84.4435 -1.49802 0.997966 0
M  V30 947 H 80.8185 -0.434563 0.613726 0
M  V30 948 H 82.7895 -0.955995 2.82672 0
M  V30 949 C 81.5385 -2.63983 2.26292 0
M  V30 950 H 80.8615 -2.50185 3.11846 0
M  V30 951 H 82.3015 -3.3788 2.56151 0
M  V30 952 C 80.7605 -3.18866 1.08747 0
M  V30 953 O 81.2905 -4.00192 0.347727 0
M  V30 954 N 79.4965 -2.77217 0.871743 0
M  V30 955 H 79.0435 -2.1119 1.47501 0
M  V30 956 H 79.0015 -3.1428 0.0869905 0
M  V30 957 N 82.7736 -1.49793 -0.48987 0
M  V30 958 C 83.7036 -1.70201 -1.59856 0
M  V30 959 C 84.6846 -0.55076 -1.60937 0
M  V30 960 O 85.8696 -0.787841 -1.77501 0
M  V30 961 C 82.9996 -1.77882 -2.98287 0
M  V30 962 C 81.9536 -2.92907 -3.12073 0
M  V30 963 C 81.2796 -2.85712 -4.51965 0
M  V30 964 C 82.5796 -4.3369 -2.91051 0
M  V30 965 H 84.2736 -2.63025 -1.43032 0
M  V30 966 H 81.8196 -1.26574 -0.686664 0
M  V30 967 H 83.7726 -1.90744 -3.75759 0
M  V30 968 H 82.4966 -0.816653 -3.16225 0
M  V30 969 H 81.1556 -2.79665 -2.37029 0
M  V30 970 H 80.8036 -1.8738 -4.66795 0
M  V30 971 H 80.5036 -3.62921 -4.62128 0
M  V30 972 H 82.0276 -3.00598 -5.31482 0
M  V30 973 H 83.4416 -4.47555 -3.58284 0
M  V30 974 H 81.8386 -5.12205 -3.12675 0
M  V30 975 H 82.9086 -4.47362 -1.87071 0
M  V30 976 N 84.2517 0.741722 -1.39055 0
M  V30 977 C 85.5007 1.49656 -1.35225 0
M  V30 978 C 85.8137 1.95533 0.0512708 0
M  V30 979 O 87.0197 2.7067 0.212138 0
M  V30 980 C 85.4757 2.70389 -2.37525 0
M  V30 981 C 85.0837 2.31489 -3.83558 0
M  V30 982 C 86.8277 3.48236 -2.42759 0
M  V30 983 C 84.7347 3.48903 -4.77515 0
M  V30 984 H 83.6647 0.56197 -0.502699 0
M  V30 985 H 86.3157 0.809727 -1.64668 0
M  V30 986 H 84.6977 3.41113 -2.01142 0
M  V30 987 H 85.8717 1.68354 -4.28945 0
M  V30 988 H 84.1867 1.66749 -3.81554 0
M  V30 989 H 86.7837 4.35558 -3.1015 0
M  V30 990 H 87.1267 3.90229 -1.45008 0
M  V30 991 H 87.6597 2.84535 -2.78002 0
M  V30 992 H 84.3987 3.11966 -5.76504 0
M  V30 993 H 83.9187 4.11041 -4.36813 0
M  V30 994 H 85.5977 4.15328 -4.96096 0
M  V30 995 N 85.7298 1.2412 0.971189 0
M  V30 996 C 86.9768 1.07881 1.71371 0
M  V30 997 C 87.3048 -0.382901 1.90694 0
M  V30 998 O 86.5598 -1.29945 1.46331 0
M  V30 999 C 86.8588 1.75983 3.11071 0
M  V30 1000 C 86.5248 3.25909 3.11599 0
M  V30 1001 C 85.1868 3.66813 3.11451 0
M  V30 1002 C 87.5388 4.21771 3.062 0
M  V30 1003 C 84.8668 5.02021 3.03631 0
M  V30 1004 C 87.2188 5.56982 2.99923 0
M  V30 1005 C 85.8828 5.97237 2.98102 0
M  V30 1006 H 85.1528 0.394764 0.62709 0
M  V30 1007 H 87.7998 1.54176 1.13587 0
M  V30 1008 H 86.1048 1.22072 3.72298 0
M  V30 1009 H 87.8018 1.60887 3.6731 0
M  V30 1010 H 84.3918 2.93353 3.12477 0
M  V30 1011 H 88.5758 3.91172 3.05447 0
M  V30 1012 H 83.8318 5.32411 3.0058 0
M  V30 1013 H 88.0058 6.30969 2.94704 0
M  V30 1014 H 85.6328 7.01967 2.91798 0
M  V30 1015 N 87.2079 -1.17134 1.05439 0
M  V30 1016 C 88.4329 -1.91913 0.786396 0
M  V30 1017 C 88.8579 -1.7643 -0.652234 0
M  V30 1018 O 88.2159 -1.08372 -1.45345 0
M  V30 1019 C 88.2639 -3.40921 1.17497 0
M  V30 1020 O 87.3679 -4.11244 0.308589 0
M  V30 1021 H 86.7089 -0.598215 0.288158 0
M  V30 1022 H 89.2389 -1.48457 1.4079 0
M  V30 1023 H 89.2489 -3.91668 1.14281 0
M  V30 1024 H 87.9239 -3.5151 2.22292 0
M  V30 1025 H 86.5009 -3.70731 0.40157 0
M  V30 1026 N 88.686 -0.835752 -1.33615 0
M  V30 1027 C 89.596 -0.269088 -2.33052 0
M  V30 1028 C 90.612 0.603251 -1.63208 0
M  V30 1029 O 91.788 0.508112 -1.94885 0
M  V30 1030 C 88.853 0.549091 -3.42324 0
M  V30 1031 C 87.914 -0.347156 -4.27894 0
M  V30 1032 C 87.147 0.43207 -5.31948 0
M  V30 1033 O 87.37 1.66409 -5.45586 0
M  V30 1034 O 86.304 -0.192298 -6.01593 0
M  V30 1035 H 90.13 -1.09243 -2.83372 0
M  V30 1036 H 87.715 -0.598198 -1.36901 0
M  V30 1037 H 89.597 1.01414 -4.09015 0
M  V30 1038 H 88.272 1.34955 -2.94226 0
M  V30 1039 H 87.179 -0.859979 -3.64081 0
M  V30 1040 H 88.512 -1.1123 -4.79467 0
M  V30 1041 N 90.1641 1.46063 -0.591896 0
M  V30 1042 C 91.1121 2.32124 0.148739 0
M  V30 1043 C 92.1061 1.45035 0.875286 0
M  V30 1044 O 93.3121 1.61609 0.792632 0
M  V30 1045 H 89.6871 0.749024 0.066832 0
M  V30 1046 H 91.6581 2.92392 -0.595783 0
M  V30 1047 C 90.4071 3.28373 1.1431 0
M  V30 1048 H 89.7301 3.95371 0.59346 0
M  V30 1049 H 91.1701 3.91352 1.63155 0
M  V30 1050 C 89.6291 2.54393 2.20875 0
M  V30 1051 O 90.1591 2.31373 3.28374 0
M  V30 1052 N 88.3651 2.14797 1.95731 0
M  V30 1053 H 87.9121 2.33719 1.08319 0
M  V30 1054 H 87.8701 1.65619 2.67241 0
M  V30 1055 N 91.6422 0.330177 1.54103 0
M  V30 1056 C 92.8882 -0.270806 2.00984 0
M  V30 1057 C 93.2212 -1.51265 1.21789 0
M  V30 1058 O 92.4962 -1.92142 0.301927 0
M  V30 1059 C 92.7792 -0.598339 3.55094 0
M  V30 1060 C 92.6322 0.654674 4.4501 0
M  V30 1061 C 93.9512 -1.41334 4.16789 0
M  V30 1062 H 91.0702 -0.0969531 0.730595 0
M  V30 1063 H 93.7122 0.448066 1.84641 0
M  V30 1064 H 91.8622 -1.21078 3.69151 0
M  V30 1065 H 93.5342 1.29285 4.42813 0
M  V30 1066 H 91.7772 1.28224 4.14416 0
M  V30 1067 H 92.4482 0.380944 5.50684 0
M  V30 1068 H 94.9242 -0.895597 4.06347 0
M  V30 1069 H 93.8002 -1.61127 5.24718 0
M  V30 1070 H 94.0612 -2.41146 3.70541 0
M  V30 1071 N 93.1203 -1.57491 0.0584922 0
M  V30 1072 C 94.0673 -2.11958 -0.913376 0
M  V30 1073 C 95.0373 -1.02875 -1.30407 0
M  V30 1074 O 96.2223 -1.30464 -1.39226 0
M  V30 1075 C 93.3623 -2.67497 -2.18035 0
M  V30 1076 C 92.4753 -3.90691 -1.84349 0
M  V30 1077 C 91.6103 -4.3452 -3.05559 0
M  V30 1078 C 90.6493 -5.50395 -2.67827 0
M  V30 1079 N 89.7863 -5.89244 -3.81754 0
M  V30 1080 H 94.6263 -2.94704 -0.442017 0
M  V30 1081 H 92.1633 -1.45643 -0.206545 0
M  V30 1082 H 94.1213 -2.978 -2.92183 0
M  V30 1083 H 92.7513 -1.87537 -2.62735 0
M  V30 1084 H 91.8033 -3.66934 -1.00319 0
M  V30 1085 H 93.1153 -4.7489 -1.5258 0
M  V30 1086 H 92.2693 -4.66414 -3.87998 0
M  V30 1087 H 91.0083 -3.49147 -3.40511 0
M  V30 1088 H 90.0133 -5.18165 -1.83806 0
M  V30 1089 H 91.2383 -6.3749 -2.34059 0
M  V30 1090 H 89.1843 -5.06823 -4.16493 0
M  V30 1091 H 89.1013 -6.68151 -3.53708 0
M  V30 1092 H 90.3693 -6.25756 -4.64811 0
M  V30 1093 N 94.5984 0.214957 -1.56127 0
M  V30 1094 C 95.5284 1.2695 -1.95974 0
M  V30 1095 C 96.5094 1.48539 -0.828868 0
M  V30 1096 O 97.6944 1.60611 -1.09168 0
M  V30 1097 C 94.8244 2.61794 -2.28214 0
M  V30 1098 C 93.7784 2.54851 -3.43853 0
M  V30 1099 C 93.1044 3.93785 -3.61715 0
M  V30 1100 C 94.4044 2.09065 -4.78632 0
M  V30 1101 H 96.0984 0.93846 -2.84312 0
M  V30 1102 H 93.6444 0.449996 -1.36788 0
M  V30 1103 H 95.5974 3.35731 -2.54682 0
M  V30 1104 H 94.3214 2.96599 -1.36736 0
M  V30 1105 H 92.9804 1.8337 -3.17444 0
M  V30 1106 H 92.6284 4.25908 -2.67602 0
M  V30 1107 H 92.3284 3.90019 -4.39498 0
M  V30 1108 H 93.8524 4.69374 -3.90539 0
M  V30 1109 H 95.2664 2.7275 -5.04262 0
M  V30 1110 H 93.6634 2.16346 -5.59745 0
M  V30 1111 H 94.7334 1.04315 -4.73547 0
M  V30 1112 N 96.0765 1.50051 0.48192 0
M  V30 1113 C 97.3235 1.60498 1.23477 0
M  V30 1114 C 97.6515 0.300331 1.92167 0
M  V30 1115 O 96.9065 -0.713094 1.82246 0
M  V30 1116 C 97.2055 2.72717 2.30998 0
M  V30 1117 C 96.8715 4.13572 1.79636 0
M  V30 1118 C 95.5335 4.519 1.65348 0
M  V30 1119 C 97.8855 5.01649 1.41412 0
M  V30 1120 C 95.2135 5.76057 1.11244 0
M  V30 1121 C 97.5655 6.26343 0.887538 0
M  V30 1122 C 96.2295 6.63483 0.731207 0
M  V30 1123 H 95.4995 0.587303 0.451836 0
M  V30 1124 H 98.1465 1.83948 0.532468 0
M  V30 1125 H 96.4515 2.43312 3.07094 0
M  V30 1126 H 98.1485 2.78006 2.88988 0
M  V30 1127 H 94.7385 3.83329 1.91721 0
M  V30 1128 H 98.9225 4.72679 1.51289 0
M  V30 1129 H 94.1785 6.03516 0.978686 0
M  V30 1130 H 98.3525 6.93958 0.582654 0
M  V30 1131 H 95.9795 7.59568 0.309806 0
M  V30 1132 N 97.5546 -0.734337 1.39446 0
M  V30 1133 C 98.7796 -1.52866 1.40167 0
M  V30 1134 C 99.2046 -1.881 -0.00171513 0
M  V30 1135 O 98.5626 -1.51957 -0.988879 0
M  V30 1136 C 98.6106 -2.79235 2.28167 0
M  V30 1137 O 97.7146 -3.75185 1.71201 0
M  V30 1138 H 97.0556 -0.461618 0.477289 0
M  V30 1139 H 99.5856 -0.905949 1.8345 0
M  V30 1140 H 99.5956 -3.27963 2.42702 0
M  V30 1141 H 98.2706 -2.52923 3.30156 0
M  V30 1142 H 96.8476 -3.33958 1.65912 0
M  V30 1143 N 99.0327 -1.24633 -0.964593 0
M  V30 1144 C 100.282 -1.08188 -1.7023 0
M  V30 1145 C 100.595 0.37873 -1.91898 0
M  V30 1146 O 101.801 0.663427 -2.6327 0
M  V30 1147 C 100.257 -1.88773 -3.06419 0
M  V30 1148 C 99.8647 -3.39263 -2.92582 0
M  V30 1149 C 101.609 -1.80867 -3.84041 0
M  V30 1150 C 99.5157 -4.1218 -4.24101 0
M  V30 1151 H 98.4457 -0.401245 -0.638372 0
M  V30 1152 H 101.097 -1.48742 -1.07462 0
M  V30 1153 H 99.4787 -1.41035 -3.70034 0
M  V30 1154 H 100.653 -3.94603 -2.37961 0
M  V30 1155 H 98.9677 -3.48154 -2.28424 0
M  V30 1156 H 101.565 -2.32646 -4.81435 0
M  V30 1157 H 101.908 -0.774543 -4.09031 0
M  V30 1158 H 102.441 -2.26301 -3.27159 0
M  V30 1159 H 99.1797 -5.15965 -4.04303 0
M  V30 1160 H 98.6997 -3.61626 -4.78526 0
M  V30 1161 H 100.379 -4.19349 -4.92702 0
M  V30 1162 N 100.511 1.16574 -1.06058 0
M  V30 1163 C 101.751 1.88723 -0.78504 0
M  V30 1164 C 102.115 1.79706 0.676006 0
M  V30 1165 O 103.316 2.46757 1.06603 0
M  V30 1166 C 101.587 3.34338 -1.26304 0
M  V30 1167 S 103.146 4.24366 -1.1162 0
M  V30 1168 H 99.9638 0.651448 -0.284846 0
M  V30 1169 H 102.566 1.40732 -1.35701 0
M  V30 1170 H 101.27 3.38439 -2.32136 0
M  V30 1171 H 100.801 3.87378 -0.685719 0
M  V30 1172 H 102.816 4.96179 -0.0456539 0
M  V30 1173 N 101.989 0.842826 1.3317 0
M  V30 1174 C 102.952 0.284065 2.27433 0
M  V30 1175 C 103.952 -0.54948 1.5112 0
M  V30 1176 O 105.142 -0.362699 1.70382 0
M  V30 1177 C 102.274 -0.599384 3.35589 0
M  V30 1178 H 103.467 1.11589 2.78366 0
M  V30 1179 H 101.02 0.616221 1.4364 0
M  V30 1180 H 101.755 -1.45349 2.89904 0
M  V30 1181 H 101.54 -0.00291266 3.921 0
M  V30 1182 H 103.03 -0.983488 4.05854 0
M  V30 1183 N 103.467 -1.45747 0.599634 0
M  V30 1184 C 104.399 -2.28628 -0.161879 0
M  V30 1185 C 105.412 -1.39494 -0.839367 0
M  V30 1186 O 106.601 -1.63941 -0.706089 0
M  V30 1187 C 103.701 -3.15014 -1.24976 0
M  V30 1188 C 102.874 -4.32378 -0.660935 0
M  V30 1189 C 101.933 -5.00033 -1.63869 0
M  V30 1190 O 100.959 -5.57085 -1.1681 0
M  V30 1191 N 102.161 -4.98589 -2.97303 0
M  V30 1192 H 104.926 -2.94624 0.549265 0
M  V30 1193 H 102.487 -1.55847 0.438565 0
M  V30 1194 H 104.479 -3.5714 -1.9035 0
M  V30 1195 H 103.049 -2.5098 -1.86354 0
M  V30 1196 H 102.269 -3.9383 0.170688 0
M  V30 1197 H 103.557 -5.08197 -0.247619 0
M  V30 1198 H 102.955 -4.53514 -3.38145 0
M  V30 1199 H 101.512 -5.44603 -3.58121 0
M  V30 1200 N 104.945 -0.338344 -1.53925 0
M  V30 1201 C 106.173 0.261298 -2.05243 0
M  V30 1202 C 106.588 1.44625 -1.21363 0
M  V30 1203 O 105.945 1.80811 -0.247736 0
M  V30 1204 C 105.996 0.681412 -3.5502 0
M  V30 1205 O 105.717 -0.456414 -4.35716 0
M  V30 1206 C 107.218 1.34232 -4.22489 0
M  V30 1207 H 104.438 0.0513685 -0.669031 0
M  V30 1208 H 106.982 -0.488822 -1.98572 0
M  V30 1209 H 105.137 1.38148 -3.61931 0
M  V30 1210 H 105.551 -0.122564 -5.24357 0
M  V30 1211 H 107.025 1.58708 -5.28693 0
M  V30 1212 H 107.502 2.29426 -3.74514 0
M  V30 1213 H 108.108 0.684424 -4.19757 0
M  V30 1214 N 106.423 1.57458 -0.0668435 0
M  V30 1215 C 107.669 1.93587 0.6043 0
M  V30 1216 C 108.002 0.946722 1.69561 0
M  V30 1217 O 107.277 -0.0248516 1.94484 0
M  V30 1218 C 107.56 3.40014 1.18585 0
M  V30 1219 C 107.413 4.49685 0.101529 0
M  V30 1220 C 108.732 3.87154 2.09284 0
M  V30 1221 H 105.851 0.703958 0.218202 0
M  V30 1222 H 108.493 1.89542 -0.131804 0
M  V30 1223 H 106.643 3.43592 1.81319 0
M  V30 1224 H 108.315 4.5823 -0.531279 0
M  V30 1225 H 106.558 4.30059 -0.568487 0
M  V30 1226 H 107.229 5.49266 0.54874 0
M  V30 1227 H 109.705 3.85551 1.56491 0
M  V30 1228 H 108.581 4.90231 2.46911 0
M  V30 1229 H 108.842 3.2481 2.99918 0
M  V30 1230 N 107.901 -0.206675 1.56239 0
M  V30 1231 C 109.126 -0.949474 1.8439 0
M  V30 1232 C 109.551 -1.76549 0.649016 0
M  V30 1233 O 108.909 -1.76782 -0.402231 0
M  V30 1234 C 108.957 -1.83078 3.10668 0
M  V30 1235 O 108.061 -2.9281 2.90407 0
M  V30 1236 H 107.402 -0.268033 0.607499 0
M  V30 1237 H 109.932 -0.215488 2.03462 0
M  V30 1238 H 109.942 -2.2377 3.41161 0
M  V30 1239 H 108.617 -1.23112 3.97261 0
M  V30 1240 H 107.194 -2.55956 2.71184 0
M  V30 1241 N 109.379 -1.50304 -0.473955 0
M  V30 1242 C 110.604 -1.65175 -1.25427 0
M  V30 1243 C 111.029 -0.333673 -1.85117 0
M  V30 1244 O 110.387 0.702114 -1.67153 0
M  V30 1245 C 110.435 -2.74295 -2.34082 0
M  V30 1246 O 109.539 -2.35349 -3.38651 0
M  V30 1247 H 108.88 -0.551944 -0.369126 0
M  V30 1248 H 111.41 -1.96662 -0.564364 0
M  V30 1249 H 111.42 -2.97285 -2.79438 0
M  V30 1250 H 110.095 -3.69959 -1.90008 0
M  V30 1251 H 108.672 -2.22794 -2.99027 0
M  V30 1252 N 110.857 0.726932 -1.39834 0
M  V30 1253 C 111.787 1.85405 -1.41941 0
M  V30 1254 C 112.768 1.67751 -0.281728 0
M  V30 1255 O 113.953 1.8795 -0.488717 0
M  V30 1256 C 111.083 3.23243 -1.2701 0
M  V30 1257 C 110.037 3.55549 -2.38262 0
M  V30 1258 C 109.363 4.9241 -2.08415 0
M  V30 1259 C 110.663 3.577 -3.80589 0
M  V30 1260 H 112.357 1.83899 -2.36266 0
M  V30 1261 H 109.903 0.883349 -1.13723 0
M  V30 1262 H 111.856 4.01775 -1.27103 0
M  V30 1263 H 110.58 3.25296 -0.291564 0
M  V30 1264 H 109.239 2.79351 -2.37399 0
M  V30 1265 H 108.887 4.91052 -1.0898 0
M  V30 1266 H 108.587 5.14992 -2.82943 0
M  V30 1267 H 110.111 5.73289 -2.10171 0
M  V30 1268 H 111.525 4.26293 -3.83337 0
M  V30 1269 H 109.922 3.91804 -4.54543 0
M  V30 1270 H 110.992 2.57328 -4.10987 0
M  V30 1271 N 112.336 1.25143 0.95797 0
M  V30 1272 C 113.283 1.05235 2.05412 0
M  V30 1273 C 114.253 -0.0374561 1.66058 0
M  V30 1274 O 115.438 0.119073 1.90428 0
M  V30 1275 C 112.578 0.673589 3.38462 0
M  V30 1276 C 111.691 1.8379 3.90954 0
M  V30 1277 C 110.826 1.40381 5.12315 0
M  V30 1278 C 109.865 2.53746 5.57027 0
M  V30 1279 N 109.002 2.11136 6.69601 0
M  V30 1280 H 113.842 1.99048 2.21774 0
M  V30 1281 H 111.379 0.991277 1.08683 0
M  V30 1282 H 113.337 0.434964 4.14926 0
M  V30 1283 H 111.967 -0.227554 3.21997 0
M  V30 1284 H 111.019 2.18992 3.11041 0
M  V30 1285 H 112.331 2.68937 4.20089 0
M  V30 1286 H 111.485 1.12464 5.96185 0
M  V30 1287 H 110.224 0.523015 4.84887 0
M  V30 1288 H 109.229 2.82412 4.71724 0
M  V30 1289 H 110.454 3.42398 5.86464 0
M  V30 1290 H 108.4 1.25468 6.4389 0
M  V30 1291 H 108.317 2.89832 6.98236 0
M  V30 1292 H 109.585 1.86385 7.56889 0
M  V30 1293 N 113.814 -1.1601 1.06675 0
M  V30 1294 C 114.762 -2.22586 0.675157 0
M  V30 1295 C 115.756 -1.66525 -0.310766 0
M  V30 1296 O 116.962 -1.79145 -0.175215 0
M  V30 1297 H 113.337 -0.724855 0.200223 0
M  V30 1298 H 115.308 -2.52899 1.58381 0
M  V30 1299 C 114.057 -3.47604 0.0817162 0
M  V30 1300 H 113.38 -3.91058 0.831484 0
M  V30 1301 H 114.82 -4.23718 -0.154708 0
M  V30 1302 C 113.279 -3.15718 -1.17576 0
M  V30 1303 O 113.809 -3.31878 -2.26318 0
M  V30 1304 N 112.015 -2.69816 -1.07923 0
M  V30 1305 H 111.562 -2.56866 -0.194293 0
M  V30 1306 H 111.52 -2.48855 -1.92141 0
M  V30 1307 N 115.292 -0.849877 -1.32721 0
M  V30 1308 C 116.522 -0.46408 -2.0132 0
M  V30 1309 C 116.93 0.94246 -1.64056 0
M  V30 1310 O 116.273 1.6257 -0.855379 0
M  V30 1311 C 116.335 -0.517887 -3.5575 0
M  V30 1312 C 115.999 -1.88248 -4.16427 0
M  V30 1313 C 116.996 -2.84726 -4.35002 0
M  V30 1314 C 114.681 -2.17832 -4.52609 0
M  V30 1315 C 116.675 -4.08945 -4.8892 0
M  V30 1316 C 114.362 -3.42304 -5.06232 0
M  V30 1317 C 115.36 -4.37677 -5.24335 0
M  V30 1318 O 115.048 -5.59946 -5.76815 0
M  V30 1319 H 114.78 -0.181327 -0.651227 0
M  V30 1320 H 117.334 -1.14713 -1.70382 0
M  V30 1321 H 115.564 0.221997 -3.86062 0
M  V30 1322 H 117.253 -0.148366 -4.05629 0
M  V30 1323 H 118.019 -2.63174 -4.07388 0
M  V30 1324 H 113.898 -1.44385 -4.37806 0
M  V30 1325 H 117.442 -4.83396 -5.02966 0
M  V30 1326 H 113.339 -3.63709 -5.33278 0
M  V30 1327 H 114.107 -5.61838 -5.95214 0
M  V30 1328 N 116.77 1.45427 -0.607355 0
M  V30 1329 C 118.047 1.9557 -0.0344566 0
M  V30 1330 C 118.427 1.54979 1.43334 0
M  V30 1331 O 117.775 0.812241 2.13576 0
M  V30 1332 C 117.985 3.48226 -0.232321 0
M  V30 1333 C 119.333 4.2445 -0.113001 0
M  V30 1334 O 120.357 3.55829 -0.162431 0
M  V30 1335 O 119.216 5.465 0.00209442 0
M  V30 1336 H 116.31 0.826222 0.0358667 0
M  V30 1337 H 118.856 1.55594 -0.6774 0
M  V30 1338 H 117.628 3.70739 -1.25174 0
M  V30 1339 H 117.251 3.95092 0.445896 0
M  V30 1340 N 118.248 0.346503 1.53744 0
M  V30 1341 C 119.196 -0.52422 2.26616 0
M  V30 1342 C 120.19 -1.09948 1.28871 0
M  V30 1343 O 121.396 -1.04488 1.46568 0
M  V30 1344 H 117.771 -0.187743 0.728187 0
M  V30 1345 H 119.742 0.11239 2.98188 0
M  V30 1346 C 118.491 -1.66186 3.05414 0
M  V30 1347 H 117.814 -1.22848 3.80458 0
M  V30 1348 H 119.254 -2.24622 3.59612 0
M  V30 1349 C 117.713 -2.59302 2.1509 0
M  V30 1350 O 118.243 -3.61628 1.74895 0
M  V30 1351 N 116.449 -2.28055 1.8011 0
M  V30 1352 H 115.996 -1.44883 2.12994 0
M  V30 1353 H 115.954 -2.90615 1.19958 0
M  V30 1354 N 119.726 -1.57421 0.075193 0
M  V30 1355 C 120.674 -2.14124 -0.908508 0
M  V30 1356 C 121.668 -1.07898 -1.30592 0
M  V30 1357 O 122.874 -1.26273 -1.28277 0
M  V30 1358 H 119.249 -0.684707 -0.310935 0
M  V30 1359 H 121.22 -2.95634 -0.405374 0
M  V30 1360 C 119.969 -2.72044 -2.16535 0
M  V30 1361 H 119.292 -3.53456 -1.86839 0
M  V30 1362 H 120.732 -3.15311 -2.83469 0
M  V30 1363 C 119.191 -1.66968 -2.92615 0
M  V30 1364 O 119.721 -1.0967 -3.86439 0
M  V30 1365 N 117.927 -1.37923 -2.55784 0
M  V30 1366 H 117.474 -1.84706 -1.79559 0
M  V30 1367 H 117.432 -0.67852 -3.06991 0
M  V30 1368 N 121.204 0.198386 -1.56346 0
M  V30 1369 C 122.444 0.92609 -1.82217 0
M  V30 1370 C 122.808 1.80584 -0.652195 0
M  V30 1371 O 124.009 2.56907 -0.790716 0
M  V30 1372 C 122.28 1.72354 -3.13096 0
M  V30 1373 S 123.839 2.50371 -3.6036 0
M  V30 1374 H 120.657 0.310677 -0.639532 0
M  V30 1375 H 123.259 0.189755 -1.94577 0
M  V30 1376 H 121.963 1.0678 -3.96265 0
M  V30 1377 H 121.494 2.50175 -3.03605 0
M  V30 1378 H 123.509 3.74488 -3.25535 0
M  V30 1379 N 122.682 1.50554 0.465978 0
M  V30 1380 C 123.629 1.6979 1.56333 0
M  V30 1381 C 124.599 0.539239 1.57103 0
M  V30 1382 O 125.784 0.770401 1.74555 0
M  V30 1383 C 122.924 1.80273 2.94271 0
M  V30 1384 C 122.037 3.07674 3.0325 0
M  V30 1385 C 121.172 3.08922 4.32135 0
M  V30 1386 C 120.211 4.30755 4.34875 0
M  V30 1387 N 119.348 4.29714 5.55239 0
M  V30 1388 H 124.188 2.63472 1.39235 0
M  V30 1389 H 121.725 1.30602 0.676873 0
M  V30 1390 H 123.683 1.84332 3.74269 0
M  V30 1391 H 122.313 0.900258 3.09992 0
M  V30 1392 H 121.365 3.13062 2.16094 0
M  V30 1393 H 122.677 3.97642 3.01135 0
M  V30 1394 H 121.831 3.11738 5.20485 0
M  V30 1395 H 120.57 2.16792 4.36866 0
M  V30 1396 H 119.575 4.28146 3.44922 0
M  V30 1397 H 120.8 5.24117 4.31831 0
M  V30 1398 H 118.746 3.4044 5.60746 0
M  V30 1399 H 118.663 5.13456 5.54886 0
M  V30 1400 H 119.931 4.36683 6.457 0
M  V30 1401 N 124.16 -0.719506 1.40217 0
M  V30 1402 C 125.571 -1.29848 1.34151 0
M  V30 1403 C 125.922 -1.96196 0.0131349 0
M  V30 1404 O 125.047 -1.973 -0.88892 0
M  V30 1405 C 125.642 -2.36118 2.42968 0
M  V30 1406 C 124.201 -2.8965 2.40374 0
M  V30 1407 C 123.348 -1.63393 2.24049 0
M  V30 1408 H 126.299 -0.51591 1.5008 0
M  V30 1409 H 126.32 -3.16871 2.10649 0
M  V30 1410 H 125.832 -1.878 3.39636 0
M  V30 1411 H 123.933 -3.42208 1.47392 0
M  V30 1412 H 124.046 -3.4171 3.35814 0
M  V30 1413 H 122.41 -1.88312 1.71495 0
M  V30 1414 H 123.193 -1.17104 3.2271 0
M  V30 1415 N 125.638 -1.25649 -0.95132 0
M  V30 1416 C 126.885 -1.10594 -1.69633 0
M  V30 1417 C 127.213 0.352515 -1.91279 0
M  V30 1418 O 126.468 1.27601 -1.4838 0
M  V30 1419 C 126.767 -1.80909 -3.08231 0
M  V30 1420 C 126.433 -3.30825 -3.06375 0
M  V30 1421 C 125.095 -3.71722 -3.05576 0
M  V30 1422 C 127.447 -4.26589 -2.99452 0
M  V30 1423 C 124.775 -5.06788 -2.95606 0
M  V30 1424 C 127.127 -5.61683 -2.91024 0
M  V30 1425 C 125.791 -6.01904 -2.88562 0
M  V30 1426 H 125.061 -0.404691 -0.620731 0
M  V30 1427 H 127.708 -1.55964 -1.11119 0
M  V30 1428 H 126.013 -1.27979 -3.70309 0
M  V30 1429 H 127.71 -1.6671 -3.64704 0
M  V30 1430 H 124.3 -2.98287 -3.07771 0
M  V30 1431 H 128.484 -3.95982 -2.99185 0
M  V30 1432 H 123.74 -5.37126 -2.92071 0
M  V30 1433 H 127.914 -6.35578 -2.84629 0
M  V30 1434 H 125.541 -7.06521 -2.80593 0
M  V30 1435 N 127.117 1.15442 -1.07289 0
M  V30 1436 C 128.347 1.89821 -0.815576 0
M  V30 1437 C 128.755 1.7823 0.634867 0
M  V30 1438 O 128.098 1.13152 1.44715 0
M  V30 1439 C 128.16 3.40817 -1.14385 0
M  V30 1440 C 127.824 3.76193 -2.59476 0
M  V30 1441 C 128.821 3.77269 -3.57721 0
M  V30 1442 C 126.506 4.0652 -2.95037 0
M  V30 1443 C 128.5 4.08176 -4.89562 0
M  V30 1444 C 126.187 4.37092 -4.27076 0
M  V30 1445 C 127.185 4.37902 -5.24148 0
M  V30 1446 O 126.873 4.67741 -6.53815 0
M  V30 1447 H 126.605 0.608465 -0.294528 0
M  V30 1448 H 129.159 1.472 -1.43252 0
M  V30 1449 H 127.389 3.83835 -0.469865 0
M  V30 1450 H 129.078 3.96485 -0.869179 0
M  V30 1451 H 129.844 3.5394 -3.3159 0
M  V30 1452 H 125.723 4.05049 -2.20128 0
M  V30 1453 H 129.267 4.08723 -5.65324 0
M  V30 1454 H 125.164 4.59889 -4.5296 0
M  V30 1455 H 125.932 4.85509 -6.58957 0
M  V30 1456 N 128.595 0.856903 1.32268 0
M  V30 1457 C 129.844 0.457599 1.96441 0
M  V30 1458 C 130.157 -0.992426 1.68553 0
M  V30 1459 O 131.363 -1.49727 2.26482 0
M  V30 1460 C 129.819 0.767358 3.51624 0
M  V30 1461 C 129.427 2.23326 3.88367 0
M  V30 1462 C 131.171 0.435887 4.22256 0
M  V30 1463 C 129.078 2.48613 5.36606 0
M  V30 1464 H 128.008 0.167387 0.735185 0
M  V30 1465 H 130.659 1.048 1.5063 0
M  V30 1466 H 129.041 0.106367 3.95857 0
M  V30 1467 H 130.215 2.93623 3.55137 0
M  V30 1468 H 128.53 2.52948 3.30766 0
M  V30 1469 H 131.127 0.602202 5.31298 0
M  V30 1470 H 131.47 -0.622672 4.11617 0
M  V30 1471 H 132.003 1.05286 3.83614 0
M  V30 1472 H 128.742 3.53101 5.52268 0
M  V30 1473 H 128.262 1.82896 5.71235 0
M  V30 1474 H 129.941 2.32676 6.03714 0
M  V30 1475 N 130.073 -1.45103 0.615059 0
M  V30 1476 C 131.322 -2.01396 0.110718 0
M  V30 1477 C 131.635 -1.48834 -1.26916 0
M  V30 1478 O 132.841 -1.97152 -1.86664 0
M  V30 1479 C 131.297 -3.59599 0.14723 0
M  V30 1480 C 130.905 -4.21158 1.52743 0
M  V30 1481 C 132.649 -4.23428 -0.30148 0
M  V30 1482 C 130.556 -5.71535 1.51992 0
M  V30 1483 H 129.486 -0.753061 0.0376241 0
M  V30 1484 H 132.137 -1.66494 0.77149 0
M  V30 1485 H 130.519 -3.91724 -0.580339 0
M  V30 1486 H 131.693 -4.00594 2.2773 0
M  V30 1487 H 130.008 -3.69552 1.91886 0
M  V30 1488 H 132.605 -5.33703 -0.326392 0
M  V30 1489 H 132.948 -3.94629 -1.32565 0
M  V30 1490 H 133.481 -3.96047 0.373065 0
M  V30 1491 H 130.22 -6.05044 2.52193 0
M  V30 1492 H 129.74 -5.94268 0.81274 0
M  V30 1493 H 131.419 -6.34873 1.24681 0
M  V30 1494 N 131.551 -0.354651 -1.53558 0
M  V30 1495 C 132.481 0.489091 -2.2832 0
M  V30 1496 C 133.462 1.09324 -1.30316 0
M  V30 1497 O 134.647 1.11255 -1.59173 0
M  V30 1498 C 131.777 1.63456 -3.0643 0
M  V30 1499 C 130.731 1.1582 -4.12031 0
M  V30 1500 C 130.057 2.39305 -4.7816 0
M  V30 1501 C 131.357 0.250731 -5.21698 0
M  V30 1502 H 133.051 -0.134614 -2.99097 0
M  V30 1503 H 130.597 -0.0661826 -1.43848 0
M  V30 1504 H 132.55 2.23136 -3.57475 0
M  V30 1505 H 131.274 2.28533 -2.33325 0
M  V30 1506 H 129.933 0.584146 -3.61916 0
M  V30 1507 H 129.581 3.02814 -4.01637 0
M  V30 1508 H 129.281 2.08109 -5.49513 0
M  V30 1509 H 130.805 2.99691 -5.31994 0
M  V30 1510 H 132.219 0.754695 -5.68311 0
M  V30 1511 H 130.616 0.0301468 -6.00092 0
M  V30 1512 H 131.686 -0.710125 -4.79672 0
M  V30 1513 N 133.029 1.57378 -0.0835403 0
M  V30 1514 C 133.976 2.13384 0.879539 0
M  V30 1515 C 134.946 1.04936 1.28754 0
M  V30 1516 O 136.131 1.32662 1.37133 0
M  V30 1517 C 133.271 2.70932 2.13752 0
M  V30 1518 C 132.384 3.93575 1.7811 0
M  V30 1519 C 131.519 4.39326 2.98607 0
M  V30 1520 C 130.558 5.54587 2.59037 0
M  V30 1521 N 129.695 5.95243 3.72331 0
M  V30 1522 H 134.535 2.9537 0.395076 0
M  V30 1523 H 132.072 1.45953 0.183349 0
M  V30 1524 H 134.03 3.02411 2.87408 0
M  V30 1525 H 132.66 1.91693 2.59718 0
M  V30 1526 H 131.712 3.68483 0.94469 0
M  V30 1527 H 133.024 4.77258 1.45005 0
M  V30 1528 H 132.178 4.72528 3.80529 0
M  V30 1529 H 130.917 3.5452 3.34913 0
M  V30 1530 H 129.922 5.21024 1.75539 0
M  V30 1531 H 131.147 6.41133 2.23887 0
M  V30 1532 H 129.093 5.13385 4.08378 0
M  V30 1533 H 129.01 6.73694 3.43034 0
M  V30 1534 H 130.278 6.33072 4.54797 0
M  V30 1535 N 134.507 -0.190092 1.56449 0
M  V30 1536 C 135.455 -1.25501 1.95837 0
M  V30 1537 C 136.449 -1.4685 0.844485 0
M  V30 1538 O 137.655 -1.47651 1.02952 0
M  V30 1539 H 134.03 -0.421447 0.622805 0
M  V30 1540 H 136.001 -0.895821 2.84636 0
M  V30 1541 C 134.75 -2.59124 2.31841 0
M  V30 1542 H 134.073 -2.43514 3.17082 0
M  V30 1543 H 135.513 -3.32371 2.6326 0
M  V30 1544 C 133.972 -3.16488 1.15486 0
M  V30 1545 O 134.502 -3.99365 0.432535 0
M  V30 1546 N 132.708 -2.75305 0.930349 0
M  V30 1547 H 132.255 -2.08013 1.51948 0
M  V30 1548 H 132.213 -3.14024 0.153634 0
M  V30 1549 N 135.985 -1.50799 -0.457987 0
M  V30 1550 C 137.233 -1.62121 -1.2067 0
M  V30 1551 C 137.554 -0.329793 -1.92191 0
M  V30 1552 O 136.824 0.653409 -1.84682 0
M  V30 1553 H 135.404 -0.597441 -0.448411 0
M  V30 1554 H 138.066 -1.87637 -0.527096 0
M  V30 1555 H 137.162 -2.43882 -1.94751 0
M  V30 1556 N 137.463 0.71206 -1.40597 0
M  V30 1557 C 138.373 1.8562 -1.43466 0
M  V30 1558 C 139.389 1.70902 -0.326902 0
M  V30 1559 O 140.565 1.93105 -0.572043 0
M  V30 1560 C 137.63 3.21451 -1.29884 0
M  V30 1561 C 136.691 3.48398 -2.50833 0
M  V30 1562 C 135.924 4.77749 -2.3789 0
M  V30 1563 O 136.147 5.53089 -1.39459 0
M  V30 1564 O 135.081 5.05111 -3.27333 0
M  V30 1565 H 138.907 1.86155 -2.39958 0
M  V30 1566 H 136.492 0.86295 -1.21957 0
M  V30 1567 H 138.374 4.02579 -1.24531 0
M  V30 1568 H 137.049 3.21636 -0.364997 0
M  V30 1569 H 135.956 2.67265 -2.61763 0
M  V30 1570 H 137.289 3.53014 -3.4299 0
M  V30 1571 N 138.941 1.26152 0.944643 0
M  V30 1572 C 140.19 1.10883 1.68487 0
M  V30 1573 C 140.503 -0.348153 1.92477 0
M  V30 1574 O 141.709 -0.621459 2.64292 0
M  V30 1575 C 140.165 1.93624 3.03377 0
M  V30 1576 C 139.773 3.43875 2.87148 0
M  V30 1577 C 141.517 1.86954 3.81115 0
M  V30 1578 C 139.424 4.18875 4.1749 0
M  V30 1579 H 138.354 0.41135 0.631907 0
M  V30 1580 H 141.005 1.50433 1.05082 0
M  V30 1581 H 139.387 1.46904 3.67743 0
M  V30 1582 H 140.561 3.98338 2.31653 0
M  V30 1583 H 138.876 3.51744 2.22856 0
M  V30 1584 H 141.473 2.40275 4.77673 0
M  V30 1585 H 141.816 0.839518 4.07747 0
M  V30 1586 H 142.349 2.31477 3.23517 0
M  V30 1587 H 139.088 5.22332 3.96043 0
M  V30 1588 H 138.608 3.69193 4.72712 0
M  V30 1589 H 140.287 4.27134 4.85968 0
M  V30 1590 N 140.419 -1.14872 1.07899 0
M  V30 1591 C 141.668 -1.85135 0.800499 0
M  V30 1592 C 141.981 -1.83547 -0.676014 0
M  V30 1593 O 143.187 -2.49548 -1.06948 0
M  V30 1594 C 141.643 -3.3231 1.38197 0
M  V30 1595 C 141.251 -3.42329 2.8899 0
M  V30 1596 C 142.995 -4.0772 1.18174 0
M  V30 1597 C 140.902 -4.83684 3.403 0
M  V30 1598 H 139.832 -0.693563 0.29578 0
M  V30 1599 H 142.483 -1.29532 1.29976 0
M  V30 1600 H 140.865 -3.87618 0.810431 0
M  V30 1601 H 142.039 -2.97097 3.52236 0
M  V30 1602 H 140.354 -2.80369 3.07867 0
M  V30 1603 H 142.951 -5.12049 1.5398 0
M  V30 1604 H 143.294 -4.16124 0.12117 0
M  V30 1605 H 143.827 -3.58696 1.71994 0
M  V30 1606 H 140.566 -4.80465 4.45907 0
M  V30 1607 H 140.086 -5.29474 2.81811 0
M  V30 1608 H 141.765 -5.52558 3.36584 0
M  V30 1609 N 141.898 -0.863906 -1.31812 0
M  V30 1610 C 142.83 -0.272485 -2.27575 0
M  V30 1611 C 143.843 0.56104 -1.52827 0
M  V30 1612 O 145.032 0.384021 -1.7432 0
M  V30 1613 C 142.132 0.63283 -3.32939 0
M  V30 1614 C 141.305 -0.166902 -4.37081 0
M  V30 1615 C 140.364 0.665608 -5.21973 0
M  V30 1616 O 139.39 0.0958091 -5.69119 0
M  V30 1617 N 140.592 1.9787 -5.45736 0
M  V30 1618 H 143.357 -1.0954 -2.78964 0
M  V30 1619 H 140.918 -0.724791 -1.4477 0
M  V30 1620 H 142.91 1.19532 -3.86645 0
M  V30 1621 H 141.48 1.35642 -2.81638 0
M  V30 1622 H 140.7 -0.910838 -3.83533 0
M  V30 1623 H 141.988 -0.715874 -5.03739 0
M  V30 1624 H 141.386 2.46484 -5.09178 0
M  V30 1625 H 139.943 2.48911 -6.024 0
M  V30 1626 N 143.376 1.44774 -0.622745 0
M  V30 1627 C 144.308 2.28856 0.125485 0
M  V30 1628 C 145.321 1.40811 0.817069 0
M  V30 1629 O 146.51 1.65044 0.679918 0
M  V30 1630 C 143.61 3.16963 1.19949 0
M  V30 1631 C 142.783 4.33374 0.592064 0
M  V30 1632 C 141.842 5.02577 1.55893 0
M  V30 1633 O 140.868 5.58873 1.07933 0
M  V30 1634 N 142.07 5.03256 2.89334 0
M  V30 1635 H 144.835 2.93713 -0.596068 0
M  V30 1636 H 142.396 1.55129 -0.463303 0
M  V30 1637 H 144.388 3.60123 1.84644 0
M  V30 1638 H 142.958 2.53913 1.82337 0
M  V30 1639 H 142.178 3.93509 -0.233322 0
M  V30 1640 H 143.466 5.08527 0.166738 0
M  V30 1641 H 142.864 4.58836 3.30887 0
M  V30 1642 H 141.421 5.50232 3.49412 0
M  V30 1643 N 144.854 0.36279 1.53368 0
M  V30 1644 C 146.103 -0.22888 2.00397 0
M  V30 1645 C 146.416 -1.50096 1.25421 0
M  V30 1646 O 147.622 -2.17106 1.63025 0
M  V30 1647 C 146.078 -0.458417 3.56969 0
M  V30 1648 C 145.686 0.798877 4.4082 0
M  V30 1649 C 147.43 -1.00789 4.12361 0
M  V30 1650 C 145.337 0.539078 5.88938 0
M  V30 1651 H 144.267 -0.089305 0.748693 0
M  V30 1652 H 146.918 0.481099 1.77081 0
M  V30 1653 H 145.3 -1.22959 3.76427 0
M  V30 1654 H 146.474 1.57262 4.33134 0
M  V30 1655 H 144.789 1.27137 3.96516 0
M  V30 1656 H 147.386 -1.21754 5.20653 0
M  V30 1657 H 147.729 -1.9692 3.66781 0
M  V30 1658 H 148.262 -0.296961 3.9669 0
M  V30 1659 H 145.001 1.47064 6.3879 0
M  V30 1660 H 144.521 -0.196222 5.99479 0
M  V30 1661 H 146.2 0.163542 6.46793 0
M  V30 1662 N 146.332 -1.57332 0.0918853 0
M  V30 1663 C 147.264 -2.10869 -0.898168 0
M  V30 1664 C 148.277 -1.04521 -1.24817 0
M  V30 1665 O 149.466 -1.31977 -1.20184 0
M  V30 1666 C 146.566 -2.57083 -2.2082 0
M  V30 1667 C 145.739 -3.87229 -2.03402 0
M  V30 1668 C 144.798 -4.19324 -3.17889 0
M  V30 1669 O 143.824 -4.88598 -2.91994 0
M  V30 1670 N 145.026 -3.74471 -4.43567 0
M  V30 1671 H 147.791 -2.96439 -0.440943 0
M  V30 1672 H 145.352 -1.61631 -0.0933064 0
M  V30 1673 H 147.344 -2.75602 -2.96354 0
M  V30 1674 H 145.914 -1.76541 -2.57977 0
M  V30 1675 H 145.134 -3.7789 -1.12218 0
M  V30 1676 H 146.422 -4.72379 -1.89038 0
M  V30 1677 H 145.82 -3.18546 -4.67488 0
M  V30 1678 H 144.377 -3.98151 -5.16061 0
M  V30 1679 N 147.81 0.181792 -1.56548 0
M  V30 1680 C 149.058 0.89832 -1.81038 0
M  V30 1681 C 149.379 1.83232 -0.667164 0
M  V30 1682 O 148.649 1.93372 0.313673 0
M  V30 1683 H 147.229 0.33471 -0.667816 0
M  V30 1684 H 149.891 0.184116 -1.94028 0
M  V30 1685 H 148.987 1.4815 -2.74696 0
M  V30 1686 N 149.288 1.51039 0.449983 0
M  V30 1687 C 150.528 1.64732 1.21007 0
M  V30 1688 C 150.892 0.349865 1.88785 0
M  V30 1689 O 152.093 0.362431 2.66345 0
M  V30 1690 C 150.364 2.80902 2.20973 0
M  V30 1691 S 151.923 3.14851 3.05638 0
M  V30 1692 H 148.741 0.5805 0.410538 0
M  V30 1693 H 151.343 1.88901 0.503634 0
M  V30 1694 H 150.047 3.73627 1.69796 0
M  V30 1695 H 149.578 2.58882 2.96215 0
M  V30 1696 H 151.593 2.60306 4.22439 0
M  V30 1697 N 150.766 -0.704594 1.40972 0
M  V30 1698 C 151.714 -1.83994 1.42299 0
M  V30 1699 C 152.708 -1.66684 0.302111 0
M  V30 1700 O 153.914 -1.73655 0.473697 0
M  V30 1701 H 150.289 -0.606171 0.44504 0
M  V30 1702 H 152.26 -1.79992 2.38003 0
M  V30 1703 C 151.009 -3.21946 1.31323 0
M  V30 1704 H 150.332 -3.35878 2.16855 0
M  V30 1705 H 151.772 -4.01491 1.36311 0
M  V30 1706 C 150.231 -3.36891 0.0245977 0
M  V30 1707 O 150.761 -3.90687 -0.934153 0
M  V30 1708 N 148.967 -2.90559 -0.0485243 0
M  V30 1709 H 148.514 -2.46968 0.732419 0
M  V30 1710 H 148.472 -3.00937 -0.910171 0
M  V30 1711 N 152.244 -1.26651 -0.937939 0
M  V30 1712 C 153.493 -1.11775 -1.67897 0
M  V30 1713 C 153.806 0.33794 -1.92659 0
M  V30 1714 O 155.012 0.607434 -2.64618 0
M  V30 1715 C 153.468 -1.9523 -3.02346 0
M  V30 1716 C 153.076 -3.45393 -2.8532 0
M  V30 1717 C 154.82 -1.88972 -3.80118 0
M  V30 1718 C 152.727 -4.21083 -4.15263 0
M  V30 1719 H 151.657 -0.414696 -0.629717 0
M  V30 1720 H 154.308 -1.50988 -1.04283 0
M  V30 1721 H 152.69 -1.48853 -3.66959 0
M  V30 1722 H 153.864 -3.99561 -2.29537 0
M  V30 1723 H 152.179 -3.52921 -2.20988 0
M  V30 1724 H 154.776 -2.42805 -4.76392 0
M  V30 1725 H 155.119 -0.86113 -4.07296 0
M  V30 1726 H 155.652 -2.33189 -3.22285 0
M  V30 1727 H 152.391 -5.24425 -3.93267 0
M  V30 1728 H 151.911 -3.71695 -4.70747 0
M  V30 1729 H 153.59 -4.29706 -4.83696 0
M  V30 1730 N 153.722 1.14298 -1.08507 0
M  V30 1731 C 155.133 1.66926 -0.836227 0
M  V30 1732 C 155.484 1.85576 0.63686 0
M  V30 1733 O 154.609 1.56767 1.49175 0
M  V30 1734 C 155.204 3.03219 -1.51142 0
M  V30 1735 C 153.763 3.52876 -1.30979 0
M  V30 1736 C 152.91 2.2833 -1.57356 0
M  V30 1737 H 155.861 0.983491 -1.24552 0
M  V30 1738 H 155.882 3.68726 -0.939211 0
M  V30 1739 H 155.394 2.89612 -2.58353 0
M  V30 1740 H 153.495 3.71703 -0.258429 0
M  V30 1741 H 153.608 4.33586 -2.03814 0
M  V30 1742 H 151.972 2.34454 -0.995164 0
M  V30 1743 H 152.755 2.17298 -2.65775 0
M  V30 1744 N 155.201 0.870884 1.31352 0
M  V30 1745 C 156.131 0.343096 2.30966 0
M  V30 1746 C 157.112 -0.566507 1.60389 0
M  V30 1747 O 158.297 -0.483336 1.88089 0
M  V30 1748 C 155.427 -0.455487 3.443 0
M  V30 1749 C 154.381 0.361103 4.26474 0
M  V30 1750 C 153.707 -0.563221 5.31725 0
M  V30 1751 C 155.007 1.59566 4.97329 0
M  V30 1752 H 156.701 1.17548 2.75359 0
M  V30 1753 H 154.247 0.566686 1.32381 0
M  V30 1754 H 156.2 -0.83525 4.13039 0
M  V30 1755 H 154.924 -1.32139 2.98675 0
M  V30 1756 H 153.583 0.722825 3.59403 0
M  V30 1757 H 153.231 -1.42643 4.82351 0
M  V30 1758 H 152.931 -0.0207409 5.87596 0
M  V30 1759 H 154.455 -0.939808 6.03324 0
M  V30 1760 H 155.869 1.28728 5.58661 0
M  V30 1761 H 154.266 2.07728 5.63 0
M  V30 1762 H 155.336 2.34798 4.24262 0
M  V30 1763 N 156.679 -1.44442 0.630414 0
M  V30 1764 C 157.928 -2.01267 0.132073 0
M  V30 1765 C 158.241 -1.50172 -1.25331 0
M  V30 1766 O 159.447 -1.9912 -1.84562 0
M  V30 1767 C 157.903 -3.59422 0.185362 0
M  V30 1768 C 157.511 -4.19514 1.57201 0
M  V30 1769 C 159.255 -4.23724 -0.256553 0
M  V30 1770 C 157.162 -5.69891 1.58045 0
M  V30 1771 H 156.092 -0.752619 0.0456092 0
M  V30 1772 H 158.743 -1.65666 0.789106 0
M  V30 1773 H 157.125 -3.92318 -0.538759 0
M  V30 1774 H 158.299 -3.98156 2.31966 0
M  V30 1775 H 156.614 -3.67496 1.95795 0
M  V30 1776 H 159.211 -5.34019 -0.269767 0
M  V30 1777 H 159.554 -3.96013 -1.28372 0
M  V30 1778 H 160.087 -3.95629 0.41505 0
M  V30 1779 H 156.826 -6.02336 2.58597 0
M  V30 1780 H 156.346 -5.93373 0.875725 0
M  V30 1781 H 158.025 -6.33515 1.31408 0
M  V30 1782 N 158.157 -0.370918 -1.53173 0
M  V30 1783 C 159.404 0.217102 -2.01333 0
M  V30 1784 C 159.732 1.48338 -1.25802 0
M  V30 1785 O 158.987 1.92698 -0.34146 0
M  V30 1786 C 159.286 0.549696 -3.53147 0
M  V30 1787 C 158.952 -0.622872 -4.46577 0
M  V30 1788 C 157.614 -0.944595 -4.71838 0
M  V30 1789 C 159.966 -1.40819 -5.01816 0
M  V30 1790 C 157.294 -2.05351 -5.49589 0
M  V30 1791 C 159.646 -2.50757 -5.80778 0
M  V30 1792 C 158.31 -2.83458 -6.04324 0
M  V30 1793 H 157.58 0.0794431 -0.736729 0
M  V30 1794 H 160.227 -0.504481 -1.84736 0
M  V30 1795 H 158.532 1.35237 -3.6772 0
M  V30 1796 H 160.229 1.017 -3.87889 0
M  V30 1797 H 156.819 -0.36209 -4.27068 0
M  V30 1798 H 161.003 -1.17289 -4.82242 0
M  V30 1799 H 156.259 -2.3108 -5.6605 0
M  V30 1800 H 160.433 -3.12022 -6.22588 0
M  V30 1801 H 158.06 -3.69508 -6.64355 0
M  V30 1802 N 159.635 1.57281 -0.100228 0
M  V30 1803 C 160.86 1.99302 0.573881 0
M  V30 1804 C 161.285 0.979059 1.60611 0
M  V30 1805 O 160.643 -0.0517803 1.81226 0
M  V30 1806 C 160.691 3.40274 1.19358 0
M  V30 1807 O 159.795 3.41676 2.30935 0
M  V30 1808 H 159.136 0.647944 0.145138 0
M  V30 1809 H 161.666 2.03779 -0.183156 0
M  V30 1810 H 161.676 3.78078 1.53365 0
M  V30 1811 H 160.351 4.13594 0.437385 0
M  V30 1812 H 158.928 3.15672 1.98509 0
M  V30 1813 N 161.113 -0.173488 1.56642 0
M  V30 1814 C 162.36 -0.890465 1.81871 0
M  V30 1815 C 162.688 -1.82339 0.67696 0
M  V30 1816 O 161.943 -1.92795 -0.335926 0
M  V30 1817 C 162.242 -1.72069 3.13252 0
M  V30 1818 C 161.908 -0.936878 4.41059 0
M  V30 1819 C 160.57 -0.720545 4.75775 0
M  V30 1820 C 162.922 -0.386919 5.19762 0
M  V30 1821 C 160.25 0.0568829 5.86672 0
M  V30 1822 C 162.602 0.37741 6.31473 0
M  V30 1823 C 161.266 0.604563 6.64757 0
M  V30 1824 H 160.536 -0.325844 0.665512 0
M  V30 1825 H 163.183 -0.155527 1.90867 0
M  V30 1826 H 161.488 -2.52496 2.99588 0
M  V30 1827 H 163.185 -2.27844 3.29982 0
M  V30 1828 H 159.775 -1.11553 4.13828 0
M  V30 1829 H 163.959 -0.541398 4.93338 0
M  V30 1830 H 159.215 0.242635 6.10918 0
M  V30 1831 H 163.389 0.810825 6.91664 0
M  V30 1832 H 161.016 1.20885 7.50527 0
M  V30 1833 N 162.591 -1.51276 -0.441967 0
M  V30 1834 C 163.84 -1.6295 -1.18871 0
M  V30 1835 C 164.153 -0.349312 -1.92456 0
M  V30 1836 O 165.359 -0.345355 -2.69295 0
M  V30 1837 C 163.815 -2.87759 -2.16155 0
M  V30 1838 C 163.423 -4.22764 -1.48239 0
M  V30 1839 C 165.167 -3.08788 -2.91291 0
M  V30 1840 C 163.074 -5.38728 -2.4398 0
M  V30 1841 H 162.004 -0.606913 -0.447406 0
M  V30 1842 H 164.655 -1.77739 -0.456205 0
M  V30 1843 H 163.037 -2.66593 -2.92821 0
M  V30 1844 H 164.211 -4.54293 -0.771635 0
M  V30 1845 H 162.526 -4.07575 -0.852741 0
M  V30 1846 H 165.123 -3.92599 -3.63002 0
M  V30 1847 H 165.466 -2.21679 -3.5237 0
M  V30 1848 H 165.999 -3.30272 -2.21733 0
M  V30 1849 H 162.738 -6.28082 -1.87598 0
M  V30 1850 H 162.258 -5.1158 -3.13123 0
M  V30 1851 H 163.937 -5.70489 -3.05207 0
M  V30 1852 N 164.069 0.697108 -1.41344 0
M  V30 1853 C 165.346 1.45154 -1.31109 0
M  V30 1854 C 165.726 2.11009 0.0620449 0
M  V30 1855 O 165.074 2.01571 1.07618 0
M  V30 1856 C 165.284 2.47223 -2.46337 0
M  V30 1857 C 166.632 3.1252 -2.87431 0
M  V30 1858 O 167.656 2.57547 -2.46065 0
M  V30 1859 O 166.515 4.12083 -3.58957 0
M  V30 1860 H 163.609 0.646365 -0.515889 0
M  V30 1861 H 166.155 0.727716 -1.53305 0
M  V30 1862 H 164.927 1.97204 -3.37974 0
M  V30 1863 H 164.55 3.27116 -2.2601 0
M  V30 1864 N 165.547 1.27147 0.931209 0
M  V30 1865 C 166.457 1.11372 2.06478 0
M  V30 1866 C 167.473 0.044645 1.73943 0
M  V30 1867 O 168.649 0.250417 1.99837 0
M  V30 1868 C 165.714 0.758838 3.38294 0
M  V30 1869 C 164.775 1.90841 3.84549 0
M  V30 1870 C 164.008 1.57036 5.10074 0
M  V30 1871 O 164.231 0.476645 5.68405 0
M  V30 1872 O 163.165 2.40839 5.51616 0
M  V30 1873 H 166.991 2.06493 2.22698 0
M  V30 1874 H 164.576 1.06301 1.04978 0
M  V30 1875 H 166.458 0.574098 4.17471 0
M  V30 1876 H 165.133 -0.162879 3.2329 0
M  V30 1877 H 164.04 2.14819 3.06274 0
M  V30 1878 H 165.373 2.81021 4.04089 0
M  V30 1879 N 167.025 -1.13721 1.09112 0
M  V30 1880 C 167.975 -2.17082 0.697091 0
M  V30 1881 C 168.959 -1.58321 -0.286923 0
M  V30 1882 O 170.151 -1.7673 -0.0978008 0
M  V30 1883 C 167.28 -3.43105 0.115729 0
M  V30 1884 C 166.366 -4.0888 1.12596 0
M  V30 1885 N 166.757 -4.4987 2.31195 0
M  V30 1886 C 165.055 -4.35471 0.963366 0
M  V30 1887 C 165.756 -5.01094 2.95431 0
M  V30 1888 N 164.732 -4.95751 2.23006 0
M  V30 1889 H 168.534 -2.46524 1.6001 0
M  V30 1890 H 166.048 -1.30481 0.966869 0
M  V30 1891 H 168.045 -4.16491 -0.184555 0
M  V30 1892 H 166.705 -3.15138 -0.78217 0
M  V30 1893 H 167.716 -4.42678 2.68806 0
M  V30 1894 H 164.393 -4.17328 0.119878 0
M  V30 1895 H 165.783 -5.4263 3.96236 0
M  V30 1896 N 168.503 -0.877838 -1.30888 0
M  V30 1897 C 169.433 -0.35534 -2.3078 0
M  V30 1898 C 170.414 0.557994 -1.60687 0
M  V30 1899 O 171.599 0.473355 -1.88343 0
M  V30 1900 C 168.729 0.437221 -3.44537 0
M  V30 1901 C 167.683 -0.383715 -4.26276 0
M  V30 1902 C 167.009 0.535014 -5.32017 0
M  V30 1903 C 168.309 -1.62201 -4.96476 0
M  V30 1904 H 170.003 -1.19007 -2.74732 0
M  V30 1905 H 167.549 -0.573698 -1.32078 0
M  V30 1906 H 169.502 0.813334 -4.13477 0
M  V30 1907 H 168.226 1.30553 -2.99372 0
M  V30 1908 H 166.885 -0.741874 -3.59015 0
M  V30 1909 H 166.533 1.40083 -4.831 0
M  V30 1910 H 166.233 -0.0104211 -5.87599 0
M  V30 1911 H 167.757 0.907799 -6.03814 0
M  V30 1912 H 169.171 -1.31689 -5.5797 0
M  V30 1913 H 167.568 -2.10711 -5.61891 0
M  V30 1914 H 168.638 -2.37044 -4.23011 0
M  V30 1915 N 169.982 1.44106 -0.638065 0
M  V30 1916 C 170.915 2.27924 0.112161 0
M  V30 1917 C 171.893 1.38945 0.844574 0
M  V30 1918 O 173.077 1.68386 0.847248 0
M  V30 1919 C 170.204 3.18029 1.16512 0
M  V30 1920 C 169.25 4.23163 0.532458 0
M  V30 1921 S 170.083 5.31131 -0.682666 0
M  V30 1922 C 171.239 6.24805 0.37013 0
M  V30 1923 H 171.472 2.91205 -0.598887 0
M  V30 1924 H 169.005 1.48394 -0.426441 0
M  V30 1925 H 170.963 3.70492 1.76766 0
M  V30 1926 H 169.624 2.53955 1.8484 0
M  V30 1927 H 168.817 4.86252 1.32571 0
M  V30 1928 H 168.419 3.74 0.00437644 0
M  V30 1929 H 170.711 6.66042 1.24071 0
M  V30 1930 H 171.654 7.07741 -0.225349 0
M  V30 1931 H 172.062 5.60154 0.699141 0
M  V30 1932 N 171.46 0.379036 1.52974 0
M  V30 1933 C 172.408 -0.476033 2.27677 0
M  V30 1934 C 173.402 -1.0719 1.31174 0
M  V30 1935 O 174.608 -1.01355 1.48752 0
M  V30 1936 H 170.983 -0.172255 0.732006 0
M  V30 1937 H 172.954 0.175615 2.97883 0
M  V30 1938 C 171.703 -1.5967 3.0887 0
M  V30 1939 H 171.026 -1.1475 3.82978 0
M  V30 1940 H 172.466 -2.16943 3.64296 0
M  V30 1941 C 170.925 -2.54682 2.20542 0
M  V30 1942 O 171.455 -3.57836 1.82527 0
M  V30 1943 N 169.661 -2.24183 1.84907 0
M  V30 1944 H 169.208 -1.40333 2.1602 0
M  V30 1945 H 169.166 -2.88006 1.26096 0
M  V30 1946 N 172.938 -1.57226 0.108567 0
M  V30 1947 C 173.885 -2.14756 -0.845481 0
M  V30 1948 C 174.855 -1.06971 -1.27068 0
M  V30 1949 O 176.04 -1.34827 -1.35005 0
M  V30 1950 C 173.18 -2.74298 -2.09415 0
M  V30 1951 C 172.293 -3.96358 -1.71826 0
M  V30 1952 C 171.428 -4.44021 -2.9158 0
M  V30 1953 C 170.467 -5.58637 -2.50181 0
M  V30 1954 N 169.604 -6.01091 -3.62814 0
M  V30 1955 H 174.444 -2.95961 -0.348035 0
M  V30 1956 H 171.981 -1.46226 -0.160106 0
M  V30 1957 H 173.939 -3.06945 -2.82561 0
M  V30 1958 H 172.569 -1.95801 -2.56636 0
M  V30 1959 H 171.621 -3.69939 -0.885947 0
M  V30 1960 H 172.933 -4.79504 -1.37394 0
M  V30 1961 H 172.087 -4.78522 -3.72963 0
M  V30 1962 H 170.826 -3.59803 -3.29231 0
M  V30 1963 H 169.831 -5.23751 -1.67228 0
M  V30 1964 H 171.056 -6.44613 -2.13659 0
M  V30 1965 H 169.002 -5.19817 -4.00158 0
M  V30 1966 H 168.919 -6.79066 -3.32273 0
M  V30 1967 H 170.187 -6.40227 -4.44668 0
M  V30 1968 N 174.416 0.165178 -1.56732 0
M  V30 1969 C 175.363 1.2044 -1.96883 0
M  V30 1970 C 176.333 1.43664 -0.833657 0
M  V30 1971 O 177.518 1.56302 -1.09427 0
M  V30 1972 C 174.658 2.53727 -2.33916 0
M  V30 1973 C 173.771 2.3783 -3.6064 0
M  V30 1974 C 172.906 3.64026 -3.86857 0
M  V30 1975 C 171.945 3.43088 -5.06909 0
M  V30 1976 N 171.082 4.61369 -5.29229 0
M  V30 1977 H 175.922 0.854996 -2.85471 0
M  V30 1978 H 173.459 0.41076 -1.41249 0
M  V30 1979 H 175.417 3.31419 -2.53411 0
M  V30 1980 H 174.047 2.8665 -1.48431 0
M  V30 1981 H 173.099 1.51282 -3.49024 0
M  V30 1982 H 174.411 2.18308 -4.4849 0
M  V30 1983 H 173.565 4.50152 -4.06753 0
M  V30 1984 H 172.304 3.86533 -2.97394 0
M  V30 1985 H 171.309 2.55349 -4.86906 0
M  V30 1986 H 172.534 3.21997 -5.97909 0
M  V30 1987 H 170.48 4.84084 -4.42718 0
M  V30 1988 H 170.397 4.44783 -6.11313 0
M  V30 1989 H 171.665 5.48761 -5.53608 0
M  V30 1990 N 175.894 1.51508 0.433938 0
M  V30 1991 C 177.143 1.63578 1.18005 0
M  V30 1992 C 177.456 0.359514 1.92268 0
M  V30 1993 O 178.662 0.359632 2.69108 0
M  V30 1994 C 177.118 2.88901 2.14626 0
M  V30 1995 C 176.726 4.23544 1.45995 0
M  V30 1996 C 178.47 3.10328 2.89649 0
M  V30 1997 C 176.377 5.40014 2.4112 0
M  V30 1998 H 175.307 0.609277 0.444182 0
M  V30 1999 H 177.958 1.77978 0.446773 0
M  V30 2000 H 176.34 2.68142 2.91403 0
M  V30 2001 H 177.514 4.54696 0.747532 0
M  V30 2002 H 175.829 4.08021 0.831115 0
M  V30 2003 H 178.426 3.94518 3.60915 0
M  V30 2004 H 178.769 2.23544 3.51189 0
M  V30 2005 H 179.302 3.31443 2.19978 0
M  V30 2006 H 176.041 6.29068 1.84264 0
M  V30 2007 H 175.561 5.13233 3.10406 0
M  V30 2008 H 177.24 5.72099 3.02177 0
M  V30 2009 N 177.372 -0.689602 1.41712 0
M  V30 2010 C 178.32 -1.82475 1.44242 0
M  V30 2011 C 179.314 -1.66354 0.319774 0
M  V30 2012 O 180.52 -1.73143 0.492089 0
M  V30 2013 H 176.895 -0.601416 0.451445 0
M  V30 2014 H 178.866 -1.77458 2.39899 0
M  V30 2015 C 177.615 -3.20535 1.3473 0
M  V30 2016 H 176.938 -3.33559 2.20405 0
M  V30 2017 H 178.378 -4.00023 1.40562 0
M  V30 2018 C 176.837 -3.36846 0.0603281 0
M  V30 2019 O 177.367 -3.91656 -0.892663 0
M  V30 2020 N 175.573 -2.90595 -0.0177039 0
M  V30 2021 H 175.12 -2.46178 0.758572 0
M  V30 2022 H 175.078 -3.01886 -0.878201 0
M  V30 2023 O 178.889 -1.38429 -0.831842 0
M  V30 2024 H 179.58 -1.25628 -1.47436 0
M  V30 END ATOM
M  V30 BEGIN BOND
M  V30 END BOND
M  V30 END CTAB
M  END
$$$$
