drugbank_target|Q8IKM6 Inner membrane complex sub-compartment protein 3 (DB11638)
 OpenBabel12092121123D

  0  0  0     0  0            999 V3000
M  V30 BEGIN CTAB
M  V30 COUNTS 2387 2408 0 0 0
M  V30 BEGIN ATOM
M  V30 1 H -0.908 1.98254 -0.117106 0
M  V30 2 N 0 1.576 0 0
M  V30 3 C 0.933 2.03868 1.02534 0
M  V30 4 C 1.911 0.928543 1.3348 0
M  V30 5 O 3.095 1.19667 1.45644 0
M  V30 6 C 0.222 2.43627 2.35294 0
M  V30 7 C -0.732 3.65373 2.2001 0
M  V30 8 S 0.101 5.13292 1.52614 0
M  V30 9 C 1.257 5.56322 2.86805 0
M  V30 10 H 1.49 2.90518 0.631377 0
M  V30 11 H -0.977 1.52953 0.210867 0
M  V30 12 H 0.981 2.67203 3.11629 0
M  V30 13 H -0.358 1.57376 2.7183 0
M  V30 14 H -1.165 3.90944 3.18086 0
M  V30 15 H -1.563 3.418 1.51819 0
M  V30 16 H 0.729 5.58782 3.83104 0
M  V30 17 H 1.672 6.56266 2.65933 0
M  V30 18 H 2.08 4.83886 2.90714 0
M  V30 19 N 1.4781 -0.272755 1.55222 0
M  V30 20 C 2.7261 -1.00234 1.75492 0
M  V30 21 C 3.0471 -1.8681 0.5592 0
M  V30 22 O 2.3171 -1.91215 -0.425882 0
M  V30 23 H 0.8971 -0.373076 0.647166 0
M  V30 24 H 3.5591 -0.296926 1.92625 0
M  V30 25 H 2.6551 -1.63913 2.65592 0
M  V30 26 N 2.9562 -1.48159 -0.537278 0
M  V30 27 C 3.9042 -1.62573 -1.66352 0
M  V30 28 C 4.8982 -0.492366 -1.62087 0
M  V30 29 O 6.1042 -0.670847 -1.67032 0
M  V30 30 H 2.4792 -0.511992 -0.550789 0
M  V30 31 H 4.4502 -2.57176 -1.51337 0
M  V30 32 C 3.1992 -1.67583 -3.04649 0
M  V30 33 H 2.5222 -2.54151 -3.08622 0
M  V30 34 H 3.9622 -1.81713 -3.83088 0
M  V30 35 C 2.4212 -0.413039 -3.34358 0
M  V30 36 O 2.9512 0.477259 -3.98855 0
M  V30 37 N 1.1572 -0.286961 -2.8918 0
M  V30 38 H 0.7042 -1.01241 -2.36871 0
M  V30 39 H 0.6622 0.556963 -3.09427 0
M  V30 40 N 4.4343 0.785586 -1.36625 0
M  V30 41 C 5.3643 1.91259 -1.33949 0
M  V30 42 C 6.3453 1.68795 -0.210325 0
M  V30 43 O 7.5303 1.89854 -0.408561 0
M  V30 44 C 4.6603 3.28339 -1.13186 0
M  V30 45 C 3.6143 3.65335 -2.22967 0
M  V30 46 C 2.9403 5.00806 -1.87342 0
M  V30 47 C 4.2403 3.7352 -3.65075 0
M  V30 48 H 5.9343 1.93755 -2.28253 0
M  V30 49 H 3.4803 0.930788 -1.09874 0
M  V30 50 H 5.4333 4.06804 -1.09948 0
M  V30 51 H 4.1573 3.2624 -0.153332 0
M  V30 52 H 2.8163 2.89169 -2.25337 0
M  V30 53 H 2.4643 4.95233 -0.880545 0
M  V30 54 H 2.1643 5.26529 -2.60846 0
M  V30 55 H 3.6883 5.81687 -1.85667 0
M  V30 56 H 5.1023 4.42168 -3.64911 0
M  V30 57 H 3.4993 4.10731 -4.37516 0
M  V30 58 H 4.5693 2.74527 -3.99703 0
M  V30 59 N 5.9124 1.20967 1.01018 0
M  V30 60 C 7.1524 1.03511 1.76252 0
M  V30 61 C 7.5164 -0.42458 1.87247 0
M  V30 62 O 8.7174 -0.719508 2.58991 0
M  V30 63 C 6.9884 1.70726 3.13986 0
M  V30 64 S 8.5474 1.68458 4.05176 0
M  V30 65 H 5.3654 0.371037 0.606508 0
M  V30 66 H 7.9674 1.53628 1.20908 0
M  V30 67 H 6.6714 2.76128 3.03614 0
M  V30 68 H 6.2024 1.20767 3.74405 0
M  V30 69 H 8.2174 0.721987 4.90919 0
M  V30 70 N 7.3905 -1.2043 1.01659 0
M  V30 71 C 8.6305 -1.91507 0.714456 0
M  V30 72 C 8.9945 -1.77073 -0.742237 0
M  V30 73 O 10.1955 -2.42631 -1.15688 0
M  V30 74 C 8.4665 -3.38795 1.13809 0
M  V30 75 S 10.0255 -4.28216 0.957925 0
M  V30 76 H 6.8435 -0.661571 0.260471 0
M  V30 77 H 9.4455 -1.45671 1.30384 0
M  V30 78 H 8.1495 -3.46822 2.19415 0
M  V30 79 H 7.6805 -3.89656 0.541474 0
M  V30 80 H 9.6955 -4.96007 -0.138531 0
M  V30 81 N 8.8686 -0.792821 -1.36206 0
M  V30 82 C 10.0936 -0.377701 -2.03932 0
M  V30 83 C 10.5186 0.998947 -1.59382 0
M  V30 84 O 9.8766 1.64421 -0.763903 0
M  V30 85 C 9.9246 -0.453635 -3.57735 0
M  V30 86 O 9.0286 0.538151 -4.08874 0
M  V30 87 H 8.3696 -0.159855 -0.644471 0
M  V30 88 H 10.8996 -1.07488 -1.7409 0
M  V30 89 H 10.9096 -0.318464 -4.06755 0
M  V30 90 H 9.5846 -1.45784 -3.89512 0
M  V30 91 H 8.1616 0.364359 -3.71116 0
M  V30 92 N 10.3467 1.47872 -0.545128 0
M  V30 93 C 11.2947 2.31533 0.222512 0
M  V30 94 C 12.2887 1.42177 0.920985 0
M  V30 95 O 13.4947 1.59005 0.843645 0
M  V30 96 H 9.8697 0.746519 0.0906278 0
M  V30 97 H 11.8407 2.94139 -0.50246 0
M  V30 98 C 10.5897 3.2457 1.24699 0
M  V30 99 H 9.9127 3.93283 0.718944 0
M  V30 100 H 11.3527 3.85963 1.75523 0
M  V30 101 C 9.8117 2.47237 2.28856 0
M  V30 102 O 10.3417 2.20808 3.35569 0
M  V30 103 N 8.5477 2.08461 2.02466 0
M  V30 104 H 8.0947 2.30155 1.157 0
M  V30 105 H 8.0527 1.57033 2.72375 0
M  V30 106 N 11.8248 0.280983 1.55075 0
M  V30 107 C 12.7728 -0.619864 2.24188 0
M  V30 108 C 13.7668 -1.15315 1.24092 0
M  V30 109 O 14.9728 -1.1061 1.42005 0
M  V30 110 H 11.3478 -0.218459 0.719569 0
M  V30 111 H 13.3188 -0.0141831 2.98397 0
M  V30 112 C 12.0678 -1.7899 2.98091 0
M  V30 113 H 11.3908 -1.38874 3.74905 0
M  V30 114 H 12.8308 -2.39672 3.49762 0
M  V30 115 C 11.2898 -2.68192 2.03899 0
M  V30 116 O 11.8198 -3.6872 1.594 0
M  V30 117 N 10.0258 -2.35488 1.70275 0
M  V30 118 H 9.5728 -1.53787 2.06658 0
M  V30 119 H 9.5308 -2.95442 1.07524 0
M  V30 120 N 13.3029 -1.57598 0.00835791 0
M  V30 121 C 14.5799 -1.82172 -0.712235 0
M  V30 122 C 14.9599 -0.887873 -1.9152 0
M  V30 123 O 14.3079 0.06146 -2.28417 0
M  V30 124 C 14.5179 -3.30875 -1.11008 0
M  V30 125 C 15.8659 -3.96826 -1.51044 0
M  V30 126 O 16.8899 -3.35248 -1.20364 0
M  V30 127 O 15.7489 -5.05318 -2.08125 0
M  V30 128 H 12.8429 -0.750435 -0.347529 0
M  V30 129 H 15.3889 -1.69665 0.0344523 0
M  V30 130 H 14.1609 -3.90481 -0.252982 0
M  V30 131 H 13.7839 -3.48412 -1.9156 0
M  V30 132 N 14.781 0.264519 -1.55364 0
M  V30 133 C 16.03 0.992812 -1.75574 0
M  V30 134 C 16.343 1.87142 -0.568979 0
M  V30 135 O 17.549 2.63513 -0.653682 0
M  V30 136 C 16.005 1.81519 -3.10771 0
M  V30 137 C 15.613 0.984839 -4.37041 0
M  V30 138 C 17.357 2.53727 -3.40327 0
M  V30 139 C 15.264 1.80209 -5.63275 0
M  V30 140 H 14.194 0.374412 -0.65447 0
M  V30 141 H 16.845 0.248138 -1.81815 0
M  V30 142 H 15.227 2.60115 -2.98591 0
M  V30 143 H 16.401 0.242455 -4.60162 0
M  V30 144 H 14.716 0.37691 -4.14691 0
M  V30 145 H 17.313 3.15292 -4.3185 0
M  V30 146 H 17.656 3.24447 -2.60845 0
M  V30 147 H 18.189 1.82156 -3.53644 0
M  V30 148 H 14.928 1.13896 -6.45529 0
M  V30 149 H 14.448 2.52022 -5.44284 0
M  V30 150 H 16.127 2.37364 -6.01887 0
M  V30 151 N 16.2591 1.48442 0.529413 0
M  V30 152 C 17.2061 1.63007 1.63394 0
M  V30 153 C 18.1761 0.47212 1.59249 0
M  V30 154 O 19.3611 0.695673 1.77666 0
M  V30 155 C 16.5011 1.6763 3.01653 0
M  V30 156 C 15.6141 2.94535 3.16027 0
M  V30 157 C 14.7491 2.90316 4.44849 0
M  V30 158 C 13.7881 4.11923 4.52754 0
M  V30 159 N 12.9251 4.05777 5.72965 0
M  V30 160 H 17.7651 2.5733 1.50285 0
M  V30 161 H 15.3021 1.27613 0.731656 0
M  V30 162 H 17.2601 1.68292 3.81751 0
M  V30 163 H 15.8901 0.76797 3.13532 0
M  V30 164 H 14.9421 3.03615 2.29177 0
M  V30 165 H 16.2541 3.84512 3.17729 0
M  V30 166 H 15.4081 2.89382 5.33238 0
M  V30 167 H 14.1471 1.98068 4.45668 0
M  V30 168 H 13.1521 4.13131 3.62771 0
M  V30 169 H 14.3771 5.0533 4.53672 0
M  V30 170 H 12.3231 3.16351 5.74681 0
M  V30 171 H 12.2401 4.8946 5.76164 0
M  V30 172 H 13.5081 4.08904 6.6364 0
M  V30 173 N 17.7372 -0.778329 1.37039 0
M  V30 174 C 18.6852 -1.91278 1.32345 0
M  V30 175 C 19.6792 -1.68051 0.213331 0
M  V30 176 O 20.8852 -1.75922 0.38098 0
M  V30 177 H 17.2602 -0.628909 0.412283 0
M  V30 178 H 19.2312 -1.92355 2.28127 0
M  V30 179 C 17.9802 -3.28455 1.14073 0
M  V30 180 H 17.3032 -3.46901 1.98746 0
M  V30 181 H 18.7432 -4.08152 1.14837 0
M  V30 182 C 17.2022 -3.36548 -0.154015 0
M  V30 183 O 17.7322 -3.85186 -1.13993 0
M  V30 184 N 15.9382 -2.89894 -0.202475 0
M  V30 185 H 15.4852 -2.50504 0.600476 0
M  V30 186 H 15.4432 -2.9569 -1.06841 0
M  V30 187 N 19.2153 -1.21501 -1.00376 0
M  V30 188 C 20.4403 -1.05977 -1.78279 0
M  V30 189 C 20.8653 0.385994 -1.84097 0
M  V30 190 O 20.2233 1.27849 -1.28547 0
M  V30 191 C 20.2713 -1.66302 -3.19963 0
M  V30 192 O 19.3753 -0.909333 -4.0225 0
M  V30 193 H 18.7163 -0.372906 -0.549397 0
M  V30 194 H 21.2463 -1.6107 -1.26165 0
M  V30 195 H 21.2563 -1.70574 -3.70632 0
M  V30 196 H 19.9313 -2.71515 -3.15043 0
M  V30 197 H 18.5083 -0.941795 -3.60811 0
M  V30 198 N 20.6934 1.19889 -1.02296 0
M  V30 199 C 21.6404 2.22901 -0.598651 0
M  V30 200 C 22.6104 1.61588 0.384521 0
M  V30 201 O 23.7954 1.88697 0.282522 0
M  V30 202 C 20.9354 3.45063 0.0504476 0
M  V30 203 C 20.0484 4.20783 -0.978053 0
M  V30 204 C 19.1834 5.30356 -0.299338 0
M  V30 205 C 18.2224 5.97826 -1.31416 0
M  V30 206 N 17.3594 6.98975 -0.661667 0
M  V30 207 H 22.1994 2.58554 -1.48169 0
M  V30 208 H 19.7364 1.27039 -0.741584 0
M  V30 209 H 21.6944 4.14831 0.443971 0
M  V30 210 H 20.3244 3.10084 0.897097 0
M  V30 211 H 19.3764 3.50018 -1.48969 0
M  V30 212 H 20.6884 4.67109 -1.74958 0
M  V30 213 H 19.8424 6.06516 0.149347 0
M  V30 214 H 18.5814 4.85084 0.504445 0
M  V30 215 H 17.5864 5.20422 -1.77317 0
M  V30 216 H 18.8114 6.45183 -2.11933 0
M  V30 217 H 16.7574 6.55886 0.122132 0
M  V30 218 H 16.6744 7.43461 -1.37117 0
M  V30 219 H 17.9424 7.7914 -0.236785 0
M  V30 220 N 22.1715 0.800033 1.35784 0
M  V30 221 C 23.3965 0.388511 2.03729 0
M  V30 222 C 23.8215 -0.990481 1.5991 0
M  V30 223 O 23.1795 -1.64013 0.772612 0
M  V30 224 C 23.2275 0.4726 3.5749 0
M  V30 225 O 22.3315 -0.51646 4.09153 0
M  V30 226 H 21.6725 0.163271 0.643614 0
M  V30 227 H 24.2025 1.0841 1.73518 0
M  V30 228 H 24.2125 0.34003 4.06581 0
M  V30 229 H 22.8875 1.47848 3.88734 0
M  V30 230 H 21.4645 -0.344673 3.71304 0
M  V30 231 N 23.6496 -1.47581 0.552962 0
M  V30 232 C 24.5976 -2.31648 -0.21023 0
M  V30 233 C 25.5916 -1.42663 -0.913432 0
M  V30 234 O 26.7976 -1.5945 -0.835201 0
M  V30 235 H 23.1726 -0.746989 -0.0866676 0
M  V30 236 H 25.1436 -2.93869 0.518051 0
M  V30 237 C 23.8926 -3.25226 -1.22976 0
M  V30 238 H 23.2156 -3.93658 -0.698077 0
M  V30 239 H 24.6556 -3.86889 -1.73473 0
M  V30 240 C 23.1146 -2.48448 -2.27542 0
M  V30 241 O 23.6446 -2.22585 -3.34393 0
M  V30 242 N 21.8506 -2.09532 -2.01357 0
M  V30 243 H 21.3976 -2.30765 -1.14478 0
M  V30 244 H 21.3556 -1.58476 -2.71538 0
M  V30 245 N 25.1277 -0.289203 -1.54924 0
M  V30 246 C 26.3767 0.324231 -1.99077 0
M  V30 247 C 26.6897 1.5591 -1.18117 0
M  V30 248 O 27.8957 2.24637 -1.52481 0
M  V30 249 C 26.3517 0.628209 -3.54375 0
M  V30 250 C 25.9597 -0.587647 -4.44129 0
M  V30 251 C 27.7037 1.20349 -4.07083 0
M  V30 252 C 25.6107 -0.257475 -5.90839 0
M  V30 253 H 24.5407 0.124924 -0.743579 0
M  V30 254 H 27.1917 -0.396063 -1.79175 0
M  V30 255 H 25.5737 1.40778 -3.70132 0
M  V30 256 H 26.7477 -1.36418 -4.40144 0
M  V30 257 H 25.0627 -1.08074 -4.0213 0
M  V30 258 H 27.6597 1.46456 -5.14252 0
M  V30 259 H 28.0027 2.14195 -3.56968 0
M  V30 260 H 28.5357 0.485889 -3.94821 0
M  V30 261 H 25.2747 -1.16419 -6.45079 0
M  V30 262 H 24.7947 0.482018 -5.9786 0
M  V30 263 H 26.4737 0.145238 -6.46837 0
M  V30 264 N 26.6058 1.57591 -0.0167156 0
M  V30 265 C 27.8828 1.82547 0.702564 0
M  V30 266 C 28.2628 0.898018 1.91047 0
M  V30 267 O 27.6108 -0.0493456 2.28447 0
M  V30 268 C 27.8208 3.31459 1.09251 0
M  V30 269 C 29.1688 3.97622 1.48937 0
M  V30 270 O 30.1928 3.35881 1.18584 0
M  V30 271 O 29.0518 5.06415 2.05442 0
M  V30 272 H 26.1458 0.752268 0.343544 0
M  V30 273 H 28.6918 1.69644 -0.0434495 0
M  V30 274 H 27.4638 3.9061 0.23227 0
M  V30 275 H 27.0868 3.49422 1.89709 0
M  V30 276 N 28.0839 -0.256276 1.55502 0
M  V30 277 C 29.3329 -0.983486 1.76098 0
M  V30 278 C 29.6459 -1.86837 0.578896 0
M  V30 279 O 30.8519 -2.63163 0.667648 0
M  V30 280 C 29.3079 -1.79868 3.1173 0
M  V30 281 C 28.9159 -0.961648 4.37557 0
M  V30 282 C 30.6599 -2.51919 3.41668 0
M  V30 283 C 28.5669 -1.77219 5.64223 0
M  V30 284 H 27.4969 -0.370936 0.656447 0
M  V30 285 H 30.1479 -0.238492 1.81944 0
M  V30 286 H 28.5299 -2.58527 2.99966 0
M  V30 287 H 29.7039 -0.218048 4.60284 0
M  V30 288 H 28.0189 -0.354913 4.14885 0
M  V30 289 H 30.6159 -3.12998 4.33516 0
M  V30 290 H 30.9589 -3.23059 2.62562 0
M  V30 291 H 31.4919 -1.80278 3.54605 0
M  V30 292 H 28.2309 -1.10471 6.46124 0
M  V30 293 H 27.7509 -2.49132 5.45613 0
M  V30 294 H 29.4299 -2.34169 6.03137 0
M  V30 295 N 29.562 -1.4872 -0.521534 0
M  V30 296 C 30.809 -1.57168 -1.27689 0
M  V30 297 C 31.137 -0.249275 -1.92896 0
M  V30 298 O 30.392 0.761162 -1.80291 0
M  V30 299 C 30.691 -2.66497 -2.38148 0
M  V30 300 C 30.357 -4.08664 -1.90538 0
M  V30 301 C 29.019 -4.47357 -1.77271 0
M  V30 302 C 31.371 -4.97724 -1.54663 0
M  V30 303 C 28.699 -5.72905 -1.26478 0
M  V30 304 C 31.051 -6.2377 -1.05329 0
M  V30 305 C 29.715 -6.61311 -0.906861 0
M  V30 306 H 28.985 -0.575117 -0.467249 0
M  V30 307 H 31.632 -1.82472 -0.581051 0
M  V30 308 H 29.937 -2.35085 -3.13437 0
M  V30 309 H 31.634 -2.70246 -2.96257 0
M  V30 310 H 28.224 -3.78111 -2.01816 0
M  V30 311 H 32.408 -4.68501 -1.63768 0
M  V30 312 H 27.664 -6.00709 -1.13835 0
M  V30 313 H 31.838 -6.9217 -0.76644 0
M  V30 314 H 29.465 -7.5848 -0.511083 0
M  V30 315 N 31.0401 0.771051 -1.3745 0
M  V30 316 C 31.9721 1.89352 -1.29146 0
M  V30 317 C 32.9851 1.61477 -0.207124 0
M  V30 318 O 34.1741 1.72382 -0.463324 0
M  V30 319 C 31.2741 3.24596 -0.974195 0
M  V30 320 C 30.4471 3.80111 -2.16413 0
M  V30 321 C 29.5061 4.93832 -1.81703 0
M  V30 322 O 28.5321 5.09382 -2.54006 0
M  V30 323 N 29.7341 5.75483 -0.761573 0
M  V30 324 H 32.4991 1.96991 -2.25864 0
M  V30 325 H 30.0601 0.950191 -1.31084 0
M  V30 326 H 32.0521 3.98193 -0.722828 0
M  V30 327 H 30.6221 3.12454 -0.0955527 0
M  V30 328 H 29.8421 2.98284 -2.57721 0
M  V30 329 H 31.1301 4.13932 -2.95867 0
M  V30 330 H 30.5281 5.65469 -0.161609 0
M  V30 331 H 29.0851 6.49302 -0.570064 0
M  V30 332 N 32.5182 1.22032 0.997298 0
M  V30 333 C 33.7952 0.950823 1.70935 0
M  V30 334 C 34.1752 -0.535292 2.042 0
M  V30 335 O 33.5232 -1.50217 1.72183 0
M  V30 336 C 33.7332 1.84386 2.96315 0
M  V30 337 C 35.0812 2.09732 3.69185 0
M  V30 338 O 36.1052 1.81798 3.06314 0
M  V30 339 O 34.9642 2.57018 4.82291 0
M  V30 340 H 32.0582 0.357204 0.745878 0
M  V30 341 H 34.6042 1.32997 1.05404 0
M  V30 342 H 33.3762 2.84928 2.68201 0
M  V30 343 H 32.9992 1.46602 3.69586 0
M  V30 344 N 33.9963 -1.19345 1.0293 0
M  V30 345 C 34.9443 -2.24621 0.604001 0
M  V30 346 C 35.9383 -1.65452 -0.363587 0
M  V30 347 O 37.1443 -1.78497 -0.23212 0
M  V30 348 H 33.5193 -0.730858 0.177061 0
M  V30 349 H 35.4903 -2.5781 1.50255 0
M  V30 350 C 34.2393 -3.47688 -0.0289127 0
M  V30 351 H 33.5623 -3.93505 0.706651 0
M  V30 352 H 35.0023 -4.23011 -0.289432 0
M  V30 353 C 33.4613 -3.11817 -1.2756 0
M  V30 354 O 33.9913 -3.2451 -2.36762 0
M  V30 355 N 32.1973 -2.66246 -1.16453 0
M  V30 356 H 31.7443 -2.56118 -0.275914 0
M  V30 357 H 31.7023 -2.42617 -1.99961 0
M  V30 358 N 35.4744 -0.807222 -1.35358 0
M  V30 359 C 36.3844 -0.219594 -2.3357 0
M  V30 360 C 37.4004 0.637734 -1.61892 0
M  V30 361 O 38.5764 0.549336 -1.93763 0
M  V30 362 C 35.6414 0.62158 -3.41083 0
M  V30 363 C 34.7024 -0.256315 -4.28534 0
M  V30 364 C 33.9354 0.544807 -5.30912 0
M  V30 365 O 34.1584 1.77944 -5.41934 0
M  V30 366 O 33.0924 -0.0646478 -6.01865 0
M  V30 367 H 36.9184 -1.03208 -2.85625 0
M  V30 368 H 34.5034 -0.569025 -1.38139 0
M  V30 369 H 36.3854 1.10067 -4.06772 0
M  V30 370 H 35.0604 1.41165 -2.91297 0
M  V30 371 H 33.9674 -0.782559 -3.65823 0
M  V30 372 H 35.3004 -1.01034 -4.81719 0
M  V30 373 N 36.9525 1.47285 -0.560781 0
M  V30 374 C 38.2015 2.01668 -0.035895 0
M  V30 375 C 38.5145 1.44021 1.32353 0
M  V30 376 O 39.7205 1.90088 1.93853 0
M  V30 377 C 38.1765 3.59897 -0.0136659 0
M  V30 378 C 37.7845 4.26536 -1.37006 0
M  V30 379 C 39.5285 4.22017 0.458425 0
M  V30 380 C 37.4355 5.76782 -1.30675 0
M  V30 381 H 36.3655 0.753938 -0.00964879 0
M  V30 382 H 39.0165 1.69243 -0.709166 0
M  V30 383 H 37.3985 3.89301 0.725325 0
M  V30 384 H 38.5725 4.0877 -2.12705 0
M  V30 385 H 36.8875 3.76419 -1.78038 0
M  V30 386 H 39.4845 5.32124 0.524247 0
M  V30 387 H 39.8275 3.89437 1.4712 0
M  V30 388 H 40.3605 3.97159 -0.225818 0
M  V30 389 H 37.0995 6.13988 -2.29564 0
M  V30 390 H 36.6195 5.96875 -0.591622 0
M  V30 391 H 38.2985 6.39063 -1.01033 0
M  V30 392 N 38.4306 0.297415 1.54768 0
M  V30 393 C 39.6606 -0.315165 2.04182 0
M  V30 394 C 40.0686 -1.4834 1.17439 0
M  V30 395 O 39.4116 -1.82695 0.191891 0
M  V30 396 C 39.4736 -0.837583 3.49607 0
M  V30 397 C 39.1376 0.204912 4.5654 0
M  V30 398 C 40.1346 1.03214 5.09552 0
M  V30 399 C 37.8196 0.345578 5.0111 0
M  V30 400 C 39.8136 1.986 6.05671 0
M  V30 401 C 37.5006 1.30289 5.97049 0
M  V30 402 C 38.4986 2.12159 6.49213 0
M  V30 403 O 38.1866 3.06268 7.43273 0
M  V30 404 H 37.9186 -0.0729646 0.672051 0
M  V30 405 H 40.4726 0.433907 2.00765 0
M  V30 406 H 38.7026 -1.63712 3.50336 0
M  V30 407 H 40.3916 -1.36566 3.82236 0
M  V30 408 H 41.1576 0.934312 4.75916 0
M  V30 409 H 37.0366 -0.28171 4.60138 0
M  V30 410 H 40.5806 2.62542 6.46311 0
M  V30 411 H 36.4776 1.40145 6.30103 0
M  V30 412 H 37.2456 3.01205 7.61064 0
M  V30 413 N 39.9087 -1.5758 0.0250728 0
M  V30 414 C 41.1567 -1.91255 -0.653151 0
M  V30 415 C 41.4777 -0.901691 -1.729 0
M  V30 416 O 40.7477 0.0573785 -1.95816 0
M  V30 417 H 39.3277 -0.705942 -0.244243 0
M  V30 418 H 41.9897 -1.94767 0.0719209 0
M  V30 419 H 41.0857 -2.91752 -1.10847 0
M  V30 420 N 41.3868 0.248026 -1.55636 0
M  V30 421 C 42.6638 0.998988 -1.68165 0
M  V30 422 C 43.0438 2.03409 -0.564621 0
M  V30 423 O 42.3918 2.24378 0.432076 0
M  V30 424 C 42.6018 1.63334 -3.0842 0
M  V30 425 C 43.9498 2.13562 -3.66983 0
M  V30 426 O 44.9738 1.73277 -3.11213 0
M  V30 427 O 43.8328 2.87526 -4.64749 0
M  V30 428 H 40.9268 0.464933 -0.683935 0
M  V30 429 H 43.4728 0.241902 -1.67967 0
M  V30 430 H 42.2448 0.884583 -3.8117 0
M  V30 431 H 41.8678 2.45666 -3.12624 0
M  V30 432 N 42.8649 1.48995 0.513639 0
M  V30 433 C 43.8129 1.65199 1.63744 0
M  V30 434 C 44.8069 0.51809 1.61283 0
M  V30 435 O 46.0129 0.697335 1.65943 0
M  V30 436 H 42.3879 0.52069 0.542574 0
M  V30 437 H 44.3589 2.59552 1.47226 0
M  V30 438 C 43.1079 1.72409 3.01945 0
M  V30 439 H 42.4309 2.59029 3.04539 0
M  V30 440 H 43.8709 1.87785 3.80148 0
M  V30 441 C 42.3299 0.46618 3.33659 0
M  V30 442 O 42.8599 -0.413744 3.99564 0
M  V30 443 N 41.0659 0.332931 2.88687 0
M  V30 444 H 40.6129 1.04996 2.35231 0
M  V30 445 H 40.5709 -0.507665 3.10274 0
M  V30 446 N 44.343 -0.763751 1.37857 0
M  V30 447 C 45.253 -1.90817 1.36478 0
M  V30 448 C 46.269 -1.71997 0.263248 0
M  V30 449 O 47.445 -1.95095 0.499979 0
M  V30 450 C 44.51 -3.2605 1.17864 0
M  V30 451 C 43.571 -3.57467 2.3773 0
M  V30 452 C 42.804 -4.86249 2.19995 0
M  V30 453 O 43.027 -5.57884 1.18836 0
M  V30 454 O 41.961 -5.16911 3.08361 0
M  V30 455 H 45.787 -1.94933 2.32884 0
M  V30 456 H 43.372 -0.907619 1.1867 0
M  V30 457 H 45.254 -4.06924 1.09504 0
M  V30 458 H 43.929 -3.22769 0.245372 0
M  V30 459 H 42.836 -2.76796 2.51664 0
M  V30 460 H 44.169 -3.655 3.29652 0
M  V30 461 N 45.8211 -1.22559 -0.990812 0
M  V30 462 C 46.7691 -0.994798 -2.10253 0
M  V30 463 C 47.7631 0.0627798 -1.69284 0
M  V30 464 O 48.9691 -0.0898392 -1.79776 0
M  V30 465 H 45.3441 -0.304527 -0.687581 0
M  V30 466 H 47.3151 -1.93812 -2.26891 0
M  V30 467 C 46.0641 -0.591439 -3.42633 0
M  V30 468 H 45.3871 -1.3969 -3.74602 0
M  V30 469 H 46.8271 -0.469385 -4.21394 0
M  V30 470 C 45.2861 0.699232 -3.29564 0
M  V30 471 O 45.8161 1.75112 -3.61523 0
M  V30 472 N 44.0221 0.671182 -2.82743 0
M  V30 473 H 43.5691 -0.185136 -2.56934 0
M  V30 474 H 43.5271 1.53502 -2.7438 0
M  V30 475 N 47.2992 1.18797 -1.03562 0
M  V30 476 C 48.5452 1.89192 -0.746867 0
M  V30 477 C 48.9002 1.78531 0.717245 0
M  V30 478 O 48.1932 1.17137 1.51622 0
M  V30 479 C 48.3872 3.38692 -1.14117 0
M  V30 480 C 48.2162 3.63902 -2.64207 0
M  V30 481 C 46.9862 3.81553 -3.31279 0
M  V30 482 C 49.1842 3.64903 -3.62423 0
M  V30 483 N 47.1662 3.94455 -4.70402 0
M  V30 484 C 48.5372 3.83458 -4.87196 0
M  V30 485 C 50.5922 3.47965 -3.56125 0
M  V30 486 C 49.2952 3.86829 -6.06429 0
M  V30 487 C 51.3212 3.52616 -4.7478 0
M  V30 488 C 50.6832 3.71663 -5.9837 0
M  V30 489 H 46.7822 0.711141 -0.325273 0
M  V30 490 H 49.3662 1.42727 -1.32428 0
M  V30 491 H 47.5372 3.83864 -0.591889 0
M  V30 492 H 49.2692 3.96634 -0.803966 0
M  V30 493 H 46.0242 3.80723 -2.81686 0
M  V30 494 H 46.4482 4.0474 -5.42692 0
M  V30 495 H 51.0902 3.32189 -2.61553 0
M  V30 496 H 48.8082 4.01395 -7.01362 0
M  V30 497 H 52.3942 3.40791 -4.71543 0
M  V30 498 H 51.2742 3.75145 -6.88648 0
M  V30 499 N 48.7773 0.814389 1.34928 0
M  V30 500 C 50.0053 0.411136 2.02774 0
M  V30 501 C 50.4203 -0.980316 1.61354 0
M  V30 502 O 49.7773 -1.63299 0.814847 0
M  V30 503 C 49.8283 0.493865 3.58111 0
M  V30 504 O 49.5493 1.83047 3.98027 0
M  V30 505 C 51.0503 0.0844174 4.4322 0
M  V30 506 H 48.2703 0.166037 0.650133 0
M  V30 507 H 50.8143 1.10018 1.72384 0
M  V30 508 H 48.9693 -0.147006 3.87121 0
M  V30 509 H 49.3833 1.79872 4.92693 0
M  V30 510 H 50.8573 0.193404 5.51661 0
M  V30 511 H 51.3343 -0.97113 4.28329 0
M  V30 512 H 51.9403 0.69875 4.19521 0
M  V30 513 N 50.2554 -1.46986 0.568584 0
M  V30 514 C 51.1854 -2.32946 -0.160753 0
M  V30 515 C 52.1664 -1.44487 -0.897631 0
M  V30 516 O 53.3514 -1.73327 -0.875867 0
M  V30 517 C 50.4814 -3.26494 -1.18403 0
M  V30 518 C 49.4354 -4.24282 -0.562895 0
M  V30 519 C 48.7614 -5.07236 -1.69163 0
M  V30 520 C 50.0614 -5.19989 0.490761 0
M  V30 521 H 51.7554 -2.94175 0.556916 0
M  V30 522 H 49.3014 -1.4146 0.26927 0
M  V30 523 H 51.2544 -3.85477 -1.70251 0
M  V30 524 H 49.9784 -2.63343 -1.93179 0
M  V30 525 H 48.6374 -3.66541 -0.0656164 0
M  V30 526 H 48.2854 -4.4048 -2.42871 0
M  V30 527 H 47.9854 -5.7345 -1.28174 0
M  V30 528 H 49.5094 -5.6908 -2.21314 0
M  V30 529 H 50.9234 -5.73271 0.0579047 0
M  V30 530 H 49.3204 -5.94469 0.820165 0
M  V30 531 H 50.3904 -4.64777 1.3824 0
M  V30 532 N 51.7335 -0.305618 -1.54608 0
M  V30 533 C 52.6435 0.57778 -2.27374 0
M  V30 534 C 53.6595 1.14451 -1.31061 0
M  V30 535 O 54.8355 1.16831 -1.6405 0
M  V30 536 C 51.9005 1.73123 -3.00382 0
M  V30 537 C 50.9615 1.19812 -4.12242 0
M  V30 538 C 50.1945 2.2966 -4.81759 0
M  V30 539 O 50.4175 3.49651 -4.50666 0
M  V30 540 O 49.3515 1.96091 -5.69062 0
M  V30 541 H 53.1775 -0.012624 -3.03697 0
M  V30 542 H 50.7625 -0.0719184 -1.49227 0
M  V30 543 H 52.6445 2.40315 -3.4616 0
M  V30 544 H 51.3195 2.30815 -2.26949 0
M  V30 545 H 50.2265 0.491798 -3.70853 0
M  V30 546 H 51.5595 0.666566 -4.87666 0
M  V30 547 N 53.2116 1.57565 -0.0334293 0
M  V30 548 C 54.1596 2.1164 0.96496 0
M  V30 549 C 55.1536 1.04398 1.33407 0
M  V30 550 O 56.3596 1.22828 1.3158 0
M  V30 551 H 52.7346 0.676222 0.32898 0
M  V30 552 H 54.7056 2.94455 0.483614 0
M  V30 553 C 53.4546 2.66207 2.23672 0
M  V30 554 H 52.7776 3.48378 1.96145 0
M  V30 555 H 54.2176 3.07685 2.9173 0
M  V30 556 C 52.6766 1.59151 2.96939 0
M  V30 557 O 53.2066 0.993858 3.89211 0
M  V30 558 N 51.4126 1.31093 2.59351 0
M  V30 559 H 50.9596 1.7988 1.84393 0
M  V30 560 H 50.9176 0.596889 3.08682 0
M  V30 561 N 54.6897 -0.239769 1.55765 0
M  V30 562 C 55.9357 -0.963942 1.79108 0
M  V30 563 C 56.2907 -1.82689 0.60352 0
M  V30 564 O 55.5837 -1.87313 -0.403033 0
M  V30 565 C 55.7777 -1.852 3.05672 0
M  V30 566 C 55.6067 -1.07651 4.36625 0
M  V30 567 C 54.3767 -0.778738 4.99263 0
M  V30 568 C 56.5747 -0.45062 5.12322 0
M  V30 569 N 54.5567 0.0200708 6.13897 0
M  V30 570 C 55.9277 0.212429 6.19636 0
M  V30 571 C 57.9827 -0.361806 4.96584 0
M  V30 572 C 56.6857 0.955772 7.12922 0
M  V30 573 C 58.7117 0.368023 5.90254 0
M  V30 574 C 58.0737 1.01968 6.96981 0
M  V30 575 H 54.1727 -0.333601 0.707272 0
M  V30 576 H 56.7567 -0.236425 1.93259 0
M  V30 577 H 54.9277 -2.55149 2.92837 0
M  V30 578 H 56.6597 -2.51228 3.1728 0
M  V30 579 H 53.4147 -1.09229 4.60832 0
M  V30 580 H 53.8387 0.407777 6.75771 0
M  V30 581 H 58.4807 -0.851286 4.14141 0
M  V30 582 H 56.1987 1.45683 7.9486 0
M  V30 583 H 59.7847 0.437504 5.80153 0
M  V30 584 H 58.6647 1.5754 7.68213 0
M  V30 585 N 56.1678 -1.49265 -0.50573 0
M  V30 586 C 57.4168 -1.57761 -1.25675 0
M  V30 587 C 57.7298 -0.267371 -1.93764 0
M  V30 588 O 58.9358 -0.230827 -2.70517 0
M  V30 589 C 57.3918 -2.78332 -2.28165 0
M  V30 590 C 56.9998 -4.16096 -1.66037 0
M  V30 591 C 58.7438 -2.96155 -3.04125 0
M  V30 592 C 56.6508 -5.27895 -2.6661 0
M  V30 593 H 55.5808 -0.587391 -0.472745 0
M  V30 594 H 58.2318 -1.75644 -0.53118 0
M  V30 595 H 56.6138 -2.53934 -3.03865 0
M  V30 596 H 57.7878 -4.50612 -0.963622 0
M  V30 597 H 56.1028 -4.03591 -1.02484 0
M  V30 598 H 58.6998 -3.76849 -3.79327 0
M  V30 599 H 59.0428 -2.06534 -3.61455 0
M  V30 600 H 59.5758 -3.2057 -2.35541 0
M  V30 601 H 56.3148 -6.1956 -2.14068 0
M  V30 602 H 55.8348 -4.97839 -3.34539 0
M  V30 603 H 57.5138 -5.57031 -3.29129 0
M  V30 604 N 57.6459 0.756429 -1.3826 0
M  V30 605 C 58.5939 1.89149 -1.35372 0
M  V30 606 C 59.5879 1.67691 -0.24004 0
M  V30 607 O 60.7939 1.75294 -0.408919 0
M  V30 608 H 57.1689 0.622271 -0.422236 0
M  V30 609 H 59.1399 1.88701 -2.31159 0
M  V30 610 C 57.8889 3.26599 -1.19284 0
M  V30 611 H 57.2119 3.43695 -2.0424 0
M  V30 612 H 58.6519 4.06274 -1.21316 0
M  V30 613 C 57.1109 3.3675 0.100454 0
M  V30 614 O 57.6409 3.86951 1.07851 0
M  V30 615 N 55.8469 2.90179 0.15633 0
M  V30 616 H 55.3939 2.49517 -0.640253 0
M  V30 617 H 55.3519 2.97352 1.02123 0
M  V30 618 N 59.124 1.23083 0.984299 0
M  V30 619 C 60.071 1.00854 2.07598 0
M  V30 620 C 61.041 -0.0726709 1.65941 0
M  V30 621 O 62.226 0.0786535 1.90638 0
M  V30 622 C 59.366 0.601645 3.39815 0
M  V30 623 C 58.479 1.75456 3.94765 0
M  V30 624 C 57.614 1.29482 5.15177 0
M  V30 625 C 56.653 2.41873 5.62284 0
M  V30 626 N 55.79 1.96885 6.73929 0
M  V30 627 H 60.63 1.943 2.25946 0
M  V30 628 H 58.167 0.968001 1.10762 0
M  V30 629 H 60.125 0.346854 4.15756 0
M  V30 630 H 58.755 -0.295803 3.21442 0
M  V30 631 H 57.807 2.12346 3.15616 0
M  V30 632 H 59.119 2.59965 4.25699 0
M  V30 633 H 58.273 0.997923 5.98437 0
M  V30 634 H 57.012 0.420046 4.85888 0
M  V30 635 H 56.017 2.72342 4.77608 0
M  V30 636 H 57.242 3.29881 5.93595 0
M  V30 637 H 55.188 1.11782 6.46406 0
M  V30 638 H 55.105 2.74956 7.04227 0
M  V30 639 H 56.373 1.70289 7.60672 0
M  V30 640 N 60.6021 -1.18246 1.0419 0
M  V30 641 C 61.8321 -1.91916 0.764961 0
M  V30 642 C 62.2401 -1.76485 -0.681898 0
M  V30 643 O 61.5831 -1.09275 -1.47664 0
M  V30 644 C 61.6451 -3.4373 1.05309 0
M  V30 645 C 61.3091 -3.8294 2.4941 0
M  V30 646 C 62.3061 -3.86621 3.47592 0
M  V30 647 C 59.9911 -4.142 2.84155 0
M  V30 648 C 61.9851 -4.21013 4.78568 0
M  V30 649 C 59.6721 -4.48262 4.15337 0
M  V30 650 C 60.6701 -4.51645 5.12353 0
M  V30 651 O 60.3581 -4.84911 6.41183 0
M  V30 652 H 60.0901 -0.61606 0.278292 0
M  V30 653 H 62.6441 -1.50947 1.39299 0
M  V30 654 H 60.8741 -3.84946 0.367933 0
M  V30 655 H 62.5631 -3.9865 0.763752 0
M  V30 656 H 63.3291 -3.62607 3.22089 0
M  V30 657 H 59.2081 -4.10743 2.09311 0
M  V30 658 H 62.7521 -4.23568 5.54289 0
M  V30 659 H 58.6491 -4.71737 4.40607 0
M  V30 660 H 59.4171 -5.02809 6.45852 0
M  V30 661 N 62.0802 -0.821533 -1.34494 0
M  V30 662 C 63.0272 -0.240397 -2.29545 0
M  V30 663 C 63.9972 0.634031 -1.53523 0
M  V30 664 O 65.1822 0.575966 -1.81899 0
M  V30 665 C 62.3222 0.592869 -3.39969 0
M  V30 666 C 61.4352 -0.30365 -4.30932 0
M  V30 667 C 60.5702 0.539049 -5.28458 0
M  V30 668 C 59.6092 -0.356942 -6.11058 0
M  V30 669 N 58.7462 0.446603 -7.00678 0
M  V30 670 H 63.5862 -1.05632 -2.7865 0
M  V30 671 H 61.1232 -0.532413 -1.37127 0
M  V30 672 H 63.0812 1.09129 -4.02675 0
M  V30 673 H 61.7112 1.37392 -2.92102 0
M  V30 674 H 60.7632 -0.920276 -3.691 0
M  V30 675 H 62.0752 -0.992661 -4.88823 0
M  V30 676 H 61.2292 1.102 -5.96608 0
M  V30 677 H 59.9682 1.26157 -4.71101 0
M  V30 678 H 58.9732 -0.932047 -5.41842 0
M  V30 679 H 60.1982 -1.07755 -6.70497 0
M  V30 680 H 58.1442 1.15282 -6.45791 0
M  V30 681 H 58.0612 -0.184048 -7.55776 0
M  V30 682 H 59.3292 0.992352 -7.73158 0
M  V30 683 N 63.5583 1.46682 -0.576371 0
M  V30 684 C 64.7833 2.07304 -0.0630475 0
M  V30 685 C 65.2083 1.42329 1.2298 0
M  V30 686 O 64.5663 0.504865 1.74129 0
M  V30 687 C 64.6143 3.60472 0.095895 0
M  V30 688 O 63.7183 3.95927 1.15394 0
M  V30 689 H 63.0593 0.661288 -0.0599463 0
M  V30 690 H 65.5893 1.88417 -0.797511 0
M  V30 691 H 65.5993 4.06865 0.304071 0
M  V30 692 H 64.2743 4.07157 -0.84828 0
M  V30 693 H 62.8513 3.61252 0.924724 0
M  V30 694 N 65.0364 0.313813 1.54444 0
M  V30 695 C 66.2844 -0.291099 1.99993 0
M  V30 696 C 66.6054 -1.53418 1.20366 0
M  V30 697 O 65.8754 -1.93544 0.302927 0
M  V30 698 H 64.4554 -0.110552 0.738774 0
M  V30 699 H 67.1174 0.428106 1.9014 0
M  V30 700 H 66.2134 -0.554268 3.07139 0
M  V30 701 N 66.5145 -1.57545 0.0417849 0
M  V30 702 C 67.4625 -2.12148 -0.953723 0
M  V30 703 C 68.4565 -1.05104 -1.32852 0
M  V30 704 O 69.6625 -1.23524 -1.30927 0
M  V30 705 H 66.0375 -0.677957 -0.325389 0
M  V30 706 H 68.0085 -2.94707 -0.467991 0
M  V30 707 C 66.7575 -2.6739 -2.22257 0
M  V30 708 H 66.0805 -3.49413 -1.94295 0
M  V30 709 H 67.5205 -3.09227 -2.90094 0
M  V30 710 C 65.9795 -1.60723 -2.96091 0
M  V30 711 O 66.5095 -1.01449 -3.88679 0
M  V30 712 N 64.7155 -1.32466 -2.58652 0
M  V30 713 H 64.2625 -1.80856 -1.83437 0
M  V30 714 H 64.2205 -0.61325 -3.08361 0
M  V30 715 N 67.9926 0.231505 -1.5589 0
M  V30 716 C 69.2176 0.978689 -1.82856 0
M  V30 717 C 69.6426 1.77559 -0.620846 0
M  V30 718 O 69.0006 1.76119 0.430305 0
M  V30 719 C 69.0486 1.87997 -3.07716 0
M  V30 720 O 68.1526 2.97393 -2.85712 0
M  V30 721 H 67.4936 0.277663 -0.603158 0
M  V30 722 H 70.0236 0.24783 -2.03093 0
M  V30 723 H 70.0336 2.2917 -3.37558 0
M  V30 724 H 68.7086 1.29417 -3.95252 0
M  V30 725 H 67.2856 2.60238 -2.67078 0
M  V30 726 N 69.4707 1.49531 0.497807 0
M  V30 727 C 70.7197 1.58426 1.24837 0
M  V30 728 C 71.0327 0.277643 1.93619 0
M  V30 729 O 72.2387 0.24517 2.70391 0
M  V30 730 C 70.6947 2.79538 2.26686 0
M  V30 731 C 70.3027 4.16971 1.63828 0
M  V30 732 C 72.0467 2.97764 3.0255 0
M  V30 733 C 69.9537 5.29301 2.63807 0
M  V30 734 H 68.8837 0.58989 0.469623 0
M  V30 735 H 71.5347 1.75923 0.521857 0
M  V30 736 H 69.9167 2.55542 3.02514 0
M  V30 737 H 71.0907 4.51116 0.939711 0
M  V30 738 H 69.4057 4.04129 1.00342 0
M  V30 739 H 72.0027 3.78856 3.77323 0
M  V30 740 H 72.3457 2.08448 3.60354 0
M  V30 741 H 72.8787 3.21815 2.33838 0
M  V30 742 H 69.6177 6.20687 2.10779 0
M  V30 743 H 69.1377 4.99606 3.31894 0
M  V30 744 H 70.8167 5.58768 3.2617 0
M  V30 745 N 70.9488 -0.749086 1.3866 0
M  V30 746 C 71.8958 -1.86291 1.36251 0
M  V30 747 C 72.8658 -1.64578 0.224347 0
M  V30 748 O 74.0508 -1.86181 0.417279 0
M  V30 749 C 71.1908 -3.23644 1.19786 0
M  V30 750 C 70.3038 -3.57158 2.43027 0
M  V30 751 C 69.4388 -4.83838 2.19258 0
M  V30 752 C 68.4778 -5.10152 3.38247 0
M  V30 753 N 67.6148 -6.28029 3.13884 0
M  V30 754 H 72.4548 -1.87685 2.3147 0
M  V30 755 H 69.9918 -0.917287 1.14997 0
M  V30 756 H 71.9498 -4.0291 1.08254 0
M  V30 757 H 70.5798 -3.21566 0.282031 0
M  V30 758 H 69.6318 -2.72701 2.65214 0
M  V30 759 H 70.9438 -3.7253 3.31697 0
M  V30 760 H 70.0978 -5.71057 2.04888 0
M  V30 761 H 68.8368 -4.70614 1.2796 0
M  V30 762 H 67.8418 -4.21401 3.53131 0
M  V30 763 H 69.0668 -5.25271 4.30427 0
M  V30 764 H 67.0128 -6.1612 2.25238 0
M  V30 765 H 66.9298 -6.43922 3.96106 0
M  V30 766 H 68.1978 -7.18124 3.03179 0
M  V30 767 N 72.4269 -1.23603 -0.977757 0
M  V30 768 C 73.6729 -1.07129 -1.72195 0
M  V30 769 C 74.0059 0.390501 -1.90233 0
M  V30 770 O 73.2809 1.28902 -1.45653 0
M  V30 771 C 73.5639 -1.80031 -3.11867 0
M  V30 772 C 73.4169 -3.33899 -3.01383 0
M  V30 773 C 74.7359 -1.56492 -4.11337 0
M  V30 774 H 71.8549 -0.390571 -0.624999 0
M  V30 775 H 74.4969 -1.52142 -1.13811 0
M  V30 776 H 72.6469 -1.41768 -3.6171 0
M  V30 777 H 74.3189 -3.81699 -2.59043 0
M  V30 778 H 72.5619 -3.62796 -2.37827 0
M  V30 779 H 73.2329 -3.801 -4.00285 0
M  V30 780 H 75.7089 -1.89757 -3.70313 0
M  V30 781 H 74.5849 -2.09973 -5.07151 0
M  V30 782 H 74.8459 -0.500874 -4.39254 0
M  V30 783 N 73.905 1.17692 -1.04816 0
M  V30 784 C 74.868 2.19787 -0.650117 0
M  V30 785 C 75.868 1.58044 0.296427 0
M  V30 786 O 77.058 1.74012 0.0808097 0
M  V30 787 C 74.19 3.40869 0.0456987 0
M  V30 788 H 75.383 2.56516 -1.5537 0
M  V30 789 H 72.936 1.31708 -0.841594 0
M  V30 790 H 73.671 3.09681 0.962726 0
M  V30 791 H 73.456 3.86928 -0.634727 0
M  V30 792 H 74.946 4.16445 0.310432 0
M  V30 793 N 75.3831 0.828654 1.34056 0
M  V30 794 C 76.6301 0.419458 1.98108 0
M  V30 795 C 76.9581 -1.01886 1.65679 0
M  V30 796 O 76.2131 -1.72539 0.923512 0
M  V30 797 C 76.5121 0.575226 3.52741 0
M  V30 798 C 76.1781 1.98012 4.05095 0
M  V30 799 C 74.8401 2.36442 4.19104 0
M  V30 800 C 77.1921 2.89824 4.33188 0
M  V30 801 C 74.5201 3.66009 4.58535 0
M  V30 802 C 76.8721 4.1886 4.74066 0
M  V30 803 C 75.5361 4.5726 4.86281 0
M  V30 804 H 74.8061 0.153491 0.724929 0
M  V30 805 H 77.4531 1.05371 1.59904 0
M  V30 806 H 75.7581 -0.142385 3.91541 0
M  V30 807 H 77.4551 0.239057 4.00287 0
M  V30 808 H 74.0451 1.67162 3.94658 0
M  V30 809 H 78.2291 2.61375 4.21897 0
M  V30 810 H 73.4851 3.95579 4.66184 0
M  V30 811 H 77.6591 4.90086 4.94761 0
M  V30 812 H 75.2861 5.57707 5.16592 0
M  V30 813 N 76.8612 -1.46375 0.584142 0
M  V30 814 C 78.2722 -1.86031 0.157959 0
M  V30 815 C 78.6232 -1.48753 -1.27933 0
M  V30 816 O 77.7482 -0.903098 -1.96655 0
M  V30 817 C 78.3432 -3.37642 0.279892 0
M  V30 818 C 76.9022 -3.76289 -0.09143 0
M  V30 819 C 76.0492 -2.7039 0.615178 0
M  V30 820 H 79.0002 -1.37509 0.792274 0
M  V30 821 H 79.0212 -3.77275 -0.494364 0
M  V30 822 H 78.5332 -3.64742 1.32607 0
M  V30 823 H 76.6342 -3.54806 -1.13769 0
M  V30 824 H 76.7472 -4.78246 0.285886 0
M  V30 825 H 75.1112 -2.5464 0.0552833 0
M  V30 826 H 75.8942 -3.0033 1.66303 0
M  V30 827 N 78.3393 -0.321999 -1.54275 0
M  V30 828 C 79.6163 0.335232 -1.92706 0
M  V30 829 C 79.9963 1.70006 -1.25145 0
M  V30 830 O 79.3443 2.25067 -0.394596 0
M  V30 831 C 79.5543 0.429008 -3.46353 0
M  V30 832 C 80.9023 0.690029 -4.18956 0
M  V30 833 O 81.9263 0.511992 -3.52501 0
M  V30 834 O 80.7853 1.03338 -5.36641 0
M  V30 835 H 77.8793 0.191143 -0.804608 0
M  V30 836 H 80.4253 -0.3716 -1.65581 0
M  V30 837 H 79.1973 -0.529611 -3.87699 0
M  V30 838 H 78.8203 1.18348 -3.79578 0
M  V30 839 N 79.8174 1.5752 -0.0501392 0
M  V30 840 C 81.0654 1.9227 0.622642 0
M  V30 841 C 81.3864 0.929083 1.71444 0
M  V30 842 O 80.6564 -0.0262186 1.95882 0
M  V30 843 H 79.2364 0.709739 0.232981 0
M  V30 844 H 81.8984 1.94628 -0.102898 0
M  V30 845 H 80.9944 2.93479 1.06191 0
M  V30 846 N 81.2955 -0.223234 1.56011 0
M  V30 847 C 82.2435 -1.29627 1.93131 0
M  V30 848 C 83.2375 -1.48608 0.813146 0
M  V30 849 O 84.4435 -1.49802 0.997966 0
M  V30 850 H 80.8185 -0.434563 0.613726 0
M  V30 851 H 82.7895 -0.955995 2.82672 0
M  V30 852 C 81.5385 -2.63983 2.26292 0
M  V30 853 H 80.8615 -2.50185 3.11846 0
M  V30 854 H 82.3015 -3.3788 2.56151 0
M  V30 855 C 80.7605 -3.18866 1.08747 0
M  V30 856 O 81.2905 -4.00192 0.347727 0
M  V30 857 N 79.4965 -2.77217 0.871743 0
M  V30 858 H 79.0435 -2.1119 1.47501 0
M  V30 859 H 79.0015 -3.1428 0.0869905 0
M  V30 860 N 82.7736 -1.49793 -0.48987 0
M  V30 861 C 83.6836 -1.70036 -1.61632 0
M  V30 862 C 84.6996 -0.583102 -1.63939 0
M  V30 863 O 85.8756 -0.859169 -1.82154 0
M  V30 864 C 82.9406 -1.77277 -2.97949 0
M  V30 865 C 82.0016 -3.00918 -3.06181 0
M  V30 866 C 81.2346 -3.07804 -4.35996 0
M  V30 867 O 81.4576 -2.21982 -5.25433 0
M  V30 868 O 80.3916 -4.00369 -4.49431 0
M  V30 869 H 84.2176 -2.65486 -1.47482 0
M  V30 870 H 81.8026 -1.33666 -0.667362 0
M  V30 871 H 83.6846 -1.84329 -3.78947 0
M  V30 872 H 82.3596 -0.850076 -3.12339 0
M  V30 873 H 81.2666 -2.99377 -2.2433 0
M  V30 874 H 82.5996 -3.92704 -2.96723 0
M  V30 875 N 84.2517 0.741722 -1.39055 0
M  V30 876 C 85.5007 1.49656 -1.35225 0
M  V30 877 C 85.8137 1.95533 0.0512708 0
M  V30 878 O 87.0197 2.7067 0.212138 0
M  V30 879 C 85.4757 2.70389 -2.37525 0
M  V30 880 C 85.0837 2.31489 -3.83558 0
M  V30 881 C 86.8277 3.48236 -2.42759 0
M  V30 882 C 84.7347 3.48903 -4.77515 0
M  V30 883 H 83.6647 0.56197 -0.502699 0
M  V30 884 H 86.3157 0.809727 -1.64668 0
M  V30 885 H 84.6977 3.41113 -2.01142 0
M  V30 886 H 85.8717 1.68354 -4.28945 0
M  V30 887 H 84.1867 1.66749 -3.81554 0
M  V30 888 H 86.7837 4.35558 -3.1015 0
M  V30 889 H 87.1267 3.90229 -1.45008 0
M  V30 890 H 87.6597 2.84535 -2.78002 0
M  V30 891 H 84.3987 3.11966 -5.76504 0
M  V30 892 H 83.9187 4.11041 -4.36813 0
M  V30 893 H 85.5977 4.15328 -4.96096 0
M  V30 894 N 85.7298 1.2412 0.971189 0
M  V30 895 C 86.6618 0.988349 2.06795 0
M  V30 896 C 87.6748 -0.0409541 1.62748 0
M  V30 897 O 88.8638 0.195673 1.77424 0
M  V30 898 C 85.9638 0.469023 3.35639 0
M  V30 899 C 85.1368 1.56065 4.08611 0
M  V30 900 C 84.1958 1.04458 5.15728 0
M  V30 901 O 83.2218 1.73553 5.42096 0
M  V30 902 N 84.4238 -0.122817 5.8037 0
M  V30 903 H 87.1888 1.93265 2.29061 0
M  V30 904 H 84.7498 1.15102 1.13856 0
M  V30 905 H 86.7418 0.108613 4.04554 0
M  V30 906 H 85.3118 -0.380919 3.1027 0
M  V30 907 H 84.5318 2.09341 3.34021 0
M  V30 908 H 85.8198 2.29449 4.54126 0
M  V30 909 H 85.2178 -0.700563 5.61345 0
M  V30 910 H 83.7748 -0.424404 6.50417 0
M  V30 911 N 87.2079 -1.17134 1.05439 0
M  V30 912 C 88.4479 -1.89137 0.77502 0
M  V30 913 C 88.8119 -1.79345 -0.685526 0
M  V30 914 O 90.0129 -2.46188 -1.0791 0
M  V30 915 C 88.2839 -3.35003 1.2453 0
M  V30 916 S 89.8429 -4.24952 1.09367 0
M  V30 917 H 86.6609 -0.652949 0.281387 0
M  V30 918 H 89.2629 -1.4145 1.34953 0
M  V30 919 H 87.9669 -3.39666 2.30338 0
M  V30 920 H 87.4979 -3.87736 0.665166 0
M  V30 921 H 89.5129 -4.96196 0.0193397 0
M  V30 922 N 88.686 -0.835752 -1.33615 0
M  V30 923 C 89.634 -0.255238 -2.31195 0
M  V30 924 C 90.628 0.61107 -1.57995 0
M  V30 925 O 91.834 0.500979 -1.72888 0
M  V30 926 H 88.209 -0.0638085 -0.749288 0
M  V30 927 H 90.18 -1.09283 -2.77669 0
M  V30 928 C 88.929 0.55754 -3.43201 0
M  V30 929 H 88.252 -0.0997553 -3.99676 0
M  V30 930 H 89.692 0.929622 -4.13683 0
M  V30 931 C 88.151 1.73515 -2.88781 0
M  V30 932 O 88.681 2.83376 -2.84712 0
M  V30 933 N 86.887 1.55603 -2.4543 0
M  V30 934 H 86.434 0.662354 -2.48939 0
M  V30 935 H 86.392 2.34545 -2.09371 0
M  V30 936 N 90.1641 1.46063 -0.591896 0
M  V30 937 C 91.4111 2.02338 -0.0809991 0
M  V30 938 C 91.7391 1.46228 1.28249 0
M  V30 939 O 90.9941 0.620818 1.85592 0
M  V30 940 C 91.2931 3.57391 0.0249813 0
M  V30 941 C 90.9591 4.32583 -1.27211 0
M  V30 942 C 89.6211 4.52844 -1.62745 0
M  V30 943 C 91.9731 4.75687 -2.13005 0
M  V30 944 C 89.3011 5.13462 -2.83855 0
M  V30 945 C 91.6531 5.37644 -3.3335 0
M  V30 946 C 90.3171 5.5613 -3.69155 0
M  V30 947 H 89.5871 0.740407 -0.0296397 0
M  V30 948 H 92.2341 1.75321 -0.770374 0
M  V30 949 H 90.5391 3.83597 0.797537 0
M  V30 950 H 92.2361 3.98621 0.436184 0
M  V30 951 H 88.8261 4.17116 -0.985499 0
M  V30 952 H 93.0101 4.59782 -1.86855 0
M  V30 953 H 88.2661 5.25965 -3.11722 0
M  V30 954 H 92.4401 5.7 -4.00092 0
M  V30 955 H 90.0671 6.0287 -4.63089 0
M  V30 956 N 91.6422 0.330177 1.54103 0
M  V30 957 C 93.0582 -0.0222371 1.59585 0
M  V30 958 C 93.2582 -1.49902 1.34654 0
M  V30 959 O 92.3142 -2.25592 1.13421 0
M  V30 960 C 93.6272 0.401932 2.98002 0
M  V30 961 C 95.1752 0.353145 3.11001 0
M  V30 962 C 95.6502 0.752576 4.51775 0
M  V30 963 N 97.1412 0.706239 4.57784 0
M  V30 964 C 97.8762 0.987417 5.64834 0
M  V30 965 N 97.3722 1.33607 6.79795 0
M  V30 966 N 99.1652 0.91254 5.54643 0
M  V30 967 H 91.3162 1.29228 1.68564 0
M  V30 968 H 93.5792 0.525906 0.78875 0
M  V30 969 H 93.2852 1.4311 3.21267 0
M  V30 970 H 93.1592 -0.229699 3.765 0
M  V30 971 H 95.5462 -0.666822 2.87467 0
M  V30 972 H 95.6272 1.0198 2.34593 0
M  V30 973 H 95.2712 1.77049 4.76042 0
M  V30 974 H 95.2012 0.0635409 5.26562 0
M  V30 975 H 97.6922 0.44889 3.75224 0
M  V30 976 H 98.0052 1.53582 7.57385 0
M  V30 977 H 96.3502 1.37439 6.81275 0
M  V30 978 H 99.5412 0.639601 4.6371 0
M  V30 979 H 99.7142 1.13503 6.37982 0
M  V30 980 N 93.1203 -1.57491 0.0584922 0
M  V30 981 C 94.3693 -1.92155 -0.613146 0
M  V30 982 C 94.6823 -0.939334 -1.71569 0
M  V30 983 O 95.8883 -1.17829 -2.44599 0
M  V30 984 C 94.3443 -3.41303 -1.14195 0
M  V30 985 C 93.9523 -4.47944 -0.0711265 0
M  V30 986 C 95.6963 -3.84988 -1.78841 0
M  V30 987 C 93.6033 -5.88212 -0.613225 0
M  V30 988 H 92.5333 -0.717162 -0.232796 0
M  V30 989 H 95.1843 -1.83049 0.12857 0
M  V30 990 H 93.5663 -3.45437 -1.93621 0
M  V30 991 H 94.7403 -4.55408 0.702836 0
M  V30 992 H 93.0553 -4.13644 0.478313 0
M  V30 993 H 95.6523 -4.87159 -2.20408 0
M  V30 994 H 95.9953 -3.21632 -2.64308 0
M  V30 995 H 96.5283 -3.83401 -1.06059 0
M  V30 996 H 93.2673 -6.55183 0.203978 0
M  V30 997 H 92.7873 -5.84294 -1.35501 0
M  V30 998 H 94.4663 -6.37687 -1.09383 0
M  V30 999 N 94.5984 0.214957 -1.56127 0
M  V30 1000 C 95.8454 0.938372 -1.79446 0
M  V30 1001 C 96.1734 1.8407 -0.628378 0
M  V30 1002 O 95.4284 1.91837 0.386925 0
M  V30 1003 C 95.7274 1.80314 -3.0858 0
M  V30 1004 C 95.3934 1.05349 -4.3842 0
M  V30 1005 C 94.0554 0.846435 -4.73697 0
M  V30 1006 C 96.4074 0.524588 -5.18553 0
M  V30 1007 C 93.7354 0.098683 -5.86617 0
M  V30 1008 C 96.0874 -0.209853 -6.32252 0
M  V30 1009 C 94.7514 -0.428102 -6.66126 0
M  V30 1010 H 94.0214 0.343375 -0.656639 0
M  V30 1011 H 96.6684 0.206077 -1.90388 0
M  V30 1012 H 94.9734 2.6035 -2.92789 0
M  V30 1013 H 96.6704 2.36513 -3.23825 0
M  V30 1014 H 93.2604 1.22486 -4.10725 0
M  V30 1015 H 97.4444 0.672008 -4.91729 0
M  V30 1016 H 92.7004 -0.0805753 -6.11347 0
M  V30 1017 H 96.8744 -0.627157 -6.9357 0
M  V30 1018 H 94.5014 -1.00944 -7.53468 0
M  V30 1019 N 96.0765 1.50051 0.48192 0
M  V30 1020 C 97.3235 1.60498 1.23477 0
M  V30 1021 C 97.6515 0.300331 1.92167 0
M  V30 1022 O 96.9065 -0.713094 1.82246 0
M  V30 1023 C 97.2055 2.72717 2.30998 0
M  V30 1024 C 96.8715 4.13572 1.79636 0
M  V30 1025 C 95.5335 4.519 1.65348 0
M  V30 1026 C 97.8855 5.01649 1.41412 0
M  V30 1027 C 95.2135 5.76057 1.11244 0
M  V30 1028 C 97.5655 6.26343 0.887538 0
M  V30 1029 C 96.2295 6.63483 0.731207 0
M  V30 1030 H 95.4995 0.587303 0.451836 0
M  V30 1031 H 98.1465 1.83948 0.532468 0
M  V30 1032 H 96.4515 2.43312 3.07094 0
M  V30 1033 H 98.1485 2.78006 2.88988 0
M  V30 1034 H 94.7385 3.83329 1.91721 0
M  V30 1035 H 98.9225 4.72679 1.51289 0
M  V30 1036 H 94.1785 6.03516 0.978686 0
M  V30 1037 H 98.3525 6.93958 0.582654 0
M  V30 1038 H 95.9795 7.59568 0.309806 0
M  V30 1039 N 97.5546 -0.734337 1.39446 0
M  V30 1040 C 98.5016 -1.84835 1.38219 0
M  V30 1041 C 99.4716 -1.64331 0.24179 0
M  V30 1042 O 100.657 -1.85728 0.437002 0
M  V30 1043 C 97.7966 -3.22355 1.23212 0
M  V30 1044 C 96.9096 -3.5456 2.46801 0
M  V30 1045 C 96.0446 -4.81485 2.24377 0
M  V30 1046 C 95.0836 -5.06536 3.43639 0
M  V30 1047 N 94.2206 -6.24665 3.20528 0
M  V30 1048 H 99.0606 -1.85219 2.33448 0
M  V30 1049 H 96.5976 -0.905039 1.15963 0
M  V30 1050 H 98.5556 -4.0174 1.12522 0
M  V30 1051 H 97.1856 -3.21248 0.316121 0
M  V30 1052 H 96.2376 -2.69872 2.68092 0
M  V30 1053 H 97.5496 -3.6899 3.3563 0
M  V30 1054 H 96.7036 -5.68852 2.10933 0
M  V30 1055 H 95.4426 -4.6923 1.32944 0
M  V30 1056 H 94.4476 -4.17632 3.5758 0
M  V30 1057 H 95.6726 -5.20676 4.35974 0
M  V30 1058 H 93.6186 -6.13696 2.3176 0
M  V30 1059 H 93.5356 -6.39685 4.02913 0
M  V30 1060 H 94.8036 -7.14868 3.10779 0
M  V30 1061 N 99.0327 -1.24633 -0.964593 0
M  V30 1062 C 99.9427 -1.05859 -2.09359 0
M  V30 1063 C 100.959 0.00148855 -1.74 0
M  V30 1064 O 102.135 -0.197346 -2.00431 0
M  V30 1065 C 99.1997 -0.668879 -3.40187 0
M  V30 1066 C 98.2607 -1.80578 -3.89474 0
M  V30 1067 C 97.4937 -1.43457 -5.14058 0
M  V30 1068 O 97.7167 -0.325775 -5.69469 0
M  V30 1069 O 96.6507 -2.2613 -5.57807 0
M  V30 1070 H 100.477 -2.00516 -2.28094 0
M  V30 1071 H 98.0617 -1.03481 -1.0776 0
M  V30 1072 H 99.9437 -0.463211 -4.18846 0
M  V30 1073 H 98.6187 0.248536 -3.22744 0
M  V30 1074 H 97.5257 -2.06623 -3.11862 0
M  V30 1075 H 98.8587 -2.70208 -4.11398 0
M  V30 1076 N 100.511 1.16574 -1.06058 0
M  V30 1077 C 101.458 2.20883 -0.669263 0
M  V30 1078 C 102.428 1.62729 0.332918 0
M  V30 1079 O 103.613 1.895 0.222346 0
M  V30 1080 C 100.753 3.45049 -0.0593572 0
M  V30 1081 C 99.8658 4.17458 -1.11143 0
M  V30 1082 C 99.0008 5.29135 -0.467916 0
M  V30 1083 C 98.0398 5.93343 -1.50369 0
M  V30 1084 N 97.1768 6.96516 -0.883706 0
M  V30 1085 H 102.017 2.53709 -1.5632 0
M  V30 1086 H 99.5538 1.24616 -0.781625 0
M  V30 1087 H 101.512 4.16033 0.311771 0
M  V30 1088 H 100.142 3.12781 0.797992 0
M  V30 1089 H 99.1938 3.45101 -1.60029 0
M  V30 1090 H 100.506 4.61307 -1.89731 0
M  V30 1091 H 99.6598 6.06684 -0.0436871 0
M  V30 1092 H 98.3988 4.86443 0.349864 0
M  V30 1093 H 97.4038 5.14517 -1.93784 0
M  V30 1094 H 98.6288 6.38114 -2.32352 0
M  V30 1095 H 96.5748 6.55943 -0.086595 0
M  V30 1096 H 96.4918 7.38723 -1.607 0
M  V30 1097 H 97.7598 7.77993 -0.484543 0
M  V30 1098 N 101.989 0.842826 1.3317 0
M  V30 1099 C 103.219 0.453397 2.01564 0
M  V30 1100 C 103.627 -0.951147 1.63554 0
M  V30 1101 O 102.97 -1.63021 0.846746 0
M  V30 1102 C 103.032 0.499013 3.5602 0
M  V30 1103 C 102.696 1.86037 4.1742 0
M  V30 1104 C 103.693 2.82416 4.36506 0
M  V30 1105 C 101.378 2.15428 4.53757 0
M  V30 1106 C 103.372 4.06346 4.91082 0
M  V30 1107 C 101.059 3.39615 5.0804 0
M  V30 1108 C 102.057 4.3489 5.26649 0
M  V30 1109 O 101.745 5.5688 5.79776 0
M  V30 1110 H 101.477 0.177871 0.652179 0
M  V30 1111 H 104.031 1.13808 1.70988 0
M  V30 1112 H 102.261 -0.242467 3.85939 0
M  V30 1113 H 103.95 0.126852 4.05702 0
M  V30 1114 H 104.716 2.6101 4.08777 0
M  V30 1115 H 100.595 1.42061 4.38565 0
M  V30 1116 H 104.139 4.80722 5.05522 0
M  V30 1117 H 100.036 3.60876 5.352 0
M  V30 1118 H 100.804 5.58674 5.98185 0
M  V30 1119 N 103.467 -1.45747 0.599634 0
M  V30 1120 C 104.714 -2.02292 0.0917284 0
M  V30 1121 C 105.042 -1.46906 -1.27472 0
M  V30 1122 O 104.297 -0.630652 -1.8526 0
M  V30 1123 C 104.596 -3.57399 -0.00602758 0
M  V30 1124 C 104.262 -4.31902 1.29503 0
M  V30 1125 C 102.924 -4.51974 1.65144 0
M  V30 1126 C 105.276 -4.74551 2.15525 0
M  V30 1127 C 102.604 -5.11949 2.86574 0
M  V30 1128 C 104.956 -5.35868 3.36196 0
M  V30 1129 C 103.62 -5.54165 3.72099 0
M  V30 1130 H 102.89 -0.740239 0.0335658 0
M  V30 1131 H 105.537 -1.7491 0.779661 0
M  V30 1132 H 103.842 -3.84014 -0.777183 0
M  V30 1133 H 105.539 -3.98846 -0.415038 0
M  V30 1134 H 102.129 -4.16588 1.00761 0
M  V30 1135 H 106.313 -4.58784 1.8929 0
M  V30 1136 H 101.569 -5.24305 3.14507 0
M  V30 1137 H 105.743 -5.6787 4.03109 0
M  V30 1138 H 103.37 -6.00406 4.6628 0
M  V30 1139 N 104.945 -0.338344 -1.53925 0
M  V30 1140 C 105.855 0.529421 -2.28548 0
M  V30 1141 C 106.871 1.11645 -1.3346 0
M  V30 1142 O 108.047 1.13325 -1.66492 0
M  V30 1143 C 105.112 1.66713 -3.03987 0
M  V30 1144 C 104.173 1.11041 -4.14691 0
M  V30 1145 C 103.406 2.19389 -4.86522 0
M  V30 1146 O 103.629 3.40013 -4.57982 0
M  V30 1147 O 102.563 1.83976 -5.73094 0
M  V30 1148 H 106.389 -0.0770399 -3.03602 0
M  V30 1149 H 103.974 -0.103555 -1.49041 0
M  V30 1150 H 105.856 2.32918 -3.5118 0
M  V30 1151 H 104.531 2.25949 -2.31794 0
M  V30 1152 H 103.438 0.413024 -3.71813 0
M  V30 1153 H 104.771 0.562975 -4.8897 0
M  V30 1154 N 106.423 1.57458 -0.0668435 0
M  V30 1155 C 107.353 2.15468 0.899764 0
M  V30 1156 C 108.334 1.08042 1.31381 0
M  V30 1157 O 109.519 1.36054 1.38574 0
M  V30 1158 C 106.649 2.71232 2.16911 0
M  V30 1159 C 105.603 3.83781 1.89463 0
M  V30 1160 C 104.929 4.26127 3.22986 0
M  V30 1161 C 106.229 5.08238 1.20381 0
M  V30 1162 H 107.923 2.96488 0.416529 0
M  V30 1163 H 105.469 1.4262 0.198908 0
M  V30 1164 H 107.422 3.10458 2.84945 0
M  V30 1165 H 106.146 1.87426 2.67468 0
M  V30 1166 H 104.805 3.45051 1.23836 0
M  V30 1167 H 104.453 3.39249 3.71374 0
M  V30 1168 H 104.153 5.01993 3.05413 0
M  V30 1169 H 105.677 4.67966 3.92225 0
M  V30 1170 H 107.091 5.44811 1.78475 0
M  V30 1171 H 105.488 5.89349 1.13083 0
M  V30 1172 H 106.558 4.84558 0.182153 0
M  V30 1173 N 107.901 -0.206675 1.56239 0
M  V30 1174 C 109.126 -0.949474 1.8439 0
M  V30 1175 C 109.551 -1.76549 0.649016 0
M  V30 1176 O 108.909 -1.76782 -0.402231 0
M  V30 1177 C 108.957 -1.83078 3.10668 0
M  V30 1178 O 108.061 -2.9281 2.90407 0
M  V30 1179 H 107.402 -0.268033 0.607499 0
M  V30 1180 H 109.932 -0.215488 2.03462 0
M  V30 1181 H 109.942 -2.2377 3.41161 0
M  V30 1182 H 108.617 -1.23112 3.97261 0
M  V30 1183 H 107.194 -2.55956 2.71184 0
M  V30 1184 N 109.379 -1.50304 -0.473955 0
M  V30 1185 C 110.309 -1.71886 -1.58042 0
M  V30 1186 C 111.29 -0.567799 -1.60344 0
M  V30 1187 O 112.475 -0.806623 -1.76656 0
M  V30 1188 C 109.605 -1.81036 -2.96384 0
M  V30 1189 C 108.559 -2.962 -3.08949 0
M  V30 1190 C 107.885 -2.9049 -4.48909 0
M  V30 1191 C 109.185 -4.36752 -2.86434 0
M  V30 1192 H 110.879 -2.64527 -1.40234 0
M  V30 1193 H 108.425 -1.27295 -0.673201 0
M  V30 1194 H 110.378 -1.94719 -3.73714 0
M  V30 1195 H 109.102 -0.850147 -3.15341 0
M  V30 1196 H 107.761 -2.82164 -2.3405 0
M  V30 1197 H 107.409 -1.92321 -4.64781 0
M  V30 1198 H 107.109 -3.67802 -4.58253 0
M  V30 1199 H 108.633 -3.06218 -5.28264 0
M  V30 1200 H 110.047 -4.5133 -3.53517 0
M  V30 1201 H 108.444 -5.15493 -3.07225 0
M  V30 1202 H 109.514 -4.49321 -1.82316 0
M  V30 1203 N 110.857 0.726932 -1.39834 0
M  V30 1204 C 112.134 1.47902 -1.28001 0
M  V30 1205 C 112.514 2.1083 0.106789 0
M  V30 1206 O 111.862 1.99242 1.11869 0
M  V30 1207 C 112.072 2.52392 -2.41038 0
M  V30 1208 C 113.42 3.18546 -2.80737 0
M  V30 1209 O 114.444 2.62708 -2.40547 0
M  V30 1210 O 113.303 4.19604 -3.50135 0
M  V30 1211 H 110.397 0.657163 -0.502062 0
M  V30 1212 H 112.943 0.760071 -1.51727 0
M  V30 1213 H 111.715 2.04329 -3.33715 0
M  V30 1214 H 111.338 3.31837 -2.19021 0
M  V30 1215 N 112.336 1.25143 0.95797 0
M  V30 1216 C 113.284 1.05019 2.07542 0
M  V30 1217 C 114.278 -0.0178751 1.69391 0
M  V30 1218 O 115.484 0.137472 1.79474 0
M  V30 1219 H 111.859 0.32265 0.679265 0
M  V30 1220 H 113.83 1.99759 2.21673 0
M  V30 1221 C 112.579 0.682074 3.40944 0
M  V30 1222 H 111.902 1.49573 3.70767 0
M  V30 1223 H 113.342 0.580945 4.20001 0
M  V30 1224 C 111.801 -0.611608 3.31302 0
M  V30 1225 O 112.331 -1.65465 3.66038 0
M  V30 1226 N 110.537 -0.595982 2.84423 0
M  V30 1227 H 110.084 0.253192 2.56353 0
M  V30 1228 H 110.042 -1.46173 2.78354 0
M  V30 1229 N 113.814 -1.1601 1.06675 0
M  V30 1230 C 114.761 -2.20525 0.680967 0
M  V30 1231 C 115.731 -1.62904 -0.324283 0
M  V30 1232 O 116.916 -1.89615 -0.212294 0
M  V30 1233 C 114.056 -3.45013 0.0776551 0
M  V30 1234 C 113.169 -4.16863 1.13355 0
M  V30 1235 C 112.304 -5.2888 0.49597 0
M  V30 1236 C 111.343 -5.92537 1.53513 0
M  V30 1237 N 110.48 -6.96038 0.920631 0
M  V30 1238 H 115.32 -2.52876 1.57663 0
M  V30 1239 H 112.857 -1.24199 0.788223 0
M  V30 1240 H 114.815 -4.16193 -0.289704 0
M  V30 1241 H 113.445 -3.132 -0.781393 0
M  V30 1242 H 112.497 -3.44248 1.61857 0
M  V30 1243 H 113.809 -4.60294 1.92174 0
M  V30 1244 H 112.963 -6.06653 0.0758604 0
M  V30 1245 H 111.702 -4.86622 -0.324062 0
M  V30 1246 H 110.707 -5.13482 1.9651 0
M  V30 1247 H 111.932 -6.36873 2.35733 0
M  V30 1248 H 109.878 -6.55888 0.12138 0
M  V30 1249 H 109.795 -7.3786 1.64616 0
M  V30 1250 H 111.063 -7.77725 0.525795 0
M  V30 1251 N 115.292 -0.849877 -1.32721 0
M  V30 1252 C 116.538 -0.451591 -1.97708 0
M  V30 1253 C 116.871 0.989175 -1.6712 0
M  V30 1254 O 116.146 1.69334 -0.956891 0
M  V30 1255 C 116.429 -0.685598 -3.53513 0
M  V30 1256 C 116.282 -2.17444 -3.93749 0
M  V30 1257 C 117.601 -0.138874 -4.39881 0
M  V30 1258 H 114.72 -0.16555 -0.718166 0
M  V30 1259 H 117.362 -1.06742 -1.57182 0
M  V30 1260 H 115.512 -0.161416 -3.88165 0
M  V30 1261 H 117.184 -2.76433 -3.693 0
M  V30 1262 H 115.427 -2.65476 -3.43081 0
M  V30 1263 H 116.098 -2.28888 -5.02309 0
M  V30 1264 H 118.574 -0.587068 -4.11938 0
M  V30 1265 H 117.45 -0.332213 -5.47894 0
M  V30 1266 H 117.711 0.95806 -4.31594 0
M  V30 1267 N 116.77 1.45427 -0.607355 0
M  V30 1268 C 118.186 1.57283 -0.270985 0
M  V30 1269 C 118.386 1.59875 1.22647 0
M  V30 1270 O 117.442 1.52893 2.00948 0
M  V30 1271 C 118.755 2.85566 -0.941952 0
M  V30 1272 C 120.303 2.9924 -0.917849 0
M  V30 1273 C 120.778 4.30293 -1.56882 0
M  V30 1274 N 122.269 4.37051 -1.5343 0
M  V30 1275 C 123.004 5.37123 -2.00715 0
M  V30 1276 N 122.5 6.43734 -2.56084 0
M  V30 1277 N 124.293 5.28479 -1.91484 0
M  V30 1278 H 116.444 1.41988 -1.57966 0
M  V30 1279 H 118.707 0.67885 -0.661715 0
M  V30 1280 H 118.413 2.8955 -1.99633 0
M  V30 1281 H 118.287 3.74322 -0.465096 0
M  V30 1282 H 120.674 2.94822 0.127984 0
M  V30 1283 H 120.755 2.11895 -1.43297 0
M  V30 1284 H 120.399 4.35469 -2.61398 0
M  V30 1285 H 120.329 5.16454 -1.02873 0
M  V30 1286 H 122.82 3.60615 -1.12982 0
M  V30 1287 H 123.133 7.16341 -2.89958 0
M  V30 1288 H 121.478 6.44485 -2.60122 0
M  V30 1289 H 124.669 4.44098 -1.47967 0
M  V30 1290 H 124.842 6.0632 -2.28648 0
M  V30 1291 N 118.248 0.346503 1.53744 0
M  V30 1292 C 119.494 -0.249473 2.0126 0
M  V30 1293 C 119.827 -1.49965 1.23386 0
M  V30 1294 O 119.102 -1.91811 0.32229 0
M  V30 1295 C 119.385 -0.560643 3.55709 0
M  V30 1296 C 119.238 0.701836 4.44291 0
M  V30 1297 C 120.557 -1.36905 4.18264 0
M  V30 1298 H 117.676 -0.0891987 0.731582 0
M  V30 1299 H 120.318 0.467624 1.84156 0
M  V30 1300 H 118.468 -1.17156 3.70414 0
M  V30 1301 H 120.14 1.33974 4.41417 0
M  V30 1302 H 118.383 1.32612 4.13033 0
M  V30 1303 H 119.054 0.43933 5.50249 0
M  V30 1304 H 121.53 -0.852448 4.07275 0
M  V30 1305 H 120.406 -1.55553 5.26398 0
M  V30 1306 H 120.667 -2.37203 3.73078 0
M  V30 1307 N 119.726 -1.57421 0.075193 0
M  V30 1308 C 120.975 -1.92794 -0.592731 0
M  V30 1309 C 121.288 -0.957478 -1.70563 0
M  V30 1310 O 122.494 -1.20417 -2.43335 0
M  V30 1311 C 120.95 -3.42495 -1.10569 0
M  V30 1312 C 120.558 -4.47994 -0.0236121 0
M  V30 1313 C 122.302 -3.86864 -1.74748 0
M  V30 1314 C 120.209 -5.88829 -0.550803 0
M  V30 1315 H 119.139 -0.719591 -0.225177 0
M  V30 1316 H 121.79 -1.82902 0.147978 0
M  V30 1317 H 120.172 -3.47471 -1.89947 0
M  V30 1318 H 121.346 -4.54637 0.751099 0
M  V30 1319 H 119.661 -4.13113 0.522159 0
M  V30 1320 H 122.258 -4.8947 -2.15229 0
M  V30 1321 H 122.601 -3.24417 -2.60882 0
M  V30 1322 H 123.134 -3.84504 -1.01986 0
M  V30 1323 H 119.873 -6.54929 0.273457 0
M  V30 1324 H 119.393 -5.85698 -1.29296 0
M  V30 1325 H 121.072 -6.38811 -1.02613 0
M  V30 1326 N 121.204 0.198386 -1.56346 0
M  V30 1327 C 122.151 1.24589 -1.94284 0
M  V30 1328 C 123.121 1.454 -0.802997 0
M  V30 1329 O 124.306 1.58588 -1.06087 0
M  V30 1330 C 121.446 2.58631 -2.28482 0
M  V30 1331 C 120.559 2.45426 -3.55514 0
M  V30 1332 C 119.694 3.7215 -3.79049 0
M  V30 1333 C 118.733 3.53763 -4.99518 0
M  V30 1334 N 117.87 4.72491 -5.19323 0
M  V30 1335 H 122.71 0.915356 -2.83593 0
M  V30 1336 H 120.247 0.440629 -1.40346 0
M  V30 1337 H 122.205 3.3672 -2.46324 0
M  V30 1338 H 120.835 2.89734 -1.42317 0
M  V30 1339 H 119.887 1.58652 -3.45737 0
M  V30 1340 H 121.199 2.27772 -4.43758 0
M  V30 1341 H 120.353 4.58679 -3.97113 0
M  V30 1342 H 119.092 3.92754 -2.89129 0
M  V30 1343 H 118.097 2.65619 -4.8138 0
M  V30 1344 H 119.322 3.34607 -5.90944 0
M  V30 1345 H 117.268 4.93365 -4.3235 0
M  V30 1346 H 117.185 4.5765 -6.01741 0
M  V30 1347 H 118.453 5.6038 -5.41843 0
M  V30 1348 N 122.682 1.50554 0.465978 0
M  V30 1349 C 123.929 1.61798 1.21768 0
M  V30 1350 C 124.257 0.320696 1.91838 0
M  V30 1351 O 123.512 -0.693724 1.82992 0
M  V30 1352 C 123.811 2.75152 2.28093 0
M  V30 1353 C 123.477 4.15454 1.75239 0
M  V30 1354 C 122.139 4.53628 1.60546 0
M  V30 1355 C 124.491 5.03121 1.36083 0
M  V30 1356 C 121.819 5.77204 1.05128 0
M  V30 1357 C 124.171 6.27249 0.821056 0
M  V30 1358 C 122.835 6.64221 0.660795 0
M  V30 1359 H 122.105 0.592063 0.445582 0
M  V30 1360 H 124.752 1.84503 0.512927 0
M  V30 1361 H 123.057 2.46556 3.04496 0
M  V30 1362 H 124.754 2.81055 2.86023 0
M  V30 1363 H 121.344 3.85341 1.87644 0
M  V30 1364 H 125.528 4.74257 1.46267 0
M  V30 1365 H 120.784 6.0452 0.91462 0
M  V30 1366 H 124.958 6.94537 0.509018 0
M  V30 1367 H 122.585 7.59854 0.229226 0
M  V30 1368 N 124.16 -0.719506 1.40217 0
M  V30 1369 C 125.108 -1.85493 1.40339 0
M  V30 1370 C 126.102 -1.66995 0.284415 0
M  V30 1371 O 127.308 -1.74148 0.455252 0
M  V30 1372 H 123.683 -0.610857 0.438586 0
M  V30 1373 H 125.654 -1.82506 2.36081 0
M  V30 1374 C 124.403 -3.23321 1.27901 0
M  V30 1375 H 123.726 -3.38159 2.1328 0
M  V30 1376 H 125.166 -4.02914 1.32045 0
M  V30 1377 C 123.625 -3.36898 -0.0111355 0
M  V30 1378 O 124.155 -3.89674 -0.975538 0
M  V30 1379 N 122.361 -2.90492 -0.0793393 0
M  V30 1380 H 121.908 -2.47731 0.706183 0
M  V30 1381 H 121.866 -2.99955 -0.942038 0
M  V30 1382 N 125.638 -1.25649 -0.95132 0
M  V30 1383 C 126.915 -1.01361 -1.67288 0
M  V30 1384 C 127.295 0.459135 -2.06046 0
M  V30 1385 O 126.643 1.43723 -1.7764 0
M  V30 1386 C 126.853 -1.95256 -2.89268 0
M  V30 1387 C 128.201 -2.23289 -3.61147 0
M  V30 1388 O 129.225 -1.93041 -2.99355 0
M  V30 1389 O 128.084 -2.74741 -4.72419 0
M  V30 1390 H 125.178 -0.38464 -0.732107 0
M  V30 1391 H 127.724 -1.36817 -1.00395 0
M  V30 1392 H 126.496 -2.94685 -2.57442 0
M  V30 1393 H 126.119 -1.60218 -3.6389 0
M  V30 1394 N 127.117 1.15442 -1.07289 0
M  V30 1395 C 128.366 1.85557 -0.790669 0
M  V30 1396 C 128.679 1.83186 0.685739 0
M  V30 1397 O 129.885 2.48977 1.0827 0
M  V30 1398 C 128.341 3.33038 -1.36433 0
M  V30 1399 C 127.949 3.43856 -2.8717 0
M  V30 1400 C 129.693 4.0834 -1.1601 0
M  V30 1401 C 127.6 4.85482 -3.3773 0
M  V30 1402 H 126.53 0.695122 -0.292098 0
M  V30 1403 H 129.181 1.30219 -1.29287 0
M  V30 1404 H 127.563 3.88043 -0.789864 0
M  V30 1405 H 128.737 2.98961 -3.50655 0
M  V30 1406 H 127.052 2.81998 -3.06376 0
M  V30 1407 H 129.649 5.12859 -1.51262 0
M  V30 1408 H 129.992 4.16182 -0.0991007 0
M  V30 1409 H 130.525 3.59603 -1.70089 0
M  V30 1410 H 127.264 4.82823 -4.43353 0
M  V30 1411 H 126.784 5.30961 -2.78999 0
M  V30 1412 H 128.463 5.54335 -3.33648 0
M  V30 1413 N 128.595 0.856903 1.32268 0
M  V30 1414 C 129.543 0.291987 2.3076 0
M  V30 1415 C 130.537 -0.585857 1.58947 0
M  V30 1416 O 131.743 -0.47341 1.73663 0
M  V30 1417 H 128.118 0.075721 0.748178 0
M  V30 1418 H 130.089 1.13687 2.75895 0
M  V30 1419 C 128.838 -0.502869 3.44044 0
M  V30 1420 H 128.161 0.163328 3.99466 0
M  V30 1421 H 129.601 -0.863691 4.1511 0
M  V30 1422 C 128.06 -1.68898 2.91505 0
M  V30 1423 O 128.59 -2.78811 2.89184 0
M  V30 1424 N 126.796 -1.51679 2.47875 0
M  V30 1425 H 126.343 -0.622666 2.49961 0
M  V30 1426 H 126.301 -2.31184 2.13076 0
M  V30 1427 N 130.073 -1.45103 0.615059 0
M  V30 1428 C 131.313 -2.04069 0.116282 0
M  V30 1429 C 131.677 -1.4721 -1.2326 0
M  V30 1430 O 132.878 -1.97577 -1.82255 0
M  V30 1431 C 131.149 -3.57298 0.085482 0
M  V30 1432 S 132.708 -4.37394 -0.351015 0
M  V30 1433 H 129.526 -0.709006 0.0532183 0
M  V30 1434 H 132.128 -1.77709 0.81484 0
M  V30 1435 H 130.832 -3.9619 1.0706 0
M  V30 1436 H 130.363 -3.88244 -0.634835 0
M  V30 1437 H 132.378 -4.69734 -1.59889 0
M  V30 1438 N 131.551 -0.354651 -1.53558 0
M  V30 1439 C 132.8 0.239504 -2.00273 0
M  V30 1440 C 133.113 1.50759 -1.24623 0
M  V30 1441 O 134.319 2.17968 -1.61871 0
M  V30 1442 C 132.775 0.477341 -3.5672 0
M  V30 1443 C 132.383 -0.775488 -4.41237 0
M  V30 1444 C 134.127 1.02975 -4.11821 0
M  V30 1445 C 132.034 -0.507838 -5.89216 0
M  V30 1446 H 130.964 0.0932743 -0.748208 0
M  V30 1447 H 133.615 -0.471701 -1.77334 0
M  V30 1448 H 131.997 1.24953 -3.7577 0
M  V30 1449 H 133.171 -1.54963 -4.33962 0
M  V30 1450 H 131.486 -1.25033 -3.97185 0
M  V30 1451 H 134.083 1.24513 -5.2 0
M  V30 1452 H 134.426 1.98862 -3.65731 0
M  V30 1453 H 134.959 0.317994 -3.96527 0
M  V30 1454 H 131.698 -1.43674 -6.39561 0
M  V30 1455 H 131.218 0.228011 -5.99366 0
M  V30 1456 H 132.897 -0.129238 -6.46871 0
M  V30 1457 N 133.029 1.57378 -0.0835403 0
M  V30 1458 C 133.959 2.1641 0.87686 0
M  V30 1459 C 134.94 1.09429 1.30228 0
M  V30 1460 O 136.125 1.37516 1.37124 0
M  V30 1461 C 133.255 2.73517 2.14022 0
M  V30 1462 C 132.209 3.85769 1.85381 0
M  V30 1463 C 131.535 4.29529 3.18448 0
M  V30 1464 C 132.835 5.09486 1.14984 0
M  V30 1465 H 134.529 2.96914 0.385059 0
M  V30 1466 H 132.075 1.42823 0.18377 0
M  V30 1467 H 134.028 3.13463 2.81636 0
M  V30 1468 H 132.752 1.90252 2.65465 0
M  V30 1469 H 131.411 3.46345 1.20169 0
M  V30 1470 H 131.059 3.43169 3.67755 0
M  V30 1471 H 130.759 5.05204 3.00071 0
M  V30 1472 H 132.283 4.72099 3.8724 0
M  V30 1473 H 133.697 5.46674 1.72687 0
M  V30 1474 H 132.094 5.90515 1.06826 0
M  V30 1475 H 133.164 4.84724 0.130749 0
M  V30 1476 N 134.507 -0.190092 1.56449 0
M  V30 1477 C 135.457 -1.23977 1.91347 0
M  V30 1478 C 136.441 -1.40747 0.779693 0
M  V30 1479 O 137.633 -1.43033 1.04262 0
M  V30 1480 C 134.762 -2.58347 2.26079 0
M  V30 1481 C 133.848 -2.4535 3.45925 0
M  V30 1482 N 134.239 -2.02039 4.63696 0
M  V30 1483 C 132.537 -2.76229 3.50162 0
M  V30 1484 C 133.238 -2.01053 5.4585 0
M  V30 1485 N 132.214 -2.42747 4.8639 0
M  V30 1486 H 136.016 -0.896318 2.79899 0
M  V30 1487 H 133.53 -0.398496 1.57435 0
M  V30 1488 H 135.527 -3.34173 2.49267 0
M  V30 1489 H 134.187 -2.93512 1.38856 0
M  V30 1490 H 135.198 -1.7267 4.88268 0
M  V30 1491 H 131.875 -3.15556 2.73369 0
M  V30 1492 H 133.265 -1.69426 6.50188 0
M  V30 1493 N 135.985 -1.50799 -0.457987 0
M  V30 1494 C 137.401 -1.38515 -0.792819 0
M  V30 1495 C 137.601 -0.451409 -1.96379 0
M  V30 1496 O 136.657 0.10112 -2.52297 0
M  V30 1497 C 137.97 -2.80149 -1.09258 0
M  V30 1498 C 139.518 -2.89156 -1.19825 0
M  V30 1499 C 139.993 -4.31651 -1.53106 0
M  V30 1500 N 141.484 -4.34662 -1.60072 0
M  V30 1501 C 142.219 -5.41928 -1.87354 0
M  V30 1502 N 141.715 -6.59384 -2.12568 0
M  V30 1503 N 143.508 -5.29385 -1.88965 0
M  V30 1504 H 135.659 -2.10073 0.313511 0
M  V30 1505 H 137.922 -0.944803 0.0777862 0
M  V30 1506 H 137.628 -3.50374 -0.305084 0
M  V30 1507 H 137.502 -3.18204 -2.02549 0
M  V30 1508 H 139.889 -2.19141 -1.97639 0
M  V30 1509 H 139.97 -2.54626 -0.244821 0
M  V30 1510 H 139.614 -5.02208 -0.758266 0
M  V30 1511 H 139.544 -4.63678 -2.49621 0
M  V30 1512 H 142.035 -3.49973 -1.42573 0
M  V30 1513 H 142.348 -7.36934 -2.32696 0
M  V30 1514 H 140.693 -6.62535 -2.09933 0
M  V30 1515 H 143.884 -4.36616 -1.68772 0
M  V30 1516 H 144.057 -6.13066 -2.09891 0
M  V30 1517 N 137.463 0.71206 -1.40597 0
M  V30 1518 C 138.411 1.84746 -1.41321 0
M  V30 1519 C 139.405 1.66842 -0.293268 0
M  V30 1520 O 140.611 1.73904 -0.464481 0
M  V30 1521 H 136.986 0.608522 -0.441819 0
M  V30 1522 H 138.957 1.81252 -2.37045 0
M  V30 1523 C 137.706 3.22638 -1.29614 0
M  V30 1524 H 137.029 3.37023 -2.15071 0
M  V30 1525 H 138.469 4.02209 -1.3418 0
M  V30 1526 C 136.928 3.36899 -0.00673121 0
M  V30 1527 O 137.458 3.90186 0.954859 0
M  V30 1528 N 135.664 2.9053 0.0639327 0
M  V30 1529 H 135.211 2.47353 -0.719311 0
M  V30 1530 H 135.169 3.0045 0.926118 0
M  V30 1531 N 138.941 1.26152 0.944643 0
M  V30 1532 C 140.166 1.14363 1.7302 0
M  V30 1533 C 140.591 -0.29772 1.85729 0
M  V30 1534 O 139.949 -1.2157 1.34501 0
M  V30 1535 C 139.997 1.81378 3.11664 0
M  V30 1536 O 139.101 1.10022 3.97453 0
M  V30 1537 H 138.442 0.398694 0.53098 0
M  V30 1538 H 140.972 1.66906 1.18337 0
M  V30 1539 H 140.982 1.88064 3.62072 0
M  V30 1540 H 139.657 2.86237 3.0173 0
M  V30 1541 H 138.234 1.11287 3.55907 0
M  V30 1542 N 140.419 -1.14872 1.07899 0
M  V30 1543 C 141.659 -1.8745 0.814965 0
M  V30 1544 C 142.023 -1.80758 -0.64733 0
M  V30 1545 O 143.224 -2.48422 -1.02664 0
M  V30 1546 C 141.495 -3.32286 1.31607 0
M  V30 1547 S 143.054 -4.22537 1.18357 0
M  V30 1548 H 139.872 -0.646833 0.295174 0
M  V30 1549 H 142.474 -1.38555 1.37923 0
M  V30 1550 H 141.178 -3.34703 2.37491 0
M  V30 1551 H 140.709 -3.86238 0.747261 0
M  V30 1552 H 142.724 -4.96044 0.124586 0
M  V30 1553 N 141.898 -0.863906 -1.31812 0
M  V30 1554 C 142.808 -0.318461 -2.32428 0
M  V30 1555 C 143.824 0.568496 -1.64451 0
M  V30 1556 O 145 0.46666 -1.95919 0
M  V30 1557 C 142.065 0.476355 -3.43412 0
M  V30 1558 C 141.126 -0.43784 -4.27061 0
M  V30 1559 C 140.359 0.319138 -5.32745 0
M  V30 1560 O 140.582 1.54799 -5.48993 0
M  V30 1561 O 139.516 -0.319861 -6.01049 0
M  V30 1562 H 143.342 -1.15229 -2.80991 0
M  V30 1563 H 140.927 -0.627103 -1.35602 0
M  V30 1564 H 142.809 0.927156 -4.11074 0
M  V30 1565 H 141.484 1.28683 -2.97022 0
M  V30 1566 H 140.391 -0.937013 -3.62175 0
M  V30 1567 H 141.724 -1.21375 -4.77 0
M  V30 1568 N 143.376 1.44774 -0.622745 0
M  V30 1569 C 144.604 2.06487 -0.130722 0
M  V30 1570 C 145.019 1.46476 1.19123 0
M  V30 1571 O 144.376 0.584502 1.72887 0
M  V30 1572 C 144.427 3.615 -0.000807207 0
M  V30 1573 O 144.148 4.19274 -1.27048 0
M  V30 1574 C 145.649 4.40229 0.520898 0
M  V30 1575 H 142.869 0.666704 -0.0758106 0
M  V30 1576 H 145.413 1.85779 -0.854774 0
M  V30 1577 H 143.568 3.81498 0.673643 0
M  V30 1578 H 143.982 5.12622 -1.1099 0
M  V30 1579 H 145.456 5.49144 0.560838 0
M  V30 1580 H 145.933 4.1108 1.54627 0
M  V30 1581 H 146.539 4.25131 -0.120018 0
M  V30 1582 N 144.854 0.36279 1.53368 0
M  V30 1583 C 145.784 -0.476976 2.28576 0
M  V30 1584 C 146.765 -1.08631 1.30894 0
M  V30 1585 O 147.95 -1.10409 1.59761 0
M  V30 1586 C 145.08 -1.61828 3.07293 0
M  V30 1587 C 144.034 -1.13633 4.1264 0
M  V30 1588 C 143.36 -2.36766 4.79423 0
M  V30 1589 C 144.66 -0.223061 5.21823 0
M  V30 1590 H 146.354 0.150474 2.99022 0
M  V30 1591 H 143.9 0.0738103 1.43811 0
M  V30 1592 H 145.853 -2.21237 3.58653 0
M  V30 1593 H 144.577 -2.27292 2.34533 0
M  V30 1594 H 143.236 -0.564945 3.62221 0
M  V30 1595 H 142.884 -3.0068 4.03238 0
M  V30 1596 H 142.584 -2.05192 5.50609 0
M  V30 1597 H 144.108 -2.96865 5.33576 0
M  V30 1598 H 145.522 -0.724545 5.68703 0
M  V30 1599 H 143.919 0.001678 6.001 0
M  V30 1600 H 144.989 0.735553 4.79289 0
M  V30 1601 N 146.332 -1.57332 0.0918853 0
M  V30 1602 C 147.262 -2.16872 -0.865371 0
M  V30 1603 C 148.243 -1.10118 -1.29646 0
M  V30 1604 O 149.428 -1.38242 -1.36392 0
M  V30 1605 C 146.558 -2.74649 -2.12569 0
M  V30 1606 C 145.512 -3.86747 -1.83333 0
M  V30 1607 C 144.838 -4.31212 -3.16166 0
M  V30 1608 C 146.138 -5.10089 -1.1228 0
M  V30 1609 H 147.832 -2.97114 -0.369307 0
M  V30 1610 H 145.378 -1.42918 -0.176194 0
M  V30 1611 H 147.331 -3.14952 -2.7997 0
M  V30 1612 H 146.055 -1.91657 -2.64452 0
M  V30 1613 H 144.714 -3.46978 -1.18331 0
M  V30 1614 H 144.362 -3.45115 -3.6593 0
M  V30 1615 H 144.062 -5.06788 -2.97388 0
M  V30 1616 H 145.586 -4.74146 -3.84731 0
M  V30 1617 H 147 -5.47582 -1.69785 0
M  V30 1618 H 145.397 -5.91073 -1.03693 0
M  V30 1619 H 146.467 -4.84786 -0.105041 0
M  V30 1620 N 147.81 0.181792 -1.56548 0
M  V30 1621 C 148.72 1.24538 -1.98815 0
M  V30 1622 C 149.736 1.49045 -0.897861 0
M  V30 1623 O 150.912 1.61399 -1.20467 0
M  V30 1624 C 147.977 2.56683 -2.33055 0
M  V30 1625 C 147.038 2.40131 -3.55859 0
M  V30 1626 C 146.271 3.65975 -3.88456 0
M  V30 1627 O 146.494 4.70711 -3.22161 0
M  V30 1628 O 145.428 3.6071 -4.81842 0
M  V30 1629 H 149.254 0.916647 -2.89536 0
M  V30 1630 H 146.839 0.387842 -1.44278 0
M  V30 1631 H 148.721 3.34655 -2.56094 0
M  V30 1632 H 147.396 2.89157 -1.45498 0
M  V30 1633 H 146.303 1.60226 -3.38051 0
M  V30 1634 H 147.636 2.12585 -4.43924 0
M  V30 1635 N 149.288 1.51039 0.449983 0
M  V30 1636 C 150.513 1.6715 1.22783 0
M  V30 1637 C 150.938 0.363081 1.84563 0
M  V30 1638 O 150.296 -0.675433 1.68249 0
M  V30 1639 C 150.344 2.77985 2.29689 0
M  V30 1640 O 149.448 2.40707 3.34864 0
M  V30 1641 H 148.789 0.557746 0.360299 0
M  V30 1642 H 151.319 1.97535 0.533005 0
M  V30 1643 H 151.329 3.01693 2.74673 0
M  V30 1644 H 150.004 3.72935 1.84098 0
M  V30 1645 H 148.581 2.27523 2.95445 0
M  V30 1646 N 150.766 -0.704594 1.40972 0
M  V30 1647 C 151.676 -1.84856 1.44448 0
M  V30 1648 C 152.692 -1.70726 0.335961 0
M  V30 1649 O 153.868 -1.92799 0.582276 0
M  V30 1650 C 150.933 -3.20758 1.31587 0
M  V30 1651 C 149.994 -3.47063 2.52677 0
M  V30 1652 C 149.227 -4.76481 2.4042 0
M  V30 1653 O 149.45 -5.52341 1.42391 0
M  V30 1654 O 148.384 -5.03367 3.30007 0
M  V30 1655 H 152.21 -1.8488 2.40942 0
M  V30 1656 H 149.795 -0.85647 1.22413 0
M  V30 1657 H 151.677 -4.01913 1.26665 0
M  V30 1658 H 150.352 -3.21438 0.382049 0
M  V30 1659 H 149.259 -2.65873 2.63177 0
M  V30 1660 H 150.592 -3.5119 3.44858 0
M  V30 1661 N 152.244 -1.26651 -0.937939 0
M  V30 1662 C 153.176 -1.04283 -2.04102 0
M  V30 1663 C 154.189 -0.00221014 -1.628 0
M  V30 1664 O 155.378 -0.242645 -1.76843 0
M  V30 1665 C 152.478 -0.557846 -3.34277 0
M  V30 1666 C 151.651 -1.66843 -4.04329 0
M  V30 1667 C 150.71 -1.18095 -5.12777 0
M  V30 1668 O 149.736 -1.87865 -5.37304 0
M  V30 1669 N 150.938 -0.0311006 -5.80492 0
M  V30 1670 H 153.703 -1.9927 -2.23856 0
M  V30 1671 H 151.264 -1.1808 -1.10764 0
M  V30 1672 H 153.256 -0.215836 -4.04124 0
M  V30 1673 H 151.826 0.298523 -3.11171 0
M  V30 1674 H 151.046 -2.18123 -3.28353 0
M  V30 1675 H 152.334 -2.41408 -4.47883 0
M  V30 1676 H 151.732 0.551486 -5.63005 0
M  V30 1677 H 150.289 0.251809 -6.51313 0
M  V30 1678 N 153.722 1.14298 -1.08507 0
M  V30 1679 C 154.67 2.21483 -0.710483 0
M  V30 1680 C 155.664 1.66998 0.284234 0
M  V30 1681 O 156.87 1.79401 0.146692 0
M  V30 1682 H 153.245 0.721578 -0.211729 0
M  V30 1683 H 155.216 2.50348 -1.62384 0
M  V30 1684 C 153.965 3.4743 -0.137007 0
M  V30 1685 H 153.288 3.89686 -0.893592 0
M  V30 1686 H 154.728 4.2391 0.0872789 0
M  V30 1687 C 153.187 3.17548 1.12538 0
M  V30 1688 O 153.717 3.35437 2.21009 0
M  V30 1689 N 151.923 2.71499 1.03617 0
M  V30 1690 H 151.47 2.57143 0.153403 0
M  V30 1691 H 151.428 2.51881 1.88158 0
M  V30 1692 N 155.201 0.870884 1.31352 0
M  V30 1693 C 156.131 0.343096 2.30966 0
M  V30 1694 C 157.112 -0.566507 1.60389 0
M  V30 1695 O 158.297 -0.483336 1.88089 0
M  V30 1696 C 155.427 -0.455487 3.443 0
M  V30 1697 C 154.381 0.361103 4.26474 0
M  V30 1698 C 153.707 -0.563221 5.31725 0
M  V30 1699 C 155.007 1.59566 4.97329 0
M  V30 1700 H 156.701 1.17548 2.75359 0
M  V30 1701 H 154.247 0.566686 1.32381 0
M  V30 1702 H 156.2 -0.83525 4.13039 0
M  V30 1703 H 154.924 -1.32139 2.98675 0
M  V30 1704 H 153.583 0.722825 3.59403 0
M  V30 1705 H 153.231 -1.42643 4.82351 0
M  V30 1706 H 152.931 -0.0207409 5.87596 0
M  V30 1707 H 154.455 -0.939808 6.03324 0
M  V30 1708 H 155.869 1.28728 5.58661 0
M  V30 1709 H 154.266 2.07728 5.63 0
M  V30 1710 H 155.336 2.34798 4.24262 0
M  V30 1711 N 156.679 -1.44442 0.630414 0
M  V30 1712 C 157.609 -2.33418 -0.0618083 0
M  V30 1713 C 158.59 -1.48165 -0.835541 0
M  V30 1714 O 159.775 -1.76886 -0.801564 0
M  V30 1715 C 156.905 -3.31222 -1.04449 0
M  V30 1716 C 155.859 -4.26288 -0.382436 0
M  V30 1717 C 155.185 -5.13954 -1.47497 0
M  V30 1718 C 156.485 -5.1744 0.710865 0
M  V30 1719 H 158.179 -2.91548 0.681184 0
M  V30 1720 H 155.725 -1.40191 0.329026 0
M  V30 1721 H 157.678 -3.92351 -1.53748 0
M  V30 1722 H 156.402 -2.71299 -1.81836 0
M  V30 1723 H 155.061 -3.6649 0.0899054 0
M  V30 1724 H 154.709 -4.50385 -2.2397 0
M  V30 1725 H 154.409 -5.7837 -1.03737 0
M  V30 1726 H 155.933 -5.77955 -1.96979 0
M  V30 1727 H 157.347 -5.72509 0.300996 0
M  V30 1728 H 155.744 -5.90455 1.07156 0
M  V30 1729 H 156.814 -4.58496 1.57829 0
M  V30 1730 N 158.157 -0.370918 -1.53173 0
M  V30 1731 C 159.104 0.473035 -2.259 0
M  V30 1732 C 160.074 1.07311 -1.26781 0
M  V30 1733 O 161.259 1.1046 -1.55574 0
M  V30 1734 C 158.399 1.60405 -3.05556 0
M  V30 1735 C 157.512 1.02863 -4.19575 0
M  V30 1736 C 156.647 2.12918 -4.86661 0
M  V30 1737 C 155.686 1.52869 -5.92704 0
M  V30 1738 N 154.823 2.56779 -6.53459 0
M  V30 1739 H 159.663 -0.153649 -2.97604 0
M  V30 1740 H 157.2 -0.0875946 -1.46839 0
M  V30 1741 H 159.158 2.27034 -3.50016 0
M  V30 1742 H 157.788 2.20131 -2.36097 0
M  V30 1743 H 156.84 0.252465 -3.79561 0
M  V30 1744 H 158.152 0.549642 -4.95762 0
M  V30 1745 H 157.306 2.87356 -5.34333 0
M  V30 1746 H 156.045 2.6417 -4.09958 0
M  V30 1747 H 155.05 0.769479 -5.44389 0
M  V30 1748 H 156.275 1.02435 -6.7133 0
M  V30 1749 H 154.221 3.07235 -5.79606 0
M  V30 1750 H 154.138 2.13583 -7.25202 0
M  V30 1751 H 155.406 3.30903 -7.05779 0
M  V30 1752 N 159.635 1.57281 -0.100228 0
M  V30 1753 C 160.86 1.99302 0.573881 0
M  V30 1754 C 161.285 0.979059 1.60611 0
M  V30 1755 O 160.643 -0.0517803 1.81226 0
M  V30 1756 C 160.691 3.40274 1.19358 0
M  V30 1757 O 159.795 3.41676 2.30935 0
M  V30 1758 H 159.136 0.647944 0.145138 0
M  V30 1759 H 161.666 2.03779 -0.183156 0
M  V30 1760 H 161.676 3.78078 1.53365 0
M  V30 1761 H 160.351 4.13594 0.437385 0
M  V30 1762 H 158.928 3.15672 1.98509 0
M  V30 1763 N 161.113 -0.173488 1.56642 0
M  V30 1764 C 162.524 -0.736155 1.71574 0
M  V30 1765 C 162.875 -1.82888 0.710389 0
M  V30 1766 O 162 -2.16017 -0.1287 0
M  V30 1767 C 162.595 -1.34211 3.11083 0
M  V30 1768 C 161.154 -1.85162 3.27707 0
M  V30 1769 C 160.301 -0.729765 2.67525 0
M  V30 1770 H 163.252 0.0518786 1.58615 0
M  V30 1771 H 163.273 -2.21178 3.09613 0
M  V30 1772 H 162.785 -0.546579 3.84232 0
M  V30 1773 H 160.886 -2.67366 2.59512 0
M  V30 1774 H 160.999 -1.99855 4.35425 0
M  V30 1775 H 159.363 -1.14965 2.27278 0
M  V30 1776 H 160.146 0.0538806 3.43258 0
M  V30 1777 N 162.591 -1.51276 -0.441967 0
M  V30 1778 C 163.538 -1.72256 -1.53612 0
M  V30 1779 C 164.508 -0.564164 -1.56225 0
M  V30 1780 O 165.693 -0.798074 -1.73307 0
M  V30 1781 C 162.833 -1.84932 -2.91366 0
M  V30 1782 C 161.946 -3.12459 -2.98317 0
M  V30 1783 C 161.081 -3.15758 -4.27166 0
M  V30 1784 C 160.12 -4.37619 -4.27967 0
M  V30 1785 N 159.257 -4.38493 -5.48333 0
M  V30 1786 H 164.097 -2.65654 -1.35026 0
M  V30 1787 H 161.634 -1.31662 -0.656009 0
M  V30 1788 H 163.592 -1.90263 -3.7129 0
M  V30 1789 H 162.222 -0.949461 -3.08521 0
M  V30 1790 H 161.274 -3.1646 -2.11086 0
M  V30 1791 H 162.586 -4.02382 -2.94771 0
M  V30 1792 H 161.74 -3.19979 -5.15459 0
M  V30 1793 H 160.479 -2.23715 -4.33362 0
M  V30 1794 H 159.484 -4.33579 -3.38067 0
M  V30 1795 H 160.709 -5.30921 -4.23438 0
M  V30 1796 H 158.655 -3.49318 -5.55259 0
M  V30 1797 H 158.572 -5.22219 -5.46647 0
M  V30 1798 H 159.84 -4.469 -6.38671 0
M  V30 1799 N 164.069 0.697108 -1.41344 0
M  V30 1800 C 165.315 1.4593 -1.40827 0
M  V30 1801 C 165.648 1.94193 -0.0167098 0
M  V30 1802 O 164.923 1.69425 0.955263 0
M  V30 1803 C 165.206 2.67229 -2.41373 0
M  V30 1804 C 165.059 2.24741 -3.8963 0
M  V30 1805 C 166.378 3.69423 -2.39196 0
M  V30 1806 H 163.497 0.529303 -0.512842 0
M  V30 1807 H 166.139 0.794112 -1.72609 0
M  V30 1808 H 164.289 3.23982 -2.14401 0
M  V30 1809 H 165.961 1.73327 -4.27499 0
M  V30 1810 H 164.204 1.56542 -4.0457 0
M  V30 1811 H 164.875 3.1177 -4.55525 0
M  V30 1812 H 167.351 3.2234 -2.63128 0
M  V30 1813 H 166.227 4.51907 -3.11563 0
M  V30 1814 H 166.488 4.19012 -1.41001 0
M  V30 1815 N 165.547 1.27147 0.931209 0
M  V30 1816 C 166.796 1.12664 1.67302 0
M  V30 1817 C 167.109 -0.327718 1.92835 0
M  V30 1818 O 168.315 -0.593392 2.64936 0
M  V30 1819 C 166.771 1.9683 3.01307 0
M  V30 1820 C 166.379 3.46901 2.83485 0
M  V30 1821 C 168.123 1.90985 3.79111 0
M  V30 1822 C 166.03 4.23279 4.13024 0
M  V30 1823 H 164.96 0.41803 0.627509 0
M  V30 1824 H 167.611 1.51539 1.03481 0
M  V30 1825 H 165.993 1.50797 3.66164 0
M  V30 1826 H 167.167 4.00773 2.27415 0
M  V30 1827 H 165.482 3.54088 2.19113 0
M  V30 1828 H 168.079 2.45328 4.75098 0
M  V30 1829 H 168.422 0.882718 4.06834 0
M  V30 1830 H 168.955 2.34895 3.21044 0
M  V30 1831 H 165.694 5.26503 3.90481 0
M  V30 1832 H 165.214 3.74186 4.6877 0
M  V30 1833 H 166.893 4.32265 4.81411 0
M  V30 1834 N 167.025 -1.13721 1.09112 0
M  V30 1835 C 168.273 -1.84559 0.823562 0
M  V30 1836 C 168.594 -1.83754 -0.652658 0
M  V30 1837 O 167.864 -1.29102 -1.47342 0
M  V30 1838 H 166.444 -0.683376 0.301673 0
M  V30 1839 H 169.106 -1.37771 1.37859 0
M  V30 1840 H 168.202 -2.8917 1.17419 0
M  V30 1841 N 168.503 -0.877838 -1.30888 0
M  V30 1842 C 169.752 -0.488793 -1.95688 0
M  V30 1843 C 170.065 0.965485 -1.70111 0
M  V30 1844 O 171.271 1.46104 -2.28836 0
M  V30 1845 C 169.727 -0.823201 -3.50359 0
M  V30 1846 C 169.335 -2.29477 -3.84765 0
M  V30 1847 C 171.079 -0.503009 -4.21509 0
M  V30 1848 C 168.986 -2.57118 -5.32583 0
M  V30 1849 H 167.916 -0.179062 -0.732429 0
M  V30 1850 H 170.567 -1.07183 -1.48943 0
M  V30 1851 H 168.949 -0.169331 -3.95638 0
M  V30 1852 H 170.123 -2.99236 -3.5042 0
M  V30 1853 H 168.438 -2.58178 -3.267 0
M  V30 1854 H 171.035 -0.68665 -5.30273 0
M  V30 1855 H 171.378 0.557109 -4.12555 0
M  V30 1856 H 171.911 -1.11376 -3.8189 0
M  V30 1857 H 168.65 -3.61843 -5.4658 0
M  V30 1858 H 168.17 -1.91961 -5.68253 0
M  V30 1859 H 169.849 -2.42251 -5.99936 0
M  V30 1860 N 169.982 1.44106 -0.638065 0
M  V30 1861 C 171.398 1.56672 -0.304286 0
M  V30 1862 C 171.598 1.6244 1.19228 0
M  V30 1863 O 170.654 1.57121 1.9766 0
M  V30 1864 C 171.967 2.83503 -1.00231 0
M  V30 1865 C 173.515 2.97226 -0.981116 0
M  V30 1866 C 173.99 4.26868 -1.65974 0
M  V30 1867 N 175.481 4.33698 -1.62666 0
M  V30 1868 C 176.216 5.32745 -2.12063 0
M  V30 1869 N 175.712 6.38157 -2.6968 0
M  V30 1870 N 177.505 5.24299 -2.02651 0
M  V30 1871 H 169.656 1.38605 -1.60942 0
M  V30 1872 H 171.919 0.664661 -0.675965 0
M  V30 1873 H 171.625 2.85251 -2.0573 0
M  V30 1874 H 171.499 3.73251 -0.54439 0
M  V30 1875 H 173.886 2.95027 0.0654188 0
M  V30 1876 H 173.967 2.08808 -1.47759 0
M  V30 1877 H 173.611 4.29826 -2.70576 0
M  V30 1878 H 173.541 5.14156 -1.13804 0
M  V30 1879 H 176.032 3.58138 -1.20606 0
M  V30 1880 H 176.345 7.10029 -3.05087 0
M  V30 1881 H 174.69 6.38823 -2.73734 0
M  V30 1882 H 177.881 4.4086 -1.57353 0
M  V30 1883 H 178.054 6.01334 -2.41457 0
M  V30 1884 N 171.46 0.379036 1.52974 0
M  V30 1885 C 172.39 -0.452706 2.29069 0
M  V30 1886 C 173.371 -1.07237 1.32039 0
M  V30 1887 O 174.556 -1.08708 1.60923 0
M  V30 1888 C 171.686 -1.5856 3.08992 0
M  V30 1889 C 170.64 -1.0925 4.13822 0
M  V30 1890 C 169.966 -2.31668 4.81907 0
M  V30 1891 C 171.266 -0.167702 5.22031 0
M  V30 1892 H 172.96 0.182181 2.98845 0
M  V30 1893 H 170.506 0.0890592 1.43724 0
M  V30 1894 H 172.459 -2.1742 3.6098 0
M  V30 1895 H 171.183 -2.24792 2.36931 0
M  V30 1896 H 169.842 -0.526494 3.628 0
M  V30 1897 H 169.49 -2.96386 4.06404 0
M  V30 1898 H 169.19 -1.9934 5.52754 0
M  V30 1899 H 170.714 -2.91189 5.36695 0
M  V30 1900 H 172.128 -0.664186 5.6944 0
M  V30 1901 H 170.525 0.0653265 6.00064 0
M  V30 1902 H 171.595 0.786347 4.78482 0
M  V30 1903 N 172.938 -1.57226 0.108567 0
M  V30 1904 C 174.187 -1.94008 -0.551703 0
M  V30 1905 C 174.5 -0.993442 -1.68494 0
M  V30 1906 O 175.706 -1.25551 -2.40726 0
M  V30 1907 C 174.162 -3.44763 -1.03279 0
M  V30 1908 C 173.77 -4.47943 0.0714193 0
M  V30 1909 C 175.514 -3.90483 -1.66503 0
M  V30 1910 C 173.421 -5.89865 -0.425779 0
M  V30 1911 H 172.351 -0.724206 -0.209863 0
M  V30 1912 H 175.002 -1.82547 0.186741 0
M  V30 1913 H 173.384 -3.51422 -1.82533 0
M  V30 1914 H 174.558 -4.52942 0.847365 0
M  V30 1915 H 172.873 -4.11913 0.609669 0
M  V30 1916 H 175.47 -4.93925 -2.04798 0
M  V30 1917 H 175.813 -3.29877 -2.53942 0
M  V30 1918 H 176.346 -3.86581 -0.938074 0
M  V30 1919 H 173.085 -6.54202 0.412316 0
M  V30 1920 H 172.605 -5.88309 -1.16843 0
M  V30 1921 H 174.284 -6.40844 -0.890397 0
M  V30 1922 N 174.416 0.165178 -1.56732 0
M  V30 1923 C 175.641 0.900253 -1.86843 0
M  V30 1924 C 176.066 1.74766 -0.695596 0
M  V30 1925 O 175.424 1.77786 0.35522 0
M  V30 1926 C 175.472 1.74777 -3.15413 0
M  V30 1927 O 174.576 2.85007 -2.98068 0
M  V30 1928 H 173.917 0.251832 -0.614391 0
M  V30 1929 H 176.447 0.161468 -2.03962 0
M  V30 1930 H 176.457 2.14646 -3.46974 0
M  V30 1931 H 175.132 1.12537 -4.00385 0
M  V30 1932 H 173.709 2.48676 -2.77875 0
M  V30 1933 N 175.894 1.51508 0.433938 0
M  V30 1934 C 177.122 1.68157 1.20543 0
M  V30 1935 C 177.537 0.380362 1.84929 0
M  V30 1936 O 176.894 -0.641446 1.70856 0
M  V30 1937 C 176.945 2.79965 2.28696 0
M  V30 1938 O 176.666 4.05045 1.66943 0
M  V30 1939 C 178.167 3.07912 3.18912 0
M  V30 1940 H 175.387 0.56421 0.363191 0
M  V30 1941 H 177.931 1.97941 0.513754 0
M  V30 1942 H 176.086 2.5277 2.93574 0
M  V30 1943 H 176.5 4.67165 2.38448 0
M  V30 1944 H 177.974 3.89719 3.90926 0
M  V30 1945 H 178.451 2.20456 3.79863 0
M  V30 1946 H 179.057 3.36779 2.59731 0
M  V30 1947 N 177.372 -0.689602 1.41712 0
M  V30 1948 C 178.302 -1.81577 1.46806 0
M  V30 1949 C 179.283 -1.66945 0.326105 0
M  V30 1950 O 180.468 -1.86588 0.538377 0
M  V30 1951 C 177.598 -3.19762 1.35535 0
M  V30 1952 C 176.552 -3.49107 2.47605 0
M  V30 1953 C 175.878 -4.86711 2.21397 0
M  V30 1954 C 177.178 -3.47483 3.89939 0
M  V30 1955 H 178.872 -1.7757 2.41058 0
M  V30 1956 H 176.418 -0.852887 1.16025 0
M  V30 1957 H 178.371 -3.98263 1.3771 0
M  V30 1958 H 177.095 -3.24409 0.377708 0
M  V30 1959 H 175.754 -2.72959 2.44722 0
M  V30 1960 H 175.402 -4.8799 1.21961 0
M  V30 1961 H 175.102 -5.0731 2.96497 0
M  V30 1962 H 176.626 -5.67515 2.25297 0
M  V30 1963 H 178.04 -4.1598 3.94505 0
M  V30 1964 H 176.437 -3.79615 4.64771 0
M  V30 1965 H 177.507 -2.46341 4.17665 0
M  V30 1966 N 178.85 -1.27639 -0.924453 0
M  V30 1967 C 179.797 -1.10644 -2.0255 0
M  V30 1968 C 180.767 -0.00658438 -1.66099 0
M  V30 1969 O 181.952 -0.16952 -1.90045 0
M  V30 1970 C 179.092 -0.76309 -3.36557 0
M  V30 1971 C 178.205 -1.94091 -3.85944 0
M  V30 1972 C 177.34 -1.53914 -5.08413 0
M  V30 1973 C 176.379 -2.68425 -5.50104 0
M  V30 1974 N 175.516 -2.28815 -6.63768 0
M  V30 1975 H 180.356 -2.04858 -2.16419 0
M  V30 1976 H 177.893 -1.01974 -1.06017 0
M  V30 1977 H 179.851 -0.544822 -4.13627 0
M  V30 1978 H 178.481 0.142102 -3.22487 0
M  V30 1979 H 177.533 -2.27162 -3.05125 0
M  V30 1980 H 178.845 -2.7998 -4.12811 0
M  V30 1981 H 177.999 -1.28231 -5.92994 0
M  V30 1982 H 176.738 -0.651391 -4.8333 0
M  V30 1983 H 175.743 -2.94819 -4.64071 0
M  V30 1984 H 176.968 -3.57826 -5.7718 0
M  V30 1985 H 174.914 -1.42495 -6.40337 0
M  V30 1986 H 174.831 -3.08242 -6.90306 0
M  V30 1987 H 176.099 -2.06387 -7.51681 0
M  V30 1988 N 180.328 1.1314 -1.09713 0
M  V30 1989 C 181.291 2.16831 -0.742751 0
M  V30 1990 C 182.291 1.59159 0.229129 0
M  V30 1991 O 183.481 1.74199 0.00693237 0
M  V30 1992 C 180.613 3.40756 -0.0989168 0
M  V30 1993 H 181.806 2.49695 -1.66109 0
M  V30 1994 H 179.359 1.2802 -0.896699 0
M  V30 1995 H 180.094 3.13485 0.830514 0
M  V30 1996 H 179.879 3.83888 -0.798265 0
M  V30 1997 H 181.369 4.17386 0.133524 0
M  V30 1998 N 181.806 0.884767 1.30421 0
M  V30 1999 C 183.055 0.499164 1.95426 0
M  V30 2000 C 183.368 -0.95645 1.70621 0
M  V30 2001 O 184.574 -1.44889 2.29607 0
M  V30 2002 C 183.03 0.84177 3.49917 0
M  V30 2003 C 182.638 2.31514 3.83543 0
M  V30 2004 C 184.382 0.525355 4.21237 0
M  V30 2005 C 182.289 2.59939 5.31212 0
M  V30 2006 H 181.219 0.182944 0.73147 0
M  V30 2007 H 183.87 1.07971 1.48373 0
M  V30 2008 H 182.252 0.190311 3.95542 0
M  V30 2009 H 183.426 3.0109 3.48829 0
M  V30 2010 H 181.741 2.59907 3.25326 0
M  V30 2011 H 184.338 0.714762 5.29901 0
M  V30 2012 H 184.681 -0.535222 4.12845 0
M  V30 2013 H 185.214 1.134 3.81294 0
M  V30 2014 H 181.953 3.64736 5.44654 0
M  V30 2015 H 181.473 1.94972 5.67227 0
M  V30 2016 H 183.152 2.45429 5.98643 0
M  V30 2017 N 183.284 -1.43765 0.645699 0
M  V30 2018 C 184.247 -2.29163 -0.0409488 0
M  V30 2019 C 185.247 -1.41813 -0.757996 0
M  V30 2020 O 186.437 -1.63527 -0.600382 0
M  V30 2021 C 183.569 -3.23716 -1.06869 0
M  V30 2022 H 184.762 -2.91366 0.710345 0
M  V30 2023 H 182.315 -1.5092 0.406547 0
M  V30 2024 H 183.05 -2.66393 -1.84947 0
M  V30 2025 H 182.835 -3.88105 -0.558277 0
M  V30 2026 H 184.325 -3.87831 -1.54845 0
M  V30 2027 N 184.763 -0.387143 -1.52771 0
M  V30 2028 C 186.01 0.195735 -2.01552 0
M  V30 2029 C 186.338 1.46995 -1.27369 0
M  V30 2030 O 185.593 1.92325 -0.361879 0
M  V30 2031 C 185.892 0.512209 -3.53711 0
M  V30 2032 C 185.558 -0.670202 -4.45891 0
M  V30 2033 C 184.22 -0.994586 -4.70809 0
M  V30 2034 C 186.572 -1.46134 -5.00294 0
M  V30 2035 C 183.9 -2.11169 -5.4738 0
M  V30 2036 C 186.252 -2.56903 -5.78086 0
M  V30 2037 C 184.916 -2.89852 -6.01284 0
M  V30 2038 H 184.186 0.0716246 -0.73753 0
M  V30 2039 H 186.833 -0.524046 -1.8419 0
M  V30 2040 H 185.138 1.31329 -3.69134 0
M  V30 2041 H 186.835 0.975804 -3.88946 0
M  V30 2042 H 183.425 -0.407366 -4.2666 0
M  V30 2043 H 187.609 -1.22397 -4.80971 0
M  V30 2044 H 182.865 -2.3707 -5.63567 0
M  V30 2045 H 187.039 -3.18608 -6.19243 0
M  V30 2046 H 184.666 -3.76533 -6.60399 0
M  V30 2047 N 186.241 1.57166 -0.116904 0
M  V30 2048 C 187.466 1.999 0.55271 0
M  V30 2049 C 187.891 0.996039 1.59564 0
M  V30 2050 O 187.249 -0.032556 1.81271 0
M  V30 2051 C 187.297 3.4152 1.15742 0
M  V30 2052 O 186.401 3.44106 2.27299 0
M  V30 2053 H 185.742 0.649447 0.138258 0
M  V30 2054 H 188.272 2.03573 -0.204759 0
M  V30 2055 H 188.282 3.79684 1.49346 0
M  V30 2056 H 186.957 4.14034 0.393493 0
M  V30 2057 H 185.534 3.17759 1.9515 0
M  V30 2058 N 187.719 -0.156864 1.56817 0
M  V30 2059 C 188.652 -1.22316 1.9265 0
M  V30 2060 C 189.63 -1.42059 0.791076 0
M  V30 2061 O 190.814 -1.56831 1.04576 0
M  V30 2062 C 187.941 -2.58375 2.18998 0
M  V30 2063 C 186.987 -2.55284 3.41661 0
M  V30 2064 S 187.82 -2.02946 4.95553 0
M  V30 2065 C 188.976 -3.40753 5.25013 0
M  V30 2066 H 189.209 -0.917403 2.82791 0
M  V30 2067 H 186.742 -0.362059 1.50095 0
M  V30 2068 H 188.7 -3.36677 2.34859 0
M  V30 2069 H 187.361 -2.86145 1.29538 0
M  V30 2070 H 186.554 -3.55418 3.57343 0
M  V30 2071 H 186.156 -1.85086 3.24991 0
M  V30 2072 H 188.448 -4.36819 5.17876 0
M  V30 2073 H 189.391 -3.29933 6.26538 0
M  V30 2074 H 189.799 -3.37433 4.52548 0
M  V30 2075 N 189.197 -1.51736 -0.425897 0
M  V30 2076 C 190.474 -1.55519 -1.1863 0
M  V30 2077 C 190.854 -0.326219 -2.08564 0
M  V30 2078 O 190.202 0.688012 -2.17896 0
M  V30 2079 C 190.412 -2.87521 -1.9782 0
M  V30 2080 C 191.76 -3.39899 -2.54468 0
M  V30 2081 O 192.784 -2.89148 -2.08019 0
M  V30 2082 O 191.643 -4.2848 -3.39215 0
M  V30 2083 H 188.737 -0.625739 -0.540721 0
M  V30 2084 H 191.283 -1.64055 -0.434038 0
M  V30 2085 H 190.055 -3.68422 -1.31836 0
M  V30 2086 H 189.678 -2.822 -2.80088 0
M  V30 2087 N 190.675 0.682077 -1.42076 0
M  V30 2088 C 191.9 1.47558 -1.45744 0
M  V30 2089 C 192.325 1.87977 -0.0680981 0
M  V30 2090 O 191.683 1.55522 0.9318 0
M  V30 2091 C 191.731 2.70575 -2.38373 0
M  V30 2092 O 190.835 3.68573 -1.85007 0
M  V30 2093 H 190.176 0.443585 -0.494093 0
M  V30 2094 H 192.706 0.837238 -1.86686 0
M  V30 2095 H 192.716 3.18729 -2.54707 0
M  V30 2096 H 191.391 2.40495 -3.39315 0
M  V30 2097 H 189.968 3.2757 -1.78192 0
M  V30 2098 N 192.153 1.28127 0.917671 0
M  V30 2099 C 193.564 1.13622 1.48145 0
M  V30 2100 C 193.915 -0.275207 1.9426 0
M  V30 2101 O 193.04 -1.1691 1.82102 0
M  V30 2102 C 193.635 2.05648 2.69248 0
M  V30 2103 C 192.194 1.95219 3.21818 0
M  V30 2104 C 191.341 1.97618 1.94532 0
M  V30 2105 H 194.292 1.40874 0.730772 0
M  V30 2106 H 194.313 1.61818 3.44377 0
M  V30 2107 H 193.825 3.08365 2.35653 0
M  V30 2108 H 191.926 0.955244 3.60147 0
M  V30 2109 H 192.039 2.81976 3.87333 0
M  V30 2110 H 190.403 1.41973 2.11461 0
M  V30 2111 H 191.186 3.02007 1.63238 0
M  V30 2112 N 193.631 -1.12557 1.10312 0
M  V30 2113 C 194.879 -1.83675 0.843091 0
M  V30 2114 C 195.2 -1.84435 -0.633131 0
M  V30 2115 O 194.47 -1.30657 -1.45964 0
M  V30 2116 H 193.05 -0.680138 0.308904 0
M  V30 2117 H 195.712 -1.36301 1.39313 0
M  V30 2118 H 194.808 -2.87908 1.2048 0
M  V30 2119 N 195.109 -0.891671 -1.2995 0
M  V30 2120 C 196.019 -0.367691 -2.31701 0
M  V30 2121 C 197.035 0.533486 -1.6562 0
M  V30 2122 O 198.211 0.424997 -1.96865 0
M  V30 2123 C 195.276 0.403406 -3.44345 0
M  V30 2124 C 194.337 -0.528328 -4.26037 0
M  V30 2125 C 193.57 0.206063 -5.33302 0
M  V30 2126 O 193.793 1.43119 -5.52153 0
M  V30 2127 O 192.727 -0.447281 -6.00236 0
M  V30 2128 H 196.553 -1.21163 -2.78484 0
M  V30 2129 H 194.138 -0.655725 -1.34241 0
M  V30 2130 H 196.02 0.839753 -4.12948 0
M  V30 2131 H 194.695 1.22354 -2.99685 0
M  V30 2132 H 193.602 -1.01362 -3.60106 0
M  V30 2133 H 194.935 -1.31465 -4.74318 0
M  V30 2134 N 196.587 1.43421 -0.653314 0
M  V30 2135 C 197.55 2.29182 0.0287951 0
M  V30 2136 C 198.55 1.42213 0.750465 0
M  V30 2137 O 199.74 1.63843 0.591701 0
M  V30 2138 C 196.872 3.24278 1.05151 0
M  V30 2139 H 198.065 2.90985 -0.725786 0
M  V30 2140 H 195.618 1.50702 -0.414545 0
M  V30 2141 H 196.353 2.6737 1.83532 0
M  V30 2142 H 196.138 3.88396 0.537687 0
M  V30 2143 H 197.628 3.88647 1.52786 0
M  V30 2144 N 198.065 0.39524 1.52563 0
M  V30 2145 C 199.481 0.0454682 1.59535 0
M  V30 2146 C 199.681 -1.44056 1.4089 0
M  V30 2147 O 198.737 -2.20579 1.22888 0
M  V30 2148 C 200.05 0.527963 2.96029 0
M  V30 2149 C 201.598 0.484733 3.09224 0
M  V30 2150 C 202.073 0.943512 4.48176 0
M  V30 2151 N 203.564 0.899765 4.54377 0
M  V30 2152 C 204.299 1.22609 5.60138 0
M  V30 2153 N 203.795 1.62319 6.73516 0
M  V30 2154 N 205.588 1.14696 5.50274 0
M  V30 2155 H 197.739 1.36261 1.62931 0
M  V30 2156 H 200.002 0.558887 0.765735 0
M  V30 2157 H 199.708 1.56607 3.14908 0
M  V30 2158 H 199.582 -0.0698056 3.77135 0
M  V30 2159 H 201.969 -0.544298 2.90037 0
M  V30 2160 H 202.05 1.11838 2.30056 0
M  V30 2161 H 201.694 1.9708 4.68104 0
M  V30 2162 H 201.624 0.286817 5.25818 0
M  V30 2163 H 204.115 0.607632 3.72983 0
M  V30 2164 H 204.428 1.85567 7.5019 0
M  V30 2165 H 202.773 1.66211 6.74833 0
M  V30 2166 H 205.964 0.835701 4.6058 0
M  V30 2167 H 206.137 1.40459 6.32594 0
M  V30 2168 N 199.544 -1.57102 0.125237 0
M  V30 2169 C 200.793 -1.94582 -0.531095 0
M  V30 2170 C 201.106 -1.01126 -1.6743 0
M  V30 2171 O 202.312 -1.28097 -2.39381 0
M  V30 2172 C 200.768 -3.45839 -0.996164 0
M  V30 2173 C 200.376 -4.47842 0.118926 0
M  V30 2174 C 202.12 -3.92227 -1.62352 0
M  V30 2175 C 200.027 -5.90284 -0.363192 0
M  V30 2176 H 198.957 -0.726391 -0.20217 0
M  V30 2177 H 201.608 -1.82339 0.206092 0
M  V30 2178 H 199.99 -3.53338 -1.78796 0
M  V30 2179 H 201.164 -4.52018 0.895358 0
M  V30 2180 H 199.479 -4.11243 0.653324 0
M  V30 2181 H 202.076 -4.96069 -1.99548 0
M  V30 2182 H 202.419 -3.32552 -2.50429 0
M  V30 2183 H 202.952 -3.87554 -0.897019 0
M  V30 2184 H 199.691 -6.53728 0.481679 0
M  V30 2185 H 199.211 -5.89515 -1.10597 0
M  V30 2186 H 200.89 -6.41752 -0.822377 0
M  V30 2187 N 201.022 0.148545 -1.56898 0
M  V30 2188 C 202.269 0.861418 -1.83264 0
M  V30 2189 C 202.597 1.81239 -0.705883 0
M  V30 2190 O 201.852 1.93305 0.305212 0
M  V30 2191 C 202.151 1.67064 -3.1595 0
M  V30 2192 C 201.817 0.866591 -4.42494 0
M  V30 2193 C 200.479 0.644762 -4.76861 0
M  V30 2194 C 202.831 0.30418 -5.20312 0
M  V30 2195 C 200.159 -0.15021 -5.86508 0
M  V30 2196 C 202.511 -0.477824 -6.30793 0
M  V30 2197 C 201.175 -0.710244 -6.63711 0
M  V30 2198 H 200.445 0.315215 -0.670612 0
M  V30 2199 H 203.092 0.125142 -1.91091 0
M  V30 2200 H 201.397 2.47698 -3.03567 0
M  V30 2201 H 203.094 2.22566 -3.33565 0
M  V30 2202 H 199.684 1.04955 -4.15551 0
M  V30 2203 H 203.868 0.462844 -4.94137 0
M  V30 2204 H 199.124 -0.339796 -6.10455 0
M  V30 2205 H 203.298 -0.92076 -6.90286 0
M  V30 2206 H 200.925 -1.3281 -7.48509 0
M  V30 2207 N 202.5 1.5196 0.417844 0
M  V30 2208 C 203.448 1.75278 1.52907 0
M  V30 2209 C 204.442 0.619611 1.57662 0
M  V30 2210 O 205.648 0.801457 1.61173 0
M  V30 2211 H 202.023 0.554141 0.508362 0
M  V30 2212 H 203.994 2.68389 1.30422 0
M  V30 2213 C 202.743 1.91262 2.90369 0
M  V30 2214 H 202.066 2.77872 2.8745 0
M  V30 2215 H 203.506 2.11581 3.67436 0
M  V30 2216 C 201.965 0.677431 3.30019 0
M  V30 2217 O 202.495 -0.158799 4.01386 0
M  V30 2218 N 200.701 0.515851 2.85985 0
M  V30 2219 H 200.248 1.19744 2.28077 0
M  V30 2220 H 200.206 -0.309315 3.12875 0
M  V30 2221 N 203.978 -0.674533 1.42435 0
M  V30 2222 C 205.255 -1.4305 1.33402 0
M  V30 2223 C 205.635 -2.11081 -0.0284674 0
M  V30 2224 O 204.983 -2.03257 -1.04397 0
M  V30 2225 C 205.193 -2.43272 2.50239 0
M  V30 2226 C 206.541 -3.07907 2.92367 0
M  V30 2227 O 207.565 -2.53599 2.50132 0
M  V30 2228 O 206.424 -4.0632 3.65467 0
M  V30 2229 H 203.518 -0.638076 0.526106 0
M  V30 2230 H 206.064 -0.703235 1.54443 0
M  V30 2231 H 204.836 -1.91803 3.41068 0
M  V30 2232 H 204.459 -3.23479 2.31186 0
M  V30 2233 N 205.456 -1.28612 -0.910864 0
M  V30 2234 C 206.703 -1.15934 -1.66029 0
M  V30 2235 C 207.031 0.291483 -1.92303 0
M  V30 2236 O 206.286 1.22816 -1.52364 0
M  V30 2237 C 206.585 -1.90624 -3.0232 0
M  V30 2238 C 206.251 -3.40405 -2.95695 0
M  V30 2239 C 204.913 -3.81255 -2.93595 0
M  V30 2240 C 207.265 -4.359 -2.85728 0
M  V30 2241 C 204.593 -5.15936 -2.79334 0
M  V30 2242 C 206.945 -5.70657 -2.73007 0
M  V30 2243 C 205.609 -6.10779 -2.69267 0
M  V30 2244 H 204.879 -0.424234 -0.607541 0
M  V30 2245 H 207.526 -1.5942 -1.06101 0
M  V30 2246 H 205.831 -1.39696 -3.6605 0
M  V30 2247 H 207.528 -1.78228 -3.59215 0
M  V30 2248 H 204.118 -3.07927 -2.98125 0
M  V30 2249 H 208.302 -4.053 -2.86436 0
M  V30 2250 H 203.558 -5.46146 -2.74835 0
M  V30 2251 H 207.732 -6.44311 -2.64264 0
M  V30 2252 H 205.359 -7.1509 -2.57974 0
M  V30 2253 N 206.934 1.1197 -1.10907 0
M  V30 2254 C 207.864 2.19928 -0.784473 0
M  V30 2255 C 208.845 1.6833 0.244726 0
M  V30 2256 O 210.03 1.93892 0.109418 0
M  V30 2257 C 207.16 3.46597 -0.220827 0
M  V30 2258 C 206.114 4.11376 -1.18127 0
M  V30 2259 C 205.44 5.32554 -0.478594 0
M  V30 2260 C 206.74 4.56945 -2.52979 0
M  V30 2261 H 208.434 2.47337 -1.68715 0
M  V30 2262 H 205.98 1.18879 -0.812642 0
M  V30 2263 H 207.933 4.21396 0.0184278 0
M  V30 2264 H 206.657 3.1863 0.717113 0
M  V30 2265 H 205.316 3.38564 -1.40606 0
M  V30 2266 H 204.964 5.00856 0.463976 0
M  V30 2267 H 204.664 5.76844 -1.11912 0
M  V30 2268 H 206.188 6.10096 -0.248 0
M  V30 2269 H 207.602 5.23093 -2.3462 0
M  V30 2270 H 205.999 5.1203 -3.12962 0
M  V30 2271 H 207.069 3.70676 -3.12614 0
M  V30 2272 N 208.412 0.89855 1.29475 0
M  V30 2273 C 209.344 0.332726 2.26772 0
M  V30 2274 C 210.357 -0.520323 1.54261 0
M  V30 2275 O 211.546 -0.337668 1.75277 0
M  V30 2276 C 208.646 -0.544334 3.345 0
M  V30 2277 C 207.819 0.282728 4.36485 0
M  V30 2278 C 206.878 -0.526982 5.23555 0
M  V30 2279 O 205.904 0.0551165 5.69173 0
M  V30 2280 N 207.106 -1.83331 5.5079 0
M  V30 2281 H 209.871 1.16897 2.75962 0
M  V30 2282 H 207.432 0.762919 1.42798 0
M  V30 2283 H 209.424 -1.09239 3.89678 0
M  V30 2284 H 207.994 -1.28127 2.85136 0
M  V30 2285 H 207.214 1.01221 3.80983 0
M  V30 2286 H 208.502 0.84918 5.01664 0
M  V30 2287 H 207.9 -2.32898 5.15534 0
M  V30 2288 H 206.457 -2.32852 6.08788 0
M  V30 2289 N 209.89 -1.43072 0.660911 0
M  V30 2290 C 210.837 -2.30785 -0.0259884 0
M  V30 2291 C 211.807 -1.45184 -0.806888 0
M  V30 2292 O 212.992 -1.74041 -0.781943 0
M  V30 2293 C 210.132 -3.30861 -0.981067 0
M  V30 2294 C 209.245 -4.31558 -0.195458 0
M  V30 2295 C 208.38 -5.18712 -1.14503 0
M  V30 2296 C 207.419 -6.11097 -0.350299 0
M  V30 2297 N 206.556 -6.90849 -1.25186 0
M  V30 2298 H 211.396 -2.88975 0.727846 0
M  V30 2299 H 208.933 -1.42353 0.370682 0
M  V30 2300 H 210.891 -3.87399 -1.54849 0
M  V30 2301 H 209.521 -2.74304 -1.70169 0
M  V30 2302 H 208.573 -3.77252 0.488374 0
M  V30 2303 H 209.885 -4.9701 0.422176 0
M  V30 2304 H 209.039 -5.79914 -1.78284 0
M  V30 2305 H 207.778 -4.53404 -1.79656 0
M  V30 2306 H 206.783 -5.48976 0.300808 0
M  V30 2307 H 208.008 -6.7845 0.296941 0
M  V30 2308 H 205.954 -6.28182 -1.89005 0
M  V30 2309 H 205.871 -7.52854 -0.688971 0
M  V30 2310 H 207.139 -7.5655 -1.87757 0
M  V30 2311 N 211.368 -0.403325 -1.52352 0
M  V30 2312 C 212.598 0.17376 -2.05868 0
M  V30 2313 C 213.006 1.39898 -1.27378 0
M  V30 2314 O 212.349 1.80939 -0.31729 0
M  V30 2315 C 212.411 0.594756 -3.54546 0
M  V30 2316 C 212.075 -0.518926 -4.54044 0
M  V30 2317 C 213.072 -1.3807 -5.01231 0
M  V30 2318 C 210.757 -0.689961 -4.97539 0
M  V30 2319 C 212.751 -2.39852 -5.90551 0
M  V30 2320 C 210.438 -1.71109 -5.86656 0
M  V30 2321 C 211.436 -2.56378 -6.33056 0
M  V30 2322 O 211.124 -3.56743 -7.20409 0
M  V30 2323 H 210.856 0.0264951 -0.675481 0
M  V30 2324 H 213.41 -0.571179 -1.97299 0
M  V30 2325 H 211.64 1.39189 -3.60782 0
M  V30 2326 H 213.329 1.0991 -3.90736 0
M  V30 2327 H 214.095 -1.25994 -4.68349 0
M  V30 2328 H 209.974 -0.035939 -4.60986 0
M  V30 2329 H 213.518 -3.06441 -6.26689 0
M  V30 2330 H 209.415 -1.83218 -6.18952 0
M  V30 2331 H 210.183 -3.52918 -7.38506 0
M  V30 2332 N 212.846 1.57033 -0.133567 0
M  V30 2333 C 214.086 1.97575 0.523789 0
M  V30 2334 C 214.45 1.01605 1.62912 0
M  V30 2335 O 215.651 1.3114 2.3464 0
M  V30 2336 C 213.922 3.42256 1.02935 0
M  V30 2337 S 215.481 4.04817 1.69319 0
M  V30 2338 H 212.299 0.690427 0.169799 0
M  V30 2339 H 214.901 1.94234 -0.222101 0
M  V30 2340 H 213.605 4.09842 0.213917 0
M  V30 2341 H 213.136 3.4928 1.81017 0
M  V30 2342 H 215.151 3.96767 2.97977 0
M  V30 2343 N 214.325 -0.140222 1.56975 0
M  V30 2344 C 215.255 -1.17456 2.01808 0
M  V30 2345 C 216.236 -1.44415 0.898794 0
M  V30 2346 O 217.421 -1.5522 1.16707 0
M  V30 2347 C 214.551 -2.50607 2.40444 0
M  V30 2348 C 213.505 -2.38155 3.55621 0
M  V30 2349 C 212.831 -3.76078 3.80091 0
M  V30 2350 C 214.131 -1.85991 4.88062 0
M  V30 2351 H 215.825 -0.801743 2.88466 0
M  V30 2352 H 213.371 -0.38422 1.38779 0
M  V30 2353 H 215.324 -3.23197 2.7041 0
M  V30 2354 H 214.048 -2.89737 1.50732 0
M  V30 2355 H 212.707 -1.68016 3.25832 0
M  V30 2356 H 212.355 -4.12656 2.87618 0
M  V30 2357 H 212.055 -3.68606 4.57606 0
M  V30 2358 H 213.579 -4.50206 4.12488 0
M  V30 2359 H 214.993 -2.4838 5.16701 0
M  V30 2360 H 213.39 -1.89393 5.6943 0
M  V30 2361 H 214.46 -0.816023 4.77984 0
M  V30 2362 N 215.803 -1.52179 -0.40978 0
M  V30 2363 C 216.751 -1.76086 -1.51975 0
M  V30 2364 C 217.745 -0.627964 -1.57331 0
M  V30 2365 O 218.951 -0.809993 -1.60745 0
M  V30 2366 H 215.326 -0.556829 -0.505416 0
M  V30 2367 H 217.297 -2.69077 -1.28996 0
M  V30 2368 C 216.046 -1.92799 -2.8935 0
M  V30 2369 H 215.369 -2.79392 -2.85972 0
M  V30 2370 H 216.809 -2.13527 -3.66309 0
M  V30 2371 C 215.268 -0.694923 -3.29655 0
M  V30 2372 O 215.798 0.13751 -4.01465 0
M  V30 2373 N 214.004 -0.53101 -2.85707 0
M  V30 2374 H 213.551 -1.20952 -2.27439 0
M  V30 2375 H 213.509 0.292718 -3.13034 0
M  V30 2376 N 217.281 0.66697 -1.42791 0
M  V30 2377 C 218.244 1.76211 -1.46568 0
M  V30 2378 C 219.244 1.56896 -0.352196 0
M  V30 2379 O 220.434 1.63044 -0.613364 0
M  V30 2380 C 217.566 3.14935 -1.30494 0
M  V30 2381 H 218.759 1.74247 -2.44086 0
M  V30 2382 H 216.312 0.877342 -1.29354 0
M  V30 2383 H 217.047 3.2252 -0.339301 0
M  V30 2384 H 216.832 3.30359 -2.11199 0
M  V30 2385 H 218.322 3.94821 -1.36038 0
M  V30 2386 O 218.798 1.39735 0.809714 0
M  V30 2387 H 219.489 1.27958 1.45418 0
M  V30 END ATOM
M  V30 BEGIN BOND
M  V30 END BOND
M  V30 END CTAB
M  END
$$$$
