drugbank_target|Q8ILE8 60S ribosomal protein L14, putative (DB11638)
 OpenBabel12092121123D

  0  0  0     0  0            999 V3000
M  V30 BEGIN CTAB
M  V30 COUNTS 2855 2872 0 0 0
M  V30 BEGIN ATOM
M  V30 1 H -0.908 1.98254 -0.117106 0
M  V30 2 N 0 1.576 0 0
M  V30 3 C 0.933 2.03868 1.02534 0
M  V30 4 C 1.911 0.928543 1.3348 0
M  V30 5 O 3.095 1.19667 1.45644 0
M  V30 6 C 0.222 2.43627 2.35294 0
M  V30 7 C -0.732 3.65373 2.2001 0
M  V30 8 S 0.101 5.13292 1.52614 0
M  V30 9 C 1.257 5.56322 2.86805 0
M  V30 10 H 1.49 2.90518 0.631377 0
M  V30 11 H -0.977 1.52953 0.210867 0
M  V30 12 H 0.981 2.67203 3.11629 0
M  V30 13 H -0.358 1.57376 2.7183 0
M  V30 14 H -1.165 3.90944 3.18086 0
M  V30 15 H -1.563 3.418 1.51819 0
M  V30 16 H 0.729 5.58782 3.83104 0
M  V30 17 H 1.672 6.56266 2.65933 0
M  V30 18 H 2.08 4.83886 2.90714 0
M  V30 19 N 1.4781 -0.272755 1.55222 0
M  V30 20 C 2.8891 -0.84378 1.66545 0
M  V30 21 C 3.2401 -1.87035 0.592641 0
M  V30 22 O 2.3651 -2.14761 -0.265818 0
M  V30 23 C 2.9601 -1.53723 3.01918 0
M  V30 24 C 1.5191 -2.05628 3.15268 0
M  V30 25 C 0.6661 -0.898424 2.62343 0
M  V30 26 H 3.6171 -0.0490998 1.58624 0
M  V30 27 H 3.6381 -2.40421 2.94921 0
M  V30 28 H 3.1501 -0.78983 3.79978 0
M  V30 29 H 1.2511 -2.83329 2.41983 0
M  V30 30 H 1.3641 -2.27142 4.21833 0
M  V30 31 H -0.2719 -1.29186 2.19506 0
M  V30 32 H 0.5111 -0.164528 3.42906 0
M  V30 33 N 2.9562 -1.48159 -0.537278 0
M  V30 34 C 4.3722 -1.34118 -0.865129 0
M  V30 35 C 4.5722 -0.346678 -1.98495 0
M  V30 36 O 3.6282 0.234715 -2.51407 0
M  V30 37 C 4.9412 -2.73963 -1.23954 0
M  V30 38 C 6.4892 -2.82397 -1.34984 0
M  V30 39 C 6.9642 -4.22928 -1.75772 0
M  V30 40 N 8.4552 -4.25566 -1.82887 0
M  V30 41 C 9.1902 -5.31235 -2.15817 0
M  V30 42 N 8.6862 -6.47189 -2.47222 0
M  V30 43 N 10.4792 -5.18624 -2.16761 0
M  V30 44 H 2.6302 -2.1144 0.201715 0
M  V30 45 H 4.8932 -0.947598 0.0275949 0
M  V30 46 H 4.5992 -3.48264 -0.490381 0
M  V30 47 H 4.4732 -3.0702 -2.19132 0
M  V30 48 H 6.8602 -2.08356 -2.08978 0
M  V30 49 H 6.9412 -2.5297 -0.379448 0
M  V30 50 H 6.5852 -4.97482 -1.02341 0
M  V30 51 H 6.5152 -4.49794 -2.73848 0
M  V30 52 H 9.0062 -3.41924 -1.60924 0
M  V30 53 H 9.3192 -7.23564 -2.71433 0
M  V30 54 H 7.6642 -6.50476 -2.44757 0
M  V30 55 H 10.8552 -4.27056 -1.91679 0
M  V30 56 H 11.0282 -6.01078 -2.42093 0
M  V30 57 N 4.4343 0.785586 -1.36625 0
M  V30 58 C 5.6803 1.54591 -1.31261 0
M  V30 59 C 6.0133 1.93906 0.106823 0
M  V30 60 O 5.2883 1.63007 1.06108 0
M  V30 61 C 5.5713 2.82038 -2.23889 0
M  V30 62 C 5.4243 2.49066 -3.74548 0
M  V30 63 C 6.7433 3.83887 -2.15217 0
M  V30 64 H 3.8623 0.560846 -0.478143 0
M  V30 65 H 6.5043 0.902278 -1.67209 0
M  V30 66 H 4.6543 3.36961 -1.93363 0
M  V30 67 H 6.3263 2.00164 -4.15611 0
M  V30 68 H 4.5693 1.81954 -3.93796 0
M  V30 69 H 5.2403 3.40109 -4.34776 0
M  V30 70 H 7.7163 3.38421 -2.42096 0
M  V30 71 H 6.5923 4.70806 -2.82193 0
M  V30 72 H 6.8533 4.27131 -1.14068 0
M  V30 73 N 5.9124 1.20967 1.01018 0
M  V30 74 C 6.8224 0.980157 2.13143 0
M  V30 75 C 7.8384 -0.0660665 1.73875 0
M  V30 76 O 9.0144 0.122821 2.01025 0
M  V30 77 C 6.0794 0.54216 3.42435 0
M  V30 78 C 5.1404 1.65999 3.95908 0
M  V30 79 C 4.3734 1.2428 5.19028 0
M  V30 80 O 4.5964 0.114196 5.70286 0
M  V30 81 O 3.5304 2.05271 5.65816 0
M  V30 82 H 7.3564 1.91913 2.35379 0
M  V30 83 H 4.9414 0.994099 1.11526 0
M  V30 84 H 6.8234 0.30744 4.20277 0
M  V30 85 H 5.4984 -0.36815 3.216 0
M  V30 86 H 4.4054 1.94906 3.19316 0
M  V30 87 H 5.7384 2.54753 4.21143 0
M  V30 88 N 7.3905 -1.2043 1.01659 0
M  V30 89 C 8.3205 -2.25466 0.607226 0
M  V30 90 C 9.3015 -1.65853 -0.377716 0
M  V30 91 O 10.4865 -1.92409 -0.263149 0
M  V30 92 C 7.6165 -3.47256 -0.0552949 0
M  V30 93 C 6.5705 -4.19462 0.850632 0
M  V30 94 C 5.8965 -5.34673 0.0538859 0
M  V30 95 C 7.1965 -4.75603 2.15868 0
M  V30 96 H 8.8905 -2.59962 1.48526 0
M  V30 97 H 6.4365 -1.2496 0.715605 0
M  V30 98 H 8.3895 -4.19917 -0.353233 0
M  V30 99 H 7.1135 -3.11924 -0.968045 0
M  V30 100 H 5.7725 -3.48667 1.13257 0
M  V30 101 H 5.4205 -4.95585 -0.860514 0
M  V30 102 H 5.1205 -5.83913 0.657192 0
M  V30 103 H 6.6445 -6.10138 -0.237598 0
M  V30 104 H 8.0585 -5.40083 1.92311 0
M  V30 105 H 6.4555 -5.3528 2.71284 0
M  V30 106 H 7.5255 -3.94346 2.82169 0
M  V30 107 N 8.8686 -0.792821 -1.36206 0
M  V30 108 C 10.0966 -0.378825 -2.03402 0
M  V30 109 C 10.5116 1.00586 -1.59774 0
M  V30 110 O 9.8686 1.64574 -0.788764 0
M  V30 111 C 9.9196 -0.43683 -3.58851 0
M  V30 112 O 9.6406 -1.76691 -4.00889 0
M  V30 113 C 11.1416 -0.0138943 -4.43298 0
M  V30 114 H 8.3616 -0.155673 -0.652692 0
M  V30 115 H 10.9056 -1.07261 -1.74113 0
M  V30 116 H 9.0606 0.208575 -3.86838 0
M  V30 117 H 9.4746 -1.72011 -4.95492 0
M  V30 118 H 10.9486 -0.105615 -5.51899 0
M  V30 119 H 11.4256 1.03915 -4.2673 0
M  V30 120 H 12.0316 -0.63192 -4.20579 0
M  V30 121 N 10.3467 1.47872 -0.545128 0
M  V30 122 C 11.2567 2.33633 0.212746 0
M  V30 123 C 12.2727 1.4744 0.923983 0
M  V30 124 O 13.4487 1.80393 0.895572 0
M  V30 125 C 10.5137 3.23884 1.23693 0
M  V30 126 C 9.5747 4.25961 0.534417 0
M  V30 127 C 8.8077 5.11899 1.5098 0
M  V30 128 O 9.0307 5.00077 2.7437 0
M  V30 129 O 7.9647 5.92831 1.0409 0
M  V30 130 H 11.7907 2.99714 -0.490416 0
M  V30 131 H 9.3757 1.46235 -0.305871 0
M  V30 132 H 11.2577 3.79666 1.82843 0
M  V30 133 H 9.9327 2.60446 1.92222 0
M  V30 134 H 8.8397 3.73972 -0.0979679 0
M  V30 135 H 10.1727 4.92079 -0.109213 0
M  V30 136 N 11.8248 0.280983 1.55075 0
M  V30 137 C 12.7348 -0.61388 2.26426 0
M  V30 138 C 13.7508 -1.16521 1.29224 0
M  V30 139 O 14.9268 -1.19426 1.62171 0
M  V30 140 C 11.9918 -1.7788 2.9759 0
M  V30 141 C 11.0528 -1.26355 4.10284 0
M  V30 142 C 10.2858 -2.37295 4.78045 0
M  V30 143 O 10.5088 -3.56777 4.45047 0
M  V30 144 O 9.4428 -2.05119 5.65871 0
M  V30 145 H 13.2688 -0.0356932 3.03679 0
M  V30 146 H 10.8538 0.0481686 1.49322 0
M  V30 147 H 12.7358 -2.45791 3.42293 0
M  V30 148 H 11.4108 -2.34397 2.23249 0
M  V30 149 H 10.3178 -0.550735 3.70024 0
M  V30 150 H 11.6508 -0.744065 4.86543 0
M  V30 151 N 13.3029 -1.57598 0.00835791 0
M  V30 152 C 14.2129 -2.12385 -0.996487 0
M  V30 153 C 15.2289 -1.07108 -1.37127 0
M  V30 154 O 16.4049 -1.39055 -1.4569 0
M  V30 155 C 13.4699 -2.62314 -2.26699 0
M  V30 156 C 12.5309 -3.82225 -1.95456 0
M  V30 157 C 11.7639 -4.29763 -3.16449 0
M  V30 158 O 11.9869 -3.76584 -4.28416 0
M  V30 159 O 10.9209 -5.21832 -2.99958 0
M  V30 160 H 14.7469 -2.98479 -0.560725 0
M  V30 161 H 12.3319 -1.47903 -0.210987 0
M  V30 162 H 14.2139 -2.94589 -3.01322 0
M  V30 163 H 12.8889 -1.79313 -2.69497 0
M  V30 164 H 11.7959 -3.54909 -1.18282 0
M  V30 165 H 13.1289 -4.66324 -1.57489 0
M  V30 166 N 14.781 0.264519 -1.55364 0
M  V30 167 C 15.728 1.32717 -1.88825 0
M  V30 168 C 16.698 1.48675 -0.740605 0
M  V30 169 O 17.883 1.62945 -0.992657 0
M  V30 170 C 15.023 2.68089 -2.17307 0
M  V30 171 C 14.136 2.60284 -3.44785 0
M  V30 172 C 13.271 3.87892 -3.62924 0
M  V30 173 C 12.31 3.74631 -4.84064 0
M  V30 174 N 11.447 4.94092 -4.98816 0
M  V30 175 H 16.287 1.03481 -2.79456 0
M  V30 176 H 13.824 0.499757 -1.3835 0
M  V30 177 H 15.782 3.46864 -2.31821 0
M  V30 178 H 14.412 2.95509 -1.299 0
M  V30 179 H 13.464 1.73173 -3.38697 0
M  V30 180 H 14.776 2.46388 -4.33698 0
M  V30 181 H 13.93 4.75109 -3.77302 0
M  V30 182 H 12.669 4.04664 -2.7221 0
M  V30 183 H 11.674 2.85797 -4.69681 0
M  V30 184 H 12.899 3.5937 -5.76221 0
M  V30 185 H 10.845 5.11259 -4.11036 0
M  V30 186 H 10.762 4.8276 -5.81789 0
M  V30 187 H 12.03 5.82857 -5.17588 0
M  V30 188 N 16.2591 1.48442 0.529413 0
M  V30 189 C 17.1891 1.65902 1.64313 0
M  V30 190 C 18.1701 0.507897 1.6234 0
M  V30 191 O 19.3551 0.740503 1.79528 0
M  V30 192 C 16.4851 1.69911 3.02898 0
M  V30 193 C 15.4391 2.8453 3.19729 0
M  V30 194 C 14.7651 2.73629 4.59381 0
M  V30 195 C 16.0651 4.25821 3.02447 0
M  V30 196 H 17.7591 2.5914 1.49955 0
M  V30 197 H 15.3051 1.24709 0.719982 0
M  V30 198 H 17.2581 1.80715 3.80684 0
M  V30 199 H 15.9821 0.732524 3.18279 0
M  V30 200 H 14.6411 2.73283 2.44361 0
M  V30 201 H 14.2891 1.74938 4.71599 0
M  V30 202 H 13.9891 3.50541 4.71588 0
M  V30 203 H 15.5131 2.86401 5.39265 0
M  V30 204 H 16.9271 4.37898 3.70024 0
M  V30 205 H 15.3241 5.03735 3.26146 0
M  V30 206 H 16.3941 4.42244 1.98867 0
M  V30 207 N 17.7372 -0.778329 1.37039 0
M  V30 208 C 18.9672 -1.56507 1.34868 0
M  V30 209 C 19.3752 -1.89072 -0.0694802 0
M  V30 210 O 18.7182 -1.51434 -1.03987 0
M  V30 211 C 18.7802 -2.90641 2.11585 0
M  V30 212 C 18.4442 -2.80746 3.60598 0
M  V30 213 C 19.4412 -2.52226 4.54618 0
M  V30 214 C 17.1262 -2.98974 4.03633 0
M  V30 215 C 19.1202 -2.42054 5.89651 0
M  V30 216 C 16.8072 -2.88423 5.38754 0
M  V30 217 C 17.8052 -2.60002 6.31576 0
M  V30 218 O 17.4932 -2.49465 7.64214 0
M  V30 219 H 17.2252 -0.491723 0.463879 0
M  V30 220 H 19.7792 -0.973053 1.80889 0
M  V30 221 H 18.0092 -3.51936 1.60243 0
M  V30 222 H 19.6982 -3.51992 2.0213 0
M  V30 223 H 20.4642 -2.37835 4.22681 0
M  V30 224 H 16.3432 -3.20099 3.31749 0
M  V30 225 H 19.8872 -2.19791 6.62071 0
M  V30 226 H 15.7842 -3.0238 5.70295 0
M  V30 227 H 16.5522 -2.64864 7.74461 0
M  V30 228 N 19.2153 -1.21501 -1.00376 0
M  V30 229 C 20.4643 -1.02718 -1.73586 0
M  V30 230 C 20.7773 0.439589 -1.90596 0
M  V30 231 O 21.9833 0.746848 -2.61026 0
M  V30 232 C 20.4393 -1.78929 -3.1227 0
M  V30 233 C 20.0473 -3.29783 -3.03228 0
M  V30 234 C 21.7913 -1.68557 -3.89601 0
M  V30 235 C 19.6983 -3.98479 -4.36999 0
M  V30 236 H 18.6283 -0.380733 -0.650814 0
M  V30 237 H 21.2793 -1.45248 -1.1214 0
M  V30 238 H 19.6613 -1.29192 -3.74333 0
M  V30 239 H 20.8353 -3.86832 -2.50395 0
M  V30 240 H 19.1503 -3.40711 -2.39385 0
M  V30 241 H 21.7473 -2.17211 -4.88593 0
M  V30 242 H 22.0903 -0.644021 -4.11288 0
M  V30 243 H 22.6233 -2.15778 -3.34193 0
M  V30 244 H 19.3623 -5.02841 -4.20513 0
M  V30 245 H 18.8823 -3.46219 -4.89788 0
M  V30 246 H 20.5613 -4.03462 -5.05794 0
M  V30 247 N 20.6934 1.19889 -1.02296 0
M  V30 248 C 21.9184 1.9393 -0.735237 0
M  V30 249 C 22.3434 1.74639 0.698782 0
M  V30 250 O 21.7014 1.04481 1.48167 0
M  V30 251 C 21.7494 3.43916 -1.08417 0
M  V30 252 O 20.8534 4.11917 -0.199446 0
M  V30 253 H 20.1944 0.605645 -0.272196 0
M  V30 254 H 22.7244 1.52137 -1.36804 0
M  V30 255 H 22.7344 3.9456 -1.03856 0
M  V30 256 H 21.4094 3.5728 -2.12894 0
M  V30 257 H 19.9864 3.71666 -0.303136 0
M  V30 258 N 22.1715 0.800033 1.35784 0
M  V30 259 C 23.1185 0.203848 2.29898 0
M  V30 260 C 24.0885 -0.658375 1.52495 0
M  V30 261 O 25.2735 -0.604832 1.8096 0
M  V30 262 C 22.4135 -0.64688 3.38983 0
M  V30 263 C 21.5265 0.235054 4.3136 0
M  V30 264 C 20.6615 -0.623054 5.27533 0
M  V30 265 C 19.7005 0.259682 6.11549 0
M  V30 266 N 18.8375 -0.558019 6.99879 0
M  V30 267 H 23.6775 1.01186 2.80295 0
M  V30 268 H 21.2145 0.51053 1.37957 0
M  V30 269 H 23.1725 -1.15521 4.00887 0
M  V30 270 H 21.8025 -1.42021 2.89879 0
M  V30 271 H 20.8545 0.861438 3.70518 0
M  V30 272 H 22.1665 0.914768 4.9034 0
M  V30 273 H 21.3205 -1.19678 5.94779 0
M  V30 274 H 20.0595 -1.33636 4.69034 0
M  V30 275 H 19.0645 0.845726 5.43256 0
M  V30 276 H 20.2895 0.970748 6.72126 0
M  V30 277 H 18.2355 -1.25542 6.43875 0
M  V30 278 H 18.1525 0.0637872 7.55973 0
M  V30 279 H 19.4205 -1.11523 7.71481 0
M  V30 280 N 23.6496 -1.47581 0.552962 0
M  V30 281 C 24.5966 -2.29957 -0.197108 0
M  V30 282 C 25.5666 -1.38799 -0.912359 0
M  V30 283 O 26.7516 -1.67761 -0.908888 0
M  V30 284 C 23.8916 -3.22672 -1.22379 0
M  V30 285 C 23.0046 -4.28919 -0.515038 0
M  V30 286 C 22.1396 -5.0879 -1.52664 0
M  V30 287 C 21.1786 -6.06815 -0.802631 0
M  V30 288 N 20.3156 -6.7966 -1.76086 0
M  V30 289 H 25.1556 -2.93578 0.511486 0
M  V30 290 H 22.6926 -1.4471 0.264067 0
M  V30 291 H 24.6506 -3.74845 -1.83159 0
M  V30 292 H 23.2806 -2.60925 -1.90047 0
M  V30 293 H 22.3326 -3.79835 0.207192 0
M  V30 294 H 23.6446 -4.98773 0.0523425 0
M  V30 295 H 22.7986 -5.65091 -2.20809 0
M  V30 296 H 21.5376 -4.38828 -2.12794 0
M  V30 297 H 20.5426 -5.49695 -0.107238 0
M  V30 298 H 21.7676 -6.78784 -0.207135 0
M  V30 299 H 19.7136 -6.12432 -2.35081 0
M  V30 300 H 19.6306 -7.45669 -1.24552 0
M  V30 301 H 20.8986 -7.40538 -2.43359 0
M  V30 302 N 25.1277 -0.289203 -1.54924 0
M  V30 303 C 26.0757 0.607966 -2.24514 0
M  V30 304 C 27.0697 1.14655 -1.24702 0
M  V30 305 O 28.2757 1.09856 -1.4259 0
M  V30 306 H 24.6507 0.21464 -0.720718 0
M  V30 307 H 26.6217 -0.00164182 -2.984 0
M  V30 308 C 25.3707 1.77406 -2.99036 0
M  V30 309 H 24.6937 1.36884 -3.75637 0
M  V30 310 H 26.1337 2.37814 -3.51028 0
M  V30 311 C 24.5927 2.67107 -2.05318 0
M  V30 312 O 25.1227 3.6787 -1.61353 0
M  V30 313 N 23.3287 2.34582 -1.71521 0
M  V30 314 H 22.8757 1.52688 -2.07471 0
M  V30 315 H 22.8337 2.94867 -1.0909 0
M  V30 316 N 26.6058 1.57591 -0.0167156 0
M  V30 317 C 27.5358 2.12496 0.967858 0
M  V30 318 C 28.5168 1.03807 1.34752 0
M  V30 319 O 29.7018 1.31577 1.42833 0
M  V30 320 C 26.8318 2.64194 2.25431 0
M  V30 321 C 25.7858 3.77559 2.01576 0
M  V30 322 C 25.1118 4.15636 3.36379 0
M  V30 323 C 26.4118 5.04151 1.36489 0
M  V30 324 H 28.1058 2.95013 0.510643 0
M  V30 325 H 25.6518 1.41915 0.244181 0
M  V30 326 H 27.6048 3.01236 2.94678 0
M  V30 327 H 26.3288 1.78821 2.73296 0
M  V30 328 H 24.9878 3.40937 1.34751 0
M  V30 329 H 24.6358 3.27263 3.81979 0
M  V30 330 H 24.3358 4.92022 3.21229 0
M  V30 331 H 25.8598 4.5525 4.06915 0
M  V30 332 H 27.2738 5.38857 1.95718 0
M  V30 333 H 25.6708 5.85453 1.31776 0
M  V30 334 H 26.7408 4.83733 0.336219 0
M  V30 335 N 28.0839 -0.256276 1.55502 0
M  V30 336 C 29.0139 -1.32102 1.92539 0
M  V30 337 C 29.9949 -1.50684 0.789194 0
M  V30 338 O 31.1799 -1.63449 1.04872 0
M  V30 339 C 28.3099 -2.67752 2.21192 0
M  V30 340 C 27.2639 -2.63878 3.36975 0
M  V30 341 C 26.5899 -4.03236 3.51147 0
M  V30 342 C 27.8899 -2.21682 4.72921 0
M  V30 343 H 29.5839 -1.01351 2.81724 0
M  V30 344 H 27.1299 -0.486105 1.35547 0
M  V30 345 H 29.0829 -3.42365 2.45691 0
M  V30 346 H 27.8069 -3.0012 1.28824 0
M  V30 347 H 26.4659 -1.91722 3.12471 0
M  V30 348 H 26.1139 -4.32854 2.56216 0
M  V30 349 H 25.8139 -4.01535 4.29003 0
M  V30 350 H 27.3379 -4.79563 3.77957 0
M  V30 351 H 28.7519 -2.86023 4.96854 0
M  V30 352 H 27.1489 -2.3111 5.53812 0
M  V30 353 H 28.2189 -1.16833 4.70615 0
M  V30 354 N 29.562 -1.4872 -0.521534 0
M  V30 355 C 30.809 -1.57168 -1.27689 0
M  V30 356 C 31.137 -0.249275 -1.92896 0
M  V30 357 O 30.392 0.761162 -1.80291 0
M  V30 358 C 30.691 -2.66497 -2.38148 0
M  V30 359 C 30.357 -4.08664 -1.90538 0
M  V30 360 C 29.019 -4.47357 -1.77271 0
M  V30 361 C 31.371 -4.97724 -1.54663 0
M  V30 362 C 28.699 -5.72905 -1.26478 0
M  V30 363 C 31.051 -6.2377 -1.05329 0
M  V30 364 C 29.715 -6.61311 -0.906861 0
M  V30 365 H 28.985 -0.575117 -0.467249 0
M  V30 366 H 31.632 -1.82472 -0.581051 0
M  V30 367 H 29.937 -2.35085 -3.13437 0
M  V30 368 H 31.634 -2.70246 -2.96257 0
M  V30 369 H 28.224 -3.78111 -2.01816 0
M  V30 370 H 32.408 -4.68501 -1.63768 0
M  V30 371 H 27.664 -6.00709 -1.13835 0
M  V30 372 H 31.838 -6.9217 -0.76644 0
M  V30 373 H 29.465 -7.5848 -0.511083 0
M  V30 374 N 31.0401 0.771051 -1.3745 0
M  V30 375 C 31.9871 1.88435 -1.3327 0
M  V30 376 C 32.9571 1.64914 -0.198136 0
M  V30 377 O 34.1421 1.86821 -0.387606 0
M  V30 378 C 31.2821 3.25509 -1.14622 0
M  V30 379 C 30.3951 3.60979 -2.37314 0
M  V30 380 C 29.5301 4.87265 -2.11533 0
M  V30 381 C 28.5691 5.15469 -3.30088 0
M  V30 382 N 27.7061 6.32944 -3.03853 0
M  V30 383 H 32.5461 1.91344 -2.28455 0
M  V30 384 H 30.0831 0.935466 -1.13523 0
M  V30 385 H 32.0411 4.04582 -1.01831 0
M  V30 386 H 30.6711 3.21974 -0.230837 0
M  V30 387 H 29.7231 2.76885 -2.60842 0
M  V30 388 H 31.0351 3.77759 -3.25729 0
M  V30 389 H 30.1891 5.74244 -1.95777 0
M  V30 390 H 28.9281 4.7259 -1.20457 0
M  V30 391 H 27.9331 4.26966 -3.46382 0
M  V30 392 H 29.1581 5.32052 -4.22016 0
M  V30 393 H 27.1041 6.19625 -2.15407 0
M  V30 394 H 27.0211 6.50143 -3.85812 0
M  V30 395 H 28.2891 7.22857 -2.91716 0
M  V30 396 N 32.5182 1.22032 0.997298 0
M  V30 397 C 33.9342 0.979326 1.26021 0
M  V30 398 C 34.1342 -0.32972 1.98784 0
M  V30 399 O 33.1902 -1.05345 2.29475 0
M  V30 400 C 34.5032 2.17509 2.07631 0
M  V30 401 C 36.0512 2.21817 2.2083 0
M  V30 402 C 36.5262 3.40933 3.05825 0
M  V30 403 N 38.0172 3.41067 3.13412 0
M  V30 404 C 38.7522 4.29885 3.79455 0
M  V30 405 N 38.2482 5.28914 4.47462 0
M  V30 406 N 40.0412 4.17673 3.76173 0
M  V30 407 H 32.1922 2.06202 0.509352 0
M  V30 408 H 34.4552 0.90334 0.287541 0
M  V30 409 H 34.1612 3.12415 1.61524 0
M  V30 410 H 34.0352 2.17206 3.08385 0
M  V30 411 H 36.4222 1.27462 2.66153 0
M  V30 412 H 36.5032 2.2616 1.1952 0
M  V30 413 H 36.1472 4.35586 2.61203 0
M  V30 414 H 36.0772 3.33829 4.07266 0
M  V30 415 H 38.5682 2.69406 2.65007 0
M  V30 416 H 38.8812 5.92973 4.95583 0
M  V30 417 H 37.2262 5.32831 4.46224 0
M  V30 418 H 40.4172 3.39564 3.22202 0
M  V30 419 H 40.5902 4.87098 4.27363 0
M  V30 420 N 33.9963 -1.19345 1.0293 0
M  V30 421 C 35.2433 -1.89038 0.726008 0
M  V30 422 C 35.5713 -1.79649 -0.745427 0
M  V30 423 O 34.8263 -1.18354 -1.55855 0
M  V30 424 C 35.1253 -3.39292 1.12319 0
M  V30 425 C 34.7913 -3.68885 2.59297 0
M  V30 426 C 33.4533 -3.76671 2.99453 0
M  V30 427 C 35.8053 -3.82178 3.54386 0
M  V30 428 C 33.1333 -3.9522 4.33611 0
M  V30 429 C 35.4853 -4.0224 4.88248 0
M  V30 430 C 34.1493 -4.08259 5.28092 0
M  V30 431 H 33.4193 -0.691739 0.265665 0
M  V30 432 H 36.0663 -1.41328 1.29223 0
M  V30 433 H 34.3713 -3.88903 0.475584 0
M  V30 434 H 36.0683 -3.91536 0.866037 0
M  V30 435 H 32.6583 -3.63433 2.27189 0
M  V30 436 H 36.8423 -3.75505 3.24514 0
M  V30 437 H 32.0983 -3.98119 4.64016 0
M  V30 438 H 36.2723 -4.11468 5.61843 0
M  V30 439 H 33.8993 -4.22384 6.32057 0
M  V30 440 N 35.4744 -0.807222 -1.35358 0
M  V30 441 C 36.7204 -0.388463 -1.99045 0
M  V30 442 C 37.0534 1.04184 -1.63888 0
M  V30 443 O 36.3284 1.72292 -0.902535 0
M  V30 444 C 36.6114 -0.572783 -3.55515 0
M  V30 445 C 36.4644 -2.04807 -4.00468 0
M  V30 446 C 37.7834 0.00114064 -4.401 0
M  V30 447 H 34.9024 -0.142619 -0.723069 0
M  V30 448 H 37.5444 -1.01687 -1.60498 0
M  V30 449 H 35.6944 -0.0378425 -3.88482 0
M  V30 450 H 37.3664 -2.64544 -3.77908 0
M  V30 451 H 35.6094 -2.54427 -3.51353 0
M  V30 452 H 36.2804 -2.12792 -5.09337 0
M  V30 453 H 38.7564 -0.455716 -4.13597 0
M  V30 454 H 37.6324 -0.157737 -5.48673 0
M  V30 455 H 37.8934 1.09488 -4.28328 0
M  V30 456 N 36.9525 1.47285 -0.560781 0
M  V30 457 C 37.8625 2.33846 0.187954 0
M  V30 458 C 38.8785 1.48412 0.908293 0
M  V30 459 O 40.0545 1.81332 0.876388 0
M  V30 460 C 37.1195 3.25178 1.2025 0
M  V30 461 C 36.1805 4.26504 0.489208 0
M  V30 462 C 35.4135 5.13472 1.45542 0
M  V30 463 O 35.6365 5.02959 2.6905 0
M  V30 464 O 34.5705 5.93902 0.977963 0
M  V30 465 H 38.3965 2.99177 -0.522177 0
M  V30 466 H 35.9815 1.45903 -0.321364 0
M  V30 467 H 37.8635 3.81584 1.78805 0
M  V30 468 H 36.5385 2.6247 1.89449 0
M  V30 469 H 35.4455 3.73847 -0.137627 0
M  V30 470 H 36.7785 4.91935 -0.161399 0
M  V30 471 N 38.4306 0.297415 1.54768 0
M  V30 472 C 39.8416 -0.195947 1.85669 0
M  V30 473 C 40.1926 -1.53707 1.21937 0
M  V30 474 O 39.3176 -2.10164 0.515754 0
M  V30 475 C 39.9126 -0.362318 3.36857 0
M  V30 476 C 38.4716 -0.799901 3.67802 0
M  V30 477 C 37.6186 0.0938578 2.77141 0
M  V30 478 H 40.5696 0.518538 1.4999 0
M  V30 479 H 40.5906 -1.19745 3.61167 0
M  V30 480 H 40.1026 0.613921 3.83214 0
M  V30 481 H 38.2036 -1.78682 3.26961 0
M  V30 482 H 38.3166 -0.621773 4.75048 0
M  V30 483 H 36.6806 -0.426254 2.51108 0
M  V30 484 H 37.4636 1.06639 3.26318 0
M  V30 485 N 39.9087 -1.5758 0.0250728 0
M  V30 486 C 41.1567 -1.91255 -0.653151 0
M  V30 487 C 41.4777 -0.901691 -1.729 0
M  V30 488 O 40.7477 0.0573785 -1.95816 0
M  V30 489 H 39.3277 -0.705942 -0.244243 0
M  V30 490 H 41.9897 -1.94767 0.0719209 0
M  V30 491 H 41.0857 -2.91752 -1.10847 0
M  V30 492 N 41.3868 0.248026 -1.55636 0
M  V30 493 C 42.8028 0.596483 -1.48035 0
M  V30 494 C 43.0028 1.88386 -0.715039 0
M  V30 495 O 42.0588 2.51319 -0.243944 0
M  V30 496 C 43.3718 0.700258 -2.92433 0
M  V30 497 C 44.9198 0.792659 -3.02797 0
M  V30 498 C 45.3948 0.928005 -4.485 0
M  V30 499 N 46.8858 0.992903 -4.52433 0
M  V30 500 C 47.6208 1.11687 -5.62418 0
M  V30 501 N 47.1168 1.20645 -6.82214 0
M  V30 502 N 48.9098 1.14994 -5.50212 0
M  V30 503 H 41.0608 -0.597109 -2.03834 0
M  V30 504 H 43.3238 -0.205925 -0.925364 0
M  V30 505 H 43.0298 -0.175658 -3.51261 0
M  V30 506 H 42.9038 1.57255 -3.42857 0
M  V30 507 H 45.2908 1.65903 -2.4405 0
M  V30 508 H 45.3718 -0.104762 -2.55585 0
M  V30 509 H 45.0158 0.0661971 -5.07857 0
M  V30 510 H 44.9458 1.84045 -4.93391 0
M  V30 511 H 47.4368 0.935064 -3.66149 0
M  V30 512 H 47.7498 1.30008 -7.61786 0
M  V30 513 H 46.0948 1.17605 -6.84977 0
M  V30 514 H 49.2858 1.07643 -4.55555 0
M  V30 515 H 49.4588 1.24311 -6.35965 0
M  V30 516 N 42.8649 1.48995 0.513639 0
M  V30 517 C 43.7949 1.67636 1.62544 0
M  V30 518 C 44.7759 0.525087 1.61793 0
M  V30 519 O 45.9609 0.759502 1.78732 0
M  V30 520 C 43.0909 1.73114 3.01079 0
M  V30 521 C 42.0449 2.87905 3.16693 0
M  V30 522 C 41.3709 2.78486 4.56453 0
M  V30 523 C 42.6709 4.29005 2.97913 0
M  V30 524 H 44.3649 2.60716 1.47198 0
M  V30 525 H 41.9109 1.25465 0.706714 0
M  V30 526 H 43.8639 1.84742 3.78746 0
M  V30 527 H 42.5879 0.766241 3.17484 0
M  V30 528 H 41.2469 2.75859 2.41448 0
M  V30 529 H 40.8949 1.7993 4.69717 0
M  V30 530 H 40.5949 3.55523 4.67843 0
M  V30 531 H 42.1189 2.92104 5.36197 0
M  V30 532 H 43.5329 4.41798 3.65359 0
M  V30 533 H 41.9299 5.07166 3.20785 0
M  V30 534 H 42.9999 4.44329 1.94165 0
M  V30 535 N 44.343 -0.763751 1.37857 0
M  V30 536 C 45.583 -1.53551 1.34913 0
M  V30 537 C 45.947 -1.91895 -0.0635882 0
M  V30 538 O 47.148 -2.67916 -0.217825 0
M  V30 539 C 45.419 -2.76126 2.26912 0
M  V30 540 S 46.978 -3.66105 2.41893 0
M  V30 541 H 43.796 -0.52559 0.478828 0
M  V30 542 H 46.398 -0.897435 1.73685 0
M  V30 543 H 45.102 -2.4605 3.28463 0
M  V30 544 H 44.633 -3.44887 1.89253 0
M  V30 545 H 46.648 -4.68473 1.63545 0
M  V30 546 N 45.8211 -1.22559 -0.990812 0
M  V30 547 C 46.7511 -1.0218 -2.09956 0
M  V30 548 C 47.7321 0.0579394 -1.70001 0
M  V30 549 O 48.9171 -0.104684 -1.93918 0
M  V30 550 C 46.0471 -0.601023 -3.4206 0
M  V30 551 C 45.0011 -1.62694 -3.95872 0
M  V30 552 C 44.3271 -1.06193 -5.24049 0
M  V30 553 C 45.6271 -3.01743 -4.2632 0
M  V30 554 H 47.3211 -1.94916 -2.27262 0
M  V30 555 H 44.8671 -0.938566 -1.09211 0
M  V30 556 H 46.8201 -0.445561 -4.19038 0
M  V30 557 H 45.5441 0.362005 -3.24588 0
M  V30 558 H 44.2031 -1.77021 -3.21028 0
M  V30 559 H 43.8511 -0.0901903 -5.02919 0
M  V30 560 H 43.5511 -1.74732 -5.61019 0
M  V30 561 H 45.0751 -0.918092 -6.03658 0
M  V30 562 H 46.4891 -2.90777 -4.94087 0
M  V30 563 H 44.8861 -3.67425 -4.74467 0
M  V30 564 H 45.9561 -3.51518 -3.34011 0
M  V30 565 N 47.2992 1.18797 -1.03562 0
M  V30 566 C 48.5482 1.87978 -0.731235 0
M  V30 567 C 48.8612 1.80911 0.743671 0
M  V30 568 O 50.0672 2.45407 1.16137 0
M  V30 569 C 48.5232 3.3721 -1.25768 0
M  V30 570 C 48.1312 3.52818 -2.76085 0
M  V30 571 C 49.8752 4.11825 -1.0296 0
M  V30 572 C 47.7822 4.9598 -3.22114 0
M  V30 573 H 46.7122 0.704063 -0.269835 0
M  V30 574 H 49.3632 1.34266 -1.25079 0
M  V30 575 H 47.7452 3.90359 -0.666011 0
M  V30 576 H 48.9192 3.09965 -3.40966 0
M  V30 577 H 47.2342 2.91602 -2.97249 0
M  V30 578 H 49.8312 5.17411 -1.34869 0
M  V30 579 H 50.1742 4.16287 0.0333546 0
M  V30 580 H 50.7072 3.64833 -1.58562 0
M  V30 581 H 47.4462 4.96684 -4.27768 0
M  V30 582 H 46.9662 5.39569 -2.61965 0
M  V30 583 H 48.6452 5.6467 -3.15844 0
M  V30 584 N 48.7773 0.814389 1.34928 0
M  V30 585 C 49.6873 0.231978 2.3345 0
M  V30 586 C 50.7033 -0.629139 1.62228 0
M  V30 587 O 51.8793 -0.539052 1.94052 0
M  V30 588 C 48.9443 -0.603482 3.41407 0
M  V30 589 C 48.0053 0.279037 4.28392 0
M  V30 590 C 47.2383 -0.516643 5.31193 0
M  V30 591 O 47.4613 -1.75068 5.4287 0
M  V30 592 O 46.3953 0.0965652 6.01823 0
M  V30 593 H 50.2213 1.04721 2.85074 0
M  V30 594 H 47.8063 0.576343 1.37836 0
M  V30 595 H 49.6883 -1.07908 4.0735 0
M  V30 596 H 48.3633 -1.39618 2.92042 0
M  V30 597 H 47.2703 0.801948 3.65403 0
M  V30 598 H 48.6033 1.03588 4.81176 0
M  V30 599 N 50.2554 -1.46986 0.568584 0
M  V30 600 C 51.4854 -2.0653 0.0539173 0
M  V30 601 C 51.8934 -1.42004 -1.25026 0
M  V30 602 O 51.2364 -0.514541 -1.76347 0
M  V30 603 C 51.2984 -3.58938 -0.200854 0
M  V30 604 C 50.9624 -4.45572 1.01559 0
M  V30 605 C 51.9594 -4.82986 1.92407 0
M  V30 606 C 49.6444 -4.8692 1.23346 0
M  V30 607 C 51.6384 -5.60559 3.03402 0
M  V30 608 C 49.3254 -5.64255 2.34649 0
M  V30 609 C 50.3234 -6.00986 3.24507 0
M  V30 610 O 50.0114 -6.76761 4.33878 0
M  V30 611 H 49.7434 -0.674292 0.0480234 0
M  V30 612 H 52.2974 -1.89812 0.784896 0
M  V30 613 H 50.5274 -3.73911 -0.986279 0
M  V30 614 H 52.2164 -4.0046 -0.662294 0
M  V30 615 H 52.9824 -4.51633 1.76785 0
M  V30 616 H 48.8614 -4.57789 0.543178 0
M  V30 617 H 52.4054 -5.89147 3.73565 0
M  V30 618 H 48.3024 -5.95021 2.5024 0
M  V30 619 H 49.0704 -6.95168 4.32068 0
M  V30 620 N 51.7335 -0.305618 -1.54608 0
M  V30 621 C 52.9815 0.301701 -1.99835 0
M  V30 622 C 53.3025 1.54054 -1.19551 0
M  V30 623 O 52.5725 1.93702 -0.292658 0
M  V30 624 H 51.1525 0.114468 -0.738178 0
M  V30 625 H 53.8145 -0.418016 -1.90364 0
M  V30 626 H 52.9105 0.570548 -3.06841 0
M  V30 627 N 53.2116 1.57565 -0.0334293 0
M  V30 628 C 54.6226 1.79746 0.504798 0
M  V30 629 C 54.9736 0.944091 1.71992 0
M  V30 630 O 54.0986 0.155694 2.15839 0
M  V30 631 C 54.6936 3.25997 0.922567 0
M  V30 632 C 53.2526 3.49159 1.40588 0
M  V30 633 C 52.3996 2.74785 0.372633 0
M  V30 634 H 55.3506 1.56565 -0.259436 0
M  V30 635 H 55.3716 3.35945 1.78666 0
M  V30 636 H 54.8836 3.88081 0.0379825 0
M  V30 637 H 52.9846 2.92332 2.31025 0
M  V30 638 H 53.0976 4.57873 1.41028 0
M  V30 639 H 51.4616 2.40391 0.841672 0
M  V30 640 H 52.2446 3.39587 -0.503559 0
M  V30 641 N 54.6897 -0.239769 1.55765 0
M  V30 642 C 55.9197 -0.982743 1.8173 0
M  V30 643 C 56.3277 -1.7917 0.607835 0
M  V30 644 O 55.6707 -1.78525 -0.432973 0
M  V30 645 C 55.7327 -1.96332 3.01155 0
M  V30 646 C 55.3967 -1.34062 4.36894 0
M  V30 647 C 56.3937 -0.739539 5.14613 0
M  V30 648 C 54.0787 -1.35784 4.83599 0
M  V30 649 C 56.0727 -0.163989 6.37189 0
M  V30 650 C 53.7597 -0.778441 6.06122 0
M  V30 651 C 54.7577 -0.182548 6.82756 0
M  V30 652 O 54.4457 0.387887 8.02964 0
M  V30 653 H 54.1777 -0.294481 0.608487 0
M  V30 654 H 56.7317 -0.26572 2.03674 0
M  V30 655 H 54.9617 -2.71884 2.74984 0
M  V30 656 H 56.6507 -2.57032 3.14149 0
M  V30 657 H 57.4167 -0.718687 4.79646 0
M  V30 658 H 53.2957 -1.81105 4.23936 0
M  V30 659 H 56.8397 0.301753 6.96947 0
M  V30 660 H 52.7367 -0.796645 6.40565 0
M  V30 661 H 53.5047 0.28044 8.18019 0
M  V30 662 N 56.1678 -1.49265 -0.50573 0
M  V30 663 C 57.1308 -1.65075 -1.59006 0
M  V30 664 C 58.1308 -0.522768 -1.52065 0
M  V30 665 O 59.3208 -0.789117 -1.55302 0
M  V30 666 C 56.4528 -1.64369 -2.98656 0
M  V30 667 H 57.6458 -2.61784 -1.46319 0
M  V30 668 H 55.1988 -1.38226 -0.729616 0
M  V30 669 H 55.9338 -0.692272 -3.16825 0
M  V30 670 H 55.7188 -2.46282 -3.05103 0
M  V30 671 H 57.2088 -1.78674 -3.77446 0
M  V30 672 N 57.6459 0.756429 -1.3826 0
M  V30 673 C 58.8939 1.51248 -1.34047 0
M  V30 674 C 59.2149 1.94875 0.0698372 0
M  V30 675 O 58.4849 1.67436 1.01696 0
M  V30 676 H 57.0649 0.561018 -0.493222 0
M  V30 677 H 59.7269 0.899347 -1.7291 0
M  V30 678 H 58.8229 2.40472 -1.98947 0
M  V30 679 N 59.124 1.23083 0.984299 0
M  V30 680 C 60.071 1.00854 2.07598 0
M  V30 681 C 61.041 -0.0726709 1.65941 0
M  V30 682 O 62.226 0.0786535 1.90638 0
M  V30 683 C 59.366 0.601645 3.39815 0
M  V30 684 C 58.479 1.75456 3.94765 0
M  V30 685 C 57.614 1.29482 5.15177 0
M  V30 686 C 56.653 2.41873 5.62284 0
M  V30 687 N 55.79 1.96885 6.73929 0
M  V30 688 H 60.63 1.943 2.25946 0
M  V30 689 H 58.167 0.968001 1.10762 0
M  V30 690 H 60.125 0.346854 4.15756 0
M  V30 691 H 58.755 -0.295803 3.21442 0
M  V30 692 H 57.807 2.12346 3.15616 0
M  V30 693 H 59.119 2.59965 4.25699 0
M  V30 694 H 58.273 0.997923 5.98437 0
M  V30 695 H 57.012 0.420046 4.85888 0
M  V30 696 H 56.017 2.72342 4.77608 0
M  V30 697 H 57.242 3.29881 5.93595 0
M  V30 698 H 55.188 1.11782 6.46406 0
M  V30 699 H 55.105 2.74956 7.04227 0
M  V30 700 H 56.373 1.70289 7.60672 0
M  V30 701 N 60.6021 -1.18246 1.0419 0
M  V30 702 C 61.5321 -2.24127 0.654914 0
M  V30 703 C 62.5131 -1.66617 -0.342451 0
M  V30 704 O 63.6981 -1.92924 -0.222277 0
M  V30 705 C 60.8281 -3.47295 0.0183757 0
M  V30 706 C 59.7821 -4.17563 0.939414 0
M  V30 707 C 59.1081 -5.34438 0.167286 0
M  V30 708 C 60.4081 -4.70917 2.25908 0
M  V30 709 H 62.1021 -2.56753 1.54007 0
M  V30 710 H 59.6481 -1.23414 0.74195 0
M  V30 711 H 61.6011 -4.20572 -0.264082 0
M  V30 712 H 60.3251 -3.13907 -0.901664 0
M  V30 713 H 58.9841 -3.46186 1.20628 0
M  V30 714 H 58.6321 -4.97298 -0.7552 0
M  V30 715 H 58.3321 -5.82388 0.780901 0
M  V30 716 H 59.8561 -6.10504 -0.108125 0
M  V30 717 H 61.2701 -5.35882 2.03724 0
M  V30 718 H 59.6671 -5.29406 2.82577 0
M  V30 719 H 60.7371 -3.88272 2.9047 0
M  V30 720 N 62.0802 -0.821533 -1.34494 0
M  V30 721 C 63.3202 -0.414785 -2.00147 0
M  V30 722 C 63.6842 1.00299 -1.6372 0
M  V30 723 O 64.8852 1.51255 -2.22206 0
M  V30 724 C 63.1562 -0.609403 -3.52166 0
M  V30 725 S 64.7152 -0.295297 -4.37805 0
M  V30 726 H 61.5332 -0.15679 -0.693497 0
M  V30 727 H 64.1352 -1.06705 -1.63812 0
M  V30 728 H 62.8392 -1.64096 -3.76166 0
M  V30 729 H 62.3702 0.0576414 -3.93358 0
M  V30 730 H 64.3852 0.891531 -4.88125 0
M  V30 731 N 63.5583 1.46682 -0.576371 0
M  V30 732 C 64.8053 2.02412 -0.0595339 0
M  V30 733 C 65.1333 1.44859 1.29793 0
M  V30 734 O 64.3883 0.601099 1.8624 0
M  V30 735 C 64.6873 3.57345 0.062886 0
M  V30 736 C 64.3533 4.33908 -1.22616 0
M  V30 737 C 63.0153 4.54544 -1.57933 0
M  V30 738 C 65.3673 4.77919 -2.07948 0
M  V30 739 C 62.6953 5.16444 -2.78393 0
M  V30 740 C 65.0473 5.41149 -3.27629 0
M  V30 741 C 63.7113 5.60014 -3.63236 0
M  V30 742 H 62.9813 0.74068 -0.021785 0
M  V30 743 H 65.6283 1.76128 -0.751735 0
M  V30 744 H 63.9333 3.82729 0.838178 0
M  V30 745 H 65.6303 3.98136 0.478439 0
M  V30 746 H 62.2203 4.18138 -0.941202 0
M  V30 747 H 66.4043 4.61738 -1.81967 0
M  V30 748 H 61.6603 5.29242 -3.06126 0
M  V30 749 H 65.8343 5.74211 -3.94023 0
M  V30 750 H 63.4613 6.07748 -4.56669 0
M  V30 751 N 65.0364 0.313813 1.54444 0
M  V30 752 C 66.2854 -0.292519 1.99568 0
M  V30 753 C 66.5984 -1.54011 1.20582 0
M  V30 754 O 67.8044 -2.22183 1.56035 0
M  V30 755 C 66.2604 -0.571752 3.55329 0
M  V30 756 C 65.8684 0.658229 4.43138 0
M  V30 757 C 67.6124 -1.13857 4.08946 0
M  V30 758 C 65.5194 0.351439 5.90355 0
M  V30 759 H 64.4494 -0.113079 0.745472 0
M  V30 760 H 67.1004 0.424518 1.78522 0
M  V30 761 H 65.4824 -1.34872 3.72325 0
M  V30 762 H 66.6564 1.43403 4.37918 0
M  V30 763 H 64.9714 1.14458 4.0036 0
M  V30 764 H 67.5684 -1.38257 5.16516 0
M  V30 765 H 67.9114 -2.08489 3.6033 0
M  V30 766 H 68.4444 -0.423015 3.95544 0
M  V30 767 H 65.1834 1.26667 6.43145 0
M  V30 768 H 64.7034 -0.386842 5.98551 0
M  V30 769 H 66.3824 -0.0423134 6.46986 0
M  V30 770 N 66.5145 -1.57545 0.0417849 0
M  V30 771 C 67.7605 -1.92601 -0.635021 0
M  V30 772 C 68.0935 -0.919627 -1.71045 0
M  V30 773 O 67.3685 0.0557892 -1.9442 0
M  V30 774 C 67.6515 -3.38085 -1.23979 0
M  V30 775 C 67.5045 -4.49467 -0.173057 0
M  V30 776 C 68.8235 -3.83776 -2.15416 0
M  V30 777 H 65.9425 -0.700397 -0.229374 0
M  V30 778 H 68.5845 -1.89728 0.101633 0
M  V30 779 H 66.7345 -3.40664 -1.86762 0
M  V30 780 H 68.4065 -4.59018 0.458312 0
M  V30 781 H 66.6495 -4.30909 0.499996 0
M  V30 782 H 67.3205 -5.48323 -0.636054 0
M  V30 783 H 69.7965 -3.83013 -1.62605 0
M  V30 784 H 68.6725 -4.8624 -2.54679 0
M  V30 785 H 68.9335 -3.19998 -3.05047 0
M  V30 786 N 67.9926 0.231505 -1.5589 0
M  V30 787 C 69.2696 0.981096 -1.69215 0
M  V30 788 C 69.6496 2.02799 -0.586164 0
M  V30 789 O 68.9976 2.24823 0.408253 0
M  V30 790 C 69.2076 1.60054 -3.10135 0
M  V30 791 C 70.5556 2.09658 -3.69227 0
M  V30 792 O 71.5796 1.69967 -3.13033 0
M  V30 793 O 70.4386 2.8258 -4.67772 0
M  V30 794 H 67.5326 0.457653 -0.688827 0
M  V30 795 H 70.0786 0.224073 -1.68214 0
M  V30 796 H 68.8506 0.844105 -3.82087 0
M  V30 797 H 68.4736 2.42336 -3.15212 0
M  V30 798 N 69.4707 1.49531 0.497807 0
M  V30 799 C 70.7197 1.58426 1.24837 0
M  V30 800 C 71.0327 0.277643 1.93619 0
M  V30 801 O 72.2387 0.24517 2.70391 0
M  V30 802 C 70.6947 2.79538 2.26686 0
M  V30 803 C 70.3027 4.16971 1.63828 0
M  V30 804 C 72.0467 2.97764 3.0255 0
M  V30 805 C 69.9537 5.29301 2.63807 0
M  V30 806 H 68.8837 0.58989 0.469623 0
M  V30 807 H 71.5347 1.75923 0.521857 0
M  V30 808 H 69.9167 2.55542 3.02514 0
M  V30 809 H 71.0907 4.51116 0.939711 0
M  V30 810 H 69.4057 4.04129 1.00342 0
M  V30 811 H 72.0027 3.78856 3.77323 0
M  V30 812 H 72.3457 2.08448 3.60354 0
M  V30 813 H 72.8787 3.21815 2.33838 0
M  V30 814 H 69.6177 6.20687 2.10779 0
M  V30 815 H 69.1377 4.99606 3.31894 0
M  V30 816 H 70.8167 5.58768 3.2617 0
M  V30 817 N 70.9488 -0.749086 1.3866 0
M  V30 818 C 72.1948 -1.51056 1.35314 0
M  V30 819 C 72.5278 -1.94121 -0.0553751 0
M  V30 820 O 71.8028 -1.65763 -1.01749 0
M  V30 821 C 72.0858 -2.76003 2.31288 0
M  V30 822 C 71.9388 -2.39047 3.8102 0
M  V30 823 C 73.2578 -3.78046 2.2532 0
M  V30 824 H 70.3768 -0.547972 0.492844 0
M  V30 825 H 73.0188 -0.857628 1.69543 0
M  V30 826 H 71.1688 -3.31716 2.02229 0
M  V30 827 H 72.8408 -1.89074 4.20771 0
M  V30 828 H 71.0838 -1.71449 3.98482 0
M  V30 829 H 71.7548 -3.28462 4.4364 0
M  V30 830 H 74.2308 -3.31884 2.50983 0
M  V30 831 H 73.1068 -4.63159 2.94576 0
M  V30 832 H 73.3678 -4.23957 1.25352 0
M  V30 833 N 72.4269 -1.23603 -0.977757 0
M  V30 834 C 73.6549 -1.09646 -1.75458 0
M  V30 835 C 74.0699 0.351859 -1.85492 0
M  V30 836 O 73.4269 1.24327 -1.336 0
M  V30 837 C 73.4779 -1.71895 -3.18016 0
M  V30 838 O 73.1989 -3.11063 -3.08498 0
M  V30 839 C 74.6999 -1.63415 -4.12081 0
M  V30 840 H 71.9199 -0.38359 -0.550545 0
M  V30 841 H 74.4639 -1.63507 -1.22824 0
M  V30 842 H 72.6189 -1.22061 -3.67668 0
M  V30 843 H 73.0329 -3.41305 -3.9826 0
M  V30 844 H 74.5069 -2.11669 -5.09804 0
M  V30 845 H 74.9839 -0.593462 -4.35172 0
M  V30 846 H 75.5899 -2.12628 -3.68334 0
M  V30 847 N 73.905 1.17692 -1.04816 0
M  V30 848 C 75.154 1.87192 -0.751132 0
M  V30 849 C 75.467 1.8169 0.724441 0
M  V30 850 O 76.673 2.46625 1.13527 0
M  V30 851 C 75.129 3.35857 -1.29338 0
M  V30 852 C 74.737 3.4987 -2.79812 0
M  V30 853 C 76.481 4.10709 -1.07322 0
M  V30 854 C 74.388 4.92536 -3.27356 0
M  V30 855 H 73.318 0.701162 -0.277288 0
M  V30 856 H 75.969 1.32932 -1.26496 0
M  V30 857 H 74.351 3.89631 -0.707376 0
M  V30 858 H 75.525 3.06332 -3.44235 0
M  V30 859 H 73.84 2.88433 -3.00325 0
M  V30 860 H 76.437 5.15952 -1.4035 0
M  V30 861 H 76.78 4.16299 -0.0108001 0
M  V30 862 H 77.313 3.6313 -1.62423 0
M  V30 863 H 74.052 4.92119 -4.33012 0
M  V30 864 H 73.572 5.3676 -2.67673 0
M  V30 865 H 75.251 5.61288 -3.21815 0
M  V30 866 N 75.3831 0.828654 1.34056 0
M  V30 867 C 76.6111 0.43262 2.02326 0
M  V30 868 C 77.0261 -0.963147 1.62385 0
M  V30 869 O 76.3831 -1.62425 0.832121 0
M  V30 870 C 76.4341 0.53182 3.57567 0
M  V30 871 O 76.1551 1.87258 3.96063 0
M  V30 872 C 77.6561 0.131422 4.43105 0
M  V30 873 H 74.8761 0.172923 0.648335 0
M  V30 874 H 77.4201 1.1184 1.71208 0
M  V30 875 H 75.5751 -0.105938 3.87255 0
M  V30 876 H 75.9891 1.85087 4.90758 0
M  V30 877 H 77.4631 0.251904 5.51425 0
M  V30 878 H 77.9401 -0.925645 4.29335 0
M  V30 879 H 78.5461 0.743207 4.18756 0
M  V30 880 N 76.8612 -1.46375 0.584142 0
M  V30 881 C 78.2772 -1.57694 0.245929 0
M  V30 882 C 78.4772 -1.57903 -1.25175 0
M  V30 883 O 77.5332 -1.49676 -2.03355 0
M  V30 884 C 78.8462 -2.87028 0.896402 0
M  V30 885 C 80.3942 -3.00662 0.870127 0
M  V30 886 C 80.8692 -4.32734 1.50017 0
M  V30 887 N 82.3602 -4.39436 1.46458 0
M  V30 888 C 83.0952 -5.40248 1.92144 0
M  V30 889 N 82.5912 -6.47726 2.4581 0
M  V30 890 N 84.3842 -5.31459 1.83052 0
M  V30 891 H 76.5352 -1.44483 1.55687 0
M  V30 892 H 78.7982 -0.689291 0.650831 0
M  V30 893 H 78.5042 -2.9269 1.95002 0
M  V30 894 H 78.3782 -3.75014 0.405486 0
M  V30 895 H 80.7652 -2.94581 -0.174871 0
M  V30 896 H 80.8462 -2.14148 1.39908 0
M  V30 897 H 80.4902 -4.39573 2.54437 0
M  V30 898 H 80.4202 -5.18025 0.946432 0
M  V30 899 H 82.9112 -3.62367 1.07231 0
M  V30 900 H 83.2242 -7.20863 2.78525 0
M  V30 901 H 81.5692 -6.48542 2.49836 0
M  V30 902 H 84.7602 -4.46396 1.40883 0
M  V30 903 H 84.9332 -6.09881 2.18973 0
M  V30 904 N 78.3393 -0.321999 -1.54275 0
M  V30 905 C 79.5853 0.281461 -2.00837 0
M  V30 906 C 79.9183 1.51909 -1.20985 0
M  V30 907 O 79.1933 1.923 -0.291733 0
M  V30 908 C 79.4763 0.617162 -3.54772 0
M  V30 909 C 79.3293 -0.631064 -4.45351 0
M  V30 910 C 80.6483 1.43542 -4.16033 0
M  V30 911 H 77.7673 0.100826 -0.730071 0
M  V30 912 H 80.4093 -0.438268 -1.84876 0
M  V30 913 H 78.5593 1.23034 -3.68504 0
M  V30 914 H 80.2313 -1.26934 -4.43492 0
M  V30 915 H 78.4743 -1.26025 -4.15091 0
M  V30 916 H 79.1453 -0.351735 -5.50878 0
M  V30 917 H 81.6213 0.917134 -4.05867 0
M  V30 918 H 80.4973 1.63907 -5.23856 0
M  V30 919 H 80.7583 2.43108 -3.69257 0
M  V30 920 N 79.8174 1.5752 -0.0501392 0
M  V30 921 C 81.0664 1.91827 0.623328 0
M  V30 922 C 81.3794 0.930222 1.72065 0
M  V30 923 O 82.5854 1.1653 2.4522 0
M  V30 924 C 81.0414 3.40692 1.16003 0
M  V30 925 C 80.6494 4.479 0.0948811 0
M  V30 926 C 82.3934 3.84034 1.80881 0
M  V30 927 C 80.3004 5.87879 0.644411 0
M  V30 928 H 79.2304 0.715918 0.236596 0
M  V30 929 H 81.8814 1.83115 -0.118861 0
M  V30 930 H 80.2634 3.44405 1.9545 0
M  V30 931 H 81.4374 4.55775 -0.678675 0
M  V30 932 H 79.7524 4.13892 -0.45637 0
M  V30 933 H 82.3494 4.85984 2.22988 0
M  V30 934 H 82.6924 3.20225 2.6601 0
M  V30 935 H 83.2254 3.82833 1.0809 0
M  V30 936 H 79.9644 6.55282 -0.169229 0
M  V30 937 H 79.4844 5.83567 1.38598 0
M  V30 938 H 81.1634 6.37098 1.12763 0
M  V30 939 N 81.2955 -0.223234 1.56011 0
M  V30 940 C 82.5415 -0.949279 1.79211 0
M  V30 941 C 82.8745 -1.84054 0.619494 0
M  V30 942 O 82.1495 -1.90726 -0.381317 0
M  V30 943 C 82.4325 -1.78965 3.12479 0
M  V30 944 C 82.2855 -0.924997 4.40186 0
M  V30 945 C 83.6045 -2.76774 3.42175 0
M  V30 946 H 80.7235 -0.343676 0.651963 0
M  V30 947 H 83.3655 -0.218253 1.88742 0
M  V30 948 H 81.5155 -2.41291 3.04485 0
M  V30 949 H 83.1875 -0.318615 4.60198 0
M  V30 950 H 81.4305 -0.230344 4.33188 0
M  V30 951 H 82.1015 -1.54735 5.29869 0
M  V30 952 H 84.5775 -2.24584 3.50287 0
M  V30 953 H 83.4535 -3.32678 4.36597 0
M  V30 954 H 83.7145 -3.54429 2.64258 0
M  V30 955 N 82.7736 -1.49793 -0.48987 0
M  V30 956 C 84.0506 -1.50348 -1.25119 0
M  V30 957 C 84.4306 -0.237466 -2.0976 0
M  V30 958 O 83.7786 0.77981 -2.14782 0
M  V30 959 C 83.9886 -2.78872 -2.09837 0
M  V30 960 C 85.3366 -3.288 -2.68655 0
M  V30 961 O 86.3606 -2.80065 -2.20096 0
M  V30 962 O 85.2196 -4.13707 -3.57083 0
M  V30 963 H 82.3136 -0.602242 -0.566775 0
M  V30 964 H 84.8596 -1.62067 -0.503229 0
M  V30 965 H 83.6316 -3.62499 -1.47343 0
M  V30 966 H 83.2546 -2.70066 -2.91805 0
M  V30 967 N 84.2517 0.741722 -1.39055 0
M  V30 968 C 85.4997 1.49818 -1.35643 0
M  V30 969 C 85.8207 1.94938 0.0491642 0
M  V30 970 O 85.0907 1.68505 0.999141 0
M  V30 971 H 83.6707 0.555755 -0.499144 0
M  V30 972 H 86.3327 0.880957 -1.73854 0
M  V30 973 H 85.4287 2.38348 -2.01486 0
M  V30 974 N 85.7298 1.2412 0.971189 0
M  V30 975 C 86.6928 1.03156 2.04674 0
M  V30 976 C 87.6928 -0.00990322 1.60797 0
M  V30 977 O 88.8828 0.230729 1.72665 0
M  V30 978 C 86.0148 0.562765 3.36223 0
M  V30 979 H 87.2078 1.98614 2.24705 0
M  V30 980 H 84.7608 1.06293 1.14593 0
M  V30 981 H 85.4958 -0.395176 3.21883 0
M  V30 982 H 85.2808 1.31441 3.69413 0
M  V30 983 H 86.7708 0.437015 4.15307 0
M  V30 984 N 87.2079 -1.17134 1.05439 0
M  V30 985 C 88.4549 -1.87456 0.765942 0
M  V30 986 C 88.7829 -1.81189 -0.707153 0
M  V30 987 O 88.0379 -1.21633 -1.5331 0
M  V30 988 C 88.3369 -3.36833 1.19491 0
M  V30 989 C 88.0029 -3.63301 2.67063 0
M  V30 990 C 86.6649 -3.70234 3.07376 0
M  V30 991 C 89.0169 -3.74575 3.62413 0
M  V30 992 C 86.3449 -3.85933 4.41896 0
M  V30 993 C 88.6969 -3.91793 4.9667 0
M  V30 994 C 87.3609 -3.96966 5.36633 0
M  V30 995 H 86.6309 -0.685948 0.280278 0
M  V30 996 H 89.2779 -1.38556 1.32192 0
M  V30 997 H 87.5829 -3.87807 0.557969 0
M  V30 998 H 89.2799 -3.89611 0.948893 0
M  V30 999 H 85.8699 -3.58532 2.34846 0
M  V30 1000 H 90.0539 -3.68537 3.32406 0
M  V30 1001 H 85.3099 -3.88187 4.72357 0
M  V30 1002 H 89.4839 -3.99458 5.70444 0
M  V30 1003 H 87.1109 -4.08883 6.40874 0
M  V30 1004 N 88.686 -0.835752 -1.33615 0
M  V30 1005 C 89.935 -0.426289 -1.97144 0
M  V30 1006 C 90.248 1.01912 -1.66953 0
M  V30 1007 O 91.454 1.53311 -2.24072 0
M  V30 1008 C 89.91 -0.711321 -3.52801 0
M  V30 1009 C 89.518 -2.1712 -3.91871 0
M  V30 1010 C 91.262 -0.368654 -4.22896 0
M  V30 1011 C 89.169 -2.40044 -5.40493 0
M  V30 1012 H 88.099 -0.15567 -0.737755 0
M  V30 1013 H 90.75 -1.0239 -1.52278 0
M  V30 1014 H 89.132 -0.0433766 -3.95976 0
M  V30 1015 H 90.306 -2.87936 -3.59763 0
M  V30 1016 H 88.621 -2.47654 -3.34749 0
M  V30 1017 H 91.218 -0.517601 -5.32189 0
M  V30 1018 H 91.561 0.688078 -4.10574 0
M  V30 1019 H 92.094 -0.991702 -3.8524 0
M  V30 1020 H 88.833 -3.44271 -5.57815 0
M  V30 1021 H 88.353 -1.73785 -5.74072 0
M  V30 1022 H 90.032 -2.23042 -6.0734 0
M  V30 1023 N 90.1641 1.46063 -0.591896 0
M  V30 1024 C 91.3921 2.06717 -0.0868936 0
M  V30 1025 C 91.8071 1.43916 1.22203 0
M  V30 1026 O 91.1641 0.547698 1.74088 0
M  V30 1027 C 91.2151 3.6142 0.0758725 0
M  V30 1028 O 90.9361 4.21874 -1.18126 0
M  V30 1029 C 92.4371 4.39025 0.61416 0
M  V30 1030 H 89.6571 0.668162 -0.0616518 0
M  V30 1031 H 92.2011 1.8755 -0.815175 0
M  V30 1032 H 90.3561 3.79983 0.754413 0
M  V30 1033 H 90.7701 5.14861 -1.00092 0
M  V30 1034 H 92.2441 5.4783 0.677193 0
M  V30 1035 H 92.7211 4.07708 1.63312 0
M  V30 1036 H 93.3271 4.2529 -0.0298142 0
M  V30 1037 N 91.6422 0.330177 1.54103 0
M  V30 1038 C 92.8902 -0.269871 2.0029 0
M  V30 1039 C 93.2112 -1.52133 1.21986 0
M  V30 1040 O 92.4812 -1.93212 0.323438 0
M  V30 1041 H 91.0612 -0.10271 0.739905 0
M  V30 1042 H 93.7232 0.448249 1.89675 0
M  V30 1043 H 92.8192 -0.52166 3.07709 0
M  V30 1044 N 93.1203 -1.57491 0.0584922 0
M  V30 1045 C 94.3663 -1.93264 -0.614558 0
M  V30 1046 C 94.6993 -0.937717 -1.7006 0
M  V30 1047 O 93.9743 0.0351652 -1.94468 0
M  V30 1048 C 94.2573 -3.3938 -1.20386 0
M  V30 1049 C 94.1103 -4.49625 -0.125375 0
M  V30 1050 C 95.4293 -3.86039 -2.11334 0
M  V30 1051 H 92.5483 -0.702791 -0.221933 0
M  V30 1052 H 95.1903 -1.8961 0.12175 0
M  V30 1053 H 93.3403 -3.42626 -1.83139 0
M  V30 1054 H 95.0123 -4.58506 0.506971 0
M  V30 1055 H 93.2553 -4.30354 0.545672 0
M  V30 1056 H 93.9263 -5.48967 -0.577861 0
M  V30 1057 H 96.4023 -3.84716 -1.58534 0
M  V30 1058 H 95.2783 -4.88914 -2.49507 0
M  V30 1059 H 95.5393 -3.23215 -3.01636 0
M  V30 1060 N 94.5984 0.214957 -1.56127 0
M  V30 1061 C 96.0094 0.781386 -1.69562 0
M  V30 1062 C 96.3604 1.84707 -0.66165 0
M  V30 1063 O 95.4854 2.156 0.185927 0
M  V30 1064 C 96.0804 1.42411 -3.07416 0
M  V30 1065 C 94.6394 1.93786 -3.22683 0
M  V30 1066 C 93.7864 0.800438 -2.65496 0
M  V30 1067 H 96.7374 -0.00980633 -1.58697 0
M  V30 1068 H 96.7584 2.29309 -3.0364 0
M  V30 1069 H 96.2704 0.64826 -3.82648 0
M  V30 1070 H 94.3714 2.74152 -2.52332 0
M  V30 1071 H 94.4844 2.1133 -4.29973 0
M  V30 1072 H 92.8484 1.2095 -2.2415 0
M  V30 1073 H 93.6314 0.0371471 -3.4328 0
M  V30 1074 N 96.0765 1.50051 0.48192 0
M  V30 1075 C 97.4925 1.37237 0.814756 0
M  V30 1076 C 97.6925 0.420109 1.97072 0
M  V30 1077 O 96.7485 -0.141246 2.52105 0
M  V30 1078 C 98.0615 2.78375 1.13701 0
M  V30 1079 C 99.6095 2.87213 1.2441 0
M  V30 1080 C 100.084 4.29161 1.59954 0
M  V30 1081 N 101.575 4.32061 1.66967 0
M  V30 1082 C 102.31 5.38879 1.95952 0
M  V30 1083 N 101.806 6.55918 2.23031 0
M  V30 1084 N 103.599 5.26312 1.97363 0
M  V30 1085 H 95.7505 2.10546 -0.28005 0
M  V30 1086 H 98.0135 0.945921 -0.0627454 0
M  V30 1087 H 97.7195 3.49845 0.360787 0
M  V30 1088 H 97.5935 3.14941 2.07586 0
M  V30 1089 H 99.9805 2.15969 2.01101 0
M  V30 1090 H 100.061 2.54204 0.285299 0
M  V30 1091 H 99.7055 5.00938 0.838067 0
M  V30 1092 H 99.6355 4.59648 2.56966 0
M  V30 1093 H 102.126 3.47661 1.48123 0
M  V30 1094 H 102.439 7.33139 2.44391 0
M  V30 1095 H 100.784 6.59112 2.20447 0
M  V30 1096 H 103.975 4.33876 1.75697 0
M  V30 1097 H 104.148 6.09649 2.19618 0
M  V30 1098 N 97.5546 -0.734337 1.39446 0
M  V30 1099 C 98.4876 -1.85715 1.32609 0
M  V30 1100 C 99.4656 -1.6137 0.199636 0
M  V30 1101 O 100.65 -1.84626 0.380195 0
M  V30 1102 C 97.7766 -3.21709 1.05929 0
M  V30 1103 C 96.8226 -3.64913 2.20773 0
M  V30 1104 S 97.6556 -3.74203 3.83056 0
M  V30 1105 C 98.8116 -5.12986 3.58603 0
M  V30 1106 H 99.0446 -1.91232 2.27635 0
M  V30 1107 H 96.5776 -0.899263 1.25509 0
M  V30 1108 H 98.5356 -4.00236 0.912203 0
M  V30 1109 H 97.1966 -3.13848 0.125883 0
M  V30 1110 H 96.3896 -4.63606 1.97699 0
M  V30 1111 H 95.9916 -2.93593 2.31688 0
M  V30 1112 H 98.2836 -5.99339 3.15909 0
M  V30 1113 H 99.2266 -5.41088 4.5676 0
M  V30 1114 H 99.6346 -4.82694 2.9269 0
M  V30 1115 N 99.0327 -1.24633 -0.964593 0
M  V30 1116 C 100.279 -1.08949 -1.71049 0
M  V30 1117 C 100.612 0.370302 -1.90637 0
M  V30 1118 O 99.8867 1.27349 -1.47011 0
M  V30 1119 C 100.17 -1.83329 -3.0994 0
M  V30 1120 C 100.023 -3.37077 -2.97824 0
M  V30 1121 C 101.342 -1.60846 -4.09654 0
M  V30 1122 H 98.4607 -0.397178 -0.620821 0
M  V30 1123 H 101.103 -1.5334 -1.12191 0
M  V30 1124 H 99.2527 -1.45597 -3.60186 0
M  V30 1125 H 100.925 -3.84425 -2.5498 0
M  V30 1126 H 99.1677 -3.65298 -2.33965 0
M  V30 1127 H 99.8387 -3.84324 -3.96231 0
M  V30 1128 H 102.315 -1.93674 -3.68279 0
M  V30 1129 H 101.191 -2.1534 -5.04896 0
M  V30 1130 H 101.452 -0.547434 -4.38698 0
M  V30 1131 N 100.511 1.16574 -1.06058 0
M  V30 1132 C 101.76 1.86385 -0.770944 0
M  V30 1133 C 102.073 1.82448 0.705129 0
M  V30 1134 O 103.279 2.47815 1.10905 0
M  V30 1135 C 101.735 3.34466 -1.32893 0
M  V30 1136 C 101.343 3.46883 -2.83507 0
M  V30 1137 C 103.087 4.09548 -1.11672 0
M  V30 1138 C 100.994 4.89036 -3.32562 0
M  V30 1139 H 99.9238 0.698181 -0.284709 0
M  V30 1140 H 102.575 1.31583 -1.27899 0
M  V30 1141 H 100.957 3.88859 -0.748662 0
M  V30 1142 H 102.131 3.02663 -3.47465 0
M  V30 1143 H 100.446 2.85232 -3.03368 0
M  V30 1144 H 103.043 5.14434 -1.45814 0
M  V30 1145 H 103.386 4.16264 -0.0549535 0
M  V30 1146 H 103.919 3.61387 -1.66265 0
M  V30 1147 H 100.658 4.87499 -4.38207 0
M  V30 1148 H 100.178 5.3389 -2.73351 0
M  V30 1149 H 101.857 5.57843 -3.2775 0
M  V30 1150 N 101.989 0.842826 1.3317 0
M  V30 1151 C 103.4 0.496651 1.79973 0
M  V30 1152 C 103.751 -0.984641 1.69703 0
M  V30 1153 O 102.876 -1.76743 1.24863 0
M  V30 1154 C 103.471 0.894727 3.26772 0
M  V30 1155 C 102.03 0.600629 3.71577 0
M  V30 1156 C 101.177 1.10091 2.5451 0
M  V30 1157 H 104.128 1.03116 1.20635 0
M  V30 1158 H 104.149 0.206347 3.7994 0
M  V30 1159 H 103.661 1.97287 3.34215 0
M  V30 1160 H 101.762 -0.467284 3.69658 0
M  V30 1161 H 101.875 1.15863 4.64879 0
M  V30 1162 H 100.239 0.52162 2.49301 0
M  V30 1163 H 101.022 2.18591 2.64713 0
M  V30 1164 N 103.467 -1.45747 0.599634 0
M  V30 1165 C 104.397 -2.33235 -0.111306 0
M  V30 1166 C 105.378 -1.46359 -0.866781 0
M  V30 1167 O 106.563 -1.75146 -0.838904 0
M  V30 1168 C 103.693 -3.28932 -1.11451 0
M  V30 1169 C 102.647 -4.25381 -0.472772 0
M  V30 1170 C 101.973 -5.1071 -1.58365 0
M  V30 1171 C 103.273 -5.18831 0.600948 0
M  V30 1172 H 104.967 -2.92927 0.61919 0
M  V30 1173 H 102.513 -1.40857 0.299215 0
M  V30 1174 H 104.466 -3.89002 -1.62036 0
M  V30 1175 H 103.19 -2.67381 -1.8755 0
M  V30 1176 H 101.849 -3.66598 0.0121472 0
M  V30 1177 H 101.497 -4.45533 -2.33473 0
M  V30 1178 H 101.197 -5.7604 -1.15982 0
M  V30 1179 H 102.721 -5.73647 -2.09194 0
M  V30 1180 H 104.135 -5.73019 0.179491 0
M  V30 1181 H 102.532 -5.92595 0.946076 0
M  V30 1182 H 103.602 -4.6174 1.48068 0
M  V30 1183 N 104.945 -0.338344 -1.53925 0
M  V30 1184 C 105.892 0.520845 -2.24846 0
M  V30 1185 C 106.862 1.09976 -1.24477 0
M  V30 1186 O 108.047 1.13735 -1.53196 0
M  V30 1187 C 105.187 1.6685 -3.02084 0
M  V30 1188 C 104.3 1.11739 -4.17299 0
M  V30 1189 C 103.435 2.23193 -4.82036 0
M  V30 1190 C 102.474 1.65407 -5.89328 0
M  V30 1191 N 101.611 2.70582 -6.47866 0
M  V30 1192 H 106.451 -0.0904881 -2.97863 0
M  V30 1193 H 103.988 -0.0564282 -1.46992 0
M  V30 1194 H 105.946 2.34407 -3.45122 0
M  V30 1195 H 104.576 2.2509 -2.31375 0
M  V30 1196 H 103.628 0.332919 -3.7894 0
M  V30 1197 H 104.94 0.654677 -4.94485 0
M  V30 1198 H 104.094 2.98626 -5.28117 0
M  V30 1199 H 102.833 2.72807 -4.04262 0
M  V30 1200 H 101.838 0.884779 -5.42634 0
M  V30 1201 H 103.063 1.16652 -6.69006 0
M  V30 1202 H 101.009 3.1946 -5.72959 0
M  V30 1203 H 100.926 2.28917 -7.20509 0
M  V30 1204 H 102.194 3.45799 -6.98601 0
M  V30 1205 N 106.423 1.57458 -0.0668435 0
M  V30 1206 C 107.839 1.56947 0.289772 0
M  V30 1207 C 108.039 1.07584 1.70376 0
M  V30 1208 O 107.095 0.739486 2.41429 0
M  V30 1209 C 108.408 3.0052 0.103943 0
M  V30 1210 C 109.956 3.12517 0.173857 0
M  V30 1211 C 110.431 4.57997 0.0163682 0
M  V30 1212 N 111.922 4.63144 0.0721352 0
M  V30 1213 C 112.657 5.73394 -0.0253794 0
M  V30 1214 N 112.153 6.92576 -0.176133 0
M  V30 1215 N 113.946 5.62091 0.0313305 0
M  V30 1216 H 106.097 1.87863 -0.991027 0
M  V30 1217 H 108.36 0.86583 -0.38606 0
M  V30 1218 H 108.066 3.40729 -0.871572 0
M  V30 1219 H 107.94 3.67304 0.858366 0
M  V30 1220 H 110.327 2.72197 1.13985 0
M  V30 1221 H 110.408 2.48381 -0.611586 0
M  V30 1222 H 110.052 4.99005 -0.946374 0
M  V30 1223 H 109.982 5.20158 0.821153 0
M  V30 1224 H 112.473 3.77436 0.187263 0
M  V30 1225 H 112.786 7.72418 -0.242821 0
M  V30 1226 H 111.131 6.94678 -0.211429 0
M  V30 1227 H 114.322 4.67867 0.147773 0
M  V30 1228 H 114.495 6.47982 -0.048121 0
M  V30 1229 N 107.901 -0.206675 1.56239 0
M  V30 1230 C 108.831 -1.25909 1.96645 0
M  V30 1231 C 109.812 -1.48097 0.836734 0
M  V30 1232 O 110.997 -1.6003 1.10019 0
M  V30 1233 C 108.127 -2.6058 2.29599 0
M  V30 1234 C 107.081 -2.53024 3.452 0
M  V30 1235 C 106.407 -3.91861 3.63798 0
M  V30 1236 C 107.707 -2.06524 4.79734 0
M  V30 1237 H 109.401 -0.923369 2.84806 0
M  V30 1238 H 106.947 -0.442735 1.37025 0
M  V30 1239 H 108.9 -3.34375 2.56459 0
M  V30 1240 H 107.624 -2.95869 1.38307 0
M  V30 1241 H 106.283 -1.81684 3.18412 0
M  V30 1242 H 105.931 -4.24483 2.69857 0
M  V30 1243 H 105.631 -3.87683 4.4156 0
M  V30 1244 H 107.155 -4.67296 3.93022 0
M  V30 1245 H 108.569 -2.70072 5.05702 0
M  V30 1246 H 106.966 -2.13374 5.60885 0
M  V30 1247 H 108.036 -1.01802 4.74093 0
M  V30 1248 N 109.379 -1.50304 -0.473955 0
M  V30 1249 C 110.326 -1.68959 -1.57231 0
M  V30 1250 C 111.296 -0.530899 -1.57387 0
M  V30 1251 O 112.481 -0.761133 -1.74961 0
M  V30 1252 C 109.621 -1.7871 -2.95223 0
M  V30 1253 C 108.734 -3.06061 -3.04878 0
M  V30 1254 C 107.869 -3.06626 -4.33767 0
M  V30 1255 C 106.908 -4.28443 -4.37154 0
M  V30 1256 N 106.045 -4.26763 -5.5751 0
M  V30 1257 H 110.885 -2.6273 -1.40631 0
M  V30 1258 H 108.422 -1.30241 -0.683789 0
M  V30 1259 H 110.38 -1.82344 -3.75242 0
M  V30 1260 H 109.01 -0.883806 -3.10465 0
M  V30 1261 H 108.062 -3.11911 -2.17751 0
M  V30 1262 H 109.374 -3.96039 -3.0324 0
M  V30 1263 H 108.528 -3.08973 -5.22131 0
M  V30 1264 H 107.267 -2.14473 -4.3801 0
M  V30 1265 H 106.272 -4.2631 -3.47188 0
M  V30 1266 H 107.497 -5.2182 -4.34605 0
M  V30 1267 H 105.443 -3.37462 -5.62544 0
M  V30 1268 H 105.36 -5.10507 -5.57601 0
M  V30 1269 H 106.628 -4.33253 -6.48006 0
M  V30 1270 N 110.857 0.726932 -1.39834 0
M  V30 1271 C 111.787 1.85405 -1.41941 0
M  V30 1272 C 112.768 1.67751 -0.281728 0
M  V30 1273 O 113.953 1.8795 -0.488717 0
M  V30 1274 C 111.083 3.23243 -1.2701 0
M  V30 1275 C 110.037 3.55549 -2.38262 0
M  V30 1276 C 109.363 4.9241 -2.08415 0
M  V30 1277 C 110.663 3.577 -3.80589 0
M  V30 1278 H 112.357 1.83899 -2.36266 0
M  V30 1279 H 109.903 0.883349 -1.13723 0
M  V30 1280 H 111.856 4.01775 -1.27103 0
M  V30 1281 H 110.58 3.25296 -0.291564 0
M  V30 1282 H 109.239 2.79351 -2.37399 0
M  V30 1283 H 108.887 4.91052 -1.0898 0
M  V30 1284 H 108.587 5.14992 -2.82943 0
M  V30 1285 H 110.111 5.73289 -2.10171 0
M  V30 1286 H 111.525 4.26293 -3.83337 0
M  V30 1287 H 109.922 3.91804 -4.54543 0
M  V30 1288 H 110.992 2.57328 -4.10987 0
M  V30 1289 N 112.336 1.25143 0.95797 0
M  V30 1290 C 113.266 1.07711 2.07173 0
M  V30 1291 C 114.247 -0.0128462 1.70095 0
M  V30 1292 O 115.432 0.156061 1.93572 0
M  V30 1293 C 112.562 0.691503 3.40346 0
M  V30 1294 C 111.516 1.73132 3.9142 0
M  V30 1295 C 110.842 1.20049 5.21049 0
M  V30 1296 C 112.142 3.1294 4.1817 0
M  V30 1297 H 113.836 2.00873 2.22014 0
M  V30 1298 H 111.382 0.967191 1.06684 0
M  V30 1299 H 113.335 0.556505 4.17709 0
M  V30 1300 H 112.059 -0.275819 3.25433 0
M  V30 1301 H 110.718 1.8547 3.16222 0
M  V30 1302 H 110.366 0.223499 5.02503 0
M  V30 1303 H 110.066 1.89545 5.56189 0
M  V30 1304 H 111.59 1.07782 6.01012 0
M  V30 1305 H 113.004 3.03775 4.86203 0
M  V30 1306 H 111.401 3.79875 4.64559 0
M  V30 1307 H 112.471 3.6025 3.24573 0
M  V30 1308 N 113.814 -1.1601 1.06675 0
M  V30 1309 C 114.761 -2.20525 0.680967 0
M  V30 1310 C 115.731 -1.62904 -0.324283 0
M  V30 1311 O 116.916 -1.89615 -0.212294 0
M  V30 1312 C 114.056 -3.45013 0.0776551 0
M  V30 1313 C 113.169 -4.16863 1.13355 0
M  V30 1314 C 112.304 -5.2888 0.49597 0
M  V30 1315 C 111.343 -5.92537 1.53513 0
M  V30 1316 N 110.48 -6.96038 0.920631 0
M  V30 1317 H 115.32 -2.52876 1.57663 0
M  V30 1318 H 112.857 -1.24199 0.788223 0
M  V30 1319 H 114.815 -4.16193 -0.289704 0
M  V30 1320 H 113.445 -3.132 -0.781393 0
M  V30 1321 H 112.497 -3.44248 1.61857 0
M  V30 1322 H 113.809 -4.60294 1.92174 0
M  V30 1323 H 112.963 -6.06653 0.0758604 0
M  V30 1324 H 111.702 -4.86622 -0.324062 0
M  V30 1325 H 110.707 -5.13482 1.9651 0
M  V30 1326 H 111.932 -6.36873 2.35733 0
M  V30 1327 H 109.878 -6.55888 0.12138 0
M  V30 1328 H 109.795 -7.3786 1.64616 0
M  V30 1329 H 111.063 -7.77725 0.525795 0
M  V30 1330 N 115.292 -0.849877 -1.32721 0
M  V30 1331 C 116.202 -0.293791 -2.32753 0
M  V30 1332 C 117.218 0.585906 -1.63839 0
M  V30 1333 O 118.394 0.487413 -1.95413 0
M  V30 1334 C 115.459 0.512752 -3.42887 0
M  V30 1335 C 114.52 -0.39252 -4.27502 0
M  V30 1336 C 113.753 0.375625 -5.32377 0
M  V30 1337 O 113.976 1.60613 -5.4732 0
M  V30 1338 O 112.91 -0.256094 -6.01355 0
M  V30 1339 H 116.736 -1.12242 -2.82197 0
M  V30 1340 H 114.321 -0.612685 -1.36259 0
M  V30 1341 H 116.203 0.970704 -4.10067 0
M  V30 1342 H 114.878 1.31826 -2.95641 0
M  V30 1343 H 113.785 -0.898547 -3.63149 0
M  V30 1344 H 115.118 -1.16309 -4.7826 0
M  V30 1345 N 116.77 1.45427 -0.607355 0
M  V30 1346 C 118.186 1.57283 -0.270985 0
M  V30 1347 C 118.386 1.59875 1.22647 0
M  V30 1348 O 117.442 1.52893 2.00948 0
M  V30 1349 C 118.755 2.85566 -0.941952 0
M  V30 1350 C 120.303 2.9924 -0.917849 0
M  V30 1351 C 120.778 4.30293 -1.56882 0
M  V30 1352 N 122.269 4.37051 -1.5343 0
M  V30 1353 C 123.004 5.37123 -2.00715 0
M  V30 1354 N 122.5 6.43734 -2.56084 0
M  V30 1355 N 124.293 5.28479 -1.91484 0
M  V30 1356 H 116.444 1.41988 -1.57966 0
M  V30 1357 H 118.707 0.67885 -0.661715 0
M  V30 1358 H 118.413 2.8955 -1.99633 0
M  V30 1359 H 118.287 3.74322 -0.465096 0
M  V30 1360 H 120.674 2.94822 0.127984 0
M  V30 1361 H 120.755 2.11895 -1.43297 0
M  V30 1362 H 120.399 4.35469 -2.61398 0
M  V30 1363 H 120.329 5.16454 -1.02873 0
M  V30 1364 H 122.82 3.60615 -1.12982 0
M  V30 1365 H 123.133 7.16341 -2.89958 0
M  V30 1366 H 121.478 6.44485 -2.60122 0
M  V30 1367 H 124.669 4.44098 -1.47967 0
M  V30 1368 H 124.842 6.0632 -2.28648 0
M  V30 1369 N 118.248 0.346503 1.53744 0
M  V30 1370 C 119.497 -0.250122 2.00143 0
M  V30 1371 C 119.81 -1.51418 1.23822 0
M  V30 1372 O 121.016 -2.18823 1.60713 0
M  V30 1373 C 119.472 -0.496252 3.56462 0
M  V30 1374 C 119.08 0.752077 4.41642 0
M  V30 1375 C 120.824 -1.05157 4.11269 0
M  V30 1376 C 118.731 0.476583 5.89477 0
M  V30 1377 H 117.661 -0.0972409 0.747703 0
M  V30 1378 H 120.312 0.46229 1.77581 0
M  V30 1379 H 118.694 -1.26944 3.75102 0
M  V30 1380 H 119.868 1.5266 4.34778 0
M  V30 1381 H 118.183 1.22925 3.97842 0
M  V30 1382 H 120.78 -1.27269 5.19333 0
M  V30 1383 H 121.123 -2.00799 3.64672 0
M  V30 1384 H 121.656 -0.339019 3.96353 0
M  V30 1385 H 118.395 1.4028 6.40314 0
M  V30 1386 H 117.915 -0.259794 5.99237 0
M  V30 1387 H 119.594 0.0949315 6.4693 0
M  V30 1388 N 119.726 -1.57421 0.075193 0
M  V30 1389 C 120.673 -2.12915 -0.890843 0
M  V30 1390 C 121.643 -1.04252 -1.29309 0
M  V30 1391 O 122.828 -1.31933 -1.37834 0
M  V30 1392 C 119.968 -2.69795 -2.15186 0
M  V30 1393 C 119.081 -3.92624 -1.80194 0
M  V30 1394 C 118.216 -4.37736 -3.00933 0
M  V30 1395 C 117.255 -5.53205 -2.61974 0
M  V30 1396 N 116.392 -5.9326 -3.75483 0
M  V30 1397 H 121.232 -2.95156 -0.410735 0
M  V30 1398 H 118.769 -1.45854 -0.191086 0
M  V30 1399 H 120.727 -3.00883 -2.89008 0
M  V30 1400 H 119.357 -1.90313 -2.60731 0
M  V30 1401 H 118.409 -3.67977 -0.964218 0
M  V30 1402 H 119.721 -4.76482 -1.47534 0
M  V30 1403 H 118.875 -4.70503 -3.8303 0
M  V30 1404 H 117.614 -3.52739 -3.36789 0
M  V30 1405 H 116.619 -5.20086 -1.783 0
M  V30 1406 H 117.844 -6.39936 -2.27284 0
M  V30 1407 H 115.79 -5.11212 -4.11094 0
M  V30 1408 H 115.707 -6.71865 -3.46602 0
M  V30 1409 H 116.975 -6.30651 -4.58148 0
M  V30 1410 N 121.204 0.198386 -1.56346 0
M  V30 1411 C 122.453 0.917451 -1.79627 0
M  V30 1412 C 122.766 1.8456 -0.64784 0
M  V30 1413 O 123.972 2.60504 -0.764859 0
M  V30 1414 C 122.428 1.68175 -3.18191 0
M  V30 1415 C 122.036 0.798589 -4.40825 0
M  V30 1416 C 123.78 2.39065 -3.50782 0
M  V30 1417 C 121.687 1.56157 -5.70411 0
M  V30 1418 H 120.617 0.346317 -0.669762 0
M  V30 1419 H 123.268 0.170801 -1.82703 0
M  V30 1420 H 121.65 2.47216 -3.09354 0
M  V30 1421 H 122.824 0.0470665 -4.60776 0
M  V30 1422 H 121.139 0.200686 -4.15916 0
M  V30 1423 H 123.736 2.96692 -4.44835 0
M  V30 1424 H 124.079 3.13091 -2.74371 0
M  V30 1425 H 124.612 1.66993 -3.61052 0
M  V30 1426 H 121.351 0.864142 -6.49779 0
M  V30 1427 H 120.871 2.2871 -5.54483 0
M  V30 1428 H 122.55 2.11622 -6.11412 0
M  V30 1429 N 122.682 1.50554 0.465978 0
M  V30 1430 C 123.63 1.70324 1.58406 0
M  V30 1431 C 124.624 0.569139 1.59553 0
M  V30 1432 O 125.83 0.749776 1.63641 0
M  V30 1433 H 122.205 0.537688 0.525734 0
M  V30 1434 H 124.176 2.64104 1.38894 0
M  V30 1435 C 122.925 1.81928 2.96307 0
M  V30 1436 H 122.248 2.68586 2.96144 0
M  V30 1437 H 123.688 1.99784 3.73982 0
M  V30 1438 C 122.147 0.572095 3.32007 0
M  V30 1439 O 122.677 -0.286416 4.00678 0
M  V30 1440 N 120.883 0.424606 2.87481 0
M  V30 1441 H 120.43 1.12427 2.31771 0
M  V30 1442 H 120.388 -0.408697 3.11732 0
M  V30 1443 N 124.16 -0.719506 1.40217 0
M  V30 1444 C 125.107 -1.83359 1.40172 0
M  V30 1445 C 126.077 -1.64065 0.259206 0
M  V30 1446 O 127.262 -1.85254 0.456677 0
M  V30 1447 C 124.402 -3.2103 1.26624 0
M  V30 1448 C 123.515 -3.51923 2.50548 0
M  V30 1449 C 122.65 -4.79079 2.29471 0
M  V30 1450 C 121.689 -5.02863 3.48992 0
M  V30 1451 N 120.826 -6.2123 3.27135 0
M  V30 1452 H 125.666 -1.82733 2.35399 0
M  V30 1453 H 123.203 -0.892688 1.16917 0
M  V30 1454 H 125.161 -4.00524 1.16776 0
M  V30 1455 H 123.791 -3.20895 0.350176 0
M  V30 1456 H 122.843 -2.67014 2.70939 0
M  V30 1457 H 124.155 -3.6541 3.39525 0
M  V30 1458 H 123.309 -5.66582 2.16955 0
M  V30 1459 H 122.048 -4.67794 1.37913 0
M  V30 1460 H 121.053 -4.13816 3.6199 0
M  V30 1461 H 122.278 -5.16023 4.41472 0
M  V30 1462 H 120.224 -6.11204 2.38256 0
M  V30 1463 H 120.141 -6.35375 4.09675 0
M  V30 1464 H 121.409 -7.11532 3.18344 0
M  V30 1465 N 125.638 -1.25649 -0.95132 0
M  V30 1466 C 126.586 -1.06118 -2.06982 0
M  V30 1467 C 127.58 0.00889169 -1.69398 0
M  V30 1468 O 128.786 -0.146988 -1.79399 0
M  V30 1469 H 125.161 -0.326248 -0.677544 0
M  V30 1470 H 127.132 -2.00932 -2.2061 0
M  V30 1471 C 125.881 -0.700145 -3.40578 0
M  V30 1472 H 125.204 -1.51537 -3.69968 0
M  V30 1473 H 126.644 -0.603211 -4.19687 0
M  V30 1474 C 125.103 0.59403 -3.31622 0
M  V30 1475 O 125.633 1.63522 -3.66911 0
M  V30 1476 N 123.839 0.58089 -2.84735 0
M  V30 1477 H 123.386 -0.266783 -2.56215 0
M  V30 1478 H 123.344 1.44695 -2.79125 0
M  V30 1479 N 127.117 1.15442 -1.07289 0
M  V30 1480 C 128.357 1.8788 -0.805012 0
M  V30 1481 C 128.721 1.80413 0.656907 0
M  V30 1482 O 129.922 2.47874 1.0398 0
M  V30 1483 C 128.193 3.3298 -1.29843 0
M  V30 1484 S 129.752 4.23158 -1.16114 0
M  V30 1485 H 126.57 0.64839 -0.291739 0
M  V30 1486 H 129.172 1.39285 -1.37186 0
M  V30 1487 H 127.876 3.35958 -2.35712 0
M  V30 1488 H 127.407 3.86629 -0.726767 0
M  V30 1489 H 129.422 4.96103 -0.0982778 0
M  V30 1490 N 128.595 0.856903 1.32268 0
M  V30 1491 C 129.542 0.301172 2.28827 0
M  V30 1492 C 130.512 -0.593104 1.5515 0
M  V30 1493 O 131.697 -0.527537 1.83362 0
M  V30 1494 C 128.837 -0.502523 3.41422 0
M  V30 1495 C 127.95 0.417797 4.29975 0
M  V30 1496 C 127.085 -0.398749 5.29701 0
M  V30 1497 C 126.124 0.518827 6.09897 0
M  V30 1498 N 125.261 -0.260674 7.01616 0
M  V30 1499 H 130.101 1.12983 2.75751 0
M  V30 1500 H 127.638 0.568582 1.35667 0
M  V30 1501 H 129.596 -0.984141 4.05426 0
M  V30 1502 H 128.226 -1.29599 2.95642 0
M  V30 1503 H 127.278 1.01781 3.66531 0
M  V30 1504 H 128.59 1.12191 4.86019 0
M  V30 1505 H 127.744 -0.943435 5.9932 0
M  V30 1506 H 126.483 -1.13622 4.7428 0
M  V30 1507 H 125.488 1.07538 5.39181 0
M  V30 1508 H 126.713 1.25495 6.67404 0
M  V30 1509 H 124.659 -0.981198 6.4862 0
M  V30 1510 H 124.576 0.384364 7.55022 0
M  V30 1511 H 125.844 -0.787014 7.75517 0
M  V30 1512 N 130.073 -1.45103 0.615059 0
M  V30 1513 C 131.298 -2.07064 0.117988 0
M  V30 1514 C 131.723 -1.4554 -1.19163 0
M  V30 1515 O 131.081 -0.550855 -1.72729 0
M  V30 1516 C 131.129 -3.606 -0.000288387 0
M  V30 1517 O 130.233 -3.98847 -1.04856 0
M  V30 1518 H 129.574 -0.659467 0.0774581 0
M  V30 1519 H 132.104 -1.86236 0.847186 0
M  V30 1520 H 132.114 -4.07529 -0.196091 0
M  V30 1521 H 130.789 -4.04765 0.955932 0
M  V30 1522 H 129.366 -3.63577 -0.828619 0
M  V30 1523 N 131.551 -0.354651 -1.53558 0
M  V30 1524 C 132.799 0.237972 -2.00694 0
M  V30 1525 C 133.12 1.50173 -1.24391 0
M  V30 1526 O 132.39 1.92673 -0.354135 0
M  V30 1527 H 130.97 0.0909256 -0.741446 0
M  V30 1528 H 133.632 -0.478368 -1.88938 0
M  V30 1529 H 132.728 0.47264 -3.085 0
M  V30 1530 N 133.029 1.57378 -0.0835403 0
M  V30 1531 C 134.276 1.9393 0.58287 0
M  V30 1532 C 134.604 0.964455 1.68904 0
M  V30 1533 O 133.859 -0.0179474 1.95692 0
M  V30 1534 C 134.158 3.37063 1.1884 0
M  V30 1535 C 133.824 4.50424 0.207194 0
M  V30 1536 C 132.486 4.81159 -0.0627115 0
M  V30 1537 C 134.838 5.19136 -0.463426 0
M  V30 1538 C 132.166 5.77939 -1.01012 0
M  V30 1539 C 134.518 6.16931 -1.39924 0
M  V30 1540 C 133.182 6.46078 -1.67749 0
M  V30 1541 H 132.452 0.70964 0.213287 0
M  V30 1542 H 135.099 1.90856 -0.156916 0
M  V30 1543 H 133.404 3.3666 2.00418 0
M  V30 1544 H 135.101 3.6264 1.71153 0
M  V30 1545 H 131.691 4.2646 0.427747 0
M  V30 1546 H 135.875 4.95576 -0.268034 0
M  V30 1547 H 131.131 5.98842 -1.23283 0
M  V30 1548 H 135.305 6.69273 -1.92476 0
M  V30 1549 H 132.932 7.2088 -2.41321 0
M  V30 1550 N 134.507 -0.190092 1.56449 0
M  V30 1551 C 135.437 -1.23816 1.97969 0
M  V30 1552 C 136.418 -1.47201 0.852395 0
M  V30 1553 O 137.603 -1.58854 1.1171 0
M  V30 1554 C 134.733 -2.5813 2.3235 0
M  V30 1555 C 133.687 -2.49348 3.47864 0
M  V30 1556 C 133.013 -3.8798 3.67934 0
M  V30 1557 C 134.313 -2.01424 4.81898 0
M  V30 1558 H 136.007 -0.89311 2.85769 0
M  V30 1559 H 133.553 -0.428177 1.37487 0
M  V30 1560 H 135.506 -3.31637 2.59991 0
M  V30 1561 H 134.23 -2.94386 1.41438 0
M  V30 1562 H 132.889 -1.78297 3.20321 0
M  V30 1563 H 132.537 -4.21597 2.74344 0
M  V30 1564 H 132.237 -3.82978 4.45648 0
M  V30 1565 H 133.761 -4.63101 3.97957 0
M  V30 1566 H 135.175 -2.64693 5.08538 0
M  V30 1567 H 133.572 -2.07413 5.63116 0
M  V30 1568 H 134.642 -0.967677 4.75146 0
M  V30 1569 N 135.985 -1.50799 -0.457987 0
M  V30 1570 C 137.401 -1.38515 -0.792819 0
M  V30 1571 C 137.601 -0.451409 -1.96379 0
M  V30 1572 O 136.657 0.10112 -2.52297 0
M  V30 1573 C 137.97 -2.80149 -1.09258 0
M  V30 1574 C 139.518 -2.89156 -1.19825 0
M  V30 1575 C 139.993 -4.31651 -1.53106 0
M  V30 1576 N 141.484 -4.34662 -1.60072 0
M  V30 1577 C 142.219 -5.41928 -1.87354 0
M  V30 1578 N 141.715 -6.59384 -2.12568 0
M  V30 1579 N 143.508 -5.29385 -1.88965 0
M  V30 1580 H 135.659 -2.10073 0.313511 0
M  V30 1581 H 137.922 -0.944803 0.0777862 0
M  V30 1582 H 137.628 -3.50374 -0.305084 0
M  V30 1583 H 137.502 -3.18204 -2.02549 0
M  V30 1584 H 139.889 -2.19141 -1.97639 0
M  V30 1585 H 139.97 -2.54626 -0.244821 0
M  V30 1586 H 139.614 -5.02208 -0.758266 0
M  V30 1587 H 139.544 -4.63678 -2.49621 0
M  V30 1588 H 142.035 -3.49973 -1.42573 0
M  V30 1589 H 142.348 -7.36934 -2.32696 0
M  V30 1590 H 140.693 -6.62535 -2.09933 0
M  V30 1591 H 143.884 -4.36616 -1.68772 0
M  V30 1592 H 144.057 -6.13066 -2.09891 0
M  V30 1593 N 137.463 0.71206 -1.40597 0
M  V30 1594 C 138.41 1.82613 -1.41142 0
M  V30 1595 C 139.38 1.63925 -0.267903 0
M  V30 1596 O 140.565 1.85009 -0.466495 0
M  V30 1597 C 137.705 3.20354 -1.28324 0
M  V30 1598 C 136.818 3.50589 -2.52411 0
M  V30 1599 C 135.953 4.77855 -2.32009 0
M  V30 1600 C 134.992 5.01005 -3.51654 0
M  V30 1601 N 134.129 6.19487 -3.30425 0
M  V30 1602 H 138.969 1.81482 -2.36365 0
M  V30 1603 H 136.506 0.886475 -1.17388 0
M  V30 1604 H 138.464 3.99899 -1.18899 0
M  V30 1605 H 137.094 3.20705 -0.367189 0
M  V30 1606 H 136.146 2.65573 -2.72351 0
M  V30 1607 H 137.458 3.63604 -3.41458 0
M  V30 1608 H 136.612 5.65424 -2.19956 0
M  V30 1609 H 135.351 4.67056 -1.40392 0
M  V30 1610 H 134.356 4.1189 -3.64179 0
M  V30 1611 H 135.581 5.13674 -4.44202 0
M  V30 1612 H 133.527 6.09932 -2.41494 0
M  V30 1613 H 133.444 6.33194 -4.13039 0
M  V30 1614 H 134.712 7.09834 -3.22113 0
M  V30 1615 N 138.941 1.26152 0.944643 0
M  V30 1616 C 140.169 1.14259 1.72489 0
M  V30 1617 C 140.584 -0.302555 1.8636 0
M  V30 1618 O 139.941 -1.20741 1.36849 0
M  V30 1619 C 139.992 1.80266 3.13347 0
M  V30 1620 O 139.713 3.19133 3.00143 0
M  V30 1621 C 141.214 1.74283 4.07603 0
M  V30 1622 H 138.434 0.398051 0.540181 0
M  V30 1623 H 140.978 1.66706 1.18446 0
M  V30 1624 H 139.133 1.31766 3.64303 0
M  V30 1625 H 139.547 3.51744 3.89071 0
M  V30 1626 H 141.021 2.25111 5.04013 0
M  V30 1627 H 141.498 0.708631 4.33446 0
M  V30 1628 H 142.104 2.22319 3.62567 0
M  V30 1629 N 140.419 -1.14872 1.07899 0
M  V30 1630 C 141.665 -1.86064 0.806725 0
M  V30 1631 C 141.998 -1.82434 -0.665706 0
M  V30 1632 O 141.273 -1.25138 -1.48899 0
M  V30 1633 C 141.556 -3.34929 1.32267 0
M  V30 1634 C 141.409 -3.47161 2.86006 0
M  V30 1635 C 142.728 -4.29863 0.943717 0
M  V30 1636 H 139.847 -0.675591 0.294526 0
M  V30 1637 H 142.489 -1.34925 1.33773 0
M  V30 1638 H 140.639 -3.78611 0.870974 0
M  V30 1639 H 142.311 -3.12302 3.39507 0
M  V30 1640 H 140.554 -2.88539 3.23925 0
M  V30 1641 H 141.225 -4.51777 3.17177 0
M  V30 1642 H 143.701 -3.9417 1.33302 0
M  V30 1643 H 142.577 -5.32494 1.33198 0
M  V30 1644 H 142.838 -4.41846 -0.149796 0
M  V30 1645 N 141.898 -0.863906 -1.31812 0
M  V30 1646 C 142.846 -0.30422 -2.30602 0
M  V30 1647 C 143.84 0.577419 -1.59255 0
M  V30 1648 O 145.046 0.464194 -1.73912 0
M  V30 1649 H 141.421 -0.0796877 -0.747766 0
M  V30 1650 H 143.392 -1.15148 -2.75288 0
M  V30 1651 C 142.141 0.484617 -3.44306 0
M  V30 1652 H 141.464 -0.18451 -3.99374 0
M  V30 1653 H 142.904 0.841664 -4.15562 0
M  V30 1654 C 141.363 1.6735 -2.92396 0
M  V30 1655 O 141.893 2.77273 -2.90659 0
M  V30 1656 N 140.099 1.50362 -2.48676 0
M  V30 1657 H 139.646 0.609402 -2.50288 0
M  V30 1658 H 139.604 2.30051 -2.14299 0
M  V30 1659 N 143.376 1.44774 -0.622745 0
M  V30 1660 C 144.601 2.06999 -0.128968 0
M  V30 1661 C 145.026 1.4617 1.1839 0
M  V30 1662 O 144.384 0.560007 1.72434 0
M  V30 1663 C 144.432 3.60595 -0.0188351 0
M  V30 1664 O 143.536 3.99398 1.02739 0
M  V30 1665 H 142.877 0.659047 -0.0809544 0
M  V30 1666 H 145.407 1.85784 -0.85705 0
M  V30 1667 H 145.417 4.07627 0.174476 0
M  V30 1668 H 144.092 4.04252 -0.977384 0
M  V30 1669 H 142.669 3.64011 0.809326 0
M  V30 1670 N 144.854 0.36279 1.53368 0
M  V30 1671 C 146.082 -0.228613 2.05633 0
M  V30 1672 C 146.497 -1.42676 1.23649 0
M  V30 1673 O 145.854 -1.80394 0.27647 0
M  V30 1674 C 145.905 -0.624845 3.56059 0
M  V30 1675 O 145.626 0.525675 4.34935 0
M  V30 1676 C 147.127 -1.27493 4.24571 0
M  V30 1677 H 144.347 -0.0407183 0.669763 0
M  V30 1678 H 146.891 0.520352 1.97769 0
M  V30 1679 H 145.046 -1.32373 3.64083 0
M  V30 1680 H 145.46 0.205969 5.24095 0
M  V30 1681 H 146.934 -1.50277 5.31151 0
M  V30 1682 H 147.411 -2.23439 3.78116 0
M  V30 1683 H 148.017 -0.617558 4.20792 0
M  V30 1684 N 146.332 -1.57332 0.0918853 0
M  V30 1685 C 147.279 -2.13847 -0.868211 0
M  V30 1686 C 148.249 -1.05618 -1.28196 0
M  V30 1687 O 149.434 -1.33387 -1.36427 0
M  V30 1688 C 146.574 -2.72062 -2.12312 0
M  V30 1689 C 145.687 -3.94514 -1.7602 0
M  V30 1690 C 144.822 -4.40903 -2.96273 0
M  V30 1691 C 143.861 -5.55953 -2.56092 0
M  V30 1692 N 142.998 -5.97209 -3.69169 0
M  V30 1693 H 147.838 -2.95575 -0.379406 0
M  V30 1694 H 145.375 -1.46048 -0.175606 0
M  V30 1695 H 147.333 -3.03931 -2.858 0
M  V30 1696 H 145.963 -1.93068 -2.58698 0
M  V30 1697 H 145.015 -3.68979 -0.925135 0
M  V30 1698 H 146.327 -4.7802 -1.42472 0
M  V30 1699 H 145.481 -4.74539 -3.78018 0
M  V30 1700 H 144.22 -3.56291 -3.33029 0
M  V30 1701 H 143.225 -5.21948 -1.72773 0
M  V30 1702 H 144.45 -6.42311 -2.20484 0
M  V30 1703 H 142.396 -5.15543 -4.05649 0
M  V30 1704 H 142.313 -6.75504 -3.39456 0
M  V30 1705 H 143.581 -6.35475 -4.51434 0
M  V30 1706 N 147.81 0.181792 -1.56548 0
M  V30 1707 C 149.056 0.901431 -1.81665 0
M  V30 1708 C 149.389 1.82347 -0.668075 0
M  V30 1709 O 148.664 1.91669 0.330615 0
M  V30 1710 C 148.947 1.70618 -3.17115 0
M  V30 1711 C 148.8 0.807964 -4.42484 0
M  V30 1712 C 150.119 2.67605 -3.49393 0
M  V30 1713 H 147.238 0.32627 -0.660846 0
M  V30 1714 H 149.88 0.168134 -1.89255 0
M  V30 1715 H 148.03 2.33133 -3.10775 0
M  V30 1716 H 149.702 0.19649 -4.60881 0
M  V30 1717 H 147.945 0.115411 -4.33646 0
M  V30 1718 H 148.616 1.40632 -5.33785 0
M  V30 1719 H 151.092 2.15218 -3.56118 0
M  V30 1720 H 149.968 3.20985 -4.45264 0
M  V30 1721 H 150.229 3.47298 -2.73563 0
M  V30 1722 N 149.288 1.51039 0.449983 0
M  V30 1723 C 150.218 1.74379 1.55288 0
M  V30 1724 C 151.199 0.593236 1.5942 0
M  V30 1725 O 152.384 0.834625 1.7535 0
M  V30 1726 C 149.514 1.85728 2.93466 0
M  V30 1727 C 148.468 3.01078 3.04197 0
M  V30 1728 C 147.794 2.97595 4.44231 0
M  V30 1729 C 149.094 4.41254 2.7945 0
M  V30 1730 H 150.788 2.66725 1.36008 0
M  V30 1731 H 148.334 1.2835 0.652864 0
M  V30 1732 H 150.287 2.0064 3.70569 0
M  V30 1733 H 149.011 0.900207 3.13949 0
M  V30 1734 H 147.67 2.85851 2.29531 0
M  V30 1735 H 147.318 1.99691 4.61663 0
M  V30 1736 H 147.018 3.75046 4.52343 0
M  V30 1737 H 148.542 3.14583 5.23326 0
M  V30 1738 H 149.956 4.56897 3.46292 0
M  V30 1739 H 148.353 5.20315 2.98985 0
M  V30 1740 H 149.423 4.52164 1.75144 0
M  V30 1741 N 150.766 -0.704594 1.40972 0
M  V30 1742 C 151.676 -1.84856 1.44448 0
M  V30 1743 C 152.692 -1.70726 0.335961 0
M  V30 1744 O 153.868 -1.92799 0.582276 0
M  V30 1745 C 150.933 -3.20758 1.31587 0
M  V30 1746 C 149.994 -3.47063 2.52677 0
M  V30 1747 C 149.227 -4.76481 2.4042 0
M  V30 1748 O 149.45 -5.52341 1.42391 0
M  V30 1749 O 148.384 -5.03367 3.30007 0
M  V30 1750 H 152.21 -1.8488 2.40942 0
M  V30 1751 H 149.795 -0.85647 1.22413 0
M  V30 1752 H 151.677 -4.01913 1.26665 0
M  V30 1753 H 150.352 -3.21438 0.382049 0
M  V30 1754 H 149.259 -2.65873 2.63177 0
M  V30 1755 H 150.592 -3.5119 3.44858 0
M  V30 1756 N 152.244 -1.26651 -0.937939 0
M  V30 1757 C 153.154 -1.10276 -2.07066 0
M  V30 1758 C 154.17 -0.0354197 -1.73964 0
M  V30 1759 O 155.346 -0.239816 -1.99967 0
M  V30 1760 C 152.411 -0.740887 -3.38691 0
M  V30 1761 C 151.472 -1.88799 -3.85556 0
M  V30 1762 C 150.705 -1.54329 -5.10899 0
M  V30 1763 O 150.928 -0.446494 -5.6865 0
M  V30 1764 O 149.862 -2.37911 -5.52885 0
M  V30 1765 H 153.688 -2.05309 -2.23789 0
M  V30 1766 H 151.273 -1.05743 -1.0554 0
M  V30 1767 H 153.155 -0.55195 -4.1777 0
M  V30 1768 H 151.83 0.180022 -3.23199 0
M  V30 1769 H 150.737 -2.13191 -3.07409 0
M  V30 1770 H 152.07 -2.78874 -4.05574 0
M  V30 1771 N 153.722 1.14298 -1.08507 0
M  V30 1772 C 154.969 1.85359 -0.815373 0
M  V30 1773 C 155.297 1.83001 0.658865 0
M  V30 1774 O 154.552 1.25655 1.50031 0
M  V30 1775 C 154.851 3.33547 -1.28379 0
M  V30 1776 C 154.517 3.56093 -2.76602 0
M  V30 1777 C 153.179 3.61955 -3.17084 0
M  V30 1778 C 155.531 3.64834 -3.72217 0
M  V30 1779 C 152.859 3.74082 -4.51973 0
M  V30 1780 C 155.211 3.78487 -5.06883 0
M  V30 1781 C 153.875 3.82598 -5.46969 0
M  V30 1782 H 153.145 0.678276 -0.298366 0
M  V30 1783 H 155.792 1.35002 -1.35819 0
M  V30 1784 H 154.097 3.86191 -0.660593 0
M  V30 1785 H 155.794 3.86959 -1.05186 0
M  V30 1786 H 152.384 3.52179 -2.4427 0
M  V30 1787 H 156.568 3.59595 -3.42061 0
M  V30 1788 H 151.824 3.75527 -4.82483 0
M  V30 1789 H 155.998 3.84193 -5.80834 0
M  V30 1790 H 153.625 3.91747 -6.51489 0
M  V30 1791 N 155.201 0.870884 1.31352 0
M  V30 1792 C 156.149 0.316445 2.30437 0
M  V30 1793 C 157.143 -0.568965 1.59559 0
M  V30 1794 O 158.349 -0.454964 1.74155 0
M  V30 1795 H 154.724 0.0836521 0.747333 0
M  V30 1796 H 156.695 1.16606 2.74673 0
M  V30 1797 C 155.444 -0.46635 3.44558 0
M  V30 1798 H 154.767 0.205687 3.99271 0
M  V30 1799 H 156.207 -0.819614 4.16003 0
M  V30 1800 C 154.666 -1.65797 2.9328 0
M  V30 1801 O 155.196 -2.75728 2.92125 0
M  V30 1802 N 153.402 -1.49041 2.4947 0
M  V30 1803 H 152.949 -0.59612 2.50608 0
M  V30 1804 H 152.907 -2.28911 2.15516 0
M  V30 1805 N 156.679 -1.44442 0.630414 0
M  V30 1806 C 157.627 -2.32437 -0.0871428 0
M  V30 1807 C 158.621 -1.47304 -0.836525 0
M  V30 1808 O 159.827 -1.63653 -0.749506 0
M  V30 1809 H 156.202 -0.750533 -0.0469495 0
M  V30 1810 H 158.173 -2.90709 0.673096 0
M  V30 1811 C 156.922 -3.31288 -1.05563 0
M  V30 1812 H 156.245 -3.96805 -0.488426 0
M  V30 1813 H 157.685 -3.9554 -1.52721 0
M  V30 1814 C 156.144 -2.6016 -2.14052 0
M  V30 1815 O 156.674 -2.39997 -3.22124 0
M  V30 1816 N 154.88 -2.19911 -1.89967 0
M  V30 1817 H 154.427 -2.36509 -1.02085 0
M  V30 1818 H 154.385 -1.72646 -2.62756 0
M  V30 1819 N 158.157 -0.370918 -1.53173 0
M  V30 1820 C 159.382 0.220293 -2.06227 0
M  V30 1821 C 159.807 1.41243 -1.24225 0
M  V30 1822 O 159.165 1.79387 -0.262645 0
M  V30 1823 C 159.213 0.586663 -3.55796 0
M  V30 1824 O 158.317 1.68317 -3.76488 0
M  V30 1825 H 157.658 0.0308099 -0.663285 0
M  V30 1826 H 160.188 -0.533068 -1.97534 0
M  V30 1827 H 160.198 0.85617 -3.98916 0
M  V30 1828 H 158.873 -0.285013 -4.14922 0
M  V30 1829 H 157.45 1.40881 -3.45264 0
M  V30 1830 N 159.635 1.57281 -0.100228 0
M  V30 1831 C 160.582 2.14305 0.856858 0
M  V30 1832 C 161.552 1.06296 1.27634 0
M  V30 1833 O 162.737 1.34109 1.35718 0
M  V30 1834 C 159.877 2.73184 2.10866 0
M  V30 1835 C 158.99 3.95442 1.73925 0
M  V30 1836 C 158.125 4.42468 2.93931 0
M  V30 1837 C 157.164 5.57303 2.5314 0
M  V30 1838 N 156.301 5.99158 3.65997 0
M  V30 1839 H 161.141 2.95772 0.363726 0
M  V30 1840 H 158.678 1.46139 0.167858 0
M  V30 1841 H 160.636 3.05442 2.84185 0
M  V30 1842 H 159.266 1.94437 2.57671 0
M  V30 1843 H 158.318 3.69464 0.905554 0
M  V30 1844 H 159.63 4.78769 1.39935 0
M  V30 1845 H 158.784 4.76537 3.75496 0
M  V30 1846 H 157.523 3.58052 3.31134 0
M  V30 1847 H 156.528 5.22857 1.70003 0
M  V30 1848 H 157.753 6.43471 2.17075 0
M  V30 1849 H 155.699 5.17687 4.02909 0
M  V30 1850 H 155.616 6.77295 3.35869 0
M  V30 1851 H 156.884 6.3786 4.48057 0
M  V30 1852 N 161.113 -0.173488 1.56642 0
M  V30 1853 C 162.043 -1.2171 1.99271 0
M  V30 1854 C 163.024 -1.46289 0.867959 0
M  V30 1855 O 164.209 -1.5766 1.13388 0
M  V30 1856 C 161.339 -2.55651 2.35074 0
M  V30 1857 C 160.293 -2.45645 3.50489 0
M  V30 1858 C 159.619 -3.84056 3.72028 0
M  V30 1859 C 160.919 -1.96302 4.84007 0
M  V30 1860 H 162.613 -0.86275 2.867 0
M  V30 1861 H 160.159 -0.413571 1.37933 0
M  V30 1862 H 162.112 -3.2886 2.63494 0
M  V30 1863 H 160.836 -2.92869 1.44552 0
M  V30 1864 H 159.495 -1.7489 3.22194 0
M  V30 1865 H 159.143 -4.18664 2.788 0
M  V30 1866 H 158.843 -3.7823 4.49684 0
M  V30 1867 H 160.367 -4.58854 4.02846 0
M  V30 1868 H 161.781 -2.59284 5.11317 0
M  V30 1869 H 160.178 -2.01429 5.65284 0
M  V30 1870 H 161.248 -0.917226 4.76146 0
M  V30 1871 N 162.591 -1.51276 -0.441967 0
M  V30 1872 C 163.839 -1.63392 -1.18943 0
M  V30 1873 C 164.16 -0.350159 -1.9183 0
M  V30 1874 O 163.43 0.633784 -1.85364 0
M  V30 1875 H 162.01 -0.602164 -0.442049 0
M  V30 1876 H 164.672 -1.88186 -0.507165 0
M  V30 1877 H 163.768 -2.45934 -1.92154 0
M  V30 1878 N 164.069 0.697108 -1.41344 0
M  V30 1879 C 165.016 1.81106 -1.43071 0
M  V30 1880 C 165.986 1.63632 -0.285275 0
M  V30 1881 O 167.171 1.84504 -0.486091 0
M  V30 1882 C 164.311 3.18975 -1.31715 0
M  V30 1883 C 163.424 3.47892 -2.56115 0
M  V30 1884 C 162.559 4.75367 -2.37064 0
M  V30 1885 C 161.598 4.97247 -3.56948 0
M  V30 1886 N 160.735 6.15947 -3.36977 0
M  V30 1887 H 165.575 1.78965 -2.38276 0
M  V30 1888 H 163.112 0.873975 -1.18322 0
M  V30 1889 H 165.07 3.98615 -1.23133 0
M  V30 1890 H 163.7 3.20297 -0.401183 0
M  V30 1891 H 162.752 2.62669 -2.75153 0
M  V30 1892 H 164.064 3.59962 -3.45295 0
M  V30 1893 H 163.218 5.63059 -2.25941 0
M  V30 1894 H 161.957 4.65541 -1.45338 0
M  V30 1895 H 160.962 4.08004 -3.68527 0
M  V30 1896 H 162.187 5.08934 -4.49626 0
M  V30 1897 H 160.133 6.07336 -2.47949 0
M  V30 1898 H 160.05 6.28777 -4.19732 0
M  V30 1899 H 161.318 7.06377 -3.29623 0
M  V30 1900 N 165.547 1.27147 0.931209 0
M  V30 1901 C 166.494 1.09568 2.03134 0
M  V30 1902 C 167.464 -0.00222433 1.661 0
M  V30 1903 O 168.649 0.159439 1.90133 0
M  V30 1904 C 165.789 0.745231 3.36957 0
M  V30 1905 C 164.902 1.92041 3.86968 0
M  V30 1906 C 164.037 1.51216 5.09222 0
M  V30 1907 C 163.076 2.65504 5.5152 0
M  V30 1908 N 162.213 2.25291 6.64972 0
M  V30 1909 H 167.053 2.03708 2.17502 0
M  V30 1910 H 164.59 1.01411 1.06556 0
M  V30 1911 H 166.548 0.522878 4.1391 0
M  V30 1912 H 165.178 -0.159202 3.22407 0
M  V30 1913 H 164.23 2.25541 3.06326 0
M  V30 1914 H 165.542 2.77787 4.1429 0
M  V30 1915 H 164.696 1.25084 5.93666 0
M  V30 1916 H 163.435 0.625749 4.83669 0
M  V30 1917 H 162.44 2.92354 4.65628 0
M  V30 1918 H 163.665 3.54761 5.7907 0
M  V30 1919 H 161.611 1.39098 6.41083 0
M  V30 1920 H 161.528 3.04577 6.91931 0
M  V30 1921 H 162.796 2.02398 7.52765 0
M  V30 1922 N 167.025 -1.13721 1.09112 0
M  V30 1923 C 167.958 -2.18094 0.67158 0
M  V30 1924 C 168.936 -1.59414 -0.320299 0
M  V30 1925 O 170.12 -1.87183 -0.222444 0
M  V30 1926 C 167.247 -3.38698 -0.0111189 0
M  V30 1927 C 166.293 -4.15966 0.942055 0
M  V30 1928 S 167.126 -4.7604 2.45246 0
M  V30 1929 C 168.282 -5.99994 1.78208 0
M  V30 1930 H 168.515 -2.53344 1.55577 0
M  V30 1931 H 166.048 -1.24967 0.906789 0
M  V30 1932 H 168.006 -4.08559 -0.398716 0
M  V30 1933 H 166.667 -3.01756 -0.871905 0
M  V30 1934 H 165.86 -5.02318 0.411396 0
M  V30 1935 H 165.462 -3.51745 1.2709 0
M  V30 1936 H 167.754 -6.68441 1.10424 0
M  V30 1937 H 168.697 -6.57662 2.62463 0
M  V30 1938 H 169.105 -5.50432 1.25238 0
M  V30 1939 N 168.503 -0.877838 -1.30888 0
M  V30 1940 C 169.752 -0.488793 -1.95688 0
M  V30 1941 C 170.065 0.965485 -1.70111 0
M  V30 1942 O 171.271 1.46104 -2.28836 0
M  V30 1943 C 169.727 -0.823201 -3.50359 0
M  V30 1944 C 169.335 -2.29477 -3.84765 0
M  V30 1945 C 171.079 -0.503009 -4.21509 0
M  V30 1946 C 168.986 -2.57118 -5.32583 0
M  V30 1947 H 167.916 -0.179062 -0.732429 0
M  V30 1948 H 170.567 -1.07183 -1.48943 0
M  V30 1949 H 168.949 -0.169331 -3.95638 0
M  V30 1950 H 170.123 -2.99236 -3.5042 0
M  V30 1951 H 168.438 -2.58178 -3.267 0
M  V30 1952 H 171.035 -0.68665 -5.30273 0
M  V30 1953 H 171.378 0.557109 -4.12555 0
M  V30 1954 H 171.911 -1.11376 -3.8189 0
M  V30 1955 H 168.65 -3.61843 -5.4658 0
M  V30 1956 H 168.17 -1.91961 -5.68253 0
M  V30 1957 H 169.849 -2.42251 -5.99936 0
M  V30 1958 N 169.982 1.44106 -0.638065 0
M  V30 1959 C 171.231 2.01194 -0.142744 0
M  V30 1960 C 171.544 1.50835 1.24532 0
M  V30 1961 O 172.75 2.00096 1.83504 0
M  V30 1962 C 171.206 3.59319 -0.20442 0
M  V30 1963 C 170.814 4.18674 -1.59423 0
M  V30 1964 C 172.558 4.23854 0.234079 0
M  V30 1965 C 170.465 5.69045 -1.61065 0
M  V30 1966 H 169.395 0.752367 -0.0495998 0
M  V30 1967 H 172.046 1.65246 -0.797881 0
M  V30 1968 H 170.428 3.92598 0.517946 0
M  V30 1969 H 171.602 3.96921 -2.34074 0
M  V30 1970 H 169.917 3.66453 -1.97741 0
M  V30 1971 H 172.514 5.34155 0.241443 0
M  V30 1972 H 172.857 3.96688 1.2627 0
M  V30 1973 H 173.39 3.95403 -0.436025 0
M  V30 1974 H 170.129 6.00956 -2.61787 0
M  V30 1975 H 169.649 5.929 -0.90718 0
M  V30 1976 H 171.328 6.32809 -1.34766 0
M  V30 1977 N 171.46 0.379036 1.52974 0
M  V30 1978 C 172.407 -0.461048 2.26148 0
M  V30 1979 C 173.377 -1.06637 1.27349 0
M  V30 1980 O 174.562 -1.09633 1.56157 0
M  V30 1981 C 171.702 -1.58782 3.06402 0
M  V30 1982 C 170.815 -1.00636 4.20115 0
M  V30 1983 C 169.95 -2.10334 4.87784 0
M  V30 1984 C 168.989 -1.49724 5.93506 0
M  V30 1985 N 168.126 -2.5331 6.54812 0
M  V30 1986 H 172.966 0.169429 2.97518 0
M  V30 1987 H 170.503 0.0953806 1.4679 0
M  V30 1988 H 172.461 -2.25174 3.51215 0
M  V30 1989 H 171.091 -2.18876 2.37261 0
M  V30 1990 H 170.143 -0.232332 3.7969 0
M  V30 1991 H 171.455 -0.523343 4.96047 0
M  V30 1992 H 170.609 -2.84519 5.35849 0
M  V30 1993 H 169.348 -2.61992 4.11353 0
M  V30 1994 H 168.353 -0.740598 5.44789 0
M  V30 1995 H 169.578 -0.988732 6.71864 0
M  V30 1996 H 167.524 -3.04156 5.81227 0
M  V30 1997 H 167.441 -2.09734 7.26325 0
M  V30 1998 H 168.709 -3.27155 7.07524 0
M  V30 1999 N 172.938 -1.57226 0.108567 0
M  V30 2000 C 173.885 -2.14756 -0.845481 0
M  V30 2001 C 174.855 -1.06971 -1.27068 0
M  V30 2002 O 176.04 -1.34827 -1.35005 0
M  V30 2003 C 173.18 -2.74298 -2.09415 0
M  V30 2004 C 172.293 -3.96358 -1.71826 0
M  V30 2005 C 171.428 -4.44021 -2.9158 0
M  V30 2006 C 170.467 -5.58637 -2.50181 0
M  V30 2007 N 169.604 -6.01091 -3.62814 0
M  V30 2008 H 174.444 -2.95961 -0.348035 0
M  V30 2009 H 171.981 -1.46226 -0.160106 0
M  V30 2010 H 173.939 -3.06945 -2.82561 0
M  V30 2011 H 172.569 -1.95801 -2.56636 0
M  V30 2012 H 171.621 -3.69939 -0.885947 0
M  V30 2013 H 172.933 -4.79504 -1.37394 0
M  V30 2014 H 172.087 -4.78522 -3.72963 0
M  V30 2015 H 170.826 -3.59803 -3.29231 0
M  V30 2016 H 169.831 -5.23751 -1.67228 0
M  V30 2017 H 171.056 -6.44613 -2.13659 0
M  V30 2018 H 169.002 -5.19817 -4.00158 0
M  V30 2019 H 168.919 -6.79066 -3.32273 0
M  V30 2020 H 170.187 -6.40227 -4.44668 0
M  V30 2021 N 174.416 0.165178 -1.56732 0
M  V30 2022 C 175.363 1.2044 -1.96883 0
M  V30 2023 C 176.333 1.43664 -0.833657 0
M  V30 2024 O 177.518 1.56302 -1.09427 0
M  V30 2025 C 174.658 2.53727 -2.33916 0
M  V30 2026 C 173.771 2.3783 -3.6064 0
M  V30 2027 C 172.906 3.64026 -3.86857 0
M  V30 2028 C 171.945 3.43088 -5.06909 0
M  V30 2029 N 171.082 4.61369 -5.29229 0
M  V30 2030 H 175.922 0.854996 -2.85471 0
M  V30 2031 H 173.459 0.41076 -1.41249 0
M  V30 2032 H 175.417 3.31419 -2.53411 0
M  V30 2033 H 174.047 2.8665 -1.48431 0
M  V30 2034 H 173.099 1.51282 -3.49024 0
M  V30 2035 H 174.411 2.18308 -4.4849 0
M  V30 2036 H 173.565 4.50152 -4.06753 0
M  V30 2037 H 172.304 3.86533 -2.97394 0
M  V30 2038 H 171.309 2.55349 -4.86906 0
M  V30 2039 H 172.534 3.21997 -5.97909 0
M  V30 2040 H 170.48 4.84084 -4.42718 0
M  V30 2041 H 170.397 4.44783 -6.11313 0
M  V30 2042 H 171.665 5.48761 -5.53608 0
M  V30 2043 N 175.894 1.51508 0.433938 0
M  V30 2044 C 177.31 1.39759 0.770682 0
M  V30 2045 C 177.51 0.482594 1.95636 0
M  V30 2046 O 176.566 -0.0609691 2.52426 0
M  V30 2047 C 177.879 2.81851 1.04787 0
M  V30 2048 C 179.427 2.91025 1.1521 0
M  V30 2049 C 179.902 4.34032 1.46219 0
M  V30 2050 N 181.393 4.37154 1.53136 0
M  V30 2051 C 182.128 5.4484 1.78709 0
M  V30 2052 N 181.624 6.62682 2.02051 0
M  V30 2053 N 183.417 5.32324 1.80519 0
M  V30 2054 H 175.568 2.09548 -0.346892 0
M  V30 2055 H 177.831 0.943446 -0.0928074 0
M  V30 2056 H 177.537 3.50815 0.249304 0
M  V30 2057 H 177.411 3.21386 1.97461 0
M  V30 2058 H 179.798 2.22257 1.94128 0
M  V30 2059 H 179.879 2.54983 0.204281 0
M  V30 2060 H 179.523 5.03351 0.678274 0
M  V30 2061 H 179.453 4.6759 2.42212 0
M  V30 2062 H 181.944 3.52197 1.36987 0
M  V30 2063 H 182.257 7.40543 2.20943 0
M  V30 2064 H 180.602 6.65791 1.99366 0
M  V30 2065 H 183.793 4.39246 1.61805 0
M  V30 2066 H 183.966 6.16328 2.00111 0
M  V30 2067 N 177.372 -0.689602 1.41712 0
M  V30 2068 C 178.649 -1.44457 1.31877 0
M  V30 2069 C 179.029 -2.11039 -0.0508537 0
M  V30 2070 O 178.377 -2.02138 -1.06547 0
M  V30 2071 C 178.587 -2.45913 2.47645 0
M  V30 2072 C 179.935 -3.10991 2.89084 0
M  V30 2073 O 180.959 -2.56238 2.47428 0
M  V30 2074 O 179.818 -4.10174 3.61137 0
M  V30 2075 H 176.912 -0.64362 0.519309 0
M  V30 2076 H 179.458 -0.719576 1.53689 0
M  V30 2077 H 178.23 -1.95409 3.39015 0
M  V30 2078 H 177.853 -3.25913 2.27742 0
M  V30 2079 N 178.85 -1.27639 -0.924453 0
M  V30 2080 C 179.76 -1.12466 -2.05885 0
M  V30 2081 C 180.776 -0.053869 -1.73917 0
M  V30 2082 O 181.952 -0.261012 -1.99702 0
M  V30 2083 C 179.017 -0.776768 -3.37886 0
M  V30 2084 C 178.078 -1.92878 -3.83532 0
M  V30 2085 C 177.311 -1.59739 -5.09234 0
M  V30 2086 O 177.534 -0.506782 -5.68144 0
M  V30 2087 O 176.468 -2.43761 -5.50331 0
M  V30 2088 H 180.294 -2.07671 -2.21599 0
M  V30 2089 H 177.879 -1.06857 -1.04413 0
M  V30 2090 H 179.761 -0.596229 -4.17161 0
M  V30 2091 H 178.436 0.145732 -3.23372 0
M  V30 2092 H 177.343 -2.1644 -3.0513 0
M  V30 2093 H 178.676 -2.8316 -4.02593 0
M  V30 2094 N 180.328 1.1314 -1.09713 0
M  V30 2095 C 181.291 2.16831 -0.742751 0
M  V30 2096 C 182.291 1.59159 0.229129 0
M  V30 2097 O 183.481 1.74199 0.00693237 0
M  V30 2098 C 180.613 3.40756 -0.0989168 0
M  V30 2099 H 181.806 2.49695 -1.66109 0
M  V30 2100 H 179.359 1.2802 -0.896699 0
M  V30 2101 H 180.094 3.13485 0.830514 0
M  V30 2102 H 179.879 3.83888 -0.798265 0
M  V30 2103 H 181.369 4.17386 0.133524 0
M  V30 2104 N 181.806 0.884767 1.30421 0
M  V30 2105 C 183.034 0.518044 2.0031 0
M  V30 2106 C 183.449 -0.893408 1.66324 0
M  V30 2107 O 182.806 -1.5875 0.900262 0
M  V30 2108 C 182.857 0.682997 3.54989 0
M  V30 2109 O 182.578 2.03888 3.87764 0
M  V30 2110 C 184.079 0.31924 4.42149 0
M  V30 2111 H 181.299 0.200265 0.640418 0
M  V30 2112 H 183.843 1.19001 1.6631 0
M  V30 2113 H 181.998 0.0584052 3.87356 0
M  V30 2114 H 182.412 2.05735 4.82466 0
M  V30 2115 H 183.886 0.485555 5.4986 0
M  V30 2116 H 184.363 -0.742717 4.32875 0
M  V30 2117 H 184.969 0.920147 4.15227 0
M  V30 2118 N 183.284 -1.43765 0.645699 0
M  V30 2119 C 184.561 -1.9541 0.0862963 0
M  V30 2120 C 184.941 -1.58725 -1.39175 0
M  V30 2121 O 184.289 -0.868581 -2.11348 0
M  V30 2122 C 184.499 -3.47488 0.324565 0
M  V30 2123 C 185.847 -4.24001 0.225497 0
M  V30 2124 O 186.871 -3.55274 0.256715 0
M  V30 2125 O 185.73 -5.46313 0.142801 0
M  V30 2126 H 182.824 -0.826882 -0.0139483 0
M  V30 2127 H 185.37 -1.53743 0.718415 0
M  V30 2128 H 184.142 -3.67289 1.3496 0
M  V30 2129 H 183.765 -3.96135 -0.340987 0
M  V30 2130 N 184.763 -0.387143 -1.52771 0
M  V30 2131 C 186.01 0.195735 -2.01552 0
M  V30 2132 C 186.338 1.46995 -1.27369 0
M  V30 2133 O 185.593 1.92325 -0.361879 0
M  V30 2134 C 185.892 0.512209 -3.53711 0
M  V30 2135 C 185.558 -0.670202 -4.45891 0
M  V30 2136 C 184.22 -0.994586 -4.70809 0
M  V30 2137 C 186.572 -1.46134 -5.00294 0
M  V30 2138 C 183.9 -2.11169 -5.4738 0
M  V30 2139 C 186.252 -2.56903 -5.78086 0
M  V30 2140 C 184.916 -2.89852 -6.01284 0
M  V30 2141 H 184.186 0.0716246 -0.73753 0
M  V30 2142 H 186.833 -0.524046 -1.8419 0
M  V30 2143 H 185.138 1.31329 -3.69134 0
M  V30 2144 H 186.835 0.975804 -3.88946 0
M  V30 2145 H 183.425 -0.407366 -4.2666 0
M  V30 2146 H 187.609 -1.22397 -4.80971 0
M  V30 2147 H 182.865 -2.3707 -5.63567 0
M  V30 2148 H 187.039 -3.18608 -6.19243 0
M  V30 2149 H 184.666 -3.76533 -6.60399 0
M  V30 2150 N 186.241 1.57166 -0.116904 0
M  V30 2151 C 187.151 2.18745 0.847812 0
M  V30 2152 C 188.167 1.163 1.29423 0
M  V30 2153 O 189.343 1.48761 1.35765 0
M  V30 2154 C 186.408 2.77307 2.0809 0
M  V30 2155 C 185.469 3.94781 1.68661 0
M  V30 2156 C 184.702 4.50541 2.86091 0
M  V30 2157 O 184.925 4.05202 4.01456 0
M  V30 2158 O 183.859 5.41256 2.63298 0
M  V30 2159 H 187.685 3.01632 0.353778 0
M  V30 2160 H 185.27 1.49005 0.108599 0
M  V30 2161 H 187.152 3.14647 2.80313 0
M  V30 2162 H 185.827 1.97452 2.56504 0
M  V30 2163 H 184.734 3.62214 0.935518 0
M  V30 2164 H 186.067 4.76065 1.24991 0
M  V30 2165 N 187.719 -0.156864 1.56817 0
M  V30 2166 C 189.135 -0.50916 1.5126 0
M  V30 2167 C 189.335 -1.83897 0.823658 0
M  V30 2168 O 188.391 -2.49469 0.390055 0
M  V30 2169 C 189.704 -0.52857 2.96018 0
M  V30 2170 C 191.252 -0.614771 3.06903 0
M  V30 2171 C 191.727 -0.664938 4.53147 0
M  V30 2172 N 193.218 -0.727433 4.57452 0
M  V30 2173 C 193.953 -0.787067 5.67973 0
M  V30 2174 N 193.449 -0.806649 6.88088 0
M  V30 2175 N 195.242 -0.827195 5.5598 0
M  V30 2176 H 187.393 0.714935 2.00006 0
M  V30 2177 H 189.656 0.259526 0.911784 0
M  V30 2178 H 189.362 0.380154 3.49639 0
M  V30 2179 H 189.236 -1.36998 3.51442 0
M  V30 2180 H 191.623 -1.51392 2.53307 0
M  V30 2181 H 191.704 0.253597 2.5454 0
M  V30 2182 H 191.348 0.230011 5.07379 0
M  V30 2183 H 191.278 -1.54966 5.03282 0
M  V30 2184 H 193.769 -0.719998 3.70978 0
M  V30 2185 H 194.082 -0.853727 7.6807 0
M  V30 2186 H 192.427 -0.774687 6.90669 0
M  V30 2187 H 195.618 -0.808998 4.61056 0
M  V30 2188 H 195.791 -0.870206 6.4213 0
M  V30 2189 N 189.197 -1.51736 -0.425897 0
M  V30 2190 C 190.444 -1.6497 -1.17436 0
M  V30 2191 C 190.772 -0.371445 -1.9092 0
M  V30 2192 O 190.027 0.644963 -1.84767 0
M  V30 2193 C 190.326 -2.81103 -2.20717 0
M  V30 2194 C 189.992 -4.19954 -1.64162 0
M  V30 2195 C 188.654 -4.57725 -1.48462 0
M  V30 2196 C 191.006 -5.06552 -1.22696 0
M  V30 2197 C 188.334 -5.79789 -0.897873 0
M  V30 2198 C 190.686 -6.29205 -0.654464 0
M  V30 2199 C 189.35 -6.6574 -0.484456 0
M  V30 2200 H 188.62 -0.603668 -0.429727 0
M  V30 2201 H 191.267 -1.85798 -0.463829 0
M  V30 2202 H 189.572 -2.54542 -2.97852 0
M  V30 2203 H 191.269 -2.8854 -2.78471 0
M  V30 2204 H 187.859 -3.90181 -1.77361 0
M  V30 2205 H 192.043 -4.77968 -1.33642 0
M  V30 2206 H 187.299 -6.06733 -0.75402 0
M  V30 2207 H 191.473 -6.95643 -0.324694 0
M  V30 2208 H 189.1 -7.60195 -0.0276833 0
M  V30 2209 N 190.675 0.682077 -1.42076 0
M  V30 2210 C 191.607 1.80755 -1.40926 0
M  V30 2211 C 192.62 1.59833 -0.309398 0
M  V30 2212 O 193.809 1.69087 -0.572014 0
M  V30 2213 C 190.909 3.17744 -1.17865 0
M  V30 2214 C 190.082 3.65578 -2.40149 0
M  V30 2215 C 189.141 4.81277 -2.12742 0
M  V30 2216 O 188.167 4.92197 -2.85887 0
M  V30 2217 N 189.369 5.69474 -1.12602 0
M  V30 2218 H 192.134 1.82229 -2.37935 0
M  V30 2219 H 189.695 0.864903 -1.36861 0
M  V30 2220 H 191.687 3.9279 -0.9746 0
M  V30 2221 H 190.257 3.11214 -0.294068 0
M  V30 2222 H 189.477 2.81291 -2.76169 0
M  V30 2223 H 190.765 3.94278 -3.21593 0
M  V30 2224 H 190.163 5.63297 -0.520899 0
M  V30 2225 H 188.72 6.44363 -0.981842 0
M  V30 2226 N 192.153 1.28127 0.917671 0
M  V30 2227 C 193.399 1.15223 1.66888 0
M  V30 2228 C 193.732 -0.299293 1.9188 0
M  V30 2229 O 193.007 -1.21805 1.51637 0
M  V30 2230 C 193.29 1.94706 3.02922 0
M  V30 2231 C 193.143 3.47898 2.85109 0
M  V30 2232 C 194.462 1.75939 4.03402 0
M  V30 2233 H 191.581 0.419946 0.605652 0
M  V30 2234 H 194.223 1.57398 1.06423 0
M  V30 2235 H 192.373 1.58864 3.54534 0
M  V30 2236 H 194.045 3.93624 2.40537 0
M  V30 2237 H 192.288 3.7373 2.20246 0
M  V30 2238 H 192.959 3.98765 3.81694 0
M  V30 2239 H 195.435 2.07209 3.60837 0
M  V30 2240 H 194.311 2.33931 4.96556 0
M  V30 2241 H 194.572 0.709877 4.36364 0
M  V30 2242 N 193.631 -1.12557 1.10312 0
M  V30 2243 C 194.861 -1.87592 0.865617 0
M  V30 2244 C 195.269 -1.79851 -0.587389 0
M  V30 2245 O 194.612 -1.16949 -1.41664 0
M  V30 2246 C 194.674 -3.37665 1.23381 0
M  V30 2247 C 194.338 -3.69181 2.69359 0
M  V30 2248 C 195.335 -3.67652 3.67597 0
M  V30 2249 C 193.02 -3.98555 3.05711 0
M  V30 2250 C 195.014 -3.95053 5.00212 0
M  V30 2251 C 192.701 -4.25616 4.38514 0
M  V30 2252 C 193.699 -4.23851 5.35574 0
M  V30 2253 O 193.387 -4.50242 6.65986 0
M  V30 2254 H 193.119 -0.600442 0.310557 0
M  V30 2255 H 195.673 -1.4335 1.47105 0
M  V30 2256 H 193.903 -3.82454 0.571467 0
M  V30 2257 H 195.592 -3.94041 0.973994 0
M  V30 2258 H 196.358 -3.45024 3.40857 0
M  V30 2259 H 192.237 -3.99071 2.30789 0
M  V30 2260 H 195.781 -3.93591 5.75962 0
M  V30 2261 H 191.678 -4.47718 4.64994 0
M  V30 2262 H 192.446 -4.67867 6.71597 0
M  V30 2263 N 195.109 -0.891671 -1.2995 0
M  V30 2264 C 196.356 -0.513501 -1.95881 0
M  V30 2265 C 196.684 0.938655 -1.70351 0
M  V30 2266 O 195.939 1.67936 -1.00478 0
M  V30 2267 C 196.238 -0.742868 -3.49594 0
M  V30 2268 C 195.904 -2.17114 -3.95186 0
M  V30 2269 C 194.566 -2.56169 -4.07346 0
M  V30 2270 C 196.918 -3.10162 -4.18866 0
M  V30 2271 C 194.246 -3.87469 -4.4055 0
M  V30 2272 C 196.598 -4.41001 -4.53542 0
M  V30 2273 C 195.262 -4.79941 -4.63911 0
M  V30 2274 H 194.532 -0.187903 -0.71678 0
M  V30 2275 H 197.179 -1.1288 -1.54694 0
M  V30 2276 H 195.484 -0.044586 -3.91775 0
M  V30 2277 H 197.181 -0.429767 -3.9869 0
M  V30 2278 H 193.771 -1.85801 -3.86233 0
M  V30 2279 H 197.955 -2.81206 -4.08946 0
M  V30 2280 H 193.211 -4.17371 -4.46779 0
M  V30 2281 H 197.385 -5.13133 -4.70815 0
M  V30 2282 H 195.012 -5.81719 -4.89395 0
M  V30 2283 N 196.587 1.43421 -0.653314 0
M  V30 2284 C 197.55 2.29182 0.0287951 0
M  V30 2285 C 198.55 1.42213 0.750465 0
M  V30 2286 O 199.74 1.63843 0.591701 0
M  V30 2287 C 196.872 3.24278 1.05151 0
M  V30 2288 H 198.065 2.90985 -0.725786 0
M  V30 2289 H 195.618 1.50702 -0.414545 0
M  V30 2290 H 196.353 2.6737 1.83532 0
M  V30 2291 H 196.138 3.88396 0.537687 0
M  V30 2292 H 197.628 3.88647 1.52786 0
M  V30 2293 N 198.065 0.39524 1.52563 0
M  V30 2294 C 199.012 -0.437036 2.26624 0
M  V30 2295 C 199.982 -1.05281 1.28472 0
M  V30 2296 O 201.167 -1.07971 1.57311 0
M  V30 2297 C 198.307 -1.55524 3.08069 0
M  V30 2298 C 197.42 -0.961745 4.21158 0
M  V30 2299 C 196.555 -2.05149 4.89987 0
M  V30 2300 C 195.594 -1.4342 5.95061 0
M  V30 2301 N 194.731 -2.46351 6.57462 0
M  V30 2302 H 199.571 0.200976 2.97322 0
M  V30 2303 H 197.108 0.110944 1.46681 0
M  V30 2304 H 199.066 -2.21437 3.53584 0
M  V30 2305 H 197.696 -2.16348 2.3957 0
M  V30 2306 H 196.748 -0.192048 3.79915 0
M  V30 2307 H 198.06 -0.470701 4.96574 0
M  V30 2308 H 197.214 -2.78819 5.38837 0
M  V30 2309 H 195.953 -2.57615 4.14109 0
M  V30 2310 H 194.958 -0.682774 5.45544 0
M  V30 2311 H 196.183 -0.917416 6.72875 0
M  V30 2312 H 194.129 -2.97975 5.8442 0
M  V30 2313 H 194.046 -2.02019 7.28508 0
M  V30 2314 H 195.314 -3.19633 7.10954 0
M  V30 2315 N 199.544 -1.57102 0.125237 0
M  V30 2316 C 200.96 -1.57915 -0.231322 0
M  V30 2317 C 201.16 -1.13833 -1.66266 0
M  V30 2318 O 200.216 -0.828581 -2.38518 0
M  V30 2319 C 201.529 -3.00699 0.00766489 0
M  V30 2320 C 203.077 -3.12947 -0.0577483 0
M  V30 2321 C 203.552 -4.57742 0.153626 0
M  V30 2322 N 205.043 -4.63092 0.0998073 0
M  V30 2323 C 205.778 -5.72905 0.238174 0
M  V30 2324 N 205.274 -6.91445 0.433057 0
M  V30 2325 N 207.067 -5.6182 0.177308 0
M  V30 2326 H 199.218 -1.84055 1.06007 0
M  V30 2327 H 201.481 -0.850905 0.417929 0
M  V30 2328 H 201.187 -3.3726 0.997431 0
M  V30 2329 H 201.061 -3.70236 -0.721452 0
M  V30 2330 H 203.448 -2.7624 -1.03804 0
M  V30 2331 H 203.529 -2.4594 0.70335 0
M  V30 2332 H 203.173 -4.95149 1.13092 0
M  V30 2333 H 203.103 -5.22848 -0.627534 0
M  V30 2334 H 205.594 -3.77871 -0.047051 0
M  V30 2335 H 205.907 -7.70985 0.529332 0
M  V30 2336 H 204.252 -6.93415 0.469109 0
M  V30 2337 H 207.443 -4.68093 0.0259748 0
M  V30 2338 H 207.616 -6.47357 0.288582 0
M  V30 2339 N 201.022 0.148545 -1.56898 0
M  V30 2340 C 201.932 1.20293 -2.01412 0
M  V30 2341 C 202.948 1.47107 -0.929273 0
M  V30 2342 O 204.124 1.58807 -1.23863 0
M  V30 2343 C 201.189 2.51682 -2.38447 0
M  V30 2344 C 200.25 2.32529 -3.60872 0
M  V30 2345 C 199.483 3.57653 -3.96132 0
M  V30 2346 O 199.706 4.63771 -3.32073 0
M  V30 2347 O 198.64 3.50408 -4.89385 0
M  V30 2348 H 202.466 0.855025 -2.91416 0
M  V30 2349 H 200.051 0.357151 -1.45068 0
M  V30 2350 H 201.933 3.29147 -2.63135 0
M  V30 2351 H 200.608 2.86006 -1.51599 0
M  V30 2352 H 199.515 1.53019 -3.41373 0
M  V30 2353 H 200.848 2.03121 -4.48333 0
M  V30 2354 N 202.5 1.5196 0.417844 0
M  V30 2355 C 203.43 1.77634 1.51554 0
M  V30 2356 C 204.411 0.626918 1.58126 0
M  V30 2357 O 205.596 0.871632 1.7354 0
M  V30 2358 C 202.726 1.91911 2.8946 0
M  V30 2359 C 201.68 3.07463 2.97743 0
M  V30 2360 C 201.006 3.06951 4.37819 0
M  V30 2361 C 202.306 4.47082 2.70027 0
M  V30 2362 H 204 2.6955 1.3032 0
M  V30 2363 H 201.546 1.29706 0.625492 0
M  V30 2364 H 203.499 2.08455 3.6623 0
M  V30 2365 H 202.223 0.966598 3.11969 0
M  V30 2366 H 200.882 2.90656 2.23416 0
M  V30 2367 H 200.53 2.09438 4.57323 0
M  V30 2368 H 200.23 3.84556 4.44286 0
M  V30 2369 H 201.754 3.25613 5.16535 0
M  V30 2370 H 203.168 4.6414 3.36522 0
M  V30 2371 H 201.565 5.2654 2.87881 0
M  V30 2372 H 202.635 4.55777 1.65514 0
M  V30 2373 N 203.978 -0.674533 1.42435 0
M  V30 2374 C 204.925 -1.78807 1.45934 0
M  V30 2375 C 205.895 -1.63157 0.311271 0
M  V30 2376 O 207.08 -1.83707 0.515383 0
M  V30 2377 C 204.22 -3.16839 1.36773 0
M  V30 2378 C 203.333 -3.43774 2.61617 0
M  V30 2379 C 202.468 -4.71536 2.44597 0
M  V30 2380 C 201.507 -4.91505 3.64814 0
M  V30 2381 N 200.644 -6.10508 3.46734 0
M  V30 2382 H 205.484 -1.75151 2.41093 0
M  V30 2383 H 203.021 -0.85504 1.19697 0
M  V30 2384 H 204.979 -3.96606 1.29459 0
M  V30 2385 H 203.609 -3.19619 0.452089 0
M  V30 2386 H 202.661 -2.58259 2.79297 0
M  V30 2387 H 203.973 -3.54423 3.50978 0
M  V30 2388 H 203.127 -5.59393 2.3487 0
M  V30 2389 H 201.866 -4.6317 1.52726 0
M  V30 2390 H 200.871 -4.0209 3.74972 0
M  V30 2391 H 202.096 -5.01716 4.57665 0
M  V30 2392 H 200.042 -6.03315 2.5758 0
M  V30 2393 H 199.959 -6.2202 4.29682 0
M  V30 2394 H 201.227 -7.01044 3.40819 0
M  V30 2395 N 205.456 -1.28612 -0.910864 0
M  V30 2396 C 206.403 -1.12786 -2.01365 0
M  V30 2397 C 207.373 -0.024201 -1.66082 0
M  V30 2398 O 208.558 -0.189667 -1.89855 0
M  V30 2399 C 205.698 -0.798743 -3.35729 0
M  V30 2400 C 204.811 -1.98173 -3.83864 0
M  V30 2401 C 203.946 -1.59298 -5.06752 0
M  V30 2402 C 202.985 -2.74245 -5.47226 0
M  V30 2403 N 202.122 -2.35842 -6.61304 0
M  V30 2404 H 206.962 -2.07142 -2.14234 0
M  V30 2405 H 204.499 -1.03093 -1.0493 0
M  V30 2406 H 206.457 -0.588662 -4.13026 0
M  V30 2407 H 205.087 0.10789 -3.2262 0
M  V30 2408 H 204.139 -2.30386 -3.02699 0
M  V30 2409 H 205.451 -2.84343 -4.09818 0
M  V30 2410 H 204.605 -1.34513 -5.916 0
M  V30 2411 H 203.344 -0.702618 -4.82612 0
M  V30 2412 H 202.349 -2.99725 -4.60918 0
M  V30 2413 H 203.574 -3.63928 -5.73353 0
M  V30 2414 H 201.52 -1.49279 -6.38789 0
M  V30 2415 H 201.437 -3.15546 -6.86998 0
M  V30 2416 H 202.705 -2.14348 -7.4945 0
M  V30 2417 N 206.934 1.1197 -1.10907 0
M  V30 2418 C 207.881 2.17846 -0.762345 0
M  V30 2419 C 208.851 1.63995 0.263599 0
M  V30 2420 O 210.036 1.90273 0.141773 0
M  V30 2421 C 207.176 3.44487 -0.205651 0
M  V30 2422 C 206.289 4.12369 -1.28748 0
M  V30 2423 C 205.424 5.26674 -0.691919 0
M  V30 2424 C 204.463 5.86431 -1.75399 0
M  V30 2425 N 203.6 6.92142 -1.17833 0
M  V30 2426 H 208.44 2.46851 -1.6694 0
M  V30 2427 H 205.977 1.21188 -0.833776 0
M  V30 2428 H 207.935 4.16981 0.135037 0
M  V30 2429 H 206.565 3.15884 0.664613 0
M  V30 2430 H 205.617 3.38003 -1.74522 0
M  V30 2431 H 206.929 4.52844 -2.09125 0
M  V30 2432 H 206.083 6.05953 -0.300963 0
M  V30 2433 H 204.822 4.8749 0.143232 0
M  V30 2434 H 203.827 5.05835 -2.15432 0
M  V30 2435 H 205.052 6.27685 -2.59208 0
M  V30 2436 H 202.998 6.54985 -0.364725 0
M  V30 2437 H 202.915 7.31242 -1.91887 0
M  V30 2438 H 204.183 7.75237 -0.81408 0
M  V30 2439 N 208.412 0.89855 1.29475 0
M  V30 2440 C 209.345 0.319981 2.25945 0
M  V30 2441 C 210.323 -0.567189 1.52387 0
M  V30 2442 O 211.507 -0.514254 1.8135 0
M  V30 2443 C 208.634 -0.544013 3.34303 0
M  V30 2444 C 207.68 0.275682 4.25608 0
M  V30 2445 S 208.513 1.67272 5.08704 0
M  V30 2446 C 209.669 0.815621 6.20563 0
M  V30 2447 H 209.902 1.13767 2.74671 0
M  V30 2448 H 207.435 0.69882 1.3768 0
M  V30 2449 H 209.393 -1.03673 3.97193 0
M  V30 2450 H 208.054 -1.33593 2.84274 0
M  V30 2451 H 207.247 -0.384263 5.02533 0
M  V30 2452 H 206.849 0.701496 3.67362 0
M  V30 2453 H 209.141 0.0385042 6.77489 0
M  V30 2454 H 210.084 1.55691 6.90772 0
M  V30 2455 H 210.492 0.370516 5.63283 0
M  V30 2456 N 209.89 -1.43072 0.660911 0
M  V30 2457 C 211.118 -2.06067 0.185422 0
M  V30 2458 C 211.533 -1.49582 -1.15198 0
M  V30 2459 O 210.89 -0.630134 -1.71276 0
M  V30 2460 C 210.941 -3.61371 0.0966523 0
M  V30 2461 O 210.662 -4.15758 1.38119 0
M  V30 2462 C 212.163 -4.41455 -0.403996 0
M  V30 2463 H 209.383 -0.664459 0.0934604 0
M  V30 2464 H 211.927 -1.83447 0.90373 0
M  V30 2465 H 210.082 -3.8315 -0.572259 0
M  V30 2466 H 210.496 -5.09499 1.24542 0
M  V30 2467 H 211.97 -5.50437 -0.415045 0
M  V30 2468 H 212.447 -4.15036 -1.43674 0
M  V30 2469 H 213.053 -4.24663 0.232691 0
M  V30 2470 N 211.368 -0.403325 -1.52352 0
M  V30 2471 C 212.596 0.174012 -2.06167 0
M  V30 2472 C 213.011 1.39347 -1.27388 0
M  V30 2473 O 212.368 1.79597 -0.324201 0
M  V30 2474 C 212.419 0.530223 -3.5759 0
M  V30 2475 O 212.14 -0.640806 -4.33388 0
M  V30 2476 C 213.641 1.16192 -4.27802 0
M  V30 2477 H 210.861 0.0229464 -0.670608 0
M  V30 2478 H 213.405 -0.572604 -1.9632 0
M  V30 2479 H 211.56 1.22673 -3.67464 0
M  V30 2480 H 211.974 -0.344851 -5.23365 0
M  V30 2481 H 213.448 1.36141 -5.34948 0
M  V30 2482 H 213.925 2.13335 -3.83907 0
M  V30 2483 H 214.531 0.505775 -4.22282 0
M  V30 2484 N 212.846 1.57033 -0.133567 0
M  V30 2485 C 214.095 1.94861 0.520768 0
M  V30 2486 C 214.408 1.02012 1.66892 0
M  V30 2487 O 215.614 1.29365 2.38699 0
M  V30 2488 C 214.07 3.46362 0.977809 0
M  V30 2489 C 213.678 4.47773 -0.142674 0
M  V30 2490 C 215.422 3.93083 1.60269 0
M  V30 2491 C 213.329 5.90468 0.331883 0
M  V30 2492 H 212.259 0.727453 0.198315 0
M  V30 2493 H 214.91 1.82227 -0.215759 0
M  V30 2494 H 213.292 3.54282 1.7692 0
M  V30 2495 H 214.466 4.51536 -0.919317 0
M  V30 2496 H 212.781 4.10891 -0.675124 0
M  V30 2497 H 215.378 4.97121 1.96914 0
M  V30 2498 H 215.721 3.33876 2.48662 0
M  V30 2499 H 216.254 3.88025 0.876453 0
M  V30 2500 H 212.993 6.53463 -0.516341 0
M  V30 2501 H 212.513 5.90094 1.07469 0
M  V30 2502 H 214.192 6.42179 0.788332 0
M  V30 2503 N 214.325 -0.140222 1.56975 0
M  V30 2504 C 215.272 -1.17292 1.98774 0
M  V30 2505 C 216.242 -1.4232 0.856408 0
M  V30 2506 O 217.427 -1.54541 1.119 0
M  V30 2507 C 214.567 -2.49973 2.37923 0
M  V30 2508 C 213.68 -2.32062 3.64378 0
M  V30 2509 C 212.815 -3.57825 3.926 0
M  V30 2510 C 211.854 -3.3498 5.12303 0
M  V30 2511 N 210.991 -4.52891 5.36502 0
M  V30 2512 H 215.831 -0.809472 2.86795 0
M  V30 2513 H 213.368 -0.388237 1.41884 0
M  V30 2514 H 215.326 -3.27346 2.58652 0
M  V30 2515 H 213.956 -2.84252 1.52972 0
M  V30 2516 H 213.008 -1.45711 3.51387 0
M  V30 2517 H 214.32 -2.11145 4.51906 0
M  V30 2518 H 213.474 -4.43624 4.13863 0
M  V30 2519 H 212.213 -3.81753 3.03506 0
M  V30 2520 H 211.218 -2.4757 4.90906 0
M  V30 2521 H 212.443 -3.12444 6.02956 0
M  V30 2522 H 210.389 -4.76979 4.50363 0
M  V30 2523 H 210.306 -4.35001 6.18312 0
M  V30 2524 H 211.574 -5.39884 5.62268 0
M  V30 2525 N 215.803 -1.52179 -0.40978 0
M  V30 2526 C 216.751 -1.76086 -1.51975 0
M  V30 2527 C 217.745 -0.627964 -1.57331 0
M  V30 2528 O 218.951 -0.809993 -1.60745 0
M  V30 2529 H 215.326 -0.556829 -0.505416 0
M  V30 2530 H 217.297 -2.69077 -1.28996 0
M  V30 2531 C 216.046 -1.92799 -2.8935 0
M  V30 2532 H 215.369 -2.79392 -2.85972 0
M  V30 2533 H 216.809 -2.13527 -3.66309 0
M  V30 2534 C 215.268 -0.694923 -3.29655 0
M  V30 2535 O 215.798 0.13751 -4.01465 0
M  V30 2536 N 214.004 -0.53101 -2.85707 0
M  V30 2537 H 213.551 -1.20952 -2.27439 0
M  V30 2538 H 213.509 0.292718 -3.13034 0
M  V30 2539 N 217.281 0.66697 -1.42791 0
M  V30 2540 C 218.228 1.7803 -1.4688 0
M  V30 2541 C 219.198 1.6299 -0.319919 0
M  V30 2542 O 220.383 1.83432 -0.525118 0
M  V30 2543 C 217.523 3.1611 -1.38451 0
M  V30 2544 C 216.636 3.42381 -2.63437 0
M  V30 2545 C 215.771 4.70232 -2.47094 0
M  V30 2546 C 214.81 4.89564 -3.67415 0
M  V30 2547 N 213.947 6.08661 -3.49966 0
M  V30 2548 H 218.787 1.7387 -2.42019 0
M  V30 2549 H 216.324 0.84868 -1.20149 0
M  V30 2550 H 218.282 3.95914 -1.31561 0
M  V30 2551 H 216.912 3.19374 -0.469033 0
M  V30 2552 H 215.964 2.56774 -2.80662 0
M  V30 2553 H 217.276 3.52557 -3.52853 0
M  V30 2554 H 216.43 5.5814 -2.37834 0
M  V30 2555 H 215.169 4.62353 -1.5518 0
M  V30 2556 H 214.174 4.00096 -3.77099 0
M  V30 2557 H 215.399 4.99282 -4.6032 0
M  V30 2558 H 213.345 6.0194 -2.60776 0
M  V30 2559 H 213.262 6.19733 -4.32975 0
M  V30 2560 H 214.53 6.99226 -3.44532 0
M  V30 2561 N 218.759 1.29093 0.90403 0
M  V30 2562 C 219.706 1.13853 2.00764 0
M  V30 2563 C 220.676 0.0330084 1.66067 0
M  V30 2564 O 221.861 0.199733 1.89752 0
M  V30 2565 C 219.001 0.816537 3.35301 0
M  V30 2566 C 218.114 2.00206 3.82807 0
M  V30 2567 C 217.249 1.61983 5.059 0
M  V30 2568 C 216.288 2.77143 5.45764 0
M  V30 2569 N 215.425 2.39346 6.60044 0
M  V30 2570 H 220.265 2.08276 2.13132 0
M  V30 2571 H 217.802 1.03648 1.04381 0
M  V30 2572 H 219.76 0.610557 4.12708 0
M  V30 2573 H 218.39 -0.090779 3.22672 0
M  V30 2574 H 217.442 2.31988 3.01473 0
M  V30 2575 H 218.754 2.86512 4.08304 0
M  V30 2576 H 217.908 1.37649 5.90879 0
M  V30 2577 H 216.647 0.728202 4.82233 0
M  V30 2578 H 215.652 3.02165 4.59322 0
M  V30 2579 H 216.877 3.66964 5.71414 0
M  V30 2580 H 214.823 1.52665 6.37989 0
M  V30 2581 H 214.74 3.19185 6.85315 0
M  V30 2582 H 216.008 2.1832 7.48303 0
M  V30 2583 N 220.237 -1.11381 1.11499 0
M  V30 2584 C 221.185 -2.19522 0.768956 0
M  V30 2585 C 222.179 -1.67693 -0.239857 0
M  V30 2586 O 223.385 -1.79727 -0.0990755 0
M  V30 2587 H 219.76 -0.715711 0.230786 0
M  V30 2588 H 221.731 -2.45954 1.68964 0
M  V30 2589 C 220.48 -3.46945 0.229073 0
M  V30 2590 H 219.803 -3.8718 0.996596 0
M  V30 2591 H 221.243 -4.23993 0.0251441 0
M  V30 2592 C 219.702 -3.2042 -1.04079 0
M  V30 2593 O 220.232 -3.41178 -2.12038 0
M  V30 2594 N 218.438 -2.74151 -0.963823 0
M  V30 2595 H 217.985 -2.57459 -0.0851722 0
M  V30 2596 H 217.943 -2.56781 -1.81414 0
M  V30 2597 N 221.715 -0.905404 -1.28997 0
M  V30 2598 C 222.963 -0.533192 -1.9494 0
M  V30 2599 C 223.284 0.924618 -1.71685 0
M  V30 2600 O 222.554 1.65268 -1.05183 0
M  V30 2601 H 221.134 -0.194194 -0.721317 0
M  V30 2602 H 223.796 -1.15294 -1.57141 0
M  V30 2603 H 222.892 -0.72059 -3.03667 0
M  V30 2604 N 223.193 1.4272 -0.668489 0
M  V30 2605 C 224.103 2.34596 0.0139753 0
M  V30 2606 C 225.119 1.5474 0.795703 0
M  V30 2607 O 226.295 1.87334 0.739466 0
M  V30 2608 C 223.36 3.33202 0.957982 0
M  V30 2609 C 222.421 4.28957 0.17149 0
M  V30 2610 C 221.654 5.22853 1.07053 0
M  V30 2611 O 221.877 5.21531 2.31001 0
M  V30 2612 O 220.811 5.9952 0.534727 0
M  V30 2613 H 224.637 2.9448 -0.742661 0
M  V30 2614 H 222.222 1.43117 -0.428705 0
M  V30 2615 H 224.104 3.93796 1.50008 0
M  V30 2616 H 222.779 2.758 1.69458 0
M  V30 2617 H 221.686 3.71796 -0.414558 0
M  V30 2618 H 223.019 4.89383 -0.52586 0
M  V30 2619 N 224.671 0.411399 1.52136 0
M  V30 2620 C 225.619 -0.427633 2.28635 0
M  V30 2621 C 226.613 -1.04383 1.33419 0
M  V30 2622 O 227.819 -0.981772 1.50868 0
M  V30 2623 H 224.194 -0.156689 0.735495 0
M  V30 2624 H 226.165 0.238761 2.97443 0
M  V30 2625 C 224.914 -1.53082 3.12188 0
M  V30 2626 H 224.237 -1.06601 3.85326 0
M  V30 2627 H 225.677 -2.09167 3.68816 0
M  V30 2628 C 224.136 -2.49946 2.25895 0
M  V30 2629 O 224.666 -3.53884 1.90076 0
M  V30 2630 N 222.872 -2.2021 1.8962 0
M  V30 2631 H 222.419 -1.35719 2.18948 0
M  V30 2632 H 222.377 -2.85266 1.32176 0
M  V30 2633 N 226.149 -1.5696 0.141893 0
M  V30 2634 C 227.096 -2.16501 -0.799737 0
M  V30 2635 C 228.066 -1.09643 -1.24771 0
M  V30 2636 O 229.251 -1.3766 -1.32115 0
M  V30 2637 C 226.391 -2.78679 -2.03549 0
M  V30 2638 C 225.504 -3.99914 -1.6338 0
M  V30 2639 C 224.639 -4.50106 -2.82096 0
M  V30 2640 C 223.678 -5.63819 -2.38275 0
M  V30 2641 N 222.815 -6.08651 -3.49983 0
M  V30 2642 H 227.655 -2.96632 -0.285179 0
M  V30 2643 H 225.192 -1.46533 -0.129053 0
M  V30 2644 H 227.15 -3.1287 -2.75986 0
M  V30 2645 H 225.78 -2.012 -2.52425 0
M  V30 2646 H 224.832 -3.71735 -0.807279 0
M  V30 2647 H 226.144 -4.82311 -1.27192 0
M  V30 2648 H 225.298 -4.86325 -3.62729 0
M  V30 2649 H 224.037 -3.66706 -3.21525 0
M  V30 2650 H 223.042 -5.2718 -1.56081 0
M  V30 2651 H 224.267 -6.49 -1.99938 0
M  V30 2652 H 222.213 -5.28188 -3.89042 0
M  V30 2653 H 222.13 -6.85961 -3.17794 0
M  V30 2654 H 223.398 -6.49515 -4.30988 0
M  V30 2655 N 227.627 0.131896 -1.57047 0
M  V30 2656 C 228.574 1.16236 -1.99393 0
M  V30 2657 C 229.544 1.41863 -0.863943 0
M  V30 2658 O 230.729 1.53946 -1.12718 0
M  V30 2659 C 227.869 2.48708 -2.39245 0
M  V30 2660 C 226.982 2.30127 -3.65603 0
M  V30 2661 C 226.117 3.55738 -3.94492 0
M  V30 2662 C 225.156 3.32259 -5.14073 0
M  V30 2663 N 224.293 4.50039 -5.38896 0
M  V30 2664 H 229.133 0.794251 -2.87221 0
M  V30 2665 H 226.67 0.380707 -1.42088 0
M  V30 2666 H 228.628 3.25969 -2.60384 0
M  V30 2667 H 227.258 2.83437 -1.54478 0
M  V30 2668 H 226.31 1.43845 -3.52154 0
M  V30 2669 H 227.622 2.08746 -4.5302 0
M  V30 2670 H 226.776 4.41423 -4.1621 0
M  V30 2671 H 225.515 3.80138 -3.05526 0
M  V30 2672 H 224.52 2.44963 -4.92212 0
M  V30 2673 H 225.745 3.09242 -6.04604 0
M  V30 2674 H 223.691 4.74584 -4.52886 0
M  V30 2675 H 223.608 4.31716 -6.2061 0
M  V30 2676 H 224.876 5.36895 -5.65123 0
M  V30 2677 N 229.106 1.52395 0.401703 0
M  V30 2678 C 230.352 1.67065 1.14966 0
M  V30 2679 C 230.685 0.403052 1.89971 0
M  V30 2680 O 229.96 -0.598774 1.85054 0
M  V30 2681 C 230.243 2.8975 2.13815 0
M  V30 2682 C 230.096 4.26578 1.42658 0
M  V30 2683 C 231.415 3.07965 3.14397 0
M  V30 2684 H 228.534 0.607968 0.416587 0
M  V30 2685 H 231.176 1.84965 0.434511 0
M  V30 2686 H 229.326 2.74619 2.74803 0
M  V30 2687 H 230.998 4.53451 0.847329 0
M  V30 2688 H 229.241 4.27639 0.72849 0
M  V30 2689 H 229.912 5.08483 2.14823 0
M  V30 2690 H 232.388 3.22043 2.63491 0
M  V30 2691 H 231.264 3.95308 3.80819 0
M  V30 2692 H 231.525 2.21611 3.82545 0
M  V30 2693 N 230.584 -0.659388 1.43143 0
M  V30 2694 C 231.531 -1.77249 1.47822 0
M  V30 2695 C 232.501 -1.62818 0.328558 0
M  V30 2696 O 233.686 -1.83151 0.534838 0
M  V30 2697 C 230.826 -3.15371 1.40126 0
M  V30 2698 C 229.939 -3.4098 2.65249 0
M  V30 2699 C 229.074 -4.68915 2.49584 0
M  V30 2700 C 228.113 -4.87608 3.70006 0
M  V30 2701 N 227.25 -6.06796 3.53189 0
M  V30 2702 H 232.09 -1.72584 2.42938 0
M  V30 2703 H 229.627 -0.842297 1.20598 0
M  V30 2704 H 231.585 -3.9521 1.33659 0
M  V30 2705 H 230.215 -3.19121 0.485964 0
M  V30 2706 H 229.267 -2.55282 2.8202 0
M  V30 2707 H 230.579 -3.50681 3.54717 0
M  V30 2708 H 229.733 -5.56871 2.4079 0
M  V30 2709 H 228.472 -4.61524 1.5763 0
M  V30 2710 H 227.477 -3.9809 3.79215 0
M  V30 2711 H 228.702 -4.96834 4.62961 0
M  V30 2712 H 226.648 -6.00549 2.63965 0
M  V30 2713 H 226.565 -6.17428 4.36255 0
M  V30 2714 H 227.833 -6.9739 3.48236 0
M  V30 2715 N 232.062 -1.29571 -0.897171 0
M  V30 2716 C 233.009 -1.14916 -2.00158 0
M  V30 2717 C 233.979 -0.0418149 -1.66047 0
M  V30 2718 O 235.164 -0.209793 -1.89643 0
M  V30 2719 C 232.304 -0.834307 -3.34863 0
M  V30 2720 C 231.417 -2.02234 -3.8174 0
M  V30 2721 C 230.552 -1.64664 -5.05034 0
M  V30 2722 C 229.591 -2.80033 -5.44286 0
M  V30 2723 N 228.728 -2.42843 -6.58765 0
M  V30 2724 H 233.568 -2.09403 -2.12025 0
M  V30 2725 H 231.105 -1.042 -1.0383 0
M  V30 2726 H 233.063 -0.632436 -4.12379 0
M  V30 2727 H 231.693 0.0736656 -3.22716 0
M  V30 2728 H 230.745 -2.33583 -3.00238 0
M  V30 2729 H 232.057 -2.88673 -4.06779 0
M  V30 2730 H 231.211 -1.4078 -5.9014 0
M  V30 2731 H 229.95 -0.753766 -4.8184 0
M  V30 2732 H 228.955 -3.04596 -4.57713 0
M  V30 2733 H 230.18 -3.69989 -5.6946 0
M  V30 2734 H 228.126 -1.56046 -6.3717 0
M  V30 2735 H 228.043 -3.22815 -6.83613 0
M  V30 2736 H 229.311 -2.22285 -7.47134 0
M  V30 2737 N 233.54 1.10788 -1.12088 0
M  V30 2738 C 234.488 2.19111 -0.780587 0
M  V30 2739 C 235.482 1.67818 0.230961 0
M  V30 2740 O 236.688 1.79777 0.0895427 0
M  V30 2741 H 233.063 0.714477 -0.234578 0
M  V30 2742 H 235.034 2.45055 -1.70266 0
M  V30 2743 C 233.783 3.46818 -0.24747 0
M  V30 2744 H 233.106 3.86646 -1.01712 0
M  V30 2745 H 234.546 4.23973 -0.0476291 0
M  V30 2746 C 233.005 3.20968 1.02378 0
M  V30 2747 O 233.535 3.42298 2.10226 0
M  V30 2748 N 231.741 2.74658 0.949271 0
M  V30 2749 H 231.288 2.57501 0.0715173 0
M  V30 2750 H 231.246 2.57739 1.80049 0
M  V30 2751 N 235.018 0.912232 1.28515 0
M  V30 2752 C 236.264 0.545405 1.95328 0
M  V30 2753 C 236.597 -0.908313 1.71649 0
M  V30 2754 O 235.872 -1.64575 1.03659 0
M  V30 2755 C 236.155 0.853483 3.4984 0
M  V30 2756 C 236.008 2.35982 3.82926 0
M  V30 2757 C 237.327 0.348589 4.38717 0
M  V30 2758 H 234.446 0.199626 0.709449 0
M  V30 2759 H 237.088 1.1412 1.5191 0
M  V30 2760 H 235.238 0.34643 3.86952 0
M  V30 2761 H 236.91 2.93738 3.55691 0
M  V30 2762 H 235.153 2.81543 3.30024 0
M  V30 2763 H 235.824 2.52593 4.90816 0
M  V30 2764 H 238.3 0.78294 4.08668 0
M  V30 2765 H 237.176 0.593242 5.45685 0
M  V30 2766 H 237.437 -0.751049 4.35674 0
M  V30 2767 N 236.496 -1.42363 0.676048 0
M  V30 2768 C 237.428 -2.29164 -0.0404605 0
M  V30 2769 C 238.441 -1.43747 -0.764245 0
M  V30 2770 O 239.63 -1.67453 -0.618195 0
M  V30 2771 C 236.73 -3.21196 -1.08103 0
M  V30 2772 C 235.903 -4.35273 -0.430812 0
M  V30 2773 C 234.962 -5.08017 -1.37133 0
M  V30 2774 O 233.988 -5.62494 -0.87116 0
M  V30 2775 N 235.19 -5.13647 -2.70456 0
M  V30 2776 H 237.955 -2.91298 0.704667 0
M  V30 2777 H 235.516 -1.53303 0.520559 0
M  V30 2778 H 237.508 -3.66728 -1.71152 0
M  V30 2779 H 236.078 -2.60505 -1.72788 0
M  V30 2780 H 235.298 -3.92372 0.379209 0
M  V30 2781 H 236.586 -5.08795 0.0221132 0
M  V30 2782 H 235.984 -4.708 -3.1363 0
M  V30 2783 H 234.541 -5.62821 -3.28749 0
M  V30 2784 N 237.974 -0.419461 -1.51915 0
M  V30 2785 C 238.921 0.400927 -2.27291 0
M  V30 2786 C 239.891 1.03224 -1.30131 0
M  V30 2787 O 241.076 1.05455 -1.59009 0
M  V30 2788 C 238.216 1.50603 -3.10504 0
M  V30 2789 C 237.329 0.89462 -4.22635 0
M  V30 2790 C 236.464 1.97328 -4.93189 0
M  V30 2791 C 235.503 1.33935 -5.97267 0
M  V30 2792 N 234.64 2.3586 -6.61298 0
M  V30 2793 H 239.48 -0.248251 -2.96964 0
M  V30 2794 H 237.017 -0.134266 -1.46486 0
M  V30 2795 H 238.975 2.15783 -3.57062 0
M  V30 2796 H 237.605 2.12509 -2.42981 0
M  V30 2797 H 236.657 0.131583 -3.80172 0
M  V30 2798 H 237.969 0.391641 -4.9726 0
M  V30 2799 H 237.123 2.70211 -5.43204 0
M  V30 2800 H 235.862 2.50994 -4.18155 0
M  V30 2801 H 234.867 0.595896 -5.46561 0
M  V30 2802 H 236.092 0.810252 -6.74249 0
M  V30 2803 H 234.038 2.88639 -5.89087 0
M  V30 2804 H 233.955 1.90403 -7.3163 0
M  V30 2805 H 235.223 3.08282 -7.15949 0
M  V30 2806 N 239.452 1.56882 -0.150215 0
M  V30 2807 C 240.698 1.96518 0.500834 0
M  V30 2808 C 241.031 1.03527 1.64304 0
M  V30 2809 O 240.306 0.0782751 1.94342 0
M  V30 2810 C 240.589 3.45822 1.00395 0
M  V30 2811 C 240.442 4.49591 -0.136983 0
M  V30 2812 C 241.761 3.97704 1.88467 0
M  V30 2813 H 238.88 0.714535 0.18058 0
M  V30 2814 H 241.522 1.88577 -0.232091 0
M  V30 2815 H 239.672 3.5272 1.62851 0
M  V30 2816 H 241.344 4.5477 -0.77343 0
M  V30 2817 H 239.587 4.26441 -0.795652 0
M  V30 2818 H 240.258 5.51402 0.256815 0
M  V30 2819 H 242.734 3.93304 1.35834 0
M  V30 2820 H 241.61 5.0263 2.20578 0
M  V30 2821 H 241.871 3.40252 2.82279 0
M  V30 2822 N 240.93 -0.123565 1.57115 0
M  V30 2823 C 241.877 -1.15177 2.00007 0
M  V30 2824 C 242.847 -1.41403 0.871454 0
M  V30 2825 O 244.032 -1.53346 1.13533 0
M  V30 2826 C 241.172 -2.47436 2.40561 0
M  V30 2827 C 240.285 -2.28184 3.66819 0
M  V30 2828 C 239.42 -3.53641 3.96373 0
M  V30 2829 C 238.459 -3.29528 5.15827 0
M  V30 2830 N 237.596 -4.47175 5.41275 0
M  V30 2831 H 242.436 -0.779008 2.87638 0
M  V30 2832 H 239.973 -0.373166 1.42288 0
M  V30 2833 H 241.931 -3.24584 2.62109 0
M  V30 2834 H 240.561 -2.82614 1.55978 0
M  V30 2835 H 239.613 -1.41976 3.52912 0
M  V30 2836 H 240.925 -2.0634 4.5412 0
M  V30 2837 H 240.079 -4.39209 4.18545 0
M  V30 2838 H 238.818 -3.78512 3.07538 0
M  V30 2839 H 237.823 -2.42349 4.93505 0
M  V30 2840 H 239.048 -3.06031 6.06236 0
M  V30 2841 H 236.994 -4.72175 4.55397 0
M  V30 2842 H 236.911 -4.28419 6.22891 0
M  V30 2843 H 238.179 -5.3389 5.67963 0
M  V30 2844 N 242.408 -1.52605 -0.393616 0
M  V30 2845 C 243.371 -1.76415 -1.46323 0
M  V30 2846 C 244.371 -0.634126 -1.47768 0
M  V30 2847 O 245.561 -0.902142 -1.4902 0
M  V30 2848 C 242.693 -1.8607 -2.85641 0
M  V30 2849 H 243.886 -2.71916 -1.26498 0
M  V30 2850 H 241.439 -1.43257 -0.625073 0
M  V30 2851 H 242.174 -0.925378 -3.10817 0
M  V30 2852 H 241.959 -2.68235 -2.85993 0
M  V30 2853 H 243.449 -2.06179 -3.63153 0
M  V30 2854 O 243.925 0.539544 -1.52221 0
M  V30 2855 H 244.616 1.19468 -1.5247 0
M  V30 END ATOM
M  V30 BEGIN BOND
M  V30 END BOND
M  V30 END CTAB
M  END
$$$$
