drugbank_target|Q8IL80 Thioredoxin peroxidase 1 (DB11638)
 OpenBabel12092121123D

  0  0  0     0  0            999 V3000
M  V30 BEGIN CTAB
M  V30 COUNTS 3089 3123 0 0 0
M  V30 BEGIN ATOM
M  V30 1 H -0.908 1.98254 -0.117106 0
M  V30 2 N 0 1.576 0 0
M  V30 3 C 0.933 2.03868 1.02534 0
M  V30 4 C 1.911 0.928543 1.3348 0
M  V30 5 O 3.095 1.19667 1.45644 0
M  V30 6 C 0.222 2.43627 2.35294 0
M  V30 7 C -0.732 3.65373 2.2001 0
M  V30 8 S 0.101 5.13292 1.52614 0
M  V30 9 C 1.257 5.56322 2.86805 0
M  V30 10 H 1.49 2.90518 0.631377 0
M  V30 11 H -0.977 1.52953 0.210867 0
M  V30 12 H 0.981 2.67203 3.11629 0
M  V30 13 H -0.358 1.57376 2.7183 0
M  V30 14 H -1.165 3.90944 3.18086 0
M  V30 15 H -1.563 3.418 1.51819 0
M  V30 16 H 0.729 5.58782 3.83104 0
M  V30 17 H 1.672 6.56266 2.65933 0
M  V30 18 H 2.08 4.83886 2.90714 0
M  V30 19 N 1.4781 -0.272755 1.55222 0
M  V30 20 C 2.4411 -1.32041 1.87344 0
M  V30 21 C 3.4411 -1.42342 0.74803 0
M  V30 22 O 4.6311 -1.41488 1.0162 0
M  V30 23 C 1.7631 -2.70173 2.07893 0
M  V30 24 H 2.9561 -1.04789 2.80997 0
M  V30 25 H 0.5091 -0.51083 1.47717 0
M  V30 26 H 1.2441 -3.02605 1.16622 0
M  V30 27 H 1.0291 -2.64082 2.89833 0
M  V30 28 H 2.5191 -3.45869 2.34017 0
M  V30 29 N 2.9562 -1.48159 -0.537278 0
M  V30 30 C 4.1812 -1.59707 -1.32319 0
M  V30 31 C 4.6062 -0.254859 -1.86365 0
M  V30 32 O 3.9642 0.772378 -1.64024 0
M  V30 33 C 4.0122 -2.6412 -2.45505 0
M  V30 34 O 3.1162 -2.20774 -3.48328 0
M  V30 35 H 2.4572 -0.535791 -0.392204 0
M  V30 36 H 4.9872 -1.94092 -0.647268 0
M  V30 37 H 4.9972 -2.85166 -2.91795 0
M  V30 38 H 3.6722 -3.61567 -2.05528 0
M  V30 39 H 2.2492 -2.09911 -3.08207 0
M  V30 40 N 4.4343 0.785586 -1.36625 0
M  V30 41 C 5.6643 1.5722 -1.34036 0
M  V30 42 C 6.0723 1.89033 0.0795062 0
M  V30 43 O 5.4153 1.50881 1.04789 0
M  V30 44 C 5.4773 2.91759 -2.10041 0
M  V30 45 C 5.1413 2.82654 -3.59104 0
M  V30 46 C 6.1383 2.54634 -4.53274 0
M  V30 47 C 3.8233 3.01111 -4.02042 0
M  V30 48 C 5.8173 2.45177 -5.88359 0
M  V30 49 C 3.5043 2.91276 -5.37216 0
M  V30 50 C 4.5023 2.63348 -6.30188 0
M  V30 51 O 4.1903 2.53514 -7.6288 0
M  V30 52 H 3.9223 0.494177 -0.461265 0
M  V30 53 H 6.4763 0.982632 -1.8037 0
M  V30 54 H 4.7063 3.52781 -1.58375 0
M  V30 55 H 6.3953 3.53059 -2.00261 0
M  V30 56 H 7.1613 2.40073 -4.21414 0
M  V30 57 H 3.0403 3.21854 -3.30047 0
M  V30 58 H 6.5843 2.23299 -6.60896 0
M  V30 59 H 2.4813 3.054 -5.68684 0
M  V30 60 H 3.2493 2.68967 -7.73045 0
M  V30 61 N 5.9124 1.20967 1.01018 0
M  V30 62 C 7.1584 1.02526 1.74975 0
M  V30 63 C 7.4914 -0.4408 1.89131 0
M  V30 64 O 6.7664 -1.32718 1.42184 0
M  V30 65 C 7.0494 1.71699 3.1653 0
M  V30 66 C 6.9024 3.25791 3.10129 0
M  V30 67 C 8.2214 1.45531 4.15342 0
M  V30 68 H 5.3404 0.373863 0.635134 0
M  V30 69 H 7.9824 1.49071 1.17805 0
M  V30 70 H 6.1324 1.32128 3.65341 0
M  V30 71 H 7.8044 3.74697 2.69072 0
M  V30 72 H 6.0474 3.56363 2.47362 0
M  V30 73 H 6.7184 3.69353 4.10222 0
M  V30 74 H 9.1944 1.79872 3.75213 0
M  V30 75 H 8.0704 1.96453 5.1254 0
M  V30 76 H 8.3314 0.384237 4.40427 0
M  V30 77 N 7.3905 -1.2043 1.01659 0
M  V30 78 C 8.6385 -1.89423 0.704522 0
M  V30 79 C 8.9595 -1.79231 -0.768197 0
M  V30 80 O 8.2295 -1.1947 -1.55254 0
M  V30 81 H 6.8095 -0.701178 0.257602 0
M  V30 82 H 9.4715 -1.4626 1.28818 0
M  V30 83 H 8.5675 -2.96052 0.987916 0
M  V30 84 N 8.8686 -0.792821 -1.36206 0
M  V30 85 C 10.2846 -0.474903 -1.52371 0
M  V30 86 C 10.4846 1.00622 -1.74578 0
M  V30 87 O 9.5406 1.79162 -1.77924 0
M  V30 88 C 10.8536 -1.3083 -2.70747 0
M  V30 89 C 12.4016 -1.30234 -2.84619 0
M  V30 90 C 12.8766 -2.11956 -4.06004 0
M  V30 91 N 14.3676 -2.09419 -4.13156 0
M  V30 92 C 15.1026 -2.69419 -5.06163 0
M  V30 93 N 14.5986 -3.3829 -6.04592 0
M  V30 94 N 16.3916 -2.59134 -4.98804 0
M  V30 95 H 8.5426 -1.75222 -1.20046 0
M  V30 96 H 10.8056 -0.745024 -0.586211 0
M  V30 97 H 10.5116 -2.35881 -2.6087 0
M  V30 98 H 10.3856 -0.95196 -3.6499 0
M  V30 99 H 12.7726 -0.259748 -2.93955 0
M  V30 100 H 12.8536 -1.69847 -1.91274 0
M  V30 101 H 12.4976 -3.16248 -3.97429 0
M  V30 102 H 12.4276 -1.69711 -4.98503 0
M  V30 103 H 14.9186 -1.59297 -3.42685 0
M  V30 104 H 15.2316 -3.81394 -6.7213 0
M  V30 105 H 13.5766 -3.42393 -6.04807 0
M  V30 106 H 16.7676 -2.04927 -4.20859 0
M  V30 107 H 16.9406 -3.06185 -5.711 0
M  V30 108 N 10.3467 1.47872 -0.545128 0
M  V30 109 C 11.2567 2.33633 0.212746 0
M  V30 110 C 12.2727 1.4744 0.923983 0
M  V30 111 O 13.4487 1.80393 0.895572 0
M  V30 112 C 10.5137 3.23884 1.23693 0
M  V30 113 C 9.5747 4.25961 0.534417 0
M  V30 114 C 8.8077 5.11899 1.5098 0
M  V30 115 O 9.0307 5.00077 2.7437 0
M  V30 116 O 7.9647 5.92831 1.0409 0
M  V30 117 H 11.7907 2.99714 -0.490416 0
M  V30 118 H 9.3757 1.46235 -0.305871 0
M  V30 119 H 11.2577 3.79666 1.82843 0
M  V30 120 H 9.9327 2.60446 1.92222 0
M  V30 121 H 8.8397 3.73972 -0.0979679 0
M  V30 122 H 10.1727 4.92079 -0.109213 0
M  V30 123 N 11.8248 0.280983 1.55075 0
M  V30 124 C 12.7878 -0.590896 2.21452 0
M  V30 125 C 13.7878 -1.07682 1.19421 0
M  V30 126 O 14.9778 -0.97605 1.44288 0
M  V30 127 C 12.1098 -1.81587 2.88511 0
M  V30 128 H 13.3028 -0.0112554 2.99898 0
M  V30 129 H 10.8558 0.0316438 1.56268 0
M  V30 130 H 11.5908 -2.43587 2.14093 0
M  V30 131 H 11.3758 -1.4753 3.63287 0
M  V30 132 H 12.8658 -2.43575 3.39206 0
M  V30 133 N 13.3029 -1.57598 0.00835791 0
M  V30 134 C 14.7139 -1.7892 -0.53333 0
M  V30 135 C 15.0649 -0.916609 -1.73473 0
M  V30 136 O 14.1899 -0.121336 -2.1606 0
M  V30 137 C 14.7849 -3.24488 -0.974313 0
M  V30 138 C 13.3439 -3.46878 -1.46125 0
M  V30 139 C 12.4909 -2.74157 -0.416302 0
M  V30 140 H 15.4419 -1.56958 0.234495 0
M  V30 141 H 15.4629 -3.3306 -1.83988 0
M  V30 142 H 14.9749 -3.87972 -0.099718 0
M  V30 143 H 13.0759 -2.8862 -2.35646 0
M  V30 144 H 13.1889 -4.55572 -1.48295 0
M  V30 145 H 11.5529 -2.39022 -0.87981 0
M  V30 146 H 12.3359 -3.40345 0.44947 0
M  V30 147 N 14.781 0.264519 -1.55364 0
M  V30 148 C 16.011 1.01153 -1.80143 0
M  V30 149 C 16.419 1.80115 -0.579253 0
M  V30 150 O 15.762 1.77813 0.46132 0
M  V30 151 C 15.824 2.01098 -2.97993 0
M  V30 152 C 15.488 1.40995 -4.34706 0
M  V30 153 C 16.485 0.821316 -5.13372 0
M  V30 154 C 14.17 1.43461 -4.81378 0
M  V30 155 C 16.164 0.265339 -6.36847 0
M  V30 156 C 13.851 0.874771 -6.04807 0
M  V30 157 C 14.849 0.291146 -6.82379 0
M  V30 158 O 14.537 -0.260093 -8.03479 0
M  V30 159 H 14.269 0.304125 -0.603725 0
M  V30 160 H 16.823 0.298089 -2.03225 0
M  V30 161 H 15.053 2.76224 -2.70623 0
M  V30 162 H 16.742 2.61997 -3.1002 0
M  V30 163 H 17.508 0.794903 -4.78442 0
M  V30 164 H 13.387 1.87826 -4.21002 0
M  V30 165 H 16.931 -0.190837 -6.97339 0
M  V30 166 H 12.828 0.898452 -6.39217 0
M  V30 167 H 13.596 -0.150265 -8.18362 0
M  V30 168 N 16.2591 1.48442 0.529413 0
M  V30 169 C 17.5061 1.56488 1.28521 0
M  V30 170 C 17.8341 0.239042 1.93025 0
M  V30 171 O 17.0891 -0.770713 1.79885 0
M  V30 172 C 17.3881 2.6523 2.39558 0
M  V30 173 C 17.0541 4.07648 1.92702 0
M  V30 174 C 15.7161 4.46411 1.79641 0
M  V30 175 C 18.0681 4.96896 1.573 0
M  V30 176 C 15.3961 5.72226 1.29514 0
M  V30 177 C 17.7481 6.23202 1.08636 0
M  V30 178 C 16.4121 6.60821 0.941919 0
M  V30 179 H 15.6821 0.572631 0.470292 0
M  V30 180 H 18.3291 1.82161 0.59072 0
M  V30 181 H 16.6341 2.33419 3.14679 0
M  V30 182 H 18.3311 2.68671 2.97686 0
M  V30 183 H 14.9211 3.77036 2.03819 0
M  V30 184 H 19.1051 4.67626 1.66251 0
M  V30 185 H 14.3611 6.00097 1.17019 0
M  V30 186 H 18.5351 6.91753 0.803136 0
M  V30 187 H 16.1621 7.58198 0.5513 0
M  V30 188 N 17.7372 -0.778329 1.37039 0
M  V30 189 C 18.6842 -1.89139 1.32269 0
M  V30 190 C 19.6542 -1.65017 0.189387 0
M  V30 191 O 20.8392 -1.87024 0.377693 0
M  V30 192 C 17.9792 -3.26112 1.12894 0
M  V30 193 C 17.0922 -3.62233 2.35396 0
M  V30 194 C 16.2272 -4.8838 2.08946 0
M  V30 195 C 15.2662 -5.17212 3.2735 0
M  V30 196 N 14.4032 -6.34546 3.00492 0
M  V30 197 H 19.2432 -1.92552 2.27437 0
M  V30 198 H 16.7802 -0.941473 1.13025 0
M  V30 199 H 18.7382 -4.05116 0.996835 0
M  V30 200 H 17.3682 -3.22091 0.213758 0
M  V30 201 H 16.4202 -2.78265 2.5937 0
M  V30 202 H 17.7322 -3.79481 3.23721 0
M  V30 203 H 16.8862 -5.75274 1.92729 0
M  V30 204 H 15.6252 -4.73222 1.17949 0
M  V30 205 H 14.6302 -4.28796 3.44113 0
M  V30 206 H 15.8552 -5.34283 4.19188 0
M  V30 207 H 13.8012 -6.20759 2.12118 0
M  V30 208 H 13.7182 -6.52179 3.82358 0
M  V30 209 H 14.9862 -7.24394 2.87879 0
M  V30 210 N 19.2153 -1.21501 -1.00376 0
M  V30 211 C 20.1783 -0.976927 -2.07337 0
M  V30 212 C 21.1783 0.0525322 -1.60714 0
M  V30 213 O 22.3683 -0.184869 -1.73216 0
M  V30 214 C 19.5003 -0.473423 -3.37597 0
M  V30 215 H 20.6933 -1.92587 -2.29892 0
M  V30 216 H 18.2463 -1.03217 -1.17371 0
M  V30 217 H 18.9813 0.480379 -3.20722 0
M  V30 218 H 18.7663 -1.216 -3.72768 0
M  V30 219 H 20.2563 -0.32675 -4.1632 0
M  V30 220 N 20.6934 1.19889 -1.02296 0
M  V30 221 C 21.6034 2.26571 -0.608508 0
M  V30 222 C 22.6194 1.70299 0.356964 0
M  V30 223 O 23.7954 2.00235 0.216326 0
M  V30 224 C 20.8604 3.46677 0.0402814 0
M  V30 225 C 19.9214 4.18153 -0.97194 0
M  V30 226 C 19.1544 5.32525 -0.354016 0
M  V30 227 O 19.3774 5.64112 0.844604 0
M  V30 228 O 18.3114 5.92242 -1.07391 0
M  V30 229 H 22.1374 2.64251 -1.49684 0
M  V30 230 H 19.7224 1.26629 -0.792809 0
M  V30 231 H 21.6044 4.19475 0.402324 0
M  V30 232 H 20.2794 3.10858 0.902707 0
M  V30 233 H 19.1864 3.47499 -1.38546 0
M  V30 234 H 20.5194 4.57927 -1.80454 0
M  V30 235 N 22.1715 0.800033 1.35784 0
M  V30 236 C 23.1345 0.211565 2.28221 0
M  V30 237 C 24.1345 -0.59728 1.49296 0
M  V30 238 O 25.3245 -0.416721 1.69142 0
M  V30 239 C 22.4565 -0.705846 3.33513 0
M  V30 240 H 23.6495 1.02677 2.81776 0
M  V30 241 H 21.2025 0.570211 1.45528 0
M  V30 242 H 21.9375 -1.54498 2.85133 0
M  V30 243 H 21.7225 -0.127655 3.91892 0
M  V30 244 H 23.2125 -1.11211 4.02519 0
M  V30 245 N 23.6496 -1.47581 0.552962 0
M  V30 246 C 24.8956 -2.02782 0.0273648 0
M  V30 247 C 25.2286 -1.42687 -1.31734 0
M  V30 248 O 24.5036 -0.580897 -1.85623 0
M  V30 249 C 24.7866 -3.60031 -0.0702371 0
M  V30 250 C 24.6396 -4.30566 1.30126 0
M  V30 251 C 25.9586 -4.33028 -0.785771 0
M  V30 252 H 23.0776 -0.736912 0.0114185 0
M  V30 253 H 25.7196 -1.76056 0.714432 0
M  V30 254 H 23.8696 -3.82932 -0.655382 0
M  V30 255 H 25.5416 -4.19018 1.92929 0
M  V30 256 H 23.7846 -3.91086 1.87709 0
M  V30 257 H 24.4556 -5.39114 1.18573 0
M  V30 258 H 26.9316 -4.15095 -0.288982 0
M  V30 259 H 25.8076 -5.42695 -0.823013 0
M  V30 260 H 26.0686 -4.01945 -1.841 0
M  V30 261 N 25.1277 -0.289203 -1.54924 0
M  V30 262 C 26.3747 0.323519 -1.99899 0
M  V30 263 C 26.7027 1.54797 -1.17762 0
M  V30 264 O 25.9577 1.94237 -0.238835 0
M  V30 265 C 26.2567 0.736119 -3.49737 0
M  V30 266 C 25.9227 -0.385276 -4.49251 0
M  V30 267 C 24.5847 -0.693156 -4.76181 0
M  V30 268 C 26.9367 -1.14021 -5.08575 0
M  V30 269 C 24.2647 -1.7593 -5.59701 0
M  V30 270 C 26.6167 -2.19619 -5.93254 0
M  V30 271 C 25.2807 -2.51026 -6.185 0
M  V30 272 H 24.5507 0.118384 -0.731482 0
M  V30 273 H 27.1977 -0.405847 -1.8715 0
M  V30 274 H 25.5027 1.54539 -3.60035 0
M  V30 275 H 27.1997 1.22118 -3.81953 0
M  V30 276 H 23.7897 -0.135202 -4.28387 0
M  V30 277 H 27.9737 -0.915611 -4.87781 0
M  V30 278 H 23.2297 -2.0075 -5.77503 0
M  V30 279 H 27.4037 -2.78581 -6.38252 0
M  V30 280 H 25.0307 -3.33772 -6.83008 0
M  V30 281 N 26.6058 1.57591 -0.0167156 0
M  V30 282 C 27.5688 2.08393 0.954204 0
M  V30 283 C 28.5688 0.996531 1.26198 0
M  V30 284 O 29.7588 1.25858 1.20438 0
M  V30 285 C 26.8908 2.5394 2.27436 0
M  V30 286 H 28.0838 2.95455 0.514451 0
M  V30 287 H 25.6368 1.54582 0.231089 0
M  V30 288 H 26.3718 1.70171 2.76066 0
M  V30 289 H 26.1568 3.33371 2.06412 0
M  V30 290 H 27.6468 2.93512 2.97053 0
M  V30 291 N 28.0839 -0.256276 1.55502 0
M  V30 292 C 29.3609 -1.00789 1.67633 0
M  V30 293 C 29.7409 -2.03706 0.553826 0
M  V30 294 O 29.0889 -2.24145 -0.443969 0
M  V30 295 C 29.2989 -1.64968 3.07549 0
M  V30 296 C 30.6469 -2.15505 3.65845 0
M  V30 297 O 31.6709 -1.74925 3.1029 0
M  V30 298 O 30.5299 -2.89986 4.63217 0
M  V30 299 H 27.6239 -0.468553 0.681459 0
M  V30 300 H 30.1699 -0.250806 1.67836 0
M  V30 301 H 28.9419 -0.904785 3.80696 0
M  V30 302 H 28.5649 -2.47321 3.11317 0
M  V30 303 N 29.562 -1.4872 -0.521534 0
M  V30 304 C 30.51 -1.64328 -1.64618 0
M  V30 305 C 31.504 -0.50953 -1.61555 0
M  V30 306 O 32.71 -0.688525 -1.66311 0
M  V30 307 H 29.085 -0.517805 -0.545328 0
M  V30 308 H 31.056 -2.58767 -1.48601 0
M  V30 309 C 29.805 -1.70805 -3.02855 0
M  V30 310 H 29.128 -2.5741 -3.05909 0
M  V30 311 H 30.568 -1.85766 -3.81139 0
M  V30 312 C 29.027 -0.448479 -3.33902 0
M  V30 313 O 29.557 0.434928 -3.99339 0
M  V30 314 N 27.763 -0.317616 -2.88859 0
M  V30 315 H 27.31 -1.03748 -2.35784 0
M  V30 316 H 27.268 0.524113 -3.10001 0
M  V30 317 N 31.0401 0.771051 -1.3745 0
M  V30 318 C 32.2681 1.56015 -1.35893 0
M  V30 319 C 32.6831 1.88718 0.0555523 0
M  V30 320 O 32.0401 1.51502 1.01752 0
M  V30 321 C 32.0911 2.87001 -2.19801 0
M  V30 322 O 31.8121 2.557 -3.55738 0
M  V30 323 C 33.3131 3.81228 -2.26231 0
M  V30 324 H 30.5331 0.483317 -0.465453 0
M  V30 325 H 33.0771 0.955611 -1.80799 0
M  V30 326 H 31.2321 3.43877 -1.78402 0
M  V30 327 H 31.6461 3.39584 -3.99729 0
M  V30 328 H 33.1201 4.70139 -2.89263 0
M  V30 329 H 33.5971 4.20409 -1.27093 0
M  V30 330 H 34.2031 3.30281 -2.67945 0
M  V30 331 N 32.5182 1.22032 0.997298 0
M  V30 332 C 33.7652 1.04222 1.73621 0
M  V30 333 C 34.0932 -0.423264 1.89839 0
M  V30 334 O 33.3482 -1.3302 1.43542 0
M  V30 335 C 33.6472 1.69345 3.14733 0
M  V30 336 C 33.3132 3.19226 3.18442 0
M  V30 337 C 31.9752 3.60124 3.19161 0
M  V30 338 C 34.3272 4.15181 3.15078 0
M  V30 339 C 31.6552 4.95467 3.14212 0
M  V30 340 C 34.0072 5.50495 3.1167 0
M  V30 341 C 32.6712 5.90779 3.10703 0
M  V30 342 H 31.9412 0.381374 0.635323 0
M  V30 343 H 34.5882 1.51732 1.16831 0
M  V30 344 H 32.8932 1.14147 3.74803 0
M  V30 345 H 34.5902 1.53059 3.7064 0
M  V30 346 H 31.1802 2.86659 3.18629 0
M  V30 347 H 35.3642 3.84605 3.13676 0
M  V30 348 H 30.6202 5.25916 3.11805 0
M  V30 349 H 34.7942 6.24576 3.08022 0
M  V30 350 H 32.4212 6.9562 3.06622 0
M  V30 351 N 33.9963 -1.19345 1.0293 0
M  V30 352 C 35.2443 -1.88665 0.724574 0
M  V30 353 C 35.5653 -1.80036 -0.749144 0
M  V30 354 O 34.8353 -1.2111 -1.53978 0
M  V30 355 H 33.4153 -0.698406 0.265025 0
M  V30 356 H 36.0773 -1.44885 1.30362 0
M  V30 357 H 35.1733 -2.94987 1.01926 0
M  V30 358 N 35.4744 -0.807222 -1.35358 0
M  V30 359 C 36.3844 -0.219594 -2.3357 0
M  V30 360 C 37.4004 0.637734 -1.61892 0
M  V30 361 O 38.5764 0.549336 -1.93763 0
M  V30 362 C 35.6414 0.62158 -3.41083 0
M  V30 363 C 34.7024 -0.256315 -4.28534 0
M  V30 364 C 33.9354 0.544807 -5.30912 0
M  V30 365 O 34.1584 1.77944 -5.41934 0
M  V30 366 O 33.0924 -0.0646478 -6.01865 0
M  V30 367 H 36.9184 -1.03208 -2.85625 0
M  V30 368 H 34.5034 -0.569025 -1.38139 0
M  V30 369 H 36.3854 1.10067 -4.06772 0
M  V30 370 H 35.0604 1.41165 -2.91297 0
M  V30 371 H 33.9674 -0.782559 -3.65823 0
M  V30 372 H 35.3004 -1.01034 -4.81719 0
M  V30 373 N 36.9525 1.47285 -0.560781 0
M  V30 374 C 38.1985 2.02764 -0.0381184 0
M  V30 375 C 38.5315 1.43384 1.30976 0
M  V30 376 O 37.8065 0.590733 1.85312 0
M  V30 377 C 38.0895 3.60064 0.0511427 0
M  V30 378 C 37.9425 4.2987 -1.32408 0
M  V30 379 C 39.2615 4.33439 0.762795 0
M  V30 380 H 36.3805 0.736841 -0.0153264 0
M  V30 381 H 39.0225 1.75675 -0.723759 0
M  V30 382 H 37.1725 3.83274 0.635065 0
M  V30 383 H 38.8445 4.17989 -1.95148 0
M  V30 384 H 37.0875 3.90085 -1.8978 0
M  V30 385 H 37.7585 5.38478 -1.21431 0
M  V30 386 H 40.2345 4.15243 0.266965 0
M  V30 387 H 39.1105 5.43124 0.794221 0
M  V30 388 H 39.3715 4.02915 1.81966 0
M  V30 389 N 38.4306 0.297415 1.54768 0
M  V30 390 C 39.3786 -0.596051 2.24833 0
M  V30 391 C 40.3726 -1.13992 1.25308 0
M  V30 392 O 41.5786 -1.09098 1.4317 0
M  V30 393 H 37.9536 -0.210814 0.721846 0
M  V30 394 H 39.9246 0.0174667 2.98395 0
M  V30 395 C 38.6736 -1.75818 2.99972 0
M  V30 396 H 37.9966 -1.3489 3.76357 0
M  V30 397 H 39.4366 -2.35949 3.52284 0
M  V30 398 C 37.8956 -2.66014 2.06732 0
M  V30 399 O 38.4256 -3.67009 1.63302 0
M  V30 400 N 36.6316 -2.33669 1.72763 0
M  V30 401 H 36.1786 -1.51586 2.08277 0
M  V30 402 H 36.1366 -2.94285 1.10652 0
M  V30 403 N 39.9087 -1.5758 0.0250728 0
M  V30 404 C 40.8387 -2.13007 -0.956575 0
M  V30 405 C 41.8197 -1.0452 -1.342 0
M  V30 406 O 43.0047 -1.32332 -1.42133 0
M  V30 407 C 40.1347 -2.65386 -2.24026 0
M  V30 408 C 39.0887 -3.78623 -1.99571 0
M  V30 409 C 38.4147 -4.17414 -3.3417 0
M  V30 410 C 39.7147 -5.04867 -1.33814 0
M  V30 411 H 41.4087 -2.9528 -0.494991 0
M  V30 412 H 38.9547 -1.42042 -0.236651 0
M  V30 413 H 40.9077 -3.02794 -2.93076 0
M  V30 414 H 39.6317 -1.80268 -2.72343 0
M  V30 415 H 38.2907 -3.41646 -1.32941 0
M  V30 416 H 37.9387 -3.29284 -3.80238 0
M  V30 417 H 37.6387 -4.93719 -3.18615 0
M  V30 418 H 39.1627 -4.57402 -4.04495 0
M  V30 419 H 40.5767 -5.39888 -1.92857 0
M  V30 420 H 38.9737 -5.86144 -1.28669 0
M  V30 421 H 40.0437 -4.83904 -0.310561 0
M  V30 422 N 41.3868 0.248026 -1.55636 0
M  V30 423 C 42.3368 1.30994 -1.86614 0
M  V30 424 C 43.3208 1.43543 -0.726918 0
M  V30 425 O 44.5128 1.46804 -0.988818 0
M  V30 426 C 41.6418 2.6656 -2.16335 0
M  V30 427 C 40.7278 2.58019 -3.36581 0
M  V30 428 N 41.1188 2.1911 -4.55878 0
M  V30 429 C 39.4168 2.89035 -3.39669 0
M  V30 430 C 40.1178 2.21174 -5.38012 0
M  V30 431 N 39.0938 2.60632 -4.77045 0
M  V30 432 H 42.8958 0.999583 -2.76379 0
M  V30 433 H 40.4098 0.456652 -1.55848 0
M  V30 434 H 42.4068 3.43194 -2.36692 0
M  V30 435 H 41.0668 2.98463 -1.27867 0
M  V30 436 H 42.0778 1.90672 -4.81523 0
M  V30 437 H 38.7548 3.25485 -2.61469 0
M  V30 438 H 40.1448 1.9344 -6.43452 0
M  V30 439 N 42.8649 1.48995 0.513639 0
M  V30 440 C 44.1419 1.48338 1.27495 0
M  V30 441 C 44.5219 0.204065 2.10111 0
M  V30 442 O 43.8699 -0.813881 2.13514 0
M  V30 443 C 44.0799 2.75498 2.14247 0
M  V30 444 C 45.4279 3.24484 2.73852 0
M  V30 445 O 46.4519 2.76528 2.24523 0
M  V30 446 O 45.3109 4.07974 3.6362 0
M  V30 447 H 42.4049 0.593149 0.576284 0
M  V30 448 H 44.9509 1.61246 0.528948 0
M  V30 449 H 43.7229 3.60109 1.53092 0
M  V30 450 H 43.3459 2.6539 2.96064 0
M  V30 451 N 44.343 -0.763751 1.37857 0
M  V30 452 C 45.59 -1.52257 1.33506 0
M  V30 453 C 45.918 -1.94343 -0.078022 0
M  V30 454 O 45.173 -1.64958 -1.05297 0
M  V30 455 C 45.472 -2.79499 2.22745 0
M  V30 456 C 45.138 -2.56426 3.70886 0
M  V30 457 C 43.8 -2.49842 4.11257 0
M  V30 458 C 46.152 -2.36008 4.64704 0
M  V30 459 C 43.48 -2.20841 5.43549 0
M  V30 460 C 45.832 -2.0853 5.97242 0
M  V30 461 C 44.496 -2.00396 6.36709 0
M  V30 462 H 43.766 -0.557149 0.488534 0
M  V30 463 H 46.413 -0.879073 1.70131 0
M  V30 464 H 44.718 -3.48447 1.79142 0
M  V30 465 H 46.415 -3.37413 2.16688 0
M  V30 466 H 43.005 -2.62416 3.38874 0
M  V30 467 H 47.189 -2.40079 4.34368 0
M  V30 468 H 42.445 -2.13045 5.73081 0
M  V30 469 H 46.619 -1.91732 6.69486 0
M  V30 470 H 44.246 -1.77688 7.39142 0
M  V30 471 N 45.8211 -1.22559 -0.990812 0
M  V30 472 C 47.0701 -1.04553 -1.72486 0
M  V30 473 C 47.3831 0.419349 -1.91052 0
M  V30 474 O 48.5891 0.719121 -2.61803 0
M  V30 475 C 47.0451 -1.82231 -3.10355 0
M  V30 476 C 46.6531 -3.32981 -2.99713 0
M  V30 477 C 48.3971 -1.7268 -3.87791 0
M  V30 478 C 46.3041 -4.03091 -4.32748 0
M  V30 479 H 45.2341 -0.387614 -0.646739 0
M  V30 480 H 47.8851 -1.46429 -1.10593 0
M  V30 481 H 46.2671 -1.33155 -3.72942 0
M  V30 482 H 47.4411 -3.89466 -2.46278 0
M  V30 483 H 45.7561 -3.43231 -2.35758 0
M  V30 484 H 48.3531 -2.22381 -4.86262 0
M  V30 485 H 48.6961 -0.687607 -4.10582 0
M  V30 486 H 49.2291 -2.1931 -3.31885 0
M  V30 487 H 45.9681 -5.07273 -4.15156 0
M  V30 488 H 45.4881 -3.51394 -4.86089 0
M  V30 489 H 47.1671 -4.08804 -5.01486 0
M  V30 490 N 47.2992 1.18797 -1.03562 0
M  V30 491 C 48.5472 1.88278 -0.734569 0
M  V30 492 C 48.8682 1.8043 0.739586 0
M  V30 493 O 48.1382 1.21925 1.53333 0
M  V30 494 H 46.7182 0.696991 -0.268725 0
M  V30 495 H 49.3802 1.44192 -1.31129 0
M  V30 496 H 48.4762 2.94443 -1.03489 0
M  V30 497 N 48.7773 0.814389 1.34928 0
M  V30 498 C 49.7243 0.22822 2.29669 0
M  V30 499 C 50.6943 -0.642164 1.53184 0
M  V30 500 O 51.8793 -0.585605 1.81591 0
M  V30 501 C 49.0193 -0.61089 3.3965 0
M  V30 502 C 48.1323 0.280792 4.31086 0
M  V30 503 C 47.2673 -0.567067 5.28165 0
M  V30 504 C 46.3063 0.324531 6.11239 0
M  V30 505 N 45.4433 -0.483756 7.00431 0
M  V30 506 H 50.2833 1.04153 2.79206 0
M  V30 507 H 47.8203 0.525133 1.37407 0
M  V30 508 H 49.7783 -1.11263 4.0209 0
M  V30 509 H 48.4083 -1.38939 2.91369 0
M  V30 510 H 47.4603 0.900688 3.69583 0
M  V30 511 H 48.7723 0.966723 4.89342 0
M  V30 512 H 47.9263 -1.13363 5.96015 0
M  V30 513 H 46.6653 -1.28654 4.70425 0
M  V30 514 H 45.6703 0.903298 5.42329 0
M  V30 515 H 46.8953 1.04198 6.71059 0
M  V30 516 H 44.8413 -1.18706 6.45171 0
M  V30 517 H 44.7583 0.143965 7.55863 0
M  V30 518 H 46.0263 -1.03334 7.7262 0
M  V30 519 N 50.2554 -1.46986 0.568584 0
M  V30 520 C 51.2024 -2.30153 -0.172707 0
M  V30 521 C 52.1724 -1.39759 -0.897586 0
M  V30 522 O 53.3574 -1.68716 -0.891044 0
M  V30 523 C 50.4974 -3.23952 -1.1895 0
M  V30 524 C 49.6104 -4.29441 -0.469517 0
M  V30 525 C 48.7454 -5.1038 -1.47259 0
M  V30 526 C 47.7844 -6.07632 -0.738225 0
M  V30 527 N 46.9214 -6.8149 -1.68868 0
M  V30 528 H 51.7614 -2.93019 0.542596 0
M  V30 529 H 49.2984 -1.44422 0.279401 0
M  V30 530 H 51.2564 -3.76767 -1.79173 0
M  V30 531 H 49.8864 -2.62926 -1.87269 0
M  V30 532 H 48.9384 -3.79594 0.247467 0
M  V30 533 H 50.2504 -4.98689 0.105241 0
M  V30 534 H 49.4044 -5.67402 -2.14803 0
M  V30 535 H 48.1434 -4.4106 -2.08128 0
M  V30 536 H 47.1484 -5.49778 -0.0489293 0
M  V30 537 H 48.3734 -6.78966 -0.135129 0
M  V30 538 H 46.3194 -6.14891 -2.28573 0
M  V30 539 H 46.2364 -7.46948 -1.16636 0
M  V30 540 H 47.5044 -7.43078 -2.3549 0
M  V30 541 N 51.7335 -0.305618 -1.54608 0
M  V30 542 C 52.9635 0.304333 -2.04346 0
M  V30 543 C 53.3715 1.47715 -1.18224 0
M  V30 544 O 52.7145 1.82591 -0.201577 0
M  V30 545 C 52.7765 0.819031 -3.50046 0
M  V30 546 C 52.4405 -0.22912 -4.56425 0
M  V30 547 C 53.4375 -1.05914 -5.08997 0
M  V30 548 C 51.1225 -0.372148 -5.0092 0
M  V30 549 C 53.1165 -2.01809 -6.04609 0
M  V30 550 C 50.8035 -1.33454 -5.9635 0
M  V30 551 C 51.8015 -2.15599 -6.48079 0
M  V30 552 O 51.4895 -3.10205 -7.41639 0
M  V30 553 H 51.2215 0.0693996 -0.672428 0
M  V30 554 H 53.7755 -0.444548 -2.00532 0
M  V30 555 H 52.0055 1.61852 -3.51199 0
M  V30 556 H 53.6945 1.34537 -3.82955 0
M  V30 557 H 54.4605 -0.959538 -4.75413 0
M  V30 558 H 50.3395 0.257304 -4.60281 0
M  V30 559 H 53.8835 -2.65966 -6.44909 0
M  V30 560 H 49.7805 -1.43485 -6.29351 0
M  V30 561 H 50.5485 -3.05237 -7.59455 0
M  V30 562 N 53.2116 1.57565 -0.0334293 0
M  V30 563 C 54.4576 1.92262 0.645226 0
M  V30 564 C 54.7906 0.910543 1.71531 0
M  V30 565 O 54.0656 -0.066099 1.94388 0
M  V30 566 C 54.3486 3.37422 1.2577 0
M  V30 567 C 54.2016 4.49369 0.196891 0
M  V30 568 C 55.5206 3.82628 2.17449 0
M  V30 569 H 52.6396 0.699171 0.233085 0
M  V30 570 H 55.2816 1.89779 -0.0915694 0
M  V30 571 H 53.4316 3.39669 1.88566 0
M  V30 572 H 55.1036 4.59254 -0.433962 0
M  V30 573 H 53.3466 4.31168 -0.477137 0
M  V30 574 H 54.0176 5.47978 0.665124 0
M  V30 575 H 56.4936 3.82145 1.64634 0
M  V30 576 H 55.3696 4.84883 2.57254 0
M  V30 577 H 55.6306 3.18376 3.0674 0
M  V30 578 N 54.6897 -0.239769 1.55765 0
M  V30 579 C 55.6197 -1.30052 1.9393 0
M  V30 580 C 56.6007 -1.49839 0.805132 0
M  V30 581 O 57.7857 -1.62328 1.06599 0
M  V30 582 C 54.9157 -2.65391 2.2402 0
M  V30 583 C 53.8697 -2.60289 3.39755 0
M  V30 584 C 53.1957 -3.99489 3.55405 0
M  V30 585 C 54.4957 -2.16654 4.75246 0
M  V30 586 H 56.1897 -0.983573 2.82783 0
M  V30 587 H 53.7357 -0.471701 1.36055 0
M  V30 588 H 55.6887 -3.3974 2.49308 0
M  V30 589 H 54.4127 -2.98736 1.32 0
M  V30 590 H 53.0717 -1.88398 3.14487 0
M  V30 591 H 52.7197 -4.30112 2.60793 0
M  V30 592 H 52.4197 -3.96962 4.33238 0
M  V30 593 H 53.9437 -4.75528 3.83022 0
M  V30 594 H 55.3577 -2.80737 4.99859 0
M  V30 595 H 53.7547 -2.25223 5.56232 0
M  V30 596 H 54.8247 -1.11835 4.71827 0
M  V30 597 N 56.1678 -1.49265 -0.50573 0
M  V30 598 C 57.0978 -1.68495 -1.61653 0
M  V30 599 C 58.0788 -0.53366 -1.61512 0
M  V30 600 O 59.2638 -0.76897 -1.78327 0
M  V30 601 C 56.3938 -1.74709 -3.00157 0
M  V30 602 C 55.3478 -2.89581 -3.15162 0
M  V30 603 C 54.6738 -2.80903 -4.5497 0
M  V30 604 C 55.9738 -4.30578 -2.95634 0
M  V30 605 H 57.6678 -2.61493 -1.45814 0
M  V30 606 H 55.2138 -1.25838 -0.70005 0
M  V30 607 H 57.1668 -1.86748 -3.77761 0
M  V30 608 H 55.8908 -0.783067 -3.17074 0
M  V30 609 H 54.5498 -2.77136 -2.39982 0
M  V30 610 H 54.1978 -1.82419 -4.68756 0
M  V30 611 H 53.8978 -3.57999 -4.65951 0
M  V30 612 H 55.4218 -2.94944 -5.34641 0
M  V30 613 H 56.8358 -4.4373 -3.63011 0
M  V30 614 H 55.2328 -5.0886 -3.18091 0
M  V30 615 H 56.3028 -4.45352 -1.91806 0
M  V30 616 N 57.6459 0.756429 -1.3826 0
M  V30 617 C 58.8759 1.54341 -1.3734 0
M  V30 618 C 59.2839 1.89159 0.0393917 0
M  V30 619 O 58.6269 1.5307 1.01565 0
M  V30 620 C 58.6889 2.87238 -2.16182 0
M  V30 621 C 58.3529 2.74973 -3.65019 0
M  V30 622 C 59.3499 2.44962 -4.58574 0
M  V30 623 C 57.0349 2.92515 -4.08338 0
M  V30 624 C 59.0289 2.32642 -5.93428 0
M  V30 625 C 56.7159 2.79815 -5.43274 0
M  V30 626 C 57.7139 2.49921 -6.35632 0
M  V30 627 O 57.4019 2.37275 -7.68086 0
M  V30 628 H 57.1339 0.484281 -0.471643 0
M  V30 629 H 59.6879 0.944152 -1.82414 0
M  V30 630 H 57.9179 3.49342 -1.65822 0
M  V30 631 H 59.6069 3.48731 -2.07705 0
M  V30 632 H 60.3729 2.31081 -4.26412 0
M  V30 633 H 56.2519 3.14781 -3.368 0
M  V30 634 H 59.7959 2.0923 -6.65484 0
M  V30 635 H 55.6929 2.93269 -5.75034 0
M  V30 636 H 56.4609 2.52509 -7.78577 0
M  V30 637 N 59.124 1.23083 0.984299 0
M  V30 638 C 60.371 1.06057 1.72505 0
M  V30 639 C 60.699 -0.403105 1.90277 0
M  V30 640 O 59.954 -1.3149 1.44944 0
M  V30 641 C 60.253 1.72673 3.1292 0
M  V30 642 C 59.919 3.22586 3.15038 0
M  V30 643 C 58.581 3.63489 3.15324 0
M  V30 644 C 60.933 4.185 3.10657 0
M  V30 645 C 58.261 4.98772 3.08939 0
M  V30 646 C 60.613 5.53769 3.05814 0
M  V30 647 C 59.277 5.94041 3.04419 0
M  V30 648 H 58.547 0.388091 0.631242 0
M  V30 649 H 61.194 1.52963 1.15215 0
M  V30 650 H 59.499 1.18116 3.73572 0
M  V30 651 H 61.196 1.56982 3.68996 0
M  V30 652 H 57.786 2.90022 3.15571 0
M  V30 653 H 61.97 3.87911 3.09579 0
M  V30 654 H 57.226 5.29193 3.0621 0
M  V30 655 H 61.4 6.27808 3.0138 0
M  V30 656 H 59.027 6.98833 2.99227 0
M  V30 657 N 60.6021 -1.18246 1.0419 0
M  V30 658 C 61.8321 -1.91916 0.764961 0
M  V30 659 C 62.2401 -1.76485 -0.681898 0
M  V30 660 O 61.5831 -1.09275 -1.47664 0
M  V30 661 C 61.6451 -3.4373 1.05309 0
M  V30 662 C 61.3091 -3.8294 2.4941 0
M  V30 663 C 62.3061 -3.86621 3.47592 0
M  V30 664 C 59.9911 -4.142 2.84155 0
M  V30 665 C 61.9851 -4.21013 4.78568 0
M  V30 666 C 59.6721 -4.48262 4.15337 0
M  V30 667 C 60.6701 -4.51645 5.12353 0
M  V30 668 O 60.3581 -4.84911 6.41183 0
M  V30 669 H 60.0901 -0.61606 0.278292 0
M  V30 670 H 62.6441 -1.50947 1.39299 0
M  V30 671 H 60.8741 -3.84946 0.367933 0
M  V30 672 H 62.5631 -3.9865 0.763752 0
M  V30 673 H 63.3291 -3.62607 3.22089 0
M  V30 674 H 59.2081 -4.10743 2.09311 0
M  V30 675 H 62.7521 -4.23568 5.54289 0
M  V30 676 H 58.6491 -4.71737 4.40607 0
M  V30 677 H 59.4171 -5.02809 6.45852 0
M  V30 678 N 62.0802 -0.821533 -1.34494 0
M  V30 679 C 63.4912 -0.467956 -1.8074 0
M  V30 680 C 63.8422 1.01151 -1.68116 0
M  V30 681 O 62.9672 1.78707 -1.22036 0
M  V30 682 C 63.5622 -0.842627 -3.28154 0
M  V30 683 C 62.1212 -0.541439 -3.72485 0
M  V30 684 C 61.2682 -1.06028 -2.56229 0
M  V30 685 H 64.2192 -1.01183 -1.22261 0
M  V30 686 H 64.2402 -0.145876 -3.8022 0
M  V30 687 H 63.7522 -1.91945 -3.37311 0
M  V30 688 H 61.8532 0.526034 -3.68868 0
M  V30 689 H 61.9662 -1.08453 -4.66663 0
M  V30 690 H 60.3302 -0.481892 -2.501 0
M  V30 691 H 61.1132 -2.14352 -2.68157 0
M  V30 692 N 63.5583 1.46682 -0.576371 0
M  V30 693 C 64.4883 2.33028 0.148397 0
M  V30 694 C 65.4693 1.44961 0.889956 0
M  V30 695 O 66.6543 1.73789 0.866662 0
M  V30 696 C 63.7843 3.27117 1.1667 0
M  V30 697 C 62.7383 4.24575 0.540386 0
M  V30 698 C 62.0643 5.08126 1.6647 0
M  V30 699 C 63.3643 5.19722 -0.518331 0
M  V30 700 H 65.0583 2.93875 -0.572509 0
M  V30 701 H 62.6043 1.41315 -0.276768 0
M  V30 702 H 64.5573 3.86374 1.68204 0
M  V30 703 H 63.2813 2.64364 1.9178 0
M  V30 704 H 61.9403 3.66571 0.0461769 0
M  V30 705 H 61.5883 4.41762 2.40531 0
M  V30 706 H 61.2883 5.74122 1.25131 0
M  V30 707 H 62.8123 5.70246 2.18293 0
M  V30 708 H 64.2263 5.73232 -0.0883058 0
M  V30 709 H 62.6233 5.94026 -0.851679 0
M  V30 710 H 63.6933 4.64037 -1.40703 0
M  V30 711 N 65.0364 0.313813 1.54444 0
M  V30 712 C 66.3134 -0.345447 1.92525 0
M  V30 713 C 66.6934 -1.70667 1.24242 0
M  V30 714 O 66.0414 -2.25273 0.382654 0
M  V30 715 C 66.2514 -0.44737 3.46121 0
M  V30 716 C 67.5994 -0.712238 4.18584 0
M  V30 717 O 68.6234 -0.530678 3.52225 0
M  V30 718 O 67.4824 -1.06183 5.36085 0
M  V30 719 H 64.5764 -0.195407 0.803583 0
M  V30 720 H 67.1224 0.362813 1.65776 0
M  V30 721 H 65.8944 0.509043 3.87975 0
M  V30 722 H 65.5174 -1.20359 3.78945 0
M  V30 723 N 66.5145 -1.57545 0.0417849 0
M  V30 724 C 67.7615 -1.92317 -0.634082 0
M  V30 725 C 68.0895 -0.919334 -1.71402 0
M  V30 726 O 67.3445 0.0698253 -1.95575 0
M  V30 727 C 67.6435 -3.33794 -1.27735 0
M  V30 728 C 67.3095 -4.49716 -0.326543 0
M  V30 729 C 65.9715 -4.81156 -0.0648814 0
M  V30 730 C 68.3235 -5.20182 0.325623 0
M  V30 731 C 65.6515 -5.80414 0.856539 0
M  V30 732 C 68.0035 -6.20424 1.23518 0
M  V30 733 C 66.6675 -6.50298 1.5056 0
M  V30 734 H 65.9375 -0.703736 -0.232027 0
M  V30 735 H 68.5845 -1.91205 0.106259 0
M  V30 736 H 66.8895 -3.31228 -2.09274 0
M  V30 737 H 68.5865 -3.57975 -1.80707 0
M  V30 738 H 65.1765 -4.25176 -0.540665 0
M  V30 739 H 69.3605 -4.96112 0.136546 0
M  V30 740 H 64.6165 -6.019 1.07363 0
M  V30 741 H 68.7905 -6.74141 1.74664 0
M  V30 742 H 66.4175 -7.27025 2.22123 0
M  V30 743 N 67.9926 0.231505 -1.5589 0
M  V30 744 C 69.2206 0.974505 -1.82513 0
M  V30 745 C 69.6356 1.78344 -0.619591 0
M  V30 746 O 68.9926 1.77792 0.411848 0
M  V30 747 C 69.0436 1.90007 -3.07538 0
M  V30 748 O 68.7646 1.12385 -4.2344 0
M  V30 749 C 70.2656 2.75779 -3.47075 0
M  V30 750 H 67.4856 0.286065 -0.606966 0
M  V30 751 H 70.0296 0.249739 -2.02969 0
M  V30 752 H 68.1846 2.57891 -2.89086 0
M  V30 753 H 68.5986 1.75125 -4.944 0
M  V30 754 H 70.0726 3.36443 -4.37619 0
M  V30 755 H 70.5496 3.47672 -2.68367 0
M  V30 756 H 71.1556 2.13323 -3.67931 0
M  V30 757 N 69.4707 1.49531 0.497807 0
M  V30 758 C 70.7177 1.59179 1.25173 0
M  V30 759 C 71.0457 0.279932 1.92475 0
M  V30 760 O 70.3007 -0.732383 1.81479 0
M  V30 761 C 70.5997 2.70252 2.33878 0
M  V30 762 C 70.2657 4.11644 1.84012 0
M  V30 763 C 68.9277 4.50121 1.70132 0
M  V30 764 C 71.2797 5.00121 1.46725 0
M  V30 765 C 68.6077 5.74845 1.17348 0
M  V30 766 C 70.9597 6.25366 0.95392 0
M  V30 767 C 69.6237 6.6267 0.801538 0
M  V30 768 H 68.8937 0.582478 0.45804 0
M  V30 769 H 71.5407 1.83373 0.551948 0
M  V30 770 H 69.8457 2.40041 3.09657 0
M  V30 771 H 71.5427 2.74925 2.9192 0
M  V30 772 H 68.1327 3.81274 1.95775 0
M  V30 773 H 72.3167 4.71048 1.56294 0
M  V30 774 H 67.5727 6.02444 1.04264 0
M  V30 775 H 71.7467 6.93301 0.656225 0
M  V30 776 H 69.3737 7.59197 0.390351 0
M  V30 777 N 70.9488 -0.749086 1.3866 0
M  V30 778 C 72.1948 -1.51056 1.35314 0
M  V30 779 C 72.5278 -1.94121 -0.0553751 0
M  V30 780 O 71.8028 -1.65763 -1.01749 0
M  V30 781 C 72.0858 -2.76003 2.31288 0
M  V30 782 C 71.9388 -2.39047 3.8102 0
M  V30 783 C 73.2578 -3.78046 2.2532 0
M  V30 784 H 70.3768 -0.547972 0.492844 0
M  V30 785 H 73.0188 -0.857628 1.69543 0
M  V30 786 H 71.1688 -3.31716 2.02229 0
M  V30 787 H 72.8408 -1.89074 4.20771 0
M  V30 788 H 71.0838 -1.71449 3.98482 0
M  V30 789 H 71.7548 -3.28462 4.4364 0
M  V30 790 H 74.2308 -3.31884 2.50983 0
M  V30 791 H 73.1068 -4.63159 2.94576 0
M  V30 792 H 73.3678 -4.23957 1.25352 0
M  V30 793 N 72.4269 -1.23603 -0.977757 0
M  V30 794 C 73.6669 -1.08148 -1.73446 0
M  V30 795 C 74.0309 0.374785 -1.88307 0
M  V30 796 O 75.2319 0.650588 -2.60808 0
M  V30 797 C 73.5029 -1.78991 -3.0935 0
M  V30 798 S 75.0619 -1.79141 -4.00567 0
M  V30 799 H 71.8799 -0.386987 -0.596458 0
M  V30 800 H 74.4819 -1.5678 -1.16792 0
M  V30 801 H 73.1859 -2.8408 -2.96187 0
M  V30 802 H 72.7169 -1.30651 -3.71071 0
M  V30 803 H 74.7319 -0.851892 -4.88833 0
M  V30 804 N 73.905 1.17692 -1.04816 0
M  V30 805 C 75.316 1.69501 -0.782698 0
M  V30 806 C 75.667 1.83456 0.695577 0
M  V30 807 O 74.792 1.51942 1.54086 0
M  V30 808 C 75.387 3.07874 -1.41419 0
M  V30 809 C 73.946 3.56864 -1.19686 0
M  V30 810 C 73.093 2.3322 -1.50012 0
M  V30 811 H 76.044 1.02262 -1.2136 0
M  V30 812 H 76.065 3.71528 -0.821428 0
M  V30 813 H 75.577 2.97685 -2.49009 0
M  V30 814 H 73.678 3.72337 -0.140043 0
M  V30 815 H 73.791 4.39851 -1.89916 0
M  V30 816 H 72.155 2.37501 -0.920071 0
M  V30 817 H 72.938 2.25644 -2.58727 0
M  V30 818 N 75.3831 0.828654 1.34056 0
M  V30 819 C 76.6081 0.431637 2.02859 0
M  V30 820 C 77.0331 -0.956339 1.61975 0
M  V30 821 O 76.3911 -1.62338 0.807228 0
M  V30 822 C 76.4391 0.548323 3.56407 0
M  V30 823 O 75.5431 -0.429556 4.10157 0
M  V30 824 H 74.8841 0.176886 0.640006 0
M  V30 825 H 77.4141 1.12066 1.71179 0
M  V30 826 H 77.4241 0.426196 4.05768 0
M  V30 827 H 76.0991 1.5606 3.8551 0
M  V30 828 H 74.6761 -0.265836 3.71951 0
M  V30 829 N 76.8612 -1.46375 0.584142 0
M  V30 830 C 77.7712 -2.34115 -0.150728 0
M  V30 831 C 78.7872 -1.49838 -0.884567 0
M  V30 832 O 79.9632 -1.82704 -0.847429 0
M  V30 833 C 77.0282 -3.2705 -1.15062 0
M  V30 834 C 76.0892 -4.27228 -0.421293 0
M  V30 835 C 75.3222 -5.15722 -1.37355 0
M  V30 836 O 75.5452 -5.07176 -2.61014 0
M  V30 837 O 74.4792 -5.95383 -0.883355 0
M  V30 838 H 78.3052 -2.98309 0.569708 0
M  V30 839 H 75.8902 -1.45373 0.344535 0
M  V30 840 H 77.7722 -3.84381 -1.72712 0
M  V30 841 H 76.4472 -2.65451 -1.8525 0
M  V30 842 H 75.3542 -3.7358 0.197085 0
M  V30 843 H 76.6872 -4.91616 0.239641 0
M  V30 844 N 78.3393 -0.321999 -1.54275 0
M  V30 845 C 79.5883 0.281931 -1.9972 0
M  V30 846 C 79.9013 1.53369 -1.21397 0
M  V30 847 O 81.1073 2.21352 -1.57211 0
M  V30 848 C 79.5633 0.5529 -3.55628 0
M  V30 849 C 79.1713 -0.681721 -4.42783 0
M  V30 850 C 80.9153 1.11687 -4.09544 0
M  V30 851 C 78.8223 -0.382742 -5.9016 0
M  V30 852 H 77.7523 0.109124 -0.746062 0
M  V30 853 H 80.4033 -0.43398 -1.78294 0
M  V30 854 H 78.7853 1.32896 -3.73035 0
M  V30 855 H 79.9593 -1.45723 -4.37151 0
M  V30 856 H 78.2743 -1.1658 -3.99748 0
M  V30 857 H 80.8713 1.35515 -5.17242 0
M  V30 858 H 81.2143 2.06575 -3.61431 0
M  V30 859 H 81.7473 0.402032 -3.95763 0
M  V30 860 H 78.4863 -1.30076 -6.42464 0
M  V30 861 H 78.0063 0.355094 -5.98748 0
M  V30 862 H 79.6853 0.00800157 -6.47 0
M  V30 863 N 79.8174 1.5752 -0.0501392 0
M  V30 864 C 81.0664 1.91827 0.623328 0
M  V30 865 C 81.3794 0.930222 1.72065 0
M  V30 866 O 82.5854 1.1653 2.4522 0
M  V30 867 C 81.0414 3.40692 1.16003 0
M  V30 868 C 80.6494 4.479 0.0948811 0
M  V30 869 C 82.3934 3.84034 1.80881 0
M  V30 870 C 80.3004 5.87879 0.644411 0
M  V30 871 H 79.2304 0.715918 0.236596 0
M  V30 872 H 81.8814 1.83115 -0.118861 0
M  V30 873 H 80.2634 3.44405 1.9545 0
M  V30 874 H 81.4374 4.55775 -0.678675 0
M  V30 875 H 79.7524 4.13892 -0.45637 0
M  V30 876 H 82.3494 4.85984 2.22988 0
M  V30 877 H 82.6924 3.20225 2.6601 0
M  V30 878 H 83.2254 3.82833 1.0809 0
M  V30 879 H 79.9644 6.55282 -0.169229 0
M  V30 880 H 79.4844 5.83567 1.38598 0
M  V30 881 H 81.1634 6.37098 1.12763 0
M  V30 882 N 81.2955 -0.223234 1.56011 0
M  V30 883 C 82.2585 -1.26014 1.9145 0
M  V30 884 C 83.2585 -1.3989 0.792937 0
M  V30 885 O 84.4485 -1.38184 1.0607 0
M  V30 886 C 81.5805 -2.63422 2.16383 0
M  V30 887 H 82.7735 -0.95796 2.84189 0
M  V30 888 H 80.3265 -0.463576 1.49267 0
M  V30 889 H 81.0615 -2.98741 1.2619 0
M  V30 890 H 80.8465 -2.54728 2.98088 0
M  V30 891 H 82.3365 -3.38249 2.44903 0
M  V30 892 N 82.7736 -1.49793 -0.48987 0
M  V30 893 C 83.7036 -1.70201 -1.59856 0
M  V30 894 C 84.6846 -0.55076 -1.60937 0
M  V30 895 O 85.8696 -0.787841 -1.77501 0
M  V30 896 C 82.9996 -1.77882 -2.98287 0
M  V30 897 C 81.9536 -2.92907 -3.12073 0
M  V30 898 C 81.2796 -2.85712 -4.51965 0
M  V30 899 C 82.5796 -4.3369 -2.91051 0
M  V30 900 H 84.2736 -2.63025 -1.43032 0
M  V30 901 H 81.8196 -1.26574 -0.686664 0
M  V30 902 H 83.7726 -1.90744 -3.75759 0
M  V30 903 H 82.4966 -0.816653 -3.16225 0
M  V30 904 H 81.1556 -2.79665 -2.37029 0
M  V30 905 H 80.8036 -1.8738 -4.66795 0
M  V30 906 H 80.5036 -3.62921 -4.62128 0
M  V30 907 H 82.0276 -3.00598 -5.31482 0
M  V30 908 H 83.4416 -4.47555 -3.58284 0
M  V30 909 H 81.8386 -5.12205 -3.12675 0
M  V30 910 H 82.9086 -4.47362 -1.87071 0
M  V30 911 N 84.2517 0.741722 -1.39055 0
M  V30 912 C 85.5287 1.49252 -1.26425 0
M  V30 913 C 85.9087 2.10705 0.129144 0
M  V30 914 O 85.2567 1.98045 1.13976 0
M  V30 915 C 85.4667 2.54934 -2.38347 0
M  V30 916 C 86.8147 3.21506 -2.77343 0
M  V30 917 O 87.8387 2.65245 -2.37747 0
M  V30 918 O 86.6977 4.23294 -3.45665 0
M  V30 919 H 83.7917 0.662451 -0.495064 0
M  V30 920 H 86.3377 0.776121 -1.50912 0
M  V30 921 H 85.1097 2.07857 -3.31529 0
M  V30 922 H 84.7327 3.34141 -2.15489 0
M  V30 923 N 85.7298 1.2412 0.971189 0
M  V30 924 C 86.6768 1.0305 2.06517 0
M  V30 925 C 87.6468 -0.0550666 1.66009 0
M  V30 926 O 88.8318 0.0988688 1.90544 0
M  V30 927 C 85.9718 0.637653 3.39158 0
M  V30 928 C 85.0848 1.79633 3.92882 0
M  V30 929 C 84.2198 1.34939 5.13775 0
M  V30 930 C 83.2588 2.47823 5.59687 0
M  V30 931 N 82.3958 2.04022 6.71803 0
M  V30 932 H 87.2358 1.96685 2.23873 0
M  V30 933 H 84.7728 0.979694 1.09729 0
M  V30 934 H 86.7308 0.390931 4.15364 0
M  V30 935 H 85.3608 -0.261693 3.21737 0
M  V30 936 H 84.4128 2.15681 3.13346 0
M  V30 937 H 85.7248 2.64466 4.22918 0
M  V30 938 H 84.8788 1.06134 5.97345 0
M  V30 939 H 83.6178 0.471557 4.85415 0
M  V30 940 H 82.6228 2.77392 4.74693 0
M  V30 941 H 83.8478 3.36158 5.90063 0
M  V30 942 H 81.7938 1.18632 6.45184 0
M  V30 943 H 81.7108 2.82409 7.01271 0
M  V30 944 H 82.9788 1.78347 7.58823 0
M  V30 945 N 87.2079 -1.17134 1.05439 0
M  V30 946 C 88.1709 -2.19439 0.661764 0
M  V30 947 C 89.1709 -1.58199 -0.288042 0
M  V30 948 O 90.3609 -1.74053 -0.0715803 0
M  V30 949 C 87.4929 -3.40889 -0.0276209 0
M  V30 950 H 88.6859 -2.55688 1.56728 0
M  V30 951 H 86.2389 -1.31259 0.848567 0
M  V30 952 H 86.9739 -3.10187 -0.94629 0
M  V30 953 H 86.7589 -3.86586 0.655238 0
M  V30 954 H 88.2489 -4.16603 -0.288342 0
M  V30 955 N 88.686 -0.835752 -1.33615 0
M  V30 956 C 89.616 -0.281739 -2.31794 0
M  V30 957 C 90.597 0.608833 -1.58831 0
M  V30 958 O 91.782 0.533035 -1.86741 0
M  V30 959 C 88.912 0.546612 -3.42971 0
M  V30 960 C 87.866 -0.247904 -4.27281 0
M  V30 961 C 87.192 0.704001 -5.30045 0
M  V30 962 C 88.492 -1.46324 -5.01385 0
M  V30 963 H 90.186 -1.10206 -2.78379 0
M  V30 964 H 87.732 -0.531388 -1.33837 0
M  V30 965 H 89.685 0.944467 -4.1068 0
M  V30 966 H 88.409 1.40011 -2.95067 0
M  V30 967 H 87.068 -0.627281 -3.61194 0
M  V30 968 H 86.716 1.55381 -4.78399 0
M  V30 969 H 86.416 0.176524 -5.87335 0
M  V30 970 H 87.94 1.09944 -6.0062 0
M  V30 971 H 89.354 -1.13871 -5.61877 0
M  V30 972 H 87.751 -1.92728 -5.6831 0
M  V30 973 H 88.821 -2.23467 -4.30338 0
M  V30 974 N 90.1641 1.46063 -0.591896 0
M  V30 975 C 91.4411 1.95595 -0.0137119 0
M  V30 976 C 91.8211 1.5345 1.4497 0
M  V30 977 O 91.1691 0.789543 2.14426 0
M  V30 978 C 91.3791 3.48453 -0.195373 0
M  V30 979 C 92.7271 4.24546 -0.0679765 0
M  V30 980 O 93.7511 3.55982 -0.124681 0
M  V30 981 O 92.6101 5.46467 0.0600579 0
M  V30 982 H 89.7041 0.825795 0.0446279 0
M  V30 983 H 92.2501 1.56303 -0.660859 0
M  V30 984 H 91.0221 3.72045 -1.21235 0
M  V30 985 H 90.6451 3.94597 0.487775 0
M  V30 986 N 91.6422 0.330177 1.54103 0
M  V30 987 C 92.6052 -0.520144 2.2322 0
M  V30 988 C 93.6052 -1.03828 1.22786 0
M  V30 989 O 94.7952 -0.929652 1.4732 0
M  V30 990 C 91.9272 -1.72317 2.94142 0
M  V30 991 H 93.1202 0.0841605 2.99782 0
M  V30 992 H 90.6732 0.0813433 1.56088 0
M  V30 993 H 91.4082 -2.36653 2.21734 0
M  V30 994 H 91.1932 -1.35898 3.67796 0
M  V30 995 H 92.6832 -2.3266 3.46784 0
M  V30 996 N 93.1203 -1.57491 0.0584922 0
M  V30 997 C 94.3673 -1.92978 -0.613648 0
M  V30 998 C 94.6953 -0.937461 -1.70417 0
M  V30 999 O 93.9503 0.049078 -1.95638 0
M  V30 1000 C 94.2493 -3.3513 -1.24188 0
M  V30 1001 C 93.9153 -4.50037 -0.278826 0
M  V30 1002 C 92.5773 -4.81198 -0.0138447 0
M  V30 1003 C 94.9293 -5.19807 0.380777 0
M  V30 1004 C 92.2573 -5.79473 0.918052 0
M  V30 1005 C 94.6093 -6.19079 1.30091 0
M  V30 1006 C 93.2733 -6.48665 1.57449 0
M  V30 1007 H 92.5433 -0.706157 -0.22455 0
M  V30 1008 H 95.1903 -1.91082 0.126533 0
M  V30 1009 H 93.4953 -3.33429 -2.05749 0
M  V30 1010 H 95.1923 -3.59871 -1.769 0
M  V30 1011 H 91.7823 -4.25726 -0.495539 0
M  V30 1012 H 95.9663 -4.95939 0.189158 0
M  V30 1013 H 91.2223 -6.00727 1.1374 0
M  V30 1014 H 95.3963 -6.7225 1.81804 0
M  V30 1015 H 93.0233 -7.24628 2.29822 0
M  V30 1016 N 94.5984 0.214957 -1.56127 0
M  V30 1017 C 95.5454 1.26642 -1.92952 0
M  V30 1018 C 96.5154 1.46244 -0.78753 0
M  V30 1019 O 97.7004 1.59704 -1.04399 0
M  V30 1020 C 94.8404 2.6104 -2.25726 0
M  V30 1021 C 93.9534 2.49183 -3.52891 0
M  V30 1022 C 93.0884 3.76149 -3.7508 0
M  V30 1023 C 92.1274 3.59041 -4.95738 0
M  V30 1024 N 91.2644 4.77972 -5.14283 0
M  V30 1025 H 96.1044 0.945384 -2.82607 0
M  V30 1026 H 93.6414 0.455489 -1.3987 0
M  V30 1027 H 95.5994 3.39313 -2.42739 0
M  V30 1028 H 94.2294 2.91227 -1.39236 0
M  V30 1029 H 93.2814 1.6231 -3.44034 0
M  V30 1030 H 94.5934 2.32466 -4.41318 0
M  V30 1031 H 93.7474 4.62865 -3.92226 0
M  V30 1032 H 92.4864 3.95799 -2.84947 0
M  V30 1033 H 91.4914 2.7071 -4.78535 0
M  V30 1034 H 92.7164 3.40856 -5.87362 0
M  V30 1035 H 90.6624 4.97923 -4.27093 0
M  V30 1036 H 90.5794 4.64006 -5.96853 0
M  V30 1037 H 91.8474 5.66096 -5.35869 0
M  V30 1038 N 96.0765 1.50051 0.48192 0
M  V30 1039 C 96.9865 1.7089 1.60728 0
M  V30 1040 C 98.0025 0.591788 1.63627 0
M  V30 1041 O 99.1785 0.868817 1.81696 0
M  V30 1042 C 96.2435 1.78855 2.97005 0
M  V30 1043 C 95.3045 3.02537 3.04581 0
M  V30 1044 C 94.5375 3.10112 4.34357 0
M  V30 1045 O 94.7605 2.24765 5.24249 0
M  V30 1046 O 93.6945 4.02747 4.47301 0
M  V30 1047 H 97.5205 2.66264 1.46072 0
M  V30 1048 H 95.1055 1.34018 0.660264 0
M  V30 1049 H 96.9875 1.86336 3.77964 0
M  V30 1050 H 95.6625 0.866628 3.11883 0
M  V30 1051 H 94.5695 3.00563 2.22739 0
M  V30 1052 H 95.9025 3.94272 2.94636 0
M  V30 1053 N 97.5546 -0.734337 1.39446 0
M  V30 1054 C 98.9706 -1.03997 1.21065 0
M  V30 1055 C 99.1706 -2.01369 0.0727019 0
M  V30 1056 O 98.2266 -2.45856 -0.575426 0
M  V30 1057 C 99.5396 -1.60163 2.54496 0
M  V30 1058 C 101.088 -1.7224 2.61347 0
M  V30 1059 C 101.563 -2.31814 3.95002 0
M  V30 1060 N 103.054 -2.39223 3.96644 0
M  V30 1061 C 103.789 -2.86258 4.96834 0
M  V30 1062 N 103.285 -3.33184 6.07421 0
M  V30 1063 N 105.078 -2.85473 4.84213 0
M  V30 1064 H 97.2286 -0.0885624 2.12215 0
M  V30 1065 H 99.4916 -0.10191 0.942506 0
M  V30 1066 H 99.1976 -0.960811 3.38321 0
M  V30 1067 H 99.0716 -2.5896 2.74262 0
M  V30 1068 H 101.459 -2.35443 1.77906 0
M  V30 1069 H 101.54 -0.720939 2.4543 0
M  V30 1070 H 101.184 -1.69238 4.78875 0
M  V30 1071 H 101.114 -3.32638 4.08239 0
M  V30 1072 H 103.605 -2.06057 3.16779 0
M  V30 1073 H 103.918 -3.67586 6.7978 0
M  V30 1074 H 102.263 -3.31191 6.11013 0
M  V30 1075 H 105.454 -2.48136 3.96921 0
M  V30 1076 H 105.627 -3.21814 5.62441 0
M  V30 1077 N 99.0327 -1.24633 -0.964593 0
M  V30 1078 C 99.9807 -1.03917 -2.08096 0
M  V30 1079 C 100.975 0.0268581 -1.69379 0
M  V30 1080 O 102.181 -0.127952 -1.79545 0
M  V30 1081 H 98.5557 -0.319044 -0.680966 0
M  V30 1082 H 100.527 -1.98581 -2.22729 0
M  V30 1083 C 99.2757 -0.663983 -3.41301 0
M  V30 1084 H 98.5987 -1.47605 -3.71555 0
M  V30 1085 H 100.039 -0.558663 -4.20303 0
M  V30 1086 C 98.4977 0.629169 -3.30973 0
M  V30 1087 O 99.0277 1.67404 -3.65156 0
M  V30 1088 N 97.2337 0.611057 -2.84103 0
M  V30 1089 H 96.7807 -0.239593 -2.56483 0
M  V30 1090 H 96.7387 1.47647 -2.77575 0
M  V30 1091 N 100.511 1.16574 -1.06058 0
M  V30 1092 C 101.757 1.87324 -0.777022 0
M  V30 1093 C 102.09 1.81351 0.694645 0
M  V30 1094 O 101.365 1.22753 1.50871 0
M  V30 1095 C 101.648 3.36991 -1.26922 0
M  V30 1096 C 101.501 3.51667 -2.80447 0
M  V30 1097 C 102.82 4.3131 -0.87521 0
M  V30 1098 H 99.9388 0.680191 -0.28374 0
M  V30 1099 H 102.581 1.37036 -1.3161 0
M  V30 1100 H 100.731 3.79949 -0.81063 0
M  V30 1101 H 102.403 3.17664 -3.34495 0
M  V30 1102 H 100.646 2.93656 -3.19294 0
M  V30 1103 H 101.317 4.56766 -3.0995 0
M  V30 1104 H 103.793 3.9624 -1.27014 0
M  V30 1105 H 102.669 5.34545 -1.2471 0
M  V30 1106 H 102.93 4.41552 0.220071 0
M  V30 1107 N 101.989 0.842826 1.3317 0
M  V30 1108 C 102.899 0.281444 2.32906 0
M  V30 1109 C 103.915 -0.594587 1.63526 0
M  V30 1110 O 105.091 -0.49777 1.95152 0
M  V30 1111 C 102.156 -0.530929 3.42611 0
M  V30 1112 C 101.217 0.369843 4.27704 0
M  V30 1113 C 100.45 -0.403853 5.3217 0
M  V30 1114 O 100.673 -1.63513 5.46461 0
M  V30 1115 O 99.6069 0.224199 6.01482 0
M  V30 1116 H 103.433 1.10744 2.82789 0
M  V30 1117 H 101.018 0.60545 1.36582 0
M  V30 1118 H 102.9 -0.992437 4.09547 0
M  V30 1119 H 101.575 -1.33392 2.94938 0
M  V30 1120 H 100.482 0.879275 3.6362 0
M  V30 1121 H 101.815 1.13771 4.78871 0
M  V30 1122 N 103.467 -1.45747 0.599634 0
M  V30 1123 C 104.397 -2.33235 -0.111306 0
M  V30 1124 C 105.378 -1.46359 -0.866781 0
M  V30 1125 O 106.563 -1.75146 -0.838904 0
M  V30 1126 C 103.693 -3.28932 -1.11451 0
M  V30 1127 C 102.647 -4.25381 -0.472772 0
M  V30 1128 C 101.973 -5.1071 -1.58365 0
M  V30 1129 C 103.273 -5.18831 0.600948 0
M  V30 1130 H 104.967 -2.92927 0.61919 0
M  V30 1131 H 102.513 -1.40857 0.299215 0
M  V30 1132 H 104.466 -3.89002 -1.62036 0
M  V30 1133 H 103.19 -2.67381 -1.8755 0
M  V30 1134 H 101.849 -3.66598 0.0121472 0
M  V30 1135 H 101.497 -4.45533 -2.33473 0
M  V30 1136 H 101.197 -5.7604 -1.15982 0
M  V30 1137 H 102.721 -5.73647 -2.09194 0
M  V30 1138 H 104.135 -5.73019 0.179491 0
M  V30 1139 H 102.532 -5.92595 0.946076 0
M  V30 1140 H 103.602 -4.6174 1.48068 0
M  V30 1141 N 104.945 -0.338344 -1.53925 0
M  V30 1142 C 106.194 0.260732 -2.00008 0
M  V30 1143 C 106.507 1.52073 -1.23017 0
M  V30 1144 O 107.713 2.19672 -1.5955 0
M  V30 1145 C 106.169 0.51515 -3.56194 0
M  V30 1146 C 105.777 -0.728645 -4.42035 0
M  V30 1147 C 107.521 1.07337 -4.10706 0
M  V30 1148 C 105.428 -0.445315 -5.89721 0
M  V30 1149 H 104.358 0.101205 -0.747177 0
M  V30 1150 H 107.009 -0.452866 -1.77824 0
M  V30 1151 H 105.391 1.28932 -3.74423 0
M  V30 1152 H 106.565 -1.50352 -4.35581 0
M  V30 1153 H 104.88 -1.20813 -3.98489 0
M  V30 1154 H 107.477 1.30022 -5.18651 0
M  V30 1155 H 107.82 2.0273 -3.63602 0
M  V30 1156 H 108.353 0.360034 -3.96167 0
M  V30 1157 H 105.092 -1.36883 -6.41049 0
M  V30 1158 H 104.612 0.291569 -5.99091 0
M  V30 1159 H 106.291 -0.0606218 -6.46972 0
M  V30 1160 N 106.423 1.57458 -0.0668435 0
M  V30 1161 C 107.671 1.92919 0.602214 0
M  V30 1162 C 107.992 0.947215 1.70449 0
M  V30 1163 O 107.262 -0.00544117 1.95899 0
M  V30 1164 H 105.842 0.71217 0.22544 0
M  V30 1165 H 108.504 1.94508 -0.123535 0
M  V30 1166 H 107.6 2.94589 1.03073 0
M  V30 1167 N 107.901 -0.206675 1.56239 0
M  V30 1168 C 109.141 -0.93574 1.81723 0
M  V30 1169 C 109.505 -1.80927 0.642609 0
M  V30 1170 O 110.706 -2.57323 0.777081 0
M  V30 1171 C 108.977 -1.74012 3.12177 0
M  V30 1172 S 110.536 -2.52279 3.59028 0
M  V30 1173 H 107.354 -0.314065 0.637875 0
M  V30 1174 H 109.956 -0.200071 1.94474 0
M  V30 1175 H 108.66 -1.0888 3.95693 0
M  V30 1176 H 108.191 -2.51782 3.02274 0
M  V30 1177 H 110.206 -3.76209 3.23545 0
M  V30 1178 N 109.379 -1.50304 -0.473955 0
M  V30 1179 C 110.604 -1.65175 -1.25427 0
M  V30 1180 C 111.029 -0.333673 -1.85117 0
M  V30 1181 O 110.387 0.702114 -1.67153 0
M  V30 1182 C 110.435 -2.74295 -2.34082 0
M  V30 1183 O 109.539 -2.35349 -3.38651 0
M  V30 1184 H 108.88 -0.551944 -0.369126 0
M  V30 1185 H 111.41 -1.96662 -0.564364 0
M  V30 1186 H 111.42 -2.97285 -2.79438 0
M  V30 1187 H 110.095 -3.69959 -1.90008 0
M  V30 1188 H 108.672 -2.22794 -2.99027 0
M  V30 1189 N 110.857 0.726932 -1.39834 0
M  V30 1190 C 112.103 1.48884 -1.377 0
M  V30 1191 C 112.436 1.94185 0.0244852 0
M  V30 1192 O 111.711 1.67361 0.990986 0
M  V30 1193 C 111.994 2.72288 -2.3565 0
M  V30 1194 C 111.847 2.32956 -3.84775 0
M  V30 1195 C 113.166 3.74414 -2.31306 0
M  V30 1196 H 110.285 0.540062 -0.5015 0
M  V30 1197 H 112.927 0.830547 -1.70886 0
M  V30 1198 H 111.077 3.28457 -2.07481 0
M  V30 1199 H 112.749 1.82356 -4.23726 0
M  V30 1200 H 110.992 1.65088 -4.01159 0
M  V30 1201 H 111.663 3.21362 -4.4881 0
M  V30 1202 H 114.139 3.27849 -2.56231 0
M  V30 1203 H 113.015 4.58414 -3.01907 0
M  V30 1204 H 113.276 4.21909 -1.32081 0
M  V30 1205 N 112.336 1.25143 0.95797 0
M  V30 1206 C 113.613 1.00472 1.67823 0
M  V30 1207 C 113.993 -0.470056 2.058 0
M  V30 1208 O 113.341 -1.44663 1.76875 0
M  V30 1209 C 113.551 1.9372 2.90299 0
M  V30 1210 C 114.899 2.21371 3.62326 0
M  V30 1211 O 115.923 1.91451 3.00375 0
M  V30 1212 O 114.782 2.72231 4.7387 0
M  V30 1213 H 111.876 0.380752 0.734137 0
M  V30 1214 H 114.422 1.36283 1.01119 0
M  V30 1215 H 113.194 2.93316 2.59001 0
M  V30 1216 H 112.817 1.58286 3.64735 0
M  V30 1217 N 113.814 -1.1601 1.06675 0
M  V30 1218 C 115.039 -1.91068 0.806706 0
M  V30 1219 C 115.464 -1.77112 -0.633485 0
M  V30 1220 O 114.822 -1.09908 -1.44187 0
M  V30 1221 C 114.87 -3.39655 1.21106 0
M  V30 1222 O 113.974 -4.10893 0.352189 0
M  V30 1223 H 113.315 -0.595125 0.294486 0
M  V30 1224 H 115.845 -1.46955 1.42356 0
M  V30 1225 H 115.855 -3.90434 1.18428 0
M  V30 1226 H 114.53 -3.49132 2.26008 0
M  V30 1227 H 113.107 -3.70285 0.440868 0
M  V30 1228 N 115.292 -0.849877 -1.32721 0
M  V30 1229 C 116.239 -0.289033 -2.28983 0
M  V30 1230 C 117.209 0.601324 -1.54833 0
M  V30 1231 O 118.394 0.537253 -1.8308 0
M  V30 1232 C 115.534 0.520623 -3.4115 0
M  V30 1233 C 114.647 -0.394989 -4.3019 0
M  V30 1234 C 113.782 0.426834 -5.29482 0
M  V30 1235 C 112.821 -0.486476 -6.10164 0
M  V30 1236 N 111.958 0.297879 -7.01468 0
M  V30 1237 H 116.798 -1.11519 -2.76347 0
M  V30 1238 H 114.335 -0.56138 -1.35967 0
M  V30 1239 H 116.293 1.00563 -4.04899 0
M  V30 1240 H 114.923 1.31165 -2.9495 0
M  V30 1241 H 113.975 -0.99836 -3.67065 0
M  V30 1242 H 115.287 -1.09612 -4.86607 0
M  V30 1243 H 114.441 0.975205 -5.98811 0
M  V30 1244 H 113.18 1.16136 -4.73671 0
M  V30 1245 H 112.185 -1.04677 -5.39743 0
M  V30 1246 H 113.41 -1.21953 -6.6806 0
M  V30 1247 H 111.356 1.01558 -6.48091 0
M  V30 1248 H 111.273 -0.344318 -7.55216 0
M  V30 1249 H 112.541 0.828131 -7.75089 0
M  V30 1250 N 116.77 1.45427 -0.607355 0
M  V30 1251 C 118 2.06314 -0.108656 0
M  V30 1252 C 118.408 1.45269 1.21217 0
M  V30 1253 O 117.751 0.561115 1.74921 0
M  V30 1254 C 117.813 3.59345 0.105618 0
M  V30 1255 C 117.477 4.42723 -1.13337 0
M  V30 1256 C 118.474 4.77715 -2.05145 0
M  V30 1257 C 116.159 4.83478 -1.36213 0
M  V30 1258 C 118.153 5.52317 -3.18158 0
M  V30 1259 C 115.84 5.57835 -2.49527 0
M  V30 1260 C 116.838 5.92171 -3.40327 0
M  V30 1261 O 116.526 6.65019 -4.51669 0
M  V30 1262 H 116.258 0.672782 -0.0658842 0
M  V30 1263 H 118.812 1.87664 -0.834945 0
M  V30 1264 H 117.042 3.76394 0.886796 0
M  V30 1265 H 118.731 4.02076 0.555886 0
M  V30 1266 H 119.497 4.46787 -1.88697 0
M  V30 1267 H 115.376 4.56188 -0.664362 0
M  V30 1268 H 118.92 5.79036 -3.89054 0
M  V30 1269 H 114.817 5.88177 -2.65928 0
M  V30 1270 H 115.585 6.83469 -4.50348 0
M  V30 1271 N 118.248 0.346503 1.53744 0
M  V30 1272 C 119.476 -0.25041 2.05379 0
M  V30 1273 C 119.891 -1.43979 1.22129 0
M  V30 1274 O 119.248 -1.80677 0.257321 0
M  V30 1275 C 119.299 -0.662575 3.55376 0
M  V30 1276 O 119.02 0.479515 4.35468 0
M  V30 1277 C 120.521 -1.31989 4.23195 0
M  V30 1278 H 117.741 -0.0478198 0.669294 0
M  V30 1279 H 120.285 0.499346 1.9831 0
M  V30 1280 H 118.44 -1.36227 3.62658 0
M  V30 1281 H 118.854 0.15037 5.24284 0
M  V30 1282 H 120.328 -1.55902 5.29527 0
M  V30 1283 H 120.805 -2.27436 3.75725 0
M  V30 1284 H 121.411 -0.662154 4.20114 0
M  V30 1285 N 119.726 -1.57421 0.075193 0
M  V30 1286 C 120.676 -2.09441 -0.901025 0
M  V30 1287 C 121.66 -1.00486 -1.25663 0
M  V30 1288 O 122.852 -1.2679 -1.23504 0
M  V30 1289 C 119.981 -2.66233 -2.16737 0
M  V30 1290 C 119.067 -3.82198 -1.83808 0
M  V30 1291 N 119.458 -4.91028 -1.21345 0
M  V30 1292 C 117.756 -3.91558 -2.13538 0
M  V30 1293 C 118.457 -5.71852 -1.06585 0
M  V30 1294 N 117.433 -5.20233 -1.57667 0
M  V30 1295 H 121.235 -2.90972 -0.413815 0
M  V30 1296 H 118.749 -1.6189 -0.128601 0
M  V30 1297 H 120.746 -3.01819 -2.87595 0
M  V30 1298 H 119.406 -1.8615 -2.66042 0
M  V30 1299 H 120.417 -5.10323 -0.88268 0
M  V30 1300 H 117.094 -3.22454 -2.65197 0
M  V30 1301 H 118.484 -6.69401 -0.578933 0
M  V30 1302 N 121.204 0.198386 -1.56346 0
M  V30 1303 C 122.134 1.24865 -1.9731 0
M  V30 1304 C 123.115 1.47651 -0.844576 0
M  V30 1305 O 124.3 1.59444 -1.10866 0
M  V30 1306 C 121.43 2.59358 -2.30977 0
M  V30 1307 C 120.384 2.5119 -3.46537 0
M  V30 1308 C 119.71 3.89926 -3.65871 0
M  V30 1309 C 121.01 2.03977 -4.80823 0
M  V30 1310 H 122.704 0.908252 -2.85291 0
M  V30 1311 H 120.25 0.435462 -1.37258 0
M  V30 1312 H 122.203 3.33011 -2.58228 0
M  V30 1313 H 120.927 2.95132 -1.39874 0
M  V30 1314 H 119.586 1.79993 -3.19371 0
M  V30 1315 H 119.234 4.23046 -2.72105 0
M  V30 1316 H 118.934 3.85336 -4.4361 0
M  V30 1317 H 120.458 4.65205 -3.95495 0
M  V30 1318 H 121.872 2.67386 -5.07127 0
M  V30 1319 H 120.269 2.10397 -5.62008 0
M  V30 1320 H 121.339 0.992861 -4.74626 0
M  V30 1321 N 122.682 1.50554 0.465978 0
M  V30 1322 C 123.645 1.69233 1.54574 0
M  V30 1323 C 124.645 0.562901 1.50626 0
M  V30 1324 O 125.835 0.830016 1.53155 0
M  V30 1325 C 122.967 1.7223 2.94193 0
M  V30 1326 H 124.16 2.65571 1.39327 0
M  V30 1327 H 121.713 1.40111 0.692711 0
M  V30 1328 H 122.448 0.77603 3.14878 0
M  V30 1329 H 122.233 2.54285 2.98466 0
M  V30 1330 H 123.723 1.88618 3.72576 0
M  V30 1331 N 124.16 -0.719506 1.40217 0
M  V30 1332 C 125.406 -1.48034 1.39491 0
M  V30 1333 C 125.761 -1.92399 -0.00443536 0
M  V30 1334 O 125.054 -1.64993 -0.974061 0
M  V30 1335 C 125.248 -2.72271 2.31524 0
M  V30 1336 C 125.077 -2.40055 3.80268 0
M  V30 1337 C 123.847 -2.31588 4.49105 0
M  V30 1338 C 126.045 -2.04581 4.71859 0
M  V30 1339 N 124.027 -1.92006 5.83101 0
M  V30 1340 C 125.398 -1.75568 5.94623 0
M  V30 1341 C 127.453 -1.91183 4.59732 0
M  V30 1342 C 126.156 -1.34505 7.06612 0
M  V30 1343 C 128.182 -1.51524 5.71659 0
M  V30 1344 C 127.544 -1.23406 6.93506 0
M  V30 1345 H 123.643 -0.539927 0.565688 0
M  V30 1346 H 126.227 -0.834764 1.75897 0
M  V30 1347 H 124.398 -3.34584 1.97251 0
M  V30 1348 H 126.13 -3.38584 2.21682 0
M  V30 1349 H 122.885 -2.49199 4.02737 0
M  V30 1350 H 123.309 -1.74764 6.54054 0
M  V30 1351 H 127.951 -2.11584 3.66049 0
M  V30 1352 H 125.669 -1.12846 8.00182 0
M  V30 1353 H 129.255 -1.41741 5.6427 0
M  V30 1354 H 128.135 -0.931788 7.78645 0
M  V30 1355 N 125.638 -1.25649 -0.95132 0
M  V30 1356 C 126.585 -1.06323 -2.04851 0
M  V30 1357 C 127.555 0.0286491 -1.66075 0
M  V30 1358 O 128.74 -0.12917 -1.90362 0
M  V30 1359 C 125.88 -0.691529 -3.381 0
M  V30 1360 C 124.993 -1.85861 -3.89974 0
M  V30 1361 C 124.128 -1.43096 -5.11563 0
M  V30 1362 C 123.167 -2.56696 -5.55674 0
M  V30 1363 N 122.304 -2.14684 -6.68472 0
M  V30 1364 H 127.144 -2.00222 -2.20715 0
M  V30 1365 H 124.681 -0.997027 -1.08156 0
M  V30 1366 H 126.639 -0.456963 -4.1469 0
M  V30 1367 H 125.269 0.210474 -3.22113 0
M  V30 1368 H 124.321 -2.20639 -3.09875 0
M  V30 1369 H 125.633 -2.71161 -4.18657 0
M  V30 1370 H 124.787 -1.15624 -5.9558 0
M  V30 1371 H 123.526 -0.548722 -4.84603 0
M  V30 1372 H 122.531 -2.84909 -4.7022 0
M  V30 1373 H 123.756 -3.45503 -5.8464 0
M  V30 1374 H 121.702 -1.28881 -6.43215 0
M  V30 1375 H 121.619 -2.9353 -6.96689 0
M  V30 1376 H 122.887 -1.90397 -7.5589 0
M  V30 1377 N 127.117 1.15442 -1.07289 0
M  V30 1378 C 128.064 2.20161 -0.692653 0
M  V30 1379 C 129.034 1.63073 0.31564 0
M  V30 1380 O 130.219 1.89725 0.202235 0
M  V30 1381 C 127.359 3.44967 -0.0959509 0
M  V30 1382 C 126.472 4.16256 -1.15564 0
M  V30 1383 C 125.607 5.28609 -0.524011 0
M  V30 1384 C 124.646 5.91715 -1.56653 0
M  V30 1385 N 123.783 6.9554 -0.957531 0
M  V30 1386 H 128.623 2.52037 -1.59002 0
M  V30 1387 H 126.16 1.2378 -0.794798 0
M  V30 1388 H 128.118 4.16341 0.267628 0
M  V30 1389 H 126.748 3.1361 0.764772 0
M  V30 1390 H 125.8 3.43385 -1.6368 0
M  V30 1391 H 127.112 4.59268 -1.94613 0
M  V30 1392 H 126.266 6.06604 -0.108032 0
M  V30 1393 H 125.005 4.86787 0.29825 0
M  V30 1394 H 124.01 5.12433 -1.9923 0
M  V30 1395 H 125.235 6.35614 -2.39107 0
M  V30 1396 H 123.181 6.55814 -0.156162 0
M  V30 1397 H 123.098 7.36977 -1.68526 0
M  V30 1398 H 124.366 7.77435 -0.567032 0
M  V30 1399 N 128.595 0.856903 1.32268 0
M  V30 1400 C 129.823 0.475439 2.01363 0
M  V30 1401 C 130.238 -0.928486 1.64392 0
M  V30 1402 O 129.595 -1.60624 0.866387 0
M  V30 1403 C 129.646 0.607545 3.56358 0
M  V30 1404 O 129.367 1.95617 3.92002 0
M  V30 1405 C 130.868 0.225382 4.42727 0
M  V30 1406 H 128.088 0.186636 0.644521 0
M  V30 1407 H 130.632 1.15446 1.68797 0
M  V30 1408 H 128.787 -0.0237719 3.87393 0
M  V30 1409 H 129.201 1.95455 4.86721 0
M  V30 1410 H 130.675 0.368813 5.50767 0
M  V30 1411 H 131.152 -0.834369 4.31202 0
M  V30 1412 H 131.758 0.831864 4.17085 0
M  V30 1413 N 130.073 -1.45103 0.615059 0
M  V30 1414 C 131.484 -1.85654 0.197383 0
M  V30 1415 C 131.835 -1.51433 -1.24749 0
M  V30 1416 O 130.96 -0.944608 -1.94695 0
M  V30 1417 C 131.555 -3.36972 0.351448 0
M  V30 1418 C 130.114 -3.76398 -0.011593 0
M  V30 1419 C 129.261 -2.69024 0.672394 0
M  V30 1420 H 132.212 -1.35797 0.821263 0
M  V30 1421 H 132.233 -3.78239 -0.414227 0
M  V30 1422 H 131.745 -3.61847 1.40314 0
M  V30 1423 H 129.846 -3.5714 -1.06217 0
M  V30 1424 H 129.959 -4.77532 0.387265 0
M  V30 1425 H 128.323 -2.54465 0.109284 0
M  V30 1426 H 129.106 -2.96735 1.72636 0
M  V30 1427 N 131.551 -0.354651 -1.53558 0
M  V30 1428 C 132.481 0.489091 -2.2832 0
M  V30 1429 C 133.462 1.09324 -1.30316 0
M  V30 1430 O 134.647 1.11255 -1.59173 0
M  V30 1431 C 131.777 1.63456 -3.0643 0
M  V30 1432 C 130.731 1.1582 -4.12031 0
M  V30 1433 C 130.057 2.39305 -4.7816 0
M  V30 1434 C 131.357 0.250731 -5.21698 0
M  V30 1435 H 133.051 -0.134614 -2.99097 0
M  V30 1436 H 130.597 -0.0661826 -1.43848 0
M  V30 1437 H 132.55 2.23136 -3.57475 0
M  V30 1438 H 131.274 2.28533 -2.33325 0
M  V30 1439 H 129.933 0.584146 -3.61916 0
M  V30 1440 H 129.581 3.02814 -4.01637 0
M  V30 1441 H 129.281 2.08109 -5.49513 0
M  V30 1442 H 130.805 2.99691 -5.31994 0
M  V30 1443 H 132.219 0.754695 -5.68311 0
M  V30 1444 H 130.616 0.0301468 -6.00092 0
M  V30 1445 H 131.686 -0.710125 -4.79672 0
M  V30 1446 N 133.029 1.57378 -0.0835403 0
M  V30 1447 C 134.257 1.98263 0.59157 0
M  V30 1448 C 134.672 0.962302 1.62435 0
M  V30 1449 O 134.029 -0.049581 1.82433 0
M  V30 1450 C 134.08 3.39214 1.24965 0
M  V30 1451 O 133.801 4.37339 0.258186 0
M  V30 1452 C 135.302 3.95038 2.01147 0
M  V30 1453 H 132.522 0.651773 0.159477 0
M  V30 1454 H 135.066 2.03878 -0.159415 0
M  V30 1455 H 133.221 3.34649 1.95164 0
M  V30 1456 H 133.635 5.19371 0.731734 0
M  V30 1457 H 135.109 4.95848 2.42567 0
M  V30 1458 H 135.586 3.32222 2.87272 0
M  V30 1459 H 136.192 4.0304 1.35789 0
M  V30 1460 N 134.507 -0.190092 1.56449 0
M  V30 1461 C 135.454 -1.23557 1.94942 0
M  V30 1462 C 136.424 -1.44972 0.810696 0
M  V30 1463 O 137.609 -1.58023 1.06927 0
M  V30 1464 C 134.749 -2.57416 2.2985 0
M  V30 1465 C 133.862 -2.43537 3.5681 0
M  V30 1466 C 132.997 -3.70134 3.81017 0
M  V30 1467 C 132.036 -3.51109 5.01387 0
M  V30 1468 N 131.173 -4.6973 5.21822 0
M  V30 1469 H 136.013 -0.900304 2.84075 0
M  V30 1470 H 133.55 -0.43318 1.40577 0
M  V30 1471 H 135.508 -3.35409 2.48106 0
M  V30 1472 H 134.138 -2.88975 1.43852 0
M  V30 1473 H 133.19 -1.56816 3.46573 0
M  V30 1474 H 134.502 -2.25415 4.4496 0
M  V30 1475 H 133.656 -4.56566 3.9954 0
M  V30 1476 H 132.395 -3.91215 2.91207 0
M  V30 1477 H 131.4 -2.63063 4.82782 0
M  V30 1478 H 132.625 -3.31468 5.9271 0
M  V30 1479 H 130.571 -4.91065 4.34961 0
M  V30 1480 H 130.488 -4.54452 6.0416 0
M  V30 1481 H 131.756 -5.57499 5.44808 0
M  V30 1482 N 135.985 -1.50799 -0.457987 0
M  V30 1483 C 137.233 -1.62121 -1.2067 0
M  V30 1484 C 137.554 -0.329793 -1.92191 0
M  V30 1485 O 136.824 0.653409 -1.84682 0
M  V30 1486 H 135.404 -0.597441 -0.448411 0
M  V30 1487 H 138.066 -1.87637 -0.527096 0
M  V30 1488 H 137.162 -2.43882 -1.94751 0
M  V30 1489 N 137.463 0.71206 -1.40597 0
M  V30 1490 C 138.711 1.46907 -1.38791 0
M  V30 1491 C 139.032 1.94998 0.00780391 0
M  V30 1492 O 138.302 1.70587 0.963174 0
M  V30 1493 H 136.882 0.545043 -0.51082 0
M  V30 1494 H 139.544 0.843882 -1.75683 0
M  V30 1495 H 138.64 2.34021 -2.06496 0
M  V30 1496 N 138.941 1.26152 0.944643 0
M  V30 1497 C 140.19 1.10883 1.68487 0
M  V30 1498 C 140.503 -0.348153 1.92477 0
M  V30 1499 O 141.709 -0.621459 2.64292 0
M  V30 1500 C 140.165 1.93624 3.03377 0
M  V30 1501 C 139.773 3.43875 2.87148 0
M  V30 1502 C 141.517 1.86954 3.81115 0
M  V30 1503 C 139.424 4.18875 4.1749 0
M  V30 1504 H 138.354 0.41135 0.631907 0
M  V30 1505 H 141.005 1.50433 1.05082 0
M  V30 1506 H 139.387 1.46904 3.67743 0
M  V30 1507 H 140.561 3.98338 2.31653 0
M  V30 1508 H 138.876 3.51744 2.22856 0
M  V30 1509 H 141.473 2.40275 4.77673 0
M  V30 1510 H 141.816 0.839518 4.07747 0
M  V30 1511 H 142.349 2.31477 3.23517 0
M  V30 1512 H 139.088 5.22332 3.96043 0
M  V30 1513 H 138.608 3.69193 4.72712 0
M  V30 1514 H 140.287 4.27134 4.85968 0
M  V30 1515 N 140.419 -1.14872 1.07899 0
M  V30 1516 C 141.667 -1.85422 0.803941 0
M  V30 1517 C 141.988 -1.83051 -0.67211 0
M  V30 1518 O 141.258 -1.27532 -1.48703 0
M  V30 1519 H 139.838 -0.686537 0.294408 0
M  V30 1520 H 142.5 -1.39226 1.3639 0
M  V30 1521 H 141.596 -2.90399 1.14346 0
M  V30 1522 N 141.898 -0.863906 -1.31812 0
M  V30 1523 C 142.846 -0.30422 -2.30602 0
M  V30 1524 C 143.84 0.577419 -1.59255 0
M  V30 1525 O 145.046 0.464194 -1.73912 0
M  V30 1526 H 141.421 -0.0796877 -0.747766 0
M  V30 1527 H 143.392 -1.15148 -2.75288 0
M  V30 1528 C 142.141 0.484617 -3.44306 0
M  V30 1529 H 141.464 -0.18451 -3.99374 0
M  V30 1530 H 142.904 0.841664 -4.15562 0
M  V30 1531 C 141.363 1.6735 -2.92396 0
M  V30 1532 O 141.893 2.77273 -2.90659 0
M  V30 1533 N 140.099 1.50362 -2.48676 0
M  V30 1534 H 139.646 0.609402 -2.50288 0
M  V30 1535 H 139.604 2.30051 -2.14299 0
M  V30 1536 N 143.376 1.44774 -0.622745 0
M  V30 1537 C 144.625 2.01334 -0.121397 0
M  V30 1538 C 144.938 1.49505 1.26125 0
M  V30 1539 O 146.144 1.98139 1.85616 0
M  V30 1540 C 144.6 3.59516 -0.166298 0
M  V30 1541 C 144.208 4.20342 -1.54974 0
M  V30 1542 C 145.952 4.23582 0.279021 0
M  V30 1543 C 143.859 5.70721 -1.55021 0
M  V30 1544 H 142.789 0.752851 -0.0416172 0
M  V30 1545 H 145.44 1.66083 -0.780309 0
M  V30 1546 H 143.822 3.92027 0.559557 0
M  V30 1547 H 144.996 3.99381 -2.29851 0
M  V30 1548 H 143.311 3.68529 -1.93843 0
M  V30 1549 H 145.908 5.33868 0.298083 0
M  V30 1550 H 146.251 3.95327 1.30471 0
M  V30 1551 H 146.784 3.95843 -0.394063 0
M  V30 1552 H 143.523 6.03698 -2.55399 0
M  V30 1553 H 143.043 5.93829 -0.844245 0
M  V30 1554 H 144.722 6.34203 -1.28047 0
M  V30 1555 N 144.854 0.36279 1.53368 0
M  V30 1556 C 145.786 -0.519668 2.23231 0
M  V30 1557 C 146.799 -1.04844 1.24546 0
M  V30 1558 O 147.988 -0.955296 1.50786 0
M  V30 1559 C 145.088 -1.72995 2.9142 0
M  V30 1560 C 144.261 -1.33316 4.16588 0
M  V30 1561 C 143.32 -2.40521 4.68013 0
M  V30 1562 O 142.346 -2.03027 5.3176 0
M  V30 1563 N 143.548 -3.72065 4.45587 0
M  V30 1564 H 146.313 0.078751 2.99597 0
M  V30 1565 H 143.874 0.187833 1.60807 0
M  V30 1566 H 145.866 -2.44184 3.22733 0
M  V30 1567 H 144.436 -2.2353 2.18525 0
M  V30 1568 H 143.656 -0.451236 3.91609 0
M  V30 1569 H 144.944 -1.04432 4.97967 0
M  V30 1570 H 144.342 -4.05304 3.94646 0
M  V30 1571 H 142.899 -4.39366 4.81457 0
M  V30 1572 N 146.332 -1.57332 0.0918853 0
M  V30 1573 C 147.282 -2.10385 -0.87876 0
M  V30 1574 C 148.266 -1.01814 -1.24591 0
M  V30 1575 O 149.458 -1.28093 -1.22152 0
M  V30 1576 C 146.587 -2.68517 -2.13901 0
M  V30 1577 C 145.673 -3.84126 -1.79744 0
M  V30 1578 N 146.064 -4.92288 -1.1613 0
M  V30 1579 C 144.362 -3.93801 -2.09373 0
M  V30 1580 C 145.063 -5.7295 -1.00513 0
M  V30 1581 N 144.039 -5.21876 -1.5214 0
M  V30 1582 H 147.841 -2.91395 -0.38293 0
M  V30 1583 H 145.355 -1.62017 -0.111423 0
M  V30 1584 H 147.352 -3.04852 -2.84378 0
M  V30 1585 H 146.012 -1.88961 -2.64053 0
M  V30 1586 H 147.023 -5.1123 -0.828504 0
M  V30 1587 H 143.7 -3.25249 -2.61762 0
M  V30 1588 H 145.09 -6.69978 -0.507902 0
M  V30 1589 N 147.81 0.181792 -1.56548 0
M  V30 1590 C 149.038 0.915947 -1.85521 0
M  V30 1591 C 149.453 1.76282 -0.676016 0
M  V30 1592 O 148.81 1.79012 0.355077 0
M  V30 1593 C 148.861 1.80126 -3.13427 0
M  V30 1594 O 148.582 0.988562 -4.26801 0
M  V30 1595 C 150.083 2.64597 -3.55673 0
M  V30 1596 H 147.303 0.26661 -0.61576 0
M  V30 1597 H 149.847 0.185039 -2.03661 0
M  V30 1598 H 148.002 2.48563 -2.97145 0
M  V30 1599 H 148.416 1.59308 -4.99721 0
M  V30 1600 H 149.89 3.2235 -4.48101 0
M  V30 1601 H 150.367 3.38958 -2.79292 0
M  V30 1602 H 150.973 2.0151 -3.74532 0
M  V30 1603 N 149.288 1.51039 0.449983 0
M  V30 1604 C 150.218 1.74379 1.55288 0
M  V30 1605 C 151.199 0.593236 1.5942 0
M  V30 1606 O 152.384 0.834625 1.7535 0
M  V30 1607 C 149.514 1.85728 2.93466 0
M  V30 1608 C 148.468 3.01078 3.04197 0
M  V30 1609 C 147.794 2.97595 4.44231 0
M  V30 1610 C 149.094 4.41254 2.7945 0
M  V30 1611 H 150.788 2.66725 1.36008 0
M  V30 1612 H 148.334 1.2835 0.652864 0
M  V30 1613 H 150.287 2.0064 3.70569 0
M  V30 1614 H 149.011 0.900207 3.13949 0
M  V30 1615 H 147.67 2.85851 2.29531 0
M  V30 1616 H 147.318 1.99691 4.61663 0
M  V30 1617 H 147.018 3.75046 4.52343 0
M  V30 1618 H 148.542 3.14583 5.23326 0
M  V30 1619 H 149.956 4.56897 3.46292 0
M  V30 1620 H 148.353 5.20315 2.98985 0
M  V30 1621 H 149.423 4.52164 1.75144 0
M  V30 1622 N 150.766 -0.704594 1.40972 0
M  V30 1623 C 152.015 -1.46018 1.39146 0
M  V30 1624 C 152.328 -1.956 0.000589254 0
M  V30 1625 O 153.534 -2.71137 -0.1403 0
M  V30 1626 C 151.99 -2.63996 2.4461 0
M  V30 1627 C 151.598 -2.21238 3.89561 0
M  V30 1628 C 153.342 -3.41677 2.51907 0
M  V30 1629 C 151.249 -3.3612 4.86598 0
M  V30 1630 H 150.179 -0.548444 0.517422 0
M  V30 1631 H 152.83 -0.765784 1.66757 0
M  V30 1632 H 151.212 -3.3566 2.10115 0
M  V30 1633 H 152.386 -1.56923 4.33257 0
M  V30 1634 H 150.701 -1.56574 3.85841 0
M  V30 1635 H 153.298 -4.27182 3.2159 0
M  V30 1636 H 153.641 -3.86247 1.55303 0
M  V30 1637 H 154.174 -2.77064 2.85448 0
M  V30 1638 H 150.913 -2.96572 5.84573 0
M  V30 1639 H 150.433 -3.99315 4.47557 0
M  V30 1640 H 152.112 -4.02029 5.06934 0
M  V30 1641 N 152.244 -1.26651 -0.937939 0
M  V30 1642 C 153.469 -1.15279 -1.72411 0
M  V30 1643 C 153.894 0.287866 -1.85884 0
M  V30 1644 O 153.252 1.20855 -1.35143 0
M  V30 1645 C 153.3 -1.83028 -3.10698 0
M  V30 1646 O 152.404 -1.12128 -3.96864 0
M  V30 1647 H 151.745 -0.401504 -0.528858 0
M  V30 1648 H 154.275 -1.67531 -1.1745 0
M  V30 1649 H 154.285 -1.89981 -3.6107 0
M  V30 1650 H 152.96 -2.87833 -3.00208 0
M  V30 1651 H 151.537 -1.13173 -3.55312 0
M  V30 1652 N 153.722 1.14298 -1.08507 0
M  V30 1653 C 154.999 1.81544 -0.728088 0
M  V30 1654 C 155.379 1.95838 0.78808 0
M  V30 1655 O 154.727 1.51904 1.70697 0
M  V30 1656 C 154.937 3.17169 -1.45619 0
M  V30 1657 C 156.285 3.9265 -1.61591 0
M  V30 1658 O 157.309 3.26762 -1.41793 0
M  V30 1659 O 156.168 5.10807 -1.94263 0
M  V30 1660 H 153.262 0.78491 -0.260471 0
M  V30 1661 H 155.808 1.21307 -1.18671 0
M  V30 1662 H 154.58 3.01934 -2.489 0
M  V30 1663 H 154.203 3.851 -0.989124 0
M  V30 1664 N 155.201 0.870884 1.31352 0
M  V30 1665 C 156.45 0.478408 1.95944 0
M  V30 1666 C 156.763 -0.974493 1.69597 0
M  V30 1667 O 157.969 -1.47316 2.28058 0
M  V30 1668 C 156.425 0.804609 3.50791 0
M  V30 1669 C 156.033 2.27433 3.85977 0
M  V30 1670 C 157.777 0.480648 4.2177 0
M  V30 1671 C 155.684 2.5429 5.33939 0
M  V30 1672 H 154.614 0.175175 0.733369 0
M  V30 1673 H 157.265 1.06391 1.4951 0
M  V30 1674 H 155.647 0.148347 3.95722 0
M  V30 1675 H 156.821 2.97373 3.52002 0
M  V30 1676 H 155.136 2.56442 3.28065 0
M  V30 1677 H 157.733 0.658519 5.30629 0
M  V30 1678 H 158.076 -0.578979 4.12254 0
M  V30 1679 H 158.609 1.09349 3.82476 0
M  V30 1680 H 155.348 3.58939 5.48491 0
M  V30 1681 H 154.868 1.88945 5.69263 0
M  V30 1682 H 156.547 2.39066 6.01212 0
M  V30 1683 N 156.679 -1.44442 0.630414 0
M  V30 1684 C 157.907 -2.06414 0.141671 0
M  V30 1685 C 158.322 -1.47105 -1.18345 0
M  V30 1686 O 157.679 -0.593662 -1.72574 0
M  V30 1687 C 157.73 -3.61494 0.0199784 0
M  V30 1688 O 157.451 -4.18594 1.29269 0
M  V30 1689 C 158.952 -4.40499 -0.497544 0
M  V30 1690 H 156.172 -0.666292 0.0793452 0
M  V30 1691 H 158.716 -1.85323 0.864614 0
M  V30 1692 H 156.871 -3.8185 -0.653402 0
M  V30 1693 H 157.285 -5.12026 1.13707 0
M  V30 1694 H 158.759 -5.49433 -0.531708 0
M  V30 1695 H 159.236 -4.11895 -1.52445 0
M  V30 1696 H 159.842 -4.25061 0.142562 0
M  V30 1697 N 158.157 -0.370918 -1.53173 0
M  V30 1698 C 159.104 0.473035 -2.259 0
M  V30 1699 C 160.074 1.07311 -1.26781 0
M  V30 1700 O 161.259 1.1046 -1.55574 0
M  V30 1701 C 158.399 1.60405 -3.05556 0
M  V30 1702 C 157.512 1.02863 -4.19575 0
M  V30 1703 C 156.647 2.12918 -4.86661 0
M  V30 1704 C 155.686 1.52869 -5.92704 0
M  V30 1705 N 154.823 2.56779 -6.53459 0
M  V30 1706 H 159.663 -0.153649 -2.97604 0
M  V30 1707 H 157.2 -0.0875946 -1.46839 0
M  V30 1708 H 159.158 2.27034 -3.50016 0
M  V30 1709 H 157.788 2.20131 -2.36097 0
M  V30 1710 H 156.84 0.252465 -3.79561 0
M  V30 1711 H 158.152 0.549642 -4.95762 0
M  V30 1712 H 157.306 2.87356 -5.34333 0
M  V30 1713 H 156.045 2.6417 -4.09958 0
M  V30 1714 H 155.05 0.769479 -5.44389 0
M  V30 1715 H 156.275 1.02435 -6.7133 0
M  V30 1716 H 154.221 3.07235 -5.79606 0
M  V30 1717 H 154.138 2.13583 -7.25202 0
M  V30 1718 H 155.406 3.30903 -7.05779 0
M  V30 1719 N 159.635 1.57281 -0.100228 0
M  V30 1720 C 160.86 1.99302 0.573881 0
M  V30 1721 C 161.285 0.979059 1.60611 0
M  V30 1722 O 160.643 -0.0517803 1.81226 0
M  V30 1723 C 160.691 3.40274 1.19358 0
M  V30 1724 O 159.795 3.41676 2.30935 0
M  V30 1725 H 159.136 0.647944 0.145138 0
M  V30 1726 H 161.666 2.03779 -0.183156 0
M  V30 1727 H 161.676 3.78078 1.53365 0
M  V30 1728 H 160.351 4.13594 0.437385 0
M  V30 1729 H 158.928 3.15672 1.98509 0
M  V30 1730 N 161.113 -0.173488 1.56642 0
M  V30 1731 C 162.362 -0.888758 1.81063 0
M  V30 1732 C 162.675 -1.83506 0.67712 0
M  V30 1733 O 163.881 -2.59254 0.806206 0
M  V30 1734 C 162.337 -1.63091 3.20826 0
M  V30 1735 C 161.945 -0.728357 4.4204 0
M  V30 1736 C 163.689 -2.33454 3.54541 0
M  V30 1737 C 161.596 -1.47062 5.72823 0
M  V30 1738 H 160.526 -0.335618 0.675186 0
M  V30 1739 H 163.177 -0.141712 1.82952 0
M  V30 1740 H 161.559 -2.42263 3.13248 0
M  V30 1741 H 162.733 0.0262449 4.60793 0
M  V30 1742 H 161.048 -0.134492 4.16183 0
M  V30 1743 H 163.645 -2.89578 4.49498 0
M  V30 1744 H 163.988 -3.08687 2.79317 0
M  V30 1745 H 164.521 -1.61227 3.63663 0
M  V30 1746 H 161.26 -0.760658 6.51072 0
M  V30 1747 H 160.78 -2.1986 5.58052 0
M  V30 1748 H 162.459 -2.01868 6.14702 0
M  V30 1749 N 162.591 -1.51276 -0.441967 0
M  V30 1750 C 163.816 -1.67799 -1.21895 0
M  V30 1751 C 164.241 -0.372864 -1.84367 0
M  V30 1752 O 163.599 0.666501 -1.68604 0
M  V30 1753 C 163.647 -2.79199 -2.28211 0
M  V30 1754 O 162.751 -2.42479 -3.33583 0
M  V30 1755 H 162.092 -0.559649 -0.357336 0
M  V30 1756 H 164.622 -1.97815 -0.522522 0
M  V30 1757 H 164.632 -3.03146 -2.73069 0
M  V30 1758 H 163.307 -3.73906 -1.82118 0
M  V30 1759 H 161.884 -2.29087 -2.94234 0
M  V30 1760 N 164.069 0.697108 -1.41344 0
M  V30 1761 C 165.485 1.00751 -1.2378 0
M  V30 1762 C 165.685 2.01105 -0.126066 0
M  V30 1763 O 164.741 2.47295 0.51004 0
M  V30 1764 C 166.054 1.53359 -2.58653 0
M  V30 1765 C 167.602 1.6525 -2.65822 0
M  V30 1766 C 168.077 2.2126 -4.01009 0
M  V30 1767 N 169.568 2.28622 -4.02847 0
M  V30 1768 C 170.303 2.72984 -5.04249 0
M  V30 1769 N 169.799 3.16962 -6.16041 0
M  V30 1770 N 171.592 2.72534 -4.91611 0
M  V30 1771 H 163.743 0.0322662 -2.12375 0
M  V30 1772 H 166.006 0.0768853 -0.944877 0
M  V30 1773 H 165.712 0.870773 -3.4075 0
M  V30 1774 H 165.586 2.51597 -2.81032 0
M  V30 1775 H 167.973 2.30644 -1.84086 0
M  V30 1776 H 168.054 0.655614 -2.47256 0
M  V30 1777 H 167.698 1.56482 -4.83193 0
M  V30 1778 H 167.628 3.21698 -4.16915 0
M  V30 1779 H 170.119 1.97585 -3.22131 0
M  V30 1780 H 170.432 3.49434 -6.89287 0
M  V30 1781 H 168.777 3.14875 -6.1958 0
M  V30 1782 H 171.968 2.37525 -4.0336 0
M  V30 1783 H 172.141 3.06789 -5.70775 0
M  V30 1784 N 165.547 1.27147 0.931209 0
M  V30 1785 C 166.772 1.16191 1.71797 0
M  V30 1786 C 167.197 -0.278004 1.86034 0
M  V30 1787 O 166.555 -1.20137 1.35782 0
M  V30 1788 C 166.603 1.84673 3.09723 0
M  V30 1789 O 165.707 1.14231 3.96264 0
M  V30 1790 H 165.048 0.404303 0.526721 0
M  V30 1791 H 167.578 1.68152 1.1656 0
M  V30 1792 H 167.588 1.91893 3.60057 0
M  V30 1793 H 166.263 2.89421 2.98677 0
M  V30 1794 H 164.84 1.15056 3.54706 0
M  V30 1795 N 167.025 -1.13721 1.09112 0
M  V30 1796 C 168.255 -1.88499 0.845671 0
M  V30 1797 C 168.663 -1.79218 -0.606432 0
M  V30 1798 O 168.006 -1.1544 -1.42896 0
M  V30 1799 C 168.068 -3.38954 1.19793 0
M  V30 1800 C 167.732 -3.72018 2.65428 0
M  V30 1801 C 168.729 -3.7153 3.63677 0
M  V30 1802 C 166.414 -4.01775 3.01467 0
M  V30 1803 C 168.408 -4.00336 4.95994 0
M  V30 1804 C 166.095 -4.30243 4.33975 0
M  V30 1805 C 167.093 -4.29508 5.31048 0
M  V30 1806 O 166.781 -4.5728 6.61173 0
M  V30 1807 H 166.513 -0.603702 0.304171 0
M  V30 1808 H 169.067 -1.44903 1.45576 0
M  V30 1809 H 167.297 -3.83039 0.530871 0
M  V30 1810 H 168.986 -3.95052 0.932146 0
M  V30 1811 H 169.752 -3.4862 3.37179 0
M  V30 1812 H 165.631 -4.01496 2.26544 0
M  V30 1813 H 169.175 -3.99678 5.71755 0
M  V30 1814 H 165.072 -4.52625 4.60219 0
M  V30 1815 H 165.84 -4.74964 6.66597 0
M  V30 1816 N 168.503 -0.877838 -1.30888 0
M  V30 1817 C 169.451 -0.328662 -2.30266 0
M  V30 1818 C 170.445 0.560496 -1.59859 0
M  V30 1819 O 171.651 0.445722 -1.74394 0
M  V30 1820 H 168.026 -0.0876142 -0.746879 0
M  V30 1821 H 169.997 -1.18061 -2.74051 0
M  V30 1822 C 168.746 0.448071 -3.44801 0
M  V30 1823 H 168.069 -0.226859 -3.99156 0
M  V30 1824 H 169.509 0.797541 -4.16432 0
M  V30 1825 C 167.968 1.64239 -2.94155 0
M  V30 1826 O 168.498 2.74175 -2.93583 0
M  V30 1827 N 166.704 1.47716 -2.50256 0
M  V30 1828 H 166.251 0.582821 -2.5092 0
M  V30 1829 H 166.209 2.27765 -2.16727 0
M  V30 1830 N 169.982 1.44106 -0.638065 0
M  V30 1831 C 171.228 2.02277 -0.145546 0
M  V30 1832 C 171.561 1.50125 1.23191 0
M  V30 1833 O 170.836 0.688133 1.8192 0
M  V30 1834 C 171.119 3.59829 -0.139791 0
M  V30 1835 C 170.972 4.22247 -1.55008 0
M  V30 1836 C 172.291 4.36873 0.531966 0
M  V30 1837 H 169.41 0.734992 -0.0543632 0
M  V30 1838 H 172.052 1.71592 -0.815863 0
M  V30 1839 H 170.202 3.86102 0.431007 0
M  V30 1840 H 171.874 4.07057 -2.1703 0
M  V30 1841 H 170.117 3.79476 -2.10191 0
M  V30 1842 H 170.788 5.31284 -1.49804 0
M  V30 1843 H 173.264 4.16074 0.0464781 0
M  V30 1844 H 172.14 5.4657 0.505206 0
M  V30 1845 H 172.401 4.11995 1.60352 0
M  V30 1846 N 171.46 0.379036 1.52974 0
M  V30 1847 C 172.39 -0.452706 2.29069 0
M  V30 1848 C 173.371 -1.07237 1.32039 0
M  V30 1849 O 174.556 -1.08708 1.60923 0
M  V30 1850 C 171.686 -1.5856 3.08992 0
M  V30 1851 C 170.64 -1.0925 4.13822 0
M  V30 1852 C 169.966 -2.31668 4.81907 0
M  V30 1853 C 171.266 -0.167702 5.22031 0
M  V30 1854 H 172.96 0.182181 2.98845 0
M  V30 1855 H 170.506 0.0890592 1.43724 0
M  V30 1856 H 172.459 -2.1742 3.6098 0
M  V30 1857 H 171.183 -2.24792 2.36931 0
M  V30 1858 H 169.842 -0.526494 3.628 0
M  V30 1859 H 169.49 -2.96386 4.06404 0
M  V30 1860 H 169.19 -1.9934 5.52754 0
M  V30 1861 H 170.714 -2.91189 5.36695 0
M  V30 1862 H 172.128 -0.664186 5.6944 0
M  V30 1863 H 170.525 0.0653265 6.00064 0
M  V30 1864 H 171.595 0.786347 4.78482 0
M  V30 1865 N 172.938 -1.57226 0.108567 0
M  V30 1866 C 174.185 -1.94833 -0.551943 0
M  V30 1867 C 174.513 -0.991204 -1.67348 0
M  V30 1868 O 173.768 -0.0131878 -1.95696 0
M  V30 1869 C 174.067 -3.38911 -1.13463 0
M  V30 1870 C 173.733 -4.50696 -0.135509 0
M  V30 1871 C 172.395 -4.80998 0.139252 0
M  V30 1872 C 174.747 -5.18333 0.545957 0
M  V30 1873 C 172.075 -5.76259 1.10194 0
M  V30 1874 C 174.427 -6.14627 1.49721 0
M  V30 1875 C 173.091 -6.43327 1.78006 0
M  V30 1876 H 172.361 -0.712944 -0.20197 0
M  V30 1877 H 175.008 -1.90582 0.18726 0
M  V30 1878 H 173.313 -3.39805 -1.95037 0
M  V30 1879 H 175.01 -3.65317 -1.65362 0
M  V30 1880 H 171.6 -4.27087 -0.359846 0
M  V30 1881 H 175.784 -4.95087 0.346842 0
M  V30 1882 H 171.04 -5.96804 1.32795 0
M  V30 1883 H 175.214 -6.66126 2.03099 0
M  V30 1884 H 172.841 -7.1695 2.52759 0
M  V30 1885 N 174.416 0.165178 -1.56732 0
M  V30 1886 C 175.664 0.879068 -1.8198 0
M  V30 1887 C 175.985 1.82514 -0.686561 0
M  V30 1888 O 175.255 1.93694 0.293146 0
M  V30 1889 H 173.835 0.327608 -0.671329 0
M  V30 1890 H 176.497 0.163526 -1.94213 0
M  V30 1891 H 175.593 1.45228 -2.76252 0
M  V30 1892 N 175.894 1.51508 0.433938 0
M  V30 1893 C 177.171 1.54888 1.19453 0
M  V30 1894 C 177.551 0.315154 2.08734 0
M  V30 1895 O 176.899 -0.699558 2.17528 0
M  V30 1896 C 177.109 2.86467 1.99342 0
M  V30 1897 C 178.457 3.38545 2.56267 0
M  V30 1898 O 179.481 2.88041 2.0955 0
M  V30 1899 O 178.34 4.26675 3.41483 0
M  V30 1900 H 175.434 0.622863 0.544032 0
M  V30 1901 H 177.98 1.63823 0.442732 0
M  V30 1902 H 176.752 3.67718 1.33788 0
M  V30 1903 H 176.375 2.8071 2.8158 0
M  V30 1904 N 177.372 -0.689602 1.41712 0
M  V30 1905 C 178.597 -1.48329 1.44959 0
M  V30 1906 C 179.022 -1.8801 0.0581283 0
M  V30 1907 O 178.38 -1.55026 -0.940035 0
M  V30 1908 C 178.428 -2.71835 2.36935 0
M  V30 1909 O 177.532 -3.69549 1.8305 0
M  V30 1910 H 176.873 -0.446199 0.491734 0
M  V30 1911 H 179.403 -0.847127 1.86239 0
M  V30 1912 H 179.413 -3.20076 2.53013 0
M  V30 1913 H 178.088 -2.42291 3.38035 0
M  V30 1914 H 176.665 -3.2851 1.76452 0
M  V30 1915 N 178.85 -1.27639 -0.924453 0
M  V30 1916 C 180.096 -1.14336 -1.67497 0
M  V30 1917 C 180.429 0.309465 -1.91718 0
M  V30 1918 O 179.704 1.22608 -1.50989 0
M  V30 1919 C 179.987 -1.93096 -3.0395 0
M  V30 1920 C 179.84 -3.46381 -2.8695 0
M  V30 1921 C 181.159 -1.73798 -4.0433 0
M  V30 1922 H 178.278 -0.416728 -0.607871 0
M  V30 1923 H 180.92 -1.56832 -1.07256 0
M  V30 1924 H 179.07 -1.56982 -3.55372 0
M  V30 1925 H 180.742 -3.92343 -2.42621 0
M  V30 1926 H 178.985 -3.72557 -2.22225 0
M  V30 1927 H 179.656 -3.96735 -3.83804 0
M  V30 1928 H 182.132 -2.05293 -3.61931 0
M  V30 1929 H 181.008 -2.31294 -4.97789 0
M  V30 1930 H 181.269 -0.686725 -4.36734 0
M  V30 1931 N 180.328 1.1314 -1.09713 0
M  V30 1932 C 181.553 1.88862 -0.857081 0
M  V30 1933 C 181.978 1.78729 0.586304 0
M  V30 1934 O 181.336 1.13692 1.41222 0
M  V30 1935 C 181.384 3.36325 -1.30069 0
M  V30 1936 O 180.488 4.09815 -0.461007 0
M  V30 1937 H 179.829 0.587108 -0.310162 0
M  V30 1938 H 182.359 1.43129 -1.46203 0
M  V30 1939 H 182.369 3.87157 -1.28738 0
M  V30 1940 H 181.044 3.43017 -2.35185 0
M  V30 1941 H 179.621 3.68986 -0.538888 0
M  V30 1942 N 181.806 0.884767 1.30421 0
M  V30 1943 C 182.736 0.367574 2.30589 0
M  V30 1944 C 183.717 -0.549464 1.60981 0
M  V30 1945 O 184.902 -0.46336 1.88591 0
M  V30 1946 C 182.032 -0.418944 3.44764 0
M  V30 1947 C 180.986 0.406316 4.26067 0
M  V30 1948 C 180.312 -0.506793 5.32293 0
M  V30 1949 C 181.612 1.64832 4.95608 0
M  V30 1950 H 183.306 1.20462 2.74097 0
M  V30 1951 H 180.852 0.580695 1.31772 0
M  V30 1952 H 182.805 -0.791395 4.13902 0
M  V30 1953 H 181.529 -1.28964 3.0006 0
M  V30 1954 H 180.188 0.760903 3.58617 0
M  V30 1955 H 179.836 -1.37519 4.83836 0
M  V30 1956 H 179.536 0.0415828 5.87585 0
M  V30 1957 H 181.06 -0.875764 6.04287 0
M  V30 1958 H 182.474 1.34646 5.57264 0
M  V30 1959 H 180.871 2.13688 5.60765 0
M  V30 1960 H 181.941 2.39284 4.21748 0
M  V30 1961 N 183.284 -1.43765 0.645699 0
M  V30 1962 C 184.7 -1.56509 0.312591 0
M  V30 1963 C 184.9 -1.6307 -1.18365 0
M  V30 1964 O 183.956 -1.58167 -1.96824 0
M  V30 1965 C 185.269 -2.82968 1.01733 0
M  V30 1966 C 186.817 -2.96701 0.996865 0
M  V30 1967 C 187.292 -4.25982 1.68236 0
M  V30 1968 N 188.783 -4.32829 1.64964 0
M  V30 1969 C 189.518 -5.31613 2.14885 0
M  V30 1970 N 189.014 -6.36718 2.73061 0
M  V30 1971 N 190.807 -5.23217 2.05428 0
M  V30 1972 H 182.958 -1.3775 1.61675 0
M  V30 1973 H 185.221 -0.661067 0.679481 0
M  V30 1974 H 184.927 -2.84156 2.0724 0
M  V30 1975 H 184.801 -3.72957 0.564177 0
M  V30 1976 H 187.188 -2.95058 -0.0497719 0
M  V30 1977 H 187.269 -2.08022 1.48865 0
M  V30 1978 H 186.913 -4.28386 2.72852 0
M  V30 1979 H 186.843 -5.13545 1.16529 0
M  V30 1980 H 189.334 -3.57493 1.22503 0
M  V30 1981 H 189.647 -7.08401 3.08848 0
M  V30 1982 H 187.992 -6.37362 2.77118 0
M  V30 1983 H 191.183 -4.40019 1.59689 0
M  V30 1984 H 191.356 -6.00045 2.44643 0
M  V30 1985 N 184.763 -0.387143 -1.52771 0
M  V30 1986 C 185.726 0.436939 -2.24997 0
M  V30 1987 C 186.726 0.991991 -1.26555 0
M  V30 1988 O 187.916 0.874335 -1.50669 0
M  V30 1989 C 185.048 1.61281 -3.00335 0
M  V30 1990 H 186.241 -0.195365 -2.99263 0
M  V30 1991 H 183.794 -0.139218 -1.55679 0
M  V30 1992 H 184.529 2.2826 -2.30364 0
M  V30 1993 H 184.314 1.22154 -3.72587 0
M  V30 1994 H 185.804 2.19629 -3.5518 0
M  V30 1995 N 186.241 1.57166 -0.116904 0
M  V30 1996 C 187.488 1.95123 0.541603 0
M  V30 1997 C 187.816 1.00006 1.6682 0
M  V30 1998 O 187.071 0.0235658 1.95686 0
M  V30 1999 C 187.37 3.39508 1.11664 0
M  V30 2000 C 187.036 4.50762 0.111606 0
M  V30 2001 C 185.698 4.80918 -0.164758 0
M  V30 2002 C 188.05 5.18036 -0.573438 0
M  V30 2003 C 185.378 5.75666 -1.13249 0
M  V30 2004 C 187.73 6.13824 -1.52978 0
M  V30 2005 C 186.394 6.42374 -1.81415 0
M  V30 2006 H 185.664 0.714005 0.198187 0
M  V30 2007 H 188.311 1.9048 -0.197365 0
M  V30 2008 H 186.616 3.40835 1.93232 0
M  V30 2009 H 188.313 3.66189 1.63422 0
M  V30 2010 H 184.903 4.27272 0.337192 0
M  V30 2011 H 189.087 4.94896 -0.373092 0
M  V30 2012 H 184.343 5.96092 -1.35958 0
M  V30 2013 H 188.517 6.65039 -2.06629 0
M  V30 2014 H 186.144 7.15599 -2.56557 0
M  V30 2015 N 187.719 -0.156864 1.56817 0
M  V30 2016 C 188.965 -0.872416 1.83076 0
M  V30 2017 C 189.298 -1.81261 0.697001 0
M  V30 2018 O 188.573 -1.92171 -0.30008 0
M  V30 2019 C 188.856 -1.65551 3.19789 0
M  V30 2020 C 188.709 -0.737467 4.43713 0
M  V30 2021 C 190.028 -2.62012 3.53606 0
M  V30 2022 H 187.147 -0.315715 0.665953 0
M  V30 2023 H 189.789 -0.138004 1.89498 0
M  V30 2024 H 187.939 -2.28159 3.14445 0
M  V30 2025 H 189.611 -0.123143 4.61136 0
M  V30 2026 H 187.854 -0.0464067 4.33775 0
M  V30 2027 H 188.525 -1.32122 5.35955 0
M  V30 2028 H 191.001 -2.09525 3.59497 0
M  V30 2029 H 189.877 -3.13861 4.50314 0
M  V30 2030 H 190.138 -3.42902 2.79053 0
M  V30 2031 N 189.197 -1.51736 -0.425897 0
M  V30 2032 C 190.127 -1.76827 -1.52494 0
M  V30 2033 C 191.108 -0.618524 -1.58456 0
M  V30 2034 O 192.293 -0.862416 -1.74 0
M  V30 2035 C 189.423 -1.90374 -2.90474 0
M  V30 2036 C 188.377 -3.0588 -2.99369 0
M  V30 2037 C 187.703 -3.04625 -4.3944 0
M  V30 2038 C 189.003 -4.45644 -2.72394 0
M  V30 2039 H 190.697 -2.68855 -1.31748 0
M  V30 2040 H 188.243 -1.29372 -0.632362 0
M  V30 2041 H 190.196 -2.0651 -3.6733 0
M  V30 2042 H 188.92 -0.95004 -3.12477 0
M  V30 2043 H 187.579 -2.89467 -2.24954 0
M  V30 2044 H 187.227 -2.0701 -4.58428 0
M  V30 2045 H 186.927 -3.82195 -4.46319 0
M  V30 2046 H 188.451 -3.22869 -5.18255 0
M  V30 2047 H 189.865 -4.62348 -3.38979 0
M  V30 2048 H 188.262 -5.25006 -2.9067 0
M  V30 2049 H 189.332 -4.54893 -1.67929 0
M  V30 2050 N 190.675 0.682077 -1.42076 0
M  V30 2051 C 191.924 1.43786 -1.41451 0
M  V30 2052 C 192.237 1.95574 -0.0317074 0
M  V30 2053 O 193.443 2.71326 0.0971462 0
M  V30 2054 C 191.899 2.60071 -2.48779 0
M  V30 2055 C 191.507 2.15013 -3.93031 0
M  V30 2056 C 193.251 3.37626 -2.57311 0
M  V30 2057 C 191.158 3.28336 -4.91883 0
M  V30 2058 H 190.088 0.540143 -0.526082 0
M  V30 2059 H 192.739 0.739157 -1.67955 0
M  V30 2060 H 191.121 3.32275 -2.15429 0
M  V30 2061 H 192.295 1.5001 -4.35699 0
M  V30 2062 H 190.61 1.50416 -3.88284 0
M  V30 2063 H 193.207 4.22012 -3.28345 0
M  V30 2064 H 193.55 3.83727 -1.61429 0
M  V30 2065 H 194.083 2.72488 -2.89819 0
M  V30 2066 H 190.822 2.87234 -5.89217 0
M  V30 2067 H 190.342 3.92145 -4.53853 0
M  V30 2068 H 192.021 3.93913 -5.13265 0
M  V30 2069 N 192.153 1.28127 0.917671 0
M  V30 2070 C 193.43 1.05761 1.64542 0
M  V30 2071 C 193.81 -0.404344 2.07191 0
M  V30 2072 O 193.158 -1.38963 1.81388 0
M  V30 2073 C 193.368 2.02857 2.83989 0
M  V30 2074 C 194.716 2.32786 3.551 0
M  V30 2075 O 195.74 2.0091 2.94132 0
M  V30 2076 O 194.599 2.87169 4.64969 0
M  V30 2077 H 191.693 0.403916 0.721652 0
M  V30 2078 H 194.239 1.39431 0.967322 0
M  V30 2079 H 193.011 3.01407 2.49538 0
M  V30 2080 H 192.634 1.69809 3.59514 0
M  V30 2081 N 193.631 -1.12557 1.10312 0
M  V30 2082 C 194.578 -2.18247 0.750781 0
M  V30 2083 C 195.548 -1.63853 -0.272293 0
M  V30 2084 O 196.733 -1.90195 -0.151862 0
M  V30 2085 C 193.873 -3.44591 0.187379 0
M  V30 2086 C 192.986 -4.13046 1.2656 0
M  V30 2087 C 192.121 -5.27034 0.663978 0
M  V30 2088 C 191.16 -5.87353 1.72287 0
M  V30 2089 N 190.297 -6.92757 1.1416 0
M  V30 2090 H 195.137 -2.47732 1.65628 0
M  V30 2091 H 192.674 -1.21629 0.827337 0
M  V30 2092 H 194.632 -4.16904 -0.157148 0
M  V30 2093 H 193.262 -3.15527 -0.681355 0
M  V30 2094 H 192.314 -3.38924 1.72727 0
M  V30 2095 H 193.626 -4.53947 2.06721 0
M  V30 2096 H 192.78 -6.06104 0.268824 0
M  V30 2097 H 191.519 -4.87407 -0.169082 0
M  V30 2098 H 190.524 -5.06971 2.12746 0
M  V30 2099 H 191.749 -6.29051 2.55875 0
M  V30 2100 H 189.695 -6.5517 0.329984 0
M  V30 2101 H 189.612 -7.3225 1.88007 0
M  V30 2102 H 190.88 -7.75658 0.772956 0
M  V30 2103 N 195.109 -0.891671 -1.2995 0
M  V30 2104 C 196.041 -0.320695 -2.26945 0
M  V30 2105 C 197.054 0.528497 -1.53983 0
M  V30 2106 O 198.243 0.346959 -1.75096 0
M  V30 2107 C 195.343 0.562066 -3.34207 0
M  V30 2108 C 194.516 -0.259576 -4.36629 0
M  V30 2109 C 193.575 0.554739 -5.23268 0
M  V30 2110 O 192.601 -0.0249311 -5.69195 0
M  V30 2111 N 193.803 1.8625 -5.4981 0
M  V30 2112 H 196.568 -1.15432 -2.76578 0
M  V30 2113 H 194.129 -0.755336 -1.432 0
M  V30 2114 H 196.121 1.11304 -3.89093 0
M  V30 2115 H 194.691 1.29637 -2.84452 0
M  V30 2116 H 193.911 -0.991986 -3.81514 0
M  V30 2117 H 195.199 -0.822564 -5.02107 0
M  V30 2118 H 194.597 2.35628 -5.14292 0
M  V30 2119 H 193.154 2.36078 -6.07545 0
M  V30 2120 N 196.587 1.43421 -0.653314 0
M  V30 2121 C 197.835 2.01414 -0.166415 0
M  V30 2122 C 198.156 1.51803 1.22397 0
M  V30 2123 O 197.426 0.730693 1.81763 0
M  V30 2124 H 196.006 0.744703 -0.0585319 0
M  V30 2125 H 198.668 1.75629 -0.845003 0
M  V30 2126 H 197.764 3.11734 -0.151111 0
M  V30 2127 N 198.065 0.39524 1.52563 0
M  V30 2128 C 199.311 -0.185318 2.01952 0
M  V30 2129 C 199.644 -1.45964 1.28095 0
M  V30 2130 O 198.919 -1.90689 0.38315 0
M  V30 2131 C 199.202 -0.447193 3.57312 0
M  V30 2132 C 199.055 0.842828 4.41833 0
M  V30 2133 C 200.374 -1.23529 4.22408 0
M  V30 2134 H 197.493 -0.0658788 0.73405 0
M  V30 2135 H 200.135 0.525975 1.82575 0
M  V30 2136 H 198.285 -1.05312 3.73954 0
M  V30 2137 H 199.957 1.4795 4.36931 0
M  V30 2138 H 198.2 1.45686 4.08605 0
M  V30 2139 H 198.871 0.614165 5.48573 0
M  V30 2140 H 201.347 -0.722445 4.0978 0
M  V30 2141 H 200.223 -1.38727 5.3108 0
M  V30 2142 H 200.484 -2.25213 3.80436 0
M  V30 2143 N 199.544 -1.57102 0.125237 0
M  V30 2144 C 200.79 -1.95697 -0.532035 0
M  V30 2145 C 201.123 -1.009 -1.6593 0
M  V30 2146 O 200.398 -0.047347 -1.94442 0
M  V30 2147 C 200.681 -3.44181 -1.05884 0
M  V30 2148 C 200.534 -4.49752 0.0654392 0
M  V30 2149 C 201.853 -3.94655 -1.9477 0
M  V30 2150 H 198.972 -0.711571 -0.191925 0
M  V30 2151 H 201.614 -1.88923 0.20206 0
M  V30 2152 H 199.764 -3.50085 -1.68442 0
M  V30 2153 H 201.436 -4.55943 0.700982 0
M  V30 2154 H 199.679 -4.27653 0.727709 0
M  V30 2155 H 200.35 -5.50924 -0.344505 0
M  V30 2156 H 202.826 -3.91094 -1.42074 0
M  V30 2157 H 201.702 -4.99057 -2.28546 0
M  V30 2158 H 201.963 -3.35718 -2.87656 0
M  V30 2159 N 201.022 0.148545 -1.56898 0
M  V30 2160 C 201.954 1.20852 -1.9475 0
M  V30 2161 C 202.967 1.39265 -0.843152 0
M  V30 2162 O 204.156 1.38864 -1.12156 0
M  V30 2163 C 201.256 2.57362 -2.20495 0
M  V30 2164 C 200.429 2.59947 -3.51776 0
M  V30 2165 C 199.488 3.77984 -3.6608 0
M  V30 2166 O 198.514 3.62929 -4.38487 0
M  V30 2167 N 199.716 4.95375 -3.02629 0
M  V30 2168 H 202.481 0.886804 -2.86279 0
M  V30 2169 H 200.042 0.338121 -1.5833 0
M  V30 2170 H 202.034 3.34833 -2.27307 0
M  V30 2171 H 200.604 2.81832 -1.35238 0
M  V30 2172 H 199.824 1.68403 -3.56419 0
M  V30 2173 H 201.112 2.58704 -4.38121 0
M  V30 2174 H 200.51 5.10509 -2.43715 0
M  V30 2175 H 199.067 5.70627 -3.15004 0
M  V30 2176 N 202.5 1.5196 0.417844 0
M  V30 2177 C 203.45 1.7106 1.5074 0
M  V30 2178 C 204.434 0.564487 1.50673 0
M  V30 2179 O 205.626 0.821206 1.56797 0
M  V30 2180 C 202.755 1.85677 2.88754 0
M  V30 2181 C 201.841 3.06133 2.93502 0
M  V30 2182 N 202.232 4.28987 2.67962 0
M  V30 2183 C 200.53 3.05787 3.24669 0
M  V30 2184 C 201.231 5.10395 2.79055 0
M  V30 2185 N 200.207 4.45455 3.11561 0
M  V30 2186 H 204.009 2.63696 1.29775 0
M  V30 2187 H 201.523 1.49873 0.625436 0
M  V30 2188 H 203.52 1.97475 3.67164 0
M  V30 2189 H 202.18 0.942348 3.10725 0
M  V30 2190 H 203.191 4.57607 2.4252 0
M  V30 2191 H 199.868 2.2405 3.52289 0
M  V30 2192 H 201.258 6.18247 2.63097 0
M  V30 2193 N 203.978 -0.674533 1.42435 0
M  V30 2194 C 204.908 -1.80009 1.48724 0
M  V30 2195 C 205.889 -1.6659 0.343793 0
M  V30 2196 O 207.074 -1.86007 0.558137 0
M  V30 2197 C 204.204 -3.18306 1.38919 0
M  V30 2198 C 203.158 -3.46461 2.51294 0
M  V30 2199 C 202.484 -4.84335 2.26547 0
M  V30 2200 C 203.784 -3.43328 3.93603 0
M  V30 2201 H 205.478 -1.75004 2.42928 0
M  V30 2202 H 203.024 -0.840533 1.16923 0
M  V30 2203 H 204.977 -3.9678 1.41927 0
M  V30 2204 H 203.701 -3.2399 0.412094 0
M  V30 2205 H 202.36 -2.70348 2.47604 0
M  V30 2206 H 202.008 -4.86669 1.2713 0
M  V30 2207 H 201.708 -5.04136 3.01861 0
M  V30 2208 H 203.232 -5.65094 2.31304 0
M  V30 2209 H 204.646 -4.11772 3.98894 0
M  V30 2210 H 203.043 -3.74664 4.68771 0
M  V30 2211 H 204.113 -2.41897 4.20255 0
M  V30 2212 N 205.456 -1.28612 -0.910864 0
M  V30 2213 C 206.386 -1.15326 -2.03032 0
M  V30 2214 C 207.367 -0.0502924 -1.70026 0
M  V30 2215 O 208.552 -0.227797 -1.92859 0
M  V30 2216 C 205.682 -0.817343 -3.37545 0
M  V30 2217 C 204.636 -1.8754 -3.84724 0
M  V30 2218 C 203.962 -1.39305 -5.16235 0
M  V30 2219 C 205.262 -3.28244 -4.06267 0
M  V30 2220 H 206.956 -2.08975 -2.14406 0
M  V30 2221 H 204.502 -1.00612 -1.03021 0
M  V30 2222 H 206.455 -0.711151 -4.15356 0
M  V30 2223 H 205.179 0.154846 -3.26233 0
M  V30 2224 H 203.838 -1.97079 -3.09121 0
M  V30 2225 H 203.486 -0.409846 -5.01328 0
M  V30 2226 H 203.186 -2.10057 -5.48771 0
M  V30 2227 H 204.71 -1.30014 -5.96598 0
M  V30 2228 H 206.124 -3.21611 -4.74594 0
M  V30 2229 H 204.521 -3.96855 -4.5014 0
M  V30 2230 H 205.591 -3.72048 -3.10979 0
M  V30 2231 N 206.934 1.1197 -1.10907 0
M  V30 2232 C 208.18 1.8386 -0.855773 0
M  V30 2233 C 208.513 1.84134 0.617103 0
M  V30 2234 O 207.788 1.29041 1.45529 0
M  V30 2235 C 208.071 3.31305 -1.411 0
M  V30 2236 C 207.924 3.39456 -2.9511 0
M  V30 2237 C 209.243 4.2721 -1.05736 0
M  V30 2238 H 206.362 0.667545 -0.312334 0
M  V30 2239 H 209.004 1.31331 -1.37303 0
M  V30 2240 H 207.154 3.76169 -0.97105 0
M  V30 2241 H 208.826 3.03191 -3.47668 0
M  V30 2242 H 207.069 2.79849 -3.31462 0
M  V30 2243 H 207.74 4.43209 -3.29044 0
M  V30 2244 H 210.216 3.90497 -1.43706 0
M  V30 2245 H 209.092 5.28775 -1.47269 0
M  V30 2246 H 209.353 4.42088 0.0325958 0
M  V30 2247 N 208.412 0.89855 1.29475 0
M  V30 2248 C 209.36 0.365253 2.29714 0
M  V30 2249 C 210.354 -0.534993 1.6073 0
M  V30 2250 O 211.56 -0.417921 1.75081 0
M  V30 2251 H 207.935 0.0994853 0.74539 0
M  V30 2252 H 209.906 1.22406 2.72138 0
M  V30 2253 C 208.655 -0.393159 3.4547 0
M  V30 2254 H 207.978 0.290332 3.98744 0
M  V30 2255 H 209.418 -0.731189 4.17648 0
M  V30 2256 C 207.877 -1.59539 2.9673 0
M  V30 2257 O 208.407 -2.69469 2.97908 0
M  V30 2258 N 206.613 -1.43716 2.52575 0
M  V30 2259 H 206.16 -0.542828 2.51816 0
M  V30 2260 H 206.118 -2.24288 2.20323 0
M  V30 2261 N 209.89 -1.43072 0.660911 0
M  V30 2262 C 210.838 -2.32569 -0.0378199 0
M  V30 2263 C 211.832 -1.49046 -0.805092 0
M  V30 2264 O 213.038 -1.65206 -0.714624 0
M  V30 2265 H 209.413 -0.75136 -0.031019 0
M  V30 2266 H 211.384 -2.89216 0.734609 0
M  V30 2267 C 210.133 -3.33453 -0.985124 0
M  V30 2268 H 209.456 -3.97752 -0.404147 0
M  V30 2269 H 210.896 -3.98691 -1.44297 0
M  V30 2270 C 209.355 -2.64642 -2.08486 0
M  V30 2271 O 209.885 -2.46776 -3.16961 0
M  V30 2272 N 208.091 -2.23891 -1.8526 0
M  V30 2273 H 207.638 -2.38621 -0.970449 0
M  V30 2274 H 207.596 -1.78181 -2.59034 0
M  V30 2275 N 211.368 -0.403325 -1.52352 0
M  V30 2276 C 212.298 0.416205 -2.29761 0
M  V30 2277 C 213.279 1.05123 -1.33728 0
M  V30 2278 O 214.464 1.06134 -1.62632 0
M  V30 2279 C 211.594 1.53624 -3.11475 0
M  V30 2280 C 210.548 1.02653 -4.15507 0
M  V30 2281 C 209.874 2.23971 -4.85532 0
M  V30 2282 C 211.174 0.08463 -5.22231 0
M  V30 2283 H 212.868 -0.229701 -2.98518 0
M  V30 2284 H 210.414 -0.111913 -1.43564 0
M  V30 2285 H 212.367 2.1165 -3.64393 0
M  V30 2286 H 211.091 2.20994 -2.40477 0
M  V30 2287 H 209.75 0.46871 -3.63591 0
M  V30 2288 H 209.398 2.89883 -4.11068 0
M  V30 2289 H 209.098 1.90521 -5.55856 0
M  V30 2290 H 210.622 2.82614 -5.41259 0
M  V30 2291 H 212.036 0.573509 -5.70424 0
M  V30 2292 H 210.433 -0.160783 -5.99885 0
M  V30 2293 H 211.503 -0.86237 -4.7717 0
M  V30 2294 N 212.846 1.57033 -0.133567 0
M  V30 2295 C 213.809 2.14897 0.796995 0
M  V30 2296 C 214.809 1.0874 1.18458 0
M  V30 2297 O 215.999 1.34446 1.1077 0
M  V30 2298 C 213.131 2.70112 2.07973 0
M  V30 2299 H 214.324 2.98457 0.293873 0
M  V30 2300 H 211.877 1.55871 0.115787 0
M  V30 2301 H 212.612 1.9018 2.62682 0
M  V30 2302 H 212.397 3.47764 1.81115 0
M  V30 2303 H 213.887 3.14738 2.74462 0
M  V30 2304 N 214.325 -0.140222 1.56975 0
M  V30 2305 C 215.574 -0.850152 1.82908 0
M  V30 2306 C 215.887 -1.82028 0.715892 0
M  V30 2307 O 217.093 -2.57485 0.861016 0
M  V30 2308 C 215.549 -1.5625 3.24213 0
M  V30 2309 C 215.157 -0.63443 4.43485 0
M  V30 2310 C 216.901 -2.25881 3.59413 0
M  V30 2311 C 214.808 -1.34879 5.75814 0
M  V30 2312 H 213.738 -0.321221 0.682153 0
M  V30 2313 H 216.389 -0.102874 1.83211 0
M  V30 2314 H 214.771 -2.35565 3.18316 0
M  V30 2315 H 215.945 0.12398 4.60633 0
M  V30 2316 H 214.26 -0.0461836 4.16374 0
M  V30 2317 H 216.857 -2.79978 4.5554 0
M  V30 2318 H 217.2 -3.02693 2.85802 0
M  V30 2319 H 217.733 -1.53477 3.67001 0
M  V30 2320 H 214.472 -0.622385 6.52539 0
M  V30 2321 H 213.992 -2.07974 5.6259 0
M  V30 2322 H 215.671 -1.88784 6.18845 0
M  V30 2323 N 215.803 -1.52179 -0.40978 0
M  V30 2324 C 217.051 -1.65878 -1.15451 0
M  V30 2325 C 217.372 -0.390771 -1.91044 0
M  V30 2326 O 216.642 0.594323 -1.86667 0
M  V30 2327 H 215.222 -0.611405 -0.429177 0
M  V30 2328 H 217.884 -1.89219 -0.467134 0
M  V30 2329 H 216.98 -2.49954 -1.86894 0
M  V30 2330 N 217.281 0.66697 -1.42791 0
M  V30 2331 C 218.697 0.981027 -1.25889 0
M  V30 2332 C 218.897 2.00793 -0.168695 0
M  V30 2333 O 217.953 2.48321 0.45747 0
M  V30 2334 C 219.266 1.47838 -2.61848 0
M  V30 2335 C 220.814 1.59575 -2.69267 0
M  V30 2336 C 221.289 2.12704 -4.05612 0
M  V30 2337 N 222.78 2.20026 -4.07606 0
M  V30 2338 C 223.515 2.62227 -5.09926 0
M  V30 2339 N 223.011 3.03824 -6.22626 0
M  V30 2340 N 224.804 2.62045 -4.97281 0
M  V30 2341 H 216.955 -0.0127891 -2.12396 0
M  V30 2342 H 219.218 0.0568258 -0.946295 0
M  V30 2343 H 218.924 0.798299 -3.4252 0
M  V30 2344 H 218.798 2.45579 -2.86305 0
M  V30 2345 H 221.185 2.26687 -1.88936 0
M  V30 2346 H 221.266 0.60302 -2.48591 0
M  V30 2347 H 220.91 1.46198 -4.86404 0
M  V30 2348 H 220.84 3.12782 -4.23645 0
M  V30 2349 H 223.331 1.90708 -3.2625 0
M  V30 2350 H 223.644 3.34734 -6.96544 0
M  V30 2351 H 221.989 3.01662 -6.26119 0
M  V30 2352 H 225.18 2.28916 -4.08308 0
M  V30 2353 H 225.353 2.94613 -5.77154 0
M  V30 2354 N 218.759 1.29093 0.90403 0
M  V30 2355 C 219.984 1.19809 1.69294 0
M  V30 2356 C 220.409 -0.238481 1.86582 0
M  V30 2357 O 219.767 -1.1723 1.383 0
M  V30 2358 C 219.815 1.91202 3.05736 0
M  V30 2359 O 218.919 1.22611 3.93752 0
M  V30 2360 H 218.26 0.415385 0.518027 0
M  V30 2361 H 220.79 1.70586 1.12967 0
M  V30 2362 H 220.8 1.99487 3.55906 0
M  V30 2363 H 219.475 2.95692 2.92471 0
M  V30 2364 H 218.052 1.22554 3.52186 0
M  V30 2365 N 220.237 -1.11381 1.11499 0
M  V30 2366 C 221.483 -1.83403 0.865512 0
M  V30 2367 C 221.816 -1.84459 -0.607329 0
M  V30 2368 O 221.091 -1.29811 -1.44842 0
M  V30 2369 C 221.374 -3.30552 1.42855 0
M  V30 2370 C 221.227 -3.37886 2.96906 0
M  V30 2371 C 222.546 -4.26643 1.08 0
M  V30 2372 H 219.665 -0.665879 0.31587 0
M  V30 2373 H 222.307 -1.30601 1.37998 0
M  V30 2374 H 220.457 -3.75648 0.990985 0
M  V30 2375 H 222.129 -3.01343 3.49271 0
M  V30 2376 H 220.372 -2.78088 3.32941 0
M  V30 2377 H 221.043 -4.41458 3.31389 0
M  V30 2378 H 223.519 -3.89729 1.45775 0
M  V30 2379 H 222.395 -5.27986 1.50072 0
M  V30 2380 H 222.656 -4.42099 -0.00915037 0
M  V30 2381 N 221.715 -0.905404 -1.28997 0
M  V30 2382 C 222.625 -0.392246 -2.31298 0
M  V30 2383 C 223.641 0.515889 -1.66176 0
M  V30 2384 O 224.817 0.404093 -1.97304 0
M  V30 2385 C 221.882 0.36686 -3.44754 0
M  V30 2386 C 220.943 -0.573485 -4.25452 0
M  V30 2387 C 220.176 0.149488 -5.33491 0
M  V30 2388 O 220.399 1.37255 -5.5364 0
M  V30 2389 O 219.333 -0.510919 -5.99728 0
M  V30 2390 H 223.159 -1.2411 -2.77183 0
M  V30 2391 H 220.744 -0.669926 -1.33538 0
M  V30 2392 H 222.626 0.795907 -4.13816 0
M  V30 2393 H 221.301 1.19169 -3.00966 0
M  V30 2394 H 220.208 -1.05176 -3.59011 0
M  V30 2395 H 221.541 -1.36489 -4.72897 0
M  V30 2396 N 223.193 1.4272 -0.668489 0
M  V30 2397 C 224.103 2.34596 0.0139753 0
M  V30 2398 C 225.119 1.5474 0.795703 0
M  V30 2399 O 226.295 1.87334 0.739466 0
M  V30 2400 C 223.36 3.33202 0.957982 0
M  V30 2401 C 222.421 4.28957 0.17149 0
M  V30 2402 C 221.654 5.22853 1.07053 0
M  V30 2403 O 221.877 5.21531 2.31001 0
M  V30 2404 O 220.811 5.9952 0.534727 0
M  V30 2405 H 224.637 2.9448 -0.742661 0
M  V30 2406 H 222.222 1.43117 -0.428705 0
M  V30 2407 H 224.104 3.93796 1.50008 0
M  V30 2408 H 222.779 2.758 1.69458 0
M  V30 2409 H 221.686 3.71796 -0.414558 0
M  V30 2410 H 223.019 4.89383 -0.52586 0
M  V30 2411 N 224.671 0.411399 1.52136 0
M  V30 2412 C 225.917 -0.163888 2.02137 0
M  V30 2413 C 226.25 -1.44597 1.29636 0
M  V30 2414 O 225.525 -1.90272 0.403353 0
M  V30 2415 C 225.808 -0.40927 3.57767 0
M  V30 2416 C 225.661 0.889643 4.40914 0
M  V30 2417 C 226.98 -1.19042 4.23694 0
M  V30 2418 H 224.099 -0.0580896 0.734707 0
M  V30 2419 H 226.741 0.54531 1.82007 0
M  V30 2420 H 224.891 -1.0134 3.7505 0
M  V30 2421 H 226.563 1.52575 4.35337 0
M  V30 2422 H 224.806 1.50011 4.07037 0
M  V30 2423 H 225.477 0.672314 5.4789 0
M  V30 2424 H 227.953 -0.678942 4.10524 0
M  V30 2425 H 226.829 -1.33086 5.32522 0
M  V30 2426 H 227.09 -2.21166 3.82803 0
M  V30 2427 N 226.149 -1.5696 0.141893 0
M  V30 2428 C 227.079 -2.19516 -0.795936 0
M  V30 2429 C 228.06 -1.14187 -1.26077 0
M  V30 2430 O 229.245 -1.42511 -1.31925 0
M  V30 2431 C 226.375 -2.81272 -2.03723 0
M  V30 2432 C 225.329 -3.92384 -1.70936 0
M  V30 2433 C 224.655 -4.41052 -3.02287 0
M  V30 2434 C 225.955 -5.13403 -0.959954 0
M  V30 2435 H 227.649 -2.98138 -0.274596 0
M  V30 2436 H 225.195 -1.43406 -0.130636 0
M  V30 2437 H 227.148 -3.237 -2.69808 0
M  V30 2438 H 225.872 -1.99973 -2.58221 0
M  V30 2439 H 224.531 -3.50566 -1.07232 0
M  V30 2440 H 224.179 -3.56582 -3.54765 0
M  V30 2441 H 223.879 -5.15993 -2.81114 0
M  V30 2442 H 225.403 -4.86146 -3.69451 0
M  V30 2443 H 226.817 -5.52706 -1.52279 0
M  V30 2444 H 225.214 -5.94073 -0.848357 0
M  V30 2445 H 226.284 -4.84875 0.0492434 0
M  V30 2446 N 227.627 0.131896 -1.57047 0
M  V30 2447 C 229.043 0.485031 -1.52051 0
M  V30 2448 C 229.243 1.82563 -0.85281 0
M  V30 2449 O 228.299 2.48817 -0.429694 0
M  V30 2450 C 229.612 0.481409 -2.96821 0
M  V30 2451 C 231.16 0.565868 -3.07842 0
M  V30 2452 C 231.635 0.592762 -4.54148 0
M  V30 2453 N 233.126 0.654564 -4.58552 0
M  V30 2454 C 233.861 0.696608 -5.69153 0
M  V30 2455 N 233.357 0.697078 -6.89284 0
M  V30 2456 N 235.15 0.738639 -5.57226 0
M  V30 2457 H 227.301 -0.746664 -1.98843 0
M  V30 2458 H 229.564 -0.273999 -0.90754 0
M  V30 2459 H 229.27 -0.435731 -3.4899 0
M  V30 2460 H 229.144 1.3139 -3.53577 0
M  V30 2461 H 231.531 1.47343 -2.55684 0
M  V30 2462 H 231.612 -0.29406 -2.54104 0
M  V30 2463 H 231.256 -0.310701 -5.06949 0
M  V30 2464 H 231.186 1.46939 -5.05684 0
M  V30 2465 H 233.677 0.660887 -3.72076 0
M  V30 2466 H 233.99 0.731426 -7.69331 0
M  V30 2467 H 232.335 0.66471 -6.91814 0
M  V30 2468 H 235.526 0.735545 -4.62285 0
M  V30 2469 H 235.699 0.767938 -6.43434 0
M  V30 2470 N 229.106 1.52395 0.401703 0
M  V30 2471 C 230.355 1.66044 1.14509 0
M  V30 2472 C 230.668 0.400216 1.91462 0
M  V30 2473 O 231.874 0.416632 2.68284 0
M  V30 2474 C 230.33 2.93388 2.0845 0
M  V30 2475 C 229.938 4.26545 1.36978 0
M  V30 2476 C 231.682 3.16402 2.83001 0
M  V30 2477 C 229.589 5.45007 2.29611 0
M  V30 2478 H 228.519 0.618562 0.431158 0
M  V30 2479 H 231.17 1.78886 0.40892 0
M  V30 2480 H 229.552 2.74263 2.8565 0
M  V30 2481 H 230.726 4.56179 0.650916 0
M  V30 2482 H 229.041 4.09692 0.74438 0
M  V30 2483 H 231.638 4.02085 3.52465 0
M  V30 2484 H 231.981 2.30943 3.46368 0
M  V30 2485 H 232.514 3.36034 2.12898 0
M  V30 2486 H 229.253 6.32835 1.70879 0
M  V30 2487 H 228.773 5.19702 2.9945 0
M  V30 2488 H 230.452 5.7838 2.89974 0
M  V30 2489 N 230.584 -0.659388 1.43143 0
M  V30 2490 C 231.833 -1.41518 1.43721 0
M  V30 2491 C 232.146 -1.95499 0.0628176 0
M  V30 2492 O 233.352 -2.71446 -0.0539683 0
M  V30 2493 C 231.808 -2.5608 2.52885 0
M  V30 2494 C 231.416 -2.08733 3.96402 0
M  V30 2495 C 233.16 -3.3349 2.62649 0
M  V30 2496 C 231.067 -3.20469 4.97045 0
M  V30 2497 H 229.997 -0.531705 0.534608 0
M  V30 2498 H 232.648 -0.712343 1.69109 0
M  V30 2499 H 231.03 -3.28805 2.20688 0
M  V30 2500 H 232.204 -1.43059 4.3803 0
M  V30 2501 H 230.519 -1.44219 3.90627 0
M  V30 2502 H 233.116 -4.16734 3.35017 0
M  V30 2503 H 233.459 -3.8111 1.67513 0
M  V30 2504 H 233.992 -2.67842 2.94118 0
M  V30 2505 H 230.731 -2.77824 5.93712 0
M  V30 2506 H 230.251 -3.84874 4.60034 0
M  V30 2507 H 231.93 -3.85698 5.19467 0
M  V30 2508 N 232.062 -1.29571 -0.897171 0
M  V30 2509 C 233.339 -1.08365 -1.62839 0
M  V30 2510 C 233.719 0.371331 -2.07808 0
M  V30 2511 O 233.067 1.3606 -1.83576 0
M  V30 2512 C 233.277 -2.0735 -2.80726 0
M  V30 2513 C 234.625 -2.38406 -3.51351 0
M  V30 2514 O 235.649 -2.05564 -2.90898 0
M  V30 2515 O 234.508 -2.9453 -4.60341 0
M  V30 2516 H 231.602 -0.415345 -0.715134 0
M  V30 2517 H 234.148 -1.40952 -0.945018 0
M  V30 2518 H 232.92 -3.05339 -2.44711 0
M  V30 2519 H 232.543 -1.75507 -3.56767 0
M  V30 2520 N 233.54 1.10788 -1.12088 0
M  V30 2521 C 234.503 2.15207 -0.788577 0
M  V30 2522 C 235.503 1.59609 0.195317 0
M  V30 2523 O 236.693 1.74174 -0.0300193 0
M  V30 2524 C 233.825 3.4047 -0.171174 0
M  V30 2525 H 235.018 2.46116 -1.71368 0
M  V30 2526 H 232.571 1.26089 -0.923652 0
M  V30 2527 H 233.306 3.15176 0.763832 0
M  V30 2528 H 233.091 3.82109 -0.879514 0
M  V30 2529 H 234.581 4.17576 0.04496 0
M  V30 2530 N 235.018 0.912232 1.28515 0
M  V30 2531 C 236.264 0.545405 1.95328 0
M  V30 2532 C 236.597 -0.908313 1.71649 0
M  V30 2533 O 235.872 -1.64575 1.03659 0
M  V30 2534 C 236.155 0.853483 3.4984 0
M  V30 2535 C 236.008 2.35982 3.82926 0
M  V30 2536 C 237.327 0.348589 4.38717 0
M  V30 2537 H 234.446 0.199626 0.709449 0
M  V30 2538 H 237.088 1.1412 1.5191 0
M  V30 2539 H 235.238 0.34643 3.86952 0
M  V30 2540 H 236.91 2.93738 3.55691 0
M  V30 2541 H 235.153 2.81543 3.30024 0
M  V30 2542 H 235.824 2.52593 4.90816 0
M  V30 2543 H 238.3 0.78294 4.08668 0
M  V30 2544 H 237.176 0.593242 5.45685 0
M  V30 2545 H 237.437 -0.751049 4.35674 0
M  V30 2546 N 236.496 -1.42363 0.676048 0
M  V30 2547 C 237.428 -2.29164 -0.0404605 0
M  V30 2548 C 238.441 -1.43747 -0.764245 0
M  V30 2549 O 239.63 -1.67453 -0.618195 0
M  V30 2550 C 236.73 -3.21196 -1.08103 0
M  V30 2551 C 235.903 -4.35273 -0.430812 0
M  V30 2552 C 234.962 -5.08017 -1.37133 0
M  V30 2553 O 233.988 -5.62494 -0.87116 0
M  V30 2554 N 235.19 -5.13647 -2.70456 0
M  V30 2555 H 237.955 -2.91298 0.704667 0
M  V30 2556 H 235.516 -1.53303 0.520559 0
M  V30 2557 H 237.508 -3.66728 -1.71152 0
M  V30 2558 H 236.078 -2.60505 -1.72788 0
M  V30 2559 H 235.298 -3.92372 0.379209 0
M  V30 2560 H 236.586 -5.08795 0.0221132 0
M  V30 2561 H 235.984 -4.708 -3.1363 0
M  V30 2562 H 234.541 -5.62821 -3.28749 0
M  V30 2563 N 237.974 -0.419461 -1.51915 0
M  V30 2564 C 238.924 0.418496 -2.24126 0
M  V30 2565 C 239.908 1.00495 -1.25656 0
M  V30 2566 O 241.1 0.926058 -1.50842 0
M  V30 2567 C 238.229 1.52899 -3.07371 0
M  V30 2568 C 237.315 0.952797 -4.13258 0
M  V30 2569 N 237.706 0.104175 -5.05693 0
M  V30 2570 C 236.004 1.22224 -4.28926 0
M  V30 2571 C 236.705 -0.21752 -5.81293 0
M  V30 2572 N 235.681 0.394293 -5.42168 0
M  V30 2573 H 239.483 -0.236048 -2.92951 0
M  V30 2574 H 236.997 -0.230481 -1.60756 0
M  V30 2575 H 238.994 2.14199 -3.57665 0
M  V30 2576 H 237.654 2.18605 -2.40088 0
M  V30 2577 H 238.665 -0.260924 -5.17242 0
M  V30 2578 H 235.342 1.87812 -3.72871 0
M  V30 2579 H 236.732 -0.906992 -6.6575 0
M  V30 2580 N 239.452 1.56882 -0.150215 0
M  V30 2581 C 240.402 2.13501 0.800071 0
M  V30 2582 C 241.386 1.06368 1.20726 0
M  V30 2583 O 242.578 1.32538 1.17314 0
M  V30 2584 C 239.707 2.76271 2.03787 0
M  V30 2585 C 238.793 3.90533 1.65364 0
M  V30 2586 N 239.184 4.96259 0.977794 0
M  V30 2587 C 237.482 4.013 1.94613 0
M  V30 2588 C 238.183 5.76286 0.791794 0
M  V30 2589 N 237.159 5.27163 1.32666 0
M  V30 2590 H 240.961 2.92615 0.274517 0
M  V30 2591 H 238.475 1.62319 0.0512144 0
M  V30 2592 H 240.472 3.15197 2.72867 0
M  V30 2593 H 239.132 1.98631 2.56857 0
M  V30 2594 H 240.143 5.13953 0.638193 0
M  V30 2595 H 236.82 3.3474 2.4951 0
M  V30 2596 H 238.21 6.71401 0.258894 0
M  V30 2597 N 240.93 -0.123565 1.57115 0
M  V30 2598 C 241.84 -1.17074 2.033 0
M  V30 2599 C 242.856 -1.4561 0.952559 0
M  V30 2600 O 244.032 -1.56817 1.26374 0
M  V30 2601 C 241.097 -2.47857 2.42421 0
M  V30 2602 C 240.158 -2.26758 3.64526 0
M  V30 2603 C 239.391 -3.51305 4.01771 0
M  V30 2604 O 239.614 -4.5843 3.39409 0
M  V30 2605 O 238.548 -3.42578 4.94898 0
M  V30 2606 H 242.374 -0.808555 2.92739 0
M  V30 2607 H 239.959 -0.334027 1.45618 0
M  V30 2608 H 241.841 -3.2492 2.68338 0
M  V30 2609 H 240.516 -2.83558 1.5613 0
M  V30 2610 H 239.423 -1.47569 3.43765 0
M  V30 2611 H 240.756 -1.95963 4.51508 0
M  V30 2612 N 242.408 -1.52605 -0.393616 0
M  V30 2613 C 243.34 -1.73303 -1.49995 0
M  V30 2614 C 244.353 -0.613473 -1.50799 0
M  V30 2615 O 245.542 -0.889049 -1.54784 0
M  V30 2616 C 242.642 -1.77245 -2.88855 0
M  V30 2617 C 241.815 -3.06483 -3.12069 0
M  V30 2618 C 240.874 -3.02033 -4.30886 0
M  V30 2619 O 239.9 -3.75907 -4.27414 0
M  V30 2620 N 241.102 -2.20897 -5.36828 0
M  V30 2621 H 243.867 -2.68756 -1.32629 0
M  V30 2622 H 241.428 -1.51036 -0.583083 0
M  V30 2623 H 243.42 -1.7178 -3.66434 0
M  V30 2624 H 241.99 -0.891993 -2.99603 0
M  V30 2625 H 241.21 -3.25474 -2.22396 0
M  V30 2626 H 242.498 -3.91947 -3.2443 0
M  V30 2627 H 241.896 -1.60336 -5.42502 0
M  V30 2628 H 240.453 -2.21275 -6.13091 0
M  V30 2629 N 243.887 0.651787 -1.4349 0
M  V30 2630 C 244.837 1.75783 -1.45205 0
M  V30 2631 C 245.821 1.57679 -0.320328 0
M  V30 2632 O 247.013 1.67767 -0.564211 0
M  V30 2633 C 244.142 3.14377 -1.3792 0
M  V30 2634 C 243.228 3.38023 -2.56127 0
M  V30 2635 N 243.619 3.32135 -3.81471 0
M  V30 2636 C 241.917 3.68747 -2.50882 0
M  V30 2637 C 242.618 3.55902 -4.60118 0
M  V30 2638 N 241.594 3.77783 -3.90872 0
M  V30 2639 H 245.396 1.69657 -2.39987 0
M  V30 2640 H 242.91 0.853508 -1.38163 0
M  V30 2641 H 244.907 3.93666 -1.37231 0
M  V30 2642 H 243.567 3.21683 -0.441596 0
M  V30 2643 H 244.578 3.11515 -4.13738 0
M  V30 2644 H 241.255 3.8316 -1.65816 0
M  V30 2645 H 242.645 3.57116 -5.69138 0
M  V30 2646 N 245.365 1.30045 0.890287 0
M  V30 2647 C 246.613 1.18327 1.63839 0
M  V30 2648 C 246.934 -0.263455 1.93212 0
M  V30 2649 O 246.204 -1.17856 1.56482 0
M  V30 2650 H 244.784 0.434933 0.607324 0
M  V30 2651 H 247.446 1.631 1.06698 0
M  V30 2652 H 246.542 1.74024 2.59079 0
M  V30 2653 N 246.843 -1.10192 1.12674 0
M  V30 2654 C 248.12 -1.78717 0.794965 0
M  V30 2655 C 248.5 -1.98628 -0.714853 0
M  V30 2656 O 247.848 -1.58135 -1.64941 0
M  V30 2657 C 248.058 -3.11546 1.5729 0
M  V30 2658 C 249.406 -3.86382 1.76052 0
M  V30 2659 O 250.43 -3.21274 1.53823 0
M  V30 2660 O 249.289 -5.03246 2.13087 0
M  V30 2661 H 246.383 -0.774702 0.289423 0
M  V30 2662 H 248.929 -1.16819 1.23091 0
M  V30 2663 H 247.701 -2.92489 2.59935 0
M  V30 2664 H 247.324 -3.81164 1.13137 0
M  V30 2665 N 248.321 -0.919034 -1.28029 0
M  V30 2666 C 249.567 -0.555757 -1.95036 0
M  V30 2667 C 249.9 0.899198 -1.72128 0
M  V30 2668 O 249.175 1.64023 -1.04531 0
M  V30 2669 C 249.458 -0.872024 -3.49382 0
M  V30 2670 C 249.311 -2.3801 -3.81669 0
M  V30 2671 C 250.63 -0.37185 -4.38526 0
M  V30 2672 H 247.749 -0.203386 -0.708381 0
M  V30 2673 H 250.391 -1.14924 -1.51303 0
M  V30 2674 H 248.541 -0.366946 -3.86763 0
M  V30 2675 H 250.213 -2.9562 -3.54128 0
M  V30 2676 H 248.456 -2.83289 -3.28526 0
M  V30 2677 H 249.127 -2.55192 -4.8947 0
M  V30 2678 H 251.603 -0.804602 -4.08247 0
M  V30 2679 H 250.479 -0.622173 -5.45362 0
M  V30 2680 H 250.74 0.727934 -4.36066 0
M  V30 2681 N 249.799 1.42003 -0.683588 0
M  V30 2682 C 251.039 2.03282 -0.213513 0
M  V30 2683 C 251.403 1.52924 1.16097 0
M  V30 2684 O 252.604 2.06048 1.7262 0
M  V30 2685 C 250.875 3.56483 -0.255856 0
M  V30 2686 S 252.434 4.3857 0.14193 0
M  V30 2687 H 249.252 0.705659 -0.0869853 0
M  V30 2688 H 251.854 1.73619 -0.8987 0
M  V30 2689 H 250.558 3.90631 -1.25841 0
M  V30 2690 H 250.089 3.90831 0.448875 0
M  V30 2691 H 252.104 4.76828 1.37295 0
M  V30 2692 N 251.277 0.427512 1.51691 0
M  V30 2693 C 252.688 -0.0378867 1.86662 0
M  V30 2694 C 253.039 -1.42819 1.34525 0
M  V30 2695 O 252.164 -2.05037 0.692014 0
M  V30 2696 C 252.759 -0.0755266 3.38716 0
M  V30 2697 C 251.318 -0.485309 3.73258 0
M  V30 2698 C 250.465 0.328399 2.75349 0
M  V30 2699 H 253.416 0.64379 1.45055 0
M  V30 2700 H 253.437 -0.887056 3.70016 0
M  V30 2701 H 252.949 0.936487 3.76632 0
M  V30 2702 H 251.05 -1.50329 3.40928 0
M  V30 2703 H 251.163 -0.21693 4.78609 0
M  V30 2704 H 249.527 -0.211905 2.53817 0
M  V30 2705 H 250.31 1.3391 3.16106 0
M  V30 2706 N 252.755 -1.56801 0.158532 0
M  V30 2707 C 253.718 -2.16138 -0.762705 0
M  V30 2708 C 254.718 -1.1061 -1.16713 0
M  V30 2709 O 255.908 -1.36191 -1.08617 0
M  V30 2710 C 253.04 -2.73386 -2.03649 0
M  V30 2711 H 254.233 -2.98886 -0.246354 0
M  V30 2712 H 251.786 -1.56035 -0.0909744 0
M  V30 2713 H 252.521 -1.94335 -2.59623 0
M  V30 2714 H 252.306 -3.50601 -1.75559 0
M  V30 2715 H 253.796 -3.19065 -2.6942 0
M  V30 2716 N 254.233 0.115231 -1.57178 0
M  V30 2717 C 255.181 1.16014 -2.01602 0
M  V30 2718 C 256.175 1.42653 -0.913587 0
M  V30 2719 O 257.381 1.42571 -1.09879 0
M  V30 2720 H 253.756 0.391252 -0.642204 0
M  V30 2721 H 255.727 0.758998 -2.88586 0
M  V30 2722 C 254.476 2.47767 -2.4394 0
M  V30 2723 H 253.799 2.28108 -3.28339 0
M  V30 2724 H 255.239 3.19432 -2.78818 0
M  V30 2725 C 253.698 3.10617 -1.30455 0
M  V30 2726 O 254.228 3.96846 -0.622585 0
M  V30 2727 N 252.434 2.70553 -1.06064 0
M  V30 2728 H 251.981 2.00527 -1.61699 0
M  V30 2729 H 251.939 3.12934 -0.303284 0
M  V30 2730 N 255.711 1.52812 0.385517 0
M  V30 2731 C 256.957 1.69225 1.12847 0
M  V30 2732 C 257.312 0.42864 1.87564 0
M  V30 2733 O 256.605 -0.57779 1.8268 0
M  V30 2734 C 256.799 2.86856 2.13187 0
M  V30 2735 C 256.628 4.24535 1.48325 0
M  V30 2736 C 255.398 4.89701 1.24585 0
M  V30 2737 C 257.596 5.05794 0.931501 0
M  V30 2738 N 255.578 6.11353 0.558644 0
M  V30 2739 C 256.949 6.1888 0.372552 0
M  V30 2740 C 259.004 4.90963 0.828248 0
M  V30 2741 C 257.707 7.18757 -0.279556 0
M  V30 2742 C 259.733 5.91095 0.189956 0
M  V30 2743 C 259.095 7.03489 -0.358207 0
M  V30 2744 H 255.194 0.67268 0.39878 0
M  V30 2745 H 257.778 1.9017 0.417528 0
M  V30 2746 H 255.949 2.67484 2.81614 0
M  V30 2747 H 257.681 2.92188 2.80014 0
M  V30 2748 H 254.436 4.48485 1.52178 0
M  V30 2749 H 254.86 6.76606 0.230983 0
M  V30 2750 H 259.502 4.04274 1.23784 0
M  V30 2751 H 257.22 8.05052 -0.701152 0
M  V30 2752 H 260.806 5.81694 0.111264 0
M  V30 2753 H 259.686 7.79642 -0.844314 0
M  V30 2754 N 257.189 -0.644168 1.43834 0
M  V30 2755 C 258.136 -1.75671 1.49694 0
M  V30 2756 C 259.106 -1.6246 0.345809 0
M  V30 2757 O 260.291 -1.82573 0.554234 0
M  V30 2758 C 257.431 -3.13867 1.43463 0
M  V30 2759 C 256.544 -3.38147 2.6885 0
M  V30 2760 C 255.679 -4.66241 2.54544 0
M  V30 2761 C 254.718 -4.83657 3.75157 0
M  V30 2762 N 253.855 -6.03016 3.59605 0
M  V30 2763 H 258.695 -1.69998 2.44754 0
M  V30 2764 H 256.232 -0.829458 1.21484 0
M  V30 2765 H 258.19 -3.9377 1.37843 0
M  V30 2766 H 256.82 -3.18588 0.519783 0
M  V30 2767 H 255.872 -2.52276 2.84712 0
M  V30 2768 H 257.184 -3.46899 3.58417 0
M  V30 2769 H 256.338 -5.54285 2.46683 0
M  V30 2770 H 255.077 -4.59826 1.62516 0
M  V30 2771 H 254.082 -3.94046 3.83416 0
M  V30 2772 H 255.307 -4.91896 4.68204 0
M  V30 2773 H 253.253 -5.97715 2.7032 0
M  V30 2774 H 253.17 -6.12766 4.42779 0
M  V30 2775 H 254.438 -6.93657 3.55613 0
M  V30 2776 N 258.668 -1.30515 -0.883378 0
M  V30 2777 C 259.615 -1.17032 -1.98927 0
M  V30 2778 C 260.585 -0.0594241 -1.65994 0
M  V30 2779 O 261.77 -0.229895 -1.8941 0
M  V30 2780 C 258.91 -0.869777 -3.33959 0
M  V30 2781 C 258.023 -2.06271 -3.79574 0
M  V30 2782 C 257.158 -1.70011 -5.03259 0
M  V30 2783 C 256.197 -2.8579 -5.41286 0
M  V30 2784 N 255.334 -2.49816 -6.56153 0
M  V30 2785 H 260.174 -2.1164 -2.09792 0
M  V30 2786 H 257.711 -1.05296 -1.02719 0
M  V30 2787 H 259.669 -0.676138 -4.11685 0
M  V30 2788 H 258.299 0.0394332 -3.22776 0
M  V30 2789 H 257.351 -2.36755 -2.97744 0
M  V30 2790 H 258.663 -2.92971 -4.03694 0
M  V30 2791 H 257.817 -1.47032 -5.88614 0
M  V30 2792 H 256.556 -0.804829 -4.81013 0
M  V30 2793 H 255.561 -3.09434 -4.54456 0
M  V30 2794 H 256.786 -3.76008 -5.65504 0
M  V30 2795 H 254.732 -1.62795 -6.35479 0
M  V30 2796 H 254.649 -3.30048 -6.8015 0
M  V30 2797 H 255.917 -2.30197 -7.44735 0
M  V30 2798 N 260.146 1.09593 -1.13257 0
M  V30 2799 C 261.394 1.81375 -0.891492 0
M  V30 2800 C 261.715 1.86049 0.584009 0
M  V30 2801 O 260.985 1.34481 1.42449 0
M  V30 2802 H 259.565 0.671708 -0.326828 0
M  V30 2803 H 262.227 1.3256 -1.42877 0
M  V30 2804 H 261.323 2.84612 -1.28071 0
M  V30 2805 N 261.624 0.925811 1.2754 0
M  V30 2806 C 262.571 0.422045 2.26908 0
M  V30 2807 C 263.541 -0.510029 1.58076 0
M  V30 2808 O 264.726 -0.429599 1.85901 0
M  V30 2809 C 261.866 -0.320837 3.43605 0
M  V30 2810 C 260.979 0.64513 4.27156 0
M  V30 2811 C 260.114 -0.117405 5.3107 0
M  V30 2812 C 259.153 0.841391 6.0629 0
M  V30 2813 N 258.29 0.111604 7.02011 0
M  V30 2814 H 263.13 1.27441 2.69375 0
M  V30 2815 H 260.667 0.639697 1.32462 0
M  V30 2816 H 262.625 -0.76785 4.10073 0
M  V30 2817 H 261.255 -1.13745 3.02096 0
M  V30 2818 H 260.307 1.21067 3.6062 0
M  V30 2819 H 261.619 1.37797 4.79389 0
M  V30 2820 H 260.773 -0.624422 6.03478 0
M  V30 2821 H 259.512 -0.883219 4.79636 0
M  V30 2822 H 258.517 1.35967 5.32722 0
M  V30 2823 H 259.742 1.60696 6.59813 0
M  V30 2824 H 257.688 -0.635999 6.5291 0
M  V30 2825 H 257.605 0.784044 7.51923 0
M  V30 2826 H 258.873 -0.374823 7.78598 0
M  V30 2827 N 263.102 -1.41638 0.69111 0
M  V30 2828 C 264.348 -2.01598 0.220519 0
M  V30 2829 C 264.681 -1.54594 -1.17535 0
M  V30 2830 O 263.956 -0.755177 -1.79241 0
M  V30 2831 C 264.239 -3.59062 0.273243 0
M  V30 2832 C 264.092 -4.16203 1.70573 0
M  V30 2833 C 265.411 -4.38546 -0.369457 0
M  V30 2834 H 262.53 -0.732468 0.0816045 0
M  V30 2835 H 265.172 -1.68445 0.878986 0
M  V30 2836 H 263.322 -3.87435 -0.287411 0
M  V30 2837 H 264.994 -3.98722 2.31989 0
M  V30 2838 H 263.237 -3.71414 2.2413 0
M  V30 2839 H 263.908 -5.25358 1.69419 0
M  V30 2840 H 266.384 -4.1596 0.107977 0
M  V30 2841 H 265.26 -5.48069 -0.302002 0
M  V30 2842 H 265.521 -4.17662 -1.44951 0
M  V30 2843 N 264.58 -0.43555 -1.51462 0
M  V30 2844 C 265.543 0.365137 -2.26273 0
M  V30 2845 C 266.543 0.951227 -1.29647 0
M  V30 2846 O 267.733 0.825958 -1.53374 0
M  V30 2847 C 264.865 1.51645 -3.05314 0
M  V30 2848 H 266.058 -0.290474 -2.9849 0
M  V30 2849 H 263.611 -0.188676 -1.55157 0
M  V30 2850 H 264.346 2.20816 -2.3751 0
M  V30 2851 H 264.131 1.10238 -3.76284 0
M  V30 2852 H 265.621 2.08218 -3.61987 0
M  V30 2853 N 266.058 1.56714 -0.166846 0
M  V30 2854 C 266.991 2.13577 0.80375 0
M  V30 2855 C 267.969 1.06464 1.22899 0
M  V30 2856 O 269.153 1.34413 1.32157 0
M  V30 2857 C 266.28 2.67168 2.0818 0
M  V30 2858 C 265.326 3.86612 1.80093 0
M  V30 2859 S 266.159 5.26565 0.97416 0
M  V30 2860 C 267.315 5.83558 2.26297 0
M  V30 2861 H 267.548 2.9557 0.320267 0
M  V30 2862 H 265.081 1.54326 0.0477555 0
M  V30 2863 H 267.039 2.98692 2.8159 0
M  V30 2864 H 265.7 1.85269 2.53642 0
M  V30 2865 H 264.893 4.22422 2.7491 0
M  V30 2866 H 264.495 3.55951 1.14781 0
M  V30 2867 H 266.787 5.962 3.21795 0
M  V30 2868 H 267.73 6.80731 1.94962 0
M  V30 2869 H 268.138 5.11944 2.37853 0
M  V30 2870 N 267.536 -0.106894 1.57237 0
M  V30 2871 C 268.483 -1.13049 2.01217 0
M  V30 2872 C 269.453 -1.40471 0.886403 0
M  V30 2873 O 270.638 -1.52133 1.15153 0
M  V30 2874 C 267.778 -2.4487 2.43172 0
M  V30 2875 C 266.891 -2.24281 3.69218 0
M  V30 2876 C 266.026 -3.49417 4.00101 0
M  V30 2877 C 265.065 -3.24038 5.19294 0
M  V30 2878 N 264.202 -4.41409 5.45988 0
M  V30 2879 H 269.042 -0.748456 2.88448 0
M  V30 2880 H 266.579 -0.358054 1.42676 0
M  V30 2881 H 268.537 -3.21786 2.65537 0
M  V30 2882 H 267.167 -2.80944 1.58967 0
M  V30 2883 H 266.219 -1.38224 3.54398 0
M  V30 2884 H 267.531 -2.01512 4.56283 0
M  V30 2885 H 266.685 -4.34746 4.2318 0
M  V30 2886 H 265.424 -3.75229 3.11535 0
M  V30 2887 H 264.429 -2.37102 4.96047 0
M  V30 2888 H 265.654 -2.99584 6.09447 0
M  V30 2889 H 263.6 -4.67319 4.60379 0
M  V30 2890 H 263.517 -4.21788 6.274 0
M  V30 2891 H 264.785 -5.27836 5.73593 0
M  V30 2892 N 269.014 -1.53014 -0.377408 0
M  V30 2893 C 270.425 -1.60438 -0.954798 0
M  V30 2894 C 270.776 -0.464418 -1.90624 0
M  V30 2895 O 269.901 0.41087 -2.12464 0
M  V30 2896 C 270.496 -2.90797 -1.73847 0
M  V30 2897 C 269.055 -3.00595 -2.26538 0
M  V30 2898 C 268.202 -2.55645 -1.07429 0
M  V30 2899 H 271.153 -1.57926 -0.156575 0
M  V30 2900 H 271.174 -2.77935 -2.5987 0
M  V30 2901 H 270.686 -3.73746 -1.04574 0
M  V30 2902 H 268.787 -2.22208 -2.99089 0
M  V30 2903 H 268.9 -4.05456 -2.5523 0
M  V30 2904 H 267.264 -2.10239 -1.43777 0
M  V30 2905 H 268.047 -3.41 -0.396728 0
M  V30 2906 N 270.492 0.636531 -1.44174 0
M  V30 2907 C 271.717 1.42847 -1.50364 0
M  V30 2908 C 272.142 1.87665 -0.127867 0
M  V30 2909 O 271.5 1.58408 0.88185 0
M  V30 2910 C 271.548 2.62854 -2.4686 0
M  V30 2911 O 270.652 3.62501 -1.9664 0
M  V30 2912 H 269.993 0.427642 -0.507955 0
M  V30 2913 H 272.523 0.777422 -1.89255 0
M  V30 2914 H 272.533 3.10465 -2.64718 0
M  V30 2915 H 271.208 2.29578 -3.46795 0
M  V30 2916 H 269.785 3.21735 -1.88523 0
M  V30 2917 N 271.97 1.30982 0.876444 0
M  V30 2918 C 272.88 1.2003 2.01569 0
M  V30 2919 C 273.896 0.11838 1.73597 0
M  V30 2920 O 275.072 0.33495 1.98595 0
M  V30 2921 C 272.137 0.901637 3.34771 0
M  V30 2922 C 271.198 2.06979 3.76109 0
M  V30 2923 C 270.431 1.78529 5.02954 0
M  V30 2924 O 270.654 0.717296 5.65872 0
M  V30 2925 O 269.588 2.64019 5.40905 0
M  V30 2926 H 273.414 2.15753 2.13739 0
M  V30 2927 H 270.999 1.10658 1.00375 0
M  V30 2928 H 272.881 0.750645 4.1466 0
M  V30 2929 H 271.556 -0.0256141 3.2369 0
M  V30 2930 H 270.463 2.27616 2.96887 0
M  V30 2931 H 271.796 2.97907 3.91807 0
M  V30 2932 N 273.449 -1.08991 1.13837 0
M  V30 2933 C 274.359 -2.19301 0.833333 0
M  V30 2934 C 275.375 -1.73026 -0.183847 0
M  V30 2935 O 276.551 -2.01395 -0.0138092 0
M  V30 2936 C 273.616 -3.45323 0.308651 0
M  V30 2937 C 272.677 -4.06255 1.38764 0
M  V30 2938 C 271.91 -5.26262 0.887896 0
M  V30 2939 O 272.133 -5.69747 -0.27287 0
M  V30 2940 O 271.067 -5.78435 1.66421 0
M  V30 2941 H 274.893 -2.47854 1.75506 0
M  V30 2942 H 272.478 -1.18012 0.916166 0
M  V30 2943 H 274.36 -4.21394 0.0216739 0
M  V30 2944 H 273.035 -3.18362 -0.585431 0
M  V30 2945 H 271.942 -3.318 1.72799 0
M  V30 2946 H 273.275 -4.37452 2.25602 0
M  V30 2947 N 274.927 -0.932562 -1.27047 0
M  V30 2948 C 276.175 -0.574422 -1.93765 0
M  V30 2949 C 276.496 0.887993 -1.73608 0
M  V30 2950 O 275.766 1.62999 -1.08665 0
M  V30 2951 H 274.346 -0.209451 -0.717035 0
M  V30 2952 H 277.008 -1.18601 -1.5466 0
M  V30 2953 H 276.104 -0.784841 -3.02071 0
M  V30 2954 N 276.405 1.4127 -0.698611 0
M  V30 2955 C 277.651 2.01478 -0.231207 0
M  V30 2956 C 277.984 1.55215 1.16713 0
M  V30 2957 O 277.259 0.764672 1.78838 0
M  V30 2958 C 277.542 3.58912 -0.292281 0
M  V30 2959 C 277.395 4.15293 -1.72778 0
M  V30 2960 C 278.714 4.38736 0.346194 0
M  V30 2961 H 275.833 0.732025 -0.0854878 0
M  V30 2962 H 278.475 1.67977 -0.887906 0
M  V30 2963 H 276.625 3.87582 0.26686 0
M  V30 2964 H 278.297 3.97486 -2.341 0
M  V30 2965 H 276.54 3.7022 -2.26096 0
M  V30 2966 H 277.211 5.24452 -1.72202 0
M  V30 2967 H 279.687 4.15897 -0.130035 0
M  V30 2968 H 278.563 5.48221 0.272932 0
M  V30 2969 H 278.824 4.18425 1.42734 0
M  V30 2970 N 277.883 0.443576 1.51229 0
M  V30 2971 C 279.108 -0.121648 2.07043 0
M  V30 2972 C 279.533 -1.35156 1.30823 0
M  V30 2973 O 278.891 -1.7793 0.347934 0
M  V30 2974 C 278.939 -0.41624 3.5819 0
M  V30 2975 O 278.043 -1.50163 3.8409 0
M  V30 2976 H 277.384 0.000871367 0.663999 0
M  V30 2977 H 279.914 0.626706 1.94765 0
M  V30 2978 H 279.924 -0.664867 4.02546 0
M  V30 2979 H 278.599 0.482653 4.1309 0
M  V30 2980 H 277.176 -1.24248 3.51592 0
M  V30 2981 N 279.361 -1.56624 0.175154 0
M  V30 2982 C 280.271 -2.21741 -0.766042 0
M  V30 2983 C 281.287 -1.21023 -1.25018 0
M  V30 2984 O 282.463 -1.53697 -1.3015 0
M  V30 2985 C 279.528 -2.84839 -1.97655 0
M  V30 2986 C 278.589 -4.00769 -1.53892 0
M  V30 2987 C 277.822 -4.60849 -2.69173 0
M  V30 2988 O 278.045 -4.19823 -3.86141 0
M  V30 2989 O 276.979 -5.50655 -2.43028 0
M  V30 2990 H 280.805 -3.02738 -0.241585 0
M  V30 2991 H 278.39 -1.49305 -0.053222 0
M  V30 2992 H 280.272 -3.24834 -2.68442 0
M  V30 2993 H 278.947 -2.06836 -2.48999 0
M  V30 2994 H 277.854 -3.65436 -0.80044 0
M  V30 2995 H 279.187 -4.80376 -1.07236 0
M  V30 2996 N 280.839 0.0985539 -1.57292 0
M  V30 2997 C 282.069 0.815135 -1.8984 0
M  V30 2998 C 282.477 1.7297 -0.766679 0
M  V30 2999 O 281.82 1.81698 0.270483 0
M  V30 3000 C 281.882 1.6842 -3.17608 0
M  V30 3001 C 281.546 0.94182 -4.4719 0
M  V30 3002 C 282.543 0.273212 -5.19182 0
M  V30 3003 C 280.228 0.916927 -4.9386 0
M  V30 3004 C 282.222 -0.410361 -6.36078 0
M  V30 3005 C 279.909 0.229567 -6.10669 0
M  V30 3006 C 280.907 -0.432902 -6.81627 0
M  V30 3007 O 280.595 -1.10925 -7.9621 0
M  V30 3008 H 280.327 0.238501 -0.632529 0
M  V30 3009 H 282.881 0.0812659 -2.05239 0
M  V30 3010 H 281.111 2.46022 -2.98345 0
M  V30 3011 H 282.8 2.27704 -3.36015 0
M  V30 3012 H 283.566 0.283927 -4.84168 0
M  V30 3013 H 279.445 1.42201 -4.3852 0
M  V30 3014 H 282.989 -0.928013 -6.914 0
M  V30 3015 H 278.886 0.216686 -6.45136 0
M  V30 3016 H 279.654 -1.01579 -8.12172 0
M  V30 3017 N 282.317 1.53212 0.369288 0
M  V30 3018 C 283.247 1.82365 1.45826 0
M  V30 3019 C 284.228 0.676907 1.56051 0
M  V30 3020 O 285.413 0.926401 1.70679 0
M  V30 3021 C 282.543 2.01023 2.83208 0
M  V30 3022 C 281.497 3.1678 2.8781 0
M  V30 3023 C 280.823 3.20724 4.27832 0
M  V30 3024 C 282.123 4.55447 2.55667 0
M  V30 3025 H 283.817 2.73559 1.21678 0
M  V30 3026 H 281.363 1.3163 0.583911 0
M  V30 3027 H 283.316 2.20001 3.59413 0
M  V30 3028 H 282.04 1.06536 3.08736 0
M  V30 3029 H 280.699 2.97616 2.14056 0
M  V30 3030 H 280.347 2.23882 4.50429 0
M  V30 3031 H 280.047 3.98496 4.31827 0
M  V30 3032 H 281.571 3.41881 5.05915 0
M  V30 3033 H 282.985 4.74611 3.21586 0
M  V30 3034 H 281.382 5.35432 2.70984 0
M  V30 3035 H 282.452 4.60812 1.5093 0
M  V30 3036 N 283.795 -0.628877 1.44509 0
M  V30 3037 C 285.02 -1.42048 1.5112 0
M  V30 3038 C 285.445 -1.87594 0.137818 0
M  V30 3039 O 284.803 -1.58873 -0.873437 0
M  V30 3040 C 284.851 -2.61541 2.48251 0
M  V30 3041 O 283.955 -3.61453 1.98559 0
M  V30 3042 H 283.296 -0.424942 0.510216 0
M  V30 3043 H 285.826 -0.767374 1.89664 0
M  V30 3044 H 285.836 -3.09057 2.66361 0
M  V30 3045 H 284.511 -2.27736 3.48007 0
M  V30 3046 H 283.088 -3.20731 1.90227 0
M  V30 3047 N 285.273 -1.31445 -0.869486 0
M  V30 3048 C 286.22 -1.19135 -1.97675 0
M  V30 3049 C 287.19 -0.0770266 -1.65921 0
M  V30 3050 O 288.375 -0.249972 -1.89155 0
M  V30 3051 C 285.515 -0.905149 -3.33018 0
M  V30 3052 C 284.628 -2.10285 -3.77365 0
M  V30 3053 C 283.763 -1.75339 -5.01427 0
M  V30 3054 C 282.802 -2.91515 -5.38224 0
M  V30 3055 N 281.939 -2.56762 -6.53466 0
M  V30 3056 H 286.779 -2.13853 -2.07535 0
M  V30 3057 H 284.316 -1.06379 -1.01597 0
M  V30 3058 H 286.274 -0.719765 -4.10944 0
M  V30 3059 H 284.904 0.00519624 -3.228 0
M  V30 3060 H 283.956 -2.39899 -2.95216 0
M  V30 3061 H 285.268 -2.97237 -4.00564 0
M  V30 3062 H 284.422 -1.53266 -5.87022 0
M  V30 3063 H 283.161 -0.855801 -4.80133 0
M  V30 3064 H 282.166 -3.14237 -4.51149 0
M  V30 3065 H 283.391 -3.81985 -5.61484 0
M  V30 3066 H 281.337 -1.69526 -6.33717 0
M  V30 3067 H 281.254 -3.37243 -6.76612 0
M  V30 3068 H 282.522 -2.38083 -7.42251 0
M  V30 3069 N 286.751 1.08385 -1.14413 0
M  V30 3070 C 287.681 2.17321 -0.854044 0
M  V30 3071 C 288.662 1.69024 0.191049 0
M  V30 3072 O 289.847 1.94141 0.0476779 0
M  V30 3073 C 286.977 3.45719 -0.330983 0
M  V30 3074 C 285.931 4.07409 -1.31155 0
M  V30 3075 C 285.257 5.30762 -0.64778 0
M  V30 3076 C 286.557 4.48665 -2.67388 0
M  V30 3077 H 288.251 2.41845 -1.76498 0
M  V30 3078 H 285.797 1.16233 -0.850051 0
M  V30 3079 H 287.75 4.21241 -0.115645 0
M  V30 3080 H 286.474 3.2075 0.615381 0
M  V30 3081 H 285.133 3.33919 -1.51306 0
M  V30 3082 H 284.781 5.02078 0.304398 0
M  V30 3083 H 284.481 5.72992 -1.30207 0
M  V30 3084 H 286.005 6.08998 -0.441972 0
M  V30 3085 H 287.419 5.15364 -2.51143 0
M  V30 3086 H 285.816 5.01814 -3.29093 0
M  V30 3087 H 286.886 3.60543 -3.24248 0
M  V30 3088 O 288.268 1.07005 1.20964 0
M  V30 3089 H 288.959 0.754737 1.78391 0
M  V30 END ATOM
M  V30 BEGIN BOND
M  V30 END BOND
M  V30 END CTAB
M  END
$$$$
