drugbank_target|Q8IM74 Lysophospholipase, putative (DB11638)
 OpenBabel12092121113D

  0  0  0     0  0            999 V3000
M  V30 BEGIN CTAB
M  V30 COUNTS 6176 6243 0 0 0
M  V30 BEGIN ATOM
M  V30 1 H -0.908 1.98254 -0.117106 0
M  V30 2 N 0 1.576 0 0
M  V30 3 C 0.933 2.03868 1.02534 0
M  V30 4 C 1.911 0.928543 1.3348 0
M  V30 5 O 3.095 1.19667 1.45644 0
M  V30 6 C 0.222 2.43627 2.35294 0
M  V30 7 C -0.732 3.65373 2.2001 0
M  V30 8 S 0.101 5.13292 1.52614 0
M  V30 9 C 1.257 5.56322 2.86805 0
M  V30 10 H 1.49 2.90518 0.631377 0
M  V30 11 H -0.977 1.52953 0.210867 0
M  V30 12 H 0.981 2.67203 3.11629 0
M  V30 13 H -0.358 1.57376 2.7183 0
M  V30 14 H -1.165 3.90944 3.18086 0
M  V30 15 H -1.563 3.418 1.51819 0
M  V30 16 H 0.729 5.58782 3.83104 0
M  V30 17 H 1.672 6.56266 2.65933 0
M  V30 18 H 2.08 4.83886 2.90714 0
M  V30 19 N 1.4781 -0.272755 1.55222 0
M  V30 20 C 2.7241 -1.00581 1.761 0
M  V30 21 C 3.0571 -1.85932 0.560625 0
M  V30 22 O 2.3321 -1.89416 -0.441801 0
M  V30 23 C 2.6151 -1.88816 3.06628 0
M  V30 24 C 2.4681 -1.06457 4.37021 0
M  V30 25 C 3.7871 -2.8752 3.33197 0
M  V30 26 H 0.9061 -0.364244 0.640699 0
M  V30 27 H 3.5481 -0.278189 1.87952 0
M  V30 28 H 1.6981 -2.50856 2.96654 0
M  V30 29 H 3.3701 -0.464863 4.58952 0
M  V30 30 H 1.6131 -0.368043 4.32236 0
M  V30 31 H 2.2841 -1.71514 5.24678 0
M  V30 32 H 4.7601 -2.35615 3.42965 0
M  V30 33 H 3.6361 -3.46399 4.25792 0
M  V30 34 H 3.8971 -3.62657 2.52849 0
M  V30 35 N 2.9562 -1.48159 -0.537278 0
M  V30 36 C 3.8662 -1.64807 -1.6696 0
M  V30 37 C 4.8822 -0.530651 -1.65711 0
M  V30 38 O 6.0582 -0.800784 -1.84796 0
M  V30 39 C 3.1232 -1.67708 -3.03438 0
M  V30 40 C 2.1842 -2.91025 -3.156 0
M  V30 41 C 1.4172 -2.93778 -4.45567 0
M  V30 42 O 1.6402 -2.05153 -5.3223 0
M  V30 43 O 0.5742 -3.85868 -4.61941 0
M  V30 44 H 4.4002 -2.6066 -1.55853 0
M  V30 45 H 1.9852 -1.31475 -0.709549 0
M  V30 46 H 3.8672 -1.7218 -3.84619 0
M  V30 47 H 2.5422 -0.750278 -3.14885 0
M  V30 48 H 1.4492 -2.92089 -2.33741 0
M  V30 49 H 2.7822 -3.83065 -3.09066 0
M  V30 50 N 4.4343 0.785586 -1.36625 0
M  V30 51 C 5.3823 1.91978 -1.31329 0
M  V30 52 C 6.3763 1.68162 -0.204416 0
M  V30 53 O 7.5823 1.76122 -0.371645 0
M  V30 54 H 3.9573 0.631087 -0.408942 0
M  V30 55 H 5.9283 1.93562 -2.27104 0
M  V30 56 C 4.6773 3.29055 -1.12329 0
M  V30 57 H 4.0003 3.4795 -1.96903 0
M  V30 58 H 5.4403 4.08756 -1.12671 0
M  V30 59 C 3.8993 3.36461 0.171861 0
M  V30 60 O 4.4293 3.84576 1.16035 0
M  V30 61 N 2.6353 2.89782 0.217846 0
M  V30 62 H 2.1823 2.50819 -0.587183 0
M  V30 63 H 2.1403 2.95119 1.08408 0
M  V30 64 N 5.9124 1.20967 1.01018 0
M  V30 65 C 6.8224 0.980157 2.13143 0
M  V30 66 C 7.8384 -0.0660665 1.73875 0
M  V30 67 O 9.0144 0.122821 2.01025 0
M  V30 68 C 6.0794 0.54216 3.42435 0
M  V30 69 C 5.1404 1.65999 3.95908 0
M  V30 70 C 4.3734 1.2428 5.19028 0
M  V30 71 O 4.5964 0.114196 5.70286 0
M  V30 72 O 3.5304 2.05271 5.65816 0
M  V30 73 H 7.3564 1.91913 2.35379 0
M  V30 74 H 4.9414 0.994099 1.11526 0
M  V30 75 H 6.8234 0.30744 4.20277 0
M  V30 76 H 5.4984 -0.36815 3.216 0
M  V30 77 H 4.4054 1.94906 3.19316 0
M  V30 78 H 5.7384 2.54753 4.21143 0
M  V30 79 N 7.3905 -1.2043 1.01659 0
M  V30 80 C 8.3205 -2.25466 0.607226 0
M  V30 81 C 9.3015 -1.65853 -0.377716 0
M  V30 82 O 10.4865 -1.92409 -0.263149 0
M  V30 83 C 7.6165 -3.47256 -0.0552949 0
M  V30 84 C 6.5705 -4.19462 0.850632 0
M  V30 85 C 5.8965 -5.34673 0.0538859 0
M  V30 86 C 7.1965 -4.75603 2.15868 0
M  V30 87 H 8.8905 -2.59962 1.48526 0
M  V30 88 H 6.4365 -1.2496 0.715605 0
M  V30 89 H 8.3895 -4.19917 -0.353233 0
M  V30 90 H 7.1135 -3.11924 -0.968045 0
M  V30 91 H 5.7725 -3.48667 1.13257 0
M  V30 92 H 5.4205 -4.95585 -0.860514 0
M  V30 93 H 5.1205 -5.83913 0.657192 0
M  V30 94 H 6.6445 -6.10138 -0.237598 0
M  V30 95 H 8.0585 -5.40083 1.92311 0
M  V30 96 H 6.4555 -5.3528 2.71284 0
M  V30 97 H 7.5255 -3.94346 2.82169 0
M  V30 98 N 8.8686 -0.792821 -1.36206 0
M  V30 99 C 9.7986 -0.207853 -2.32573 0
M  V30 100 C 10.7796 0.659055 -1.56813 0
M  V30 101 O 11.9646 0.592176 -1.84951 0
M  V30 102 C 9.0946 0.655449 -3.41059 0
M  V30 103 C 8.0486 -0.111842 -4.27854 0
M  V30 104 C 7.3746 0.872274 -5.27537 0
M  V30 105 C 8.6746 -1.30299 -5.05786 0
M  V30 106 H 10.3686 -1.01294 -2.81744 0
M  V30 107 H 7.9146 -0.48854 -1.3546 0
M  V30 108 H 9.8676 1.07464 -4.07467 0
M  V30 109 H 8.5916 1.49328 -2.90463 0
M  V30 110 H 7.2506 -0.512053 -3.63006 0
M  V30 111 H 6.8986 1.70523 -4.73214 0
M  V30 112 H 6.5986 0.363291 -5.86476 0
M  V30 113 H 8.1226 1.28996 -5.96818 0
M  V30 114 H 9.5366 -0.959379 -5.65216 0
M  V30 115 H 7.9336 -1.7455 -5.74154 0
M  V30 116 H 9.0036 -2.09663 -4.37229 0
M  V30 117 N 10.3467 1.47872 -0.545128 0
M  V30 118 C 11.5767 2.06589 -0.0210534 0
M  V30 119 C 11.9847 1.39997 1.27269 0
M  V30 120 O 11.3277 0.486421 1.77143 0
M  V30 121 C 11.3897 3.58574 0.257933 0
M  V30 122 C 11.0537 4.47132 -0.944573 0
M  V30 123 C 12.0507 4.85986 -1.84699 0
M  V30 124 C 9.7357 4.88821 -1.15584 0
M  V30 125 C 11.7297 5.65314 -2.94446 0
M  V30 126 C 9.4167 5.67916 -2.25642 0
M  V30 127 C 10.4147 6.06073 -3.14905 0
M  V30 128 O 10.1027 6.83578 -4.23057 0
M  V30 129 H 9.8347 0.674971 -0.0372899 0
M  V30 130 H 12.3887 1.91037 -0.754599 0
M  V30 131 H 10.6187 3.72295 1.04564 0
M  V30 132 H 12.3077 3.99356 0.72592 0
M  V30 133 H 13.0737 4.54388 -1.69577 0
M  V30 134 H 8.9527 4.58595 -0.470279 0
M  V30 135 H 12.4967 5.95016 -3.64145 0
M  V30 136 H 8.3937 5.98927 -2.40742 0
M  V30 137 H 9.1617 7.01954 -4.20954 0
M  V30 138 N 11.8248 0.280983 1.55075 0
M  V30 139 C 12.7348 -0.61388 2.26426 0
M  V30 140 C 13.7508 -1.16521 1.29224 0
M  V30 141 O 14.9268 -1.19426 1.62171 0
M  V30 142 C 11.9918 -1.7788 2.9759 0
M  V30 143 C 11.0528 -1.26355 4.10284 0
M  V30 144 C 10.2858 -2.37295 4.78045 0
M  V30 145 O 10.5088 -3.56777 4.45047 0
M  V30 146 O 9.4428 -2.05119 5.65871 0
M  V30 147 H 13.2688 -0.0356932 3.03679 0
M  V30 148 H 10.8538 0.0481686 1.49322 0
M  V30 149 H 12.7358 -2.45791 3.42293 0
M  V30 150 H 11.4108 -2.34397 2.23249 0
M  V30 151 H 10.3178 -0.550735 3.70024 0
M  V30 152 H 11.6508 -0.744065 4.86543 0
M  V30 153 N 13.3029 -1.57598 0.00835791 0
M  V30 154 C 14.2509 -2.10078 -0.998508 0
M  V30 155 C 15.2449 -1.02262 -1.35051 0
M  V30 156 O 16.4509 -1.20719 -1.33518 0
M  V30 157 H 12.8259 -0.670903 -0.339696 0
M  V30 158 H 14.7969 -2.93648 -0.530398 0
M  V30 159 C 13.5459 -2.62615 -2.27879 0
M  V30 160 H 12.8689 -3.45213 -2.01662 0
M  V30 161 H 14.3089 -3.03004 -2.96588 0
M  V30 162 C 12.7679 -1.54407 -2.99433 0
M  V30 163 O 13.2979 -0.931812 -3.90743 0
M  V30 164 N 11.5039 -1.2695 -2.61404 0
M  V30 165 H 11.0509 -1.76924 -1.87232 0
M  V30 166 H 11.0089 -0.547704 -3.09593 0
M  V30 167 N 14.781 0.264519 -1.55364 0
M  V30 168 C 16.058 1.01677 -1.67096 0
M  V30 169 C 16.438 2.03996 -0.543015 0
M  V30 170 O 15.786 2.23907 0.45585 0
M  V30 171 C 15.996 1.66596 -3.0667 0
M  V30 172 C 17.344 2.17442 -3.64697 0
M  V30 173 O 18.368 1.76568 -3.09358 0
M  V30 174 O 17.227 2.92439 -4.61673 0
M  V30 175 H 14.321 0.472161 -0.678965 0
M  V30 176 H 16.867 0.259703 -1.67701 0
M  V30 177 H 15.639 0.924962 -3.80211 0
M  V30 178 H 15.262 2.48968 -3.10001 0
M  V30 179 N 16.2591 1.48442 0.529413 0
M  V30 180 C 17.5051 1.5672 1.28711 0
M  V30 181 C 17.8381 0.2406 1.92704 0
M  V30 182 O 17.1131 -0.753454 1.79313 0
M  V30 183 C 17.3961 2.70587 2.37603 0
M  V30 184 C 17.2491 4.12953 1.78297 0
M  V30 185 C 18.5681 2.80212 3.39366 0
M  V30 186 H 15.6871 0.570474 0.466613 0
M  V30 187 H 18.3291 1.80617 0.589706 0
M  V30 188 H 16.4791 2.50342 2.97088 0
M  V30 189 H 18.1511 4.44639 1.22858 0
M  V30 190 H 16.3941 4.19927 1.0883 0
M  V30 191 H 17.0651 4.88448 2.57144 0
M  V30 192 H 19.5411 2.98553 2.89836 0
M  V30 193 H 18.4171 3.61611 4.12951 0
M  V30 194 H 18.6781 1.88393 3.99951 0
M  V30 195 N 17.7372 -0.778329 1.37039 0
M  V30 196 C 18.9622 -1.57248 1.35233 0
M  V30 197 C 19.3872 -1.87999 -0.0615568 0
M  V30 198 O 18.7452 -1.48734 -1.03672 0
M  V30 199 C 18.7932 -2.86353 2.19167 0
M  V30 200 O 17.8972 -3.80442 1.59178 0
M  V30 201 H 17.2382 -0.476569 0.462362 0
M  V30 202 H 19.7682 -0.963853 1.80474 0
M  V30 203 H 19.7782 -3.35519 2.32145 0
M  V30 204 H 18.4532 -2.63299 3.21942 0
M  V30 205 H 17.0302 -3.39067 1.55203 0
M  V30 206 N 19.2153 -1.21501 -1.00376 0
M  V30 207 C 20.1633 -0.972442 -2.11297 0
M  V30 208 C 21.1573 0.080731 -1.69208 0
M  V30 209 O 22.3633 -0.0707666 -1.79861 0
M  V30 210 H 18.7383 -0.297218 -0.690772 0
M  V30 211 H 20.7093 -1.91394 -2.28934 0
M  V30 212 C 19.4583 -0.555065 -3.43241 0
M  V30 213 H 18.7813 -1.35709 -3.76062 0
M  V30 214 H 20.2213 -0.424664 -4.21868 0
M  V30 215 C 18.6803 0.734147 -3.28804 0
M  V30 216 O 19.2103 1.78937 -3.59645 0
M  V30 217 N 17.4163 0.701133 -2.82015 0
M  V30 218 H 16.9633 -0.157874 -2.57116 0
M  V30 219 H 16.9213 1.56403 -2.72737 0
M  V30 220 N 20.6934 1.19889 -1.02296 0
M  V30 221 C 21.9184 1.9393 -0.735237 0
M  V30 222 C 22.3434 1.74639 0.698782 0
M  V30 223 O 21.7014 1.04481 1.48167 0
M  V30 224 C 21.7494 3.43916 -1.08417 0
M  V30 225 O 20.8534 4.11917 -0.199446 0
M  V30 226 H 20.1944 0.605645 -0.272196 0
M  V30 227 H 22.7244 1.52137 -1.36804 0
M  V30 228 H 22.7344 3.9456 -1.03856 0
M  V30 229 H 21.4094 3.5728 -2.12894 0
M  V30 230 H 19.9864 3.71666 -0.303136 0
M  V30 231 N 22.1715 0.800033 1.35784 0
M  V30 232 C 23.4195 0.376597 1.9856 0
M  V30 233 C 23.7405 -1.05812 1.63795 0
M  V30 234 O 23.0105 -1.73103 0.917171 0
M  V30 235 H 21.5905 0.136261 0.734467 0
M  V30 236 H 24.2525 1.02442 1.65806 0
M  V30 237 H 23.3485 0.477002 3.08433 0
M  V30 238 N 23.6496 -1.47581 0.552962 0
M  V30 239 C 24.5796 -2.32762 -0.185451 0
M  V30 240 C 25.5606 -1.43527 -0.912905 0
M  V30 241 O 26.7456 -1.72388 -0.894201 0
M  V30 242 C 23.8756 -3.25219 -1.21859 0
M  V30 243 C 22.8296 -4.23661 -0.607864 0
M  V30 244 C 22.1556 -5.05413 -1.74533 0
M  V30 245 C 23.4556 -5.20481 0.435582 0
M  V30 246 H 25.1496 -2.94749 0.525684 0
M  V30 247 H 22.6956 -1.41738 0.254251 0
M  V30 248 H 24.6486 -3.8365 -1.7433 0
M  V30 249 H 23.3726 -2.61279 -1.95961 0
M  V30 250 H 22.0316 -3.66451 -0.104489 0
M  V30 251 H 21.6796 -4.3788 -2.47529 0
M  V30 252 H 21.3796 -5.72059 -1.34249 0
M  V30 253 H 22.9036 -5.66701 -2.27338 0
M  V30 254 H 24.3176 -5.733 -0.00290157 0
M  V30 255 H 22.7146 -5.95305 0.757067 0
M  V30 256 H 23.7846 -4.66217 1.33303 0
M  V30 257 N 25.1277 -0.289203 -1.54924 0
M  V30 258 C 26.4047 0.376032 -1.91951 0
M  V30 259 C 26.7847 1.72622 -1.21511 0
M  V30 260 O 26.1327 2.25853 -0.346767 0
M  V30 261 C 26.3427 0.502378 -3.45365 0
M  V30 262 C 27.6907 0.778741 -4.17398 0
M  V30 263 O 28.7147 0.586647 -3.51336 0
M  V30 264 O 27.5737 1.14698 -5.34328 0
M  V30 265 H 24.6677 0.208167 -0.800372 0
M  V30 266 H 27.2137 -0.336394 -1.66332 0
M  V30 267 H 25.9857 -0.447255 -3.88736 0
M  V30 268 H 25.6087 1.26373 -3.76982 0
M  V30 269 N 26.6058 1.57591 -0.0167156 0
M  V30 270 C 27.8538 1.90906 0.663285 0
M  V30 271 C 28.1748 0.892509 1.73376 0
M  V30 272 O 27.4448 -0.0677623 1.95783 0
M  V30 273 H 26.0248 0.704637 0.247983 0
M  V30 274 H 28.6868 1.94803 -0.0615909 0
M  V30 275 H 27.7828 2.9116 1.12393 0
M  V30 276 N 28.0839 -0.256276 1.55502 0
M  V30 277 C 29.0309 -1.31714 1.89526 0
M  V30 278 C 30.0009 -1.4828 0.748479 0
M  V30 279 O 31.1859 -1.62416 1.00128 0
M  V30 280 C 28.3259 -2.66933 2.18725 0
M  V30 281 C 27.4389 -2.58452 3.4616 0
M  V30 282 C 26.5739 -3.85961 3.64976 0
M  V30 283 C 25.6129 -3.72059 4.86044 0
M  V30 284 N 24.7499 -4.9144 5.01429 0
M  V30 285 H 29.5899 -1.01998 2.80001 0
M  V30 286 H 27.1269 -0.492413 1.38613 0
M  V30 287 H 29.0849 -3.4563 2.33657 0
M  V30 288 H 27.7149 -2.94816 1.31466 0
M  V30 289 H 26.7669 -1.71374 3.3961 0
M  V30 290 H 28.0789 -2.44085 4.34999 0
M  V30 291 H 27.2329 -4.73101 3.79816 0
M  V30 292 H 25.9719 -4.03215 2.74353 0
M  V30 293 H 24.9769 -2.83302 4.7119 0
M  V30 294 H 26.2019 -3.56309 5.78118 0
M  V30 295 H 24.1479 -5.09072 4.13741 0
M  V30 296 H 24.0649 -4.79668 5.84341 0
M  V30 297 H 25.3329 -5.80104 5.20672 0
M  V30 298 N 29.562 -1.4872 -0.521534 0
M  V30 299 C 30.973 -1.50607 -1.10337 0
M  V30 300 C 31.324 -0.280612 -1.94183 0
M  V30 301 O 30.449 0.611507 -2.0758 0
M  V30 302 C 31.044 -2.72903 -2.00772 0
M  V30 303 C 29.603 -2.77634 -2.54158 0
M  V30 304 C 28.75 -2.44241 -1.31307 0
M  V30 305 H 31.701 -1.55714 -0.306388 0
M  V30 306 H 31.722 -2.519 -2.85178 0
M  V30 307 H 31.234 -3.62077 -1.39721 0
M  V30 308 H 29.335 -1.92689 -3.18907 0
M  V30 309 H 29.448 -3.79283 -2.92714 0
M  V30 310 H 27.812 -1.95577 -1.63161 0
M  V30 311 H 28.595 -3.35666 -0.719943 0
M  V30 312 N 31.0401 0.771051 -1.3745 0
M  V30 313 C 32.4561 1.07171 -1.18265 0
M  V30 314 C 32.6561 2.01491 -0.019287 0
M  V30 315 O 31.7121 2.44244 0.640408 0
M  V30 316 C 33.0251 1.66854 -2.50161 0
M  V30 317 C 34.5731 1.79109 -2.56689 0
M  V30 318 C 35.0481 2.42205 -3.88717 0
M  V30 319 N 36.5391 2.49655 -3.90162 0
M  V30 320 C 37.2741 2.9933 -4.8907 0
M  V30 321 N 36.7701 3.49172 -5.98374 0
M  V30 322 N 38.5631 2.9821 -4.76474 0
M  V30 323 H 30.7141 0.144796 -2.11906 0
M  V30 324 H 32.9771 0.126863 -0.939473 0
M  V30 325 H 32.6831 1.05017 -3.35655 0
M  V30 326 H 32.5571 2.6614 -2.673 0
M  V30 327 H 34.9441 2.40077 -1.71601 0
M  V30 328 H 35.0251 0.785757 -2.43433 0
M  V30 329 H 34.6691 1.81875 -4.74219 0
M  V30 330 H 34.5991 3.43345 -3.99276 0
M  V30 331 H 37.0901 2.14383 -3.11205 0
M  V30 332 H 37.4031 3.8548 -6.69795 0
M  V30 333 H 35.7481 3.47275 -6.02018 0
M  V30 334 H 38.9391 2.58572 -3.90203 0
M  V30 335 H 39.1121 3.36613 -5.53711 0
M  V30 336 N 32.5182 1.22032 0.997298 0
M  V30 337 C 33.4482 1.01065 2.10495 0
M  V30 338 C 34.4292 -0.0669542 1.69968 0
M  V30 339 O 35.6142 0.0943987 1.9397 0
M  V30 340 C 32.7442 0.582874 3.42374 0
M  V30 341 C 31.6982 1.60592 3.96729 0
M  V30 342 C 31.0242 1.03412 5.24605 0
M  V30 343 C 32.3242 2.99478 4.27914 0
M  V30 344 H 34.0182 1.93708 2.28292 0
M  V30 345 H 31.5642 0.932761 1.09707 0
M  V30 346 H 33.5172 0.423332 4.19268 0
M  V30 347 H 32.2412 -0.379213 3.24391 0
M  V30 348 H 30.9002 1.75316 3.21963 0
M  V30 349 H 30.5482 0.063518 5.0296 0
M  V30 350 H 30.2482 1.71754 5.61938 0
M  V30 351 H 31.7722 0.886066 6.04137 0
M  V30 352 H 33.1862 2.88153 4.95622 0
M  V30 353 H 31.5832 3.64903 4.76409 0
M  V30 354 H 32.6532 3.49742 3.3587 0
M  V30 355 N 33.9963 -1.19345 1.0293 0
M  V30 356 C 34.9463 -2.20472 0.58104 0
M  V30 357 C 35.9303 -1.56578 -0.370442 0
M  V30 358 O 37.1223 -1.75963 -0.191344 0
M  V30 359 C 34.2513 -3.43236 -0.066306 0
M  V30 360 C 33.3373 -4.14274 0.907642 0
M  V30 361 N 33.7283 -4.61492 2.07023 0
M  V30 362 C 32.0263 -4.39966 0.731177 0
M  V30 363 C 32.7273 -5.1605 2.68454 0
M  V30 364 N 31.7033 -5.06875 1.96414 0
M  V30 365 H 35.5053 -2.54659 1.46717 0
M  V30 366 H 33.0193 -1.35423 0.896345 0
M  V30 367 H 35.0163 -4.14927 -0.405068 0
M  V30 368 H 33.6763 -3.10549 -0.948118 0
M  V30 369 H 34.6873 -4.56304 2.44963 0
M  V30 370 H 31.3643 -4.17377 -0.101507 0
M  V30 371 H 32.7543 -5.6287 3.66915 0
M  V30 372 N 35.4744 -0.807222 -1.35358 0
M  V30 373 C 36.6994 -0.399309 -2.0352 0
M  V30 374 C 37.1244 0.981986 -1.60433 0
M  V30 375 O 36.4824 1.63601 -0.781299 0
M  V30 376 C 36.5304 -0.491552 -3.57234 0
M  V30 377 O 35.6344 0.494754 -4.09421 0
M  V30 378 H 34.9754 -0.166682 -0.642739 0
M  V30 379 H 37.5054 -1.09328 -1.72941 0
M  V30 380 H 37.5154 -0.361588 -4.06395 0
M  V30 381 H 36.1904 -1.49907 -3.87944 0
M  V30 382 H 34.7674 0.324977 -3.71481 0
M  V30 383 N 36.9525 1.47285 -0.560781 0
M  V30 384 C 38.1995 2.02464 -0.038062 0
M  V30 385 C 38.5275 1.43474 1.31322 0
M  V30 386 O 37.7825 0.581311 1.86867 0
M  V30 387 C 38.0815 3.57258 0.100784 0
M  V30 388 C 37.7475 4.35184 -1.18007 0
M  V30 389 C 36.4095 4.56194 -1.53103 0
M  V30 390 C 38.7615 4.80098 -2.02867 0
M  V30 391 C 36.0895 5.19367 -2.729 0
M  V30 392 C 38.4415 5.44593 -3.21871 0
M  V30 393 C 37.1055 5.63835 -3.57276 0
M  V30 394 H 36.3755 0.740869 -0.0139279 0
M  V30 395 H 39.0225 1.76916 -0.733012 0
M  V30 396 H 37.3275 3.81819 0.878724 0
M  V30 397 H 39.0245 3.97606 0.520639 0
M  V30 398 H 35.6145 4.19113 -0.8968 0
M  V30 399 H 39.7985 4.63642 -1.7706 0
M  V30 400 H 35.0545 5.32459 -3.00496 0
M  V30 401 H 39.2285 5.78358 -3.87911 0
M  V30 402 H 36.8555 6.12557 -4.50197 0
M  V30 403 N 38.4306 0.297415 1.54768 0
M  V30 404 C 39.6776 -0.312913 2.00068 0
M  V30 405 C 40.0056 -1.54171 1.18582 0
M  V30 406 O 39.2606 -1.94108 0.249133 0
M  V30 407 C 39.5596 -0.717561 3.50123 0
M  V30 408 C 39.2256 0.409095 4.4904 0
M  V30 409 C 37.8876 0.718399 4.75807 0
M  V30 410 C 40.2396 1.16717 5.07963 0
M  V30 411 C 37.5676 1.78896 5.5876 0
M  V30 412 C 39.9196 2.22762 5.92081 0
M  V30 413 C 38.5836 2.54303 6.1716 0
M  V30 414 H 37.8536 -0.114503 0.7321 0
M  V30 415 H 40.5006 0.415767 1.86932 0
M  V30 416 H 38.8056 -1.52627 3.60849 0
M  V30 417 H 40.5026 -1.20091 3.82595 0
M  V30 418 H 37.0926 0.157918 4.28309 0
M  V30 419 H 41.2766 0.941466 4.87289 0
M  V30 420 H 36.5326 2.0381 5.7643 0
M  V30 421 H 40.7066 2.81962 6.36765 0
M  V30 422 H 38.3336 3.3739 6.81229 0
M  V30 423 N 39.9087 -1.5758 0.0250728 0
M  V30 424 C 40.8567 -2.11125 -0.97617 0
M  V30 425 C 41.8507 -1.03689 -1.33959 0
M  V30 426 O 43.0567 -1.22128 -1.3223 0
M  V30 427 H 39.4317 -0.674468 -0.332561 0
M  V30 428 H 41.4027 -2.94194 -0.499223 0
M  V30 429 C 40.1517 -2.65017 -2.2508 0
M  V30 430 H 39.4747 -3.47333 -1.9799 0
M  V30 431 H 40.9147 -3.06133 -2.93357 0
M  V30 432 C 39.3737 -1.57574 -2.97779 0
M  V30 433 O 39.9037 -0.973203 -3.89733 0
M  V30 434 N 38.1097 -1.29716 -2.60043 0
M  V30 435 H 37.6567 -1.789 -1.85345 0
M  V30 436 H 37.6147 -0.58051 -3.08994 0
M  V30 437 N 41.3868 0.248026 -1.55636 0
M  V30 438 C 42.3338 1.30707 -1.90222 0
M  V30 439 C 43.3038 1.47881 -0.756332 0
M  V30 440 O 44.4888 1.61883 -1.00988 0
M  V30 441 C 41.6288 2.65769 -2.20138 0
M  V30 442 C 40.7418 2.56612 -3.47526 0
M  V30 443 C 39.8768 3.8402 -3.67017 0
M  V30 444 C 38.9158 3.69476 -4.8801 0
M  V30 445 N 38.0528 4.88774 -5.04029 0
M  V30 446 H 42.8928 1.00512 -2.80538 0
M  V30 447 H 40.4298 0.485055 -1.38873 0
M  V30 448 H 42.3878 3.44386 -2.35487 0
M  V30 449 H 41.0178 2.94115 -1.33027 0
M  V30 450 H 40.0698 1.69571 -3.40514 0
M  V30 451 H 41.3818 2.41774 -4.36287 0
M  V30 452 H 40.5358 4.7108 -3.8232 0
M  V30 453 H 39.2748 4.01754 -2.76487 0
M  V30 454 H 38.2798 2.80799 -4.72686 0
M  V30 455 H 39.5048 3.53238 -5.8 0
M  V30 456 H 37.4508 5.0687 -4.16435 0
M  V30 457 H 37.3678 4.76562 -5.86877 0
M  V30 458 H 38.6358 5.77335 -5.23741 0
M  V30 459 N 42.8649 1.48995 0.513639 0
M  V30 460 C 44.1419 1.48338 1.27495 0
M  V30 461 C 44.5219 0.204065 2.10111 0
M  V30 462 O 43.8699 -0.813881 2.13514 0
M  V30 463 C 44.0799 2.75498 2.14247 0
M  V30 464 C 45.4279 3.24484 2.73852 0
M  V30 465 O 46.4519 2.76528 2.24523 0
M  V30 466 O 45.3109 4.07974 3.6362 0
M  V30 467 H 42.4049 0.593149 0.576284 0
M  V30 468 H 44.9509 1.61246 0.528948 0
M  V30 469 H 43.7229 3.60109 1.53092 0
M  V30 470 H 43.3459 2.6539 2.96064 0
M  V30 471 N 44.343 -0.763751 1.37857 0
M  V30 472 C 45.591 -1.51957 1.33243 0
M  V30 473 C 45.912 -1.94835 -0.0801709 0
M  V30 474 O 45.182 -1.66894 -1.02582 0
M  V30 475 H 43.762 -0.563626 0.49024 0
M  V30 476 H 46.424 -0.908504 1.7243 0
M  V30 477 H 45.52 -2.41523 1.97669 0
M  V30 478 N 45.8211 -1.22559 -0.990812 0
M  V30 479 C 46.7511 -1.0218 -2.09956 0
M  V30 480 C 47.7321 0.0579394 -1.70001 0
M  V30 481 O 48.9171 -0.104684 -1.93918 0
M  V30 482 C 46.0471 -0.601023 -3.4206 0
M  V30 483 C 45.0011 -1.62694 -3.95872 0
M  V30 484 C 44.3271 -1.06193 -5.24049 0
M  V30 485 C 45.6271 -3.01743 -4.2632 0
M  V30 486 H 47.3211 -1.94916 -2.27262 0
M  V30 487 H 44.8671 -0.938566 -1.09211 0
M  V30 488 H 46.8201 -0.445561 -4.19038 0
M  V30 489 H 45.5441 0.362005 -3.24588 0
M  V30 490 H 44.2031 -1.77021 -3.21028 0
M  V30 491 H 43.8511 -0.0901903 -5.02919 0
M  V30 492 H 43.5511 -1.74732 -5.61019 0
M  V30 493 H 45.0751 -0.918092 -6.03658 0
M  V30 494 H 46.4891 -2.90777 -4.94087 0
M  V30 495 H 44.8861 -3.67425 -4.74467 0
M  V30 496 H 45.9561 -3.51518 -3.34011 0
M  V30 497 N 47.2992 1.18797 -1.03562 0
M  V30 498 C 48.2292 2.24472 -0.643019 0
M  V30 499 C 49.2102 1.66433 0.351283 0
M  V30 500 O 50.3952 1.92803 0.232505 0
M  V30 501 C 47.5252 3.473 4.24935e-05 0
M  V30 502 C 46.4792 4.18055 -0.917257 0
M  V30 503 C 45.8052 5.34519 -0.138941 0
M  V30 504 C 47.1052 4.72109 -2.23407 0
M  V30 505 H 48.7992 2.57566 -1.52643 0
M  V30 506 H 46.3452 1.23806 -0.735394 0
M  V30 507 H 48.2982 4.20426 0.286383 0
M  V30 508 H 47.0222 3.13424 0.918299 0
M  V30 509 H 45.6812 3.46821 -1.1879 0
M  V30 510 H 45.3292 4.96891 0.781562 0
M  V30 511 H 45.0292 5.82794 -0.750005 0
M  V30 512 H 46.5532 6.10438 0.1405 0
M  V30 513 H 47.9672 5.36955 -2.00879 0
M  V30 514 H 46.3642 5.30897 -2.79765 0
M  V30 515 H 47.4342 3.89807 -2.88407 0
M  V30 516 N 48.7773 0.814389 1.34928 0
M  V30 517 C 49.7073 0.244827 2.32213 0
M  V30 518 C 50.6883 -0.634024 1.57842 0
M  V30 519 O 51.8733 -0.562676 1.8587 0
M  V30 520 C 49.0033 -0.601106 3.42058 0
M  V30 521 C 47.9573 0.179896 4.27622 0
M  V30 522 C 47.2833 -0.788237 5.28858 0
M  V30 523 C 48.5833 1.38329 5.03649 0
M  V30 524 H 50.2773 1.05763 2.80097 0
M  V30 525 H 47.8233 0.510029 1.34665 0
M  V30 526 H 49.7763 -1.00968 4.09125 0
M  V30 527 H 48.5003 -1.44688 2.92802 0
M  V30 528 H 47.1593 0.569739 3.62146 0
M  V30 529 H 46.8073 -1.62973 4.75866 0
M  V30 530 H 46.5073 -0.269942 5.8698 0
M  V30 531 H 48.0313 -1.19485 5.98795 0
M  V30 532 H 49.4453 1.04918 5.63618 0
M  V30 533 H 47.8423 1.83662 5.71304 0
M  V30 534 H 48.9123 2.16592 4.33839 0
M  V30 535 N 50.2554 -1.46986 0.568584 0
M  V30 536 C 51.6714 -1.57946 0.229189 0
M  V30 537 C 51.8714 -1.56567 -1.26843 0
M  V30 538 O 50.9274 -1.47511 -2.04931 0
M  V30 539 C 52.2404 -2.87963 0.865909 0
M  V30 540 C 53.7884 -3.01568 0.838188 0
M  V30 541 C 54.2634 -4.34301 1.45419 0
M  V30 542 N 55.7544 -4.40965 1.41788 0
M  V30 543 C 56.4894 -5.42256 1.86403 0
M  V30 544 N 55.9854 -6.50297 2.38926 0
M  V30 545 N 57.7784 -5.3337 1.77405 0
M  V30 546 H 49.9294 -1.46126 1.54146 0
M  V30 547 H 52.1924 -0.696156 0.643484 0
M  V30 548 H 51.8984 -2.94742 1.91886 0
M  V30 549 H 51.7724 -3.75423 0.365687 0
M  V30 550 H 54.1594 -2.94379 -0.206106 0
M  V30 551 H 54.2404 -2.1562 1.37629 0
M  V30 552 H 53.8844 -4.42247 2.49761 0
M  V30 553 H 53.8144 -5.19 0.891435 0
M  V30 554 H 56.3054 -3.63484 1.03381 0
M  V30 555 H 56.6184 -7.23777 2.70863 0
M  V30 556 H 54.9634 -6.51155 2.42944 0
M  V30 557 H 58.1544 -4.47865 1.3614 0
M  V30 558 H 58.3274 -6.12169 2.12492 0
M  V30 559 N 51.7335 -0.305618 -1.54608 0
M  V30 560 C 52.9615 0.304775 -2.04643 0
M  V30 561 C 53.3765 1.47167 -1.18268 0
M  V30 562 O 52.7335 1.81296 -0.209328 0
M  V30 563 C 52.7845 0.756564 -3.53495 0
M  V30 564 O 52.5055 -0.36389 -4.36586 0
M  V30 565 C 54.0065 1.43163 -4.19546 0
M  V30 566 H 51.2265 0.0655481 -0.667791 0
M  V30 567 H 53.7705 -0.446592 -1.99564 0
M  V30 568 H 51.9255 1.45794 -3.58919 0
M  V30 569 H 52.3395 -0.0113121 -5.24499 0
M  V30 570 H 53.8135 1.69886 -5.25207 0
M  V30 571 H 54.2905 2.37318 -3.69563 0
M  V30 572 H 54.8965 0.773307 -4.18211 0
M  V30 573 N 53.2116 1.57565 -0.0334293 0
M  V30 574 C 54.4416 1.95996 0.653398 0
M  V30 575 C 54.8496 0.908749 1.65947 0
M  V30 576 O 54.1926 -0.117471 1.83324 0
M  V30 577 C 54.2546 3.30589 1.41249 0
M  V30 578 C 53.9186 4.53503 0.564263 0
M  V30 579 C 54.9156 5.19647 -0.16225 0
M  V30 580 C 52.6006 4.99801 0.500398 0
M  V30 581 C 54.5946 6.30412 -0.941255 0
M  V30 582 C 52.2816 6.10448 -0.282308 0
M  V30 583 C 53.2796 6.75612 -1.00184 0
M  V30 584 O 52.9676 7.84134 -1.77171 0
M  V30 585 H 52.6996 0.65027 0.184728 0
M  V30 586 H 55.2536 2.05199 -0.0907841 0
M  V30 587 H 53.4836 3.17888 2.20191 0
M  V30 588 H 55.1726 3.53892 1.98784 0
M  V30 589 H 55.9386 4.84846 -0.12227 0
M  V30 590 H 51.8176 4.48883 1.05002 0
M  V30 591 H 55.3616 6.81208 -1.50339 0
M  V30 592 H 51.2586 6.44686 -0.323989 0
M  V30 593 H 52.0266 8.00822 -1.69194 0
M  V30 594 N 54.6897 -0.239769 1.55765 0
M  V30 595 C 55.9147 -0.988373 1.82335 0
M  V30 596 C 56.3397 -1.77886 0.611421 0
M  V30 597 O 55.6977 -1.75889 -0.439639 0
M  V30 598 C 55.7457 -1.89627 3.06715 0
M  V30 599 O 54.8497 -2.98904 2.84131 0
M  V30 600 H 54.1907 -0.280858 0.601677 0
M  V30 601 H 56.7207 -0.258597 2.02959 0
M  V30 602 H 56.7307 -2.30957 3.36338 0
M  V30 603 H 55.4057 -1.31511 3.9456 0
M  V30 604 H 53.9827 -2.61651 2.65694 0
M  V30 605 N 56.1678 -1.49265 -0.50573 0
M  V30 606 C 57.4138 -1.59723 -1.25937 0
M  V30 607 C 57.7688 -0.278236 -1.90378 0
M  V30 608 O 57.0618 0.72113 -1.77511 0
M  V30 609 C 57.2558 -2.69008 -2.35308 0
M  V30 610 C 57.0848 -4.11405 -1.81592 0
M  V30 611 C 55.8548 -4.78252 -1.63105 0
M  V30 612 C 58.0528 -4.96792 -1.33048 0
M  V30 613 N 56.0348 -6.0498 -1.04269 0
M  V30 614 C 57.4058 -6.13962 -0.863168 0
M  V30 615 C 59.4608 -4.82828 -1.21577 0
M  V30 616 C 58.1638 -7.18705 -0.292489 0
M  V30 617 C 60.1898 -5.87716 -0.65907 0
M  V30 618 C 59.5518 -7.0411 -0.201954 0
M  V30 619 H 55.6508 -0.638864 -0.450973 0
M  V30 620 H 58.2348 -1.86251 -0.567326 0
M  V30 621 H 56.4058 -2.4426 -3.01979 0
M  V30 622 H 58.1378 -2.69013 -3.02348 0
M  V30 623 H 54.8928 -4.34974 -1.87336 0
M  V30 624 H 55.3168 -6.72631 -0.767919 0
M  V30 625 H 59.9588 -3.93159 -1.55518 0
M  V30 626 H 57.6768 -8.08078 0.0591987 0
M  V30 627 H 61.2628 -5.7897 -0.573156 0
M  V30 628 H 60.1428 -7.83885 0.222101 0
M  V30 629 N 57.6459 0.756429 -1.3826 0
M  V30 630 C 58.8739 1.54565 -1.3754 0
M  V30 631 C 59.2889 1.88767 0.0355331 0
M  V30 632 O 58.6459 1.52572 1.0014 0
M  V30 633 C 58.6969 2.84654 -2.22833 0
M  V30 634 O 58.4179 2.51912 -3.5843 0
M  V30 635 C 59.9189 3.78807 -2.30261 0
M  V30 636 H 57.1389 0.478353 -0.470553 0
M  V30 637 H 59.6829 0.936381 -1.81803 0
M  V30 638 H 57.8379 3.41965 -1.8204 0
M  V30 639 H 58.2519 3.35325 -4.03308 0
M  V30 640 H 59.7259 4.67045 -2.94233 0
M  V30 641 H 60.2029 4.19038 -1.31545 0
M  V30 642 H 60.8089 3.2742 -2.71433 0
M  V30 643 N 59.124 1.23083 0.984299 0
M  V30 644 C 60.37 1.06214 1.72761 0
M  V30 645 C 60.703 -0.400584 1.90024 0
M  V30 646 O 59.978 -1.29672 1.44967 0
M  V30 647 C 60.261 1.78375 3.12817 0
M  V30 648 C 60.114 3.32296 3.03149 0
M  V30 649 C 61.433 1.54309 4.12161 0
M  V30 650 H 58.552 0.387251 0.627061 0
M  V30 651 H 61.194 1.51536 1.14616 0
M  V30 652 H 59.344 1.39848 3.62457 0
M  V30 653 H 61.016 3.8032 2.61064 0
M  V30 654 H 59.259 3.6153 2.39747 0
M  V30 655 H 59.93 3.77972 4.02295 0
M  V30 656 H 62.406 1.87791 3.71314 0
M  V30 657 H 61.282 2.07281 5.08258 0
M  V30 658 H 61.543 0.477572 4.39513 0
M  V30 659 N 60.6021 -1.18246 1.0419 0
M  V30 660 C 61.5491 -2.2192 0.634037 0
M  V30 661 C 62.5191 -1.62179 -0.358765 0
M  V30 662 O 63.7041 -1.89122 -0.252466 0
M  V30 663 C 60.8441 -3.451 0.00445535 0
M  V30 664 C 59.9571 -4.19174 1.04487 0
M  V30 665 C 59.0921 -5.29813 0.383676 0
M  V30 666 C 58.1311 -5.9566 1.4091 0
M  V30 667 N 57.2681 -6.97834 0.772784 0
M  V30 668 H 62.1081 -2.56164 1.52263 0
M  V30 669 H 59.6451 -1.25843 0.761701 0
M  V30 670 H 61.6031 -4.15485 -0.377919 0
M  V30 671 H 60.2331 -3.11472 -0.847652 0
M  V30 672 H 59.2851 -3.47604 1.54518 0
M  V30 673 H 60.5971 -4.64267 1.82368 0
M  V30 674 H 59.7511 -6.06677 -0.0528366 0
M  V30 675 H 58.4901 -4.85825 -0.427208 0
M  V30 676 H 57.4951 -5.17535 1.85574 0
M  V30 677 H 58.7201 -6.4173 2.22171 0
M  V30 678 H 56.6661 -6.55998 -0.0177708 0
M  V30 679 H 56.5831 -7.41186 1.48928 0
M  V30 680 H 57.8511 -7.78665 0.36071 0
M  V30 681 N 62.0802 -0.821533 -1.34494 0
M  V30 682 C 63.0272 -0.240397 -2.29545 0
M  V30 683 C 63.9972 0.634031 -1.53523 0
M  V30 684 O 65.1822 0.575966 -1.81899 0
M  V30 685 C 62.3222 0.592869 -3.39969 0
M  V30 686 C 61.4352 -0.30365 -4.30932 0
M  V30 687 C 60.5702 0.539049 -5.28458 0
M  V30 688 C 59.6092 -0.356942 -6.11058 0
M  V30 689 N 58.7462 0.446603 -7.00678 0
M  V30 690 H 63.5862 -1.05632 -2.7865 0
M  V30 691 H 61.1232 -0.532413 -1.37127 0
M  V30 692 H 63.0812 1.09129 -4.02675 0
M  V30 693 H 61.7112 1.37392 -2.92102 0
M  V30 694 H 60.7632 -0.920276 -3.691 0
M  V30 695 H 62.0752 -0.992661 -4.88823 0
M  V30 696 H 61.2292 1.102 -5.96608 0
M  V30 697 H 59.9682 1.26157 -4.71101 0
M  V30 698 H 58.9732 -0.932047 -5.41842 0
M  V30 699 H 60.1982 -1.07755 -6.70497 0
M  V30 700 H 58.1442 1.15282 -6.45791 0
M  V30 701 H 58.0612 -0.184048 -7.55776 0
M  V30 702 H 59.3292 0.992352 -7.73158 0
M  V30 703 N 63.5583 1.46682 -0.576371 0
M  V30 704 C 64.5213 2.28707 0.150239 0
M  V30 705 C 65.5213 1.38035 0.824794 0
M  V30 706 O 66.7113 1.60476 0.677719 0
M  V30 707 C 63.8433 3.18248 1.22192 0
M  V30 708 H 65.0363 2.94423 -0.570521 0
M  V30 709 H 62.5893 1.52688 -0.334078 0
M  V30 710 H 63.3243 2.57265 1.97447 0
M  V30 711 H 63.1093 3.85 0.742812 0
M  V30 712 H 64.5993 3.80001 1.73172 0
M  V30 713 N 65.0364 0.313813 1.54444 0
M  V30 714 C 66.2854 -0.292519 1.99568 0
M  V30 715 C 66.5984 -1.54011 1.20582 0
M  V30 716 O 67.8044 -2.22183 1.56035 0
M  V30 717 C 66.2604 -0.571752 3.55329 0
M  V30 718 C 65.8684 0.658229 4.43138 0
M  V30 719 C 67.6124 -1.13857 4.08946 0
M  V30 720 C 65.5194 0.351439 5.90355 0
M  V30 721 H 64.4494 -0.113079 0.745472 0
M  V30 722 H 67.1004 0.424518 1.78522 0
M  V30 723 H 65.4824 -1.34872 3.72325 0
M  V30 724 H 66.6564 1.43403 4.37918 0
M  V30 725 H 64.9714 1.14458 4.0036 0
M  V30 726 H 67.5684 -1.38257 5.16516 0
M  V30 727 H 67.9114 -2.08489 3.6033 0
M  V30 728 H 68.4444 -0.423015 3.95544 0
M  V30 729 H 65.1834 1.26667 6.43145 0
M  V30 730 H 64.7034 -0.386842 5.98551 0
M  V30 731 H 66.3824 -0.0423134 6.46986 0
M  V30 732 N 66.5145 -1.57545 0.0417849 0
M  V30 733 C 67.7625 -1.91937 -0.632829 0
M  V30 734 C 68.0835 -0.919978 -1.71934 0
M  V30 735 O 67.3535 0.0366064 -1.95866 0
M  V30 736 H 65.9335 -0.708493 -0.236742 0
M  V30 737 H 68.5955 -1.9468 0.0925745 0
M  V30 738 H 67.6915 -2.92912 -1.07746 0
M  V30 739 N 67.9926 0.231505 -1.5589 0
M  V30 740 C 69.2416 0.955346 -1.7764 0
M  V30 741 C 69.5546 1.85893 -0.608546 0
M  V30 742 O 70.7606 2.62067 -0.70943 0
M  V30 743 C 69.2166 1.74886 -3.14552 0
M  V30 744 C 68.8246 0.891915 -4.39032 0
M  V30 745 C 70.5686 2.46452 -3.45633 0
M  V30 746 C 68.4756 1.68221 -5.66971 0
M  V30 747 H 67.4056 0.360446 -0.662265 0
M  V30 748 H 70.0566 0.209516 -1.823 0
M  V30 749 H 68.4386 2.53723 -3.04041 0
M  V30 750 H 69.6126 0.144793 -4.60572 0
M  V30 751 H 67.9276 0.288863 -4.15397 0
M  V30 752 H 70.5246 3.06061 -4.38441 0
M  V30 753 H 70.8676 3.18841 -2.67668 0
M  V30 754 H 71.4006 1.74613 -3.57428 0
M  V30 755 H 68.1396 1.00178 -6.478 0
M  V30 756 H 67.6596 2.4042 -5.49507 0
M  V30 757 H 69.3386 2.24544 -6.06786 0
M  V30 758 N 69.4707 1.49531 0.497807 0
M  V30 759 C 70.7177 1.59179 1.25173 0
M  V30 760 C 71.0457 0.279932 1.92475 0
M  V30 761 O 70.3007 -0.732383 1.81479 0
M  V30 762 C 70.5997 2.70252 2.33878 0
M  V30 763 C 70.2657 4.11644 1.84012 0
M  V30 764 C 68.9277 4.50121 1.70132 0
M  V30 765 C 71.2797 5.00121 1.46725 0
M  V30 766 C 68.6077 5.74845 1.17348 0
M  V30 767 C 70.9597 6.25366 0.95392 0
M  V30 768 C 69.6237 6.6267 0.801538 0
M  V30 769 H 68.8937 0.582478 0.45804 0
M  V30 770 H 71.5407 1.83373 0.551948 0
M  V30 771 H 69.8457 2.40041 3.09657 0
M  V30 772 H 71.5427 2.74925 2.9192 0
M  V30 773 H 68.1327 3.81274 1.95775 0
M  V30 774 H 72.3167 4.71048 1.56294 0
M  V30 775 H 67.5727 6.02444 1.04264 0
M  V30 776 H 71.7467 6.93301 0.656225 0
M  V30 777 H 69.3737 7.59197 0.390351 0
M  V30 778 N 70.9488 -0.749086 1.3866 0
M  V30 779 C 71.8788 -1.8764 1.38973 0
M  V30 780 C 72.8598 -1.68178 0.255004 0
M  V30 781 O 74.0448 -1.88704 0.458754 0
M  V30 782 C 71.1748 -3.25222 1.21851 0
M  V30 783 C 70.1288 -3.59295 2.32575 0
M  V30 784 C 69.4548 -4.95663 2.00555 0
M  V30 785 C 70.7548 -3.63709 3.7485 0
M  V30 786 H 72.4488 -1.87635 2.3331 0
M  V30 787 H 69.9948 -0.901329 1.12303 0
M  V30 788 H 71.9478 -4.03746 1.20695 0
M  V30 789 H 70.6718 -3.25719 0.239775 0
M  V30 790 H 69.3308 -2.83093 2.32925 0
M  V30 791 H 68.9788 -4.92724 1.01154 0
M  V30 792 H 68.6788 -5.19429 2.74714 0
M  V30 793 H 70.2028 -5.7656 2.01024 0
M  V30 794 H 71.6168 -4.32338 3.76506 0
M  V30 795 H 70.0138 -3.98986 4.48252 0
M  V30 796 H 71.0838 -2.63834 4.06841 0
M  V30 797 N 72.4269 -1.23603 -0.977757 0
M  V30 798 C 73.3569 -1.04401 -2.0886 0
M  V30 799 C 74.3379 0.0399052 -1.70053 0
M  V30 800 O 75.5229 -0.125246 -1.93796 0
M  V30 801 C 72.6529 -0.637269 -3.41403 0
M  V30 802 C 71.6069 -1.66883 -3.94124 0
M  V30 803 C 70.9329 -1.11745 -5.22893 0
M  V30 804 C 72.2329 -3.06247 -4.23096 0
M  V30 805 H 73.9269 -1.97316 -2.25182 0
M  V30 806 H 71.4729 -0.950096 -1.08209 0
M  V30 807 H 73.4259 -0.48998 -4.18542 0
M  V30 808 H 72.1499 0.327557 -3.24953 0
M  V30 809 H 70.8089 -1.80416 -3.19133 0
M  V30 810 H 70.4569 -0.143527 -5.02795 0
M  V30 811 H 70.1569 -1.80672 -5.59134 0
M  V30 812 H 71.6809 -0.982067 -6.02651 0
M  V30 813 H 73.0949 -2.96001 -4.90975 0
M  V30 814 H 71.4919 -3.72436 -4.70544 0
M  V30 815 H 72.5619 -3.55041 -3.30263 0
M  V30 816 N 73.905 1.17692 -1.04816 0
M  V30 817 C 75.154 1.87192 -0.751132 0
M  V30 818 C 75.467 1.8169 0.724441 0
M  V30 819 O 76.673 2.46625 1.13527 0
M  V30 820 C 75.129 3.35857 -1.29338 0
M  V30 821 C 74.737 3.4987 -2.79812 0
M  V30 822 C 76.481 4.10709 -1.07322 0
M  V30 823 C 74.388 4.92536 -3.27356 0
M  V30 824 H 73.318 0.701162 -0.277288 0
M  V30 825 H 75.969 1.32932 -1.26496 0
M  V30 826 H 74.351 3.89631 -0.707376 0
M  V30 827 H 75.525 3.06332 -3.44235 0
M  V30 828 H 73.84 2.88433 -3.00325 0
M  V30 829 H 76.437 5.15952 -1.4035 0
M  V30 830 H 76.78 4.16299 -0.0108001 0
M  V30 831 H 77.313 3.6313 -1.62423 0
M  V30 832 H 74.052 4.92119 -4.33012 0
M  V30 833 H 73.572 5.3676 -2.67673 0
M  V30 834 H 75.251 5.61288 -3.21815 0
M  V30 835 N 75.3831 0.828654 1.34056 0
M  V30 836 C 76.3331 0.226828 2.26869 0
M  V30 837 C 77.3171 -0.612243 1.48796 0
M  V30 838 O 78.5091 -0.465884 1.70759 0
M  V30 839 C 75.6381 -0.605654 3.37915 0
M  V30 840 C 74.7241 0.244361 4.23395 0
M  V30 841 N 75.1151 1.31815 4.88322 0
M  V30 842 C 73.4131 0.0296616 4.4599 0
M  V30 843 C 74.1141 1.83895 5.51867 0
M  V30 844 N 73.0901 1.14196 5.3147 0
M  V30 845 H 76.8921 1.04811 2.74576 0
M  V30 846 H 74.4061 0.67205 1.47842 0
M  V30 847 H 76.4031 -1.05302 4.03382 0
M  V30 848 H 75.0631 -1.42504 2.91758 0
M  V30 849 H 76.0741 1.70099 4.8917 0
M  V30 850 H 72.7511 -0.757097 4.10578 0
M  V30 851 H 74.1411 2.7376 6.136 0
M  V30 852 N 76.8612 -1.46375 0.584142 0
M  V30 853 C 78.1092 -2.01978 0.0701287 0
M  V30 854 C 78.4302 -1.4579 -1.295 0
M  V30 855 O 77.7002 -0.64314 -1.85042 0
M  V30 856 H 76.2802 -0.746648 0.0229345 0
M  V30 857 H 78.9422 -1.79461 0.760245 0
M  V30 858 H 78.0382 -3.121 0.0022064 0
M  V30 859 N 78.3393 -0.321999 -1.54275 0
M  V30 860 C 79.2693 0.537411 -2.27231 0
M  V30 861 C 80.2503 1.12064 -1.27968 0
M  V30 862 O 81.4353 1.14606 -1.56777 0
M  V30 863 C 78.5653 1.69919 -3.02894 0
M  V30 864 C 77.5193 1.24534 -4.09482 0
M  V30 865 C 76.8453 2.49394 -4.72977 0
M  V30 866 C 78.1453 0.361335 -5.21049 0
M  V30 867 H 79.8393 -0.0711406 -2.99315 0
M  V30 868 H 77.3853 -0.0356555 -1.43956 0
M  V30 869 H 79.3383 2.30668 -3.52662 0
M  V30 870 H 78.0623 2.33431 -2.28424 0
M  V30 871 H 76.7213 0.660782 -3.60596 0
M  V30 872 H 76.3693 3.11265 -3.95124 0
M  V30 873 H 76.0693 2.19718 -5.44975 0
M  V30 874 H 77.5933 3.10908 -5.25517 0
M  V30 875 H 79.0073 0.875072 -5.66582 0
M  V30 876 H 77.4043 0.157428 -5.99893 0
M  V30 877 H 78.4743 -0.60822 -4.8107 0
M  V30 878 N 79.8174 1.5752 -0.0501392 0
M  V30 879 C 80.7654 2.12651 0.942459 0
M  V30 880 C 81.7594 1.05807 1.32292 0
M  V30 881 O 82.9654 1.24217 1.3027 0
M  V30 882 H 79.3404 0.679673 0.321789 0
M  V30 883 H 81.3114 2.94951 0.452356 0
M  V30 884 C 80.0604 2.68565 2.20836 0
M  V30 885 H 79.3834 3.50439 1.92439 0
M  V30 886 H 80.8234 3.10761 2.8845 0
M  V30 887 C 79.2824 1.62291 2.95234 0
M  V30 888 O 79.8124 1.03508 3.88135 0
M  V30 889 N 78.0184 1.33836 2.57946 0
M  V30 890 H 77.5654 1.81826 1.82475 0
M  V30 891 H 77.5234 0.629595 3.08032 0
M  V30 892 N 81.2955 -0.223234 1.56011 0
M  V30 893 C 82.5435 -0.946003 1.78592 0
M  V30 894 C 82.8645 -1.84936 0.618349 0
M  V30 895 O 82.1345 -1.92473 -0.364833 0
M  V30 896 H 80.7145 -0.352298 0.658707 0
M  V30 897 H 83.3765 -0.235494 1.93472 0
M  V30 898 H 82.4725 -1.55381 2.70672 0
M  V30 899 N 82.7736 -1.49793 -0.48987 0
M  V30 900 C 83.7236 -1.63673 -1.5873 0
M  V30 901 C 84.7076 -0.491956 -1.53195 0
M  V30 902 O 85.8996 -0.745461 -1.60536 0
M  V30 903 C 83.0286 -1.71689 -2.97284 0
M  V30 904 C 82.1146 -2.91781 -3.07774 0
M  V30 905 N 82.5056 -4.15714 -2.88124 0
M  V30 906 C 80.8036 -2.89949 -3.38889 0
M  V30 907 C 81.5046 -4.965 -3.03088 0
M  V30 908 N 80.4806 -4.30083 -3.3246 0
M  V30 909 H 84.2826 -2.57204 -1.42208 0
M  V30 910 H 81.7966 -1.46719 -0.69623 0
M  V30 911 H 83.7936 -1.79732 -3.76168 0
M  V30 912 H 82.4536 -0.793024 -3.14867 0
M  V30 913 H 83.4646 -4.45515 -2.64077 0
M  V30 914 H 80.1416 -2.06987 -3.62578 0
M  V30 915 H 81.5316 -6.04991 -2.92294 0
M  V30 916 N 84.2517 0.741722 -1.39055 0
M  V30 917 C 85.4977 1.50336 -1.36113 0
M  V30 918 C 85.8307 1.94148 0.0450796 0
M  V30 919 O 85.1057 1.66301 1.00868 0
M  V30 920 C 85.3887 2.74773 -2.32749 0
M  V30 921 C 85.2417 2.37023 -3.82283 0
M  V30 922 C 86.5607 3.76846 -2.27322 0
M  V30 923 H 83.6797 0.545351 -0.495743 0
M  V30 924 H 86.3217 0.848624 -1.69995 0
M  V30 925 H 84.4717 3.30639 -2.03986 0
M  V30 926 H 86.1437 1.8684 -4.21768 0
M  V30 927 H 84.3867 1.69334 -3.99385 0
M  V30 928 H 85.0577 3.26104 -4.45376 0
M  V30 929 H 87.5337 3.30548 -2.5274 0
M  V30 930 H 86.4097 4.6159 -2.97028 0
M  V30 931 H 86.6707 4.23286 -1.27599 0
M  V30 932 N 85.7298 1.2412 0.971189 0
M  V30 933 C 87.1458 1.00584 1.23916 0
M  V30 934 C 87.3458 -0.287481 1.99439 0
M  V30 935 O 86.4018 -1.00454 2.31658 0
M  V30 936 C 87.7148 2.21864 2.0297 0
M  V30 937 C 89.2628 2.26452 2.16076 0
M  V30 938 C 89.7378 3.47343 2.98524 0
M  V30 939 N 91.2288 3.47639 3.06107 0
M  V30 940 C 91.9638 4.37837 3.70251 0
M  V30 941 N 91.4598 5.38286 4.36142 0
M  V30 942 N 93.2528 4.25558 3.67228 0
M  V30 943 H 85.4038 2.07236 0.465499 0
M  V30 944 H 87.6668 0.909236 0.268315 0
M  V30 945 H 87.3728 3.15771 1.54861 0
M  V30 946 H 87.2468 2.23698 3.03709 0
M  V30 947 H 89.6338 1.33078 2.6339 0
M  V30 948 H 89.7148 2.28645 1.14696 0
M  V30 949 H 89.3588 4.41029 2.51905 0
M  V30 950 H 89.2888 3.42393 4.00093 0
M  V30 951 H 91.7798 2.74966 2.59233 0
M  V30 952 H 92.0928 6.03352 4.82894 0
M  V30 953 H 90.4378 5.42176 4.34822 0
M  V30 954 H 93.6288 3.46322 3.14927 0
M  V30 955 H 93.8018 4.96054 4.16935 0
M  V30 956 N 87.2079 -1.17134 1.05439 0
M  V30 957 C 88.1379 -2.2342 0.678649 0
M  V30 958 C 89.1189 -1.66971 -0.32476 0
M  V30 959 O 90.3039 -1.93149 -0.201802 0
M  V30 960 C 87.4339 -3.47256 0.0552099 0
M  V30 961 C 86.3879 -4.16543 0.98365 0
M  V30 962 C 85.7139 -5.34231 0.223961 0
M  V30 963 C 87.0139 -4.68495 2.3089 0
M  V30 964 H 88.7079 -2.55105 1.56722 0
M  V30 965 H 86.2539 -1.2262 0.754998 0
M  V30 966 H 88.2069 -4.20828 -0.21946 0
M  V30 967 H 86.9309 -3.14846 -0.868319 0
M  V30 968 H 85.5899 -3.44887 1.24293 0
M  V30 969 H 85.2379 -4.98071 -0.702412 0
M  V30 970 H 84.9379 -5.81527 0.842627 0
M  V30 971 H 86.4619 -6.10585 -0.0433671 0
M  V30 972 H 87.8759 -5.33691 2.09396 0
M  V30 973 H 86.2729 -5.26379 2.88176 0
M  V30 974 H 87.3429 -3.85169 2.94572 0
M  V30 975 N 88.686 -0.835752 -1.33615 0
M  V30 976 C 89.618 -0.224151 -2.28101 0
M  V30 977 C 90.631 0.593331 -1.51603 0
M  V30 978 O 91.82 0.420911 -1.73466 0
M  V30 979 C 88.92 0.703309 -3.31522 0
M  V30 980 C 88.093 -0.0741528 -4.37337 0
M  V30 981 C 87.152 0.776176 -5.20444 0
M  V30 982 O 86.178 0.216506 -5.68788 0
M  V30 983 N 87.38 2.09401 -5.41416 0
M  V30 984 H 90.145 -1.03598 -2.81225 0
M  V30 985 H 87.706 -0.69392 -1.46275 0
M  V30 986 H 89.698 1.27707 -3.84022 0
M  V30 987 H 88.268 1.41585 -2.78698 0
M  V30 988 H 87.488 -0.82928 -3.85378 0
M  V30 989 H 88.776 -0.608863 -5.05144 0
M  V30 990 H 88.174 2.57229 -5.03835 0
M  V30 991 H 86.731 2.61633 -5.96985 0
M  V30 992 N 90.1641 1.46063 -0.591896 0
M  V30 993 C 91.3941 2.06418 -0.0867676 0
M  V30 994 C 91.8021 1.43975 1.22751 0
M  V30 995 O 91.1451 0.542531 1.75506 0
M  V30 996 C 91.2071 3.59213 0.143725 0
M  V30 997 C 90.8711 4.439 -1.08635 0
M  V30 998 C 91.8681 4.79864 -2.00067 0
M  V30 999 C 89.5531 4.84896 -1.31077 0
M  V30 1000 C 91.5471 5.55661 -3.12282 0
M  V30 1001 C 89.2341 5.6045 -2.43596 0
M  V30 1002 C 90.2321 5.95747 -3.34027 0
M  V30 1003 O 89.9201 6.69772 -4.4459 0
M  V30 1004 H 89.6521 0.673443 -0.0587447 0
M  V30 1005 H 92.2061 1.88539 -0.814994 0
M  V30 1006 H 90.4361 3.75433 0.926668 0
M  V30 1007 H 92.1251 4.01463 0.5985 0
M  V30 1008 H 92.8911 4.48763 -1.83947 0
M  V30 1009 H 88.7701 4.56867 -0.61594 0
M  V30 1010 H 92.3141 5.8313 -3.82891 0
M  V30 1011 H 88.2111 5.90965 -2.59674 0
M  V30 1012 H 88.9791 6.88207 -4.43073 0
M  V30 1013 N 91.6422 0.330177 1.54103 0
M  V30 1014 C 92.5722 -0.525353 2.27513 0
M  V30 1015 C 93.5532 -1.11383 1.2856 0
M  V30 1016 O 94.7382 -1.13773 1.57383 0
M  V30 1017 C 91.8682 -1.6831 3.03791 0
M  V30 1018 C 90.8222 -1.2236 4.10137 0
M  V30 1019 C 90.1482 -2.46882 4.74293 0
M  V30 1020 C 91.4482 -0.333697 5.21233 0
M  V30 1021 H 93.1422 0.087013 2.99274 0
M  V30 1022 H 90.6882 0.0432893 1.43935 0
M  V30 1023 H 92.6412 -2.28795 3.5388 0
M  V30 1024 H 91.3652 -2.32216 2.29659 0
M  V30 1025 H 90.0242 -0.64165 3.60941 0
M  V30 1026 H 89.6722 -3.09165 3.96769 0
M  V30 1027 H 89.3722 -2.16825 5.46133 0
M  V30 1028 H 90.8962 -3.08117 5.27159 0
M  V30 1029 H 92.3102 -0.845013 5.67038 0
M  V30 1030 H 90.7072 -0.125612 5.99969 0
M  V30 1031 H 91.7772 0.633724 4.80741 0
M  V30 1032 N 93.1203 -1.57491 0.0584922 0
M  V30 1033 C 94.5363 -1.56792 -0.298091 0
M  V30 1034 C 94.7363 -1.06679 -1.70944 0
M  V30 1035 O 93.7923 -0.726672 -2.41818 0
M  V30 1036 C 95.1053 -3.00461 -0.119879 0
M  V30 1037 C 96.6533 -3.1242 -0.190428 0
M  V30 1038 C 97.1283 -4.57982 -0.0406567 0
M  V30 1039 N 98.6193 -4.63099 -0.0966958 0
M  V30 1040 C 99.3543 -5.734 -0.00502943 0
M  V30 1041 N 98.8503 -6.9266 0.139402 0
M  V30 1042 N 100.643 -5.62067 -0.0611391 0
M  V30 1043 H 92.7943 -1.88386 0.98105 0
M  V30 1044 H 95.0573 -0.867865 0.381463 0
M  V30 1045 H 94.7633 -3.41187 0.85349 0
M  V30 1046 H 94.6373 -3.66843 -0.877833 0
M  V30 1047 H 97.0243 -2.71589 -1.15427 0
M  V30 1048 H 97.1053 -2.48702 0.598405 0
M  V30 1049 H 96.7493 -4.995 0.919897 0
M  V30 1050 H 96.6793 -5.19715 -0.848727 0
M  V30 1051 H 99.1703 -3.77331 -0.207277 0
M  V30 1052 H 99.4833 -7.72536 0.201855 0
M  V30 1053 H 97.8283 -6.94781 0.174586 0
M  V30 1054 H 101.019 -4.67782 -0.172583 0
M  V30 1055 H 101.192 -6.47999 0.0137562 0
M  V30 1056 N 94.5984 0.214957 -1.56127 0
M  V30 1057 C 95.5304 1.29004 -1.89448 0
M  V30 1058 C 96.5434 1.42716 -0.783326 0
M  V30 1059 O 97.7324 1.43496 -1.06166 0
M  V30 1060 C 94.8324 2.66482 -2.09381 0
M  V30 1061 C 94.0054 2.74633 -3.40434 0
M  V30 1062 C 93.0644 3.9317 -3.49719 0
M  V30 1063 O 92.0904 3.812 -4.227 0
M  V30 1064 N 93.2924 5.07765 -2.81346 0
M  V30 1065 H 96.0574 1.00743 -2.82261 0
M  V30 1066 H 93.6184 0.40497 -1.56753 0
M  V30 1067 H 95.6104 3.44173 -2.12901 0
M  V30 1068 H 94.1804 2.87314 -1.23163 0
M  V30 1069 H 93.4004 1.83368 -3.48955 0
M  V30 1070 H 94.6884 2.77054 -4.26754 0
M  V30 1071 H 94.0864 5.20386 -2.21843 0
M  V30 1072 H 92.6434 5.83474 -2.90519 0
M  V30 1073 N 96.0765 1.50051 0.48192 0
M  V30 1074 C 97.0245 1.68635 1.60203 0
M  V30 1075 C 98.0185 0.552184 1.60148 0
M  V30 1076 O 99.2245 0.732377 1.64427 0
M  V30 1077 H 95.5995 0.532081 0.531407 0
M  V30 1078 H 97.5705 2.62616 1.41688 0
M  V30 1079 C 96.3195 1.78775 2.9822 0
M  V30 1080 H 95.6425 2.6543 2.98976 0
M  V30 1081 H 97.0825 1.95806 3.7608 0
M  V30 1082 C 95.5415 0.536849 3.32595 0
M  V30 1083 O 96.0715 -0.328897 4.00351 0
M  V30 1084 N 94.2775 0.394091 2.87915 0
M  V30 1085 H 93.8245 1.09962 2.32951 0
M  V30 1086 H 93.7825 -0.441737 3.11281 0
M  V30 1087 N 97.5546 -0.734337 1.39446 0
M  V30 1088 C 98.8006 -1.49613 1.36908 0
M  V30 1089 C 99.1336 -1.94169 -0.0347829 0
M  V30 1090 O 98.4086 -1.66833 -0.999847 0
M  V30 1091 C 98.6916 -2.73534 2.34203 0
M  V30 1092 C 98.5446 -2.34993 3.83534 0
M  V30 1093 C 99.8636 -3.75635 2.29317 0
M  V30 1094 H 96.9826 -0.542714 0.498629 0
M  V30 1095 H 99.6246 -0.839597 1.70443 0
M  V30 1096 H 97.7746 -3.29553 2.05736 0
M  V30 1097 H 99.4466 -1.84601 4.22753 0
M  V30 1098 H 97.6896 -1.67213 4.00278 0
M  V30 1099 H 98.3606 -3.23738 4.47099 0
M  V30 1100 H 100.837 -3.29203 2.54489 0
M  V30 1101 H 99.7126 -4.60008 2.99472 0
M  V30 1102 H 99.9736 -4.22603 1.29842 0
M  V30 1103 N 99.0327 -1.24633 -0.964593 0
M  V30 1104 C 99.9427 -1.05859 -2.09359 0
M  V30 1105 C 100.959 0.00148855 -1.74 0
M  V30 1106 O 102.135 -0.197346 -2.00431 0
M  V30 1107 C 99.1997 -0.668879 -3.40187 0
M  V30 1108 C 98.2607 -1.80578 -3.89474 0
M  V30 1109 C 97.4937 -1.43457 -5.14058 0
M  V30 1110 O 97.7167 -0.325775 -5.69469 0
M  V30 1111 O 96.6507 -2.2613 -5.57807 0
M  V30 1112 H 100.477 -2.00516 -2.28094 0
M  V30 1113 H 98.0617 -1.03481 -1.0776 0
M  V30 1114 H 99.9437 -0.463211 -4.18846 0
M  V30 1115 H 98.6187 0.248536 -3.22744 0
M  V30 1116 H 97.5257 -2.06623 -3.11862 0
M  V30 1117 H 98.8587 -2.70208 -4.11398 0
M  V30 1118 N 100.511 1.16574 -1.06058 0
M  V30 1119 C 101.757 1.87324 -0.777022 0
M  V30 1120 C 102.09 1.81351 0.694645 0
M  V30 1121 O 101.365 1.22753 1.50871 0
M  V30 1122 C 101.648 3.36991 -1.26922 0
M  V30 1123 C 101.501 3.51667 -2.80447 0
M  V30 1124 C 102.82 4.3131 -0.87521 0
M  V30 1125 H 99.9388 0.680191 -0.28374 0
M  V30 1126 H 102.581 1.37036 -1.3161 0
M  V30 1127 H 100.731 3.79949 -0.81063 0
M  V30 1128 H 102.403 3.17664 -3.34495 0
M  V30 1129 H 100.646 2.93656 -3.19294 0
M  V30 1130 H 101.317 4.56766 -3.0995 0
M  V30 1131 H 103.793 3.9624 -1.27014 0
M  V30 1132 H 102.669 5.34545 -1.2471 0
M  V30 1133 H 102.93 4.41552 0.220071 0
M  V30 1134 N 101.989 0.842826 1.3317 0
M  V30 1135 C 103.238 0.436738 1.96915 0
M  V30 1136 C 103.551 -1.01025 1.67491 0
M  V30 1137 O 104.757 -1.5212 2.24881 0
M  V30 1138 C 103.213 0.730021 3.52418 0
M  V30 1139 C 102.821 2.19195 3.90714 0
M  V30 1140 C 104.565 0.391076 4.22695 0
M  V30 1141 C 102.472 2.42907 5.39212 0
M  V30 1142 H 101.402 0.15958 0.736919 0
M  V30 1143 H 104.053 1.03196 1.51733 0
M  V30 1144 H 102.435 0.0643755 3.95948 0
M  V30 1145 H 103.609 2.8984 3.58231 0
M  V30 1146 H 101.924 2.49425 3.33431 0
M  V30 1147 H 104.521 0.545817 5.31907 0
M  V30 1148 H 104.864 -0.666294 4.10933 0
M  V30 1149 H 105.397 1.01212 3.84709 0
M  V30 1150 H 102.136 3.47224 5.55982 0
M  V30 1151 H 101.656 1.76827 5.73142 0
M  V30 1152 H 103.335 2.2626 6.06148 0
M  V30 1153 N 103.467 -1.45747 0.599634 0
M  V30 1154 C 104.692 -2.07178 0.0960198 0
M  V30 1155 C 105.117 -1.44268 -1.207 0
M  V30 1156 O 104.475 -0.532503 -1.73303 0
M  V30 1157 C 104.523 -3.60579 -0.0385348 0
M  V30 1158 O 103.627 -3.97713 -1.0908 0
M  V30 1159 H 102.968 -0.660251 0.0704593 0
M  V30 1160 H 105.498 -1.87124 0.827385 0
M  V30 1161 H 105.508 -4.07298 -0.239304 0
M  V30 1162 H 104.183 -4.05756 0.912947 0
M  V30 1163 H 102.76 -3.62678 -0.867135 0
M  V30 1164 N 104.945 -0.338344 -1.53925 0
M  V30 1165 C 105.893 0.536231 -2.26335 0
M  V30 1166 C 106.887 1.1063 -1.28286 0
M  V30 1167 O 108.093 1.05264 -1.46012 0
M  V30 1168 H 104.468 0.191602 -0.727181 0
M  V30 1169 H 106.439 -0.0965747 -2.98244 0
M  V30 1170 C 105.188 1.67803 -3.04528 0
M  V30 1171 H 104.511 1.24864 -3.79801 0
M  V30 1172 H 105.951 2.26526 -3.58416 0
M  V30 1173 C 104.41 2.60439 -2.13712 0
M  V30 1174 O 104.94 3.6255 -1.72975 0
M  V30 1175 N 103.146 2.29006 -1.78898 0
M  V30 1176 H 102.693 1.46011 -2.12223 0
M  V30 1177 H 102.651 2.91248 -1.18416 0
M  V30 1178 N 106.423 1.57458 -0.0668435 0
M  V30 1179 C 107.7 1.8469 0.644132 0
M  V30 1180 C 108.08 0.958343 1.88093 0
M  V30 1181 O 107.428 0.0233579 2.28488 0
M  V30 1182 C 107.638 3.34767 0.986509 0
M  V30 1183 C 108.986 4.02159 1.36212 0
M  V30 1184 O 110.01 3.39484 1.07839 0
M  V30 1185 O 108.869 5.12694 1.89227 0
M  V30 1186 H 105.963 0.762816 0.319437 0
M  V30 1187 H 108.509 1.6942 -0.0973986 0
M  V30 1188 H 107.281 3.91151 0.107883 0
M  V30 1189 H 106.904 3.55281 1.78497 0
M  V30 1190 N 107.901 -0.206675 1.56239 0
M  V30 1191 C 108.848 -1.25617 1.93621 0
M  V30 1192 C 109.818 -1.45824 0.795274 0
M  V30 1193 O 111.003 -1.59148 1.05245 0
M  V30 1194 C 108.143 -2.59839 2.27107 0
M  V30 1195 C 107.256 -2.47308 3.54207 0
M  V30 1196 C 106.391 -3.74155 3.7707 0
M  V30 1197 C 105.43 -3.56407 4.97635 0
M  V30 1198 N 104.567 -4.75238 5.1681 0
M  V30 1199 H 109.407 -0.930383 2.83104 0
M  V30 1200 H 106.944 -0.448065 1.4011 0
M  V30 1201 H 108.902 -3.38021 2.44535 0
M  V30 1202 H 107.532 -2.90485 1.40778 0
M  V30 1203 H 106.584 -1.60483 3.4489 0
M  V30 1204 H 107.896 -2.30122 4.42544 0
M  V30 1205 H 107.05 -4.60778 3.94675 0
M  V30 1206 H 105.789 -3.94282 2.87042 0
M  V30 1207 H 104.794 -2.68168 4.79964 0
M  V30 1208 H 106.019 -3.37736 5.89161 0
M  V30 1209 H 103.965 -4.95651 4.29728 0
M  V30 1210 H 103.882 -4.60835 5.99306 0
M  V30 1211 H 105.15 -5.63246 5.38864 0
M  V30 1212 N 109.379 -1.50304 -0.473955 0
M  V30 1213 C 110.342 -1.6841 -1.55469 0
M  V30 1214 C 111.342 -0.554905 -1.50922 0
M  V30 1215 O 112.532 -0.821882 -1.53593 0
M  V30 1216 C 109.664 -1.70667 -2.95102 0
M  V30 1217 H 110.857 -2.64828 -1.40733 0
M  V30 1218 H 108.41 -1.39742 -0.700132 0
M  V30 1219 H 109.145 -0.75932 -3.15285 0
M  V30 1220 H 108.93 -2.52698 -2.9981 0
M  V30 1221 H 110.42 -1.8664 -3.73571 0
M  V30 1222 N 110.857 0.726932 -1.39834 0
M  V30 1223 C 112.106 1.48214 -1.36805 0
M  V30 1224 C 112.419 1.95576 0.0305291 0
M  V30 1225 O 113.625 2.7088 0.183417 0
M  V30 1226 C 112.081 2.67854 -2.40379 0
M  V30 1227 C 111.689 2.27408 -3.85992 0
M  V30 1228 C 113.433 3.45641 -2.46439 0
M  V30 1229 C 111.34 3.43819 -4.81189 0
M  V30 1230 H 110.27 0.556606 -0.508631 0
M  V30 1231 H 112.921 0.792216 -1.65518 0
M  V30 1232 H 111.303 3.3896 -2.04749 0
M  V30 1233 H 112.477 1.63795 -4.30706 0
M  V30 1234 H 110.792 1.62692 -3.83302 0
M  V30 1235 H 113.389 4.32244 -3.14753 0
M  V30 1236 H 113.732 3.88669 -1.49139 0
M  V30 1237 H 114.265 2.8157 -2.81004 0
M  V30 1238 H 111.004 3.05834 -5.79781 0
M  V30 1239 H 110.524 4.06385 -4.41148 0
M  V30 1240 H 112.203 4.10043 -5.00474 0
M  V30 1241 N 112.336 1.25143 0.95797 0
M  V30 1242 C 113.266 1.07711 2.07173 0
M  V30 1243 C 114.247 -0.0128462 1.70095 0
M  V30 1244 O 115.432 0.156061 1.93572 0
M  V30 1245 C 112.562 0.691503 3.40346 0
M  V30 1246 C 111.516 1.73132 3.9142 0
M  V30 1247 C 110.842 1.20049 5.21049 0
M  V30 1248 C 112.142 3.1294 4.1817 0
M  V30 1249 H 113.836 2.00873 2.22014 0
M  V30 1250 H 111.382 0.967191 1.06684 0
M  V30 1251 H 113.335 0.556505 4.17709 0
M  V30 1252 H 112.059 -0.275819 3.25433 0
M  V30 1253 H 110.718 1.8547 3.16222 0
M  V30 1254 H 110.366 0.223499 5.02503 0
M  V30 1255 H 110.066 1.89545 5.56189 0
M  V30 1256 H 111.59 1.07782 6.01012 0
M  V30 1257 H 113.004 3.03775 4.86203 0
M  V30 1258 H 111.401 3.79875 4.64559 0
M  V30 1259 H 112.471 3.6025 3.24573 0
M  V30 1260 N 113.814 -1.1601 1.06675 0
M  V30 1261 C 114.761 -2.20525 0.680967 0
M  V30 1262 C 115.731 -1.62904 -0.324283 0
M  V30 1263 O 116.916 -1.89615 -0.212294 0
M  V30 1264 C 114.056 -3.45013 0.0776551 0
M  V30 1265 C 113.169 -4.16863 1.13355 0
M  V30 1266 C 112.304 -5.2888 0.49597 0
M  V30 1267 C 111.343 -5.92537 1.53513 0
M  V30 1268 N 110.48 -6.96038 0.920631 0
M  V30 1269 H 115.32 -2.52876 1.57663 0
M  V30 1270 H 112.857 -1.24199 0.788223 0
M  V30 1271 H 114.815 -4.16193 -0.289704 0
M  V30 1272 H 113.445 -3.132 -0.781393 0
M  V30 1273 H 112.497 -3.44248 1.61857 0
M  V30 1274 H 113.809 -4.60294 1.92174 0
M  V30 1275 H 112.963 -6.06653 0.0758604 0
M  V30 1276 H 111.702 -4.86622 -0.324062 0
M  V30 1277 H 110.707 -5.13482 1.9651 0
M  V30 1278 H 111.932 -6.36873 2.35733 0
M  V30 1279 H 109.878 -6.55888 0.12138 0
M  V30 1280 H 109.795 -7.3786 1.64616 0
M  V30 1281 H 111.063 -7.77725 0.525795 0
M  V30 1282 N 115.292 -0.849877 -1.32721 0
M  V30 1283 C 116.569 -0.372405 -1.92022 0
M  V30 1284 C 116.949 1.1435 -1.77447 0
M  V30 1285 O 116.297 1.96296 -1.16962 0
M  V30 1286 C 116.507 -0.831482 -3.3895 0
M  V30 1287 C 117.855 -0.845882 -4.16089 0
M  V30 1288 O 118.879 -0.775806 -3.47649 0
M  V30 1289 O 117.738 -0.943753 -5.38289 0
M  V30 1290 H 114.832 -0.107667 -0.819961 0
M  V30 1291 H 117.378 -0.93646 -1.41522 0
M  V30 1292 H 116.15 -1.87448 -3.4348 0
M  V30 1293 H 115.773 -0.24461 -3.96847 0
M  V30 1294 N 116.77 1.45427 -0.607355 0
M  V30 1295 C 117.702 2.2871 0.149752 0
M  V30 1296 C 118.715 1.39937 0.831958 0
M  V30 1297 O 119.904 1.64313 0.697385 0
M  V30 1298 C 117.004 3.15673 1.23304 0
M  V30 1299 C 116.177 4.32722 0.637996 0
M  V30 1300 C 115.236 5.00895 1.61215 0
M  V30 1301 O 114.262 5.57697 1.13854 0
M  V30 1302 N 115.464 5.00159 2.94655 0
M  V30 1303 H 118.229 2.94328 -0.564882 0
M  V30 1304 H 115.79 1.55612 -0.446823 0
M  V30 1305 H 117.782 3.58144 1.88454 0
M  V30 1306 H 116.352 2.51965 1.8502 0
M  V30 1307 H 115.572 3.93734 -0.191572 0
M  V30 1308 H 116.86 5.08321 0.220665 0
M  V30 1309 H 116.258 4.553 3.35735 0
M  V30 1310 H 114.815 5.46495 3.55228 0
M  V30 1311 N 118.248 0.346503 1.53744 0
M  V30 1312 C 119.525 -0.304532 1.93215 0
M  V30 1313 C 119.905 -1.67993 1.27834 0
M  V30 1314 O 119.253 -2.24411 0.430352 0
M  V30 1315 C 119.463 -0.373852 3.46992 0
M  V30 1316 C 120.811 -0.62329 4.2 0
M  V30 1317 O 121.835 -0.455847 3.53271 0
M  V30 1318 O 120.694 -0.947879 5.38217 0
M  V30 1319 H 117.788 -0.178318 0.807547 0
M  V30 1320 H 120.334 0.397895 1.64969 0
M  V30 1321 H 119.106 0.591224 3.86808 0
M  V30 1322 H 118.729 -1.12294 3.81413 0
M  V30 1323 N 119.726 -1.57421 0.075193 0
M  V30 1324 C 120.674 -2.14124 -0.908508 0
M  V30 1325 C 121.668 -1.07898 -1.30592 0
M  V30 1326 O 122.874 -1.26273 -1.28277 0
M  V30 1327 H 119.249 -0.684707 -0.310935 0
M  V30 1328 H 121.22 -2.95634 -0.405374 0
M  V30 1329 C 119.969 -2.72044 -2.16535 0
M  V30 1330 H 119.292 -3.53456 -1.86839 0
M  V30 1331 H 120.732 -3.15311 -2.83469 0
M  V30 1332 C 119.191 -1.66968 -2.92615 0
M  V30 1333 O 119.721 -1.0967 -3.86439 0
M  V30 1334 N 117.927 -1.37923 -2.55784 0
M  V30 1335 H 117.474 -1.84706 -1.79559 0
M  V30 1336 H 117.432 -0.67852 -3.06991 0
M  V30 1337 N 121.204 0.198386 -1.56346 0
M  V30 1338 C 122.434 0.934215 -1.84271 0
M  V30 1339 C 122.842 1.77496 -0.655125 0
M  V30 1340 O 122.185 1.7961 0.385488 0
M  V30 1341 C 122.247 1.88278 -3.06254 0
M  V30 1342 C 121.911 1.22431 -4.40295 0
M  V30 1343 C 122.908 0.602839 -5.16393 0
M  V30 1344 C 120.593 1.22915 -4.87029 0
M  V30 1345 C 122.587 -0.0050083 -6.374 0
M  V30 1346 C 120.274 0.617465 -6.07973 0
M  V30 1347 C 121.272 0.00146341 -6.83 0
M  V30 1348 O 120.96 -0.600642 -8.01653 0
M  V30 1349 H 120.692 0.278245 -0.616081 0
M  V30 1350 H 123.246 0.211626 -2.04307 0
M  V30 1351 H 121.476 2.64498 -2.82095 0
M  V30 1352 H 123.165 2.48612 -3.20853 0
M  V30 1353 H 123.931 0.591265 -4.81382 0
M  V30 1354 H 119.81 1.69801 -4.28589 0
M  V30 1355 H 123.354 -0.48643 -6.95902 0
M  V30 1356 H 119.251 0.62653 -6.42452 0
M  V30 1357 H 120.019 -0.497225 -8.16988 0
M  V30 1358 N 122.682 1.50554 0.465978 0
M  V30 1359 C 123.912 1.65323 1.23903 0
M  V30 1360 C 124.32 0.338051 1.86155 0
M  V30 1361 O 123.663 -0.690518 1.70228 0
M  V30 1362 C 123.725 2.69048 2.3844 0
M  V30 1363 C 123.389 4.12462 1.96784 0
M  V30 1364 C 124.386 4.98168 1.48745 0
M  V30 1365 C 122.071 4.58407 2.05349 0
M  V30 1366 C 124.065 6.27868 1.0982 0
M  V30 1367 C 121.752 5.88112 1.66035 0
M  V30 1368 C 122.75 6.72668 1.18349 0
M  V30 1369 O 122.438 7.99951 0.795825 0
M  V30 1370 H 122.17 0.558629 0.38067 0
M  V30 1371 H 124.724 1.97561 0.562022 0
M  V30 1372 H 122.954 2.32062 3.09328 0
M  V30 1373 H 124.643 2.72985 3.0039 0
M  V30 1374 H 125.409 4.63885 1.41546 0
M  V30 1375 H 121.288 3.92735 2.41414 0
M  V30 1376 H 124.832 6.93819 0.725293 0
M  V30 1377 H 120.729 6.21914 1.72895 0
M  V30 1378 H 121.497 8.13265 0.924222 0
M  V30 1379 N 124.16 -0.719506 1.40217 0
M  V30 1380 C 125.406 -1.48152 1.38488 0
M  V30 1381 C 125.739 -1.94195 -0.0141867 0
M  V30 1382 O 125.014 -1.67884 -0.982096 0
M  V30 1383 C 125.297 -2.71035 2.37091 0
M  V30 1384 C 125.15 -2.30912 3.86005 0
M  V30 1385 C 126.469 -3.73182 2.33288 0
M  V30 1386 H 123.588 -0.537395 0.504357 0
M  V30 1387 H 126.23 -0.821472 1.71324 0
M  V30 1388 H 124.38 -3.27352 2.0922 0
M  V30 1389 H 126.052 -1.80107 4.24687 0
M  V30 1390 H 124.295 -1.62958 4.02029 0
M  V30 1391 H 124.966 -3.18978 4.50508 0
M  V30 1392 H 127.442 -3.26485 2.57966 0
M  V30 1393 H 126.318 -4.56806 3.04334 0
M  V30 1394 H 126.579 -4.21202 1.34317 0
M  V30 1395 N 125.638 -1.25649 -0.95132 0
M  V30 1396 C 126.868 -1.13179 -1.72841 0
M  V30 1397 C 127.276 0.316827 -1.86528 0
M  V30 1398 O 126.619 1.22948 -1.3649 0
M  V30 1399 C 126.681 -1.71644 -3.15878 0
M  V30 1400 C 126.345 -3.20667 -3.25609 0
M  V30 1401 C 127.342 -4.17616 -3.09666 0
M  V30 1402 C 125.027 -3.6094 -3.49324 0
M  V30 1403 C 127.021 -5.52817 -3.17289 0
M  V30 1404 C 124.708 -4.96278 -3.56584 0
M  V30 1405 C 125.706 -5.92025 -3.40581 0
M  V30 1406 O 125.394 -7.24899 -3.47528 0
M  V30 1407 H 125.126 -0.395389 -0.54831 0
M  V30 1408 H 127.68 -1.66566 -1.20187 0
M  V30 1409 H 125.91 -1.12707 -3.69911 0
M  V30 1410 H 127.599 -1.54225 -3.75459 0
M  V30 1411 H 128.365 -3.87842 -2.91211 0
M  V30 1412 H 124.244 -2.86907 -3.6084 0
M  V30 1413 H 127.788 -6.2753 -3.04716 0
M  V30 1414 H 123.685 -5.25716 -3.74556 0
M  V30 1415 H 124.453 -7.33039 -3.64138 0
M  V30 1416 N 127.117 1.15442 -1.07289 0
M  V30 1417 C 128.064 2.20161 -0.692653 0
M  V30 1418 C 129.034 1.63073 0.31564 0
M  V30 1419 O 130.219 1.89725 0.202235 0
M  V30 1420 C 127.359 3.44967 -0.0959509 0
M  V30 1421 C 126.472 4.16256 -1.15564 0
M  V30 1422 C 125.607 5.28609 -0.524011 0
M  V30 1423 C 124.646 5.91715 -1.56653 0
M  V30 1424 N 123.783 6.9554 -0.957531 0
M  V30 1425 H 128.623 2.52037 -1.59002 0
M  V30 1426 H 126.16 1.2378 -0.794798 0
M  V30 1427 H 128.118 4.16341 0.267628 0
M  V30 1428 H 126.748 3.1361 0.764772 0
M  V30 1429 H 125.8 3.43385 -1.6368 0
M  V30 1430 H 127.112 4.59268 -1.94613 0
M  V30 1431 H 126.266 6.06604 -0.108032 0
M  V30 1432 H 125.005 4.86787 0.29825 0
M  V30 1433 H 124.01 5.12433 -1.9923 0
M  V30 1434 H 125.235 6.35614 -2.39107 0
M  V30 1435 H 123.181 6.55814 -0.156162 0
M  V30 1436 H 123.098 7.36977 -1.68526 0
M  V30 1437 H 124.366 7.77435 -0.567032 0
M  V30 1438 N 128.595 0.856903 1.32268 0
M  V30 1439 C 129.872 0.382583 1.91822 0
M  V30 1440 C 130.252 -1.13407 1.78051 0
M  V30 1441 O 129.6 -1.95673 1.18001 0
M  V30 1442 C 129.81 0.849446 3.38505 0
M  V30 1443 C 131.158 0.867936 4.15634 0
M  V30 1444 O 132.182 0.794232 3.47232 0
M  V30 1445 O 131.041 0.972286 5.37781 0
M  V30 1446 H 128.135 0.112014 0.819379 0
M  V30 1447 H 130.681 0.943952 1.41024 0
M  V30 1448 H 129.453 1.89267 3.42482 0
M  V30 1449 H 129.076 0.265652 3.96712 0
M  V30 1450 N 130.073 -1.45103 0.615059 0
M  V30 1451 C 131.298 -2.07064 0.117988 0
M  V30 1452 C 131.723 -1.4554 -1.19163 0
M  V30 1453 O 131.081 -0.550855 -1.72729 0
M  V30 1454 C 131.129 -3.606 -0.000288387 0
M  V30 1455 O 130.233 -3.98847 -1.04856 0
M  V30 1456 H 129.574 -0.659467 0.0774581 0
M  V30 1457 H 132.104 -1.86236 0.847186 0
M  V30 1458 H 132.114 -4.07529 -0.196091 0
M  V30 1459 H 130.789 -4.04765 0.955932 0
M  V30 1460 H 129.366 -3.63577 -0.828619 0
M  V30 1461 N 131.551 -0.354651 -1.53558 0
M  V30 1462 C 132.797 0.231422 -2.02079 0
M  V30 1463 C 133.152 1.47308 -1.23767 0
M  V30 1464 O 132.445 1.8891 -0.319947 0
M  V30 1465 C 132.639 0.587121 -3.52545 0
M  V30 1466 C 132.468 -0.618513 -4.45426 0
M  V30 1467 C 131.238 -1.12724 -4.92566 0
M  V30 1468 C 133.436 -1.48039 -4.92533 0
M  V30 1469 N 131.418 -2.29404 -5.69427 0
M  V30 1470 C 132.789 -2.49397 -5.67628 0
M  V30 1471 C 134.844 -1.50454 -4.74624 0
M  V30 1472 C 133.547 -3.53013 -6.26717 0
M  V30 1473 C 135.573 -2.52958 -5.34571 0
M  V30 1474 C 134.935 -3.5304 -6.09543 0
M  V30 1475 H 131.034 0.0476909 -0.780544 0
M  V30 1476 H 133.618 -0.496727 -1.88257 0
M  V30 1477 H 131.789 1.28436 -3.6655 0
M  V30 1478 H 133.521 1.15734 -3.87799 0
M  V30 1479 H 130.276 -0.693577 -4.68494 0
M  V30 1480 H 130.7 -2.88347 -6.12524 0
M  V30 1481 H 135.342 -0.744356 -4.16196 0
M  V30 1482 H 133.06 -4.2992 -6.84247 0
M  V30 1483 H 136.646 -2.55667 -5.22614 0
M  V30 1484 H 135.526 -4.31056 -6.55103 0
M  V30 1485 N 133.029 1.57378 -0.0835403 0
M  V30 1486 C 134.278 1.93106 0.582498 0
M  V30 1487 C 134.591 0.96651 1.70053 0
M  V30 1488 O 135.797 1.21705 2.42693 0
M  V30 1489 C 134.253 3.43076 1.08751 0
M  V30 1490 C 133.861 4.48 -0.000146404 0
M  V30 1491 C 135.605 3.87785 1.72694 0
M  V30 1492 C 133.512 5.89113 0.519568 0
M  V30 1493 H 132.442 0.720775 0.221358 0
M  V30 1494 H 135.093 1.82821 -0.157675 0
M  V30 1495 H 133.475 3.48474 1.88101 0
M  V30 1496 H 134.649 4.54233 -0.775199 0
M  V30 1497 H 132.964 4.1283 -0.54406 0
M  V30 1498 H 135.561 4.90604 2.1263 0
M  V30 1499 H 135.904 3.25796 2.59158 0
M  V30 1500 H 136.437 3.8504 0.999457 0
M  V30 1501 H 133.176 6.54775 -0.308186 0
M  V30 1502 H 132.696 5.86376 1.26188 0
M  V30 1503 H 134.375 6.39346 0.992237 0
M  V30 1504 N 134.507 -0.190092 1.56449 0
M  V30 1505 C 135.417 -1.25591 1.98152 0
M  V30 1506 C 136.433 -1.49519 0.889944 0
M  V30 1507 O 137.609 -1.62036 1.19609 0
M  V30 1508 C 134.674 -2.57916 2.3169 0
M  V30 1509 C 133.735 -2.42015 3.5458 0
M  V30 1510 C 132.968 -3.6803 3.8651 0
M  V30 1511 O 133.191 -4.72413 3.1966 0
M  V30 1512 O 132.125 -3.6326 4.79923 0
M  V30 1513 H 135.951 -0.931988 2.89046 0
M  V30 1514 H 133.536 -0.395488 1.4407 0
M  V30 1515 H 135.418 -3.36008 2.54316 0
M  V30 1516 H 134.093 -2.89925 1.43963 0
M  V30 1517 H 133 -1.62017 3.37196 0
M  V30 1518 H 134.333 -2.14937 4.4279 0
M  V30 1519 N 135.985 -1.50799 -0.457987 0
M  V30 1520 C 136.932 -1.70617 -1.5543 0
M  V30 1521 C 137.902 -0.547562 -1.56815 0
M  V30 1522 O 139.087 -0.779647 -1.74144 0
M  V30 1523 C 136.227 -1.81831 -2.93311 0
M  V30 1524 C 135.34 -3.09278 -3.01615 0
M  V30 1525 C 134.475 -3.11209 -4.30491 0
M  V30 1526 C 133.514 -4.33055 -4.32585 0
M  V30 1527 N 132.651 -4.32652 -5.52952 0
M  V30 1528 H 137.491 -2.64207 -1.37836 0
M  V30 1529 H 135.028 -1.30959 -0.669937 0
M  V30 1530 H 136.986 -1.86314 -3.73287 0
M  V30 1531 H 135.616 -0.916685 -3.0951 0
M  V30 1532 H 134.668 -3.14203 -2.1443 0
M  V30 1533 H 135.98 -3.99233 -2.99022 0
M  V30 1534 H 135.134 -3.14494 -5.18824 0
M  V30 1535 H 133.873 -2.19106 -4.35711 0
M  V30 1536 H 132.878 -4.29969 -3.42647 0
M  V30 1537 H 134.103 -5.264 -4.29046 0
M  V30 1538 H 132.049 -3.43409 -5.58933 0
M  V30 1539 H 131.966 -5.16392 -5.52155 0
M  V30 1540 H 133.234 -4.40101 -6.43375 0
M  V30 1541 N 137.463 0.71206 -1.40597 0
M  V30 1542 C 138.393 1.83889 -1.43899 0
M  V30 1543 C 139.374 1.67442 -0.299504 0
M  V30 1544 O 140.559 1.87421 -0.508624 0
M  V30 1545 C 137.689 3.21877 -1.30431 0
M  V30 1546 C 136.643 3.53002 -2.42019 0
M  V30 1547 C 135.969 4.90172 -2.13626 0
M  V30 1548 C 137.269 3.53643 -3.84362 0
M  V30 1549 H 138.963 1.81383 -2.38203 0
M  V30 1550 H 136.509 0.871237 -1.14654 0
M  V30 1551 H 138.462 4.00404 -1.31357 0
M  V30 1552 H 137.186 3.24968 -0.326049 0
M  V30 1553 H 135.845 2.76818 -2.40349 0
M  V30 1554 H 135.493 4.89869 -1.14182 0
M  V30 1555 H 135.193 5.11962 -2.88389 0
M  V30 1556 H 136.717 5.71028 -2.1624 0
M  V30 1557 H 138.131 4.22203 -3.87837 0
M  V30 1558 H 136.528 3.86961 -4.58673 0
M  V30 1559 H 137.598 2.52954 -4.13693 0
M  V30 1560 N 138.941 1.26152 0.944643 0
M  V30 1561 C 139.889 1.07215 2.06417 0
M  V30 1562 C 140.883 9.2007e-05 1.694 0
M  V30 1563 O 142.089 0.1565 1.79318 0
M  V30 1564 H 138.464 0.329837 0.675805 0
M  V30 1565 H 140.435 2.02099 2.19541 0
M  V30 1566 C 139.184 0.718197 3.40202 0
M  V30 1567 H 138.507 1.53497 3.69159 0
M  V30 1568 H 139.947 0.625459 4.19361 0
M  V30 1569 C 138.406 -0.576435 3.31932 0
M  V30 1570 O 138.936 -1.61574 3.67773 0
M  V30 1571 N 137.142 -0.565781 2.85039 0
M  V30 1572 H 136.689 0.280367 2.5607 0
M  V30 1573 H 136.647 -1.43213 2.79888 0
M  V30 1574 N 140.419 -1.14872 1.07899 0
M  V30 1575 C 141.696 -1.81928 0.71845 0
M  V30 1576 C 142.076 -1.95417 -0.798455 0
M  V30 1577 O 141.424 -1.50997 -1.715 0
M  V30 1578 C 141.634 -3.17937 1.43935 0
M  V30 1579 C 142.982 -3.93501 1.59506 0
M  V30 1580 O 144.006 -3.27509 1.40058 0
M  V30 1581 O 142.865 -5.1183 1.91551 0
M  V30 1582 H 139.959 -0.78628 0.256305 0
M  V30 1583 H 142.505 -1.21934 1.18026 0
M  V30 1584 H 141.277 -3.0325 2.47295 0
M  V30 1585 H 140.9 -3.85619 0.968687 0
M  V30 1586 N 141.898 -0.863906 -1.31812 0
M  V30 1587 C 142.845 -0.313303 -2.28664 0
M  V30 1588 C 143.815 0.584868 -1.55462 0
M  V30 1589 O 145 0.517805 -1.83639 0
M  V30 1590 C 142.14 0.48441 -3.41683 0
M  V30 1591 C 141.253 -0.440594 -4.29747 0
M  V30 1592 C 140.388 0.370652 -5.29905 0
M  V30 1593 C 139.427 -0.551164 -6.09613 0
M  V30 1594 N 138.564 0.223462 -7.01744 0
M  V30 1595 H 143.404 -1.14444 -2.75148 0
M  V30 1596 H 140.941 -0.575769 -1.35364 0
M  V30 1597 H 142.899 0.962627 -4.05943 0
M  V30 1598 H 141.529 1.28029 -2.96325 0
M  V30 1599 H 140.581 -1.03724 -3.65986 0
M  V30 1600 H 141.893 -1.14767 -4.85417 0
M  V30 1601 H 141.047 0.911638 -5.99812 0
M  V30 1602 H 139.786 1.11105 -4.74876 0
M  V30 1603 H 138.791 -1.10396 -5.38603 0
M  V30 1604 H 140.016 -1.29032 -6.66729 0
M  V30 1605 H 137.962 0.946787 -6.49132 0
M  V30 1606 H 137.879 -0.424399 -7.54808 0
M  V30 1607 H 139.147 0.745876 -7.75923 0
M  V30 1608 N 143.376 1.44774 -0.622745 0
M  V30 1609 C 144.624 2.01721 -0.123655 0
M  V30 1610 C 144.945 1.49172 1.25589 0
M  V30 1611 O 144.215 0.691974 1.83272 0
M  V30 1612 H 142.795 0.745777 -0.0427225 0
M  V30 1613 H 145.457 1.77382 -0.807559 0
M  V30 1614 H 144.553 3.11984 -0.0849534 0
M  V30 1615 N 144.854 0.36279 1.53368 0
M  V30 1616 C 146.084 -0.228281 2.05335 0
M  V30 1617 C 146.492 -1.43226 1.23625 0
M  V30 1618 O 145.835 -1.81717 0.269206 0
M  V30 1619 C 145.897 -0.688549 3.52845 0
M  V30 1620 C 145.561 0.398362 4.5526 0
M  V30 1621 C 146.558 1.24732 5.04716 0
M  V30 1622 C 144.243 0.557805 4.99193 0
M  V30 1623 C 146.237 2.2411 5.96702 0
M  V30 1624 C 143.924 1.55495 5.90986 0
M  V30 1625 C 144.922 2.39503 6.39631 0
M  V30 1626 O 144.61 3.37517 7.29615 0
M  V30 1627 H 144.342 -0.044395 0.674541 0
M  V30 1628 H 146.896 0.518668 1.98744 0
M  V30 1629 H 145.126 -1.48706 3.56964 0
M  V30 1630 H 146.815 -1.20231 3.87685 0
M  V30 1631 H 147.581 1.13532 4.71525 0
M  V30 1632 H 143.46 -0.0862959 4.60919 0
M  V30 1633 H 147.004 2.89718 6.34594 0
M  V30 1634 H 142.901 1.66744 6.23592 0
M  V30 1635 H 143.669 3.33213 7.47604 0
M  V30 1636 N 146.332 -1.57332 0.0918853 0
M  V30 1637 C 147.557 -1.98995 -0.584442 0
M  V30 1638 C 147.982 -0.970528 -1.61128 0
M  V30 1639 O 147.34 0.0613904 -1.81196 0
M  V30 1640 C 147.388 -3.39636 -1.21161 0
M  V30 1641 O 146.492 -3.40447 -2.32744 0
M  V30 1642 H 145.833 -0.647165 -0.148572 0
M  V30 1643 H 148.363 -2.03873 0.172347 0
M  V30 1644 H 148.373 -3.7726 -1.55367 0
M  V30 1645 H 147.048 -4.13356 -0.459313 0
M  V30 1646 H 145.625 -3.14614 -2.0018 0
M  V30 1647 N 147.81 0.181792 -1.56548 0
M  V30 1648 C 149.056 0.901431 -1.81665 0
M  V30 1649 C 149.389 1.82347 -0.668075 0
M  V30 1650 O 148.664 1.91669 0.330615 0
M  V30 1651 C 148.947 1.70618 -3.17115 0
M  V30 1652 C 148.8 0.807964 -4.42484 0
M  V30 1653 C 150.119 2.67605 -3.49393 0
M  V30 1654 H 147.238 0.32627 -0.660846 0
M  V30 1655 H 149.88 0.168134 -1.89255 0
M  V30 1656 H 148.03 2.33133 -3.10775 0
M  V30 1657 H 149.702 0.19649 -4.60881 0
M  V30 1658 H 147.945 0.115411 -4.33646 0
M  V30 1659 H 148.616 1.40632 -5.33785 0
M  V30 1660 H 151.092 2.15218 -3.56118 0
M  V30 1661 H 149.968 3.20985 -4.45264 0
M  V30 1662 H 150.229 3.47298 -2.73563 0
M  V30 1663 N 149.288 1.51039 0.449983 0
M  V30 1664 C 150.518 1.66627 1.22143 0
M  V30 1665 C 150.926 0.357776 1.85786 0
M  V30 1666 O 150.269 -0.672424 1.70951 0
M  V30 1667 C 150.331 2.71562 2.35573 0
M  V30 1668 C 149.995 4.14526 1.92399 0
M  V30 1669 C 150.992 4.99717 1.43453 0
M  V30 1670 C 148.677 4.60559 2.00475 0
M  V30 1671 C 150.671 6.28998 1.03155 0
M  V30 1672 C 148.358 5.8984 1.59788 0
M  V30 1673 C 149.356 6.73886 1.11208 0
M  V30 1674 O 149.044 8.0075 0.710935 0
M  V30 1675 H 148.776 0.562635 0.374724 0
M  V30 1676 H 151.33 1.98146 0.541036 0
M  V30 1677 H 149.56 2.3533 3.06849 0
M  V30 1678 H 151.249 2.76156 2.97478 0
M  V30 1679 H 152.015 4.65361 1.36618 0
M  V30 1680 H 147.894 3.95273 2.37235 0
M  V30 1681 H 151.438 6.9455 0.651663 0
M  V30 1682 H 147.335 6.23713 1.66289 0
M  V30 1683 H 148.103 8.142 0.837913 0
M  V30 1684 N 150.766 -0.704594 1.40972 0
M  V30 1685 C 152.014 -1.46169 1.39568 0
M  V30 1686 C 152.335 -1.95 0.00253745 0
M  V30 1687 O 151.605 -1.71095 -0.954114 0
M  V30 1688 H 150.185 -0.542326 0.513704 0
M  V30 1689 H 152.847 -0.834553 1.76128 0
M  V30 1690 H 151.943 -2.32922 2.07735 0
M  V30 1691 N 152.244 -1.26651 -0.937939 0
M  V30 1692 C 153.493 -1.11775 -1.67897 0
M  V30 1693 C 153.806 0.33794 -1.92659 0
M  V30 1694 O 155.012 0.607434 -2.64618 0
M  V30 1695 C 153.468 -1.9523 -3.02346 0
M  V30 1696 C 153.076 -3.45393 -2.8532 0
M  V30 1697 C 154.82 -1.88972 -3.80118 0
M  V30 1698 C 152.727 -4.21083 -4.15263 0
M  V30 1699 H 151.657 -0.414696 -0.629717 0
M  V30 1700 H 154.308 -1.50988 -1.04283 0
M  V30 1701 H 152.69 -1.48853 -3.66959 0
M  V30 1702 H 153.864 -3.99561 -2.29537 0
M  V30 1703 H 152.179 -3.52921 -2.20988 0
M  V30 1704 H 154.776 -2.42805 -4.76392 0
M  V30 1705 H 155.119 -0.86113 -4.07296 0
M  V30 1706 H 155.652 -2.33189 -3.22285 0
M  V30 1707 H 152.391 -5.24425 -3.93267 0
M  V30 1708 H 151.911 -3.71695 -4.70747 0
M  V30 1709 H 153.59 -4.29706 -4.83696 0
M  V30 1710 N 153.722 1.14298 -1.08507 0
M  V30 1711 C 154.999 1.81544 -0.728088 0
M  V30 1712 C 155.379 1.95838 0.78808 0
M  V30 1713 O 154.727 1.51904 1.70697 0
M  V30 1714 C 154.937 3.17169 -1.45619 0
M  V30 1715 C 156.285 3.9265 -1.61591 0
M  V30 1716 O 157.309 3.26762 -1.41793 0
M  V30 1717 O 156.168 5.10807 -1.94263 0
M  V30 1718 H 153.262 0.78491 -0.260471 0
M  V30 1719 H 155.808 1.21307 -1.18671 0
M  V30 1720 H 154.58 3.01934 -2.489 0
M  V30 1721 H 154.203 3.851 -0.989124 0
M  V30 1722 N 155.201 0.870884 1.31352 0
M  V30 1723 C 156.131 0.343096 2.30966 0
M  V30 1724 C 157.112 -0.566507 1.60389 0
M  V30 1725 O 158.297 -0.483336 1.88089 0
M  V30 1726 C 155.427 -0.455487 3.443 0
M  V30 1727 C 154.381 0.361103 4.26474 0
M  V30 1728 C 153.707 -0.563221 5.31725 0
M  V30 1729 C 155.007 1.59566 4.97329 0
M  V30 1730 H 156.701 1.17548 2.75359 0
M  V30 1731 H 154.247 0.566686 1.32381 0
M  V30 1732 H 156.2 -0.83525 4.13039 0
M  V30 1733 H 154.924 -1.32139 2.98675 0
M  V30 1734 H 153.583 0.722825 3.59403 0
M  V30 1735 H 153.231 -1.42643 4.82351 0
M  V30 1736 H 152.931 -0.0207409 5.87596 0
M  V30 1737 H 154.455 -0.939808 6.03324 0
M  V30 1738 H 155.869 1.28728 5.58661 0
M  V30 1739 H 154.266 2.07728 5.63 0
M  V30 1740 H 155.336 2.34798 4.24262 0
M  V30 1741 N 156.679 -1.44442 0.630414 0
M  V30 1742 C 157.611 -2.2892 -0.113347 0
M  V30 1743 C 158.624 -1.41243 -0.80959 0
M  V30 1744 O 159.813 -1.65402 -0.671156 0
M  V30 1745 C 156.913 -3.17594 -1.18266 0
M  V30 1746 C 156.086 -4.33682 -0.569073 0
M  V30 1747 C 155.145 -5.03397 -1.53226 0
M  V30 1748 O 154.171 -5.59438 -1.04967 0
M  V30 1749 N 155.373 -5.04783 -2.86661 0
M  V30 1750 H 158.138 -2.93392 0.611636 0
M  V30 1751 H 155.699 -1.54881 0.471523 0
M  V30 1752 H 157.691 -3.61097 -1.82732 0
M  V30 1753 H 156.261 -2.54876 -1.80988 0
M  V30 1754 H 155.481 -3.9338 0.254187 0
M  V30 1755 H 156.769 -5.08608 -0.139767 0
M  V30 1756 H 156.167 -4.60584 -3.28449 0
M  V30 1757 H 154.724 -5.52077 -3.46489 0
M  V30 1758 N 158.157 -0.370918 -1.53173 0
M  V30 1759 C 159.405 0.216673 -2.00935 0
M  V30 1760 C 159.726 1.48845 -1.25977 0
M  V30 1761 O 158.996 1.92286 -0.374551 0
M  V30 1762 H 157.576 0.0830565 -0.742368 0
M  V30 1763 H 160.238 -0.49838 -1.8842 0
M  V30 1764 H 159.334 0.439893 -3.08984 0
M  V30 1765 N 159.635 1.57281 -0.100228 0
M  V30 1766 C 160.585 2.10848 0.86759 0
M  V30 1767 C 161.569 1.02473 1.24049 0
M  V30 1768 O 162.761 1.28739 1.21471 0
M  V30 1769 C 159.89 2.69648 2.12474 0
M  V30 1770 C 158.976 3.85074 1.77704 0
M  V30 1771 N 159.367 4.92897 1.13518 0
M  V30 1772 C 157.665 3.94905 2.07282 0
M  V30 1773 C 158.366 5.73475 0.974735 0
M  V30 1774 N 157.342 5.22675 1.4937 0
M  V30 1775 H 161.144 2.91594 0.367471 0
M  V30 1776 H 158.658 1.62074 0.102829 0
M  V30 1777 H 160.655 3.06356 2.82757 0
M  V30 1778 H 159.315 1.90359 2.63047 0
M  V30 1779 H 160.326 5.11662 0.801381 0
M  V30 1780 H 157.003 3.26633 2.60033 0
M  V30 1781 H 158.393 6.70238 0.472364 0
M  V30 1782 N 161.113 -0.173488 1.56642 0
M  V30 1783 C 162.361 -0.888706 1.81512 0
M  V30 1784 C 162.682 -1.82875 0.676872 0
M  V30 1785 O 161.952 -1.93536 -0.303414 0
M  V30 1786 H 160.532 -0.331164 0.669582 0
M  V30 1787 H 163.194 -0.173823 1.94123 0
M  V30 1788 H 162.29 -1.46691 2.75478 0
M  V30 1789 N 162.591 -1.51276 -0.441967 0
M  V30 1790 C 163.521 -1.752 -1.54361 0
M  V30 1791 C 164.502 -0.601682 -1.59103 0
M  V30 1792 O 165.687 -0.843913 -1.74905 0
M  V30 1793 C 162.817 -1.87282 -2.92477 0
M  V30 1794 C 161.771 -3.02687 -3.02596 0
M  V30 1795 C 161.097 -2.99947 -4.42647 0
M  V30 1796 C 162.397 -4.4273 -2.77106 0
M  V30 1797 H 164.091 -2.67442 -1.34592 0
M  V30 1798 H 161.637 -1.28694 -0.646048 0
M  V30 1799 H 163.59 -2.02602 -3.695 0
M  V30 1800 H 162.314 -0.916844 -3.13467 0
M  V30 1801 H 160.973 -2.87065 -2.28012 0
M  V30 1802 H 160.621 -2.02136 -4.60597 0
M  V30 1803 H 160.321 -3.77439 -4.50348 0
M  V30 1804 H 161.845 -3.17354 -5.2165 0
M  V30 1805 H 163.259 -4.58727 -3.43864 0
M  V30 1806 H 161.656 -5.21893 -2.96222 0
M  V30 1807 H 162.726 -4.53087 -1.72744 0
M  V30 1808 N 164.069 0.697108 -1.41344 0
M  V30 1809 C 165.294 1.49096 -1.44171 0
M  V30 1810 C 165.719 1.88038 -0.0481568 0
M  V30 1811 O 165.077 1.54525 0.948243 0
M  V30 1812 C 165.125 2.73088 -2.3549 0
M  V30 1813 O 164.229 3.70514 -1.81088 0
M  V30 1814 H 163.57 0.448801 -0.489361 0
M  V30 1815 H 166.1 0.856992 -1.85787 0
M  V30 1816 H 166.11 3.21413 -2.51312 0
M  V30 1817 H 164.785 2.44081 -3.36745 0
M  V30 1818 H 163.362 3.29441 -1.74708 0
M  V30 1819 N 165.547 1.27147 0.931209 0
M  V30 1820 C 166.457 1.11372 2.06478 0
M  V30 1821 C 167.473 0.044645 1.73943 0
M  V30 1822 O 168.649 0.250417 1.99837 0
M  V30 1823 C 165.714 0.758838 3.38294 0
M  V30 1824 C 164.775 1.90841 3.84549 0
M  V30 1825 C 164.008 1.57036 5.10074 0
M  V30 1826 O 164.231 0.476645 5.68405 0
M  V30 1827 O 163.165 2.40839 5.51616 0
M  V30 1828 H 166.991 2.06493 2.22698 0
M  V30 1829 H 164.576 1.06301 1.04978 0
M  V30 1830 H 166.458 0.574098 4.17471 0
M  V30 1831 H 165.133 -0.162879 3.2329 0
M  V30 1832 H 164.04 2.14819 3.06274 0
M  V30 1833 H 165.373 2.81021 4.04089 0
M  V30 1834 N 167.025 -1.13721 1.09112 0
M  V30 1835 C 168.273 -1.84559 0.823562 0
M  V30 1836 C 168.594 -1.83754 -0.652658 0
M  V30 1837 O 167.864 -1.29102 -1.47342 0
M  V30 1838 H 166.444 -0.683376 0.301673 0
M  V30 1839 H 169.106 -1.37771 1.37859 0
M  V30 1840 H 168.202 -2.8917 1.17419 0
M  V30 1841 N 168.503 -0.877838 -1.30888 0
M  V30 1842 C 169.749 -0.502773 -1.97088 0
M  V30 1843 C 170.104 0.936274 -1.68082 0
M  V30 1844 O 169.397 1.65162 -0.971196 0
M  V30 1845 C 169.591 -0.705748 -3.50363 0
M  V30 1846 C 169.42 -2.16297 -3.94266 0
M  V30 1847 C 168.19 -2.80614 -4.20219 0
M  V30 1848 C 170.388 -3.13606 -4.07622 0
M  V30 1849 N 168.37 -4.17007 -4.50532 0
M  V30 1850 C 169.741 -4.35051 -4.41736 0
M  V30 1851 C 171.796 -3.09491 -3.90026 0
M  V30 1852 C 170.499 -5.52911 -4.60089 0
M  V30 1853 C 172.525 -4.26616 -4.09576 0
M  V30 1854 C 171.887 -5.46825 -4.44029 0
M  V30 1855 H 167.986 -0.233168 -0.746429 0
M  V30 1856 H 170.57 -1.13408 -1.58261 0
M  V30 1857 H 168.741 -0.103976 -3.88261 0
M  V30 1858 H 170.473 -0.298291 -4.03599 0
M  V30 1859 H 167.228 -2.3152 -4.13153 0
M  V30 1860 H 167.652 -4.87426 -4.69834 0
M  V30 1861 H 172.294 -2.17657 -3.62471 0
M  V30 1862 H 170.012 -6.45255 -4.86489 0
M  V30 1863 H 173.598 -4.24894 -3.97438 0
M  V30 1864 H 172.478 -6.35947 -4.58848 0
M  V30 1865 N 169.982 1.44106 -0.638065 0
M  V30 1866 C 170.892 2.34513 0.0637334 0
M  V30 1867 C 171.908 1.53018 0.828346 0
M  V30 1868 O 173.084 1.85723 0.779036 0
M  V30 1869 C 170.149 3.31095 1.02844 0
M  V30 1870 C 169.21 4.28497 0.26244 0
M  V30 1871 C 168.443 5.20465 1.1812 0
M  V30 1872 O 168.666 5.16514 2.42011 0
M  V30 1873 O 167.6 5.98251 0.661774 0
M  V30 1874 H 171.426 2.95989 -0.68003 0
M  V30 1875 H 169.011 1.43994 -0.398252 0
M  V30 1876 H 170.893 3.90526 1.58327 0
M  V30 1877 H 169.568 2.72144 1.7527 0
M  V30 1878 H 168.475 3.72592 -0.335602 0
M  V30 1879 H 169.808 4.90388 -0.421936 0
M  V30 1880 N 171.46 0.379036 1.52974 0
M  V30 1881 C 172.408 -0.476033 2.27677 0
M  V30 1882 C 173.402 -1.0719 1.31174 0
M  V30 1883 O 174.608 -1.01355 1.48752 0
M  V30 1884 H 170.983 -0.172255 0.732006 0
M  V30 1885 H 172.954 0.175615 2.97883 0
M  V30 1886 C 171.703 -1.5967 3.0887 0
M  V30 1887 H 171.026 -1.1475 3.82978 0
M  V30 1888 H 172.466 -2.16943 3.64296 0
M  V30 1889 C 170.925 -2.54682 2.20542 0
M  V30 1890 O 171.455 -3.57836 1.82527 0
M  V30 1891 N 169.661 -2.24183 1.84907 0
M  V30 1892 H 169.208 -1.40333 2.1602 0
M  V30 1893 H 169.166 -2.88006 1.26096 0
M  V30 1894 N 172.938 -1.57226 0.108567 0
M  V30 1895 C 173.868 -2.17778 -0.84232 0
M  V30 1896 C 174.849 -1.11487 -1.2847 0
M  V30 1897 O 176.034 -1.39681 -1.34918 0
M  V30 1898 C 173.164 -2.76888 -2.09644 0
M  V30 1899 C 172.118 -3.88669 -1.79221 0
M  V30 1900 C 171.444 -4.34541 -3.11574 0
M  V30 1901 C 172.744 -5.11251 -1.06864 0
M  V30 1902 H 174.438 -2.97489 -0.337774 0
M  V30 1903 H 171.984 -1.43097 -0.161025 0
M  V30 1904 H 173.937 -3.17904 -2.76614 0
M  V30 1905 H 172.661 -1.94451 -2.62405 0
M  V30 1906 H 171.32 -3.48213 -1.14644 0
M  V30 1907 H 170.968 -3.48977 -3.62249 0
M  V30 1908 H 170.668 -5.09914 -2.91996 0
M  V30 1909 H 172.192 -4.782 -3.7968 0
M  V30 1910 H 173.606 -5.49352 -1.63968 0
M  V30 1911 H 172.003 -5.9214 -0.974178 0
M  V30 1912 H 173.073 -4.8487 -0.0536168 0
M  V30 1913 N 174.416 0.165178 -1.56732 0
M  V30 1914 C 175.363 1.2044 -1.96883 0
M  V30 1915 C 176.333 1.43664 -0.833657 0
M  V30 1916 O 177.518 1.56302 -1.09427 0
M  V30 1917 C 174.658 2.53727 -2.33916 0
M  V30 1918 C 173.771 2.3783 -3.6064 0
M  V30 1919 C 172.906 3.64026 -3.86857 0
M  V30 1920 C 171.945 3.43088 -5.06909 0
M  V30 1921 N 171.082 4.61369 -5.29229 0
M  V30 1922 H 175.922 0.854996 -2.85471 0
M  V30 1923 H 173.459 0.41076 -1.41249 0
M  V30 1924 H 175.417 3.31419 -2.53411 0
M  V30 1925 H 174.047 2.8665 -1.48431 0
M  V30 1926 H 173.099 1.51282 -3.49024 0
M  V30 1927 H 174.411 2.18308 -4.4849 0
M  V30 1928 H 173.565 4.50152 -4.06753 0
M  V30 1929 H 172.304 3.86533 -2.97394 0
M  V30 1930 H 171.309 2.55349 -4.86906 0
M  V30 1931 H 172.534 3.21997 -5.97909 0
M  V30 1932 H 170.48 4.84084 -4.42718 0
M  V30 1933 H 170.397 4.44783 -6.11313 0
M  V30 1934 H 171.665 5.48761 -5.53608 0
M  V30 1935 N 175.894 1.51508 0.433938 0
M  V30 1936 C 176.857 1.72473 1.50949 0
M  V30 1937 C 177.857 0.594725 1.49398 0
M  V30 1938 O 179.047 0.862315 1.5136 0
M  V30 1939 C 176.179 1.78431 2.90474 0
M  V30 1940 H 177.372 2.68467 1.33662 0
M  V30 1941 H 174.925 1.41549 0.662836 0
M  V30 1942 H 175.66 0.842645 3.13161 0
M  V30 1943 H 175.445 2.60558 2.93005 0
M  V30 1944 H 176.935 1.96479 3.68491 0
M  V30 1945 N 177.372 -0.689602 1.41712 0
M  V30 1946 C 178.32 -1.82475 1.44242 0
M  V30 1947 C 179.314 -1.66354 0.319774 0
M  V30 1948 O 180.52 -1.73143 0.492089 0
M  V30 1949 H 176.895 -0.601416 0.451445 0
M  V30 1950 H 178.866 -1.77458 2.39899 0
M  V30 1951 C 177.615 -3.20535 1.3473 0
M  V30 1952 H 176.938 -3.33559 2.20405 0
M  V30 1953 H 178.378 -4.00023 1.40562 0
M  V30 1954 C 176.837 -3.36846 0.0603281 0
M  V30 1955 O 177.367 -3.91656 -0.892663 0
M  V30 1956 N 175.573 -2.90595 -0.0177039 0
M  V30 1957 H 175.12 -2.46178 0.758572 0
M  V30 1958 H 175.078 -3.01886 -0.878201 0
M  V30 1959 N 178.85 -1.27639 -0.924453 0
M  V30 1960 C 180.099 -1.13549 -1.66702 0
M  V30 1961 C 180.412 0.317487 -1.93006 0
M  V30 1962 O 181.618 0.579333 -2.65247 0
M  V30 1963 C 180.074 -1.98426 -3.00259 0
M  V30 1964 C 179.682 -3.484 -2.81641 0
M  V30 1965 C 181.426 -1.92993 -3.78092 0
M  V30 1966 C 179.333 -4.25464 -4.10773 0
M  V30 1967 H 178.263 -0.421351 -0.625283 0
M  V30 1968 H 180.914 -1.52085 -1.02676 0
M  V30 1969 H 179.296 -1.52736 -3.6536 0
M  V30 1970 H 180.47 -4.01973 -2.25287 0
M  V30 1971 H 178.785 -3.55245 -2.17232 0
M  V30 1972 H 181.382 -2.47844 -4.7379 0
M  V30 1973 H 181.725 -0.904281 -4.0636 0
M  V30 1974 H 182.258 -2.36595 -3.19793 0
M  V30 1975 H 178.997 -5.28566 -3.87683 0
M  V30 1976 H 178.517 -3.76667 -4.66779 0
M  V30 1977 H 180.196 -4.34812 -4.79111 0
M  V30 1978 N 180.328 1.1314 -1.09713 0
M  V30 1979 C 181.276 2.20717 -0.733934 0
M  V30 1980 C 182.27 1.6729 0.266506 0
M  V30 1981 O 183.476 1.79547 0.127656 0
M  V30 1982 H 179.851 0.719292 -0.21937 0
M  V30 1983 H 181.822 2.48611 -1.6503 0
M  V30 1984 C 180.571 3.47265 -0.173849 0
M  V30 1985 H 179.894 3.88716 -0.934873 0
M  V30 1986 H 181.334 4.23979 0.0423126 0
M  V30 1987 C 179.793 3.18724 1.09164 0
M  V30 1988 O 180.323 3.37762 2.17439 0
M  V30 1989 N 178.529 2.72583 1.00732 0
M  V30 1990 H 178.076 2.57291 0.126121 0
M  V30 1991 H 178.034 2.53862 1.85476 0
M  V30 1992 N 181.806 0.884767 1.30421 0
M  V30 1993 C 182.754 0.340869 2.30089 0
M  V30 1994 C 183.748 -0.55201 1.60154 0
M  V30 1995 O 184.954 -0.436467 1.74628 0
M  V30 1996 H 181.329 0.0915739 0.746404 0
M  V30 1997 H 183.3 1.19513 2.73421 0
M  V30 1998 C 182.049 -0.429779 3.45034 0
M  V30 1999 H 181.372 0.248024 3.9903 0
M  V30 2000 H 182.812 -0.775445 4.16849 0
M  V30 2001 C 181.271 -1.62677 2.95022 0
M  V30 2002 O 181.801 -2.72614 2.95033 0
M  V30 2003 N 180.007 -1.46387 2.51036 0
M  V30 2004 H 179.554 -0.569506 2.51226 0
M  V30 2005 H 179.512 -2.26612 2.17932 0
M  V30 2006 N 183.284 -1.43765 0.645699 0
M  V30 2007 C 184.531 -2.01898 0.15604 0
M  V30 2008 C 184.859 -1.50887 -1.22733 0
M  V30 2009 O 184.114 -0.689271 -1.8316 0
M  V30 2010 C 184.413 -3.57238 0.107679 0
M  V30 2011 C 184.079 -4.27564 1.43178 0
M  V30 2012 C 182.741 -4.46492 1.7944 0
M  V30 2013 C 185.093 -4.67454 2.30513 0
M  V30 2014 C 182.421 -5.02573 3.02716 0
M  V30 2015 C 184.773 -5.24901 3.53074 0
M  V30 2016 C 183.437 -5.42046 3.89541 0
M  V30 2017 H 182.707 -0.738797 0.057099 0
M  V30 2018 H 185.354 -1.72341 0.834912 0
M  V30 2019 H 183.659 -3.86293 -0.654618 0
M  V30 2020 H 185.356 -3.99965 -0.287938 0
M  V30 2021 H 181.946 -4.13171 1.13963 0
M  V30 2022 H 186.13 -4.5253 2.0379 0
M  V30 2023 H 181.386 -5.14033 3.31028 0
M  V30 2024 H 185.56 -5.54758 4.20971 0
M  V30 2025 H 183.187 -5.85268 4.85145 0
M  V30 2026 N 184.763 -0.387143 -1.52771 0
M  V30 2027 C 186.04 0.253197 -1.93954 0
M  V30 2028 C 186.42 1.64545 -1.32243 0
M  V30 2029 O 185.768 2.23191 -0.489699 0
M  V30 2030 C 185.978 0.281722 -3.47861 0
M  V30 2031 C 187.326 0.511715 -4.21505 0
M  V30 2032 O 188.35 0.362023 -3.54356 0
M  V30 2033 O 187.209 0.804847 -5.40541 0
M  V30 2034 H 184.303 0.156845 -0.811991 0
M  V30 2035 H 186.849 -0.441494 -1.63856 0
M  V30 2036 H 185.621 -0.693571 -3.85104 0
M  V30 2037 H 185.244 1.02142 -3.84256 0
M  V30 2038 N 186.241 1.57166 -0.116904 0
M  V30 2039 C 187.518 1.86645 0.585049 0
M  V30 2040 C 187.898 1.0177 1.84949 0
M  V30 2041 O 187.246 0.0960379 2.28298 0
M  V30 2042 C 187.456 3.37736 0.879507 0
M  V30 2043 C 188.804 4.06289 1.23348 0
M  V30 2044 O 189.828 3.42743 0.969836 0
M  V30 2045 O 188.687 5.18455 1.7282 0
M  V30 2046 H 185.781 0.772593 0.295007 0
M  V30 2047 H 188.327 1.69025 -0.151249 0
M  V30 2048 H 187.099 3.91296 -0.0166136 0
M  V30 2049 H 186.722 3.6078 1.67103 0
M  V30 2050 N 187.719 -0.156864 1.56817 0
M  V30 2051 C 188.649 -1.19589 2.00551 0
M  V30 2052 C 189.63 -1.4536 0.883426 0
M  V30 2053 O 190.815 -1.56449 1.15054 0
M  V30 2054 C 187.945 -2.53143 2.37773 0
M  V30 2055 C 186.899 -2.41913 3.53075 0
M  V30 2056 C 186.225 -3.80088 3.76081 0
M  V30 2057 C 187.525 -1.91157 4.86062 0
M  V30 2058 H 189.219 -0.832293 2.87599 0
M  V30 2059 H 186.765 -0.398918 1.38364 0
M  V30 2060 H 188.718 -3.26047 2.66967 0
M  V30 2061 H 187.442 -2.91319 1.4765 0
M  V30 2062 H 186.101 -1.71462 3.24031 0
M  V30 2063 H 185.749 -4.15683 2.83225 0
M  V30 2064 H 185.449 -3.73439 4.53671 0
M  V30 2065 H 186.973 -4.54556 4.0769 0
M  V30 2066 H 188.387 -2.53846 5.14038 0
M  V30 2067 H 186.784 -1.95422 5.67389 0
M  V30 2068 H 187.854 -0.866673 4.77092 0
M  V30 2069 N 189.197 -1.51736 -0.425897 0
M  V30 2070 C 190.443 -1.65214 -1.1761 0
M  V30 2071 C 190.776 -0.372778 -1.90589 0
M  V30 2072 O 190.051 0.628139 -1.84078 0
M  V30 2073 C 190.334 -2.86312 -2.18398 0
M  V30 2074 C 190.187 -4.24254 -1.49426 0
M  V30 2075 C 191.506 -3.02925 -3.19256 0
M  V30 2076 H 188.625 -0.601263 -0.426206 0
M  V30 2077 H 191.267 -1.8425 -0.463882 0
M  V30 2078 H 189.417 -2.70213 -2.79137 0
M  V30 2079 H 191.089 -4.52046 -0.919362 0
M  V30 2080 H 189.332 -4.26426 -0.796432 0
M  V30 2081 H 190.003 -5.05001 -2.22885 0
M  V30 2082 H 192.479 -3.1781 -2.68581 0
M  V30 2083 H 191.355 -3.89199 -3.8706 0
M  V30 2084 H 191.616 -2.15497 -3.86023 0
M  V30 2085 N 190.675 0.682077 -1.42076 0
M  V30 2086 C 191.905 1.46844 -1.45329 0
M  V30 2087 C 192.313 1.89102 -0.0609328 0
M  V30 2088 O 191.656 1.58238 0.933082 0
M  V30 2089 C 191.718 2.75375 -2.31104 0
M  V30 2090 C 191.382 2.55238 -3.79081 0
M  V30 2091 C 192.379 2.20309 -4.70914 0
M  V30 2092 C 190.064 2.70459 -4.2327 0
M  V30 2093 C 192.058 2.00859 -6.04925 0
M  V30 2094 C 189.745 2.50624 -5.57343 0
M  V30 2095 C 190.743 2.15876 -6.47986 0
M  V30 2096 O 190.431 1.96227 -7.79583 0
M  V30 2097 H 190.163 0.4586 -0.496651 0
M  V30 2098 H 192.717 0.846131 -1.87162 0
M  V30 2099 H 190.947 3.40061 -1.84107 0
M  V30 2100 H 192.636 3.37231 -2.25898 0
M  V30 2101 H 193.402 2.08153 -4.38061 0
M  V30 2102 H 189.281 2.96485 -3.53012 0
M  V30 2103 H 192.825 1.7366 -6.75639 0
M  V30 2104 H 188.722 2.62375 -5.89771 0
M  V30 2105 H 189.49 2.10883 -7.90867 0
M  V30 2106 N 192.153 1.28127 0.917671 0
M  V30 2107 C 193.43 1.05761 1.64542 0
M  V30 2108 C 193.81 -0.404344 2.07191 0
M  V30 2109 O 193.158 -1.38963 1.81388 0
M  V30 2110 C 193.368 2.02857 2.83989 0
M  V30 2111 C 194.716 2.32786 3.551 0
M  V30 2112 O 195.74 2.0091 2.94132 0
M  V30 2113 O 194.599 2.87169 4.64969 0
M  V30 2114 H 191.693 0.403916 0.721652 0
M  V30 2115 H 194.239 1.39431 0.967322 0
M  V30 2116 H 193.011 3.01407 2.49538 0
M  V30 2117 H 192.634 1.69809 3.59514 0
M  V30 2118 N 193.631 -1.12557 1.10312 0
M  V30 2119 C 194.877 -1.84311 0.846011 0
M  V30 2120 C 195.21 -1.83805 -0.626859 0
M  V30 2121 O 194.485 -1.28268 -1.46211 0
M  V30 2122 C 194.768 -3.32048 1.39341 0
M  V30 2123 C 194.621 -3.41016 2.93305 0
M  V30 2124 C 195.94 -4.27764 1.03468 0
M  V30 2125 H 193.059 -0.669192 0.30879 0
M  V30 2126 H 195.701 -1.32057 1.36605 0
M  V30 2127 H 193.851 -3.76678 0.951087 0
M  V30 2128 H 195.523 -3.05031 3.46055 0
M  V30 2129 H 193.766 -2.81603 3.29973 0
M  V30 2130 H 194.437 -4.44948 3.26689 0
M  V30 2131 H 196.913 -3.91253 1.41633 0
M  V30 2132 H 195.789 -5.29549 1.44463 0
M  V30 2133 H 196.05 -4.42064 -0.0560404 0
M  V30 2134 N 195.109 -0.891671 -1.2995 0
M  V30 2135 C 196.358 -0.509521 -1.95158 0
M  V30 2136 C 196.671 0.947388 -1.71125 0
M  V30 2137 O 197.877 1.43669 -2.30372 0
M  V30 2138 C 196.333 -0.860315 -3.49466 0
M  V30 2139 C 195.941 -2.33545 -3.8231 0
M  V30 2140 C 197.685 -0.547687 -4.20952 0
M  V30 2141 C 195.592 -2.62752 -5.29826 0
M  V30 2142 H 194.522 -0.18682 -0.730489 0
M  V30 2143 H 197.173 -1.08756 -1.47798 0
M  V30 2144 H 195.555 -0.211285 -3.95436 0
M  V30 2145 H 196.729 -3.02936 -3.47227 0
M  V30 2146 H 195.044 -2.61629 -3.23944 0
M  V30 2147 H 197.641 -0.742854 -5.29515 0
M  V30 2148 H 197.984 0.51332 -4.13123 0
M  V30 2149 H 198.517 -1.1542 -3.80688 0
M  V30 2150 H 195.256 -3.6762 -5.42712 0
M  V30 2151 H 194.776 -1.97977 -5.66185 0
M  V30 2152 H 196.455 -2.48601 -5.97333 0
M  V30 2153 N 196.587 1.43421 -0.653314 0
M  V30 2154 C 197.519 2.29071 0.0769134 0
M  V30 2155 C 198.532 1.42513 0.787017 0
M  V30 2156 O 199.721 1.66449 0.644757 0
M  V30 2157 C 196.821 3.19436 1.13199 0
M  V30 2158 C 195.994 4.34533 0.500006 0
M  V30 2159 C 195.053 5.05771 1.45198 0
M  V30 2160 O 194.079 5.61037 0.960538 0
M  V30 2161 N 195.281 5.0928 2.78594 0
M  V30 2162 H 198.046 2.92382 -0.658235 0
M  V30 2163 H 195.607 1.54112 -0.496104 0
M  V30 2164 H 197.599 3.63958 1.76964 0
M  V30 2165 H 196.169 2.57724 1.7691 0
M  V30 2166 H 195.389 3.92925 -0.316738 0
M  V30 2167 H 196.677 5.08766 0.0588345 0
M  V30 2168 H 196.075 4.65751 3.2108 0
M  V30 2169 H 194.632 5.57519 3.37662 0
M  V30 2170 N 198.065 0.39524 1.52563 0
M  V30 2171 C 199.295 -0.184675 2.05773 0
M  V30 2172 C 199.703 -1.40571 1.26635 0
M  V30 2173 O 199.046 -1.81105 0.30769 0
M  V30 2174 C 199.108 -0.613551 3.54226 0
M  V30 2175 C 198.772 0.49484 4.54313 0
M  V30 2176 C 199.769 1.3541 5.01956 0
M  V30 2177 C 197.454 0.663565 4.97898 0
M  V30 2178 C 199.448 2.36716 5.91814 0
M  V30 2179 C 197.135 1.67996 5.87555 0
M  V30 2180 C 198.133 2.53017 6.34406 0
M  V30 2181 O 197.821 3.52917 7.22291 0
M  V30 2182 H 197.553 -0.030077 0.675331 0
M  V30 2183 H 200.107 0.560708 1.97599 0
M  V30 2184 H 198.337 -1.411 3.60038 0
M  V30 2185 H 200.026 -1.11981 3.90148 0
M  V30 2186 H 200.792 1.23509 4.6901 0
M  V30 2187 H 196.671 0.0114913 4.60999 0
M  V30 2188 H 200.215 3.03113 6.28306 0
M  V30 2189 H 196.112 1.79933 6.19915 0
M  V30 2190 H 196.88 3.48996 7.40367 0
M  V30 2191 N 199.544 -1.57102 0.125237 0
M  V30 2192 C 200.474 -2.18659 -0.819174 0
M  V30 2193 C 201.455 -1.12843 -1.27281 0
M  V30 2194 O 202.64 -1.41104 -1.33429 0
M  V30 2195 C 199.77 -2.79096 -2.06695 0
M  V30 2196 C 198.724 -3.90548 -1.75088 0
M  V30 2197 C 198.05 -4.37821 -3.06948 0
M  V30 2198 C 199.35 -5.12356 -1.01435 0
M  V30 2199 H 201.044 -2.9783 -0.306202 0
M  V30 2200 H 198.59 -1.4326 -0.145839 0
M  V30 2201 H 200.543 -3.2082 -2.73226 0
M  V30 2202 H 199.267 -1.97223 -2.60328 0
M  V30 2203 H 197.926 -3.49409 -1.10944 0
M  V30 2204 H 197.574 -3.52799 -3.58527 0
M  V30 2205 H 197.274 -5.12982 -2.86571 0
M  V30 2206 H 198.798 -4.822 -3.74587 0
M  V30 2207 H 200.212 -5.5106 -1.58132 0
M  V30 2208 H 198.609 -5.9314 -0.911319 0
M  V30 2209 H 199.679 -4.849 -0.00218681 0
M  V30 2210 N 201.022 0.148545 -1.56898 0
M  V30 2211 C 201.932 1.20293 -2.01412 0
M  V30 2212 C 202.948 1.47107 -0.929273 0
M  V30 2213 O 204.124 1.58807 -1.23863 0
M  V30 2214 C 201.189 2.51682 -2.38447 0
M  V30 2215 C 200.25 2.32529 -3.60872 0
M  V30 2216 C 199.483 3.57653 -3.96132 0
M  V30 2217 O 199.706 4.63771 -3.32073 0
M  V30 2218 O 198.64 3.50408 -4.89385 0
M  V30 2219 H 202.466 0.855025 -2.91416 0
M  V30 2220 H 200.051 0.357151 -1.45068 0
M  V30 2221 H 201.933 3.29147 -2.63135 0
M  V30 2222 H 200.608 2.86006 -1.51599 0
M  V30 2223 H 199.515 1.53019 -3.41373 0
M  V30 2224 H 200.848 2.03121 -4.48333 0
M  V30 2225 N 202.5 1.5196 0.417844 0
M  V30 2226 C 203.41 1.77554 1.53336 0
M  V30 2227 C 204.426 0.660655 1.6097 0
M  V30 2228 O 205.602 0.945099 1.77848 0
M  V30 2229 C 202.667 1.91291 2.89152 0
M  V30 2230 C 201.728 3.15183 2.91475 0
M  V30 2231 C 200.961 3.28256 4.20813 0
M  V30 2232 O 201.184 2.46798 5.14244 0
M  V30 2233 O 200.118 4.21356 4.29817 0
M  V30 2234 H 203.944 2.7222 1.34647 0
M  V30 2235 H 201.529 1.36698 0.602828 0
M  V30 2236 H 203.411 2.02199 3.69721 0
M  V30 2237 H 202.086 0.998129 3.07927 0
M  V30 2238 H 200.993 3.09739 2.09791 0
M  V30 2239 H 202.326 4.06414 2.77648 0
M  V30 2240 N 203.978 -0.674533 1.42435 0
M  V30 2241 C 205.227 -1.43034 1.42212 0
M  V30 2242 C 205.54 -1.95555 0.0420788 0
M  V30 2243 O 206.746 -2.71374 -0.0827558 0
M  V30 2244 C 205.202 -2.58748 2.50155 0
M  V30 2245 C 204.81 -2.12925 3.94166 0
M  V30 2246 C 206.554 -3.36257 2.59098 0
M  V30 2247 C 204.461 -3.25723 4.93618 0
M  V30 2248 H 203.391 -0.537345 0.528939 0
M  V30 2249 H 206.042 -0.73024 1.68344 0
M  V30 2250 H 204.424 -3.31128 2.17188 0
M  V30 2251 H 205.598 -1.47697 4.36488 0
M  V30 2252 H 203.913 -1.48354 3.89076 0
M  V30 2253 H 206.51 -4.20264 3.30578 0
M  V30 2254 H 206.853 -3.82866 1.63461 0
M  V30 2255 H 207.386 -2.70947 2.9126 0
M  V30 2256 H 204.125 -2.84105 5.90732 0
M  V30 2257 H 203.645 -3.89732 4.55926 0
M  V30 2258 H 205.324 -3.91186 5.15347 0
M  V30 2259 N 205.456 -1.28612 -0.910864 0
M  V30 2260 C 206.404 -1.1265 -2.03501 0
M  V30 2261 C 207.398 -0.0450054 -1.6934 0
M  V30 2262 O 208.604 -0.203988 -1.7884 0
M  V30 2263 H 204.979 -0.347639 -0.666822 0
M  V30 2264 H 206.95 -2.07849 -2.14106 0
M  V30 2265 C 205.699 -0.808143 -3.38178 0
M  V30 2266 H 205.022 -1.63231 -3.6496 0
M  V30 2267 H 206.462 -0.736426 -4.17556 0
M  V30 2268 C 204.921 0.488226 -3.33344 0
M  V30 2269 O 205.451 1.51766 -3.71927 0
M  V30 2270 N 203.657 0.490009 -2.86439 0
M  V30 2271 H 203.204 -0.348161 -2.55236 0
M  V30 2272 H 203.162 1.35741 -2.83587 0
M  V30 2273 N 206.934 1.1197 -1.10907 0
M  V30 2274 C 208.35 1.35591 -0.841852 0
M  V30 2275 C 208.55 1.94233 0.536246 0
M  V30 2276 O 207.606 2.1717 1.28816 0
M  V30 2277 C 208.919 2.29284 -1.94549 0
M  V30 2278 C 210.467 2.42862 -1.97451 0
M  V30 2279 C 210.942 3.39873 -3.07002 0
M  V30 2280 N 212.433 3.47433 -3.06341 0
M  V30 2281 C 213.168 4.22421 -3.87748 0
M  V30 2282 N 212.664 5.00432 -4.79103 0
M  V30 2283 N 214.457 4.17876 -3.75946 0
M  V30 2284 H 206.608 0.722664 -1.99728 0
M  V30 2285 H 208.871 0.380635 -0.868229 0
M  V30 2286 H 208.577 1.93378 -2.93765 0
M  V30 2287 H 208.451 3.29452 -1.83688 0
M  V30 2288 H 210.838 2.78046 -0.988645 0
M  V30 2289 H 210.919 1.42566 -2.12388 0
M  V30 2290 H 210.563 3.05417 -4.05811 0
M  V30 2291 H 210.493 4.40011 -2.89306 0
M  V30 2292 H 212.984 2.91784 -2.40147 0
M  V30 2293 H 213.297 5.55002 -5.37766 0
M  V30 2294 H 211.642 4.99612 -4.83128 0
M  V30 2295 H 214.833 3.56016 -3.03924 0
M  V30 2296 H 215.006 4.76061 -4.39624 0
M  V30 2297 N 208.412 0.89855 1.29475 0
M  V30 2298 C 209.64 0.539261 1.99749 0
M  V30 2299 C 210.055 -0.875716 1.67262 0
M  V30 2300 O 209.412 -1.57786 0.917049 0
M  V30 2301 C 209.463 0.72061 3.54245 0
M  V30 2302 O 209.184 2.07989 3.8558 0
M  V30 2303 C 210.685 0.366118 4.41786 0
M  V30 2304 H 207.905 0.207047 0.638258 0
M  V30 2305 H 210.449 1.20758 1.65039 0
M  V30 2306 H 208.604 0.0994862 3.87272 0
M  V30 2307 H 209.018 2.10841 4.80257 0
M  V30 2308 H 210.492 0.543848 5.49314 0
M  V30 2309 H 210.969 -0.696763 4.33638 0
M  V30 2310 H 211.575 0.964135 4.14228 0
M  V30 2311 N 209.89 -1.43072 0.660911 0
M  V30 2312 C 211.136 -2.0202 0.177708 0
M  V30 2313 C 211.469 -1.52066 -1.20787 0
M  V30 2314 O 210.744 -0.716987 -1.80802 0
M  V30 2315 C 211.027 -3.59561 0.197019 0
M  V30 2316 C 210.88 -4.19727 1.61706 0
M  V30 2317 C 212.199 -4.37664 -0.462396 0
M  V30 2318 H 209.318 -0.734034 0.0660494 0
M  V30 2319 H 211.96 -1.70272 0.843058 0
M  V30 2320 H 210.11 -3.86739 -0.369527 0
M  V30 2321 H 211.782 -4.03553 2.23479 0
M  V30 2322 H 210.025 -3.76084 2.16201 0
M  V30 2323 H 210.696 -5.28834 1.58237 0
M  V30 2324 H 213.172 -4.16095 0.0197215 0
M  V30 2325 H 212.048 -5.47305 -0.418188 0
M  V30 2326 H 212.309 -4.14493 -1.53778 0
M  V30 2327 N 211.368 -0.403325 -1.52352 0
M  V30 2328 C 212.608 0.173946 -2.03659 0
M  V30 2329 C 212.972 1.42869 -1.28267 0
M  V30 2330 O 214.173 2.08403 -1.69769 0
M  V30 2331 C 212.444 0.421478 -3.54906 0
M  V30 2332 S 214.003 0.967027 -4.28012 0
M  V30 2333 H 210.821 0.0477461 -0.709395 0
M  V30 2334 H 213.423 -0.554906 -1.87459 0
M  V30 2335 H 212.127 -0.498616 -4.0736 0
M  V30 2336 H 211.658 1.17837 -3.75337 0
M  V30 2337 H 213.673 2.24812 -4.4235 0
M  V30 2338 N 212.846 1.57033 -0.133567 0
M  V30 2339 C 213.776 2.1909 0.807567 0
M  V30 2340 C 214.757 1.13517 1.26681 0
M  V30 2341 O 215.942 1.41809 1.32679 0
M  V30 2342 C 213.072 2.80188 2.05212 0
M  V30 2343 C 212.026 3.91471 1.73015 0
M  V30 2344 C 211.352 4.39443 3.04622 0
M  V30 2345 C 212.652 5.12886 0.987168 0
M  V30 2346 H 214.346 2.97988 0.290403 0
M  V30 2347 H 211.892 1.43335 0.138239 0
M  V30 2348 H 213.845 3.22264 2.71521 0
M  V30 2349 H 212.569 1.98601 2.59278 0
M  V30 2350 H 211.228 3.49993 1.0909 0
M  V30 2351 H 210.876 3.54695 3.56651 0
M  V30 2352 H 210.576 5.14495 2.83847 0
M  V30 2353 H 212.1 4.8418 3.72024 0
M  V30 2354 H 213.514 5.51891 1.55208 0
M  V30 2355 H 211.911 5.93615 0.87985 0
M  V30 2356 H 212.981 4.84894 -0.0235286 0
M  V30 2357 N 214.325 -0.140222 1.56975 0
M  V30 2358 C 215.602 -0.880769 1.74648 0
M  V30 2359 C 215.982 -1.99036 0.703404 0
M  V30 2360 O 215.33 -2.26821 -0.27648 0
M  V30 2361 C 215.54 -1.417 3.18939 0
M  V30 2362 C 216.888 -1.87774 3.80823 0
M  V30 2363 O 217.912 -1.51427 3.2241 0
M  V30 2364 O 216.771 -2.54827 4.83452 0
M  V30 2365 H 213.865 -0.416713 0.714338 0
M  V30 2366 H 216.411 -0.125618 1.69234 0
M  V30 2367 H 215.183 -0.619902 3.86359 0
M  V30 2368 H 214.806 -2.23546 3.28805 0
M  V30 2369 N 215.803 -1.52179 -0.40978 0
M  V30 2370 C 217.033 -1.69807 -1.17682 0
M  V30 2371 C 217.441 -0.406908 -1.84773 0
M  V30 2372 O 216.784 0.626863 -1.72673 0
M  V30 2373 C 216.846 -2.77712 -2.2829 0
M  V30 2374 C 216.51 -4.19481 -1.81341 0
M  V30 2375 C 217.507 -5.03345 -1.30154 0
M  V30 2376 C 215.192 -4.65713 -1.88194 0
M  V30 2377 C 217.186 -6.31511 -0.864416 0
M  V30 2378 C 214.873 -5.93869 -1.44093 0
M  V30 2379 C 215.871 -6.76597 -0.933023 0
M  V30 2380 O 215.559 -8.02354 -0.49838 0
M  V30 2381 H 215.291 -0.572372 -0.359675 0
M  V30 2382 H 217.845 -1.99511 -0.488311 0
M  V30 2383 H 216.075 -2.43383 -3.00502 0
M  V30 2384 H 217.764 -2.83946 -2.90051 0
M  V30 2385 H 218.53 -4.68819 -1.24232 0
M  V30 2386 H 214.409 -4.01424 -2.26671 0
M  V30 2387 H 217.953 -6.96033 -0.467286 0
M  V30 2388 H 213.85 -6.27903 -1.49694 0
M  V30 2389 H 214.618 -8.16135 -0.621747 0
M  V30 2390 N 217.281 0.66697 -1.42791 0
M  V30 2391 C 218.191 1.80962 -1.49299 0
M  V30 2392 C 219.207 1.69775 -0.381108 0
M  V30 2393 O 220.383 1.91188 -0.633188 0
M  V30 2394 C 217.448 3.17156 -1.40045 0
M  V30 2395 C 216.509 3.40242 -2.6179 0
M  V30 2396 C 215.742 4.69939 -2.52969 0
M  V30 2397 O 215.965 5.48372 -1.56985 0
M  V30 2398 O 214.899 4.94441 -3.43237 0
M  V30 2399 H 218.725 1.78427 -2.45759 0
M  V30 2400 H 216.31 0.823713 -1.24641 0
M  V30 2401 H 218.192 3.98413 -1.37276 0
M  V30 2402 H 216.867 3.20312 -0.467138 0
M  V30 2403 H 215.774 2.58802 -2.70134 0
M  V30 2404 H 217.107 3.41923 -3.54047 0
M  V30 2405 N 218.759 1.29093 0.90403 0
M  V30 2406 C 220.175 1.07011 1.1841 0
M  V30 2407 C 220.375 -0.181358 2.00682 0
M  V30 2408 O 219.431 -0.880331 2.36657 0
M  V30 2409 C 220.744 2.32311 1.90924 0
M  V30 2410 C 222.292 2.37587 2.03768 0
M  V30 2411 C 222.767 3.62679 2.79693 0
M  V30 2412 N 224.258 3.63376 2.87249 0
M  V30 2413 C 224.993 4.56848 3.46522 0
M  V30 2414 N 224.489 5.60648 4.06996 0
M  V30 2415 N 226.282 4.44426 3.44154 0
M  V30 2416 H 218.433 2.09412 0.354993 0
M  V30 2417 H 220.696 0.922181 0.219742 0
M  V30 2418 H 220.402 3.23536 1.37905 0
M  V30 2419 H 220.276 2.39483 2.91424 0
M  V30 2420 H 222.663 1.46853 2.55965 0
M  V30 2421 H 222.744 2.34403 1.02415 0
M  V30 2422 H 222.388 4.53762 2.28173 0
M  V30 2423 H 222.318 3.63119 3.81381 0
M  V30 2424 H 224.809 2.88321 2.44293 0
M  V30 2425 H 225.122 6.28101 4.50232 0
M  V30 2426 H 223.467 5.64463 4.05471 0
M  V30 2427 H 226.658 3.62529 2.96126 0
M  V30 2428 H 226.831 5.17457 3.90054 0
M  V30 2429 N 220.237 -1.11381 1.11499 0
M  V30 2430 C 221.185 -2.19522 0.768956 0
M  V30 2431 C 222.179 -1.67693 -0.239857 0
M  V30 2432 O 223.385 -1.79727 -0.0990755 0
M  V30 2433 H 219.76 -0.715711 0.230786 0
M  V30 2434 H 221.731 -2.45954 1.68964 0
M  V30 2435 C 220.48 -3.46945 0.229073 0
M  V30 2436 H 219.803 -3.8718 0.996596 0
M  V30 2437 H 221.243 -4.23993 0.0251441 0
M  V30 2438 C 219.702 -3.2042 -1.04079 0
M  V30 2439 O 220.232 -3.41178 -2.12038 0
M  V30 2440 N 218.438 -2.74151 -0.963823 0
M  V30 2441 H 217.985 -2.57459 -0.0851722 0
M  V30 2442 H 217.943 -2.56781 -1.81414 0
M  V30 2443 N 221.715 -0.905404 -1.28997 0
M  V30 2444 C 222.662 -0.385892 -2.27551 0
M  V30 2445 C 223.632 0.535113 -1.57244 0
M  V30 2446 O 224.817 0.459119 -1.85194 0
M  V30 2447 C 221.957 0.375461 -3.43051 0
M  V30 2448 C 221.07 -0.577092 -4.28128 0
M  V30 2449 C 220.205 0.201879 -5.30816 0
M  V30 2450 C 219.244 -0.744829 -6.07551 0
M  V30 2451 N 218.381 9.42587e-05 -7.021 0
M  V30 2452 H 223.221 -1.23139 -2.71368 0
M  V30 2453 H 220.758 -0.618542 -1.33463 0
M  V30 2454 H 222.716 0.832992 -4.088 0
M  V30 2455 H 221.346 1.18537 -3.00248 0
M  V30 2456 H 220.398 -1.15315 -3.62501 0
M  V30 2457 H 221.71 -1.30152 -4.8152 0
M  V30 2458 H 220.864 0.720351 -6.02408 0
M  V30 2459 H 219.603 0.959413 -4.7817 0
M  V30 2460 H 218.608 -1.27475 -5.34818 0
M  V30 2461 H 219.833 -1.50178 -6.62286 0
M  V30 2462 H 217.779 0.739791 -6.51815 0
M  V30 2463 H 217.696 -0.664321 -7.53076 0
M  V30 2464 H 218.964 0.498644 -7.77903 0
M  V30 2465 N 223.193 1.4272 -0.668489 0
M  V30 2466 C 224.423 2.05668 -0.196063 0
M  V30 2467 C 224.831 1.5028 1.14946 0
M  V30 2468 O 224.174 0.6348 1.72383 0
M  V30 2469 C 224.236 3.59469 -0.0468879 0
M  V30 2470 C 223.9 4.37518 -1.32012 0
M  V30 2471 C 224.897 4.68584 -2.25222 0
M  V30 2472 C 222.582 4.77266 -1.56596 0
M  V30 2473 C 224.576 5.38326 -3.41297 0
M  V30 2474 C 222.263 5.4675 -2.72962 0
M  V30 2475 C 223.261 5.77204 -3.65137 0
M  V30 2476 O 222.949 6.45264 -4.79468 0
M  V30 2477 H 222.681 0.669382 -0.0943599 0
M  V30 2478 H 225.235 1.83954 -0.913788 0
M  V30 2479 H 223.465 3.79817 0.726357 0
M  V30 2480 H 225.154 4.04071 0.384852 0
M  V30 2481 H 225.92 4.38382 -2.07477 0
M  V30 2482 H 221.799 4.52959 -0.857249 0
M  V30 2483 H 225.343 5.62014 -4.13263 0
M  V30 2484 H 221.24 5.76369 -2.90635 0
M  V30 2485 H 222.008 6.63753 -4.78931 0
M  V30 2486 N 224.671 0.411399 1.52136 0
M  V30 2487 C 225.601 -0.404015 2.29978 0
M  V30 2488 C 226.582 -1.04412 1.34284 0
M  V30 2489 O 227.767 -1.0527 1.63192 0
M  V30 2490 C 224.897 -1.5197 3.12286 0
M  V30 2491 C 223.851 -1.00448 4.16046 0
M  V30 2492 C 223.177 -2.21393 4.86712 0
M  V30 2493 C 224.477 -0.0569336 5.22269 0
M  V30 2494 H 226.171 0.245529 2.98392 0
M  V30 2495 H 223.717 0.119525 1.43503 0
M  V30 2496 H 225.67 -2.09715 3.6551 0
M  V30 2497 H 224.394 -2.19716 2.41646 0
M  V30 2498 H 223.053 -0.449421 3.63835 0
M  V30 2499 H 222.701 -2.87699 4.12599 0
M  V30 2500 H 222.401 -1.87571 5.56858 0
M  V30 2501 H 223.925 -2.7974 5.4275 0
M  V30 2502 H 225.339 -0.54325 5.7072 0
M  V30 2503 H 223.736 0.192594 5.99791 0
M  V30 2504 H 224.806 0.887663 4.76706 0
M  V30 2505 N 226.149 -1.5696 0.141893 0
M  V30 2506 C 227.565 -1.58151 -0.21456 0
M  V30 2507 C 227.765 -1.1559 -1.65049 0
M  V30 2508 O 226.821 -0.853832 -2.37626 0
M  V30 2509 C 228.134 -3.00674 0.0395576 0
M  V30 2510 C 229.682 -3.1299 -0.0245529 0
M  V30 2511 C 230.157 -4.57554 0.202167 0
M  V30 2512 N 231.648 -4.62961 0.148919 0
M  V30 2513 C 232.383 -5.7262 0.298924 0
M  V30 2514 N 231.879 -6.90947 0.50637 0
M  V30 2515 N 233.672 -5.61601 0.236886 0
M  V30 2516 H 225.823 -1.8292 1.07953 0
M  V30 2517 H 228.086 -0.846425 0.42693 0
M  V30 2518 H 227.792 -3.36183 1.03315 0
M  V30 2519 H 227.666 -3.70981 -0.682143 0
M  V30 2520 H 230.053 -2.77326 -1.00869 0
M  V30 2521 H 230.134 -2.4518 0.729396 0
M  V30 2522 H 229.778 -4.93922 1.18338 0
M  V30 2523 H 229.708 -5.23484 -0.572044 0
M  V30 2524 H 232.199 -3.77899 -0.00697015 0
M  V30 2525 H 232.512 -7.7038 0.611076 0
M  V30 2526 H 230.857 -6.92878 0.542628 0
M  V30 2527 H 234.048 -4.68039 0.0756209 0
M  V30 2528 H 234.221 -6.47015 0.357227 0
M  V30 2529 N 227.627 0.131896 -1.57047 0
M  V30 2530 C 228.59 1.14638 -1.98471 0
M  V30 2531 C 229.59 1.35029 -0.873148 0
M  V30 2532 O 230.78 1.31764 -1.13946 0
M  V30 2533 C 227.912 2.50358 -2.31373 0
M  V30 2534 H 229.105 0.79064 -2.8929 0
M  V30 2535 H 226.658 0.375761 -1.51716 0
M  V30 2536 H 227.393 2.90876 -1.43393 0
M  V30 2537 H 227.178 2.36915 -3.12432 0
M  V30 2538 H 228.668 3.23395 -2.64207 0
M  V30 2539 N 229.106 1.52395 0.401703 0
M  V30 2540 C 230.355 1.66044 1.14509 0
M  V30 2541 C 230.668 0.400216 1.91462 0
M  V30 2542 O 231.874 0.416632 2.68284 0
M  V30 2543 C 230.33 2.93388 2.0845 0
M  V30 2544 C 229.938 4.26545 1.36978 0
M  V30 2545 C 231.682 3.16402 2.83001 0
M  V30 2546 C 229.589 5.45007 2.29611 0
M  V30 2547 H 228.519 0.618562 0.431158 0
M  V30 2548 H 231.17 1.78886 0.40892 0
M  V30 2549 H 229.552 2.74263 2.8565 0
M  V30 2550 H 230.726 4.56179 0.650916 0
M  V30 2551 H 229.041 4.09692 0.74438 0
M  V30 2552 H 231.638 4.02085 3.52465 0
M  V30 2553 H 231.981 2.30943 3.46368 0
M  V30 2554 H 232.514 3.36034 2.12898 0
M  V30 2555 H 229.253 6.32835 1.70879 0
M  V30 2556 H 228.773 5.19702 2.9945 0
M  V30 2557 H 230.452 5.7838 2.89974 0
M  V30 2558 N 230.584 -0.659388 1.43143 0
M  V30 2559 C 232 -0.974337 1.26407 0
M  V30 2560 C 232.2 -2.007 0.179341 0
M  V30 2561 O 231.256 -2.4856 -0.444295 0
M  V30 2562 C 232.569 -1.46447 2.62628 0
M  V30 2563 C 234.117 -1.58144 2.7011 0
M  V30 2564 C 234.592 -2.1055 4.06734 0
M  V30 2565 N 236.083 -2.17861 4.08767 0
M  V30 2566 C 236.818 -2.59519 5.1131 0
M  V30 2567 N 236.314 -3.00518 6.24228 0
M  V30 2568 N 238.107 -2.59404 4.98664 0
M  V30 2569 H 230.258 0.0240528 2.12386 0
M  V30 2570 H 232.521 -0.0518065 0.946583 0
M  V30 2571 H 232.227 -0.780123 3.42939 0
M  V30 2572 H 232.101 -2.44058 2.87603 0
M  V30 2573 H 234.488 -2.25682 1.90136 0
M  V30 2574 H 234.569 -0.589828 2.48907 0
M  V30 2575 H 234.213 -1.43616 4.87172 0
M  V30 2576 H 234.143 -3.10531 4.25298 0
M  V30 2577 H 236.634 -1.88975 3.27257 0
M  V30 2578 H 236.947 -3.31036 6.98309 0
M  V30 2579 H 235.292 -2.98337 6.2771 0
M  V30 2580 H 238.483 -2.26747 4.09516 0
M  V30 2581 H 238.656 -2.91548 5.78709 0
M  V30 2582 N 232.062 -1.29571 -0.897171 0
M  V30 2583 C 232.972 -1.16808 -2.03453 0
M  V30 2584 C 233.988 -0.0907471 -1.73763 0
M  V30 2585 O 235.164 -0.303312 -1.99103 0
M  V30 2586 C 232.229 -0.848264 -3.36163 0
M  V30 2587 C 231.29 -2.0097 -3.79354 0
M  V30 2588 C 230.523 -1.70505 -5.05731 0
M  V30 2589 O 230.746 -0.62718 -5.66941 0
M  V30 2590 O 229.68 -2.5538 -5.45036 0
M  V30 2591 H 233.506 -2.12325 -2.17144 0
M  V30 2592 H 231.091 -1.09047 -1.02123 0
M  V30 2593 H 232.973 -0.684581 -4.15802 0
M  V30 2594 H 231.648 0.0771071 -3.23608 0
M  V30 2595 H 230.555 -2.22863 -3.00471 0
M  V30 2596 H 231.888 -2.91636 -3.96496 0
M  V30 2597 N 233.54 1.10788 -1.12088 0
M  V30 2598 C 234.487 2.17025 -0.785407 0
M  V30 2599 C 235.457 1.64265 0.246191 0
M  V30 2600 O 236.642 1.90412 0.121584 0
M  V30 2601 C 233.782 3.44249 -0.242177 0
M  V30 2602 C 232.895 4.1098 -1.33115 0
M  V30 2603 C 232.03 5.25911 -0.747741 0
M  V30 2604 C 231.069 5.84538 -1.81609 0
M  V30 2605 N 230.206 6.90853 -1.25167 0
M  V30 2606 H 235.046 2.45066 -1.69548 0
M  V30 2607 H 232.583 1.20297 -0.846582 0
M  V30 2608 H 234.541 4.17101 0.0908026 0
M  V30 2609 H 233.171 3.16571 0.631072 0
M  V30 2610 H 232.223 3.36133 -1.78097 0
M  V30 2611 H 233.535 4.50601 -2.13917 0
M  V30 2612 H 232.689 6.056 -0.365216 0
M  V30 2613 H 231.428 4.87614 0.0915188 0
M  V30 2614 H 230.433 5.03522 -2.20785 0
M  V30 2615 H 231.658 6.249 -2.6585 0
M  V30 2616 H 229.604 6.54562 -0.434174 0
M  V30 2617 H 229.521 7.29166 -1.99633 0
M  V30 2618 H 230.789 7.7433 -0.896259 0
M  V30 2619 N 235.018 0.912232 1.28515 0
M  V30 2620 C 235.966 0.389597 2.29314 0
M  V30 2621 C 236.96 -0.517915 1.61289 0
M  V30 2622 O 238.166 -0.399328 1.75515 0
M  V30 2623 H 234.541 0.107386 0.744293 0
M  V30 2624 H 236.512 1.25286 2.70825 0
M  V30 2625 C 235.261 -0.356496 3.45868 0
M  V30 2626 H 234.584 0.332608 3.98414 0
M  V30 2627 H 236.024 -0.686851 4.184 0
M  V30 2628 C 234.483 -1.56383 2.98406 0
M  V30 2629 O 235.013 -2.66294 3.00749 0
M  V30 2630 N 233.219 -1.41029 2.54085 0
M  V30 2631 H 232.766 -0.516089 2.52377 0
M  V30 2632 H 232.724 -2.21939 2.22689 0
M  V30 2633 N 236.496 -1.42363 0.676048 0
M  V30 2634 C 237.724 -2.05859 0.207268 0
M  V30 2635 C 238.139 -1.50796 -1.13605 0
M  V30 2636 O 237.496 -0.648265 -1.70598 0
M  V30 2637 C 237.547 -3.61248 0.134975 0
M  V30 2638 O 237.268 -4.1427 1.42521 0
M  V30 2639 C 238.769 -4.41859 -0.357151 0
M  V30 2640 H 235.989 -0.663431 0.100503 0
M  V30 2641 H 238.533 -1.82479 0.923136 0
M  V30 2642 H 236.688 -3.83735 -0.531588 0
M  V30 2643 H 237.102 -5.0815 1.29939 0
M  V30 2644 H 238.576 -5.50847 -0.356641 0
M  V30 2645 H 239.053 -4.16536 -1.39264 0
M  V30 2646 H 239.659 -4.24392 0.27772 0
M  V30 2647 N 237.974 -0.419461 -1.51915 0
M  V30 2648 C 239.251 0.211999 -1.94448 0
M  V30 2649 C 239.631 1.61703 -1.35703 0
M  V30 2650 O 238.979 2.22102 -0.536931 0
M  V30 2651 C 239.189 0.207872 -3.4838 0
M  V30 2652 C 240.537 0.422192 -4.22496 0
M  V30 2653 O 241.561 0.286778 -3.55044 0
M  V30 2654 O 240.42 0.690009 -5.42126 0
M  V30 2655 H 237.514 0.139586 -0.815135 0
M  V30 2656 H 240.06 -0.476151 -1.62883 0
M  V30 2657 H 238.832 -0.775102 -3.83546 0
M  V30 2658 H 238.455 0.939688 -3.86336 0
M  V30 2659 N 239.452 1.56882 -0.150215 0
M  V30 2660 C 240.385 2.12712 0.826358 0
M  V30 2661 C 241.363 1.05154 1.24022 0
M  V30 2662 O 242.547 1.33004 1.33575 0
M  V30 2663 C 239.674 2.64945 2.11002 0
M  V30 2664 C 238.72 3.8468 1.84183 0
M  V30 2665 S 239.553 5.25502 1.02995 0
M  V30 2666 C 240.709 5.81125 2.32474 0
M  V30 2667 H 240.942 2.95214 0.351598 0
M  V30 2668 H 238.475 1.54267 0.0641211 0
M  V30 2669 H 240.433 2.95689 2.84742 0
M  V30 2670 H 239.094 1.82568 2.55593 0
M  V30 2671 H 238.287 4.19482 2.79375 0
M  V30 2672 H 237.889 3.54714 1.1855 0
M  V30 2673 H 240.181 5.92753 3.281 0
M  V30 2674 H 241.124 6.78625 2.02171 0
M  V30 2675 H 241.532 5.09392 2.43269 0
M  V30 2676 N 240.93 -0.123565 1.57115 0
M  V30 2677 C 241.877 -1.15177 2.00007 0
M  V30 2678 C 242.847 -1.41403 0.871454 0
M  V30 2679 O 244.032 -1.53346 1.13533 0
M  V30 2680 C 241.172 -2.47436 2.40561 0
M  V30 2681 C 240.285 -2.28184 3.66819 0
M  V30 2682 C 239.42 -3.53641 3.96373 0
M  V30 2683 C 238.459 -3.29528 5.15827 0
M  V30 2684 N 237.596 -4.47175 5.41275 0
M  V30 2685 H 242.436 -0.779008 2.87638 0
M  V30 2686 H 239.973 -0.373166 1.42288 0
M  V30 2687 H 241.931 -3.24584 2.62109 0
M  V30 2688 H 240.561 -2.82614 1.55978 0
M  V30 2689 H 239.613 -1.41976 3.52912 0
M  V30 2690 H 240.925 -2.0634 4.5412 0
M  V30 2691 H 240.079 -4.39209 4.18545 0
M  V30 2692 H 238.818 -3.78512 3.07538 0
M  V30 2693 H 237.823 -2.42349 4.93505 0
M  V30 2694 H 239.048 -3.06031 6.06236 0
M  V30 2695 H 236.994 -4.72175 4.55397 0
M  V30 2696 H 236.911 -4.28419 6.22891 0
M  V30 2697 H 238.179 -5.3389 5.67963 0
M  V30 2698 N 242.408 -1.52605 -0.393616 0
M  V30 2699 C 243.371 -1.76415 -1.46323 0
M  V30 2700 C 244.371 -0.634126 -1.47768 0
M  V30 2701 O 245.561 -0.902142 -1.4902 0
M  V30 2702 C 242.693 -1.8607 -2.85641 0
M  V30 2703 H 243.886 -2.71916 -1.26498 0
M  V30 2704 H 241.439 -1.43257 -0.625073 0
M  V30 2705 H 242.174 -0.925378 -3.10817 0
M  V30 2706 H 241.959 -2.68235 -2.85993 0
M  V30 2707 H 243.449 -2.06179 -3.63153 0
M  V30 2708 N 243.887 0.651787 -1.4349 0
M  V30 2709 C 244.817 1.77621 -1.51569 0
M  V30 2710 C 245.798 1.66022 -0.370253 0
M  V30 2711 O 246.983 1.85095 -0.587658 0
M  V30 2712 C 244.113 3.16056 -1.43966 0
M  V30 2713 C 243.067 3.4242 -2.56774 0
M  V30 2714 C 242.393 4.8067 -2.34223 0
M  V30 2715 C 243.693 3.37023 -3.99015 0
M  V30 2716 H 245.387 1.71117 -2.45681 0
M  V30 2717 H 242.933 0.821825 -1.18246 0
M  V30 2718 H 244.886 3.94472 -1.48221 0
M  V30 2719 H 243.61 3.23293 -0.463586 0
M  V30 2720 H 242.269 2.66375 -2.51873 0
M  V30 2721 H 241.917 4.84585 -1.34856 0
M  V30 2722 H 241.617 4.9927 -3.09844 0
M  V30 2723 H 243.141 5.61342 -2.40265 0
M  V30 2724 H 244.555 4.05374 -4.05395 0
M  V30 2725 H 242.952 3.67159 -4.74673 0
M  V30 2726 H 244.022 2.3518 -4.2405 0
M  V30 2727 N 245.365 1.30045 0.890287 0
M  V30 2728 C 246.312 1.15976 1.99545 0
M  V30 2729 C 247.282 0.0506202 1.66023 0
M  V30 2730 O 248.467 0.219847 1.89529 0
M  V30 2731 C 245.607 0.852054 3.34416 0
M  V30 2732 C 244.72 2.04255 3.80662 0
M  V30 2733 C 243.855 1.6734 5.04154 0
M  V30 2734 C 242.894 2.82916 5.42794 0
M  V30 2735 N 242.031 2.46333 6.57468 0
M  V30 2736 H 246.871 2.10524 2.10911 0
M  V30 2737 H 244.408 1.04749 1.03276 0
M  V30 2738 H 246.366 0.654296 4.12037 0
M  V30 2739 H 244.996 -0.0565502 3.2275 0
M  V30 2740 H 244.048 2.35172 2.98995 0
M  V30 2741 H 245.36 2.90826 4.05242 0
M  V30 2742 H 244.514 1.43908 5.89386 0
M  V30 2743 H 243.253 0.779308 4.81433 0
M  V30 2744 H 242.258 3.0702 4.56091 0
M  V30 2745 H 243.483 3.73004 5.6749 0
M  V30 2746 H 241.429 1.59423 6.36334 0
M  V30 2747 H 241.346 3.26436 6.81891 0
M  V30 2748 H 242.614 2.26244 7.45945 0
M  V30 2749 N 246.843 -1.10192 1.12674 0
M  V30 2750 C 247.79 -2.16606 0.796906 0
M  V30 2751 C 248.76 -1.64394 -0.237476 0
M  V30 2752 O 249.945 -1.90474 -0.111484 0
M  V30 2753 C 247.085 -3.44116 0.26043 0
M  V30 2754 C 246.198 -4.10268 1.35293 0
M  V30 2755 C 245.333 -5.25507 0.775621 0
M  V30 2756 C 244.372 -5.83567 1.84706 0
M  V30 2757 N 243.509 -6.90179 1.28829 0
M  V30 2758 H 248.349 -2.44163 1.70846 0
M  V30 2759 H 245.886 -1.19846 0.85295 0
M  V30 2760 H 247.844 -4.17143 -0.0686814 0
M  V30 2761 H 246.474 -3.16901 -0.614274 0
M  V30 2762 H 245.526 -3.35184 1.79877 0
M  V30 2763 H 246.838 -4.4946 2.16303 0
M  V30 2764 H 245.992 -6.05398 0.397327 0
M  V30 2765 H 244.731 -4.87656 -0.0656581 0
M  V30 2766 H 243.736 -5.02344 2.23452 0
M  V30 2767 H 244.961 -6.23482 2.69161 0
M  V30 2768 H 242.907 -6.54322 0.468881 0
M  V30 2769 H 242.824 -7.28097 2.03497 0
M  V30 2770 H 244.092 -7.73844 0.937311 0
M  V30 2771 N 248.321 -0.919034 -1.28029 0
M  V30 2772 C 249.598 -0.473668 -1.89778 0
M  V30 2773 C 249.978 1.04783 -1.83259 0
M  V30 2774 O 249.326 1.8982 -1.27202 0
M  V30 2775 C 249.536 -1.00998 -3.34066 0
M  V30 2776 C 250.884 -1.06525 -4.1102 0
M  V30 2777 O 251.908 -0.958996 -3.43048 0
M  V30 2778 O 250.767 -1.22776 -5.3253 0
M  V30 2779 H 247.861 -0.15098 -0.813101 0
M  V30 2780 H 250.407 -1.01016 -1.36359 0
M  V30 2781 H 249.179 -2.05392 -3.33061 0
M  V30 2782 H 248.802 -0.454626 -3.94992 0
M  V30 2783 N 249.799 1.42003 -0.683588 0
M  V30 2784 C 250.746 2.30798 -0.0107309 0
M  V30 2785 C 251.716 1.4645 0.783688 0
M  V30 2786 O 252.901 1.75263 0.754156 0
M  V30 2787 C 250.041 3.3238 0.928306 0
M  V30 2788 C 249.154 4.31814 0.126776 0
M  V30 2789 C 248.289 5.20468 1.06236 0
M  V30 2790 C 247.328 6.11577 0.253035 0
M  V30 2791 N 246.465 6.92754 1.14179 0
M  V30 2792 H 251.305 2.8778 -0.773727 0
M  V30 2793 H 248.842 1.41745 -0.393283 0
M  V30 2794 H 250.8 3.89813 1.48666 0
M  V30 2795 H 249.43 2.76976 1.65783 0
M  V30 2796 H 248.482 3.76427 -0.54833 0
M  V30 2797 H 249.794 4.96276 -0.501192 0
M  V30 2798 H 248.948 5.82677 1.69035 0
M  V30 2799 H 247.687 4.56204 1.7242 0
M  V30 2800 H 246.692 5.48428 -0.388108 0
M  V30 2801 H 247.917 6.77892 -0.404839 0
M  V30 2802 H 245.863 6.3111 1.78987 0
M  V30 2803 H 245.78 7.53855 0.569111 0
M  V30 2804 H 247.048 7.59441 1.75697 0
M  V30 2805 N 251.277 0.427512 1.51691 0
M  V30 2806 C 252.526 -0.143679 2.01188 0
M  V30 2807 C 252.839 -1.44642 1.31674 0
M  V30 2808 O 254.045 -2.09997 1.72086 0
M  V30 2809 C 252.501 -0.306602 3.58592 0
M  V30 2810 C 252.109 0.985125 4.37035 0
M  V30 2811 C 253.853 -0.832091 4.16265 0
M  V30 2812 C 251.76 0.788382 5.86122 0
M  V30 2813 H 250.69 -0.0574701 0.751807 0
M  V30 2814 H 253.341 0.555772 1.74881 0
M  V30 2815 H 251.723 -1.06882 3.81303 0
M  V30 2816 H 252.897 1.75492 4.26074 0
M  V30 2817 H 251.212 1.4384 3.90767 0
M  V30 2818 H 253.809 -0.995617 5.25349 0
M  V30 2819 H 254.152 -1.81186 3.74803 0
M  V30 2820 H 254.685 -0.128444 3.97593 0
M  V30 2821 H 251.424 1.74025 6.31978 0
M  V30 2822 H 250.944 0.0582143 5.99772 0
M  V30 2823 H 252.623 0.437722 6.45518 0
M  V30 2824 N 252.755 -1.56801 0.158532 0
M  V30 2825 C 254.166 -1.83189 -0.360366 0
M  V30 2826 C 254.517 -1.07778 -1.63946 0
M  V30 2827 O 253.642 -0.326718 -2.13919 0
M  V30 2828 C 254.237 -3.32297 -0.660595 0
M  V30 2829 C 252.796 -3.59227 -1.12398 0
M  V30 2830 C 251.943 -2.76877 -0.153097 0
M  V30 2831 H 254.894 -1.54008 0.383031 0
M  V30 2832 H 254.915 -3.4908 -1.51405 0
M  V30 2833 H 254.427 -3.87156 0.270527 0
M  V30 2834 H 252.528 -3.09766 -2.07064 0
M  V30 2835 H 252.641 -4.67632 -1.04197 0
M  V30 2836 H 251.005 -2.46319 -0.647983 0
M  V30 2837 H 251.788 -3.34511 0.77182 0
M  V30 2838 N 254.233 0.115231 -1.57178 0
M  V30 2839 C 255.482 0.820945 -1.84237 0
M  V30 2840 C 255.795 1.80866 -0.744761 0
M  V30 2841 O 257.001 2.56083 -0.901871 0
M  V30 2842 C 255.457 1.51072 -3.26658 0
M  V30 2843 C 255.065 0.563795 -4.44438 0
M  V30 2844 C 256.809 2.20134 -3.62962 0
M  V30 2845 C 254.716 1.25701 -5.77887 0
M  V30 2846 H 253.646 0.310328 -0.687177 0
M  V30 2847 H 256.297 0.0737134 -1.83352 0
M  V30 2848 H 254.679 2.30471 -3.22024 0
M  V30 2849 H 255.853 -0.197247 -4.60378 0
M  V30 2850 H 254.168 -0.0200638 -4.16395 0
M  V30 2851 H 256.765 2.72696 -4.59936 0
M  V30 2852 H 257.108 2.98107 -2.90582 0
M  V30 2853 H 257.641 1.47619 -3.69396 0
M  V30 2854 H 254.38 0.518493 -6.53446 0
M  V30 2855 H 253.9 1.98997 -5.65827 0
M  V30 2856 H 255.579 1.78915 -6.2177 0
M  V30 2857 N 255.711 1.52812 0.385517 0
M  V30 2858 C 256.941 1.71658 1.14966 0
M  V30 2859 C 257.349 0.436253 1.84102 0
M  V30 2860 O 256.692 -0.599313 1.73649 0
M  V30 2861 C 256.754 2.81309 2.23843 0
M  V30 2862 C 256.418 4.22313 1.74644 0
M  V30 2863 C 257.415 5.05352 1.22129 0
M  V30 2864 C 255.1 4.68648 1.80761 0
M  V30 2865 C 257.094 6.32807 0.763838 0
M  V30 2866 C 254.781 5.96086 1.34627 0
M  V30 2867 C 255.779 6.77996 0.825264 0
M  V30 2868 O 255.467 8.03045 0.370669 0
M  V30 2869 H 255.199 0.578022 0.350523 0
M  V30 2870 H 257.753 2.00263 0.456509 0
M  V30 2871 H 255.983 2.48133 2.96592 0
M  V30 2872 H 257.672 2.88524 2.85497 0
M  V30 2873 H 258.438 4.70736 1.16758 0
M  V30 2874 H 254.317 4.04979 2.20256 0
M  V30 2875 H 257.861 6.96689 0.356494 0
M  V30 2876 H 253.758 6.30205 1.39686 0
M  V30 2877 H 254.526 8.17021 0.491829 0
M  V30 2878 N 257.189 -0.644168 1.43834 0
M  V30 2879 C 258.438 -1.39985 1.45214 0
M  V30 2880 C 258.751 -1.95421 0.0835494 0
M  V30 2881 O 259.957 -2.71488 -0.0251748 0
M  V30 2882 C 258.413 -2.53384 2.55587 0
M  V30 2883 C 258.021 -2.04517 3.98594 0
M  V30 2884 C 259.765 -3.30685 2.66172 0
M  V30 2885 C 257.672 -3.1518 5.00416 0
M  V30 2886 H 256.602 -0.526005 0.540218 0
M  V30 2887 H 259.253 -0.694367 1.69855 0
M  V30 2888 H 257.635 -3.26446 2.24163 0
M  V30 2889 H 258.809 -1.38405 4.39523 0
M  V30 2890 H 257.124 -1.40068 3.92135 0
M  V30 2891 H 259.721 -4.13158 3.39418 0
M  V30 2892 H 260.064 -3.79312 1.71546 0
M  V30 2893 H 260.597 -2.64708 2.96942 0
M  V30 2894 H 257.336 -2.71511 5.96625 0
M  V30 2895 H 256.856 -3.79974 4.64091 0
M  V30 2896 H 258.535 -3.80166 5.23529 0
M  V30 2897 N 258.668 -1.30515 -0.883378 0
M  V30 2898 C 259.601 -1.11359 -1.99184 0
M  V30 2899 C 260.579 -0.0207858 -1.62587 0
M  V30 2900 O 261.763 -0.174646 -1.87689 0
M  V30 2901 C 258.89 -0.69871 -3.31415 0
M  V30 2902 C 257.936 -1.79261 -3.86998 0
M  V30 2903 S 258.769 -3.39536 -4.14096 0
M  V30 2904 C 259.925 -2.99954 -5.49344 0
M  V30 2905 H 260.158 -2.052 -2.15128 0
M  V30 2906 H 257.691 -1.14847 -1.03196 0
M  V30 2907 H 259.649 -0.466075 -4.07846 0
M  V30 2908 H 258.31 0.220368 -3.13326 0
M  V30 2909 H 257.503 -1.45464 -4.82552 0
M  V30 2910 H 257.105 -1.97961 -3.17313 0
M  V30 2911 H 259.397 -2.48013 -6.30473 0
M  V30 2912 H 260.34 -3.9442 -5.8808 0
M  V30 2913 H 260.748 -2.37775 -5.1198 0
M  V30 2914 N 260.146 1.09593 -1.13257 0
M  V30 2915 C 261.394 1.81375 -0.891492 0
M  V30 2916 C 261.715 1.86049 0.584009 0
M  V30 2917 O 260.985 1.34481 1.42449 0
M  V30 2918 H 259.565 0.671708 -0.326828 0
M  V30 2919 H 262.227 1.3256 -1.42877 0
M  V30 2920 H 261.323 2.84612 -1.28071 0
M  V30 2921 N 261.624 0.925811 1.2754 0
M  V30 2922 C 262.554 0.440748 2.29303 0
M  V30 2923 C 263.535 -0.497971 1.62648 0
M  V30 2924 O 264.72 -0.403126 1.8997 0
M  V30 2925 C 261.85 -0.309048 3.45922 0
M  V30 2926 C 260.804 0.54166 4.24559 0
M  V30 2927 C 260.13 -0.337191 5.33636 0
M  V30 2928 C 261.43 1.80516 4.90114 0
M  V30 2929 H 263.124 1.29121 2.70126 0
M  V30 2930 H 260.67 0.622323 1.29858 0
M  V30 2931 H 262.623 -0.659315 4.1621 0
M  V30 2932 H 261.347 -1.19352 3.04011 0
M  V30 2933 H 260.006 0.874609 3.56014 0
M  V30 2934 H 259.654 -1.22056 4.87966 0
M  V30 2935 H 259.354 0.228497 5.87156 0
M  V30 2936 H 260.878 -0.683072 6.06767 0
M  V30 2937 H 262.292 1.52307 5.52698 0
M  V30 2938 H 260.689 2.3142 5.53683 0
M  V30 2939 H 261.759 2.52581 4.13921 0
M  V30 2940 N 263.102 -1.41638 0.69111 0
M  V30 2941 C 264.327 -2.06148 0.227583 0
M  V30 2942 C 264.752 -1.51652 -1.11281 0
M  V30 2943 O 264.11 -0.64164 -1.69566 0
M  V30 2944 C 264.158 -3.60095 0.190858 0
M  V30 2945 O 263.262 -4.03845 -0.835664 0
M  V30 2946 H 262.603 -0.654434 0.112306 0
M  V30 2947 H 265.133 -1.81484 0.944714 0
M  V30 2948 H 265.143 -4.07995 0.020207 0
M  V30 2949 H 263.818 -3.99129 1.16915 0
M  V30 2950 H 262.395 -3.67458 -0.63473 0
M  V30 2951 N 264.58 -0.43555 -1.51462 0
M  V30 2952 C 265.513 0.421989 -2.24264 0
M  V30 2953 C 266.491 1.02619 -1.26127 0
M  V30 2954 O 267.675 1.069 -1.55257 0
M  V30 2955 C 264.802 1.588 -2.99166 0
M  V30 2956 C 263.848 1.10465 -4.11946 0
M  V30 2957 S 264.681 0.048146 -5.35478 0
M  V30 2958 C 265.837 1.21887 -6.13917 0
M  V30 2959 H 266.07 -0.196102 -2.96653 0
M  V30 2960 H 263.603 -0.220054 -1.52824 0
M  V30 2961 H 265.561 2.25647 -3.42919 0
M  V30 2962 H 264.222 2.1775 -2.26371 0
M  V30 2963 H 263.415 1.97654 -4.63626 0
M  V30 2964 H 263.017 0.51445 -3.70445 0
M  V30 2965 H 265.309 2.13756 -6.42895 0
M  V30 2966 H 266.252 0.742076 -7.04201 0
M  V30 2967 H 266.66 1.45663 -5.45383 0
M  V30 2968 N 266.058 1.56714 -0.166846 0
M  V30 2969 C 267.306 1.96358 0.478305 0
M  V30 2970 C 267.627 1.0537 1.6408 0
M  V30 2971 O 266.897 0.119154 1.95537 0
M  V30 2972 H 265.477 0.725065 0.179692 0
M  V30 2973 H 268.139 1.93329 -0.246985 0
M  V30 2974 H 267.235 3.00547 0.841292 0
M  V30 2975 N 267.536 -0.106894 1.57237 0
M  V30 2976 C 268.784 -0.810921 1.85117 0
M  V30 2977 C 269.105 -1.7984 0.753827 0
M  V30 2978 O 268.375 -1.94649 -0.221056 0
M  V30 2979 H 266.955 -0.302466 0.683025 0
M  V30 2980 H 269.617 -0.0913324 1.94686 0
M  V30 2981 H 268.713 -1.34875 2.81452 0
M  V30 2982 N 269.014 -1.53014 -0.377408 0
M  V30 2983 C 269.962 -1.7927 -1.48206 0
M  V30 2984 C 270.956 -0.661195 -1.55963 0
M  V30 2985 O 272.162 -0.843908 -1.58991 0
M  V30 2986 H 268.537 -0.567425 -0.493491 0
M  V30 2987 H 270.508 -2.71753 -1.2326 0
M  V30 2988 C 269.257 -1.98894 -2.85196 0
M  V30 2989 H 268.58 -2.85395 -2.79981 0
M  V30 2990 H 270.02 -2.21249 -3.61698 0
M  V30 2991 C 268.479 -0.764691 -3.28107 0
M  V30 2992 O 269.009 0.0523226 -4.01666 0
M  V30 2993 N 267.215 -0.591493 -2.84517 0
M  V30 2994 H 266.762 -1.25749 -2.24822 0
M  V30 2995 H 266.72 0.226253 -3.13585 0
M  V30 2996 N 270.492 0.636531 -1.44174 0
M  V30 2997 C 271.738 1.39826 -1.4689 0
M  V30 2998 C 272.071 1.93947 -0.0990585 0
M  V30 2999 O 271.346 1.73325 0.882544 0
M  V30 3000 C 271.629 2.56751 -2.5249 0
M  V30 3001 C 271.482 2.08014 -3.98811 0
M  V30 3002 C 272.801 3.58946 -2.54649 0
M  V30 3003 H 269.92 0.507075 -0.53483 0
M  V30 3004 H 272.562 0.720188 -1.75822 0
M  V30 3005 H 270.712 3.14597 -2.2795 0
M  V30 3006 H 272.384 1.5504 -4.34466 0
M  V30 3007 H 270.627 1.39242 -4.10846 0
M  V30 3008 H 271.298 2.92169 -4.68339 0
M  V30 3009 H 273.774 3.1089 -2.76563 0
M  V30 3010 H 272.65 4.38286 -3.3045 0
M  V30 3011 H 272.911 4.12655 -1.58646 0
M  V30 3012 N 271.97 1.30982 0.876444 0
M  V30 3013 C 273.216 1.20474 1.63138 0
M  V30 3014 C 273.549 -0.238096 1.92735 0
M  V30 3015 O 272.824 -1.1692 1.55435 0
M  V30 3016 C 273.107 2.04244 2.96574 0
M  V30 3017 C 272.96 3.56793 2.73896 0
M  V30 3018 C 274.279 1.88684 3.97601 0
M  V30 3019 H 271.398 0.439001 0.591985 0
M  V30 3020 H 274.04 1.60704 1.01361 0
M  V30 3021 H 272.19 1.70063 3.493 0
M  V30 3022 H 273.862 4.01077 2.27892 0
M  V30 3023 H 272.105 3.80548 2.08245 0
M  V30 3024 H 272.776 4.10706 3.68815 0
M  V30 3025 H 275.252 2.18584 3.54062 0
M  V30 3026 H 274.128 2.4961 4.88862 0
M  V30 3027 H 274.389 0.848343 4.33884 0
M  V30 3028 N 273.449 -1.08991 1.13837 0
M  V30 3029 C 274.379 -2.17771 0.842507 0
M  V30 3030 C 275.36 -1.6892 -0.20001 0
M  V30 3031 O 276.545 -1.94113 -0.0579731 0
M  V30 3032 C 273.675 -3.4589 0.312644 0
M  V30 3033 C 272.629 -4.08099 1.28992 0
M  V30 3034 C 271.955 -5.31098 0.619623 0
M  V30 3035 C 273.255 -4.50077 2.65005 0
M  V30 3036 H 274.949 -2.42777 1.75213 0
M  V30 3037 H 272.495 -1.16682 0.843875 0
M  V30 3038 H 274.448 -4.21297 0.0933043 0
M  V30 3039 H 273.172 -3.20419 -0.632382 0
M  V30 3040 H 271.831 -3.34717 1.49533 0
M  V30 3041 H 271.479 -5.0191 -0.33102 0
M  V30 3042 H 271.179 -5.73674 1.27167 0
M  V30 3043 H 272.703 -6.09224 0.409669 0
M  V30 3044 H 274.117 -5.16688 2.48407 0
M  V30 3045 H 272.514 -5.03553 3.26427 0
M  V30 3046 H 273.584 -3.62257 3.22332 0
M  V30 3047 N 274.927 -0.932562 -1.27047 0
M  V30 3048 C 276.343 -0.633544 -1.46487 0
M  V30 3049 C 276.543 0.815746 -1.84249 0
M  V30 3050 O 275.599 1.59319 -1.95892 0
M  V30 3051 C 276.912 -1.58758 -2.55375 0
M  V30 3052 C 278.46 -1.59634 -2.69232 0
M  V30 3053 C 278.935 -2.53747 -3.81283 0
M  V30 3054 N 280.426 -2.51982 -3.88664 0
M  V30 3055 C 281.161 -3.21491 -4.74796 0
M  V30 3056 N 280.657 -4.00395 -5.65381 0
M  V30 3057 N 282.45 -3.10485 -4.68568 0
M  V30 3058 H 274.601 -1.86946 -1.00821 0
M  V30 3059 H 276.864 -0.802897 -0.504044 0
M  V30 3060 H 276.57 -2.62172 -2.34432 0
M  V30 3061 H 276.444 -1.33301 -3.52861 0
M  V30 3062 H 278.831 -0.569488 -2.89553 0
M  V30 3063 H 278.912 -1.89142 -1.72218 0
M  V30 3064 H 278.556 -3.56545 -3.61715 0
M  V30 3065 H 278.486 -2.21532 -4.77735 0
M  V30 3066 H 280.977 -1.94681 -3.23895 0
M  V30 3067 H 281.29 -4.50406 -6.27976 0
M  V30 3068 H 279.635 -4.04498 -5.65161 0
M  V30 3069 H 282.826 -2.48331 -3.96799 0
M  V30 3070 H 282.999 -3.64925 -5.35475 0
M  V30 3071 N 276.405 1.4127 -0.698611 0
M  V30 3072 C 277.633 2.05503 -0.239992 0
M  V30 3073 C 278.048 1.52584 1.11191 0
M  V30 3074 O 277.405 0.675323 1.69545 0
M  V30 3075 C 277.456 3.60987 -0.192429 0
M  V30 3076 O 277.177 4.1195 -1.49094 0
M  V30 3077 C 278.678 4.42371 0.28681 0
M  V30 3078 H 275.898 0.661748 -0.111045 0
M  V30 3079 H 278.442 1.80987 -0.95205 0
M  V30 3080 H 276.597 3.84533 0.470472 0
M  V30 3081 H 277.011 5.06018 -1.38007 0
M  V30 3082 H 278.485 5.51344 0.26896 0
M  V30 3083 H 278.962 4.18699 1.32619 0
M  V30 3084 H 279.568 4.23897 -0.345201 0
M  V30 3085 N 277.883 0.443576 1.51229 0
M  V30 3086 C 278.813 -0.355142 2.30783 0
M  V30 3087 C 279.794 -1.0154 1.36468 0
M  V30 3088 O 280.979 -1.01785 1.65389 0
M  V30 3089 C 278.109 -1.45312 3.15439 0
M  V30 3090 C 277.063 -0.916002 4.18083 0
M  V30 3091 C 276.389 -2.1102 4.91299 0
M  V30 3092 C 277.689 0.0538602 5.22272 0
M  V30 3093 H 279.383 0.308767 2.97804 0
M  V30 3094 H 276.929 0.149937 1.43217 0
M  V30 3095 H 278.882 -2.01914 3.69876 0
M  V30 3096 H 277.606 -2.14541 2.46252 0
M  V30 3097 H 276.265 -0.372145 3.64706 0
M  V30 3098 H 275.913 -2.78882 4.18609 0
M  V30 3099 H 275.613 -1.75717 5.60712 0
M  V30 3100 H 277.137 -2.68164 5.48562 0
M  V30 3101 H 278.551 -0.422069 5.71744 0
M  V30 3102 H 276.948 0.319776 5.99247 0
M  V30 3103 H 278.018 0.98858 4.74716 0
M  V30 3104 N 279.361 -1.56624 0.175154 0
M  V30 3105 C 280.271 -2.21741 -0.766042 0
M  V30 3106 C 281.287 -1.21023 -1.25018 0
M  V30 3107 O 282.463 -1.53697 -1.3015 0
M  V30 3108 C 279.528 -2.84839 -1.97655 0
M  V30 3109 C 278.589 -4.00769 -1.53892 0
M  V30 3110 C 277.822 -4.60849 -2.69173 0
M  V30 3111 O 278.045 -4.19823 -3.86141 0
M  V30 3112 O 276.979 -5.50655 -2.43028 0
M  V30 3113 H 280.805 -3.02738 -0.241585 0
M  V30 3114 H 278.39 -1.49305 -0.053222 0
M  V30 3115 H 280.272 -3.24834 -2.68442 0
M  V30 3116 H 278.947 -2.06836 -2.48999 0
M  V30 3117 H 277.854 -3.65436 -0.80044 0
M  V30 3118 H 279.187 -4.80376 -1.07236 0
M  V30 3119 N 280.839 0.0985539 -1.57292 0
M  V30 3120 C 281.769 1.12064 -2.04851 0
M  V30 3121 C 282.75 1.41981 -0.936767 0
M  V30 3122 O 283.935 1.52071 -1.20781 0
M  V30 3123 C 281.065 2.44144 -2.47004 0
M  V30 3124 C 280.019 2.28643 -3.6181 0
M  V30 3125 C 279.345 3.65869 -3.89929 0
M  V30 3126 C 280.645 1.72986 -4.92822 0
M  V30 3127 H 282.339 0.724979 -2.9049 0
M  V30 3128 H 279.885 0.34729 -1.39749 0
M  V30 3129 H 281.838 3.15914 -2.78884 0
M  V30 3130 H 280.562 2.85639 -1.5836 0
M  V30 3131 H 279.221 1.59318 -3.30172 0
M  V30 3132 H 278.869 4.04885 -2.98458 0
M  V30 3133 H 278.569 3.56344 -4.67218 0
M  V30 3134 H 280.093 4.39112 -4.2428 0
M  V30 3135 H 281.507 2.34593 -5.23105 0
M  V30 3136 H 279.904 1.74229 -5.74251 0
M  V30 3137 H 280.974 0.689007 -4.7998 0
M  V30 3138 N 282.317 1.53212 0.369288 0
M  V30 3139 C 283.247 1.82365 1.45826 0
M  V30 3140 C 284.228 0.676907 1.56051 0
M  V30 3141 O 285.413 0.926401 1.70679 0
M  V30 3142 C 282.543 2.01023 2.83208 0
M  V30 3143 C 281.497 3.1678 2.8781 0
M  V30 3144 C 280.823 3.20724 4.27832 0
M  V30 3145 C 282.123 4.55447 2.55667 0
M  V30 3146 H 283.817 2.73559 1.21678 0
M  V30 3147 H 281.363 1.3163 0.583911 0
M  V30 3148 H 283.316 2.20001 3.59413 0
M  V30 3149 H 282.04 1.06536 3.08736 0
M  V30 3150 H 280.699 2.97616 2.14056 0
M  V30 3151 H 280.347 2.23882 4.50429 0
M  V30 3152 H 280.047 3.98496 4.31827 0
M  V30 3153 H 281.571 3.41881 5.05915 0
M  V30 3154 H 282.985 4.74611 3.21586 0
M  V30 3155 H 281.382 5.35432 2.70984 0
M  V30 3156 H 282.452 4.60812 1.5093 0
M  V30 3157 N 283.795 -0.628877 1.44509 0
M  V30 3158 C 285.043 -1.38565 1.4712 0
M  V30 3159 C 285.364 -1.94712 0.105899 0
M  V30 3160 O 284.634 -1.75912 -0.862079 0
M  V30 3161 H 283.214 -0.514333 0.541729 0
M  V30 3162 H 285.876 -0.740018 1.80305 0
M  V30 3163 H 284.972 -2.21583 2.19789 0
M  V30 3164 N 285.273 -1.31445 -0.869486 0
M  V30 3165 C 286.22 -1.19135 -1.97675 0
M  V30 3166 C 287.19 -0.0770266 -1.65921 0
M  V30 3167 O 288.375 -0.249972 -1.89155 0
M  V30 3168 C 285.515 -0.905149 -3.33018 0
M  V30 3169 C 284.628 -2.10285 -3.77365 0
M  V30 3170 C 283.763 -1.75339 -5.01427 0
M  V30 3171 C 282.802 -2.91515 -5.38224 0
M  V30 3172 N 281.939 -2.56762 -6.53466 0
M  V30 3173 H 286.779 -2.13853 -2.07535 0
M  V30 3174 H 284.316 -1.06379 -1.01597 0
M  V30 3175 H 286.274 -0.719765 -4.10944 0
M  V30 3176 H 284.904 0.00519624 -3.228 0
M  V30 3177 H 283.956 -2.39899 -2.95216 0
M  V30 3178 H 285.268 -2.97237 -4.00564 0
M  V30 3179 H 284.422 -1.53266 -5.87022 0
M  V30 3180 H 283.161 -0.855801 -4.80133 0
M  V30 3181 H 282.166 -3.14237 -4.51149 0
M  V30 3182 H 283.391 -3.81985 -5.61484 0
M  V30 3183 H 281.337 -1.69526 -6.33717 0
M  V30 3184 H 281.254 -3.37243 -6.76612 0
M  V30 3185 H 282.522 -2.38083 -7.42251 0
M  V30 3186 N 286.751 1.08385 -1.14413 0
M  V30 3187 C 287.976 1.85057 -0.936413 0
M  V30 3188 C 288.401 1.81055 0.509971 0
M  V30 3189 O 287.759 1.1958 1.36273 0
M  V30 3190 C 287.807 3.30505 -1.44217 0
M  V30 3191 O 286.911 4.07491 -0.634409 0
M  V30 3192 H 286.252 0.573425 -0.334784 0
M  V30 3193 H 288.782 1.36799 -1.52142 0
M  V30 3194 H 288.792 3.81348 -1.45043 0
M  V30 3195 H 287.467 3.32734 -2.49522 0
M  V30 3196 H 286.044 3.66368 -0.694902 0
M  V30 3197 N 288.23 0.939286 1.26551 0
M  V30 3198 C 289.478 0.58469 1.93457 0
M  V30 3199 C 289.799 -0.878774 1.74076 0
M  V30 3200 O 289.069 -1.62421 1.09528 0
M  V30 3201 H 287.649 0.21325 0.715914 0
M  V30 3202 H 290.311 1.1942 1.54029 0
M  V30 3203 H 289.407 0.800849 3.0165 0
M  V30 3204 N 289.708 -1.40897 0.706093 0
M  V30 3205 C 290.985 -1.94868 0.169099 0
M  V30 3206 C 291.365 -1.64485 -1.32318 0
M  V30 3207 O 290.713 -0.95744 -2.07474 0
M  V30 3208 C 290.923 -3.45798 0.471654 0
M  V30 3209 C 292.271 -4.22663 0.405127 0
M  V30 3210 O 293.295 -3.53865 0.407168 0
M  V30 3211 O 292.154 -5.45216 0.374383 0
M  V30 3212 H 289.248 -0.82673 0.0211352 0
M  V30 3213 H 291.794 -1.50558 0.782976 0
M  V30 3214 H 290.566 -3.61235 1.50416 0
M  V30 3215 H 290.189 -3.97225 -0.172666 0
M  V30 3216 N 291.186 -0.45159 -1.50991 0
M  V30 3217 C 292.416 0.108177 -2.06317 0
M  V30 3218 C 292.824 1.35774 -1.31765 0
M  V30 3219 O 292.167 1.79838 -0.374694 0
M  V30 3220 C 292.229 0.481659 -3.56259 0
M  V30 3221 C 291.893 -0.663114 -4.52163 0
M  V30 3222 C 292.89 -1.53947 -4.96585 0
M  V30 3223 C 290.575 -0.8479 -4.95092 0
M  V30 3224 C 292.569 -2.58518 -5.82621 0
M  V30 3225 C 290.256 -1.89686 -5.80915 0
M  V30 3226 C 291.254 -2.76388 -6.24579 0
M  V30 3227 O 290.942 -3.79482 -7.08695 0
M  V30 3228 H 290.674 0.00499183 -0.675982 0
M  V30 3229 H 293.228 -0.633659 -1.95381 0
M  V30 3230 H 291.458 1.27641 -3.65027 0
M  V30 3231 H 293.147 0.974233 -3.94035 0
M  V30 3232 H 293.913 -1.4083 -4.64103 0
M  V30 3233 H 289.792 -0.18258 -4.60638 0
M  V30 3234 H 293.336 -3.26224 -6.16623 0
M  V30 3235 H 289.233 -2.02817 -6.12809 0
M  V30 3236 H 290.001 -3.76234 -7.26905 0
M  V30 3237 N 292.664 1.56529 -0.183458 0
M  V30 3238 C 293.611 2.18546 0.742055 0
M  V30 3239 C 294.581 1.12912 1.2182 0
M  V30 3240 O 295.766 1.41115 1.28418 0
M  V30 3241 C 292.906 2.83977 1.96089 0
M  V30 3242 C 292.019 4.04105 1.52719 0
M  V30 3243 C 291.154 4.57427 2.70063 0
M  V30 3244 C 290.193 5.69938 2.23243 0
M  V30 3245 N 289.33 6.17717 3.33722 0
M  V30 3246 H 294.17 2.97284 0.206432 0
M  V30 3247 H 291.707 1.46823 0.0901571 0
M  V30 3248 H 293.665 3.20077 2.67594 0
M  V30 3249 H 292.295 2.07822 2.47002 0
M  V30 3250 H 291.347 3.73745 0.708436 0
M  V30 3251 H 292.659 4.85513 1.1436 0
M  V30 3252 H 291.813 4.95772 3.49708 0
M  V30 3253 H 290.552 3.75101 3.11689 0
M  V30 3254 H 289.557 5.31133 1.42048 0
M  V30 3255 H 290.782 6.54073 1.82661 0
M  V30 3256 H 288.728 5.38317 3.74902 0
M  V30 3257 H 288.645 6.94146 2.99495 0
M  V30 3258 H 289.913 6.60713 4.13616 0
M  V30 3259 N 294.142 -0.090211 1.57342 0
M  V30 3260 C 295.09 -1.12792 2.03422 0
M  V30 3261 C 296.084 -1.41182 0.936166 0
M  V30 3262 O 297.29 -1.40805 1.12133 0
M  V30 3263 H 293.665 -0.380986 0.648347 0
M  V30 3264 H 295.636 -0.71299 2.89757 0
M  V30 3265 C 294.385 -2.43855 2.47851 0
M  V30 3266 H 293.708 -2.22855 3.31927 0
M  V30 3267 H 295.148 -3.14955 2.83865 0
M  V30 3268 C 293.607 -3.08503 1.3538 0
M  V30 3269 O 294.137 -3.95805 0.685641 0
M  V30 3270 N 292.343 -2.68831 1.10355 0
M  V30 3271 H 291.89 -1.97929 1.64869 0
M  V30 3272 H 291.848 -3.12412 0.353031 0
M  V30 3273 N 295.62 -1.53406 -0.361157 0
M  V30 3274 C 296.55 -1.83136 -1.44857 0
M  V30 3275 C 297.531 -0.685174 -1.5569 0
M  V30 3276 O 298.716 -0.93544 -1.70186 0
M  V30 3277 C 295.846 -2.02522 -2.82138 0
M  V30 3278 C 294.8 -3.18302 -2.86126 0
M  V30 3279 C 294.126 -3.22989 -4.26125 0
M  V30 3280 C 295.426 -4.56796 -2.53248 0
M  V30 3281 H 297.12 -2.74201 -1.20226 0
M  V30 3282 H 294.666 -1.31938 -0.576922 0
M  V30 3283 H 296.619 -2.21904 -3.58241 0
M  V30 3284 H 295.343 -1.08172 -3.08166 0
M  V30 3285 H 294.002 -2.98747 -2.12475 0
M  V30 3286 H 293.65 -2.26267 -4.49235 0
M  V30 3287 H 293.35 -4.00781 -4.29708 0
M  V30 3288 H 294.874 -3.44559 -5.04094 0
M  V30 3289 H 296.288 -4.7631 -3.19064 0
M  V30 3290 H 294.685 -5.36862 -2.68141 0
M  V30 3291 H 295.755 -4.61606 -1.48484 0
M  V30 3292 N 297.098 0.621204 -1.44841 0
M  V30 3293 C 298.046 1.75385 -1.52784 0
M  V30 3294 C 299.04 1.64639 -0.398779 0
M  V30 3295 O 300.246 1.70598 -0.574137 0
M  V30 3296 H 296.621 0.579193 -0.479625 0
M  V30 3297 H 298.592 1.6581 -2.48092 0
M  V30 3298 C 297.341 3.13742 -1.4987 0
M  V30 3299 H 296.664 3.22663 -2.36069 0
M  V30 3300 H 298.104 3.92861 -1.59487 0
M  V30 3301 C 296.563 3.36175 -0.220973 0
M  V30 3302 O 297.093 3.95469 0.704782 0
M  V30 3303 N 295.299 2.90348 -0.120963 0
M  V30 3304 H 294.846 2.42278 -0.875162 0
M  V30 3305 H 294.804 3.05732 0.733168 0
M  V30 3306 N 298.576 1.31904 0.862503 0
M  V30 3307 C 299.825 1.21373 1.61094 0
M  V30 3308 C 300.138 -0.22504 1.94301 0
M  V30 3309 O 301.344 -0.452121 2.67709 0
M  V30 3310 C 299.8 2.12525 2.9045 0
M  V30 3311 C 299.408 3.61441 2.64697 0
M  V30 3312 C 301.152 2.10813 3.68454 0
M  V30 3313 C 299.059 4.44578 3.90006 0
M  V30 3314 H 297.989 0.450705 0.604468 0
M  V30 3315 H 300.64 1.56811 0.953027 0
M  V30 3316 H 299.022 1.69994 3.57656 0
M  V30 3317 H 300.196 4.12264 2.05851 0
M  V30 3318 H 298.511 3.65205 2.00036 0
M  V30 3319 H 301.108 2.70167 4.61426 0
M  V30 3320 H 301.451 1.09713 4.01583 0
M  V30 3321 H 301.984 2.51583 3.08141 0
M  V30 3322 H 298.723 5.46461 3.62023 0
M  V30 3323 H 298.243 3.98508 4.48276 0
M  V30 3324 H 299.922 4.57176 4.5782 0
M  V30 3325 N 300.054 -1.07777 1.14986 0
M  V30 3326 C 301.001 -2.14867 0.842672 0
M  V30 3327 C 301.971 -1.6486 -0.202552 0
M  V30 3328 O 303.156 -1.90668 -0.0710568 0
M  V30 3329 C 300.296 -3.43486 0.333363 0
M  V30 3330 C 299.409 -4.07306 1.43965 0
M  V30 3331 C 298.544 -5.23744 0.886914 0
M  V30 3332 C 297.583 -5.79517 1.97043 0
M  V30 3333 N 296.72 -6.87291 1.4344 0
M  V30 3334 H 301.56 -2.40485 1.75986 0
M  V30 3335 H 299.097 -1.1801 0.878179 0
M  V30 3336 H 301.055 -4.17195 0.0198163 0
M  V30 3337 H 299.685 -3.18133 -0.546916 0
M  V30 3338 H 298.737 -3.31293 1.86946 0
M  V30 3339 H 300.049 -4.44771 2.25788 0
M  V30 3340 H 299.203 -6.04419 0.525651 0
M  V30 3341 H 297.942 -4.87685 0.0377957 0
M  V30 3342 H 296.947 -4.97491 2.34057 0
M  V30 3343 H 298.172 -6.17632 2.82325 0
M  V30 3344 H 296.118 -6.5318 0.607567 0
M  V30 3345 H 296.035 -7.23617 2.18895 0
M  V30 3346 H 297.303 -7.71682 1.10124 0
M  V30 3347 N 301.532 -0.945985 -1.26051 0
M  V30 3348 C 302.78 -0.594941 -1.93145 0
M  V30 3349 C 303.101 0.86953 -1.7454 0
M  V30 3350 O 302.371 1.61838 -1.10387 0
M  V30 3351 H 300.951 -0.217044 -0.714773 0
M  V30 3352 H 303.613 -1.20235 -1.53393 0
M  V30 3353 H 302.709 -0.816835 -3.01221 0
M  V30 3354 N 303.011 1.40521 -0.713556 0
M  V30 3355 C 304.251 2.02783 -0.256584 0
M  V30 3356 C 304.615 1.55352 1.12827 0
M  V30 3357 O 305.816 2.09663 1.68211 0
M  V30 3358 C 304.087 3.5586 -0.331414 0
M  V30 3359 S 305.646 4.38773 0.0488703 0
M  V30 3360 H 302.464 0.703655 -0.101934 0
M  V30 3361 H 305.066 1.71674 -0.935325 0
M  V30 3362 H 303.77 3.87874 -1.34098 0
M  V30 3363 H 303.301 3.91695 0.365873 0
M  V30 3364 H 305.316 4.79633 1.2715 0
M  V30 3365 N 304.489 0.459591 1.5075 0
M  V30 3366 C 305.738 -0.100971 2.01447 0
M  V30 3367 C 306.051 -1.41816 1.34713 0
M  V30 3368 O 307.257 -2.06299 1.76502 0
M  V30 3369 C 305.713 -0.23047 3.59161 0
M  V30 3370 C 305.321 1.0776 4.34847 0
M  V30 3371 C 307.065 -0.743608 4.17936 0
M  V30 3372 C 304.972 0.91253 5.84317 0
M  V30 3373 H 303.902 -0.0415102 0.752856 0
M  V30 3374 H 306.553 0.592742 1.73663 0
M  V30 3375 H 304.935 -0.987703 3.83485 0
M  V30 3376 H 306.109 1.8449 4.22256 0
M  V30 3377 H 304.424 1.52097 3.87628 0
M  V30 3378 H 307.021 -0.883959 5.27343 0
M  V30 3379 H 307.364 -1.73196 3.78562 0
M  V30 3380 H 307.897 -0.04408 3.97776 0
M  V30 3381 H 304.636 1.87391 6.28144 0
M  V30 3382 H 304.156 0.185422 5.99513 0
M  V30 3383 H 305.835 0.574547 6.44444 0
M  V30 3384 N 305.967 -1.56429 0.191757 0
M  V30 3385 C 307.192 -2.02309 -0.456706 0
M  V30 3386 C 307.617 -1.07103 -1.5463 0
M  V30 3387 O 306.975 -0.0539677 -1.8122 0
M  V30 3388 C 307.023 -3.46654 -0.993159 0
M  V30 3389 O 306.127 -3.54559 -2.10622 0
M  V30 3390 H 305.468 -0.655303 -0.107114 0
M  V30 3391 H 307.998 -2.02364 0.301653 0
M  V30 3392 H 308.008 -3.86377 -1.31061 0
M  V30 3393 H 306.683 -4.1544 -0.195504 0
M  V30 3394 H 305.26 -3.26708 -1.79767 0
M  V30 3395 N 307.445 0.0818655 -1.57387 0
M  V30 3396 C 308.375 1.09885 -2.06028 0
M  V30 3397 C 309.356 1.4098 -0.951774 0
M  V30 3398 O 310.541 1.50781 -1.22387 0
M  V30 3399 C 307.671 2.4151 -2.4958 0
M  V30 3400 C 306.625 2.24792 -3.64215 0
M  V30 3401 C 305.951 3.61712 -3.93787 0
M  V30 3402 C 307.251 1.67749 -4.94629 0
M  V30 3403 H 308.945 0.694128 -2.91243 0
M  V30 3404 H 306.491 0.332448 -1.4011 0
M  V30 3405 H 308.444 3.12939 -2.82219 0
M  V30 3406 H 307.168 2.83943 -1.61381 0
M  V30 3407 H 305.827 1.55807 -3.31843 0
M  V30 3408 H 305.475 4.01697 -3.02735 0
M  V30 3409 H 305.175 3.51368 -4.70971 0
M  V30 3410 H 306.699 4.34587 -4.28913 0
M  V30 3411 H 308.113 2.29032 -5.25564 0
M  V30 3412 H 306.51 1.68128 -5.76067 0
M  V30 3413 H 307.58 0.638059 -4.80684 0
M  V30 3414 N 308.923 1.53595 0.353017 0
M  V30 3415 C 310.148 1.7462 1.11904 0
M  V30 3416 C 310.573 0.479721 1.8188 0
M  V30 3417 O 309.931 -0.567066 1.72204 0
M  V30 3418 C 309.979 2.92029 2.11545 0
M  V30 3419 O 309.083 2.61516 3.18878 0
M  V30 3420 H 308.424 0.579531 0.324099 0
M  V30 3421 H 310.954 2.00525 0.406301 0
M  V30 3422 H 310.964 3.18551 2.5493 0
M  V30 3423 H 309.639 3.83888 1.60008 0
M  V30 3424 H 308.216 2.45852 2.80377 0
M  V30 3425 N 310.401 -0.613514 1.45168 0
M  V30 3426 C 311.649 -1.36997 1.48581 0
M  V30 3427 C 311.97 -1.94589 0.126545 0
M  V30 3428 O 311.24 -1.76816 -0.843372 0
M  V30 3429 H 309.82 -0.508558 0.547154 0
M  V30 3430 H 312.482 -0.720853 1.81079 0
M  V30 3431 H 311.578 -2.1924 2.22127 0
M  V30 3432 N 311.879 -1.3236 -0.855495 0
M  V30 3433 C 312.812 -1.15559 -1.96777 0
M  V30 3434 C 313.79 -0.0552681 -1.62506 0
M  V30 3435 O 314.974 -0.214419 -1.87277 0
M  V30 3436 C 312.101 -0.768851 -3.29858 0
M  V30 3437 C 311.147 -1.87429 -3.83109 0
M  V30 3438 S 311.98 -3.48243 -4.06801 0
M  V30 3439 C 313.136 -3.11539 -5.42858 0
M  V30 3440 H 313.369 -2.09717 -2.10727 0
M  V30 3441 H 310.902 -1.17011 -1.00737 0
M  V30 3442 H 312.86 -0.55248 -4.06765 0
M  V30 3443 H 311.521 0.153857 -3.13723 0
M  V30 3444 H 310.714 -1.55667 -4.79358 0
M  V30 3445 H 310.316 -2.04647 -3.13042 0
M  V30 3446 H 312.608 -2.61331 -6.2507 0
M  V30 3447 H 313.551 -4.06806 -5.79582 0
M  V30 3448 H 313.959 -2.48582 -5.06821 0
M  V30 3449 N 313.357 1.07166 -1.15556 0
M  V30 3450 C 314.606 1.79181 -0.926132 0
M  V30 3451 C 314.919 1.87768 0.547967 0
M  V30 3452 O 316.125 2.56323 0.895036 0
M  V30 3453 C 314.581 3.22 -1.60761 0
M  V30 3454 C 314.189 3.21607 -3.11886 0
M  V30 3455 C 315.933 3.9861 -1.4598 0
M  V30 3456 C 313.84 4.59092 -3.72812 0
M  V30 3457 H 312.77 0.67154 -0.342856 0
M  V30 3458 H 315.421 1.2027 -1.3859 0
M  V30 3459 H 313.803 3.81115 -1.07553 0
M  V30 3460 H 314.977 2.72127 -3.71865 0
M  V30 3461 H 313.292 2.58495 -3.2645 0
M  V30 3462 H 315.889 5.00225 -1.88888 0
M  V30 3463 H 316.232 4.143 -0.407541 0
M  V30 3464 H 316.765 3.45996 -1.96295 0
M  V30 3465 H 313.504 4.48606 -4.77946 0
M  V30 3466 H 313.024 5.08803 -3.17616 0
M  V30 3467 H 314.703 5.28059 -3.73848 0
M  V30 3468 N 314.835 0.952656 1.25548 0
M  V30 3469 C 316.075 0.614013 1.9496 0
M  V30 3470 C 316.439 -0.833215 1.72978 0
M  V30 3471 O 317.64 -1.28135 2.36294 0
M  V30 3472 C 315.911 0.960562 3.4425 0
M  V30 3473 S 317.47 0.734195 4.32614 0
M  V30 3474 H 314.288 0.225754 0.674208 0
M  V30 3475 H 316.89 1.22641 1.52248 0
M  V30 3476 H 315.594 2.01103 3.57751 0
M  V30 3477 H 315.125 0.338336 3.91942 0
M  V30 3478 H 317.14 -0.395995 4.94617 0
M  V30 3479 N 316.313 -1.40141 0.720998 0
M  V30 3480 C 317.243 -2.33339 0.0867621 0
M  V30 3481 C 318.224 -1.53178 -0.739622 0
M  V30 3482 O 319.409 -1.81625 -0.687449 0
M  V30 3483 C 316.539 -3.37194 -0.831728 0
M  V30 3484 C 315.493 -4.27857 -0.110558 0
M  V30 3485 C 314.819 -5.22294 -1.14513 0
M  V30 3486 C 316.119 -5.11872 1.0385 0
M  V30 3487 H 317.813 -2.86626 0.865219 0
M  V30 3488 H 315.359 -1.37814 0.417516 0
M  V30 3489 H 317.312 -4.01335 -1.28485 0
M  V30 3490 H 316.036 -2.82314 -1.64214 0
M  V30 3491 H 314.695 -3.65176 0.322797 0
M  V30 3492 H 314.343 -4.63717 -1.94874 0
M  V30 3493 H 314.043 -5.83797 -0.667446 0
M  V30 3494 H 315.567 -5.89312 -1.59824 0
M  V30 3495 H 316.981 -5.69436 0.664482 0
M  V30 3496 H 315.378 -5.82445 1.4449 0
M  V30 3497 H 316.448 -4.4753 1.86668 0
M  V30 3498 N 317.792 -0.46758 -1.50504 0
M  V30 3499 C 318.702 0.33382 -2.32213 0
M  V30 3500 C 319.718 0.999323 -1.42441 0
M  V30 3501 O 320.894 0.988068 -1.75497 0
M  V30 3502 C 317.959 1.4035 -3.17022 0
M  V30 3503 C 317.02 0.754961 -4.2261 0
M  V30 3504 C 316.253 1.77367 -5.03365 0
M  V30 3505 O 316.476 2.99976 -4.8515 0
M  V30 3506 O 315.41 1.34744 -5.86624 0
M  V30 3507 H 319.236 -0.334067 -3.01857 0
M  V30 3508 H 316.821 -0.229496 -1.47627 0
M  V30 3509 H 318.703 2.02318 -3.69656 0
M  V30 3510 H 317.378 2.05492 -2.5011 0
M  V30 3511 H 316.285 0.0964244 -3.73976 0
M  V30 3512 H 317.618 0.146545 -4.91982 0
M  V30 3513 N 319.27 1.56325 -0.20005 0
M  V30 3514 C 320.18 2.22931 0.730668 0
M  V30 3515 C 321.196 1.22997 1.23076 0
M  V30 3516 O 322.372 1.55748 1.27689 0
M  V30 3517 C 319.437 2.87948 1.93098 0
M  V30 3518 C 318.498 4.03166 1.47497 0
M  V30 3519 C 317.731 4.65073 2.61807 0
M  V30 3520 O 317.954 4.25913 3.79413 0
M  V30 3521 O 316.888 5.54452 2.34237 0
M  V30 3522 H 320.714 3.03084 0.193391 0
M  V30 3523 H 318.299 1.49371 0.0294621 0
M  V30 3524 H 320.181 3.29063 2.6324 0
M  V30 3525 H 318.856 2.10771 2.45677 0
M  V30 3526 H 317.763 3.66664 0.742201 0
M  V30 3527 H 319.096 4.82022 0.995796 0
M  V30 3528 N 320.748 -0.0735177 1.57428 0
M  V30 3529 C 321.678 -1.0879 2.06608 0
M  V30 3530 C 322.659 -1.40473 0.959237 0
M  V30 3531 O 323.844 -1.5013 1.23185 0
M  V30 3532 C 320.974 -2.40183 2.50857 0
M  V30 3533 C 319.928 -2.22858 3.65402 0
M  V30 3534 C 319.254 -3.59619 3.957 0
M  V30 3535 C 320.554 -1.65123 4.95511 0
M  V30 3536 H 322.248 -0.678673 2.91607 0
M  V30 3537 H 319.794 -0.325013 1.40284 0
M  V30 3538 H 321.747 -3.11437 2.83874 0
M  V30 3539 H 320.471 -2.83083 1.62885 0
M  V30 3540 H 319.13 -1.54045 3.32664 0
M  V30 3541 H 318.778 -4.00086 3.04861 0
M  V30 3542 H 318.478 -3.48866 4.72828 0
M  V30 3543 H 320.002 -4.32306 4.31212 0
M  V30 3544 H 321.416 -2.26241 5.26771 0
M  V30 3545 H 319.813 -1.65071 5.7695 0
M  V30 3546 H 320.883 -0.612559 4.81015 0
M  V30 3547 N 322.226 -1.5378 -0.344866 0
M  V30 3548 C 323.451 -1.75211 -1.10977 0
M  V30 3549 C 323.876 -0.48936 -1.81623 0
M  V30 3550 O 323.234 0.557925 -1.72502 0
M  V30 3551 C 323.282 -2.93147 -2.09993 0
M  V30 3552 O 322.386 -2.63203 -3.17487 0
M  V30 3553 H 321.727 -0.581241 -0.321021 0
M  V30 3554 H 324.257 -2.00738 -0.395661 0
M  V30 3555 H 324.267 -3.19898 -2.53237 0
M  V30 3556 H 322.942 -3.84731 -1.5797 0
M  V30 3557 H 321.519 -2.47336 -2.79069 0
M  V30 3558 N 323.704 0.605807 -1.45491 0
M  V30 3559 C 324.929 1.39625 -1.53361 0
M  V30 3560 C 325.354 1.87351 -0.167645 0
M  V30 3561 O 324.712 1.60243 0.848051 0
M  V30 3562 C 324.76 2.57559 -2.5238 0
M  V30 3563 O 323.864 3.58248 -2.04285 0
M  V30 3564 H 323.205 0.416771 -0.516912 0
M  V30 3565 H 325.735 0.737103 -1.90861 0
M  V30 3566 H 325.745 3.0478 -2.71244 0
M  V30 3567 H 324.42 2.22171 -3.51586 0
M  V30 3568 H 322.997 3.17664 -1.95305 0
M  V30 3569 N 325.182 1.32811 0.848464 0
M  V30 3570 C 326.129 1.22265 1.95755 0
M  V30 3571 C 327.099 0.103413 1.65778 0
M  V30 3572 O 328.284 0.280033 1.88734 0
M  V30 3573 C 325.424 0.958014 3.31536 0
M  V30 3574 C 324.537 2.16262 3.73971 0
M  V30 3575 C 323.672 1.83295 4.98575 0
M  V30 3576 C 322.711 3.00041 5.33518 0
M  V30 3577 N 321.848 2.67125 6.49299 0
M  V30 3578 H 326.688 2.17128 2.04107 0
M  V30 3579 H 324.225 1.07982 0.998913 0
M  V30 3580 H 326.183 0.785052 4.09747 0
M  V30 3581 H 324.813 0.046159 3.22767 0
M  V30 3582 H 323.865 2.44565 2.91362 0
M  V30 3583 H 325.177 3.03572 3.95785 0
M  V30 3584 H 324.331 1.62586 5.84509 0
M  V30 3585 H 323.07 0.932078 4.7871 0
M  V30 3586 H 322.075 3.21374 4.46093 0
M  V30 3587 H 323.3 3.90869 5.55336 0
M  V30 3588 H 321.246 1.79586 6.3094 0
M  V30 3589 H 321.163 3.47965 6.71161 0
M  V30 3590 H 322.431 2.49861 7.3837 0
M  V30 3591 N 326.66 -1.06551 1.16123 0
M  V30 3592 C 327.623 -2.12132 0.867906 0
M  V30 3593 C 328.623 -1.60224 -0.135944 0
M  V30 3594 O 329.813 -1.73943 0.0946422 0
M  V30 3595 C 326.945 -3.396 0.297419 0
M  V30 3596 H 328.138 -2.39586 1.80385 0
M  V30 3597 H 325.691 -1.22574 0.969812 0
M  V30 3598 H 326.426 -3.17794 -0.64633 0
M  V30 3599 H 326.211 -3.78581 1.02073 0
M  V30 3600 H 327.701 -4.17455 0.110052 0
M  V30 3601 N 328.138 -0.959301 -1.25041 0
M  V30 3602 C 329.363 -0.633507 -1.97488 0
M  V30 3603 C 329.788 0.788555 -1.70773 0
M  V30 3604 O 329.146 1.53394 -0.966431 0
M  V30 3605 C 329.194 -0.904057 -3.49083 0
M  V30 3606 O 328.298 0.0147939 -4.12397 0
M  V30 3607 H 327.639 -0.240368 -0.618966 0
M  V30 3608 H 330.169 -1.28717 -1.59038 0
M  V30 3609 H 330.179 -0.832203 -3.99423 0
M  V30 3610 H 328.854 -1.94048 -3.67856 0
M  V30 3611 H 327.431 -0.109664 -3.72739 0
M  V30 3612 N 329.616 1.39756 -0.72842 0
M  V30 3613 C 330.549 2.28176 -0.0330172 0
M  V30 3614 C 331.527 1.44035 0.754501 0
M  V30 3615 O 332.711 1.73434 0.738445 0
M  V30 3616 C 329.838 3.24795 0.960504 0
M  V30 3617 C 328.884 4.25693 0.262264 0
M  V30 3618 S 329.717 5.25714 -1.01906 0
M  V30 3619 C 330.873 6.25894 -0.0279717 0
M  V30 3620 H 331.106 2.86807 -0.78287 0
M  V30 3621 H 328.639 1.45382 -0.519951 0
M  V30 3622 H 330.597 3.80983 1.52846 0
M  V30 3623 H 329.258 2.65196 1.68315 0
M  V30 3624 H 328.451 4.93699 1.01379 0
M  V30 3625 H 328.053 3.7327 -0.233482 0
M  V30 3626 H 330.345 6.72585 0.814621 0
M  V30 3627 H 331.288 7.04876 -0.67499 0
M  V30 3628 H 331.696 5.63466 0.341489 0
M  V30 3629 N 331.094 0.475555 1.50254 0
M  V30 3630 C 332.041 -0.316293 2.28622 0
M  V30 3631 C 333.011 -0.983227 1.33873 0
M  V30 3632 O 334.196 -0.994805 1.62814 0
M  V30 3633 C 331.336 -1.38975 3.1588 0
M  V30 3634 C 330.449 -0.737146 4.25664 0
M  V30 3635 C 329.584 -1.78887 5.00173 0
M  V30 3636 C 328.623 -1.11676 6.01826 0
M  V30 3637 N 327.76 -2.11154 6.69596 0
M  V30 3638 H 332.6 0.358297 2.95838 0
M  V30 3639 H 330.137 0.188541 1.45887 0
M  V30 3640 H 332.095 -2.02383 3.64825 0
M  V30 3641 H 330.725 -2.03344 2.50701 0
M  V30 3642 H 329.777 0.0096065 3.80399 0
M  V30 3643 H 331.089 -0.206816 4.98371 0
M  V30 3644 H 330.243 -2.49865 5.52859 0
M  V30 3645 H 328.982 -2.35302 4.27182 0
M  V30 3646 H 327.987 -0.392633 5.48396 0
M  V30 3647 H 329.212 -0.55945 6.76792 0
M  V30 3648 H 327.158 -2.66577 5.99394 0
M  V30 3649 H 327.075 -1.63118 7.38193 0
M  V30 3650 H 328.343 -2.81497 7.26897 0
M  V30 3651 N 332.573 -1.56217 0.208337 0
M  V30 3652 C 333.803 -2.02043 -0.431523 0
M  V30 3653 C 334.211 -1.08755 -1.54819 0
M  V30 3654 O 333.554 -0.0870009 -1.83494 0
M  V30 3655 C 333.616 -3.44239 -1.03633 0
M  V30 3656 C 333.28 -4.56965 -0.0567502 0
M  V30 3657 C 334.277 -5.14624 0.738773 0
M  V30 3658 C 331.962 -5.02266 0.0581736 0
M  V30 3659 C 333.956 -6.16045 1.63605 0
M  V30 3660 C 331.643 -6.03528 0.959001 0
M  V30 3661 C 332.641 -6.60293 1.7465 0
M  V30 3662 O 332.329 -7.59586 2.6322 0
M  V30 3663 H 332.061 -0.666772 -0.111313 0
M  V30 3664 H 334.615 -2.02919 0.318277 0
M  V30 3665 H 332.845 -3.40391 -1.83497 0
M  V30 3666 H 334.534 -3.73793 -1.58221 0
M  V30 3667 H 335.3 -4.80483 0.660364 0
M  V30 3668 H 331.179 -4.57771 -0.544633 0
M  V30 3669 H 334.723 -6.60279 2.25116 0
M  V30 3670 H 330.62 -6.37092 1.03848 0
M  V30 3671 H 331.388 -7.77057 2.57148 0
M  V30 3672 N 334.051 0.0651679 -1.57465 0
M  V30 3673 C 334.998 1.07675 -2.04144 0
M  V30 3674 C 335.968 1.38071 -0.923335 0
M  V30 3675 O 337.153 1.49026 -1.19146 0
M  V30 3676 C 334.293 2.38337 -2.49579 0
M  V30 3677 C 333.406 2.14413 -3.75035 0
M  V30 3678 C 332.541 3.38686 -4.09225 0
M  V30 3679 C 331.58 3.10156 -5.27702 0
M  V30 3680 N 330.717 4.26778 -5.57499 0
M  V30 3681 H 335.557 0.671716 -2.90331 0
M  V30 3682 H 333.094 0.3201 -1.43575 0
M  V30 3683 H 335.052 3.14632 -2.73975 0
M  V30 3684 H 333.682 2.7663 -1.6636 0
M  V30 3685 H 332.734 1.2878 -3.57939 0
M  V30 3686 H 334.046 1.89344 -4.61466 0
M  V30 3687 H 333.2 4.23373 -4.34558 0
M  V30 3688 H 331.939 3.66837 -3.21374 0
M  V30 3689 H 330.944 2.23866 -5.02159 0
M  V30 3690 H 332.169 2.8332 -6.17176 0
M  V30 3691 H 330.115 4.54948 -4.72608 0
M  V30 3692 H 330.032 4.05005 -6.38362 0
M  V30 3693 H 331.3 5.12443 -5.87386 0
M  V30 3694 N 335.529 1.53961 0.336706 0
M  V30 3695 C 336.759 1.75229 1.09446 0
M  V30 3696 C 337.167 0.494602 1.82621 0
M  V30 3697 O 336.51 -0.543764 1.75468 0
M  V30 3698 C 336.572 2.88288 2.1478 0
M  V30 3699 C 336.236 4.27656 1.6112 0
M  V30 3700 C 337.233 5.08981 1.0599 0
M  V30 3701 C 334.918 4.74161 1.6576 0
M  V30 3702 C 336.912 6.34916 0.562129 0
M  V30 3703 C 334.599 6.00067 1.15595 0
M  V30 3704 C 335.597 6.80278 0.609147 0
M  V30 3705 O 335.285 8.03818 0.114999 0
M  V30 3706 H 335.017 0.588881 0.331956 0
M  V30 3707 H 337.571 2.01614 0.392566 0
M  V30 3708 H 335.801 2.57443 2.88548 0
M  V30 3709 H 337.49 2.97461 2.76174 0
M  V30 3710 H 338.256 4.74213 1.01722 0
M  V30 3711 H 334.135 4.11781 2.07261 0
M  V30 3712 H 337.679 6.9747 0.134668 0
M  V30 3713 H 333.576 6.3433 1.19566 0
M  V30 3714 H 334.344 8.18172 0.231651 0
M  V30 3715 N 337.007 -0.598083 1.45811 0
M  V30 3716 C 338.254 -1.35681 1.50323 0
M  V30 3717 C 338.582 -1.9393 0.148739 0
M  V30 3718 O 337.837 -1.76094 -0.853787 0
M  V30 3719 C 338.136 -2.51669 2.53766 0
M  V30 3720 C 337.802 -2.11508 3.98215 0
M  V30 3721 C 336.464 -2.0027 4.37545 0
M  V30 3722 C 338.816 -1.80308 4.89018 0
M  V30 3723 C 336.144 -1.56067 5.65562 0
M  V30 3724 C 338.496 -1.37589 6.17456 0
M  V30 3725 C 337.16 -1.24916 6.55708 0
M  V30 3726 H 336.43 -0.496492 0.550069 0
M  V30 3727 H 339.077 -0.675052 1.79207 0
M  V30 3728 H 337.382 -3.25225 2.18486 0
M  V30 3729 H 339.079 -3.09895 2.54492 0
M  V30 3730 H 335.669 -2.21185 3.67117 0
M  V30 3731 H 339.853 -1.87884 4.59362 0
M  V30 3732 H 335.109 -1.44886 5.93985 0
M  V30 3733 H 339.283 -1.12495 6.87254 0
M  V30 3734 H 336.91 -0.904386 7.54801 0
M  V30 3735 N 338.485 -1.33259 -0.841409 0
M  V30 3736 C 339.415 -1.25926 -1.96634 0
M  V30 3737 C 340.396 -0.140349 -1.6952 0
M  V30 3738 O 341.581 -0.329707 -1.91381 0
M  V30 3739 C 338.711 -0.99512 -3.32738 0
M  V30 3740 C 337.665 -2.0767 -3.74242 0
M  V30 3741 C 336.991 -1.66474 -5.08125 0
M  V30 3742 C 338.291 -3.49318 -3.88297 0
M  V30 3743 H 339.985 -2.20046 -2.03027 0
M  V30 3744 H 337.531 -1.05931 -0.975425 0
M  V30 3745 H 339.484 -0.930323 -4.11002 0
M  V30 3746 H 338.208 -0.0183004 -3.26595 0
M  V30 3747 H 336.867 -2.13187 -2.98239 0
M  V30 3748 H 336.515 -0.675012 -4.9845 0
M  V30 3749 H 336.215 -2.3885 -5.36865 0
M  V30 3750 H 337.739 -1.61455 -5.88867 0
M  V30 3751 H 339.153 -3.46316 -4.56879 0
M  V30 3752 H 337.55 -4.20158 -4.28471 0
M  V30 3753 H 338.62 -3.8801 -2.9082 0
M  V30 3754 N 339.963 1.05934 -1.16686 0
M  V30 3755 C 341.209 1.79065 -0.95203 0
M  V30 3756 C 341.542 1.87147 0.518629 0
M  V30 3757 O 340.817 1.36574 1.38484 0
M  V30 3758 C 341.1 3.23359 -1.58464 0
M  V30 3759 C 340.953 3.23336 -3.12689 0
M  V30 3760 C 342.272 4.21004 -1.28232 0
M  V30 3761 H 339.391 0.65005 -0.34728 0
M  V30 3762 H 342.033 1.23868 -1.44072 0
M  V30 3763 H 340.183 3.70493 -1.16908 0
M  V30 3764 H 341.855 2.84336 -3.6325 0
M  V30 3765 H 340.098 2.61886 -3.4583 0
M  V30 3766 H 340.769 4.25144 -3.52075 0
M  V30 3767 H 343.245 3.8233 -1.64203 0
M  V30 3768 H 342.121 5.20225 -1.75092 0
M  V30 3769 H 342.382 4.41639 -0.201791 0
M  V30 3770 N 341.441 0.965919 1.2453 0
M  V30 3771 C 342.852 0.665929 1.7442 0
M  V30 3772 C 343.203 -0.818407 1.78316 0
M  V30 3773 O 342.328 -1.64037 1.41141 0
M  V30 3774 C 342.923 1.20211 3.16757 0
M  V30 3775 C 341.482 0.952059 3.6416 0
M  V30 3776 C 340.629 1.33848 2.42858 0
M  V30 3777 H 343.58 1.14144 1.10258 0
M  V30 3778 H 343.601 0.567544 3.76244 0
M  V30 3779 H 343.113 2.28244 3.13889 0
M  V30 3780 H 341.214 -0.112821 3.72429 0
M  V30 3781 H 341.327 1.59645 4.51719 0
M  V30 3782 H 339.691 0.756864 2.43195 0
M  V30 3783 H 340.474 2.42827 2.42673 0
M  V30 3784 N 342.919 -1.39368 0.735821 0
M  V30 3785 C 344.166 -2.00497 0.284123 0
M  V30 3786 C 344.494 -1.58387 -1.12889 0
M  V30 3787 O 343.749 -0.804359 -1.78406 0
M  V30 3788 C 344.048 -3.5583 0.334651 0
M  V30 3789 C 343.714 -4.17593 1.7008 0
M  V30 3790 C 342.376 -4.34176 2.07472 0
M  V30 3791 C 344.728 -4.51848 2.59775 0
M  V30 3792 C 342.056 -4.82304 3.34065 0
M  V30 3793 C 344.408 -5.01384 3.85741 0
M  V30 3794 C 343.072 -5.16175 4.23225 0
M  V30 3795 H 342.342 -0.73367 0.103968 0
M  V30 3796 H 344.989 -1.66683 0.942825 0
M  V30 3797 H 343.294 -3.89674 -0.407625 0
M  V30 3798 H 344.991 -4.00986 -0.0329927 0
M  V30 3799 H 341.581 -4.05087 1.40008 0
M  V30 3800 H 345.765 -4.38653 2.32157 0
M  V30 3801 H 341.021 -4.91941 3.63049 0
M  V30 3802 H 345.195 -5.26863 4.55399 0
M  V30 3803 H 342.822 -5.5323 5.21384 0
M  V30 3804 N 344.397 -0.483516 -1.5 0
M  V30 3805 C 345.622 0.0667119 -2.07293 0
M  V30 3806 C 346.047 1.3164 -1.3436 0
M  V30 3807 O 345.405 1.76945 -0.394987 0
M  V30 3808 C 345.453 0.321126 -3.59167 0
M  V30 3809 O 344.557 1.39927 -3.87936 0
M  V30 3810 H 343.898 -0.0184758 -0.663743 0
M  V30 3811 H 346.428 -0.678125 -1.93035 0
M  V30 3812 H 346.438 0.557906 -4.04168 0
M  V30 3813 H 345.113 -0.592007 -4.11665 0
M  V30 3814 H 343.69 1.14882 -3.54763 0
M  V30 3815 N 345.875 1.56104 -0.216619 0
M  V30 3816 C 346.822 2.2007 0.695531 0
M  V30 3817 C 347.792 1.15471 1.19397 0
M  V30 3818 O 348.977 1.43807 1.25396 0
M  V30 3819 C 346.117 2.88073 1.90021 0
M  V30 3820 C 345.23 4.07253 1.44113 0
M  V30 3821 C 344.365 4.63052 2.603 0
M  V30 3822 C 343.404 5.74545 2.11103 0
M  V30 3823 N 342.541 6.24656 3.20545 0
M  V30 3824 H 347.381 2.97655 0.143327 0
M  V30 3825 H 344.918 1.46982 0.0589934 0
M  V30 3826 H 346.876 3.25681 2.60745 0
M  V30 3827 H 345.506 2.13015 2.42538 0
M  V30 3828 H 344.558 3.75164 0.628999 0
M  V30 3829 H 345.87 4.8783 1.04036 0
M  V30 3830 H 345.024 5.03078 3.39113 0
M  V30 3831 H 343.763 3.81628 3.03663 0
M  V30 3832 H 342.768 5.34027 1.3075 0
M  V30 3833 H 343.993 6.57801 1.68746 0
M  V30 3834 H 341.939 5.46148 3.63399 0
M  V30 3835 H 341.856 7.00343 2.84704 0
M  V30 3836 H 343.124 6.69338 3.99508 0
M  V30 3837 N 347.353 -0.0568162 1.57498 0
M  V30 3838 C 348.6 -0.753104 1.87975 0
M  V30 3839 C 348.928 -1.76815 0.81035 0
M  V30 3840 O 348.183 -1.94756 -0.19199 0
M  V30 3841 C 348.482 -1.48359 3.25153 0
M  V30 3842 C 348.148 -0.60713 4.46794 0
M  V30 3843 C 346.81 -0.365642 4.79809 0
M  V30 3844 C 349.162 -0.000305978 5.212 0
M  V30 3845 C 346.49 0.491905 5.84634 0
M  V30 3846 C 348.842 0.844781 6.26934 0
M  V30 3847 C 347.506 1.096 6.58441 0
M  V30 3848 H 346.776 -0.27558 0.687849 0
M  V30 3849 H 349.423 -0.0135173 1.91495 0
M  V30 3850 H 347.728 -2.29577 3.17492 0
M  V30 3851 H 349.425 -2.02739 3.45974 0
M  V30 3852 H 346.015 -0.805487 4.20963 0
M  V30 3853 H 350.199 -0.173961 4.95995 0
M  V30 3854 H 345.455 0.695131 6.07436 0
M  V30 3855 H 349.629 1.32165 6.83744 0
M  V30 3856 H 347.256 1.76224 7.39492 0
M  V30 3857 N 348.832 -1.54138 -0.328536 0
M  V30 3858 C 350.081 -1.71318 -1.06456 0
M  V30 3859 C 350.394 -0.491109 -1.89334 0
M  V30 3860 O 351.6 -0.54416 -2.65991 0
M  V30 3861 C 350.056 -3.03 -1.94214 0
M  V30 3862 C 349.664 -4.32595 -1.16471 0
M  V30 3863 C 351.408 -3.29544 -2.67583 0
M  V30 3864 C 349.315 -5.55341 -2.03347 0
M  V30 3865 H 348.245 -0.638429 -0.401155 0
M  V30 3866 H 350.896 -1.80633 -0.323106 0
M  V30 3867 H 349.278 -2.87579 -2.72239 0
M  V30 3868 H 350.452 -4.58766 -0.432525 0
M  V30 3869 H 348.767 -4.12777 -0.548063 0
M  V30 3870 H 351.364 -4.18444 -3.3288 0
M  V30 3871 H 351.707 -2.47206 -3.34955 0
M  V30 3872 H 352.24 -3.45809 -1.96623 0
M  V30 3873 H 348.979 -6.40268 -1.40491 0
M  V30 3874 H 348.499 -5.33397 -2.74313 0
M  V30 3875 H 350.178 -5.91557 -2.62049 0
M  V30 3876 N 350.31 0.590341 -1.46126 0
M  V30 3877 C 351.535 1.37991 -1.54833 0
M  V30 3878 C 351.96 1.87163 -0.187506 0
M  V30 3879 O 351.318 1.61133 0.831008 0
M  V30 3880 C 351.366 2.54867 -2.55098 0
M  V30 3881 O 350.47 3.56061 -2.08073 0
M  V30 3882 H 349.811 0.411265 -0.521303 0
M  V30 3883 H 352.341 0.716819 -1.91632 0
M  V30 3884 H 352.351 3.01886 -2.74461 0
M  V30 3885 H 351.026 2.18429 -3.53923 0
M  V30 3886 H 349.603 3.15574 -1.98664 0
M  V30 3887 N 351.788 1.33704 0.83433 0
M  V30 3888 C 353.018 1.28281 1.6195 0
M  V30 3889 C 353.426 -0.147603 1.88623 0
M  V30 3890 O 352.769 -1.1016 1.47005 0
M  V30 3891 C 352.831 1.99386 2.99141 0
M  V30 3892 C 352.495 3.48681 2.95416 0
M  V30 3893 C 353.492 4.438 2.70809 0
M  V30 3894 C 351.177 3.90925 3.15409 0
M  V30 3895 C 353.171 5.79138 2.66229 0
M  V30 3896 C 350.858 5.26366 3.10454 0
M  V30 3897 C 351.856 6.20284 2.85895 0
M  V30 3898 O 351.544 7.53245 2.80852 0
M  V30 3899 H 351.276 0.44315 0.510484 0
M  V30 3900 H 353.83 1.76711 1.04702 0
M  V30 3901 H 352.06 1.45554 3.58261 0
M  V30 3902 H 353.749 1.87403 3.60049 0
M  V30 3903 H 354.515 4.12485 2.5511 0
M  V30 3904 H 350.394 3.18229 3.33543 0
M  V30 3905 H 353.938 6.52416 2.4698 0
M  V30 3906 H 349.835 5.57304 3.25703 0
M  V30 3907 H 350.603 7.62846 2.96661 0
M  V30 3908 N 353.266 -1.05314 1.17247 0
M  V30 3909 C 354.515 -1.77685 0.954521 0
M  V30 3910 C 354.828 -1.88616 -0.518025 0
M  V30 3911 O 356.034 -2.57714 -0.854144 0
M  V30 3912 C 354.49 -3.19402 1.65863 0
M  V30 3913 C 354.098 -3.16605 3.16963 0
M  V30 3914 C 355.842 -3.96237 1.52303 0
M  V30 3915 C 353.749 -4.53103 3.80068 0
M  V30 3916 H 352.679 -0.666 0.353496 0
M  V30 3917 H 355.33 -1.1805 1.40486 0
M  V30 3918 H 353.712 -3.79355 1.13602 0
M  V30 3919 H 354.886 -2.66176 3.76148 0
M  V30 3920 H 353.201 -2.53268 3.30521 0
M  V30 3921 H 355.798 -4.97157 1.96822 0
M  V30 3922 H 356.141 -4.136 0.473401 0
M  V30 3923 H 356.674 -3.42829 2.01775 0
M  V30 3924 H 353.413 -4.40946 4.85023 0
M  V30 3925 H 352.933 -5.03686 3.2567 0
M  V30 3926 H 354.612 -5.22045 3.82202 0
M  V30 3927 N 354.744 -0.972509 -1.24016 0
M  V30 3928 C 355.991 -0.637034 -1.92219 0
M  V30 3929 C 356.319 0.828418 -1.75976 0
M  V30 3930 O 355.574 1.61206 -1.10955 0
M  V30 3931 C 355.873 -0.963694 -3.44162 0
M  V30 3932 C 355.539 -2.41807 -3.80579 0
M  V30 3933 C 354.201 -2.81556 -3.9023 0
M  V30 3934 C 356.553 -3.36172 -3.98293 0
M  V30 3935 C 353.881 -4.14702 -4.15017 0
M  V30 3936 C 356.233 -4.68952 -4.24578 0
M  V30 3937 C 354.897 -5.08472 -4.32449 0
M  V30 3938 H 354.167 -0.233107 -0.703379 0
M  V30 3939 H 356.814 -1.2249 -1.47202 0
M  V30 3940 H 355.119 -0.29365 -3.90698 0
M  V30 3941 H 356.816 -0.682449 -3.9515 0
M  V30 3942 H 353.406 -2.09988 -3.73635 0
M  V30 3943 H 357.59 -3.06644 -3.90234 0
M  V30 3944 H 352.846 -4.4494 -4.19331 0
M  V30 3945 H 357.02 -5.42037 -4.37229 0
M  V30 3946 H 354.647 -6.11665 -4.51409 0
M  V30 3947 N 356.222 1.38976 -0.743202 0
M  V30 3948 C 357.633 1.83123 -0.363732 0
M  V30 3949 C 357.984 1.6205 1.10609 0
M  V30 3950 O 357.109 1.11606 1.854 0
M  V30 3951 C 357.704 3.32439 -0.653408 0
M  V30 3952 C 356.263 3.74974 -0.327338 0
M  V30 3953 C 355.41 2.61878 -0.911875 0
M  V30 3954 H 358.361 1.27852 -0.940191 0
M  V30 3955 H 358.382 3.80432 0.0720031 0
M  V30 3956 H 357.894 3.47745 -1.72323 0
M  V30 3957 H 355.995 3.65252 0.736314 0
M  V30 3958 H 356.108 4.72106 -0.815631 0
M  V30 3959 H 354.472 2.52448 -0.337944 0
M  V30 3960 H 355.255 2.79987 -1.98651 0
M  V30 3961 N 357.7 0.491464 1.49741 0
M  V30 3962 C 358.647 -0.292027 2.28945 0
M  V30 3963 C 359.617 -0.968973 1.34908 0
M  V30 3964 O 360.802 -0.97748 1.6386 0
M  V30 3965 C 357.942 -1.35617 3.17336 0
M  V30 3966 C 357.055 -0.691957 4.26422 0
M  V30 3967 C 356.19 -1.73572 5.02042 0
M  V30 3968 C 355.229 -1.05286 6.02977 0
M  V30 3969 N 354.366 -2.0404 6.71798 0
M  V30 3970 H 359.206 0.389654 2.95442 0
M  V30 3971 H 356.743 0.204003 1.45679 0
M  V30 3972 H 358.701 -1.98502 3.66951 0
M  V30 3973 H 357.331 -2.00674 2.52844 0
M  V30 3974 H 356.383 0.0499523 3.80367 0
M  V30 3975 H 357.695 -0.153946 4.98562 0
M  V30 3976 H 356.849 -2.43987 5.55478 0
M  V30 3977 H 355.588 -2.30757 4.29654 0
M  V30 3978 H 354.593 -0.334446 5.48782 0
M  V30 3979 H 355.818 -0.487636 6.77347 0
M  V30 3980 H 353.764 -2.60205 6.02187 0
M  V30 3981 H 353.681 -1.55279 7.39881 0
M  V30 3982 H 354.949 -2.73772 7.29842 0
M  V30 3983 N 359.178 -1.55987 0.224894 0
M  V30 3984 C 360.418 -2.00293 -0.407706 0
M  V30 3985 C 360.782 -1.1093 -1.56711 0
M  V30 3986 O 361.983 -1.44597 -2.26595 0
M  V30 3987 C 360.254 -3.47675 -0.82805 0
M  V30 3988 S 361.813 -4.14 -1.45429 0
M  V30 3989 H 358.631 -0.699152 -0.129256 0
M  V30 3990 H 361.233 -1.92609 0.334967 0
M  V30 3991 H 359.937 -4.10392 0.0253964 0
M  V30 3992 H 359.468 -3.59239 -1.60345 0
M  V30 3993 H 361.483 -4.13465 -2.74337 0
M  V30 3994 N 360.656 0.0484629 -1.57525 0
M  V30 3995 C 362.072 0.40375 -1.54409 0
M  V30 3996 C 362.272 1.77786 -0.948384 0
M  V30 3997 O 361.328 2.46189 -0.560983 0
M  V30 3998 C 362.641 0.323394 -2.98956 0
M  V30 3999 C 364.189 0.401892 -3.10409 0
M  V30 4000 C 364.664 0.351195 -4.56652 0
M  V30 4001 N 366.155 0.410576 -4.61377 0
M  V30 4002 C 366.89 0.393933 -5.72045 0
M  V30 4003 N 366.386 0.330724 -6.9201 0
M  V30 4004 N 368.179 0.442227 -5.60358 0
M  V30 4005 H 360.33 -0.851016 -1.94606 0
M  V30 4006 H 362.593 -0.321721 -0.89174 0
M  V30 4007 H 362.299 -0.62011 -3.4619 0
M  V30 4008 H 362.173 1.12463 -3.60044 0
M  V30 4009 H 364.56 1.33582 -2.63134 0
M  V30 4010 H 364.641 -0.428342 -2.52188 0
M  V30 4011 H 364.285 -0.578987 -5.04589 0
M  V30 4012 H 364.215 1.19928 -5.12762 0
M  V30 4013 H 366.706 0.462729 -3.75056 0
M  V30 4014 H 367.019 0.322592 -7.72126 0
M  V30 4015 H 365.364 0.29706 -6.94365 0
M  V30 4016 H 368.555 0.489464 -4.65534 0
M  V30 4017 H 368.728 0.425788 -6.466 0
M  V30 4018 N 362.134 1.5431 0.320358 0
M  V30 4019 C 363.383 1.7188 1.05546 0
M  V30 4020 C 363.696 0.501143 1.89071 0
M  V30 4021 O 364.902 0.558258 2.65699 0
M  V30 4022 C 363.358 3.04025 1.92605 0
M  V30 4023 C 362.966 4.33207 1.14176 0
M  V30 4024 C 364.71 3.30959 2.65832 0
M  V30 4025 C 362.617 5.56412 2.00399 0
M  V30 4026 H 361.547 0.640547 0.397763 0
M  V30 4027 H 364.198 1.80802 0.313522 0
M  V30 4028 H 362.58 2.89019 2.7071 0
M  V30 4029 H 363.754 4.58989 0.40819 0
M  V30 4030 H 362.069 4.13062 0.526165 0
M  V30 4031 H 364.666 4.20203 3.30656 0
M  V30 4032 H 365.009 2.48979 3.33639 0
M  V30 4033 H 365.542 3.46847 1.94787 0
M  V30 4034 H 362.281 6.41004 1.37094 0
M  V30 4035 H 361.801 5.34844 2.7148 0
M  V30 4036 H 363.48 5.92938 2.58908 0
M  V30 4037 N 363.613 -0.582584 1.46437 0
M  V30 4038 C 364.561 -1.71272 1.5738 0
M  V30 4039 C 365.555 -1.63524 0.44229 0
M  V30 4040 O 366.761 -1.69016 0.619166 0
M  V30 4041 H 363.136 -0.566273 0.494813 0
M  V30 4042 H 365.107 -1.59174 2.52401 0
M  V30 4043 C 363.856 -3.09658 1.58136 0
M  V30 4044 H 363.179 -3.16291 2.44541 0
M  V30 4045 H 364.619 -3.88494 1.69847 0
M  V30 4046 C 363.078 -3.3547 0.310026 0
M  V30 4047 O 363.608 -3.97199 -0.599683 0
M  V30 4048 N 361.814 -2.89925 0.197901 0
M  V30 4049 H 361.361 -2.39873 0.93909 0
M  V30 4050 H 361.319 -3.07568 -0.65185 0
M  V30 4051 N 365.091 -1.34144 -0.827227 0
M  V30 4052 C 366.023 -1.21206 -1.9453 0
M  V30 4053 C 367.036 -0.140176 -1.62195 0
M  V30 4054 O 368.225 -0.391647 -1.7415 0
M  V30 4055 C 365.325 -0.839141 -3.28347 0
M  V30 4056 C 364.498 -2.0051 -3.88734 0
M  V30 4057 C 363.557 -1.61128 -5.00923 0
M  V30 4058 O 362.583 -2.32726 -5.19449 0
M  V30 4059 N 363.785 -0.522958 -5.7814 0
M  V30 4060 H 366.55 -2.17525 -2.06162 0
M  V30 4061 H 364.111 -1.27043 -1.00358 0
M  V30 4062 H 366.103 -0.557556 -4.00841 0
M  V30 4063 H 364.673 0.0337293 -3.12582 0
M  V30 4064 H 363.893 -2.45166 -3.08686 0
M  V30 4065 H 365.181 -2.78498 -4.25812 0
M  V30 4066 H 364.579 0.0723518 -5.65654 0
M  V30 4067 H 363.136 -0.301089 -6.51104 0
M  V30 4068 N 366.569 1.04691 -1.17803 0
M  V30 4069 C 367.517 2.14665 -0.895635 0
M  V30 4070 C 368.511 1.68806 0.141679 0
M  V30 4071 O 369.717 1.79999 -0.00587914 0
M  V30 4072 H 366.092 0.701038 -0.272121 0
M  V30 4073 H 368.063 2.35685 -1.83017 0
M  V30 4074 C 366.812 3.45019 -0.430962 0
M  V30 4075 H 366.135 3.8071 -1.22064 0
M  V30 4076 H 367.575 4.23125 -0.272301 0
M  V30 4077 C 366.034 3.25943 0.852207 0
M  V30 4078 O 366.564 3.5296 1.91786 0
M  V30 4079 N 364.77 2.79304 0.802346 0
M  V30 4080 H 364.317 2.57518 -0.0650788 0
M  V30 4081 H 364.275 2.66921 1.66134 0
M  V30 4082 N 368.047 0.979072 1.23499 0
M  V30 4083 C 369.294 0.647219 1.91878 0
M  V30 4084 C 369.622 -0.819074 1.76413 0
M  V30 4085 O 368.877 -1.60616 1.11808 0
M  V30 4086 C 369.176 0.981932 3.43646 0
M  V30 4087 C 368.842 2.43822 3.79291 0
M  V30 4088 C 367.504 2.83622 3.88731 0
M  V30 4089 C 369.856 3.3828 3.96505 0
M  V30 4090 C 367.184 4.16897 4.12812 0
M  V30 4091 C 369.536 4.71197 4.22085 0
M  V30 4092 C 368.2 5.10758 4.29747 0
M  V30 4093 H 367.47 0.236834 0.702133 0
M  V30 4094 H 370.117 1.23268 1.46551 0
M  V30 4095 H 368.422 0.314365 3.90537 0
M  V30 4096 H 370.119 0.703395 3.94783 0
M  V30 4097 H 366.709 2.11966 3.72516 0
M  V30 4098 H 370.893 3.0871 3.88603 0
M  V30 4099 H 366.149 4.47157 4.16966 0
M  V30 4100 H 370.323 5.44348 4.34348 0
M  V30 4101 H 367.95 6.1405 4.48159 0
M  V30 4102 N 369.525 -1.3858 0.750561 0
M  V30 4103 C 370.473 -2.32339 0.110162 0
M  V30 4104 C 371.467 -1.53864 -0.708674 0
M  V30 4105 O 372.673 -1.69417 -0.608112 0
M  V30 4106 H 369.048 -0.751812 0.0168275 0
M  V30 4107 H 371.019 -2.83959 0.917053 0
M  V30 4108 C 369.768 -3.39043 -0.771067 0
M  V30 4109 H 369.091 -3.99517 -0.150374 0
M  V30 4110 H 370.531 -4.07061 -1.1865 0
M  V30 4111 C 368.99 -2.77365 -1.91234 0
M  V30 4112 O 369.52 -2.66434 -3.00626 0
M  V30 4113 N 367.726 -2.35219 -1.70646 0
M  V30 4114 H 367.273 -2.4431 -0.81673 0
M  V30 4115 H 367.231 -1.94294 -2.47178 0
M  V30 4116 N 371.003 -0.499398 -1.49478 0
M  V30 4117 C 372.25 0.0456899 -2.02448 0
M  V30 4118 C 372.578 1.37142 -1.37921 0
M  V30 4119 O 371.833 1.89111 -0.503544 0
M  V30 4120 C 372.132 0.248424 -3.56536 0
M  V30 4121 C 371.798 -0.999107 -4.39692 0
M  V30 4122 C 370.46 -1.34108 -4.62135 0
M  V30 4123 C 372.812 -1.82842 -4.88076 0
M  V30 4124 C 370.14 -2.51191 -5.30208 0
M  V30 4125 C 372.492 -2.99076 -5.57437 0
M  V30 4126 C 371.156 -3.33655 -5.78127 0
M  V30 4127 H 370.426 0.0167191 -0.740811 0
M  V30 4128 H 373.073 -0.65923 -1.79795 0
M  V30 4129 H 371.378 1.03586 -3.77859 0
M  V30 4130 H 373.075 0.684605 -3.95113 0
M  V30 4131 H 369.665 -0.722729 -4.22463 0
M  V30 4132 H 373.849 -1.57737 -4.70566 0
M  V30 4133 H 369.105 -2.78221 -5.44429 0
M  V30 4134 H 373.279 -3.63664 -5.93904 0
M  V30 4135 H 370.906 -4.24483 -6.30649 0
M  V30 4136 N 372.481 1.55866 -0.233164 0
M  V30 4137 C 373.391 2.24431 0.683217 0
M  V30 4138 C 374.407 1.2558 1.2044 0
M  V30 4139 O 375.583 1.58422 1.24356 0
M  V30 4140 C 372.648 2.91979 1.86947 0
M  V30 4141 C 371.709 4.06204 1.38912 0
M  V30 4142 C 370.942 4.70522 2.51883 0
M  V30 4143 O 371.165 4.33865 3.70293 0
M  V30 4144 O 370.099 5.59296 2.22423 0
M  V30 4145 H 373.925 3.03426 0.129059 0
M  V30 4146 H 371.51 1.494 -0.0022283 0
M  V30 4147 H 373.392 3.34573 2.56201 0
M  V30 4148 H 372.067 2.15935 2.41151 0
M  V30 4149 H 370.974 3.68155 0.664259 0
M  V30 4150 H 372.307 4.84025 0.893328 0
M  V30 4151 N 373.959 -0.0401083 1.57549 0
M  V30 4152 C 374.892 -1.07689 2.01192 0
M  V30 4153 C 375.87 -1.358 0.894273 0
M  V30 4154 O 377.054 -1.48642 1.15921 0
M  V30 4155 C 374.181 -2.41418 2.3756 0
M  V30 4156 C 373.227 -2.29237 3.59656 0
M  V30 4157 S 374.06 -1.65628 5.09242 0
M  V30 4158 C 375.216 -3.0087 5.48843 0
M  V30 4159 H 375.449 -0.705108 2.88817 0
M  V30 4160 H 372.982 -0.249724 1.52367 0
M  V30 4161 H 374.94 -3.18329 2.59186 0
M  V30 4162 H 373.601 -2.75747 1.50407 0
M  V30 4163 H 372.794 -3.27932 3.82722 0
M  V30 4164 H 372.396 -1.60469 3.37825 0
M  V30 4165 H 374.688 -3.97201 5.48851 0
M  V30 4166 H 375.631 -2.82549 6.49286 0
M  V30 4167 H 376.039 -3.02934 4.76331 0
M  V30 4168 N 375.437 -1.54477 -0.31217 0
M  V30 4169 C 376.684 -1.73227 -1.04875 0
M  V30 4170 C 377.012 -0.512042 -1.87639 0
M  V30 4171 O 376.267 0.506131 -1.89042 0
M  V30 4172 C 376.566 -2.967 -1.99258 0
M  V30 4173 C 376.232 -4.30974 -1.32559 0
M  V30 4174 C 374.894 -4.67477 -1.141 0
M  V30 4175 C 377.246 -5.14258 -0.847835 0
M  V30 4176 C 374.574 -5.84852 -0.465326 0
M  V30 4177 C 376.926 -6.32327 -0.185931 0
M  V30 4178 C 375.59 -6.67499 0.0107077 0
M  V30 4179 H 374.86 -0.633881 -0.383765 0
M  V30 4180 H 377.507 -1.88727 -0.324731 0
M  V30 4181 H 375.812 -2.75935 -2.7815 0
M  V30 4182 H 377.509 -3.08401 -2.563 0
M  V30 4183 H 374.099 -4.02262 -1.4793 0
M  V30 4184 H 378.283 -4.86565 -0.978192 0
M  V30 4185 H 373.539 -6.10654 -0.301883 0
M  V30 4186 H 377.713 -6.96135 0.192211 0
M  V30 4187 H 375.34 -7.58306 0.536287 0
M  V30 4188 N 376.915 0.57481 -1.46744 0
M  V30 4189 C 378.326 1.15695 -1.46532 0
M  V30 4190 C 378.677 1.95068 -0.210425 0
M  V30 4191 O 377.802 2.05241 0.685944 0
M  V30 4192 C 378.397 2.1048 -2.65487 0
M  V30 4193 C 376.956 2.64002 -2.68291 0
M  V30 4194 C 376.103 1.40026 -2.39349 0
M  V30 4195 H 379.054 0.362325 -1.54509 0
M  V30 4196 H 379.075 2.94074 -2.41455 0
M  V30 4197 H 378.587 1.52683 -3.56805 0
M  V30 4198 H 376.688 3.25646 -1.81067 0
M  V30 4199 H 376.801 3.06197 -3.68483 0
M  V30 4200 H 375.165 1.70106 -1.89568 0
M  V30 4201 H 375.948 0.840485 -3.32852 0
M  V30 4202 N 378.394 1.34581 0.820102 0
M  V30 4203 C 379.641 1.27096 1.57648 0
M  V30 4204 C 379.969 -0.158317 1.93855 0
M  V30 4205 O 379.224 -1.12028 1.60463 0
M  V30 4206 C 379.523 2.10997 2.8847 0
M  V30 4207 C 379.189 3.59966 2.71543 0
M  V30 4208 C 377.851 4.00575 2.66634 0
M  V30 4209 C 380.203 4.54548 2.55021 0
M  V30 4210 C 377.531 5.33953 2.43128 0
M  V30 4211 C 379.883 5.88109 2.33047 0
M  V30 4212 C 378.547 6.27878 2.26552 0
M  V30 4213 H 377.817 0.465078 0.576874 0
M  V30 4214 H 380.464 1.6635 0.948671 0
M  V30 4215 H 378.769 1.6458 3.55557 0
M  V30 4216 H 380.466 2.0255 3.46084 0
M  V30 4217 H 377.056 3.27733 2.76205 0
M  V30 4218 H 381.24 4.24069 2.57835 0
M  V30 4219 H 376.496 5.63781 2.3656 0
M  V30 4220 H 380.67 6.60985 2.19251 0
M  V30 4221 H 378.297 7.31162 2.081 0
M  V30 4222 N 379.872 -1.04064 1.18357 0
M  V30 4223 C 381.118 -1.77528 0.980397 0
M  V30 4224 C 381.451 -1.87948 -0.48879 0
M  V30 4225 O 380.726 -1.3876 -1.36293 0
M  V30 4226 C 381.009 -3.20797 1.63588 0
M  V30 4227 C 380.862 -3.1832 3.17793 0
M  V30 4228 C 382.181 -4.18911 1.34914 0
M  V30 4229 H 379.3 -0.644443 0.357578 0
M  V30 4230 H 381.942 -1.2156 1.46024 0
M  V30 4231 H 380.092 -3.68586 1.22788 0
M  V30 4232 H 381.764 -2.78521 3.67728 0
M  V30 4233 H 380.007 -2.56351 3.49952 0
M  V30 4234 H 380.678 -4.19489 3.58794 0
M  V30 4235 H 383.154 -3.7967 1.70265 0
M  V30 4236 H 382.03 -5.17374 1.83346 0
M  V30 4237 H 382.291 -4.41262 0.272027 0
M  V30 4238 N 381.35 -0.985608 -1.22978 0
M  V30 4239 C 382.298 -0.522631 -2.26652 0
M  V30 4240 C 383.292 0.422998 -1.64034 0
M  V30 4241 O 384.498 0.296319 -1.77544 0
M  V30 4242 H 380.873 -0.150597 -0.736766 0
M  V30 4243 H 382.844 -1.40863 -2.63059 0
M  V30 4244 C 381.593 0.154238 -3.47358 0
M  V30 4245 H 380.916 -0.564329 -3.95797 0
M  V30 4246 H 382.356 0.441744 -4.21693 0
M  V30 4247 C 380.815 1.38719 -3.07016 0
M  V30 4248 O 381.345 2.48307 -3.15764 0
M  V30 4249 N 379.551 1.25975 -2.61875 0
M  V30 4250 H 379.098 0.368068 -2.54957 0
M  V30 4251 H 379.056 2.08578 -2.3525 0
M  V30 4252 N 382.828 1.3818 -0.7579 0
M  V30 4253 C 384.105 1.94106 -0.241306 0
M  V30 4254 C 384.485 1.69282 1.26122 0
M  V30 4255 O 383.833 1.03378 2.03777 0
M  V30 4256 C 384.043 3.43809 -0.59967 0
M  V30 4257 C 385.391 4.20868 -0.561717 0
M  V30 4258 O 386.415 3.5211 -0.538222 0
M  V30 4259 O 385.274 5.43451 -0.576478 0
M  V30 4260 H 382.368 0.825376 -0.0518042 0
M  V30 4261 H 384.914 1.47548 -0.838315 0
M  V30 4262 H 383.686 3.55403 -1.6372 0
M  V30 4263 H 383.309 3.97592 0.0251197 0
M  V30 4264 N 384.306 0.507319 1.49211 0
M  V30 4265 C 385.555 -0.0368315 2.01666 0
M  V30 4266 C 385.868 -1.37459 1.39156 0
M  V30 4267 O 387.074 -2.00579 1.82976 0
M  V30 4268 C 385.53 -0.116089 3.59713 0
M  V30 4269 C 385.138 1.2154 4.31198 0
M  V30 4270 C 386.882 -0.610268 4.2009 0
M  V30 4271 C 384.789 1.09796 5.81119 0
M  V30 4272 H 383.719 -0.0175376 0.753796 0
M  V30 4273 H 386.37 0.647691 1.71689 0
M  V30 4274 H 384.752 -0.8652 3.86433 0
M  V30 4275 H 385.926 1.9783 4.16173 0
M  V30 4276 H 384.241 1.64352 3.82593 0
M  V30 4277 H 386.838 -0.715742 5.29888 0
M  V30 4278 H 387.181 -1.61064 3.8388 0
M  V30 4279 H 387.714 0.0824916 3.97714 0
M  V30 4280 H 384.453 2.0728 6.21864 0
M  V30 4281 H 383.973 0.376058 5.9862 0
M  V30 4282 H 385.652 0.779281 6.4229 0
M  V30 4283 N 385.784 -1.5574 0.241426 0
M  V30 4284 C 387.033 -1.97986 -0.385295 0
M  V30 4285 C 387.346 -1.13267 -1.59468 0
M  V30 4286 O 388.552 -1.45501 -2.2922 0
M  V30 4287 C 387.008 -3.52275 -0.736884 0
M  V30 4288 C 386.616 -4.45726 0.450796 0
M  V30 4289 C 388.36 -4.03189 -1.3281 0
M  V30 4290 C 386.267 -5.91352 0.0756662 0
M  V30 4291 H 385.197 -0.739386 -0.147731 0
M  V30 4292 H 387.848 -1.80308 0.340779 0
M  V30 4293 H 386.23 -3.65628 -1.52094 0
M  V30 4294 H 387.404 -4.44131 1.22819 0
M  V30 4295 H 385.719 -4.05264 0.956573 0
M  V30 4296 H 388.316 -5.09505 -1.62201 0
M  V30 4297 H 388.659 -3.50212 -2.25071 0
M  V30 4298 H 389.192 -3.93141 -0.607069 0
M  V30 4299 H 385.931 -6.48354 0.965272 0
M  V30 4300 H 385.451 -5.96095 -0.665635 0
M  V30 4301 H 387.13 -6.46084 -0.344075 0
M  V30 4302 N 387.262 0.0317525 -1.57568 0
M  V30 4303 C 388.21 1.05165 -2.07468 0
M  V30 4304 C 389.204 1.3761 -0.98792 0
M  V30 4305 O 390.41 1.36546 -1.17282 0
M  V30 4306 H 386.785 0.35666 -0.66204 0
M  V30 4307 H 388.756 0.604958 -2.92203 0
M  V30 4308 C 387.505 2.34488 -2.56731 0
M  V30 4309 H 386.828 2.10383 -3.39969 0
M  V30 4310 H 388.268 3.04203 -2.95358 0
M  V30 4311 C 386.727 3.03266 -1.46736 0
M  V30 4312 O 387.257 3.92988 -0.832069 0
M  V30 4313 N 385.463 2.6455 -1.20256 0
M  V30 4314 H 385.01 1.91674 -1.72102 0
M  V30 4315 H 384.968 3.10886 -0.468737 0
M  V30 4316 N 388.74 1.54641 0.303973 0
M  V30 4317 C 389.987 1.7378 1.03955 0
M  V30 4318 C 390.315 0.521986 1.87365 0
M  V30 4319 O 389.57 -0.496099 1.89308 0
M  V30 4320 C 389.869 2.97753 1.97681 0
M  V30 4321 C 389.535 4.31671 1.30271 0
M  V30 4322 C 388.197 4.68075 1.11619 0
M  V30 4323 C 390.549 5.147 0.82055 0
M  V30 4324 C 387.877 5.8509 0.434304 0
M  V30 4325 C 390.229 6.32416 0.152395 0
M  V30 4326 C 388.893 6.67484 -0.0461067 0
M  V30 4327 H 388.163 0.635908 0.380398 0
M  V30 4328 H 390.81 1.88896 0.314718 0
M  V30 4329 H 389.115 2.77406 2.76682 0
M  V30 4330 H 390.812 3.09756 2.54661 0
M  V30 4331 H 387.402 4.03041 1.45795 0
M  V30 4332 H 391.586 4.87077 0.952374 0
M  V30 4333 H 386.842 6.10806 0.269495 0
M  V30 4334 H 391.016 6.96023 -0.229126 0
M  V30 4335 H 388.643 7.58011 -0.576494 0
M  V30 4336 N 390.218 -0.567019 1.47046 0
M  V30 4337 C 391.495 -1.3276 1.43646 0
M  V30 4338 C 391.875 -2.1071 0.128186 0
M  V30 4339 O 391.223 -2.10441 -0.890326 0
M  V30 4340 C 391.433 -2.2404 2.67595 0
M  V30 4341 C 392.781 -2.85372 3.14401 0
M  V30 4342 O 393.805 -2.34346 2.68254 0
M  V30 4343 O 392.664 -3.78091 3.946 0
M  V30 4344 H 389.758 -0.597293 0.571988 0
M  V30 4345 H 392.304 -0.586735 1.59234 0
M  V30 4346 H 391.076 -1.65975 3.54356 0
M  V30 4347 H 390.699 -3.05439 2.54544 0
M  V30 4348 N 391.696 -1.35014 -0.812953 0
M  V30 4349 C 392.643 -1.27412 -1.92444 0
M  V30 4350 C 393.613 -0.14733 -1.65445 0
M  V30 4351 O 394.798 -0.329974 -1.87925 0
M  V30 4352 C 391.938 -1.04558 -3.28879 0
M  V30 4353 C 391.051 -2.26101 -3.68106 0
M  V30 4354 C 390.186 -1.96449 -4.9354 0
M  V30 4355 C 389.225 -3.14081 -5.25376 0
M  V30 4356 N 388.362 -2.84246 -6.41988 0
M  V30 4357 H 393.202 -2.22463 -1.98278 0
M  V30 4358 H 390.739 -1.10593 -0.969933 0
M  V30 4359 H 392.697 -0.893413 -4.07522 0
M  V30 4360 H 391.327 -0.131719 -3.22531 0
M  V30 4361 H 390.379 -2.52204 -2.84775 0
M  V30 4362 H 391.691 -3.13959 -3.87597 0
M  V30 4363 H 390.845 -1.78026 -5.79993 0
M  V30 4364 H 389.584 -1.05867 -4.76071 0
M  V30 4365 H 388.589 -3.33089 -4.37415 0
M  V30 4366 H 389.814 -4.05455 -5.44778 0
M  V30 4367 H 387.76 -1.96252 -6.25956 0
M  V30 4368 H 387.677 -3.65637 -6.61699 0
M  V30 4369 H 388.945 -2.6935 -7.31485 0
M  V30 4370 N 393.175 1.03435 -1.18907 0
M  V30 4371 C 394.125 2.09924 -0.889706 0
M  V30 4372 C 395.109 1.60261 0.143216 0
M  V30 4373 O 396.301 1.76892 -0.0617122 0
M  V30 4374 C 393.43 3.40669 -0.424168 0
M  V30 4375 C 392.516 3.97082 -1.48952 0
M  V30 4376 N 392.907 4.27227 -2.70759 0
M  V30 4377 C 391.205 4.25029 -1.35152 0
M  V30 4378 C 391.906 4.7246 -3.39347 0
M  V30 4379 N 390.882 4.7366 -2.66735 0
M  V30 4380 H 394.684 2.31116 -1.81555 0
M  V30 4381 H 392.198 1.21246 -1.08042 0
M  V30 4382 H 394.195 4.16461 -0.191176 0
M  V30 4383 H 392.855 3.20901 0.495263 0
M  V30 4384 H 393.866 4.16678 -3.0757 0
M  V30 4385 H 390.543 4.14554 -0.495126 0
M  V30 4386 H 391.933 5.04751 -4.43481 0
M  V30 4387 N 394.653 0.992116 1.22453 0
M  V30 4388 C 396.069 0.702713 1.43297 0
M  V30 4389 C 396.269 -0.726909 1.87932 0
M  V30 4390 O 395.325 -1.49792 2.0327 0
M  V30 4391 C 396.638 1.70762 2.47509 0
M  V30 4392 C 398.186 1.72298 2.61309 0
M  V30 4393 C 398.661 2.71649 3.68742 0
M  V30 4394 N 400.152 2.70239 3.76199 0
M  V30 4395 C 400.887 3.43778 4.58917 0
M  V30 4396 N 400.383 4.26914 5.45633 0
M  V30 4397 N 402.176 3.32487 4.5322 0
M  V30 4398 H 394.327 1.91543 0.917871 0
M  V30 4399 H 396.59 0.826031 0.465162 0
M  V30 4400 H 396.296 2.73059 2.21657 0
M  V30 4401 H 396.17 1.49985 3.46099 0
M  V30 4402 H 398.557 0.706989 2.86506 0
M  V30 4403 H 398.638 1.97143 1.62997 0
M  V30 4404 H 398.282 3.73397 3.44292 0
M  V30 4405 H 398.212 2.44074 4.66622 0
M  V30 4406 H 400.703 2.09912 3.14237 0
M  V30 4407 H 401.016 4.79855 6.05771 0
M  V30 4408 H 399.361 4.31002 5.45218 0
M  V30 4409 H 402.552 2.6698 3.84499 0
M  V30 4410 H 402.725 3.90058 5.17454 0
M  V30 4411 N 396.131 -1.37776 0.765217 0
M  V30 4412 C 397.356 -2.04651 0.336537 0
M  V30 4413 C 397.781 -1.57337 -1.03086 0
M  V30 4414 O 397.139 -0.730621 -1.65927 0
M  V30 4415 C 397.187 -3.58577 0.381468 0
M  V30 4416 O 396.291 -4.07706 -0.62042 0
M  V30 4417 H 395.632 -0.64756 0.146838 0
M  V30 4418 H 398.162 -1.76221 1.03959 0
M  V30 4419 H 398.172 -4.07314 0.236448 0
M  V30 4420 H 396.847 -3.9237 1.37907 0
M  V30 4421 H 395.424 -3.70306 -0.439056 0
M  V30 4422 N 397.609 -0.515225 -1.4894 0
M  V30 4423 C 398.556 0.255567 -2.29381 0
M  V30 4424 C 399.526 0.947387 -1.36432 0
M  V30 4425 O 400.711 0.951288 -1.65394 0
M  V30 4426 C 397.851 1.30551 -3.19453 0
M  V30 4427 C 396.964 0.624029 -4.27469 0
M  V30 4428 C 396.099 1.65563 -5.0474 0
M  V30 4429 C 395.138 0.956802 -6.04576 0
M  V30 4430 N 394.275 1.93326 -6.74959 0
M  V30 4431 H 399.115 -0.436607 -2.94784 0
M  V30 4432 H 396.652 -0.227154 -1.45336 0
M  V30 4433 H 398.61 1.92639 -3.70062 0
M  V30 4434 H 397.24 1.96626 -2.56004 0
M  V30 4435 H 396.292 -0.110459 -3.8024 0
M  V30 4436 H 397.604 0.0746092 -4.98744 0
M  V30 4437 H 396.758 2.35119 -5.59289 0
M  V30 4438 H 395.497 2.23893 -4.3327 0
M  V30 4439 H 394.502 0.247097 -5.49244 0
M  V30 4440 H 395.727 0.379814 -6.78037 0
M  V30 4441 H 393.673 2.50591 -6.06251 0
M  V30 4442 H 393.59 1.43489 -7.42258 0
M  V30 4443 H 394.858 2.62126 -7.34105 0
M  V30 4444 N 399.087 1.5561 -0.249682 0
M  V30 4445 C 400.034 2.21496 0.648694 0
M  V30 4446 C 401.004 1.17977 1.16921 0
M  V30 4447 O 402.189 1.46434 1.22318 0
M  V30 4448 C 399.329 2.92039 1.83868 0
M  V30 4449 C 398.442 4.10219 1.35442 0
M  V30 4450 C 397.577 4.6847 2.50419 0
M  V30 4451 C 396.616 5.78893 1.98869 0
M  V30 4452 N 395.753 6.31315 3.07223 0
M  V30 4453 H 400.593 2.97892 0.0801582 0
M  V30 4454 H 398.13 1.47074 0.0278031 0
M  V30 4455 H 400.088 3.31138 2.53778 0
M  V30 4456 H 398.718 2.18111 2.37965 0
M  V30 4457 H 397.77 3.76413 0.54928 0
M  V30 4458 H 399.082 4.89927 0.936649 0
M  V30 4459 H 398.236 5.10158 3.28366 0
M  V30 4460 H 396.975 3.87984 2.95499 0
M  V30 4461 H 395.98 5.3668 1.19393 0
M  V30 4462 H 397.205 6.61232 1.54755 0
M  V30 4463 H 395.151 5.53733 3.51732 0
M  V30 4464 H 395.068 7.06224 2.69784 0
M  V30 4465 H 396.336 6.77662 3.8522 0
M  V30 4466 N 400.565 -0.0233959 1.57583 0
M  V30 4467 C 401.811 -0.708611 1.90657 0
M  V30 4468 C 402.166 -1.7266 0.848895 0
M  V30 4469 O 401.459 -1.91075 -0.141749 0
M  V30 4470 C 401.653 -1.41428 3.28227 0
M  V30 4471 C 401.482 -0.466155 4.47277 0
M  V30 4472 C 400.252 -0.085117 5.05228 0
M  V30 4473 C 402.45 0.257836 5.13653 0
M  V30 4474 N 400.432 0.863672 6.07794 0
M  V30 4475 C 401.803 1.06209 6.10835 0
M  V30 4476 C 403.858 0.324174 4.96844 0
M  V30 4477 C 402.561 1.9266 6.93018 0
M  V30 4478 C 404.587 1.17583 5.79593 0
M  V30 4479 C 403.949 1.96799 6.7635 0
M  V30 4480 H 400.048 -0.233222 0.746412 0
M  V30 4481 H 402.632 0.0314512 1.94675 0
M  V30 4482 H 400.803 -2.12477 3.25128 0
M  V30 4483 H 402.535 -2.05233 3.488 0
M  V30 4484 H 399.29 -0.448516 4.71471 0
M  V30 4485 H 399.714 1.33274 6.63752 0
M  V30 4486 H 404.356 -0.273975 4.21911 0
M  V30 4487 H 402.074 2.53552 7.67292 0
M  V30 4488 H 405.66 1.23076 5.68633 0
M  V30 4489 H 404.54 2.61635 7.39268 0
M  V30 4490 N 402.043 -1.548 -0.295768 0
M  V30 4491 C 403.292 -1.73538 -1.02798 0
M  V30 4492 C 403.605 -0.531159 -1.8825 0
M  V30 4493 O 404.811 -0.600458 -2.64777 0
M  V30 4494 C 403.267 -3.07051 -1.87744 0
M  V30 4495 C 402.875 -4.34968 -1.07269 0
M  V30 4496 C 404.619 -3.35146 -2.60533 0
M  V30 4497 C 402.526 -5.5953 -1.91521 0
M  V30 4498 H 401.456 -0.646794 -0.387522 0
M  V30 4499 H 404.107 -1.81278 -0.284718 0
M  V30 4500 H 402.489 -2.93289 -2.66078 0
M  V30 4501 H 403.663 -4.5958 -0.335117 0
M  V30 4502 H 401.978 -4.13847 -0.460384 0
M  V30 4503 H 404.575 -4.2541 -3.23929 0
M  V30 4504 H 404.918 -2.54255 -3.29636 0
M  V30 4505 H 405.451 -3.49902 -1.89244 0
M  V30 4506 H 402.19 -6.43103 -1.26878 0
M  V30 4507 H 401.71 -5.39096 -2.62937 0
M  V30 4508 H 403.389 -5.96982 -2.49442 0
M  V30 4509 N 403.521 0.559213 -1.47345 0
M  V30 4510 C 404.749 1.34194 -1.57479 0
M  V30 4511 C 405.164 1.87463 -0.224261 0
M  V30 4512 O 404.521 1.64888 0.782185 0
M  V30 4513 C 404.572 2.51324 -2.59843 0
M  V30 4514 O 404.293 2.00256 -3.89653 0
M  V30 4515 C 405.794 3.43563 -2.80142 0
M  V30 4516 H 403.014 0.409136 -0.531835 0
M  V30 4517 H 405.558 0.677609 -1.92947 0
M  V30 4518 H 403.713 3.13699 -2.27314 0
M  V30 4519 H 404.127 2.76708 -4.4557 0
M  V30 4520 H 405.601 4.2217 -3.55635 0
M  V30 4521 H 406.078 3.9698 -1.87892 0
M  V30 4522 H 406.684 2.87005 -3.1386 0
M  V30 4523 N 404.999 1.35443 0.805782 0
M  V30 4524 C 406.246 1.28761 1.56291 0
M  V30 4525 C 406.574 -0.137747 1.94012 0
M  V30 4526 O 405.829 -1.1032 1.61642 0
M  V30 4527 C 406.128 2.14045 2.86216 0
M  V30 4528 C 405.794 3.62826 2.67709 0
M  V30 4529 C 404.456 4.0338 2.6237 0
M  V30 4530 C 406.808 4.57227 2.50186 0
M  V30 4531 C 404.136 5.36501 2.37451 0
M  V30 4532 C 406.488 5.90547 2.26797 0
M  V30 4533 C 405.152 6.30245 2.1988 0
M  V30 4534 H 404.422 0.471171 0.571908 0
M  V30 4535 H 407.069 1.67347 0.930974 0
M  V30 4536 H 405.374 1.68342 3.53791 0
M  V30 4537 H 407.071 2.0621 3.43917 0
M  V30 4538 H 403.661 3.30644 2.72713 0
M  V30 4539 H 407.845 4.2678 2.53323 0
M  V30 4540 H 403.101 5.66259 2.30567 0
M  V30 4541 H 407.275 6.63274 2.12228 0
M  V30 4542 H 404.902 7.33328 2.00333 0
M  V30 4543 N 406.477 -1.02803 1.19454 0
M  V30 4544 C 407.424 -2.11099 0.933046 0
M  V30 4545 C 408.394 -1.65571 -0.132447 0
M  V30 4546 O 409.579 -1.90797 0.00987576 0
M  V30 4547 C 406.719 -3.41763 0.478747 0
M  V30 4548 C 405.832 -4.00833 1.6111 0
M  V30 4549 C 404.967 -5.19511 1.10825 0
M  V30 4550 C 404.006 -5.70639 2.21445 0
M  V30 4551 N 403.143 -6.80589 1.72461 0
M  V30 4552 H 407.983 -2.32804 1.86028 0
M  V30 4553 H 405.52 -1.14179 0.927441 0
M  V30 4554 H 407.478 -4.16736 0.196745 0
M  V30 4555 H 406.108 -3.20166 -0.411493 0
M  V30 4556 H 405.16 -3.23066 2.00829 0
M  V30 4557 H 406.472 -4.34794 2.4445 0
M  V30 4558 H 405.626 -6.01645 0.781533 0
M  V30 4559 H 404.365 -4.87086 0.244606 0
M  V30 4560 H 403.37 -4.87116 2.54947 0
M  V30 4561 H 404.595 -6.05102 3.08267 0
M  V30 4562 H 402.541 -6.50016 0.884056 0
M  V30 4563 H 402.458 -7.13681 2.49389 0
M  V30 4564 H 403.726 -7.66317 1.42755 0
M  V30 4565 N 407.956 -0.998596 -1.21925 0
M  V30 4566 C 409.203 -0.677663 -1.90824 0
M  V30 4567 C 409.531 0.790905 -1.77693 0
M  V30 4568 O 408.786 1.58817 -1.14349 0
M  V30 4569 C 409.085 -1.03648 -3.42041 0
M  V30 4570 C 408.751 -2.49825 -3.75364 0
M  V30 4571 C 407.413 -2.8977 -3.8417 0
M  V30 4572 C 409.765 -3.44545 -3.91073 0
M  V30 4573 C 407.093 -4.23412 -4.06127 0
M  V30 4574 C 409.445 -4.77853 -4.14535 0
M  V30 4575 C 408.109 -5.17531 -4.21566 0
M  V30 4576 H 407.379 -0.247975 -0.698276 0
M  V30 4577 H 410.026 -1.25584 -1.44571 0
M  V30 4578 H 408.331 -0.376457 -3.89987 0
M  V30 4579 H 410.028 -0.766113 -3.93614 0
M  V30 4580 H 406.618 -2.17866 -3.69097 0
M  V30 4581 H 410.802 -3.14853 -3.83642 0
M  V30 4582 H 406.058 -4.53734 -4.09799 0
M  V30 4583 H 410.232 -5.51189 -4.25633 0
M  V30 4584 H 407.859 -6.21102 -4.38333 0
M  V30 4585 N 409.434 1.37368 -0.772513 0
M  V30 4586 C 410.682 1.99279 -0.336516 0
M  V30 4587 C 411.003 1.6163 1.09091 0
M  V30 4588 O 410.273 0.882109 1.74916 0
M  V30 4589 H 408.853 0.737063 -0.121435 0
M  V30 4590 H 411.515 1.67836 -0.990809 0
M  V30 4591 H 410.611 3.09332 -0.414763 0
M  V30 4592 N 410.912 0.523116 1.48665 0
M  V30 4593 C 411.862 -0.263106 2.26477 0
M  V30 4594 C 412.846 -0.916005 1.32281 0
M  V30 4595 O 414.038 -0.819946 1.56863 0
M  V30 4596 C 411.167 -1.31361 3.17174 0
M  V30 4597 C 410.253 -0.665849 4.1884 0
M  V30 4598 N 410.644 0.244434 5.05209 0
M  V30 4599 C 408.942 -0.923863 4.36326 0
M  V30 4600 C 409.643 0.617443 5.78414 0
M  V30 4601 N 408.619 -0.0198686 5.43596 0
M  V30 4602 H 412.421 0.437295 2.90629 0
M  V30 4603 H 409.935 0.340675 1.58787 0
M  V30 4604 H 411.932 -1.89052 3.71571 0
M  V30 4605 H 410.592 -2.01546 2.54576 0
M  V30 4606 H 411.603 0.616621 5.14216 0
M  V30 4607 H 408.28 -1.6168 3.84923 0
M  V30 4608 H 409.67 1.36346 6.57921 0
M  V30 4609 N 412.39 -1.55475 0.257931 0
M  V30 4610 C 413.322 -2.19192 -0.669881 0
M  V30 4611 C 414.335 -1.17148 -1.1305 0
M  V30 4612 O 415.524 -1.43959 -1.05537 0
M  V30 4613 C 412.624 -2.79016 -1.92363 0
M  V30 4614 C 411.797 -4.06586 -1.61265 0
M  V30 4615 C 410.856 -4.50622 -2.7171 0
M  V30 4616 O 409.882 -5.16765 -2.38627 0
M  V30 4617 N 411.084 -4.19325 -4.01431 0
M  V30 4618 H 413.849 -2.99441 -0.124635 0
M  V30 4619 H 411.41 -1.6171 0.0783311 0
M  V30 4620 H 413.402 -3.05427 -2.65511 0
M  V30 4621 H 411.972 -2.0286 -2.37837 0
M  V30 4622 H 411.192 -3.87646 -0.715811 0
M  V30 4623 H 412.48 -4.89737 -1.37967 0
M  V30 4624 H 411.878 -3.66247 -4.31138 0
M  V30 4625 H 410.435 -4.50547 -4.7101 0
M  V30 4626 N 413.868 0.0150385 -1.57593 0
M  V30 4627 C 415.117 0.702115 -1.89085 0
M  V30 4628 C 415.43 1.75764 -0.858277 0
M  V30 4629 O 416.636 2.49829 -1.0629 0
M  V30 4630 C 415.092 1.29992 -3.35604 0
M  V30 4631 C 414.7 0.280007 -4.47124 0
M  V30 4632 C 416.444 1.96606 -3.76227 0
M  V30 4633 C 414.351 0.886949 -5.84711 0
M  V30 4634 H 413.281 0.265997 -0.705522 0
M  V30 4635 H 415.932 -0.0430408 -1.8345 0
M  V30 4636 H 414.314 2.09525 -3.36029 0
M  V30 4637 H 415.488 -0.489631 -4.58191 0
M  V30 4638 H 413.803 -0.284835 -4.15425 0
M  V30 4639 H 416.4 2.42893 -4.76347 0
M  V30 4640 H 416.743 2.79024 -3.08952 0
M  V30 4641 H 417.276 1.23828 -3.78036 0
M  V30 4642 H 414.015 0.101876 -6.55421 0
M  V30 4643 H 413.535 1.6261 -5.77337 0
M  V30 4644 H 415.214 1.39011 -6.3189 0
M  V30 4645 N 415.346 1.54954 0.287554 0
M  V30 4646 C 416.276 1.89839 1.35954 0
M  V30 4647 C 417.257 0.758675 1.52244 0
M  V30 4648 O 418.442 1.01557 1.65529 0
M  V30 4649 C 415.572 2.15753 2.72154 0
M  V30 4650 C 414.526 3.3159 2.70614 0
M  V30 4651 C 413.852 3.42952 4.10229 0
M  V30 4652 C 415.152 4.68359 2.31165 0
M  V30 4653 H 416.846 2.79625 1.07007 0
M  V30 4654 H 414.392 1.3454 0.513316 0
M  V30 4655 H 416.345 2.38743 3.47246 0
M  V30 4656 H 415.069 1.22752 3.02654 0
M  V30 4657 H 413.728 3.08545 1.97979 0
M  V30 4658 H 413.376 2.47443 4.37928 0
M  V30 4659 H 413.076 4.20826 4.10097 0
M  V30 4660 H 414.6 3.68218 4.87081 0
M  V30 4661 H 416.014 4.9099 2.95976 0
M  V30 4662 H 414.411 5.49044 2.42221 0
M  V30 4663 H 415.481 4.68165 1.26291 0
M  V30 4664 N 416.824 -0.551391 1.4764 0
M  V30 4665 C 418.24 -0.877887 1.33287 0
M  V30 4666 C 418.44 -1.98817 0.327721 0
M  V30 4667 O 417.496 -2.51171 -0.258695 0
M  V30 4668 C 418.809 -1.26563 2.72768 0
M  V30 4669 C 420.357 -1.37673 2.81097 0
M  V30 4670 C 420.832 -1.79799 4.21232 0
M  V30 4671 N 422.323 -1.8694 4.23802 0
M  V30 4672 C 423.058 -2.20876 5.29151 0
M  V30 4673 N 422.554 -2.53386 6.448 0
M  V30 4674 N 424.347 -2.217 5.16532 0
M  V30 4675 H 416.498 0.18153 2.11623 0
M  V30 4676 H 418.761 0.0185514 0.947818 0
M  V30 4677 H 418.467 -0.523591 3.47781 0
M  V30 4678 H 418.341 -2.22052 3.04915 0
M  V30 4679 H 420.728 -2.10956 2.06353 0
M  V30 4680 H 420.809 -0.40357 2.52596 0
M  V30 4681 H 420.453 -1.07083 4.96483 0
M  V30 4682 H 420.383 -2.78128 4.4716 0
M  V30 4683 H 422.874 -1.64179 3.40373 0
M  V30 4684 H 423.187 -2.78325 7.20941 0
M  V30 4685 H 421.532 -2.50953 6.48111 0
M  V30 4686 H 424.723 -1.95745 4.25207 0
M  V30 4687 H 424.896 -2.47818 5.98741 0
M  V30 4688 N 418.302 -1.35869 -0.798587 0
M  V30 4689 C 419.527 -1.32883 -1.59238 0
M  V30 4690 C 419.952 0.0894587 -1.87887 0
M  V30 4691 O 419.31 1.05869 -1.47178 0
M  V30 4692 C 419.358 -2.14892 -2.89575 0
M  V30 4693 O 418.462 -1.53512 -3.82763 0
M  V30 4694 H 417.803 -0.455236 -0.48338 0
M  V30 4695 H 420.333 -1.79024 -0.990539 0
M  V30 4696 H 420.343 -2.27139 -3.38928 0
M  V30 4697 H 419.018 -3.17998 -2.68049 0
M  V30 4698 H 417.595 -1.50153 -3.41334 0
M  V30 4699 N 419.78 1.02168 -1.19998 0
M  V30 4700 C 421.029 1.75091 -1.0013 0
M  V30 4701 C 421.342 1.89923 0.467835 0
M  V30 4702 O 422.548 2.59888 0.785515 0
M  V30 4703 C 421.004 3.14892 -1.74273 0
M  V30 4704 C 420.612 3.0809 -3.25245 0
M  V30 4705 C 422.356 3.9206 -1.62755 0
M  V30 4706 C 420.263 4.42867 -3.91948 0
M  V30 4707 H 419.193 0.656394 -0.37103 0
M  V30 4708 H 421.844 1.14284 -1.43567 0
M  V30 4709 H 420.226 3.7621 -1.2362 0
M  V30 4710 H 421.4 2.5611 -3.83072 0
M  V30 4711 H 419.715 2.44416 -3.3712 0
M  V30 4712 H 422.312 4.91764 -2.09934 0
M  V30 4713 H 422.655 4.12199 -0.582894 0
M  V30 4714 H 423.188 3.37359 -2.10793 0
M  V30 4715 H 419.927 4.27931 -4.96543 0
M  V30 4716 H 419.447 4.94874 -3.3891 0
M  V30 4717 H 421.126 5.11728 -3.95909 0
M  V30 4718 N 421.258 1.00505 1.21394 0
M  V30 4719 C 422.486 0.706609 1.9446 0
M  V30 4720 C 422.901 -0.73081 1.74082 0
M  V30 4721 O 422.258 -1.49446 1.04747 0
M  V30 4722 C 422.309 1.01824 3.46863 0
M  V30 4723 O 422.03 2.39919 3.66566 0
M  V30 4724 C 423.531 0.739216 4.37093 0
M  V30 4725 H 420.751 0.260394 0.618414 0
M  V30 4726 H 423.295 1.34311 1.54211 0
M  V30 4727 H 421.45 0.427343 3.85036 0
M  V30 4728 H 421.864 2.50784 4.6066 0
M  V30 4729 H 423.338 1.00744 5.42729 0
M  V30 4730 H 423.815 -0.326746 4.37983 0
M  V30 4731 H 424.421 1.31173 4.04566 0
M  V30 4732 N 422.737 -1.36956 0.779787 0
M  V30 4733 C 423.685 -2.32053 0.15942 0
M  V30 4734 C 424.679 -1.55333 -0.675878 0
M  V30 4735 O 425.885 -1.70668 -0.57204 0
M  V30 4736 H 422.26 -0.751286 0.0327707 0
M  V30 4737 H 424.231 -2.8195 0.977078 0
M  V30 4738 C 422.98 -3.40602 -0.698977 0
M  V30 4739 H 422.303 -3.99746 -0.0655966 0
M  V30 4740 H 423.743 -4.09486 -1.09989 0
M  V30 4741 C 422.202 -2.81359 -1.85307 0
M  V30 4742 O 422.732 -2.72751 -2.94906 0
M  V30 4743 N 420.938 -2.38786 -1.65619 0
M  V30 4744 H 420.485 -2.45987 -0.764725 0
M  V30 4745 H 420.443 -1.99493 -2.43002 0
M  V30 4746 N 424.215 -0.530993 -1.48385 0
M  V30 4747 C 425.145 0.219985 -2.32461 0
M  V30 4748 C 426.126 0.934111 -1.42156 0
M  V30 4749 O 427.311 0.919694 -1.71042 0
M  V30 4750 C 424.441 1.26674 -3.23375 0
M  V30 4751 C 423.395 0.67069 -4.22712 0
M  V30 4752 C 422.721 1.82017 -5.02766 0
M  V30 4753 C 424.021 -0.358268 -5.2107 0
M  V30 4754 H 425.715 -0.48187 -2.95497 0
M  V30 4755 H 423.261 -0.233182 -1.42099 0
M  V30 4756 H 425.214 1.80006 -3.81019 0
M  V30 4757 H 423.938 1.99818 -2.58341 0
M  V30 4758 H 422.597 0.158878 -3.66256 0
M  V30 4759 H 422.245 2.54002 -4.34157 0
M  V30 4760 H 421.945 1.42727 -5.70003 0
M  V30 4761 H 423.469 2.35725 -5.63264 0
M  V30 4762 H 424.883 0.0880081 -5.73232 0
M  V30 4763 H 423.28 -0.66861 -5.96364 0
M  V30 4764 H 424.35 -1.26367 -4.68145 0
M  V30 4765 N 425.693 1.55336 -0.266172 0
M  V30 4766 C 427.109 1.59356 0.0882065 0
M  V30 4767 C 427.309 1.2834 1.55342 0
M  V30 4768 O 426.365 1.03996 2.30089 0
M  V30 4769 C 427.678 2.99409 -0.278364 0
M  V30 4770 C 429.226 3.12196 -0.224243 0
M  V30 4771 C 429.701 4.545 -0.565123 0
M  V30 4772 N 431.192 4.60313 -0.51634 0
M  V30 4773 C 431.927 5.68434 -0.753013 0
M  V30 4774 N 431.423 6.84738 -1.05383 0
M  V30 4775 N 433.216 5.57942 -0.682414 0
M  V30 4776 H 425.367 1.73764 -1.22147 0
M  V30 4777 H 427.63 0.809822 -0.492841 0
M  V30 4778 H 427.336 3.2691 -1.29703 0
M  V30 4779 H 427.21 3.75228 0.385186 0
M  V30 4780 H 429.597 2.84464 0.78512 0
M  V30 4781 H 429.678 2.38609 -0.921922 0
M  V30 4782 H 429.322 4.82956 -1.57213 0
M  V30 4783 H 429.252 5.26374 0.154248 0
M  V30 4784 H 431.743 3.7676 -0.29335 0
M  V30 4785 H 432.056 7.63088 -1.22133 0
M  V30 4786 H 430.401 6.86375 -1.09151 0
M  V30 4787 H 433.592 4.65958 -0.44731 0
M  V30 4788 H 433.765 6.4213 -0.870248 0
M  V30 4789 N 427.171 -0.0066808 1.57599 0
M  V30 4790 C 428.118 -1.00024 2.08 0
M  V30 4791 C 429.088 -1.34549 0.973943 0
M  V30 4792 O 430.273 -1.44502 1.24595 0
M  V30 4793 C 427.413 -2.2891 2.58252 0
M  V30 4794 C 426.526 -2.00346 3.82734 0
M  V30 4795 C 425.661 -3.23265 4.21513 0
M  V30 4796 C 424.7 -2.90357 5.3885 0
M  V30 4797 N 423.837 -4.05793 5.72954 0
M  V30 4798 H 428.677 -0.563499 2.92624 0
M  V30 4799 H 426.214 -0.266592 1.44664 0
M  V30 4800 H 428.172 -3.04247 2.85464 0
M  V30 4801 H 426.802 -2.70265 1.76512 0
M  V30 4802 H 425.854 -1.15406 3.62471 0
M  V30 4803 H 427.166 -1.72086 4.68175 0
M  V30 4804 H 426.32 -4.06953 4.49971 0
M  V30 4805 H 425.059 -3.54657 3.34768 0
M  V30 4806 H 424.064 -2.05075 5.10122 0
M  V30 4807 H 425.289 -2.60219 6.27266 0
M  V30 4808 H 423.235 -4.37094 4.89167 0
M  V30 4809 H 423.152 -3.81034 6.52954 0
M  V30 4810 H 424.42 -4.90289 6.06001 0
M  V30 4811 N 428.649 -1.55105 -0.279332 0
M  V30 4812 C 429.926 -1.66119 -1.03267 0
M  V30 4813 C 430.306 -0.523525 -2.04505 0
M  V30 4814 O 429.654 0.477194 -2.23462 0
M  V30 4815 C 429.864 -3.05067 -1.69515 0
M  V30 4816 C 431.212 -3.62606 -2.20912 0
M  V30 4817 O 432.236 -3.07659 -1.79512 0
M  V30 4818 O 431.095 -4.58861 -2.96831 0
M  V30 4819 H 428.189 -0.674429 -0.478618 0
M  V30 4820 H 430.735 -1.67446 -0.275694 0
M  V30 4821 H 429.507 -3.79311 -0.9612 0
M  V30 4822 H 429.13 -3.07611 -2.51915 0
M  V30 4823 N 430.127 0.543554 -1.4793 0
M  V30 4824 C 431.376 1.29649 -1.54512 0
M  V30 4825 C 431.689 1.94382 -0.217973 0
M  V30 4826 O 432.895 2.71017 -0.161908 0
M  V30 4827 C 431.351 2.35175 -2.72435 0
M  V30 4828 C 430.959 1.76572 -4.11736 0
M  V30 4829 C 432.703 3.11564 -2.8832 0
M  V30 4830 C 430.61 2.79958 -5.20939 0
M  V30 4831 H 429.54 0.487541 -0.57517 0
M  V30 4832 H 432.191 0.575708 -1.74235 0
M  V30 4833 H 430.573 3.10229 -2.46118 0
M  V30 4834 H 431.747 1.07799 -4.48013 0
M  V30 4835 H 430.062 1.12722 -4.00852 0
M  V30 4836 H 432.659 3.88794 -3.67074 0
M  V30 4837 H 433.002 3.66594 -1.97268 0
M  V30 4838 H 433.535 2.43623 -3.14472 0
M  V30 4839 H 430.274 2.29766 -6.13912 0
M  V30 4840 H 429.794 3.47101 -4.89164 0
M  V30 4841 H 431.473 3.43198 -5.48474 0
M  V30 4842 N 431.605 1.3629 0.791371 0
M  V30 4843 C 432.537 1.26321 1.91248 0
M  V30 4844 C 433.55 0.18313 1.61767 0
M  V30 4845 O 434.739 0.437682 1.73051 0
M  V30 4846 C 431.839 0.925901 3.26007 0
M  V30 4847 C 431.012 2.10746 3.83281 0
M  V30 4848 C 430.071 1.74352 4.96475 0
M  V30 4849 O 429.097 2.46416 5.13096 0
M  V30 4850 N 430.299 0.676058 5.7655 0
M  V30 4851 H 433.064 2.22915 2.00323 0
M  V30 4852 H 430.625 1.29659 0.969546 0
M  V30 4853 H 432.617 0.663636 3.99222 0
M  V30 4854 H 431.187 0.0491581 3.12561 0
M  V30 4855 H 430.407 2.53264 3.02077 0
M  V30 4856 H 431.695 2.8969 4.18279 0
M  V30 4857 H 431.093 0.0776467 5.65647 0
M  V30 4858 H 429.65 0.473612 6.50077 0
M  V30 4859 N 433.083 -1.0153 1.20538 0
M  V30 4860 C 434.313 -1.78487 1.04048 0
M  V30 4861 C 434.721 -1.84631 -0.413292 0
M  V30 4862 O 434.064 -1.29919 -1.29872 0
M  V30 4863 C 434.126 -3.24367 1.55003 0
M  V30 4864 C 433.79 -3.41827 3.0332 0
M  V30 4865 C 434.787 -3.30941 4.00966 0
M  V30 4866 C 432.472 -3.67602 3.42307 0
M  V30 4867 C 434.466 -3.45577 5.35589 0
M  V30 4868 C 432.153 -3.81881 4.77085 0
M  V30 4869 C 433.151 -3.70874 5.73534 0
M  V30 4870 O 432.839 -3.84714 7.05868 0
M  V30 4871 H 432.571 -0.568108 0.366373 0
M  V30 4872 H 435.125 -1.28677 1.60098 0
M  V30 4873 H 433.355 -3.75266 0.933397 0
M  V30 4874 H 435.044 -3.82963 1.34514 0
M  V30 4875 H 435.81 -3.10964 3.72191 0
M  V30 4876 H 431.689 -3.75256 2.67776 0
M  V30 4877 H 435.233 -3.36902 6.10854 0
M  V30 4878 H 431.13 -4.01359 5.0555 0
M  V30 4879 H 431.898 -4.01724 7.13134 0
M  V30 4880 N 434.561 -1.01147 -1.20859 0
M  V30 4881 C 435.81 -0.693214 -1.89413 0
M  V30 4882 C 436.123 0.779969 -1.79376 0
M  V30 4883 O 437.329 1.21057 -2.43017 0
M  V30 4884 C 435.785 -1.18949 -3.39675 0
M  V30 4885 C 435.393 -2.68921 -3.58309 0
M  V30 4886 C 437.137 -0.94642 -4.13815 0
M  V30 4887 C 435.044 -3.12056 -5.0237 0
M  V30 4888 H 433.974 -0.255595 -0.709357 0
M  V30 4889 H 436.625 -1.22349 -1.36759 0
M  V30 4890 H 435.007 -0.587228 -3.91622 0
M  V30 4891 H 436.181 -3.34652 -3.16772 0
M  V30 4892 H 434.496 -2.91314 -2.97532 0
M  V30 4893 H 437.093 -1.24417 -5.20023 0
M  V30 4894 H 437.436 0.117219 -4.16135 0
M  V30 4895 H 437.969 -1.5118 -3.67953 0
M  V30 4896 H 434.708 -4.17674 -5.05202 0
M  V30 4897 H 434.228 -2.51041 -5.44737 0
M  V30 4898 H 435.907 -3.04403 -5.70918 0
M  V30 4899 N 436.039 1.36541 -0.78704 0
M  V30 4900 C 437.45 1.81873 -0.421807 0
M  V30 4901 C 437.801 1.65487 1.05397 0
M  V30 4902 O 436.926 1.17448 1.81755 0
M  V30 4903 C 437.521 3.30192 -0.758841 0
M  V30 4904 C 436.08 3.73743 -0.446468 0
M  V30 4905 C 435.227 2.58844 -0.994728 0
M  V30 4906 H 438.178 1.24796 -0.98039 0
M  V30 4907 H 438.199 3.80468 -0.0490648 0
M  V30 4908 H 437.711 3.42087 -1.83299 0
M  V30 4909 H 435.812 3.6741 0.619739 0
M  V30 4910 H 435.925 4.69272 -0.965415 0
M  V30 4911 H 434.289 2.51245 -0.418087 0
M  V30 4912 H 435.072 2.73525 -2.07458 0
M  V30 4913 N 437.518 0.538854 1.48102 0
M  V30 4914 C 438.465 -0.219042 2.29758 0
M  V30 4915 C 439.435 -0.925562 1.37922 0
M  V30 4916 O 440.62 -0.924855 1.66886 0
M  V30 4917 C 437.76 -1.25452 3.2149 0
M  V30 4918 C 436.873 -0.555943 4.28408 0
M  V30 4919 C 436.008 -1.57512 5.0731 0
M  V30 4920 C 435.047 -0.860498 6.06021 0
M  V30 4921 N 434.184 -1.82564 6.77949 0
M  V30 4922 H 439.024 0.483449 2.94052 0
M  V30 4923 H 436.561 0.250247 1.44956 0
M  V30 4924 H 438.519 -1.86727 3.7308 0
M  V30 4925 H 437.149 -1.92528 2.591 0
M  V30 4926 H 436.201 0.170938 3.80016 0
M  V30 4927 H 437.513 0.00474616 4.988 0
M  V30 4928 H 436.667 -2.26191 5.62959 0
M  V30 4929 H 435.406 -2.16972 4.36778 0
M  V30 4930 H 434.411 -0.159686 5.49568 0
M  V30 4931 H 435.636 -0.271897 6.78555 0
M  V30 4932 H 433.582 -2.40915 6.10161 0
M  V30 4933 H 433.499 -1.31662 7.44447 0
M  V30 4934 H 434.767 -2.50414 7.38182 0
M  V30 4935 N 438.996 -1.55193 0.274407 0
M  V30 4936 C 440.273 -1.91584 -0.394331 0
M  V30 4937 C 440.653 -1.19858 -1.73774 0
M  V30 4938 O 440.001 -0.3252 -2.26174 0
M  V30 4939 C 440.211 -3.4487 -0.535311 0
M  V30 4940 C 441.559 -4.16636 -0.818534 0
M  V30 4941 O 442.583 -3.5076 -0.620146 0
M  V30 4942 O 441.442 -5.33209 -1.19792 0
M  V30 4943 H 438.536 -0.798349 -0.215794 0
M  V30 4944 H 441.082 -1.66646 0.320507 0
M  V30 4945 H 439.854 -3.89145 0.410141 0
M  V30 4946 H 439.477 -3.75759 -1.29964 0
M  V30 4947 N 440.474 -0.00167713 -1.576 0
M  V30 4948 C 441.723 0.682021 -1.89819 0
M  V30 4949 C 442.036 1.74844 -0.876871 0
M  V30 4950 O 443.242 2.48688 -1.08934 0
M  V30 4951 C 441.698 1.26425 -3.36964 0
M  V30 4952 C 441.306 0.232568 -4.47396 0
M  V30 4953 C 443.05 1.92604 -3.78291 0
M  V30 4954 C 440.957 0.824882 -5.85619 0
M  V30 4955 H 439.887 0.258499 -0.708304 0
M  V30 4956 H 442.538 -0.0624957 -1.83394 0
M  V30 4957 H 440.92 2.05949 -3.38232 0
M  V30 4958 H 442.094 -0.5382 -4.57646 0
M  V30 4959 H 440.409 -0.32888 -4.15099 0
M  V30 4960 H 443.006 2.37827 -4.78897 0
M  V30 4961 H 443.349 2.75732 -3.11894 0
M  V30 4962 H 443.882 1.19812 -3.79328 0
M  V30 4963 H 440.621 0.0323542 -6.55492 0
M  V30 4964 H 440.141 1.56477 -5.79029 0
M  V30 4965 H 441.82 1.32301 -6.33329 0
M  V30 4966 N 441.952 1.55251 0.271103 0
M  V30 4967 C 443.363 1.66635 0.842007 0
M  V30 4968 C 443.714 0.594631 1.86972 0
M  V30 4969 O 442.839 -0.263532 2.14789 0
M  V30 4970 C 443.434 3.02082 1.53401 0
M  V30 4971 C 441.993 3.15487 2.05293 0
M  V30 4972 C 441.14 2.62438 0.895631 0
M  V30 4973 H 444.091 1.58629 0.0474117 0
M  V30 4974 H 444.112 2.95176 2.40107 0
M  V30 4975 H 443.624 3.80062 0.785786 0
M  V30 4976 H 441.725 2.42284 2.83071 0
M  V30 4977 H 441.838 4.22075 2.26693 0
M  V30 4978 H 440.202 2.19644 1.28953 0
M  V30 4979 H 440.985 3.42923 0.160878 0
M  V30 4980 N 443.43 -0.535701 1.48216 0
M  V30 4981 C 444.679 -1.28828 1.55197 0
M  V30 4982 C 444.992 -1.94263 0.228278 0
M  V30 4983 O 446.198 -2.70927 0.176278 0
M  V30 4984 C 444.654 -2.33727 2.73678 0
M  V30 4985 C 444.262 -1.74386 4.12666 0
M  V30 4986 C 446.006 -3.1003 2.89968 0
M  V30 4987 C 443.913 -2.77192 5.22416 0
M  V30 4988 H 442.843 -0.484484 0.577747 0
M  V30 4989 H 445.494 -0.56646 1.74538 0
M  V30 4990 H 443.876 -3.08919 2.4776 0
M  V30 4991 H 445.05 -1.05421 4.48579 0
M  V30 4992 H 443.365 -1.10595 4.01445 0
M  V30 4993 H 445.962 -3.86842 3.6913 0
M  V30 4994 H 446.305 -3.65542 1.9921 0
M  V30 4995 H 446.838 -2.41952 3.15759 0
M  V30 4996 H 443.577 -2.26507 6.15122 0
M  V30 4997 H 443.097 -3.44502 4.90998 0
M  V30 4998 H 444.776 -3.40285 5.50286 0
M  V30 4999 N 444.908 -1.36708 -0.784132 0
M  V30 5000 C 445.838 -1.34153 -1.91116 0
M  V30 5001 C 446.819 -0.212121 -1.68772 0
M  V30 5002 O 448.004 -0.410581 -1.8981 0
M  V30 5003 C 445.134 -1.13535 -3.28218 0
M  V30 5004 C 444.088 -2.23356 -3.65097 0
M  V30 5005 C 443.414 -1.87875 -5.00607 0
M  V30 5006 C 444.714 -3.65473 -3.73131 0
M  V30 5007 H 446.408 -2.28459 -1.93512 0
M  V30 5008 H 443.954 -1.09973 -0.929618 0
M  V30 5009 H 445.907 -1.10381 -4.06687 0
M  V30 5010 H 444.631 -0.156804 -3.26223 0
M  V30 5011 H 443.29 -2.25645 -2.88929 0
M  V30 5012 H 442.938 -0.885814 -4.95139 0
M  V30 5013 H 442.638 -2.61406 -5.26252 0
M  V30 5014 H 444.162 -1.86286 -5.81489 0
M  V30 5015 H 445.576 -3.65382 -4.41779 0
M  V30 5016 H 443.973 -4.37953 -4.10265 0
M  V30 5017 H 445.043 -3.99995 -2.74102 0
M  V30 5018 N 446.386 1.0089 -1.21074 0
M  V30 5019 C 447.633 1.74607 -1.0256 0
M  V30 5020 C 447.961 1.89426 0.44136 0
M  V30 5021 O 447.216 1.42266 1.34384 0
M  V30 5022 C 447.515 3.16335 -1.66334 0
M  V30 5023 C 447.181 3.21474 -3.16173 0
M  V30 5024 C 445.843 3.22583 -3.57062 0
M  V30 5025 C 448.195 3.19025 -4.12156 0
M  V30 5026 C 445.523 3.18925 -4.92446 0
M  V30 5027 C 447.875 3.16909 -5.47496 0
M  V30 5028 C 446.539 3.16326 -5.87787 0
M  V30 5029 H 445.809 0.638933 -0.375294 0
M  V30 5030 H 448.456 1.18274 -1.50611 0
M  V30 5031 H 446.761 3.75876 -1.10566 0
M  V30 5032 H 448.458 3.72083 -1.49516 0
M  V30 5033 H 445.048 3.2135 -2.83605 0
M  V30 5034 H 449.232 3.17332 -3.81595 0
M  V30 5035 H 444.488 3.16809 -5.22917 0
M  V30 5036 H 448.662 3.13968 -6.21609 0
M  V30 5037 H 446.289 3.13246 -6.92662 0
M  V30 5038 N 447.864 1.01787 1.20321 0
M  V30 5039 C 449.11 0.708985 1.90003 0
M  V30 5040 C 449.443 -0.759572 1.78729 0
M  V30 5041 O 448.718 -1.55198 1.17234 0
M  V30 5042 C 449.001 1.1469 3.41348 0
M  V30 5043 C 448.854 2.67586 3.61549 0
M  V30 5044 C 450.173 0.71915 4.34185 0
M  V30 5045 H 447.292 0.259034 0.689978 0
M  V30 5046 H 449.934 1.26584 1.41692 0
M  V30 5047 H 448.084 0.673128 3.82624 0
M  V30 5048 H 449.756 3.22826 3.29517 0
M  V30 5049 H 447.999 3.085 3.04976 0
M  V30 5050 H 448.67 2.93281 4.67643 0
M  V30 5051 H 451.146 1.12647 4.00562 0
M  V30 5052 H 450.022 1.05358 5.38694 0
M  V30 5053 H 450.283 -0.379111 4.40472 0
M  V30 5054 N 449.342 -1.36122 0.79427 0
M  V30 5055 C 450.292 -2.27373 0.169017 0
M  V30 5056 C 451.276 -1.4719 -0.649913 0
M  V30 5057 O 452.468 -1.69518 -0.50919 0
M  V30 5058 C 449.597 -3.36264 -0.691455 0
M  V30 5059 C 448.683 -4.2388 0.13653 0
M  V30 5060 N 449.074 -4.91519 1.19345 0
M  V30 5061 C 447.372 -4.45921 -0.0838499 0
M  V30 5062 C 448.073 -5.56369 1.6979 0
M  V30 5063 N 447.049 -5.34204 1.00634 0
M  V30 5064 H 450.851 -2.77154 0.977897 0
M  V30 5065 H 448.365 -1.49504 0.634208 0
M  V30 5066 H 450.362 -4.00572 -1.15534 0
M  V30 5067 H 449.022 -2.88037 -1.49883 0
M  V30 5068 H 450.033 -4.9334 1.57594 0
M  V30 5069 H 446.71 -4.08518 -0.861341 0
M  V30 5070 H 448.1 -6.20368 2.58055 0
M  V30 5071 N 450.82 -0.546701 -1.47814 0
M  V30 5072 C 452.045 -0.021268 -2.07389 0
M  V30 5073 C 452.47 1.25822 -1.39822 0
M  V30 5074 O 451.828 1.75111 -0.46968 0
M  V30 5075 C 451.876 0.168502 -3.60206 0
M  V30 5076 O 450.98 1.23347 -3.93522 0
M  V30 5077 H 450.321 -0.0466108 -0.662362 0
M  V30 5078 H 452.851 -0.759387 -1.89985 0
M  V30 5079 H 452.861 0.385982 -4.0617 0
M  V30 5080 H 451.536 -0.766075 -4.08784 0
M  V30 5081 H 450.113 0.997319 -3.59316 0
M  V30 5082 N 452.299 1.55045 -0.282633 0
M  V30 5083 C 453.548 1.98938 0.332667 0
M  V30 5084 C 453.861 1.17455 1.56409 0
M  V30 5085 O 455.067 1.51527 2.25282 0
M  V30 5086 C 453.523 3.54105 0.643226 0
M  V30 5087 C 453.131 4.44374 -0.568814 0
M  V30 5088 C 454.875 4.06569 1.22074 0
M  V30 5089 C 452.782 5.90943 -0.232426 0
M  V30 5090 H 451.712 0.743043 0.128075 0
M  V30 5091 H 454.363 1.79341 -0.388464 0
M  V30 5092 H 452.745 3.69532 1.42346 0
M  V30 5093 H 453.919 4.40718 -1.34551 0
M  V30 5094 H 452.234 4.02585 -1.06369 0
M  V30 5095 H 454.831 5.13626 1.48635 0
M  V30 5096 H 455.174 3.56057 2.15707 0
M  V30 5097 H 455.707 3.94612 0.502621 0
M  V30 5098 H 452.446 6.45567 -1.13683 0
M  V30 5099 H 451.966 5.9765 0.507357 0
M  V30 5100 H 453.645 6.4677 0.172657 0
M  V30 5101 N 453.777 0.010035 1.57597 0
M  V30 5102 C 454.727 -0.986858 2.05536 0
M  V30 5103 C 455.711 -1.29711 0.952042 0
M  V30 5104 O 456.903 -1.28641 1.21575 0
M  V30 5105 C 454.032 -2.2756 2.57043 0
M  V30 5106 C 453.118 -1.99455 3.74271 0
M  V30 5107 N 453.509 -1.41546 4.85591 0
M  V30 5108 C 451.807 -2.29547 3.82393 0
M  V30 5109 C 452.508 -1.3014 5.66956 0
M  V30 5110 N 451.484 -1.79044 5.13268 0
M  V30 5111 H 455.286 -0.533778 2.89012 0
M  V30 5112 H 452.8 -0.195432 1.6122 0
M  V30 5113 H 454.797 -2.99829 2.89669 0
M  V30 5114 H 453.457 -2.73512 1.7499 0
M  V30 5115 H 454.468 -1.09294 5.06236 0
M  V30 5116 H 451.145 -2.78304 3.11213 0
M  V30 5117 H 452.535 -0.855237 6.66435 0
M  V30 5118 N 455.255 -1.55392 -0.262866 0
M  V30 5119 C 456.532 -1.67204 -1.01499 0
M  V30 5120 C 456.912 -0.545186 -2.03939 0
M  V30 5121 O 456.26 0.453467 -2.23955 0
M  V30 5122 C 456.47 -3.06847 -1.6627 0
M  V30 5123 C 457.818 -3.64928 -2.17054 0
M  V30 5124 O 458.842 -3.09545 -1.76239 0
M  V30 5125 O 457.701 -4.61984 -2.91947 0
M  V30 5126 H 454.795 -0.679467 -0.471438 0
M  V30 5127 H 457.341 -1.67729 -0.257918 0
M  V30 5128 H 456.113 -3.80309 -0.920915 0
M  V30 5129 H 455.736 -3.10266 -2.48638 0
M  V30 5130 N 456.733 0.527833 -1.48498 0
M  V30 5131 C 457.973 1.29401 -1.58224 0
M  V30 5132 C 458.337 1.90348 -0.251327 0
M  V30 5133 O 459.538 2.67868 -0.223588 0
M  V30 5134 C 457.809 2.35266 -2.69044 0
M  V30 5135 S 459.368 3.2158 -2.98549 0
M  V30 5136 H 456.186 0.440138 -0.558391 0
M  V30 5137 H 458.788 0.601079 -1.8603 0
M  V30 5138 H 457.492 1.88975 -3.64303 0
M  V30 5139 H 457.023 3.09263 -2.43146 0
M  V30 5140 H 459.038 4.35391 -2.38011 0
M  V30 5141 N 458.211 1.37122 0.776871 0
M  V30 5142 C 459.174 1.32301 1.8716 0
M  V30 5143 C 460.174 0.228099 1.59174 0
M  V30 5144 O 461.364 0.483642 1.67352 0
M  V30 5145 C 458.496 1.054 3.24197 0
M  V30 5146 H 459.689 2.29673 1.92848 0
M  V30 5147 H 457.242 1.22077 0.97606 0
M  V30 5148 H 457.977 0.0853872 3.24188 0
M  V30 5149 H 457.762 1.84648 3.45901 0
M  V30 5150 H 459.252 1.04664 4.04271 0
M  V30 5151 N 459.689 -1.00246 1.21608 0
M  V30 5152 C 460.929 -1.75589 1.04631 0
M  V30 5153 C 461.293 -1.87513 -0.412648 0
M  V30 5154 O 462.494 -2.59444 -0.703003 0
M  V30 5155 C 460.765 -3.12893 1.72722 0
M  V30 5156 S 462.324 -4.04095 1.71034 0
M  V30 5157 H 459.142 -0.604133 0.374892 0
M  V30 5158 H 461.744 -1.19927 1.54395 0
M  V30 5159 H 460.448 -3.0185 2.78055 0
M  V30 5160 H 459.979 -3.73628 1.23149 0
M  V30 5161 H 461.994 -4.9045 0.753231 0
M  V30 5162 N 461.167 -1.02423 -1.1978 0
M  V30 5163 C 462.397 -0.736387 -1.93031 0
M  V30 5164 C 462.805 0.708023 -1.75453 0
M  V30 5165 O 462.148 1.4927 -1.07071 0
M  V30 5166 C 462.21 -1.00194 -3.45255 0
M  V30 5167 C 461.874 -2.43698 -3.86601 0
M  V30 5168 C 462.871 -3.41814 -3.91738 0
M  V30 5169 C 460.556 -2.77975 -4.18372 0
M  V30 5170 C 462.55 -4.72265 -4.28071 0
M  V30 5171 C 460.237 -4.08636 -4.54378 0
M  V30 5172 C 461.235 -5.05592 -4.59201 0
M  V30 5173 O 460.923 -6.33914 -4.94376 0
M  V30 5174 H 460.655 -0.269116 -0.620123 0
M  V30 5175 H 463.209 -1.37043 -1.52998 0
M  V30 5176 H 461.439 -0.310747 -3.85449 0
M  V30 5177 H 463.128 -0.704488 -3.9974 0
M  V30 5178 H 463.894 -3.16671 -3.67348 0
M  V30 5179 H 459.773 -2.0319 -4.13805 0
M  V30 5180 H 463.317 -5.4794 -4.3175 0
M  V30 5181 H 459.214 -4.33556 -4.78226 0
M  V30 5182 H 459.982 -6.38317 -5.12341 0
M  V30 5183 N 462.645 1.35699 -0.801477 0
M  V30 5184 C 463.875 2.02862 -0.3912 0
M  V30 5185 C 464.283 1.60552 1.00099 0
M  V30 5186 O 463.626 0.796215 1.65548 0
M  V30 5187 C 463.688 3.57386 -0.389299 0
M  V30 5188 C 463.352 4.22943 -1.73113 0
M  V30 5189 C 464.349 4.44984 -2.68859 0
M  V30 5190 C 462.034 4.60167 -2.01373 0
M  V30 5191 C 464.028 5.03345 -3.91053 0
M  V30 5192 C 461.715 5.18243 -3.23832 0
M  V30 5193 C 462.713 5.39773 -4.1849 0
M  V30 5194 O 462.401 5.96626 -5.38788 0
M  V30 5195 H 462.133 0.657341 -0.157732 0
M  V30 5196 H 464.687 1.74407 -1.08496 0
M  V30 5197 H 462.917 3.85011 0.361031 0
M  V30 5198 H 464.606 4.059 -0.0020365 0
M  V30 5199 H 465.372 4.1661 -2.48316 0
M  V30 5200 H 461.251 4.42726 -1.28508 0
M  V30 5201 H 464.795 5.20065 -4.64949 0
M  V30 5202 H 460.692 5.46044 -3.44248 0
M  V30 5203 H 461.46 6.15082 -5.40015 0
M  V30 5204 N 464.123 0.554532 1.47522 0
M  V30 5205 C 465.371 0.0294208 2.02079 0
M  V30 5206 C 465.692 -1.32411 1.43151 0
M  V30 5207 O 464.962 -1.863 0.605728 0
M  V30 5208 H 463.542 0.00788672 0.746958 0
M  V30 5209 H 466.204 0.723934 1.80956 0
M  V30 5210 H 465.3 -0.0606745 3.12041 0
M  V30 5211 N 465.601 -1.54893 0.290851 0
M  V30 5212 C 466.849 -1.99538 -0.320756 0
M  V30 5213 C 467.17 -1.18075 -1.55188 0
M  V30 5214 O 466.44 -0.274162 -1.93972 0
M  V30 5215 H 465.02 -0.737052 -0.121507 0
M  V30 5216 H 467.682 -1.90755 0.399832 0
M  V30 5217 H 466.778 -3.06282 -0.599802 0
M  V30 5218 N 467.08 -0.0183926 -1.57589 0
M  V30 5219 C 468.326 0.663543 -1.91638 0
M  V30 5220 C 468.659 1.72392 -0.894134 0
M  V30 5221 O 467.934 1.94316 0.0846449 0
M  V30 5222 C 468.217 1.28984 -3.36207 0
M  V30 5223 C 468.07 0.239761 -4.49161 0
M  V30 5224 C 469.389 2.2109 -3.80536 0
M  V30 5225 H 466.508 0.239746 -0.696915 0
M  V30 5226 H 469.15 -0.073456 -1.89858 0
M  V30 5227 H 467.3 1.91799 -3.37854 0
M  V30 5228 H 468.972 -0.390119 -4.59647 0
M  V30 5229 H 467.215 -0.435972 -4.31604 0
M  V30 5230 H 467.886 0.717383 -5.47319 0
M  V30 5231 H 470.362 1.68273 -3.80557 0
M  V30 5232 H 469.238 2.61869 -4.82406 0
M  V30 5233 H 469.499 3.09764 -3.15434 0
M  V30 5234 N 468.558 1.5553 0.254621 0
M  V30 5235 C 469.804 1.77262 0.985193 0
M  V30 5236 C 470.137 0.582286 1.85265 0
M  V30 5237 O 469.412 -0.419666 1.89919 0
M  V30 5238 C 469.695 3.0881 1.85225 0
M  V30 5239 C 469.548 4.38233 1.0135 0
M  V30 5240 C 470.867 3.3653 2.83612 0
M  V30 5241 H 467.986 0.644906 0.356742 0
M  V30 5242 H 470.628 1.88264 0.256236 0
M  V30 5243 H 468.778 2.99562 2.47376 0
M  V30 5244 H 470.45 4.59463 0.411269 0
M  V30 5245 H 468.693 4.32636 0.317574 0
M  V30 5246 H 469.364 5.26644 1.65379 0
M  V30 5247 H 471.84 3.45691 2.31596 0
M  V30 5248 H 470.716 4.29805 3.41407 0
M  V30 5249 H 470.977 2.57064 3.59681 0
M  V30 5250 N 470.036 -0.519951 1.48776 0
M  V30 5251 C 471.264 -1.29971 1.60982 0
M  V30 5252 C 471.679 -1.86803 0.273885 0
M  V30 5253 O 471.036 -1.66904 -0.738193 0
M  V30 5254 C 471.087 -2.44346 2.66415 0
M  V30 5255 O 470.808 -1.89855 3.94825 0
M  V30 5256 C 472.309 -3.36014 2.89153 0
M  V30 5257 H 469.529 -0.394891 0.542496 0
M  V30 5258 H 472.073 -0.626214 1.94676 0
M  V30 5259 H 470.228 -3.07562 2.35552 0
M  V30 5260 H 470.642 -2.64798 4.5275 0
M  V30 5261 H 472.116 -4.12593 3.66703 0
M  V30 5262 H 472.593 -3.91859 1.98351 0
M  V30 5263 H 473.199 -2.78582 3.21359 0
M  V30 5264 N 471.514 -1.37532 -0.769588 0
M  V30 5265 C 472.761 -1.3286 -1.52822 0
M  V30 5266 C 473.089 0.0862597 -1.94309 0
M  V30 5267 O 472.344 1.05995 -1.6451 0
M  V30 5268 C 472.643 -2.21558 -2.8044 0
M  V30 5269 C 472.309 -3.69796 -2.57996 0
M  V30 5270 C 470.971 -4.10194 -2.51583 0
M  V30 5271 C 473.323 -4.63699 -2.37976 0
M  V30 5272 C 470.651 -5.42608 -2.23144 0
M  V30 5273 C 473.003 -5.96353 -2.1106 0
M  V30 5274 C 471.667 -6.35853 -2.03093 0
M  V30 5275 H 470.937 -0.486168 -0.559215 0
M  V30 5276 H 473.584 -1.69757 -0.886277 0
M  V30 5277 H 471.889 -1.77663 -3.49204 0
M  V30 5278 H 473.586 -2.15256 -3.38328 0
M  V30 5279 H 470.176 -3.37759 -2.63851 0
M  V30 5280 H 474.36 -4.33346 -2.41919 0
M  V30 5281 H 469.616 -5.72173 -2.15472 0
M  V30 5282 H 473.79 -6.68667 -1.94568 0
M  V30 5283 H 471.417 -7.38382 -1.8082 0
M  V30 5284 N 472.992 0.995999 -1.22138 0
M  V30 5285 C 474.222 1.76809 -1.06874 0
M  V30 5286 C 474.63 1.85265 0.383866 0
M  V30 5287 O 473.973 1.31969 1.27789 0
M  V30 5288 C 474.035 3.2186 -1.60144 0
M  V30 5289 C 473.699 3.36958 -3.0872 0
M  V30 5290 C 474.696 3.2452 -4.0618 0
M  V30 5291 C 472.381 3.62109 -3.48112 0
M  V30 5292 C 474.375 3.37013 -5.41019 0
M  V30 5293 C 472.062 3.74243 -4.831 0
M  V30 5294 C 473.06 3.61702 -5.79362 0
M  V30 5295 O 472.748 3.73436 -7.119 0
M  V30 5296 H 472.48 0.562207 -0.375365 0
M  V30 5297 H 475.034 1.26113 -1.62125 0
M  V30 5298 H 473.264 3.73734 -0.992981 0
M  V30 5299 H 474.953 3.80775 -1.40589 0
M  V30 5300 H 475.719 3.05004 -3.77091 0
M  V30 5301 H 471.598 3.70949 -2.73712 0
M  V30 5302 H 475.142 3.27141 -6.16137 0
M  V30 5303 H 471.039 3.93266 -5.11872 0
M  V30 5304 H 471.807 3.90328 -7.19435 0
M  V30 5305 N 474.47 1.03057 1.19235 0
M  V30 5306 C 475.747 0.642608 1.84743 0
M  V30 5307 C 476.127 -0.878577 1.91948 0
M  V30 5308 O 475.475 -1.77597 1.43776 0
M  V30 5309 C 475.685 1.30665 3.23616 0
M  V30 5310 C 477.033 1.43098 3.9976 0
M  V30 5311 O 478.057 1.26396 3.3302 0
M  V30 5312 O 476.916 1.70223 5.19313 0
M  V30 5313 H 474.01 0.223573 0.796206 0
M  V30 5314 H 476.556 1.12883 1.26711 0
M  V30 5315 H 475.328 2.34544 3.13217 0
M  V30 5316 H 474.951 0.808405 3.89295 0
M  V30 5317 N 475.948 -1.35272 0.808662 0
M  V30 5318 C 476.88 -2.28507 0.178149 0
M  V30 5319 C 477.893 -1.50377 -0.623754 0
M  V30 5320 O 479.082 -1.72583 -0.455774 0
M  V30 5321 C 476.182 -3.30038 -0.769959 0
M  V30 5322 C 475.355 -4.37398 -0.0139749 0
M  V30 5323 C 474.414 -5.18775 -0.880875 0
M  V30 5324 O 473.44 -5.68236 -0.331059 0
M  V30 5325 N 474.642 -5.37087 -2.20267 0
M  V30 5326 H 477.407 -2.83255 0.979106 0
M  V30 5327 H 474.968 -1.47643 0.664308 0
M  V30 5328 H 476.96 -3.81371 -1.35418 0
M  V30 5329 H 475.53 -2.75789 -1.47171 0
M  V30 5330 H 474.75 -3.86971 0.751468 0
M  V30 5331 H 476.038 -5.06268 0.506965 0
M  V30 5332 H 475.436 -4.9855 -2.67328 0
M  V30 5333 H 473.993 -5.91593 -2.73608 0
M  V30 5334 N 477.426 -0.562348 -1.47226 0
M  V30 5335 C 478.356 0.170627 -2.32876 0
M  V30 5336 C 479.337 0.903748 -1.44106 0
M  V30 5337 O 480.522 0.883206 -1.72954 0
M  V30 5338 C 477.652 1.19786 -3.25989 0
M  V30 5339 C 476.606 0.580875 -4.2404 0
M  V30 5340 C 475.932 1.71311 -5.06514 0
M  V30 5341 C 477.232 -0.468714 -5.20193 0
M  V30 5342 H 478.926 -0.544441 -2.94408 0
M  V30 5343 H 476.472 -0.263271 -1.41573 0
M  V30 5344 H 478.425 1.71884 -3.84752 0
M  V30 5345 H 477.149 1.94294 -2.62521 0
M  V30 5346 H 475.808 0.0811538 -3.6651 0
M  V30 5347 H 475.456 2.44736 -4.39447 0
M  V30 5348 H 475.156 1.30604 -5.72902 0
M  V30 5349 H 476.68 2.23725 -5.68137 0
M  V30 5350 H 478.094 -0.0336028 -5.7329 0
M  V30 5351 H 476.491 -0.794957 -5.94811 0
M  V30 5352 H 477.561 -1.36269 -4.65359 0
M  V30 5353 N 478.904 1.54736 -0.299062 0
M  V30 5354 C 480.181 1.92187 0.363802 0
M  V30 5355 C 480.561 1.22607 1.71845 0
M  V30 5356 O 479.909 0.361141 2.25628 0
M  V30 5357 C 480.119 3.45678 0.480377 0
M  V30 5358 C 481.467 4.17885 0.752147 0
M  V30 5359 O 482.491 3.51702 0.564264 0
M  V30 5360 O 481.35 5.35048 1.11294 0
M  V30 5361 H 478.444 0.801681 0.203066 0
M  V30 5362 H 480.99 1.66115 -0.346978 0
M  V30 5363 H 479.762 3.88443 -0.471999 0
M  V30 5364 H 479.385 3.77779 1.2397 0
M  V30 5365 N 480.382 0.0267497 1.57577 0
M  V30 5366 C 481.33 -0.973923 2.11229 0
M  V30 5367 C 482.324 -1.33849 1.03831 0
M  V30 5368 O 483.53 -1.321 1.22269 0
M  V30 5369 H 479.905 -0.331844 0.674821 0
M  V30 5370 H 481.876 -0.496092 2.94247 0
M  V30 5371 C 480.625 -2.24798 2.65257 0
M  V30 5372 H 479.948 -1.9762 3.47543 0
M  V30 5373 H 481.388 -2.93031 3.06445 0
M  V30 5374 C 479.847 -2.97611 1.57891 0
M  V30 5375 O 480.377 -3.89629 0.97735 0
M  V30 5376 N 478.583 -2.59905 1.29992 0
M  V30 5377 H 478.13 -1.85154 1.79097 0
M  V30 5378 H 478.088 -3.08932 0.583798 0
M  V30 5379 N 481.861 -1.55662 -0.24637 0
M  V30 5380 C 483.138 -1.68272 -0.997198 0
M  V30 5381 C 483.518 -0.566785 -2.03349 0
M  V30 5382 O 482.866 0.429688 -2.24424 0
M  V30 5383 C 483.076 -3.08594 -1.63006 0
M  V30 5384 C 484.424 -3.6721 -2.13171 0
M  V30 5385 O 485.448 -3.11397 -1.72946 0
M  V30 5386 O 484.307 -4.65054 -2.87031 0
M  V30 5387 H 481.401 -0.684429 -0.464205 0
M  V30 5388 H 483.947 -1.67993 -0.240114 0
M  V30 5389 H 482.719 -3.81264 -0.880527 0
M  V30 5390 H 482.342 -3.12886 -2.45333 0
M  V30 5391 N 483.339 0.512053 -1.4905 0
M  V30 5392 C 484.286 1.6148 -1.64902 0
M  V30 5393 C 485.256 1.58687 -0.490673 0
M  V30 5394 O 486.441 1.76842 -0.71636 0
M  V30 5395 C 483.581 2.99676 -1.71139 0
M  V30 5396 C 482.694 3.12568 -2.98203 0
M  V30 5397 C 481.829 4.4143 -2.95487 0
M  V30 5398 C 480.868 4.47916 -4.17179 0
M  V30 5399 N 480.005 5.68191 -4.12437 0
M  V30 5400 H 484.845 1.47271 -2.59066 0
M  V30 5401 H 482.382 0.716713 -1.28459 0
M  V30 5402 H 484.34 3.79761 -1.72736 0
M  V30 5403 H 482.97 3.12614 -0.804508 0
M  V30 5404 H 482.022 2.25618 -3.06269 0
M  V30 5405 H 483.334 3.1322 -3.88194 0
M  V30 5406 H 482.488 5.29825 -2.95585 0
M  V30 5407 H 481.227 4.43326 -2.03256 0
M  V30 5408 H 480.232 3.57925 -4.17337 0
M  V30 5409 H 481.457 4.47744 -5.1059 0
M  V30 5410 H 479.403 5.7095 -3.23036 0
M  V30 5411 H 479.32 5.70413 -4.96151 0
M  V30 5412 H 480.588 6.58823 -4.16621 0
M  V30 5413 N 484.817 1.37938 0.762283 0
M  V30 5414 C 485.764 1.34467 1.87583 0
M  V30 5415 C 486.734 0.208633 1.64785 0
M  V30 5416 O 487.919 0.399494 1.86571 0
M  V30 5417 C 485.059 1.16692 3.24772 0
M  V30 5418 C 484.172 2.39608 3.59461 0
M  V30 5419 C 483.307 2.14631 4.85908 0
M  V30 5420 C 482.346 3.33364 5.13357 0
M  V30 5421 N 481.483 3.07877 6.30996 0
M  V30 5422 H 486.323 2.29669 1.89885 0
M  V30 5423 H 483.86 1.14116 0.928219 0
M  V30 5424 H 485.818 1.04405 4.03925 0
M  V30 5425 H 484.448 0.251333 3.2182 0
M  V30 5426 H 483.5 2.626 2.75219 0
M  V30 5427 H 484.812 3.28128 3.75678 0
M  V30 5428 H 483.966 1.99429 5.72986 0
M  V30 5429 H 482.705 1.23463 4.71814 0
M  V30 5430 H 481.71 3.49094 4.24751 0
M  V30 5431 H 482.935 4.25395 5.29354 0
M  V30 5432 H 480.881 2.19348 6.18241 0
M  V30 5433 H 480.798 3.89944 6.47673 0
M  V30 5434 H 482.066 2.96313 7.20985 0
M  V30 5435 N 486.295 -0.989507 1.22664 0
M  V30 5436 C 487.205 -2.11449 1.01619 0
M  V30 5437 C 488.221 -1.73962 -0.036545 0
M  V30 5438 O 489.397 -2.00788 0.156924 0
M  V30 5439 C 486.462 -3.41465 0.600204 0
M  V30 5440 C 485.523 -3.93033 1.72695 0
M  V30 5441 C 484.756 -5.16844 1.33071 0
M  V30 5442 O 484.979 -5.7001 0.210975 0
M  V30 5443 O 483.913 -5.6225 2.14845 0
M  V30 5444 H 487.739 -2.32088 1.9588 0
M  V30 5445 H 485.324 -1.09823 1.01289 0
M  V30 5446 H 487.206 -4.19695 0.37873 0
M  V30 5447 H 485.881 -3.22178 -0.313511 0
M  V30 5448 H 484.788 -3.15961 2.00298 0
M  V30 5449 H 486.121 -4.16758 2.61865 0
M  V30 5450 N 487.773 -1.03688 -1.18687 0
M  V30 5451 C 488.703 -0.645407 -2.24403 0
M  V30 5452 C 489.684 0.349511 -1.66471 0
M  V30 5453 O 490.869 0.230453 -1.92828 0
M  V30 5454 C 487.999 -0.00365337 -3.473 0
M  V30 5455 C 486.953 -0.921705 -4.17958 0
M  V30 5456 C 486.279 -0.144629 -5.34504 0
M  V30 5457 C 487.579 -2.23909 -4.71871 0
M  V30 5458 H 489.273 -1.52917 -2.57404 0
M  V30 5459 H 486.819 -0.736711 -1.23728 0
M  V30 5460 H 488.772 0.281908 -4.20456 0
M  V30 5461 H 487.496 0.914963 -3.13522 0
M  V30 5462 H 486.155 -1.19159 -3.46694 0
M  V30 5463 H 485.803 0.776274 -4.96974 0
M  V30 5464 H 485.503 -0.756206 -5.82714 0
M  V30 5465 H 487.027 0.134004 -6.10453 0
M  V30 5466 H 488.441 -2.0145 -5.36741 0
M  V30 5467 H 486.838 -2.8033 -5.30599 0
M  V30 5468 H 487.908 -2.88822 -3.895 0
M  V30 5469 N 489.251 1.34841 -0.815825 0
M  V30 5470 C 490.481 2.02436 -0.412695 0
M  V30 5471 C 490.889 1.61604 0.983906 0
M  V30 5472 O 490.232 0.813729 1.64694 0
M  V30 5473 C 490.294 3.56953 -0.427182 0
M  V30 5474 C 489.958 4.21083 -1.77589 0
M  V30 5475 C 490.955 4.42107 -2.73564 0
M  V30 5476 C 488.64 4.58006 -2.06243 0
M  V30 5477 C 490.634 4.99169 -3.9637 0
M  V30 5478 C 488.321 5.1478 -3.2931 0
M  V30 5479 C 489.319 5.35304 -4.24191 0
M  V30 5480 O 489.007 5.90878 -5.45086 0
M  V30 5481 H 488.739 0.655631 -0.164695 0
M  V30 5482 H 491.293 1.73246 -1.1034 0
M  V30 5483 H 489.523 3.85372 0.320175 0
M  V30 5484 H 491.212 4.05875 -0.0450875 0
M  V30 5485 H 491.978 4.13953 -2.52721 0
M  V30 5486 H 487.857 4.41339 -1.33196 0
M  V30 5487 H 491.401 5.15105 -4.70439 0
M  V30 5488 H 487.298 5.42362 -3.5002 0
M  V30 5489 H 488.066 6.0932 -5.46508 0
M  V30 5490 N 490.729 0.570148 1.46925 0
M  V30 5491 C 491.957 0.0561966 2.06824 0
M  V30 5492 C 492.372 -1.24326 1.42086 0
M  V30 5493 O 491.729 -1.74882 0.521794 0
M  V30 5494 C 491.78 -0.129517 3.61268 0
M  V30 5495 O 491.501 1.1185 4.23581 0
M  V30 5496 C 493.002 -0.679266 4.38065 0
M  V30 5497 H 490.222 0.0517261 0.669003 0
M  V30 5498 H 492.766 0.787243 1.8874 0
M  V30 5499 H 490.921 -0.810739 3.78822 0
M  V30 5500 H 491.335 0.924375 5.1629 0
M  V30 5501 H 492.809 -0.758445 5.46765 0
M  V30 5502 H 493.286 -1.69346 4.05239 0
M  V30 5503 H 493.892 -0.0333237 4.25287 0
M  V30 5504 N 492.207 -1.54576 0.307264 0
M  V30 5505 C 493.456 -1.99442 -0.300976 0
M  V30 5506 C 493.769 -1.19928 -1.5452 0
M  V30 5507 O 494.975 -1.55092 -2.22842 0
M  V30 5508 C 493.431 -3.55084 -0.586809 0
M  V30 5509 C 493.039 -4.43413 0.639438 0
M  V30 5510 C 494.783 -4.0846 -1.1559 0
M  V30 5511 C 492.69 -5.90499 0.326411 0
M  V30 5512 H 491.62 -0.744986 -0.116238 0
M  V30 5513 H 494.271 -1.787 0.416947 0
M  V30 5514 H 492.653 -3.71749 -1.36449 0
M  V30 5515 H 493.827 -4.38522 1.41545 0
M  V30 5516 H 492.142 -4.00842 1.1276 0
M  V30 5517 H 494.739 -5.15926 -1.40445 0
M  V30 5518 H 495.082 -3.59443 -2.10015 0
M  V30 5519 H 495.615 -3.95362 -0.439778 0
M  V30 5520 H 492.354 -6.43676 1.23939 0
M  V30 5521 H 491.874 -5.98382 -0.412212 0
M  V30 5522 H 493.553 -6.46962 -0.0697393 0
M  V30 5523 N 493.685 -0.035106 -1.57561 0
M  V30 5524 C 494.915 0.651312 -1.96065 0
M  V30 5525 C 495.323 1.6585 -0.910514 0
M  V30 5526 O 494.666 1.83336 0.11552 0
M  V30 5527 C 494.728 1.40897 -3.30739 0
M  V30 5528 C 494.392 0.559436 -4.53563 0
M  V30 5529 C 495.389 -0.16778 -5.19629 0
M  V30 5530 C 493.074 0.495079 -4.99854 0
M  V30 5531 C 495.068 -0.947963 -6.30311 0
M  V30 5532 C 492.755 -0.288804 -6.10417 0
M  V30 5533 C 493.753 -1.00903 -6.75505 0
M  V30 5534 O 493.441 -1.78005 -7.83945 0
M  V30 5535 H 493.173 0.184036 -0.650467 0
M  V30 5536 H 495.727 -0.0929677 -2.05189 0
M  V30 5537 H 493.957 2.19852 -3.18123 0
M  V30 5538 H 495.646 1.98407 -3.54104 0
M  V30 5539 H 496.412 -0.12743 -4.84833 0
M  V30 5540 H 492.291 1.04524 -4.48994 0
M  V30 5541 H 495.835 -1.51064 -6.81047 0
M  V30 5542 H 491.732 -0.33085 -6.44652 0
M  V30 5543 H 492.5 -1.70046 -8.00641 0
M  V30 5544 N 495.163 1.55791 0.238111 0
M  V30 5545 C 496.44 1.68798 0.98826 0
M  V30 5546 C 496.82 0.577562 2.03045 0
M  V30 5547 O 496.168 -0.41778 2.24648 0
M  V30 5548 C 496.378 3.09454 1.61367 0
M  V30 5549 C 497.726 3.68335 2.11221 0
M  V30 5550 O 498.75 3.1231 1.71292 0
M  V30 5551 O 497.609 4.6657 2.84561 0
M  V30 5552 H 494.703 0.686881 0.460568 0
M  V30 5553 H 497.249 1.68118 0.231202 0
M  V30 5554 H 496.021 3.81726 0.860295 0
M  V30 5555 H 495.644 3.14182 2.4367 0
M  V30 5556 N 496.642 -0.504142 1.49319 0
M  V30 5557 C 497.575 -1.62361 1.60356 0
M  V30 5558 C 498.553 -1.56169 0.45277 0
M  V30 5559 O 499.737 -1.76271 0.667892 0
M  V30 5560 C 496.864 -3.00864 1.55559 0
M  V30 5561 C 495.91 -3.25328 2.75797 0
M  V30 5562 S 496.743 -3.08791 4.37503 0
M  V30 5563 C 497.899 -4.49695 4.35345 0
M  V30 5564 H 498.132 -1.52753 2.55056 0
M  V30 5565 H 495.665 -0.689065 1.38171 0
M  V30 5566 H 497.623 -3.8073 1.53477 0
M  V30 5567 H 496.284 -3.0789 0.621515 0
M  V30 5568 H 495.477 -4.2643 2.68651 0
M  V30 5569 H 495.079 -2.53179 2.75275 0
M  V30 5570 H 497.371 -5.41721 4.06871 0
M  V30 5571 H 498.314 -4.61891 5.36714 0
M  V30 5572 H 498.722 -4.30227 3.65465 0
M  V30 5573 N 498.12 -1.38341 -0.754957 0
M  V30 5574 C 499.397 -1.24995 -1.50451 0
M  V30 5575 C 499.777 0.149244 -2.10572 0
M  V30 5576 O 499.125 1.15861 -1.96948 0
M  V30 5577 C 499.335 -2.35904 -2.57197 0
M  V30 5578 C 500.683 -2.74262 -3.24138 0
M  V30 5579 O 501.707 -2.35205 -2.67501 0
M  V30 5580 O 500.566 -3.4161 -4.26574 0
M  V30 5581 H 497.66 -0.48872 -0.667144 0
M  V30 5582 H 500.206 -1.50165 -0.790486 0
M  V30 5583 H 498.978 -3.2953 -2.11011 0
M  V30 5584 H 498.601 -2.12291 -3.36182 0
M  V30 5585 N 499.598 0.982988 -1.23187 0
M  V30 5586 C 500.548 2.05962 -0.977942 0
M  V30 5587 C 501.532 1.60725 0.0751148 0
M  V30 5588 O 502.724 1.76471 -0.136683 0
M  V30 5589 C 499.853 3.38564 -0.568276 0
M  V30 5590 C 498.939 3.90407 -1.6566 0
M  V30 5591 N 499.33 4.15359 -2.88635 0
M  V30 5592 C 497.628 4.18915 -1.53058 0
M  V30 5593 C 498.329 4.57642 -3.5908 0
M  V30 5594 N 497.305 4.6192 -2.86584 0
M  V30 5595 H 501.107 2.23208 -1.91195 0
M  V30 5596 H 498.621 1.16555 -1.13087 0
M  V30 5597 H 500.618 4.15276 -0.36764 0
M  V30 5598 H 499.278 3.22712 0.358713 0
M  V30 5599 H 500.289 4.03258 -3.24966 0
M  V30 5600 H 496.966 4.12081 -0.670506 0
M  V30 5601 H 498.356 4.85488 -4.6449 0
M  V30 5602 N 501.076 1.04316 1.18135 0
M  V30 5603 C 502.006 0.657299 2.24058 0
M  V30 5604 C 502.987 -0.340678 1.66654 0
M  V30 5605 O 504.172 -0.220223 1.92947 0
M  V30 5606 C 501.302 0.0220715 3.47293 0
M  V30 5607 C 500.256 0.943857 4.17463 0
M  V30 5608 C 499.582 0.172973 5.3442 0
M  V30 5609 C 500.882 2.26409 4.70677 0
M  V30 5610 H 502.576 1.5428 2.56589 0
M  V30 5611 H 500.122 0.743263 1.23335 0
M  V30 5612 H 502.075 -0.259607 4.206 0
M  V30 5613 H 500.799 -0.898323 3.14003 0
M  V30 5614 H 499.458 1.20996 3.46057 0
M  V30 5615 H 499.106 -0.749907 4.97379 0
M  V30 5616 H 498.806 0.787098 5.82304 0
M  V30 5617 H 500.33 -0.101628 6.10515 0
M  V30 5618 H 501.744 2.04294 5.35665 0
M  V30 5619 H 500.141 2.8314 5.29105 0
M  V30 5620 H 501.211 2.90883 3.87962 0
M  V30 5621 N 502.554 -1.34406 0.822964 0
M  V30 5622 C 503.484 -2.32052 0.259608 0
M  V30 5623 C 504.465 -1.58243 -0.623961 0
M  V30 5624 O 505.65 -1.86224 -0.55083 0
M  V30 5625 C 502.78 -3.42434 -0.579314 0
M  V30 5626 C 501.734 -4.27499 0.20712 0
M  V30 5627 C 501.06 -5.29349 -0.754547 0
M  V30 5628 C 502.36 -5.02758 1.41533 0
M  V30 5629 H 504.054 -2.79418 1.07545 0
M  V30 5630 H 501.6 -1.34338 0.518593 0
M  V30 5631 H 503.553 -4.0976 -0.983612 0
M  V30 5632 H 502.277 -2.93717 -1.4282 0
M  V30 5633 H 500.936 -3.61776 0.592787 0
M  V30 5634 H 500.584 -4.76895 -1.59939 0
M  V30 5635 H 500.284 -5.8714 -0.232561 0
M  V30 5636 H 501.808 -5.99544 -1.1567 0
M  V30 5637 H 503.222 -5.62938 1.08504 0
M  V30 5638 H 501.619 -5.70123 1.87296 0
M  V30 5639 H 502.689 -4.32451 2.1935 0
M  V30 5640 N 504.032 -0.577932 -1.46621 0
M  V30 5641 C 505.26 -0.0671642 -2.06791 0
M  V30 5642 C 505.675 1.23571 -1.42743 0
M  V30 5643 O 505.032 1.74602 -0.531062 0
M  V30 5644 C 505.083 0.110357 -3.61332 0
M  V30 5645 O 504.804 -1.14095 -4.22982 0
M  V30 5646 C 506.305 0.656025 -4.38419 0
M  V30 5647 H 503.525 -0.0552732 -0.66872 0
M  V30 5648 H 506.069 -0.797242 -1.8832 0
M  V30 5649 H 504.224 0.790637 -3.79246 0
M  V30 5650 H 504.638 -0.951742 -5.15793 0
M  V30 5651 H 506.112 0.729438 -5.47159 0
M  V30 5652 H 506.589 1.67195 -4.06131 0
M  V30 5653 H 507.195 0.0107692 -4.25299 0
M  V30 5654 N 505.51 1.54411 -0.315457 0
M  V30 5655 C 506.443 2.20265 0.596522 0
M  V30 5656 C 507.421 1.17693 1.12192 0
M  V30 5657 O 508.605 1.46397 1.18744 0
M  V30 5658 C 505.732 2.85794 1.81767 0
M  V30 5659 C 504.778 4.02017 1.42424 0
M  V30 5660 S 505.611 5.33452 0.467836 0
M  V30 5661 C 506.767 6.02471 1.69645 0
M  V30 5662 H 507 2.97277 0.0370896 0
M  V30 5663 H 504.533 1.54079 -0.0995562 0
M  V30 5664 H 506.491 3.24172 2.51839 0
M  V30 5665 H 505.152 2.08601 2.34828 0
M  V30 5666 H 504.345 4.46701 2.33396 0
M  V30 5667 H 503.947 3.65271 0.803311 0
M  V30 5668 H 506.239 6.24157 2.63504 0
M  V30 5669 H 507.182 6.96215 1.29192 0
M  V30 5670 H 507.59 5.32284 1.87974 0
M  V30 5671 N 506.988 0.0434614 1.5754 0
M  V30 5672 C 507.898 -0.94893 2.14552 0
M  V30 5673 C 508.914 -1.34707 1.10136 0
M  V30 5674 O 510.09 -1.42557 1.42266 0
M  V30 5675 C 507.155 -2.208 2.67298 0
M  V30 5676 C 506.216 -1.86893 3.86484 0
M  V30 5677 C 505.449 -3.06797 4.36705 0
M  V30 5678 O 505.672 -4.19921 3.86034 0
M  V30 5679 O 504.606 -2.8826 5.28384 0
M  V30 5680 H 508.432 -0.494099 2.99654 0
M  V30 5681 H 506.017 -0.177989 1.48336 0
M  V30 5682 H 507.899 -2.94686 3.01228 0
M  V30 5683 H 506.574 -2.65436 1.85272 0
M  V30 5684 H 505.481 -1.10347 3.57455 0
M  V30 5685 H 506.814 -1.47062 4.69716 0
M  V30 5686 N 508.466 -1.55915 -0.229846 0
M  V30 5687 C 509.877 -1.68809 -0.797531 0
M  V30 5688 C 510.228 -0.643995 -1.8533 0
M  V30 5689 O 509.353 0.206492 -2.15413 0
M  V30 5690 C 509.948 -3.06043 -1.45338 0
M  V30 5691 C 508.507 -3.20819 -1.96856 0
M  V30 5692 C 507.654 -2.6472 -0.825736 0
M  V30 5693 H 510.605 -1.58699 -0.00533733 0
M  V30 5694 H 510.626 -3.01438 -2.32196 0
M  V30 5695 H 510.138 -3.82012 -0.684743 0
M  V30 5696 H 508.239 -2.49704 -2.76548 0
M  V30 5697 H 508.352 -4.27937 -2.15423 0
M  V30 5698 H 506.716 -2.22985 -1.23084 0
M  V30 5699 H 507.499 -3.43229 -0.0699019 0
M  V30 5700 N 509.944 0.496216 -1.49584 0
M  V30 5701 C 511.192 1.24756 -1.58998 0
M  V30 5702 C 511.513 1.92968 -0.280775 0
M  V30 5703 O 510.783 1.82959 0.700198 0
M  V30 5704 H 509.363 0.463471 -0.585836 0
M  V30 5705 H 512.025 0.574678 -1.86235 0
M  V30 5706 H 511.121 2.00895 -2.38847 0
M  V30 5707 N 511.423 1.38739 0.74761 0
M  V30 5708 C 512.371 1.36573 1.88283 0
M  V30 5709 C 513.365 0.250712 1.67534 0
M  V30 5710 O 514.571 0.420073 1.7503 0
M  V30 5711 H 510.946 0.42619 0.619569 0
M  V30 5712 H 512.917 2.32356 1.87226 0
M  V30 5713 C 511.666 1.21361 3.25832 0
M  V30 5714 H 510.989 2.06424 3.42388 0
M  V30 5715 H 512.429 1.23901 4.05493 0
M  V30 5716 C 510.888 -0.0790099 3.36807 0
M  V30 5717 O 511.418 -1.05385 3.8763 0
M  V30 5718 N 509.624 -0.13785 2.90273 0
M  V30 5719 H 509.171 0.656128 2.49104 0
M  V30 5720 H 509.129 -1.00228 2.97996 0
M  V30 5721 N 512.901 -0.976442 1.23707 0
M  V30 5722 C 513.811 -2.10359 1.03856 0
M  V30 5723 C 514.827 -1.73991 -0.0180919 0
M  V30 5724 O 516.003 -2.0061 0.178211 0
M  V30 5725 C 513.068 -3.40809 0.636387 0
M  V30 5726 C 512.129 -3.91179 1.76854 0
M  V30 5727 C 511.362 -5.15404 1.38546 0
M  V30 5728 O 511.585 -5.69754 0.27142 0
M  V30 5729 O 510.519 -5.5994 2.20797 0
M  V30 5730 H 514.345 -2.29997 1.98331 0
M  V30 5731 H 511.93 -1.08742 1.02448 0
M  V30 5732 H 513.812 -4.19269 0.423223 0
M  V30 5733 H 512.487 -3.22493 -0.279322 0
M  V30 5734 H 511.394 -3.13819 2.03638 0
M  V30 5735 H 512.727 -4.13958 2.6627 0
M  V30 5736 N 514.379 -1.04941 -1.1758 0
M  V30 5737 C 515.326 -0.648155 -2.21512 0
M  V30 5738 C 516.296 0.348431 -1.62404 0
M  V30 5739 O 517.481 0.240419 -1.89279 0
M  V30 5740 C 514.621 -0.0264291 -3.4509 0
M  V30 5741 C 513.734 -1.07154 -4.185 0
M  V30 5742 C 512.869 -0.417403 -5.29558 0
M  V30 5743 C 511.908 -1.447 -5.94751 0
M  V30 5744 N 511.045 -0.817203 -6.97328 0
M  V30 5745 H 515.885 -1.53891 -2.55189 0
M  V30 5746 H 513.422 -0.769699 -1.25356 0
M  V30 5747 H 515.38 0.351456 -4.15717 0
M  V30 5748 H 514.01 0.827802 -3.12005 0
M  V30 5749 H 513.062 -1.56728 -3.46613 0
M  V30 5750 H 514.374 -1.8532 -4.63096 0
M  V30 5751 H 513.528 0.0142061 -6.06698 0
M  V30 5752 H 512.267 0.396265 -4.86087 0
M  V30 5753 H 511.272 -1.88865 -5.16343 0
M  V30 5754 H 512.497 -2.26252 -6.40302 0
M  V30 5755 H 510.443 -0.0239995 -6.55996 0
M  V30 5756 H 510.36 -1.53644 -7.40223 0
M  V30 5757 H 511.628 -0.410283 -7.7842 0
M  V30 5758 N 515.857 1.33968 -0.830081 0
M  V30 5759 C 517.103 1.98357 -0.422191 0
M  V30 5760 C 517.436 1.65633 1.01387 0
M  V30 5761 O 516.711 0.931648 1.70735 0
M  V30 5762 C 516.994 3.54492 -0.633043 0
M  V30 5763 C 516.847 3.96934 -2.11574 0
M  V30 5764 C 518.166 4.40039 -0.0735584 0
M  V30 5765 H 515.285 0.720544 -0.154871 0
M  V30 5766 H 517.927 1.58749 -1.04397 0
M  V30 5767 H 516.077 3.88361 -0.103775 0
M  V30 5768 H 517.749 3.73363 -2.7092 0
M  V30 5769 H 515.992 3.46984 -2.60354 0
M  V30 5770 H 516.663 5.05651 -2.21406 0
M  V30 5771 H 519.139 4.12764 -0.52585 0
M  V30 5772 H 518.015 5.48327 -0.250841 0
M  V30 5773 H 518.276 4.30124 1.02202 0
M  V30 5774 N 517.335 0.585699 1.46312 0
M  V30 5775 C 518.265 -0.133556 2.33118 0
M  V30 5776 C 519.246 -0.880707 1.45525 0
M  V30 5777 O 520.431 -0.855579 1.74337 0
M  V30 5778 C 517.561 -1.14585 3.27853 0
M  V30 5779 C 516.515 -0.513341 4.2491 0
M  V30 5780 C 515.841 -1.63231 5.09175 0
M  V30 5781 C 517.141 0.551413 5.19381 0
M  V30 5782 H 518.835 0.59121 2.93505 0
M  V30 5783 H 516.381 0.285761 1.41136 0
M  V30 5784 H 518.334 -1.65741 3.87438 0
M  V30 5785 H 517.058 -1.90093 2.65579 0
M  V30 5786 H 515.717 -0.0228349 3.66593 0
M  V30 5787 H 515.365 -2.37713 4.43285 0
M  V30 5788 H 515.065 -1.21473 5.74907 0
M  V30 5789 H 516.589 -2.14658 5.71624 0
M  V30 5790 H 518.003 0.124804 5.73164 0
M  V30 5791 H 516.4 0.889486 5.93471 0
M  V30 5792 H 517.47 1.43655 4.63132 0
M  V30 5793 N 518.813 -1.54241 0.323641 0
M  V30 5794 C 519.723 -2.28033 -0.551205 0
M  V30 5795 C 520.739 -1.32388 -1.12913 0
M  V30 5796 O 521.915 -1.65403 -1.14908 0
M  V30 5797 C 518.98 -3.02382 -1.69606 0
M  V30 5798 C 518.041 -4.13612 -1.14993 0
M  V30 5799 C 517.274 -4.84407 -2.24022 0
M  V30 5800 O 517.497 -4.54716 -3.44368 0
M  V30 5801 O 516.431 -5.71312 -1.89436 0
M  V30 5802 H 520.257 -3.03662 0.048066 0
M  V30 5803 H 517.842 -1.49133 0.0893289 0
M  V30 5804 H 519.724 -3.48941 -2.36259 0
M  V30 5805 H 518.399 -2.29628 -2.28151 0
M  V30 5806 H 517.306 -3.71402 -0.448484 0
M  V30 5807 H 518.639 -4.8841 -0.609608 0
M  V30 5808 N 520.291 -0.0518155 -1.57515 0
M  V30 5809 C 521.238 0.922352 -2.11569 0
M  V30 5810 C 522.208 1.30842 -1.02321 0
M  V30 5811 O 523.393 1.39778 -1.29872 0
M  V30 5812 C 520.533 2.19167 -2.6657 0
M  V30 5813 C 519.646 1.86003 -3.89906 0
M  V30 5814 C 518.781 3.07398 -4.33221 0
M  V30 5815 C 517.82 2.70158 -5.49255 0
M  V30 5816 N 516.957 3.84248 -5.8762 0
M  V30 5817 H 521.797 0.454506 -2.94514 0
M  V30 5818 H 519.334 0.212718 -1.45554 0
M  V30 5819 H 521.292 2.93443 -2.96559 0
M  V30 5820 H 519.922 2.63528 -1.86421 0
M  V30 5821 H 518.974 1.01874 -3.66505 0
M  V30 5822 H 520.286 1.54592 -4.74239 0
M  V30 5823 H 519.44 3.89972 -4.64765 0
M  V30 5824 H 518.179 3.41988 -3.477 0
M  V30 5825 H 517.184 1.86001 -5.17382 0
M  V30 5826 H 518.409 2.36759 -6.36492 0
M  V30 5827 H 516.355 4.18638 -5.05053 0
M  V30 5828 H 516.272 3.56538 -6.66646 0
M  V30 5829 H 517.54 4.6746 -6.2378 0
M  V30 5830 N 521.769 1.56035 0.221574 0
M  V30 5831 C 523.015 1.79312 0.947372 0
M  V30 5832 C 523.348 0.621453 1.83988 0
M  V30 5833 O 522.623 -0.379287 1.90766 0
M  V30 5834 C 522.906 3.1267 1.78633 0
M  V30 5835 C 522.759 4.40284 0.920312 0
M  V30 5836 C 524.078 3.4247 2.7641 0
M  V30 5837 H 521.197 0.652328 0.342982 0
M  V30 5838 H 523.839 1.88765 0.216244 0
M  V30 5839 H 521.989 3.04741 2.40967 0
M  V30 5840 H 523.661 4.60232 0.313718 0
M  V30 5841 H 521.904 4.33212 0.225734 0
M  V30 5842 H 522.575 5.30033 1.54171 0
M  V30 5843 H 525.051 3.50526 2.24211 0
M  V30 5844 H 523.927 4.3695 3.32213 0
M  V30 5845 H 524.188 2.64635 3.54148 0
M  V30 5846 N 523.247 -0.488276 1.49845 0
M  V30 5847 C 524.177 -1.59675 1.70371 0
M  V30 5848 C 525.158 -1.60878 0.552473 0
M  V30 5849 O 526.343 -1.77417 0.78973 0
M  V30 5850 C 523.473 -2.98098 1.782 0
M  V30 5851 C 522.427 -3.11761 2.93239 0
M  V30 5852 C 521.753 -4.51661 2.86193 0
M  V30 5853 C 523.053 -2.90589 4.33999 0
M  V30 5854 H 524.747 -1.42752 2.63177 0
M  V30 5855 H 522.293 -0.685317 1.26647 0
M  V30 5856 H 524.246 -3.75555 1.91144 0
M  V30 5857 H 522.97 -3.16138 0.820018 0
M  V30 5858 H 521.629 -2.36732 2.79917 0
M  V30 5859 H 521.277 -4.66595 1.87877 0
M  V30 5860 H 520.977 -4.61742 3.63412 0
M  V30 5861 H 522.501 -5.31162 3.01163 0
M  V30 5862 H 523.915 -3.57807 4.47936 0
M  V30 5863 H 522.312 -3.1213 5.12538 0
M  V30 5864 H 523.382 -1.86595 4.4756 0
M  V30 5865 N 524.725 -1.39134 -0.740242 0
M  V30 5866 C 526.002 -1.26584 -1.49117 0
M  V30 5867 C 526.382 0.126902 -2.10718 0
M  V30 5868 O 525.73 1.13765 -1.98166 0
M  V30 5869 C 525.94 -2.38619 -2.54681 0
M  V30 5870 C 527.288 -2.77685 -3.21211 0
M  V30 5871 O 528.312 -2.38029 -2.64991 0
M  V30 5872 O 527.171 -3.46115 -4.22926 0
M  V30 5873 H 524.265 -0.495769 -0.661923 0
M  V30 5874 H 526.811 -1.50995 -0.774514 0
M  V30 5875 H 525.583 -3.3175 -2.07504 0
M  V30 5876 H 525.206 -2.15845 -3.33911 0
M  V30 5877 N 526.204 0.969867 -1.24223 0
M  V30 5878 C 527.45 1.71582 -1.09231 0
M  V30 5879 C 527.805 1.88898 0.365432 0
M  V30 5880 O 527.098 1.43781 1.2664 0
M  V30 5881 C 527.292 3.10883 -1.76314 0
M  V30 5882 C 527.121 3.07155 -3.2846 0
M  V30 5883 C 525.891 3.11757 -3.97663 0
M  V30 5884 C 528.089 2.895 -4.25082 0
M  V30 5885 N 526.071 2.98025 -5.36707 0
M  V30 5886 C 527.442 2.84041 -5.51109 0
M  V30 5887 C 529.497 2.74064 -4.15684 0
M  V30 5888 C 528.2 2.64725 -6.68815 0
M  V30 5889 C 530.226 2.56115 -5.33066 0
M  V30 5890 C 529.588 2.51363 -6.58024 0
M  V30 5891 H 525.687 0.636496 -0.454309 0
M  V30 5892 H 528.271 1.15004 -1.57106 0
M  V30 5893 H 526.442 3.65657 -1.30955 0
M  V30 5894 H 528.174 3.74171 -1.54201 0
M  V30 5895 H 524.929 3.20352 -3.48814 0
M  V30 5896 H 525.353 2.94405 -6.09635 0
M  V30 5897 H 529.995 2.76521 -3.19837 0
M  V30 5898 H 527.713 2.61011 -7.64787 0
M  V30 5899 H 531.299 2.45119 -5.27644 0
M  V30 5900 H 530.179 2.37651 -7.47323 0
M  V30 5901 N 527.682 1.05563 1.17022 0
M  V30 5902 C 528.931 0.763036 1.8671 0
M  V30 5903 C 529.244 -0.712857 1.82147 0
M  V30 5904 O 530.45 -1.11955 2.47343 0
M  V30 5905 C 528.906 1.31474 3.35026 0
M  V30 5906 C 528.514 2.82034 3.48081 0
M  V30 5907 C 530.258 1.09935 4.10018 0
M  V30 5908 C 528.165 3.30486 4.90442 0
M  V30 5909 H 527.095 0.281747 0.699382 0
M  V30 5910 H 529.746 1.2734 1.32124 0
M  V30 5911 H 528.128 0.732171 3.89173 0
M  V30 5912 H 529.302 3.46178 3.04133 0
M  V30 5913 H 527.617 3.02156 2.86515 0
M  V30 5914 H 530.214 1.43632 5.15048 0
M  V30 5915 H 530.557 0.0373072 4.16283 0
M  V30 5916 H 531.09 1.64732 3.62089 0
M  V30 5917 H 527.829 4.36137 4.89352 0
M  V30 5918 H 527.349 2.71086 5.35044 0
M  V30 5919 H 529.028 3.25382 5.59227 0
M  V30 5920 N 529.16 -1.33526 0.837174 0
M  V30 5921 C 530.385 -2.0258 0.444545 0
M  V30 5922 C 530.81 -1.6258 -0.946006 0
M  V30 5923 O 530.168 -0.817548 -1.6182 0
M  V30 5924 C 530.216 -3.5605 0.571006 0
M  V30 5925 O 529.32 -4.10422 -0.403431 0
M  V30 5926 H 528.661 -0.638866 0.180958 0
M  V30 5927 H 531.191 -1.70462 1.13154 0
M  V30 5928 H 531.201 -4.05488 0.452024 0
M  V30 5929 H 529.876 -3.84509 1.58512 0
M  V30 5930 H 528.453 -3.72113 -0.242147 0
M  V30 5931 N 530.638 -0.59345 -1.46 0
M  V30 5932 C 531.886 -0.082988 -2.0193 0
M  V30 5933 C 532.207 1.28569 -1.46612 0
M  V30 5934 O 531.477 1.84629 -0.654909 0
M  V30 5935 H 530.057 -0.0276882 -0.746487 0
M  V30 5936 H 532.719 -0.771657 -1.78973 0
M  V30 5937 H 531.815 -0.022079 -3.12092 0
M  V30 5938 N 532.116 1.54067 -0.331816 0
M  V30 5939 C 533.341 2.05599 0.272705 0
M  V30 5940 C 533.766 1.2059 1.44359 0
M  V30 5941 O 533.124 0.216907 1.79998 0
M  V30 5942 C 533.172 3.54188 0.677021 0
M  V30 5943 O 532.276 3.72082 1.77844 0
M  V30 5944 H 531.617 0.662286 0.0476801 0
M  V30 5945 H 534.147 1.98826 -0.482624 0
M  V30 5946 H 534.157 3.96608 0.957415 0
M  V30 5947 H 532.832 4.15513 -0.179325 0
M  V30 5948 H 531.409 3.41566 1.49622 0
M  V30 5949 N 533.594 0.0601682 1.57485 0
M  V30 5950 C 534.841 -0.611594 1.93043 0
M  V30 5951 C 535.169 -1.70317 0.939274 0
M  V30 5952 O 534.424 -1.95644 -0.046996 0
M  V30 5953 C 534.723 -1.23831 3.35262 0
M  V30 5954 C 534.389 -0.274037 4.50066 0
M  V30 5955 C 533.051 -0.00872394 4.81199 0
M  V30 5956 C 535.403 0.386308 5.19766 0
M  V30 5957 C 532.731 0.924218 5.79375 0
M  V30 5958 C 535.083 1.3075 6.1894 0
M  V30 5959 C 533.747 1.58139 6.48497 0
M  V30 5960 H 533.017 -0.223798 0.706396 0
M  V30 5961 H 535.664 0.128566 1.91068 0
M  V30 5962 H 533.969 -2.05394 3.33647 0
M  V30 5963 H 535.666 -1.76517 3.60059 0
M  V30 5964 H 532.256 -0.491008 4.25778 0
M  V30 5965 H 536.44 0.194436 4.95919 0
M  V30 5966 H 531.696 1.1438 6.00606 0
M  V30 5967 H 535.87 1.82519 6.72056 0
M  V30 5968 H 533.497 2.30593 7.24383 0
M  V30 5969 N 535.072 -1.5615 -0.213296 0
M  V30 5970 C 536.02 -1.93953 -1.28394 0
M  V30 5971 C 537.014 -0.822592 -1.48087 0
M  V30 5972 O 538.22 -1.00748 -1.49164 0
M  V30 5973 H 534.595 -0.61648 -0.430646 0
M  V30 5974 H 536.566 -2.83275 -0.937977 0
M  V30 5975 C 535.315 -2.27969 -2.62537 0
M  V30 5976 H 534.638 -3.13432 -2.48194 0
M  V30 5977 H 536.078 -2.58297 -3.36242 0
M  V30 5978 C 534.537 -1.10775 -3.18167 0
M  V30 5979 O 535.067 -0.373201 -3.99963 0
M  V30 5980 N 533.273 -0.889377 -2.76656 0
M  V30 5981 H 532.82 -1.48843 -2.10246 0
M  V30 5982 H 532.778 -0.107 -3.14218 0
M  V30 5983 N 536.55 0.480323 -1.50102 0
M  V30 5984 C 537.498 1.60024 -1.68805 0
M  V30 5985 C 538.492 1.60089 -0.553888 0
M  V30 5986 O 539.698 1.64349 -0.734127 0
M  V30 5987 H 536.073 0.530841 -0.532646 0
M  V30 5988 H 538.044 1.41408 -2.62767 0
M  V30 5989 C 536.793 2.98029 -1.79092 0
M  V30 5990 H 536.116 2.98694 -2.65748 0
M  V30 5991 H 537.556 3.75871 -1.96206 0
M  V30 5992 C 536.015 3.32538 -0.540388 0
M  V30 5993 O 536.545 4.00386 0.324637 0
M  V30 5994 N 534.751 2.87873 -0.397154 0
M  V30 5995 H 534.298 2.32834 -1.1021 0
M  V30 5996 H 534.256 3.11328 0.438425 0
M  V30 5997 N 538.028 1.39524 0.732853 0
M  V30 5998 C 538.975 1.38416 1.84688 0
M  V30 5999 C 539.945 0.243539 1.64305 0
M  V30 6000 O 541.13 0.438979 1.85681 0
M  V30 6001 C 538.27 1.23555 3.22224 0
M  V30 6002 C 537.383 2.47179 3.54298 0
M  V30 6003 C 536.518 2.2489 4.81246 0
M  V30 6004 C 535.557 3.44178 5.0617 0
M  V30 6005 N 534.694 3.21192 6.24323 0
M  V30 6006 H 539.534 2.33645 1.84971 0
M  V30 6007 H 537.071 1.16059 0.903804 0
M  V30 6008 H 539.029 1.12949 4.0162 0
M  V30 6009 H 537.659 0.31954 3.21215 0
M  V30 6010 H 536.711 2.68379 2.69587 0
M  V30 6011 H 538.023 3.36022 3.68633 0
M  V30 6012 H 537.177 2.11538 5.68627 0
M  V30 6013 H 535.916 1.33443 4.69089 0
M  V30 6014 H 534.921 3.58025 4.17251 0
M  V30 6015 H 536.146 4.36528 5.20212 0
M  V30 6016 H 534.092 2.32413 6.1345 0
M  V30 6017 H 534.009 4.03594 6.39256 0
M  V30 6018 H 535.277 3.1154 7.14537 0
M  V30 6019 N 539.506 -0.963266 1.24736 0
M  V30 6020 C 540.922 -1.23273 1.01371 0
M  V30 6021 C 541.122 -1.99618 -0.274776 0
M  V30 6022 O 540.178 -2.32293 -0.989769 0
M  V30 6023 C 541.491 -2.01554 2.23152 0
M  V30 6024 C 543.039 -2.14629 2.27823 0
M  V30 6025 C 543.514 -2.96307 3.49237 0
M  V30 6026 N 545.005 -3.03887 3.49581 0
M  V30 6027 C 545.74 -3.67456 4.40186 0
M  V30 6028 N 545.236 -4.32706 5.41052 0
M  V30 6029 N 547.029 -3.64511 4.27888 0
M  V30 6030 H 539.18 -0.452294 2.07528 0
M  V30 6031 H 541.443 -0.262521 0.910926 0
M  V30 6032 H 541.149 -1.52847 3.1675 0
M  V30 6033 H 541.023 -3.02278 2.25628 0
M  V30 6034 H 543.41 -2.62537 1.34753 0
M  V30 6035 H 543.491 -1.13238 2.2937 0
M  V30 6036 H 543.135 -2.49091 4.42624 0
M  V30 6037 H 543.065 -3.97905 3.44933 0
M  V30 6038 H 545.556 -2.57477 2.76611 0
M  V30 6039 H 545.869 -4.79042 6.06415 0
M  V30 6040 H 544.214 -4.31361 5.44934 0
M  V30 6041 H 547.405 -3.12715 3.4832 0
M  V30 6042 H 547.578 -4.13768 4.98698 0
M  V30 6043 N 540.985 -1.06182 -1.16461 0
M  V30 6044 C 542.401 -0.785065 -1.38956 0
M  V30 6045 C 542.601 0.616103 -1.9185 0
M  V30 6046 O 541.657 1.37686 -2.11657 0
M  V30 6047 C 542.97 -1.84902 -2.37132 0
M  V30 6048 C 544.518 -1.8724 -2.50819 0
M  V30 6049 C 544.993 -2.92686 -3.52277 0
M  V30 6050 N 546.484 -2.91712 -3.59803 0
M  V30 6051 C 547.219 -3.69949 -4.38093 0
M  V30 6052 N 546.715 -4.58 -5.19815 0
M  V30 6053 N 548.508 -3.58346 -4.33064 0
M  V30 6054 H 540.659 -1.96569 -0.804634 0
M  V30 6055 H 542.922 -0.851747 -0.416211 0
M  V30 6056 H 542.628 -2.85518 -2.0536 0
M  V30 6057 H 542.502 -1.69908 -3.36766 0
M  V30 6058 H 544.889 -0.872827 -2.81897 0
M  V30 6059 H 544.97 -2.06311 -1.51226 0
M  V30 6060 H 544.614 -3.92835 -3.21937 0
M  V30 6061 H 544.544 -2.70864 -4.51598 0
M  V30 6062 H 547.035 -2.27876 -3.01464 0
M  V30 6063 H 547.348 -5.14357 -5.76764 0
M  V30 6064 H 545.693 -4.62056 -5.19162 0
M  V30 6065 H 548.884 -2.88943 -3.68279 0
M  V30 6066 H 549.057 -4.19563 -4.93833 0
M  V30 6067 N 542.463 1.3308 -0.844243 0
M  V30 6068 C 543.879 1.50447 -0.532729 0
M  V30 6069 C 544.079 1.78292 0.938837 0
M  V30 6070 O 543.135 1.84635 1.72239 0
M  V30 6071 C 544.448 2.65555 -1.41072 0
M  V30 6072 C 545.996 2.7944 -1.41005 0
M  V30 6073 C 546.471 3.97616 -2.27301 0
M  V30 6074 N 547.962 4.0486 -2.2504 0
M  V30 6075 C 548.697 4.95508 -2.88547 0
M  V30 6076 N 548.193 5.91236 -3.61126 0
M  V30 6077 N 549.986 4.88548 -2.77989 0
M  V30 6078 H 542.137 1.13269 -1.79677 0
M  V30 6079 H 544.4 0.55734 -0.766861 0
M  V30 6080 H 544.106 2.51675 -2.45668 0
M  V30 6081 H 543.98 3.61089 -1.09061 0
M  V30 6082 H 546.367 2.92749 -0.371784 0
M  V30 6083 H 546.448 1.8465 -1.77026 0
M  V30 6084 H 546.092 3.85066 -3.3119 0
M  V30 6085 H 546.022 4.91661 -1.88619 0
M  V30 6086 H 548.513 3.36353 -1.72264 0
M  V30 6087 H 548.826 6.57079 -4.06776 0
M  V30 6088 H 547.171 5.91295 -3.65234 0
M  V30 6089 H 550.362 4.12729 -2.20846 0
M  V30 6090 H 550.535 5.58994 -3.27765 0
M  V30 6091 N 543.941 0.601185 1.45683 0
M  V30 6092 C 545.357 0.264315 1.57396 0
M  V30 6093 C 545.557 -1.23324 1.59353 0
M  V30 6094 O 544.613 -2.01594 1.52039 0
M  V30 6095 C 545.926 0.929839 2.85962 0
M  V30 6096 C 547.474 0.905156 2.99626 0
M  V30 6097 C 547.949 1.55057 4.30954 0
M  V30 6098 N 549.44 1.51576 4.37697 0
M  V30 6099 C 550.175 1.98436 5.37969 0
M  V30 6100 N 549.671 2.53352 6.44813 0
M  V30 6101 N 551.464 1.89242 5.29286 0
M  V30 6102 H 543.615 1.57363 1.42656 0
M  V30 6103 H 545.878 0.658831 0.681649 0
M  V30 6104 H 545.584 1.98404 2.90394 0
M  V30 6105 H 545.458 0.449224 3.74515 0
M  V30 6106 H 547.845 -0.14048 2.94765 0
M  V30 6107 H 547.926 1.42397 2.12501 0
M  V30 6108 H 547.57 2.5955 4.36573 0
M  V30 6109 H 547.5 1.00682 5.16886 0
M  V30 6110 H 549.991 1.11452 3.61091 0
M  V30 6111 H 550.304 2.86918 7.17564 0
M  V30 6112 H 548.649 2.57388 6.45582 0
M  V30 6113 H 551.84 1.46083 4.44722 0
M  V30 6114 H 552.013 2.26075 6.07284 0
M  V30 6115 N 545.419 -1.53889 0.339982 0
M  V30 6116 C 546.835 -1.59595 -0.0120752 0
M  V30 6117 C 547.035 -1.35605 -1.49042 0
M  V30 6118 O 546.091 -1.14856 -2.24865 0
M  V30 6119 C 547.404 -2.9774 0.420898 0
M  V30 6120 C 548.952 -3.1077 0.37294 0
M  V30 6121 C 549.427 -4.51286 0.781327 0
M  V30 6122 N 550.918 -4.57325 0.735374 0
M  V30 6123 C 551.653 -5.64194 1.02336 0
M  V30 6124 N 551.149 -6.7893 1.37933 0
M  V30 6125 N 552.942 -5.54051 0.947838 0
M  V30 6126 H 545.093 -1.67738 1.30299 0
M  V30 6127 H 547.356 -0.785385 0.530918 0
M  V30 6128 H 547.062 -3.20349 1.45152 0
M  V30 6129 H 546.936 -3.76639 -0.205721 0
M  V30 6130 H 549.323 -2.87886 -0.648505 0
M  V30 6131 H 549.404 -2.33939 1.03472 0
M  V30 6132 H 549.048 -4.74905 1.80077 0
M  V30 6133 H 548.978 -5.26511 0.0970679 0
M  V30 6134 H 551.469 -3.74931 0.472773 0
M  V30 6135 H 551.782 -7.56392 1.58402 0
M  V30 6136 H 550.127 -6.80386 1.41774 0
M  V30 6137 H 553.318 -4.63293 0.669115 0
M  V30 6138 H 553.491 -6.37246 1.17563 0
M  V30 6139 N 546.897 -0.0685191 -1.57451 0
M  V30 6140 C 548.125 0.610462 -1.97689 0
M  V30 6141 C 548.54 1.63346 -0.946758 0
M  V30 6142 O 547.897 1.82377 0.0669868 0
M  V30 6143 C 547.948 1.28196 -3.38006 0
M  V30 6144 O 547.669 0.299906 -4.37072 0
M  V30 6145 C 549.17 2.04907 -3.931 0
M  V30 6146 H 546.39 0.165689 -0.650222 0
M  V30 6147 H 548.934 -0.139953 -2.04021 0
M  V30 6148 H 547.089 1.98348 -3.32771 0
M  V30 6149 H 547.503 0.78126 -5.18649 0
M  V30 6150 H 548.977 2.47287 -4.93511 0
M  V30 6151 H 549.454 2.9043 -3.29465 0
M  V30 6152 H 550.06 1.39629 -4.01726 0
M  V30 6153 N 548.375 1.56261 0.205012 0
M  V30 6154 C 549.6 1.84491 0.947512 0
M  V30 6155 C 550.025 0.650894 1.76479 0
M  V30 6156 O 549.383 -0.40035 1.76824 0
M  V30 6157 C 549.431 3.10863 1.82747 0
M  V30 6158 O 548.535 2.90719 2.925 0
M  V30 6159 H 547.876 0.607783 0.267386 0
M  V30 6160 H 550.406 2.03485 0.213323 0
M  V30 6161 H 550.416 3.41399 2.23407 0
M  V30 6162 H 549.091 3.97392 1.2269 0
M  V30 6163 H 547.668 2.71457 2.55667 0
M  V30 6164 N 549.853 -0.472356 1.50355 0
M  V30 6165 C 551.078 -1.25251 1.65309 0
M  V30 6166 C 551.503 -1.85081 0.335643 0
M  V30 6167 O 550.861 -1.67227 -0.700335 0
M  V30 6168 C 550.909 -2.3379 2.74544 0
M  V30 6169 O 550.013 -3.38401 2.35709 0
M  V30 6170 H 549.354 -0.368539 0.552336 0
M  V30 6171 H 551.884 -0.562271 1.96722 0
M  V30 6172 H 551.894 -2.79121 2.97583 0
M  V30 6173 H 550.569 -1.89614 3.70161 0
M  V30 6174 H 549.146 -2.9879 2.23112 0
M  V30 6175 O 551.37 -1.49213 -0.617887 0
M  V30 6176 H 552.061 -1.46058 -1.27227 0
M  V30 END ATOM
M  V30 BEGIN BOND
M  V30 END BOND
M  V30 END CTAB
M  END
$$$$
