drugbank_target|Q8IUR0 Trafficking protein particle complex subunit 5 (DB08342)
 OpenBabel12092120503D

  0  0  0     0  0            999 V3000
M  V30 BEGIN CTAB
M  V30 COUNTS 2977 3000 0 0 0
M  V30 BEGIN ATOM
M  V30 1 H -0.908 1.98254 -0.117106 0
M  V30 2 N 0 1.576 0 0
M  V30 3 C 0.933 2.03868 1.02534 0
M  V30 4 C 1.911 0.928543 1.3348 0
M  V30 5 O 3.095 1.19667 1.45644 0
M  V30 6 C 0.222 2.43627 2.35294 0
M  V30 7 C -0.732 3.65373 2.2001 0
M  V30 8 S 0.101 5.13292 1.52614 0
M  V30 9 C 1.257 5.56322 2.86805 0
M  V30 10 H 1.49 2.90518 0.631377 0
M  V30 11 H -0.977 1.52953 0.210867 0
M  V30 12 H 0.981 2.67203 3.11629 0
M  V30 13 H -0.358 1.57376 2.7183 0
M  V30 14 H -1.165 3.90944 3.18086 0
M  V30 15 H -1.563 3.418 1.51819 0
M  V30 16 H 0.729 5.58782 3.83104 0
M  V30 17 H 1.672 6.56266 2.65933 0
M  V30 18 H 2.08 4.83886 2.90714 0
M  V30 19 N 1.4781 -0.272755 1.55222 0
M  V30 20 C 2.3881 -1.35918 1.91216 0
M  V30 21 C 3.4041 -1.54026 0.809436 0
M  V30 22 O 4.5801 -1.68148 1.10852 0
M  V30 23 C 1.6451 -2.69834 2.17693 0
M  V30 24 C 0.7061 -2.6047 3.41253 0
M  V30 25 C -0.0609 -3.88 3.66458 0
M  V30 26 O 0.1621 -4.88693 2.94169 0
M  V30 27 O -0.9039 -3.88189 4.59992 0
M  V30 28 H 2.9221 -1.0839 2.83699 0
M  V30 29 H 0.5071 -0.471301 1.41771 0
M  V30 30 H 2.3891 -3.49017 2.36147 0
M  V30 31 H 1.0641 -2.97148 1.28392 0
M  V30 32 H -0.0289 -1.79663 3.28134 0
M  V30 33 H 1.3041 -2.38106 4.30774 0
M  V30 34 N 2.9562 -1.48159 -0.537278 0
M  V30 35 C 3.9192 -1.61665 -1.62472 0
M  V30 36 C 4.9192 -0.490395 -1.5314 0
M  V30 37 O 6.1092 -0.755998 -1.5694 0
M  V30 38 C 3.2412 -1.57997 -3.02076 0
M  V30 39 H 4.4342 -2.58621 -1.51839 0
M  V30 40 H 1.9872 -1.36647 -0.758771 0
M  V30 41 H 2.7222 -0.624913 -3.18222 0
M  V30 42 H 2.5072 -2.39755 -3.10258 0
M  V30 43 H 3.9972 -1.70627 -3.81151 0
M  V30 44 N 4.4343 0.785586 -1.36625 0
M  V30 45 C 5.8503 1.08419 -1.17122 0
M  V30 46 C 6.0503 2.015 0.00208491 0
M  V30 47 O 5.1063 2.43551 0.666278 0
M  V30 48 C 6.4193 1.69498 -2.48377 0
M  V30 49 C 7.9673 1.81821 -2.54775 0
M  V30 50 C 8.4423 2.46315 -3.86126 0
M  V30 51 N 9.9333 2.53779 -3.87492 0
M  V30 52 C 10.6683 3.045 -4.85868 0
M  V30 53 N 10.1643 3.55499 -5.94637 0
M  V30 54 N 11.9573 3.03247 -4.73284 0
M  V30 55 H 4.1083 0.167264 -2.1174 0
M  V30 56 H 6.3713 0.13682 -0.938075 0
M  V30 57 H 6.0773 1.08571 -3.34522 0
M  V30 58 H 5.9513 2.6896 -2.64462 0
M  V30 59 H 8.3383 2.41884 -1.69045 0
M  V30 60 H 8.4193 0.811532 -2.42586 0
M  V30 61 H 8.0633 1.86895 -4.72263 0
M  V30 62 H 7.9933 3.47561 -3.95612 0
M  V30 63 H 10.4843 2.17672 -3.08913 0
M  V30 64 H 10.7973 3.92562 -6.65669 0
M  V30 65 H 9.1423 3.5364 -5.98301 0
M  V30 66 H 12.3333 2.62696 -3.87438 0
M  V30 67 H 12.5063 3.42467 -5.50109 0
M  V30 68 N 5.9124 1.20967 1.01018 0
M  V30 69 C 7.1594 1.02374 1.74716 0
M  V30 70 C 7.4874 -0.443375 1.89379 0
M  V30 71 O 6.7424 -1.34535 1.42123 0
M  V30 72 C 7.0414 1.65997 3.16512 0
M  V30 73 C 6.7074 3.15831 3.2181 0
M  V30 74 C 5.3694 3.56719 3.22963 0
M  V30 75 C 7.7214 4.11816 3.19464 0
M  V30 76 C 5.0494 4.92107 3.19449 0
M  V30 77 C 7.4014 5.47158 3.17491 0
M  V30 78 C 6.0654 5.87451 3.16951 0
M  V30 79 H 5.3354 0.374614 0.639332 0
M  V30 80 H 7.9824 1.50485 1.18434 0
M  V30 81 H 6.2874 1.10166 3.75993 0
M  V30 82 H 7.9844 1.49119 3.72242 0
M  V30 83 H 4.5744 2.83263 3.21652 0
M  V30 84 H 8.7584 3.81257 3.17737 0
M  V30 85 H 4.0144 5.22579 3.17366 0
M  V30 86 H 8.1884 6.21274 3.14629 0
M  V30 87 H 5.8154 6.92329 3.13983 0
M  V30 88 N 7.3905 -1.2043 1.01659 0
M  V30 89 C 8.6185 -1.93777 0.725132 0
M  V30 90 C 9.0335 -1.74772 -0.714166 0
M  V30 91 O 8.3905 -1.06169 -1.4844 0
M  V30 92 C 8.4415 -3.45876 1.05129 0
M  V30 93 O 8.1625 -3.6426 2.43406 0
M  V30 94 C 9.6635 -4.36368 0.780891 0
M  V30 95 H 6.8835 -0.615901 0.266284 0
M  V30 96 H 9.4275 -1.52922 1.35776 0
M  V30 97 H 7.5825 -3.8461 0.464065 0
M  V30 98 H 7.9965 -4.58246 2.55169 0
M  V30 99 H 9.4705 -5.41743 1.05918 0
M  V30 100 H 9.9475 -4.38275 -0.284937 0
M  V30 101 H 10.5535 -4.03296 1.35027 0
M  V30 102 N 8.8686 -0.792821 -1.36206 0
M  V30 103 C 10.2846 -0.474903 -1.52371 0
M  V30 104 C 10.4846 1.00622 -1.74578 0
M  V30 105 O 9.5406 1.79162 -1.77924 0
M  V30 106 C 10.8536 -1.3083 -2.70747 0
M  V30 107 C 12.4016 -1.30234 -2.84619 0
M  V30 108 C 12.8766 -2.11956 -4.06004 0
M  V30 109 N 14.3676 -2.09419 -4.13156 0
M  V30 110 C 15.1026 -2.69419 -5.06163 0
M  V30 111 N 14.5986 -3.3829 -6.04592 0
M  V30 112 N 16.3916 -2.59134 -4.98804 0
M  V30 113 H 8.5426 -1.75222 -1.20046 0
M  V30 114 H 10.8056 -0.745024 -0.586211 0
M  V30 115 H 10.5116 -2.35881 -2.6087 0
M  V30 116 H 10.3856 -0.95196 -3.6499 0
M  V30 117 H 12.7726 -0.259748 -2.93955 0
M  V30 118 H 12.8536 -1.69847 -1.91274 0
M  V30 119 H 12.4976 -3.16248 -3.97429 0
M  V30 120 H 12.4276 -1.69711 -4.98503 0
M  V30 121 H 14.9186 -1.59297 -3.42685 0
M  V30 122 H 15.2316 -3.81394 -6.7213 0
M  V30 123 H 13.5766 -3.42393 -6.04807 0
M  V30 124 H 16.7676 -2.04927 -4.20859 0
M  V30 125 H 16.9406 -3.06185 -5.711 0
M  V30 126 N 10.3467 1.47872 -0.545128 0
M  V30 127 C 11.5947 2.02093 -0.016553 0
M  V30 128 C 11.9157 1.42305 1.3332 0
M  V30 129 O 11.1857 0.593853 1.86682 0
M  V30 130 H 9.7657 0.746993 -0.00313038 0
M  V30 131 H 12.4277 1.81414 -0.712397 0
M  V30 132 H 11.5237 3.11996 0.0805422 0
M  V30 133 N 11.8248 0.280983 1.55075 0
M  V30 134 C 12.7718 -0.603937 2.22758 0
M  V30 135 C 13.7418 -1.1452 1.20309 0
M  V30 136 O 14.9268 -1.19343 1.48869 0
M  V30 137 C 12.0668 -1.77947 2.95684 0
M  V30 138 C 11.1798 -1.2715 4.12864 0
M  V30 139 C 10.3148 -2.4093 4.7342 0
M  V30 140 C 9.3538 -1.87165 5.82783 0
M  V30 141 N 8.4908 -2.94441 6.37377 0
M  V30 142 H 13.3308 -0.020124 2.97993 0
M  V30 143 H 10.8678 0.00183425 1.471 0
M  V30 144 H 12.8258 -2.47055 3.36184 0
M  V30 145 H 11.4558 -2.33522 2.22861 0
M  V30 146 H 10.5078 -0.473331 3.77444 0
M  V30 147 H 11.8198 -0.837751 4.91715 0
M  V30 148 H 10.9738 -3.18021 5.1667 0
M  V30 149 H 9.7128 -2.87623 3.93859 0
M  V30 150 H 8.7178 -1.08556 5.38976 0
M  V30 151 H 9.9428 -1.41401 6.64216 0
M  V30 152 H 7.8888 -3.40505 5.60707 0
M  V30 153 H 7.8058 -2.55501 7.11516 0
M  V30 154 H 9.0738 -3.71489 6.85285 0
M  V30 155 N 13.3029 -1.57598 0.00835791 0
M  V30 156 C 14.5279 -1.95617 -0.689103 0
M  V30 157 C 14.9529 -0.883753 -1.66046 0
M  V30 158 O 14.3109 0.157352 -1.80616 0
M  V30 159 C 14.3589 -3.32736 -1.38994 0
M  V30 160 O 13.4629 -3.27631 -2.50463 0
M  V30 161 H 12.8039 -0.638379 -0.182668 0
M  V30 162 H 15.3339 -2.045 0.064036 0
M  V30 163 H 15.3439 -3.68494 -1.75147 0
M  V30 164 H 14.0189 -4.1034 -0.677778 0
M  V30 165 H 12.5959 -3.03561 -2.16576 0
M  V30 166 N 14.781 0.264519 -1.55364 0
M  V30 167 C 15.744 1.31046 -1.88042 0
M  V30 168 C 16.744 1.41943 -0.755569 0
M  V30 169 O 17.934 1.40947 -1.02369 0
M  V30 170 C 15.066 2.69067 -2.09323 0
M  V30 171 H 16.259 1.03297 -2.81549 0
M  V30 172 H 13.812 0.502989 -1.47986 0
M  V30 173 H 14.547 3.01982 -1.18226 0
M  V30 174 H 14.332 2.62542 -2.91229 0
M  V30 175 H 15.822 3.44623 -2.35848 0
M  V30 176 N 16.2591 1.48442 0.529413 0
M  V30 177 C 17.1891 1.65902 1.64313 0
M  V30 178 C 18.1701 0.507897 1.6234 0
M  V30 179 O 19.3551 0.740503 1.79528 0
M  V30 180 C 16.4851 1.69911 3.02898 0
M  V30 181 C 15.4391 2.8453 3.19729 0
M  V30 182 C 14.7651 2.73629 4.59381 0
M  V30 183 C 16.0651 4.25821 3.02447 0
M  V30 184 H 17.7591 2.5914 1.49955 0
M  V30 185 H 15.3051 1.24709 0.719982 0
M  V30 186 H 17.2581 1.80715 3.80684 0
M  V30 187 H 15.9821 0.732524 3.18279 0
M  V30 188 H 14.6411 2.73283 2.44361 0
M  V30 189 H 14.2891 1.74938 4.71599 0
M  V30 190 H 13.9891 3.50541 4.71588 0
M  V30 191 H 15.5131 2.86401 5.39265 0
M  V30 192 H 16.9271 4.37898 3.70024 0
M  V30 193 H 15.3241 5.03735 3.26146 0
M  V30 194 H 16.3941 4.42244 1.98867 0
M  V30 195 N 17.7372 -0.778329 1.37039 0
M  V30 196 C 18.6672 -1.90546 1.34962 0
M  V30 197 C 19.6482 -1.68681 0.219274 0
M  V30 198 O 20.8332 -1.89634 0.418624 0
M  V30 199 C 17.9632 -3.27734 1.14925 0
M  V30 200 C 16.9172 -3.64147 2.24902 0
M  V30 201 C 16.2432 -4.99806 1.89996 0
M  V30 202 C 17.5432 -3.71579 3.67051 0
M  V30 203 H 19.2372 -1.92541 2.29277 0
M  V30 204 H 16.7832 -0.924948 1.10366 0
M  V30 205 H 18.7362 -4.06215 1.12104 0
M  V30 206 H 17.4602 -3.26154 0.170631 0
M  V30 207 H 16.1192 -2.8797 2.26868 0
M  V30 208 H 15.7672 -4.94759 0.906796 0
M  V30 209 H 15.4672 -5.25139 2.63634 0
M  V30 210 H 16.9912 -5.80694 1.88749 0
M  V30 211 H 18.4052 -4.40227 3.67251 0
M  V30 212 H 16.8022 -4.08405 4.39688 0
M  V30 213 H 17.8722 -2.72404 4.01154 0
M  V30 214 N 19.2153 -1.21501 -1.00376 0
M  V30 215 C 20.1253 -0.991447 -2.12621 0
M  V30 216 C 21.1413 0.0568446 -1.73907 0
M  V30 217 O 22.3173 -0.13348 -2.00957 0
M  V30 218 C 19.3823 -0.560312 -3.42142 0
M  V30 219 C 18.4433 -1.68096 -3.95022 0
M  V30 220 C 17.6763 -1.2703 -5.18362 0
M  V30 221 O 17.8993 -0.144438 -5.70217 0
M  V30 222 O 16.8333 -2.08269 -5.64719 0
M  V30 223 H 20.6593 -1.93158 -2.34358 0
M  V30 224 H 18.2443 -0.999999 -1.10997 0
M  V30 225 H 20.1263 -0.329724 -4.20108 0
M  V30 226 H 18.8013 0.351089 -3.2179 0
M  V30 227 H 17.7083 -1.96597 -3.18278 0
M  V30 228 H 19.0413 -2.56983 -4.19786 0
M  V30 229 N 20.6934 1.19889 -1.02296 0
M  V30 230 C 22.1094 1.41462 -0.738954 0
M  V30 231 C 22.3094 1.89721 0.678846 0
M  V30 232 O 21.3654 2.07016 1.4457 0
M  V30 233 C 22.6784 2.43083 -1.77005 0
M  V30 234 C 24.2264 2.5684 -1.78892 0
M  V30 235 C 24.7014 3.61709 -2.80945 0
M  V30 236 N 26.1924 3.69199 -2.79725 0
M  V30 237 C 26.9274 4.50019 -3.55345 0
M  V30 238 N 26.4234 5.34592 -4.40662 0
M  V30 239 N 28.2164 4.44612 -3.43914 0
M  V30 240 H 20.3674 0.868827 -1.93817 0
M  V30 241 H 22.6304 0.44399 -0.837602 0
M  V30 242 H 22.3364 2.14636 -2.78612 0
M  V30 243 H 22.2104 3.4217 -1.58744 0
M  V30 244 H 24.5974 2.84614 -0.779674 0
M  V30 245 H 24.6784 1.57927 -2.01228 0
M  V30 246 H 24.3224 3.34678 -3.82038 0
M  V30 247 H 24.2524 4.60259 -2.5587 0
M  V30 248 H 26.7434 3.08794 -2.17842 0
M  V30 249 H 27.0564 5.93363 -4.95116 0
M  V30 250 H 25.4014 5.34073 -4.44737 0
M  V30 251 H 28.5924 3.7758 -2.76679 0
M  V30 252 H 28.7654 5.0736 -4.031 0
M  V30 253 N 22.1715 0.800033 1.35784 0
M  V30 254 C 23.1345 0.211565 2.28221 0
M  V30 255 C 24.1345 -0.59728 1.49296 0
M  V30 256 O 25.3245 -0.416721 1.69142 0
M  V30 257 C 22.4565 -0.705846 3.33513 0
M  V30 258 H 23.6495 1.02677 2.81776 0
M  V30 259 H 21.2025 0.570211 1.45528 0
M  V30 260 H 21.9375 -1.54498 2.85133 0
M  V30 261 H 21.7225 -0.127655 3.91892 0
M  V30 262 H 23.2125 -1.11211 4.02519 0
M  V30 263 N 23.6496 -1.47581 0.552962 0
M  V30 264 C 24.5796 -2.32762 -0.185451 0
M  V30 265 C 25.5606 -1.43527 -0.912905 0
M  V30 266 O 26.7456 -1.72388 -0.894201 0
M  V30 267 C 23.8756 -3.25219 -1.21859 0
M  V30 268 C 22.8296 -4.23661 -0.607864 0
M  V30 269 C 22.1556 -5.05413 -1.74533 0
M  V30 270 C 23.4556 -5.20481 0.435582 0
M  V30 271 H 25.1496 -2.94749 0.525684 0
M  V30 272 H 22.6956 -1.41738 0.254251 0
M  V30 273 H 24.6486 -3.8365 -1.7433 0
M  V30 274 H 23.3726 -2.61279 -1.95961 0
M  V30 275 H 22.0316 -3.66451 -0.104489 0
M  V30 276 H 21.6796 -4.3788 -2.47529 0
M  V30 277 H 21.3796 -5.72059 -1.34249 0
M  V30 278 H 22.9036 -5.66701 -2.27338 0
M  V30 279 H 24.3176 -5.733 -0.00290157 0
M  V30 280 H 22.7146 -5.95305 0.757067 0
M  V30 281 H 23.7846 -4.66217 1.33303 0
M  V30 282 N 25.1277 -0.289203 -1.54924 0
M  V30 283 C 26.0907 0.579144 -2.21762 0
M  V30 284 C 27.0907 1.07047 -1.1999 0
M  V30 285 O 28.2807 0.968384 -1.44803 0
M  V30 286 C 25.4127 1.80055 -2.8947 0
M  V30 287 H 26.6057 -0.00464908 -2.999 0
M  V30 288 H 24.1587 -0.0399306 -1.56249 0
M  V30 289 H 24.8937 2.42449 -2.15381 0
M  V30 290 H 24.6787 1.45602 -3.64064 0
M  V30 291 H 26.1687 2.41773 -3.40493 0
M  V30 292 N 26.6058 1.57591 -0.0167156 0
M  V30 293 C 28.0218 1.55946 0.339557 0
M  V30 294 C 28.2218 1.02109 1.73713 0
M  V30 295 O 27.2778 0.662303 2.43659 0
M  V30 296 C 28.5908 3.00037 0.199499 0
M  V30 297 C 30.1388 3.11805 0.273193 0
M  V30 298 C 30.6138 4.57713 0.162068 0
M  V30 299 N 32.1048 4.6268 0.219444 0
M  V30 300 C 32.8398 5.73185 0.157054 0
M  V30 301 N 32.3358 6.92786 0.0442936 0
M  V30 302 N 34.1288 5.61707 0.21014 0
M  V30 303 H 26.2798 1.90921 -0.930758 0
M  V30 304 H 28.5428 0.877674 -0.358319 0
M  V30 305 H 28.2488 3.4333 -0.76273 0
M  V30 306 H 28.1228 3.64387 0.974786 0
M  V30 307 H 30.5098 2.68433 1.22587 0
M  V30 308 H 30.5908 2.50201 -0.532256 0
M  V30 309 H 30.2348 5.01763 -0.78714 0
M  V30 310 H 30.1648 5.17283 0.986222 0
M  V30 311 H 32.6558 3.76649 0.307246 0
M  V30 312 H 32.9688 7.728 0.00304069 0
M  V30 313 H 31.3138 6.94999 0.00968457 0
M  V30 314 H 34.5048 4.6716 0.296546 0
M  V30 315 H 34.6778 6.47807 0.158054 0
M  V30 316 N 28.0839 -0.256276 1.55502 0
M  V30 317 C 29.4949 -0.826068 1.67431 0
M  V30 318 C 29.8459 -1.86396 0.612446 0
M  V30 319 O 28.9709 -2.15031 -0.243025 0
M  V30 320 C 29.5659 -1.50512 3.03532 0
M  V30 321 C 28.1249 -2.02273 3.17431 0
M  V30 322 C 27.2719 -0.870548 2.63281 0
M  V30 323 H 30.2229 -0.0322728 1.58667 0
M  V30 324 H 30.2439 -2.37279 2.97454 0
M  V30 325 H 29.7559 -0.749484 3.80794 0
M  V30 326 H 27.8569 -2.80746 2.44974 0
M  V30 327 H 27.9699 -2.22655 4.24219 0
M  V30 328 H 26.3339 -1.26851 2.20864 0
M  V30 329 H 27.1169 -0.128149 3.43061 0
M  V30 330 N 29.562 -1.4872 -0.521534 0
M  V30 331 C 30.978 -1.35028 -0.850855 0
M  V30 332 C 31.178 -0.367712 -1.98116 0
M  V30 333 O 30.234 0.208037 -2.51642 0
M  V30 334 C 31.547 -2.75263 -1.21041 0
M  V30 335 C 33.095 -2.83813 -1.31981 0
M  V30 336 C 33.57 -4.24769 -1.71276 0
M  V30 337 N 35.061 -4.27482 -1.78363 0
M  V30 338 C 35.796 -5.33494 -2.1017 0
M  V30 339 N 35.292 -6.49775 -2.40343 0
M  V30 340 N 37.085 -5.20894 -2.11248 0
M  V30 341 H 29.236 -2.11214 0.22413 0
M  V30 342 H 31.499 -0.947252 0.0376439 0
M  V30 343 H 31.205 -3.48765 -0.453415 0
M  V30 344 H 31.079 -3.09327 -2.15863 0
M  V30 345 H 33.466 -2.10561 -2.06756 0
M  V30 346 H 33.547 -2.53358 -0.352596 0
M  V30 347 H 33.191 -4.9854 -0.970588 0
M  V30 348 H 33.121 -4.52673 -2.69062 0
M  V30 349 H 35.612 -3.43611 -1.57288 0
M  V30 350 H 35.925 -7.26402 -2.63743 0
M  V30 351 H 34.27 -6.53035 -2.37844 0
M  V30 352 H 37.461 -4.29065 -1.87139 0
M  V30 353 H 37.634 -6.03612 -2.35704 0
M  V30 354 N 31.0401 0.771051 -1.3745 0
M  V30 355 C 32.2681 1.56015 -1.35893 0
M  V30 356 C 32.6831 1.88718 0.0555523 0
M  V30 357 O 32.0401 1.51502 1.01752 0
M  V30 358 C 32.0911 2.87001 -2.19801 0
M  V30 359 O 31.8121 2.557 -3.55738 0
M  V30 360 C 33.3131 3.81228 -2.26231 0
M  V30 361 H 30.5331 0.483317 -0.465453 0
M  V30 362 H 33.0771 0.955611 -1.80799 0
M  V30 363 H 31.2321 3.43877 -1.78402 0
M  V30 364 H 31.6461 3.39584 -3.99729 0
M  V30 365 H 33.1201 4.70139 -2.89263 0
M  V30 366 H 33.5971 4.20409 -1.27093 0
M  V30 367 H 34.2031 3.30281 -2.67945 0
M  V30 368 N 32.5182 1.22032 0.997298 0
M  V30 369 C 33.4282 1.00271 2.12092 0
M  V30 370 C 34.4442 -0.047621 1.73935 0
M  V30 371 O 35.6202 0.144136 2.00884 0
M  V30 372 C 32.6852 0.578449 3.4184 0
M  V30 373 C 31.7462 1.70189 3.94125 0
M  V30 374 C 30.9792 1.29778 5.17681 0
M  V30 375 O 31.2022 0.174676 5.70132 0
M  V30 376 O 30.1362 2.11261 5.63607 0
M  V30 377 H 33.9622 1.94398 2.3333 0
M  V30 378 H 31.5472 1.00587 1.10465 0
M  V30 379 H 33.4292 0.351998 4.19927 0
M  V30 380 H 32.1042 -0.334019 3.21972 0
M  V30 381 H 31.0112 1.98282 3.1723 0
M  V30 382 H 32.3442 2.59206 4.18417 0
M  V30 383 N 33.9963 -1.19345 1.0293 0
M  V30 384 C 35.2423 -1.89318 0.727083 0
M  V30 385 C 35.5753 -1.79446 -0.742483 0
M  V30 386 O 34.8503 -1.1871 -1.54072 0
M  V30 387 C 35.1333 -3.40238 1.17942 0
M  V30 388 C 34.9863 -3.58979 2.71024 0
M  V30 389 C 36.3053 -4.33479 0.760548 0
M  V30 390 H 33.4243 -0.687475 0.265606 0
M  V30 391 H 36.0663 -1.40477 1.2793 0
M  V30 392 H 34.2163 -3.81964 0.709608 0
M  V30 393 H 35.8883 -3.26421 3.25955 0
M  V30 394 H 34.1313 -3.02018 3.11396 0
M  V30 395 H 34.8023 -4.64823 2.9773 0
M  V30 396 H 37.2783 -3.99469 1.16464 0
M  V30 397 H 36.1543 -5.37664 1.10493 0
M  V30 398 H 36.4153 -4.40813 -0.337063 0
M  V30 399 N 35.4744 -0.807222 -1.35358 0
M  V30 400 C 36.6994 -0.399309 -2.0352 0
M  V30 401 C 37.1244 0.981986 -1.60433 0
M  V30 402 O 36.4824 1.63601 -0.781299 0
M  V30 403 C 36.5304 -0.491552 -3.57234 0
M  V30 404 O 35.6344 0.494754 -4.09421 0
M  V30 405 H 34.9754 -0.166682 -0.642739 0
M  V30 406 H 37.5054 -1.09328 -1.72941 0
M  V30 407 H 37.5154 -0.361588 -4.06395 0
M  V30 408 H 36.1904 -1.49907 -3.87944 0
M  V30 409 H 34.7674 0.324977 -3.71481 0
M  V30 410 N 36.9525 1.47285 -0.560781 0
M  V30 411 C 37.8825 2.32857 0.173105 0
M  V30 412 C 38.8635 1.44009 0.905281 0
M  V30 413 O 40.0485 1.7286 0.885046 0
M  V30 414 C 37.1785 3.25861 1.20133 0
M  V30 415 C 36.1325 4.23978 0.585388 0
M  V30 416 C 35.4585 5.06332 1.7185 0
M  V30 417 C 36.7585 5.20242 -0.463178 0
M  V30 418 H 38.4525 2.94466 -0.541307 0
M  V30 419 H 35.9985 1.41601 -0.261764 0
M  V30 420 H 37.9515 3.84569 1.72293 0
M  V30 421 H 36.6755 2.62315 1.94573 0
M  V30 422 H 35.3345 3.66501 0.085054 0
M  V30 423 H 34.9825 4.39186 2.45203 0
M  V30 424 H 34.6825 5.72762 1.31213 0
M  V30 425 H 36.2065 5.67899 2.24329 0
M  V30 426 H 37.6205 5.73293 -0.027502 0
M  V30 427 H 36.0175 5.94896 -0.788627 0
M  V30 428 H 37.0875 4.65504 -1.35773 0
M  V30 429 N 38.4306 0.297415 1.54768 0
M  V30 430 C 39.6556 -0.318435 2.04941 0
M  V30 431 C 40.0806 -1.4701 1.17345 0
M  V30 432 O 39.4386 -1.80436 0.176758 0
M  V30 433 C 39.4866 -0.755749 3.52592 0
M  V30 434 O 38.5906 -1.86088 3.68028 0
M  V30 435 H 37.9316 -0.062421 0.661059 0
M  V30 436 H 40.4616 0.438215 1.99852 0
M  V30 437 H 40.4716 -1.04552 3.94376 0
M  V30 438 H 39.1466 0.0867233 4.1581 0
M  V30 439 H 37.7236 -1.57193 3.38149 0
M  V30 440 N 39.9087 -1.5758 0.0250728 0
M  V30 441 C 40.8717 -2.08896 -0.943139 0
M  V30 442 C 41.8717 -1.00321 -1.25668 0
M  V30 443 O 43.0617 -1.26495 -1.19769 0
M  V30 444 C 40.1937 -2.55143 -2.26086 0
M  V30 445 H 41.3867 -2.95723 -0.498775 0
M  V30 446 H 38.9397 -1.54703 -0.222888 0
M  V30 447 H 39.6747 -1.71633 -2.75159 0
M  V30 448 H 39.4597 -3.34461 -2.04641 0
M  V30 449 H 40.9497 -2.95083 -2.95492 0
M  V30 450 N 41.3868 0.248026 -1.55636 0
M  V30 451 C 42.6338 0.976224 -1.77415 0
M  V30 452 C 42.9618 1.85361 -0.589193 0
M  V30 453 O 42.2168 1.90973 0.427529 0
M  V30 454 C 42.5158 1.86819 -3.04686 0
M  V30 455 C 42.1818 1.14625 -4.36087 0
M  V30 456 C 40.8438 0.946723 -4.71795 0
M  V30 457 C 43.1958 0.634463 -5.17324 0
M  V30 458 C 40.5238 0.223091 -5.86276 0
M  V30 459 C 42.8758 -0.0756959 -6.32555 0
M  V30 460 C 41.5398 -0.286711 -6.66884 0
M  V30 461 H 40.8098 0.357226 -0.649208 0
M  V30 462 H 43.4568 0.246415 -1.89908 0
M  V30 463 H 41.7618 2.66502 -2.872 0
M  V30 464 H 43.4588 2.43329 -3.18735 0
M  V30 465 H 40.0488 1.3117 -4.08035 0
M  V30 466 H 44.2328 0.77616 -4.90193 0
M  V30 467 H 39.4888 0.0491185 -6.1138 0
M  V30 468 H 43.6628 -0.479899 -6.94745 0
M  V30 469 H 41.2898 -0.849389 -7.5544 0
M  V30 470 N 42.8649 1.48995 0.513639 0
M  V30 471 C 43.8279 1.64229 1.59879 0
M  V30 472 C 44.8279 0.514696 1.5234 0
M  V30 473 O 46.0179 0.78087 1.55718 0
M  V30 474 C 43.1499 1.62783 2.99524 0
M  V30 475 H 44.3429 2.61004 1.47705 0
M  V30 476 H 41.8959 1.37837 0.736936 0
M  V30 477 H 42.6309 0.675461 3.17188 0
M  V30 478 H 42.4159 2.4466 3.06404 0
M  V30 479 H 43.9059 1.76669 3.78388 0
M  V30 480 N 44.343 -0.763751 1.37857 0
M  V30 481 C 45.273 -1.89103 1.36975 0
M  V30 482 C 46.254 -1.68439 0.237152 0
M  V30 483 O 47.439 -1.8918 0.438713 0
M  V30 484 C 44.569 -3.26496 1.18395 0
M  V30 485 C 43.523 -3.61741 2.28751 0
M  V30 486 C 42.849 -4.97762 1.95286 0
M  V30 487 C 44.149 -3.67665 3.70972 0
M  V30 488 H 45.843 -1.90099 2.31307 0
M  V30 489 H 43.389 -0.91319 1.11341 0
M  V30 490 H 45.342 -4.05003 1.16406 0
M  V30 491 H 44.066 -3.25955 0.205215 0
M  V30 492 H 42.725 -2.85547 2.29909 0
M  V30 493 H 42.373 -4.93769 0.959221 0
M  V30 494 H 42.073 -5.22313 2.69189 0
M  V30 495 H 43.597 -5.7866 1.94898 0
M  V30 496 H 45.011 -4.36307 3.719 0
M  V30 497 H 43.408 -4.03718 4.43995 0
M  V30 498 H 44.478 -2.68134 4.0402 0
M  V30 499 N 45.8211 -1.22559 -0.990812 0
M  V30 500 C 46.7511 -1.0218 -2.09956 0
M  V30 501 C 47.7321 0.0579394 -1.70001 0
M  V30 502 O 48.9171 -0.104684 -1.93918 0
M  V30 503 C 46.0471 -0.601023 -3.4206 0
M  V30 504 C 45.0011 -1.62694 -3.95872 0
M  V30 505 C 44.3271 -1.06193 -5.24049 0
M  V30 506 C 45.6271 -3.01743 -4.2632 0
M  V30 507 H 47.3211 -1.94916 -2.27262 0
M  V30 508 H 44.8671 -0.938566 -1.09211 0
M  V30 509 H 46.8201 -0.445561 -4.19038 0
M  V30 510 H 45.5441 0.362005 -3.24588 0
M  V30 511 H 44.2031 -1.77021 -3.21028 0
M  V30 512 H 43.8511 -0.0901903 -5.02919 0
M  V30 513 H 43.5511 -1.74732 -5.61019 0
M  V30 514 H 45.0751 -0.918092 -6.03658 0
M  V30 515 H 46.4891 -2.90777 -4.94087 0
M  V30 516 H 44.8861 -3.67425 -4.74467 0
M  V30 517 H 45.9561 -3.51518 -3.34011 0
M  V30 518 N 47.2992 1.18797 -1.03562 0
M  V30 519 C 48.5462 1.8865 -0.736023 0
M  V30 520 C 48.8742 1.80041 0.735889 0
M  V30 521 O 48.1292 1.19179 1.55225 0
M  V30 522 C 48.4282 3.38692 -1.14117 0
M  V30 523 C 48.0942 3.67504 -2.6125 0
M  V30 524 C 46.7562 3.75078 -3.01447 0
M  V30 525 C 49.1082 3.80293 -3.56408 0
M  V30 526 C 46.4362 3.92915 -4.35701 0
M  V30 527 C 48.7882 3.99645 -4.90374 0
M  V30 528 C 47.4522 4.05453 -5.30249 0
M  V30 529 H 46.7222 0.690321 -0.26933 0
M  V30 530 H 49.3692 1.40641 -1.29971 0
M  V30 531 H 47.6742 3.88645 -0.496202 0
M  V30 532 H 49.3712 3.91072 -0.886789 0
M  V30 533 H 45.9612 3.62223 -2.29113 0
M  V30 534 H 50.1452 3.73779 -3.26501 0
M  V30 535 H 45.4012 3.95653 -4.66121 0
M  V30 536 H 49.5752 4.08482 -5.64017 0
M  V30 537 H 47.2022 4.19027 -6.34288 0
M  V30 538 N 48.7773 0.814389 1.34928 0
M  V30 539 C 50.0023 0.410097 2.03305 0
M  V30 540 C 50.4273 -0.973464 1.60951 0
M  V30 541 O 49.7853 -1.63185 0.789964 0
M  V30 542 C 49.8333 0.51049 3.56968 0
M  V30 543 O 48.9373 -0.473035 4.09678 0
M  V30 544 H 48.2783 0.170088 0.641846 0
M  V30 545 H 50.8083 1.10244 1.72358 0
M  V30 546 H 50.8183 0.383135 4.06197 0
M  V30 547 H 49.4933 1.51963 3.87144 0
M  V30 548 H 48.0703 -0.305272 3.71648 0
M  V30 549 N 50.2554 -1.46986 0.568584 0
M  V30 550 C 51.1654 -2.33942 -0.17555 0
M  V30 551 C 52.1814 -1.48891 -0.90041 0
M  V30 552 O 53.3574 -1.81794 -0.86676 0
M  V30 553 C 50.4224 -3.25811 -1.18524 0
M  V30 554 C 49.4834 -4.26757 -0.466582 0
M  V30 555 C 48.7164 -5.14236 -1.42817 0
M  V30 556 O 48.9394 -5.04379 -2.66379 0
M  V30 557 O 47.8734 -5.94412 -0.946453 0
M  V30 558 H 51.6994 -2.98896 0.538036 0
M  V30 559 H 49.2844 -1.4573 0.329097 0
M  V30 560 H 51.1664 -3.82527 -1.76779 0
M  V30 561 H 49.8414 -2.63471 -1.88055 0
M  V30 562 H 48.7484 -3.73769 0.157451 0
M  V30 563 H 50.0814 -4.91843 0.187485 0
M  V30 564 N 51.7335 -0.305618 -1.54608 0
M  V30 565 C 52.6635 0.561482 -2.26649 0
M  V30 566 C 53.6445 1.13415 -1.26772 0
M  V30 567 O 54.8295 1.16262 -1.55553 0
M  V30 568 C 51.9595 1.73122 -3.01075 0
M  V30 569 C 50.9135 1.2887 -4.08138 0
M  V30 570 C 50.2395 2.54396 -4.70305 0
M  V30 571 C 51.5395 0.416578 -5.20636 0
M  V30 572 H 53.2335 -0.0393902 -2.99374 0
M  V30 573 H 50.7795 -0.020385 -1.43986 0
M  V30 574 H 52.7325 2.34396 -3.50195 0
M  V30 575 H 51.4565 2.3584 -2.25936 0
M  V30 576 H 50.1155 0.698991 -3.59875 0
M  V30 577 H 49.7635 3.15439 -3.918 0
M  V30 578 H 49.4635 2.25486 -5.42614 0
M  V30 579 H 50.9875 3.16464 -5.2219 0
M  V30 580 H 52.4015 0.935116 -5.65622 0
M  V30 581 H 50.7985 0.221046 -5.99693 0
M  V30 582 H 51.8685 -0.557162 -4.81688 0
M  V30 583 N 53.2116 1.57565 -0.0334293 0
M  V30 584 C 54.4576 1.92262 0.645226 0
M  V30 585 C 54.7906 0.910543 1.71531 0
M  V30 586 O 54.0656 -0.066099 1.94388 0
M  V30 587 C 54.3486 3.37422 1.2577 0
M  V30 588 C 54.2016 4.49369 0.196891 0
M  V30 589 C 55.5206 3.82628 2.17449 0
M  V30 590 H 52.6396 0.699171 0.233085 0
M  V30 591 H 55.2816 1.89779 -0.0915694 0
M  V30 592 H 53.4316 3.39669 1.88566 0
M  V30 593 H 55.1036 4.59254 -0.433962 0
M  V30 594 H 53.3466 4.31168 -0.477137 0
M  V30 595 H 54.0176 5.47978 0.665124 0
M  V30 596 H 56.4936 3.82145 1.64634 0
M  V30 597 H 55.3696 4.84883 2.57254 0
M  V30 598 H 55.6306 3.18376 3.0674 0
M  V30 599 N 54.6897 -0.239769 1.55765 0
M  V30 600 C 55.6217 -1.32001 1.87372 0
M  V30 601 C 56.6347 -1.43944 0.760522 0
M  V30 602 O 57.8237 -1.45167 1.0387 0
M  V30 603 C 54.9237 -2.69779 2.05115 0
M  V30 604 C 54.0967 -2.80014 3.36022 0
M  V30 605 C 53.1557 -3.98684 3.4342 0
M  V30 606 O 52.1817 -3.87877 4.16582 0
M  V30 607 N 53.3837 -5.12176 2.73232 0
M  V30 608 H 56.1487 -1.0522 2.80622 0
M  V30 609 H 53.7097 -0.429857 1.56089 0
M  V30 610 H 55.7017 -3.47517 2.07399 0
M  V30 611 H 54.2717 -2.89237 1.18577 0
M  V30 612 H 53.4917 -1.88896 3.45994 0
M  V30 613 H 54.7797 -2.83808 4.22292 0
M  V30 614 H 54.1777 -5.2385 2.13536 0
M  V30 615 H 52.7347 -5.88022 2.81199 0
M  V30 616 N 56.1678 -1.49265 -0.50573 0
M  V30 617 C 57.1178 -1.6198 -1.60457 0
M  V30 618 C 58.1018 -0.47568 -1.53708 0
M  V30 619 O 59.2938 -0.728392 -1.61318 0
M  V30 620 C 56.4228 -1.68526 -2.99089 0
M  V30 621 C 55.5088 -2.885 -3.10852 0
M  V30 622 N 55.8998 -4.12635 -2.92517 0
M  V30 623 C 54.1978 -2.86338 -3.41945 0
M  V30 624 C 54.8988 -4.93258 -3.08337 0
M  V30 625 N 53.8748 -4.26533 -3.37003 0
M  V30 626 H 57.6768 -2.55681 -1.44928 0
M  V30 627 H 55.1908 -1.45972 -0.711752 0
M  V30 628 H 57.1878 -1.75732 -3.78053 0
M  V30 629 H 55.8478 -0.759584 -3.1569 0
M  V30 630 H 56.8588 -4.42689 -2.68787 0
M  V30 631 H 53.5358 -2.03129 -3.64753 0
M  V30 632 H 54.9258 -6.01856 -2.98695 0
M  V30 633 N 57.6459 0.756429 -1.3826 0
M  V30 634 C 58.8859 1.52833 -1.35725 0
M  V30 635 C 59.2499 1.91926 0.0534106 0
M  V30 636 O 60.4509 2.68028 0.203613 0
M  V30 637 C 58.7219 2.74919 -2.28373 0
M  V30 638 S 60.2809 3.64817 -2.43832 0
M  V30 639 H 57.0989 0.523043 -0.481608 0
M  V30 640 H 59.7009 0.888212 -1.74158 0
M  V30 641 H 58.4049 2.44304 -3.29763 0
M  V30 642 H 57.9359 3.43878 -1.91079 0
M  V30 643 H 59.9509 4.676 -1.66027 0
M  V30 644 N 59.124 1.23083 0.984299 0
M  V30 645 C 60.056 0.96636 2.07832 0
M  V30 646 C 61.069 -0.0582135 1.62696 0
M  V30 647 O 62.258 0.176843 1.77622 0
M  V30 648 C 59.358 0.433397 3.36117 0
M  V30 649 C 58.531 1.51722 4.10243 0
M  V30 650 C 57.59 0.989821 5.16807 0
M  V30 651 O 56.616 1.67794 5.43906 0
M  V30 652 N 57.818 -0.184367 5.80207 0
M  V30 653 H 60.583 1.90824 2.31098 0
M  V30 654 H 58.144 1.13888 1.1507 0
M  V30 655 H 60.136 0.065699 4.04647 0
M  V30 656 H 58.706 -0.413806 3.09849 0
M  V30 657 H 57.926 2.05786 3.36223 0
M  V30 658 H 59.214 2.24619 4.56534 0
M  V30 659 H 58.612 -0.760062 5.60571 0
M  V30 660 H 57.169 -0.493366 6.4993 0
M  V30 661 N 60.6021 -1.18246 1.0419 0
M  V30 662 C 61.8271 -1.92736 0.765996 0
M  V30 663 C 62.2521 -1.75728 -0.67091 0
M  V30 664 O 61.6101 -1.06825 -1.46486 0
M  V30 665 C 61.6581 -3.42148 1.13875 0
M  V30 666 O 60.7621 -4.11548 0.264954 0
M  V30 667 H 60.1031 -0.601238 0.281797 0
M  V30 668 H 62.6331 -1.49942 1.39207 0
M  V30 669 H 62.6431 -3.92858 1.1012 0
M  V30 670 H 61.3181 -3.53848 2.18551 0
M  V30 671 H 59.8951 -3.71137 0.362226 0
M  V30 672 N 62.0802 -0.821533 -1.34494 0
M  V30 673 C 63.4962 -0.507117 -1.51329 0
M  V30 674 C 63.6962 0.968964 -1.76673 0
M  V30 675 O 62.7522 1.75348 -1.81685 0
M  V30 676 C 64.0652 -1.36544 -2.67911 0
M  V30 677 C 65.6132 -1.36242 -2.81793 0
M  V30 678 C 66.0882 -2.2052 -4.01416 0
M  V30 679 N 67.5792 -2.18136 -4.08621 0
M  V30 680 C 68.3142 -2.80095 -5.00334 0
M  V30 681 N 67.8102 -3.51039 -5.9728 0
M  V30 682 N 69.6032 -2.69656 -4.93196 0
M  V30 683 H 61.7542 -1.77729 -1.16302 0
M  V30 684 H 64.0172 -0.757291 -0.570276 0
M  V30 685 H 63.7232 -2.41361 -2.55808 0
M  V30 686 H 63.5972 -1.02917 -3.62888 0
M  V30 687 H 65.9842 -0.322041 -2.93338 0
M  V30 688 H 66.0652 -1.73866 -1.87628 0
M  V30 689 H 65.7092 -3.24607 -3.90631 0
M  V30 690 H 65.6392 -1.80247 -4.94791 0
M  V30 691 H 68.1302 -1.6653 -3.39229 0
M  V30 692 H 68.4432 -3.95565 -6.63889 0
M  V30 693 H 66.7882 -3.55145 -5.97409 0
M  V30 694 H 69.9792 -2.13808 -4.16418 0
M  V30 695 H 70.1522 -3.1823 -5.64476 0
M  V30 696 N 63.5583 1.46682 -0.576371 0
M  V30 697 C 64.8043 2.02712 -0.0596221 0
M  V30 698 C 65.1373 1.44765 1.29448 0
M  V30 699 O 64.4123 0.610355 1.84675 0
M  V30 700 C 64.6953 3.60098 0.0129503 0
M  V30 701 C 64.5483 4.28441 -1.3696 0
M  V30 702 C 65.8673 4.34224 0.71678 0
M  V30 703 H 62.9863 0.736637 -0.0231407 0
M  V30 704 H 65.6283 1.74898 -0.742351 0
M  V30 705 H 63.7783 3.83926 0.594378 0
M  V30 706 H 65.4503 4.15896 -1.9957 0
M  V30 707 H 63.6933 3.8805 -1.93907 0
M  V30 708 H 64.3643 5.3716 -1.27135 0
M  V30 709 H 66.8403 4.15503 0.222908 0
M  V30 710 H 65.7163 5.43936 0.73657 0
M  V30 711 H 65.9773 4.04823 1.77682 0
M  V30 712 N 65.0364 0.313813 1.54444 0
M  V30 713 C 66.2834 -0.291675 2.00388 0
M  V30 714 C 66.6114 -1.52904 1.2021 0
M  V30 715 O 65.8664 -1.93833 0.269707 0
M  V30 716 C 66.1654 -0.680386 3.50864 0
M  V30 717 C 65.8314 0.456699 4.48581 0
M  V30 718 C 64.4934 0.768824 4.75018 0
M  V30 719 C 66.8454 1.22098 5.06697 0
M  V30 720 C 64.1734 1.84812 5.56831 0
M  V30 721 C 66.5254 2.29029 5.89685 0
M  V30 722 C 65.1894 2.60834 6.14428 0
M  V30 723 H 64.4594 -0.106732 0.733273 0
M  V30 724 H 67.1064 0.43557 1.86481 0
M  V30 725 H 65.4114 -1.48791 3.62448 0
M  V30 726 H 67.1084 -1.16026 3.83847 0
M  V30 727 H 63.6984 0.203337 4.28117 0
M  V30 728 H 67.8824 0.993096 4.86263 0
M  V30 729 H 63.1384 2.09912 5.74236 0
M  V30 730 H 67.3124 2.887 6.33739 0
M  V30 731 H 64.9394 3.44596 6.77612 0
M  V30 732 N 66.5145 -1.57545 0.0417849 0
M  V30 733 C 67.7395 -1.97035 -0.647455 0
M  V30 734 C 68.1645 -0.918775 -1.64135 0
M  V30 735 O 67.5225 0.119006 -1.80909 0
M  V30 736 C 67.5705 -3.35609 -1.31905 0
M  V30 737 O 66.6745 -3.3287 -2.43457 0
M  V30 738 H 66.0155 -0.64211 -0.169086 0
M  V30 739 H 68.5455 -2.04318 0.107399 0
M  V30 740 H 68.5555 -3.72126 -1.67291 0
M  V30 741 H 67.2305 -4.11685 -0.590586 0
M  V30 742 H 65.8075 -3.08087 -2.10088 0
M  V30 743 N 67.9926 0.231505 -1.5589 0
M  V30 744 C 69.2386 0.95877 -1.78705 0
M  V30 745 C 69.5716 1.8438 -0.609725 0
M  V30 746 O 68.8466 1.90521 0.391426 0
M  V30 747 C 69.1296 1.8062 -3.11526 0
M  V30 748 C 68.9826 0.948328 -4.39689 0
M  V30 749 C 70.3016 2.78585 -3.40703 0
M  V30 750 H 67.4206 0.347129 -0.650131 0
M  V30 751 H 70.0626 0.228259 -1.88624 0
M  V30 752 H 68.2126 2.42902 -3.03201 0
M  V30 753 H 69.8846 0.343016 -4.60023 0
M  V30 754 H 68.1276 0.253314 -4.3306 0
M  V30 755 H 68.7986 1.57543 -5.29041 0
M  V30 756 H 71.2746 2.26439 -3.49091 0
M  V30 757 H 70.1506 3.34988 -4.34826 0
M  V30 758 H 70.4116 3.55825 -2.62375 0
M  V30 759 N 69.4707 1.49531 0.497807 0
M  V30 760 C 70.4337 1.65916 1.58128 0
M  V30 761 C 71.4337 0.530825 1.51786 0
M  V30 762 O 72.6237 0.797342 1.54881 0
M  V30 763 C 69.7557 1.65951 2.9778 0
M  V30 764 H 70.9487 2.62556 1.44929 0
M  V30 765 H 68.5017 1.38611 0.722275 0
M  V30 766 H 69.2367 0.709065 3.16453 0
M  V30 767 H 69.0217 2.47897 3.03792 0
M  V30 768 H 70.5117 1.80673 3.76493 0
M  V30 769 N 70.9488 -0.749086 1.3866 0
M  V30 770 C 71.8588 -1.89358 1.38494 0
M  V30 771 C 72.8748 -1.71708 0.281476 0
M  V30 772 O 74.0508 -1.94554 0.520643 0
M  V30 773 C 71.1158 -3.24782 1.21316 0
M  V30 774 C 70.1768 -3.54926 2.41508 0
M  V30 775 C 69.4098 -4.83888 2.2514 0
M  V30 776 O 69.6328 -5.56592 1.24746 0
M  V30 777 O 68.5668 -5.13612 3.13826 0
M  V30 778 H 72.3928 -1.92452 2.34938 0
M  V30 779 H 69.9778 -0.894981 1.19626 0
M  V30 780 H 71.8598 -4.05739 1.13814 0
M  V30 781 H 70.5348 -3.2249 0.279592 0
M  V30 782 H 69.4418 -2.74112 2.54585 0
M  V30 783 H 70.7748 -3.61983 3.3351 0
M  V30 784 N 72.4269 -1.23603 -0.977757 0
M  V30 785 C 73.3569 -1.04401 -2.0886 0
M  V30 786 C 74.3379 0.0399052 -1.70053 0
M  V30 787 O 75.5229 -0.125246 -1.93796 0
M  V30 788 C 72.6529 -0.637269 -3.41403 0
M  V30 789 C 71.6069 -1.66883 -3.94124 0
M  V30 790 C 70.9329 -1.11745 -5.22893 0
M  V30 791 C 72.2329 -3.06247 -4.23096 0
M  V30 792 H 73.9269 -1.97316 -2.25182 0
M  V30 793 H 71.4729 -0.950096 -1.08209 0
M  V30 794 H 73.4259 -0.48998 -4.18542 0
M  V30 795 H 72.1499 0.327557 -3.24953 0
M  V30 796 H 70.8089 -1.80416 -3.19133 0
M  V30 797 H 70.4569 -0.143527 -5.02795 0
M  V30 798 H 70.1569 -1.80672 -5.59134 0
M  V30 799 H 71.6809 -0.982067 -6.02651 0
M  V30 800 H 73.0949 -2.96001 -4.90975 0
M  V30 801 H 71.4919 -3.72436 -4.70544 0
M  V30 802 H 72.5619 -3.55041 -3.30263 0
M  V30 803 N 73.905 1.17692 -1.04816 0
M  V30 804 C 74.837 2.21103 -0.603822 0
M  V30 805 C 75.85 1.59411 0.33046 0
M  V30 806 O 77.039 1.7807 0.12379 0
M  V30 807 C 74.139 3.38623 0.136898 0
M  V30 808 C 73.312 4.29888 -0.807137 0
M  V30 809 C 72.371 5.26088 -0.10836 0
M  V30 810 O 71.397 5.64353 -0.741232 0
M  V30 811 N 72.599 5.68882 1.15558 0
M  V30 812 H 75.364 2.59848 -1.49329 0
M  V30 813 H 72.925 1.32553 -0.929587 0
M  V30 814 H 74.917 4.00009 0.614401 0
M  V30 815 H 73.487 2.98508 0.927993 0
M  V30 816 H 72.707 3.65993 -1.46434 0
M  V30 817 H 73.995 4.87759 -1.44807 0
M  V30 818 H 73.393 5.39861 1.69015 0
M  V30 819 H 71.95 6.32429 1.57722 0
M  V30 820 N 75.3831 0.828654 1.34056 0
M  V30 821 C 76.6081 0.431637 2.02859 0
M  V30 822 C 77.0331 -0.956339 1.61975 0
M  V30 823 O 76.3911 -1.62338 0.807228 0
M  V30 824 C 76.4391 0.548323 3.56407 0
M  V30 825 O 75.5431 -0.429556 4.10157 0
M  V30 826 H 74.8841 0.176886 0.640006 0
M  V30 827 H 77.4141 1.12066 1.71179 0
M  V30 828 H 77.4241 0.426196 4.05768 0
M  V30 829 H 76.0991 1.5606 3.8551 0
M  V30 830 H 74.6761 -0.265836 3.71951 0
M  V30 831 N 76.8612 -1.46375 0.584142 0
M  V30 832 C 78.2772 -1.57694 0.245929 0
M  V30 833 C 78.4772 -1.57903 -1.25175 0
M  V30 834 O 77.5332 -1.49676 -2.03355 0
M  V30 835 C 78.8462 -2.87028 0.896402 0
M  V30 836 C 80.3942 -3.00662 0.870127 0
M  V30 837 C 80.8692 -4.32734 1.50017 0
M  V30 838 N 82.3602 -4.39436 1.46458 0
M  V30 839 C 83.0952 -5.40248 1.92144 0
M  V30 840 N 82.5912 -6.47726 2.4581 0
M  V30 841 N 84.3842 -5.31459 1.83052 0
M  V30 842 H 76.5352 -1.44483 1.55687 0
M  V30 843 H 78.7982 -0.689291 0.650831 0
M  V30 844 H 78.5042 -2.9269 1.95002 0
M  V30 845 H 78.3782 -3.75014 0.405486 0
M  V30 846 H 80.7652 -2.94581 -0.174871 0
M  V30 847 H 80.8462 -2.14148 1.39908 0
M  V30 848 H 80.4902 -4.39573 2.54437 0
M  V30 849 H 80.4202 -5.18025 0.946432 0
M  V30 850 H 82.9112 -3.62367 1.07231 0
M  V30 851 H 83.2242 -7.20863 2.78525 0
M  V30 852 H 81.5692 -6.48542 2.49836 0
M  V30 853 H 84.7602 -4.46396 1.40883 0
M  V30 854 H 84.9332 -6.09881 2.18973 0
M  V30 855 N 78.3393 -0.321999 -1.54275 0
M  V30 856 C 79.2693 0.537411 -2.27231 0
M  V30 857 C 80.2503 1.12064 -1.27968 0
M  V30 858 O 81.4353 1.14606 -1.56777 0
M  V30 859 C 78.5653 1.69919 -3.02894 0
M  V30 860 C 77.5193 1.24534 -4.09482 0
M  V30 861 C 76.8453 2.49394 -4.72977 0
M  V30 862 C 78.1453 0.361335 -5.21049 0
M  V30 863 H 79.8393 -0.0711406 -2.99315 0
M  V30 864 H 77.3853 -0.0356555 -1.43956 0
M  V30 865 H 79.3383 2.30668 -3.52662 0
M  V30 866 H 78.0623 2.33431 -2.28424 0
M  V30 867 H 76.7213 0.660782 -3.60596 0
M  V30 868 H 76.3693 3.11265 -3.95124 0
M  V30 869 H 76.0693 2.19718 -5.44975 0
M  V30 870 H 77.5933 3.10908 -5.25517 0
M  V30 871 H 79.0073 0.875072 -5.66582 0
M  V30 872 H 77.4043 0.157428 -5.99893 0
M  V30 873 H 78.4743 -0.60822 -4.8107 0
M  V30 874 N 79.8174 1.5752 -0.0501392 0
M  V30 875 C 80.7804 2.1037 0.909786 0
M  V30 876 C 81.7804 1.02308 1.24056 0
M  V30 877 O 82.9704 1.28385 1.17741 0
M  V30 878 C 80.1024 2.58708 2.21998 0
M  V30 879 H 81.2954 2.96479 0.451665 0
M  V30 880 H 78.8484 1.55038 0.198248 0
M  V30 881 H 79.5834 1.75989 2.72394 0
M  V30 882 H 79.3684 3.37675 1.99295 0
M  V30 883 H 80.8584 2.99747 2.9076 0
M  V30 884 N 81.2955 -0.223234 1.56011 0
M  V30 885 C 82.2585 -1.26014 1.9145 0
M  V30 886 C 83.2585 -1.3989 0.792937 0
M  V30 887 O 84.4485 -1.38184 1.0607 0
M  V30 888 C 81.5805 -2.63422 2.16383 0
M  V30 889 H 82.7735 -0.95796 2.84189 0
M  V30 890 H 80.3265 -0.463576 1.49267 0
M  V30 891 H 81.0615 -2.98741 1.2619 0
M  V30 892 H 80.8465 -2.54728 2.98088 0
M  V30 893 H 82.3365 -3.38249 2.44903 0
M  V30 894 N 82.7736 -1.49793 -0.48987 0
M  V30 895 C 83.7036 -1.70201 -1.59856 0
M  V30 896 C 84.6846 -0.55076 -1.60937 0
M  V30 897 O 85.8696 -0.787841 -1.77501 0
M  V30 898 C 82.9996 -1.77882 -2.98287 0
M  V30 899 C 81.9536 -2.92907 -3.12073 0
M  V30 900 C 81.2796 -2.85712 -4.51965 0
M  V30 901 C 82.5796 -4.3369 -2.91051 0
M  V30 902 H 84.2736 -2.63025 -1.43032 0
M  V30 903 H 81.8196 -1.26574 -0.686664 0
M  V30 904 H 83.7726 -1.90744 -3.75759 0
M  V30 905 H 82.4966 -0.816653 -3.16225 0
M  V30 906 H 81.1556 -2.79665 -2.37029 0
M  V30 907 H 80.8036 -1.8738 -4.66795 0
M  V30 908 H 80.5036 -3.62921 -4.62128 0
M  V30 909 H 82.0276 -3.00598 -5.31482 0
M  V30 910 H 83.4416 -4.47555 -3.58284 0
M  V30 911 H 81.8386 -5.12205 -3.12675 0
M  V30 912 H 82.9086 -4.47362 -1.87071 0
M  V30 913 N 84.2517 0.741722 -1.39055 0
M  V30 914 C 85.4997 1.49818 -1.35643 0
M  V30 915 C 85.8207 1.94938 0.0491642 0
M  V30 916 O 85.0907 1.68505 0.999141 0
M  V30 917 H 83.6707 0.555755 -0.499144 0
M  V30 918 H 86.3327 0.880957 -1.73854 0
M  V30 919 H 85.4287 2.38348 -2.01486 0
M  V30 920 N 85.7298 1.2412 0.971189 0
M  V30 921 C 87.1458 1.00584 1.23916 0
M  V30 922 C 87.3458 -0.287481 1.99439 0
M  V30 923 O 86.4018 -1.00454 2.31658 0
M  V30 924 C 87.7148 2.21864 2.0297 0
M  V30 925 C 89.2628 2.26452 2.16076 0
M  V30 926 C 89.7378 3.47343 2.98524 0
M  V30 927 N 91.2288 3.47639 3.06107 0
M  V30 928 C 91.9638 4.37837 3.70251 0
M  V30 929 N 91.4598 5.38286 4.36142 0
M  V30 930 N 93.2528 4.25558 3.67228 0
M  V30 931 H 85.4038 2.07236 0.465499 0
M  V30 932 H 87.6668 0.909236 0.268315 0
M  V30 933 H 87.3728 3.15771 1.54861 0
M  V30 934 H 87.2468 2.23698 3.03709 0
M  V30 935 H 89.6338 1.33078 2.6339 0
M  V30 936 H 89.7148 2.28645 1.14696 0
M  V30 937 H 89.3588 4.41029 2.51905 0
M  V30 938 H 89.2888 3.42393 4.00093 0
M  V30 939 H 91.7798 2.74966 2.59233 0
M  V30 940 H 92.0928 6.03352 4.82894 0
M  V30 941 H 90.4378 5.42176 4.34822 0
M  V30 942 H 93.6288 3.46322 3.14927 0
M  V30 943 H 93.8018 4.96054 4.16935 0
M  V30 944 N 87.2079 -1.17134 1.05439 0
M  V30 945 C 88.1399 -2.2078 0.615539 0
M  V30 946 C 89.1529 -1.59584 -0.322001 0
M  V30 947 O 90.3419 -1.78133 -0.114344 0
M  V30 948 C 87.4419 -3.38691 -0.118938 0
M  V30 949 C 86.6149 -4.29454 0.829924 0
M  V30 950 C 85.6739 -5.26024 0.136258 0
M  V30 951 O 84.6999 -5.63952 0.77115 0
M  V30 952 N 85.9019 -5.69487 -1.1254 0
M  V30 953 H 88.6669 -2.59052 1.50705 0
M  V30 954 H 86.2279 -1.32058 0.936603 0
M  V30 955 H 88.2199 -4.00329 -0.593179 0
M  V30 956 H 86.7899 -2.98996 -0.91215 0
M  V30 957 H 86.0099 -3.65211 1.48373 0
M  V30 958 H 87.2979 -4.86984 1.47392 0
M  V30 959 H 86.6959 -5.4075 -1.6615 0
M  V30 960 H 85.2529 -6.33257 -1.54366 0
M  V30 961 N 88.686 -0.835752 -1.33615 0
M  V30 962 C 89.932 -0.430596 -1.98176 0
M  V30 963 C 90.265 1.00684 -1.66061 0
M  V30 964 O 89.54 1.70339 -0.938877 0
M  V30 965 C 89.823 -0.648065 -3.5422 0
M  V30 966 C 89.676 -2.13255 -3.96033 0
M  V30 967 C 90.995 -0.0922113 -4.40003 0
M  V30 968 H 88.114 -0.157924 -0.719881 0
M  V30 969 H 90.756 -1.05069 -1.58305 0
M  V30 970 H 88.906 -0.120237 -3.88314 0
M  V30 971 H 90.578 -2.725 -3.72211 0
M  V30 972 H 88.821 -2.61823 -3.45878 0
M  V30 973 H 89.492 -2.23547 -5.04708 0
M  V30 974 H 91.968 -0.543343 -4.12537 0
M  V30 975 H 90.844 -0.274083 -5.48215 0
M  V30 976 H 91.105 1.00378 -4.30554 0
M  V30 977 N 90.1641 1.46063 -0.591896 0
M  V30 978 C 91.4121 2.01938 -0.0808391 0
M  V30 979 C 91.7331 1.46475 1.28725 0
M  V30 980 O 91.0031 0.652944 1.84698 0
M  V30 981 H 89.5831 0.746516 -0.0268938 0
M  V30 982 H 92.2451 1.79055 -0.769752 0
M  V30 983 H 91.3411 3.12094 -0.0187578 0
M  V30 984 N 91.6422 0.330177 1.54103 0
M  V30 985 C 92.6052 -0.520144 2.2322 0
M  V30 986 C 93.6052 -1.03828 1.22786 0
M  V30 987 O 94.7952 -0.929652 1.4732 0
M  V30 988 C 91.9272 -1.72317 2.94142 0
M  V30 989 H 93.1202 0.0841605 2.99782 0
M  V30 990 H 90.6732 0.0813433 1.56088 0
M  V30 991 H 91.4082 -2.36653 2.21734 0
M  V30 992 H 91.1932 -1.35898 3.67796 0
M  V30 993 H 92.6832 -2.3266 3.46784 0
M  V30 994 N 93.1203 -1.57491 0.0584922 0
M  V30 995 C 94.5363 -1.56792 -0.298091 0
M  V30 996 C 94.7363 -1.06679 -1.70944 0
M  V30 997 O 93.7923 -0.726672 -2.41818 0
M  V30 998 C 95.1053 -3.00461 -0.119879 0
M  V30 999 C 96.6533 -3.1242 -0.190428 0
M  V30 1000 C 97.1283 -4.57982 -0.0406567 0
M  V30 1001 N 98.6193 -4.63099 -0.0966958 0
M  V30 1002 C 99.3543 -5.734 -0.00502943 0
M  V30 1003 N 98.8503 -6.9266 0.139402 0
M  V30 1004 N 100.643 -5.62067 -0.0611391 0
M  V30 1005 H 92.7943 -1.88386 0.98105 0
M  V30 1006 H 95.0573 -0.867865 0.381463 0
M  V30 1007 H 94.7633 -3.41187 0.85349 0
M  V30 1008 H 94.6373 -3.66843 -0.877833 0
M  V30 1009 H 97.0243 -2.71589 -1.15427 0
M  V30 1010 H 97.1053 -2.48702 0.598405 0
M  V30 1011 H 96.7493 -4.995 0.919897 0
M  V30 1012 H 96.6793 -5.19715 -0.848727 0
M  V30 1013 H 99.1703 -3.77331 -0.207277 0
M  V30 1014 H 99.4833 -7.72536 0.201855 0
M  V30 1015 H 97.8283 -6.94781 0.174586 0
M  V30 1016 H 101.019 -4.67782 -0.172583 0
M  V30 1017 H 101.192 -6.47999 0.0137562 0
M  V30 1018 N 94.5984 0.214957 -1.56127 0
M  V30 1019 C 95.8444 0.939762 -1.79712 0
M  V30 1020 C 96.1774 1.83723 -0.629247 0
M  V30 1021 O 95.4524 1.90925 0.371197 0
M  V30 1022 C 95.7354 1.77306 -3.13424 0
M  V30 1023 C 95.5884 0.90164 -4.40671 0
M  V30 1024 C 96.9074 2.74956 -3.43638 0
M  V30 1025 H 94.0264 0.340214 -0.653776 0
M  V30 1026 H 96.6684 0.20824 -1.88855 0
M  V30 1027 H 94.8184 2.39673 -3.0576 0
M  V30 1028 H 96.4904 0.294206 -4.60361 0
M  V30 1029 H 94.7334 0.207368 -4.33304 0
M  V30 1030 H 95.4044 1.51923 -5.30682 0
M  V30 1031 H 97.8804 2.22724 -3.51473 0
M  V30 1032 H 96.7564 3.30358 -4.38355 0
M  V30 1033 H 97.0174 3.53023 -2.66134 0
M  V30 1034 N 96.0765 1.50051 0.48192 0
M  V30 1035 C 97.0065 1.71046 1.58951 0
M  V30 1036 C 97.9875 0.559288 1.60642 0
M  V30 1037 O 99.1725 0.797243 1.77081 0
M  V30 1038 C 96.3025 1.79462 2.97339 0
M  V30 1039 C 95.2565 2.94558 3.10515 0
M  V30 1040 C 94.5825 2.88105 4.50444 0
M  V30 1041 C 95.8825 4.35227 2.88747 0
M  V30 1042 H 97.5765 2.6378 1.41635 0
M  V30 1043 H 95.1225 1.26936 0.679942 0
M  V30 1044 H 97.0755 1.92734 3.74742 0
M  V30 1045 H 95.7995 0.833412 3.15788 0
M  V30 1046 H 94.4585 2.80918 2.35543 0
M  V30 1047 H 94.1065 1.89853 4.65795 0
M  V30 1048 H 93.8065 3.65366 4.60197 0
M  V30 1049 H 95.3305 3.03412 5.29881 0
M  V30 1050 H 96.7445 4.49449 3.55905 0
M  V30 1051 H 95.1415 5.13856 3.09955 0
M  V30 1052 H 96.2115 4.48347 1.84696 0
M  V30 1053 N 97.5546 -0.734337 1.39446 0
M  V30 1054 C 98.8316 -1.48579 1.27215 0
M  V30 1055 C 99.2116 -2.1077 -0.117968 0
M  V30 1056 O 98.5596 -1.98646 -1.12924 0
M  V30 1057 C 98.7696 -2.53667 2.39696 0
M  V30 1058 C 100.118 -3.20031 2.79044 0
M  V30 1059 O 101.142 -2.6398 2.39151 0
M  V30 1060 O 100.001 -4.21455 3.47905 0
M  V30 1061 H 97.0946 -0.659816 0.49857 0
M  V30 1062 H 99.6406 -0.768106 1.51322 0
M  V30 1063 H 98.4126 -2.06096 3.32626 0
M  V30 1064 H 98.0356 -3.32994 2.17258 0
M  V30 1065 N 99.0327 -1.24633 -0.964593 0
M  V30 1066 C 99.9957 -1.0424 -2.04124 0
M  V30 1067 C 100.996 0.00137563 -1.608 0
M  V30 1068 O 102.186 -0.239883 -1.7254 0
M  V30 1069 C 99.3177 -0.580588 -3.3592 0
M  V30 1070 H 100.511 -1.99803 -2.23649 0
M  V30 1071 H 98.0637 -1.06899 -1.14027 0
M  V30 1072 H 98.7987 0.3781 -3.22088 0
M  V30 1073 H 98.5837 -1.33398 -3.6871 0
M  V30 1074 H 100.074 -0.459034 -4.15069 0
M  V30 1075 N 100.511 1.16574 -1.06058 0
M  V30 1076 C 101.441 2.23057 -0.690488 0
M  V30 1077 C 102.422 1.67141 0.315901 0
M  V30 1078 O 103.607 1.93253 0.191556 0
M  V30 1079 C 100.737 3.47222 -0.073625 0
M  V30 1080 C 99.6908 4.16016 -1.00573 0
M  V30 1081 C 99.0168 5.34104 -0.252289 0
M  V30 1082 C 100.317 4.67264 -2.33371 0
M  V30 1083 H 102.011 2.54271 -1.58072 0
M  V30 1084 H 99.5568 1.22218 -0.76149 0
M  V30 1085 H 101.51 4.20939 0.19714 0
M  V30 1086 H 100.234 3.15302 0.85161 0
M  V30 1087 H 98.8928 3.44223 -1.2612 0
M  V30 1088 H 98.5408 4.98437 0.675988 0
M  V30 1089 H 98.2408 5.81072 -0.873455 0
M  V30 1090 H 99.7648 6.10599 0.0109857 0
M  V30 1091 H 101.179 5.32573 -2.12223 0
M  V30 1092 H 99.5758 5.24843 -2.90963 0
M  V30 1093 H 100.646 3.83602 -2.96611 0
M  V30 1094 N 101.989 0.842826 1.3317 0
M  V30 1095 C 103.235 0.441099 1.97945 0
M  V30 1096 C 103.568 -0.998024 1.66593 0
M  V30 1097 O 102.843 -1.69839 0.947898 0
M  V30 1098 C 103.126 0.666841 3.53872 0
M  V30 1099 C 102.979 2.15352 3.94897 0
M  V30 1100 C 104.298 0.115544 4.39948 0
M  V30 1101 H 101.417 0.161739 0.719034 0
M  V30 1102 H 104.059 1.05907 1.57746 0
M  V30 1103 H 102.209 0.140828 3.88245 0
M  V30 1104 H 103.881 2.7447 3.70761 0
M  V30 1105 H 102.124 2.63653 3.44484 0
M  V30 1106 H 102.795 2.26221 5.03516 0
M  V30 1107 H 105.271 0.565213 4.12243 0
M  V30 1108 H 104.147 0.303152 5.48062 0
M  V30 1109 H 104.408 -0.980935 4.3108 0
M  V30 1110 N 103.467 -1.45747 0.599634 0
M  V30 1111 C 104.43 -2.28917 -0.113835 0
M  V30 1112 C 105.43 -1.3933 -0.802729 0
M  V30 1113 O 106.62 -1.61534 -0.652103 0
M  V30 1114 C 103.752 -3.20152 -1.17114 0
M  V30 1115 H 104.945 -2.93478 0.617289 0
M  V30 1116 H 102.498 -1.52137 0.358327 0
M  V30 1117 H 103.233 -2.60374 -1.93329 0
M  V30 1118 H 103.018 -3.86133 -0.681468 0
M  V30 1119 H 104.508 -3.82708 -1.67105 0
M  V30 1120 N 104.945 -0.338344 -1.53925 0
M  V30 1121 C 106.361 0.0137736 -1.59594 0
M  V30 1122 C 106.561 1.49186 -1.35447 0
M  V30 1123 O 105.617 2.24987 -1.14616 0
M  V30 1124 C 106.93 -0.41773 -2.97784 0
M  V30 1125 C 108.478 -0.369633 -3.1081 0
M  V30 1126 C 108.953 -0.776524 -4.51369 0
M  V30 1127 N 110.444 -0.730506 -4.57403 0
M  V30 1128 C 111.179 -1.01736 -5.64303 0
M  V30 1129 N 110.675 -1.3721 -6.79077 0
M  V30 1130 N 112.468 -0.941942 -5.54151 0
M  V30 1131 H 104.619 -1.3012 -1.67876 0
M  V30 1132 H 106.882 -0.530082 -0.78595 0
M  V30 1133 H 106.588 -1.44811 -3.20504 0
M  V30 1134 H 106.462 0.209729 -3.76616 0
M  V30 1135 H 108.849 0.651568 -2.87817 0
M  V30 1136 H 108.93 -1.03223 -2.34049 0
M  V30 1137 H 108.574 -1.79571 -4.75096 0
M  V30 1138 H 108.504 -0.0914649 -5.26521 0
M  V30 1139 H 110.995 -0.468783 -3.74981 0
M  V30 1140 H 111.308 -1.57597 -7.5656 0
M  V30 1141 H 109.653 -1.4105 -6.80536 0
M  V30 1142 H 112.844 -0.664184 -4.63364 0
M  V30 1143 H 113.017 -1.16884 -6.37371 0
M  V30 1144 N 106.423 1.57458 -0.0668435 0
M  V30 1145 C 107.333 2.15937 0.916975 0
M  V30 1146 C 108.349 1.12123 1.33058 0
M  V30 1147 O 109.525 1.44366 1.40429 0
M  V30 1148 C 106.59 2.70547 2.16807 0
M  V30 1149 C 105.651 3.89215 1.81135 0
M  V30 1150 C 104.884 4.41211 3.0028 0
M  V30 1151 O 105.107 3.92225 4.14144 0
M  V30 1152 O 104.041 5.32605 2.80384 0
M  V30 1153 H 107.867 3.00354 0.449561 0
M  V30 1154 H 105.452 1.48584 0.155949 0
M  V30 1155 H 107.334 3.0557 2.90181 0
M  V30 1156 H 106.009 1.89192 2.62656 0
M  V30 1157 H 104.916 3.59054 1.05028 0
M  V30 1158 H 106.249 4.71848 1.40073 0
M  V30 1159 N 107.901 -0.206675 1.56239 0
M  V30 1160 C 108.848 -1.25617 1.93621 0
M  V30 1161 C 109.818 -1.45824 0.795274 0
M  V30 1162 O 111.003 -1.59148 1.05245 0
M  V30 1163 C 108.143 -2.59839 2.27107 0
M  V30 1164 C 107.256 -2.47308 3.54207 0
M  V30 1165 C 106.391 -3.74155 3.7707 0
M  V30 1166 C 105.43 -3.56407 4.97635 0
M  V30 1167 N 104.567 -4.75238 5.1681 0
M  V30 1168 H 109.407 -0.930383 2.83104 0
M  V30 1169 H 106.944 -0.448065 1.4011 0
M  V30 1170 H 108.902 -3.38021 2.44535 0
M  V30 1171 H 107.532 -2.90485 1.40778 0
M  V30 1172 H 106.584 -1.60483 3.4489 0
M  V30 1173 H 107.896 -2.30122 4.42544 0
M  V30 1174 H 107.05 -4.60778 3.94675 0
M  V30 1175 H 105.789 -3.94282 2.87042 0
M  V30 1176 H 104.794 -2.68168 4.79964 0
M  V30 1177 H 106.019 -3.37736 5.89161 0
M  V30 1178 H 103.965 -4.95651 4.29728 0
M  V30 1179 H 103.882 -4.60835 5.99306 0
M  V30 1180 H 105.15 -5.63246 5.38864 0
M  V30 1181 N 109.379 -1.50304 -0.473955 0
M  V30 1182 C 110.627 -1.60832 -1.22382 0
M  V30 1183 C 110.948 -0.30939 -1.9253 0
M  V30 1184 O 110.218 0.67296 -1.83978 0
M  V30 1185 H 108.798 -0.592652 -0.454723 0
M  V30 1186 H 111.46 -1.87068 -0.546968 0
M  V30 1187 H 110.556 -2.41803 -1.97327 0
M  V30 1188 N 110.857 0.726932 -1.39834 0
M  V30 1189 C 111.82 1.82269 -1.38962 0
M  V30 1190 C 112.82 1.58248 -0.285334 0
M  V30 1191 O 114.01 1.65499 -0.54366 0
M  V30 1192 C 111.142 3.20186 -1.17019 0
M  V30 1193 H 112.335 1.84443 -2.36476 0
M  V30 1194 H 109.888 0.931416 -1.25516 0
M  V30 1195 H 110.623 3.23669 -0.202204 0
M  V30 1196 H 110.408 3.3902 -1.96998 0
M  V30 1197 H 111.898 4.00235 -1.1917 0
M  V30 1198 N 112.336 1.25143 0.95797 0
M  V30 1199 C 113.752 1.01892 1.22842 0
M  V30 1200 C 113.952 -0.266311 1.99732 0
M  V30 1201 O 113.008 -0.979913 2.3271 0
M  V30 1202 C 114.321 2.24004 2.00606 0
M  V30 1203 C 115.869 2.28731 2.13662 0
M  V30 1204 C 116.344 3.5049 2.94823 0
M  V30 1205 N 117.835 3.50866 3.02403 0
M  V30 1206 C 118.57 4.4174 3.65586 0
M  V30 1207 N 118.066 5.42882 4.30408 0
M  V30 1208 N 119.859 4.29429 3.62694 0
M  V30 1209 H 112.01 2.07718 0.443493 0
M  V30 1210 H 114.273 0.912031 0.258657 0
M  V30 1211 H 113.979 3.17395 1.51503 0
M  V30 1212 H 113.853 2.26907 3.01319 0
M  V30 1213 H 116.24 1.35865 2.61963 0
M  V30 1214 H 116.321 2.29848 1.12265 0
M  V30 1215 H 115.965 4.43676 2.47213 0
M  V30 1216 H 115.895 3.46617 3.96439 0
M  V30 1217 H 118.386 2.777 2.56302 0
M  V30 1218 H 118.699 6.0844 4.76467 0
M  V30 1219 H 117.044 5.46758 4.29047 0
M  V30 1220 H 120.235 3.49643 3.11236 0
M  V30 1221 H 120.408 5.00448 4.1165 0
M  V30 1222 N 113.814 -1.1601 1.06675 0
M  V30 1223 C 115.23 -1.38622 0.790948 0
M  V30 1224 C 115.43 -1.92109 -0.607965 0
M  V30 1225 O 114.486 -2.12239 -1.36787 0
M  V30 1226 C 115.799 -2.36347 1.85905 0
M  V30 1227 C 117.347 -2.50023 1.88301 0
M  V30 1228 C 117.822 -3.51033 2.94176 0
M  V30 1229 N 119.313 -3.58563 2.93235 0
M  V30 1230 C 120.048 -4.36521 3.71803 0
M  V30 1231 N 119.544 -5.17869 4.602 0
M  V30 1232 N 121.337 -4.31541 3.60178 0
M  V30 1233 H 113.488 -0.796294 1.96908 0
M  V30 1234 H 115.751 -0.412597 0.853503 0
M  V30 1235 H 115.457 -2.04147 2.86386 0
M  V30 1236 H 115.331 -3.36042 1.71334 0
M  V30 1237 H 117.718 -2.81524 0.884769 0
M  V30 1238 H 117.799 -1.5035 2.06951 0
M  V30 1239 H 117.443 -3.20268 3.94196 0
M  V30 1240 H 117.373 -4.50445 2.72776 0
M  V30 1241 H 119.864 -3.00496 2.29152 0
M  V30 1242 H 120.177 -5.74578 5.16797 0
M  V30 1243 H 118.522 -5.17199 4.64253 0
M  V30 1244 H 121.713 -3.67051 2.90502 0
M  V30 1245 H 121.886 -4.9205 4.21653 0
M  V30 1246 N 115.292 -0.849877 -1.32721 0
M  V30 1247 C 116.202 -0.293791 -2.32753 0
M  V30 1248 C 117.218 0.585906 -1.63839 0
M  V30 1249 O 118.394 0.487413 -1.95413 0
M  V30 1250 C 115.459 0.512752 -3.42887 0
M  V30 1251 C 114.52 -0.39252 -4.27502 0
M  V30 1252 C 113.753 0.375625 -5.32377 0
M  V30 1253 O 113.976 1.60613 -5.4732 0
M  V30 1254 O 112.91 -0.256094 -6.01355 0
M  V30 1255 H 116.736 -1.12242 -2.82197 0
M  V30 1256 H 114.321 -0.612685 -1.36259 0
M  V30 1257 H 116.203 0.970704 -4.10067 0
M  V30 1258 H 114.878 1.31826 -2.95641 0
M  V30 1259 H 113.785 -0.898547 -3.63149 0
M  V30 1260 H 115.118 -1.16309 -4.7826 0
M  V30 1261 N 116.77 1.45427 -0.607355 0
M  V30 1262 C 117.998 2.06614 -0.108814 0
M  V30 1263 C 118.413 1.45204 1.2067 0
M  V30 1264 O 117.77 0.566132 1.73497 0
M  V30 1265 C 117.821 3.61481 0.0375347 0
M  V30 1266 O 117.542 4.20598 -1.22593 0
M  V30 1267 C 119.043 4.39652 0.567561 0
M  V30 1268 H 116.263 0.66747 -0.0687351 0
M  V30 1269 H 118.807 1.86675 -0.835022 0
M  V30 1270 H 116.962 3.80762 0.714068 0
M  V30 1271 H 117.376 5.1377 -1.05547 0
M  V30 1272 H 118.85 5.48518 0.61905 0
M  V30 1273 H 119.327 4.09417 1.58978 0
M  V30 1274 H 119.933 4.25234 -0.0749202 0
M  V30 1275 N 118.248 0.346503 1.53744 0
M  V30 1276 C 119.195 -0.508914 2.25119 0
M  V30 1277 C 120.165 -1.09315 1.25058 0
M  V30 1278 O 121.35 -1.12921 1.53797 0
M  V30 1279 C 118.49 -1.65246 3.02965 0
M  V30 1280 C 117.603 -1.09525 4.17886 0
M  V30 1281 C 116.738 -2.20634 4.83212 0
M  V30 1282 C 115.777 -1.62279 5.90196 0
M  V30 1283 N 114.914 -2.67143 6.49291 0
M  V30 1284 H 119.754 0.106283 2.9781 0
M  V30 1285 H 117.291 0.0642227 1.4696 0
M  V30 1286 H 119.249 -2.32574 3.4636 0
M  V30 1287 H 117.879 -2.2386 2.32565 0
M  V30 1288 H 116.931 -0.312818 3.79112 0
M  V30 1289 H 118.243 -0.628444 4.94825 0
M  V30 1290 H 117.397 -2.95821 5.29693 0
M  V30 1291 H 116.136 -2.70659 4.05703 0
M  V30 1292 H 115.141 -0.855989 5.43096 0
M  V30 1293 H 116.366 -1.13102 6.69615 0
M  V30 1294 H 114.312 -3.16417 5.74645 0
M  V30 1295 H 114.229 -2.25093 7.21713 0
M  V30 1296 H 115.497 -3.4209 7.00425 0
M  V30 1297 N 119.726 -1.57421 0.075193 0
M  V30 1298 C 120.972 -1.93905 -0.594025 0
M  V30 1299 C 121.305 -0.955701 -1.69056 0
M  V30 1300 O 120.58 0.0145373 -1.94495 0
M  V30 1301 C 120.863 -3.40638 -1.1678 0
M  V30 1302 C 120.716 -4.49733 -0.0776792 0
M  V30 1303 C 122.035 -3.88259 -2.07228 0
M  V30 1304 H 119.154 -0.705105 -0.214466 0
M  V30 1305 H 121.796 -1.8947 0.141854 0
M  V30 1306 H 119.946 -3.44549 -1.79494 0
M  V30 1307 H 121.618 -4.57942 0.555573 0
M  V30 1308 H 119.861 -4.29751 0.591286 0
M  V30 1309 H 120.532 -5.49549 -0.519603 0
M  V30 1310 H 123.008 -3.86376 -1.54445 0
M  V30 1311 H 121.884 -4.91533 -2.44308 0
M  V30 1312 H 122.145 -3.26396 -2.98191 0
M  V30 1313 N 121.204 0.198386 -1.56346 0
M  V30 1314 C 122.134 1.24865 -1.9731 0
M  V30 1315 C 123.115 1.47651 -0.844576 0
M  V30 1316 O 124.3 1.59444 -1.10866 0
M  V30 1317 C 121.43 2.59358 -2.30977 0
M  V30 1318 C 120.384 2.5119 -3.46537 0
M  V30 1319 C 119.71 3.89926 -3.65871 0
M  V30 1320 C 121.01 2.03977 -4.80823 0
M  V30 1321 H 122.704 0.908252 -2.85291 0
M  V30 1322 H 120.25 0.435462 -1.37258 0
M  V30 1323 H 122.203 3.33011 -2.58228 0
M  V30 1324 H 120.927 2.95132 -1.39874 0
M  V30 1325 H 119.586 1.79993 -3.19371 0
M  V30 1326 H 119.234 4.23046 -2.72105 0
M  V30 1327 H 118.934 3.85336 -4.4361 0
M  V30 1328 H 120.458 4.65205 -3.95495 0
M  V30 1329 H 121.872 2.67386 -5.07127 0
M  V30 1330 H 120.269 2.10397 -5.62008 0
M  V30 1331 H 121.339 0.992861 -4.74626 0
M  V30 1332 N 122.682 1.50554 0.465978 0
M  V30 1333 C 123.93 1.61479 1.21528 0
M  V30 1334 C 124.251 0.319596 1.92363 0
M  V30 1335 O 123.521 -0.663194 1.84333 0
M  V30 1336 H 122.101 0.595055 0.451573 0
M  V30 1337 H 124.763 1.87355 0.53704 0
M  V30 1338 H 123.859 2.42846 1.96042 0
M  V30 1339 N 124.16 -0.719506 1.40217 0
M  V30 1340 C 125.123 -1.8153 1.39927 0
M  V30 1341 C 126.123 -1.58095 0.293723 0
M  V30 1342 O 127.313 -1.65209 0.552429 0
M  V30 1343 C 124.445 -3.19561 1.18716 0
M  V30 1344 H 125.638 -1.83186 2.37451 0
M  V30 1345 H 123.191 -0.924746 1.26008 0
M  V30 1346 H 123.926 -3.23557 0.219366 0
M  V30 1347 H 123.711 -3.3797 1.98793 0
M  V30 1348 H 125.201 -3.99598 1.21291 0
M  V30 1349 N 125.638 -1.25649 -0.95132 0
M  V30 1350 C 126.568 -1.08808 -2.06599 0
M  V30 1351 C 127.549 0.00382547 -1.701 0
M  V30 1352 O 128.734 -0.166325 -1.93486 0
M  V30 1353 C 125.864 -0.709542 -3.39975 0
M  V30 1354 C 124.818 -1.75206 -3.90496 0
M  V30 1355 C 124.144 -1.22811 -5.20405 0
M  V30 1356 C 125.444 -3.15153 -4.16504 0
M  V30 1357 H 127.138 -2.02048 -2.20946 0
M  V30 1358 H 124.684 -0.972835 -1.06169 0
M  V30 1359 H 126.637 -0.578649 -4.17408 0
M  V30 1360 H 125.361 0.258556 -3.25575 0
M  V30 1361 H 124.02 -1.87145 -3.15234 0
M  V30 1362 H 123.668 -0.250145 -5.02378 0
M  V30 1363 H 123.368 -1.92492 -5.55176 0
M  V30 1364 H 124.892 -1.10968 -6.00432 0
M  V30 1365 H 126.306 -3.06349 -4.84586 0
M  V30 1366 H 124.703 -3.82333 -4.62538 0
M  V30 1367 H 125.773 -3.61966 -3.22658 0
M  V30 1368 N 127.117 1.15442 -1.07289 0
M  V30 1369 C 128.047 2.22312 -0.714107 0
M  V30 1370 C 129.028 1.67467 0.298155 0
M  V30 1371 O 130.213 1.93445 0.171048 0
M  V30 1372 C 127.343 3.47124 -0.110448 0
M  V30 1373 C 126.297 4.14926 -1.04979 0
M  V30 1374 C 125.623 5.33807 -0.308924 0
M  V30 1375 C 126.923 4.64762 -2.38314 0
M  V30 1376 H 128.617 2.5258 -1.6076 0
M  V30 1377 H 126.163 1.21404 -0.77441 0
M  V30 1378 H 128.116 4.21124 0.152482 0
M  V30 1379 H 126.84 3.16187 0.81812 0
M  V30 1380 H 125.499 3.42866 -1.29764 0
M  V30 1381 H 125.147 4.99126 0.623084 0
M  V30 1382 H 124.847 5.80113 -0.935036 0
M  V30 1383 H 126.371 6.10576 -0.0537771 0
M  V30 1384 H 127.785 5.30292 -2.1786 0
M  V30 1385 H 126.182 5.21728 -2.96514 0
M  V30 1386 H 127.252 3.80434 -3.00663 0
M  V30 1387 N 128.595 0.856903 1.32268 0
M  V30 1388 C 129.842 0.461386 1.97174 0
M  V30 1389 C 130.17 -0.983491 1.67803 0
M  V30 1390 O 129.425 -1.70541 0.959903 0
M  V30 1391 C 129.724 0.649919 3.51441 0
M  V30 1392 C 129.39 2.0656 4.00804 0
M  V30 1393 C 128.052 2.45279 4.13995 0
M  V30 1394 C 130.404 2.98947 4.26943 0
M  V30 1395 C 127.732 3.75653 4.50668 0
M  V30 1396 C 130.084 4.28822 4.65075 0
M  V30 1397 C 128.748 4.67472 4.76472 0
M  V30 1398 H 128.018 0.168833 0.72151 0
M  V30 1399 H 130.665 1.08739 1.57633 0
M  V30 1400 H 128.97 -0.0593018 3.91755 0
M  V30 1401 H 130.667 0.32391 3.9969 0
M  V30 1402 H 127.257 1.75495 3.91024 0
M  V30 1403 H 131.441 2.70265 4.16258 0
M  V30 1404 H 126.697 4.05379 4.57688 0
M  V30 1405 H 130.871 5.0047 4.84255 0
M  V30 1406 H 128.498 5.68539 5.04646 0
M  V30 1407 N 130.073 -1.45103 0.615059 0
M  V30 1408 C 131.319 -2.02483 0.113347 0
M  V30 1409 C 131.652 -1.48146 -1.25564 0
M  V30 1410 O 130.927 -0.659104 -1.82992 0
M  V30 1411 C 131.21 -3.60005 0.0825278 0
M  V30 1412 C 131.063 -4.2466 1.48271 0
M  V30 1413 C 132.382 -4.35972 -0.601401 0
M  V30 1414 H 129.501 -0.735764 0.0426632 0
M  V30 1415 H 132.143 -1.72868 0.788461 0
M  V30 1416 H 130.293 -3.85367 -0.492378 0
M  V30 1417 H 131.965 -4.10458 2.10527 0
M  V30 1418 H 130.208 -3.82772 2.04127 0
M  V30 1419 H 130.879 -5.336 1.41332 0
M  V30 1420 H 133.355 -4.15947 -0.112666 0
M  V30 1421 H 132.231 -5.45697 -0.592097 0
M  V30 1422 H 132.492 -4.09391 -1.66887 0
M  V30 1423 N 131.551 -0.354651 -1.53558 0
M  V30 1424 C 132.498 0.496968 -2.25386 0
M  V30 1425 C 133.468 1.0865 -1.25636 0
M  V30 1426 O 134.653 1.12104 -1.54394 0
M  V30 1427 C 131.793 1.63637 -3.03837 0
M  V30 1428 C 130.906 1.07307 -4.18461 0
M  V30 1429 C 130.041 2.18068 -4.84376 0
M  V30 1430 C 129.08 1.59147 -5.91049 0
M  V30 1431 N 128.217 2.63695 -6.50699 0
M  V30 1432 H 133.057 -0.122075 -2.9775 0
M  V30 1433 H 130.594 -0.0720154 -1.46924 0
M  V30 1434 H 132.552 2.30734 -3.47589 0
M  V30 1435 H 131.182 2.22623 -2.33749 0
M  V30 1436 H 130.234 0.292708 -3.79272 0
M  V30 1437 H 131.546 0.602193 -4.95152 0
M  V30 1438 H 130.7 2.93007 -5.31255 0
M  V30 1439 H 129.439 2.68504 -4.07133 0
M  V30 1440 H 128.444 0.827175 -5.43542 0
M  V30 1441 H 129.669 1.09549 -6.70206 0
M  V30 1442 H 127.615 3.13365 -5.76315 0
M  V30 1443 H 127.532 2.21263 -7.22896 0
M  V30 1444 H 128.8 3.3837 -7.02229 0
M  V30 1445 N 133.029 1.57378 -0.0835403 0
M  V30 1446 C 134.277 1.93547 0.581718 0
M  V30 1447 C 134.598 0.96524 1.69435 0
M  V30 1448 O 133.868 0.0153369 1.95894 0
M  V30 1449 H 132.448 0.714521 0.217874 0
M  V30 1450 H 135.11 1.94366 -0.144158 0
M  V30 1451 H 134.206 2.95665 0.999423 0
M  V30 1452 N 134.507 -0.190092 1.56449 0
M  V30 1453 C 135.47 -1.21925 1.9408 0
M  V30 1454 C 136.47 -1.38176 0.822431 0
M  V30 1455 O 137.66 -1.35903 1.08977 0
M  V30 1456 C 134.792 -2.58773 2.21922 0
M  V30 1457 H 135.985 -0.897464 2.86157 0
M  V30 1458 H 133.538 -0.43181 1.50217 0
M  V30 1459 H 134.273 -2.95998 1.32499 0
M  V30 1460 H 134.058 -2.48348 3.03424 0
M  V30 1461 H 135.548 -3.32978 2.52022 0
M  V30 1462 N 135.985 -1.50799 -0.457987 0
M  V30 1463 C 137.231 -1.62683 -1.21088 0
M  V30 1464 C 137.564 -0.332268 -1.91336 0
M  V30 1465 O 136.839 0.667043 -1.82704 0
M  V30 1466 C 137.122 -2.81615 -2.24422 0
M  V30 1467 C 136.975 -4.20989 -1.58392 0
M  V30 1468 C 138.294 -2.96085 -3.2561 0
M  V30 1469 H 135.413 -0.592087 -0.438864 0
M  V30 1470 H 138.055 -1.83225 -0.50286 0
M  V30 1471 H 136.205 -2.64231 -2.84806 0
M  V30 1472 H 137.877 -4.49994 -1.01504 0
M  V30 1473 H 136.12 -4.24641 -0.886704 0
M  V30 1474 H 136.791 -5.0016 -2.33547 0
M  V30 1475 H 139.267 -3.12042 -2.75262 0
M  V30 1476 H 138.143 -3.80902 -3.95228 0
M  V30 1477 H 138.404 -2.0726 -3.90507 0
M  V30 1478 N 137.463 0.71206 -1.40597 0
M  V30 1479 C 138.709 1.47292 -1.40274 0
M  V30 1480 C 139.064 1.92399 -0.00576812 0
M  V30 1481 O 138.357 1.65507 0.965297 0
M  V30 1482 C 138.551 2.71039 -2.32965 0
M  V30 1483 C 138.38 2.38035 -3.81536 0
M  V30 1484 C 137.15 2.29203 -4.50327 0
M  V30 1485 C 139.348 2.02076 -4.72938 0
M  V30 1486 N 137.33 1.88911 -5.84111 0
M  V30 1487 C 138.701 1.72412 -5.95545 0
M  V30 1488 C 140.756 1.88742 -4.60739 0
M  V30 1489 C 139.459 1.30756 -7.07316 0
M  V30 1490 C 141.485 1.4849 -5.72455 0
M  V30 1491 C 140.847 1.19726 -6.94151 0
M  V30 1492 H 136.946 0.536919 -0.568544 0
M  V30 1493 H 139.53 0.825424 -1.76337 0
M  V30 1494 H 137.701 3.33533 -1.99023 0
M  V30 1495 H 139.433 3.37404 -2.23474 0
M  V30 1496 H 136.188 2.47059 -4.04053 0
M  V30 1497 H 136.612 1.71293 -6.54972 0
M  V30 1498 H 141.254 2.0964 -3.67166 0
M  V30 1499 H 138.972 1.08601 -8.00769 0
M  V30 1500 H 142.558 1.38747 -5.65014 0
M  V30 1501 H 141.438 0.890482 -7.79128 0
M  V30 1502 N 138.941 1.26152 0.944643 0
M  V30 1503 C 139.888 1.07408 2.04285 0
M  V30 1504 C 140.858 -0.0198413 1.66088 0
M  V30 1505 O 142.043 0.139264 1.90291 0
M  V30 1506 C 139.183 0.70945 3.37729 0
M  V30 1507 C 138.296 1.87926 3.88983 0
M  V30 1508 C 137.431 1.45807 5.10797 0
M  V30 1509 C 136.47 2.5964 5.54305 0
M  V30 1510 N 135.607 2.18226 6.67324 0
M  V30 1511 H 140.447 2.01389 2.1965 0
M  V30 1512 H 137.984 1.00275 1.07626 0
M  V30 1513 H 139.942 0.478948 4.14442 0
M  V30 1514 H 138.572 -0.193389 3.2222 0
M  V30 1515 H 137.624 2.22279 3.08701 0
M  V30 1516 H 138.936 2.73377 4.17213 0
M  V30 1517 H 138.09 1.18781 5.94959 0
M  V30 1518 H 136.829 0.574414 4.84305 0
M  V30 1519 H 135.834 2.87399 4.68702 0
M  V30 1520 H 137.059 3.48599 5.828 0
M  V30 1521 H 135.005 1.3229 6.42523 0
M  V30 1522 H 134.922 2.97221 6.95123 0
M  V30 1523 H 136.19 1.94403 7.54869 0
M  V30 1524 N 140.419 -1.14872 1.07899 0
M  V30 1525 C 141.382 -2.17986 0.708161 0
M  V30 1526 C 142.382 -1.58775 -0.25442 0
M  V30 1527 O 143.572 -1.74166 -0.034645 0
M  V30 1528 C 140.704 -3.40871 0.0446929 0
M  V30 1529 H 141.897 -2.52306 1.62116 0
M  V30 1530 H 139.45 -1.2943 0.876218 0
M  V30 1531 H 140.185 -3.12124 -0.880281 0
M  V30 1532 H 139.97 -3.8511 0.737091 0
M  V30 1533 H 141.46 -4.17121 -0.19991 0
M  V30 1534 N 141.898 -0.863906 -1.31812 0
M  V30 1535 C 142.828 -0.330843 -2.31144 0
M  V30 1536 C 143.809 0.575005 -1.60087 0
M  V30 1537 O 144.994 0.493304 -1.8783 0
M  V30 1538 C 142.124 0.47374 -3.44054 0
M  V30 1539 C 141.078 -0.338481 -4.26659 0
M  V30 1540 C 140.404 0.591412 -5.31419 0
M  V30 1541 C 141.704 -1.56926 -4.98168 0
M  V30 1542 H 143.398 -1.16086 -2.75979 0
M  V30 1543 H 140.944 -0.559657 -1.32679 0
M  V30 1544 H 142.897 0.857143 -4.12591 0
M  V30 1545 H 141.621 1.33721 -2.9797 0
M  V30 1546 H 140.28 -0.703754 -3.59782 0
M  V30 1547 H 139.928 1.45199 -4.81587 0
M  V30 1548 H 139.628 0.0519022 -5.87577 0
M  V30 1549 H 141.152 0.97179 -6.02817 0
M  V30 1550 H 142.566 -1.25764 -5.59336 0
M  V30 1551 H 140.963 -2.04739 -5.64094 0
M  V30 1552 H 142.033 -2.32544 -4.25501 0
M  V30 1553 N 143.376 1.44774 -0.622745 0
M  V30 1554 C 144.623 2.02121 -0.1239 0
M  V30 1555 C 144.951 1.48915 1.25118 0
M  V30 1556 O 144.206 0.660045 1.84233 0
M  V30 1557 C 144.505 3.57364 -0.0508323 0
M  V30 1558 C 144.171 4.29787 -1.36358 0
M  V30 1559 C 142.833 4.4929 -1.72314 0
M  V30 1560 C 145.185 4.71062 -2.23048 0
M  V30 1561 C 142.513 5.07325 -2.94682 0
M  V30 1562 C 144.865 5.30452 -3.44679 0
M  V30 1563 C 143.529 5.48175 -3.80868 0
M  V30 1564 H 142.799 0.739612 -0.0453381 0
M  V30 1565 H 145.446 1.73648 -0.807389 0
M  V30 1566 H 143.751 3.85202 0.715991 0
M  V30 1567 H 145.448 3.99456 0.351533 0
M  V30 1568 H 142.038 4.14932 -1.07375 0
M  V30 1569 H 146.222 4.55715 -1.96565 0
M  V30 1570 H 141.478 5.19235 -3.22809 0
M  V30 1571 H 145.652 5.61385 -4.12092 0
M  V30 1572 H 143.279 5.92912 -4.75773 0
M  V30 1573 N 144.854 0.36279 1.53368 0
M  V30 1574 C 146.102 -0.227326 2.00817 0
M  V30 1575 C 146.423 -1.49511 1.25186 0
M  V30 1576 O 145.693 -1.92482 0.364348 0
M  V30 1577 H 144.273 -0.0869923 0.741917 0
M  V30 1578 H 146.935 0.488381 1.88682 0
M  V30 1579 H 146.031 -0.456273 3.08747 0
M  V30 1580 N 146.332 -1.57332 0.0918853 0
M  V30 1581 C 147.279 -2.13847 -0.868211 0
M  V30 1582 C 148.249 -1.05618 -1.28196 0
M  V30 1583 O 149.434 -1.33387 -1.36427 0
M  V30 1584 C 146.574 -2.72062 -2.12312 0
M  V30 1585 C 145.687 -3.94514 -1.7602 0
M  V30 1586 C 144.822 -4.40903 -2.96273 0
M  V30 1587 C 143.861 -5.55953 -2.56092 0
M  V30 1588 N 142.998 -5.97209 -3.69169 0
M  V30 1589 H 147.838 -2.95575 -0.379406 0
M  V30 1590 H 145.375 -1.46048 -0.175606 0
M  V30 1591 H 147.333 -3.03931 -2.858 0
M  V30 1592 H 145.963 -1.93068 -2.58698 0
M  V30 1593 H 145.015 -3.68979 -0.925135 0
M  V30 1594 H 146.327 -4.7802 -1.42472 0
M  V30 1595 H 145.481 -4.74539 -3.78018 0
M  V30 1596 H 144.22 -3.56291 -3.33029 0
M  V30 1597 H 143.225 -5.21948 -1.72773 0
M  V30 1598 H 144.45 -6.42311 -2.20484 0
M  V30 1599 H 142.396 -5.15543 -4.05649 0
M  V30 1600 H 142.313 -6.75504 -3.39456 0
M  V30 1601 H 143.581 -6.35475 -4.51434 0
M  V30 1602 N 147.81 0.181792 -1.56548 0
M  V30 1603 C 148.72 1.24538 -1.98815 0
M  V30 1604 C 149.736 1.49045 -0.897861 0
M  V30 1605 O 150.912 1.61399 -1.20467 0
M  V30 1606 C 147.977 2.56683 -2.33055 0
M  V30 1607 C 147.038 2.40131 -3.55859 0
M  V30 1608 C 146.271 3.65975 -3.88456 0
M  V30 1609 O 146.494 4.70711 -3.22161 0
M  V30 1610 O 145.428 3.6071 -4.81842 0
M  V30 1611 H 149.254 0.916647 -2.89536 0
M  V30 1612 H 146.839 0.387842 -1.44278 0
M  V30 1613 H 148.721 3.34655 -2.56094 0
M  V30 1614 H 147.396 2.89157 -1.45498 0
M  V30 1615 H 146.303 1.60226 -3.38051 0
M  V30 1616 H 147.636 2.12585 -4.43924 0
M  V30 1617 N 149.288 1.51039 0.449983 0
M  V30 1618 C 150.251 1.70863 1.5277 0
M  V30 1619 C 151.251 0.578846 1.5002 0
M  V30 1620 O 152.441 0.846213 1.52266 0
M  V30 1621 C 149.573 1.75341 2.9235 0
M  V30 1622 H 150.766 2.67034 1.36502 0
M  V30 1623 H 148.319 1.40838 0.677812 0
M  V30 1624 H 149.054 0.809383 3.14037 0
M  V30 1625 H 148.839 2.57436 2.95752 0
M  V30 1626 H 150.329 1.92559 3.70555 0
M  V30 1627 N 150.766 -0.704594 1.40972 0
M  V30 1628 C 152.043 -1.45847 1.30338 0
M  V30 1629 C 152.423 -2.10973 -0.0732344 0
M  V30 1630 O 151.771 -2.00997 -1.08685 0
M  V30 1631 C 151.981 -2.48525 2.45023 0
M  V30 1632 C 153.329 -3.1404 2.8577 0
M  V30 1633 O 154.353 -2.58848 2.44696 0
M  V30 1634 O 153.212 -4.13981 3.56766 0
M  V30 1635 H 150.306 -0.649092 0.512454 0
M  V30 1636 H 152.852 -0.735836 1.52917 0
M  V30 1637 H 151.624 -1.98994 3.36923 0
M  V30 1638 H 151.247 -3.2831 2.24272 0
M  V30 1639 N 152.244 -1.26651 -0.937939 0
M  V30 1640 C 153.191 -1.0849 -2.03712 0
M  V30 1641 C 154.161 0.011033 -1.66096 0
M  V30 1642 O 155.346 -0.149353 -1.90215 0
M  V30 1643 C 152.486 -0.72735 -3.37348 0
M  V30 1644 C 151.599 -1.89986 -3.87981 0
M  V30 1645 C 150.734 -1.48513 -5.10017 0
M  V30 1646 C 149.773 -2.62575 -5.5292 0
M  V30 1647 N 148.91 -2.21762 -6.66158 0
M  V30 1648 H 153.75 -2.02551 -2.18579 0
M  V30 1649 H 151.287 -1.00844 -1.07093 0
M  V30 1650 H 153.245 -0.50092 -4.14182 0
M  V30 1651 H 151.875 0.176298 -3.22318 0
M  V30 1652 H 150.927 -2.23913 -3.07518 0
M  V30 1653 H 152.239 -2.75586 -4.15757 0
M  V30 1654 H 151.393 -1.21934 -5.94321 0
M  V30 1655 H 150.132 -0.60009 -4.83994 0
M  V30 1656 H 149.137 -2.8988 -4.67172 0
M  V30 1657 H 150.362 -3.51685 -5.80943 0
M  V30 1658 H 148.308 -1.35696 -6.41812 0
M  V30 1659 H 148.225 -3.00903 -6.93537 0
M  V30 1660 H 149.493 -1.98403 -7.53828 0
M  V30 1661 N 153.722 1.14298 -1.08507 0
M  V30 1662 C 154.652 2.21542 -0.737646 0
M  V30 1663 C 155.633 1.67773 0.280377 0
M  V30 1664 O 156.818 1.93616 0.150521 0
M  V30 1665 C 153.948 3.46988 -0.147259 0
M  V30 1666 C 152.902 4.13789 -1.09374 0
M  V30 1667 C 152.228 5.33449 -0.365524 0
M  V30 1668 C 153.528 4.62208 -2.4323 0
M  V30 1669 H 155.222 2.5086 -1.6343 0
M  V30 1670 H 152.768 1.20576 -0.787243 0
M  V30 1671 H 154.721 4.21262 0.107808 0
M  V30 1672 H 153.445 3.17037 0.784538 0
M  V30 1673 H 152.104 3.4147 -1.33393 0
M  V30 1674 H 151.752 4.99759 0.57011 0
M  V30 1675 H 151.452 5.79088 -0.996512 0
M  V30 1676 H 152.976 6.10485 -0.118534 0
M  V30 1677 H 154.39 5.27952 -2.23472 0
M  V30 1678 H 152.787 5.18553 -3.02031 0
M  V30 1679 H 153.857 3.77224 -3.04681 0
M  V30 1680 N 155.201 0.870884 1.31352 0
M  V30 1681 C 156.111 0.330783 2.32256 0
M  V30 1682 C 157.127 -0.559767 1.6475 0
M  V30 1683 O 158.303 -0.456263 1.96164 0
M  V30 1684 C 155.368 -0.458137 3.4366 0
M  V30 1685 C 154.429 0.460482 4.26823 0
M  V30 1686 C 153.662 -0.290881 5.32907 0
M  V30 1687 O 153.885 -1.51885 5.49806 0
M  V30 1688 O 152.819 0.351732 6.00871 0
M  V30 1689 H 156.645 1.16718 2.80376 0
M  V30 1690 H 154.23 0.634285 1.35267 0
M  V30 1691 H 156.112 -0.905343 4.1156 0
M  V30 1692 H 154.787 -1.27106 2.97701 0
M  V30 1693 H 153.694 0.956207 3.61673 0
M  V30 1694 H 155.027 1.23903 4.7635 0
M  V30 1695 N 156.679 -1.44442 0.630414 0
M  V30 1696 C 157.611 -2.2892 -0.113347 0
M  V30 1697 C 158.624 -1.41243 -0.80959 0
M  V30 1698 O 159.813 -1.65402 -0.671156 0
M  V30 1699 C 156.913 -3.17594 -1.18266 0
M  V30 1700 C 156.086 -4.33682 -0.569073 0
M  V30 1701 C 155.145 -5.03397 -1.53226 0
M  V30 1702 O 154.171 -5.59438 -1.04967 0
M  V30 1703 N 155.373 -5.04783 -2.86661 0
M  V30 1704 H 158.138 -2.93392 0.611636 0
M  V30 1705 H 155.699 -1.54881 0.471523 0
M  V30 1706 H 157.691 -3.61097 -1.82732 0
M  V30 1707 H 156.261 -2.54876 -1.80988 0
M  V30 1708 H 155.481 -3.9338 0.254187 0
M  V30 1709 H 156.769 -5.08608 -0.139767 0
M  V30 1710 H 156.167 -4.60584 -3.28449 0
M  V30 1711 H 154.724 -5.52077 -3.46489 0
M  V30 1712 N 158.157 -0.370918 -1.53173 0
M  V30 1713 C 159.12 0.460778 -2.24521 0
M  V30 1714 C 160.12 1.00536 -1.25496 0
M  V30 1715 O 161.31 0.890266 -1.49733 0
M  V30 1716 C 158.442 1.64457 -2.98608 0
M  V30 1717 H 159.635 -0.163613 -2.99453 0
M  V30 1718 H 157.188 -0.122699 -1.55818 0
M  V30 1719 H 157.923 2.30691 -2.2793 0
M  V30 1720 H 157.708 1.26099 -3.7127 0
M  V30 1721 H 159.198 2.23384 -3.5283 0
M  V30 1722 N 159.635 1.57281 -0.100228 0
M  V30 1723 C 160.583 2.15542 0.874328 0
M  V30 1724 C 161.577 1.09962 1.28859 0
M  V30 1725 O 162.783 1.28298 1.26252 0
M  V30 1726 H 159.158 0.689567 0.300003 0
M  V30 1727 H 161.129 2.96241 0.35829 0
M  V30 1728 C 159.878 2.75454 2.1218 0
M  V30 1729 H 159.201 3.56384 1.81193 0
M  V30 1730 H 160.641 3.19781 2.78417 0
M  V30 1731 C 159.1 1.71602 2.89921 0
M  V30 1732 O 159.63 1.15804 3.84646 0
M  V30 1733 N 157.836 1.41975 2.53558 0
M  V30 1734 H 157.383 1.87539 1.76598 0
M  V30 1735 H 157.341 0.727274 3.05873 0
M  V30 1736 N 161.113 -0.173488 1.56642 0
M  V30 1737 C 162.39 -0.917617 1.7274 0
M  V30 1738 C 162.77 -2.00484 0.661027 0
M  V30 1739 O 162.118 -2.26184 -0.32453 0
M  V30 1740 C 162.328 -1.48433 3.15862 0
M  V30 1741 C 163.676 -1.95809 3.76754 0
M  V30 1742 O 164.7 -1.58231 3.19126 0
M  V30 1743 O 163.559 -2.65024 4.77938 0
M  V30 1744 H 160.653 -0.431772 0.705338 0
M  V30 1745 H 163.199 -0.161487 1.6893 0
M  V30 1746 H 161.971 -0.701715 3.84957 0
M  V30 1747 H 161.594 -2.30471 3.23989 0
M  V30 1748 N 162.591 -1.51276 -0.441967 0
M  V30 1749 C 163.868 -1.54252 -1.20273 0
M  V30 1750 C 164.248 -0.30408 -2.08898 0
M  V30 1751 O 163.596 0.711084 -2.17154 0
M  V30 1752 C 163.806 -2.85406 -2.00859 0
M  V30 1753 C 165.154 -3.37181 -2.58059 0
M  V30 1754 O 166.178 -2.86925 -2.11074 0
M  V30 1755 O 165.037 -4.24858 -3.43741 0
M  V30 1756 H 162.131 -0.619969 -0.547328 0
M  V30 1757 H 164.677 -1.63586 -0.451413 0
M  V30 1758 H 163.449 -3.67003 -1.35736 0
M  V30 1759 H 163.072 -2.79213 -2.83065 0
M  V30 1760 N 164.069 0.697108 -1.41344 0
M  V30 1761 C 165.032 1.79281 -1.42797 0
M  V30 1762 C 166.032 1.57607 -0.318837 0
M  V30 1763 O 167.222 1.64309 -0.578642 0
M  V30 1764 C 164.354 3.17632 -1.23785 0
M  V30 1765 H 165.547 1.79385 -2.40335 0
M  V30 1766 H 163.1 0.904582 -1.27464 0
M  V30 1767 H 163.835 3.23167 -0.270814 0
M  V30 1768 H 163.62 3.34765 -2.04144 0
M  V30 1769 H 165.11 3.97617 -1.27633 0
M  V30 1770 N 165.547 1.27147 0.931209 0
M  V30 1771 C 166.963 1.04475 1.20653 0
M  V30 1772 C 167.163 -0.223885 2.00252 0
M  V30 1773 O 166.219 -0.930332 2.34736 0
M  V30 1774 C 167.532 2.28209 1.95809 0
M  V30 1775 C 169.08 2.33211 2.08762 0
M  V30 1776 C 169.555 3.56665 2.87323 0
M  V30 1777 N 171.046 3.57201 2.94892 0
M  V30 1778 C 171.781 4.49395 3.56134 0
M  V30 1779 N 171.277 5.51889 4.18796 0
M  V30 1780 N 173.07 4.37026 3.53504 0
M  V30 1781 H 165.221 2.08612 0.399333 0
M  V30 1782 H 167.484 0.917312 0.239253 0
M  V30 1783 H 167.19 3.20538 1.44736 0
M  V30 1784 H 167.064 2.33247 2.96438 0
M  V30 1785 H 169.451 1.41391 2.59023 0
M  V30 1786 H 169.532 2.32178 1.07364 0
M  V30 1787 H 169.176 4.4882 2.37746 0
M  V30 1788 H 169.106 3.54948 3.88998 0
M  V30 1789 H 171.597 2.83074 2.50354 0
M  V30 1790 H 171.91 6.18409 4.63454 0
M  V30 1791 H 170.255 5.55735 4.17353 0
M  V30 1792 H 173.446 3.56166 3.03749 0
M  V30 1793 H 173.619 5.09067 4.00942 0
M  V30 1794 N 167.025 -1.13721 1.09112 0
M  V30 1795 C 168.253 -1.88773 0.846899 0
M  V30 1796 C 168.668 -1.7896 -0.601572 0
M  V30 1797 O 168.025 -1.15394 -1.41388 0
M  V30 1798 C 168.076 -3.3849 1.26913 0
M  V30 1799 O 167.797 -3.48043 2.66079 0
M  V30 1800 C 169.298 -4.30518 1.05682 0
M  V30 1801 H 166.518 -0.59772 0.304914 0
M  V30 1802 H 169.062 -1.43977 1.45227 0
M  V30 1803 H 167.217 -3.80881 0.707723 0
M  V30 1804 H 167.631 -4.4109 2.83795 0
M  V30 1805 H 169.105 -5.3391 1.40156 0
M  V30 1806 H 169.582 -4.392 -0.00563416 0
M  V30 1807 H 170.188 -3.93893 1.60402 0
M  V30 1808 N 168.503 -0.877838 -1.30888 0
M  V30 1809 C 169.75 -0.492696 -1.96415 0
M  V30 1810 C 170.078 0.956671 -1.69346 0
M  V30 1811 O 169.333 1.68993 -0.986913 0
M  V30 1812 C 169.632 -0.705748 -3.50363 0
M  V30 1813 C 169.298 -2.1291 -3.97467 0
M  V30 1814 C 167.96 -2.51834 -4.1004 0
M  V30 1815 C 170.312 -3.05702 -4.22132 0
M  V30 1816 C 167.64 -3.82775 -4.44635 0
M  V30 1817 C 169.992 -4.36166 -4.58194 0
M  V30 1818 C 168.656 -4.74993 -4.68975 0
M  V30 1819 H 167.926 -0.18029 -0.718733 0
M  V30 1820 H 170.573 -1.11233 -1.55883 0
M  V30 1821 H 168.878 -0.00303058 -3.918 0
M  V30 1822 H 170.575 -0.387456 -3.99124 0
M  V30 1823 H 167.165 -1.81694 -3.88182 0
M  V30 1824 H 171.349 -2.76853 -4.11906 0
M  V30 1825 H 166.605 -4.12609 -4.51181 0
M  V30 1826 H 170.779 -5.08111 -4.76231 0
M  V30 1827 H 168.406 -5.76495 -4.95537 0
M  V30 1828 N 169.982 1.44106 -0.638065 0
M  V30 1829 C 171.212 2.06037 -0.152394 0
M  V30 1830 C 171.62 1.47808 1.18108 0
M  V30 1831 O 170.963 0.598092 1.73691 0
M  V30 1832 C 171.025 3.59488 0.0293714 0
M  V30 1833 C 170.689 4.4022 -1.22702 0
M  V30 1834 C 171.686 4.73256 -2.15232 0
M  V30 1835 C 169.371 4.8048 -1.46437 0
M  V30 1836 C 171.365 5.45444 -3.29802 0
M  V30 1837 C 169.052 5.52417 -2.61303 0
M  V30 1838 C 170.05 5.84819 -3.52811 0
M  V30 1839 O 169.738 6.55289 -4.65673 0
M  V30 1840 H 169.47 0.671233 -0.0801401 0
M  V30 1841 H 172.024 1.85851 -0.874563 0
M  V30 1842 H 170.254 3.78191 0.806758 0
M  V30 1843 H 171.943 4.03164 0.470475 0
M  V30 1844 H 172.709 4.42684 -1.98131 0
M  V30 1845 H 168.588 4.54676 -0.760977 0
M  V30 1846 H 172.132 5.70653 -4.01249 0
M  V30 1847 H 168.029 5.82404 -2.78344 0
M  V30 1848 H 168.797 6.73762 -4.64744 0
M  V30 1849 N 171.46 0.379036 1.52974 0
M  V30 1850 C 172.709 -0.207612 2.00629 0
M  V30 1851 C 173.022 -1.48758 1.27006 0
M  V30 1852 O 174.228 -2.15365 1.65318 0
M  V30 1853 C 172.684 -0.42053 3.57435 0
M  V30 1854 C 172.292 0.845587 4.39948 0
M  V30 1855 C 174.036 -0.964102 4.13407 0
M  V30 1856 C 171.943 0.601513 5.88333 0
M  V30 1857 H 170.873 -0.0813591 0.749598 0
M  V30 1858 H 173.524 0.499853 1.76561 0
M  V30 1859 H 171.906 -1.18959 3.7771 0
M  V30 1860 H 173.08 1.61848 4.31442 0
M  V30 1861 H 171.395 1.31336 3.95145 0
M  V30 1862 H 173.992 -1.16225 5.21916 0
M  V30 1863 H 174.335 -1.93019 3.68849 0
M  V30 1864 H 174.868 -0.25487 3.96983 0
M  V30 1865 H 171.607 1.53831 6.37194 0
M  V30 1866 H 171.127 -0.132628 5.99653 0
M  V30 1867 H 172.806 0.232134 6.46583 0
M  V30 1868 N 172.938 -1.57226 0.108567 0
M  V30 1869 C 174.187 -1.94008 -0.551703 0
M  V30 1870 C 174.5 -0.993442 -1.68494 0
M  V30 1871 O 175.706 -1.25551 -2.40726 0
M  V30 1872 C 174.162 -3.44763 -1.03279 0
M  V30 1873 C 173.77 -4.47943 0.0714193 0
M  V30 1874 C 175.514 -3.90483 -1.66503 0
M  V30 1875 C 173.421 -5.89865 -0.425779 0
M  V30 1876 H 172.351 -0.724206 -0.209863 0
M  V30 1877 H 175.002 -1.82547 0.186741 0
M  V30 1878 H 173.384 -3.51422 -1.82533 0
M  V30 1879 H 174.558 -4.52942 0.847365 0
M  V30 1880 H 172.873 -4.11913 0.609669 0
M  V30 1881 H 175.47 -4.93925 -2.04798 0
M  V30 1882 H 175.813 -3.29877 -2.53942 0
M  V30 1883 H 176.346 -3.86581 -0.938074 0
M  V30 1884 H 173.085 -6.54202 0.412316 0
M  V30 1885 H 172.605 -5.88309 -1.16843 0
M  V30 1886 H 174.284 -6.40844 -0.890397 0
M  V30 1887 N 174.416 0.165178 -1.56732 0
M  V30 1888 C 175.326 1.22423 -2.00125 0
M  V30 1889 C 176.342 1.48084 -0.913619 0
M  V30 1890 O 177.518 1.60112 -1.22172 0
M  V30 1891 C 174.583 2.54197 -2.35764 0
M  V30 1892 C 173.644 2.36343 -3.58386 0
M  V30 1893 C 172.877 3.61834 -3.92316 0
M  V30 1894 O 173.1 4.67267 -3.27135 0
M  V30 1895 O 172.034 3.55579 -4.85641 0
M  V30 1896 H 175.86 0.885886 -2.90492 0
M  V30 1897 H 173.445 0.372518 -1.44681 0
M  V30 1898 H 175.327 3.3192 -2.59629 0
M  V30 1899 H 174.002 2.87598 -1.48557 0
M  V30 1900 H 172.909 1.56632 -3.39731 0
M  V30 1901 H 174.242 2.07865 -4.46154 0
M  V30 1902 N 175.894 1.51508 0.433938 0
M  V30 1903 C 177.31 1.39759 0.770682 0
M  V30 1904 C 177.51 0.482594 1.95636 0
M  V30 1905 O 176.566 -0.0609691 2.52426 0
M  V30 1906 C 177.879 2.81851 1.04787 0
M  V30 1907 C 179.427 2.91025 1.1521 0
M  V30 1908 C 179.902 4.34032 1.46219 0
M  V30 1909 N 181.393 4.37154 1.53136 0
M  V30 1910 C 182.128 5.4484 1.78709 0
M  V30 1911 N 181.624 6.62682 2.02051 0
M  V30 1912 N 183.417 5.32324 1.80519 0
M  V30 1913 H 175.568 2.09548 -0.346892 0
M  V30 1914 H 177.831 0.943446 -0.0928074 0
M  V30 1915 H 177.537 3.50815 0.249304 0
M  V30 1916 H 177.411 3.21386 1.97461 0
M  V30 1917 H 179.798 2.22257 1.94128 0
M  V30 1918 H 179.879 2.54983 0.204281 0
M  V30 1919 H 179.523 5.03351 0.678274 0
M  V30 1920 H 179.453 4.6759 2.42212 0
M  V30 1921 H 181.944 3.52197 1.36987 0
M  V30 1922 H 182.257 7.40543 2.20943 0
M  V30 1923 H 180.602 6.65791 1.99366 0
M  V30 1924 H 183.793 4.39246 1.61805 0
M  V30 1925 H 183.966 6.16328 2.00111 0
M  V30 1926 N 177.372 -0.689602 1.41712 0
M  V30 1927 C 178.282 -1.83314 1.46401 0
M  V30 1928 C 179.298 -1.7036 0.35405 0
M  V30 1929 O 180.474 -1.92171 0.602692 0
M  V30 1930 C 177.539 -3.19344 1.34982 0
M  V30 1931 C 176.6 -3.44363 2.56344 0
M  V30 1932 C 175.833 -4.73904 2.45461 0
M  V30 1933 O 176.056 -5.508 1.48241 0
M  V30 1934 O 174.99 -4.99839 3.35328 0
M  V30 1935 H 178.816 -1.82314 2.42889 0
M  V30 1936 H 176.401 -0.843438 1.23315 0
M  V30 1937 H 178.283 -4.00547 1.3092 0
M  V30 1938 H 176.958 -3.21014 0.41612 0
M  V30 1939 H 175.865 -2.63067 2.65982 0
M  V30 1940 H 177.198 -3.47512 3.48563 0
M  V30 1941 N 178.85 -1.27639 -0.924453 0
M  V30 1942 C 180.261 -1.12834 -1.48746 0
M  V30 1943 C 180.612 0.285505 -1.94112 0
M  V30 1944 O 179.737 1.17874 -1.81479 0
M  V30 1945 C 180.332 -2.04217 -2.70334 0
M  V30 1946 C 178.891 -1.93509 -3.22848 0
M  V30 1947 C 178.038 -1.96583 -1.95577 0
M  V30 1948 H 180.989 -1.40484 -0.738233 0
M  V30 1949 H 181.01 -1.59989 -3.4523 0
M  V30 1950 H 180.522 -3.07111 -2.37285 0
M  V30 1951 H 178.623 -0.936131 -3.60649 0
M  V30 1952 H 178.736 -2.79917 -3.88823 0
M  V30 1953 H 177.1 -1.4085 -2.12211 0
M  V30 1954 H 177.883 -3.01137 -1.64837 0
M  V30 1955 N 180.328 1.1314 -1.09713 0
M  V30 1956 C 181.258 2.20748 -0.761102 0
M  V30 1957 C 182.239 1.68061 0.262566 0
M  V30 1958 O 183.424 1.93765 0.129977 0
M  V30 1959 C 180.554 3.46812 -0.184054 0
M  V30 1960 C 179.508 4.12606 -1.13757 0
M  V30 1961 C 178.834 5.33031 -0.422083 0
M  V30 1962 C 180.134 4.59603 -2.48118 0
M  V30 1963 H 181.828 2.49113 -1.66082 0
M  V30 1964 H 179.374 1.19734 -0.799987 0
M  V30 1965 H 181.327 4.21353 0.0631215 0
M  V30 1966 H 180.051 3.17851 0.750868 0
M  V30 1967 H 178.71 3.40036 -1.37007 0
M  V30 1968 H 178.358 5.00335 0.517072 0
M  V30 1969 H 178.058 5.77999 -1.05788 0
M  V30 1970 H 179.582 6.10325 -0.183277 0
M  V30 1971 H 180.996 5.25552 -2.29059 0
M  V30 1972 H 179.393 5.15321 -3.07514 0
M  V30 1973 H 180.463 3.73971 -3.08665 0
M  V30 1974 N 181.806 0.884767 1.30421 0
M  V30 1975 C 183.055 0.499164 1.95426 0
M  V30 1976 C 183.368 -0.95645 1.70621 0
M  V30 1977 O 184.574 -1.44889 2.29607 0
M  V30 1978 C 183.03 0.84177 3.49917 0
M  V30 1979 C 182.638 2.31514 3.83543 0
M  V30 1980 C 184.382 0.525355 4.21237 0
M  V30 1981 C 182.289 2.59939 5.31212 0
M  V30 1982 H 181.219 0.182944 0.73147 0
M  V30 1983 H 183.87 1.07971 1.48373 0
M  V30 1984 H 182.252 0.190311 3.95542 0
M  V30 1985 H 183.426 3.0109 3.48829 0
M  V30 1986 H 181.741 2.59907 3.25326 0
M  V30 1987 H 184.338 0.714762 5.29901 0
M  V30 1988 H 184.681 -0.535222 4.12845 0
M  V30 1989 H 185.214 1.134 3.81294 0
M  V30 1990 H 181.953 3.64736 5.44654 0
M  V30 1991 H 181.473 1.94972 5.67227 0
M  V30 1992 H 183.152 2.45429 5.98643 0
M  V30 1993 N 183.284 -1.43765 0.645699 0
M  V30 1994 C 184.232 -2.32516 -0.0624849 0
M  V30 1995 C 185.226 -1.48183 -0.820855 0
M  V30 1996 O 186.432 -1.64439 -0.732106 0
M  V30 1997 H 182.807 -0.750989 -0.0389864 0
M  V30 1998 H 184.778 -2.89979 0.703892 0
M  V30 1999 C 183.527 -3.32389 -1.02044 0
M  V30 2000 H 182.85 -3.97301 -0.446312 0
M  V30 2001 H 184.29 -3.97138 -1.48517 0
M  V30 2002 C 182.749 -2.62416 -2.11281 0
M  V30 2003 O 183.279 -2.434 -3.19561 0
M  V30 2004 N 181.485 -2.21913 -1.87624 0
M  V30 2005 H 181.032 -2.37578 -0.995703 0
M  V30 2006 H 180.99 -1.75424 -2.6091 0
M  V30 2007 N 184.763 -0.387143 -1.52771 0
M  V30 2008 C 185.991 0.195869 -2.05971 0
M  V30 2009 C 186.406 1.40691 -1.25903 0
M  V30 2010 O 185.763 1.79931 -0.305134 0
M  V30 2011 C 185.814 0.56812 -3.57008 0
M  V30 2012 O 185.535 -0.594803 -4.34043 0
M  V30 2013 C 187.036 1.20723 -4.26545 0
M  V30 2014 H 184.256 0.0300578 -0.670326 0
M  V30 2015 H 186.8 -0.551749 -1.96916 0
M  V30 2016 H 184.955 1.26564 -3.66143 0
M  V30 2017 H 185.369 -0.289322 -5.23701 0
M  V30 2018 H 186.843 1.41807 -5.33474 0
M  V30 2019 H 187.32 2.17395 -3.81623 0
M  V30 2020 H 187.926 0.550535 -4.21722 0
M  V30 2021 N 186.241 1.57166 -0.116904 0
M  V30 2022 C 187.471 1.99184 0.548586 0
M  V30 2023 C 187.879 0.995436 1.60897 0
M  V30 2024 O 187.222 -0.0201293 1.83689 0
M  V30 2025 C 187.284 3.37611 1.23526 0
M  V30 2026 C 186.948 4.55857 0.323077 0
M  V30 2027 C 187.945 5.18056 -0.437476 0
M  V30 2028 C 185.63 5.01751 0.234761 0
M  V30 2029 C 187.624 6.24536 -1.2741 0
M  V30 2030 C 185.311 6.08093 -0.605496 0
M  V30 2031 C 186.309 6.69352 -1.35856 0
M  V30 2032 O 185.997 7.7364 -2.18487 0
M  V30 2033 H 185.729 0.659148 0.149999 0
M  V30 2034 H 188.283 2.0443 -0.199428 0
M  V30 2035 H 186.513 3.29113 2.0303 0
M  V30 2036 H 188.202 3.63932 1.79745 0
M  V30 2037 H 188.968 4.83516 -0.379105 0
M  V30 2038 H 184.847 4.53817 0.810601 0
M  V30 2039 H 188.391 6.72281 -1.86237 0
M  V30 2040 H 184.288 6.42063 -0.665268 0
M  V30 2041 H 185.056 7.90727 -2.11406 0
M  V30 2042 N 187.719 -0.156864 1.56817 0
M  V30 2043 C 188.968 -0.869504 1.81996 0
M  V30 2044 C 189.281 -1.82777 0.696545 0
M  V30 2045 O 190.487 -2.58384 0.833658 0
M  V30 2046 C 188.943 -1.59679 3.22538 0
M  V30 2047 C 188.551 -0.681431 4.42787 0
M  V30 2048 C 190.295 -2.2968 3.56997 0
M  V30 2049 C 188.202 -1.40978 5.74351 0
M  V30 2050 H 187.132 -0.328438 0.678708 0
M  V30 2051 H 189.783 -0.1223 1.83092 0
M  V30 2052 H 188.165 -2.38927 3.158 0
M  V30 2053 H 189.339 0.0751166 4.60739 0
M  V30 2054 H 187.654 -0.0903431 4.16302 0
M  V30 2055 H 190.251 -2.84794 4.52544 0
M  V30 2056 H 190.594 -3.05707 2.82576 0
M  V30 2057 H 191.127 -1.57361 3.65352 0
M  V30 2058 H 187.866 -0.691561 6.51842 0
M  V30 2059 H 187.386 -2.13929 5.60352 0
M  V30 2060 H 189.065 -1.95337 6.16808 0
M  V30 2061 N 189.197 -1.51736 -0.425897 0
M  V30 2062 C 190.422 -1.69082 -1.20108 0
M  V30 2063 C 190.847 -0.392398 -1.83962 0
M  V30 2064 O 190.205 0.64858 -1.69302 0
M  V30 2065 C 190.253 -2.81604 -2.25237 0
M  V30 2066 O 189.357 -2.46004 -3.30992 0
M  V30 2067 H 188.698 -0.563408 -0.35138 0
M  V30 2068 H 191.228 -1.98358 -0.501512 0
M  V30 2069 H 191.238 -3.06025 -2.69838 0
M  V30 2070 H 189.913 -3.75817 -1.78142 0
M  V30 2071 H 188.49 -2.32195 -2.91787 0
M  V30 2072 N 190.675 0.682077 -1.42076 0
M  V30 2073 C 191.921 1.44428 -1.42367 0
M  V30 2074 C 192.254 1.94164 -0.0373056 0
M  V30 2075 O 191.529 1.70429 0.937239 0
M  V30 2076 C 191.812 2.64654 -2.44194 0
M  V30 2077 C 191.665 2.20596 -3.91991 0
M  V30 2078 C 192.984 3.66865 -2.431 0
M  V30 2079 H 190.103 0.523834 -0.518428 0
M  V30 2080 H 192.745 0.77576 -1.73442 0
M  V30 2081 H 190.895 3.2169 -2.17826 0
M  V30 2082 H 192.567 1.68783 -4.29313 0
M  V30 2083 H 190.81 1.52242 -4.06208 0
M  V30 2084 H 191.481 3.06921 -4.58807 0
M  V30 2085 H 193.957 3.19531 -2.66532 0
M  V30 2086 H 192.833 4.48577 -3.16339 0
M  V30 2087 H 193.094 4.17493 -1.45437 0
M  V30 2088 N 192.153 1.28127 0.917671 0
M  V30 2089 C 193.564 1.13622 1.48145 0
M  V30 2090 C 193.915 -0.275207 1.9426 0
M  V30 2091 O 193.04 -1.1691 1.82102 0
M  V30 2092 C 193.635 2.05648 2.69248 0
M  V30 2093 C 192.194 1.95219 3.21818 0
M  V30 2094 C 191.341 1.97618 1.94532 0
M  V30 2095 H 194.292 1.40874 0.730772 0
M  V30 2096 H 194.313 1.61818 3.44377 0
M  V30 2097 H 193.825 3.08365 2.35653 0
M  V30 2098 H 191.926 0.955244 3.60147 0
M  V30 2099 H 192.039 2.81976 3.87333 0
M  V30 2100 H 190.403 1.41973 2.11461 0
M  V30 2101 H 191.186 3.02007 1.63238 0
M  V30 2102 N 193.631 -1.12557 1.10312 0
M  V30 2103 C 194.578 -2.18247 0.750781 0
M  V30 2104 C 195.548 -1.63853 -0.272293 0
M  V30 2105 O 196.733 -1.90195 -0.151862 0
M  V30 2106 C 193.873 -3.44591 0.187379 0
M  V30 2107 C 192.986 -4.13046 1.2656 0
M  V30 2108 C 192.121 -5.27034 0.663978 0
M  V30 2109 C 191.16 -5.87353 1.72287 0
M  V30 2110 N 190.297 -6.92757 1.1416 0
M  V30 2111 H 195.137 -2.47732 1.65628 0
M  V30 2112 H 192.674 -1.21629 0.827337 0
M  V30 2113 H 194.632 -4.16904 -0.157148 0
M  V30 2114 H 193.262 -3.15527 -0.681355 0
M  V30 2115 H 192.314 -3.38924 1.72727 0
M  V30 2116 H 193.626 -4.53947 2.06721 0
M  V30 2117 H 192.78 -6.06104 0.268824 0
M  V30 2118 H 191.519 -4.87407 -0.169082 0
M  V30 2119 H 190.524 -5.06971 2.12746 0
M  V30 2120 H 191.749 -6.29051 2.55875 0
M  V30 2121 H 189.695 -6.5517 0.329984 0
M  V30 2122 H 189.612 -7.3225 1.88007 0
M  V30 2123 H 190.88 -7.75658 0.772956 0
M  V30 2124 N 195.109 -0.891671 -1.2995 0
M  V30 2125 C 196.019 -0.367691 -2.31701 0
M  V30 2126 C 197.035 0.533486 -1.6562 0
M  V30 2127 O 198.211 0.424997 -1.96865 0
M  V30 2128 C 195.276 0.403406 -3.44345 0
M  V30 2129 C 194.337 -0.528328 -4.26037 0
M  V30 2130 C 193.57 0.206063 -5.33302 0
M  V30 2131 O 193.793 1.43119 -5.52153 0
M  V30 2132 O 192.727 -0.447281 -6.00236 0
M  V30 2133 H 196.553 -1.21163 -2.78484 0
M  V30 2134 H 194.138 -0.655725 -1.34241 0
M  V30 2135 H 196.02 0.839753 -4.12948 0
M  V30 2136 H 194.695 1.22354 -2.99685 0
M  V30 2137 H 193.602 -1.01362 -3.60106 0
M  V30 2138 H 194.935 -1.31465 -4.74318 0
M  V30 2139 N 196.587 1.43421 -0.653314 0
M  V30 2140 C 197.535 2.32546 0.0501531 0
M  V30 2141 C 198.529 1.48617 0.812985 0
M  V30 2142 O 199.735 1.64825 0.723375 0
M  V30 2143 H 196.11 0.751185 0.0350032 0
M  V30 2144 H 198.081 2.89602 -0.719261 0
M  V30 2145 C 196.83 3.32925 1.00279 0
M  V30 2146 H 196.153 3.97532 0.425236 0
M  V30 2147 H 197.593 3.9792 1.46409 0
M  V30 2148 C 196.052 2.63532 2.09886 0
M  V30 2149 O 196.582 2.45092 3.18265 0
M  V30 2150 N 194.788 2.22905 1.86445 0
M  V30 2151 H 194.335 2.38103 0.98309 0
M  V30 2152 H 194.293 1.76805 2.59976 0
M  V30 2153 N 198.065 0.39524 1.52563 0
M  V30 2154 C 199.29 -0.187456 2.06551 0
M  V30 2155 C 199.715 -1.39249 1.26457 0
M  V30 2156 O 199.073 -1.78947 0.291151 0
M  V30 2157 C 199.121 -0.529985 3.56684 0
M  V30 2158 O 198.225 -1.62307 3.79118 0
M  V30 2159 H 197.566 -0.0202537 0.663691 0
M  V30 2160 H 200.096 0.564426 1.96661 0
M  V30 2161 H 200.106 -0.792598 4.00227 0
M  V30 2162 H 198.781 0.350987 4.14416 0
M  V30 2163 H 197.358 -1.3537 3.47461 0
M  V30 2164 N 199.544 -1.57102 0.125237 0
M  V30 2165 C 200.772 -1.99761 -0.538797 0
M  V30 2166 C 201.187 -1.00503 -1.59827 0
M  V30 2167 O 200.544 0.00119474 -1.825 0
M  V30 2168 C 200.595 -3.42408 -1.15927 0
M  V30 2169 O 200.316 -4.37869 -0.142143 0
M  V30 2170 C 201.817 -4.00232 -1.90602 0
M  V30 2171 H 199.037 -0.655772 -0.14214 0
M  V30 2172 H 201.581 -2.03383 0.213413 0
M  V30 2173 H 199.736 -3.39706 -1.86223 0
M  V30 2174 H 200.15 -5.21128 -0.593775 0
M  V30 2175 H 201.624 -5.02105 -2.29335 0
M  V30 2176 H 202.101 -3.39721 -2.78363 0
M  V30 2177 H 202.707 -4.06499 -1.25055 0
M  V30 2178 N 201.022 0.148545 -1.56898 0
M  V30 2179 C 201.952 1.18524 -2.01182 0
M  V30 2180 C 202.933 1.4489 -0.891123 0
M  V30 2181 O 204.118 1.55836 -1.15882 0
M  V30 2182 C 201.248 2.51879 -2.39112 0
M  V30 2183 C 200.202 2.40038 -3.54353 0
M  V30 2184 C 199.528 3.78089 -3.78091 0
M  V30 2185 C 200.828 1.88577 -4.87069 0
M  V30 2186 H 202.522 0.817029 -2.88036 0
M  V30 2187 H 200.068 0.391575 -1.38574 0
M  V30 2188 H 202.021 3.24627 -2.68692 0
M  V30 2189 H 200.745 2.90532 -1.49193 0
M  V30 2190 H 199.404 1.69742 -3.24936 0
M  V30 2191 H 199.052 4.14175 -2.85426 0
M  V30 2192 H 198.752 3.71028 -4.55645 0
M  V30 2193 H 200.276 4.52387 -4.10095 0
M  V30 2194 H 201.69 2.51117 -5.15377 0
M  V30 2195 H 200.087 1.9241 -5.68417 0
M  V30 2196 H 201.157 0.84136 -4.77545 0
M  V30 2197 N 202.5 1.5196 0.417844 0
M  V30 2198 C 203.448 1.75278 1.52907 0
M  V30 2199 C 204.442 0.619611 1.57662 0
M  V30 2200 O 205.648 0.801457 1.61173 0
M  V30 2201 H 202.023 0.554141 0.508362 0
M  V30 2202 H 203.994 2.68389 1.30422 0
M  V30 2203 C 202.743 1.91262 2.90369 0
M  V30 2204 H 202.066 2.77872 2.8745 0
M  V30 2205 H 203.506 2.11581 3.67436 0
M  V30 2206 C 201.965 0.677431 3.30019 0
M  V30 2207 O 202.495 -0.158799 4.01386 0
M  V30 2208 N 200.701 0.515851 2.85985 0
M  V30 2209 H 200.248 1.19744 2.28077 0
M  V30 2210 H 200.206 -0.309315 3.12875 0
M  V30 2211 N 203.978 -0.674533 1.42435 0
M  V30 2212 C 205.218 -1.4466 1.44405 0
M  V30 2213 C 205.582 -1.91911 0.0585784 0
M  V30 2214 O 206.783 -2.68759 -0.0469991 0
M  V30 2215 C 205.054 -2.61136 2.44013 0
M  V30 2216 S 206.613 -3.49981 2.64687 0
M  V30 2217 H 203.431 -0.494074 0.511284 0
M  V30 2218 H 206.033 -0.785162 1.7904 0
M  V30 2219 H 204.737 -2.24662 3.43446 0
M  V30 2220 H 204.268 -3.32153 2.10803 0
M  V30 2221 H 206.283 -4.57124 1.93007 0
M  V30 2222 N 205.456 -1.28612 -0.910864 0
M  V30 2223 C 206.419 -1.12803 -1.9952 0
M  V30 2224 C 207.419 -0.0668264 -1.60661 0
M  V30 2225 O 208.609 -0.312847 -1.71368 0
M  V30 2226 C 205.741 -0.72254 -3.33155 0
M  V30 2227 H 206.934 -2.09109 -2.14973 0
M  V30 2228 H 204.487 -1.11639 -1.09391 0
M  V30 2229 H 205.222 0.241152 -3.23402 0
M  V30 2230 H 205.007 -1.48916 -3.62721 0
M  V30 2231 H 206.497 -0.634666 -4.12749 0
M  V30 2232 N 206.934 1.1197 -1.10907 0
M  V30 2233 C 208.159 1.87942 -0.877064 0
M  V30 2234 C 208.584 1.79341 0.567314 0
M  V30 2235 O 207.942 1.15184 1.40009 0
M  V30 2236 C 207.99 3.34926 -1.33629 0
M  V30 2237 O 207.094 4.09303 -0.504447 0
M  V30 2238 H 206.435 0.583785 -0.316371 0
M  V30 2239 H 208.965 1.4157 -1.47712 0
M  V30 2240 H 208.975 3.8577 -1.32837 0
M  V30 2241 H 207.65 3.40504 -2.3881 0
M  V30 2242 H 206.227 3.68393 -0.577993 0
M  V30 2243 N 208.412 0.89855 1.29475 0
M  V30 2244 C 209.659 0.523882 1.95606 0
M  V30 2245 C 209.987 -0.929608 1.70847 0
M  V30 2246 O 209.242 -1.67401 1.01367 0
M  V30 2247 C 209.541 0.761398 3.49195 0
M  V30 2248 C 209.207 2.19207 3.94029 0
M  V30 2249 C 207.869 2.58326 4.05982 0
M  V30 2250 C 210.221 3.12379 4.17216 0
M  V30 2251 C 207.549 3.898 4.38489 0
M  V30 2252 C 209.901 4.43401 4.51197 0
M  V30 2253 C 208.565 4.82394 4.61359 0
M  V30 2254 H 207.835 0.191702 0.715773 0
M  V30 2255 H 210.482 1.13699 1.54094 0
M  V30 2256 H 208.787 0.0653622 3.91745 0
M  V30 2257 H 210.484 0.450904 3.98457 0
M  V30 2258 H 207.074 1.87846 3.85242 0
M  V30 2259 H 211.258 2.83371 4.07449 0
M  V30 2260 H 206.514 4.19734 4.44559 0
M  V30 2261 H 210.688 5.15623 4.68087 0
M  V30 2262 H 208.315 5.84306 4.86303 0
M  V30 2263 N 209.89 -1.43072 0.660911 0
M  V30 2264 C 211.118 -2.06067 0.185422 0
M  V30 2265 C 211.533 -1.49582 -1.15198 0
M  V30 2266 O 210.89 -0.630134 -1.71276 0
M  V30 2267 C 210.941 -3.61371 0.0966523 0
M  V30 2268 O 210.662 -4.15758 1.38119 0
M  V30 2269 C 212.163 -4.41455 -0.403996 0
M  V30 2270 H 209.383 -0.664459 0.0934604 0
M  V30 2271 H 211.927 -1.83447 0.90373 0
M  V30 2272 H 210.082 -3.8315 -0.572259 0
M  V30 2273 H 210.496 -5.09499 1.24542 0
M  V30 2274 H 211.97 -5.50437 -0.415045 0
M  V30 2275 H 212.447 -4.15036 -1.43674 0
M  V30 2276 H 213.053 -4.24663 0.232691 0
M  V30 2277 N 211.368 -0.403325 -1.52352 0
M  V30 2278 C 212.331 0.413051 -2.25447 0
M  V30 2279 C 213.331 0.978513 -1.276 0
M  V30 2280 O 214.521 0.858305 -1.51587 0
M  V30 2281 C 211.653 1.58087 -3.02029 0
M  V30 2282 H 212.846 -0.227094 -2.99039 0
M  V30 2283 H 210.399 -0.155722 -1.55522 0
M  V30 2284 H 211.134 2.25804 -2.32772 0
M  V30 2285 H 210.919 1.18195 -3.73861 0
M  V30 2286 H 212.409 2.1585 -3.57489 0
M  V30 2287 N 212.846 1.57033 -0.133567 0
M  V30 2288 C 214.094 1.953 0.519848 0
M  V30 2289 C 214.415 1.01866 1.66278 0
M  V30 2290 O 213.685 0.0776513 1.95746 0
M  V30 2291 H 212.265 0.721091 0.195032 0
M  V30 2292 H 214.927 1.93809 -0.205921 0
M  V30 2293 H 214.023 2.98695 0.904854 0
M  V30 2294 N 214.325 -0.140222 1.56975 0
M  V30 2295 C 215.574 -0.850152 1.82908 0
M  V30 2296 C 215.887 -1.82028 0.715892 0
M  V30 2297 O 217.093 -2.57485 0.861016 0
M  V30 2298 C 215.549 -1.5625 3.24213 0
M  V30 2299 C 215.157 -0.63443 4.43485 0
M  V30 2300 C 216.901 -2.25881 3.59413 0
M  V30 2301 C 214.808 -1.34879 5.75814 0
M  V30 2302 H 213.738 -0.321221 0.682153 0
M  V30 2303 H 216.389 -0.102874 1.83211 0
M  V30 2304 H 214.771 -2.35565 3.18316 0
M  V30 2305 H 215.945 0.12398 4.60633 0
M  V30 2306 H 214.26 -0.0461836 4.16374 0
M  V30 2307 H 216.857 -2.79978 4.5554 0
M  V30 2308 H 217.2 -3.02693 2.85802 0
M  V30 2309 H 217.733 -1.53477 3.67001 0
M  V30 2310 H 214.472 -0.622385 6.52539 0
M  V30 2311 H 213.992 -2.07974 5.6259 0
M  V30 2312 H 215.671 -1.88784 6.18845 0
M  V30 2313 N 215.803 -1.52179 -0.40978 0
M  V30 2314 C 217.049 -1.66453 -1.15851 0
M  V30 2315 C 217.382 -0.392972 -1.90182 0
M  V30 2316 O 216.657 0.608579 -1.84734 0
M  V30 2317 C 216.94 -2.88612 -2.15349 0
M  V30 2318 C 216.793 -4.25815 -1.44918 0
M  V30 2319 C 218.112 -3.06294 -3.16026 0
M  V30 2320 H 215.231 -0.60575 -0.419805 0
M  V30 2321 H 217.873 -1.84732 -0.444314 0
M  V30 2322 H 216.023 -2.73158 -2.76255 0
M  V30 2323 H 217.695 -4.52995 -0.871365 0
M  V30 2324 H 215.938 -4.27247 -0.751159 0
M  V30 2325 H 216.609 -5.07337 -2.17516 0
M  V30 2326 H 219.085 -3.20641 -2.65195 0
M  V30 2327 H 217.961 -3.93283 -3.8291 0
M  V30 2328 H 218.222 -2.19579 -3.83715 0
M  V30 2329 N 217.281 0.66697 -1.42791 0
M  V30 2330 C 218.191 1.80962 -1.49299 0
M  V30 2331 C 219.207 1.69775 -0.381108 0
M  V30 2332 O 220.383 1.91188 -0.633188 0
M  V30 2333 C 217.448 3.17156 -1.40045 0
M  V30 2334 C 216.509 3.40242 -2.6179 0
M  V30 2335 C 215.742 4.69939 -2.52969 0
M  V30 2336 O 215.965 5.48372 -1.56985 0
M  V30 2337 O 214.899 4.94441 -3.43237 0
M  V30 2338 H 218.725 1.78427 -2.45759 0
M  V30 2339 H 216.31 0.823713 -1.24641 0
M  V30 2340 H 218.192 3.98413 -1.37276 0
M  V30 2341 H 216.867 3.20312 -0.467138 0
M  V30 2342 H 215.774 2.58802 -2.70134 0
M  V30 2343 H 217.107 3.41923 -3.54047 0
M  V30 2344 N 218.759 1.29093 0.90403 0
M  V30 2345 C 219.722 1.1386 1.98919 0
M  V30 2346 C 220.722 0.0753457 1.60623 0
M  V30 2347 O 221.912 0.321931 1.71199 0
M  V30 2348 C 219.044 0.740198 3.32767 0
M  V30 2349 H 220.237 2.10246 2.13861 0
M  V30 2350 H 217.79 1.12218 1.08797 0
M  V30 2351 H 218.525 -0.223997 3.23525 0
M  V30 2352 H 218.31 1.50838 3.61926 0
M  V30 2353 H 219.8 0.656546 4.12407 0
M  V30 2354 N 220.237 -1.11381 1.11499 0
M  V30 2355 C 221.483 -1.83403 0.865512 0
M  V30 2356 C 221.816 -1.84459 -0.607329 0
M  V30 2357 O 221.091 -1.29811 -1.44842 0
M  V30 2358 C 221.374 -3.30552 1.42855 0
M  V30 2359 C 221.227 -3.37886 2.96906 0
M  V30 2360 C 222.546 -4.26643 1.08 0
M  V30 2361 H 219.665 -0.665879 0.31587 0
M  V30 2362 H 222.307 -1.30601 1.37998 0
M  V30 2363 H 220.457 -3.75648 0.990985 0
M  V30 2364 H 222.129 -3.01343 3.49271 0
M  V30 2365 H 220.372 -2.78088 3.32941 0
M  V30 2366 H 221.043 -4.41458 3.31389 0
M  V30 2367 H 223.519 -3.89729 1.45775 0
M  V30 2368 H 222.395 -5.27986 1.50072 0
M  V30 2369 H 222.656 -4.42099 -0.00915037 0
M  V30 2370 N 221.715 -0.905404 -1.28997 0
M  V30 2371 C 222.645 -0.404212 -2.29975 0
M  V30 2372 C 223.626 0.523784 -1.61835 0
M  V30 2373 O 224.811 0.433298 -1.89304 0
M  V30 2374 C 221.941 0.364042 -3.45387 0
M  V30 2375 C 220.895 -0.474048 -4.25367 0
M  V30 2376 C 220.221 0.422045 -5.33032 0
M  V30 2377 C 221.521 -1.72696 -4.92923 0
M  V30 2378 H 223.215 -1.24807 -2.72146 0
M  V30 2379 H 220.761 -0.601585 -1.30832 0
M  V30 2380 H 222.714 0.725447 -4.15109 0
M  V30 2381 H 221.438 1.24174 -3.02074 0
M  V30 2382 H 220.097 -0.81786 -3.57361 0
M  V30 2383 H 219.745 1.29804 -4.85963 0
M  V30 2384 H 219.445 -0.135057 -5.87445 0
M  V30 2385 H 220.969 0.779517 -6.05604 0
M  V30 2386 H 222.383 -1.43495 -5.55051 0
M  V30 2387 H 220.78 -2.22582 -5.57295 0
M  V30 2388 H 221.85 -2.45964 -4.17887 0
M  V30 2389 N 223.193 1.4272 -0.668489 0
M  V30 2390 C 224.421 2.05966 -0.196348 0
M  V30 2391 C 224.836 1.50191 1.14403 0
M  V30 2392 O 224.193 0.639208 1.7094 0
M  V30 2393 C 224.244 3.61314 -0.115815 0
M  V30 2394 O 223.965 4.1502 -1.40322 0
M  V30 2395 C 225.466 4.41663 0.380579 0
M  V30 2396 H 222.686 0.663954 -0.0969829 0
M  V30 2397 H 225.23 1.82966 -0.913446 0
M  V30 2398 H 223.385 3.83448 0.551931 0
M  V30 2399 H 223.799 5.08832 -1.27243 0
M  V30 2400 H 225.273 5.5065 0.385848 0
M  V30 2401 H 225.75 4.15792 1.41471 0
M  V30 2402 H 226.356 4.24534 -0.255209 0
M  V30 2403 N 224.671 0.411399 1.52136 0
M  V30 2404 C 225.621 -0.430376 2.23901 0
M  V30 2405 C 226.605 -1.0116 1.25121 0
M  V30 2406 O 227.797 -0.934044 1.50348 0
M  V30 2407 C 224.926 -1.54527 3.06556 0
M  V30 2408 C 224.012 -0.9747 4.12747 0
M  V30 2409 N 224.403 -0.130991 5.0563 0
M  V30 2410 C 222.701 -1.24497 4.28271 0
M  V30 2411 C 223.402 0.186689 5.814 0
M  V30 2412 N 222.378 -0.42304 5.41951 0
M  V30 2413 H 226.18 0.220509 2.93072 0
M  V30 2414 H 223.694 0.221952 1.60876 0
M  V30 2415 H 225.691 -2.16093 3.56524 0
M  V30 2416 H 224.351 -2.19875 2.38925 0
M  V30 2417 H 225.362 0.23349 5.17373 0
M  V30 2418 H 222.039 -1.89787 3.7187 0
M  V30 2419 H 223.429 0.871673 6.66222 0
M  V30 2420 N 226.149 -1.5696 0.141893 0
M  V30 2421 C 227.374 -2.00754 -0.520838 0
M  V30 2422 C 227.799 -1.0213 -1.57959 0
M  V30 2423 O 227.157 0.00371324 -1.813 0
M  V30 2424 C 227.205 -3.43318 -1.10294 0
M  V30 2425 O 226.309 -3.47679 -2.21795 0
M  V30 2426 H 225.65 -0.651564 -0.127908 0
M  V30 2427 H 228.18 -2.03221 0.23712 0
M  V30 2428 H 228.19 -3.82012 -1.43287 0
M  V30 2429 H 226.865 -4.14608 -0.327574 0
M  V30 2430 H 225.442 -3.20824 -1.9007 0
M  V30 2431 N 227.627 0.131896 -1.57047 0
M  V30 2432 C 228.875 0.840269 -1.83804 0
M  V30 2433 C 229.196 1.81017 -0.72512 0
M  V30 2434 O 228.466 1.94272 0.251995 0
M  V30 2435 H 227.046 0.313294 -0.678127 0
M  V30 2436 H 229.708 0.122294 -1.94516 0
M  V30 2437 H 228.804 1.39335 -2.79271 0
M  V30 2438 N 229.106 1.52395 0.401703 0
M  V30 2439 C 230.353 1.66817 1.14796 0
M  V30 2440 C 230.681 0.401772 1.90305 0
M  V30 2441 O 229.936 -0.615487 1.85769 0
M  V30 2442 C 230.235 2.84578 2.16217 0
M  V30 2443 C 229.901 4.22513 1.5746 0
M  V30 2444 C 228.563 4.60029 1.41161 0
M  V30 2445 C 230.915 5.0844 1.14622 0
M  V30 2446 C 228.243 5.81144 0.80552 0
M  V30 2447 C 230.595 6.30167 0.55428 0
M  V30 2448 C 229.259 6.66426 0.378482 0
M  V30 2449 H 228.529 0.610428 0.420069 0
M  V30 2450 H 231.176 1.86512 0.434212 0
M  V30 2451 H 229.481 2.59248 2.93764 0
M  V30 2452 H 231.178 2.92933 2.73845 0
M  V30 2453 H 227.768 3.92953 1.71132 0
M  V30 2454 H 231.952 4.80034 1.26021 0
M  V30 2455 H 227.208 6.07855 0.657399 0
M  V30 2456 H 231.382 6.96071 0.213983 0
M  V30 2457 H 229.009 7.60143 -0.0932606 0
M  V30 2458 N 230.584 -0.659388 1.43143 0
M  V30 2459 C 231.995 -1.24041 1.39537 0
M  V30 2460 C 232.346 -1.95963 0.0963364 0
M  V30 2461 O 231.471 -2.00892 -0.804438 0
M  V30 2462 C 232.066 -2.25601 2.52764 0
M  V30 2463 C 230.625 -2.79195 2.52443 0
M  V30 2464 C 229.772 -1.53743 2.30778 0
M  V30 2465 H 232.723 -0.451792 1.52133 0
M  V30 2466 H 232.744 -3.07651 2.23899 0
M  V30 2467 H 232.256 -1.73226 3.47296 0
M  V30 2468 H 230.357 -3.35649 1.61773 0
M  V30 2469 H 230.47 -3.2716 3.50004 0
M  V30 2470 H 228.834 -1.80869 1.79328 0
M  V30 2471 H 229.617 -1.03312 3.27386 0
M  V30 2472 N 232.062 -1.29571 -0.897171 0
M  V30 2473 C 233.025 -1.14913 -1.98312 0
M  V30 2474 C 234.025 -0.0838629 -1.60581 0
M  V30 2475 O 235.215 -0.331006 -1.71026 0
M  V30 2476 C 232.347 -0.757835 -3.3237 0
M  V30 2477 H 233.54 -2.11377 -2.12743 0
M  V30 2478 H 231.093 -1.12793 -1.08201 0
M  V30 2479 H 231.828 0.206837 -3.2364 0
M  V30 2480 H 231.613 -1.52755 -3.61121 0
M  V30 2481 H 233.103 -0.678408 -4.12053 0
M  V30 2482 N 233.54 1.10788 -1.12088 0
M  V30 2483 C 234.487 2.17025 -0.785407 0
M  V30 2484 C 235.457 1.64265 0.246191 0
M  V30 2485 O 236.642 1.90412 0.121584 0
M  V30 2486 C 233.782 3.44249 -0.242177 0
M  V30 2487 C 232.895 4.1098 -1.33115 0
M  V30 2488 C 232.03 5.25911 -0.747741 0
M  V30 2489 C 231.069 5.84538 -1.81609 0
M  V30 2490 N 230.206 6.90853 -1.25167 0
M  V30 2491 H 235.046 2.45066 -1.69548 0
M  V30 2492 H 232.583 1.20297 -0.846582 0
M  V30 2493 H 234.541 4.17101 0.0908026 0
M  V30 2494 H 233.171 3.16571 0.631072 0
M  V30 2495 H 232.223 3.36133 -1.78097 0
M  V30 2496 H 233.535 4.50601 -2.13917 0
M  V30 2497 H 232.689 6.056 -0.365216 0
M  V30 2498 H 231.428 4.87614 0.0915188 0
M  V30 2499 H 230.433 5.03522 -2.20785 0
M  V30 2500 H 231.658 6.249 -2.6585 0
M  V30 2501 H 229.604 6.54562 -0.434174 0
M  V30 2502 H 229.521 7.29166 -1.99633 0
M  V30 2503 H 230.789 7.7433 -0.896259 0
M  V30 2504 N 235.018 0.912232 1.28515 0
M  V30 2505 C 236.264 0.545405 1.95328 0
M  V30 2506 C 236.597 -0.908313 1.71649 0
M  V30 2507 O 235.872 -1.64575 1.03659 0
M  V30 2508 C 236.155 0.853483 3.4984 0
M  V30 2509 C 236.008 2.35982 3.82926 0
M  V30 2510 C 237.327 0.348589 4.38717 0
M  V30 2511 H 234.446 0.199626 0.709449 0
M  V30 2512 H 237.088 1.1412 1.5191 0
M  V30 2513 H 235.238 0.34643 3.86952 0
M  V30 2514 H 236.91 2.93738 3.55691 0
M  V30 2515 H 235.153 2.81543 3.30024 0
M  V30 2516 H 235.824 2.52593 4.90816 0
M  V30 2517 H 238.3 0.78294 4.08668 0
M  V30 2518 H 237.176 0.593242 5.45685 0
M  V30 2519 H 237.437 -0.751049 4.35674 0
M  V30 2520 N 236.496 -1.42363 0.676048 0
M  V30 2521 C 237.724 -2.05859 0.207268 0
M  V30 2522 C 238.139 -1.50796 -1.13605 0
M  V30 2523 O 237.496 -0.648265 -1.70598 0
M  V30 2524 C 237.547 -3.61248 0.134975 0
M  V30 2525 O 237.268 -4.1427 1.42521 0
M  V30 2526 C 238.769 -4.41859 -0.357151 0
M  V30 2527 H 235.989 -0.663431 0.100503 0
M  V30 2528 H 238.533 -1.82479 0.923136 0
M  V30 2529 H 236.688 -3.83735 -0.531588 0
M  V30 2530 H 237.102 -5.0815 1.29939 0
M  V30 2531 H 238.576 -5.50847 -0.356641 0
M  V30 2532 H 239.053 -4.16536 -1.39264 0
M  V30 2533 H 239.659 -4.24392 0.27772 0
M  V30 2534 N 237.974 -0.419461 -1.51915 0
M  V30 2535 C 238.937 0.389116 -2.25873 0
M  V30 2536 C 239.937 0.964924 -1.28631 0
M  V30 2537 O 241.127 0.842179 -1.52489 0
M  V30 2538 C 238.259 1.54874 -3.03689 0
M  V30 2539 H 239.452 -0.258799 -2.98781 0
M  V30 2540 H 237.005 -0.172209 -1.55348 0
M  V30 2541 H 237.74 2.23323 -2.35154 0
M  V30 2542 H 237.525 1.14223 -3.75094 0
M  V30 2543 H 239.015 2.12046 -3.59759 0
M  V30 2544 N 239.452 1.56882 -0.150215 0
M  V30 2545 C 240.402 2.13501 0.800071 0
M  V30 2546 C 241.386 1.06368 1.20726 0
M  V30 2547 O 242.578 1.32538 1.17314 0
M  V30 2548 C 239.707 2.76271 2.03787 0
M  V30 2549 C 238.793 3.90533 1.65364 0
M  V30 2550 N 239.184 4.96259 0.977794 0
M  V30 2551 C 237.482 4.013 1.94613 0
M  V30 2552 C 238.183 5.76286 0.791794 0
M  V30 2553 N 237.159 5.27163 1.32666 0
M  V30 2554 H 240.961 2.92615 0.274517 0
M  V30 2555 H 238.475 1.62319 0.0512144 0
M  V30 2556 H 240.472 3.15197 2.72867 0
M  V30 2557 H 239.132 1.98631 2.56857 0
M  V30 2558 H 240.143 5.13953 0.638193 0
M  V30 2559 H 236.82 3.3474 2.4951 0
M  V30 2560 H 238.21 6.71401 0.258894 0
M  V30 2561 N 240.93 -0.123565 1.57115 0
M  V30 2562 C 242.176 -0.828428 1.85765 0
M  V30 2563 C 242.531 -1.77709 0.737371 0
M  V30 2564 O 241.824 -1.89787 -0.262978 0
M  V30 2565 C 242.018 -1.62016 3.18568 0
M  V30 2566 C 241.847 -0.749663 4.43407 0
M  V30 2567 C 240.617 -0.406251 5.03664 0
M  V30 2568 C 242.815 -0.0693505 5.14253 0
M  V30 2569 N 240.797 0.475389 6.12057 0
M  V30 2570 C 242.168 0.671474 6.16353 0
M  V30 2571 C 244.223 0.00754393 4.97899 0
M  V30 2572 C 242.926 1.48197 7.03868 0
M  V30 2573 C 244.952 0.804845 5.85898 0
M  V30 2574 C 244.314 1.53388 6.87497 0
M  V30 2575 H 240.413 -0.280219 0.73007 0
M  V30 2576 H 242.997 -0.0924183 1.94481 0
M  V30 2577 H 241.168 -2.32724 3.10957 0
M  V30 2578 H 242.9 -2.27 3.35042 0
M  V30 2579 H 239.655 -0.747446 4.67665 0
M  V30 2580 H 240.079 0.907924 6.70884 0
M  V30 2581 H 244.721 -0.541741 4.19315 0
M  V30 2582 H 242.439 2.04242 7.81864 0
M  V30 2583 H 246.025 0.866642 5.75309 0
M  V30 2584 H 244.905 2.1409 7.5441 0
M  V30 2585 N 242.408 -1.52605 -0.393616 0
M  V30 2586 C 243.358 -1.73436 -1.48 0
M  V30 2587 C 244.342 -0.588386 -1.49756 0
M  V30 2588 O 245.534 -0.846047 -1.5547 0
M  V30 2589 C 242.663 -1.90247 -2.85764 0
M  V30 2590 C 241.749 -3.10763 -2.88595 0
M  V30 2591 N 242.14 -4.33196 -2.61103 0
M  V30 2592 C 240.438 -3.10914 -3.19763 0
M  V30 2593 C 241.139 -5.1477 -2.70899 0
M  V30 2594 N 240.115 -4.50356 -3.04435 0
M  V30 2595 H 243.917 -2.65727 -1.25563 0
M  V30 2596 H 241.431 -1.5085 -0.601513 0
M  V30 2597 H 243.428 -2.03291 -3.63976 0
M  V30 2598 H 242.088 -0.991663 -3.09186 0
M  V30 2599 H 243.099 -4.61408 -2.35209 0
M  V30 2600 H 239.776 -2.29626 -3.4868 0
M  V30 2601 H 241.166 -6.22355 -2.53227 0
M  V30 2602 N 243.887 0.651787 -1.4349 0
M  V30 2603 C 244.834 1.76462 -1.4876 0
M  V30 2604 C 245.804 1.62641 -0.337189 0
M  V30 2605 O 246.989 1.82864 -0.544544 0
M  V30 2606 C 244.129 3.14623 -1.41796 0
M  V30 2607 C 243.242 3.39568 -2.67053 0
M  V30 2608 C 242.377 4.67585 -2.52068 0
M  V30 2609 C 241.416 4.85639 -3.72587 0
M  V30 2610 N 240.553 6.04915 -3.56402 0
M  V30 2611 H 245.393 1.71293 -2.43849 0
M  V30 2612 H 242.93 0.835889 -1.21043 0
M  V30 2613 H 244.888 3.94496 -1.35753 0
M  V30 2614 H 243.518 3.18859 -0.50288 0
M  V30 2615 H 242.57 2.53783 -2.8337 0
M  V30 2616 H 243.882 3.48795 -3.56572 0
M  V30 2617 H 243.036 5.55586 -2.4374 0
M  V30 2618 H 241.775 4.60681 -1.60075 0
M  V30 2619 H 240.78 3.96073 -3.81321 0
M  V30 2620 H 242.005 4.94372 -4.65589 0
M  V30 2621 H 239.951 5.9914 -2.67146 0
M  V30 2622 H 239.868 6.15106 -4.39524 0
M  V30 2623 H 241.136 6.95533 -3.51929 0
M  V30 2624 N 245.365 1.30045 0.890287 0
M  V30 2625 C 246.613 1.18327 1.63839 0
M  V30 2626 C 246.934 -0.263455 1.93212 0
M  V30 2627 O 246.204 -1.17856 1.56482 0
M  V30 2628 H 244.784 0.434933 0.607324 0
M  V30 2629 H 247.446 1.631 1.06698 0
M  V30 2630 H 246.542 1.74024 2.59079 0
M  V30 2631 N 246.843 -1.10192 1.12674 0
M  V30 2632 C 248.071 -1.85983 0.906527 0
M  V30 2633 C 248.486 -1.80783 -0.544333 0
M  V30 2634 O 247.843 -1.19834 -1.37645 0
M  V30 2635 C 247.894 -3.34281 1.37618 0
M  V30 2636 O 247.615 -3.39401 2.77017 0
M  V30 2637 C 249.116 -4.26938 1.19325 0
M  V30 2638 H 246.336 -0.587716 0.323775 0
M  V30 2639 H 248.88 -1.39284 1.49734 0
M  V30 2640 H 247.035 -3.78436 0.828539 0
M  V30 2641 H 247.449 -4.31838 2.97684 0
M  V30 2642 H 248.923 -5.29181 1.57071 0
M  V30 2643 H 249.4 -4.38995 0.134097 0
M  V30 2644 H 250.006 -3.8859 1.72852 0
M  V30 2645 N 248.321 -0.919034 -1.28029 0
M  V30 2646 C 249.549 -0.570971 -1.98866 0
M  V30 2647 C 249.964 0.848996 -1.68634 0
M  V30 2648 O 249.321 1.56307 -0.942036 0
M  V30 2649 C 249.372 -0.776876 -3.53054 0
M  V30 2650 O 249.093 -2.14097 -3.82222 0
M  V30 2651 C 250.594 -0.436356 -4.41147 0
M  V30 2652 H 247.814 -0.217175 -0.634883 0
M  V30 2653 H 250.358 -1.23368 -1.63097 0
M  V30 2654 H 248.513 -0.161085 -3.87065 0
M  V30 2655 H 248.927 -2.18455 -4.76841 0
M  V30 2656 H 250.401 -0.63117 -5.4838 0
M  V30 2657 H 250.878 0.627686 -4.34692 0
M  V30 2658 H 251.484 -1.02991 -4.12641 0
M  V30 2659 N 249.799 1.42003 -0.683588 0
M  V30 2660 C 250.729 2.33487 -0.024866 0
M  V30 2661 C 251.71 1.51163 0.779975 0
M  V30 2662 O 252.895 1.79739 0.735362 0
M  V30 2663 C 250.025 3.3487 0.920836 0
M  V30 2664 C 248.979 4.27414 0.223958 0
M  V30 2665 C 248.305 5.19074 1.2832 0
M  V30 2666 C 249.605 5.14445 -0.90242 0
M  V30 2667 H 251.299 2.88819 -0.788921 0
M  V30 2668 H 248.845 1.38873 -0.38083 0
M  V30 2669 H 250.798 3.97787 1.39081 0
M  V30 2670 H 249.522 2.77861 1.71642 0
M  V30 2671 H 248.181 3.65904 -0.225864 0
M  V30 2672 H 247.829 4.58387 2.071 0
M  V30 2673 H 247.529 5.81822 0.821995 0
M  V30 2674 H 249.053 5.84867 1.75392 0
M  V30 2675 H 250.467 5.70998 -0.513272 0
M  V30 2676 H 248.864 5.86072 -1.28997 0
M  V30 2677 H 249.934 4.52322 -1.74737 0
M  V30 2678 N 251.277 0.427512 1.51691 0
M  V30 2679 C 252.21 -0.433876 2.24037 0
M  V30 2680 C 253.188 -1.03287 1.25581 0
M  V30 2681 O 254.372 -1.07722 1.54688 0
M  V30 2682 C 251.499 -1.60385 2.98319 0
M  V30 2683 C 250.545 -1.12648 4.11355 0
M  V30 2684 S 251.378 -0.076543 5.35445 0
M  V30 2685 C 252.534 -1.25141 6.13262 0
M  V30 2686 H 252.767 0.180367 2.96752 0
M  V30 2687 H 250.3 0.211946 1.52938 0
M  V30 2688 H 252.258 -2.27462 3.41718 0
M  V30 2689 H 250.919 -2.18948 2.25213 0
M  V30 2690 H 250.112 -2.0011 4.62571 0
M  V30 2691 H 249.714 -0.534088 3.70167 0
M  V30 2692 H 252.006 -2.17162 6.41753 0
M  V30 2693 H 252.949 -0.779411 7.03797 0
M  V30 2694 H 253.357 -1.48553 5.44603 0
M  V30 2695 N 252.755 -1.56801 0.158532 0
M  V30 2696 C 254.004 -1.95665 -0.489702 0
M  V30 2697 C 254.317 -1.04654 -1.65248 0
M  V30 2698 O 255.523 -1.33146 -2.3661 0
M  V30 2699 C 253.979 -3.47874 -0.922582 0
M  V30 2700 C 253.587 -4.47489 0.213893 0
M  V30 2701 C 255.331 -3.95583 -1.53996 0
M  V30 2702 C 253.238 -5.90921 -0.237903 0
M  V30 2703 H 252.168 -0.730516 -0.186716 0
M  V30 2704 H 254.819 -1.81861 0.244722 0
M  V30 2705 H 253.201 -3.57051 -1.71261 0
M  V30 2706 H 254.375 -4.50017 0.991036 0
M  V30 2707 H 252.69 -4.09764 0.740407 0
M  V30 2708 H 255.287 -5.0019 -1.8898 0
M  V30 2709 H 255.63 -3.37789 -2.43319 0
M  V30 2710 H 256.163 -3.8937 -0.814611 0
M  V30 2711 H 252.902 -6.52559 0.620236 0
M  V30 2712 H 252.422 -5.91729 -0.980676 0
M  V30 2713 H 254.101 -6.43352 -0.686067 0
M  V30 2714 N 254.233 0.115231 -1.57178 0
M  V30 2715 C 255.18 1.14115 -2.00615 0
M  V30 2716 C 256.15 1.40939 -0.878941 0
M  V30 2717 O 257.335 1.52741 -1.14345 0
M  V30 2718 C 254.475 2.46156 -2.4187 0
M  V30 2719 C 253.588 2.26236 -3.68024 0
M  V30 2720 C 252.723 3.51534 -3.98243 0
M  V30 2721 C 251.762 3.26787 -5.17568 0
M  V30 2722 N 250.899 4.44298 -5.43639 0
M  V30 2723 H 255.739 0.763743 -2.88047 0
M  V30 2724 H 253.276 0.365615 -1.42484 0
M  V30 2725 H 255.234 3.23189 -2.63827 0
M  V30 2726 H 253.864 2.81783 -1.57475 0
M  V30 2727 H 252.916 1.40102 -3.5366 0
M  V30 2728 H 254.228 2.03929 -4.55208 0
M  V30 2729 H 253.382 4.36984 -4.20868 0
M  V30 2730 H 252.121 3.76876 -3.09541 0
M  V30 2731 H 251.126 2.39729 -4.94783 0
M  V30 2732 H 252.351 3.02812 -6.0785 0
M  V30 2733 H 250.297 4.69754 -4.57895 0
M  V30 2734 H 250.214 4.25109 -6.25154 0
M  V30 2735 H 251.482 5.3087 -5.70786 0
M  V30 2736 N 255.711 1.52812 0.385517 0
M  V30 2737 C 256.958 1.68026 1.1302 0
M  V30 2738 C 257.286 0.421934 1.89868 0
M  V30 2739 O 256.541 -0.595749 1.86412 0
M  V30 2740 C 256.84 2.86856 2.13187 0
M  V30 2741 C 256.506 4.24159 1.5297 0
M  V30 2742 C 255.168 4.61501 1.36274 0
M  V30 2743 C 257.52 5.09627 1.09223 0
M  V30 2744 C 254.848 5.81966 0.743837 0
M  V30 2745 C 257.2 6.30719 0.487411 0
M  V30 2746 C 255.864 6.6679 0.307777 0
M  V30 2747 H 255.134 0.614849 0.413571 0
M  V30 2748 H 257.781 1.86962 0.414405 0
M  V30 2749 H 256.086 2.6235 2.90998 0
M  V30 2750 H 257.783 2.95821 2.70722 0
M  V30 2751 H 254.373 3.94746 1.66954 0
M  V30 2752 H 258.557 4.81343 1.20922 0
M  V30 2753 H 253.813 6.08519 0.592891 0
M  V30 2754 H 257.987 6.96259 0.140143 0
M  V30 2755 H 255.614 7.60001 -0.173879 0
M  V30 2756 N 257.189 -0.644168 1.43834 0
M  V30 2757 C 258.099 -1.78563 1.52159 0
M  V30 2758 C 259.115 -1.69147 0.408069 0
M  V30 2759 O 260.291 -1.90156 0.663524 0
M  V30 2760 C 257.356 -3.14888 1.45073 0
M  V30 2761 C 256.417 -3.36034 2.6717 0
M  V30 2762 C 255.65 -4.65855 2.60413 0
M  V30 2763 O 255.873 -5.45805 1.65689 0
M  V30 2764 O 254.807 -4.88918 3.5106 0
M  V30 2765 H 258.633 -1.74494 2.48567 0
M  V30 2766 H 256.218 -0.80378 1.25935 0
M  V30 2767 H 258.1 -3.96179 1.43597 0
M  V30 2768 H 256.775 -3.19528 0.518037 0
M  V30 2769 H 255.682 -2.54472 2.74217 0
M  V30 2770 H 257.015 -3.36247 3.59442 0
M  V30 2771 N 258.668 -1.30515 -0.883378 0
M  V30 2772 C 259.578 -1.18959 -2.02203 0
M  V30 2773 C 260.594 -0.109172 -1.73657 0
M  V30 2774 O 261.77 -0.324413 -1.9877 0
M  V30 2775 C 258.835 -0.883871 -3.35244 0
M  V30 2776 C 257.896 -2.04982 -3.77201 0
M  V30 2777 C 257.129 -1.75859 -5.03894 0
M  V30 2778 O 257.352 -0.687276 -5.66244 0
M  V30 2779 O 256.286 -2.61146 -5.42297 0
M  V30 2780 H 260.112 -2.14616 -2.1488 0
M  V30 2781 H 257.697 -1.10124 -1.0096 0
M  V30 2782 H 259.579 -0.728644 -4.15053 0
M  V30 2783 H 258.254 0.0427798 -3.23672 0
M  V30 2784 H 257.161 -2.26038 -2.9809 0
M  V30 2785 H 258.494 -2.95825 -3.93381 0
M  V30 2786 N 260.146 1.09593 -1.13257 0
M  V30 2787 C 261.109 2.14359 -0.811358 0
M  V30 2788 C 262.109 1.59808 0.178377 0
M  V30 2789 O 263.299 1.74132 -0.0484911 0
M  V30 2790 C 260.431 3.40269 -0.207276 0
M  V30 2791 H 261.624 2.44284 -1.73969 0
M  V30 2792 H 259.177 1.25102 -0.936973 0
M  V30 2793 H 259.912 3.15969 0.73036 0
M  V30 2794 H 259.697 3.81154 -0.919992 0
M  V30 2795 H 261.187 4.176 0.000667944 0
M  V30 2796 N 261.624 0.925811 1.2754 0
M  V30 2797 C 262.87 0.566092 1.94739 0
M  V30 2798 C 263.203 -0.890057 1.72603 0
M  V30 2799 O 262.478 -1.63467 1.05399 0
M  V30 2800 C 262.761 0.89054 3.48915 0
M  V30 2801 C 262.614 2.4003 3.80402 0
M  V30 2802 C 263.933 0.395101 4.38323 0
M  V30 2803 H 261.052 0.20714 0.707292 0
M  V30 2804 H 263.694 1.15725 1.50691 0
M  V30 2805 H 261.844 0.387452 3.86563 0
M  V30 2806 H 263.516 2.97494 3.52555 0
M  V30 2807 H 261.759 2.85028 3.2702 0
M  V30 2808 H 262.43 2.57785 4.8811 0
M  V30 2809 H 264.906 0.826241 4.07814 0
M  V30 2810 H 263.782 0.651086 5.45025 0
M  V30 2811 H 264.043 -0.704798 4.36446 0
M  V30 2812 N 263.102 -1.41638 0.69111 0
M  V30 2813 C 264.351 -2.00526 0.217318 0
M  V30 2814 C 264.664 -1.55353 -1.18848 0
M  V30 2815 O 265.87 -2.06769 -1.75951 0
M  V30 2816 C 264.326 -3.58313 0.337639 0
M  V30 2817 C 263.934 -4.12469 1.74852 0
M  V30 2818 C 265.678 -4.24431 -0.0766066 0
M  V30 2819 C 263.585 -5.62675 1.82074 0
M  V30 2820 H 262.515 -0.750008 0.0774893 0
M  V30 2821 H 265.166 -1.6217 0.858661 0
M  V30 2822 H 263.548 -3.9425 -0.371879 0
M  V30 2823 H 264.722 -3.8796 2.48644 0
M  V30 2824 H 263.037 -3.58861 2.11205 0
M  V30 2825 H 265.634 -5.34683 -0.0430284 0
M  V30 2826 H 265.977 -4.01101 -1.1146 0
M  V30 2827 H 266.51 -3.93512 0.582476 0
M  V30 2828 H 263.249 -5.90826 2.83911 0
M  V30 2829 H 262.769 -5.89124 1.12661 0
M  V30 2830 H 264.448 -6.27371 1.58159 0
M  V30 2831 N 264.58 -0.43555 -1.51462 0
M  V30 2832 C 265.543 0.365137 -2.26273 0
M  V30 2833 C 266.543 0.951227 -1.29647 0
M  V30 2834 O 267.733 0.825958 -1.53374 0
M  V30 2835 C 264.865 1.51645 -3.05314 0
M  V30 2836 H 266.058 -0.290474 -2.9849 0
M  V30 2837 H 263.611 -0.188676 -1.55157 0
M  V30 2838 H 264.346 2.20816 -2.3751 0
M  V30 2839 H 264.131 1.10238 -3.76284 0
M  V30 2840 H 265.621 2.08218 -3.61987 0
M  V30 2841 N 266.058 1.56714 -0.166846 0
M  V30 2842 C 267.474 1.58473 0.189372 0
M  V30 2843 C 267.674 1.18201 1.63189 0
M  V30 2844 O 266.73 0.891528 2.36237 0
M  V30 2845 C 268.043 3.00573 -0.0873872 0
M  V30 2846 C 269.591 3.1299 -0.0252443 0
M  V30 2847 C 270.066 4.57174 -0.274934 0
M  V30 2848 N 271.557 4.62665 -0.222553 0
M  V30 2849 C 272.292 5.72072 -0.389985 0
M  V30 2850 N 271.788 6.90054 -0.616229 0
M  V30 2851 N 273.581 5.61153 -0.326202 0
M  V30 2852 H 265.732 1.8118 -1.10849 0
M  V30 2853 H 267.995 0.839525 -0.440342 0
M  V30 2854 H 267.701 3.34497 -1.0865 0
M  V30 2855 H 267.575 3.72019 0.623037 0
M  V30 2856 H 269.962 2.78895 0.96444 0
M  V30 2857 H 270.043 2.43989 -0.768309 0
M  V30 2858 H 269.687 4.91976 -1.26181 0
M  V30 2859 H 269.617 5.24328 0.48869 0
M  V30 2860 H 272.108 3.77863 -0.0531512 0
M  V30 2861 H 272.421 7.69311 -0.733559 0
M  V30 2862 H 270.766 6.91927 -0.652791 0
M  V30 2863 H 273.957 4.67859 -0.150072 0
M  V30 2864 H 274.13 6.46364 -0.460116 0
M  V30 2865 N 267.536 -0.106894 1.57237 0
M  V30 2866 C 268.813 -0.843526 1.76477 0
M  V30 2867 C 269.193 -1.97499 0.745464 0
M  V30 2868 O 268.541 -2.27357 -0.228306 0
M  V30 2869 C 268.751 -1.34903 3.21873 0
M  V30 2870 C 270.099 -1.79654 3.8472 0
M  V30 2871 O 271.123 -1.44554 3.2555 0
M  V30 2872 O 269.982 -2.44515 4.88748 0
M  V30 2873 H 267.076 -0.401468 0.723016 0
M  V30 2874 H 269.622 -0.0896927 1.69463 0
M  V30 2875 H 268.394 -0.53781 3.87586 0
M  V30 2876 H 268.017 -2.16522 3.33473 0
M  V30 2877 N 269.014 -1.53014 -0.377408 0
M  V30 2878 C 270.43 -1.42523 -0.718281 0
M  V30 2879 C 270.63 -0.55487 -1.9371 0
M  V30 2880 O 269.686 -0.0327593 -2.52479 0
M  V30 2881 C 270.999 -2.85546 -0.942539 0
M  V30 2882 C 272.547 -2.95101 -1.04329 0
M  V30 2883 C 273.022 -4.3916 -1.3001 0
M  V30 2884 N 274.513 -4.42536 -1.36806 0
M  V30 2885 C 275.248 -5.51097 -1.58364 0
M  V30 2886 N 274.744 -6.69724 -1.77317 0
M  V30 2887 N 276.537 -5.38657 -1.60638 0
M  V30 2888 H 268.688 -2.08116 0.424426 0
M  V30 2889 H 270.951 -0.939352 0.127759 0
M  V30 2890 H 270.657 -3.51499 -0.118929 0
M  V30 2891 H 270.531 -3.28493 -1.85397 0
M  V30 2892 H 272.918 -2.29309 -1.85745 0
M  V30 2893 H 272.999 -2.55566 -0.109505 0
M  V30 2894 H 272.643 -5.05521 -0.490991 0
M  V30 2895 H 272.573 -4.76258 -2.24691 0
M  V30 2896 H 275.064 -3.57039 -1.23821 0
M  V30 2897 H 275.377 -7.48233 -1.93306 0
M  V30 2898 H 273.722 -6.72732 -1.74518 0
M  V30 2899 H 276.913 -4.44948 -1.45391 0
M  V30 2900 H 277.086 -6.2333 -1.77098 0
M  V30 2901 N 270.492 0.636531 -1.44174 0
M  V30 2902 C 271.455 1.73063 -1.50273 0
M  V30 2903 C 272.455 1.56113 -0.385397 0
M  V30 2904 O 273.645 1.61707 -0.64781 0
M  V30 2905 C 270.777 3.12096 -1.37145 0
M  V30 2906 H 271.97 1.69031 -2.47727 0
M  V30 2907 H 269.523 0.849706 -1.31186 0
M  V30 2908 H 270.258 3.21728 -0.407636 0
M  V30 2909 H 270.043 3.25805 -2.18159 0
M  V30 2910 H 271.533 3.91846 -1.44382 0
M  V30 2911 N 271.97 1.30982 0.876444 0
M  V30 2912 C 272.9 1.20668 1.99903 0
M  V30 2913 C 273.881 0.095354 1.69833 0
M  V30 2914 O 275.066 0.27885 1.92188 0
M  V30 2915 C 272.196 0.90655 3.3526 0
M  V30 2916 C 271.15 1.97675 3.79617 0
M  V30 2917 C 270.476 1.52943 5.1236 0
M  V30 2918 C 271.776 3.389 3.97422 0
M  V30 2919 H 273.47 2.14586 2.0879 0
M  V30 2920 H 271.016 1.03308 1.00317 0
M  V30 2921 H 272.969 0.821025 4.13324 0
M  V30 2922 H 271.693 -0.0682969 3.26529 0
M  V30 2923 H 270.352 2.05205 3.03787 0
M  V30 2924 H 270 0.54262 5.00065 0
M  V30 2925 H 269.7 2.24532 5.43009 0
M  V30 2926 H 271.224 1.45786 5.92941 0
M  V30 2927 H 272.638 3.34081 4.659 0
M  V30 2928 H 271.035 4.0865 4.3946 0
M  V30 2929 H 272.105 3.80163 3.01006 0
M  V30 2930 N 273.449 -1.08991 1.13837 0
M  V30 2931 C 274.359 -2.19301 0.833333 0
M  V30 2932 C 275.375 -1.73026 -0.183847 0
M  V30 2933 O 276.551 -2.01395 -0.0138092 0
M  V30 2934 C 273.616 -3.45323 0.308651 0
M  V30 2935 C 272.677 -4.06255 1.38764 0
M  V30 2936 C 271.91 -5.26262 0.887896 0
M  V30 2937 O 272.133 -5.69747 -0.27287 0
M  V30 2938 O 271.067 -5.78435 1.66421 0
M  V30 2939 H 274.893 -2.47854 1.75506 0
M  V30 2940 H 272.478 -1.18012 0.916166 0
M  V30 2941 H 274.36 -4.21394 0.0216739 0
M  V30 2942 H 273.035 -3.18362 -0.585431 0
M  V30 2943 H 271.942 -3.318 1.72799 0
M  V30 2944 H 273.275 -4.37452 2.25602 0
M  V30 2945 N 274.927 -0.932562 -1.27047 0
M  V30 2946 C 276.175 -0.574422 -1.93765 0
M  V30 2947 C 276.496 0.887993 -1.73608 0
M  V30 2948 O 275.766 1.62999 -1.08665 0
M  V30 2949 H 274.346 -0.209451 -0.717035 0
M  V30 2950 H 277.008 -1.18601 -1.5466 0
M  V30 2951 H 276.104 -0.784841 -3.02071 0
M  V30 2952 N 276.405 1.4127 -0.698611 0
M  V30 2953 C 277.821 1.55241 -0.370462 0
M  V30 2954 C 278.021 1.67351 1.12231 0
M  V30 2955 O 277.077 1.65363 1.90818 0
M  V30 2956 C 278.39 2.78997 -1.12165 0
M  V30 2957 C 279.938 2.92797 -1.1063 0
M  V30 2958 C 280.413 4.19445 -1.8393 0
M  V30 2959 N 281.904 4.26409 -1.80914 0
M  V30 2960 C 282.639 5.23271 -2.34467 0
M  V30 2961 N 282.135 6.26145 -2.96504 0
M  V30 2962 N 283.928 5.15232 -2.24706 0
M  V30 2963 H 276.079 1.31654 -1.66676 0
M  V30 2964 H 278.342 0.635393 -0.703548 0
M  V30 2965 H 278.048 2.76268 -2.17644 0
M  V30 2966 H 277.922 3.70606 -0.702209 0
M  V30 2967 H 280.309 2.95039 -0.0597713 0
M  V30 2968 H 280.39 2.02353 -1.56483 0
M  V30 2969 H 280.034 4.17964 -2.88563 0
M  V30 2970 H 279.964 5.08866 -1.35509 0
M  V30 2971 H 282.455 3.527 -1.35687 0
M  V30 2972 H 282.768 6.96451 -3.34927 0
M  V30 2973 H 281.113 6.26638 -3.00583 0
M  V30 2974 H 284.304 4.33789 -1.7591 0
M  V30 2975 H 284.477 5.90552 -2.66745 0
M  V30 2976 O 277.922 0.585593 1.50509 0
M  V30 2977 H 278.613 0.0911067 1.93486 0
M  V30 END ATOM
M  V30 BEGIN BOND
M  V30 END BOND
M  V30 END CTAB
M  END
$$$$
