drugbank_target|Q8IUZ5 5-phosphohydroxy-L-lysine phospho-lyase (DB00114; DB00160)
 OpenBabel12092120063D

  0  0  0     0  0            999 V3000
M  V30 BEGIN CTAB
M  V30 COUNTS 6964 7044 0 0 0
M  V30 BEGIN ATOM
M  V30 1 H -0.908 1.98254 -0.117106 0
M  V30 2 N 0 1.576 0 0
M  V30 3 C 0.933 2.03868 1.02534 0
M  V30 4 C 1.911 0.928543 1.3348 0
M  V30 5 O 3.095 1.19667 1.45644 0
M  V30 6 C 0.222 2.43627 2.35294 0
M  V30 7 C -0.732 3.65373 2.2001 0
M  V30 8 S 0.101 5.13292 1.52614 0
M  V30 9 C 1.257 5.56322 2.86805 0
M  V30 10 H 1.49 2.90518 0.631377 0
M  V30 11 H -0.977 1.52953 0.210867 0
M  V30 12 H 0.981 2.67203 3.11629 0
M  V30 13 H -0.358 1.57376 2.7183 0
M  V30 14 H -1.165 3.90944 3.18086 0
M  V30 15 H -1.563 3.418 1.51819 0
M  V30 16 H 0.729 5.58782 3.83104 0
M  V30 17 H 1.672 6.56266 2.65933 0
M  V30 18 H 2.08 4.83886 2.90714 0
M  V30 19 N 1.4781 -0.272755 1.55222 0
M  V30 20 C 2.4411 -1.32041 1.87344 0
M  V30 21 C 3.4411 -1.42342 0.74803 0
M  V30 22 O 4.6311 -1.41488 1.0162 0
M  V30 23 C 1.7631 -2.70173 2.07893 0
M  V30 24 H 2.9561 -1.04789 2.80997 0
M  V30 25 H 0.5091 -0.51083 1.47717 0
M  V30 26 H 1.2441 -3.02605 1.16622 0
M  V30 27 H 1.0291 -2.64082 2.89833 0
M  V30 28 H 2.5191 -3.45869 2.34017 0
M  V30 29 N 2.9562 -1.48159 -0.537278 0
M  V30 30 C 3.9192 -1.61665 -1.62472 0
M  V30 31 C 4.9192 -0.490395 -1.5314 0
M  V30 32 O 6.1092 -0.755998 -1.5694 0
M  V30 33 C 3.2412 -1.57997 -3.02076 0
M  V30 34 H 4.4342 -2.58621 -1.51839 0
M  V30 35 H 1.9872 -1.36647 -0.758771 0
M  V30 36 H 2.7222 -0.624913 -3.18222 0
M  V30 37 H 2.5072 -2.39755 -3.10258 0
M  V30 38 H 3.9972 -1.70627 -3.81151 0
M  V30 39 N 4.4343 0.785586 -1.36625 0
M  V30 40 C 5.7113 1.53198 -1.21613 0
M  V30 41 C 6.0913 2.10187 0.196113 0
M  V30 42 O 5.4393 1.94318 1.20219 0
M  V30 43 C 5.6493 2.62388 -2.30116 0
M  V30 44 C 6.9973 3.30167 -2.66974 0
M  V30 45 O 8.0213 2.72674 -2.29188 0
M  V30 46 O 6.8803 4.34077 -3.32023 0
M  V30 47 H 3.9743 0.677865 -0.473738 0
M  V30 48 H 6.5203 0.823739 -1.48367 0
M  V30 49 H 5.2923 2.18299 -3.24748 0
M  V30 50 H 4.9153 3.40827 -2.0475 0
M  V30 51 N 5.9124 1.20967 1.01018 0
M  V30 52 C 6.8444 0.922059 2.09835 0
M  V30 53 C 7.8574 -0.0927106 1.62536 0
M  V30 54 O 9.0464 0.139127 1.77957 0
M  V30 55 C 6.1464 0.362004 3.36961 0
M  V30 56 C 5.3194 1.42986 4.13369 0
M  V30 57 C 4.3784 0.879976 5.1879 0
M  V30 58 O 3.4044 1.56219 5.47343 0
M  V30 59 N 4.6064 -0.307396 5.79686 0
M  V30 60 H 7.3714 1.8588 2.35093 0
M  V30 61 H 4.9324 1.11422 1.1746 0
M  V30 62 H 6.9244 -0.0201474 4.04695 0
M  V30 63 H 5.4944 -0.479437 3.08902 0
M  V30 64 H 4.7144 1.98608 3.40512 0
M  V30 65 H 6.0024 2.14885 4.61196 0
M  V30 66 H 5.4004 -0.878796 5.58832 0
M  V30 67 H 3.9574 -0.631115 6.48737 0
M  V30 68 N 7.3905 -1.2043 1.01659 0
M  V30 69 C 8.8065 -1.41852 0.731442 0
M  V30 70 C 9.0065 -1.89358 -0.688898 0
M  V30 71 O 8.0625 -2.06247 -1.45666 0
M  V30 72 C 9.3755 -2.44019 1.75714 0
M  V30 73 C 10.9235 -2.57785 1.77527 0
M  V30 74 C 11.3985 -3.63194 2.79023 0
M  V30 75 N 12.8895 -3.70678 2.77763 0
M  V30 76 C 13.6245 -4.51897 3.52954 0
M  V30 77 N 13.1205 -5.36921 4.37821 0
M  V30 78 N 14.9135 -4.4643 3.41551 0
M  V30 79 H 7.0645 -0.879093 1.93354 0
M  V30 80 H 9.3275 -0.448425 0.835236 0
M  V30 81 H 9.0335 -2.1611 2.77469 0
M  V30 82 H 8.9075 -3.43007 1.56927 0
M  V30 83 H 11.2945 -2.85023 0.764569 0
M  V30 84 H 11.3755 -1.58992 2.00387 0
M  V30 85 H 11.0195 -3.36699 3.80258 0
M  V30 86 H 10.9495 -4.61609 2.53425 0
M  V30 87 H 13.4405 -3.09944 2.16201 0
M  V30 88 H 13.7535 -5.95981 4.91962 0
M  V30 89 H 12.0985 -5.36424 4.41899 0
M  V30 90 H 15.2895 -3.79042 2.74672 0
M  V30 91 H 15.4625 -5.09491 4.00404 0
M  V30 92 N 8.8686 -0.792821 -1.36206 0
M  V30 93 C 10.2796 -0.429513 -1.81692 0
M  V30 94 C 10.6306 1.04695 -1.65932 0
M  V30 95 O 9.7556 1.81256 -1.18218 0
M  V30 96 C 10.3506 -0.772831 -3.29868 0
M  V30 97 C 8.9096 -0.462307 -3.7355 0
M  V30 98 C 8.0566 -1.00569 -2.5842 0
M  V30 99 H 11.0076 -0.985672 -1.24379 0
M  V30 100 H 11.0286 -0.0651928 -3.80444 0
M  V30 101 H 10.5406 -1.84747 -3.41307 0
M  V30 102 H 8.6416 0.604158 -3.67669 0
M  V30 103 H 8.7546 -0.985299 -4.68859 0
M  V30 104 H 7.1186 -0.428734 -2.51066 0
M  V30 105 H 7.9016 -2.08616 -2.72643 0
M  V30 106 N 10.3467 1.47872 -0.545128 0
M  V30 107 C 11.2937 2.29849 0.2093 0
M  V30 108 C 12.2637 1.38313 0.919707 0
M  V30 109 O 13.4487 1.67277 0.917772 0
M  V30 110 C 10.5887 3.22019 1.24088 0
M  V30 111 C 9.7017 4.2864 0.537778 0
M  V30 112 C 8.8367 5.07973 1.5536 0
M  V30 113 C 7.8757 6.06381 0.8348 0
M  V30 114 N 7.0127 6.78717 1.79688 0
M  V30 115 H 11.8527 2.93845 -0.49591 0
M  V30 116 H 9.3897 1.44848 -0.256389 0
M  V30 117 H 11.3477 3.73868 1.85144 0
M  V30 118 H 9.9777 2.59914 1.91428 0
M  V30 119 H 9.0297 3.7994 -0.187046 0
M  V30 120 H 10.3417 4.98793 -0.0258907 0
M  V30 121 H 9.4957 5.63912 2.23803 0
M  V30 122 H 8.2347 4.37693 2.15118 0
M  V30 123 H 7.2397 5.49631 0.136388 0
M  V30 124 H 8.4647 6.78665 0.24313 0
M  V30 125 H 6.4107 6.11177 2.38326 0
M  V30 126 H 6.3277 7.44998 1.28505 0
M  V30 127 H 7.5957 7.39237 2.47282 0
M  V30 128 N 11.8248 0.280983 1.55075 0
M  V30 129 C 12.7878 -0.590896 2.21452 0
M  V30 130 C 13.7878 -1.07682 1.19421 0
M  V30 131 O 14.9778 -0.97605 1.44288 0
M  V30 132 C 12.1098 -1.81587 2.88511 0
M  V30 133 H 13.3028 -0.0112554 2.99898 0
M  V30 134 H 10.8558 0.0316438 1.56268 0
M  V30 135 H 11.5908 -2.43587 2.14093 0
M  V30 136 H 11.3758 -1.4753 3.63287 0
M  V30 137 H 12.8658 -2.43575 3.39206 0
M  V30 138 N 13.3029 -1.57598 0.00835791 0
M  V30 139 C 14.5799 -1.82172 -0.712235 0
M  V30 140 C 14.9599 -0.887873 -1.9152 0
M  V30 141 O 14.3079 0.06146 -2.28417 0
M  V30 142 C 14.5179 -3.30875 -1.11008 0
M  V30 143 C 15.8659 -3.96826 -1.51044 0
M  V30 144 O 16.8899 -3.35248 -1.20364 0
M  V30 145 O 15.7489 -5.05318 -2.08125 0
M  V30 146 H 12.8429 -0.750435 -0.347529 0
M  V30 147 H 15.3889 -1.69665 0.0344523 0
M  V30 148 H 14.1609 -3.90481 -0.252982 0
M  V30 149 H 13.7839 -3.48412 -1.9156 0
M  V30 150 N 14.781 0.264519 -1.55364 0
M  V30 151 C 16.009 1.013 -1.80405 0
M  V30 152 C 16.424 1.79618 -0.581622 0
M  V30 153 O 15.781 1.76879 0.449468 0
M  V30 154 C 15.832 1.96487 -3.03439 0
M  V30 155 O 15.553 1.21341 -4.20961 0
M  V30 156 C 17.054 2.83079 -3.41147 0
M  V30 157 H 14.274 0.298875 -0.600762 0
M  V30 158 H 16.818 0.292736 -2.02394 0
M  V30 159 H 14.973 2.63965 -2.83551 0
M  V30 160 H 15.387 1.85573 -4.90574 0
M  V30 161 H 16.861 3.4565 -4.30384 0
M  V30 162 H 17.338 3.53286 -2.60932 0
M  V30 163 H 17.944 2.2108 -3.63323 0
M  V30 164 N 16.2591 1.48442 0.529413 0
M  V30 165 C 17.1891 1.65902 1.64313 0
M  V30 166 C 18.1701 0.507897 1.6234 0
M  V30 167 O 19.3551 0.740503 1.79528 0
M  V30 168 C 16.4851 1.69911 3.02898 0
M  V30 169 C 15.4391 2.8453 3.19729 0
M  V30 170 C 14.7651 2.73629 4.59381 0
M  V30 171 C 16.0651 4.25821 3.02447 0
M  V30 172 H 17.7591 2.5914 1.49955 0
M  V30 173 H 15.3051 1.24709 0.719982 0
M  V30 174 H 17.2581 1.80715 3.80684 0
M  V30 175 H 15.9821 0.732524 3.18279 0
M  V30 176 H 14.6411 2.73283 2.44361 0
M  V30 177 H 14.2891 1.74938 4.71599 0
M  V30 178 H 13.9891 3.50541 4.71588 0
M  V30 179 H 15.5131 2.86401 5.39265 0
M  V30 180 H 16.9271 4.37898 3.70024 0
M  V30 181 H 15.3241 5.03735 3.26146 0
M  V30 182 H 16.3941 4.42244 1.98867 0
M  V30 183 N 17.7372 -0.778329 1.37039 0
M  V30 184 C 18.7002 -1.87301 1.32102 0
M  V30 185 C 19.7002 -1.59198 0.226405 0
M  V30 186 O 20.8902 -1.67403 0.481861 0
M  V30 187 C 18.0222 -3.24309 1.05055 0
M  V30 188 H 19.2152 -1.93093 2.29467 0
M  V30 189 H 16.7682 -0.977358 1.21973 0
M  V30 190 H 17.5032 -3.24196 0.0819373 0
M  V30 191 H 17.2882 -3.46098 1.84279 0
M  V30 192 H 18.7782 -4.04382 1.04234 0
M  V30 193 N 19.2153 -1.21501 -1.00376 0
M  V30 194 C 20.1453 -0.999478 -2.11028 0
M  V30 195 C 21.1263 0.0759671 -1.6993 0
M  V30 196 O 22.3113 -0.0841106 -1.94018 0
M  V30 197 C 19.4413 -0.564709 -3.42678 0
M  V30 198 C 18.3953 -1.58486 -3.97576 0
M  V30 199 C 17.7213 -1.00628 -5.25146 0
M  V30 200 C 19.0213 -2.97204 -4.29496 0
M  V30 201 H 20.7153 -1.92495 -2.29317 0
M  V30 202 H 18.2613 -0.92693 -1.102 0
M  V30 203 H 20.2143 -0.401091 -4.19487 0
M  V30 204 H 18.9383 0.396411 -3.24185 0
M  V30 205 H 17.5973 -1.73606 -3.22888 0
M  V30 206 H 17.2453 -0.0368439 -5.02987 0
M  V30 207 H 16.9453 -1.68771 -5.62841 0
M  V30 208 H 18.4693 -0.854015 -6.04598 0
M  V30 209 H 19.8833 -2.8552 -4.97143 0
M  V30 210 H 18.2803 -3.62372 -4.78338 0
M  V30 211 H 19.3503 -3.47956 -3.3772 0
M  V30 212 N 20.6934 1.19889 -1.02296 0
M  V30 213 C 22.1094 1.41462 -0.738954 0
M  V30 214 C 22.3094 1.89721 0.678846 0
M  V30 215 O 21.3654 2.07016 1.4457 0
M  V30 216 C 22.6784 2.43083 -1.77005 0
M  V30 217 C 24.2264 2.5684 -1.78892 0
M  V30 218 C 24.7014 3.61709 -2.80945 0
M  V30 219 N 26.1924 3.69199 -2.79725 0
M  V30 220 C 26.9274 4.50019 -3.55345 0
M  V30 221 N 26.4234 5.34592 -4.40662 0
M  V30 222 N 28.2164 4.44612 -3.43914 0
M  V30 223 H 20.3674 0.868827 -1.93817 0
M  V30 224 H 22.6304 0.44399 -0.837602 0
M  V30 225 H 22.3364 2.14636 -2.78612 0
M  V30 226 H 22.2104 3.4217 -1.58744 0
M  V30 227 H 24.5974 2.84614 -0.779674 0
M  V30 228 H 24.6784 1.57927 -2.01228 0
M  V30 229 H 24.3224 3.34678 -3.82038 0
M  V30 230 H 24.2524 4.60259 -2.5587 0
M  V30 231 H 26.7434 3.08794 -2.17842 0
M  V30 232 H 27.0564 5.93363 -4.95116 0
M  V30 233 H 25.4014 5.34073 -4.44737 0
M  V30 234 H 28.5924 3.7758 -2.76679 0
M  V30 235 H 28.7654 5.0736 -4.031 0
M  V30 236 N 22.1715 0.800033 1.35784 0
M  V30 237 C 23.1035 0.163596 2.28615 0
M  V30 238 C 24.1165 -0.633317 1.49976 0
M  V30 239 O 25.3055 -0.466754 1.72289 0
M  V30 240 C 22.4055 -0.790958 3.29541 0
M  V30 241 C 21.5785 -0.0418255 4.3738 0
M  V30 242 C 20.6375 -0.91389 5.18203 0
M  V30 243 O 19.6635 -0.367234 5.68014 0
M  V30 244 N 20.8655 -2.23682 5.35674 0
M  V30 245 H 23.6305 0.96105 2.83873 0
M  V30 246 H 21.1915 0.654894 1.48063 0
M  V30 247 H 23.1835 -1.37844 3.80501 0
M  V30 248 H 21.7535 -1.48925 2.74846 0
M  V30 249 H 20.9735 0.726813 3.87442 0
M  V30 250 H 22.2615 0.474719 5.06581 0
M  V30 251 H 21.6595 -2.70497 4.96838 0
M  V30 252 H 20.2165 -2.77369 5.89839 0
M  V30 253 N 23.6496 -1.47581 0.552962 0
M  V30 254 C 25.0656 -1.5818 0.212424 0
M  V30 255 C 25.2656 -1.55213 -1.28496 0
M  V30 256 O 24.3216 -1.45329 -2.06484 0
M  V30 257 C 25.6346 -2.88865 0.835318 0
M  V30 258 C 27.1826 -3.0244 0.806156 0
M  V30 259 C 27.6576 -4.35819 1.40804 0
M  V30 260 N 29.1486 -4.42444 1.37103 0
M  V30 261 C 29.8836 -5.44202 1.80641 0
M  V30 262 N 29.3796 -6.52795 2.32015 0
M  V30 263 N 31.1726 -5.35222 1.71738 0
M  V30 264 H 23.3236 -1.47753 1.52587 0
M  V30 265 H 25.5866 -0.702941 0.636064 0
M  V30 266 H 25.2926 -2.9676 1.88749 0
M  V30 267 H 25.1666 -3.7579 0.325848 0
M  V30 268 H 27.5536 -2.94144 -0.237317 0
M  V30 269 H 27.6346 -2.17068 1.35334 0
M  V30 270 H 27.2786 -4.44871 2.45056 0
M  V30 271 H 27.2086 -5.19916 0.836338 0
M  V30 272 H 29.6996 -3.6456 0.995202 0
M  V30 273 H 30.0126 -7.26609 2.63171 0
M  V30 274 H 28.3576 -6.53696 2.36023 0
M  V30 275 H 31.5486 -4.49284 1.31382 0
M  V30 276 H 31.7216 -6.14389 2.05987 0
M  V30 277 N 25.1277 -0.289203 -1.54924 0
M  V30 278 C 26.0577 0.58549 -2.2604 0
M  V30 279 C 27.0387 1.14753 -1.25562 0
M  V30 280 O 28.2237 1.17906 -1.54311 0
M  V30 281 C 25.3537 1.76305 -2.99222 0
M  V30 282 C 24.3077 1.33191 -4.06748 0
M  V30 283 C 23.6337 2.5937 -4.6758 0
M  V30 284 C 24.9337 0.471775 -5.20165 0
M  V30 285 H 26.6277 -0.00763532 -2.99399 0
M  V30 286 H 24.1737 -0.00511229 -1.43999 0
M  V30 287 H 26.1267 2.38097 -3.47689 0
M  V30 288 H 24.8507 2.38223 -2.23422 0
M  V30 289 H 23.5097 0.737121 -3.59113 0
M  V30 290 H 23.1577 3.19576 -3.88433 0
M  V30 291 H 22.8577 2.31228 -5.40192 0
M  V30 292 H 24.3817 3.21985 -5.18804 0
M  V30 293 H 25.7957 0.995056 -5.64599 0
M  V30 294 H 24.1927 0.284639 -5.99425 0
M  V30 295 H 25.2627 -0.506041 -4.82252 0
M  V30 296 N 26.6058 1.57591 -0.0167156 0
M  V30 297 C 27.8548 1.90461 0.663877 0
M  V30 298 C 28.1678 0.893515 1.73999 0
M  V30 299 O 29.3738 1.11302 2.47637 0
M  V30 300 C 27.8298 3.38155 1.23204 0
M  V30 301 C 27.4378 4.47597 0.189866 0
M  V30 302 C 29.1818 3.80111 1.88986 0
M  V30 303 C 27.0888 5.86379 0.768964 0
M  V30 304 H 26.0188 0.710738 0.251729 0
M  V30 305 H 28.6698 1.83326 -0.0799926 0
M  V30 306 H 27.0518 3.40182 2.02712 0
M  V30 307 H 28.2258 4.57112 -0.581846 0
M  V30 308 H 26.5408 4.14766 -0.368475 0
M  V30 309 H 29.1378 4.81145 2.33247 0
M  V30 310 H 29.4808 3.14511 2.72743 0
M  V30 311 H 30.0138 3.80454 1.16187 0
M  V30 312 H 26.7528 6.55493 -0.0301957 0
M  V30 313 H 26.2728 5.80496 1.50945 0
M  V30 314 H 27.9518 6.34563 1.26251 0
M  V30 315 N 28.0839 -0.256276 1.55502 0
M  V30 316 C 29.3089 -1.00766 1.81276 0
M  V30 317 C 29.7339 -1.78524 0.59252 0
M  V30 318 O 29.0919 -1.75413 -0.45827 0
M  V30 319 C 29.1399 -1.92869 3.04687 0
M  V30 320 O 28.2439 -3.019 2.80945 0
M  V30 321 H 27.5849 -0.287224 0.598664 0
M  V30 322 H 30.1149 -0.280109 2.02674 0
M  V30 323 H 30.1249 -2.34511 3.33869 0
M  V30 324 H 28.7999 -1.35689 3.93143 0
M  V30 325 H 27.3769 -2.64454 2.62904 0
M  V30 326 N 29.562 -1.4872 -0.521534 0
M  V30 327 C 30.787 -1.61101 -1.30618 0
M  V30 328 C 31.212 -0.274611 -1.86085 0
M  V30 329 O 30.57 0.754937 -1.64834 0
M  V30 330 C 30.618 -2.66709 -2.4269 0
M  V30 331 O 29.722 -2.24456 -3.45967 0
M  V30 332 H 29.063 -0.539921 -0.386499 0
M  V30 333 H 31.593 -1.94767 -0.626645 0
M  V30 334 H 31.603 -2.88245 -2.88754 0
M  V30 335 H 30.278 -3.63727 -2.01682 0
M  V30 336 H 28.855 -2.13168 -3.05964 0
M  V30 337 N 31.0401 0.771051 -1.3745 0
M  V30 338 C 32.2651 1.56529 -1.36065 0
M  V30 339 C 32.6901 1.88029 0.0515859 0
M  V30 340 O 32.0481 1.49282 1.02882 0
M  V30 341 C 32.0961 2.85187 -2.20683 0
M  V30 342 O 31.2001 3.79593 -1.61193 0
M  V30 343 H 30.5411 0.47411 -0.464883 0
M  V30 344 H 33.0711 0.954269 -1.80983 0
M  V30 345 H 33.0811 3.34283 -2.33921 0
M  V30 346 H 31.7561 2.61588 -3.23334 0
M  V30 347 H 30.3331 3.38239 -1.56999 0
M  V30 348 N 32.5182 1.22032 0.997298 0
M  V30 349 C 33.7582 1.05375 1.75144 0
M  V30 350 C 34.1222 -0.404696 1.87686 0
M  V30 351 O 35.3232 -0.691998 2.5974 0
M  V30 352 C 33.5942 1.74046 3.12158 0
M  V30 353 S 35.1532 1.72745 4.03366 0
M  V30 354 H 31.9712 0.377449 0.602539 0
M  V30 355 H 34.5732 1.54902 1.19272 0
M  V30 356 H 33.2772 2.79332 3.00669 0
M  V30 357 H 32.8082 1.24731 3.73103 0
M  V30 358 H 34.8232 0.774015 4.90126 0
M  V30 359 N 33.9963 -1.19345 1.0293 0
M  V30 360 C 35.4123 -1.41069 0.746446 0
M  V30 361 C 35.6123 -1.90078 -0.668776 0
M  V30 362 O 34.6683 -2.0778 -1.4347 0
M  V30 363 C 35.9813 -2.42141 1.78292 0
M  V30 364 C 37.5293 -2.55887 1.80252 0
M  V30 365 C 38.0043 -3.60214 2.8286 0
M  V30 366 N 39.4953 -3.67711 2.81679 0
M  V30 367 C 40.2303 -4.48128 3.57727 0
M  V30 368 N 39.7263 -5.32248 4.43491 0
M  V30 369 N 41.5193 -4.42782 3.46267 0
M  V30 370 H 33.6703 -0.858536 1.94275 0
M  V30 371 H 35.9333 -0.439541 0.839945 0
M  V30 372 H 35.6393 -2.13155 2.79746 0
M  V30 373 H 35.5133 -3.41323 1.60557 0
M  V30 374 H 37.9003 -2.84196 0.794757 0
M  V30 375 H 37.9813 -1.56858 2.02062 0
M  V30 376 H 37.6253 -3.32647 3.83807 0
M  V30 377 H 37.5553 -4.58895 2.58307 0
M  V30 378 H 40.0463 -3.07634 2.19476 0
M  V30 379 H 40.3593 -5.90729 4.98256 0
M  V30 380 H 38.7043 -5.31707 4.47564 0
M  V30 381 H 41.8953 -3.76107 2.78677 0
M  V30 382 H 42.0683 -5.05215 4.05785 0
M  V30 383 N 35.4744 -0.807222 -1.35358 0
M  V30 384 C 36.4044 -0.232509 -2.3234 0
M  V30 385 C 37.3854 0.642386 -1.57504 0
M  V30 386 O 38.5704 0.572526 -1.85569 0
M  V30 387 C 35.7004 0.619238 -3.41735 0
M  V30 388 C 34.6544 -0.157215 -4.27711 0
M  V30 389 C 33.9804 0.816273 -5.28433 0
M  V30 390 C 35.2804 -1.35656 -5.04376 0
M  V30 391 H 36.9744 -1.04276 -2.80654 0
M  V30 392 H 34.5204 -0.50288 -1.34934 0
M  V30 393 H 36.4734 1.03137 -4.08584 0
M  V30 394 H 35.1974 1.46239 -2.92031 0
M  V30 395 H 33.8564 -0.550525 -3.62443 0
M  V30 396 H 33.5044 1.65494 -4.74996 0
M  V30 397 H 33.2044 0.301067 -5.86828 0
M  V30 398 H 34.7284 1.22659 -5.98153 0
M  V30 399 H 36.1424 -1.01927 -5.64166 0
M  V30 400 H 34.5394 -1.8063 -5.7227 0
M  V30 401 H 35.6094 -2.14288 -4.34981 0
M  V30 402 N 36.9525 1.47285 -0.560781 0
M  V30 403 C 38.1995 2.02464 -0.038062 0
M  V30 404 C 38.5275 1.43474 1.31322 0
M  V30 405 O 37.7825 0.581311 1.86867 0
M  V30 406 C 38.0815 3.57258 0.100784 0
M  V30 407 C 37.7475 4.35184 -1.18007 0
M  V30 408 C 36.4095 4.56194 -1.53103 0
M  V30 409 C 38.7615 4.80098 -2.02867 0
M  V30 410 C 36.0895 5.19367 -2.729 0
M  V30 411 C 38.4415 5.44593 -3.21871 0
M  V30 412 C 37.1055 5.63835 -3.57276 0
M  V30 413 H 36.3755 0.740869 -0.0139279 0
M  V30 414 H 39.0225 1.76916 -0.733012 0
M  V30 415 H 37.3275 3.81819 0.878724 0
M  V30 416 H 39.0245 3.97606 0.520639 0
M  V30 417 H 35.6145 4.19113 -0.8968 0
M  V30 418 H 39.7985 4.63642 -1.7706 0
M  V30 419 H 35.0545 5.32459 -3.00496 0
M  V30 420 H 39.2285 5.78358 -3.87911 0
M  V30 421 H 36.8555 6.12557 -4.50197 0
M  V30 422 N 38.4306 0.297415 1.54768 0
M  V30 423 C 39.6776 -0.312913 2.00068 0
M  V30 424 C 40.0056 -1.54171 1.18582 0
M  V30 425 O 39.2606 -1.94108 0.249133 0
M  V30 426 C 39.5596 -0.717561 3.50123 0
M  V30 427 C 39.2256 0.409095 4.4904 0
M  V30 428 C 37.8876 0.718399 4.75807 0
M  V30 429 C 40.2396 1.16717 5.07963 0
M  V30 430 C 37.5676 1.78896 5.5876 0
M  V30 431 C 39.9196 2.22762 5.92081 0
M  V30 432 C 38.5836 2.54303 6.1716 0
M  V30 433 H 37.8536 -0.114503 0.7321 0
M  V30 434 H 40.5006 0.415767 1.86932 0
M  V30 435 H 38.8056 -1.52627 3.60849 0
M  V30 436 H 40.5026 -1.20091 3.82595 0
M  V30 437 H 37.0926 0.157918 4.28309 0
M  V30 438 H 41.2766 0.941466 4.87289 0
M  V30 439 H 36.5326 2.0381 5.7643 0
M  V30 440 H 40.7066 2.81962 6.36765 0
M  V30 441 H 38.3336 3.3739 6.81229 0
M  V30 442 N 39.9087 -1.5758 0.0250728 0
M  V30 443 C 41.3197 -1.79476 -0.514323 0
M  V30 444 C 41.6707 -0.934956 -1.72491 0
M  V30 445 O 40.7957 -0.144245 -2.15919 0
M  V30 446 C 41.3907 -3.25503 -0.939842 0
M  V30 447 C 39.9497 -3.48408 -1.42438 0
M  V30 448 C 39.0967 -2.74583 -0.387201 0
M  V30 449 H 42.0477 -1.567 0.25113 0
M  V30 450 H 42.0687 -3.34992 -1.80445 0
M  V30 451 H 41.5807 -3.88056 -0.0585628 0
M  V30 452 H 39.6817 -2.91103 -2.32572 0
M  V30 453 H 39.7947 -4.57119 -1.43455 0
M  V30 454 H 38.1587 -2.39942 -0.854409 0
M  V30 455 H 38.9417 -3.39849 0.485543 0
M  V30 456 N 41.3868 0.248026 -1.55636 0
M  V30 457 C 42.2968 1.32859 -1.93354 0
M  V30 458 C 43.3128 1.52719 -0.833838 0
M  V30 459 O 44.4888 1.66363 -1.13513 0
M  V30 460 C 41.5538 2.66337 -2.21958 0
M  V30 461 C 40.6148 2.55008 -3.45354 0
M  V30 462 C 39.8478 3.82121 -3.72584 0
M  V30 463 O 40.0708 4.83951 -3.01907 0
M  V30 464 O 39.0048 3.80822 -4.6611 0
M  V30 465 H 42.8308 1.03862 -2.85388 0
M  V30 466 H 40.4158 0.448686 -1.42503 0
M  V30 467 H 42.2978 3.45216 -2.4167 0
M  V30 468 H 40.9728 2.95068 -1.33103 0
M  V30 469 H 39.8798 1.7442 -3.30951 0
M  V30 470 H 41.2128 2.31222 -4.34508 0
M  V30 471 N 42.8649 1.48995 0.513639 0
M  V30 472 C 44.1419 1.48338 1.27495 0
M  V30 473 C 44.5219 0.204065 2.10111 0
M  V30 474 O 43.8699 -0.813881 2.13514 0
M  V30 475 C 44.0799 2.75498 2.14247 0
M  V30 476 C 45.4279 3.24484 2.73852 0
M  V30 477 O 46.4519 2.76528 2.24523 0
M  V30 478 O 45.3109 4.07974 3.6362 0
M  V30 479 H 42.4049 0.593149 0.576284 0
M  V30 480 H 44.9509 1.61246 0.528948 0
M  V30 481 H 43.7229 3.60109 1.53092 0
M  V30 482 H 43.3459 2.6539 2.96064 0
M  V30 483 N 44.343 -0.763751 1.37857 0
M  V30 484 C 45.754 -1.3405 1.29952 0
M  V30 485 C 46.105 -1.96138 -0.0492898 0
M  V30 486 O 45.23 -1.94372 -0.951239 0
M  V30 487 C 45.825 -2.43729 2.35333 0
M  V30 488 C 44.384 -2.97151 2.31037 0
M  V30 489 C 43.531 -1.70438 2.18738 0
M  V30 490 H 46.482 -0.563396 1.48363 0
M  V30 491 H 46.503 -3.23412 2.00462 0
M  V30 492 H 46.015 -1.9851 3.33489 0
M  V30 493 H 44.116 -3.46724 1.3643 0
M  V30 494 H 44.229 -3.52221 3.24772 0
M  V30 495 H 42.593 -1.93673 1.65418 0
M  V30 496 H 43.376 -1.27312 3.18821 0
M  V30 497 N 45.8211 -1.22559 -0.990812 0
M  V30 498 C 47.0671 -1.05297 -1.73322 0
M  V30 499 C 47.4001 0.410655 -1.89808 0
M  V30 500 O 46.6751 1.30439 -1.44277 0
M  V30 501 C 46.9581 -1.76713 -3.13759 0
M  V30 502 C 46.8111 -3.30684 -3.04907 0
M  V30 503 C 48.1301 -1.52121 -4.12974 0
M  V30 504 H 45.2491 -0.38392 -0.629106 0
M  V30 505 H 47.8911 -1.50926 -1.15418 0
M  V30 506 H 46.0411 -1.37924 -3.63193 0
M  V30 507 H 47.7131 -3.7893 -2.63077 0
M  V30 508 H 45.9561 -3.60253 -2.41661 0
M  V30 509 H 46.6271 -3.75833 -4.04294 0
M  V30 510 H 49.1031 -1.85819 -3.72304 0
M  V30 511 H 47.9791 -2.04582 -5.0935 0
M  V30 512 H 48.2401 -0.454257 -4.3976 0
M  V30 513 N 47.2992 1.18797 -1.03562 0
M  V30 514 C 48.2462 2.22253 -0.622259 0
M  V30 515 C 49.2162 1.61987 0.36736 0
M  V30 516 O 50.4012 1.88986 0.262492 0
M  V30 517 C 47.5412 3.45097 0.0138462 0
M  V30 518 C 46.6542 4.19722 -1.02263 0
M  V30 519 C 45.7892 5.30009 -0.355573 0
M  V30 520 C 44.8282 5.96399 -1.37749 0
M  V30 521 N 43.9652 6.98234 -0.735766 0
M  V30 522 H 48.8052 2.56968 -1.50903 0
M  V30 523 H 46.3422 1.26245 -0.755017 0
M  V30 524 H 48.3002 4.15279 0.399948 0
M  V30 525 H 46.9302 3.11018 0.864158 0
M  V30 526 H 45.9822 3.48418 -1.52673 0
M  V30 527 H 47.2942 4.65227 -1.79903 0
M  V30 528 H 46.4482 6.0664 0.0850095 0
M  V30 529 H 45.1872 4.85592 0.452967 0
M  V30 530 H 44.1922 5.18512 -1.82826 0
M  V30 531 H 45.4172 6.42899 -2.18764 0
M  V30 532 H 43.3632 6.55979 0.0525597 0
M  V30 533 H 43.2802 7.41965 -1.44995 0
M  V30 534 H 44.5482 7.78845 -0.31941 0
M  V30 535 N 48.7773 0.814389 1.34928 0
M  V30 536 C 50.0263 0.394871 1.97797 0
M  V30 537 C 50.3393 -1.04555 1.65311 0
M  V30 538 O 51.5453 -1.56856 2.21604 0
M  V30 539 C 50.0013 0.655103 3.53888 0
M  V30 540 C 49.6093 2.10858 3.95276 0
M  V30 541 C 51.3533 0.301329 4.23429 0
M  V30 542 C 49.2603 2.31415 5.44244 0
M  V30 543 H 48.1903 0.143913 0.740139 0
M  V30 544 H 50.8413 0.999544 1.53888 0
M  V30 545 H 49.2233 -0.0196253 3.95995 0
M  V30 546 H 50.3973 2.82176 3.64298 0
M  V30 547 H 48.7123 2.42297 3.38646 0
M  V30 548 H 51.3093 0.432869 5.32945 0
M  V30 549 H 51.6523 -0.75331 4.09428 0
M  V30 550 H 52.1853 0.930288 3.86769 0
M  V30 551 H 48.9243 3.35353 5.63222 0
M  V30 552 H 48.4443 1.6463 5.76764 0
M  V30 553 H 50.1233 2.13352 6.10811 0
M  V30 554 N 50.2554 -1.46986 0.568584 0
M  V30 555 C 51.5014 -2.02741 0.0488709 0
M  V30 556 C 51.8344 -1.44077 -1.30214 0
M  V30 557 O 51.1094 -0.600552 -1.84996 0
M  V30 558 C 51.3924 -3.60086 -0.032047 0
M  V30 559 C 51.2454 -4.29162 1.34686 0
M  V30 560 C 52.5644 -4.33838 -0.739798 0
M  V30 561 H 49.6834 -0.736749 0.0192338 0
M  V30 562 H 52.3254 -1.75289 0.733065 0
M  V30 563 H 50.4754 -3.83606 -0.61473 0
M  V30 564 H 52.1474 -4.16948 1.97362 0
M  V30 565 H 50.3904 -3.89073 1.91846 0
M  V30 566 H 51.0614 -5.37826 1.24285 0
M  V30 567 H 53.5374 -4.15378 -0.244939 0
M  V30 568 H 52.4134 -5.43537 -0.765406 0
M  V30 569 H 52.6744 -4.03875 -1.79827 0
M  V30 570 N 51.7335 -0.305618 -1.54608 0
M  V30 571 C 53.1495 0.0476228 -1.59529 0
M  V30 572 C 53.3495 1.52025 -1.32252 0
M  V30 573 O 52.4055 2.27368 -1.09818 0
M  V30 574 C 53.7185 -0.354471 -2.98603 0
M  V30 575 C 55.2665 -0.303622 -3.11524 0
M  V30 576 C 55.7415 -0.680608 -4.52915 0
M  V30 577 N 57.2325 -0.63332 -4.5885 0
M  V30 578 C 57.9675 -0.897432 -5.66334 0
M  V30 579 N 57.4635 -1.22775 -6.81834 0
M  V30 580 N 59.2565 -0.824186 -5.56025 0
M  V30 581 H 51.4075 -1.2653 -1.70599 0
M  V30 582 H 53.6705 -0.513291 -0.797017 0
M  V30 583 H 53.3765 -1.3798 -3.23503 0
M  V30 584 H 53.2505 0.289568 -3.76087 0
M  V30 585 H 55.6375 0.712472 -2.8637 0
M  V30 586 H 55.7185 -0.982348 -2.36185 0
M  V30 587 H 55.3625 -1.69453 -4.78799 0
M  V30 588 H 55.2925 0.0202385 -5.26596 0
M  V30 589 H 57.7835 -0.389138 -3.75891 0
M  V30 590 H 58.0965 -1.41513 -7.59733 0
M  V30 591 H 56.4415 -1.26583 -6.83375 0
M  V30 592 H 59.6325 -0.565748 -4.64669 0
M  V30 593 H 59.8055 -1.03338 -6.39707 0
M  V30 594 N 53.2116 1.57565 -0.0334293 0
M  V30 595 C 54.1746 2.09393 0.932048 0
M  V30 596 C 55.1746 1.00986 1.25134 0
M  V30 597 O 56.3646 1.27129 1.19096 0
M  V30 598 C 53.4966 2.56338 2.2473 0
M  V30 599 H 54.6896 2.95984 0.483085 0
M  V30 600 H 52.2426 1.54819 0.21468 0
M  V30 601 H 52.9776 1.7309 2.74245 0
M  V30 602 H 52.7626 3.35542 2.02865 0
M  V30 603 H 54.2526 2.96646 2.93923 0
M  V30 604 N 54.6897 -0.239769 1.55765 0
M  V30 605 C 55.6217 -1.32001 1.87372 0
M  V30 606 C 56.6347 -1.43944 0.760522 0
M  V30 607 O 57.8237 -1.45167 1.0387 0
M  V30 608 C 54.9237 -2.69779 2.05115 0
M  V30 609 C 54.0967 -2.80014 3.36022 0
M  V30 610 C 53.1557 -3.98684 3.4342 0
M  V30 611 O 52.1817 -3.87877 4.16582 0
M  V30 612 N 53.3837 -5.12176 2.73232 0
M  V30 613 H 56.1487 -1.0522 2.80622 0
M  V30 614 H 53.7097 -0.429857 1.56089 0
M  V30 615 H 55.7017 -3.47517 2.07399 0
M  V30 616 H 54.2717 -2.89237 1.18577 0
M  V30 617 H 53.4917 -1.88896 3.45994 0
M  V30 618 H 54.7797 -2.83808 4.22292 0
M  V30 619 H 54.1777 -5.2385 2.13536 0
M  V30 620 H 52.7347 -5.88022 2.81199 0
M  V30 621 N 56.1678 -1.49265 -0.50573 0
M  V30 622 C 57.4158 -1.582 -1.25766 0
M  V30 623 C 57.7368 -0.268482 -1.93143 0
M  V30 624 O 57.0068 0.711833 -1.8251 0
M  V30 625 H 55.5868 -0.582873 -0.467191 0
M  V30 626 H 58.2488 -1.85865 -0.586525 0
M  V30 627 H 57.3448 -2.37563 -2.02412 0
M  V30 628 N 57.6459 0.756429 -1.3826 0
M  V30 629 C 58.5779 1.87971 -1.31147 0
M  V30 630 C 59.5909 1.61248 -0.224239 0
M  V30 631 O 60.7799 1.71881 -0.481581 0
M  V30 632 C 57.8799 3.23545 -1.00857 0
M  V30 633 C 57.0529 3.77794 -2.20432 0
M  V30 634 C 56.1119 4.91877 -1.86931 0
M  V30 635 O 55.1379 5.06659 -2.59395 0
M  V30 636 N 56.3399 5.74643 -0.822568 0
M  V30 637 H 59.1049 1.94585 -2.2794 0
M  V30 638 H 56.6659 0.936234 -1.32084 0
M  V30 639 H 58.6579 3.97403 -0.765021 0
M  V30 640 H 57.2279 3.12335 -0.128687 0
M  V30 641 H 56.4479 2.95534 -2.6087 0
M  V30 642 H 57.7359 4.10771 -3.00241 0
M  V30 643 H 57.1339 5.65266 -0.221575 0
M  V30 644 H 55.6909 6.48661 -0.638899 0
M  V30 645 N 59.124 1.23083 0.984299 0
M  V30 646 C 60.354 1.08556 1.75781 0
M  V30 647 C 60.762 -0.366171 1.85623 0
M  V30 648 O 60.105 -1.26524 1.33182 0
M  V30 649 C 60.167 1.63208 3.20318 0
M  V30 650 C 59.831 3.11922 3.33997 0
M  V30 651 C 60.828 4.09259 3.2063 0
M  V30 652 C 58.513 3.51552 3.58771 0
M  V30 653 C 60.507 5.4421 3.31835 0
M  V30 654 C 58.194 4.86649 3.69616 0
M  V30 655 C 59.192 5.82787 3.56157 0
M  V30 656 O 58.88 7.15431 3.66626 0
M  V30 657 H 58.612 0.380713 0.5586 0
M  V30 658 H 61.166 1.63321 1.2456 0
M  V30 659 H 59.396 1.0286 3.72769 0
M  V30 660 H 61.085 1.44216 3.79416 0
M  V30 661 H 61.851 3.79984 3.01392 0
M  V30 662 H 57.73 2.77239 3.6832 0
M  V30 663 H 61.274 6.1923 3.21247 0
M  V30 664 H 57.171 5.15601 3.88363 0
M  V30 665 H 57.939 7.23127 3.83445 0
M  V30 666 N 60.6021 -1.18246 1.0419 0
M  V30 667 C 61.5351 -2.20746 0.578474 0
M  V30 668 C 62.5131 -1.57912 -0.387624 0
M  V30 669 O 63.6971 -1.86071 -0.301634 0
M  V30 670 C 60.8241 -3.38346 -0.154762 0
M  V30 671 C 59.8701 -4.19587 0.764782 0
M  V30 672 S 60.7031 -4.86014 2.24835 0
M  V30 673 C 61.8591 -6.07012 1.526 0
M  V30 674 H 62.0921 -2.59715 1.44691 0
M  V30 675 H 59.6251 -1.287 0.85297 0
M  V30 676 H 61.5831 -4.065 -0.571641 0
M  V30 677 H 60.2441 -2.97786 -0.999105 0
M  V30 678 H 59.4371 -5.03611 0.197976 0
M  V30 679 H 59.0391 -3.56818 1.12057 0
M  V30 680 H 61.3311 -6.72523 0.819733 0
M  V30 681 H 62.2741 -6.68202 2.34333 0
M  V30 682 H 62.6821 -5.55249 1.01779 0
M  V30 683 N 62.0802 -0.821533 -1.34494 0
M  V30 684 C 63.3102 -0.421272 -2.02259 0
M  V30 685 C 63.7182 0.977047 -1.6202 0
M  V30 686 O 63.0612 1.64348 -0.820703 0
M  V30 687 C 63.1232 -0.44231 -3.56769 0
M  V30 688 C 62.7872 -1.79372 -4.20327 0
M  V30 689 C 63.7842 -2.75435 -4.40944 0
M  V30 690 C 61.4692 -2.08182 -4.57127 0
M  V30 691 C 63.4632 -3.98482 -4.97484 0
M  V30 692 C 61.1502 -3.31489 -5.13379 0
M  V30 693 C 62.1482 -4.26457 -5.33501 0
M  V30 694 O 61.8362 -5.47585 -5.88562 0
M  V30 695 H 61.5682 -0.167473 -0.654927 0
M  V30 696 H 64.1222 -1.11073 -1.72777 0
M  V30 697 H 62.3522 0.303836 -3.85505 0
M  V30 698 H 64.0412 -0.0622925 -4.05852 0
M  V30 699 H 64.8072 -2.54473 -4.12878 0
M  V30 700 H 60.6862 -1.35066 -4.4077 0
M  V30 701 H 64.2302 -4.72618 -5.13106 0
M  V30 702 H 60.1272 -3.52316 -5.40873 0
M  V30 703 H 60.8952 -5.49086 -6.06998 0
M  V30 704 N 63.5583 1.46682 -0.576371 0
M  V30 705 C 64.8353 1.95599 0.00703437 0
M  V30 706 C 65.2153 1.51904 1.46589 0
M  V30 707 O 64.5633 0.766755 2.15251 0
M  V30 708 C 64.7733 3.4864 -0.158404 0
M  V30 709 C 66.1213 4.24594 -0.0229439 0
M  V30 710 O 67.1453 3.56094 -0.0869173 0
M  V30 711 O 66.0043 5.46373 0.118015 0
M  V30 712 H 63.0983 0.825275 0.053384 0
M  V30 713 H 65.6443 1.56996 -0.644244 0
M  V30 714 H 64.4163 3.7331 -1.17282 0
M  V30 715 H 64.0393 3.94057 0.5296 0
M  V30 716 N 65.0364 0.313813 1.54444 0
M  V30 717 C 65.9464 -0.565714 2.27677 0
M  V30 718 C 66.9624 -1.13754 1.31666 0
M  V30 719 O 68.1384 -1.15959 1.64668 0
M  V30 720 C 65.2034 -1.71528 3.01296 0
M  V30 721 C 64.2644 -1.17624 4.12872 0
M  V30 722 C 63.4974 -2.27102 4.8297 0
M  V30 723 O 63.7204 -3.47256 4.52514 0
M  V30 724 O 62.6544 -1.9307 5.70094 0
M  V30 725 H 66.4804 0.0287296 3.03686 0
M  V30 726 H 64.0654 0.0798312 1.49187 0
M  V30 727 H 65.9474 -2.38476 3.4743 0
M  V30 728 H 64.6224 -2.29608 2.2817 0
M  V30 729 H 63.5294 -0.472124 3.71109 0
M  V30 730 H 64.8624 -0.640695 4.88012 0
M  V30 731 N 66.5145 -1.57545 0.0417849 0
M  V30 732 C 67.4465 -2.07904 -0.964799 0
M  V30 733 C 68.4595 -1.00497 -1.28079 0
M  V30 734 O 69.6485 -1.28087 -1.24322 0
M  V30 735 C 66.7485 -2.49928 -2.28887 0
M  V30 736 C 65.9215 -3.80562 -2.15619 0
M  V30 737 C 64.9805 -4.08999 -3.31069 0
M  V30 738 O 64.0065 -4.79061 -3.0739 0
M  V30 739 N 65.2085 -3.6017 -4.55256 0
M  V30 740 H 67.9735 -2.94886 -0.535029 0
M  V30 741 H 65.5345 -1.61252 -0.144681 0
M  V30 742 H 67.5265 -2.66034 -3.04972 0
M  V30 743 H 66.0965 -1.68245 -2.63463 0
M  V30 744 H 65.3165 -3.74129 -1.24183 0
M  V30 745 H 66.6045 -4.66126 -2.03971 0
M  V30 746 H 66.0025 -3.03512 -4.77386 0
M  V30 747 H 64.5595 -3.81532 -5.28466 0
M  V30 748 N 67.9926 0.231505 -1.5589 0
M  V30 749 C 69.2406 0.955461 -1.78088 0
M  V30 750 C 69.5616 1.85262 -0.608533 0
M  V30 751 O 68.8316 1.92277 0.375035 0
M  V30 752 H 67.4116 0.355787 -0.656829 0
M  V30 753 H 70.0736 0.245751 -1.93344 0
M  V30 754 H 69.1696 1.56814 -2.69844 0
M  V30 755 N 69.4707 1.49531 0.497807 0
M  V30 756 C 70.4337 1.65916 1.58128 0
M  V30 757 C 71.4337 0.530825 1.51786 0
M  V30 758 O 72.6237 0.797342 1.54881 0
M  V30 759 C 69.7557 1.65951 2.9778 0
M  V30 760 H 70.9487 2.62556 1.44929 0
M  V30 761 H 68.5017 1.38611 0.722275 0
M  V30 762 H 69.2367 0.709065 3.16453 0
M  V30 763 H 69.0217 2.47897 3.03792 0
M  V30 764 H 70.5117 1.80673 3.76493 0
M  V30 765 N 70.9488 -0.749086 1.3866 0
M  V30 766 C 71.8588 -1.89358 1.38494 0
M  V30 767 C 72.8748 -1.71708 0.281476 0
M  V30 768 O 74.0508 -1.94554 0.520643 0
M  V30 769 C 71.1158 -3.24782 1.21316 0
M  V30 770 C 70.1768 -3.54926 2.41508 0
M  V30 771 C 69.4098 -4.83888 2.2514 0
M  V30 772 O 69.6328 -5.56592 1.24746 0
M  V30 773 O 68.5668 -5.13612 3.13826 0
M  V30 774 H 72.3928 -1.92452 2.34938 0
M  V30 775 H 69.9778 -0.894981 1.19626 0
M  V30 776 H 71.8598 -4.05739 1.13814 0
M  V30 777 H 70.5348 -3.2249 0.279592 0
M  V30 778 H 69.4418 -2.74112 2.54585 0
M  V30 779 H 70.7748 -3.61983 3.3351 0
M  V30 780 N 72.4269 -1.23603 -0.977757 0
M  V30 781 C 73.6569 -1.09487 -1.75203 0
M  V30 782 C 74.0649 0.356321 -1.85814 0
M  V30 783 O 73.4079 1.25816 -1.33851 0
M  V30 784 C 73.4699 -1.64905 -3.19447 0
M  V30 785 C 73.1339 -3.13688 -3.32338 0
M  V30 786 C 74.1309 -4.10953 -3.18455 0
M  V30 787 C 71.8159 -3.53449 -3.56902 0
M  V30 788 C 73.8099 -5.45962 -3.28944 0
M  V30 789 C 71.4969 -4.88602 -3.6703 0
M  V30 790 C 72.4949 -5.84668 -3.53062 0
M  V30 791 O 72.1829 -7.17365 -3.62826 0
M  V30 792 H 71.9149 -0.38367 -0.556573 0
M  V30 793 H 74.4689 -1.6398 -1.23693 0
M  V30 794 H 72.6989 -1.04835 -3.72218 0
M  V30 795 H 74.3879 -1.46226 -3.78646 0
M  V30 796 H 75.1539 -3.81577 -2.99372 0
M  V30 797 H 71.0329 -2.79188 -3.66844 0
M  V30 798 H 74.5769 -6.20925 -3.17958 0
M  V30 799 H 70.4739 -5.17653 -3.85623 0
M  V30 800 H 71.2419 -7.2515 -3.79605 0
M  V30 801 N 73.905 1.17692 -1.04816 0
M  V30 802 C 75.154 1.87192 -0.751132 0
M  V30 803 C 75.467 1.8169 0.724441 0
M  V30 804 O 76.673 2.46625 1.13527 0
M  V30 805 C 75.129 3.35857 -1.29338 0
M  V30 806 C 74.737 3.4987 -2.79812 0
M  V30 807 C 76.481 4.10709 -1.07322 0
M  V30 808 C 74.388 4.92536 -3.27356 0
M  V30 809 H 73.318 0.701162 -0.277288 0
M  V30 810 H 75.969 1.32932 -1.26496 0
M  V30 811 H 74.351 3.89631 -0.707376 0
M  V30 812 H 75.525 3.06332 -3.44235 0
M  V30 813 H 73.84 2.88433 -3.00325 0
M  V30 814 H 76.437 5.15952 -1.4035 0
M  V30 815 H 76.78 4.16299 -0.0108001 0
M  V30 816 H 77.313 3.6313 -1.62423 0
M  V30 817 H 74.052 4.92119 -4.33012 0
M  V30 818 H 73.572 5.3676 -2.67673 0
M  V30 819 H 75.251 5.61288 -3.21815 0
M  V30 820 N 75.3831 0.828654 1.34056 0
M  V30 821 C 76.6601 0.341809 1.9259 0
M  V30 822 C 77.0401 -1.17158 1.75605 0
M  V30 823 O 76.3881 -1.98132 1.13824 0
M  V30 824 C 76.5981 0.777453 3.4023 0
M  V30 825 C 77.9461 0.779579 4.17382 0
M  V30 826 O 78.9701 0.7204 3.48839 0
M  V30 827 O 77.8291 0.857996 5.39723 0
M  V30 828 H 74.9231 0.0946085 0.821571 0
M  V30 829 H 77.4691 0.913827 1.42994 0
M  V30 830 H 76.2411 1.8196 3.46419 0
M  V30 831 H 75.8641 0.181444 3.97186 0
M  V30 832 N 76.8612 -1.46375 0.584142 0
M  V30 833 C 78.1012 -2.0427 0.0729695 0
M  V30 834 C 78.4652 -1.44563 -1.26355 0
M  V30 835 O 79.6662 -1.93667 -1.86405 0
M  V30 836 C 77.9372 -3.57399 0.00967464 0
M  V30 837 S 79.4962 -4.36551 -0.443714 0
M  V30 838 H 76.3142 -0.709975 0.0381673 0
M  V30 839 H 78.9162 -1.79398 0.776962 0
M  V30 840 H 77.6202 -3.98372 0.986319 0
M  V30 841 H 77.1512 -3.8681 -0.717044 0
M  V30 842 H 79.1662 -4.66237 -1.69816 0
M  V30 843 N 78.3393 -0.321999 -1.54275 0
M  V30 844 C 79.5883 0.281931 -1.9972 0
M  V30 845 C 79.9013 1.53369 -1.21397 0
M  V30 846 O 81.1073 2.21352 -1.57211 0
M  V30 847 C 79.5633 0.5529 -3.55628 0
M  V30 848 C 79.1713 -0.681721 -4.42783 0
M  V30 849 C 80.9153 1.11687 -4.09544 0
M  V30 850 C 78.8223 -0.382742 -5.9016 0
M  V30 851 H 77.7523 0.109124 -0.746062 0
M  V30 852 H 80.4033 -0.43398 -1.78294 0
M  V30 853 H 78.7853 1.32896 -3.73035 0
M  V30 854 H 79.9593 -1.45723 -4.37151 0
M  V30 855 H 78.2743 -1.1658 -3.99748 0
M  V30 856 H 80.8713 1.35515 -5.17242 0
M  V30 857 H 81.2143 2.06575 -3.61431 0
M  V30 858 H 81.7473 0.402032 -3.95763 0
M  V30 859 H 78.4863 -1.30076 -6.42464 0
M  V30 860 H 78.0063 0.355094 -5.98748 0
M  V30 861 H 79.6853 0.00800157 -6.47 0
M  V30 862 N 79.8174 1.5752 -0.0501392 0
M  V30 863 C 81.0424 1.97376 0.636997 0
M  V30 864 C 81.4674 0.927466 1.63645 0
M  V30 865 O 80.8254 -0.10941 1.8097 0
M  V30 866 C 80.8734 3.36304 1.30123 0
M  V30 867 O 79.9774 3.34156 2.41689 0
M  V30 868 H 79.3184 0.642998 0.165679 0
M  V30 869 H 81.8484 2.04258 -0.118233 0
M  V30 870 H 81.8584 3.73008 1.65315 0
M  V30 871 H 80.5334 4.11993 0.568746 0
M  V30 872 H 79.1104 3.09196 2.08451 0
M  V30 873 N 81.2955 -0.223234 1.56011 0
M  V30 874 C 82.2435 -1.29627 1.93131 0
M  V30 875 C 83.2375 -1.48608 0.813146 0
M  V30 876 O 84.4435 -1.49802 0.997966 0
M  V30 877 H 80.8185 -0.434563 0.613726 0
M  V30 878 H 82.7895 -0.955995 2.82672 0
M  V30 879 C 81.5385 -2.63983 2.26292 0
M  V30 880 H 80.8615 -2.50185 3.11846 0
M  V30 881 H 82.3015 -3.3788 2.56151 0
M  V30 882 C 80.7605 -3.18866 1.08747 0
M  V30 883 O 81.2905 -4.00192 0.347727 0
M  V30 884 N 79.4965 -2.77217 0.871743 0
M  V30 885 H 79.0435 -2.1119 1.47501 0
M  V30 886 H 79.0015 -3.1428 0.0869905 0
M  V30 887 N 82.7736 -1.49793 -0.48987 0
M  V30 888 C 84.0196 -1.60078 -1.24511 0
M  V30 889 C 84.3526 -0.291608 -1.91998 0
M  V30 890 O 83.6276 0.705647 -1.81248 0
M  V30 891 C 83.9106 -2.76791 -2.30345 0
M  V30 892 C 83.7636 -4.17535 -1.67286 0
M  V30 893 C 85.0826 -2.89111 -3.31817 0
M  V30 894 H 82.2016 -0.582645 -0.451324 0
M  V30 895 H 84.8436 -1.82117 -0.541612 0
M  V30 896 H 82.9936 -2.5813 -2.90346 0
M  V30 897 H 84.6656 -4.4774 -1.11026 0
M  V30 898 H 82.9086 -4.22665 -0.976577 0
M  V30 899 H 83.5796 -4.95094 -2.44103 0
M  V30 900 H 86.0556 -3.06133 -2.81819 0
M  V30 901 H 84.9316 -3.72433 -4.03219 0
M  V30 902 H 85.1926 -1.9893 -3.94815 0
M  V30 903 N 84.2517 0.741722 -1.39055 0
M  V30 904 C 85.2147 1.83733 -1.37021 0
M  V30 905 C 86.2147 1.58542 -0.268534 0
M  V30 906 O 87.4047 1.66067 -0.526076 0
M  V30 907 C 84.5367 3.2141 -1.13617 0
M  V30 908 H 85.7297 1.86941 -2.34506 0
M  V30 909 H 83.2827 0.944676 -1.24521 0
M  V30 910 H 84.0177 3.23865 -0.167863 0
M  V30 911 H 83.8027 3.4109 -1.93391 0
M  V30 912 H 85.2927 4.01477 -1.14918 0
M  V30 913 N 85.7298 1.2412 0.971189 0
M  V30 914 C 86.6798 0.997551 2.05019 0
M  V30 915 C 87.6638 -0.0597747 1.60789 0
M  V30 916 O 88.8558 0.153516 1.76333 0
M  V30 917 C 85.9848 0.600557 3.38006 0
M  V30 918 C 85.0708 1.69377 3.88809 0
M  V30 919 N 85.4618 2.92586 4.12586 0
M  V30 920 C 83.7598 1.57048 4.17435 0
M  V30 921 C 84.4608 3.63431 4.54195 0
M  V30 922 N 83.4368 2.90979 4.59165 0
M  V30 923 H 87.2388 1.93316 2.21374 0
M  V30 924 H 84.7528 1.14194 1.1547 0
M  V30 925 H 86.7498 0.40725 4.14906 0
M  V30 926 H 85.4098 -0.327903 3.2304 0
M  V30 927 H 86.4208 3.288 4.00139 0
M  V30 928 H 83.0978 0.709798 4.11422 0
M  V30 929 H 84.4878 4.69102 4.81033 0
M  V30 930 N 87.2079 -1.17134 1.05439 0
M  V30 931 C 88.4539 -1.87733 0.767077 0
M  V30 932 C 88.7869 -1.8098 -0.704253 0
M  V30 933 O 88.0619 -1.21951 -1.5152 0
M  V30 934 C 88.3449 -3.37659 1.25133 0
M  V30 935 C 88.1979 -3.53149 2.78578 0
M  V30 936 C 89.5169 -4.31768 0.852324 0
M  V30 937 H 86.6359 -0.681687 0.280129 0
M  V30 938 H 89.2779 -1.37732 1.30881 0
M  V30 939 H 87.4279 -3.80373 0.790469 0
M  V30 940 H 89.0999 -3.19434 3.32806 0
M  V30 941 H 87.3429 -2.95345 3.17732 0
M  V30 942 H 88.0139 -4.58403 3.07523 0
M  V30 943 H 90.4899 -3.96909 1.24911 0
M  V30 944 H 89.3659 -5.35199 1.21873 0
M  V30 945 H 89.6269 -4.41429 -0.243485 0
M  V30 946 N 88.686 -0.835752 -1.33615 0
M  V30 947 C 89.934 -0.429109 -1.97492 0
M  V30 948 C 90.255 1.01433 -1.66543 0
M  V30 949 O 89.525 1.70611 -0.962744 0
M  V30 950 H 88.105 -0.155686 -0.730596 0
M  V30 951 H 90.767 -1.06802 -1.63031 0
M  V30 952 H 89.863 -0.55861 -3.0706 0
M  V30 953 N 90.1641 1.46063 -0.591896 0
M  V30 954 C 91.1141 2.27458 0.157172 0
M  V30 955 C 92.0981 1.3641 0.853301 0
M  V30 956 O 93.2901 1.60517 0.74588 0
M  V30 957 C 90.4191 3.22956 1.16423 0
M  V30 958 C 89.5051 4.2149 0.469742 0
M  V30 959 N 89.8961 5.03519 -0.479839 0
M  V30 960 C 88.1941 4.40161 0.719319 0
M  V30 961 C 88.8951 5.74904 -0.886591 0
M  V30 962 N 87.8711 5.43097 -0.233731 0
M  V30 963 H 91.6731 2.88272 -0.572392 0
M  V30 964 H 89.1871 1.57024 -0.414375 0
M  V30 965 H 91.1841 3.79986 1.71513 0
M  V30 966 H 89.8441 2.63701 1.89451 0
M  V30 967 H 90.8551 5.1078 -0.855823 0
M  V30 968 H 87.5321 3.92046 1.43548 0
M  V30 969 H 88.9221 6.50844 -1.66888 0
M  V30 970 N 91.6422 0.330177 1.54103 0
M  V30 971 C 92.8822 -0.270916 2.02597 0
M  V30 972 C 93.2462 -1.48826 1.21304 0
M  V30 973 O 94.4472 -2.16266 1.59633 0
M  V30 974 C 92.7182 -0.590328 3.52491 0
M  V30 975 S 94.2772 -1.17014 4.2291 0
M  V30 976 H 91.0952 -0.0815379 0.706309 0
M  V30 977 H 93.6972 0.464835 1.89893 0
M  V30 978 H 92.4012 0.303691 4.09275 0
M  V30 979 H 91.9322 -1.3561 3.69288 0
M  V30 980 H 93.9472 -2.45662 4.3112 0
M  V30 981 N 93.1203 -1.57491 0.0584922 0
M  V30 982 C 94.0703 -2.08474 -0.923188 0
M  V30 983 C 95.0543 -0.991479 -1.26722 0
M  V30 984 O 96.2463 -1.25473 -1.24842 0
M  V30 985 C 93.3753 -2.6392 -2.19548 0
M  V30 986 C 92.4613 -3.80227 -1.87852 0
M  V30 987 N 92.8523 -4.89714 -1.26546 0
M  V30 988 C 91.1503 -3.89271 -2.17679 0
M  V30 989 C 91.8513 -5.70689 -1.12644 0
M  V30 990 N 90.8273 -5.18531 -1.63176 0
M  V30 991 H 94.6293 -2.90517 -0.444653 0
M  V30 992 H 92.1433 -1.61745 -0.145764 0
M  V30 993 H 94.1403 -2.98752 -2.9078 0
M  V30 994 H 92.8003 -1.83318 -2.68001 0
M  V30 995 H 93.8113 -5.09358 -0.936757 0
M  V30 996 H 90.4883 -3.19623 -2.68602 0
M  V30 997 H 91.8783 -6.6875 -0.6499 0
M  V30 998 N 94.5984 0.214957 -1.56127 0
M  V30 999 C 96.0094 0.781386 -1.69562 0
M  V30 1000 C 96.3604 1.84707 -0.66165 0
M  V30 1001 O 95.4854 2.156 0.185927 0
M  V30 1002 C 96.0804 1.42411 -3.07416 0
M  V30 1003 C 94.6394 1.93786 -3.22683 0
M  V30 1004 C 93.7864 0.800438 -2.65496 0
M  V30 1005 H 96.7374 -0.00980633 -1.58697 0
M  V30 1006 H 96.7584 2.29309 -3.0364 0
M  V30 1007 H 96.2704 0.64826 -3.82648 0
M  V30 1008 H 94.3714 2.74152 -2.52332 0
M  V30 1009 H 94.4844 2.1133 -4.29973 0
M  V30 1010 H 92.8484 1.2095 -2.2415 0
M  V30 1011 H 93.6314 0.0371471 -3.4328 0
M  V30 1012 N 96.0765 1.50051 0.48192 0
M  V30 1013 C 97.0065 1.71046 1.58951 0
M  V30 1014 C 97.9875 0.559288 1.60642 0
M  V30 1015 O 99.1725 0.797243 1.77081 0
M  V30 1016 C 96.3025 1.79462 2.97339 0
M  V30 1017 C 95.2565 2.94558 3.10515 0
M  V30 1018 C 94.5825 2.88105 4.50444 0
M  V30 1019 C 95.8825 4.35227 2.88747 0
M  V30 1020 H 97.5765 2.6378 1.41635 0
M  V30 1021 H 95.1225 1.26936 0.679942 0
M  V30 1022 H 97.0755 1.92734 3.74742 0
M  V30 1023 H 95.7995 0.833412 3.15788 0
M  V30 1024 H 94.4585 2.80918 2.35543 0
M  V30 1025 H 94.1065 1.89853 4.65795 0
M  V30 1026 H 93.8065 3.65366 4.60197 0
M  V30 1027 H 95.3305 3.03412 5.29881 0
M  V30 1028 H 96.7445 4.49449 3.55905 0
M  V30 1029 H 95.1415 5.13856 3.09955 0
M  V30 1030 H 96.2115 4.48347 1.84696 0
M  V30 1031 N 97.5546 -0.734337 1.39446 0
M  V30 1032 C 98.8006 -1.49613 1.36908 0
M  V30 1033 C 99.1336 -1.94169 -0.0347829 0
M  V30 1034 O 98.4086 -1.66833 -0.999847 0
M  V30 1035 C 98.6916 -2.73534 2.34203 0
M  V30 1036 C 98.5446 -2.34993 3.83534 0
M  V30 1037 C 99.8636 -3.75635 2.29317 0
M  V30 1038 H 96.9826 -0.542714 0.498629 0
M  V30 1039 H 99.6246 -0.839597 1.70443 0
M  V30 1040 H 97.7746 -3.29553 2.05736 0
M  V30 1041 H 99.4466 -1.84601 4.22753 0
M  V30 1042 H 97.6896 -1.67213 4.00278 0
M  V30 1043 H 98.3606 -3.23738 4.47099 0
M  V30 1044 H 100.837 -3.29203 2.54489 0
M  V30 1045 H 99.7126 -4.60008 2.99472 0
M  V30 1046 H 99.9736 -4.22603 1.29842 0
M  V30 1047 N 99.0327 -1.24633 -0.964593 0
M  V30 1048 C 100.279 -1.08949 -1.71049 0
M  V30 1049 C 100.612 0.370302 -1.90637 0
M  V30 1050 O 99.8867 1.27349 -1.47011 0
M  V30 1051 C 100.17 -1.83329 -3.0994 0
M  V30 1052 C 100.023 -3.37077 -2.97824 0
M  V30 1053 C 101.342 -1.60846 -4.09654 0
M  V30 1054 H 98.4607 -0.397178 -0.620821 0
M  V30 1055 H 101.103 -1.5334 -1.12191 0
M  V30 1056 H 99.2527 -1.45597 -3.60186 0
M  V30 1057 H 100.925 -3.84425 -2.5498 0
M  V30 1058 H 99.1677 -3.65298 -2.33965 0
M  V30 1059 H 99.8387 -3.84324 -3.96231 0
M  V30 1060 H 102.315 -1.93674 -3.68279 0
M  V30 1061 H 101.191 -2.1534 -5.04896 0
M  V30 1062 H 101.452 -0.547434 -4.38698 0
M  V30 1063 N 100.511 1.16574 -1.06058 0
M  V30 1064 C 101.443 2.2045 -0.627239 0
M  V30 1065 C 102.456 1.59752 0.313534 0
M  V30 1066 O 103.645 1.78192 0.104896 0
M  V30 1067 C 100.745 3.3875 0.100974 0
M  V30 1068 C 99.9178 4.29008 -0.852687 0
M  V30 1069 C 98.9768 5.25944 -0.164152 0
M  V30 1070 O 98.0028 5.63535 -0.801047 0
M  V30 1071 N 99.2048 5.70075 1.09518 0
M  V30 1072 H 101.97 2.58249 -1.52077 0
M  V30 1073 H 99.5308 1.3156 -0.943594 0
M  V30 1074 H 101.523 4.00638 0.57194 0
M  V30 1075 H 100.093 2.99476 0.89628 0
M  V30 1076 H 99.3128 3.64419 -1.50308 0
M  V30 1077 H 100.601 4.86195 -1.49972 0
M  V30 1078 H 99.9988 5.41624 1.6328 0
M  V30 1079 H 98.5558 6.34067 1.51006 0
M  V30 1080 N 101.989 0.842826 1.3317 0
M  V30 1081 C 102.952 0.284065 2.27433 0
M  V30 1082 C 103.952 -0.54948 1.5112 0
M  V30 1083 O 105.142 -0.362699 1.70382 0
M  V30 1084 C 102.274 -0.599384 3.35589 0
M  V30 1085 H 103.467 1.11589 2.78366 0
M  V30 1086 H 101.02 0.616221 1.4364 0
M  V30 1087 H 101.755 -1.45349 2.89904 0
M  V30 1088 H 101.54 -0.00291266 3.921 0
M  V30 1089 H 103.03 -0.983488 4.05854 0
M  V30 1090 N 103.467 -1.45747 0.599634 0
M  V30 1091 C 104.43 -2.28917 -0.113835 0
M  V30 1092 C 105.43 -1.3933 -0.802729 0
M  V30 1093 O 106.62 -1.61534 -0.652103 0
M  V30 1094 C 103.752 -3.20152 -1.17114 0
M  V30 1095 H 104.945 -2.93478 0.617289 0
M  V30 1096 H 102.498 -1.52137 0.358327 0
M  V30 1097 H 103.233 -2.60374 -1.93329 0
M  V30 1098 H 103.018 -3.86133 -0.681468 0
M  V30 1099 H 104.508 -3.82708 -1.67105 0
M  V30 1100 N 104.945 -0.338344 -1.53925 0
M  V30 1101 C 105.895 0.536712 -2.21593 0
M  V30 1102 C 106.879 1.07015 -1.20153 0
M  V30 1103 O 108.071 1.00471 -1.45721 0
M  V30 1104 C 105.2 1.68977 -2.98834 0
M  V30 1105 C 104.286 1.17052 -4.07627 0
M  V30 1106 N 104.677 0.372085 -5.0443 0
M  V30 1107 C 102.975 1.44789 -4.21844 0
M  V30 1108 C 103.676 0.0909171 -5.81629 0
M  V30 1109 N 102.652 0.681131 -5.39316 0
M  V30 1110 H 106.454 -0.0804298 -2.9379 0
M  V30 1111 H 103.968 -0.144943 -1.61752 0
M  V30 1112 H 105.965 2.32857 -3.45808 0
M  V30 1113 H 104.625 2.31024 -2.28162 0
M  V30 1114 H 105.636 0.0136217 -5.17898 0
M  V30 1115 H 102.313 2.07313 -3.62391 0
M  V30 1116 H 103.703 -0.552817 -6.69622 0
M  V30 1117 N 106.423 1.57458 -0.0668435 0
M  V30 1118 C 107.333 2.15937 0.916975 0
M  V30 1119 C 108.349 1.12123 1.33058 0
M  V30 1120 O 109.525 1.44366 1.40429 0
M  V30 1121 C 106.59 2.70547 2.16807 0
M  V30 1122 C 105.651 3.89215 1.81135 0
M  V30 1123 C 104.884 4.41211 3.0028 0
M  V30 1124 O 105.107 3.92225 4.14144 0
M  V30 1125 O 104.041 5.32605 2.80384 0
M  V30 1126 H 107.867 3.00354 0.449561 0
M  V30 1127 H 105.452 1.48584 0.155949 0
M  V30 1128 H 107.334 3.0557 2.90181 0
M  V30 1129 H 106.009 1.89192 2.62656 0
M  V30 1130 H 104.916 3.59054 1.05028 0
M  V30 1131 H 106.249 4.71848 1.40073 0
M  V30 1132 N 107.901 -0.206675 1.56239 0
M  V30 1133 C 108.833 -1.27997 1.9013 0
M  V30 1134 C 109.846 -1.42299 0.790883 0
M  V30 1135 O 111.035 -1.42931 1.06925 0
M  V30 1136 C 108.135 -2.65368 2.10792 0
M  V30 1137 C 107.308 -2.72824 3.41886 0
M  V30 1138 C 106.367 -3.9131 3.51799 0
M  V30 1139 O 105.393 -3.78953 4.24716 0
M  V30 1140 N 106.595 -5.06265 2.84035 0
M  V30 1141 H 109.36 -0.992444 2.82791 0
M  V30 1142 H 106.921 -0.396652 1.56966 0
M  V30 1143 H 108.913 -3.43039 2.14724 0
M  V30 1144 H 107.483 -2.86657 1.24685 0
M  V30 1145 H 106.703 -1.81515 3.49923 0
M  V30 1146 H 107.991 -2.74786 4.28217 0
M  V30 1147 H 107.389 -5.19203 2.246 0
M  V30 1148 H 105.946 -5.81925 2.93609 0
M  V30 1149 N 109.379 -1.50304 -0.473955 0
M  V30 1150 C 110.327 -1.69482 -1.59307 0
M  V30 1151 C 111.321 -0.560669 -1.59853 0
M  V30 1152 O 112.527 -0.741087 -1.64036 0
M  V30 1153 H 108.902 -0.534892 -0.528578 0
M  V30 1154 H 110.873 -2.63364 -1.40293 0
M  V30 1155 C 109.622 -1.80354 -2.97267 0
M  V30 1156 H 108.945 -2.67012 -2.97564 0
M  V30 1157 H 110.385 -1.97798 -3.75036 0
M  V30 1158 C 108.844 -0.55448 -3.32306 0
M  V30 1159 O 109.374 0.307661 -4.0052 0
M  V30 1160 N 107.58 -0.409354 -2.87702 0
M  V30 1161 H 107.127 -1.11196 -2.32364 0
M  V30 1162 H 107.085 0.425223 -3.11511 0
M  V30 1163 N 110.857 0.726932 -1.39834 0
M  V30 1164 C 111.789 1.85147 -1.35104 0
M  V30 1165 C 112.802 1.60736 -0.258392 0
M  V30 1166 O 113.991 1.70821 -0.517931 0
M  V30 1167 C 111.091 3.21332 -1.07697 0
M  V30 1168 C 110.264 3.73033 -2.28396 0
M  V30 1169 C 109.323 4.87802 -1.97322 0
M  V30 1170 O 108.349 5.01043 -2.70083 0
M  V30 1171 N 109.551 5.72768 -0.944273 0
M  V30 1172 H 112.316 1.89706 -2.32017 0
M  V30 1173 H 109.877 0.908006 -1.3404 0
M  V30 1174 H 111.869 3.95691 -0.849144 0
M  V30 1175 H 110.439 3.11992 -0.194909 0
M  V30 1176 H 109.659 2.89934 -2.6708 0
M  V30 1177 H 110.947 4.0431 -3.08887 0
M  V30 1178 H 110.345 5.64669 -0.341427 0
M  V30 1179 H 108.902 6.4716 -0.776346 0
M  V30 1180 N 112.336 1.25143 0.95797 0
M  V30 1181 C 113.582 1.09855 1.70469 0
M  V30 1182 C 113.915 -0.360187 1.90831 0
M  V30 1183 O 113.19 -1.26568 1.47685 0
M  V30 1184 C 113.473 1.8497 3.08963 0
M  V30 1185 C 113.326 3.38652 2.96032 0
M  V30 1186 C 114.645 1.63016 4.08795 0
M  V30 1187 H 111.764 0.400465 0.618706 0
M  V30 1188 H 114.406 1.53933 1.11376 0
M  V30 1189 H 112.556 1.47505 3.59409 0
M  V30 1190 H 114.228 3.85772 2.52938 0
M  V30 1191 H 112.471 3.66534 2.32025 0
M  V30 1192 H 113.142 3.8642 3.94187 0
M  V30 1193 H 115.618 1.95625 3.67247 0
M  V30 1194 H 114.494 2.18015 5.03747 0
M  V30 1195 H 114.755 0.570692 4.38401 0
M  V30 1196 N 113.814 -1.1601 1.06675 0
M  V30 1197 C 114.744 -2.22688 0.702307 0
M  V30 1198 C 115.725 -1.67306 -0.307032 0
M  V30 1199 O 116.91 -1.93352 -0.181305 0
M  V30 1200 C 114.04 -3.47178 0.092038 0
M  V30 1201 C 112.994 -4.15477 1.02777 0
M  V30 1202 C 112.32 -5.33963 0.28061 0
M  V30 1203 C 113.62 -4.66019 2.35846 0
M  V30 1204 H 115.314 -2.53429 1.59419 0
M  V30 1205 H 112.86 -1.21813 0.767961 0
M  V30 1206 H 114.813 -4.21037 -0.174814 0
M  V30 1207 H 113.537 -3.15749 -0.834877 0
M  V30 1208 H 112.196 -3.43549 1.27944 0
M  V30 1209 H 111.844 -4.98788 -0.649545 0
M  V30 1210 H 111.544 -5.806 0.904258 0
M  V30 1211 H 113.068 -6.10596 0.021396 0
M  V30 1212 H 114.482 -5.3144 2.15045 0
M  V30 1213 H 112.879 -5.23293 2.93743 0
M  V30 1214 H 113.949 -3.82023 2.98641 0
M  V30 1215 N 115.292 -0.849877 -1.32721 0
M  V30 1216 C 116.24 -0.279745 -2.30912 0
M  V30 1217 C 117.234 0.594278 -1.58634 0
M  V30 1218 O 118.44 0.482613 -1.73409 0
M  V30 1219 H 114.815 -0.0717521 -0.748569 0
M  V30 1220 H 116.786 -1.12222 -2.76494 0
M  V30 1221 C 115.535 0.521108 -3.43773 0
M  V30 1222 H 114.858 -0.142141 -3.99547 0
M  V30 1223 H 116.298 0.885693 -4.14646 0
M  V30 1224 C 114.757 1.70442 -2.90605 0
M  V30 1225 O 115.287 2.8034 -2.87702 0
M  V30 1226 N 113.493 1.52991 -2.47067 0
M  V30 1227 H 113.04 0.635914 -2.49628 0
M  V30 1228 H 112.998 2.32311 -2.11847 0
M  V30 1229 N 116.77 1.45427 -0.607355 0
M  V30 1230 C 117.998 2.06614 -0.108814 0
M  V30 1231 C 118.413 1.45204 1.2067 0
M  V30 1232 O 117.77 0.566132 1.73497 0
M  V30 1233 C 117.821 3.61481 0.0375347 0
M  V30 1234 O 117.542 4.20598 -1.22593 0
M  V30 1235 C 119.043 4.39652 0.567561 0
M  V30 1236 H 116.263 0.66747 -0.0687351 0
M  V30 1237 H 118.807 1.86675 -0.835022 0
M  V30 1238 H 116.962 3.80762 0.714068 0
M  V30 1239 H 117.376 5.1377 -1.05547 0
M  V30 1240 H 118.85 5.48518 0.61905 0
M  V30 1241 H 119.327 4.09417 1.58978 0
M  V30 1242 H 119.933 4.25234 -0.0749202 0
M  V30 1243 N 118.248 0.346503 1.53744 0
M  V30 1244 C 119.196 -0.52422 2.26616 0
M  V30 1245 C 120.19 -1.09948 1.28871 0
M  V30 1246 O 121.396 -1.04488 1.46568 0
M  V30 1247 H 117.771 -0.187743 0.728187 0
M  V30 1248 H 119.742 0.11239 2.98188 0
M  V30 1249 C 118.491 -1.66186 3.05414 0
M  V30 1250 H 117.814 -1.22848 3.80458 0
M  V30 1251 H 119.254 -2.24622 3.59612 0
M  V30 1252 C 117.713 -2.59302 2.1509 0
M  V30 1253 O 118.243 -3.61628 1.74895 0
M  V30 1254 N 116.449 -2.28055 1.8011 0
M  V30 1255 H 115.996 -1.44883 2.12994 0
M  V30 1256 H 115.954 -2.90615 1.19958 0
M  V30 1257 N 119.726 -1.57421 0.075193 0
M  V30 1258 C 120.951 -1.98364 -0.605515 0
M  V30 1259 C 121.376 -0.953383 -1.62149 0
M  V30 1260 O 120.734 0.0806053 -1.81121 0
M  V30 1261 C 120.782 -3.38332 -1.24756 0
M  V30 1262 O 119.886 -3.37959 -2.36342 0
M  V30 1263 H 119.227 -0.645553 -0.155428 0
M  V30 1264 H 121.757 -2.04044 0.150714 0
M  V30 1265 H 121.767 -3.75591 -1.5936 0
M  V30 1266 H 120.442 -4.12846 -0.503129 0
M  V30 1267 H 119.019 -3.12474 -2.03506 0
M  V30 1268 N 121.204 0.198386 -1.56346 0
M  V30 1269 C 122.62 0.549085 -1.49857 0
M  V30 1270 C 122.82 1.86016 -0.774611 0
M  V30 1271 O 121.876 2.50416 -0.323776 0
M  V30 1272 C 123.189 0.606868 -2.94512 0
M  V30 1273 C 124.737 0.695925 -3.05165 0
M  V30 1274 C 125.212 0.784848 -4.51225 0
M  V30 1275 N 126.703 0.848463 -4.55363 0
M  V30 1276 C 127.438 0.937378 -5.65686 0
M  V30 1277 N 126.934 0.9888 -6.85707 0
M  V30 1278 N 128.727 0.974312 -5.53592 0
M  V30 1279 H 120.878 -0.661655 -2.01831 0
M  V30 1280 H 123.141 -0.235261 -0.918344 0
M  V30 1281 H 122.847 -0.28732 -3.50524 0
M  V30 1282 H 122.721 1.46268 -3.47686 0
M  V30 1283 H 125.108 1.58055 -2.49204 0
M  V30 1284 H 125.189 -0.186022 -2.55123 0
M  V30 1285 H 124.833 -0.0954072 -5.0781 0
M  V30 1286 H 124.763 1.68255 -4.98997 0
M  V30 1287 H 127.254 0.818103 -3.68938 0
M  V30 1288 H 127.567 1.05707 -7.65536 0
M  V30 1289 H 125.912 0.957534 -6.88372 0
M  V30 1290 H 129.103 0.930954 -4.58749 0
M  V30 1291 H 129.276 1.04015 -6.39597 0
M  V30 1292 N 122.682 1.50554 0.465978 0
M  V30 1293 C 123.912 1.65323 1.23903 0
M  V30 1294 C 124.32 0.338051 1.86155 0
M  V30 1295 O 123.663 -0.690518 1.70228 0
M  V30 1296 C 123.725 2.69048 2.3844 0
M  V30 1297 C 123.389 4.12462 1.96784 0
M  V30 1298 C 124.386 4.98168 1.48745 0
M  V30 1299 C 122.071 4.58407 2.05349 0
M  V30 1300 C 124.065 6.27868 1.0982 0
M  V30 1301 C 121.752 5.88112 1.66035 0
M  V30 1302 C 122.75 6.72668 1.18349 0
M  V30 1303 O 122.438 7.99951 0.795825 0
M  V30 1304 H 122.17 0.558629 0.38067 0
M  V30 1305 H 124.724 1.97561 0.562022 0
M  V30 1306 H 122.954 2.32062 3.09328 0
M  V30 1307 H 124.643 2.72985 3.0039 0
M  V30 1308 H 125.409 4.63885 1.41546 0
M  V30 1309 H 121.288 3.92735 2.41414 0
M  V30 1310 H 124.832 6.93819 0.725293 0
M  V30 1311 H 120.729 6.21914 1.72895 0
M  V30 1312 H 121.497 8.13265 0.924222 0
M  V30 1313 N 124.16 -0.719506 1.40217 0
M  V30 1314 C 125.09 -1.8465 1.42922 0
M  V30 1315 C 126.071 -1.67599 0.29062 0
M  V30 1316 O 127.256 -1.87688 0.498677 0
M  V30 1317 C 124.386 -3.22565 1.28722 0
M  V30 1318 C 123.34 -3.54281 2.40144 0
M  V30 1319 C 122.666 -4.91298 2.11023 0
M  V30 1320 C 123.966 -3.55676 3.82481 0
M  V30 1321 H 125.66 -1.82644 2.37237 0
M  V30 1322 H 123.206 -0.877305 1.1419 0
M  V30 1323 H 125.159 -4.01095 1.29232 0
M  V30 1324 H 123.883 -3.25137 0.308811 0
M  V30 1325 H 122.542 -2.78088 2.38877 0
M  V30 1326 H 122.19 -4.90468 1.11582 0
M  V30 1327 H 121.89 -5.13485 2.8567 0
M  V30 1328 H 123.414 -5.72166 2.13209 0
M  V30 1329 H 124.828 -4.24254 3.85592 0
M  V30 1330 H 123.225 -3.89388 4.56614 0
M  V30 1331 H 124.295 -2.55144 4.12346 0
M  V30 1332 N 125.638 -1.25649 -0.95132 0
M  V30 1333 C 126.588 -1.03004 -2.03406 0
M  V30 1334 C 127.572 0.034187 -1.60864 0
M  V30 1335 O 128.764 -0.181549 -1.76066 0
M  V30 1336 C 125.893 -0.654255 -3.37008 0
M  V30 1337 C 124.979 -1.75542 -3.86065 0
M  V30 1338 N 125.37 -2.99113 -4.07879 0
M  V30 1339 C 123.668 -1.63669 -4.14884 0
M  V30 1340 C 124.369 -3.70611 -4.48356 0
M  V30 1341 N 123.345 -2.98247 -4.54477 0
M  V30 1342 H 127.147 -1.96813 -2.1827 0
M  V30 1343 H 124.661 -1.16017 -1.13639 0
M  V30 1344 H 126.658 -0.473206 -4.14206 0
M  V30 1345 H 125.318 0.276468 -3.23521 0
M  V30 1346 H 126.329 -3.35124 -3.94857 0
M  V30 1347 H 123.006 -0.775161 -4.10241 0
M  V30 1348 H 124.396 -4.76695 -4.73509 0
M  V30 1349 N 127.117 1.15442 -1.07289 0
M  V30 1350 C 128.394 1.82306 -0.708792 0
M  V30 1351 C 128.774 1.94991 0.808807 0
M  V30 1352 O 128.122 1.50085 1.72298 0
M  V30 1353 C 128.332 3.18695 -1.42247 0
M  V30 1354 C 129.68 3.94341 -1.57417 0
M  V30 1355 O 130.704 3.28247 -1.38319 0
M  V30 1356 O 129.563 5.12839 -1.88834 0
M  V30 1357 H 126.657 0.787628 -0.252132 0
M  V30 1358 H 129.203 1.22559 -1.17377 0
M  V30 1359 H 127.975 3.04557 -2.45684 0
M  V30 1360 H 127.598 3.86128 -0.948223 0
M  V30 1361 N 128.595 0.856903 1.32268 0
M  V30 1362 C 129.543 0.291987 2.3076 0
M  V30 1363 C 130.537 -0.585857 1.58947 0
M  V30 1364 O 131.743 -0.47341 1.73663 0
M  V30 1365 H 128.118 0.075721 0.748178 0
M  V30 1366 H 130.089 1.13687 2.75895 0
M  V30 1367 C 128.838 -0.502869 3.44044 0
M  V30 1368 H 128.161 0.163328 3.99466 0
M  V30 1369 H 129.601 -0.863691 4.1511 0
M  V30 1370 C 128.06 -1.68898 2.91505 0
M  V30 1371 O 128.59 -2.78811 2.89184 0
M  V30 1372 N 126.796 -1.51679 2.47875 0
M  V30 1373 H 126.343 -0.622666 2.49961 0
M  V30 1374 H 126.301 -2.31184 2.13076 0
M  V30 1375 N 130.073 -1.45103 0.615059 0
M  V30 1376 C 131.322 -2.01396 0.110718 0
M  V30 1377 C 131.635 -1.48834 -1.26916 0
M  V30 1378 O 132.841 -1.97152 -1.86664 0
M  V30 1379 C 131.297 -3.59599 0.14723 0
M  V30 1380 C 130.905 -4.21158 1.52743 0
M  V30 1381 C 132.649 -4.23428 -0.30148 0
M  V30 1382 C 130.556 -5.71535 1.51992 0
M  V30 1383 H 129.486 -0.753061 0.0376241 0
M  V30 1384 H 132.137 -1.66494 0.77149 0
M  V30 1385 H 130.519 -3.91724 -0.580339 0
M  V30 1386 H 131.693 -4.00594 2.2773 0
M  V30 1387 H 130.008 -3.69552 1.91886 0
M  V30 1388 H 132.605 -5.33703 -0.326392 0
M  V30 1389 H 132.948 -3.94629 -1.32565 0
M  V30 1390 H 133.481 -3.96047 0.373065 0
M  V30 1391 H 130.22 -6.05044 2.52193 0
M  V30 1392 H 129.74 -5.94268 0.81274 0
M  V30 1393 H 131.419 -6.34873 1.24681 0
M  V30 1394 N 131.551 -0.354651 -1.53558 0
M  V30 1395 C 132.797 0.238797 -2.01389 0
M  V30 1396 C 133.13 1.49309 -1.2418 0
M  V30 1397 O 132.405 1.91638 -0.332457 0
M  V30 1398 C 132.688 0.541771 -3.56001 0
M  V30 1399 C 132.541 -0.725388 -4.43912 0
M  V30 1400 C 133.86 1.34685 -4.18984 0
M  V30 1401 H 130.979 0.0853177 -0.732045 0
M  V30 1402 H 133.621 -0.477384 -1.83905 0
M  V30 1403 H 131.771 1.15189 -3.71031 0
M  V30 1404 H 133.443 -1.36313 -4.407 0
M  V30 1405 H 131.686 -1.34801 -4.12324 0
M  V30 1406 H 132.357 -0.468505 -5.50008 0
M  V30 1407 H 134.833 0.830837 -4.07721 0
M  V30 1408 H 133.709 1.52759 -5.27215 0
M  V30 1409 H 133.97 2.35221 -3.74331 0
M  V30 1410 N 133.029 1.57378 -0.0835403 0
M  V30 1411 C 134.306 1.85363 0.624507 0
M  V30 1412 C 134.686 0.978239 1.87066 0
M  V30 1413 O 134.034 0.0475908 2.2845 0
M  V30 1414 C 134.244 3.35795 0.950947 0
M  V30 1415 C 135.592 4.03581 1.31939 0
M  V30 1416 O 136.616 3.40609 1.04232 0
M  V30 1417 O 135.475 5.14672 1.83779 0
M  V30 1418 H 132.569 0.766162 0.311329 0
M  V30 1419 H 135.115 1.69307 -0.115362 0
M  V30 1420 H 133.887 3.91244 0.0663899 0
M  V30 1421 H 133.51 3.57154 1.74719 0
M  V30 1422 N 134.507 -0.190092 1.56449 0
M  V30 1423 C 135.737 -0.92443 1.84764 0
M  V30 1424 C 136.145 -1.77146 0.664529 0
M  V30 1425 O 135.488 -1.79812 -0.375957 0
M  V30 1426 C 135.55 -1.86651 3.07248 0
M  V30 1427 C 135.214 -1.20094 4.40938 0
M  V30 1428 C 136.211 -0.575445 5.16706 0
M  V30 1429 C 133.896 -1.2033 4.87674 0
M  V30 1430 C 135.89 0.0388111 6.37388 0
M  V30 1431 C 133.577 -0.585214 6.08291 0
M  V30 1432 C 134.575 0.0347578 6.82991 0
M  V30 1433 O 134.263 0.643147 8.01323 0
M  V30 1434 H 133.995 -0.274974 0.617548 0
M  V30 1435 H 136.549 -0.200788 2.04416 0
M  V30 1436 H 134.779 -2.62998 2.83494 0
M  V30 1437 H 136.468 -2.46907 3.22167 0
M  V30 1438 H 137.234 -0.565728 4.81689 0
M  V30 1439 H 133.113 -1.67526 4.29484 0
M  V30 1440 H 136.657 0.523329 6.95634 0
M  V30 1441 H 132.554 -0.592451 6.42775 0
M  V30 1442 H 133.322 0.540545 8.16713 0
M  V30 1443 N 135.985 -1.50799 -0.457987 0
M  V30 1444 C 136.948 -1.7005 -1.53674 0
M  V30 1445 C 137.948 -0.570881 -1.50325 0
M  V30 1446 O 139.138 -0.838126 -1.52712 0
M  V30 1447 C 136.27 -1.73788 -2.93276 0
M  V30 1448 H 137.463 -2.66306 -1.37917 0
M  V30 1449 H 135.016 -1.40477 -0.685271 0
M  V30 1450 H 135.751 -0.792717 -3.14462 0
M  V30 1451 H 135.536 -2.55864 -2.97113 0
M  V30 1452 H 137.026 -1.90591 -3.71571 0
M  V30 1453 N 137.463 0.71206 -1.40597 0
M  V30 1454 C 138.395 1.83704 -1.37061 0
M  V30 1455 C 139.408 1.60453 -0.275426 0
M  V30 1456 O 140.597 1.70262 -0.53602 0
M  V30 1457 C 137.697 3.20172 -1.11099 0
M  V30 1458 C 136.87 3.7059 -2.3234 0
M  V30 1459 C 135.929 4.85681 -2.02485 0
M  V30 1460 O 134.955 4.9815 -2.75382 0
M  V30 1461 N 136.157 5.71735 -1.00497 0
M  V30 1462 H 138.922 1.87235 -2.34016 0
M  V30 1463 H 136.483 0.893739 -1.34996 0
M  V30 1464 H 138.475 3.94768 -0.891064 0
M  V30 1465 H 137.045 3.11767 -0.227989 0
M  V30 1466 H 136.265 2.87085 -2.7014 0
M  V30 1467 H 137.553 4.01011 -3.13157 0
M  V30 1468 H 136.951 5.64275 -0.401298 0
M  V30 1469 H 135.508 6.463 -0.844942 0
M  V30 1470 N 138.941 1.26152 0.944643 0
M  V30 1471 C 140.357 1.03189 1.21754 0
M  V30 1472 C 140.557 -0.245112 2.00004 0
M  V30 1473 O 139.613 -0.955176 2.33736 0
M  V30 1474 C 140.926 2.26119 1.98219 0
M  V30 1475 C 142.474 2.30984 2.11224 0
M  V30 1476 C 142.949 3.53597 2.91089 0
M  V30 1477 N 144.44 3.54053 2.98664 0
M  V30 1478 C 145.175 4.45593 3.60881 0
M  V30 1479 N 144.671 5.47416 4.24626 0
M  V30 1480 N 146.464 4.33252 3.58119 0
M  V30 1481 H 138.615 2.08177 0.421437 0
M  V30 1482 H 140.878 0.914723 0.248969 0
M  V30 1483 H 140.584 3.18984 1.48128 0
M  V30 1484 H 140.458 2.3009 2.98895 0
M  V30 1485 H 142.845 1.38635 2.60508 0
M  V30 1486 H 142.926 2.31026 1.09821 0
M  V30 1487 H 142.57 4.46273 2.42493 0
M  V30 1488 H 142.5 3.50802 3.92741 0
M  V30 1489 H 144.991 2.80403 2.53343 0
M  V30 1490 H 145.304 6.13459 4.69987 0
M  V30 1491 H 143.649 5.51278 4.23223 0
M  V30 1492 H 146.84 3.52924 3.0751 0
M  V30 1493 H 147.013 5.04786 4.06319 0
M  V30 1494 N 140.419 -1.14872 1.07899 0
M  V30 1495 C 141.349 -2.2193 0.725887 0
M  V30 1496 C 142.33 -1.67622 -0.28927 0
M  V30 1497 O 143.515 -1.93533 -0.160787 0
M  V30 1498 C 140.645 -3.47061 0.128856 0
M  V30 1499 C 139.599 -4.14363 1.07178 0
M  V30 1500 C 138.925 -5.33636 0.337229 0
M  V30 1501 C 140.225 -4.63492 2.40775 0
M  V30 1502 H 141.919 -2.51724 1.62097 0
M  V30 1503 H 139.465 -1.20991 0.780838 0
M  V30 1504 H 141.418 -4.21199 -0.130147 0
M  V30 1505 H 140.142 -3.16617 -0.80134 0
M  V30 1506 H 138.801 -3.42173 1.3158 0
M  V30 1507 H 138.449 -4.99449 -0.596606 0
M  V30 1508 H 138.149 -5.79609 0.965788 0
M  V30 1509 H 139.673 -6.10539 0.0861567 0
M  V30 1510 H 141.087 -5.2913 2.20669 0
M  V30 1511 H 139.484 -5.20148 2.99276 0
M  V30 1512 H 140.554 -3.78834 3.02676 0
M  V30 1513 N 141.898 -0.863906 -1.31812 0
M  V30 1514 C 143.123 -0.48527 -2.01643 0
M  V30 1515 C 143.548 0.913058 -1.64453 0
M  V30 1516 O 142.906 1.6014 -0.849985 0
M  V30 1517 C 142.954 -0.642625 -3.54828 0
M  V30 1518 O 142.058 0.320659 -4.11151 0
M  V30 1519 H 141.399 -0.193793 -0.635091 0
M  V30 1520 H 143.929 -1.16565 -1.68148 0
M  V30 1521 H 143.939 -0.533628 -4.04495 0
M  V30 1522 H 142.614 -1.66227 -3.81237 0
M  V30 1523 H 141.191 0.167126 -3.72525 0
M  V30 1524 N 143.376 1.44774 -0.622745 0
M  V30 1525 C 144.286 2.34433 0.0886031 0
M  V30 1526 C 145.302 1.52131 0.844529 0
M  V30 1527 O 146.478 1.84886 0.798691 0
M  V30 1528 C 143.543 3.29986 1.0635 0
M  V30 1529 C 142.604 4.28195 0.307873 0
M  V30 1530 C 141.837 5.19183 1.23633 0
M  V30 1531 O 142.06 5.13918 2.47476 0
M  V30 1532 O 140.994 5.97515 0.725189 0
M  V30 1533 H 144.82 2.96693 -0.648599 0
M  V30 1534 H 142.405 1.44408 -0.382957 0
M  V30 1535 H 144.287 3.88825 1.6246 0
M  V30 1536 H 142.962 2.70269 1.78146 0
M  V30 1537 H 141.869 3.72927 -0.296064 0
M  V30 1538 H 143.202 4.90808 -0.3699 0
M  V30 1539 N 144.854 0.36279 1.53368 0
M  V30 1540 C 146.082 -0.228613 2.05633 0
M  V30 1541 C 146.497 -1.42676 1.23649 0
M  V30 1542 O 145.854 -1.80394 0.27647 0
M  V30 1543 C 145.905 -0.624845 3.56059 0
M  V30 1544 O 145.626 0.525675 4.34935 0
M  V30 1545 C 147.127 -1.27493 4.24571 0
M  V30 1546 H 144.347 -0.0407183 0.669763 0
M  V30 1547 H 146.891 0.520352 1.97769 0
M  V30 1548 H 145.046 -1.32373 3.64083 0
M  V30 1549 H 145.46 0.205969 5.24095 0
M  V30 1550 H 146.934 -1.50277 5.31151 0
M  V30 1551 H 147.411 -2.23439 3.78116 0
M  V30 1552 H 148.017 -0.617558 4.20792 0
M  V30 1553 N 146.332 -1.57332 0.0918853 0
M  V30 1554 C 147.262 -2.16872 -0.865371 0
M  V30 1555 C 148.243 -1.10118 -1.29646 0
M  V30 1556 O 149.428 -1.38242 -1.36392 0
M  V30 1557 C 146.558 -2.74649 -2.12569 0
M  V30 1558 C 145.512 -3.86747 -1.83333 0
M  V30 1559 C 144.838 -4.31212 -3.16166 0
M  V30 1560 C 146.138 -5.10089 -1.1228 0
M  V30 1561 H 147.832 -2.97114 -0.369307 0
M  V30 1562 H 145.378 -1.42918 -0.176194 0
M  V30 1563 H 147.331 -3.14952 -2.7997 0
M  V30 1564 H 146.055 -1.91657 -2.64452 0
M  V30 1565 H 144.714 -3.46978 -1.18331 0
M  V30 1566 H 144.362 -3.45115 -3.6593 0
M  V30 1567 H 144.062 -5.06788 -2.97388 0
M  V30 1568 H 145.586 -4.74146 -3.84731 0
M  V30 1569 H 147 -5.47582 -1.69785 0
M  V30 1570 H 145.397 -5.91073 -1.03693 0
M  V30 1571 H 146.467 -4.84786 -0.105041 0
M  V30 1572 N 147.81 0.181792 -1.56548 0
M  V30 1573 C 149.221 0.745244 -1.71181 0
M  V30 1574 C 149.572 1.83262 -0.70068 0
M  V30 1575 O 148.697 2.15946 0.140154 0
M  V30 1576 C 149.292 1.35859 -3.10367 0
M  V30 1577 C 147.851 1.86898 -3.2672 0
M  V30 1578 C 146.998 0.743942 -2.67134 0
M  V30 1579 H 149.949 -0.0434661 -1.5864 0
M  V30 1580 H 149.97 2.22817 -3.08436 0
M  V30 1581 H 149.482 0.566948 -3.83937 0
M  V30 1582 H 147.583 2.68738 -2.5809 0
M  V30 1583 H 147.696 2.02162 -4.34359 0
M  V30 1584 H 146.06 1.16169 -2.26665 0
M  V30 1585 H 146.843 -0.035676 -3.43281 0
M  V30 1586 N 149.288 1.51039 0.449983 0
M  V30 1587 C 150.198 1.74261 1.57067 0
M  V30 1588 C 151.214 0.626363 1.62335 0
M  V30 1589 O 152.39 0.907162 1.79812 0
M  V30 1590 C 149.455 1.85114 2.93144 0
M  V30 1591 C 148.516 3.0893 2.98095 0
M  V30 1592 C 147.749 3.19256 4.27681 0
M  V30 1593 O 147.972 2.35835 5.19363 0
M  V30 1594 O 146.906 4.12144 4.38658 0
M  V30 1595 H 150.732 2.69303 1.40391 0
M  V30 1596 H 148.317 1.35389 0.631688 0
M  V30 1597 H 150.199 1.94311 3.73926 0
M  V30 1598 H 148.874 0.932588 3.09975 0
M  V30 1599 H 147.781 3.0522 2.16314 0
M  V30 1600 H 149.114 4.00433 2.86206 0
M  V30 1601 N 150.766 -0.704594 1.40972 0
M  V30 1602 C 151.698 -1.82974 1.38033 0
M  V30 1603 C 152.711 -1.60305 0.283931 0
M  V30 1604 O 153.9 -1.69975 0.545042 0
M  V30 1605 C 151 -3.19578 1.12795 0
M  V30 1606 C 150.173 -3.69352 2.34302 0
M  V30 1607 C 149.232 -4.84601 2.05058 0
M  V30 1608 O 148.258 -4.96682 2.7802 0
M  V30 1609 N 149.46 -5.71194 1.03528 0
M  V30 1610 H 152.225 -1.85991 2.35005 0
M  V30 1611 H 149.786 -0.886567 1.35468 0
M  V30 1612 H 151.778 -3.9429 0.911987 0
M  V30 1613 H 150.348 -3.11642 0.24452 0
M  V30 1614 H 149.568 -2.85649 2.71659 0
M  V30 1615 H 150.856 -3.99345 3.1528 0
M  V30 1616 H 150.254 -5.64054 0.431217 0
M  V30 1617 H 148.811 -6.45843 0.879205 0
M  V30 1618 N 152.244 -1.26651 -0.937939 0
M  V30 1619 C 153.174 -1.10993 -2.05433 0
M  V30 1620 C 154.155 -0.0142161 -1.70094 0
M  V30 1621 O 155.34 -0.186837 -1.93299 0
M  V30 1622 C 152.47 -0.745561 -3.39203 0
M  V30 1623 C 151.424 -1.79337 -3.88616 0
M  V30 1624 C 150.75 -1.28324 -5.19073 0
M  V30 1625 C 152.05 -3.19553 -4.13138 0
M  V30 1626 H 153.744 -2.0438 -2.1879 0
M  V30 1627 H 151.29 -0.984041 -1.05131 0
M  V30 1628 H 153.243 -0.622888 -4.16771 0
M  V30 1629 H 151.967 0.22401 -3.25831 0
M  V30 1630 H 150.626 -1.90477 -3.13231 0
M  V30 1631 H 150.274 -0.303414 -5.02084 0
M  V30 1632 H 149.974 -1.98369 -5.53103 0
M  V30 1633 H 151.498 -1.1733 -5.99221 0
M  V30 1634 H 152.912 -3.11471 -4.81309 0
M  V30 1635 H 151.309 -3.87218 -4.58457 0
M  V30 1636 H 152.379 -3.65368 -3.18801 0
M  V30 1637 N 153.722 1.14298 -1.08507 0
M  V30 1638 C 154.962 1.87016 -0.824894 0
M  V30 1639 C 155.326 1.81099 0.637735 0
M  V30 1640 O 156.527 2.48963 1.01345 0
M  V30 1641 C 154.798 3.31584 -1.33368 0
M  V30 1642 S 156.357 4.21903 -1.20596 0
M  V30 1643 H 153.175 0.645259 -0.2986 0
M  V30 1644 H 155.777 1.37822 -1.38656 0
M  V30 1645 H 154.481 3.33439 -2.39262 0
M  V30 1646 H 154.012 3.85836 -0.767734 0
M  V30 1647 H 156.027 4.95971 -0.150891 0
M  V30 1648 N 155.201 0.870884 1.31352 0
M  V30 1649 C 156.447 0.482987 1.96965 0
M  V30 1650 C 156.78 -0.962462 1.68672 0
M  V30 1651 O 156.055 -1.6779 0.98371 0
M  V30 1652 C 156.338 0.741752 3.52378 0
M  V30 1653 C 156.191 2.2368 3.9024 0
M  V30 1654 C 157.51 0.208838 4.39604 0
M  V30 1655 H 154.629 0.176955 0.715441 0
M  V30 1656 H 157.271 1.09229 1.55464 0
M  V30 1657 H 155.421 0.223149 3.87859 0
M  V30 1658 H 157.093 2.82273 3.64856 0
M  V30 1659 H 155.336 2.70901 3.38814 0
M  V30 1660 H 156.007 2.3685 4.98604 0
M  V30 1661 H 158.483 0.652529 4.10952 0
M  V30 1662 H 157.359 0.419336 5.47296 0
M  V30 1663 H 157.62 -0.889275 4.33064 0
M  V30 1664 N 156.679 -1.44442 0.630414 0
M  V30 1665 C 157.926 -2.02052 0.134617 0
M  V30 1666 C 158.254 -1.49576 -1.24327 0
M  V30 1667 O 157.509 -0.669806 -1.83881 0
M  V30 1668 C 157.808 -3.57332 0.0697835 0
M  V30 1669 C 157.474 -4.29058 1.38635 0
M  V30 1670 C 156.136 -4.4837 1.74694 0
M  V30 1671 C 158.488 -4.69872 2.25543 0
M  V30 1672 C 155.816 -5.05756 2.97369 0
M  V30 1673 C 158.168 -5.28616 3.47487 0
M  V30 1674 C 156.832 -5.46147 3.8377 0
M  V30 1675 H 156.102 -0.739361 0.0492598 0
M  V30 1676 H 158.749 -1.73217 0.816586 0
M  V30 1677 H 157.054 -3.85577 -0.695553 0
M  V30 1678 H 158.751 -3.99637 -0.330344 0
M  V30 1679 H 155.341 -4.14357 1.09574 0
M  V30 1680 H 159.525 -4.54666 1.98979 0
M  V30 1681 H 154.781 -5.17515 3.25558 0
M  V30 1682 H 158.955 -5.59192 4.15063 0
M  V30 1683 H 156.582 -5.9038 4.7891 0
M  V30 1684 N 158.157 -0.370918 -1.53173 0
M  V30 1685 C 159.387 0.217389 -2.05453 0
M  V30 1686 C 159.795 1.42568 -1.24382 0
M  V30 1687 O 159.138 1.81571 -0.278839 0
M  V30 1688 C 159.2 0.669827 -3.53205 0
M  V30 1689 C 158.864 -0.4225 -4.55043 0
M  V30 1690 C 159.861 -1.27407 -5.04047 0
M  V30 1691 C 157.546 -0.58427 -4.9889 0
M  V30 1692 C 159.54 -2.27271 -5.95505 0
M  V30 1693 C 157.227 -1.58627 -5.90153 0
M  V30 1694 C 158.225 -2.42892 -6.38351 0
M  V30 1695 O 157.913 -3.41382 -7.27814 0
M  V30 1696 H 157.645 0.0408171 -0.674767 0
M  V30 1697 H 160.199 -0.5292 -1.98466 0
M  V30 1698 H 158.429 1.4681 -3.57748 0
M  V30 1699 H 160.118 1.18173 -3.88317 0
M  V30 1700 H 160.884 -1.16031 -4.70916 0
M  V30 1701 H 156.763 0.061851 -4.60959 0
M  V30 1702 H 160.307 -2.93079 -6.33049 0
M  V30 1703 H 156.204 -1.70048 -6.22699 0
M  V30 1704 H 156.972 -3.37173 -7.45826 0
M  V30 1705 N 159.635 1.57281 -0.100228 0
M  V30 1706 C 160.882 1.94537 0.562268 0
M  V30 1707 C 161.21 0.982315 1.67871 0
M  V30 1708 O 160.465 0.00280936 1.957 0
M  V30 1709 C 160.764 3.38305 1.15259 0
M  V30 1710 C 160.43 4.50618 0.159409 0
M  V30 1711 C 159.092 4.81066 -0.113741 0
M  V30 1712 C 161.444 5.18615 -0.518461 0
M  V30 1713 C 158.772 5.76835 -1.07137 0
M  V30 1714 C 161.124 6.15412 -1.46459 0
M  V30 1715 C 159.788 6.44262 -1.74592 0
M  V30 1716 H 159.058 0.711863 0.205748 0
M  V30 1717 H 161.705 1.90679 -0.17715 0
M  V30 1718 H 160.01 3.38766 1.96836 0
M  V30 1719 H 161.707 3.64435 1.67297 0
M  V30 1720 H 158.297 4.2689 0.382491 0
M  V30 1721 H 162.481 4.95264 -0.320581 0
M  V30 1722 H 157.737 5.975 -1.29628 0
M  V30 1723 H 161.911 6.67194 -1.99564 0
M  V30 1724 H 159.538 7.1828 -2.48953 0
M  V30 1725 N 161.113 -0.173488 1.56642 0
M  V30 1726 C 162.043 -1.2171 1.99271 0
M  V30 1727 C 163.024 -1.46289 0.867959 0
M  V30 1728 O 164.209 -1.5766 1.13388 0
M  V30 1729 C 161.339 -2.55651 2.35074 0
M  V30 1730 C 160.293 -2.45645 3.50489 0
M  V30 1731 C 159.619 -3.84056 3.72028 0
M  V30 1732 C 160.919 -1.96302 4.84007 0
M  V30 1733 H 162.613 -0.86275 2.867 0
M  V30 1734 H 160.159 -0.413571 1.37933 0
M  V30 1735 H 162.112 -3.2886 2.63494 0
M  V30 1736 H 160.836 -2.92869 1.44552 0
M  V30 1737 H 159.495 -1.7489 3.22194 0
M  V30 1738 H 159.143 -4.18664 2.788 0
M  V30 1739 H 158.843 -3.7823 4.49684 0
M  V30 1740 H 160.367 -4.58854 4.02846 0
M  V30 1741 H 161.781 -2.59284 5.11317 0
M  V30 1742 H 160.178 -2.01429 5.65284 0
M  V30 1743 H 161.248 -0.917226 4.76146 0
M  V30 1744 N 162.591 -1.51276 -0.441967 0
M  V30 1745 C 163.539 -1.72823 -1.55676 0
M  V30 1746 C 164.533 -0.59445 -1.58627 0
M  V30 1747 O 165.739 -0.775715 -1.62427 0
M  V30 1748 H 162.114 -0.545983 -0.517113 0
M  V30 1749 H 164.085 -2.6628 -1.34675 0
M  V30 1750 C 162.834 -1.86619 -2.93375 0
M  V30 1751 H 162.157 -2.73264 -2.91834 0
M  V30 1752 H 163.597 -2.05709 -3.70756 0
M  V30 1753 C 162.056 -0.624842 -3.31055 0
M  V30 1754 O 162.586 0.222636 -4.01083 0
M  V30 1755 N 160.792 -0.470288 -2.86769 0
M  V30 1756 H 160.339 -1.161 -2.29953 0
M  V30 1757 H 160.297 0.359051 -3.12343 0
M  V30 1758 N 164.069 0.697108 -1.41344 0
M  V30 1759 C 165.294 1.49096 -1.44171 0
M  V30 1760 C 165.719 1.88038 -0.0481568 0
M  V30 1761 O 165.077 1.54525 0.948243 0
M  V30 1762 C 165.125 2.73088 -2.3549 0
M  V30 1763 O 164.229 3.70514 -1.81088 0
M  V30 1764 H 163.57 0.448801 -0.489361 0
M  V30 1765 H 166.1 0.856992 -1.85787 0
M  V30 1766 H 166.11 3.21413 -2.51312 0
M  V30 1767 H 164.785 2.44081 -3.36745 0
M  V30 1768 H 163.362 3.29441 -1.74708 0
M  V30 1769 N 165.547 1.27147 0.931209 0
M  V30 1770 C 166.795 1.13055 1.6752 0
M  V30 1771 C 167.116 -0.324791 1.92276 0
M  V30 1772 O 166.386 -1.22775 1.52654 0
M  V30 1773 H 164.966 0.415391 0.620854 0
M  V30 1774 H 167.628 1.59623 1.11833 0
M  V30 1775 H 166.724 1.65694 2.64485 0
M  V30 1776 N 167.025 -1.13721 1.09112 0
M  V30 1777 C 168.25 -1.89314 0.847053 0
M  V30 1778 C 168.675 -1.78416 -0.595774 0
M  V30 1779 O 168.033 -1.12942 -1.41823 0
M  V30 1780 C 168.081 -3.3701 1.28284 0
M  V30 1781 O 167.185 -4.10054 0.439267 0
M  V30 1782 H 166.526 -0.588745 0.307044 0
M  V30 1783 H 169.056 -1.43902 1.45442 0
M  V30 1784 H 169.066 -3.87834 1.26683 0
M  V30 1785 H 167.741 -3.4426 2.33363 0
M  V30 1786 H 166.318 -3.69266 0.519312 0
M  V30 1787 N 168.503 -0.877838 -1.30888 0
M  V30 1788 C 169.413 -0.343096 -2.32078 0
M  V30 1789 C 170.429 0.551022 -1.65045 0
M  V30 1790 O 171.605 0.445854 -1.96403 0
M  V30 1791 C 168.67 0.439905 -3.43898 0
M  V30 1792 C 167.731 -0.483111 -4.26573 0
M  V30 1793 C 166.964 0.262616 -5.33053 0
M  V30 1794 O 167.187 1.48967 -5.50604 0
M  V30 1795 O 166.121 -0.383593 -6.00676 0
M  V30 1796 H 169.947 -1.18203 -2.79753 0
M  V30 1797 H 167.532 -0.64145 -1.34929 0
M  V30 1798 H 169.414 0.883504 -4.12034 0
M  V30 1799 H 168.089 1.25526 -2.98371 0
M  V30 1800 H 166.996 -0.975374 -3.61161 0
M  V30 1801 H 168.329 -1.26427 -4.75686 0
M  V30 1802 N 169.982 1.44106 -0.638065 0
M  V30 1803 C 170.945 2.29138 0.0531013 0
M  V30 1804 C 171.945 1.41409 0.765506 0
M  V30 1805 O 173.135 1.63206 0.609046 0
M  V30 1806 C 170.267 3.23144 1.08584 0
M  V30 1807 H 171.46 2.91739 -0.694883 0
M  V30 1808 H 169.013 1.51134 -0.398538 0
M  V30 1809 H 169.748 2.65408 1.86357 0
M  V30 1810 H 169.533 3.87804 0.578852 0
M  V30 1811 H 171.023 3.87004 1.56899 0
M  V30 1812 N 171.46 0.379036 1.52974 0
M  V30 1813 C 172.408 -0.476033 2.27677 0
M  V30 1814 C 173.402 -1.0719 1.31174 0
M  V30 1815 O 174.608 -1.01355 1.48752 0
M  V30 1816 H 170.983 -0.172255 0.732006 0
M  V30 1817 H 172.954 0.175615 2.97883 0
M  V30 1818 C 171.703 -1.5967 3.0887 0
M  V30 1819 H 171.026 -1.1475 3.82978 0
M  V30 1820 H 172.466 -2.16943 3.64296 0
M  V30 1821 C 170.925 -2.54682 2.20542 0
M  V30 1822 O 171.455 -3.57836 1.82527 0
M  V30 1823 N 169.661 -2.24183 1.84907 0
M  V30 1824 H 169.208 -1.40333 2.1602 0
M  V30 1825 H 169.166 -2.88006 1.26096 0
M  V30 1826 N 172.938 -1.57226 0.108567 0
M  V30 1827 C 174.215 -1.86333 -0.594939 0
M  V30 1828 C 174.595 -1.00788 -1.85486 0
M  V30 1829 O 173.943 -0.0839293 -2.28346 0
M  V30 1830 C 174.153 -3.37265 -0.897405 0
M  V30 1831 C 175.501 -4.05629 -1.25501 0
M  V30 1832 O 176.525 -3.42224 -0.987998 0
M  V30 1833 O 175.384 -5.17531 -1.75567 0
M  V30 1834 H 172.478 -0.771018 -0.2991 0
M  V30 1835 H 175.024 -1.69102 0.142283 0
M  V30 1836 H 173.796 -3.913 -0.00413806 0
M  V30 1837 H 173.419 -3.59889 -1.69014 0
M  V30 1838 N 174.416 0.165178 -1.56732 0
M  V30 1839 C 175.346 1.20651 -1.99914 0
M  V30 1840 C 176.327 1.45827 -0.875705 0
M  V30 1841 O 177.512 1.57057 -1.14223 0
M  V30 1842 C 174.642 2.54401 -2.36427 0
M  V30 1843 C 173.596 2.43782 -3.51787 0
M  V30 1844 C 172.922 3.82078 -3.7406 0
M  V30 1845 C 174.222 1.93732 -4.85041 0
M  V30 1846 H 175.916 0.847534 -2.87154 0
M  V30 1847 H 173.462 0.40625 -1.38151 0
M  V30 1848 H 175.415 3.27458 -2.65234 0
M  V30 1849 H 174.139 2.92098 -1.46103 0
M  V30 1850 H 172.798 1.73178 -3.23117 0
M  V30 1851 H 172.446 4.17179 -2.81017 0
M  V30 1852 H 172.146 3.7584 -4.51684 0
M  V30 1853 H 173.67 4.56712 -4.05274 0
M  V30 1854 H 175.084 2.56569 -5.12684 0
M  V30 1855 H 173.481 1.98428 -5.66345 0
M  V30 1856 H 174.551 0.891962 -4.76626 0
M  V30 1857 N 175.894 1.51508 0.433938 0
M  V30 1858 C 176.857 1.72473 1.50949 0
M  V30 1859 C 177.857 0.594725 1.49398 0
M  V30 1860 O 179.047 0.862315 1.5136 0
M  V30 1861 C 176.179 1.78431 2.90474 0
M  V30 1862 H 177.372 2.68467 1.33662 0
M  V30 1863 H 174.925 1.41549 0.662836 0
M  V30 1864 H 175.66 0.842645 3.13161 0
M  V30 1865 H 175.445 2.60558 2.93005 0
M  V30 1866 H 176.935 1.96479 3.68491 0
M  V30 1867 N 177.372 -0.689602 1.41712 0
M  V30 1868 C 178.302 -1.81577 1.46806 0
M  V30 1869 C 179.283 -1.66945 0.326105 0
M  V30 1870 O 180.468 -1.86588 0.538377 0
M  V30 1871 C 177.598 -3.19762 1.35535 0
M  V30 1872 C 176.552 -3.49107 2.47605 0
M  V30 1873 C 175.878 -4.86711 2.21397 0
M  V30 1874 C 177.178 -3.47483 3.89939 0
M  V30 1875 H 178.872 -1.7757 2.41058 0
M  V30 1876 H 176.418 -0.852887 1.16025 0
M  V30 1877 H 178.371 -3.98263 1.3771 0
M  V30 1878 H 177.095 -3.24409 0.377708 0
M  V30 1879 H 175.754 -2.72959 2.44722 0
M  V30 1880 H 175.402 -4.8799 1.21961 0
M  V30 1881 H 175.102 -5.0731 2.96497 0
M  V30 1882 H 176.626 -5.67515 2.25297 0
M  V30 1883 H 178.04 -4.1598 3.94505 0
M  V30 1884 H 176.437 -3.79615 4.64771 0
M  V30 1885 H 177.507 -2.46341 4.17665 0
M  V30 1886 N 178.85 -1.27639 -0.924453 0
M  V30 1887 C 180.266 -1.05113 -1.20097 0
M  V30 1888 C 180.466 0.213262 -2.00368 0
M  V30 1889 O 179.522 0.91787 -2.35226 0
M  V30 1890 C 180.835 -2.29244 -1.94596 0
M  V30 1891 C 182.383 -2.34315 -2.07522 0
M  V30 1892 C 182.858 -3.58183 -2.85427 0
M  V30 1893 N 184.349 -3.5876 -2.92994 0
M  V30 1894 C 185.084 -4.51277 -3.53746 0
M  V30 1895 N 184.58 -5.54102 -4.15863 0
M  V30 1896 N 186.373 -4.38894 -3.51181 0
M  V30 1897 H 178.524 -2.08821 -0.388264 0
M  V30 1898 H 180.787 -0.918568 -0.234385 0
M  V30 1899 H 180.493 -3.21301 -1.43034 0
M  V30 1900 H 180.367 -2.34816 -2.95197 0
M  V30 1901 H 182.754 -1.42762 -2.58269 0
M  V30 1902 H 182.835 -2.32744 -1.06131 0
M  V30 1903 H 182.479 -4.50074 -2.35363 0
M  V30 1904 H 182.409 -3.57006 -3.8711 0
M  V30 1905 H 184.9 -2.84398 -2.4885 0
M  V30 1906 H 185.213 -6.20859 -4.60168 0
M  V30 1907 H 183.558 -5.57941 -4.144 0
M  V30 1908 H 186.749 -3.57772 -3.01856 0
M  V30 1909 H 186.922 -5.11186 -3.98237 0
M  V30 1910 N 180.328 1.1314 -1.09713 0
M  V30 1911 C 181.258 2.20748 -0.761102 0
M  V30 1912 C 182.239 1.68061 0.262566 0
M  V30 1913 O 183.424 1.93765 0.129977 0
M  V30 1914 C 180.554 3.46812 -0.184054 0
M  V30 1915 C 179.508 4.12606 -1.13757 0
M  V30 1916 C 178.834 5.33031 -0.422083 0
M  V30 1917 C 180.134 4.59603 -2.48118 0
M  V30 1918 H 181.828 2.49113 -1.66082 0
M  V30 1919 H 179.374 1.19734 -0.799987 0
M  V30 1920 H 181.327 4.21353 0.0631215 0
M  V30 1921 H 180.051 3.17851 0.750868 0
M  V30 1922 H 178.71 3.40036 -1.37007 0
M  V30 1923 H 178.358 5.00335 0.517072 0
M  V30 1924 H 178.058 5.77999 -1.05788 0
M  V30 1925 H 179.582 6.10325 -0.183277 0
M  V30 1926 H 180.996 5.25552 -2.29059 0
M  V30 1927 H 179.393 5.15321 -3.07514 0
M  V30 1928 H 180.463 3.73971 -3.08665 0
M  V30 1929 N 181.806 0.884767 1.30421 0
M  V30 1930 C 182.769 0.356277 2.26414 0
M  V30 1931 C 183.769 -0.501124 1.52792 0
M  V30 1932 O 184.959 -0.30831 1.7145 0
M  V30 1933 C 182.091 -0.492316 3.37326 0
M  V30 1934 H 183.284 1.20389 2.74675 0
M  V30 1935 H 180.837 0.661607 1.41607 0
M  V30 1936 H 181.572 -1.36052 2.94381 0
M  V30 1937 H 181.357 0.121832 3.91911 0
M  V30 1938 H 182.847 -0.853871 4.08777 0
M  V30 1939 N 183.284 -1.43765 0.645699 0
M  V30 1940 C 184.7 -1.56509 0.312591 0
M  V30 1941 C 184.9 -1.6307 -1.18365 0
M  V30 1942 O 183.956 -1.58167 -1.96824 0
M  V30 1943 C 185.269 -2.82968 1.01733 0
M  V30 1944 C 186.817 -2.96701 0.996865 0
M  V30 1945 C 187.292 -4.25982 1.68236 0
M  V30 1946 N 188.783 -4.32829 1.64964 0
M  V30 1947 C 189.518 -5.31613 2.14885 0
M  V30 1948 N 189.014 -6.36718 2.73061 0
M  V30 1949 N 190.807 -5.23217 2.05428 0
M  V30 1950 H 182.958 -1.3775 1.61675 0
M  V30 1951 H 185.221 -0.661067 0.679481 0
M  V30 1952 H 184.927 -2.84156 2.0724 0
M  V30 1953 H 184.801 -3.72957 0.564177 0
M  V30 1954 H 187.188 -2.95058 -0.0497719 0
M  V30 1955 H 187.269 -2.08022 1.48865 0
M  V30 1956 H 186.913 -4.28386 2.72852 0
M  V30 1957 H 186.843 -5.13545 1.16529 0
M  V30 1958 H 189.334 -3.57493 1.22503 0
M  V30 1959 H 189.647 -7.08401 3.08848 0
M  V30 1960 H 187.992 -6.37362 2.77118 0
M  V30 1961 H 191.183 -4.40019 1.59689 0
M  V30 1962 H 191.356 -6.00045 2.44643 0
M  V30 1963 N 184.763 -0.387143 -1.52771 0
M  V30 1964 C 185.713 0.465942 -2.23188 0
M  V30 1965 C 186.697 1.03138 -1.23496 0
M  V30 1966 O 187.889 0.957845 -1.48843 0
M  V30 1967 C 185.018 1.59384 -3.04059 0
M  V30 1968 C 184.104 1.04024 -4.11144 0
M  V30 1969 N 184.495 0.211416 -5.05358 0
M  V30 1970 C 182.793 1.31295 -4.26237 0
M  V30 1971 C 183.494 -0.0941698 -5.81624 0
M  V30 1972 N 182.47 0.509207 -5.4121 0
M  V30 1973 H 186.272 -0.173856 -2.93385 0
M  V30 1974 H 183.786 -0.19633 -1.61209 0
M  V30 1975 H 185.783 2.21738 -3.53041 0
M  V30 1976 H 184.443 2.23648 -2.35397 0
M  V30 1977 H 185.454 -0.151151 -5.17679 0
M  V30 1978 H 182.131 1.95679 -3.68803 0
M  V30 1979 H 183.521 -0.765572 -6.67524 0
M  V30 1980 N 186.241 1.57166 -0.116904 0
M  V30 1981 C 187.471 1.99184 0.548586 0
M  V30 1982 C 187.879 0.995436 1.60897 0
M  V30 1983 O 187.222 -0.0201293 1.83689 0
M  V30 1984 C 187.284 3.37611 1.23526 0
M  V30 1985 C 186.948 4.55857 0.323077 0
M  V30 1986 C 187.945 5.18056 -0.437476 0
M  V30 1987 C 185.63 5.01751 0.234761 0
M  V30 1988 C 187.624 6.24536 -1.2741 0
M  V30 1989 C 185.311 6.08093 -0.605496 0
M  V30 1990 C 186.309 6.69352 -1.35856 0
M  V30 1991 O 185.997 7.7364 -2.18487 0
M  V30 1992 H 185.729 0.659148 0.149999 0
M  V30 1993 H 188.283 2.0443 -0.199428 0
M  V30 1994 H 186.513 3.29113 2.0303 0
M  V30 1995 H 188.202 3.63932 1.79745 0
M  V30 1996 H 188.968 4.83516 -0.379105 0
M  V30 1997 H 184.847 4.53817 0.810601 0
M  V30 1998 H 188.391 6.72281 -1.86237 0
M  V30 1999 H 184.288 6.42063 -0.665268 0
M  V30 2000 H 185.056 7.90727 -2.11406 0
M  V30 2001 N 187.719 -0.156864 1.56817 0
M  V30 2002 C 188.947 -0.886316 1.86955 0
M  V30 2003 C 189.362 -1.75185 0.703975 0
M  V30 2004 O 188.719 -1.79555 -0.326552 0
M  V30 2005 C 188.77 -1.75117 3.16253 0
M  V30 2006 O 188.491 -0.920537 4.2832 0
M  V30 2007 C 189.992 -2.58905 3.59837 0
M  V30 2008 H 187.212 -0.25678 0.619923 0
M  V30 2009 H 189.756 -0.152615 2.0393 0
M  V30 2010 H 187.911 -2.43805 3.01062 0
M  V30 2011 H 188.325 -1.51337 5.02192 0
M  V30 2012 H 189.799 -3.1518 4.53172 0
M  V30 2013 H 190.276 -3.34472 2.84649 0
M  V30 2014 H 190.882 -1.95526 3.7769 0
M  V30 2015 N 189.197 -1.51736 -0.425897 0
M  V30 2016 C 190.445 -1.64644 -1.17204 0
M  V30 2017 C 190.766 -0.370486 -1.91448 0
M  V30 2018 O 190.036 0.614088 -1.86026 0
M  V30 2019 H 188.616 -0.606819 -0.435638 0
M  V30 2020 H 191.278 -1.88713 -0.487177 0
M  V30 2021 H 190.374 -2.47958 -1.89534 0
M  V30 2022 N 190.675 0.682077 -1.42076 0
M  V30 2023 C 191.625 1.78823 -1.41444 0
M  V30 2024 C 192.609 1.58323 -0.28681 0
M  V30 2025 O 193.801 1.68926 -0.528498 0
M  V30 2026 C 190.93 3.17232 -1.3122 0
M  V30 2027 C 190.016 3.4338 -2.489 0
M  V30 2028 N 190.407 3.40152 -3.7434 0
M  V30 2029 C 188.705 3.73986 -2.43003 0
M  V30 2030 C 189.406 3.65581 -4.52466 0
M  V30 2031 N 188.382 3.85989 -3.8277 0
M  V30 2032 H 192.184 1.7471 -2.36334 0
M  V30 2033 H 189.698 0.882622 -1.36321 0
M  V30 2034 H 191.695 3.96489 -1.2885 0
M  V30 2035 H 190.355 3.22547 -0.373263 0
M  V30 2036 H 191.366 3.20221 -4.07037 0
M  V30 2037 H 188.043 3.86591 -1.57651 0
M  V30 2038 H 189.433 3.69108 -5.61435 0
M  V30 2039 N 192.153 1.28127 0.917671 0
M  V30 2040 C 193.085 1.07517 2.02417 0
M  V30 2041 C 194.098 0.0281099 1.62776 0
M  V30 2042 O 195.287 0.270748 1.76435 0
M  V30 2043 C 192.387 0.610957 3.33347 0
M  V30 2044 C 191.56 1.73255 4.01624 0
M  V30 2045 C 190.619 1.26238 5.10833 0
M  V30 2046 O 189.645 1.96389 5.34247 0
M  V30 2047 N 190.847 0.123448 5.80369 0
M  V30 2048 H 193.612 2.02806 2.20658 0
M  V30 2049 H 191.173 1.19827 1.08871 0
M  V30 2050 H 193.165 0.280101 4.0373 0
M  V30 2051 H 191.735 -0.24898 3.11607 0
M  V30 2052 H 190.955 2.23319 3.24842 0
M  V30 2053 H 192.243 2.48503 4.43986 0
M  V30 2054 H 191.641 -0.461847 5.63812 0
M  V30 2055 H 190.198 -0.148158 6.51632 0
M  V30 2056 N 193.631 -1.12557 1.10312 0
M  V30 2057 C 194.908 -1.80363 0.756878 0
M  V30 2058 C 195.288 -1.97067 -0.756824 0
M  V30 2059 O 194.636 -1.54601 -1.68259 0
M  V30 2060 C 194.846 -3.14812 1.50647 0
M  V30 2061 C 196.194 -3.90029 1.67817 0
M  V30 2062 O 197.218 -3.24464 1.46974 0
M  V30 2063 O 196.077 -5.07652 2.02365 0
M  V30 2064 H 193.171 -0.780667 0.272926 0
M  V30 2065 H 195.717 -1.19404 1.20586 0
M  V30 2066 H 194.489 -2.97936 2.53672 0
M  V30 2067 H 194.112 -3.83478 1.05026 0
M  V30 2068 N 195.109 -0.891671 -1.2995 0
M  V30 2069 C 196.355 -0.514261 -1.96171 0
M  V30 2070 C 196.688 0.935506 -1.70182 0
M  V30 2071 O 195.963 1.66204 -1.01028 0
M  V30 2072 C 196.246 -0.797719 -3.51153 0
M  V30 2073 C 196.099 -2.2986 -3.86632 0
M  V30 2074 C 197.418 -0.278749 -4.39216 0
M  V30 2075 H 194.537 -0.188314 -0.712535 0
M  V30 2076 H 197.179 -1.11689 -1.53706 0
M  V30 2077 H 195.329 -0.284826 -3.87455 0
M  V30 2078 H 197.001 -2.88042 -3.60319 0
M  V30 2079 H 195.244 -2.76257 -3.34462 0
M  V30 2080 H 195.915 -2.44753 -4.94773 0
M  V30 2081 H 198.391 -0.717825 -4.09862 0
M  V30 2082 H 197.267 -0.506353 -5.46559 0
M  V30 2083 H 197.528 0.820266 -4.34424 0
M  V30 2084 N 196.587 1.43421 -0.653314 0
M  V30 2085 C 197.833 2.02111 -0.166992 0
M  V30 2086 C 198.166 1.51423 1.21592 0
M  V30 2087 O 197.441 0.707389 1.8118 0
M  V30 2088 C 197.724 3.5966 -0.177948 0
M  V30 2089 C 197.577 4.20579 -1.59478 0
M  V30 2090 C 198.896 4.37413 0.4856 0
M  V30 2091 H 196.015 0.734374 -0.0621557 0
M  V30 2092 H 198.657 1.70717 -0.834016 0
M  V30 2093 H 196.807 3.86537 0.390032 0
M  V30 2094 H 198.479 4.04732 -2.21336 0
M  V30 2095 H 196.722 3.77226 -2.14204 0
M  V30 2096 H 197.393 5.29665 -1.5543 0
M  V30 2097 H 199.869 4.161 0.00234528 0
M  V30 2098 H 198.745 5.47075 0.447207 0
M  V30 2099 H 199.006 4.13672 1.55974 0
M  V30 2100 N 198.065 0.39524 1.52563 0
M  V30 2101 C 199.311 -0.185318 2.01952 0
M  V30 2102 C 199.644 -1.45964 1.28095 0
M  V30 2103 O 198.919 -1.90689 0.38315 0
M  V30 2104 C 199.202 -0.447193 3.57312 0
M  V30 2105 C 199.055 0.842828 4.41833 0
M  V30 2106 C 200.374 -1.23529 4.22408 0
M  V30 2107 H 197.493 -0.0658788 0.73405 0
M  V30 2108 H 200.135 0.525975 1.82575 0
M  V30 2109 H 198.285 -1.05312 3.73954 0
M  V30 2110 H 199.957 1.4795 4.36931 0
M  V30 2111 H 198.2 1.45686 4.08605 0
M  V30 2112 H 198.871 0.614165 5.48573 0
M  V30 2113 H 201.347 -0.722445 4.0978 0
M  V30 2114 H 200.223 -1.38727 5.3108 0
M  V30 2115 H 200.484 -2.25213 3.80436 0
M  V30 2116 N 199.544 -1.57102 0.125237 0
M  V30 2117 C 200.474 -2.18659 -0.819174 0
M  V30 2118 C 201.455 -1.12843 -1.27281 0
M  V30 2119 O 202.64 -1.41104 -1.33429 0
M  V30 2120 C 199.77 -2.79096 -2.06695 0
M  V30 2121 C 198.724 -3.90548 -1.75088 0
M  V30 2122 C 198.05 -4.37821 -3.06948 0
M  V30 2123 C 199.35 -5.12356 -1.01435 0
M  V30 2124 H 201.044 -2.9783 -0.306202 0
M  V30 2125 H 198.59 -1.4326 -0.145839 0
M  V30 2126 H 200.543 -3.2082 -2.73226 0
M  V30 2127 H 199.267 -1.97223 -2.60328 0
M  V30 2128 H 197.926 -3.49409 -1.10944 0
M  V30 2129 H 197.574 -3.52799 -3.58527 0
M  V30 2130 H 197.274 -5.12982 -2.86571 0
M  V30 2131 H 198.798 -4.822 -3.74587 0
M  V30 2132 H 200.212 -5.5106 -1.58132 0
M  V30 2133 H 198.609 -5.9314 -0.911319 0
M  V30 2134 H 199.679 -4.849 -0.00218681 0
M  V30 2135 N 201.022 0.148545 -1.56898 0
M  V30 2136 C 202.299 0.890019 -1.74178 0
M  V30 2137 C 202.679 1.99407 -0.692839 0
M  V30 2138 O 202.027 2.26671 0.288505 0
M  V30 2139 C 202.237 1.43389 -3.18183 0
M  V30 2140 C 203.585 1.89791 -3.79822 0
M  V30 2141 O 204.609 1.53134 -3.21603 0
M  V30 2142 O 203.468 2.57387 -4.82093 0
M  V30 2143 H 200.562 0.420496 -0.712118 0
M  V30 2144 H 203.108 0.134591 -1.69165 0
M  V30 2145 H 201.88 0.640383 -3.86024 0
M  V30 2146 H 201.503 2.25287 -3.27615 0
M  V30 2147 N 202.5 1.5196 0.417844 0
M  V30 2148 C 203.45 1.7106 1.5074 0
M  V30 2149 C 204.434 0.564487 1.50673 0
M  V30 2150 O 205.626 0.821206 1.56797 0
M  V30 2151 C 202.755 1.85677 2.88754 0
M  V30 2152 C 201.841 3.06133 2.93502 0
M  V30 2153 N 202.232 4.28987 2.67962 0
M  V30 2154 C 200.53 3.05787 3.24669 0
M  V30 2155 C 201.231 5.10395 2.79055 0
M  V30 2156 N 200.207 4.45455 3.11561 0
M  V30 2157 H 204.009 2.63696 1.29775 0
M  V30 2158 H 201.523 1.49873 0.625436 0
M  V30 2159 H 203.52 1.97475 3.67164 0
M  V30 2160 H 202.18 0.942348 3.10725 0
M  V30 2161 H 203.191 4.57607 2.4252 0
M  V30 2162 H 199.868 2.2405 3.52289 0
M  V30 2163 H 201.258 6.18247 2.63097 0
M  V30 2164 N 203.978 -0.674533 1.42435 0
M  V30 2165 C 204.941 -1.76986 1.45632 0
M  V30 2166 C 205.941 -1.5708 0.343871 0
M  V30 2167 O 207.131 -1.63367 0.604709 0
M  V30 2168 C 204.263 -3.15623 1.28822 0
M  V30 2169 H 205.456 -1.75539 2.43158 0
M  V30 2170 H 203.009 -0.884189 1.28887 0
M  V30 2171 H 203.744 -3.22696 0.322193 0
M  V30 2172 H 203.529 -3.31475 2.09444 0
M  V30 2173 H 205.019 -3.95537 1.33942 0
M  V30 2174 N 205.456 -1.28612 -0.910864 0
M  V30 2175 C 206.686 -1.1862 -1.69153 0
M  V30 2176 C 207.094 0.257324 -1.87442 0
M  V30 2177 O 206.437 1.18543 -1.40332 0
M  V30 2178 C 206.499 -1.81606 -3.10257 0
M  V30 2179 C 206.163 -3.30864 -3.15243 0
M  V30 2180 C 207.16 -4.27256 -2.96223 0
M  V30 2181 C 204.845 -3.71871 -3.37664 0
M  V30 2182 C 206.839 -5.62631 -2.99541 0
M  V30 2183 C 204.526 -5.07371 -3.40614 0
M  V30 2184 C 205.524 -6.02561 -3.21573 0
M  V30 2185 O 205.212 -7.35589 -3.2429 0
M  V30 2186 H 204.944 -0.412633 -0.535453 0
M  V30 2187 H 207.498 -1.70306 -1.14827 0
M  V30 2188 H 205.728 -1.24418 -3.66138 0
M  V30 2189 H 207.417 -1.66092 -3.70362 0
M  V30 2190 H 208.183 -3.9691 -2.78725 0
M  V30 2191 H 204.062 -2.98241 -3.5153 0
M  V30 2192 H 207.606 -6.36907 -2.84597 0
M  V30 2193 H 203.503 -5.37366 -3.57642 0
M  V30 2194 H 204.271 -7.44252 -3.40633 0
M  V30 2195 N 206.934 1.1197 -1.10907 0
M  V30 2196 C 207.884 2.15946 -0.731538 0
M  V30 2197 C 208.868 1.58758 0.261699 0
M  V30 2198 O 210.06 1.76863 0.0696722 0
M  V30 2199 C 207.189 3.42877 -0.170299 0
M  V30 2200 C 206.275 4.07037 -1.19087 0
M  V30 2201 N 206.666 4.46135 -2.38322 0
M  V30 2202 C 204.964 4.33884 -1.03252 0
M  V30 2203 C 205.665 4.96331 -3.03366 0
M  V30 2204 N 204.641 4.9214 -2.30865 0
M  V30 2205 H 208.443 2.43947 -1.63912 0
M  V30 2206 H 205.957 1.28927 -0.987505 0
M  V30 2207 H 207.954 4.16732 0.118271 0
M  V30 2208 H 206.614 3.16343 0.731935 0
M  V30 2209 H 207.625 4.38345 -2.75815 0
M  V30 2210 H 204.302 4.17084 -0.186256 0
M  V30 2211 H 205.692 5.36257 -4.04818 0
M  V30 2212 N 208.412 0.89855 1.29475 0
M  V30 2213 C 209.66 0.522847 1.9522 0
M  V30 2214 C 209.981 -0.93371 1.71192 0
M  V30 2215 O 209.251 -1.65823 1.04305 0
M  V30 2216 H 207.831 0.190366 0.722336 0
M  V30 2217 H 210.493 1.14459 1.5775 0
M  V30 2218 H 209.589 0.704476 3.04045 0
M  V30 2219 N 209.89 -1.43072 0.660911 0
M  V30 2220 C 210.84 -2.27948 -0.04847 0
M  V30 2221 C 211.824 -1.40325 -0.787246 0
M  V30 2222 O 213.016 -1.63893 -0.668446 0
M  V30 2223 C 210.145 -3.28143 -1.00881 0
M  V30 2224 C 209.231 -4.23252 -0.268108 0
M  V30 2225 N 209.622 -5.00656 0.719528 0
M  V30 2226 C 207.92 -4.43092 -0.508493 0
M  V30 2227 C 208.621 -5.70019 1.15988 0
M  V30 2228 N 207.597 -5.41364 0.492584 0
M  V30 2229 H 211.399 -2.85213 0.709279 0
M  V30 2230 H 208.913 -1.54869 0.488822 0
M  V30 2231 H 210.91 -3.87736 -1.53188 0
M  V30 2232 H 209.57 -2.7244 -1.76654 0
M  V30 2233 H 210.581 -5.06115 1.09855 0
M  V30 2234 H 207.258 -3.98449 -1.24679 0
M  V30 2235 H 208.648 -6.4214 1.97751 0
M  V30 2236 N 211.368 -0.403325 -1.52352 0
M  V30 2237 C 212.298 0.416205 -2.29761 0
M  V30 2238 C 213.279 1.05123 -1.33728 0
M  V30 2239 O 214.464 1.06134 -1.62632 0
M  V30 2240 C 211.594 1.53624 -3.11475 0
M  V30 2241 C 210.548 1.02653 -4.15507 0
M  V30 2242 C 209.874 2.23971 -4.85532 0
M  V30 2243 C 211.174 0.08463 -5.22231 0
M  V30 2244 H 212.868 -0.229701 -2.98518 0
M  V30 2245 H 210.414 -0.111913 -1.43564 0
M  V30 2246 H 212.367 2.1165 -3.64393 0
M  V30 2247 H 211.091 2.20994 -2.40477 0
M  V30 2248 H 209.75 0.46871 -3.63591 0
M  V30 2249 H 209.398 2.89883 -4.11068 0
M  V30 2250 H 209.098 1.90521 -5.55856 0
M  V30 2251 H 210.622 2.82614 -5.41259 0
M  V30 2252 H 212.036 0.573509 -5.70424 0
M  V30 2253 H 210.433 -0.160783 -5.99885 0
M  V30 2254 H 211.503 -0.86237 -4.7717 0
M  V30 2255 N 212.846 1.57033 -0.133567 0
M  V30 2256 C 214.071 2.00475 0.531477 0
M  V30 2257 C 214.496 1.01291 1.58499 0
M  V30 2258 O 213.854 -0.0133279 1.81295 0
M  V30 2259 C 213.902 3.42729 1.12113 0
M  V30 2260 O 213.006 3.46498 2.23636 0
M  V30 2261 H 212.347 0.650876 0.131362 0
M  V30 2262 H 214.877 2.03344 -0.22634 0
M  V30 2263 H 214.887 3.81246 1.4531 0
M  V30 2264 H 213.562 4.14428 0.349557 0
M  V30 2265 H 212.139 3.19811 1.91769 0
M  V30 2266 N 214.325 -0.140222 1.56975 0
M  V30 2267 C 215.55 -0.870414 1.88251 0
M  V30 2268 C 215.975 -1.73637 0.723312 0
M  V30 2269 O 215.333 -1.78329 -0.32689 0
M  V30 2270 C 215.381 -1.69737 3.18154 0
M  V30 2271 O 214.485 -2.80229 3.02565 0
M  V30 2272 H 213.826 -0.242025 0.61832 0
M  V30 2273 H 216.356 -0.128999 2.04193 0
M  V30 2274 H 216.366 -2.09099 3.50345 0
M  V30 2275 H 215.041 -1.06152 4.02125 0
M  V30 2276 H 213.618 -2.44224 2.81796 0
M  V30 2277 N 215.803 -1.52179 -0.40978 0
M  V30 2278 C 216.733 -1.78435 -1.5061 0
M  V30 2279 C 217.714 -0.635295 -1.57791 0
M  V30 2280 O 218.899 -0.880823 -1.73076 0
M  V30 2281 C 216.029 -1.93444 -2.88439 0
M  V30 2282 C 214.983 -3.09038 -2.96108 0
M  V30 2283 C 214.309 -3.09268 -4.36185 0
M  V30 2284 C 215.609 -4.48508 -2.67652 0
M  V30 2285 H 217.303 -2.70237 -1.28889 0
M  V30 2286 H 214.849 -1.30036 -0.618605 0
M  V30 2287 H 216.802 -2.10394 -3.65119 0
M  V30 2288 H 215.526 -0.983129 -3.11452 0
M  V30 2289 H 214.185 -2.91837 -2.21872 0
M  V30 2290 H 213.833 -2.11861 -4.56206 0
M  V30 2291 H 213.533 -3.86907 -4.42241 0
M  V30 2292 H 215.057 -3.28348 -5.14801 0
M  V30 2293 H 216.471 -4.65918 -3.34056 0
M  V30 2294 H 214.868 -5.28059 -2.85085 0
M  V30 2295 H 215.938 -4.56649 -1.63095 0
M  V30 2296 N 217.281 0.66697 -1.42791 0
M  V30 2297 C 218.53 1.42278 -1.42968 0
M  V30 2298 C 218.843 1.9553 -0.0524489 0
M  V30 2299 O 220.049 2.71414 0.068363 0
M  V30 2300 C 218.505 2.57418 -2.51524 0
M  V30 2301 C 218.113 2.10832 -3.9529 0
M  V30 2302 C 219.857 3.34878 -2.60877 0
M  V30 2303 C 217.764 3.23101 -4.95338 0
M  V30 2304 H 216.694 0.534533 -0.531781 0
M  V30 2305 H 219.345 0.721302 -1.68729 0
M  V30 2306 H 217.727 3.29971 -2.18941 0
M  V30 2307 H 218.901 1.4538 -4.37266 0
M  V30 2308 H 217.216 1.46289 -3.89857 0
M  V30 2309 H 219.813 4.18505 -3.32802 0
M  V30 2310 H 220.156 3.81993 -1.6549 0
M  V30 2311 H 220.689 2.69398 -2.92693 0
M  V30 2312 H 217.428 2.80969 -5.9223 0
M  V30 2313 H 216.948 3.87309 -4.57987 0
M  V30 2314 H 218.627 3.88447 -5.17415 0
M  V30 2315 N 218.759 1.29093 0.90403 0
M  V30 2316 C 220.036 1.075 1.63411 0
M  V30 2317 C 220.416 -0.382346 2.07609 0
M  V30 2318 O 219.764 -1.37031 1.82851 0
M  V30 2319 C 219.974 2.05858 2.81822 0
M  V30 2320 C 221.322 2.36539 3.52611 0
M  V30 2321 O 222.346 2.04019 2.91984 0
M  V30 2322 O 221.205 2.92085 4.61897 0
M  V30 2323 H 218.299 0.411547 0.717327 0
M  V30 2324 H 220.845 1.40449 0.952479 0
M  V30 2325 H 219.617 3.04037 2.46327 0
M  V30 2326 H 219.24 1.73613 3.57693 0
M  V30 2327 N 220.237 -1.11381 1.11499 0
M  V30 2328 C 221.486 -1.82494 0.858993 0
M  V30 2329 C 221.799 -1.85605 -0.617278 0
M  V30 2330 O 223.005 -2.52824 -0.989552 0
M  V30 2331 C 221.461 -3.27745 1.48699 0
M  V30 2332 C 221.069 -3.32961 2.99735 0
M  V30 2333 C 222.813 -4.03754 1.31085 0
M  V30 2334 C 220.72 -4.72612 3.55516 0
M  V30 2335 H 219.65 -0.683802 0.317696 0
M  V30 2336 H 222.301 -1.25331 1.34031 0
M  V30 2337 H 220.683 -3.84844 0.933339 0
M  V30 2338 H 221.857 -2.85741 3.61509 0
M  V30 2339 H 220.172 -2.70433 3.16631 0
M  V30 2340 H 222.769 -5.06891 1.70192 0
M  V30 2341 H 223.112 -4.15527 0.253496 0
M  V30 2342 H 223.645 -3.53043 1.83318 0
M  V30 2343 H 220.384 -4.66036 4.60967 0
M  V30 2344 H 219.904 -5.2024 2.98513 0
M  V30 2345 H 221.583 -5.4157 3.53992 0
M  V30 2346 N 221.715 -0.905404 -1.28997 0
M  V30 2347 C 222.94 -0.549175 -1.99997 0
M  V30 2348 C 223.365 0.860276 -1.67275 0
M  V30 2349 O 222.723 1.57355 -0.900502 0
M  V30 2350 C 222.771 -0.755185 -3.52604 0
M  V30 2351 O 221.875 0.189692 -4.11964 0
M  V30 2352 H 221.216 -0.213899 -0.628604 0
M  V30 2353 H 223.746 -1.21856 -1.64354 0
M  V30 2354 H 223.756 -0.662045 -4.02593 0
M  V30 2355 H 222.431 -1.78271 -3.75755 0
M  V30 2356 H 221.008 0.0485257 -3.72868 0
M  V30 2357 N 223.193 1.4272 -0.668489 0
M  V30 2358 C 224.604 1.84793 -0.266151 0
M  V30 2359 C 224.955 1.55959 1.19043 0
M  V30 2360 O 224.08 1.01622 1.91055 0
M  V30 2361 C 224.675 3.35436 -0.476271 0
M  V30 2362 C 223.234 3.76182 -0.128113 0
M  V30 2363 C 222.381 2.66344 -0.771777 0
M  V30 2364 H 225.332 1.32656 -0.871098 0
M  V30 2365 H 225.353 3.79515 0.273561 0
M  V30 2366 H 224.865 3.5639 -1.53647 0
M  V30 2367 H 222.966 3.60836 0.928891 0
M  V30 2368 H 223.079 4.75766 -0.564231 0
M  V30 2369 H 221.443 2.53885 -0.203652 0
M  V30 2370 H 222.226 2.90123 -1.83531 0
M  V30 2371 N 224.671 0.411399 1.52136 0
M  V30 2372 C 225.901 -0.16284 2.05957 0
M  V30 2373 C 226.309 -1.3922 1.28119 0
M  V30 2374 O 225.652 -1.80768 0.326881 0
M  V30 2375 C 225.714 -0.575946 3.54856 0
M  V30 2376 C 225.378 0.542998 4.53763 0
M  V30 2377 C 226.375 1.40726 5.00492 0
M  V30 2378 C 224.06 0.716337 4.97166 0
M  V30 2379 C 226.054 2.4298 5.8927 0
M  V30 2380 C 223.741 1.74218 5.8574 0
M  V30 2381 C 224.739 2.59731 6.31687 0
M  V30 2382 O 224.427 3.60558 7.18507 0
M  V30 2383 H 224.159 -0.0229125 0.675612 0
M  V30 2384 H 226.713 0.581634 1.96993 0
M  V30 2385 H 224.943 -1.37274 3.61515 0
M  V30 2386 H 226.632 -1.07836 3.91313 0
M  V30 2387 H 227.398 1.28476 4.67674 0
M  V30 2388 H 223.277 0.0603857 4.6096 0
M  V30 2389 H 226.821 3.0976 6.25055 0
M  V30 2390 H 222.718 1.86498 6.17971 0
M  V30 2391 H 223.486 3.56829 7.36624 0
M  V30 2392 N 226.149 -1.5696 0.141893 0
M  V30 2393 C 227.096 -2.16501 -0.799737 0
M  V30 2394 C 228.066 -1.09643 -1.24771 0
M  V30 2395 O 229.251 -1.3766 -1.32115 0
M  V30 2396 C 226.391 -2.78679 -2.03549 0
M  V30 2397 C 225.504 -3.99914 -1.6338 0
M  V30 2398 C 224.639 -4.50106 -2.82096 0
M  V30 2399 C 223.678 -5.63819 -2.38275 0
M  V30 2400 N 222.815 -6.08651 -3.49983 0
M  V30 2401 H 227.655 -2.96632 -0.285179 0
M  V30 2402 H 225.192 -1.46533 -0.129053 0
M  V30 2403 H 227.15 -3.1287 -2.75986 0
M  V30 2404 H 225.78 -2.012 -2.52425 0
M  V30 2405 H 224.832 -3.71735 -0.807279 0
M  V30 2406 H 226.144 -4.82311 -1.27192 0
M  V30 2407 H 225.298 -4.86325 -3.62729 0
M  V30 2408 H 224.037 -3.66706 -3.21525 0
M  V30 2409 H 223.042 -5.2718 -1.56081 0
M  V30 2410 H 224.267 -6.49 -1.99938 0
M  V30 2411 H 222.213 -5.28188 -3.89042 0
M  V30 2412 H 222.13 -6.85961 -3.17794 0
M  V30 2413 H 223.398 -6.49515 -4.30988 0
M  V30 2414 N 227.627 0.131896 -1.57047 0
M  V30 2415 C 228.874 0.841932 -1.84168 0
M  V30 2416 C 229.202 1.8048 -0.725066 0
M  V30 2417 O 228.457 1.93618 0.284692 0
M  V30 2418 C 228.756 1.63703 -3.17704 0
M  V30 2419 C 228.422 0.81961 -4.43388 0
M  V30 2420 C 227.084 0.594148 -4.77518 0
M  V30 2421 C 229.436 0.248977 -5.20605 0
M  V30 2422 C 226.764 -0.212409 -5.86315 0
M  V30 2423 C 229.116 -0.544701 -6.30251 0
M  V30 2424 C 227.78 -0.780599 -6.6292 0
M  V30 2425 H 227.05 0.308085 -0.673917 0
M  V30 2426 H 229.697 0.104867 -1.91213 0
M  V30 2427 H 228.002 2.44464 -3.06177 0
M  V30 2428 H 229.699 2.19015 -3.35907 0
M  V30 2429 H 226.289 1.00542 -4.16641 0
M  V30 2430 H 230.473 0.410408 -4.946 0
M  V30 2431 H 225.729 -0.404524 -6.1006 0
M  V30 2432 H 229.903 -0.993922 -6.89271 0
M  V30 2433 H 227.53 -1.40742 -7.47058 0
M  V30 2434 N 229.106 1.52395 0.401703 0
M  V30 2435 C 230.522 1.41363 0.740864 0
M  V30 2436 C 230.722 0.523982 1.94568 0
M  V30 2437 O 229.778 -0.00741204 2.52499 0
M  V30 2438 C 231.091 2.84011 0.987847 0
M  V30 2439 C 232.639 2.93404 1.09011 0
M  V30 2440 C 233.114 4.37036 1.3698 0
M  V30 2441 N 234.605 4.40304 1.43829 0
M  V30 2442 C 235.34 5.48508 1.67112 0
M  V30 2443 N 234.836 6.66819 1.87949 0
M  V30 2444 N 236.629 5.36034 1.69187 0
M  V30 2445 H 228.78 2.08765 -0.391262 0
M  V30 2446 H 231.043 0.941265 -0.112798 0
M  V30 2447 H 230.749 3.51265 0.174835 0
M  V30 2448 H 230.623 3.25502 1.906 0
M  V30 2449 H 233.01 2.26325 1.8937 0
M  V30 2450 H 233.091 2.55359 0.15015 0
M  V30 2451 H 232.735 5.04676 0.571353 0
M  V30 2452 H 232.665 4.72623 2.3224 0
M  V30 2453 H 235.156 3.55024 1.29486 0
M  V30 2454 H 235.469 7.45063 2.05185 0
M  V30 2455 H 233.814 6.6987 1.85199 0
M  V30 2456 H 237.005 4.42579 1.52451 0
M  V30 2457 H 237.178 6.20434 1.86993 0
M  V30 2458 N 230.584 -0.659388 1.43143 0
M  V30 2459 C 231.532 -1.79374 1.4808 0
M  V30 2460 C 232.526 -1.65639 0.354988 0
M  V30 2461 O 233.732 -1.7206 0.528704 0
M  V30 2462 H 230.107 -0.591705 0.4641 0
M  V30 2463 H 232.078 -1.72329 2.43609 0
M  V30 2464 C 230.827 -3.17606 1.41499 0
M  V30 2465 H 230.15 -3.28809 2.27431 0
M  V30 2466 H 231.59 -3.96951 1.49015 0
M  V30 2467 C 230.049 -3.36642 0.131765 0
M  V30 2468 O 230.579 -3.93461 -0.809386 0
M  V30 2469 N 228.785 -2.90567 0.0439396 0
M  V30 2470 H 228.332 -2.44513 0.810619 0
M  V30 2471 H 228.29 -3.03681 -0.813969 0
M  V30 2472 N 232.062 -1.29571 -0.897171 0
M  V30 2473 C 232.992 -1.17473 -2.01798 0
M  V30 2474 C 233.973 -0.068323 -1.69963 0
M  V30 2475 O 235.158 -0.248239 -1.92607 0
M  V30 2476 C 232.288 -0.853099 -3.36659 0
M  V30 2477 C 231.242 -1.9161 -3.82713 0
M  V30 2478 C 230.568 -1.44773 -5.14728 0
M  V30 2479 C 231.868 -3.32535 -4.02763 0
M  V30 2480 H 233.562 -2.11237 -2.12177 0
M  V30 2481 H 231.108 -1.01699 -1.01948 0
M  V30 2482 H 233.061 -0.755165 -4.14578 0
M  V30 2483 H 231.785 0.120236 -3.26379 0
M  V30 2484 H 230.444 -2.00346 -3.07013 0
M  V30 2485 H 230.092 -0.462995 -5.00865 0
M  V30 2486 H 229.792 -2.15865 -5.46513 0
M  V30 2487 H 231.316 -1.36334 -5.95185 0
M  V30 2488 H 232.73 -3.26626 -4.71156 0
M  V30 2489 H 231.127 -4.01607 -4.45905 0
M  V30 2490 H 232.197 -3.75326 -3.07016 0
M  V30 2491 N 233.54 1.10788 -1.12088 0
M  V30 2492 C 234.817 1.79136 -0.785476 0
M  V30 2493 C 235.197 1.98246 0.725377 0
M  V30 2494 O 234.545 1.57258 1.65778 0
M  V30 2495 C 234.755 3.12375 -1.55636 0
M  V30 2496 C 236.103 3.8731 -1.74001 0
M  V30 2497 O 237.127 3.22085 -1.52117 0
M  V30 2498 O 235.986 5.04369 -2.10415 0
M  V30 2499 H 233.08 0.776226 -0.285311 0
M  V30 2500 H 235.626 1.1747 -1.2247 0
M  V30 2501 H 234.398 2.93863 -2.5838 0
M  V30 2502 H 234.021 3.81758 -1.11114 0
M  V30 2503 N 235.018 0.912232 1.28515 0
M  V30 2504 C 236.266 0.543523 1.94654 0
M  V30 2505 C 236.587 -0.9155 1.72173 0
M  V30 2506 O 235.857 -1.64708 1.06058 0
M  V30 2507 H 234.437 0.198017 0.720277 0
M  V30 2508 H 237.099 1.16126 1.56527 0
M  V30 2509 H 236.195 0.736684 3.03281 0
M  V30 2510 N 236.496 -1.42363 0.676048 0
M  V30 2511 C 237.428 -2.29164 -0.0404605 0
M  V30 2512 C 238.441 -1.43747 -0.764245 0
M  V30 2513 O 239.63 -1.67453 -0.618195 0
M  V30 2514 C 236.73 -3.21196 -1.08103 0
M  V30 2515 C 235.903 -4.35273 -0.430812 0
M  V30 2516 C 234.962 -5.08017 -1.37133 0
M  V30 2517 O 233.988 -5.62494 -0.87116 0
M  V30 2518 N 235.19 -5.13647 -2.70456 0
M  V30 2519 H 237.955 -2.91298 0.704667 0
M  V30 2520 H 235.516 -1.53303 0.520559 0
M  V30 2521 H 237.508 -3.66728 -1.71152 0
M  V30 2522 H 236.078 -2.60505 -1.72788 0
M  V30 2523 H 235.298 -3.92372 0.379209 0
M  V30 2524 H 236.586 -5.08795 0.0221132 0
M  V30 2525 H 235.984 -4.708 -3.1363 0
M  V30 2526 H 234.541 -5.62821 -3.28749 0
M  V30 2527 N 237.974 -0.419461 -1.51915 0
M  V30 2528 C 238.921 0.400927 -2.27291 0
M  V30 2529 C 239.891 1.03224 -1.30131 0
M  V30 2530 O 241.076 1.05455 -1.59009 0
M  V30 2531 C 238.216 1.50603 -3.10504 0
M  V30 2532 C 237.329 0.89462 -4.22635 0
M  V30 2533 C 236.464 1.97328 -4.93189 0
M  V30 2534 C 235.503 1.33935 -5.97267 0
M  V30 2535 N 234.64 2.3586 -6.61298 0
M  V30 2536 H 239.48 -0.248251 -2.96964 0
M  V30 2537 H 237.017 -0.134266 -1.46486 0
M  V30 2538 H 238.975 2.15783 -3.57062 0
M  V30 2539 H 237.605 2.12509 -2.42981 0
M  V30 2540 H 236.657 0.131583 -3.80172 0
M  V30 2541 H 237.969 0.391641 -4.9726 0
M  V30 2542 H 237.123 2.70211 -5.43204 0
M  V30 2543 H 235.862 2.50994 -4.18155 0
M  V30 2544 H 234.867 0.595896 -5.46561 0
M  V30 2545 H 236.092 0.810252 -6.74249 0
M  V30 2546 H 234.038 2.88639 -5.89087 0
M  V30 2547 H 233.955 1.90403 -7.3163 0
M  V30 2548 H 235.223 3.08282 -7.15949 0
M  V30 2549 N 239.452 1.56882 -0.150215 0
M  V30 2550 C 240.362 2.20494 0.801222 0
M  V30 2551 C 241.378 1.19019 1.26927 0
M  V30 2552 O 242.554 1.51607 1.32579 0
M  V30 2553 C 239.619 2.81659 2.02161 0
M  V30 2554 C 238.68 3.9827 1.60249 0
M  V30 2555 C 237.913 4.56508 2.7647 0
M  V30 2556 O 238.136 4.13627 3.92771 0
M  V30 2557 O 237.07 5.46719 2.51757 0
M  V30 2558 H 240.896 3.02315 0.289717 0
M  V30 2559 H 238.481 1.49202 0.0769684 0
M  V30 2560 H 240.363 3.20522 2.73576 0
M  V30 2561 H 239.038 2.02849 2.52258 0
M  V30 2562 H 237.945 3.64117 0.858477 0
M  V30 2563 H 239.278 4.78609 1.14864 0
M  V30 2564 N 240.93 -0.123565 1.57115 0
M  V30 2565 C 242.176 -0.828428 1.85765 0
M  V30 2566 C 242.531 -1.77709 0.737371 0
M  V30 2567 O 241.824 -1.89787 -0.262978 0
M  V30 2568 C 242.018 -1.62016 3.18568 0
M  V30 2569 C 241.847 -0.749663 4.43407 0
M  V30 2570 C 240.617 -0.406251 5.03664 0
M  V30 2571 C 242.815 -0.0693505 5.14253 0
M  V30 2572 N 240.797 0.475389 6.12057 0
M  V30 2573 C 242.168 0.671474 6.16353 0
M  V30 2574 C 244.223 0.00754393 4.97899 0
M  V30 2575 C 242.926 1.48197 7.03868 0
M  V30 2576 C 244.952 0.804845 5.85898 0
M  V30 2577 C 244.314 1.53388 6.87497 0
M  V30 2578 H 240.413 -0.280219 0.73007 0
M  V30 2579 H 242.997 -0.0924183 1.94481 0
M  V30 2580 H 241.168 -2.32724 3.10957 0
M  V30 2581 H 242.9 -2.27 3.35042 0
M  V30 2582 H 239.655 -0.747446 4.67665 0
M  V30 2583 H 240.079 0.907924 6.70884 0
M  V30 2584 H 244.721 -0.541741 4.19315 0
M  V30 2585 H 242.439 2.04242 7.81864 0
M  V30 2586 H 246.025 0.866642 5.75309 0
M  V30 2587 H 244.905 2.1409 7.5441 0
M  V30 2588 N 242.408 -1.52605 -0.393616 0
M  V30 2589 C 243.654 -1.67672 -1.14079 0
M  V30 2590 C 243.987 -0.413121 -1.89755 0
M  V30 2591 O 243.262 0.588952 -1.85369 0
M  V30 2592 C 243.545 -2.9088 -2.12276 0
M  V30 2593 C 243.398 -4.27329 -1.40394 0
M  V30 2594 C 244.717 -3.09628 -3.12759 0
M  V30 2595 H 241.836 -0.610168 -0.413356 0
M  V30 2596 H 244.478 -1.85193 -0.424696 0
M  V30 2597 H 242.628 -2.76073 -2.73342 0
M  V30 2598 H 244.3 -4.53894 -0.82327 0
M  V30 2599 H 242.543 -4.2802 -0.705801 0
M  V30 2600 H 243.214 -5.09615 -2.12123 0
M  V30 2601 H 245.69 -3.23436 -2.61779 0
M  V30 2602 H 244.566 -3.97322 -3.78717 0
M  V30 2603 H 244.827 -2.23637 -3.81365 0
M  V30 2604 N 243.887 0.651787 -1.4349 0
M  V30 2605 C 244.837 1.75783 -1.45205 0
M  V30 2606 C 245.821 1.57679 -0.320328 0
M  V30 2607 O 247.013 1.67767 -0.564211 0
M  V30 2608 C 244.142 3.14377 -1.3792 0
M  V30 2609 C 243.228 3.38023 -2.56127 0
M  V30 2610 N 243.619 3.32135 -3.81471 0
M  V30 2611 C 241.917 3.68747 -2.50882 0
M  V30 2612 C 242.618 3.55902 -4.60118 0
M  V30 2613 N 241.594 3.77783 -3.90872 0
M  V30 2614 H 245.396 1.69657 -2.39987 0
M  V30 2615 H 242.91 0.853508 -1.38163 0
M  V30 2616 H 244.907 3.93666 -1.37231 0
M  V30 2617 H 243.567 3.21683 -0.441596 0
M  V30 2618 H 244.578 3.11515 -4.13738 0
M  V30 2619 H 241.255 3.8316 -1.65816 0
M  V30 2620 H 242.645 3.57116 -5.69138 0
M  V30 2621 N 245.365 1.30045 0.890287 0
M  V30 2622 C 246.611 1.18737 1.64406 0
M  V30 2623 C 246.944 -0.258525 1.92472 0
M  V30 2624 O 246.219 -1.18562 1.54186 0
M  V30 2625 C 246.502 2.01087 2.98724 0
M  V30 2626 C 246.355 3.53867 2.77665 0
M  V30 2627 C 247.674 1.84457 3.9958 0
M  V30 2628 H 244.793 0.432698 0.596608 0
M  V30 2629 H 247.435 1.5962 1.0306 0
M  V30 2630 H 245.585 1.66349 3.51084 0
M  V30 2631 H 247.257 3.98637 2.32133 0
M  V30 2632 H 245.5 3.78318 2.12269 0
M  V30 2633 H 246.171 4.06772 3.7315 0
M  V30 2634 H 248.647 2.14817 3.56361 0
M  V30 2635 H 247.523 2.44411 4.91482 0
M  V30 2636 H 247.784 0.802276 4.3476 0
M  V30 2637 N 246.843 -1.10192 1.12674 0
M  V30 2638 C 247.806 -2.14786 0.799979 0
M  V30 2639 C 248.806 -1.59711 -0.18685 0
M  V30 2640 O 249.996 -1.74156 0.0392558 0
M  V30 2641 C 247.128 -3.40374 0.189228 0
M  V30 2642 H 248.321 -2.45203 1.72671 0
M  V30 2643 H 245.874 -1.25597 0.930326 0
M  V30 2644 H 246.609 -3.15577 -0.747107 0
M  V30 2645 H 246.394 -3.81637 0.899766 0
M  V30 2646 H 247.884 -4.17594 -0.0228143 0
M  V30 2647 N 248.321 -0.919034 -1.28029 0
M  V30 2648 C 249.732 -0.600735 -1.76771 0
M  V30 2649 C 250.083 0.884024 -1.75156 0
M  V30 2650 O 249.208 1.69163 -1.34956 0
M  V30 2651 C 249.803 -1.08372 -3.21 0
M  V30 2652 C 248.362 -0.816248 -3.67443 0
M  V30 2653 C 247.509 -1.24742 -2.47658 0
M  V30 2654 H 250.46 -1.09974 -1.14418 0
M  V30 2655 H 250.481 -0.427512 -3.78091 0
M  V30 2656 H 249.993 -2.16437 -3.22144 0
M  V30 2657 H 248.094 0.250968 -3.71754 0
M  V30 2658 H 248.207 -1.4277 -4.57333 0
M  V30 2659 H 246.571 -0.666083 -2.45836 0
M  V30 2660 H 247.354 -2.33653 -2.51518 0
M  V30 2661 N 249.799 1.42003 -0.683588 0
M  V30 2662 C 250.729 2.33487 -0.024866 0
M  V30 2663 C 251.71 1.51163 0.779975 0
M  V30 2664 O 252.895 1.79739 0.735362 0
M  V30 2665 C 250.025 3.3487 0.920836 0
M  V30 2666 C 248.979 4.27414 0.223958 0
M  V30 2667 C 248.305 5.19074 1.2832 0
M  V30 2668 C 249.605 5.14445 -0.90242 0
M  V30 2669 H 251.299 2.88819 -0.788921 0
M  V30 2670 H 248.845 1.38873 -0.38083 0
M  V30 2671 H 250.798 3.97787 1.39081 0
M  V30 2672 H 249.522 2.77861 1.71642 0
M  V30 2673 H 248.181 3.65904 -0.225864 0
M  V30 2674 H 247.829 4.58387 2.071 0
M  V30 2675 H 247.529 5.81822 0.821995 0
M  V30 2676 H 249.053 5.84867 1.75392 0
M  V30 2677 H 250.467 5.70998 -0.513272 0
M  V30 2678 H 248.864 5.86072 -1.28997 0
M  V30 2679 H 249.934 4.52322 -1.74737 0
M  V30 2680 N 251.277 0.427512 1.51691 0
M  V30 2681 C 252.688 -0.0378867 1.86662 0
M  V30 2682 C 253.039 -1.42819 1.34525 0
M  V30 2683 O 252.164 -2.05037 0.692014 0
M  V30 2684 C 252.759 -0.0755266 3.38716 0
M  V30 2685 C 251.318 -0.485309 3.73258 0
M  V30 2686 C 250.465 0.328399 2.75349 0
M  V30 2687 H 253.416 0.64379 1.45055 0
M  V30 2688 H 253.437 -0.887056 3.70016 0
M  V30 2689 H 252.949 0.936487 3.76632 0
M  V30 2690 H 251.05 -1.50329 3.40928 0
M  V30 2691 H 251.163 -0.21693 4.78609 0
M  V30 2692 H 249.527 -0.211905 2.53817 0
M  V30 2693 H 250.31 1.3391 3.16106 0
M  V30 2694 N 252.755 -1.56801 0.158532 0
M  V30 2695 C 254.032 -1.88131 -0.535357 0
M  V30 2696 C 254.412 -1.06638 -1.82186 0
M  V30 2697 O 253.76 -0.156533 -2.27963 0
M  V30 2698 C 253.97 -3.39949 -0.789653 0
M  V30 2699 C 255.318 -4.09416 -1.12533 0
M  V30 2700 O 256.342 -3.45194 -0.878622 0
M  V30 2701 O 255.201 -5.22855 -1.59014 0
M  V30 2702 H 252.295 -0.780143 -0.27442 0
M  V30 2703 H 254.841 -1.68564 0.19601 0
M  V30 2704 H 253.613 -3.91115 0.120353 0
M  V30 2705 H 253.236 -3.65084 -1.57479 0
M  V30 2706 N 254.233 0.115231 -1.57178 0
M  V30 2707 C 255.461 0.836437 -1.89239 0
M  V30 2708 C 255.876 1.73256 -0.750175 0
M  V30 2709 O 255.233 1.80357 0.278832 0
M  V30 2710 C 255.284 1.66671 -3.20785 0
M  V30 2711 O 255.005 0.806652 -4.3061 0
M  V30 2712 C 256.506 2.49274 -3.66575 0
M  V30 2713 H 253.726 0.240253 -0.626514 0
M  V30 2714 H 256.27 0.0984932 -2.04263 0
M  V30 2715 H 254.425 2.35737 -3.0742 0
M  V30 2716 H 254.839 1.37969 -5.06028 0
M  V30 2717 H 256.313 3.03055 -4.6137 0
M  V30 2718 H 256.79 3.26807 -2.93417 0
M  V30 2719 H 257.396 1.85443 -3.82741 0
M  V30 2720 N 255.711 1.52812 0.385517 0
M  V30 2721 C 256.941 1.71658 1.14966 0
M  V30 2722 C 257.349 0.436253 1.84102 0
M  V30 2723 O 256.692 -0.599313 1.73649 0
M  V30 2724 C 256.754 2.81309 2.23843 0
M  V30 2725 C 256.418 4.22313 1.74644 0
M  V30 2726 C 257.415 5.05352 1.22129 0
M  V30 2727 C 255.1 4.68648 1.80761 0
M  V30 2728 C 257.094 6.32807 0.763838 0
M  V30 2729 C 254.781 5.96086 1.34627 0
M  V30 2730 C 255.779 6.77996 0.825264 0
M  V30 2731 O 255.467 8.03045 0.370669 0
M  V30 2732 H 255.199 0.578022 0.350523 0
M  V30 2733 H 257.753 2.00263 0.456509 0
M  V30 2734 H 255.983 2.48133 2.96592 0
M  V30 2735 H 257.672 2.88524 2.85497 0
M  V30 2736 H 258.438 4.70736 1.16758 0
M  V30 2737 H 254.317 4.04979 2.20256 0
M  V30 2738 H 257.861 6.96689 0.356494 0
M  V30 2739 H 253.758 6.30205 1.39686 0
M  V30 2740 H 254.526 8.17021 0.491829 0
M  V30 2741 N 257.189 -0.644168 1.43834 0
M  V30 2742 C 258.605 -0.960875 1.27434 0
M  V30 2743 C 258.805 -2.00499 0.200618 0
M  V30 2744 O 257.861 -2.49018 -0.417906 0
M  V30 2745 C 259.174 -1.43653 2.64167 0
M  V30 2746 C 260.722 -1.55271 2.71772 0
M  V30 2747 C 261.197 -2.06224 4.08944 0
M  V30 2748 N 262.688 -2.13513 4.11055 0
M  V30 2749 C 263.423 -2.54081 5.14033 0
M  V30 2750 N 262.919 -2.9388 6.27381 0
M  V30 2751 N 264.712 -2.54101 5.01387 0
M  V30 2752 H 256.863 0.0465779 2.12349 0
M  V30 2753 H 259.126 -0.0417638 0.94708 0
M  V30 2754 H 258.832 -0.743706 3.43747 0
M  V30 2755 H 258.706 -2.40993 2.90176 0
M  V30 2756 H 261.093 -2.23653 1.92519 0
M  V30 2757 H 261.174 -0.563395 2.49519 0
M  V30 2758 H 260.818 -1.38441 4.88668 0
M  V30 2759 H 260.748 -3.06003 4.28567 0
M  V30 2760 H 263.239 -1.85493 3.29242 0
M  V30 2761 H 263.552 -3.2361 7.01781 0
M  V30 2762 H 261.897 -2.91663 6.30839 0
M  V30 2763 H 265.088 -2.22391 4.11898 0
M  V30 2764 H 265.261 -2.85394 5.81768 0
M  V30 2765 N 258.668 -1.30515 -0.883378 0
M  V30 2766 C 259.916 -1.19194 -1.63209 0
M  V30 2767 C 260.237 0.253205 -1.93349 0
M  V30 2768 O 259.507 1.17025 -1.57105 0
M  V30 2769 H 258.087 -0.438148 -0.605009 0
M  V30 2770 H 260.749 -1.63663 -1.05832 0
M  V30 2771 H 259.845 -1.75396 -2.58153 0
M  V30 2772 N 260.146 1.09593 -1.13257 0
M  V30 2773 C 261.557 1.63229 -0.906274 0
M  V30 2774 C 261.908 1.8811 0.557578 0
M  V30 2775 O 261.033 1.62953 1.42391 0
M  V30 2776 C 261.628 2.96535 -1.63867 0
M  V30 2777 C 260.187 3.47003 -1.45828 0
M  V30 2778 C 259.334 2.2145 -1.66898 0
M  V30 2779 H 262.285 0.92978 -1.28611 0
M  V30 2780 H 262.306 3.64411 -1.09476 0
M  V30 2781 H 261.818 2.78394 -2.70404 0
M  V30 2782 H 259.919 3.70272 -0.415848 0
M  V30 2783 H 260.032 4.24551 -2.2202 0
M  V30 2784 H 258.396 2.30022 -1.09371 0
M  V30 2785 H 259.179 2.0583 -2.74752 0
M  V30 2786 N 261.624 0.925811 1.2754 0
M  V30 2787 C 262.854 0.580666 1.98272 0
M  V30 2788 C 263.262 -0.845207 1.69272 0
M  V30 2789 O 262.605 -1.57306 0.948707 0
M  V30 2790 C 262.667 0.724418 3.52126 0
M  V30 2791 C 262.331 2.12206 4.04744 0
M  V30 2792 C 263.328 3.09604 4.17662 0
M  V30 2793 C 261.013 2.4385 4.39138 0
M  V30 2794 C 263.007 4.36755 4.64246 0
M  V30 2795 C 260.694 3.71237 4.85414 0
M  V30 2796 C 261.692 4.67503 4.97926 0
M  V30 2797 O 261.38 5.92624 5.43187 0
M  V30 2798 H 261.112 0.218987 0.639547 0
M  V30 2799 H 263.666 1.24452 1.63404 0
M  V30 2800 H 261.896 0.0034663 3.867 0
M  V30 2801 H 263.585 0.384607 4.04074 0
M  V30 2802 H 264.351 2.86478 3.91351 0
M  V30 2803 H 260.23 1.69665 4.28643 0
M  V30 2804 H 263.774 5.11898 4.73927 0
M  V30 2805 H 259.671 3.94182 5.11166 0
M  V30 2806 H 260.439 5.95585 5.61445 0
M  V30 2807 N 263.102 -1.41638 0.69111 0
M  V30 2808 C 264.518 -1.55435 0.362224 0
M  V30 2809 C 264.718 -1.66754 -1.13117 0
M  V30 2810 O 263.774 -1.64348 -1.91692 0
M  V30 2811 C 265.087 -2.79588 1.10684 0
M  V30 2812 C 266.635 -2.9338 1.09075 0
M  V30 2813 C 267.11 -4.20414 1.81703 0
M  V30 2814 N 268.601 -4.27362 1.7865 0
M  V30 2815 C 269.336 -5.24507 2.31689 0
M  V30 2816 N 268.832 -6.27708 2.93179 0
M  V30 2817 N 270.625 -5.16416 2.2197 0
M  V30 2818 H 262.776 -1.32536 1.65976 0
M  V30 2819 H 265.039 -0.639115 0.700168 0
M  V30 2820 H 264.745 -2.77419 2.16175 0
M  V30 2821 H 264.619 -3.70973 0.682545 0
M  V30 2822 H 267.006 -2.95067 0.0441238 0
M  V30 2823 H 267.087 -2.0318 1.55407 0
M  V30 2824 H 266.731 -4.19488 2.86343 0
M  V30 2825 H 266.661 -5.09578 1.32808 0
M  V30 2826 H 269.152 -3.53415 1.33815 0
M  V30 2827 H 269.465 -6.98217 3.31229 0
M  V30 2828 H 267.81 -6.28223 2.97255 0
M  V30 2829 H 271.001 -4.34716 1.73607 0
M  V30 2830 H 271.174 -5.91958 2.63609 0
M  V30 2831 N 264.58 -0.43555 -1.51462 0
M  V30 2832 C 265.49 0.383001 -2.31453 0
M  V30 2833 C 266.506 1.02931 -1.4029 0
M  V30 2834 O 267.682 1.02507 -1.73362 0
M  V30 2835 C 264.747 1.47043 -3.13973 0
M  V30 2836 C 263.808 0.844433 -4.20913 0
M  V30 2837 C 263.041 1.88004 -4.9949 0
M  V30 2838 O 263.264 3.10199 -4.78678 0
M  V30 2839 O 262.198 1.47157 -5.83634 0
M  V30 2840 H 266.024 -0.269964 -3.02498 0
M  V30 2841 H 263.609 -0.19813 -1.4808 0
M  V30 2842 H 265.491 2.10113 -3.65281 0
M  V30 2843 H 264.166 2.10751 -2.45695 0
M  V30 2844 H 263.073 0.175729 -3.73687 0
M  V30 2845 H 264.406 0.250869 -4.9156 0
M  V30 2846 N 266.058 1.56714 -0.166846 0
M  V30 2847 C 267.335 1.88412 0.525373 0
M  V30 2848 C 267.715 1.07602 1.81618 0
M  V30 2849 O 267.063 0.168621 2.27877 0
M  V30 2850 C 267.273 3.40363 0.771613 0
M  V30 2851 C 268.621 4.10007 1.1036 0
M  V30 2852 O 269.645 3.45655 0.860304 0
M  V30 2853 O 268.504 5.2369 1.56239 0
M  V30 2854 H 265.598 0.781587 0.270278 0
M  V30 2855 H 268.144 1.68458 -0.204946 0
M  V30 2856 H 266.916 3.91046 -0.141093 0
M  V30 2857 H 266.539 3.65914 1.55541 0
M  V30 2858 N 267.536 -0.106894 1.57237 0
M  V30 2859 C 268.486 -1.1366 1.9765 0
M  V30 2860 C 269.47 -1.36416 0.853203 0
M  V30 2861 O 270.662 -1.37305 1.11697 0
M  V30 2862 C 267.791 -2.46 2.39455 0
M  V30 2863 C 266.877 -2.26668 3.58445 0
M  V30 2864 N 267.268 -1.77176 4.73754 0
M  V30 2865 C 265.566 -2.57279 3.64312 0
M  V30 2866 C 266.267 -1.71836 5.5574 0
M  V30 2867 N 265.243 -2.16623 4.98573 0
M  V30 2868 H 269.045 -0.74669 2.84256 0
M  V30 2869 H 266.559 -0.314483 1.59326 0
M  V30 2870 H 268.556 -3.2049 2.6663 0
M  V30 2871 H 267.216 -2.85738 1.54219 0
M  V30 2872 H 268.227 -1.46545 4.96734 0
M  V30 2873 H 264.904 -3.00622 2.89711 0
M  V30 2874 H 266.294 -1.34723 6.58255 0
M  V30 2875 N 269.014 -1.53014 -0.377408 0
M  V30 2876 C 270.425 -1.60438 -0.954798 0
M  V30 2877 C 270.776 -0.464418 -1.90624 0
M  V30 2878 O 269.901 0.41087 -2.12464 0
M  V30 2879 C 270.496 -2.90797 -1.73847 0
M  V30 2880 C 269.055 -3.00595 -2.26538 0
M  V30 2881 C 268.202 -2.55645 -1.07429 0
M  V30 2882 H 271.153 -1.57926 -0.156575 0
M  V30 2883 H 271.174 -2.77935 -2.5987 0
M  V30 2884 H 270.686 -3.73746 -1.04574 0
M  V30 2885 H 268.787 -2.22208 -2.99089 0
M  V30 2886 H 268.9 -4.05456 -2.5523 0
M  V30 2887 H 267.264 -2.10239 -1.43777 0
M  V30 2888 H 268.047 -3.41 -0.396728 0
M  V30 2889 N 270.492 0.636531 -1.44174 0
M  V30 2890 C 271.44 1.76995 -1.50915 0
M  V30 2891 C 272.434 1.65053 -0.381295 0
M  V30 2892 O 273.64 1.71197 -0.55601 0
M  V30 2893 H 270.015 0.584247 -0.473455 0
M  V30 2894 H 271.986 1.68432 -2.4632 0
M  V30 2895 C 270.735 3.15314 -1.46534 0
M  V30 2896 H 270.058 3.25149 -2.32633 0
M  V30 2897 H 271.498 3.9453 -1.55312 0
M  V30 2898 C 269.957 3.3639 -0.185305 0
M  V30 2899 O 270.487 3.94699 0.746688 0
M  V30 2900 N 268.693 2.9046 -0.0901606 0
M  V30 2901 H 268.24 2.43193 -0.849416 0
M  V30 2902 H 268.198 3.04937 0.765553 0
M  V30 2903 N 271.97 1.30982 0.876444 0
M  V30 2904 C 273.381 1.18277 1.44456 0
M  V30 2905 C 273.732 -0.213265 1.95037 0
M  V30 2906 O 272.857 -1.11057 1.85729 0
M  V30 2907 C 273.452 2.1411 2.62569 0
M  V30 2908 C 272.011 2.05358 3.15444 0
M  V30 2909 C 271.158 2.03706 1.88146 0
M  V30 2910 H 274.109 1.43127 0.685584 0
M  V30 2911 H 274.13 1.72692 3.39054 0
M  V30 2912 H 273.642 3.15706 2.25724 0
M  V30 2913 H 271.743 1.06934 3.56926 0
M  V30 2914 H 271.856 2.94156 3.78166 0
M  V30 2915 H 270.22 1.48629 2.06837 0
M  V30 2916 H 271.003 3.07047 1.53547 0
M  V30 2917 N 273.449 -1.08991 1.13837 0
M  V30 2918 C 274.412 -2.13925 0.822715 0
M  V30 2919 C 275.412 -1.599 -0.1699 0
M  V30 2920 O 276.602 -1.74104 0.0577251 0
M  V30 2921 C 273.734 -3.40155 0.225318 0
M  V30 2922 H 274.927 -2.43358 1.75262 0
M  V30 2923 H 272.48 -1.24603 0.943594 0
M  V30 2924 H 273.215 -3.16352 -0.713594 0
M  V30 2925 H 273 -3.80661 0.940193 0
M  V30 2926 H 274.49 -4.17594 0.0214784 0
M  V30 2927 N 274.927 -0.932562 -1.27047 0
M  V30 2928 C 275.86 -0.379774 -2.25018 0
M  V30 2929 C 276.838 0.526587 -1.53837 0
M  V30 2930 O 278.022 0.465992 -1.82649 0
M  V30 2931 C 275.149 0.455187 -3.35627 0
M  V30 2932 C 274.195 -0.388428 -4.24728 0
M  V30 2933 S 275.028 -1.80701 -5.04091 0
M  V30 2934 C 276.184 -0.979865 -6.18182 0
M  V30 2935 H 276.417 -1.2101 -2.71558 0
M  V30 2936 H 273.95 -0.735078 -1.35779 0
M  V30 2937 H 275.908 0.931052 -3.99802 0
M  V30 2938 H 274.569 1.26009 -2.87716 0
M  V30 2939 H 273.762 0.25089 -5.03375 0
M  V30 2940 H 273.364 -0.798649 -3.65373 0
M  V30 2941 H 275.656 -0.218115 -6.77149 0
M  V30 2942 H 276.599 -1.73951 -6.86401 0
M  V30 2943 H 277.007 -0.51973 -5.62102 0
M  V30 2944 N 276.405 1.4127 -0.698611 0
M  V30 2945 C 277.368 2.29158 -0.044132 0
M  V30 2946 C 278.368 1.44529 0.704841 0
M  V30 2947 O 279.558 1.65643 0.539276 0
M  V30 2948 C 276.69 3.27459 0.947809 0
M  V30 2949 H 277.883 2.88529 -0.817994 0
M  V30 2950 H 275.436 1.49307 -0.46228 0
M  V30 2951 H 276.171 2.73073 1.74933 0
M  V30 2952 H 275.956 3.8991 0.41385 0
M  V30 2953 H 277.446 3.93311 1.40344 0
M  V30 2954 N 277.883 0.443576 1.51229 0
M  V30 2955 C 279.113 -0.119117 2.06256 0
M  V30 2956 C 279.521 -1.36471 1.31043 0
M  V30 2957 O 278.864 -1.80034 0.365151 0
M  V30 2958 C 278.926 -0.500546 3.55998 0
M  V30 2959 C 278.59 0.639125 4.52509 0
M  V30 2960 C 279.587 1.51311 4.97394 0
M  V30 2961 C 277.272 0.821632 4.95535 0
M  V30 2962 C 279.266 2.55425 5.83984 0
M  V30 2963 C 276.953 1.86603 5.81913 0
M  V30 2964 C 277.951 2.73072 6.26036 0
M  V30 2965 O 277.639 3.75718 7.10698 0
M  V30 2966 H 277.371 -0.00857665 0.675946 0
M  V30 2967 H 279.925 0.623288 1.95715 0
M  V30 2968 H 278.155 -1.29575 3.64345 0
M  V30 2969 H 279.844 -0.995116 3.93513 0
M  V30 2970 H 280.61 1.38367 4.64844 0
M  V30 2971 H 276.489 0.158149 4.60729 0
M  V30 2972 H 280.033 3.22949 6.18344 0
M  V30 2973 H 275.93 1.99564 6.13876 0
M  V30 2974 H 276.698 3.72374 7.2889 0
M  V30 2975 N 279.361 -1.56624 0.175154 0
M  V30 2976 C 280.324 -2.16934 -0.739738 0
M  V30 2977 C 281.324 -1.11842 -1.15533 0
M  V30 2978 O 282.514 -1.37335 -1.07167 0
M  V30 2979 C 279.646 -2.75531 -2.00738 0
M  V30 2980 H 280.839 -2.99131 -0.214639 0
M  V30 2981 H 278.392 -1.56123 -0.0744197 0
M  V30 2982 H 279.127 -1.97078 -2.57548 0
M  V30 2983 H 278.912 -3.52444 -1.71831 0
M  V30 2984 H 280.402 -3.21904 -2.66021 0
M  V30 2985 N 280.839 0.0985539 -1.57292 0
M  V30 2986 C 281.787 1.1387 -2.02821 0
M  V30 2987 C 282.781 1.41676 -0.928666 0
M  V30 2988 O 283.987 1.41398 -1.11385 0
M  V30 2989 H 280.362 0.384419 -0.646317 0
M  V30 2990 H 282.333 0.728347 -2.89375 0
M  V30 2991 C 281.082 2.45166 -2.46554 0
M  V30 2992 H 280.405 2.24613 -3.3074 0
M  V30 2993 H 281.845 3.16456 -2.8219 0
M  V30 2994 C 280.304 3.09216 -1.33742 0
M  V30 2995 O 280.834 3.96163 -0.66464 0
M  V30 2996 N 279.04 2.69413 -1.08928 0
M  V30 2997 H 278.587 1.98801 -1.63817 0
M  V30 2998 H 278.545 3.12594 -0.336458 0
M  V30 2999 N 282.317 1.53212 0.369288 0
M  V30 3000 C 283.227 1.82342 1.47609 0
M  V30 3001 C 284.243 0.711532 1.58787 0
M  V30 3002 O 285.419 1.0012 1.74751 0
M  V30 3003 C 282.484 2.00393 2.8292 0
M  V30 3004 C 281.545 3.24297 2.81301 0
M  V30 3005 C 280.778 3.41478 4.10157 0
M  V30 3006 O 281.001 2.63033 5.06132 0
M  V30 3007 O 279.935 4.34817 4.16194 0
M  V30 3008 H 283.761 2.76366 1.25918 0
M  V30 3009 H 281.346 1.38547 0.559034 0
M  V30 3010 H 283.228 2.13859 3.63101 0
M  V30 3011 H 281.903 1.09559 3.04596 0
M  V30 3012 H 280.81 3.16257 1.99831 0
M  V30 3013 H 282.143 4.15041 2.64578 0
M  V30 3014 N 283.795 -0.628877 1.44509 0
M  V30 3015 C 285.041 -1.39045 1.47629 0
M  V30 3016 C 285.374 -1.93892 0.109343 0
M  V30 3017 O 284.649 -1.7379 -0.87334 0
M  V30 3018 C 284.932 -2.55408 2.53848 0
M  V30 3019 C 284.785 -2.05896 3.99909 0
M  V30 3020 C 286.104 -3.5759 2.56549 0
M  V30 3021 H 283.223 -0.504232 0.537512 0
M  V30 3022 H 285.865 -0.710854 1.76201 0
M  V30 3023 H 284.015 -3.13384 2.29615 0
M  V30 3024 H 285.687 -1.52734 4.35282 0
M  V30 3025 H 283.93 -1.37061 4.11578 0
M  V30 3026 H 284.601 -2.89681 4.69882 0
M  V30 3027 H 287.077 -3.09419 2.78207 0
M  V30 3028 H 285.953 -4.36527 3.32769 0
M  V30 3029 H 286.214 -4.11808 1.60832 0
M  V30 3030 N 285.273 -1.31445 -0.869486 0
M  V30 3031 C 286.22 -1.19135 -1.97675 0
M  V30 3032 C 287.19 -0.0770266 -1.65921 0
M  V30 3033 O 288.375 -0.249972 -1.89155 0
M  V30 3034 C 285.515 -0.905149 -3.33018 0
M  V30 3035 C 284.628 -2.10285 -3.77365 0
M  V30 3036 C 283.763 -1.75339 -5.01427 0
M  V30 3037 C 282.802 -2.91515 -5.38224 0
M  V30 3038 N 281.939 -2.56762 -6.53466 0
M  V30 3039 H 286.779 -2.13853 -2.07535 0
M  V30 3040 H 284.316 -1.06379 -1.01597 0
M  V30 3041 H 286.274 -0.719765 -4.10944 0
M  V30 3042 H 284.904 0.00519624 -3.228 0
M  V30 3043 H 283.956 -2.39899 -2.95216 0
M  V30 3044 H 285.268 -2.97237 -4.00564 0
M  V30 3045 H 284.422 -1.53266 -5.87022 0
M  V30 3046 H 283.161 -0.855801 -4.80133 0
M  V30 3047 H 282.166 -3.14237 -4.51149 0
M  V30 3048 H 283.391 -3.81985 -5.61484 0
M  V30 3049 H 281.337 -1.69526 -6.33717 0
M  V30 3050 H 281.254 -3.37243 -6.76612 0
M  V30 3051 H 282.522 -2.38083 -7.42251 0
M  V30 3052 N 286.751 1.08385 -1.14413 0
M  V30 3053 C 288.167 1.32844 -0.884563 0
M  V30 3054 C 288.367 1.95841 0.474181 0
M  V30 3055 O 287.423 2.21158 1.21842 0
M  V30 3056 C 288.736 2.22978 -2.01745 0
M  V30 3057 C 290.284 2.36458 -2.05077 0
M  V30 3058 C 290.759 3.29934 -3.1766 0
M  V30 3059 N 292.25 3.37511 -3.17239 0
M  V30 3060 C 292.985 4.09871 -4.0099 0
M  V30 3061 N 292.481 4.84936 -4.94781 0
M  V30 3062 N 294.274 4.05704 -3.89051 0
M  V30 3063 H 286.425 0.658756 -2.01926 0
M  V30 3064 H 288.688 0.352821 -0.879899 0
M  V30 3065 H 288.394 1.83934 -2.99769 0
M  V30 3066 H 288.268 3.23441 -1.94077 0
M  V30 3067 H 290.655 2.7476 -1.0766 0
M  V30 3068 H 290.736 1.35736 -2.16816 0
M  V30 3069 H 290.38 2.92352 -4.15322 0
M  V30 3070 H 290.31 4.30584 -3.03158 0
M  V30 3071 H 292.801 2.83996 -2.49308 0
M  V30 3072 H 293.114 5.37612 -5.55151 0
M  V30 3073 H 291.459 4.83988 -4.98779 0
M  V30 3074 H 294.65 3.46167 -3.15097 0
M  V30 3075 H 294.823 4.61834 -4.54547 0
M  V30 3076 N 288.23 0.939286 1.26551 0
M  V30 3077 C 289.476 0.586715 1.94128 0
M  V30 3078 C 289.809 -0.8717 1.73537 0
M  V30 3079 O 289.084 -1.62339 1.07127 0
M  V30 3080 C 289.367 0.927497 3.4795 0
M  V30 3081 C 289.22 2.44052 3.77834 0
M  V30 3082 C 290.539 0.441569 4.37879 0
M  V30 3083 H 287.658 0.21463 0.705055 0
M  V30 3084 H 290.3 1.17316 1.49455 0
M  V30 3085 H 288.45 0.428431 3.8613 0
M  V30 3086 H 290.122 3.01216 3.4938 0
M  V30 3087 H 288.365 2.8848 3.23978 0
M  V30 3088 H 289.036 2.62947 4.85348 0
M  V30 3089 H 291.512 0.869448 4.06915 0
M  V30 3090 H 290.388 0.708856 5.44304 0
M  V30 3091 H 290.649 -0.658467 4.37169 0
M  V30 3092 N 289.708 -1.40897 0.706093 0
M  V30 3093 C 290.954 -2.01352 0.241889 0
M  V30 3094 C 291.287 -1.55832 -1.15888 0
M  V30 3095 O 290.562 -0.774145 -1.7843 0
M  V30 3096 C 290.845 -3.58752 0.311311 0
M  V30 3097 C 290.698 -4.1437 1.74978 0
M  V30 3098 C 292.017 -4.38914 -0.322922 0
M  V30 3099 H 289.136 -0.731562 0.0893687 0
M  V30 3100 H 291.778 -1.67504 0.896802 0
M  V30 3101 H 289.928 -3.87718 -0.246302 0
M  V30 3102 H 291.6 -3.96239 2.36205 0
M  V30 3103 H 289.843 -3.69016 2.28057 0
M  V30 3104 H 290.514 -5.23532 1.74981 0
M  V30 3105 H 292.99 -4.15822 0.152089 0
M  V30 3106 H 291.866 -5.48358 -0.243855 0
M  V30 3107 H 292.127 -4.19176 -1.40513 0
M  V30 3108 N 291.186 -0.45159 -1.50991 0
M  V30 3109 C 292.411 0.110667 -2.07105 0
M  V30 3110 C 292.836 1.3446 -1.31538 0
M  V30 3111 O 292.194 1.77743 -0.357365 0
M  V30 3112 C 292.242 0.397238 -3.58405 0
M  V30 3113 O 291.346 1.48124 -3.84881 0
M  V30 3114 H 290.687 -0.00439271 -0.663985 0
M  V30 3115 H 293.217 -0.637026 -1.9443 0
M  V30 3116 H 293.227 0.64351 -4.02893 0
M  V30 3117 H 291.902 -0.504553 -4.12828 0
M  V30 3118 H 290.479 1.22381 -3.52246 0
M  V30 3119 N 292.664 1.56529 -0.183458 0
M  V30 3120 C 293.889 2.02064 0.467428 0
M  V30 3121 C 294.314 1.06282 1.55196 0
M  V30 3122 O 293.672 0.0443565 1.81246 0
M  V30 3123 C 293.72 3.46122 1.01153 0
M  V30 3124 O 292.824 3.53437 2.12499 0
M  V30 3125 H 292.165 0.654726 0.110588 0
M  V30 3126 H 294.695 2.02521 -0.290917 0
M  V30 3127 H 294.705 3.85676 1.33108 0
M  V30 3128 H 293.38 4.15331 0.217533 0
M  V30 3129 H 291.957 3.2575 1.81497 0
M  V30 3130 N 294.142 -0.090211 1.57342 0
M  V30 3131 C 295.105 -1.09335 2.01441 0
M  V30 3132 C 296.105 -1.32666 0.908641 0
M  V30 3133 O 297.295 -1.28697 1.174 0
M  V30 3134 C 294.427 -2.44136 2.3793 0
M  V30 3135 H 295.62 -0.713662 2.91285 0
M  V30 3136 H 293.173 -0.335404 1.52659 0
M  V30 3137 H 293.908 -2.86972 1.51055 0
M  V30 3138 H 293.693 -2.28548 3.18603 0
M  V30 3139 H 295.183 -3.16277 2.72688 0
M  V30 3140 N 295.62 -1.53406 -0.361157 0
M  V30 3141 C 296.552 -1.76446 -1.46286 0
M  V30 3142 C 297.565 -0.645322 -1.49464 0
M  V30 3143 O 298.754 -0.921681 -1.52864 0
M  V30 3144 C 295.854 -1.83332 -2.85031 0
M  V30 3145 C 295.027 -3.13033 -3.05498 0
M  V30 3146 C 294.086 -3.11104 -4.24383 0
M  V30 3147 O 293.112 -3.84888 -4.19344 0
M  V30 3148 N 294.314 -2.32234 -5.32022 0
M  V30 3149 H 297.079 -2.71508 -1.26899 0
M  V30 3150 H 294.64 -1.52238 -0.550915 0
M  V30 3151 H 296.632 -1.79514 -3.62708 0
M  V30 3152 H 295.202 -0.955342 -2.97644 0
M  V30 3153 H 294.422 -3.30119 -2.15442 0
M  V30 3154 H 295.71 -3.9874 -3.16044 0
M  V30 3155 H 295.108 -1.71807 -5.38979 0
M  V30 3156 H 293.665 -2.3423 -6.08259 0
M  V30 3157 N 297.098 0.621204 -1.44841 0
M  V30 3158 C 298.008 1.7612 -1.5498 0
M  V30 3159 C 299.024 1.68477 -0.434927 0
M  V30 3160 O 300.2 1.89076 -0.693693 0
M  V30 3161 C 297.265 3.1254 -1.50065 0
M  V30 3162 C 296.326 3.31741 -2.72482 0
M  V30 3163 C 295.559 4.61653 -2.67792 0
M  V30 3164 O 295.782 5.431 -1.74352 0
M  V30 3165 O 294.716 4.83271 -3.58794 0
M  V30 3166 H 298.542 1.70518 -2.51311 0
M  V30 3167 H 296.127 0.783643 -1.27198 0
M  V30 3168 H 298.009 3.93844 -1.49882 0
M  V30 3169 H 296.684 3.18663 -0.568806 0
M  V30 3170 H 295.591 2.50077 -2.7823 0
M  V30 3171 H 296.924 3.30486 -3.64746 0
M  V30 3172 N 298.576 1.31904 0.862503 0
M  V30 3173 C 299.523 1.20182 1.9704 0
M  V30 3174 C 300.493 0.0858247 1.65878 0
M  V30 3175 O 301.678 0.26 1.8902 0
M  V30 3176 C 298.818 0.922797 3.32533 0
M  V30 3177 C 297.931 2.12284 3.76244 0
M  V30 3178 C 297.066 1.77996 5.00491 0
M  V30 3179 C 296.105 2.94366 5.36671 0
M  V30 3180 N 295.242 2.60223 6.52095 0
M  V30 3181 H 300.082 2.14951 2.06398 0
M  V30 3182 H 297.619 1.06917 1.01031 0
M  V30 3183 H 299.577 0.741548 4.10557 0
M  V30 3184 H 298.207 0.0119227 3.22798 0
M  V30 3185 H 297.259 2.41461 2.9394 0
M  V30 3186 H 298.571 2.99357 3.98982 0
M  V30 3187 H 297.725 1.56377 5.862 0
M  V30 3188 H 296.464 0.881252 4.79672 0
M  V30 3189 H 295.469 3.16625 4.49476 0
M  V30 3190 H 296.694 3.84957 5.59451 0
M  V30 3191 H 294.64 1.72884 6.32809 0
M  V30 3192 H 294.557 3.40827 6.74814 0
M  V30 3193 H 295.825 2.42016 7.40978 0
M  V30 3194 N 300.054 -1.07777 1.14986 0
M  V30 3195 C 301.302 -1.79934 0.920235 0
M  V30 3196 C 301.623 -1.86955 -0.554336 0
M  V30 3197 O 300.893 -1.36731 -1.40291 0
M  V30 3198 H 299.473 -0.666424 0.337473 0
M  V30 3199 H 302.135 -1.3027 1.44968 0
M  V30 3200 H 301.231 -2.82539 1.32583 0
M  V30 3201 N 301.532 -0.945985 -1.26051 0
M  V30 3202 C 302.948 -0.649045 -1.45807 0
M  V30 3203 C 303.148 0.796158 -1.85104 0
M  V30 3204 O 302.204 1.57233 -1.97571 0
M  V30 3205 C 303.517 -1.61458 -2.53677 0
M  V30 3206 C 305.065 -1.62481 -2.67524 0
M  V30 3207 C 305.54 -2.57776 -3.7857 0
M  V30 3208 N 307.031 -2.5609 -3.85969 0
M  V30 3209 C 307.766 -3.26508 -4.7136 0
M  V30 3210 N 307.262 -4.0637 -5.61102 0
M  V30 3211 N 309.055 -3.15437 -4.65248 0
M  V30 3212 H 301.206 -1.88005 -0.988328 0
M  V30 3213 H 303.469 -0.808198 -0.4955 0
M  V30 3214 H 303.175 -2.64644 -2.31638 0
M  V30 3215 H 303.049 -1.37036 -3.51427 0
M  V30 3216 H 305.436 -0.600167 -2.88933 0
M  V30 3217 H 305.517 -1.90958 -1.70202 0
M  V30 3218 H 305.161 -3.60361 -3.57913 0
M  V30 3219 H 305.091 -2.26587 -4.75359 0
M  V30 3220 H 307.582 -1.98105 -3.21812 0
M  V30 3221 H 307.895 -4.57042 -6.23164 0
M  V30 3222 H 306.24 -4.10469 -5.60839 0
M  V30 3223 H 309.431 -2.52525 -3.94143 0
M  V30 3224 H 309.604 -3.70584 -5.31575 0
M  V30 3225 N 303.011 1.40521 -0.713556 0
M  V30 3226 C 303.958 2.30723 -0.059684 0
M  V30 3227 C 304.928 1.48079 0.752448 0
M  V30 3228 O 306.113 1.76823 0.71681 0
M  V30 3229 C 303.253 3.34274 0.857594 0
M  V30 3230 C 302.366 4.31986 0.0351536 0
M  V30 3231 C 301.501 5.22605 0.951724 0
M  V30 3232 C 300.54 6.11976 0.123253 0
M  V30 3233 N 299.677 6.9502 0.99459 0
M  V30 3234 H 304.517 2.86074 -0.834596 0
M  V30 3235 H 302.054 1.40879 -0.42326 0
M  V30 3236 H 304.012 3.92879 1.40364 0
M  V30 3237 H 302.642 2.8043 1.59871 0
M  V30 3238 H 301.694 3.7518 -0.628052 0
M  V30 3239 H 303.006 4.95101 -0.606347 0
M  V30 3240 H 302.16 5.86131 1.56638 0
M  V30 3241 H 300.899 4.59759 1.62705 0
M  V30 3242 H 299.904 5.47482 -0.50435 0
M  V30 3243 H 301.129 6.76881 -0.548539 0
M  V30 3244 H 299.075 6.34764 1.6556 0
M  V30 3245 H 298.992 7.54892 0.40908 0
M  V30 3246 H 300.26 7.62997 1.59549 0
M  V30 3247 N 304.489 0.459591 1.5075 0
M  V30 3248 C 305.738 -0.100971 2.01447 0
M  V30 3249 C 306.051 -1.41816 1.34713 0
M  V30 3250 O 307.257 -2.06299 1.76502 0
M  V30 3251 C 305.713 -0.23047 3.59161 0
M  V30 3252 C 305.321 1.0776 4.34847 0
M  V30 3253 C 307.065 -0.743608 4.17936 0
M  V30 3254 C 304.972 0.91253 5.84317 0
M  V30 3255 H 303.902 -0.0415102 0.752856 0
M  V30 3256 H 306.553 0.592742 1.73663 0
M  V30 3257 H 304.935 -0.987703 3.83485 0
M  V30 3258 H 306.109 1.8449 4.22256 0
M  V30 3259 H 304.424 1.52097 3.87628 0
M  V30 3260 H 307.021 -0.883959 5.27343 0
M  V30 3261 H 307.364 -1.73196 3.78562 0
M  V30 3262 H 307.897 -0.04408 3.97776 0
M  V30 3263 H 304.636 1.87391 6.28144 0
M  V30 3264 H 304.156 0.185422 5.99513 0
M  V30 3265 H 305.835 0.574547 6.44444 0
M  V30 3266 N 305.967 -1.56429 0.191757 0
M  V30 3267 C 306.93 -2.17707 -0.716688 0
M  V30 3268 C 307.93 -1.13061 -1.14341 0
M  V30 3269 O 309.12 -1.38464 -1.05704 0
M  V30 3270 C 306.252 -2.77644 -1.97804 0
M  V30 3271 H 307.445 -2.99342 -0.1829 0
M  V30 3272 H 304.998 -1.56193 -0.0578566 0
M  V30 3273 H 305.733 -1.99799 -2.55443 0
M  V30 3274 H 305.518 -3.54246 -1.68083 0
M  V30 3275 H 307.008 -3.24708 -2.62592 0
M  V30 3276 N 307.445 0.0818655 -1.57387 0
M  V30 3277 C 308.408 1.08265 -2.02018 0
M  V30 3278 C 309.408 1.32183 -0.915664 0
M  V30 3279 O 310.598 1.28073 -1.18081 0
M  V30 3280 C 307.73 2.42871 -2.39221 0
M  V30 3281 H 308.923 0.698204 -2.91659 0
M  V30 3282 H 306.476 0.327303 -1.52835 0
M  V30 3283 H 307.211 2.86167 -1.52575 0
M  V30 3284 H 306.996 2.26855 -3.19811 0
M  V30 3285 H 308.486 3.14826 -2.74362 0
M  V30 3286 N 308.923 1.53595 0.353017 0
M  V30 3287 C 310.17 1.70385 1.09431 0
M  V30 3288 C 310.498 0.462113 1.88931 0
M  V30 3289 O 309.753 -0.556074 1.87633 0
M  V30 3290 C 310.052 2.91313 2.07054 0
M  V30 3291 C 309.718 4.27308 1.43939 0
M  V30 3292 C 308.38 4.64287 1.26454 0
M  V30 3293 C 310.732 5.11829 0.983883 0
M  V30 3294 C 308.06 5.83412 0.620226 0
M  V30 3295 C 310.412 6.31611 0.353516 0
M  V30 3296 C 309.076 6.67293 0.166272 0
M  V30 3297 H 308.346 0.623484 0.400436 0
M  V30 3298 H 310.993 1.87799 0.374655 0
M  V30 3299 H 309.298 2.68463 2.85368 0
M  V30 3300 H 310.995 3.01497 2.64387 0
M  V30 3301 H 307.585 3.98198 1.58543 0
M  V30 3302 H 311.769 4.838 1.10685 0
M  V30 3303 H 307.025 6.09639 0.463681 0
M  V30 3304 H 311.199 6.964 -0.00757555 0
M  V30 3305 H 308.826 7.59461 -0.335047 0
M  V30 3306 N 310.401 -0.613514 1.45168 0
M  V30 3307 C 311.648 -1.37268 1.48875 0
M  V30 3308 C 311.976 -1.94077 0.128161 0
M  V30 3309 O 311.231 -1.75178 -0.872416 0
M  V30 3310 C 311.53 -2.54347 2.51083 0
M  V30 3311 C 311.196 -2.1572 3.95949 0
M  V30 3312 C 309.858 -2.04899 4.35396 0
M  V30 3313 C 312.21 -1.85485 4.87078 0
M  V30 3314 C 309.538 -1.62057 5.63875 0
M  V30 3315 C 311.89 -1.4413 6.15962 0
M  V30 3316 C 310.554 -1.31863 6.54346 0
M  V30 3317 H 309.824 -0.502299 0.544773 0
M  V30 3318 H 312.471 -0.694021 1.78481 0
M  V30 3319 H 310.776 -3.27524 2.15024 0
M  V30 3320 H 312.473 -3.12577 2.51191 0
M  V30 3321 H 309.063 -2.25066 3.64751 0
M  V30 3322 H 313.247 -1.92745 4.57343 0
M  V30 3323 H 308.503 -1.51177 5.92415 0
M  V30 3324 H 312.677 -1.19778 6.86022 0
M  V30 3325 H 310.304 -0.984392 7.538 0
M  V30 3326 N 311.879 -1.3236 -0.855495 0
M  V30 3327 C 312.842 -1.21164 -1.94556 0
M  V30 3328 C 313.842 -0.134908 -1.60233 0
M  V30 3329 O 315.032 -0.385249 -1.69887 0
M  V30 3330 C 312.164 -0.863192 -3.29791 0
M  V30 3331 H 313.357 -2.18038 -2.05911 0
M  V30 3332 H 310.91 -1.16179 -1.04557 0
M  V30 3333 H 311.645 0.103769 -3.24134 0
M  V30 3334 H 311.43 -1.64166 -3.56078 0
M  V30 3335 H 312.92 -0.809156 -4.09686 0
M  V30 3336 N 313.357 1.07166 -1.15556 0
M  V30 3337 C 314.267 2.17947 -0.868116 0
M  V30 3338 C 315.283 1.73297 0.156297 0
M  V30 3339 O 316.459 2.01392 -0.0182327 0
M  V30 3340 C 313.524 3.44789 -0.36355 0
M  V30 3341 C 312.585 4.03996 -1.45209 0
M  V30 3342 C 311.818 5.24783 -0.971508 0
M  V30 3343 O 312.041 5.70109 0.182194 0
M  V30 3344 O 310.975 5.75715 -1.75603 0
M  V30 3345 H 314.801 2.4503 -1.79427 0
M  V30 3346 H 312.386 1.16539 -0.934824 0
M  V30 3347 H 314.268 4.21307 -0.0887113 0
M  V30 3348 H 312.943 3.19253 0.534708 0
M  V30 3349 H 311.85 3.29009 -1.78056 0
M  V30 3350 H 313.183 4.33808 -2.32533 0
M  V30 3351 N 314.835 0.952656 1.25548 0
M  V30 3352 C 316.06 0.623025 1.97821 0
M  V30 3353 C 316.485 -0.7976 1.70352 0
M  V30 3354 O 315.843 -1.53905 0.958283 0
M  V30 3355 C 315.891 0.885532 3.49558 0
M  V30 3356 O 314.995 -0.0366641 4.12384 0
M  V30 3357 H 314.336 0.237082 0.620232 0
M  V30 3358 H 316.866 1.27871 1.59719 0
M  V30 3359 H 316.876 0.811009 3.99858 0
M  V30 3360 H 315.551 1.92094 3.6888 0
M  V30 3361 H 314.128 0.0898954 3.72792 0
M  V30 3362 N 316.313 -1.40141 0.720998 0
M  V30 3363 C 317.243 -2.33339 0.0867621 0
M  V30 3364 C 318.224 -1.53178 -0.739622 0
M  V30 3365 O 319.409 -1.81625 -0.687449 0
M  V30 3366 C 316.539 -3.37194 -0.831728 0
M  V30 3367 C 315.493 -4.27857 -0.110558 0
M  V30 3368 C 314.819 -5.22294 -1.14513 0
M  V30 3369 C 316.119 -5.11872 1.0385 0
M  V30 3370 H 317.813 -2.86626 0.865219 0
M  V30 3371 H 315.359 -1.37814 0.417516 0
M  V30 3372 H 317.312 -4.01335 -1.28485 0
M  V30 3373 H 316.036 -2.82314 -1.64214 0
M  V30 3374 H 314.695 -3.65176 0.322797 0
M  V30 3375 H 314.343 -4.63717 -1.94874 0
M  V30 3376 H 314.043 -5.83797 -0.667446 0
M  V30 3377 H 315.567 -5.89312 -1.59824 0
M  V30 3378 H 316.981 -5.69436 0.664482 0
M  V30 3379 H 315.378 -5.82445 1.4449 0
M  V30 3380 H 316.448 -4.4753 1.86668 0
M  V30 3381 N 317.792 -0.46758 -1.50504 0
M  V30 3382 C 319.203 -0.0116166 -1.86696 0
M  V30 3383 C 319.554 1.39202 -1.38265 0
M  V30 3384 O 318.679 2.0313 -0.746132 0
M  V30 3385 C 319.274 -0.0143044 -3.38797 0
M  V30 3386 C 317.833 0.386175 -3.74414 0
M  V30 3387 C 316.98 -0.401287 -2.74381 0
M  V30 3388 H 319.931 -0.682022 -1.43297 0
M  V30 3389 H 319.952 0.788641 -3.72237 0
M  V30 3390 H 319.464 -1.03602 -3.74016 0
M  V30 3391 H 317.565 1.41237 -3.44794 0
M  V30 3392 H 317.678 0.0899596 -4.79016 0
M  V30 3393 H 316.042 0.144536 -2.5429 0
M  V30 3394 H 316.825 -1.42244 -3.12444 0
M  V30 3395 N 319.27 1.56325 -0.20005 0
M  V30 3396 C 320.495 2.02548 0.44597 0
M  V30 3397 C 320.92 1.07922 1.5406 0
M  V30 3398 O 320.278 0.0635775 1.81188 0
M  V30 3399 C 320.326 3.47175 0.974761 0
M  V30 3400 O 319.43 3.55671 2.08739 0
M  V30 3401 H 318.771 0.655862 0.103638 0
M  V30 3402 H 321.301 2.02201 -0.312381 0
M  V30 3403 H 321.311 3.87067 1.2901 0
M  V30 3404 H 319.986 4.15538 0.17347 0
M  V30 3405 H 318.563 3.27657 1.78032 0
M  V30 3406 N 320.748 -0.0735177 1.57428 0
M  V30 3407 C 321.994 -0.774145 1.87443 0
M  V30 3408 C 322.327 -1.77311 0.792103 0
M  V30 3409 O 321.602 -1.93492 -0.197793 0
M  V30 3410 C 321.885 -1.48367 3.28115 0
M  V30 3411 C 321.738 -0.501227 4.46999 0
M  V30 3412 C 323.057 -2.429 3.66998 0
M  V30 3413 H 320.176 -0.279971 0.681752 0
M  V30 3414 H 322.818 -0.0373616 1.89963 0
M  V30 3415 H 320.968 -2.11171 3.26097 0
M  V30 3416 H 322.64 0.121468 4.6114 0
M  V30 3417 H 320.883 0.183593 4.33411 0
M  V30 3418 H 321.554 -1.03526 5.42205 0
M  V30 3419 H 324.03 -1.90175 3.70098 0
M  V30 3420 H 322.906 -2.89549 4.66318 0
M  V30 3421 H 323.167 -3.27628 2.96837 0
M  V30 3422 N 322.226 -1.5378 -0.344866 0
M  V30 3423 C 323.474 -1.70625 -1.08311 0
M  V30 3424 C 323.795 -0.471447 -1.89215 0
M  V30 3425 O 323.065 0.514616 -1.8902 0
M  V30 3426 H 321.645 -0.629058 -0.402859 0
M  V30 3427 H 324.307 -1.9103 -0.386459 0
M  V30 3428 H 323.403 -2.57656 -1.76124 0
M  V30 3429 N 323.704 0.605807 -1.45491 0
M  V30 3430 C 324.952 1.36207 -1.49305 0
M  V30 3431 C 325.273 1.94519 -0.136863 0
M  V30 3432 O 324.543 1.77261 0.833983 0
M  V30 3433 H 323.123 0.50565 -0.549843 0
M  V30 3434 H 325.785 0.711239 -1.81459 0
M  V30 3435 H 324.881 2.18058 -2.23287 0
M  V30 3436 N 325.182 1.32811 0.848464 0
M  V30 3437 C 326.114 1.18095 1.96433 0
M  V30 3438 C 327.127 0.114354 1.62398 0
M  V30 3439 O 328.316 0.363892 1.74751 0
M  V30 3440 C 325.416 0.786798 3.2964 0
M  V30 3441 C 324.589 1.943 3.91875 0
M  V30 3442 C 323.648 1.53138 5.03423 0
M  V30 3443 O 322.674 2.24432 5.23086 0
M  V30 3444 N 323.876 0.430915 5.78898 0
M  V30 3445 H 326.641 2.14218 2.09597 0
M  V30 3446 H 324.202 1.2543 1.02367 0
M  V30 3447 H 326.194 0.493715 4.01677 0
M  V30 3448 H 324.764 -0.0834541 3.12489 0
M  V30 3449 H 323.984 2.40224 3.12547 0
M  V30 3450 H 325.272 2.71689 4.30189 0
M  V30 3451 H 324.67 -0.162333 5.65467 0
M  V30 3452 H 323.227 0.197466 6.51501 0
M  V30 3453 N 326.66 -1.06551 1.16123 0
M  V30 3454 C 327.909 -1.78687 0.935622 0
M  V30 3455 C 328.222 -1.88056 -0.538001 0
M  V30 3456 O 329.428 -2.56794 -0.88143 0
M  V30 3457 C 327.884 -3.21143 1.62466 0
M  V30 3458 C 327.492 -3.19949 3.13587 0
M  V30 3459 C 329.236 -3.9783 1.48092 0
M  V30 3460 C 327.143 -4.57108 3.75241 0
M  V30 3461 H 326.073 -0.669712 0.346412 0
M  V30 3462 H 328.724 -1.19534 1.39226 0
M  V30 3463 H 327.106 -3.80539 1.09572 0
M  V30 3464 H 328.28 -2.70151 3.73303 0
M  V30 3465 H 326.595 -2.5676 3.27816 0
M  V30 3466 H 329.192 -4.99217 1.91538 0
M  V30 3467 H 329.535 -4.14078 0.429507 0
M  V30 3468 H 330.068 -3.4495 1.98127 0
M  V30 3469 H 326.807 -4.46065 4.80319 0
M  V30 3470 H 326.327 -5.07111 3.20309 0
M  V30 3471 H 328.006 -5.26069 3.76644 0
M  V30 3472 N 328.138 -0.959301 -1.25041 0
M  V30 3473 C 329.387 -0.612254 -1.92183 0
M  V30 3474 C 329.7 0.855347 -1.75907 0
M  V30 3475 O 330.906 1.31256 -2.37664 0
M  V30 3476 C 329.362 -1.04435 -3.44414 0
M  V30 3477 C 328.97 -2.53482 -3.69393 0
M  V30 3478 C 330.714 -0.770055 -4.17457 0
M  V30 3479 C 328.621 -2.90468 -5.15153 0
M  V30 3480 H 327.551 -0.225279 -0.719559 0
M  V30 3481 H 330.202 -1.16438 -1.41825 0
M  V30 3482 H 328.584 -0.4206 -3.9376 0
M  V30 3483 H 329.758 -3.20916 -3.30681 0
M  V30 3484 H 328.073 -2.78432 -3.0962 0
M  V30 3485 H 330.67 -1.02249 -5.24832 0
M  V30 3486 H 331.013 0.293611 -4.15263 0
M  V30 3487 H 331.546 -1.35437 -3.74034 0
M  V30 3488 H 328.285 -3.95871 -5.22462 0
M  V30 3489 H 327.805 -2.27711 -5.54894 0
M  V30 3490 H 329.484 -2.79914 -5.83315 0
M  V30 3491 N 329.616 1.39756 -0.72842 0
M  V30 3492 C 331.027 1.83498 -0.344289 0
M  V30 3493 C 331.378 1.60868 1.12321 0
M  V30 3494 O 330.503 1.09634 1.86573 0
M  V30 3495 C 331.098 3.33114 -0.618112 0
M  V30 3496 C 329.657 3.753 -0.287549 0
M  V30 3497 C 328.804 2.62831 -0.884048 0
M  V30 3498 H 331.755 1.28842 -0.926578 0
M  V30 3499 H 331.776 3.80334 0.112349 0
M  V30 3500 H 331.288 3.49553 -1.68625 0
M  V30 3501 H 329.389 3.64451 0.775012 0
M  V30 3502 H 329.502 4.72945 -0.765512 0
M  V30 3503 H 327.866 2.52792 -0.311149 0
M  V30 3504 H 328.649 2.82078 -1.95671 0
M  V30 3505 N 331.094 0.475555 1.50254 0
M  V30 3506 C 332.505 0.0215174 1.86688 0
M  V30 3507 C 332.856 -1.38467 1.39001 0
M  V30 3508 O 331.981 -2.02732 0.756894 0
M  V30 3509 C 332.576 0.0322715 3.38785 0
M  V30 3510 C 331.135 -0.366314 3.74613 0
M  V30 3511 C 330.282 0.415832 2.74164 0
M  V30 3512 H 333.233 0.689612 1.42934 0
M  V30 3513 H 333.254 -0.76889 3.7265 0
M  V30 3514 H 332.766 1.05584 3.73462 0
M  V30 3515 H 330.867 -1.39406 3.45538 0
M  V30 3516 H 330.98 -0.064555 4.79057 0
M  V30 3517 H 329.344 -0.131048 2.54363 0
M  V30 3518 H 330.127 1.43899 3.11686 0
M  V30 3519 N 332.573 -1.56217 0.208337 0
M  V30 3520 C 333.536 -2.18455 -0.693557 0
M  V30 3521 C 334.536 -1.14268 -1.13135 0
M  V30 3522 O 335.726 -1.39577 -1.0423 0
M  V30 3523 C 332.858 -2.79727 -1.94848 0
M  V30 3524 H 334.051 -2.99519 -0.15114 0
M  V30 3525 H 331.604 -1.56245 -0.041287 0
M  V30 3526 H 332.339 -2.02497 -2.53309 0
M  V30 3527 H 332.124 -3.56009 -1.64316 0
M  V30 3528 H 333.614 -3.27475 -2.59133 0
M  V30 3529 N 334.051 0.0651679 -1.57465 0
M  V30 3530 C 335.299 0.761555 -1.87202 0
M  V30 3531 C 335.62 1.77778 -0.801243 0
M  V30 3532 O 334.89 1.95166 0.16937 0
M  V30 3533 H 333.47 0.284251 -0.690804 0
M  V30 3534 H 336.132 0.0396827 -1.9486 0
M  V30 3535 H 335.228 1.27365 -2.84929 0
M  V30 3536 N 335.529 1.53961 0.336706 0
M  V30 3537 C 336.759 1.75229 1.09446 0
M  V30 3538 C 337.167 0.494602 1.82621 0
M  V30 3539 O 336.51 -0.543764 1.75468 0
M  V30 3540 C 336.572 2.88288 2.1478 0
M  V30 3541 C 336.236 4.27656 1.6112 0
M  V30 3542 C 337.233 5.08981 1.0599 0
M  V30 3543 C 334.918 4.74161 1.6576 0
M  V30 3544 C 336.912 6.34916 0.562129 0
M  V30 3545 C 334.599 6.00067 1.15595 0
M  V30 3546 C 335.597 6.80278 0.609147 0
M  V30 3547 O 335.285 8.03818 0.114999 0
M  V30 3548 H 335.017 0.588881 0.331956 0
M  V30 3549 H 337.571 2.01614 0.392566 0
M  V30 3550 H 335.801 2.57443 2.88548 0
M  V30 3551 H 337.49 2.97461 2.76174 0
M  V30 3552 H 338.256 4.74213 1.01722 0
M  V30 3553 H 334.135 4.11781 2.07261 0
M  V30 3554 H 337.679 6.9747 0.134668 0
M  V30 3555 H 333.576 6.3433 1.19566 0
M  V30 3556 H 334.344 8.18172 0.231651 0
M  V30 3557 N 337.007 -0.598083 1.45811 0
M  V30 3558 C 338.254 -1.35681 1.50323 0
M  V30 3559 C 338.582 -1.9393 0.148739 0
M  V30 3560 O 337.837 -1.76094 -0.853787 0
M  V30 3561 C 338.136 -2.51669 2.53766 0
M  V30 3562 C 337.802 -2.11508 3.98215 0
M  V30 3563 C 336.464 -2.0027 4.37545 0
M  V30 3564 C 338.816 -1.80308 4.89018 0
M  V30 3565 C 336.144 -1.56067 5.65562 0
M  V30 3566 C 338.496 -1.37589 6.17456 0
M  V30 3567 C 337.16 -1.24916 6.55708 0
M  V30 3568 H 336.43 -0.496492 0.550069 0
M  V30 3569 H 339.077 -0.675052 1.79207 0
M  V30 3570 H 337.382 -3.25225 2.18486 0
M  V30 3571 H 339.079 -3.09895 2.54492 0
M  V30 3572 H 335.669 -2.21185 3.67117 0
M  V30 3573 H 339.853 -1.87884 4.59362 0
M  V30 3574 H 335.109 -1.44886 5.93985 0
M  V30 3575 H 339.283 -1.12495 6.87254 0
M  V30 3576 H 336.91 -0.904386 7.54801 0
M  V30 3577 N 338.485 -1.33259 -0.841409 0
M  V30 3578 C 339.71 -1.2775 -1.63385 0
M  V30 3579 C 340.135 0.149188 -1.87507 0
M  V30 3580 O 339.493 1.10498 -1.43736 0
M  V30 3581 C 339.541 -2.05571 -2.96265 0
M  V30 3582 O 338.645 -1.41257 -3.87453 0
M  V30 3583 H 337.986 -0.439627 -0.497618 0
M  V30 3584 H 340.516 -1.75782 -1.04699 0
M  V30 3585 H 340.526 -2.16241 -3.45982 0
M  V30 3586 H 339.201 -3.09309 -2.7803 0
M  V30 3587 H 337.778 -1.39217 -3.45938 0
M  V30 3588 N 339.963 1.05934 -1.16686 0
M  V30 3589 C 340.895 2.13468 -0.834503 0
M  V30 3590 C 341.908 1.62013 0.15984 0
M  V30 3591 O 343.097 1.7838 -0.0654228 0
M  V30 3592 C 340.197 3.3817 -0.222361 0
M  V30 3593 C 339.37 4.18928 -1.25771 0
M  V30 3594 C 338.429 5.21985 -0.664703 0
M  V30 3595 O 337.455 5.53334 -1.33453 0
M  V30 3596 N 338.657 5.77919 0.546834 0
M  V30 3597 H 341.422 2.42578 -1.75999 0
M  V30 3598 H 338.983 1.21967 -1.06469 0
M  V30 3599 H 340.975 4.04266 0.187472 0
M  V30 3600 H 339.545 3.06655 0.606758 0
M  V30 3601 H 338.765 3.48433 -1.84358 0
M  V30 3602 H 340.053 4.69687 -1.95631 0
M  V30 3603 H 339.451 5.54721 1.10912 0
M  V30 3604 H 338.008 6.45573 0.898829 0
M  V30 3605 N 341.441 0.965919 1.2453 0
M  V30 3606 C 342.687 0.62776 1.92839 0
M  V30 3607 C 343.02 -0.834694 1.75347 0
M  V30 3608 O 342.295 -1.60031 1.10546 0
M  V30 3609 C 342.578 1.00109 3.45905 0
M  V30 3610 C 342.431 2.52011 3.72573 0
M  V30 3611 C 343.75 0.53435 4.36844 0
M  V30 3612 H 340.869 0.229537 0.700344 0
M  V30 3613 H 343.511 1.2046 1.46933 0
M  V30 3614 H 341.661 0.510238 3.85135 0
M  V30 3615 H 343.333 3.08559 3.42912 0
M  V30 3616 H 341.576 2.95287 3.17786 0
M  V30 3617 H 342.247 2.73183 4.79661 0
M  V30 3618 H 344.723 0.955565 4.04979 0
M  V30 3619 H 343.599 0.824152 5.42678 0
M  V30 3620 H 343.86 -0.565589 4.38467 0
M  V30 3621 N 342.919 -1.39368 0.735821 0
M  V30 3622 C 343.882 -2.2896 0.104874 0
M  V30 3623 C 344.882 -1.46347 -0.666274 0
M  V30 3624 O 346.072 -1.67014 -0.49517 0
M  V30 3625 C 343.204 -3.29857 -0.860656 0
M  V30 3626 H 344.397 -2.86259 0.894205 0
M  V30 3627 H 341.95 -1.48029 0.501704 0
M  V30 3628 H 342.685 -2.77615 -1.67631 0
M  V30 3629 H 342.47 -3.9087 -0.310327 0
M  V30 3630 H 343.96 -3.96893 -1.29867 0
M  V30 3631 N 344.397 -0.483516 -1.5 0
M  V30 3632 C 345.307 0.309172 -2.32554 0
M  V30 3633 C 346.323 0.984159 -1.43493 0
M  V30 3634 O 347.499 0.969399 -1.76535 0
M  V30 3635 C 344.564 1.36979 -3.18493 0
M  V30 3636 C 343.625 0.710095 -4.23387 0
M  V30 3637 C 342.858 1.72018 -5.05218 0
M  V30 3638 O 343.081 2.94813 -4.88305 0
M  V30 3639 O 342.015 1.28515 -5.8802 0
M  V30 3640 H 345.841 -0.366064 -3.01486 0
M  V30 3641 H 343.426 -0.24514 -1.47375 0
M  V30 3642 H 345.308 1.98385 -3.71781 0
M  V30 3643 H 343.983 2.02828 -2.52275 0
M  V30 3644 H 342.89 0.0567539 -3.74057 0
M  V30 3645 H 344.223 0.0943557 -4.9211 0
M  V30 3646 N 345.875 1.56104 -0.216619 0
M  V30 3647 C 346.825 2.16703 0.708798 0
M  V30 3648 C 347.809 1.11392 1.16106 0
M  V30 3649 O 349.001 1.37395 1.11587 0
M  V30 3650 C 346.13 2.84666 1.91886 0
M  V30 3651 C 345.216 3.97195 1.48651 0
M  V30 3652 N 345.607 4.99959 0.766434 0
M  V30 3653 C 343.905 4.09193 1.77418 0
M  V30 3654 C 344.606 5.79126 0.546659 0
M  V30 3655 N 343.582 5.32315 1.10188 0
M  V30 3656 H 347.384 2.93516 0.150162 0
M  V30 3657 H 344.898 1.6239 -0.0176768 0
M  V30 3658 H 346.895 3.26486 2.59253 0
M  V30 3659 H 345.555 2.09347 2.48202 0
M  V30 3660 H 346.566 5.16197 0.419634 0
M  V30 3661 H 343.243 3.45021 2.35088 0
M  V30 3662 H 344.633 6.71895 -0.026103 0
M  V30 3663 N 347.353 -0.0568162 1.57498 0
M  V30 3664 C 348.602 -0.752001 1.87157 0
M  V30 3665 C 348.915 -1.77978 0.811375 0
M  V30 3666 O 350.121 -2.52559 0.996293 0
M  V30 3667 C 348.577 -1.38844 3.3204 0
M  V30 3668 C 348.185 -0.398456 4.46225 0
M  V30 3669 C 349.929 -2.06512 3.70882 0
M  V30 3670 C 347.836 -1.04166 5.82154 0
M  V30 3671 H 346.766 -0.28461 0.698222 0
M  V30 3672 H 349.417 -0.00561272 1.83499 0
M  V30 3673 H 347.799 -2.1836 3.30356 0
M  V30 3674 H 348.973 0.367977 4.59328 0
M  V30 3675 H 347.288 0.174592 4.16034 0
M  V30 3676 H 349.885 -2.55437 4.6974 0
M  V30 3677 H 350.228 -2.87117 3.01445 0
M  V30 3678 H 350.761 -1.33808 3.7462 0
M  V30 3679 H 347.5 -0.275614 6.5492 0
M  V30 3680 H 347.02 -1.7786 5.72823 0
M  V30 3681 H 348.699 -1.55715 6.27982 0
M  V30 3682 N 348.832 -1.54138 -0.328536 0
M  V30 3683 C 350.248 -1.44736 -0.672574 0
M  V30 3684 C 350.448 -0.616217 -1.91846 0
M  V30 3685 O 349.504 -0.113067 -2.52247 0
M  V30 3686 C 350.817 -2.884 -0.851217 0
M  V30 3687 C 352.365 -2.98271 -0.948877 0
M  V30 3688 C 352.84 -4.43074 -1.15973 0
M  V30 3689 N 354.331 -4.46665 -1.22658 0
M  V30 3690 C 355.066 -5.55857 -1.40751 0
M  V30 3691 N 354.562 -6.75026 -1.5592 0
M  V30 3692 N 356.355 -5.43495 -1.4342 0
M  V30 3693 H 348.506 -2.06661 0.490421 0
M  V30 3694 H 350.769 -0.934812 0.157579 0
M  V30 3695 H 350.475 -3.51699 -0.00704236 0
M  V30 3696 H 350.349 -3.34225 -1.74853 0
M  V30 3697 H 352.736 -2.35102 -1.78356 0
M  V30 3698 H 352.817 -2.55785 -0.0281435 0
M  V30 3699 H 352.461 -5.06827 -0.329915 0
M  V30 3700 H 352.391 -4.83165 -2.09426 0
M  V30 3701 H 354.882 -3.60797 -1.124 0
M  V30 3702 H 355.195 -7.54004 -1.69404 0
M  V30 3703 H 353.54 -6.77944 -1.53027 0
M  V30 3704 H 356.731 -4.49349 -1.31162 0
M  V30 3705 H 356.904 -6.28649 -1.57178 0
M  V30 3706 N 350.31 0.590341 -1.46126 0
M  V30 3707 C 351.257 1.69994 -1.56111 0
M  V30 3708 C 352.227 1.61065 -0.405867 0
M  V30 3709 O 353.412 1.8039 -0.621613 0
M  V30 3710 C 350.552 3.08326 -1.55013 0
M  V30 3711 C 349.665 3.27936 -2.81215 0
M  V30 3712 C 348.8 4.56473 -2.71673 0
M  V30 3713 C 347.839 4.694 -3.92849 0
M  V30 3714 N 346.976 5.89254 -3.81738 0
M  V30 3715 H 351.816 1.60797 -2.50895 0
M  V30 3716 H 349.353 0.783799 -1.24479 0
M  V30 3717 H 351.311 3.88383 -1.52362 0
M  V30 3718 H 349.941 3.16439 -0.637667 0
M  V30 3719 H 348.993 2.41536 -2.93879 0
M  V30 3720 H 350.305 3.33357 -3.71045 0
M  V30 3721 H 349.459 5.44748 -2.67085 0
M  V30 3722 H 348.198 4.53477 -1.7947 0
M  V30 3723 H 347.203 3.79544 -3.97777 0
M  V30 3724 H 348.428 4.7418 -4.86138 0
M  V30 3725 H 346.374 5.87271 -2.92317 0
M  V30 3726 H 346.291 5.95911 -4.65217 0
M  V30 3727 H 347.559 6.79981 -3.81112 0
M  V30 3728 N 351.788 1.33704 0.83433 0
M  V30 3729 C 352.751 1.24244 1.92603 0
M  V30 3730 C 353.751 0.160383 1.59998 0
M  V30 3731 O 354.941 0.412228 1.69252 0
M  V30 3732 C 352.073 0.91555 3.28376 0
M  V30 3733 H 353.266 2.21287 2.02416 0
M  V30 3734 H 350.819 1.17827 1.02696 0
M  V30 3735 H 351.554 -0.0521886 3.24258 0
M  V30 3736 H 351.339 1.69811 3.53422 0
M  V30 3737 H 352.829 0.874231 4.08347 0
M  V30 3738 N 353.266 -1.05314 1.17247 0
M  V30 3739 C 354.514 -1.77941 0.958194 0
M  V30 3740 C 354.835 -1.88089 -0.514556 0
M  V30 3741 O 354.105 -1.39676 -1.37359 0
M  V30 3742 H 352.685 -0.659116 0.351533 0
M  V30 3743 H 355.347 -1.27166 1.47699 0
M  V30 3744 H 354.443 -2.79663 1.38546 0
M  V30 3745 N 354.744 -0.972509 -1.24016 0
M  V30 3746 C 355.992 -0.635776 -1.91839 0
M  V30 3747 C 356.313 0.832312 -1.76345 0
M  V30 3748 O 355.583 1.5946 -1.13795 0
M  V30 3749 H 354.163 -0.232157 -0.710009 0
M  V30 3750 H 356.825 -1.23462 -1.50809 0
M  V30 3751 H 355.921 -0.880545 -2.99421 0
M  V30 3752 N 356.222 1.38976 -0.743202 0
M  V30 3753 C 357.468 2.0064 -0.295189 0
M  V30 3754 C 357.801 1.5885 1.11716 0
M  V30 3755 O 357.076 0.821181 1.76315 0
M  V30 3756 C 357.359 3.578 -0.406318 0
M  V30 3757 C 357.212 4.09586 -1.85903 0
M  V30 3758 C 358.531 4.39616 0.206439 0
M  V30 3759 H 355.65 0.728935 -0.108733 0
M  V30 3760 H 358.292 1.65067 -0.940897 0
M  V30 3761 H 356.442 3.88235 0.143419 0
M  V30 3762 H 358.114 3.89837 -2.46627 0
M  V30 3763 H 356.357 3.6284 -2.3776 0
M  V30 3764 H 357.028 5.18708 -1.888 0
M  V30 3765 H 359.504 4.15273 -0.262283 0
M  V30 3766 H 358.38 5.48812 0.0983819 0
M  V30 3767 H 358.641 4.22754 1.2935 0
M  V30 3768 N 357.7 0.491464 1.49741 0
M  V30 3769 C 358.947 -0.0564256 2.02421 0
M  V30 3770 C 359.275 -1.37872 1.37192 0
M  V30 3771 O 358.53 -1.89375 0.493508 0
M  V30 3772 C 358.829 -0.267329 3.56399 0
M  V30 3773 C 358.495 0.975775 4.40215 0
M  V30 3774 C 357.157 1.31655 4.62839 0
M  V30 3775 C 359.509 1.80251 4.89039 0
M  V30 3776 C 356.837 2.48375 5.31532 0
M  V30 3777 C 359.189 2.96116 5.59015 0
M  V30 3778 C 357.853 3.30585 5.79888 0
M  V30 3779 H 357.123 -0.0206476 0.740712 0
M  V30 3780 H 359.77 0.649686 1.80143 0
M  V30 3781 H 358.075 -1.05588 3.77304 0
M  V30 3782 H 359.772 -0.705549 3.94744 0
M  V30 3783 H 356.362 0.700315 4.2284 0
M  V30 3784 H 360.546 1.55239 4.71396 0
M  V30 3785 H 355.802 2.7533 5.45897 0
M  V30 3786 H 359.976 3.60509 5.95824 0
M  V30 3787 H 357.603 4.21132 6.32892 0
M  V30 3788 N 359.178 -1.55987 0.224894 0
M  V30 3789 C 360.424 -1.98684 -0.406502 0
M  V30 3790 C 360.757 -1.11248 -1.59177 0
M  V30 3791 O 360.032 -0.170909 -1.93748 0
M  V30 3792 C 360.315 -3.50218 -0.837808 0
M  V30 3793 C 360.168 -4.48426 0.351332 0
M  V30 3794 C 361.487 -4.06243 -1.69278 0
M  V30 3795 H 358.606 -0.722337 -0.146283 0
M  V30 3796 H 361.248 -1.87255 0.321799 0
M  V30 3797 H 359.398 -3.60089 -1.45837 0
M  V30 3798 H 361.07 -4.50562 0.989526 0
M  V30 3799 H 359.313 -4.22159 0.998207 0
M  V30 3800 H 359.984 -5.52 0.00655905 0
M  V30 3801 H 362.46 -3.99337 -1.16914 0
M  V30 3802 H 361.336 -5.12581 -1.96346 0
M  V30 3803 H 361.597 -3.53332 -2.65723 0
M  V30 3804 N 360.656 0.0484629 -1.57525 0
M  V30 3805 C 361.619 1.03956 -2.04269 0
M  V30 3806 C 362.619 1.30211 -0.943496 0
M  V30 3807 O 363.809 1.25539 -1.20771 0
M  V30 3808 C 360.941 2.37742 -2.44319 0
M  V30 3809 H 362.134 0.636182 -2.93075 0
M  V30 3810 H 359.687 0.294811 -1.53494 0
M  V30 3811 H 360.422 2.82866 -1.5861 0
M  V30 3812 H 360.207 2.20021 -3.24551 0
M  V30 3813 H 361.697 3.08936 -2.80978 0
M  V30 3814 N 362.134 1.5431 0.320358 0
M  V30 3815 C 363.411 1.63322 1.07635 0
M  V30 3816 C 363.791 0.46912 2.05821 0
M  V30 3817 O 363.139 -0.536274 2.22118 0
M  V30 3818 C 363.349 3.00465 1.77544 0
M  V30 3819 C 364.697 3.56621 2.30449 0
M  V30 3820 O 365.721 3.02791 1.87606 0
M  V30 3821 O 364.58 4.5083 3.08892 0
M  V30 3822 H 361.674 0.661502 0.496331 0
M  V30 3823 H 364.22 1.66656 0.319992 0
M  V30 3824 H 362.992 3.76629 1.06143 0
M  V30 3825 H 362.615 3.00824 2.59982 0
M  V30 3826 N 363.613 -0.582584 1.46437 0
M  V30 3827 C 364.523 -1.71949 1.59595 0
M  V30 3828 C 365.539 -1.67264 0.479443 0
M  V30 3829 O 366.715 -1.87171 0.743579 0
M  V30 3830 C 363.78 -3.08452 1.58298 0
M  V30 3831 C 362.841 -3.244 2.81182 0
M  V30 3832 C 362.074 -4.54391 2.79937 0
M  V30 3833 O 362.297 -5.38287 1.8869 0
M  V30 3834 O 361.231 -4.73588 3.71481 0
M  V30 3835 H 365.057 -1.63795 2.55744 0
M  V30 3836 H 362.642 -0.749643 1.29231 0
M  V30 3837 H 364.524 -3.89732 1.60271 0
M  V30 3838 H 363.199 -3.17043 0.653094 0
M  V30 3839 H 362.106 -2.42613 2.84763 0
M  V30 3840 H 363.439 -3.20699 3.7338 0
M  V30 3841 N 365.091 -1.34144 -0.827227 0
M  V30 3842 C 366.34 -1.25602 -1.5782 0
M  V30 3843 C 366.653 0.173445 -1.94829 0
M  V30 3844 O 367.859 0.380984 -2.68814 0
M  V30 3845 C 366.315 -2.20151 -2.84713 0
M  V30 3846 C 365.923 -3.68331 -2.55021 0
M  V30 3847 C 367.667 -2.20508 -3.62735 0
M  V30 3848 C 365.574 -4.54762 -3.78082 0
M  V30 3849 H 364.504 -0.466573 -0.592306 0
M  V30 3850 H 367.155 -1.59283 -0.911116 0
M  V30 3851 H 365.537 -1.79417 -3.53023 0
M  V30 3852 H 366.711 -4.17577 -1.94849 0
M  V30 3853 H 365.026 -3.7038 -1.90283 0
M  V30 3854 H 367.623 -2.82306 -4.54101 0
M  V30 3855 H 367.966 -1.20322 -3.98533 0
M  V30 3856 H 368.499 -2.59664 -3.01362 0
M  V30 3857 H 365.238 -5.55867 -3.47407 0
M  V30 3858 H 364.758 -4.10254 -4.37552 0
M  V30 3859 H 366.437 -4.69153 -4.45538 0
M  V30 3860 N 366.569 1.04691 -1.17803 0
M  V30 3861 C 367.501 2.12571 -0.857097 0
M  V30 3862 C 368.514 1.62174 0.142647 0
M  V30 3863 O 369.703 1.78301 -0.0843387 0
M  V30 3864 C 366.803 3.37915 -0.258216 0
M  V30 3865 C 365.976 4.1757 -1.30207 0
M  V30 3866 C 365.035 5.2125 -0.720029 0
M  V30 3867 O 364.061 5.51888 -1.39314 0
M  V30 3868 N 365.263 5.78466 0.485507 0
M  V30 3869 H 368.028 2.40698 -1.78562 0
M  V30 3870 H 365.589 1.20831 -1.07757 0
M  V30 3871 H 367.581 4.04442 0.144584 0
M  V30 3872 H 366.151 3.07281 0.574199 0
M  V30 3873 H 365.371 3.46458 -1.88043 0
M  V30 3874 H 366.659 4.67586 -2.00601 0
M  V30 3875 H 366.057 5.55866 1.05022 0
M  V30 3876 H 364.614 6.4649 0.830307 0
M  V30 3877 N 368.047 0.979072 1.23499 0
M  V30 3878 C 369.293 0.648178 1.92163 0
M  V30 3879 C 369.626 -0.816049 1.76222 0
M  V30 3880 O 368.901 -1.58849 1.12237 0
M  V30 3881 C 369.184 1.03773 3.44824 0
M  V30 3882 C 369.037 2.55948 3.69879 0
M  V30 3883 C 370.356 0.580653 4.36253 0
M  V30 3884 H 367.475 0.236952 0.69787 0
M  V30 3885 H 370.117 1.22012 1.45647 0
M  V30 3886 H 368.267 0.551058 3.84572 0
M  V30 3887 H 369.939 3.12179 3.3962 0
M  V30 3888 H 368.182 2.98641 3.14636 0
M  V30 3889 H 368.853 2.78255 4.76737 0
M  V30 3890 H 371.329 0.998465 4.03943 0
M  V30 3891 H 370.205 0.881663 5.41773 0
M  V30 3892 H 370.466 -0.519052 4.39042 0
M  V30 3893 N 369.525 -1.3858 0.750561 0
M  V30 3894 C 370.773 -1.99789 0.30477 0
M  V30 3895 C 371.094 -1.59874 -1.11649 0
M  V30 3896 O 370.364 -0.85417 -1.76297 0
M  V30 3897 H 368.944 -0.738902 0.109694 0
M  V30 3898 H 371.606 -1.69391 0.963983 0
M  V30 3899 H 370.702 -3.09952 0.365499 0
M  V30 3900 N 371.003 -0.499398 -1.49478 0
M  V30 3901 C 372.25 0.0456899 -2.02448 0
M  V30 3902 C 372.578 1.37142 -1.37921 0
M  V30 3903 O 371.833 1.89111 -0.503544 0
M  V30 3904 C 372.132 0.248424 -3.56536 0
M  V30 3905 C 371.798 -0.999107 -4.39692 0
M  V30 3906 C 370.46 -1.34108 -4.62135 0
M  V30 3907 C 372.812 -1.82842 -4.88076 0
M  V30 3908 C 370.14 -2.51191 -5.30208 0
M  V30 3909 C 372.492 -2.99076 -5.57437 0
M  V30 3910 C 371.156 -3.33655 -5.78127 0
M  V30 3911 H 370.426 0.0167191 -0.740811 0
M  V30 3912 H 373.073 -0.65923 -1.79795 0
M  V30 3913 H 371.378 1.03586 -3.77859 0
M  V30 3914 H 373.075 0.684605 -3.95113 0
M  V30 3915 H 369.665 -0.722729 -4.22463 0
M  V30 3916 H 373.849 -1.57737 -4.70566 0
M  V30 3917 H 369.105 -2.78221 -5.44429 0
M  V30 3918 H 373.279 -3.63664 -5.93904 0
M  V30 3919 H 370.906 -4.24483 -6.30649 0
M  V30 3920 N 372.481 1.55866 -0.233164 0
M  V30 3921 C 373.729 1.9821 0.394593 0
M  V30 3922 C 374.05 1.12234 1.59463 0
M  V30 3923 O 373.32 0.201981 1.94856 0
M  V30 3924 H 371.9 0.732034 0.148778 0
M  V30 3925 H 374.562 1.92107 -0.32876 0
M  V30 3926 H 373.658 3.03845 0.713063 0
M  V30 3927 N 373.959 -0.0401083 1.57549 0
M  V30 3928 C 375.375 -0.395556 1.54621 0
M  V30 3929 C 375.575 -1.77281 0.957799 0
M  V30 3930 O 374.631 -2.45888 0.574031 0
M  V30 3931 C 375.944 -0.307535 2.99123 0
M  V30 3932 C 377.492 -0.385425 3.10618 0
M  V30 3933 C 377.967 -0.326973 4.56831 0
M  V30 3934 N 379.458 -0.386102 4.61588 0
M  V30 3935 C 380.193 -0.363591 5.72246 0
M  V30 3936 N 379.689 -0.29402 6.92176 0
M  V30 3937 N 381.482 -0.412503 5.60584 0
M  V30 3938 H 373.633 0.861325 1.94152 0
M  V30 3939 H 375.896 0.326445 0.890021 0
M  V30 3940 H 375.602 0.638461 3.45856 0
M  V30 3941 H 375.476 -1.10552 3.60636 0
M  V30 3942 H 377.863 -1.32185 2.63839 0
M  V30 3943 H 377.944 0.44171 2.51957 0
M  V30 3944 H 377.588 0.605738 5.04275 0
M  V30 3945 H 377.518 -1.17207 5.13391 0
M  V30 3946 H 380.009 -0.442832 3.75296 0
M  V30 3947 H 380.322 -0.28164 7.72287 0
M  V30 3948 H 378.667 -0.260232 6.94513 0
M  V30 3949 H 381.858 -0.464769 4.65787 0
M  V30 3950 H 382.031 -0.391492 6.46816 0
M  V30 3951 N 375.437 -1.54477 -0.31217 0
M  V30 3952 C 376.683 -1.73483 -1.0503 0
M  V30 3953 C 377.016 -0.513125 -1.87298 0
M  V30 3954 O 376.291 0.489864 -1.8823 0
M  V30 3955 C 376.574 -3.01723 -1.96558 0
M  V30 3956 C 376.427 -4.3417 -1.17545 0
M  V30 3957 C 377.746 -3.25772 -2.95907 0
M  V30 3958 H 374.865 -0.631222 -0.380432 0
M  V30 3959 H 377.507 -1.87184 -0.325932 0
M  V30 3960 H 375.657 -2.90174 -2.58324 0
M  V30 3961 H 377.329 -4.5762 -0.581513 0
M  V30 3962 H 375.572 -4.31159 -0.477925 0
M  V30 3963 H 376.243 -5.20143 -1.84811 0
M  V30 3964 H 378.719 -3.36857 -2.44267 0
M  V30 3965 H 377.595 -4.16838 -3.57123 0
M  V30 3966 H 377.856 -2.43537 -3.68974 0
M  V30 3967 N 376.915 0.57481 -1.46744 0
M  V30 3968 C 378.163 1.33009 -1.52161 0
M  V30 3969 C 378.484 1.94185 -0.178092 0
M  V30 3970 O 377.754 1.7899 0.796196 0
M  V30 3971 H 376.334 0.493873 -0.560445 0
M  V30 3972 H 378.996 0.672589 -1.82927 0
M  V30 3973 H 378.092 2.13273 -2.27862 0
M  V30 3974 N 378.394 1.34581 0.820102 0
M  V30 3975 C 379.341 1.2639 1.93117 0
M  V30 3976 C 380.311 0.138554 1.65521 0
M  V30 3977 O 381.496 0.320004 1.88097 0
M  V30 3978 C 378.636 1.02812 3.29429 0
M  V30 3979 C 377.749 2.24146 3.693 0
M  V30 3980 C 376.884 1.93829 4.94574 0
M  V30 3981 C 375.923 3.1129 5.27034 0
M  V30 3982 N 375.06 2.80838 6.43486 0
M  V30 3983 H 379.9 2.21408 1.99455 0
M  V30 3984 H 377.437 1.10077 0.975784 0
M  V30 3985 H 379.395 0.871788 4.0799 0
M  V30 3986 H 378.025 0.114612 3.22596 0
M  V30 3987 H 377.077 2.50691 2.86109 0
M  V30 3988 H 378.389 3.11899 3.89257 0
M  V30 3989 H 377.543 1.74948 5.80929 0
M  V30 3990 H 376.282 1.03341 4.76626 0
M  V30 3991 H 375.287 3.30764 4.39175 0
M  V30 3992 H 376.512 4.02561 5.4692 0
M  V30 3993 H 374.458 1.92929 6.26988 0
M  V30 3994 H 374.375 3.62123 6.63629 0
M  V30 3995 H 375.643 2.65467 7.32903 0
M  V30 3996 N 379.872 -1.04064 1.18357 0
M  V30 3997 C 380.822 -2.10393 0.878561 0
M  V30 3998 C 381.806 -1.60183 -0.151713 0
M  V30 3999 O 382.998 -1.76923 0.0523303 0
M  V30 4000 C 380.127 -3.4089 0.406096 0
M  V30 4001 C 379.213 -3.97866 1.46844 0
M  V30 4002 N 379.604 -4.28657 2.68489 0
M  V30 4003 C 377.902 -4.2574 1.32896 0
M  V30 4004 C 378.603 -4.74253 3.36836 0
M  V30 4005 N 377.579 -4.75068 2.64219 0
M  V30 4006 H 381.381 -2.32076 1.80327 0
M  V30 4007 H 378.895 -1.21818 1.07397 0
M  V30 4008 H 380.892 -4.16557 0.169088 0
M  V30 4009 H 379.552 -3.20633 -0.512275 0
M  V30 4010 H 380.563 -4.18304 3.05356 0
M  V30 4011 H 377.24 -4.1481 0.473134 0
M  V30 4012 H 378.63 -5.07096 4.40798 0
M  V30 4013 N 381.35 -0.985608 -1.22978 0
M  V30 4014 C 382.597 -0.657386 -1.91532 0
M  V30 4015 C 382.925 0.809707 -1.76845 0
M  V30 4016 O 382.18 1.60021 -1.12658 0
M  V30 4017 C 382.479 -1.00014 -3.43121 0
M  V30 4018 C 382.145 -2.4583 -3.77993 0
M  V30 4019 C 380.807 -2.85679 -3.87222 0
M  V30 4020 C 383.159 -3.40378 -3.94705 0
M  V30 4021 C 380.487 -4.19081 -4.10595 0
M  V30 4022 C 382.839 -4.73429 -4.1958 0
M  V30 4023 C 381.503 -5.1303 -4.27032 0
M  V30 4024 H 380.773 -0.240555 -0.700867 0
M  V30 4025 H 383.42 -1.24044 -1.45895 0
M  V30 4026 H 381.725 -0.335072 -3.90365 0
M  V30 4027 H 383.422 -0.724322 -3.94404 0
M  V30 4028 H 380.012 -2.13939 -3.71387 0
M  V30 4029 H 384.196 -3.10766 -3.8696 0
M  V30 4030 H 379.452 -4.49362 -4.14589 0
M  V30 4031 H 383.626 -5.46644 -4.31455 0
M  V30 4032 H 381.253 -6.16418 -4.44896 0
M  V30 4033 N 382.828 1.3818 -0.7579 0
M  V30 4034 C 384.074 2.0078 -0.325423 0
M  V30 4035 C 384.429 1.59085 1.08211 0
M  V30 4036 O 383.722 0.820394 1.73148 0
M  V30 4037 C 383.916 3.55252 -0.391218 0
M  V30 4038 C 383.745 4.11947 -1.8036 0
M  V30 4039 C 382.515 4.43519 -2.42113 0
M  V30 4040 C 384.713 4.33908 -2.76095 0
M  V30 4041 N 382.695 4.85847 -3.75267 0
M  V30 4042 C 384.066 4.78692 -3.94023 0
M  V30 4043 C 386.121 4.16015 -2.73561 0
M  V30 4044 C 384.824 5.07459 -5.09782 0
M  V30 4045 C 386.85 4.45909 -3.88483 0
M  V30 4046 C 386.212 4.90921 -5.0515 0
M  V30 4047 H 382.311 0.764215 -0.165831 0
M  V30 4048 H 384.895 1.67724 -0.988776 0
M  V30 4049 H 383.066 3.87646 0.241886 0
M  V30 4050 H 384.798 4.04653 0.061989 0
M  V30 4051 H 381.553 4.32113 -1.93842 0
M  V30 4052 H 381.977 5.11339 -4.4369 0
M  V30 4053 H 386.619 3.80399 -1.84544 0
M  V30 4054 H 384.337 5.4197 -5.99412 0
M  V30 4055 H 387.923 4.33666 -3.87847 0
M  V30 4056 H 386.803 5.1361 -5.92599 0
M  V30 4057 N 384.306 0.507319 1.49211 0
M  V30 4058 C 385.269 -0.256763 2.27757 0
M  V30 4059 C 386.269 -0.888287 1.34038 0
M  V30 4060 O 387.459 -0.751841 1.5714 0
M  V30 4061 C 384.591 -1.36905 3.12202 0
M  V30 4062 H 385.784 0.432557 2.96764 0
M  V30 4063 H 383.337 0.262488 1.5408 0
M  V30 4064 H 384.072 -2.09233 2.47775 0
M  V30 4065 H 383.857 -0.921599 3.81115 0
M  V30 4066 H 385.347 -1.9071 3.7151 0
M  V30 4067 N 385.784 -1.5574 0.241426 0
M  V30 4068 C 387.031 -1.9881 -0.384836 0
M  V30 4069 C 387.359 -1.12947 -1.58346 0
M  V30 4070 O 386.614 -0.178993 -1.9488 0
M  V30 4071 C 386.913 -3.47308 -0.843317 0
M  V30 4072 C 386.579 -4.50223 0.246946 0
M  V30 4073 C 385.241 -4.78088 0.546399 0
M  V30 4074 C 387.593 -5.11841 0.983282 0
M  V30 4075 C 384.921 -5.64846 1.58636 0
M  V30 4076 C 387.273 -5.99727 2.01272 0
M  V30 4077 C 385.937 -6.25927 2.31888 0
M  V30 4078 H 385.207 -0.727496 -0.140821 0
M  V30 4079 H 387.854 -1.8831 0.348106 0
M  V30 4080 H 386.159 -3.55112 -1.65537 0
M  V30 4081 H 387.856 -3.78017 -1.33806 0
M  V30 4082 H 384.446 -4.286 0.00340639 0
M  V30 4083 H 388.63 -4.90366 0.765182 0
M  V30 4084 H 383.886 -5.83403 1.82896 0
M  V30 4085 H 388.06 -6.46517 2.58823 0
M  V30 4086 H 385.687 -6.92949 3.12611 0
M  V30 4087 N 387.262 0.0317525 -1.57568 0
M  V30 4088 C 388.194 1.06073 -2.03178 0
M  V30 4089 C 389.207 1.32627 -0.944132 0
M  V30 4090 O 390.396 1.30162 -1.22148 0
M  V30 4091 C 387.496 2.40297 -2.38978 0
M  V30 4092 C 386.669 2.33137 -3.70089 0
M  V30 4093 C 385.728 3.49787 -3.9311 0
M  V30 4094 O 384.754 3.29403 -4.64201 0
M  V30 4095 N 385.956 4.71562 -3.38541 0
M  V30 4096 H 388.721 0.672006 -2.92069 0
M  V30 4097 H 386.282 0.219745 -1.60402 0
M  V30 4098 H 388.274 3.1705 -2.51518 0
M  V30 4099 H 386.844 2.71024 -1.55771 0
M  V30 4100 H 386.064 1.415 -3.67928 0
M  V30 4101 H 387.352 2.25493 -4.56104 0
M  V30 4102 H 386.75 4.91024 -2.80912 0
M  V30 4103 H 385.307 5.45689 -3.56464 0
M  V30 4104 N 388.74 1.54641 0.303973 0
M  V30 4105 C 389.67 1.88386 1.3796 0
M  V30 4106 C 390.651 0.742485 1.5304 0
M  V30 4107 O 391.836 0.997959 1.66597 0
M  V30 4108 C 388.966 2.12854 2.74427 0
M  V30 4109 C 387.92 3.28702 2.74115 0
M  V30 4110 C 387.246 3.38582 4.13844 0
M  V30 4111 C 388.546 4.65881 2.3612 0
M  V30 4112 H 390.24 2.78474 1.09966 0
M  V30 4113 H 387.786 1.33988 0.527556 0
M  V30 4114 H 389.739 2.35047 3.49758 0
M  V30 4115 H 388.463 1.19535 3.03939 0
M  V30 4116 H 387.122 3.06428 2.0124 0
M  V30 4117 H 386.77 2.42784 4.40528 0
M  V30 4118 H 386.47 4.16453 4.14537 0
M  V30 4119 H 387.994 3.63031 4.90959 0
M  V30 4120 H 389.408 4.87823 3.01167 0
M  V30 4121 H 387.805 5.46444 2.48031 0
M  V30 4122 H 388.875 4.66799 1.3125 0
M  V30 4123 N 390.218 -0.567019 1.47046 0
M  V30 4124 C 391.15 -1.68985 1.54844 0
M  V30 4125 C 392.163 -1.56869 0.435431 0
M  V30 4126 O 393.352 -1.64006 0.70457 0
M  V30 4127 C 390.452 -3.07373 1.42742 0
M  V30 4128 C 389.625 -3.45339 2.6844 0
M  V30 4129 C 388.684 -4.62849 2.50314 0
M  V30 4130 O 387.71 -4.67922 3.24095 0
M  V30 4131 N 388.912 -5.58726 1.57499 0
M  V30 4132 H 391.677 -1.62745 2.51663 0
M  V30 4133 H 389.238 -0.753411 1.43302 0
M  V30 4134 H 391.23 -3.83803 1.28365 0
M  V30 4135 H 389.8 -3.07893 0.540445 0
M  V30 4136 H 389.02 -2.58455 2.97648 0
M  V30 4137 H 390.308 -3.67476 3.51907 0
M  V30 4138 H 389.706 -5.57376 0.966876 0
M  V30 4139 H 388.263 -6.34523 1.49078 0
M  V30 4140 N 391.696 -1.35014 -0.812953 0
M  V30 4141 C 392.944 -1.27678 -1.56661 0
M  V30 4142 C 393.265 0.150359 -1.94419 0
M  V30 4143 O 392.535 1.08532 -1.63088 0
M  V30 4144 H 391.115 -0.469602 -0.580933 0
M  V30 4145 H 393.777 -1.69043 -0.970076 0
M  V30 4146 H 392.873 -1.88833 -2.48492 0
M  V30 4147 N 393.175 1.03435 -1.18907 0
M  V30 4148 C 394.122 2.11591 -0.921837 0
M  V30 4149 C 395.092 1.65499 0.141226 0
M  V30 4150 O 396.277 1.908 0.000242829 0
M  V30 4151 C 393.417 3.42012 -0.460616 0
M  V30 4152 C 392.53 4.01682 -1.58982 0
M  V30 4153 C 391.665 5.20091 -1.08069 0
M  V30 4154 C 390.704 5.71805 -2.18416 0
M  V30 4155 N 389.841 6.81494 -1.68849 0
M  V30 4156 H 394.681 2.33787 -1.8479 0
M  V30 4157 H 392.218 1.1467 -0.921373 0
M  V30 4158 H 394.176 4.16834 -0.174642 0
M  V30 4159 H 392.806 3.19944 0.428467 0
M  V30 4160 H 391.858 3.24127 -1.99113 0
M  V30 4161 H 393.17 4.36084 -2.4214 0
M  V30 4162 H 392.324 6.02051 -0.749615 0
M  V30 4163 H 391.063 4.87209 -0.218771 0
M  V30 4164 H 390.068 4.88461 -2.5236 0
M  V30 4165 H 391.293 6.06728 -3.05054 0
M  V30 4166 H 389.239 6.50475 -0.849572 0
M  V30 4167 H 389.156 7.14994 -2.45601 0
M  V30 4168 H 390.424 7.67063 -1.38689 0
M  V30 4169 N 394.653 0.992116 1.22453 0
M  V30 4170 C 395.93 0.583508 1.86694 0
M  V30 4171 C 396.31 -0.9392 1.89056 0
M  V30 4172 O 395.658 -1.82081 1.38053 0
M  V30 4173 C 395.868 1.20304 3.2761 0
M  V30 4174 C 397.216 1.30308 4.0411 0
M  V30 4175 O 398.24 1.15737 3.36873 0
M  V30 4176 O 397.099 1.53615 5.24466 0
M  V30 4177 H 394.193 0.198129 0.802916 0
M  V30 4178 H 396.739 1.08794 1.30238 0
M  V30 4179 H 395.511 2.24461 3.2052 0
M  V30 4180 H 395.134 0.684144 3.9167 0
M  V30 4181 N 396.131 -1.37776 0.765217 0
M  V30 4182 C 397.378 -1.99849 0.326588 0
M  V30 4183 C 397.706 -1.60746 -1.09504 0
M  V30 4184 O 396.961 -0.84202 -1.76659 0
M  V30 4185 C 397.26 -3.5504 0.410053 0
M  V30 4186 C 396.926 -4.13891 1.78899 0
M  V30 4187 C 395.588 -4.29678 2.16635 0
M  V30 4188 C 397.94 -4.46236 2.69301 0
M  V30 4189 C 395.268 -4.7511 3.44221 0
M  V30 4190 C 397.62 -4.93089 3.9629 0
M  V30 4191 C 396.284 -5.07082 4.34078 0
M  V30 4192 H 395.554 -0.7313 0.119507 0
M  V30 4193 H 398.201 -1.64645 0.977968 0
M  V30 4194 H 396.506 -3.90451 -0.324878 0
M  V30 4195 H 398.203 -4.00966 0.0520699 0
M  V30 4196 H 394.793 -4.02026 1.48569 0
M  V30 4197 H 398.977 -4.3363 2.41409 0
M  V30 4198 H 394.233 -4.84129 3.73402 0
M  V30 4199 H 398.407 -5.17084 4.66472 0
M  V30 4200 H 396.034 -5.42046 5.33001 0
M  V30 4201 N 397.609 -0.515225 -1.4894 0
M  V30 4202 C 398.855 0.0242508 -2.02785 0
M  V30 4203 C 399.188 1.35323 -1.39289 0
M  V30 4204 O 398.463 1.87041 -0.533469 0
M  V30 4205 C 398.746 0.16184 -3.59736 0
M  V30 4206 C 398.599 -1.19127 -4.33738 0
M  V30 4207 C 399.918 0.895719 -4.30888 0
M  V30 4208 H 397.037 0.00733914 -0.736963 0
M  V30 4209 H 399.679 -0.669395 -1.77818 0
M  V30 4210 H 397.829 0.752624 -3.8114 0
M  V30 4211 H 399.501 -1.82202 -4.23792 0
M  V30 4212 H 397.744 -1.77695 -3.95736 0
M  V30 4213 H 398.415 -1.04815 -5.41957 0
M  V30 4214 H 400.891 0.394528 -4.14225 0
M  V30 4215 H 399.767 0.960859 -5.40425 0
M  V30 4216 H 400.028 1.9427 -3.97129 0
M  V30 4217 N 399.087 1.5561 -0.249682 0
M  V30 4218 C 400.498 1.84979 0.252949 0
M  V30 4219 C 400.849 1.17153 1.57384 0
M  V30 4220 O 399.974 0.450884 2.11651 0
M  V30 4221 C 400.569 3.35584 0.465732 0
M  V30 4222 C 399.128 3.65169 0.912624 0
M  V30 4223 C 398.275 2.77299 -0.00859085 0
M  V30 4224 H 401.226 1.51513 -0.47217 0
M  V30 4225 H 401.247 3.57313 1.30795 0
M  V30 4226 H 400.759 3.8492 -0.49579 0
M  V30 4227 H 398.86 3.21312 1.88652 0
M  V30 4228 H 398.973 4.72912 0.767559 0
M  V30 4229 H 397.337 2.49678 0.50327 0
M  V30 4230 H 398.12 3.29442 -0.965537 0
M  V30 4231 N 400.565 -0.0233959 1.57583 0
M  V30 4232 C 401.842 -0.748794 1.807 0
M  V30 4233 C 402.222 -1.9327 0.849106 0
M  V30 4234 O 401.57 -2.28247 -0.107468 0
M  V30 4235 C 401.78 -1.17651 3.28571 0
M  V30 4236 C 403.128 -1.59008 3.93702 0
M  V30 4237 O 404.152 -1.27094 3.32755 0
M  V30 4238 O 403.011 -2.18264 5.01022 0
M  V30 4239 H 400.105 -0.362578 0.743281 0
M  V30 4240 H 402.651 0.000261958 1.697 0
M  V30 4241 H 401.423 -0.331603 3.89892 0
M  V30 4242 H 401.046 -1.98541 3.44481 0
M  V30 4243 N 402.043 -1.548 -0.295768 0
M  V30 4244 C 403.292 -1.73538 -1.02798 0
M  V30 4245 C 403.605 -0.531159 -1.8825 0
M  V30 4246 O 404.811 -0.600458 -2.64777 0
M  V30 4247 C 403.267 -3.07051 -1.87744 0
M  V30 4248 C 402.875 -4.34968 -1.07269 0
M  V30 4249 C 404.619 -3.35146 -2.60533 0
M  V30 4250 C 402.526 -5.5953 -1.91521 0
M  V30 4251 H 401.456 -0.646794 -0.387522 0
M  V30 4252 H 404.107 -1.81278 -0.284718 0
M  V30 4253 H 402.489 -2.93289 -2.66078 0
M  V30 4254 H 403.663 -4.5958 -0.335117 0
M  V30 4255 H 401.978 -4.13847 -0.460384 0
M  V30 4256 H 404.575 -4.2541 -3.23929 0
M  V30 4257 H 404.918 -2.54255 -3.29636 0
M  V30 4258 H 405.451 -3.49902 -1.89244 0
M  V30 4259 H 402.19 -6.43103 -1.26878 0
M  V30 4260 H 401.71 -5.39096 -2.62937 0
M  V30 4261 H 403.389 -5.96982 -2.49442 0
M  V30 4262 N 403.521 0.559213 -1.47345 0
M  V30 4263 C 404.767 1.31843 -1.54095 0
M  V30 4264 C 405.1 1.93149 -0.201726 0
M  V30 4265 O 404.375 1.77759 0.789428 0
M  V30 4266 C 404.658 2.43006 -2.65744 0
M  V30 4267 C 404.511 1.86581 -4.09277 0
M  V30 4268 C 405.83 3.44943 -2.73318 0
M  V30 4269 H 402.949 0.478012 -0.560957 0
M  V30 4270 H 405.591 0.625977 -1.79392 0
M  V30 4271 H 403.741 3.02072 -2.44305 0
M  V30 4272 H 405.413 1.31792 -4.42073 0
M  V30 4273 H 403.656 1.17268 -4.17649 0
M  V30 4274 H 404.327 2.66933 -4.83168 0
M  V30 4275 H 406.803 2.95793 -2.92653 0
M  V30 4276 H 405.679 4.20153 -3.53218 0
M  V30 4277 H 405.94 4.03665 -1.80296 0
M  V30 4278 N 404.999 1.35443 0.805782 0
M  V30 4279 C 406.227 1.31878 1.59423 0
M  V30 4280 C 406.642 -0.103562 1.88516 0
M  V30 4281 O 405.999 -1.05575 1.48863 0
M  V30 4282 C 406.05 2.12426 2.92502 0
M  V30 4283 O 405.771 3.49115 2.6467 0
M  V30 4284 C 407.272 2.16455 3.86862 0
M  V30 4285 H 404.492 0.453002 0.495005 0
M  V30 4286 H 407.036 1.78309 1.00131 0
M  V30 4287 H 405.191 1.69593 3.48306 0
M  V30 4288 H 405.605 3.90957 3.49647 0
M  V30 4289 H 407.079 2.77204 4.77349 0
M  V30 4290 H 407.556 1.16352 4.23508 0
M  V30 4291 H 408.162 2.59453 3.36993 0
M  V30 4292 N 406.477 -1.02803 1.19454 0
M  V30 4293 C 407.41 -2.107 0.876396 0
M  V30 4294 C 408.388 -1.61741 -0.166897 0
M  V30 4295 O 409.572 -1.88451 -0.0430195 0
M  V30 4296 C 406.699 -3.37262 0.311758 0
M  V30 4297 C 405.745 -4.05093 1.33424 0
M  V30 4298 S 406.578 -4.50498 2.89503 0
M  V30 4299 C 407.734 -5.80277 2.34584 0
M  V30 4300 H 407.967 -2.37362 1.79016 0
M  V30 4301 H 405.5 -1.15755 1.02177 0
M  V30 4302 H 407.458 -4.10499 -0.00748752 0
M  V30 4303 H 406.119 -3.08693 -0.58032 0
M  V30 4304 H 405.312 -4.9611 0.888302 0
M  V30 4305 H 404.914 -3.3803 1.60037 0
M  V30 4306 H 407.206 -6.54873 1.73633 0
M  V30 4307 H 408.149 -6.29651 3.23952 0
M  V30 4308 H 408.557 -5.3599 1.77131 0
M  V30 4309 N 407.956 -0.998596 -1.21925 0
M  V30 4310 C 409.204 -0.676325 -1.90448 0
M  V30 4311 C 409.525 0.794719 -1.78071 0
M  V30 4312 O 408.795 1.5701 -1.17152 0
M  V30 4313 H 407.375 -0.247165 -0.704925 0
M  V30 4314 H 410.037 -1.26633 -1.48156 0
M  V30 4315 H 409.133 -0.943858 -2.97486 0
M  V30 4316 N 409.434 1.37368 -0.772513 0
M  V30 4317 C 410.381 2.30262 -0.157488 0
M  V30 4318 C 411.351 1.51137 0.688965 0
M  V30 4319 O 412.536 1.79704 0.641168 0
M  V30 4320 C 409.676 3.37611 0.715045 0
M  V30 4321 C 408.789 4.31746 -0.148098 0
M  V30 4322 C 407.924 5.26171 0.729213 0
M  V30 4323 C 406.963 6.11948 -0.136418 0
M  V30 4324 N 406.1 6.98613 0.698914 0
M  V30 4325 H 410.94 2.82277 -0.955179 0
M  V30 4326 H 408.477 1.38957 -0.482631 0
M  V30 4327 H 410.435 3.98479 1.23575 0
M  V30 4328 H 409.065 2.86959 1.47833 0
M  V30 4329 H 408.117 3.72178 -0.786613 0
M  V30 4330 H 409.429 4.92084 -0.81579 0
M  V30 4331 H 408.583 5.92247 1.31637 0
M  V30 4332 H 407.322 4.66246 1.43059 0
M  V30 4333 H 406.327 5.4485 -0.736102 0
M  V30 4334 H 407.552 6.73945 -0.835134 0
M  V30 4335 H 405.498 6.41215 1.38489 0
M  V30 4336 H 405.415 7.55948 0.0885358 0
M  V30 4337 H 406.683 7.69077 1.27044 0
M  V30 4338 N 410.912 0.523116 1.48665 0
M  V30 4339 C 412.137 -0.0117284 2.07397 0
M  V30 4340 C 412.562 -1.28031 1.37803 0
M  V30 4341 O 411.92 -1.75836 0.441762 0
M  V30 4342 C 411.968 -0.225786 3.59892 0
M  V30 4343 O 411.072 -1.29592 3.91509 0
M  V30 4344 H 410.413 0.0360673 0.66302 0
M  V30 4345 H 412.943 0.729066 1.9117 0
M  V30 4346 H 412.953 -0.450552 4.05505 0
M  V30 4347 H 411.628 0.700944 4.09951 0
M  V30 4348 H 410.205 -1.05436 3.57684 0
M  V30 4349 N 412.39 -1.55475 0.257931 0
M  V30 4350 C 413.639 -1.98383 -0.364275 0
M  V30 4351 C 413.952 -1.14952 -1.58258 0
M  V30 4352 O 415.158 -1.47924 -2.27664 0
M  V30 4353 C 413.614 -3.53037 -0.699479 0
M  V30 4354 C 413.222 -4.45223 0.498046 0
M  V30 4355 C 414.966 -4.04575 -1.28526 0
M  V30 4356 C 412.873 -5.91238 0.138383 0
M  V30 4357 H 411.803 -0.740911 -0.13988 0
M  V30 4358 H 414.454 -1.79936 0.359883 0
M  V30 4359 H 412.836 -3.6722 -1.48207 0
M  V30 4360 H 414.01 -4.42803 1.27522 0
M  V30 4361 H 412.325 -4.04226 0.999503 0
M  V30 4362 H 414.922 -5.11196 -1.56788 0
M  V30 4363 H 415.265 -3.5258 -2.21344 0
M  V30 4364 H 415.798 -3.93762 -0.565337 0
M  V30 4365 H 412.537 -6.47294 1.03398 0
M  V30 4366 H 412.057 -5.96768 -0.602374 0
M  V30 4367 H 413.736 -6.46413 -0.27553 0
M  V30 4368 N 413.868 0.0150385 -1.57593 0
M  V30 4369 C 415.116 0.701613 -1.8953 0
M  V30 4370 C 415.437 1.75139 -0.857396 0
M  V30 4371 O 414.707 1.95607 0.107194 0
M  V30 4372 H 413.287 0.26213 -0.699498 0
M  V30 4373 H 415.949 -0.0223304 -1.94887 0
M  V30 4374 H 415.045 1.18236 -2.88837 0
M  V30 4375 N 415.346 1.54954 0.287554 0
M  V30 4376 C 416.294 1.87606 1.37502 0
M  V30 4377 C 417.288 0.751001 1.51843 0
M  V30 4378 O 418.494 0.935169 1.53801 0
M  V30 4379 H 414.869 0.595231 0.459569 0
M  V30 4380 H 416.84 2.78477 1.07206 0
M  V30 4381 C 415.589 2.15183 2.73115 0
M  V30 4382 H 414.912 3.01234 2.62866 0
M  V30 4383 H 416.352 2.4196 3.48183 0
M  V30 4384 C 414.811 0.954686 3.2309 0
M  V30 4385 O 415.341 0.181949 4.01288 0
M  V30 4386 N 413.547 0.756368 2.80584 0
M  V30 4387 H 413.094 1.38643 2.17108 0
M  V30 4388 H 413.052 -0.0430391 3.14371 0
M  V30 4389 N 416.824 -0.551391 1.4764 0
M  V30 4390 C 418.072 -1.30572 1.54258 0
M  V30 4391 C 418.393 -1.93877 0.208963 0
M  V30 4392 O 417.663 -1.80234 -0.767619 0
M  V30 4393 H 416.243 -0.484894 0.568231 0
M  V30 4394 H 418.905 -0.643402 1.83974 0
M  V30 4395 H 418.001 -2.09621 2.31226 0
M  V30 4396 N 418.302 -1.35869 -0.798587 0
M  V30 4397 C 419.252 -1.25982 -1.90033 0
M  V30 4398 C 420.236 -0.153303 -1.60168 0
M  V30 4399 O 421.428 -0.38527 -1.72756 0
M  V30 4400 C 418.557 -1.04211 -3.27101 0
M  V30 4401 C 417.643 -2.19289 -3.63006 0
M  V30 4402 N 418.034 -3.44559 -3.70287 0
M  V30 4403 C 416.332 -2.10852 -3.93011 0
M  V30 4404 C 417.033 -4.20283 -4.02166 0
M  V30 4405 N 416.009 -3.49124 -4.16669 0
M  V30 4406 H 419.811 -2.20883 -1.93876 0
M  V30 4407 H 417.325 -1.28457 -0.993614 0
M  V30 4408 H 419.322 -0.952155 -4.05881 0
M  V30 4409 H 417.982 -0.102013 -3.2454 0
M  V30 4410 H 418.993 -3.7881 -3.53162 0
M  V30 4411 H 415.67 -1.24744 -3.98428 0
M  V30 4412 H 417.06 -5.28575 -4.14799 0
M  V30 4413 N 419.78 1.02168 -1.19998 0
M  V30 4414 C 421.191 1.57135 -1.00825 0
M  V30 4415 C 421.542 1.91276 0.436818 0
M  V30 4416 O 420.667 1.71679 1.3174 0
M  V30 4417 C 421.262 2.85514 -1.82393 0
M  V30 4418 C 419.821 3.37027 -1.67601 0
M  V30 4419 C 418.968 2.10388 -1.80644 0
M  V30 4420 H 421.919 0.846106 -1.34264 0
M  V30 4421 H 421.94 3.56711 -1.32429 0
M  V30 4422 H 421.452 2.60634 -2.87561 0
M  V30 4423 H 419.553 3.66878 -0.650485 0
M  V30 4424 H 419.666 4.09572 -2.4857 0
M  V30 4425 H 418.03 2.22601 -1.23778 0
M  V30 4426 H 418.813 1.8794 -2.87286 0
M  V30 4427 N 421.258 1.00505 1.21394 0
M  V30 4428 C 422.504 0.688793 1.90745 0
M  V30 4429 C 422.837 -0.778486 1.77914 0
M  V30 4430 O 422.112 -1.56433 1.15581 0
M  V30 4431 C 422.395 1.11063 3.42545 0
M  V30 4432 C 422.248 2.63737 3.64367 0
M  V30 4433 C 423.567 0.673059 4.34923 0
M  V30 4434 H 420.686 0.251702 0.692687 0
M  V30 4435 H 423.328 1.25074 1.43026 0
M  V30 4436 H 421.478 0.632508 3.83317 0
M  V30 4437 H 423.15 3.19313 3.32922 0
M  V30 4438 H 421.393 3.05248 3.08231 0
M  V30 4439 H 422.064 2.88305 4.70727 0
M  V30 4440 H 424.54 1.08392 4.01734 0
M  V30 4441 H 423.416 0.996383 5.39781 0
M  V30 4442 H 423.677 -0.425808 4.40045 0
M  V30 4443 N 422.737 -1.36956 0.779787 0
M  V30 4444 C 423.7 -2.2851 0.177662 0
M  V30 4445 C 424.7 -1.48393 -0.619377 0
M  V30 4446 O 425.89 -1.68505 -0.441785 0
M  V30 4447 C 423.022 -3.32428 -0.755279 0
M  V30 4448 H 424.215 -2.83269 0.984823 0
M  V30 4449 H 421.768 -1.46358 0.548544 0
M  V30 4450 H 422.503 -2.82808 -1.58714 0
M  V30 4451 H 422.288 -3.91659 -0.185817 0
M  V30 4452 H 423.778 -4.00824 -1.17174 0
M  V30 4453 N 424.215 -0.530993 -1.48385 0
M  V30 4454 C 425.455 0.000718982 -2.044 0
M  V30 4455 C 425.819 1.31485 -1.39913 0
M  V30 4456 O 427.02 1.93265 -1.86821 0
M  V30 4457 C 425.291 0.119177 -3.57201 0
M  V30 4458 S 426.85 0.600806 -4.34667 0
M  V30 4459 H 423.668 -0.0125473 -0.710889 0
M  V30 4460 H 426.27 -0.711783 -1.82082 0
M  V30 4461 H 424.974 -0.842061 -4.01668 0
M  V30 4462 H 424.505 0.856026 -3.83974 0
M  V30 4463 H 426.52 1.86514 -4.59812 0
M  V30 4464 N 425.693 1.55336 -0.266172 0
M  V30 4465 C 426.939 1.99692 0.353681 0
M  V30 4466 C 427.272 1.1543 1.56172 0
M  V30 4467 O 426.547 0.222218 1.93226 0
M  V30 4468 C 426.83 3.52316 0.74466 0
M  V30 4469 C 426.683 4.47337 -0.470101 0
M  V30 4470 C 428.002 4.10588 1.58447 0
M  V30 4471 H 425.121 0.725961 0.12708 0
M  V30 4472 H 427.763 1.86336 -0.371333 0
M  V30 4473 H 425.913 3.63829 1.36239 0
M  V30 4474 H 427.585 4.4778 -1.10864 0
M  V30 4475 H 425.828 4.19364 -1.10978 0
M  V30 4476 H 426.499 5.51788 -0.15291 0
M  V30 4477 H 428.975 4.02297 1.06286 0
M  V30 4478 H 427.851 5.17607 1.82686 0
M  V30 4479 H 428.112 3.60253 2.56262 0
M  V30 4480 N 427.171 -0.0066808 1.57599 0
M  V30 4481 C 428.134 -0.985035 2.06953 0
M  V30 4482 C 429.134 -1.27663 0.977687 0
M  V30 4483 O 430.324 -1.22293 1.24057 0
M  V30 4484 C 427.456 -2.3118 2.50536 0
M  V30 4485 H 428.649 -0.558255 2.94658 0
M  V30 4486 H 426.202 -0.254011 1.54222 0
M  V30 4487 H 426.937 -2.78561 1.66054 0
M  V30 4488 H 426.722 -2.11338 3.3027 0
M  V30 4489 H 428.212 -3.01377 2.8907 0
M  V30 4490 N 428.649 -1.55105 -0.279332 0
M  V30 4491 C 429.612 -1.86783 -1.32834 0
M  V30 4492 C 430.612 -0.74199 -1.42657 0
M  V30 4493 O 431.802 -1.0102 -1.41918 0
M  V30 4494 C 428.934 -2.06746 -2.71052 0
M  V30 4495 H 430.127 -2.8055 -1.05979 0
M  V30 4496 H 427.68 -1.47499 -0.517087 0
M  V30 4497 H 428.415 -1.15339 -3.03097 0
M  V30 4498 H 428.2 -2.88711 -2.65309 0
M  V30 4499 H 429.69 -2.32549 -3.46858 0
M  V30 4500 N 430.127 0.543554 -1.4793 0
M  V30 4501 C 431.355 1.32516 -1.58894 0
M  V30 4502 C 431.77 1.87215 -0.244131 0
M  V30 4503 O 431.127 1.65709 0.764652 0
M  V30 4504 C 431.178 2.48554 -2.62494 0
M  V30 4505 O 430.899 1.96112 -3.91755 0
M  V30 4506 C 432.4 3.40572 -2.8377 0
M  V30 4507 H 429.62 0.403472 -0.536145 0
M  V30 4508 H 432.164 0.657106 -1.93655 0
M  V30 4509 H 430.319 3.1127 -2.30629 0
M  V30 4510 H 430.733 2.71967 -4.4848 0
M  V30 4511 H 432.207 4.18375 -3.60093 0
M  V30 4512 H 432.684 3.94965 -1.92092 0
M  V30 4513 H 433.29 2.8366 -3.16887 0
M  V30 4514 N 431.605 1.3629 0.791371 0
M  V30 4515 C 432.537 1.26321 1.91248 0
M  V30 4516 C 433.55 0.18313 1.61767 0
M  V30 4517 O 434.739 0.437682 1.73051 0
M  V30 4518 C 431.839 0.925901 3.26007 0
M  V30 4519 C 431.012 2.10746 3.83281 0
M  V30 4520 C 430.071 1.74352 4.96475 0
M  V30 4521 O 429.097 2.46416 5.13096 0
M  V30 4522 N 430.299 0.676058 5.7655 0
M  V30 4523 H 433.064 2.22915 2.00323 0
M  V30 4524 H 430.625 1.29659 0.969546 0
M  V30 4525 H 432.617 0.663636 3.99222 0
M  V30 4526 H 431.187 0.0491581 3.12561 0
M  V30 4527 H 430.407 2.53264 3.02077 0
M  V30 4528 H 431.695 2.8969 4.18279 0
M  V30 4529 H 431.093 0.0776467 5.65647 0
M  V30 4530 H 429.65 0.473612 6.50077 0
M  V30 4531 N 433.083 -1.0153 1.20538 0
M  V30 4532 C 434.494 -1.56598 1.01657 0
M  V30 4533 C 434.845 -1.91505 -0.426668 0
M  V30 4534 O 433.97 -1.72375 -1.30827 0
M  V30 4535 C 434.565 -2.84542 1.83905 0
M  V30 4536 C 433.124 -3.36133 1.69386 0
M  V30 4537 C 432.271 -2.09427 1.81757 0
M  V30 4538 H 435.222 -0.838974 1.34711 0
M  V30 4539 H 435.243 -3.56004 1.34319 0
M  V30 4540 H 434.755 -2.59105 2.8894 0
M  V30 4541 H 432.856 -3.66528 0.669933 0
M  V30 4542 H 432.969 -4.08248 2.50739 0
M  V30 4543 H 431.333 -2.21941 1.24957 0
M  V30 4544 H 432.116 -1.86414 2.88279 0
M  V30 4545 N 434.561 -1.01147 -1.20859 0
M  V30 4546 C 435.807 -0.698899 -1.90377 0
M  V30 4547 C 436.14 0.76904 -1.78324 0
M  V30 4548 O 435.415 1.55817 -1.16409 0
M  V30 4549 C 435.698 -1.12878 -3.41951 0
M  V30 4550 C 435.551 -2.65665 -3.62963 0
M  V30 4551 C 436.87 -0.696114 -4.3456 0
M  V30 4552 H 433.989 -0.255372 -0.691342 0
M  V30 4553 H 436.631 -1.25831 -1.42361 0
M  V30 4554 H 434.781 -0.652827 -3.82976 0
M  V30 4555 H 436.453 -3.21074 -3.31224 0
M  V30 4556 H 434.696 -3.06878 -3.06608 0
M  V30 4557 H 435.367 -2.90797 -4.69192 0
M  V30 4558 H 437.843 -1.10521 -4.01154 0
M  V30 4559 H 436.719 -1.025 -5.39245 0
M  V30 4560 H 436.98 0.402465 -4.40264 0
M  V30 4561 N 436.039 1.36541 -0.78704 0
M  V30 4562 C 437.002 2.28413 -0.189778 0
M  V30 4563 C 438.002 1.48719 0.611499 0
M  V30 4564 O 439.192 1.68737 0.432842 0
M  V30 4565 C 436.324 3.32824 0.737638 0
M  V30 4566 H 437.517 2.82743 -0.999831 0
M  V30 4567 H 435.07 1.46065 -0.556298 0
M  V30 4568 H 435.805 2.83646 1.57212 0
M  V30 4569 H 435.59 3.91752 0.165044 0
M  V30 4570 H 437.08 4.0144 1.15047 0
M  V30 4571 N 437.518 0.538854 1.48102 0
M  V30 4572 C 438.934 0.19732 1.58376 0
M  V30 4573 C 439.134 -1.29971 1.5398 0
M  V30 4574 O 438.19 -2.07861 1.43352 0
M  V30 4575 C 439.503 0.807716 2.89649 0
M  V30 4576 C 441.051 0.77726 3.03196 0
M  V30 4577 C 441.526 1.36639 4.37143 0
M  V30 4578 N 443.017 1.32875 4.43732 0
M  V30 4579 C 443.752 1.7544 5.45901 0
M  V30 4580 N 443.248 2.25776 6.54979 0
M  V30 4581 N 445.041 1.66623 5.36836 0
M  V30 4582 H 437.192 1.5117 1.49202 0
M  V30 4583 H 439.455 0.629327 0.708979 0
M  V30 4584 H 439.161 1.85909 2.98548 0
M  V30 4585 H 439.035 0.289975 3.76084 0
M  V30 4586 H 441.422 -0.265374 2.93904 0
M  V30 4587 H 441.503 1.33256 2.18349 0
M  V30 4588 H 441.147 2.408 4.47189 0
M  V30 4589 H 441.077 0.786689 5.20691 0
M  V30 4590 H 443.568 0.96037 3.65493 0
M  V30 4591 H 443.881 2.56226 7.29087 0
M  V30 4592 H 442.226 2.29775 6.55918 0
M  V30 4593 H 445.417 1.27089 4.50517 0
M  V30 4594 H 445.59 2.00115 6.16326 0
M  V30 4595 N 438.996 -1.55193 0.274407 0
M  V30 4596 C 439.959 -2.212 -0.600279 0
M  V30 4597 C 440.959 -1.18963 -1.08187 0
M  V30 4598 O 442.149 -1.43873 -0.982158 0
M  V30 4599 C 439.281 -2.87739 -1.82809 0
M  V30 4600 H 440.474 -2.9989 -0.0239682 0
M  V30 4601 H 438.027 -1.5628 0.0250192 0
M  V30 4602 H 438.762 -2.13058 -2.44493 0
M  V30 4603 H 438.547 -3.62658 -1.49069 0
M  V30 4604 H 440.037 -3.38171 -2.45011 0
M  V30 4605 N 440.474 -0.00167713 -1.576 0
M  V30 4606 C 441.721 0.68282 -1.90641 0
M  V30 4607 C 442.049 1.73686 -0.875415 0
M  V30 4608 O 441.304 1.95334 0.119575 0
M  V30 4609 C 441.603 1.36189 -3.30435 0
M  V30 4610 C 441.269 0.440887 -4.48739 0
M  V30 4611 C 439.931 0.187312 -4.80835 0
M  V30 4612 C 442.283 -0.193134 -5.20842 0
M  V30 4613 C 439.611 -0.70855 -5.82406 0
M  V30 4614 C 441.963 -1.07688 -6.23367 0
M  V30 4615 C 440.627 -1.33962 -6.53919 0
M  V30 4616 H 439.897 0.249862 -0.697603 0
M  V30 4617 H 442.544 -0.0575642 -1.91413 0
M  V30 4618 H 440.849 2.17636 -3.25794 0
M  V30 4619 H 442.546 1.89759 -3.5326 0
M  V30 4620 H 439.136 0.648694 -4.23663 0
M  V30 4621 H 443.32 -0.0102445 -4.96299 0
M  V30 4622 H 438.576 -0.920097 -6.04437 0
M  V30 4623 H 442.75 -1.57451 -6.78367 0
M  V30 4624 H 440.377 -2.03549 -7.32442 0
M  V30 4625 N 441.952 1.55251 0.271103 0
M  V30 4626 C 442.862 1.9136 1.35714 0
M  V30 4627 C 443.878 0.811075 1.5394 0
M  V30 4628 O 445.054 1.11031 1.6803 0
M  V30 4629 C 442.119 2.1798 2.69603 0
M  V30 4630 C 441.18 3.4153 2.60107 0
M  V30 4631 C 440.413 3.66871 3.8761 0
M  V30 4632 O 440.636 2.94689 4.8838 0
M  V30 4633 O 439.57 4.60405 3.87699 0
M  V30 4634 H 443.396 2.83815 1.08088 0
M  V30 4635 H 440.981 1.41821 0.469792 0
M  V30 4636 H 442.863 2.36518 3.48765 0
M  V30 4637 H 441.538 1.28708 2.97012 0
M  V30 4638 H 440.445 3.28325 1.79314 0
M  V30 4639 H 441.778 4.31027 2.37647 0
M  V30 4640 N 443.43 -0.535701 1.48216 0
M  V30 4641 C 444.393 -1.623 1.61838 0
M  V30 4642 C 445.393 -1.53087 0.492024 0
M  V30 4643 O 446.583 -1.5686 0.757668 0
M  V30 4644 C 443.715 -3.01907 1.58319 0
M  V30 4645 H 444.908 -1.51564 2.58783 0
M  V30 4646 H 442.461 -0.757317 1.36727 0
M  V30 4647 H 443.196 -3.18155 0.628299 0
M  V30 4648 H 442.981 -3.10003 2.40085 0
M  V30 4649 H 444.471 -3.80969 1.71033 0
M  V30 4650 N 444.908 -1.36708 -0.784132 0
M  V30 4651 C 446.136 -1.34398 -1.57305 0
M  V30 4652 C 446.551 0.0735577 -1.88657 0
M  V30 4653 O 445.908 1.03193 -1.50524 0
M  V30 4654 C 445.959 -2.17053 -2.89085 0
M  V30 4655 O 445.68 -3.53281 -2.59083 0
M  V30 4656 C 447.181 -2.22583 -3.83369 0
M  V30 4657 H 444.401 -0.460819 -0.487736 0
M  V30 4658 H 446.945 -1.79879 -0.972819 0
M  V30 4659 H 445.1 -1.75113 -3.45564 0
M  V30 4660 H 445.514 -3.9647 -3.43383 0
M  V30 4661 H 446.988 -2.84763 -4.72878 0
M  V30 4662 H 447.465 -1.23075 -4.21603 0
M  V30 4663 H 448.071 -2.64781 -3.32823 0
M  V30 4664 N 446.386 1.0089 -1.21074 0
M  V30 4665 C 447.634 1.74262 -1.02358 0
M  V30 4666 C 447.955 1.89869 0.444393 0
M  V30 4667 O 447.225 1.44677 1.32081 0
M  V30 4668 H 445.805 0.645615 -0.375754 0
M  V30 4669 H 448.467 1.21596 -1.52317 0
M  V30 4670 H 447.563 2.74328 -1.4883 0
M  V30 4671 N 447.864 1.01787 1.20321 0
M  V30 4672 C 449.11 0.708985 1.90003 0
M  V30 4673 C 449.443 -0.759572 1.78729 0
M  V30 4674 O 448.718 -1.55198 1.17234 0
M  V30 4675 C 449.001 1.1469 3.41348 0
M  V30 4676 C 448.854 2.67586 3.61549 0
M  V30 4677 C 450.173 0.71915 4.34185 0
M  V30 4678 H 447.292 0.259034 0.689978 0
M  V30 4679 H 449.934 1.26584 1.41692 0
M  V30 4680 H 448.084 0.673128 3.82624 0
M  V30 4681 H 449.756 3.22826 3.29517 0
M  V30 4682 H 447.999 3.085 3.04976 0
M  V30 4683 H 448.67 2.93281 4.67643 0
M  V30 4684 H 451.146 1.12647 4.00562 0
M  V30 4685 H 450.022 1.05358 5.38694 0
M  V30 4686 H 450.283 -0.379111 4.40472 0
M  V30 4687 N 449.342 -1.36122 0.79427 0
M  V30 4688 C 450.252 -2.33769 0.197296 0
M  V30 4689 C 451.268 -1.61276 -0.653153 0
M  V30 4690 O 452.444 -1.9323 -0.5678 0
M  V30 4691 C 449.509 -3.40474 -0.654098 0
M  V30 4692 C 448.57 -4.28759 0.215411 0
M  V30 4693 C 447.803 -5.30368 -0.595443 0
M  V30 4694 O 448.026 -5.40211 -1.83107 0
M  V30 4695 O 446.96 -6.019 0.00721351 0
M  V30 4696 H 450.786 -2.86597 1.00478 0
M  V30 4697 H 448.371 -1.38676 0.555818 0
M  V30 4698 H 450.253 -4.05703 -1.13944 0
M  V30 4699 H 448.928 -2.89937 -1.43938 0
M  V30 4700 H 447.835 -3.66554 0.747615 0
M  V30 4701 H 449.168 -4.82661 0.964332 0
M  V30 4702 N 450.82 -0.546701 -1.47814 0
M  V30 4703 C 452.05 -0.0232519 -2.06587 0
M  V30 4704 C 452.458 1.2712 -1.40133 0
M  V30 4705 O 451.801 1.77091 -0.488305 0
M  V30 4706 C 451.863 0.254117 -3.58601 0
M  V30 4707 C 451.527 -0.949331 -4.47031 0
M  V30 4708 C 452.524 -1.85216 -4.85789 0
M  V30 4709 C 450.209 -1.16104 -4.88697 0
M  V30 4710 C 452.203 -2.95047 -5.65001 0
M  V30 4711 C 449.89 -2.26247 -5.67676 0
M  V30 4712 C 450.888 -3.1555 -6.05737 0
M  V30 4713 O 450.576 -4.23784 -6.83127 0
M  V30 4714 H 450.308 -0.0380082 -0.674931 0
M  V30 4715 H 452.862 -0.756631 -1.90956 0
M  V30 4716 H 451.092 1.04168 -3.72406 0
M  V30 4717 H 452.781 0.72167 -3.99433 0
M  V30 4718 H 453.547 -1.70061 -4.54207 0
M  V30 4719 H 449.426 -0.475159 -4.58545 0
M  V30 4720 H 452.97 -3.64778 -5.94628 0
M  V30 4721 H 448.867 -2.41379 -5.98671 0
M  V30 4722 H 449.635 -4.21701 -7.01506 0
M  V30 4723 N 452.299 1.55045 -0.282633 0
M  V30 4724 C 453.546 1.9976 0.33199 0
M  V30 4725 C 453.874 1.17105 1.55295 0
M  V30 4726 O 453.129 0.230599 1.94337 0
M  V30 4727 C 453.428 3.49422 0.750938 0
M  V30 4728 C 453.094 4.4941 -0.366228 0
M  V30 4729 C 451.756 4.76471 -0.672964 0
M  V30 4730 C 454.108 5.09054 -1.11864 0
M  V30 4731 C 451.436 5.60442 -1.73556 0
M  V30 4732 C 453.788 5.9418 -2.17102 0
M  V30 4733 C 452.452 6.19558 -2.48402 0
M  V30 4734 H 451.722 0.730974 0.121484 0
M  V30 4735 H 454.369 1.8732 -0.39791 0
M  V30 4736 H 452.674 3.59377 1.56063 0
M  V30 4737 H 454.371 3.81432 1.23736 0
M  V30 4738 H 450.961 4.2844 -0.117041 0
M  V30 4739 H 455.145 4.88165 -0.894925 0
M  V30 4740 H 450.401 5.78349 -1.983 0
M  V30 4741 H 454.575 6.39427 -2.75873 0
M  V30 4742 H 452.202 6.84417 -3.30874 0
M  V30 4743 N 453.777 0.010035 1.57597 0
M  V30 4744 C 454.725 -0.996272 2.10184 0
M  V30 4745 C 455.719 -1.34942 1.02406 0
M  V30 4746 O 456.925 -1.33389 1.20861 0
M  V30 4747 H 453.3 -0.338982 0.671264 0
M  V30 4748 H 455.271 -0.527272 2.93705 0
M  V30 4749 C 454.02 -2.27599 2.62857 0
M  V30 4750 H 453.343 -2.01295 3.45428 0
M  V30 4751 H 454.783 -2.96265 3.0332 0
M  V30 4752 C 453.242 -2.99269 1.54725 0
M  V30 4753 O 453.772 -3.90644 0.93597 0
M  V30 4754 N 451.978 -2.61269 1.27228 0
M  V30 4755 H 451.525 -1.87043 1.77123 0
M  V30 4756 H 451.483 -3.09534 0.550999 0
M  V30 4757 N 455.255 -1.55392 -0.262866 0
M  V30 4758 C 456.483 -1.80513 -1.01108 0
M  V30 4759 C 456.898 -0.583533 -1.79556 0
M  V30 4760 O 456.255 0.447585 -1.76926 0
M  V30 4761 C 456.306 -3.03648 -1.96164 0
M  V30 4762 O 456.027 -4.2109 -1.20893 0
M  V30 4763 C 457.528 -3.41448 -2.82715 0
M  V30 4764 H 454.748 -0.601079 -0.298236 0
M  V30 4765 H 457.292 -2.02425 -0.290582 0
M  V30 4766 H 455.447 -2.83832 -2.63663 0
M  V30 4767 H 455.861 -4.90771 -1.85051 0
M  V30 4768 H 457.335 -4.30751 -3.45192 0
M  V30 4769 H 457.812 -2.61308 -3.53008 0
M  V30 4770 H 458.418 -3.63559 -2.20693 0
M  V30 4771 N 456.733 0.527833 -1.48498 0
M  V30 4772 C 457.98 1.28354 -1.56625 0
M  V30 4773 C 458.308 1.93 -0.241096 0
M  V30 4774 O 457.563 1.79967 0.768798 0
M  V30 4775 C 457.862 2.39275 -2.65485 0
M  V30 4776 C 457.528 1.92268 -4.07853 0
M  V30 4777 C 456.19 1.79166 -4.46602 0
M  V30 4778 C 458.542 1.56771 -4.97064 0
M  V30 4779 C 455.87 1.28905 -5.72364 0
M  V30 4780 C 458.222 1.07972 -6.23318 0
M  V30 4781 C 456.886 0.934887 -6.60921 0
M  V30 4782 H 456.156 0.469682 -0.573131 0
M  V30 4783 H 458.803 0.588781 -1.82224 0
M  V30 4784 H 457.108 3.1443 -2.33754 0
M  V30 4785 H 458.805 2.974 -2.68988 0
M  V30 4786 H 455.395 2.03417 -3.77252 0
M  V30 4787 H 459.579 1.65753 -4.67803 0
M  V30 4788 H 454.835 1.16381 -6.00221 0
M  V30 4789 H 459.009 0.795775 -6.91838 0
M  V30 4790 H 456.636 0.543231 -7.58257 0
M  V30 4791 N 458.211 1.37122 0.776871 0
M  V30 4792 C 459.459 1.31787 1.53221 0
M  V30 4793 C 459.78 -0.0987589 1.9475 0
M  V30 4794 O 459.05 -1.0417 1.65908 0
M  V30 4795 H 457.63 0.484839 0.568278 0
M  V30 4796 H 460.292 1.71556 0.924917 0
M  V30 4797 H 459.388 1.95355 2.43398 0
M  V30 4798 N 459.689 -1.00246 1.21608 0
M  V30 4799 C 460.937 -1.73717 1.0328 0
M  V30 4800 C 461.258 -1.90102 -0.434318 0
M  V30 4801 O 460.528 -1.45376 -1.31311 0
M  V30 4802 H 459.108 -0.643613 0.379172 0
M  V30 4803 H 461.77 -1.20787 1.52959 0
M  V30 4804 H 460.866 -2.73535 1.50283 0
M  V30 4805 N 461.167 -1.02423 -1.1978 0
M  V30 4806 C 462.392 -0.7373 -1.93852 0
M  V30 4807 C 462.817 0.696923 -1.74713 0
M  V30 4808 O 462.175 1.48056 -1.04638 0
M  V30 4809 C 462.223 -1.08783 -3.438 0
M  V30 4810 O 461.327 -0.20383 -4.11896 0
M  V30 4811 H 460.668 -0.27284 -0.605355 0
M  V30 4812 H 463.198 -1.36966 -1.51992 0
M  V30 4813 H 463.208 -1.04276 -3.9445 0
M  V30 4814 H 461.883 -2.13274 -3.57053 0
M  V30 4815 H 460.46 -0.307091 -3.71633 0
M  V30 4816 N 462.645 1.35699 -0.801477 0
M  V30 4817 C 464.056 1.81415 -0.441073 0
M  V30 4818 C 464.407 1.66595 1.03636 0
M  V30 4819 O 463.532 1.19369 1.80499 0
M  V30 4820 C 464.127 3.29369 -0.793819 0
M  V30 4821 C 462.686 3.73248 -0.486083 0
M  V30 4822 C 461.833 2.57775 -1.02213 0
M  V30 4823 H 464.784 1.23749 -0.993572 0
M  V30 4824 H 464.805 3.80395 -0.0894158 0
M  V30 4825 H 464.317 3.40123 -1.86917 0
M  V30 4826 H 462.418 3.68046 0.580735 0
M  V30 4827 H 462.531 4.68222 -1.01513 0
M  V30 4828 H 460.895 2.50788 -0.444712 0
M  V30 4829 H 461.678 2.71309 -2.10348 0
M  V30 4830 N 464.123 0.554532 1.47522 0
M  V30 4831 C 465.369 0.0295227 2.02779 0
M  V30 4832 C 465.702 -1.31582 1.42828 0
M  V30 4833 O 464.977 -1.85561 0.582872 0
M  V30 4834 C 465.26 -0.0664057 3.60039 0
M  V30 4835 C 465.113 1.30585 4.30427 0
M  V30 4836 C 466.432 -0.781162 4.33112 0
M  V30 4837 H 463.551 0.0122027 0.736899 0
M  V30 4838 H 466.193 0.716305 1.7598 0
M  V30 4839 H 464.343 -0.651307 3.83002 0
M  V30 4840 H 466.015 1.93374 4.18813 0
M  V30 4841 H 464.258 1.88125 3.90886 0
M  V30 4842 H 464.929 1.19147 5.38988 0
M  V30 4843 H 467.405 -0.284565 4.15126 0
M  V30 4844 H 466.281 -0.817237 5.42782 0
M  V30 4845 H 466.542 -1.83672 4.0214 0
M  V30 4846 N 465.601 -1.54893 0.290851 0
M  V30 4847 C 466.826 -2.04804 -0.32712 0
M  V30 4848 C 467.251 -1.16721 -1.47506 0
M  V30 4849 O 466.609 -0.169107 -1.8051 0
M  V30 4850 C 466.657 -3.52268 -0.770689 0
M  V30 4851 O 465.761 -3.67236 -1.87647 0
M  V30 4852 H 465.102 -0.660789 -0.0652227 0
M  V30 4853 H 467.632 -2.00036 0.429739 0
M  V30 4854 H 467.642 -3.9393 -1.06223 0
M  V30 4855 H 466.317 -4.15843 0.069096 0
M  V30 4856 H 464.894 -3.37479 -1.58626 0
M  V30 4857 N 467.08 -0.0183926 -1.57589 0
M  V30 4858 C 468.32 0.666846 -1.93216 0
M  V30 4859 C 468.684 1.69905 -0.894215 0
M  V30 4860 O 469.885 2.436 -1.13633 0
M  V30 4861 C 468.156 1.27684 -3.33814 0
M  V30 4862 S 469.715 1.98464 -3.91353 0
M  V30 4863 H 466.533 0.219826 -0.676164 0
M  V30 4864 H 469.135 -0.0794893 -1.95338 0
M  V30 4865 H 467.839 0.513006 -4.07181 0
M  V30 4866 H 467.37 2.06071 -3.3511 0
M  V30 4867 H 469.385 3.26189 -3.73918 0
M  V30 4868 N 468.558 1.5553 0.254621 0
M  V30 4869 C 469.521 1.88872 1.29846 0
M  V30 4870 C 470.521 0.764591 1.41459 0
M  V30 4871 O 471.711 1.03265 1.40293 0
M  V30 4872 C 468.843 2.11032 2.67728 0
M  V30 4873 H 470.036 2.82201 1.01502 0
M  V30 4874 H 467.589 1.48303 0.493556 0
M  V30 4875 H 468.324 1.20146 3.01223 0
M  V30 4876 H 468.109 2.92895 2.60682 0
M  V30 4877 H 469.599 2.38038 3.43115 0
M  V30 4878 N 470.036 -0.519951 1.48776 0
M  V30 4879 C 471.282 -1.27711 1.57536 0
M  V30 4880 C 471.615 -1.92547 0.252866 0
M  V30 4881 O 470.89 -1.7979 -0.742021 0
M  V30 4882 C 471.173 -2.35875 2.72094 0
M  V30 4883 C 471.026 -1.75664 4.1408 0
M  V30 4884 C 472.345 -3.37575 2.82367 0
M  V30 4885 H 469.464 -0.462971 0.573434 0
M  V30 4886 H 472.106 -0.578194 1.80989 0
M  V30 4887 H 470.256 -2.95488 2.52228 0
M  V30 4888 H 471.928 -1.20025 4.45412 0
M  V30 4889 H 470.171 -1.06154 4.20611 0
M  V30 4890 H 470.842 -2.54029 4.90075 0
M  V30 4891 H 473.318 -2.87929 3.00393 0
M  V30 4892 H 472.194 -4.1064 3.64233 0
M  V30 4893 H 472.455 -3.98743 1.90936 0
M  V30 4894 N 471.514 -1.37532 -0.769588 0
M  V30 4895 C 472.762 -1.32597 -1.5252 0
M  V30 4896 C 473.083 0.0884294 -1.94799 0
M  V30 4897 O 472.353 1.03289 -1.66458 0
M  V30 4898 H 470.933 -0.487846 -0.565699 0
M  V30 4899 H 473.595 -1.72044 -0.915806 0
M  V30 4900 H 472.691 -1.96643 -2.42359 0
M  V30 4901 N 472.992 0.995999 -1.22138 0
M  V30 4902 C 473.922 2.10387 -1.01289 0
M  V30 4903 C 474.903 1.69975 0.0651454 0
M  V30 4904 O 476.088 1.9396 -0.0964628 0
M  V30 4905 C 473.218 3.42312 -0.586517 0
M  V30 4906 C 472.172 3.96558 -1.61014 0
M  V30 4907 C 471.498 5.24494 -1.0397 0
M  V30 4908 C 472.798 4.27595 -2.99933 0
M  V30 4909 H 474.492 2.28086 -1.93951 0
M  V30 4910 H 472.038 1.09607 -0.933928 0
M  V30 4911 H 473.991 4.19223 -0.427793 0
M  V30 4912 H 472.715 3.24431 0.375761 0
M  V30 4913 H 471.374 3.21776 -1.75658 0
M  V30 4914 H 471.022 5.02953 -0.0688703 0
M  V30 4915 H 470.722 5.61755 -1.72352 0
M  V30 4916 H 472.246 6.04042 -0.892494 0
M  V30 4917 H 473.66 4.95315 -2.8868 0
M  V30 4918 H 472.057 4.76021 -3.6541 0
M  V30 4919 H 473.127 3.35498 -3.50099 0
M  V30 4920 N 474.47 1.03057 1.19235 0
M  V30 4921 C 475.433 0.617418 2.20727 0
M  V30 4922 C 476.433 -0.319856 1.57587 0
M  V30 4923 O 477.623 -0.106633 1.73873 0
M  V30 4924 C 474.755 -0.096296 3.40764 0
M  V30 4925 H 475.948 1.51544 2.58794 0
M  V30 4926 H 473.501 0.821949 1.32942 0
M  V30 4927 H 474.236 -1.00859 3.08217 0
M  V30 4928 H 474.021 0.577217 3.87828 0
M  V30 4929 H 475.511 -0.372219 4.15938 0
M  V30 4930 N 475.948 -1.35272 0.808662 0
M  V30 4931 C 477.194 -1.99003 0.390581 0
M  V30 4932 C 477.527 -1.63999 -1.0401 0
M  V30 4933 O 476.802 -0.904368 -1.72196 0
M  V30 4934 C 477.085 -3.55454 0.576566 0
M  V30 4935 C 476.938 -4.00249 2.05233 0
M  V30 4936 C 478.257 -4.401 0.00354277 0
M  V30 4937 H 475.376 -0.722917 0.143388 0
M  V30 4938 H 478.018 -1.6039 1.01858 0
M  V30 4939 H 476.168 -3.88477 0.0419766 0
M  V30 4940 H 477.84 -3.77626 2.64946 0
M  V30 4941 H 476.083 -3.51082 2.54801 0
M  V30 4942 H 476.754 -5.0911 2.13333 0
M  V30 4943 H 479.23 -4.13548 0.460117 0
M  V30 4944 H 478.106 -5.48656 0.163575 0
M  V30 4945 H 478.367 -4.28444 -1.09032 0
M  V30 4946 N 477.426 -0.562348 -1.47226 0
M  V30 4947 C 478.356 0.170627 -2.32876 0
M  V30 4948 C 479.337 0.903748 -1.44106 0
M  V30 4949 O 480.522 0.883206 -1.72954 0
M  V30 4950 C 477.652 1.19786 -3.25989 0
M  V30 4951 C 476.606 0.580875 -4.2404 0
M  V30 4952 C 475.932 1.71311 -5.06514 0
M  V30 4953 C 477.232 -0.468714 -5.20193 0
M  V30 4954 H 478.926 -0.544441 -2.94408 0
M  V30 4955 H 476.472 -0.263271 -1.41573 0
M  V30 4956 H 478.425 1.71884 -3.84752 0
M  V30 4957 H 477.149 1.94294 -2.62521 0
M  V30 4958 H 475.808 0.0811538 -3.6651 0
M  V30 4959 H 475.456 2.44736 -4.39447 0
M  V30 4960 H 475.156 1.30604 -5.72902 0
M  V30 4961 H 476.68 2.23725 -5.68137 0
M  V30 4962 H 478.094 -0.0336028 -5.7329 0
M  V30 4963 H 476.491 -0.794957 -5.94811 0
M  V30 4964 H 477.561 -1.36269 -4.65359 0
M  V30 4965 N 478.904 1.54736 -0.299062 0
M  V30 4966 C 479.852 2.24897 0.593658 0
M  V30 4967 C 480.846 1.25429 1.13859 0
M  V30 4968 O 482.052 1.43286 1.08945 0
M  V30 4969 H 478.427 0.72207 0.210046 0
M  V30 4970 H 480.398 2.98393 -0.0206421 0
M  V30 4971 C 479.147 3.00159 1.75499 0
M  V30 4972 H 478.47 3.76501 1.34489 0
M  V30 4973 H 479.91 3.52535 2.35574 0
M  V30 4974 C 478.369 2.07015 2.65794 0
M  V30 4975 O 478.899 1.63692 3.66835 0
M  V30 4976 N 477.105 1.73012 2.33485 0
M  V30 4977 H 476.652 2.08439 1.51364 0
M  V30 4978 H 476.61 1.10965 2.94167 0
M  V30 4979 N 480.382 0.0267497 1.57577 0
M  V30 4980 C 481.628 -0.653371 1.91987 0
M  V30 4981 C 481.961 -1.71915 0.903263 0
M  V30 4982 O 481.236 -1.94358 -0.0743387 0
M  V30 4983 C 481.519 -1.272 3.36886 0
M  V30 4984 C 481.372 -0.215938 4.49281 0
M  V30 4985 C 482.691 -2.19069 3.81703 0
M  V30 4986 H 479.81 -0.236047 0.698177 0
M  V30 4987 H 482.452 0.0835236 1.89816 0
M  V30 4988 H 480.602 -1.90005 3.38866 0
M  V30 4989 H 482.274 0.41449 4.59434 0
M  V30 4990 H 480.517 0.458855 4.31366 0
M  V30 4991 H 481.188 -0.688347 5.47691 0
M  V30 4992 H 483.664 -1.66253 3.81444 0
M  V30 4993 H 482.54 -2.59307 4.83788 0
M  V30 4994 H 482.801 -3.08087 3.17072 0
M  V30 4995 N 481.861 -1.55662 -0.24637 0
M  V30 4996 C 482.791 -1.93377 -1.30873 0
M  V30 4997 C 483.772 -0.798773 -1.50179 0
M  V30 4998 O 484.957 -1.0591 -1.62778 0
M  V30 4999 C 482.087 -2.22893 -2.66338 0
M  V30 5000 C 481.041 -3.38649 -2.61727 0
M  V30 5001 C 480.367 -3.53708 -4.00992 0
M  V30 5002 C 481.667 -4.74323 -2.18666 0
M  V30 5003 H 483.361 -2.82363 -0.995552 0
M  V30 5004 H 480.907 -1.35854 -0.477464 0
M  V30 5005 H 482.86 -2.47866 -3.40794 0
M  V30 5006 H 481.584 -1.30733 -2.99293 0
M  V30 5007 H 480.243 -3.13685 -1.89729 0
M  V30 5008 H 479.891 -2.58967 -4.31214 0
M  V30 5009 H 479.591 -4.31551 -3.98795 0
M  V30 5010 H 481.115 -3.81003 -4.77147 0
M  V30 5011 H 482.529 -4.98665 -2.82854 0
M  V30 5012 H 480.926 -5.55273 -2.27579 0
M  V30 5013 H 481.996 -4.71349 -1.13834 0
M  V30 5014 N 483.339 0.512053 -1.4905 0
M  V30 5015 C 484.249 1.64139 -1.67617 0
M  V30 5016 C 485.265 1.64786 -0.558701 0
M  V30 5017 O 486.441 1.8341 -0.832034 0
M  V30 5018 C 483.506 3.00548 -1.72835 0
M  V30 5019 C 482.567 3.10615 -2.96339 0
M  V30 5020 C 481.8 4.40517 -3.01298 0
M  V30 5021 O 482.023 5.28671 -2.14157 0
M  V30 5022 O 480.957 4.55325 -3.93653 0
M  V30 5023 H 484.783 1.51407 -2.63267 0
M  V30 5024 H 482.368 0.687131 -1.32661 0
M  V30 5025 H 484.25 3.81641 -1.78683 0
M  V30 5026 H 482.925 3.13566 -0.803616 0
M  V30 5027 H 481.832 2.2875 -2.96014 0
M  V30 5028 H 483.165 3.0252 -3.88256 0
M  V30 5029 N 484.817 1.37938 0.762283 0
M  V30 5030 C 485.764 1.34467 1.87583 0
M  V30 5031 C 486.734 0.208633 1.64785 0
M  V30 5032 O 487.919 0.399494 1.86571 0
M  V30 5033 C 485.059 1.16692 3.24772 0
M  V30 5034 C 484.172 2.39608 3.59461 0
M  V30 5035 C 483.307 2.14631 4.85908 0
M  V30 5036 C 482.346 3.33364 5.13357 0
M  V30 5037 N 481.483 3.07877 6.30996 0
M  V30 5038 H 486.323 2.29669 1.89885 0
M  V30 5039 H 483.86 1.14116 0.928219 0
M  V30 5040 H 485.818 1.04405 4.03925 0
M  V30 5041 H 484.448 0.251333 3.2182 0
M  V30 5042 H 483.5 2.626 2.75219 0
M  V30 5043 H 484.812 3.28128 3.75678 0
M  V30 5044 H 483.966 1.99429 5.72986 0
M  V30 5045 H 482.705 1.23463 4.71814 0
M  V30 5046 H 481.71 3.49094 4.24751 0
M  V30 5047 H 482.935 4.25395 5.29354 0
M  V30 5048 H 480.881 2.19348 6.18241 0
M  V30 5049 H 480.798 3.89944 6.47673 0
M  V30 5050 H 482.066 2.96313 7.20985 0
M  V30 5051 N 486.295 -0.989507 1.22664 0
M  V30 5052 C 487.205 -2.11449 1.01619 0
M  V30 5053 C 488.221 -1.73962 -0.036545 0
M  V30 5054 O 489.397 -2.00788 0.156924 0
M  V30 5055 C 486.462 -3.41465 0.600204 0
M  V30 5056 C 485.523 -3.93033 1.72695 0
M  V30 5057 C 484.756 -5.16844 1.33071 0
M  V30 5058 O 484.979 -5.7001 0.210975 0
M  V30 5059 O 483.913 -5.6225 2.14845 0
M  V30 5060 H 487.739 -2.32088 1.9588 0
M  V30 5061 H 485.324 -1.09823 1.01289 0
M  V30 5062 H 487.206 -4.19695 0.37873 0
M  V30 5063 H 485.881 -3.22178 -0.313511 0
M  V30 5064 H 484.788 -3.15961 2.00298 0
M  V30 5065 H 486.121 -4.16758 2.61865 0
M  V30 5066 N 487.773 -1.03688 -1.18687 0
M  V30 5067 C 488.705 -0.582696 -2.21669 0
M  V30 5068 C 489.718 0.345656 -1.59088 0
M  V30 5069 O 490.907 0.140776 -1.77944 0
M  V30 5070 C 488.007 0.169204 -3.38477 0
M  V30 5071 C 487.18 -0.766079 -4.30639 0
M  V30 5072 C 486.239 -0.0581541 -5.26168 0
M  V30 5073 O 485.265 -0.687346 -5.65035 0
M  V30 5074 N 486.467 1.20981 -5.67753 0
M  V30 5075 H 489.232 -1.46843 -2.61261 0
M  V30 5076 H 486.793 -0.916896 -1.33434 0
M  V30 5077 H 488.785 0.652543 -3.99405 0
M  V30 5078 H 487.355 0.956435 -2.97609 0
M  V30 5079 H 486.575 -1.42935 -3.67373 0
M  V30 5080 H 487.863 -1.40146 -4.89118 0
M  V30 5081 H 487.261 1.74159 -5.38224 0
M  V30 5082 H 485.818 1.6375 -6.30896 0
M  V30 5083 N 489.251 1.34841 -0.815825 0
M  V30 5084 C 490.181 2.32187 -0.247298 0
M  V30 5085 C 491.162 1.5791 0.632344 0
M  V30 5086 O 492.347 1.8593 0.560698 0
M  V30 5087 C 489.477 3.42122 0.597466 0
M  V30 5088 C 488.431 4.27602 -0.184446 0
M  V30 5089 C 487.757 5.28942 0.782609 0
M  V30 5090 C 489.057 5.03502 -1.38865 0
M  V30 5091 H 490.751 2.79985 -1.06061 0
M  V30 5092 H 488.297 1.34611 -0.511461 0
M  V30 5093 H 490.25 4.09232 1.00533 0
M  V30 5094 H 488.974 2.92956 1.44376 0
M  V30 5095 H 487.633 3.62085 -0.573592 0
M  V30 5096 H 487.281 4.7604 1.62466 0
M  V30 5097 H 486.981 5.87008 0.263695 0
M  V30 5098 H 488.505 5.98922 1.18848 0
M  V30 5099 H 489.919 5.63506 -1.05518 0
M  V30 5100 H 488.316 5.71108 -1.8427 0
M  V30 5101 H 489.386 4.33608 -2.17054 0
M  V30 5102 N 490.729 0.570148 1.46925 0
M  V30 5103 C 491.661 -0.207909 2.28255 0
M  V30 5104 C 492.674 -0.867301 1.37774 0
M  V30 5105 O 493.863 -0.738976 1.62485 0
M  V30 5106 C 490.963 -1.31298 3.12433 0
M  V30 5107 C 490.136 -0.747915 4.30958 0
M  V30 5108 C 489.195 -1.7391 4.9663 0
M  V30 5109 O 488.221 -1.2801 5.54619 0
M  V30 5110 N 489.423 -3.07288 4.92498 0
M  V30 5111 H 492.188 0.489794 2.95671 0
M  V30 5112 H 489.749 0.407076 1.56699 0
M  V30 5113 H 491.741 -1.97507 3.53232 0
M  V30 5114 H 490.311 -1.91373 2.47175 0
M  V30 5115 H 489.531 0.0913066 3.94094 0
M  V30 5116 H 490.819 -0.349958 5.07595 0
M  V30 5117 H 490.217 -3.47213 4.46609 0
M  V30 5118 H 488.774 -3.69021 5.37277 0
M  V30 5119 N 492.207 -1.54576 0.307264 0
M  V30 5120 C 493.484 -1.92377 -0.353605 0
M  V30 5121 C 493.864 -1.23517 -1.71192 0
M  V30 5122 O 493.212 -0.373101 -2.25433 0
M  V30 5123 C 493.422 -3.45928 -0.462039 0
M  V30 5124 C 494.77 -4.18278 -0.729975 0
M  V30 5125 O 495.794 -3.51997 -0.545605 0
M  V30 5126 O 494.653 -5.3563 -1.08454 0
M  V30 5127 H 491.747 -0.802747 -0.198812 0
M  V30 5128 H 494.293 -1.65929 0.355783 0
M  V30 5129 H 493.065 -3.88187 0.492592 0
M  V30 5130 H 492.688 -3.78431 -1.21965 0
M  V30 5131 N 493.685 -0.035106 -1.57561 0
M  V30 5132 C 494.635 0.954034 -2.0708 0
M  V30 5133 C 495.619 1.2818 -0.972558 0
M  V30 5134 O 496.811 1.26691 -1.23606 0
M  V30 5135 C 493.94 2.23442 -2.60631 0
M  V30 5136 C 493.026 1.93475 -3.77396 0
M  V30 5137 N 493.417 1.33802 -4.87781 0
M  V30 5138 C 491.715 2.23434 -3.85996 0
M  V30 5139 C 492.416 1.21103 -5.68954 0
M  V30 5140 N 491.392 1.70855 -5.16052 0
M  V30 5141 H 495.194 0.487731 -2.89825 0
M  V30 5142 H 492.708 0.169759 -1.6151 0
M  V30 5143 H 494.705 2.95183 -2.94402 0
M  V30 5144 H 493.365 2.70693 -1.79319 0
M  V30 5145 H 494.376 1.01227 -5.07911 0
M  V30 5146 H 491.053 2.73317 -3.15601 0
M  V30 5147 H 492.443 0.749105 -6.67711 0
M  V30 5148 N 495.163 1.55791 0.238111 0
M  V30 5149 C 496.126 1.90239 1.27835 0
M  V30 5150 C 497.126 0.779552 1.4064 0
M  V30 5151 O 498.316 1.04747 1.3919 0
M  V30 5152 C 495.448 2.13859 2.65475 0
M  V30 5153 H 496.641 2.83262 0.985034 0
M  V30 5154 H 494.194 1.48818 0.477799 0
M  V30 5155 H 494.929 1.23334 2.99932 0
M  V30 5156 H 494.714 2.95643 2.57561 0
M  V30 5157 H 496.204 2.41664 3.40571 0
M  V30 5158 N 496.642 -0.504142 1.49319 0
M  V30 5159 C 497.87 -1.28256 1.62351 0
M  V30 5160 C 498.285 -1.86502 0.293682 0
M  V30 5161 O 497.642 -1.67678 -0.720449 0
M  V30 5162 C 497.693 -2.41507 2.68992 0
M  V30 5163 O 497.414 -1.85656 3.96817 0
M  V30 5164 C 498.915 -3.32929 2.927 0
M  V30 5165 H 496.135 -0.389115 0.546654 0
M  V30 5166 H 498.679 -0.605531 1.95329 0
M  V30 5167 H 496.834 -3.05046 2.38801 0
M  V30 5168 H 497.248 -2.59981 4.55533 0
M  V30 5169 H 498.722 -4.0868 3.71058 0
M  V30 5170 H 499.199 -3.89733 2.02496 0
M  V30 5171 H 499.805 -2.75158 3.24296 0
M  V30 5172 N 498.12 -1.38341 -0.754957 0
M  V30 5173 C 499.345 -1.37882 -1.5493 0
M  V30 5174 C 499.77 0.0296385 -1.88077 0
M  V30 5175 O 499.128 1.01133 -1.50472 0
M  V30 5176 C 499.176 -2.23996 -2.82592 0
M  V30 5177 O 498.28 -1.65612 -3.77686 0
M  V30 5178 H 497.621 -0.470384 -0.468652 0
M  V30 5179 H 500.151 -1.82084 -0.933082 0
M  V30 5180 H 500.161 -2.37806 -3.3153 0
M  V30 5181 H 498.836 -3.26365 -2.57796 0
M  V30 5182 H 497.413 -1.60936 -3.36384 0
M  V30 5183 N 499.598 0.982988 -1.23187 0
M  V30 5184 C 500.844 1.72648 -1.06398 0
M  V30 5185 C 501.177 1.90066 0.398561 0
M  V30 5186 O 500.452 1.45105 1.29518 0
M  V30 5187 C 500.735 3.12627 -1.78707 0
M  V30 5188 C 500.588 3.02795 -3.32618 0
M  V30 5189 C 501.907 4.11997 -1.54747 0
M  V30 5190 H 499.026 0.626649 -0.387918 0
M  V30 5191 H 501.668 1.14455 -1.51658 0
M  V30 5192 H 499.818 3.62308 -1.40234 0
M  V30 5193 H 501.49 2.60659 -3.80598 0
M  V30 5194 H 499.733 2.39362 -3.61785 0
M  V30 5195 H 500.404 4.01893 -3.78399 0
M  V30 5196 H 502.88 3.71114 -1.88186 0
M  V30 5197 H 501.756 5.08037 -2.07821 0
M  V30 5198 H 502.017 4.39462 -0.482249 0
M  V30 5199 N 501.076 1.04316 1.18135 0
M  V30 5200 C 502.324 0.746542 1.87806 0
M  V30 5201 C 502.645 -0.728082 1.80898 0
M  V30 5202 O 501.915 -1.52554 1.22899 0
M  V30 5203 H 500.495 0.273157 0.695265 0
M  V30 5204 H 503.157 1.32044 1.43354 0
M  V30 5205 H 502.253 1.05362 2.93778 0
M  V30 5206 N 502.554 -1.34406 0.822964 0
M  V30 5207 C 503.779 -2.0304 0.423034 0
M  V30 5208 C 504.204 -1.61568 -0.963196 0
M  V30 5209 O 503.562 -0.800339 -1.62678 0
M  V30 5210 C 503.61 -3.56636 0.53321 0
M  V30 5211 O 502.714 -4.09971 -0.446939 0
M  V30 5212 H 502.055 -0.64075 0.174171 0
M  V30 5213 H 504.585 -1.71653 1.11339 0
M  V30 5214 H 504.595 -4.05945 0.408991 0
M  V30 5215 H 503.27 -3.86168 1.54425 0
M  V30 5216 H 501.847 -3.71835 -0.281601 0
M  V30 5217 N 504.032 -0.577932 -1.46621 0
M  V30 5218 C 505.279 -0.0616879 -2.02406 0
M  V30 5219 C 505.607 1.29638 -1.44997 0
M  V30 5220 O 504.862 1.86176 -0.60308 0
M  V30 5221 C 505.161 0.0590832 -3.57351 0
M  V30 5222 C 504.827 -1.23077 -4.33777 0
M  V30 5223 C 503.489 -1.58416 -4.54376 0
M  V30 5224 C 505.841 -2.08457 -4.77698 0
M  V30 5225 C 503.169 -2.78943 -5.16147 0
M  V30 5226 C 505.521 -3.28204 -5.408 0
M  V30 5227 C 504.185 -3.63832 -5.59627 0
M  V30 5228 H 503.455 -0.0225732 -0.740656 0
M  V30 5229 H 506.102 -0.753609 -1.76048 0
M  V30 5230 H 504.407 0.834104 -3.82818 0
M  V30 5231 H 506.104 0.474202 -3.98186 0
M  V30 5232 H 502.694 -0.945652 -4.18038 0
M  V30 5233 H 506.878 -1.82459 -4.61544 0
M  V30 5234 H 502.134 -3.06689 -5.28916 0
M  V30 5235 H 506.308 -3.94634 -5.73792 0
M  V30 5236 H 503.935 -4.57315 -6.07262 0
M  V30 5237 N 505.51 1.54411 -0.315457 0
M  V30 5238 C 506.44 2.27002 0.547039 0
M  V30 5239 C 507.421 1.27492 1.12605 0
M  V30 5240 O 508.606 1.5629 1.15269 0
M  V30 5241 C 505.736 3.02171 1.71201 0
M  V30 5242 C 504.69 4.0895 1.26268 0
M  V30 5243 C 504.016 4.71915 2.51396 0
M  V30 5244 C 505.316 5.20891 0.383419 0
M  V30 5245 H 507.01 2.99343 -0.0584517 0
M  V30 5246 H 504.556 1.4397 -0.0295527 0
M  V30 5247 H 506.509 3.51681 2.32161 0
M  V30 5248 H 505.233 2.27433 2.34397 0
M  V30 5249 H 503.892 3.60312 0.676062 0
M  V30 5250 H 503.54 3.93801 3.12937 0
M  V30 5251 H 503.24 5.44039 2.22026 0
M  V30 5252 H 504.764 5.24195 3.13133 0
M  V30 5253 H 506.178 5.66206 0.899082 0
M  V30 5254 H 504.575 5.99821 0.182857 0
M  V30 5255 H 505.645 4.81324 -0.587821 0
M  V30 5256 N 506.988 0.0434614 1.5754 0
M  V30 5257 C 507.921 -0.968729 2.06618 0
M  V30 5258 C 508.899 -1.30868 0.965 0
M  V30 5259 O 510.083 -1.42288 1.23638 0
M  V30 5260 C 507.21 -2.28486 2.50023 0
M  V30 5261 C 506.256 -2.09851 3.71302 0
M  V30 5262 S 507.089 -1.38401 5.17306 0
M  V30 5263 C 508.245 -2.71354 5.64019 0
M  V30 5264 H 508.478 -0.551021 2.92149 0
M  V30 5265 H 506.011 -0.168607 1.53477 0
M  V30 5266 H 507.969 -3.04142 2.75695 0
M  V30 5267 H 506.63 -2.67387 1.64812 0
M  V30 5268 H 505.823 -3.07184 3.99567 0
M  V30 5269 H 505.425 -1.42336 3.45856 0
M  V30 5270 H 507.717 -3.67549 5.69134 0
M  V30 5271 H 508.66 -2.47734 6.6335 0
M  V30 5272 H 509.068 -2.77259 4.91719 0
M  V30 5273 N 508.466 -1.55915 -0.229846 0
M  V30 5274 C 509.398 -1.88209 -1.30805 0
M  V30 5275 C 510.411 -0.769672 -1.43457 0
M  V30 5276 O 511.6 -1.04792 -1.44502 0
M  V30 5277 C 508.7 -2.06829 -2.68468 0
M  V30 5278 C 507.873 -3.37798 -2.77869 0
M  V30 5279 C 506.932 -3.45952 -3.96489 0
M  V30 5280 O 505.958 -4.19043 -3.85216 0
M  V30 5281 N 507.16 -2.76488 -5.10426 0
M  V30 5282 H 509.925 -2.81286 -1.03431 0
M  V30 5283 H 507.486 -1.5636 -0.41991 0
M  V30 5284 H 509.478 -2.09608 -3.46189 0
M  V30 5285 H 508.048 -1.20416 -2.88477 0
M  V30 5286 H 507.268 -3.4719 -1.86689 0
M  V30 5287 H 508.556 -4.24091 -2.81113 0
M  V30 5288 H 507.954 -2.16868 -5.2248 0
M  V30 5289 H 506.511 -2.84938 -5.8622 0
M  V30 5290 N 509.944 0.496216 -1.49584 0
M  V30 5291 C 510.874 1.60576 -1.69521 0
M  V30 5292 C 511.855 1.61169 -0.543933 0
M  V30 5293 O 513.04 1.77834 -0.78031 0
M  V30 5294 C 510.17 2.99038 -1.76616 0
M  V30 5295 C 509.124 3.13312 -2.91581 0
M  V30 5296 C 508.45 4.53172 -2.83794 0
M  V30 5297 C 509.75 2.92886 -4.32452 0
M  V30 5298 H 511.444 1.44146 -2.62416 0
M  V30 5299 H 508.99 0.692024 -1.26282 0
M  V30 5300 H 510.943 3.76564 -1.8915 0
M  V30 5301 H 509.667 3.16568 -0.80324 0
M  V30 5302 H 508.326 2.38213 -2.78658 0
M  V30 5303 H 507.974 4.67585 -1.854 0
M  V30 5304 H 507.674 4.63662 -3.60958 0
M  V30 5305 H 509.198 5.32752 -2.98342 0
M  V30 5306 H 510.612 3.60178 -4.46032 0
M  V30 5307 H 509.009 3.14844 -5.10875 0
M  V30 5308 H 510.079 1.88966 -4.46565 0
M  V30 5309 N 511.423 1.38739 0.74761 0
M  V30 5310 C 512.353 1.39173 1.87492 0
M  V30 5311 C 513.334 0.256794 1.6815 0
M  V30 5312 O 514.519 0.460762 1.88655 0
M  V30 5313 C 511.649 1.22197 3.25093 0
M  V30 5314 C 510.603 2.32957 3.59047 0
M  V30 5315 C 509.929 2.01082 4.95449 0
M  V30 5316 C 511.229 3.75237 3.6331 0
M  V30 5317 H 512.923 2.3351 1.87386 0
M  V30 5318 H 510.469 1.12399 0.900134 0
M  V30 5319 H 512.422 1.21124 4.03617 0
M  V30 5320 H 511.146 0.243241 3.25693 0
M  V30 5321 H 509.805 2.33226 2.82845 0
M  V30 5322 H 509.453 1.01678 4.92616 0
M  V30 5323 H 509.153 2.75267 5.19136 0
M  V30 5324 H 510.677 2.01638 5.76346 0
M  V30 5325 H 512.091 3.76966 4.31937 0
M  V30 5326 H 510.488 4.48677 3.98509 0
M  V30 5327 H 511.558 4.07122 2.634 0
M  V30 5328 N 512.901 -0.976442 1.23707 0
M  V30 5329 C 514.149 -1.71487 1.06942 0
M  V30 5330 C 514.47 -1.9098 -0.393897 0
M  V30 5331 O 513.74 -1.48128 -1.28198 0
M  V30 5332 H 512.32 -0.635425 0.392739 0
M  V30 5333 H 514.982 -1.17515 1.55487 0
M  V30 5334 H 514.078 -2.70286 1.56051 0
M  V30 5335 N 514.379 -1.04941 -1.1758 0
M  V30 5336 C 515.311 -0.606174 -2.21039 0
M  V30 5337 C 516.324 0.328763 -1.59446 0
M  V30 5338 O 517.513 0.121895 -1.78083 0
M  V30 5339 C 514.613 0.133294 -3.38638 0
M  V30 5340 C 513.786 -0.811711 -4.29802 0
M  V30 5341 C 512.845 -0.113958 -5.26077 0
M  V30 5342 O 511.871 -0.747237 -5.64274 0
M  V30 5343 N 513.073 1.14953 -5.69004 0
M  V30 5344 H 515.838 -1.49606 -2.59689 0
M  V30 5345 H 513.399 -0.930997 -1.32454 0
M  V30 5346 H 515.391 0.610144 -4.00074 0
M  V30 5347 H 513.961 0.924816 -2.98607 0
M  V30 5348 H 513.181 -1.46824 -3.65837 0
M  V30 5349 H 514.469 -1.45326 -4.87604 0
M  V30 5350 H 513.867 1.68441 -5.40041 0
M  V30 5351 H 512.424 1.57049 -6.32597 0
M  V30 5352 N 515.857 1.33968 -0.830081 0
M  V30 5353 C 516.789 2.28194 -0.21448 0
M  V30 5354 C 517.802 1.5135 0.599752 0
M  V30 5355 O 518.991 1.73286 0.42826 0
M  V30 5356 C 516.091 3.31221 0.717356 0
M  V30 5357 C 515.264 4.37365 -0.055613 0
M  V30 5358 C 514.323 5.2011 0.798231 0
M  V30 5359 O 513.349 5.68691 0.240616 0
M  V30 5360 N 514.551 5.40523 2.11695 0
M  V30 5361 H 517.316 2.81662 -1.02405 0
M  V30 5362 H 514.877 1.46568 -0.687713 0
M  V30 5363 H 516.869 3.83477 1.29334 0
M  V30 5364 H 515.439 2.78095 1.42765 0
M  V30 5365 H 514.659 3.85727 -0.812936 0
M  V30 5366 H 515.947 5.05397 -0.587444 0
M  V30 5367 H 515.345 5.0274 2.59363 0
M  V30 5368 H 513.902 5.95871 2.64162 0
M  V30 5369 N 517.335 0.585699 1.46312 0
M  V30 5370 C 518.282 -0.145835 2.30339 0
M  V30 5371 C 519.252 -0.881215 1.40797 0
M  V30 5372 O 520.437 -0.871293 1.69744 0
M  V30 5373 C 517.577 -1.15161 3.25318 0
M  V30 5374 C 516.69 -0.419367 4.2996 0
M  V30 5375 C 515.825 -1.41293 5.12064 0
M  V30 5376 C 514.864 -0.667261 6.08452 0
M  V30 5377 N 514.001 -1.60903 6.83414 0
M  V30 5378 H 518.841 0.576755 2.92365 0
M  V30 5379 H 516.378 0.296237 1.44086 0
M  V30 5380 H 518.336 -1.74763 3.78832 0
M  V30 5381 H 516.966 -1.84188 2.65094 0
M  V30 5382 H 516.018 0.291751 3.7928 0
M  V30 5383 H 517.33 0.163433 4.98532 0
M  V30 5384 H 516.484 -2.08167 5.6987 0
M  V30 5385 H 515.223 -2.02966 4.43459 0
M  V30 5386 H 514.228 0.0152356 5.49798 0
M  V30 5387 H 515.453 -0.0558817 6.79077 0
M  V30 5388 H 513.399 -2.21381 6.17516 0
M  V30 5389 H 513.316 -1.07911 7.48259 0
M  V30 5390 H 514.584 -2.26802 7.45775 0
M  V30 5391 N 518.813 -1.54241 0.323641 0
M  V30 5392 C 520.062 -1.9975 -0.279806 0
M  V30 5393 C 520.375 -1.2156 -1.5324 0
M  V30 5394 O 521.581 -1.57447 -2.21185 0
M  V30 5395 C 520.037 -3.55686 -0.549115 0
M  V30 5396 C 519.645 -4.4271 0.686432 0
M  V30 5397 C 521.389 -4.09663 -1.11251 0
M  V30 5398 C 519.296 -5.90119 0.389022 0
M  V30 5399 H 518.226 -0.746177 -0.10833 0
M  V30 5400 H 520.877 -1.78248 0.435877 0
M  V30 5401 H 519.259 -3.73176 -1.32499 0
M  V30 5402 H 520.433 -4.36996 1.46188 0
M  V30 5403 H 518.748 -3.99623 1.17005 0
M  V30 5404 H 521.345 -5.17386 -1.34965 0
M  V30 5405 H 521.688 -3.61651 -2.06191 0
M  V30 5406 H 522.221 -3.95806 -0.39782 0
M  V30 5407 H 518.96 -6.42326 1.30759 0
M  V30 5408 H 518.48 -5.98785 -0.348722 0
M  V30 5409 H 520.159 -6.47 -0.0011164 0
M  V30 5410 N 520.291 -0.0518155 -1.57515 0
M  V30 5411 C 521.238 0.922352 -2.11569 0
M  V30 5412 C 522.208 1.30842 -1.02321 0
M  V30 5413 O 523.393 1.39778 -1.29872 0
M  V30 5414 C 520.533 2.19167 -2.6657 0
M  V30 5415 C 519.646 1.86003 -3.89906 0
M  V30 5416 C 518.781 3.07398 -4.33221 0
M  V30 5417 C 517.82 2.70158 -5.49255 0
M  V30 5418 N 516.957 3.84248 -5.8762 0
M  V30 5419 H 521.797 0.454506 -2.94514 0
M  V30 5420 H 519.334 0.212718 -1.45554 0
M  V30 5421 H 521.292 2.93443 -2.96559 0
M  V30 5422 H 519.922 2.63528 -1.86421 0
M  V30 5423 H 518.974 1.01874 -3.66505 0
M  V30 5424 H 520.286 1.54592 -4.74239 0
M  V30 5425 H 519.44 3.89972 -4.64765 0
M  V30 5426 H 518.179 3.41988 -3.477 0
M  V30 5427 H 517.184 1.86001 -5.17382 0
M  V30 5428 H 518.409 2.36759 -6.36492 0
M  V30 5429 H 516.355 4.18638 -5.05053 0
M  V30 5430 H 516.272 3.56538 -6.66646 0
M  V30 5431 H 517.54 4.6746 -6.2378 0
M  V30 5432 N 521.769 1.56035 0.221574 0
M  V30 5433 C 522.719 1.8881 1.27807 0
M  V30 5434 C 523.703 0.751177 1.42289 0
M  V30 5435 O 524.895 1.01359 1.45104 0
M  V30 5436 C 522.024 2.20828 2.6285 0
M  V30 5437 C 521.11 3.40912 2.52269 0
M  V30 5438 N 521.501 4.59531 2.1134 0
M  V30 5439 C 519.799 3.44526 2.83228 0
M  V30 5440 C 520.5 5.41689 2.1201 0
M  V30 5441 N 519.476 4.814 2.52497 0
M  V30 5442 H 523.278 2.78036 0.952529 0
M  V30 5443 H 520.792 1.566 0.430134 0
M  V30 5444 H 522.789 2.42483 3.39127 0
M  V30 5445 H 521.449 1.32914 2.9625 0
M  V30 5446 H 522.46 4.8469 1.82472 0
M  V30 5447 H 519.137 2.66956 3.21 0
M  V30 5448 H 520.527 6.46643 1.82491 0
M  V30 5449 N 523.247 -0.488276 1.49845 0
M  V30 5450 C 524.658 -1.06955 1.53028 0
M  V30 5451 C 525.009 -1.9351 0.323797 0
M  V30 5452 O 524.134 -2.08891 -0.565116 0
M  V30 5453 C 524.729 -1.94643 2.77307 0
M  V30 5454 C 523.288 -2.4791 2.83227 0
M  V30 5455 C 522.435 -1.25833 2.47106 0
M  V30 5456 H 525.386 -0.271626 1.56358 0
M  V30 5457 H 525.407 -2.79496 2.5819 0
M  V30 5458 H 524.919 -1.31621 3.65099 0
M  V30 5459 H 523.02 -3.14535 1.99745 0
M  V30 5460 H 523.133 -2.84193 3.85709 0
M  V30 5461 H 521.497 -1.58764 1.99163 0
M  V30 5462 H 522.28 -0.644993 3.37186 0
M  V30 5463 N 524.725 -1.39134 -0.740242 0
M  V30 5464 C 525.974 -1.35384 -1.49512 0
M  V30 5465 C 526.287 0.04919 -1.95538 0
M  V30 5466 O 527.493 0.209257 -2.70692 0
M  V30 5467 C 525.949 -2.37812 -2.70136 0
M  V30 5468 C 525.557 -3.83804 -2.31081 0
M  V30 5469 C 527.301 -2.4313 -3.47977 0
M  V30 5470 C 525.208 -4.77886 -3.48395 0
M  V30 5471 H 524.138 -0.503297 -0.561434 0
M  V30 5472 H 526.789 -1.64754 -0.807974 0
M  V30 5473 H 525.171 -2.01505 -3.40899 0
M  V30 5474 H 526.345 -4.29123 -1.67898 0
M  V30 5475 H 524.66 -3.81732 -1.66343 0
M  V30 5476 H 527.257 -3.10614 -4.35228 0
M  V30 5477 H 527.6 -1.45423 -3.90074 0
M  V30 5478 H 528.133 -2.78304 -2.84239 0
M  V30 5479 H 524.872 -5.76836 -3.11353 0
M  V30 5480 H 524.392 -4.3725 -4.10576 0
M  V30 5481 H 526.071 -4.96538 -4.148 0
M  V30 5482 N 526.204 0.969867 -1.24223 0
M  V30 5483 C 527.45 1.7151 -1.08223 0
M  V30 5484 C 527.783 1.90478 0.37838 0
M  V30 5485 O 527.058 1.4647 1.27971 0
M  V30 5486 C 527.341 3.10714 -1.82013 0
M  V30 5487 C 527.194 2.9925 -3.35811 0
M  V30 5488 C 528.513 4.10332 -1.59108 0
M  V30 5489 H 525.632 0.622499 -0.394543 0
M  V30 5490 H 528.274 1.1284 -1.52863 0
M  V30 5491 H 526.424 3.608 -1.44068 0
M  V30 5492 H 528.096 2.56608 -3.83341 0
M  V30 5493 H 526.339 2.35512 -3.64303 0
M  V30 5494 H 527.01 3.97857 -3.82641 0
M  V30 5495 H 529.486 3.69097 -1.92111 0
M  V30 5496 H 528.362 5.05804 -2.13198 0
M  V30 5497 H 528.623 4.38926 -0.528832 0
M  V30 5498 N 527.682 1.05563 1.17022 0
M  V30 5499 C 528.93 0.76642 1.87004 0
M  V30 5500 C 529.251 -0.708854 1.8166 0
M  V30 5501 O 528.521 -1.51242 1.2451 0
M  V30 5502 H 527.101 0.280516 0.692329 0
M  V30 5503 H 529.763 1.33557 1.41945 0
M  V30 5504 H 528.859 1.08472 2.92644 0
M  V30 5505 N 529.16 -1.33526 0.837174 0
M  V30 5506 C 530.437 -1.92369 0.354065 0
M  V30 5507 C 530.817 -1.76348 -1.16038 0
M  V30 5508 O 530.165 -1.15083 -1.97403 0
M  V30 5509 C 530.375 -3.39728 0.799101 0
M  V30 5510 C 531.723 -4.16877 0.806139 0
M  V30 5511 O 532.747 -3.48373 0.742597 0
M  V30 5512 O 531.606 -5.39166 0.892345 0
M  V30 5513 H 528.7 -0.820952 0.0998378 0
M  V30 5514 H 531.246 -1.42409 0.922913 0
M  V30 5515 H 530.018 -3.45254 1.84162 0
M  V30 5516 H 529.641 -3.97062 0.206731 0
M  V30 5517 N 530.638 -0.59345 -1.46 0
M  V30 5518 C 531.884 -0.0832754 -2.02629 0
M  V30 5519 C 532.217 1.27749 -1.46266 0
M  V30 5520 O 531.492 1.8395 -0.631866 0
M  V30 5521 C 531.775 -0.0290756 -3.60088 0
M  V30 5522 C 531.628 -1.41951 -4.26814 0
M  V30 5523 C 532.947 0.666055 -4.35031 0
M  V30 5524 H 530.066 -0.031736 -0.736316 0
M  V30 5525 H 532.708 -0.762711 -1.74019 0
M  V30 5526 H 530.858 0.549532 -3.84594 0
M  V30 5527 H 532.53 -2.04411 -4.13538 0
M  V30 5528 H 530.773 -1.98422 -3.8576 0
M  V30 5529 H 531.444 -1.33395 -5.3564 0
M  V30 5530 H 533.92 0.174401 -4.15734 0
M  V30 5531 H 532.796 0.673041 -5.44758 0
M  V30 5532 H 533.057 1.72946 -4.06869 0
M  V30 5533 N 532.116 1.54067 -0.331816 0
M  V30 5534 C 533.532 1.59587 0.0205388 0
M  V30 5535 C 533.732 1.34813 1.49759 0
M  V30 5536 O 532.788 1.13661 2.25471 0
M  V30 5537 C 534.101 2.97959 -0.405103 0
M  V30 5538 C 535.649 3.10964 -0.356454 0
M  V30 5539 C 536.124 4.51694 -0.757384 0
M  V30 5540 N 537.615 4.57709 -0.71111 0
M  V30 5541 C 538.35 5.64729 -0.993427 0
M  V30 5542 N 537.846 6.79652 -1.3433 0
M  V30 5543 N 539.639 5.54546 -0.918442 0
M  V30 5544 H 531.79 1.68426 -1.29407 0
M  V30 5545 H 534.053 0.78819 -0.526745 0
M  V30 5546 H 533.759 3.21115 -1.43451 0
M  V30 5547 H 533.633 3.76524 0.225692 0
M  V30 5548 H 536.02 2.87538 0.663763 0
M  V30 5549 H 536.101 2.34484 -1.02229 0
M  V30 5550 H 535.745 4.75853 -1.77555 0
M  V30 5551 H 535.675 5.26555 -0.0691444 0
M  V30 5552 H 538.166 3.75176 -0.452883 0
M  V30 5553 H 538.479 7.57221 -1.54388 0
M  V30 5554 H 536.824 6.81128 -1.38164 0
M  V30 5555 H 540.015 4.63641 -0.644536 0
M  V30 5556 H 540.188 6.37861 -1.14181 0
M  V30 5557 N 533.594 0.0601682 1.57485 0
M  V30 5558 C 534.842 -0.610386 1.92662 0
M  V30 5559 C 535.163 -1.70849 0.939981 0
M  V30 5560 O 534.433 -1.95895 -0.0137455 0
M  V30 5561 H 533.013 -0.228457 0.711208 0
M  V30 5562 H 535.675 0.115288 1.94559 0
M  V30 5563 H 534.771 -1.0432 2.94149 0
M  V30 5564 N 535.072 -1.5615 -0.213296 0
M  V30 5565 C 536.318 -1.79812 -0.937849 0
M  V30 5566 C 536.651 -0.631201 -1.83656 0
M  V30 5567 O 535.926 0.369165 -1.90964 0
M  V30 5568 C 536.209 -3.13613 -1.76972 0
M  V30 5569 C 536.062 -4.40766 -0.89695 0
M  V30 5570 C 537.381 -3.43931 -2.7459 0
M  V30 5571 H 534.5 -0.654138 -0.339518 0
M  V30 5572 H 537.142 -1.88877 -0.20623 0
M  V30 5573 H 535.292 -3.06015 -2.39347 0
M  V30 5574 H 536.964 -4.60392 -0.289306 0
M  V30 5575 H 535.207 -4.33326 -0.202756 0
M  V30 5576 H 535.878 -5.30843 -1.51358 0
M  V30 5577 H 538.354 -3.5171 -2.22349 0
M  V30 5578 H 537.23 -4.38706 -3.29891 0
M  V30 5579 H 537.491 -2.6651 -3.52739 0
M  V30 5580 N 536.55 0.480323 -1.50102 0
M  V30 5581 C 537.798 1.23063 -1.60312 0
M  V30 5582 C 538.119 1.92659 -0.301226 0
M  V30 5583 O 537.389 1.83691 0.680753 0
M  V30 5584 H 535.969 0.457231 -0.590719 0
M  V30 5585 H 538.631 0.554893 -1.86834 0
M  V30 5586 H 537.727 1.9835 -2.40964 0
M  V30 5587 N 538.028 1.39524 0.732853 0
M  V30 5588 C 538.958 1.41153 1.86005 0
M  V30 5589 C 539.939 0.274614 1.67869 0
M  V30 5590 O 541.124 0.480745 1.88155 0
M  V30 5591 C 538.254 1.25638 3.23778 0
M  V30 5592 C 537.208 2.36752 3.56556 0
M  V30 5593 C 536.534 2.06326 4.93289 0
M  V30 5594 C 537.834 3.79069 3.5931 0
M  V30 5595 H 539.528 2.35484 1.84899 0
M  V30 5596 H 537.074 1.13348 0.888162 0
M  V30 5597 H 539.027 1.25398 4.0231 0
M  V30 5598 H 537.751 0.277772 3.25417 0
M  V30 5599 H 536.41 2.36213 2.80355 0
M  V30 5600 H 536.058 1.06897 4.9151 0
M  V30 5601 H 535.758 2.80757 5.16187 0
M  V30 5602 H 537.282 2.07739 5.74175 0
M  V30 5603 H 538.696 3.81526 4.27914 0
M  V30 5604 H 537.093 4.52878 3.93728 0
M  V30 5605 H 538.163 4.09893 2.59068 0
M  V30 5606 N 539.506 -0.963266 1.24736 0
M  V30 5607 C 540.753 -1.7068 1.0897 0
M  V30 5608 C 541.081 -1.90934 -0.370751 0
M  V30 5609 O 540.336 -1.47155 -1.29011 0
M  V30 5610 C 540.635 -3.09944 1.7796 0
M  V30 5611 C 540.301 -3.09518 3.27887 0
M  V30 5612 C 538.963 -3.09109 3.68789 0
M  V30 5613 C 541.315 -3.03509 4.23712 0
M  V30 5614 C 538.643 -3.00429 5.03944 0
M  V30 5615 C 540.995 -2.96371 5.5888 0
M  V30 5616 C 539.659 -2.94293 5.99123 0
M  V30 5617 H 538.929 -0.624564 0.398749 0
M  V30 5618 H 541.576 -1.12603 1.54896 0
M  V30 5619 H 539.881 -3.71513 1.2444 0
M  V30 5620 H 541.578 -3.66278 1.63222 0
M  V30 5621 H 538.168 -3.10603 2.95337 0
M  V30 5622 H 542.352 -3.0295 3.93109 0
M  V30 5623 H 537.608 -2.97183 5.34314 0
M  V30 5624 H 541.782 -2.90681 6.32833 0
M  V30 5625 H 539.409 -2.87322 7.03811 0
M  V30 5626 N 540.985 -1.06182 -1.16461 0
M  V30 5627 C 542.234 -0.772927 -1.86303 0
M  V30 5628 C 542.547 0.703187 -1.82523 0
M  V30 5629 O 543.753 1.10641 -2.47933 0
M  V30 5630 C 542.209 -1.33249 -3.34324 0
M  V30 5631 C 541.817 -2.83876 -3.46581 0
M  V30 5632 C 543.561 -1.12108 -4.09429 0
M  V30 5633 C 541.468 -3.33082 -4.88682 0
M  V30 5634 H 540.398 -0.285452 -0.697878 0
M  V30 5635 H 543.049 -1.28039 -1.31447 0
M  V30 5636 H 541.431 -0.7528 -3.88779 0
M  V30 5637 H 542.605 -3.47786 -3.02293 0
M  V30 5638 H 540.92 -3.03671 -2.84909 0
M  V30 5639 H 543.517 -1.46361 -5.14279 0
M  V30 5640 H 543.86 -0.0593832 -4.16258 0
M  V30 5641 H 544.393 -1.6665 -3.6121 0
M  V30 5642 H 541.132 -4.38726 -4.87032 0
M  V30 5643 H 540.652 -2.73919 -5.33599 0
M  V30 5644 H 542.331 -3.28344 -5.57494 0
M  V30 5645 N 542.463 1.3308 -0.844243 0
M  V30 5646 C 543.711 1.97215 -0.441676 0
M  V30 5647 C 544.032 1.67185 1.0037 0
M  V30 5648 O 543.302 0.973588 1.69994 0
M  V30 5649 H 541.882 0.72959 -0.160335 0
M  V30 5650 H 544.544 1.62348 -1.07838 0
M  V30 5651 H 543.64 3.06698 -0.57815 0
M  V30 5652 N 543.941 0.601185 1.45683 0
M  V30 5653 C 545.187 0.0940202 2.02582 0
M  V30 5654 C 545.52 -1.26972 1.46941 0
M  V30 5655 O 544.795 -1.83613 0.641612 0
M  V30 5656 C 545.078 0.0481715 3.60068 0
M  V30 5657 C 544.931 1.44212 4.26055 0
M  V30 5658 C 546.25 -0.642975 4.35378 0
M  V30 5659 H 543.369 0.0356404 0.736138 0
M  V30 5660 H 546.011 0.771929 1.73612 0
M  V30 5661 H 544.161 -0.529128 3.8488 0
M  V30 5662 H 545.833 2.06601 4.12449 0
M  V30 5663 H 544.076 2.00465 3.84703 0
M  V30 5664 H 544.747 1.36234 5.34925 0
M  V30 5665 H 547.223 -0.152351 4.15821 0
M  V30 5666 H 546.099 -0.644141 5.45107 0
M  V30 5667 H 546.36 -1.70785 4.0778 0
M  V30 5668 N 545.419 -1.53889 0.339982 0
M  V30 5669 C 546.696 -1.93084 -0.312719 0
M  V30 5670 C 547.076 -1.2712 -1.68534 0
M  V30 5671 O 546.424 -0.420835 -2.24591 0
M  V30 5672 C 546.634 -3.4683 -0.388558 0
M  V30 5673 C 547.982 -4.19732 -0.641088 0
M  V30 5674 O 549.006 -3.53075 -0.470818 0
M  V30 5675 O 547.865 -5.3781 -0.970685 0
M  V30 5676 H 544.959 -0.806784 -0.18174 0
M  V30 5677 H 547.505 -1.65137 0.390898 0
M  V30 5678 H 546.277 -3.87055 0.574821 0
M  V30 5679 H 545.9 -3.80933 -1.1391 0
M  V30 5680 N 546.897 -0.0685191 -1.57451 0
M  V30 5681 C 547.827 0.89747 -2.15564 0
M  V30 5682 C 548.808 1.31266 -1.08181 0
M  V30 5683 O 549.993 1.38429 -1.36202 0
M  V30 5684 C 547.123 2.16623 -2.71463 0
M  V30 5685 C 546.077 1.89054 -3.83982 0
M  V30 5686 C 545.403 3.22532 -4.26471 0
M  V30 5687 C 546.703 1.1984 -5.08366 0
M  V30 5688 H 548.397 0.413373 -2.96533 0
M  V30 5689 H 545.943 0.197391 -1.42641 0
M  V30 5690 H 547.896 2.84614 -3.10761 0
M  V30 5691 H 546.62 2.67269 -1.8771 0
M  V30 5692 H 545.279 1.23469 -3.45183 0
M  V30 5693 H 544.927 3.71013 -3.39644 0
M  V30 5694 H 544.627 3.04879 -5.02317 0
M  V30 5695 H 546.151 3.91727 -4.68383 0
M  V30 5696 H 547.565 1.77896 -5.45001 0
M  V30 5697 H 545.962 1.12456 -5.89469 0
M  V30 5698 H 547.032 0.176996 -4.84577 0
M  V30 5699 N 548.375 1.56261 0.205012 0
M  V30 5700 C 549.624 1.79236 0.925058 0
M  V30 5701 C 549.937 0.640011 1.84833 0
M  V30 5702 O 551.143 0.753809 2.60826 0
M  V30 5703 C 549.599 3.17475 1.69522 0
M  V30 5704 C 549.207 4.40482 0.817269 0
M  V30 5705 C 550.951 3.49766 2.4055 0
M  V30 5706 C 548.858 5.69744 1.58573 0
M  V30 5707 H 547.788 0.668287 0.349153 0
M  V30 5708 H 550.439 1.82629 0.178544 0
M  V30 5709 H 548.821 3.08304 2.48526 0
M  V30 5710 H 549.995 4.60752 0.0665988 0
M  V30 5711 H 548.31 4.15827 0.218316 0
M  V30 5712 H 550.907 4.43573 2.98575 0
M  V30 5713 H 551.25 2.73041 3.14252 0
M  V30 5714 H 551.783 3.60341 1.68522 0
M  V30 5715 H 548.522 6.49407 0.891679 0
M  V30 5716 H 548.042 5.53509 2.31059 0
M  V30 5717 H 549.721 6.1051 2.14212 0
M  V30 5718 N 549.853 -0.472356 1.50355 0
M  V30 5719 C 550.8 -1.57051 1.69126 0
M  V30 5720 C 551.77 -1.5733 0.532574 0
M  V30 5721 O 552.955 -1.7488 0.762994 0
M  V30 5722 C 550.095 -2.95033 1.79024 0
M  V30 5723 C 549.208 -3.04552 3.06386 0
M  V30 5724 C 548.343 -4.33441 3.07087 0
M  V30 5725 C 547.382 -4.36697 4.28908 0
M  V30 5726 N 546.519 -5.57056 4.27356 0
M  V30 5727 H 551.359 -1.40351 2.62879 0
M  V30 5728 H 548.896 -0.682403 1.30314 0
M  V30 5729 H 550.854 -3.75048 1.82744 0
M  V30 5730 H 549.484 -3.10371 0.887109 0
M  V30 5731 H 548.536 -2.17419 3.12143 0
M  V30 5732 H 549.848 -3.02818 3.96362 0
M  V30 5733 H 549.002 -5.21801 3.09529 0
M  V30 5734 H 547.741 -4.37782 2.14939 0
M  V30 5735 H 546.746 -3.46734 4.2668 0
M  V30 5736 H 547.971 -4.34049 5.22282 0
M  V30 5737 H 545.917 -5.62184 3.3806 0
M  V30 5738 H 545.834 -5.57058 5.111 0
M  V30 5739 H 547.102 -6.47545 4.33942 0
M  V30 5740 N 551.331 -1.39911 -0.725443 0
M  V30 5741 C 552.608 -1.28158 -1.47766 0
M  V30 5742 C 552.988 0.104545 -2.10841 0
M  V30 5743 O 552.336 1.11657 -1.99361 0
M  V30 5744 C 552.546 -2.41306 -2.52135 0
M  V30 5745 C 553.894 -2.81076 -3.18247 0
M  V30 5746 O 554.918 -2.40827 -2.62452 0
M  V30 5747 O 553.777 -3.50581 -4.19231 0
M  V30 5748 H 550.871 -0.502761 -0.656628 0
M  V30 5749 H 553.417 -1.51808 -0.758456 0
M  V30 5750 H 552.189 -3.33932 -2.03974 0
M  V30 5751 H 551.812 -2.19374 -3.31603 0
M  V30 5752 N 552.809 0.956637 -1.25245 0
M  V30 5753 C 553.719 2.0868 -1.0719 0
M  V30 5754 C 554.735 1.73997 -0.00959074 0
M  V30 5755 O 555.911 2.00301 -0.210104 0
M  V30 5756 C 552.976 3.39754 -0.690526 0
M  V30 5757 C 552.037 3.88316 -1.83055 0
M  V30 5758 C 551.27 5.13134 -1.46728 0
M  V30 5759 O 551.493 5.6925 -0.362029 0
M  V30 5760 O 550.427 5.56356 -2.29677 0
M  V30 5761 H 554.253 2.26813 -2.01965 0
M  V30 5762 H 551.838 1.07098 -1.04165 0
M  V30 5763 H 553.72 4.18543 -0.489871 0
M  V30 5764 H 552.395 3.22896 0.227981 0
M  V30 5765 H 551.302 3.1054 -2.08604 0
M  V30 5766 H 552.635 4.09669 -2.72822 0
M  V30 5767 N 554.287 1.06798 1.15896 0
M  V30 5768 C 555.25 0.687328 2.18651 0
M  V30 5769 C 556.25 -0.269559 1.58524 0
M  V30 5770 O 557.44 -0.0512627 1.74125 0
M  V30 5771 C 554.572 0.0121642 3.40898 0
M  V30 5772 H 555.765 1.59701 2.53842 0
M  V30 5773 H 553.318 0.863828 1.3026 0
M  V30 5774 H 554.053 -0.910025 3.1127 0
M  V30 5775 H 553.838 0.700309 3.85795 0
M  V30 5776 H 555.328 -0.239703 4.16911 0
M  V30 5777 N 555.766 -1.3263 0.851289 0
M  V30 5778 C 556.994 -2.01563 0.466899 0
M  V30 5779 C 557.409 -1.63996 -0.935447 0
M  V30 5780 O 556.766 -0.85957 -1.6099 0
M  V30 5781 C 556.817 -3.56613 0.592433 0
M  V30 5782 O 556.538 -3.92828 1.93954 0
M  V30 5783 C 558.039 -4.42818 0.206612 0
M  V30 5784 H 555.259 -0.645307 0.183902 0
M  V30 5785 H 557.803 -1.69285 1.1473 0
M  V30 5786 H 555.958 -3.87379 -0.0401936 0
M  V30 5787 H 556.372 -4.87545 1.9339 0
M  V30 5788 H 557.846 -5.50918 0.345462 0
M  V30 5789 H 558.323 -4.30844 -0.85264 0
M  V30 5790 H 558.929 -4.17434 0.814176 0
M  V30 5791 N 557.244 -0.608902 -1.45362 0
M  V30 5792 C 558.66 -0.272659 -1.57254 0
M  V30 5793 C 558.86 1.22477 -1.60005 0
M  V30 5794 O 557.916 2.00785 -1.53106 0
M  V30 5795 C 559.229 -0.944991 -2.85465 0
M  V30 5796 C 560.777 -0.921033 -2.99142 0
M  V30 5797 C 561.252 -1.5734 -4.30126 0
M  V30 5798 N 562.743 -1.53895 -4.36887 0
M  V30 5799 C 563.478 -2.01286 -5.36909 0
M  V30 5800 N 562.974 -2.56768 -6.43461 0
M  V30 5801 N 564.767 -1.92046 -5.28275 0
M  V30 5802 H 556.918 -1.58117 -1.4182 0
M  V30 5803 H 559.181 -0.662437 -0.678146 0
M  V30 5804 H 558.887 -1.99941 -2.89338 0
M  V30 5805 H 558.761 -0.469079 -3.74272 0
M  V30 5806 H 561.148 0.124846 -2.94836 0
M  V30 5807 H 561.229 -1.43522 -2.11743 0
M  V30 5808 H 560.873 -2.61862 -4.35191 0
M  V30 5809 H 560.803 -1.03422 -5.16344 0
M  V30 5810 H 563.294 -1.13366 -3.60495 0
M  V30 5811 H 563.607 -2.9072 -7.16032 0
M  V30 5812 H 561.952 -2.60808 -6.44208 0
M  V30 5813 H 565.143 -1.48439 -4.43941 0
M  V30 5814 H 565.316 -2.29293 -6.06077 0
M  V30 5815 N 558.722 1.53707 -0.348139 0
M  V30 5816 C 559.95 2.05406 0.248224 0
M  V30 5817 C 560.365 1.22282 1.43849 0
M  V30 5818 O 559.722 0.259244 1.80649 0
M  V30 5819 C 559.773 3.55446 0.658793 0
M  V30 5820 O 559.494 4.35417 -0.484149 0
M  V30 5821 C 560.995 4.23335 1.31539 0
M  V30 5822 H 558.215 0.669344 0.0471075 0
M  V30 5823 H 560.759 1.98257 -0.501456 0
M  V30 5824 H 558.914 3.62803 1.35841 0
M  V30 5825 H 559.328 5.24268 -0.155949 0
M  V30 5826 H 560.802 5.29692 1.55338 0
M  V30 5827 H 561.279 3.75967 2.27036 0
M  V30 5828 H 561.885 4.20184 0.657683 0
M  V30 5829 N 560.2 0.0768682 1.57412 0
M  V30 5830 C 561.611 -0.455037 1.8107 0
M  V30 5831 C 561.962 -1.69323 0.991162 0
M  V30 5832 O 561.087 -2.15328 0.215156 0
M  V30 5833 C 561.682 -0.832316 3.28417 0
M  V30 5834 C 560.241 -1.30906 3.52903 0
M  V30 5835 C 559.388 -0.296714 2.75708 0
M  V30 5836 H 562.339 0.302514 1.5579 0
M  V30 5837 H 562.36 -1.69333 3.40744 0
M  V30 5838 H 561.872 0.0690532 3.88039 0
M  V30 5839 H 559.973 -2.22875 2.98592 0
M  V30 5840 H 560.086 -1.28348 4.61588 0
M  V30 5841 H 558.45 -0.775059 2.42621 0
M  V30 5842 H 559.233 0.597015 3.38069 0
M  V30 5843 N 561.678 -1.56367 -0.196722 0
M  V30 5844 C 562.641 -1.93561 -1.22746 0
M  V30 5845 C 563.641 -0.816566 -1.38524 0
M  V30 5846 O 564.831 -1.084 -1.36363 0
M  V30 5847 C 561.963 -2.20823 -2.59712 0
M  V30 5848 H 563.156 -2.85774 -0.909586 0
M  V30 5849 H 560.709 -1.50032 -0.438174 0
M  V30 5850 H 561.444 -1.31243 -2.96557 0
M  V30 5851 H 561.229 -3.02368 -2.49632 0
M  V30 5852 H 562.719 -2.50608 -3.34044 0
M  V30 5853 N 563.156 0.464375 -1.50603 0
M  V30 5854 C 564.384 1.23907 -1.65695 0
M  V30 5855 C 564.799 1.85658 -0.343027 0
M  V30 5856 O 564.156 1.69529 0.675739 0
M  V30 5857 C 564.207 2.3429 -2.75301 0
M  V30 5858 O 563.928 1.7507 -4.01599 0
M  V30 5859 C 565.429 3.25051 -3.01424 0
M  V30 5860 H 562.649 0.374485 -0.556778 0
M  V30 5861 H 565.193 0.55353 -1.96866 0
M  V30 5862 H 563.348 2.98607 -2.46804 0
M  V30 5863 H 563.762 2.47812 -4.62266 0
M  V30 5864 H 565.236 3.98699 -3.81763 0
M  V30 5865 H 565.713 3.84227 -2.12758 0
M  V30 5866 H 566.319 2.66463 -3.31477 0
M  V30 5867 N 564.634 1.40294 0.718013 0
M  V30 5868 C 565.544 1.42678 1.86226 0
M  V30 5869 C 566.56 0.319655 1.71039 0
M  V30 5870 O 567.736 0.563852 1.93346 0
M  V30 5871 C 564.801 1.2852 3.21999 0
M  V30 5872 C 563.862 2.49354 3.49458 0
M  V30 5873 C 563.095 2.35863 4.78753 0
M  V30 5874 O 563.318 1.37114 5.53675 0
M  V30 5875 O 562.252 3.25189 5.06494 0
M  V30 5876 H 566.078 2.39167 1.87171 0
M  V30 5877 H 563.663 1.2159 0.868112 0
M  V30 5878 H 565.545 1.22824 4.03103 0
M  V30 5879 H 564.22 0.351359 3.21787 0
M  V30 5880 H 563.127 2.60628 2.68373 0
M  V30 5881 H 564.46 3.41491 3.54464 0
M  V30 5882 N 566.112 -0.949982 1.2575 0
M  V30 5883 C 567.022 -2.08109 1.08295 0
M  V30 5884 C 568.038 -1.7399 0.0188181 0
M  V30 5885 O 569.214 -2.00187 0.220724 0
M  V30 5886 C 566.279 -3.39383 0.708534 0
M  V30 5887 C 565.34 -3.8734 1.85111 0
M  V30 5888 C 564.573 -5.12349 1.49447 0
M  V30 5889 O 564.796 -5.6905 0.392212 0
M  V30 5890 O 563.73 -5.5513 2.32624 0
M  V30 5891 H 567.556 -2.25738 2.03165 0
M  V30 5892 H 565.141 -1.06545 1.04731 0
M  V30 5893 H 567.023 -4.18277 0.512061 0
M  V30 5894 H 565.698 -3.23013 -0.210854 0
M  V30 5895 H 564.605 -3.09429 2.10248 0
M  V30 5896 H 565.938 -4.08216 2.74991 0
M  V30 5897 N 567.59 -1.07411 -1.15328 0
M  V30 5898 C 568.553 -0.698914 -2.18284 0
M  V30 5899 C 569.553 0.261149 -1.58665 0
M  V30 5900 O 570.743 0.0420277 -1.74149 0
M  V30 5901 C 567.875 -0.0302427 -3.40887 0
M  V30 5902 H 569.068 -1.61045 -2.52991 0
M  V30 5903 H 566.621 -0.870724 -1.298 0
M  V30 5904 H 567.356 0.893505 -3.11748 0
M  V30 5905 H 567.141 -0.720759 -3.85419 0
M  V30 5906 H 568.631 0.21759 -4.17033 0
M  V30 5907 N 569.068 1.32177 -0.85831 0
M  V30 5908 C 570.031 2.27086 -0.310588 0
M  V30 5909 C 571.031 1.51751 0.531806 0
M  V30 5910 O 572.221 1.70794 0.34279 0
M  V30 5911 C 569.353 3.36266 0.560179 0
M  V30 5912 H 570.546 2.77045 -1.1483 0
M  V30 5913 H 568.099 1.42911 -0.632942 0
M  V30 5914 H 568.834 2.9158 1.41956 0
M  V30 5915 H 568.619 3.92077 -0.0428473 0
M  V30 5916 H 570.109 4.06974 0.936056 0
M  V30 5917 N 570.547 0.616602 1.45037 0
M  V30 5918 C 571.777 0.121791 2.06241 0
M  V30 5919 C 572.185 -1.20289 1.46038 0
M  V30 5920 O 571.528 -1.7456 0.572242 0
M  V30 5921 C 571.59 -0.0827345 3.59405 0
M  V30 5922 C 571.254 1.16153 4.41993 0
M  V30 5923 C 572.251 2.08183 4.76399 0
M  V30 5924 C 569.936 1.39288 4.82601 0
M  V30 5925 C 571.93 3.21668 5.5028 0
M  V30 5926 C 569.617 2.53073 5.56235 0
M  V30 5927 C 570.615 3.44091 5.89992 0
M  V30 5928 O 570.303 4.55894 6.6213 0
M  V30 5929 H 570.035 0.0701667 0.672349 0
M  V30 5930 H 572.589 0.846877 1.87129 0
M  V30 5931 H 570.819 -0.862812 3.76952 0
M  V30 5932 H 572.508 -0.530273 4.02421 0
M  V30 5933 H 573.274 1.91538 4.45576 0
M  V30 5934 H 569.153 0.693396 4.55755 0
M  V30 5935 H 572.697 3.92733 5.76547 0
M  V30 5936 H 568.594 2.69667 5.86472 0
M  V30 5937 H 569.362 4.5469 6.80587 0
M  V30 5938 N 572.025 -1.5352 0.356285 0
M  V30 5939 C 572.955 -2.28372 -0.486661 0
M  V30 5940 C 573.936 -1.30432 -1.09185 0
M  V30 5941 O 575.121 -1.59291 -1.11085 0
M  V30 5942 C 572.251 -3.06604 -1.63129 0
M  V30 5943 C 571.205 -4.12154 -1.15381 0
M  V30 5944 C 570.531 -4.78415 -2.38796 0
M  V30 5945 C 571.831 -5.21724 -0.245179 0
M  V30 5946 H 573.525 -2.99083 0.137797 0
M  V30 5947 H 571.071 -1.43841 0.0677134 0
M  V30 5948 H 573.024 -3.57712 -2.22755 0
M  V30 5949 H 571.748 -2.33568 -2.28284 0
M  V30 5950 H 570.407 -3.61978 -0.580294 0
M  V30 5951 H 570.055 -4.01959 -3.02387 0
M  V30 5952 H 569.755 -5.49734 -2.07524 0
M  V30 5953 H 571.279 -5.32313 -2.99125 0
M  V30 5954 H 572.693 -5.68391 -0.748646 0
M  V30 5955 H 571.09 -6.00095 -0.0237608 0
M  V30 5956 H 572.16 -4.79596 0.715229 0
M  V30 5957 N 573.503 -0.0852151 -1.57369 0
M  V30 5958 C 574.749 0.581666 -1.94279 0
M  V30 5959 C 575.082 1.68444 -0.966446 0
M  V30 5960 O 574.357 1.945 0.00215277 0
M  V30 5961 C 574.64 1.14609 -3.41375 0
M  V30 5962 C 574.493 0.0490414 -4.49773 0
M  V30 5963 C 575.812 2.04751 -3.8957 0
M  V30 5964 H 572.931 0.209972 -0.706456 0
M  V30 5965 H 575.573 -0.153915 -1.89376 0
M  V30 5966 H 573.723 1.77297 -3.45685 0
M  V30 5967 H 575.395 -0.584721 -4.57579 0
M  V30 5968 H 573.638 -0.618638 -4.29366 0
M  V30 5969 H 574.309 0.484601 -5.49869 0
M  V30 5970 H 576.785 1.51981 -3.87351 0
M  V30 5971 H 575.661 2.41173 -4.93079 0
M  V30 5972 H 575.922 2.96107 -3.28288 0
M  V30 5973 N 574.981 1.5647 0.188427 0
M  V30 5974 C 576.206 1.85486 0.927891 0
M  V30 5975 C 576.631 0.669575 1.75779 0
M  V30 5976 O 575.989 -0.381573 1.77239 0
M  V30 5977 C 576.037 3.12784 1.7944 0
M  V30 5978 O 575.141 2.93805 2.894 0
M  V30 5979 H 574.482 0.610585 0.260925 0
M  V30 5980 H 577.012 2.037 0.191729 0
M  V30 5981 H 577.022 3.43749 2.19774 0
M  V30 5982 H 575.697 3.98671 1.18468 0
M  V30 5983 H 574.274 2.74153 2.52774 0
M  V30 5984 N 576.459 -0.456382 1.50847 0
M  V30 5985 C 577.875 -0.791345 1.386 0
M  V30 5986 C 578.075 -1.9633 0.453498 0
M  V30 5987 O 577.131 -2.52308 -0.0984353 0
M  V30 5988 C 578.444 -1.08959 2.80265 0
M  V30 5989 C 579.992 -1.19517 2.89283 0
M  V30 5990 C 580.467 -1.52647 4.31814 0
M  V30 5991 N 581.958 -1.59609 4.34832 0
M  V30 5992 C 582.693 -1.86777 5.42127 0
M  V30 5993 N 582.189 -2.11866 6.59609 0
M  V30 5994 N 583.982 -1.88402 5.29586 0
M  V30 5995 H 576.133 0.315746 2.1004 0
M  V30 5996 H 578.396 0.0787916 0.94472 0
M  V30 5997 H 578.102 -0.301355 3.50407 0
M  V30 5998 H 577.976 -2.02211 3.18419 0
M  V30 5999 H 580.363 -1.97406 2.19351 0
M  V30 6000 H 580.444 -0.242111 2.54652 0
M  V30 6001 H 580.088 -0.752922 5.02288 0
M  V30 6002 H 580.018 -2.49127 4.63943 0
M  V30 6003 H 582.509 -1.42201 3.50125 0
M  V30 6004 H 582.822 -2.31912 7.37182 0
M  V30 6005 H 581.167 -2.09228 6.62758 0
M  V30 6006 H 584.358 -1.68307 4.36795 0
M  V30 6007 H 584.531 -2.09238 6.13289 0
M  V30 6008 N 577.937 -1.40673 -0.710563 0
M  V30 6009 C 578.867 -1.44095 -1.83736 0
M  V30 6010 C 579.848 -0.301286 -1.67411 0
M  V30 6011 O 581.033 -0.510618 -1.87367 0
M  V30 6012 C 578.163 -1.30773 -3.21738 0
M  V30 6013 C 577.117 -2.42395 -3.52745 0
M  V30 6014 C 576.443 -2.14147 -4.89944 0
M  V30 6015 C 577.743 -3.84738 -3.53234 0
M  V30 6016 H 579.437 -2.38396 -1.81129 0
M  V30 6017 H 576.983 -1.14746 -0.870017 0
M  V30 6018 H 578.936 -1.31783 -4.00264 0
M  V30 6019 H 577.66 -0.329507 -3.24934 0
M  V30 6020 H 576.319 -2.40643 -2.76562 0
M  V30 6021 H 575.967 -1.14703 -4.89747 0
M  V30 6022 H 575.667 -2.88934 -5.11655 0
M  V30 6023 H 577.191 -2.16848 -5.70797 0
M  V30 6024 H 578.605 -3.88286 -4.2179 0
M  V30 6025 H 577.002 -4.59085 -3.86473 0
M  V30 6026 H 578.072 -4.13962 -2.52514 0
M  V30 6027 N 579.415 0.9433 -1.26252 0
M  V30 6028 C 580.362 2.0417 -1.07625 0
M  V30 6029 C 581.332 1.6609 0.0180738 0
M  V30 6030 O 582.517 1.90276 -0.141289 0
M  V30 6031 C 579.657 3.37653 -0.713043 0
M  V30 6032 C 578.77 3.88783 -1.8834 0
M  V30 6033 C 577.905 5.10642 -1.4635 0
M  V30 6034 C 576.944 5.54028 -2.60229 0
M  V30 6035 N 576.081 6.67092 -2.18936 0
M  V30 6036 H 580.921 2.19436 -2.01623 0
M  V30 6037 H 578.458 1.07519 -1.00389 0
M  V30 6038 H 580.416 4.14391 -0.483358 0
M  V30 6039 H 579.046 3.22241 0.18996 0
M  V30 6040 H 578.098 3.08464 -2.22608 0
M  V30 6041 H 579.41 4.16922 -2.73821 0
M  V30 6042 H 578.564 5.94832 -1.19414 0
M  V30 6043 H 577.303 4.84244 -0.579568 0
M  V30 6044 H 576.308 4.68396 -2.87898 0
M  V30 6045 H 577.533 5.82429 -3.49219 0
M  V30 6046 H 575.479 6.42381 -1.32974 0
M  V30 6047 H 575.396 6.94806 -2.97961 0
M  V30 6048 H 576.664 7.54662 -1.95206 0
M  V30 6049 N 580.893 1.08022 1.14757 0
M  V30 6050 C 581.803 0.718292 2.23333 0
M  V30 6051 C 582.819 -0.273477 1.71837 0
M  V30 6052 O 583.995 -0.118406 2.01052 0
M  V30 6053 C 581.06 0.128855 3.4646 0
M  V30 6054 C 580.121 1.17473 4.12915 0
M  V30 6055 C 579.354 0.61333 5.30164 0
M  V30 6056 O 579.577 -0.568458 5.6756 0
M  V30 6057 O 578.511 1.3615 5.86299 0
M  V30 6058 H 582.337 1.62394 2.56636 0
M  V30 6059 H 579.922 0.853628 1.22611 0
M  V30 6060 H 581.804 -0.197249 4.20938 0
M  V30 6061 H 580.479 -0.750014 3.14891 0
M  V30 6062 H 579.386 1.5533 3.40328 0
M  V30 6063 H 580.719 2.02574 4.48581 0
M  V30 6064 N 582.371 -1.3172 0.865308 0
M  V30 6065 C 583.319 -2.30569 0.306674 0
M  V30 6066 C 584.313 -1.59317 -0.575724 0
M  V30 6067 O 585.519 -1.73961 -0.462343 0
M  V30 6068 H 581.894 -0.747681 0.0804834 0
M  V30 6069 H 583.865 -2.75165 1.15441 0
M  V30 6070 C 582.614 -3.44358 -0.480952 0
M  V30 6071 H 581.937 -3.99354 0.18876 0
M  V30 6072 H 583.377 -4.15652 -0.837241 0
M  V30 6073 C 581.836 -2.92574 -1.67039 0
M  V30 6074 O 582.366 -2.90954 -2.76964 0
M  V30 6075 N 580.572 -2.48835 -1.50097 0
M  V30 6076 H 580.119 -2.50353 -0.606738 0
M  V30 6077 H 580.077 -2.14543 -2.29823 0
M  V30 6078 N 583.85 -0.624285 -1.44708 0
M  V30 6079 C 585.08 -0.132726 -2.06173 0
M  V30 6080 C 585.488 1.19513 -1.46674 0
M  V30 6081 O 584.831 1.74254 -0.581491 0
M  V30 6082 C 584.893 0.0636732 -3.59444 0
M  V30 6083 C 584.557 -1.18496 -4.4137 0
M  V30 6084 C 585.553 -2.10706 -4.75288 0
M  V30 6085 C 583.239 -1.41846 -4.81856 0
M  V30 6086 C 585.233 -3.24582 -5.48567 0
M  V30 6087 C 582.92 -2.5602 -5.54885 0
M  V30 6088 C 583.918 -3.47215 -5.88159 0
M  V30 6089 O 583.606 -4.59399 -6.59703 0
M  V30 6090 H 583.338 -0.0737313 -0.671967 0
M  V30 6091 H 585.892 -0.856789 -1.86677 0
M  V30 6092 H 584.122 0.842809 -3.77404 0
M  V30 6093 H 585.811 0.508924 -4.02697 0
M  V30 6094 H 586.577 -1.93898 -4.44554 0
M  V30 6095 H 582.456 -0.717556 -4.55381 0
M  V30 6096 H 586 -3.95785 -5.74456 0
M  V30 6097 H 581.897 -2.72774 -5.85034 0
M  V30 6098 H 582.665 -4.58293 -6.78166 0
M  V30 6099 N 585.328 1.53329 -0.364422 0
M  V30 6100 C 586.574 2.01537 0.225969 0
M  V30 6101 C 586.907 1.25128 1.48515 0
M  V30 6102 O 586.182 0.344653 1.91422 0
M  V30 6103 C 586.465 3.56339 0.519092 0
M  V30 6104 C 586.318 4.43441 -0.753639 0
M  V30 6105 C 587.637 4.19833 1.32015 0
M  V30 6106 H 584.756 0.732573 0.0806548 0
M  V30 6107 H 587.398 1.83597 -0.489084 0
M  V30 6108 H 585.548 3.71756 1.12825 0
M  V30 6109 H 587.22 4.39823 -1.39116 0
M  V30 6110 H 585.463 4.11457 -1.37424 0
M  V30 6111 H 586.134 5.49699 -0.503517 0
M  V30 6112 H 588.61 4.08242 0.804859 0
M  V30 6113 H 587.486 5.28177 1.49399 0
M  V30 6114 H 587.747 3.75821 2.32832 0
M  V30 6115 N 586.806 0.0935595 1.57322 0
M  V30 6116 C 587.736 -0.863062 2.16964 0
M  V30 6117 C 588.717 -1.29528 1.10256 0
M  V30 6118 O 589.902 -1.36245 1.38387 0
M  V30 6119 C 587.032 -2.12276 2.74875 0
M  V30 6120 C 585.986 -1.82921 3.86942 0
M  V30 6121 C 585.312 -3.15707 4.31548 0
M  V30 6122 C 586.612 -1.11737 5.10208 0
M  V30 6123 H 588.306 -0.366145 2.97153 0
M  V30 6124 H 585.852 -0.174673 1.42937 0
M  V30 6125 H 587.805 -2.79634 3.1525 0
M  V30 6126 H 586.529 -2.64248 1.91938 0
M  V30 6127 H 585.188 -1.17961 3.47103 0
M  V30 6128 H 584.836 -3.65563 3.45504 0
M  V30 6129 H 584.536 -2.96849 5.07104 0
M  V30 6130 H 586.06 -3.84226 4.74555 0
M  V30 6131 H 587.474 -1.69203 5.47762 0
M  V30 6132 H 585.871 -1.03064 5.91183 0
M  V30 6133 H 586.941 -0.0998818 4.84797 0
M  V30 6134 N 588.284 -1.56567 -0.180126 0
M  V30 6135 C 589.214 -1.98753 -1.22553 0
M  V30 6136 C 590.195 -0.86175 -1.46656 0
M  V30 6137 O 591.38 -1.12719 -1.58139 0
M  V30 6138 C 588.51 -2.33988 -2.56645 0
M  V30 6139 C 587.464 -3.49445 -2.47128 0
M  V30 6140 C 586.79 -3.70397 -3.8563 0
M  V30 6141 C 588.09 -4.83171 -1.98352 0
M  V30 6142 H 589.784 -2.86332 -0.874896 0
M  V30 6143 H 587.33 -1.37757 -0.419414 0
M  V30 6144 H 589.283 -2.62097 -3.29974 0
M  V30 6145 H 588.007 -1.43309 -2.93479 0
M  V30 6146 H 586.666 -3.2145 -1.76254 0
M  V30 6147 H 586.314 -2.77023 -4.19842 0
M  V30 6148 H 586.014 -4.48077 -3.80132 0
M  V30 6149 H 587.538 -4.00897 -4.60558 0
M  V30 6150 H 588.952 -5.10213 -2.61449 0
M  V30 6151 H 587.349 -5.64425 -2.03823 0
M  V30 6152 H 588.419 -4.75753 -0.937402 0
M  V30 6153 N 589.762 0.448376 -1.51087 0
M  V30 6154 C 590.987 1.22605 -1.6728 0
M  V30 6155 C 591.412 1.84524 -0.365045 0
M  V30 6156 O 590.77 1.6832 0.673642 0
M  V30 6157 C 590.818 2.29393 -2.78229 0
M  V30 6158 O 589.922 3.34608 -2.41063 0
M  V30 6159 H 589.263 0.359705 -0.558129 0
M  V30 6160 H 591.793 0.530903 -1.97592 0
M  V30 6161 H 591.803 2.74352 -3.01986 0
M  V30 6162 H 590.478 1.83701 -3.73131 0
M  V30 6163 H 589.055 2.95202 -2.27838 0
M  V30 6164 N 591.24 1.41047 0.703093 0
M  V30 6165 C 592.468 1.4334 1.49202 0
M  V30 6166 C 592.883 0.0365596 1.88765 0
M  V30 6167 O 592.24 -0.942419 1.56284 0
M  V30 6168 C 592.291 2.33538 2.75939 0
M  V30 6169 O 592.012 3.67786 2.38045 0
M  V30 6170 C 593.513 2.44555 3.6974 0
M  V30 6171 H 590.733 0.488472 0.460039 0
M  V30 6172 H 593.277 1.85245 0.86629 0
M  V30 6173 H 591.432 1.94962 3.34766 0
M  V30 6174 H 591.846 4.15816 3.19683 0
M  V30 6175 H 593.32 3.11849 4.55471 0
M  V30 6176 H 593.797 1.47447 4.1371 0
M  V30 6177 H 594.403 2.83735 3.16819 0
M  V30 6178 N 592.718 -0.936591 1.26751 0
M  V30 6179 C 593.995 -1.66094 1.03306 0
M  V30 6180 C 594.375 -2.06568 -0.435058 0
M  V30 6181 O 593.723 -1.79305 -1.41641 0
M  V30 6182 C 593.933 -2.86969 1.98619 0
M  V30 6183 C 595.281 -3.58516 2.27489 0
M  V30 6184 O 596.305 -2.97082 1.96522 0
M  V30 6185 O 595.164 -4.69181 2.80235 0
M  V30 6186 H 592.258 -0.727568 0.393158 0
M  V30 6187 H 594.804 -0.987914 1.3798 0
M  V30 6188 H 593.576 -2.53985 2.9767 0
M  V30 6189 H 593.199 -3.61996 1.64454 0
M  V30 6190 N 594.196 -1.08629 -1.14182 0
M  V30 6191 C 595.444 -0.815731 -1.84906 0
M  V30 6192 C 595.765 0.660441 -1.83475 0
M  V30 6193 O 595.035 1.47888 -1.28476 0
M  V30 6194 H 593.615 -0.298773 -0.684648 0
M  V30 6195 H 596.277 -1.37274 -1.38354 0
M  V30 6196 H 595.373 -1.16193 -2.89665 0
M  V30 6197 N 595.674 1.31259 -0.872281 0
M  V30 6198 C 597.085 1.78822 -0.536617 0
M  V30 6199 C 597.436 1.71855 0.946594 0
M  V30 6200 O 596.561 1.28769 1.73918 0
M  V30 6201 C 597.156 3.24698 -0.967294 0
M  V30 6202 C 595.715 3.70147 -0.683251 0
M  V30 6203 C 594.862 2.51994 -1.15733 0
M  V30 6204 H 597.813 1.18308 -1.05777 0
M  V30 6205 H 597.834 3.79386 -0.290929 0
M  V30 6206 H 597.346 3.29737 -2.04683 0
M  V30 6207 H 595.447 3.70607 0.384825 0
M  V30 6208 H 595.56 4.62183 -1.2619 0
M  V30 6209 H 593.924 2.48078 -0.577024 0
M  V30 6210 H 594.707 2.59778 -2.24434 0
M  V30 6211 N 597.152 0.631951 1.44375 0
M  V30 6212 C 598.4 0.136497 2.01639 0
M  V30 6213 C 598.721 -1.24637 1.49969 0
M  V30 6214 O 597.991 -1.82827 0.70363 0
M  V30 6215 H 596.571 0.0474703 0.74549 0
M  V30 6216 H 599.233 0.818837 1.76865 0
M  V30 6217 H 598.329 0.104817 3.11924 0
M  V30 6218 N 598.631 -1.53133 0.372548 0
M  V30 6219 C 600.047 -1.59585 0.02178 0
M  V30 6220 C 600.247 -1.38736 -1.46132 0
M  V30 6221 O 599.303 -1.19599 -2.22379 0
M  V30 6222 C 600.616 -2.9678 0.483959 0
M  V30 6223 C 602.164 -3.09909 0.438775 0
M  V30 6224 C 602.639 -4.49527 0.876876 0
M  V30 6225 N 604.13 -4.55663 0.832214 0
M  V30 6226 C 604.865 -5.61896 1.14281 0
M  V30 6227 N 604.361 -6.75852 1.52303 0
M  V30 6228 N 606.154 -5.51916 1.06515 0
M  V30 6229 H 598.305 -1.64936 1.33827 0
M  V30 6230 H 600.568 -0.773947 0.547458 0
M  V30 6231 H 600.274 -3.17198 1.51915 0
M  V30 6232 H 600.148 -3.7699 -0.125784 0
M  V30 6233 H 602.535 -2.89197 -0.587294 0
M  V30 6234 H 602.616 -2.31691 1.0841 0
M  V30 6235 H 602.26 -4.70979 1.90109 0
M  V30 6236 H 602.19 -5.26186 0.208727 0
M  V30 6237 H 604.681 -3.73844 0.552195 0
M  V30 6238 H 604.994 -7.52862 1.7441 0
M  V30 6239 H 603.339 -6.77226 1.56175 0
M  V30 6240 H 606.53 -4.6177 0.767235 0
M  V30 6241 H 606.703 -6.34609 1.31053 0
M  V30 6242 N 600.109 -0.101901 -1.5727 0
M  V30 6243 C 601.057 0.872034 -2.15635 0
M  V30 6244 C 602.051 1.28742 -1.10099 0
M  V30 6245 O 603.257 1.26116 -1.28432 0
M  V30 6246 H 599.632 0.299269 -0.689886 0
M  V30 6247 H 601.603 0.355137 -2.96279 0
M  V30 6248 C 600.352 2.11886 -2.7568 0
M  V30 6249 H 599.675 1.80813 -3.56576 0
M  V30 6250 H 601.115 2.78077 -3.20077 0
M  V30 6251 C 599.574 2.89739 -1.7191 0
M  V30 6252 O 600.104 3.84522 -1.16213 0
M  V30 6253 N 598.31 2.53407 -1.42245 0
M  V30 6254 H 597.857 1.76398 -1.87727 0
M  V30 6255 H 597.815 3.05795 -0.730529 0
M  V30 6256 N 601.587 1.56661 0.17182 0
M  V30 6257 C 602.836 1.81158 0.886831 0
M  V30 6258 C 603.149 0.679072 1.83434 0
M  V30 6259 O 604.355 0.808964 2.59168 0
M  V30 6260 C 602.811 3.20999 1.6275 0
M  V30 6261 C 602.419 4.42117 0.723652 0
M  V30 6262 C 604.163 3.5479 2.33076 0
M  V30 6263 C 602.07 5.7298 1.46452 0
M  V30 6264 H 601 0.675543 0.334899 0
M  V30 6265 H 603.651 1.82967 0.139765 0
M  V30 6266 H 602.033 3.13506 2.4193 0
M  V30 6267 H 603.207 4.60789 -0.0311485 0
M  V30 6268 H 601.522 4.16197 0.130063 0
M  V30 6269 H 604.119 4.49806 2.89099 0
M  V30 6270 H 604.462 2.79646 3.08389 0
M  V30 6271 H 604.995 3.63834 1.6084 0
M  V30 6272 H 601.734 6.51152 0.753729 0
M  V30 6273 H 601.254 5.58285 2.19266 0
M  V30 6274 H 602.933 6.14916 2.01214 0
M  V30 6275 N 603.065 -0.440357 1.51323 0
M  V30 6276 C 603.995 -1.54174 1.75364 0
M  V30 6277 C 604.976 -1.59039 0.603375 0
M  V30 6278 O 606.161 -1.74815 0.845774 0
M  V30 6279 C 603.291 -2.92277 1.87593 0
M  V30 6280 C 602.245 -3.02274 3.03009 0
M  V30 6281 C 601.571 -4.42327 3.00418 0
M  V30 6282 C 602.871 -2.76634 4.43024 0
M  V30 6283 H 604.565 -1.34307 2.67585 0
M  V30 6284 H 602.111 -0.644678 1.28763 0
M  V30 6285 H 604.064 -3.69284 2.02995 0
M  V30 6286 H 602.788 -3.13369 0.920179 0
M  V30 6287 H 601.447 -2.27706 2.87307 0
M  V30 6288 H 601.095 -4.60382 2.02626 0
M  V30 6289 H 600.795 -4.49946 3.77918 0
M  V30 6290 H 602.319 -5.21312 3.17909 0
M  V30 6291 H 603.733 -3.43376 4.59093 0
M  V30 6292 H 602.13 -2.95666 5.22208 0
M  V30 6293 H 603.2 -1.72262 4.5327 0
M  V30 6294 N 604.543 -1.41418 -0.695603 0
M  V30 6295 C 605.49 -1.43264 -1.80954 0
M  V30 6296 C 606.46 -0.287016 -1.63601 0
M  V30 6297 O 607.645 -0.488054 -1.84452 0
M  V30 6298 C 604.785 -1.32054 -3.18835 0
M  V30 6299 C 603.898 -2.56485 -3.4762 0
M  V30 6300 C 603.033 -2.3757 -4.75115 0
M  V30 6301 C 602.072 -3.57477 -4.96867 0
M  V30 6302 N 601.209 -3.37632 -6.15588 0
M  V30 6303 H 606.049 -2.38467 -1.78711 0
M  V30 6304 H 603.586 -1.18415 -0.872715 0
M  V30 6305 H 605.544 -1.23558 -3.98484 0
M  V30 6306 H 604.174 -0.404592 -3.20254 0
M  V30 6307 H 603.226 -2.75432 -2.62376 0
M  V30 6308 H 604.538 -3.45678 -3.59594 0
M  V30 6309 H 603.692 -2.2654 -5.62818 0
M  V30 6310 H 602.431 -1.45834 -4.65386 0
M  V30 6311 H 601.436 -3.68961 -4.07612 0
M  V30 6312 H 602.661 -4.50167 -5.08455 0
M  V30 6313 H 600.607 -2.48596 -6.07072 0
M  V30 6314 H 600.524 -4.20401 -6.2833 0
M  V30 6315 H 601.792 -3.30375 -7.06026 0
M  V30 6316 N 606.021 0.929856 -1.27246 0
M  V30 6317 C 607.268 1.67731 -1.13457 0
M  V30 6318 C 607.596 1.9185 0.319998 0
M  V30 6319 O 606.851 1.50524 1.25064 0
M  V30 6320 C 607.15 3.05116 -1.86115 0
M  V30 6321 C 606.816 3.00715 -3.35978 0
M  V30 6322 C 605.478 2.99222 -3.76855 0
M  V30 6323 C 607.83 2.92168 -4.3161 0
M  V30 6324 C 605.158 2.86962 -5.11732 0
M  V30 6325 C 607.51 2.81449 -5.66542 0
M  V30 6326 C 606.174 2.78305 -6.06715 0
M  V30 6327 H 605.444 0.613772 -0.415168 0
M  V30 6328 H 608.091 1.08456 -1.57827 0
M  V30 6329 H 606.396 3.68083 -1.34246 0
M  V30 6330 H 608.093 3.61822 -1.72876 0
M  V30 6331 H 604.683 3.02664 -3.03468 0
M  V30 6332 H 608.867 2.92421 -4.01003 0
M  V30 6333 H 604.123 2.82913 -5.42006 0
M  V30 6334 H 608.297 2.738 -6.40317 0
M  V30 6335 H 605.924 2.68561 -7.11181 0
M  V30 6336 N 607.499 1.09233 1.13605 0
M  V30 6337 C 608.446 0.729921 2.18954 0
M  V30 6338 C 609.416 -0.287916 1.63586 0
M  V30 6339 O 610.601 -0.170003 1.90041 0
M  V30 6340 C 607.741 0.154489 3.44754 0
M  V30 6341 C 606.854 1.22613 4.14234 0
M  V30 6342 C 605.989 0.613657 5.27644 0
M  V30 6343 C 605.028 1.66674 5.8897 0
M  V30 6344 N 604.165 1.07545 6.93814 0
M  V30 6345 H 609.005 1.63257 2.49302 0
M  V30 6346 H 606.542 0.815693 1.22413 0
M  V30 6347 H 608.5 -0.196923 4.16735 0
M  V30 6348 H 607.13 -0.711433 3.14863 0
M  V30 6349 H 606.182 1.69485 3.40557 0
M  V30 6350 H 607.494 2.0238 4.55899 0
M  V30 6351 H 606.648 0.210976 6.06333 0
M  V30 6352 H 605.387 -0.215584 4.87223 0
M  V30 6353 H 604.392 2.07899 5.08978 0
M  V30 6354 H 605.617 2.49861 6.31464 0
M  V30 6355 H 603.563 0.267451 6.55455 0
M  V30 6356 H 603.48 1.81011 7.3401 0
M  V30 6357 H 604.748 0.698906 7.7636 0
M  V30 6358 N 608.977 -1.30795 0.87923 0
M  V30 6359 C 610.388 -1.78535 0.546093 0
M  V30 6360 C 610.739 -1.72354 -0.937467 0
M  V30 6361 O 609.864 -1.2969 -1.73233 0
M  V30 6362 C 610.459 -3.24181 0.9845 0
M  V30 6363 C 609.018 -3.69779 0.702871 0
M  V30 6364 C 608.165 -2.51377 1.17068 0
M  V30 6365 H 611.116 -1.17746 1.06403 0
M  V30 6366 H 611.137 -3.79227 0.311045 0
M  V30 6367 H 610.649 -3.28647 2.06429 0
M  V30 6368 H 608.75 -3.70806 -0.365166 0
M  V30 6369 H 608.863 -4.61507 1.28639 0
M  V30 6370 H 607.227 -2.47768 0.590172 0
M  V30 6371 H 608.01 -2.58584 2.25808 0
M  V30 6372 N 610.455 -0.639598 -1.44038 0
M  V30 6373 C 611.866 -0.228866 -1.85292 0
M  V30 6374 C 612.217 1.22161 -1.53529 0
M  V30 6375 O 611.342 1.93064 -0.977518 0
M  V30 6376 C 611.937 -0.408592 -3.36327 0
M  V30 6377 C 610.496 -0.0522953 -3.76364 0
M  V30 6378 C 609.643 -0.717959 -2.67844 0
M  V30 6379 H 612.594 -0.844194 -1.34384 0
M  V30 6380 H 612.615 0.349968 -3.78887 0
M  V30 6381 H 612.127 -1.46435 -3.59414 0
M  V30 6382 H 610.228 1.0014 -3.58891 0
M  V30 6383 H 610.341 -0.468261 -4.76806 0
M  V30 6384 H 608.705 -0.152459 -2.54243 0
M  V30 6385 H 609.488 -1.77648 -2.93762 0
M  V30 6386 N 611.933 1.52934 -0.380664 0
M  V30 6387 C 612.866 2.22597 0.502564 0
M  V30 6388 C 613.844 1.22345 1.071 0
M  V30 6389 O 615.028 1.51302 1.12428 0
M  V30 6390 C 612.155 2.93246 1.69482 0
M  V30 6391 C 611.201 4.07696 1.25244 0
M  V30 6392 S 612.034 5.34957 0.241159 0
M  V30 6393 C 613.19 6.09124 1.4394 0
M  V30 6394 H 613.423 2.97167 -0.089029 0
M  V30 6395 H 610.956 1.53518 -0.164817 0
M  V30 6396 H 612.914 3.34562 2.37863 0
M  V30 6397 H 611.575 2.18373 2.2577 0
M  V30 6398 H 610.768 4.56199 2.1424 0
M  V30 6399 H 610.37 3.68349 0.647664 0
M  V30 6400 H 612.662 6.34771 2.36794 0
M  V30 6401 H 613.605 7.01068 0.995464 0
M  V30 6402 H 614.013 5.39777 1.65229 0
M  V30 6403 N 613.412 0.11024 1.57214 0
M  V30 6404 C 614.652 -0.553061 1.96775 0
M  V30 6405 C 615.016 -1.64403 0.991753 0
M  V30 6406 O 616.217 -2.36561 1.27642 0
M  V30 6407 C 614.488 -1.08004 3.4069 0
M  V30 6408 S 616.047 -1.75309 4.02259 0
M  V30 6409 H 612.865 -0.18003 0.68783 0
M  V30 6410 H 615.467 0.193242 1.94543 0
M  V30 6411 H 614.171 -0.274735 4.09479 0
M  V30 6412 H 613.702 -1.86182 3.46554 0
M  V30 6413 H 615.717 -3.03834 3.923 0
M  V30 6414 N 614.89 -1.56749 -0.16351 0
M  V30 6415 C 616.137 -1.82434 -0.878866 0
M  V30 6416 C 616.465 -0.688557 -1.81904 0
M  V30 6417 O 615.72 0.323644 -1.93005 0
M  V30 6418 C 616.019 -3.14342 -1.70071 0
M  V30 6419 C 615.685 -4.41647 -0.908775 0
M  V30 6420 C 614.347 -4.76224 -0.690236 0
M  V30 6421 C 616.699 -5.19998 -0.353815 0
M  V30 6422 C 614.027 -5.86624 0.0942374 0
M  V30 6423 C 616.379 -6.3122 0.41761 0
M  V30 6424 C 615.043 -6.64358 0.646879 0
M  V30 6425 H 614.313 -0.667574 -0.3216 0
M  V30 6426 H 616.96 -1.90963 -0.14337 0
M  V30 6427 H 615.265 -3.0119 -2.50583 0
M  V30 6428 H 616.962 -3.31426 -2.25738 0
M  V30 6429 H 613.552 -4.1453 -1.08916 0
M  V30 6430 H 617.736 -4.93673 -0.509975 0
M  V30 6431 H 612.992 -6.10751 0.281529 0
M  V30 6432 H 617.166 -6.91133 0.854849 0
M  V30 6433 H 614.793 -7.49742 1.25662 0
M  V30 6434 N 616.368 0.432326 -1.51554 0
M  V30 6435 C 617.593 1.20824 -1.68571 0
M  V30 6436 C 618.018 1.84126 -0.384596 0
M  V30 6437 O 617.376 1.69025 0.655751 0
M  V30 6438 C 617.424 2.26429 -2.80646 0
M  V30 6439 O 616.528 3.32032 -2.44598 0
M  V30 6440 H 615.869 0.353765 -0.561913 0
M  V30 6441 H 618.399 0.509916 -1.98144 0
M  V30 6442 H 618.409 2.71133 -3.04878 0
M  V30 6443 H 617.084 1.79733 -3.75058 0
M  V30 6444 H 615.661 2.92769 -2.30956 0
M  V30 6445 N 617.846 1.41785 0.688094 0
M  V30 6446 C 618.776 1.47 1.8142 0
M  V30 6447 C 619.757 0.327881 1.6691 0
M  V30 6448 O 620.942 0.540362 1.86531 0
M  V30 6449 C 618.072 1.35876 3.19617 0
M  V30 6450 C 617.026 2.47976 3.48844 0
M  V30 6451 C 616.352 2.21915 4.86475 0
M  V30 6452 C 617.652 3.90309 3.47068 0
M  V30 6453 H 619.346 2.41247 1.77314 0
M  V30 6454 H 616.892 1.16116 0.851651 0
M  V30 6455 H 618.845 1.38134 3.98117 0
M  V30 6456 H 617.569 0.38116 3.24368 0
M  V30 6457 H 616.228 2.45013 2.72698 0
M  V30 6458 H 615.876 1.2248 4.8786 0
M  V30 6459 H 615.576 2.97037 5.06994 0
M  V30 6460 H 617.1 2.25901 5.67275 0
M  V30 6461 H 618.514 3.94947 4.1556 0
M  V30 6462 H 616.911 4.65175 3.7912 0
M  V30 6463 H 617.981 4.17927 2.45896 0
M  V30 6464 N 619.324 -0.923095 1.27737 0
M  V30 6465 C 620.601 -1.64989 1.05062 0
M  V30 6466 C 620.981 -2.07018 -0.413124 0
M  V30 6467 O 620.329 -1.80797 -1.39731 0
M  V30 6468 C 620.539 -2.84847 2.01652 0
M  V30 6469 C 621.887 -3.56083 2.31279 0
M  V30 6470 O 622.911 -2.94981 1.99662 0
M  V30 6471 O 621.77 -4.66182 2.85196 0
M  V30 6472 H 618.864 -0.723357 0.400853 0
M  V30 6473 H 621.41 -0.973224 1.3902 0
M  V30 6474 H 620.182 -2.50814 3.00347 0
M  V30 6475 H 619.805 -3.60231 1.68284 0
M  V30 6476 N 620.802 -1.09834 -1.13024 0
M  V30 6477 C 621.75 -0.736283 -2.20639 0
M  V30 6478 C 622.744 0.264725 -1.67319 0
M  V30 6479 O 623.95 0.125745 -1.7956 0
M  V30 6480 H 620.325 -0.220136 -0.719058 0
M  V30 6481 H 622.296 -1.65295 -2.48436 0
M  V30 6482 C 621.045 -0.177544 -3.47246 0
M  V30 6483 H 620.368 -0.939009 -3.88616 0
M  V30 6484 H 621.808 0.0378007 -4.23983 0
M  V30 6485 C 620.267 1.08824 -3.1884 0
M  V30 6486 O 620.797 2.1708 -3.37993 0
M  V30 6487 N 619.003 1.00442 -2.7269 0
M  V30 6488 H 618.55 0.123383 -2.57304 0
M  V30 6489 H 618.508 1.85206 -2.5406 0
M  V30 6490 N 622.28 1.30327 -0.886154 0
M  V30 6491 C 623.243 2.26376 -0.358687 0
M  V30 6492 C 624.243 1.52845 0.499498 0
M  V30 6493 O 625.433 1.71483 0.306485 0
M  V30 6494 C 622.565 3.37379 0.488726 0
M  V30 6495 H 623.758 2.74547 -1.20681 0
M  V30 6496 H 621.311 1.41536 -0.663113 0
M  V30 6497 H 622.046 2.94526 1.35739 0
M  V30 6498 H 621.831 3.91897 -0.126003 0
M  V30 6499 H 623.321 4.08868 0.84952 0
M  V30 6500 N 623.758 0.647228 1.43697 0
M  V30 6501 C 625.174 0.314256 1.56476 0
M  V30 6502 C 625.374 -1.18191 1.63196 0
M  V30 6503 O 624.43 -1.96655 1.58376 0
M  V30 6504 C 625.743 1.02034 2.82859 0
M  V30 6505 C 627.291 1.00002 2.96595 0
M  V30 6506 C 627.766 1.68689 4.25803 0
M  V30 6507 N 629.257 1.65424 4.32654 0
M  V30 6508 C 629.992 2.1545 5.31384 0
M  V30 6509 N 629.488 2.73738 6.36427 0
M  V30 6510 N 631.281 2.05985 5.22998 0
M  V30 6511 H 623.432 1.61821 1.37578 0
M  V30 6512 H 625.695 0.680184 0.660344 0
M  V30 6513 H 625.401 2.07542 2.83935 0
M  V30 6514 H 625.275 0.568146 3.72897 0
M  V30 6515 H 627.662 -0.0466319 2.95063 0
M  V30 6516 H 627.743 1.49086 2.07863 0
M  V30 6517 H 627.387 2.73308 4.28095 0
M  V30 6518 H 627.317 1.17076 5.13421 0
M  V30 6519 H 629.808 1.22884 3.57363 0
M  V30 6520 H 630.121 3.09602 7.08072 0
M  V30 6521 H 628.466 2.77796 6.37067 0
M  V30 6522 H 631.657 1.60157 4.39849 0
M  V30 6523 H 631.83 2.45281 5.99784 0
M  V30 6524 N 625.236 -1.5273 0.388769 0
M  V30 6525 C 626.168 -2.24081 -0.481704 0
M  V30 6526 C 627.181 -1.26307 -1.02715 0
M  V30 6527 O 628.37 -1.52386 -0.929565 0
M  V30 6528 C 625.47 -2.94315 -1.68024 0
M  V30 6529 C 624.643 -4.18791 -1.26226 0
M  V30 6530 C 623.702 -4.72028 -2.32542 0
M  V30 6531 O 622.728 -5.35129 -1.93972 0
M  V30 6532 N 623.93 -4.51838 -3.64448 0
M  V30 6533 H 626.695 -2.9942 0.129591 0
M  V30 6534 H 624.256 -1.60465 0.2151 0
M  V30 6535 H 626.248 -3.26831 -2.38671 0
M  V30 6536 H 624.818 -2.22287 -2.19789 0
M  V30 6537 H 624.038 -3.92318 -0.384703 0
M  V30 6538 H 625.326 -4.99668 -0.959647 0
M  V30 6539 H 624.724 -4.01468 -3.98547 0
M  V30 6540 H 623.281 -4.88845 -4.31131 0
M  V30 6541 N 626.714 -0.118576 -1.57153 0
M  V30 6542 C 627.96 0.540326 -1.95469 0
M  V30 6543 C 628.293 1.66356 -1.00196 0
M  V30 6544 O 627.568 1.94461 -0.039104 0
M  V30 6545 C 627.851 1.07342 -3.43729 0
M  V30 6546 C 627.704 -0.0463732 -4.49776 0
M  V30 6547 C 629.023 1.96442 -3.93826 0
M  V30 6548 H 626.142 0.19494 -0.710751 0
M  V30 6549 H 628.784 -0.19405 -1.89006 0
M  V30 6550 H 626.934 1.69925 -3.49368 0
M  V30 6551 H 628.606 -0.681648 -4.56236 0
M  V30 6552 H 626.849 -0.709574 -4.27957 0
M  V30 6553 H 627.52 0.367856 -5.50773 0
M  V30 6554 H 629.996 1.43731 -3.90488 0
M  V30 6555 H 628.872 2.3066 -4.98084 0
M  V30 6556 H 629.133 2.89077 -3.34495 0
M  V30 6557 N 628.193 1.56834 0.155195 0
M  V30 6558 C 629.439 1.83169 0.870467 0
M  V30 6559 C 629.772 0.698929 1.81187 0
M  V30 6560 O 629.047 -0.298035 1.92203 0
M  V30 6561 C 629.33 3.19965 1.65211 0
M  V30 6562 C 629.183 4.43792 0.732744 0
M  V30 6563 C 630.502 3.53885 2.61636 0
M  V30 6564 H 627.621 0.666288 0.315006 0
M  V30 6565 H 630.263 1.89513 0.135988 0
M  V30 6566 H 628.413 3.14687 2.27825 0
M  V30 6567 H 630.085 4.61148 0.118236 0
M  V30 6568 H 628.328 4.3378 0.0417906 0
M  V30 6569 H 628.999 5.36095 1.31552 0
M  V30 6570 H 631.475 3.5972 2.09143 0
M  V30 6571 H 630.351 4.50648 3.13381 0
M  V30 6572 H 630.612 2.79418 3.42605 0
M  V30 6573 N 629.671 -0.424282 1.51781 0
M  V30 6574 C 630.634 -1.49848 1.73431 0
M  V30 6575 C 631.634 -1.49016 0.604225 0
M  V30 6576 O 632.824 -1.50808 0.871935 0
M  V30 6577 C 629.956 -2.89332 1.80277 0
M  V30 6578 H 631.149 -1.3195 2.69312 0
M  V30 6579 H 628.702 -0.653809 1.41968 0
M  V30 6580 H 629.437 -3.12618 0.862568 0
M  V30 6581 H 629.222 -2.9134 2.62419 0
M  V30 6582 H 630.712 -3.67233 1.98821 0
M  V30 6583 N 631.149 -1.42148 -0.680565 0
M  V30 6584 C 632.096 -1.45175 -1.79424 0
M  V30 6585 C 633.066 -0.304352 -1.63288 0
M  V30 6586 O 634.251 -0.507591 -1.83924 0
M  V30 6587 C 631.391 -1.35429 -3.17416 0
M  V30 6588 C 630.504 -2.60158 -3.4488 0
M  V30 6589 C 629.639 -2.42596 -4.72568 0
M  V30 6590 C 628.678 -3.62727 -4.93047 0
M  V30 6591 N 627.815 -3.44143 -6.11973 0
M  V30 6592 H 632.655 -2.40349 -1.76172 0
M  V30 6593 H 630.192 -1.19334 -0.860107 0
M  V30 6594 H 632.15 -1.27777 -3.97151 0
M  V30 6595 H 630.78 -0.438536 -3.19807 0
M  V30 6596 H 629.832 -2.78199 -2.5944 0
M  V30 6597 H 631.144 -3.49473 -3.55908 0
M  V30 6598 H 630.298 -2.32497 -5.60384 0
M  V30 6599 H 629.037 -1.50761 -4.63813 0
M  V30 6600 H 628.042 -3.73264 -4.03676 0
M  V30 6601 H 629.267 -4.55534 -5.03652 0
M  V30 6602 H 627.213 -2.5502 -6.04401 0
M  V30 6603 H 627.13 -4.27041 -6.23836 0
M  V30 6604 H 628.398 -3.37845 -7.02482 0
M  V30 6605 N 632.627 0.916307 -1.28225 0
M  V30 6606 C 633.557 2.0352 -1.14464 0
M  V30 6607 C 634.538 1.70045 -0.0430844 0
M  V30 6608 O 635.723 1.92954 -0.219619 0
M  V30 6609 C 632.853 3.37889 -0.803027 0
M  V30 6610 C 631.807 3.85516 -1.85908 0
M  V30 6611 C 631.133 5.1682 -1.37116 0
M  V30 6612 C 632.433 4.07655 -3.26519 0
M  V30 6613 H 634.127 2.1529 -2.08064 0
M  V30 6614 H 631.673 1.03446 -1.00174 0
M  V30 6615 H 633.626 4.15654 -0.693537 0
M  V30 6616 H 632.35 3.26164 0.168674 0
M  V30 6617 H 631.009 3.09953 -1.95767 0
M  V30 6618 H 630.657 5.01497 -0.38859 0
M  V30 6619 H 630.357 5.49657 -2.07728 0
M  V30 6620 H 631.881 5.97143 -1.27484 0
M  V30 6621 H 633.295 4.75953 -3.19596 0
M  V30 6622 H 631.692 4.51818 -3.94943 0
M  V30 6623 H 632.762 3.12553 -3.70727 0
M  V30 6624 N 634.105 1.10431 1.1244 0
M  V30 6625 C 635.382 0.758797 1.80282 0
M  V30 6626 C 635.762 -0.754727 1.97147 0
M  V30 6627 O 635.11 -1.68094 1.54779 0
M  V30 6628 C 635.32 1.50982 3.14651 0
M  V30 6629 C 636.668 1.68232 3.8985 0
M  V30 6630 O 637.692 1.47319 3.24308 0
M  V30 6631 O 636.551 2.02905 5.07437 0
M  V30 6632 H 633.645 0.273756 0.780376 0
M  V30 6633 H 636.191 1.20713 1.19275 0
M  V30 6634 H 634.963 2.53989 2.97666 0
M  V30 6635 H 634.586 1.05435 3.83366 0
M  V30 6636 N 635.583 -1.29855 0.893053 0
M  V30 6637 C 636.546 -2.26183 0.370687 0
M  V30 6638 C 637.546 -1.53108 -0.491385 0
M  V30 6639 O 638.736 -1.71643 -0.297386 0
M  V30 6640 C 635.868 -3.37633 -0.470827 0
M  V30 6641 H 637.061 -2.73903 1.22135 0
M  V30 6642 H 634.614 -1.41183 0.67061 0
M  V30 6643 H 635.349 -2.95241 -1.34175 0
M  V30 6644 H 635.134 -3.91825 0.146784 0
M  V30 6645 H 636.624 -4.09313 -0.827825 0
M  V30 6646 N 637.061 -0.65484 -1.43351 0
M  V30 6647 C 638.31 -0.166215 -2.01014 0
M  V30 6648 C 638.623 1.22764 -1.52278 0
M  V30 6649 O 639.829 1.81156 -2.02224 0
M  V30 6650 C 638.285 -0.246341 -3.59056 0
M  V30 6651 C 637.893 -1.64299 -4.16785 0
M  V30 6652 C 639.637 0.184597 -4.24098 0
M  V30 6653 C 637.544 -1.67695 -5.67126 0
M  V30 6654 H 636.474 -0.0583769 -0.751737 0
M  V30 6655 H 639.125 -0.817111 -1.64303 0
M  V30 6656 H 637.507 0.472092 -3.93176 0
M  V30 6657 H 638.681 -2.3869 -3.94162 0
M  V30 6658 H 636.996 -2.02004 -3.6412 0
M  V30 6659 H 639.593 0.179088 -5.344 0
M  V30 6660 H 639.936 1.21632 -3.98135 0
M  V30 6661 H 640.469 -0.482141 -3.94867 0
M  V30 6662 H 637.208 -2.68783 -5.9786 0
M  V30 6663 H 636.728 -0.976313 -5.91801 0
M  V30 6664 H 638.407 -1.42142 -6.31193 0
M  V30 6665 N 638.539 1.52521 -0.396863 0
M  V30 6666 C 639.469 2.29582 0.425941 0
M  V30 6667 C 640.45 1.33281 1.05689 0
M  V30 6668 O 641.635 1.62181 1.06823 0
M  V30 6669 C 638.765 3.10821 1.54943 0
M  V30 6670 C 637.719 4.15069 1.04413 0
M  V30 6671 C 637.045 4.84578 2.26028 0
M  V30 6672 C 638.345 5.22191 0.106767 0
M  V30 6673 H 640.039 2.98612 -0.217045 0
M  V30 6674 H 637.585 1.43611 -0.105826 0
M  V30 6675 H 639.538 3.63492 2.13193 0
M  V30 6676 H 638.262 2.39538 2.22011 0
M  V30 6677 H 636.921 3.63389 0.484118 0
M  V30 6678 H 636.569 4.09835 2.91623 0
M  V30 6679 H 636.269 5.55043 1.92876 0
M  V30 6680 H 637.793 5.40056 2.84906 0
M  V30 6681 H 639.207 5.70176 0.597685 0
M  V30 6682 H 637.604 5.99947 -0.135352 0
M  V30 6683 H 638.674 4.77531 -0.842134 0
M  V30 6684 N 640.017 0.126909 1.57088 0
M  V30 6685 C 641.245 -0.53667 1.99819 0
M  V30 6686 C 641.66 -1.5972 1.00673 0
M  V30 6687 O 641.017 -1.825 0.000747365 0
M  V30 6688 C 641.068 -1.15563 3.42531 0
M  V30 6689 O 640.789 -0.137483 4.37884 0
M  V30 6690 C 642.29 -1.90176 4.00435 0
M  V30 6691 H 639.51 -0.141443 0.655923 0
M  V30 6692 H 642.054 0.215578 2.03361 0
M  V30 6693 H 640.209 -1.85861 3.39904 0
M  V30 6694 H 640.623 -0.588229 5.21191 0
M  V30 6695 H 642.097 -2.28801 5.02349 0
M  V30 6696 H 642.574 -2.78002 3.40017 0
M  V30 6697 H 643.18 -1.24623 4.06632 0
M  V30 6698 N 641.495 -1.56914 -0.146875 0
M  V30 6699 C 642.772 -1.74273 -0.888165 0
M  V30 6700 C 643.152 -0.69496 -1.99333 0
M  V30 6701 O 642.5 0.286093 -2.26702 0
M  V30 6702 C 642.71 -3.18336 -1.43051 0
M  V30 6703 C 644.058 -3.80024 -1.89387 0
M  V30 6704 O 645.082 -3.21765 -1.52792 0
M  V30 6705 O 643.941 -4.82367 -2.56874 0
M  V30 6706 H 641.035 -0.712565 -0.419738 0
M  V30 6707 H 643.581 -1.6918 -0.132791 0
M  V30 6708 H 642.353 -3.86092 -0.636274 0
M  V30 6709 H 641.976 -3.27854 -2.24938 0
M  V30 6710 N 642.974 0.416227 -1.52004 0
M  V30 6711 C 643.907 1.52736 -1.6955 0
M  V30 6712 C 644.885 1.53264 -0.54305 0
M  V30 6713 O 646.069 1.72077 -0.769527 0
M  V30 6714 C 643.196 2.91283 -1.72835 0
M  V30 6715 C 642.242 3.08695 -2.94295 0
M  V30 6716 S 643.075 2.82758 -4.54762 0
M  V30 6717 C 644.231 4.23548 -4.60823 0
M  V30 6718 H 644.464 1.37623 -2.63528 0
M  V30 6719 H 641.997 0.607335 -1.41954 0
M  V30 6720 H 643.955 3.71134 -1.75413 0
M  V30 6721 H 642.616 3.03742 -0.799966 0
M  V30 6722 H 641.809 4.10042 -2.93056 0
M  V30 6723 H 641.411 2.36699 -2.89568 0
M  V30 6724 H 643.703 5.17078 -4.37763 0
M  V30 6725 H 644.646 4.29813 -5.62731 0
M  V30 6726 H 645.054 4.08188 -3.89927 0
M  V30 6727 N 644.452 1.42507 0.673017 0
M  V30 6728 C 645.362 1.4853 1.81593 0
M  V30 6729 C 646.378 0.373907 1.69935 0
M  V30 6730 O 647.554 0.625078 1.91454 0
M  V30 6731 C 644.619 1.387 3.17747 0
M  V30 6732 C 643.68 2.60346 3.41348 0
M  V30 6733 C 642.913 2.50975 4.71007 0
M  V30 6734 O 643.136 1.54659 5.49033 0
M  V30 6735 O 642.07 3.41138 4.95892 0
M  V30 6736 H 645.896 2.45001 1.79467 0
M  V30 6737 H 643.481 1.2429 0.82899 0
M  V30 6738 H 645.363 1.35586 3.98992 0
M  V30 6739 H 644.038 0.453555 3.20507 0
M  V30 6740 H 642.945 2.69034 2.59945 0
M  V30 6741 H 644.278 3.52595 3.43421 0
M  V30 6742 N 645.93 -0.909495 1.28709 0
M  V30 6743 C 646.84 -2.04558 1.14861 0
M  V30 6744 C 647.856 -1.73842 0.0741621 0
M  V30 6745 O 649.032 -1.99383 0.2843 0
M  V30 6746 C 646.097 -3.36957 0.816148 0
M  V30 6747 C 645.158 -3.81255 1.97341 0
M  V30 6748 C 644.391 -5.07335 1.65671 0
M  V30 6749 O 644.614 -5.67514 0.573053 0
M  V30 6750 O 643.548 -5.47449 2.50167 0
M  V30 6751 H 647.374 -2.19161 2.10243 0
M  V30 6752 H 644.959 -1.03159 1.08068 0
M  V30 6753 H 646.841 -4.16436 0.644873 0
M  V30 6754 H 645.516 -3.2352 -0.107983 0
M  V30 6755 H 644.423 -3.02584 2.19986 0
M  V30 6756 H 645.756 -3.99261 2.87839 0
M  V30 6757 N 647.408 -1.11026 -1.11852 0
M  V30 6758 C 648.355 -0.764662 -2.17765 0
M  V30 6759 C 649.325 0.261854 -1.64023 0
M  V30 6760 O 650.51 0.139748 -1.90288 0
M  V30 6761 C 647.65 -0.209317 -3.44465 0
M  V30 6762 C 646.763 -1.29187 -4.12231 0
M  V30 6763 C 645.898 -0.697523 -5.266 0
M  V30 6764 C 644.937 -1.76023 -5.86244 0
M  V30 6765 N 644.074 -1.18569 -6.92016 0
M  V30 6766 H 648.914 -1.67202 -2.46673 0
M  V30 6767 H 646.451 -0.835065 -1.21099 0
M  V30 6768 H 648.409 0.130599 -4.16996 0
M  V30 6769 H 647.039 0.661251 -3.15955 0
M  V30 6770 H 646.091 -1.74881 -3.37818 0
M  V30 6771 H 647.403 -2.09607 -4.52622 0
M  V30 6772 H 646.557 -0.307412 -6.05921 0
M  V30 6773 H 645.296 0.138044 -4.87505 0
M  V30 6774 H 644.301 -2.1597 -5.05606 0
M  V30 6775 H 645.526 -2.59875 -6.27409 0
M  V30 6776 H 643.472 -0.371695 -6.54946 0
M  V30 6777 H 643.389 -1.92666 -7.31038 0
M  V30 6778 H 644.657 -0.82233 -7.7515 0
M  V30 6779 N 648.886 1.2938 -0.899927 0
M  V30 6780 C 650.132 1.9584 -0.526742 0
M  V30 6781 C 650.465 1.70774 0.924651 0
M  V30 6782 O 649.74 1.02084 1.65557 0
M  V30 6783 C 650.023 3.50638 -0.820062 0
M  V30 6784 C 649.876 3.85161 -2.32317 0
M  V30 6785 C 651.195 4.3903 -0.30671 0
M  V30 6786 H 648.314 0.711322 -0.192848 0
M  V30 6787 H 650.956 1.52992 -1.12665 0
M  V30 6788 H 649.106 3.87265 -0.309491 0
M  V30 6789 H 650.778 3.58477 -2.9033 0
M  V30 6790 H 649.021 3.32696 -2.78381 0
M  V30 6791 H 649.692 4.93204 -2.47898 0
M  V30 6792 H 652.168 4.09396 -0.743908 0
M  V30 6793 H 651.044 5.46226 -0.541144 0
M  V30 6794 H 651.305 4.34937 0.792588 0
M  V30 6795 N 650.364 0.662433 1.43002 0
M  V30 6796 C 651.78 0.330835 1.56133 0
M  V30 6797 C 651.98 -1.16454 1.64441 0
M  V30 6798 O 651.036 -1.94964 1.60453 0
M  V30 6799 C 652.349 1.05029 2.81761 0
M  V30 6800 C 653.897 1.03142 2.95518 0
M  V30 6801 C 654.372 1.73196 4.2399 0
M  V30 6802 N 655.863 1.70004 4.30875 0
M  V30 6803 C 656.598 2.21074 5.29069 0
M  V30 6804 N 656.094 2.80473 6.33488 0
M  V30 6805 N 657.887 2.1152 5.20784 0
M  V30 6806 H 650.038 1.63272 1.35853 0
M  V30 6807 H 652.301 0.687149 0.653092 0
M  V30 6808 H 652.007 2.10542 2.81718 0
M  V30 6809 H 651.881 0.607664 3.72273 0
M  V30 6810 H 654.268 -0.0153339 2.95096 0
M  V30 6811 H 654.349 1.51282 2.0627 0
M  V30 6812 H 653.993 2.77833 4.25172 0
M  V30 6813 H 653.923 1.22515 5.1215 0
M  V30 6814 H 656.414 1.26667 3.56039 0
M  V30 6815 H 656.727 3.17094 7.04749 0
M  V30 6816 H 655.072 2.84538 6.34085 0
M  V30 6817 H 658.263 1.64814 4.38126 0
M  V30 6818 H 658.436 2.51629 5.97149 0
M  V30 6819 N 651.842 -1.52309 0.404946 0
M  V30 6820 C 653.067 -2.06666 -0.1743 0
M  V30 6821 C 653.492 -1.27341 -1.38441 0
M  V30 6822 O 652.85 -0.302539 -1.78758 0
M  V30 6823 C 652.898 -3.57014 -0.507262 0
M  V30 6824 O 652.002 -3.80144 -1.59889 0
M  V30 6825 H 651.343 -0.663807 -0.0160273 0
M  V30 6826 H 653.873 -1.96297 0.576937 0
M  V30 6827 H 653.883 -4.00724 -0.767098 0
M  V30 6828 H 652.558 -4.14184 0.377368 0
M  V30 6829 H 651.135 -3.48316 -1.33155 0
M  V30 6830 N 653.32 -0.135238 -1.57019 0
M  V30 6831 C 654.56 0.521686 -1.9763 0
M  V30 6832 C 654.924 1.62804 -1.01778 0
M  V30 6833 O 656.125 2.345 -1.31389 0
M  V30 6834 C 654.396 1.0257 -3.42365 0
M  V30 6835 S 655.955 1.68888 -4.04997 0
M  V30 6836 H 652.773 0.169064 -0.690607 0
M  V30 6837 H 655.375 -0.224168 -1.94211 0
M  V30 6838 H 654.079 0.209556 -4.09865 0
M  V30 6839 H 653.61 1.80645 -3.49472 0
M  V30 6840 H 655.625 2.97554 -3.97084 0
M  V30 6841 N 654.798 1.5699 0.138552 0
M  V30 6842 C 655.708 2.02174 1.19008 0
M  V30 6843 C 656.724 0.938622 1.46512 0
M  V30 6844 O 657.9 1.24872 1.58016 0
M  V30 6845 C 654.965 2.40045 2.50159 0
M  V30 6846 C 654.026 3.62346 2.30226 0
M  V30 6847 C 653.259 3.98401 3.55123 0
M  V30 6848 O 653.482 3.35019 4.61647 0
M  V30 6849 O 652.416 4.91606 3.47285 0
M  V30 6850 H 656.242 2.91954 0.836452 0
M  V30 6851 H 653.827 1.45293 0.347907 0
M  V30 6852 H 655.709 2.65225 3.27465 0
M  V30 6853 H 654.384 1.53417 2.85035 0
M  V30 6854 H 653.291 3.42341 1.50843 0
M  V30 6855 H 654.624 4.49617 2.00262 0
M  V30 6856 N 656.276 -0.40816 1.52223 0
M  V30 6857 C 657.504 -1.17672 1.70179 0
M  V30 6858 C 657.919 -1.84257 0.411696 0
M  V30 6859 O 657.276 -1.7192 -0.612354 0
M  V30 6860 C 657.327 -2.23911 2.83806 0
M  V30 6861 O 657.048 -1.60044 4.0782 0
M  V30 6862 C 658.549 -3.1364 3.13281 0
M  V30 6863 H 655.769 -0.353562 0.570293 0
M  V30 6864 H 658.313 -0.480083 1.98785 0
M  V30 6865 H 656.468 -2.89242 2.57717 0
M  V30 6866 H 656.882 -2.30484 4.71145 0
M  V30 6867 H 658.356 -3.84255 3.96298 0
M  V30 6868 H 658.833 -3.76066 2.26872 0
M  V30 6869 H 659.439 -2.53977 3.41139 0
M  V30 6870 N 657.755 -1.42862 -0.66545 0
M  V30 6871 C 658.685 -1.49867 -1.79059 0
M  V30 6872 C 659.666 -0.354394 -1.66367 0
M  V30 6873 O 660.851 -0.569969 -1.85647 0
M  V30 6874 C 657.981 -1.40943 -3.17415 0
M  V30 6875 C 656.935 -2.53495 -3.44854 0
M  V30 6876 C 656.261 -2.29626 -4.82883 0
M  V30 6877 C 657.561 -3.95781 -3.40815 0
M  V30 6878 H 659.255 -2.44037 -1.73453 0
M  V30 6879 H 656.801 -1.17456 -0.833071 0
M  V30 6880 H 658.754 -1.4445 -3.95869 0
M  V30 6881 H 657.478 -0.432716 -3.23721 0
M  V30 6882 H 656.137 -2.4932 -2.68766 0
M  V30 6883 H 655.785 -1.30226 -4.8585 0
M  V30 6884 H 655.485 -3.05065 -5.02204 0
M  V30 6885 H 657.009 -2.34897 -5.63609 0
M  V30 6886 H 658.423 -4.01508 -4.09224 0
M  V30 6887 H 656.82 -4.71148 -3.71672 0
M  V30 6888 H 657.89 -4.21786 -2.39216 0
M  V30 6889 N 659.233 0.902656 -1.29189 0
M  V30 6890 C 660.649 1.18296 -1.07137 0
M  V30 6891 C 660.849 2.00701 0.179223 0
M  V30 6892 O 659.905 2.3675 0.877812 0
M  V30 6893 C 661.218 1.90677 -2.32514 0
M  V30 6894 C 662.766 2.03515 -2.37804 0
M  V30 6895 C 663.241 2.79307 -3.62976 0
M  V30 6896 N 664.732 2.86862 -3.63681 0
M  V30 6897 C 665.467 3.46035 -4.57217 0
M  V30 6898 N 664.963 4.06399 -5.61081 0
M  V30 6899 N 666.756 3.43681 -4.44792 0
M  V30 6900 H 658.907 0.352765 -2.0945 0
M  V30 6901 H 661.17 0.21876 -0.922414 0
M  V30 6902 H 660.876 1.3756 -3.23682 0
M  V30 6903 H 660.75 2.91169 -2.39793 0
M  V30 6904 H 663.137 2.55809 -1.47125 0
M  V30 6905 H 663.218 1.02166 -2.34512 0
M  V30 6906 H 662.862 2.2769 -4.54004 0
M  V30 6907 H 662.792 3.80995 -3.63525 0
M  V30 6908 H 665.283 2.43987 -2.88581 0
M  V30 6909 H 665.596 4.49564 -6.2858 0
M  V30 6910 H 663.941 4.0487 -5.64894 0
M  V30 6911 H 667.132 2.9574 -3.62843 0
M  V30 6912 H 667.305 3.89503 -5.17872 0
M  V30 6913 N 660.711 1.11618 1.11262 0
M  V30 6914 C 661.641 0.79846 2.19424 0
M  V30 6915 C 662.622 -0.234003 1.68483 0
M  V30 6916 O 663.807 -0.0970704 1.93957 0
M  V30 6917 C 660.937 0.242892 3.4645 0
M  V30 6918 C 659.891 1.20744 4.10615 0
M  V30 6919 C 659.217 0.512494 5.32238 0
M  V30 6920 C 660.517 2.55884 4.55325 0
M  V30 6921 H 662.211 1.70286 2.46258 0
M  V30 6922 H 659.757 0.820195 1.18359 0
M  V30 6923 H 661.71 0.00840447 4.21399 0
M  V30 6924 H 660.434 -0.696811 3.1908 0
M  V30 6925 H 659.093 1.42759 3.37662 0
M  V30 6926 H 658.741 -0.432075 5.01141 0
M  V30 6927 H 658.441 1.15583 5.7612 0
M  V30 6928 H 659.965 0.286842 6.09926 0
M  V30 6929 H 661.379 2.37946 5.21588 0
M  V30 6930 H 659.776 3.16216 5.10027 0
M  V30 6931 H 660.846 3.14968 3.68678 0
M  V30 6932 N 662.189 -1.289 0.906776 0
M  V30 6933 C 663.121 -2.26556 0.347159 0
M  V30 6934 C 664.134 -1.54589 -0.51049 0
M  V30 6935 O 665.323 -1.75489 -0.326501 0
M  V30 6936 C 662.423 -3.3484 -0.523024 0
M  V30 6937 C 661.596 -4.36296 0.310515 0
M  V30 6938 C 660.655 -5.23879 -0.493634 0
M  V30 6939 O 659.681 -5.69127 0.0913569 0
M  V30 6940 N 660.883 -5.51946 -1.7982 0
M  V30 6941 H 663.648 -2.75212 1.18652 0
M  V30 6942 H 661.209 -1.42309 0.771996 0
M  V30 6943 H 663.201 -3.90366 -1.06756 0
M  V30 6944 H 661.771 -2.85946 -1.26309 0
M  V30 6945 H 660.991 -3.80331 1.03644 0
M  V30 6946 H 662.279 -5.01113 0.881106 0
M  V30 6947 H 661.677 -5.17006 -2.2961 0
M  V30 6948 H 660.234 -6.10258 -2.28971 0
M  V30 6949 N 663.667 -0.670007 -1.42649 0
M  V30 6950 C 665.078 -0.268118 -1.84765 0
M  V30 6951 C 665.429 1.18877 -1.56086 0
M  V30 6952 O 664.554 1.90947 -1.01825 0
M  V30 6953 C 665.149 -0.47984 -3.35385 0
M  V30 6954 C 663.708 -0.132116 -3.76168 0
M  V30 6955 C 662.855 -0.774611 -2.66261 0
M  V30 6956 H 665.806 -0.872509 -1.32563 0
M  V30 6957 H 665.827 0.269522 -3.79544 0
M  V30 6958 H 665.339 -1.54026 -3.56227 0
M  V30 6959 H 663.44 0.92505 -3.60934 0
M  V30 6960 H 663.553 -0.569294 -4.75706 0
M  V30 6961 H 661.917 -0.206353 -2.53863 0
M  V30 6962 H 662.7 -1.83839 -2.89928 0
M  V30 6963 O 665.184 1.51659 -0.55515 0
M  V30 6964 H 665.875 1.9363 -0.0521056 0
M  V30 END ATOM
M  V30 BEGIN BOND
M  V30 END BOND
M  V30 END CTAB
M  END
$$$$
