drugbank_target|Q8IVH4 Methylmalonic aciduria type A protein, mitochondrial (DB00115; DB00200)
 OpenBabel12092119293D

  0  0  0     0  0            999 V3000
M  V30 BEGIN CTAB
M  V30 COUNTS 6640 6703 0 0 0
M  V30 BEGIN ATOM
M  V30 1 H -0.908 1.98254 -0.117106 0
M  V30 2 N 0 1.576 0 0
M  V30 3 C 0.933 2.03868 1.02534 0
M  V30 4 C 1.911 0.928543 1.3348 0
M  V30 5 O 3.095 1.19667 1.45644 0
M  V30 6 C 0.222 2.43627 2.35294 0
M  V30 7 C -0.732 3.65373 2.2001 0
M  V30 8 S 0.101 5.13292 1.52614 0
M  V30 9 C 1.257 5.56322 2.86805 0
M  V30 10 H 1.49 2.90518 0.631377 0
M  V30 11 H -0.977 1.52953 0.210867 0
M  V30 12 H 0.981 2.67203 3.11629 0
M  V30 13 H -0.358 1.57376 2.7183 0
M  V30 14 H -1.165 3.90944 3.18086 0
M  V30 15 H -1.563 3.418 1.51819 0
M  V30 16 H 0.729 5.58782 3.83104 0
M  V30 17 H 1.672 6.56266 2.65933 0
M  V30 18 H 2.08 4.83886 2.90714 0
M  V30 19 N 1.4781 -0.272755 1.55222 0
M  V30 20 C 2.8891 -0.84378 1.66545 0
M  V30 21 C 3.2401 -1.87035 0.592641 0
M  V30 22 O 2.3651 -2.14761 -0.265818 0
M  V30 23 C 2.9601 -1.53723 3.01918 0
M  V30 24 C 1.5191 -2.05628 3.15268 0
M  V30 25 C 0.6661 -0.898424 2.62343 0
M  V30 26 H 3.6171 -0.0490998 1.58624 0
M  V30 27 H 3.6381 -2.40421 2.94921 0
M  V30 28 H 3.1501 -0.78983 3.79978 0
M  V30 29 H 1.2511 -2.83329 2.41983 0
M  V30 30 H 1.3641 -2.27142 4.21833 0
M  V30 31 H -0.2719 -1.29186 2.19506 0
M  V30 32 H 0.5111 -0.164528 3.42906 0
M  V30 33 N 2.9562 -1.48159 -0.537278 0
M  V30 34 C 3.8892 -1.567 -1.65893 0
M  V30 35 C 4.8672 -0.41787 -1.57139 0
M  V30 36 O 6.0512 -0.628461 -1.77715 0
M  V30 37 C 3.1782 -1.48818 -3.04255 0
M  V30 38 C 2.2242 -2.68482 -3.31391 0
M  V30 39 S 3.0572 -4.30516 -3.1846 0
M  V30 40 C 4.2132 -4.2522 -4.59281 0
M  V30 41 H 4.4462 -2.5159 -1.58397 0
M  V30 42 H 1.9792 -1.36602 -0.719672 0
M  V30 43 H 3.9372 -1.44958 -3.84054 0
M  V30 44 H 2.5982 -0.552777 -3.09198 0
M  V30 45 H 1.7912 -2.59085 -4.32309 0
M  V30 46 H 1.3932 -2.69567 -2.59248 0
M  V30 47 H 3.6852 -3.94703 -5.5065 0
M  V30 48 H 4.6282 -5.26292 -4.73732 0
M  V30 49 H 5.0362 -3.55791 -4.38261 0
M  V30 50 N 4.4343 0.785586 -1.36625 0
M  V30 51 C 5.3643 1.91259 -1.33949 0
M  V30 52 C 6.3453 1.68795 -0.210325 0
M  V30 53 O 7.5303 1.89854 -0.408561 0
M  V30 54 C 4.6603 3.28339 -1.13186 0
M  V30 55 C 3.6143 3.65335 -2.22967 0
M  V30 56 C 2.9403 5.00806 -1.87342 0
M  V30 57 C 4.2403 3.7352 -3.65075 0
M  V30 58 H 5.9343 1.93755 -2.28253 0
M  V30 59 H 3.4803 0.930788 -1.09874 0
M  V30 60 H 5.4333 4.06804 -1.09948 0
M  V30 61 H 4.1573 3.2624 -0.153332 0
M  V30 62 H 2.8163 2.89169 -2.25337 0
M  V30 63 H 2.4643 4.95233 -0.880545 0
M  V30 64 H 2.1643 5.26529 -2.60846 0
M  V30 65 H 3.6883 5.81687 -1.85667 0
M  V30 66 H 5.1023 4.42168 -3.64911 0
M  V30 67 H 3.4993 4.10731 -4.37516 0
M  V30 68 H 4.5693 2.74527 -3.99703 0
M  V30 69 N 5.9124 1.20967 1.01018 0
M  V30 70 C 6.8424 0.988272 2.11555 0
M  V30 71 C 7.8234 -0.0849778 1.69888 0
M  V30 72 O 9.0084 0.0738202 1.9406 0
M  V30 73 C 6.1384 0.546528 3.42973 0
M  V30 74 C 5.0924 1.56375 3.9841 0
M  V30 75 C 4.4184 0.97842 5.25672 0
M  V30 76 C 5.7184 2.94922 4.31066 0
M  V30 77 H 7.4124 1.91276 2.30334 0
M  V30 78 H 4.9584 0.921073 1.1069 0
M  V30 79 H 6.9114 0.378839 4.19694 0
M  V30 80 H 5.6354 -0.413598 3.23971 0
M  V30 81 H 4.2944 1.71891 3.23804 0
M  V30 82 H 3.9424 0.0101688 5.02999 0
M  V30 83 H 3.6424 1.65784 5.63728 0
M  V30 84 H 5.1664 0.821939 6.05043 0
M  V30 85 H 6.5804 2.8288 4.9865 0
M  V30 86 H 4.9774 3.5983 4.80253 0
M  V30 87 H 6.0474 3.4616 3.39561 0
M  V30 88 N 7.3905 -1.2043 1.01659 0
M  V30 89 C 8.8015 -1.71517 0.737482 0
M  V30 90 C 9.1525 -1.81547 -0.743973 0
M  V30 91 O 8.2775 -1.47803 -1.58061 0
M  V30 92 C 8.8725 -3.11515 1.33206 0
M  V30 93 C 7.4315 -3.59912 1.10183 0
M  V30 94 C 6.5785 -2.37116 1.43776 0
M  V30 95 H 9.5295 -1.05444 1.18606 0
M  V30 96 H 9.5505 -3.73575 0.722636 0
M  V30 97 H 9.0625 -3.04182 2.41028 0
M  V30 98 H 7.1635 -3.72577 0.0412756 0
M  V30 99 H 7.2765 -4.44731 1.78188 0
M  V30 100 H 5.6405 -2.39857 0.856778 0
M  V30 101 H 6.4235 -2.32424 2.52654 0
M  V30 102 N 8.8686 -0.792821 -1.36206 0
M  V30 103 C 9.8186 -0.166598 -2.27391 0
M  V30 104 C 10.8026 0.651479 -1.47121 0
M  V30 105 O 11.9946 0.510994 -1.69463 0
M  V30 106 C 9.1236 0.695033 -3.36191 0
M  V30 107 C 8.2096 -0.132019 -4.23894 0
M  V30 108 N 8.6006 -1.18822 -4.91645 0
M  V30 109 C 6.8986 0.0885952 -4.45912 0
M  V30 110 C 7.5996 -1.69198 -5.56549 0
M  V30 111 N 6.5756 -1.00065 -5.34311 0
M  V30 112 H 10.3776 -0.974947 -2.77258 0
M  V30 113 H 7.8916 -0.632616 -1.49572 0
M  V30 114 H 9.8886 1.1596 -4.00448 0
M  V30 115 H 8.5486 1.50189 -2.87877 0
M  V30 116 H 9.5596 -1.57069 -4.93507 0
M  V30 117 H 6.2366 0.865688 -4.08426 0
M  V30 118 H 7.6266 -2.57395 -6.20643 0
M  V30 119 N 10.3467 1.47872 -0.545128 0
M  V30 120 C 11.7577 1.86384 -0.108581 0
M  V30 121 C 12.1087 1.45309 1.31832 0
M  V30 122 O 11.2337 0.850641 1.9898 0
M  V30 123 C 11.8287 3.38265 -0.190274 0
M  V30 124 C 10.3877 3.75914 0.191164 0
M  V30 125 C 9.5347 2.71926 -0.543273 0
M  V30 126 H 12.4857 1.39561 -0.755537 0
M  V30 127 H 12.5067 3.75831 0.594217 0
M  V30 128 H 12.0187 3.6813 -1.2289 0
M  V30 129 H 10.1197 3.51665 1.23136 0
M  V30 130 H 10.2327 4.78836 -0.158987 0
M  V30 131 H 8.5967 2.54697 0.0122495 0
M  V30 132 H 9.3797 3.04634 -1.58282 0
M  V30 133 N 11.8248 0.280983 1.55075 0
M  V30 134 C 12.7748 -0.618585 2.19448 0
M  V30 135 C 13.7588 -1.11401 1.16098 0
M  V30 136 O 14.9508 -1.0581 1.41891 0
M  V30 137 C 12.0798 -1.79951 2.92357 0
M  V30 138 C 11.1658 -1.321 4.03002 0
M  V30 139 N 11.5568 -0.559044 5.02701 0
M  V30 140 C 9.8548 -1.60346 4.16179 0
M  V30 141 C 10.5558 -0.306722 5.80891 0
M  V30 142 N 9.5318 -0.880825 5.36416 0
M  V30 143 H 13.3338 -0.0286638 2.93886 0
M  V30 144 H 10.8478 0.0848104 1.62178 0
M  V30 145 H 12.8448 -2.45531 3.36927 0
M  V30 146 H 11.5048 -2.39333 2.19431 0
M  V30 147 H 12.5158 -0.205827 5.17491 0
M  V30 148 H 9.1928 -2.20621 3.54447 0
M  V30 149 H 10.5828 0.30391 6.71212 0
M  V30 150 N 13.3029 -1.57598 0.00835791 0
M  V30 151 C 14.2349 -2.05811 -1.00868 0
M  V30 152 C 15.2479 -0.977579 -1.30182 0
M  V30 153 O 16.4369 -1.25421 -1.27011 0
M  V30 154 C 13.5369 -2.45016 -2.34137 0
M  V30 155 C 12.7099 -3.75903 -2.23643 0
M  V30 156 C 11.7689 -4.01884 -3.3967 0
M  V30 157 O 10.7949 -4.72433 -3.17483 0
M  V30 158 N 11.9969 -3.50432 -4.62793 0
M  V30 159 H 14.7619 -2.93684 -0.597458 0
M  V30 160 H 12.3229 -1.60909 -0.178852 0
M  V30 161 H 14.3149 -2.59506 -3.10546 0
M  V30 162 H 12.8849 -1.62618 -2.66972 0
M  V30 163 H 12.1049 -3.7141 -1.32091 0
M  V30 164 H 13.3929 -4.61695 -2.13812 0
M  V30 165 H 12.7909 -2.93317 -4.83716 0
M  V30 166 H 11.3479 -3.70236 -5.3644 0
M  V30 167 N 14.781 0.264519 -1.55364 0
M  V30 168 C 15.731 1.32966 -1.85214 0
M  V30 169 C 16.715 1.44306 -0.711653 0
M  V30 170 O 17.907 1.47844 -0.973192 0
M  V30 171 C 15.036 2.68839 -2.13495 0
M  V30 172 C 14.122 2.61575 -3.33825 0
M  V30 173 N 14.513 2.23933 -4.53528 0
M  V30 174 C 12.811 2.92621 -3.36584 0
M  V30 175 C 13.512 2.26868 -5.35636 0
M  V30 176 N 12.488 2.65677 -4.74254 0
M  V30 177 H 16.29 1.02884 -2.75304 0
M  V30 178 H 13.804 0.473157 -1.55354 0
M  V30 179 H 15.801 3.45685 -2.33039 0
M  V30 180 H 14.461 2.99802 -1.24694 0
M  V30 181 H 15.472 1.95769 -4.79474 0
M  V30 182 H 12.149 3.2824 -2.58002 0
M  V30 183 H 13.539 2.00254 -6.41364 0
M  V30 184 N 16.2591 1.48442 0.529413 0
M  V30 185 C 17.5061 1.56488 1.28521 0
M  V30 186 C 17.8341 0.239042 1.93025 0
M  V30 187 O 17.0891 -0.770713 1.79885 0
M  V30 188 C 17.3881 2.6523 2.39558 0
M  V30 189 C 17.0541 4.07648 1.92702 0
M  V30 190 C 15.7161 4.46411 1.79641 0
M  V30 191 C 18.0681 4.96896 1.573 0
M  V30 192 C 15.3961 5.72226 1.29514 0
M  V30 193 C 17.7481 6.23202 1.08636 0
M  V30 194 C 16.4121 6.60821 0.941919 0
M  V30 195 H 15.6821 0.572631 0.470292 0
M  V30 196 H 18.3291 1.82161 0.59072 0
M  V30 197 H 16.6341 2.33419 3.14679 0
M  V30 198 H 18.3311 2.68671 2.97686 0
M  V30 199 H 14.9211 3.77036 2.03819 0
M  V30 200 H 19.1051 4.67626 1.66251 0
M  V30 201 H 14.3611 6.00097 1.17019 0
M  V30 202 H 18.5351 6.91753 0.803136 0
M  V30 203 H 16.1621 7.58198 0.5513 0
M  V30 204 N 17.7372 -0.778329 1.37039 0
M  V30 205 C 18.6672 -1.90546 1.34962 0
M  V30 206 C 19.6482 -1.68681 0.219274 0
M  V30 207 O 20.8332 -1.89634 0.418624 0
M  V30 208 C 17.9632 -3.27734 1.14925 0
M  V30 209 C 16.9172 -3.64147 2.24902 0
M  V30 210 C 16.2432 -4.99806 1.89996 0
M  V30 211 C 17.5432 -3.71579 3.67051 0
M  V30 212 H 19.2372 -1.92541 2.29277 0
M  V30 213 H 16.7832 -0.924948 1.10366 0
M  V30 214 H 18.7362 -4.06215 1.12104 0
M  V30 215 H 17.4602 -3.26154 0.170631 0
M  V30 216 H 16.1192 -2.8797 2.26868 0
M  V30 217 H 15.7672 -4.94759 0.906796 0
M  V30 218 H 15.4672 -5.25139 2.63634 0
M  V30 219 H 16.9912 -5.80694 1.88749 0
M  V30 220 H 18.4052 -4.40227 3.67251 0
M  V30 221 H 16.8022 -4.08405 4.39688 0
M  V30 222 H 17.8722 -2.72404 4.01154 0
M  V30 223 N 19.2153 -1.21501 -1.00376 0
M  V30 224 C 20.1623 -0.975387 -2.09177 0
M  V30 225 C 21.1323 0.0990615 -1.65804 0
M  V30 226 O 22.3173 -0.0483147 -1.90739 0
M  V30 227 C 19.4573 -0.547507 -3.40729 0
M  V30 228 C 18.5703 -1.69153 -3.97506 0
M  V30 229 C 17.7053 -1.2127 -5.17172 0
M  V30 230 C 16.7443 -2.32897 -5.66061 0
M  V30 231 N 15.8813 -1.86138 -6.76976 0
M  V30 232 H 20.7213 -1.9068 -2.29009 0
M  V30 233 H 18.2583 -0.950257 -1.12288 0
M  V30 234 H 20.2163 -0.280667 -4.16255 0
M  V30 235 H 18.8463 0.346904 -3.20931 0
M  V30 236 H 17.8983 -2.07298 -3.18954 0
M  V30 237 H 19.2103 -2.5316 -4.29781 0
M  V30 238 H 18.3643 -0.902591 -5.99948 0
M  V30 239 H 17.1033 -0.342692 -4.86495 0
M  V30 240 H 16.1083 -2.64709 -4.81881 0
M  V30 241 H 17.3333 -3.20396 -5.98768 0
M  V30 242 H 15.2793 -1.01484 -6.48103 0
M  V30 243 H 15.1963 -2.63717 -7.08512 0
M  V30 244 H 16.4643 -1.58165 -7.63285 0
M  V30 245 N 20.6934 1.19889 -1.02296 0
M  V30 246 C 21.9414 1.89046 -0.714558 0
M  V30 247 C 22.2624 1.79636 0.758681 0
M  V30 248 O 21.5324 1.20292 1.54618 0
M  V30 249 H 20.1124 0.699802 -0.261317 0
M  V30 250 H 22.7744 1.45574 -1.29592 0
M  V30 251 H 21.8704 2.95524 -1.0036 0
M  V30 252 N 22.1715 0.800033 1.35784 0
M  V30 253 C 23.1015 0.220184 2.3246 0
M  V30 254 C 24.0825 -0.65073 1.57161 0
M  V30 255 O 25.2675 -0.582359 1.85263 0
M  V30 256 C 22.3975 -0.637353 3.41402 0
M  V30 257 C 21.3515 0.134531 4.27789 0
M  V30 258 C 20.6775 -0.844285 5.27992 0
M  V30 259 C 21.9775 1.32979 5.05088 0
M  V30 260 H 23.6715 1.02787 2.81203 0
M  V30 261 H 21.2175 0.495717 1.35199 0
M  V30 262 H 23.1705 -1.05302 4.08031 0
M  V30 263 H 21.8945 -1.47785 2.91251 0
M  V30 264 H 20.5535 0.531296 3.6273 0
M  V30 265 H 20.2015 -1.68011 4.74111 0
M  V30 266 H 19.9015 -0.332184 5.8666 0
M  V30 267 H 21.4255 -1.2583 5.97494 0
M  V30 268 H 22.8395 0.98934 5.64699 0
M  V30 269 H 21.2365 1.77593 5.7322 0
M  V30 270 H 22.3065 2.11978 4.36111 0
M  V30 271 N 23.6496 -1.47581 0.552962 0
M  V30 272 C 24.5796 -2.32762 -0.185451 0
M  V30 273 C 25.5606 -1.43527 -0.912905 0
M  V30 274 O 26.7456 -1.72388 -0.894201 0
M  V30 275 C 23.8756 -3.25219 -1.21859 0
M  V30 276 C 22.8296 -4.23661 -0.607864 0
M  V30 277 C 22.1556 -5.05413 -1.74533 0
M  V30 278 C 23.4556 -5.20481 0.435582 0
M  V30 279 H 25.1496 -2.94749 0.525684 0
M  V30 280 H 22.6956 -1.41738 0.254251 0
M  V30 281 H 24.6486 -3.8365 -1.7433 0
M  V30 282 H 23.3726 -2.61279 -1.95961 0
M  V30 283 H 22.0316 -3.66451 -0.104489 0
M  V30 284 H 21.6796 -4.3788 -2.47529 0
M  V30 285 H 21.3796 -5.72059 -1.34249 0
M  V30 286 H 22.9036 -5.66701 -2.27338 0
M  V30 287 H 24.3176 -5.733 -0.00290157 0
M  V30 288 H 22.7146 -5.95305 0.757067 0
M  V30 289 H 23.7846 -4.66217 1.33303 0
M  V30 290 N 25.1277 -0.289203 -1.54924 0
M  V30 291 C 26.5437 0.0645403 -1.59469 0
M  V30 292 C 26.7437 1.53419 -1.30632 0
M  V30 293 O 25.7997 2.2852 -1.074 0
M  V30 294 C 27.1127 -0.32278 -2.98963 0
M  V30 295 C 28.6607 -0.270564 -3.11828 0
M  V30 296 C 29.1357 -0.632532 -4.53611 0
M  V30 297 N 30.6267 -0.584617 -4.59496 0
M  V30 298 C 31.3617 -0.837314 -5.67254 0
M  V30 299 N 30.8577 -1.15536 -6.83098 0
M  V30 300 N 32.6507 -0.765166 -5.56868 0
M  V30 301 H 24.8017 -1.24714 -1.71931 0
M  V30 302 H 27.0647 -0.504809 -0.802416 0
M  V30 303 H 26.7707 -1.34541 -3.24948 0
M  V30 304 H 26.6447 0.32944 -3.75759 0
M  V30 305 H 29.0317 0.742805 -2.85598 0
M  V30 306 H 29.1127 -0.957242 -2.37214 0
M  V30 307 H 28.7567 -1.64365 -4.80569 0
M  V30 308 H 28.6867 0.07609 -5.26545 0
M  V30 309 H 31.1777 -0.349248 -3.76283 0
M  V30 310 H 31.4907 -1.33447 -7.61191 0
M  V30 311 H 29.8357 -1.19328 -6.84679 0
M  V30 312 H 33.0267 -0.516432 -4.65243 0
M  V30 313 H 33.1997 -0.965477 -6.40767 0
M  V30 314 N 26.6058 1.57591 -0.0167156 0
M  V30 315 C 27.5688 2.08393 0.954204 0
M  V30 316 C 28.5688 0.996531 1.26198 0
M  V30 317 O 29.7588 1.25858 1.20438 0
M  V30 318 C 26.8908 2.5394 2.27436 0
M  V30 319 H 28.0838 2.95455 0.514451 0
M  V30 320 H 25.6368 1.54582 0.231089 0
M  V30 321 H 26.3718 1.70171 2.76066 0
M  V30 322 H 26.1568 3.33371 2.06412 0
M  V30 323 H 27.6468 2.93512 2.97053 0
M  V30 324 N 28.0839 -0.256276 1.55502 0
M  V30 325 C 29.4949 -0.826068 1.67431 0
M  V30 326 C 29.8459 -1.86396 0.612446 0
M  V30 327 O 28.9709 -2.15031 -0.243025 0
M  V30 328 C 29.5659 -1.50512 3.03532 0
M  V30 329 C 28.1249 -2.02273 3.17431 0
M  V30 330 C 27.2719 -0.870548 2.63281 0
M  V30 331 H 30.2229 -0.0322728 1.58667 0
M  V30 332 H 30.2439 -2.37279 2.97454 0
M  V30 333 H 29.7559 -0.749484 3.80794 0
M  V30 334 H 27.8569 -2.80746 2.44974 0
M  V30 335 H 27.9699 -2.22655 4.24219 0
M  V30 336 H 26.3339 -1.26851 2.20864 0
M  V30 337 H 27.1169 -0.128149 3.43061 0
M  V30 338 N 29.562 -1.4872 -0.521534 0
M  V30 339 C 30.809 -1.57168 -1.27689 0
M  V30 340 C 31.137 -0.249275 -1.92896 0
M  V30 341 O 30.392 0.761162 -1.80291 0
M  V30 342 C 30.691 -2.66497 -2.38148 0
M  V30 343 C 30.357 -4.08664 -1.90538 0
M  V30 344 C 29.019 -4.47357 -1.77271 0
M  V30 345 C 31.371 -4.97724 -1.54663 0
M  V30 346 C 28.699 -5.72905 -1.26478 0
M  V30 347 C 31.051 -6.2377 -1.05329 0
M  V30 348 C 29.715 -6.61311 -0.906861 0
M  V30 349 H 28.985 -0.575117 -0.467249 0
M  V30 350 H 31.632 -1.82472 -0.581051 0
M  V30 351 H 29.937 -2.35085 -3.13437 0
M  V30 352 H 31.634 -2.70246 -2.96257 0
M  V30 353 H 28.224 -3.78111 -2.01816 0
M  V30 354 H 32.408 -4.68501 -1.63768 0
M  V30 355 H 27.664 -6.00709 -1.13835 0
M  V30 356 H 31.838 -6.9217 -0.76644 0
M  V30 357 H 29.465 -7.5848 -0.511083 0
M  V30 358 N 31.0401 0.771051 -1.3745 0
M  V30 359 C 32.4561 1.07171 -1.18265 0
M  V30 360 C 32.6561 2.01491 -0.019287 0
M  V30 361 O 31.7121 2.44244 0.640408 0
M  V30 362 C 33.0251 1.66854 -2.50161 0
M  V30 363 C 34.5731 1.79109 -2.56689 0
M  V30 364 C 35.0481 2.42205 -3.88717 0
M  V30 365 N 36.5391 2.49655 -3.90162 0
M  V30 366 C 37.2741 2.9933 -4.8907 0
M  V30 367 N 36.7701 3.49172 -5.98374 0
M  V30 368 N 38.5631 2.9821 -4.76474 0
M  V30 369 H 30.7141 0.144796 -2.11906 0
M  V30 370 H 32.9771 0.126863 -0.939473 0
M  V30 371 H 32.6831 1.05017 -3.35655 0
M  V30 372 H 32.5571 2.6614 -2.673 0
M  V30 373 H 34.9441 2.40077 -1.71601 0
M  V30 374 H 35.0251 0.785757 -2.43433 0
M  V30 375 H 34.6691 1.81875 -4.74219 0
M  V30 376 H 34.5991 3.43345 -3.99276 0
M  V30 377 H 37.0901 2.14383 -3.11205 0
M  V30 378 H 37.4031 3.8548 -6.69795 0
M  V30 379 H 35.7481 3.47275 -6.02018 0
M  V30 380 H 38.9391 2.58572 -3.90203 0
M  V30 381 H 39.1121 3.36613 -5.53711 0
M  V30 382 N 32.5182 1.22032 0.997298 0
M  V30 383 C 33.7582 1.05375 1.75144 0
M  V30 384 C 34.1222 -0.404696 1.87686 0
M  V30 385 O 35.3232 -0.691998 2.5974 0
M  V30 386 C 33.5942 1.74046 3.12158 0
M  V30 387 S 35.1532 1.72745 4.03366 0
M  V30 388 H 31.9712 0.377449 0.602539 0
M  V30 389 H 34.5732 1.54902 1.19272 0
M  V30 390 H 33.2772 2.79332 3.00669 0
M  V30 391 H 32.8082 1.24731 3.73103 0
M  V30 392 H 34.8232 0.774015 4.90126 0
M  V30 393 N 33.9963 -1.19345 1.0293 0
M  V30 394 C 35.2263 -1.92717 0.744563 0
M  V30 395 C 35.6343 -1.75751 -0.700579 0
M  V30 396 O 34.9773 -1.07703 -1.48815 0
M  V30 397 C 35.0393 -3.44828 1.01657 0
M  V30 398 C 34.7033 -3.85564 2.45335 0
M  V30 399 C 35.7003 -3.90286 3.43472 0
M  V30 400 C 33.3853 -4.1719 2.79746 0
M  V30 401 C 35.3793 -4.26065 4.74075 0
M  V30 402 C 33.0663 -4.52642 4.10559 0
M  V30 403 C 34.0643 -4.57054 5.07534 0
M  V30 404 O 33.7523 -4.91685 6.36004 0
M  V30 405 H 33.4843 -0.618977 0.271742 0
M  V30 406 H 36.0383 -1.52415 1.37691 0
M  V30 407 H 34.2683 -3.85314 0.327084 0
M  V30 408 H 35.9573 -3.99437 0.721427 0
M  V30 409 H 36.7233 -3.66002 3.18225 0
M  V30 410 H 32.6023 -4.1294 2.04943 0
M  V30 411 H 36.1463 -4.29423 5.49765 0
M  V30 412 H 32.0433 -4.76383 4.35579 0
M  V30 413 H 32.8113 -5.09631 6.40483 0
M  V30 414 N 35.4744 -0.807222 -1.35358 0
M  V30 415 C 36.4244 -0.190706 -2.27201 0
M  V30 416 C 37.4084 0.635838 -1.47804 0
M  V30 417 O 38.6004 0.492991 -1.69996 0
M  V30 418 C 35.7294 0.659337 -3.36909 0
M  V30 419 C 34.8154 -0.176971 -4.23731 0
M  V30 420 N 35.2064 -1.24029 -4.90357 0
M  V30 421 C 33.5044 0.0412953 -4.45981 0
M  V30 422 C 34.2054 -1.75092 -5.54723 0
M  V30 423 N 33.1814 -1.05727 -5.33219 0
M  V30 424 H 36.9834 -1.0043 -2.76208 0
M  V30 425 H 34.4974 -0.648445 -1.48892 0
M  V30 426 H 36.4944 1.11706 -4.01656 0
M  V30 427 H 35.1544 1.47127 -2.89454 0
M  V30 428 H 36.1654 -1.62295 -4.91814 0
M  V30 429 H 32.8424 0.82232 -4.09322 0
M  V30 430 H 34.2324 -2.63963 -6.17878 0
M  V30 431 N 36.9525 1.47285 -0.560781 0
M  V30 432 C 38.1995 2.02464 -0.038062 0
M  V30 433 C 38.5275 1.43474 1.31322 0
M  V30 434 O 37.7825 0.581311 1.86867 0
M  V30 435 C 38.0815 3.57258 0.100784 0
M  V30 436 C 37.7475 4.35184 -1.18007 0
M  V30 437 C 36.4095 4.56194 -1.53103 0
M  V30 438 C 38.7615 4.80098 -2.02867 0
M  V30 439 C 36.0895 5.19367 -2.729 0
M  V30 440 C 38.4415 5.44593 -3.21871 0
M  V30 441 C 37.1055 5.63835 -3.57276 0
M  V30 442 H 36.3755 0.740869 -0.0139279 0
M  V30 443 H 39.0225 1.76916 -0.733012 0
M  V30 444 H 37.3275 3.81819 0.878724 0
M  V30 445 H 39.0245 3.97606 0.520639 0
M  V30 446 H 35.6145 4.19113 -0.8968 0
M  V30 447 H 39.7985 4.63642 -1.7706 0
M  V30 448 H 35.0545 5.32459 -3.00496 0
M  V30 449 H 39.2285 5.78358 -3.87911 0
M  V30 450 H 36.8555 6.12557 -4.50197 0
M  V30 451 N 38.4306 0.297415 1.54768 0
M  V30 452 C 39.6796 -0.313669 1.99246 0
M  V30 453 C 39.9926 -1.55281 1.18942 0
M  V30 454 O 41.1986 -2.23825 1.5367 0
M  V30 455 C 39.6546 -0.609407 3.54703 0
M  V30 456 C 39.2626 0.611192 4.43811 0
M  V30 457 C 41.0066 -1.18188 4.07715 0
M  V30 458 C 38.9136 0.288805 5.90694 0
M  V30 459 H 37.8436 -0.120979 0.744231 0
M  V30 460 H 40.4946 0.40556 1.78962 0
M  V30 461 H 38.8766 -1.38813 3.70873 0
M  V30 462 H 40.0506 1.3875 4.39414 0
M  V30 463 H 38.3656 1.10205 4.01552 0
M  V30 464 H 40.9626 -1.43727 5.15021 0
M  V30 465 H 41.3056 -2.12299 3.58099 0
M  V30 466 H 41.8386 -0.464944 3.95074 0
M  V30 467 H 38.5776 1.19838 6.44453 0
M  V30 468 H 38.0976 -0.450305 5.98107 0
M  V30 469 H 39.7766 -0.110933 6.46905 0
M  V30 470 N 39.9087 -1.5758 0.0250728 0
M  V30 471 C 41.1557 -1.91633 -0.654444 0
M  V30 472 C 41.4837 -0.901103 -1.72367 0
M  V30 473 O 40.7387 0.0905647 -1.9549 0
M  V30 474 C 41.0377 -3.32421 -1.31268 0
M  V30 475 C 40.7037 -4.49344 -0.374223 0
M  V30 476 C 39.3657 -4.8106 -0.115911 0
M  V30 477 C 41.7177 -5.20498 0.270432 0
M  V30 478 C 39.0457 -5.8129 0.79493 0
M  V30 479 C 41.3977 -6.21699 1.1693 0
M  V30 480 C 40.0617 -6.51859 1.43655 0
M  V30 481 H 39.3317 -0.701236 -0.239478 0
M  V30 482 H 41.9787 -1.91307 0.0859734 0
M  V30 483 H 40.2837 -3.28989 -2.12775 0
M  V30 484 H 41.9807 -3.56038 -1.84494 0
M  V30 485 H 38.5707 -4.24579 -0.58573 0
M  V30 486 H 42.7547 -4.96229 0.0839194 0
M  V30 487 H 38.0107 -6.03005 1.00973 0
M  V30 488 H 42.1847 -6.75955 1.67504 0
M  V30 489 H 39.8117 -7.2934 2.144 0
M  V30 490 N 41.3868 0.248026 -1.55636 0
M  V30 491 C 42.3368 1.30994 -1.86614 0
M  V30 492 C 43.3208 1.43543 -0.726918 0
M  V30 493 O 44.5128 1.46804 -0.988818 0
M  V30 494 C 41.6418 2.6656 -2.16335 0
M  V30 495 C 40.7278 2.58019 -3.36581 0
M  V30 496 N 41.1188 2.1911 -4.55878 0
M  V30 497 C 39.4168 2.89035 -3.39669 0
M  V30 498 C 40.1178 2.21174 -5.38012 0
M  V30 499 N 39.0938 2.60632 -4.77045 0
M  V30 500 H 42.8958 0.999583 -2.76379 0
M  V30 501 H 40.4098 0.456652 -1.55848 0
M  V30 502 H 42.4068 3.43194 -2.36692 0
M  V30 503 H 41.0668 2.98463 -1.27867 0
M  V30 504 H 42.0778 1.90672 -4.81523 0
M  V30 505 H 38.7548 3.25485 -2.61469 0
M  V30 506 H 40.1448 1.9344 -6.43452 0
M  V30 507 N 42.8649 1.48995 0.513639 0
M  V30 508 C 44.0899 1.61792 1.29762 0
M  V30 509 C 44.5149 0.284475 1.85936 0
M  V30 510 O 43.8729 -0.746185 1.65232 0
M  V30 511 C 43.9209 2.67993 2.41272 0
M  V30 512 O 43.0249 2.26287 3.44772 0
M  V30 513 H 42.3659 0.541963 0.38363 0
M  V30 514 H 44.8959 1.95097 0.616307 0
M  V30 515 H 44.9059 2.89772 2.87221 0
M  V30 516 H 43.5809 3.64791 1.9975 0
M  V30 517 H 42.1579 2.14788 3.04829 0
M  V30 518 N 44.343 -0.763751 1.37857 0
M  V30 519 C 45.568 -1.55805 1.36893 0
M  V30 520 C 45.993 -1.88054 -0.0416135 0
M  V30 521 O 45.351 -1.49825 -1.02089 0
M  V30 522 C 45.399 -2.84012 2.22192 0
M  V30 523 O 44.503 -3.78732 1.63204 0
M  V30 524 H 43.844 -0.471638 0.46739 0
M  V30 525 H 46.374 -0.944657 1.81487 0
M  V30 526 H 46.384 -3.33037 2.35691 0
M  V30 527 H 45.059 -2.59869 3.24716 0
M  V30 528 H 43.636 -3.37402 1.58791 0
M  V30 529 N 45.8211 -1.22559 -0.990812 0
M  V30 530 C 47.0491 -1.07779 -1.76611 0
M  V30 531 C 47.4641 0.371513 -1.85109 0
M  V30 532 O 46.8211 1.25737 -1.32274 0
M  V30 533 C 46.8721 -1.68512 -3.19822 0
M  V30 534 O 46.5931 -3.07774 -3.1178 0
M  V30 535 C 48.0941 -1.59035 -4.13791 0
M  V30 536 H 45.3141 -0.377729 -0.554583 0
M  V30 537 H 47.8581 -1.62195 -1.24551 0
M  V30 538 H 46.0131 -1.18154 -3.68942 0
M  V30 539 H 46.4271 -3.37062 -4.01858 0
M  V30 540 H 47.9011 -2.0625 -5.1202 0
M  V30 541 H 48.3781 -0.547273 -4.35777 0
M  V30 542 H 48.9841 -2.08709 -3.70568 0
M  V30 543 N 47.2992 1.18797 -1.03562 0
M  V30 544 C 48.2492 2.20161 -0.592724 0
M  V30 545 C 49.2332 1.56772 0.362133 0
M  V30 546 O 50.4252 1.76062 0.182009 0
M  V30 547 C 47.5542 3.43266 0.0481024 0
M  V30 548 C 46.6402 4.13786 -0.9296 0
M  V30 549 N 47.0312 4.60388 -2.09467 0
M  V30 550 C 45.3292 4.39572 -0.754499 0
M  V30 551 C 46.0302 5.14619 -2.71187 0
M  V30 552 N 45.0062 5.05826 -1.991 0
M  V30 553 H 48.8082 2.53877 -1.48066 0
M  V30 554 H 46.3222 1.34946 -0.903514 0
M  V30 555 H 48.3192 4.15136 0.383058 0
M  V30 556 H 46.9792 3.11048 0.931636 0
M  V30 557 H 47.9902 4.54999 -2.47379 0
M  V30 558 H 44.6672 4.17425 0.0793713 0
M  V30 559 H 46.0572 5.60917 -3.69895 0
M  V30 560 N 48.7773 0.814389 1.34928 0
M  V30 561 C 49.7073 0.244827 2.32213 0
M  V30 562 C 50.6883 -0.634024 1.57842 0
M  V30 563 O 51.8733 -0.562676 1.8587 0
M  V30 564 C 49.0033 -0.601106 3.42058 0
M  V30 565 C 47.9573 0.179896 4.27622 0
M  V30 566 C 47.2833 -0.788237 5.28858 0
M  V30 567 C 48.5833 1.38329 5.03649 0
M  V30 568 H 50.2773 1.05763 2.80097 0
M  V30 569 H 47.8233 0.510029 1.34665 0
M  V30 570 H 49.7763 -1.00968 4.09125 0
M  V30 571 H 48.5003 -1.44688 2.92802 0
M  V30 572 H 47.1593 0.569739 3.62146 0
M  V30 573 H 46.8073 -1.62973 4.75866 0
M  V30 574 H 46.5073 -0.269942 5.8698 0
M  V30 575 H 48.0313 -1.19485 5.98795 0
M  V30 576 H 49.4453 1.04918 5.63618 0
M  V30 577 H 47.8423 1.83662 5.71304 0
M  V30 578 H 48.9123 2.16592 4.33839 0
M  V30 579 N 50.2554 -1.46986 0.568584 0
M  V30 580 C 51.5034 -2.02041 0.0487022 0
M  V30 581 C 51.8244 -1.44408 -1.31039 0
M  V30 582 O 51.0944 -0.623477 -1.85714 0
M  V30 583 H 49.6744 -0.746849 0.015014 0
M  V30 584 H 52.3364 -1.80257 0.741168 0
M  V30 585 H 51.4324 -3.12085 -0.0308961 0
M  V30 586 N 51.7335 -0.305618 -1.54608 0
M  V30 587 C 52.9585 0.307562 -2.05107 0
M  V30 588 C 53.3835 1.46385 -1.18123 0
M  V30 589 O 52.7415 1.8034 -0.186324 0
M  V30 590 C 52.7895 0.73704 -3.52987 0
M  V30 591 O 51.8935 1.84134 -3.6901 0
M  V30 592 H 51.2345 0.0589143 -0.661381 0
M  V30 593 H 53.7645 -0.448807 -1.99617 0
M  V30 594 H 53.7745 1.02459 -3.94925 0
M  V30 595 H 52.4495 -0.108773 -4.15758 0
M  V30 596 H 51.0265 1.55398 -3.38978 0
M  V30 597 N 53.2116 1.57565 -0.0334293 0
M  V30 598 C 54.4596 1.91598 0.642999 0
M  V30 599 C 54.7806 0.910847 1.7242 0
M  V30 600 O 54.0506 -0.0469931 1.95844 0
M  V30 601 H 52.6306 0.707228 0.240496 0
M  V30 602 H 55.2926 1.94726 -0.0822488 0
M  V30 603 H 54.3886 2.92336 1.09298 0
M  V30 604 N 54.6897 -0.239769 1.55765 0
M  V30 605 C 55.9387 -0.964754 1.77131 0
M  V30 606 C 56.2517 -1.86213 0.59868 0
M  V30 607 O 57.4577 -2.6244 0.695522 0
M  V30 608 C 55.9137 -1.76552 3.1362 0
M  V30 609 C 55.5217 -0.915185 4.38553 0
M  V30 610 C 57.2657 -2.48281 3.44321 0
M  V30 611 C 55.1727 -1.71225 5.66071 0
M  V30 612 H 54.1027 -0.363953 0.660344 0
M  V30 613 H 56.7537 -0.219181 1.82186 0
M  V30 614 H 55.1357 -2.55331 3.02691 0
M  V30 615 H 56.3097 -0.169217 4.60489 0
M  V30 616 H 54.6247 -0.310889 4.15238 0
M  V30 617 H 57.2217 -3.08382 4.36812 0
M  V30 618 H 57.5647 -3.20256 2.65973 0
M  V30 619 H 58.0977 -1.76507 3.56497 0
M  V30 620 H 54.8367 -1.03612 6.4726 0
M  V30 621 H 54.3567 -2.43331 5.48224 0
M  V30 622 H 56.0357 -2.27758 6.05587 0
M  V30 623 N 56.1678 -1.49265 -0.50573 0
M  V30 624 C 57.5788 -1.51769 -1.08734 0
M  V30 625 C 57.9298 -0.301192 -1.93874 0
M  V30 626 O 57.0548 0.589456 -2.08217 0
M  V30 627 C 57.6498 -2.75017 -1.97867 0
M  V30 628 C 56.2088 -2.80314 -2.51199 0
M  V30 629 C 55.3558 -2.4562 -1.28709 0
M  V30 630 H 58.3068 -1.56031 -0.289855 0
M  V30 631 H 58.3278 -2.5491 -2.82491 0
M  V30 632 H 57.8398 -3.63539 -1.35873 0
M  V30 633 H 55.9408 -1.96061 -3.16845 0
M  V30 634 H 56.0538 -3.82366 -2.88675 0
M  V30 635 H 54.4178 -1.97297 -1.61078 0
M  V30 636 H 55.2008 -3.36411 -0.6843 0
M  V30 637 N 57.6459 0.756429 -1.3826 0
M  V30 638 C 58.8859 1.52833 -1.35725 0
M  V30 639 C 59.2499 1.91926 0.0534106 0
M  V30 640 O 60.4509 2.68028 0.203613 0
M  V30 641 C 58.7219 2.74919 -2.28373 0
M  V30 642 S 60.2809 3.64817 -2.43832 0
M  V30 643 H 57.0989 0.523043 -0.481608 0
M  V30 644 H 59.7009 0.888212 -1.74158 0
M  V30 645 H 58.4049 2.44304 -3.29763 0
M  V30 646 H 57.9359 3.43878 -1.91079 0
M  V30 647 H 59.9509 4.676 -1.66027 0
M  V30 648 N 59.124 1.23083 0.984299 0
M  V30 649 C 60.087 1.00979 2.05757 0
M  V30 650 C 61.087 -0.0269573 1.60777 0
M  V30 651 O 62.277 0.212403 1.729 0
M  V30 652 C 59.409 0.527072 3.36801 0
M  V30 653 H 60.602 1.9622 2.26799 0
M  V30 654 H 58.155 1.05072 1.15714 0
M  V30 655 H 58.89 -0.429294 3.21446 0
M  V30 656 H 58.675 1.27515 3.70786 0
M  V30 657 H 60.165 0.392942 4.15747 0
M  V30 658 N 60.6021 -1.18246 1.0419 0
M  V30 659 C 61.5341 -2.2142 0.592088 0
M  V30 660 C 62.5471 -1.59233 -0.338909 0
M  V30 661 O 63.7361 -1.78002 -0.133231 0
M  V30 662 C 60.8361 -3.38546 -0.154854 0
M  V30 663 C 60.0091 -4.3031 0.784328 0
M  V30 664 C 59.0681 -5.26138 0.0804583 0
M  V30 665 O 58.0941 -5.64738 0.711292 0
M  V30 666 N 59.2961 -5.68261 -1.18574 0
M  V30 667 H 62.0611 -2.60636 1.47949 0
M  V30 668 H 59.6221 -1.33044 0.922544 0
M  V30 669 H 61.6141 -3.99678 -0.635606 0
M  V30 670 H 60.1841 -2.98012 -0.943811 0
M  V30 671 H 59.4041 -3.66764 1.44491 0
M  V30 672 H 60.6921 -4.8852 1.42218 0
M  V30 673 H 60.0901 -5.38957 -1.71876 0
M  V30 674 H 58.6471 -6.31584 -1.61074 0
M  V30 675 N 62.0802 -0.821533 -1.34494 0
M  V30 676 C 63.4912 -0.467956 -1.8074 0
M  V30 677 C 63.8422 1.01151 -1.68116 0
M  V30 678 O 62.9672 1.78707 -1.22036 0
M  V30 679 C 63.5622 -0.842627 -3.28154 0
M  V30 680 C 62.1212 -0.541439 -3.72485 0
M  V30 681 C 61.2682 -1.06028 -2.56229 0
M  V30 682 H 64.2192 -1.01183 -1.22261 0
M  V30 683 H 64.2402 -0.145876 -3.8022 0
M  V30 684 H 63.7522 -1.91945 -3.37311 0
M  V30 685 H 61.8532 0.526034 -3.68868 0
M  V30 686 H 61.9662 -1.08453 -4.66663 0
M  V30 687 H 60.3302 -0.481892 -2.501 0
M  V30 688 H 61.1132 -2.14352 -2.68157 0
M  V30 689 N 63.5583 1.46682 -0.576371 0
M  V30 690 C 64.8053 2.02412 -0.0595339 0
M  V30 691 C 65.1333 1.44859 1.29793 0
M  V30 692 O 64.3883 0.601099 1.8624 0
M  V30 693 C 64.6873 3.57345 0.062886 0
M  V30 694 C 64.3533 4.33908 -1.22616 0
M  V30 695 C 63.0153 4.54544 -1.57933 0
M  V30 696 C 65.3673 4.77919 -2.07948 0
M  V30 697 C 62.6953 5.16444 -2.78393 0
M  V30 698 C 65.0473 5.41149 -3.27629 0
M  V30 699 C 63.7113 5.60014 -3.63236 0
M  V30 700 H 62.9813 0.74068 -0.021785 0
M  V30 701 H 65.6283 1.76128 -0.751735 0
M  V30 702 H 63.9333 3.82729 0.838178 0
M  V30 703 H 65.6303 3.98136 0.478439 0
M  V30 704 H 62.2203 4.18138 -0.941202 0
M  V30 705 H 66.4043 4.61738 -1.81967 0
M  V30 706 H 61.6603 5.29242 -3.06126 0
M  V30 707 H 65.8343 5.74211 -3.94023 0
M  V30 708 H 63.4613 6.07748 -4.56669 0
M  V30 709 N 65.0364 0.313813 1.54444 0
M  V30 710 C 65.9844 -0.572171 2.25453 0
M  V30 711 C 66.9784 -1.12657 1.2651 0
M  V30 712 O 68.1844 -1.07573 1.44319 0
M  V30 713 H 64.5594 -0.203146 0.724041 0
M  V30 714 H 66.5304 0.0491145 2.9836 0
M  V30 715 C 65.2794 -1.72626 3.0182 0
M  V30 716 H 64.6024 -1.30891 3.77767 0
M  V30 717 H 66.0424 -2.32199 3.54767 0
M  V30 718 C 64.5014 -2.63806 2.09542 0
M  V30 719 O 65.0314 -3.65256 1.67185 0
M  V30 720 N 63.2374 -2.31824 1.75232 0
M  V30 721 H 62.7844 -1.49368 2.09873 0
M  V30 722 H 62.7424 -2.93095 1.13767 0
M  V30 723 N 66.5145 -1.57545 0.0417849 0
M  V30 724 C 67.7395 -1.97035 -0.647455 0
M  V30 725 C 68.1645 -0.918775 -1.64135 0
M  V30 726 O 67.5225 0.119006 -1.80909 0
M  V30 727 C 67.5705 -3.35609 -1.31905 0
M  V30 728 O 66.6745 -3.3287 -2.43457 0
M  V30 729 H 66.0155 -0.64211 -0.169086 0
M  V30 730 H 68.5455 -2.04318 0.107399 0
M  V30 731 H 68.5555 -3.72126 -1.67291 0
M  V30 732 H 67.2305 -4.11685 -0.590586 0
M  V30 733 H 65.8075 -3.08087 -2.10088 0
M  V30 734 N 67.9926 0.231505 -1.5589 0
M  V30 735 C 68.9226 1.29022 -1.94617 0
M  V30 736 C 69.9036 1.4941 -0.813067 0
M  V30 737 O 71.0886 1.6176 -1.07459 0
M  V30 738 C 68.2186 2.64199 -2.25424 0
M  V30 739 C 67.1726 2.58484 -3.41131 0
M  V30 740 C 66.4986 3.97599 -3.57518 0
M  V30 741 C 67.7986 2.1413 -4.76388 0
M  V30 742 H 69.4926 0.968563 -2.83301 0
M  V30 743 H 67.0386 0.464479 -1.36303 0
M  V30 744 H 68.9916 3.38413 -2.51107 0
M  V30 745 H 67.7156 2.98032 -1.33583 0
M  V30 746 H 66.3746 1.86727 -3.15481 0
M  V30 747 H 66.0226 4.28723 -2.6307 0
M  V30 748 H 65.7226 3.94659 -4.35337 0
M  V30 749 H 67.2466 4.7349 -3.85538 0
M  V30 750 H 68.6606 2.78083 -5.01341 0
M  V30 751 H 67.0576 2.2227 -5.57419 0
M  V30 752 H 68.1276 1.09331 -4.72414 0
M  V30 753 N 69.4707 1.49531 0.497807 0
M  V30 754 C 70.7187 1.58865 1.24926 0
M  V30 755 C 71.0397 0.278721 1.92998 0
M  V30 756 O 70.3097 -0.702144 1.82885 0
M  V30 757 H 68.8897 0.585343 0.464094 0
M  V30 758 H 71.5517 1.86174 0.57666 0
M  V30 759 H 70.6477 2.38633 2.01149 0
M  V30 760 N 70.9488 -0.749086 1.3866 0
M  V30 761 C 71.8788 -1.8764 1.38973 0
M  V30 762 C 72.8598 -1.68178 0.255004 0
M  V30 763 O 74.0448 -1.88704 0.458754 0
M  V30 764 C 71.1748 -3.25222 1.21851 0
M  V30 765 C 70.1288 -3.59295 2.32575 0
M  V30 766 C 69.4548 -4.95663 2.00555 0
M  V30 767 C 70.7548 -3.63709 3.7485 0
M  V30 768 H 72.4488 -1.87635 2.3331 0
M  V30 769 H 69.9948 -0.901329 1.12303 0
M  V30 770 H 71.9478 -4.03746 1.20695 0
M  V30 771 H 70.6718 -3.25719 0.239775 0
M  V30 772 H 69.3308 -2.83093 2.32925 0
M  V30 773 H 68.9788 -4.92724 1.01154 0
M  V30 774 H 68.6788 -5.19429 2.74714 0
M  V30 775 H 70.2028 -5.7656 2.01024 0
M  V30 776 H 71.6168 -4.32338 3.76506 0
M  V30 777 H 70.0138 -3.98986 4.48252 0
M  V30 778 H 71.0838 -2.63834 4.06841 0
M  V30 779 N 72.4269 -1.23603 -0.977757 0
M  V30 780 C 73.3769 -0.986664 -2.05545 0
M  V30 781 C 74.3609 0.0683009 -1.60755 0
M  V30 782 O 75.5529 -0.144162 -1.76412 0
M  V30 783 C 72.6819 -0.582623 -3.3832 0
M  V30 784 C 71.7679 -1.67313 -3.89701 0
M  V30 785 N 72.1589 -2.90394 -4.14132 0
M  V30 786 C 70.4569 -1.54832 -4.18262 0
M  V30 787 C 71.1579 -3.61017 -4.56116 0
M  V30 788 N 70.1339 -2.8854 -4.60701 0
M  V30 789 H 73.9359 -1.92139 -2.22396 0
M  V30 790 H 71.4499 -1.1358 -1.16074 0
M  V30 791 H 73.4469 -0.38524 -4.15116 0
M  V30 792 H 72.1069 0.34503 -3.22862 0
M  V30 793 H 73.1179 -3.26673 -4.01877 0
M  V30 794 H 69.7949 -0.687969 -4.11793 0
M  V30 795 H 71.1849 -4.66544 -4.83514 0
M  V30 796 N 73.905 1.17692 -1.04816 0
M  V30 797 C 75.145 1.89545 -0.764979 0
M  V30 798 C 75.509 1.78979 0.695028 0
M  V30 799 O 76.71 2.45613 1.09215 0
M  V30 800 C 74.981 3.35659 -1.22751 0
M  V30 801 S 76.54 4.25526 -1.07112 0
M  V30 802 H 73.358 0.654432 -0.27792 0
M  V30 803 H 75.96 1.42163 -1.34201 0
M  V30 804 H 74.664 3.40882 -2.28533 0
M  V30 805 H 74.195 3.88083 -0.644594 0
M  V30 806 H 76.21 4.962 0.00697508 0
M  V30 807 N 75.3831 0.828654 1.34056 0
M  V30 808 C 76.6111 0.43262 2.02326 0
M  V30 809 C 77.0261 -0.963147 1.62385 0
M  V30 810 O 76.3831 -1.62425 0.832121 0
M  V30 811 C 76.4341 0.53182 3.57567 0
M  V30 812 O 76.1551 1.87258 3.96063 0
M  V30 813 C 77.6561 0.131422 4.43105 0
M  V30 814 H 74.8761 0.172923 0.648335 0
M  V30 815 H 77.4201 1.1184 1.71208 0
M  V30 816 H 75.5751 -0.105938 3.87255 0
M  V30 817 H 75.9891 1.85087 4.90758 0
M  V30 818 H 77.4631 0.251904 5.51425 0
M  V30 819 H 77.9401 -0.925645 4.29335 0
M  V30 820 H 78.5461 0.743207 4.18756 0
M  V30 821 N 76.8612 -1.46375 0.584142 0
M  V30 822 C 77.8082 -2.30323 -0.148286 0
M  V30 823 C 78.7782 -1.40703 -0.882713 0
M  V30 824 O 79.9632 -1.69651 -0.873099 0
M  V30 825 C 77.1032 -3.25196 -1.15507 0
M  V30 826 C 76.2162 -4.29915 -0.423943 0
M  V30 827 C 75.3512 -5.11914 -1.41838 0
M  V30 828 C 74.3902 -6.08381 -0.673736 0
M  V30 829 N 73.5272 -6.83242 -1.6163 0
M  V30 830 H 78.3672 -2.92427 0.573644 0
M  V30 831 H 75.9042 -1.44118 0.294703 0
M  V30 832 H 77.8622 -3.78646 -1.75166 0
M  V30 833 H 76.4922 -2.64898 -1.8447 0
M  V30 834 H 75.5442 -3.7931 0.287714 0
M  V30 835 H 76.8562 -4.98549 0.158128 0
M  V30 836 H 76.0102 -5.69648 -2.08773 0
M  V30 837 H 74.7492 -4.43243 -2.03438 0
M  V30 838 H 73.7542 -5.49799 0.00938483 0
M  V30 839 H 74.9792 -6.79071 -0.0631082 0
M  V30 840 H 72.9252 -6.1728 -2.22038 0
M  V30 841 H 72.8422 -7.48144 -1.08707 0
M  V30 842 H 74.1102 -7.45534 -2.27596 0
M  V30 843 N 78.3393 -0.321999 -1.54275 0
M  V30 844 C 79.5853 0.274234 -2.01543 0
M  V30 845 C 79.9403 1.499 -1.20614 0
M  V30 846 O 79.2333 1.89546 -0.279804 0
M  V30 847 C 79.4273 0.661769 -3.5122 0
M  V30 848 C 79.2563 -0.523892 -4.46638 0
M  V30 849 C 78.0263 -1.02251 -4.94846 0
M  V30 850 C 80.2243 -1.37558 -4.95563 0
M  V30 851 N 78.2063 -2.17274 -5.74165 0
M  V30 852 C 79.5773 -2.37301 -5.7279 0
M  V30 853 C 81.6323 -1.40353 -4.77709 0
M  V30 854 C 80.3353 -3.3964 -6.34064 0
M  V30 855 C 82.3613 -2.41562 -5.39817 0
M  V30 856 C 81.7233 -3.40031 -6.16894 0
M  V30 857 H 77.8223 0.0642367 -0.779357 0
M  V30 858 H 80.4063 -0.456683 -1.89268 0
M  V30 859 H 78.5773 1.36182 -3.63743 0
M  V30 860 H 80.3093 1.23934 -3.85256 0
M  V30 861 H 77.0643 -0.594046 -4.6986 0
M  V30 862 H 77.4883 -2.75289 -6.18502 0
M  V30 863 H 82.1303 -0.655907 -4.17681 0
M  V30 864 H 79.8483 -4.15309 -6.93213 0
M  V30 865 H 83.4343 -2.44524 -5.2792 0
M  V30 866 H 82.3143 -4.17063 -6.64099 0
M  V30 867 N 79.8174 1.5752 -0.0501392 0
M  V30 868 C 80.7504 2.07026 0.959962 0
M  V30 869 C 81.7284 0.970539 1.30458 0
M  V30 870 O 82.9124 1.2424 1.41763 0
M  V30 871 C 80.0394 2.5099 2.27424 0
M  V30 872 C 79.0854 3.72188 2.08275 0
M  V30 873 S 79.9184 5.17888 1.36207 0
M  V30 874 C 81.0744 5.65165 2.6896 0
M  V30 875 H 81.3074 2.9238 0.538631 0
M  V30 876 H 78.8404 1.53547 0.162099 0
M  V30 877 H 80.7984 2.76982 3.02971 0
M  V30 878 H 79.4594 1.65944 2.66686 0
M  V30 879 H 78.6524 4.00866 3.05487 0
M  V30 880 H 78.2544 3.46457 1.40868 0
M  V30 881 H 80.5464 5.70687 3.65133 0
M  V30 882 H 81.4894 6.64394 2.4492 0
M  V30 883 H 81.8974 4.9289 2.75172 0
M  V30 884 N 81.2955 -0.223234 1.56011 0
M  V30 885 C 82.2255 -1.27988 1.95298 0
M  V30 886 C 83.2065 -1.48976 0.820979 0
M  V30 887 O 84.3915 -1.61188 1.08315 0
M  V30 888 C 81.5215 -2.63 2.26822 0
M  V30 889 C 80.4755 -2.56671 3.42497 0
M  V30 890 C 79.8015 -3.95697 3.59622 0
M  V30 891 C 81.1015 -2.11601 4.77517 0
M  V30 892 H 82.7955 -0.953525 2.8381 0
M  V30 893 H 80.3415 -0.457244 1.36548 0
M  V30 894 H 82.2945 -3.37077 2.52898 0
M  V30 895 H 81.0185 -2.9732 1.35161 0
M  V30 896 H 79.6775 -1.85051 3.16467 0
M  V30 897 H 79.3255 -4.27322 2.6534 0
M  V30 898 H 79.0255 -3.92345 4.37424 0
M  V30 899 H 80.5495 -4.71438 3.88044 0
M  V30 900 H 81.9635 -2.7542 5.02809 0
M  V30 901 H 80.3605 -2.19311 5.5859 0
M  V30 902 H 81.4305 -1.06824 4.72987 0
M  V30 903 N 82.7736 -1.49793 -0.48987 0
M  V30 904 C 83.7036 -1.70201 -1.59856 0
M  V30 905 C 84.6846 -0.55076 -1.60937 0
M  V30 906 O 85.8696 -0.787841 -1.77501 0
M  V30 907 C 82.9996 -1.77882 -2.98287 0
M  V30 908 C 81.9536 -2.92907 -3.12073 0
M  V30 909 C 81.2796 -2.85712 -4.51965 0
M  V30 910 C 82.5796 -4.3369 -2.91051 0
M  V30 911 H 84.2736 -2.63025 -1.43032 0
M  V30 912 H 81.8196 -1.26574 -0.686664 0
M  V30 913 H 83.7726 -1.90744 -3.75759 0
M  V30 914 H 82.4966 -0.816653 -3.16225 0
M  V30 915 H 81.1556 -2.79665 -2.37029 0
M  V30 916 H 80.8036 -1.8738 -4.66795 0
M  V30 917 H 80.5036 -3.62921 -4.62128 0
M  V30 918 H 82.0276 -3.00598 -5.31482 0
M  V30 919 H 83.4416 -4.47555 -3.58284 0
M  V30 920 H 81.8386 -5.12205 -3.12675 0
M  V30 921 H 82.9086 -4.47362 -1.87071 0
M  V30 922 N 84.2517 0.741722 -1.39055 0
M  V30 923 C 85.4767 1.53607 -1.39354 0
M  V30 924 C 85.9017 1.88096 0.0116905 0
M  V30 925 O 85.2597 1.5143 0.996924 0
M  V30 926 C 85.3077 2.80441 -2.26682 0
M  V30 927 O 84.4117 3.76088 -1.69208 0
M  V30 928 H 83.7527 0.464142 -0.474835 0
M  V30 929 H 86.2827 0.915665 -1.82967 0
M  V30 930 H 86.2927 3.29246 -2.40959 0
M  V30 931 H 84.9677 2.5467 -3.2881 0
M  V30 932 H 83.5447 3.34833 -1.64138 0
M  V30 933 N 85.7298 1.2412 0.971189 0
M  V30 934 C 87.0068 0.986867 1.6888 0
M  V30 935 C 87.3868 -0.491857 2.0529 0
M  V30 936 O 86.7348 -1.46531 1.75331 0
M  V30 937 C 86.9448 1.9063 2.92338 0
M  V30 938 C 88.2928 2.17515 3.64654 0
M  V30 939 O 89.3168 1.88254 3.02388 0
M  V30 940 O 88.1758 2.6719 4.7673 0
M  V30 941 H 85.2698 0.372944 0.738134 0
M  V30 942 H 87.8158 1.35203 1.02559 0
M  V30 943 H 86.5878 2.90552 2.62097 0
M  V30 944 H 86.2108 1.54408 3.66393 0
M  V30 945 N 87.2079 -1.17134 1.05439 0
M  V30 946 C 88.4559 -1.87085 0.764429 0
M  V30 947 C 88.7769 -1.81584 -0.710787 0
M  V30 948 O 88.0469 -1.24349 -1.51374 0
M  V30 949 H 86.6269 -0.692627 0.279779 0
M  V30 950 H 89.2889 -1.42087 1.33406 0
M  V30 951 H 88.3849 -2.92759 1.0816 0
M  V30 952 N 88.686 -0.835752 -1.33615 0
M  V30 953 C 89.616 -0.281739 -2.31794 0
M  V30 954 C 90.597 0.608833 -1.58831 0
M  V30 955 O 91.782 0.533035 -1.86741 0
M  V30 956 C 88.912 0.546612 -3.42971 0
M  V30 957 C 87.866 -0.247904 -4.27281 0
M  V30 958 C 87.192 0.704001 -5.30045 0
M  V30 959 C 88.492 -1.46324 -5.01385 0
M  V30 960 H 90.186 -1.10206 -2.78379 0
M  V30 961 H 87.732 -0.531388 -1.33837 0
M  V30 962 H 89.685 0.944467 -4.1068 0
M  V30 963 H 88.409 1.40011 -2.95067 0
M  V30 964 H 87.068 -0.627281 -3.61194 0
M  V30 965 H 86.716 1.55381 -4.78399 0
M  V30 966 H 86.416 0.176524 -5.87335 0
M  V30 967 H 87.94 1.09944 -6.0062 0
M  V30 968 H 89.354 -1.13871 -5.61877 0
M  V30 969 H 87.751 -1.92728 -5.6831 0
M  V30 970 H 88.821 -2.23467 -4.30338 0
M  V30 971 N 90.1641 1.46063 -0.591896 0
M  V30 972 C 91.1111 2.30399 0.136069 0
M  V30 973 C 92.0811 1.41169 0.875238 0
M  V30 974 O 93.2661 1.70112 0.86409 0
M  V30 975 C 90.4061 3.25804 1.13781 0
M  V30 976 C 89.5191 4.30134 0.401137 0
M  V30 977 C 88.6541 5.12659 1.39121 0
M  V30 978 C 87.6931 6.0873 0.641462 0
M  V30 979 N 86.8301 6.8409 1.58004 0
M  V30 980 H 91.6701 2.92118 -0.589144 0
M  V30 981 H 89.2071 1.43959 -0.302342 0
M  V30 982 H 91.1651 3.79569 1.73156 0
M  V30 983 H 89.7951 2.65872 1.83062 0
M  V30 984 H 88.8471 3.79152 -0.307826 0
M  V30 985 H 90.1591 4.98458 -0.184565 0
M  V30 986 H 89.3131 5.70747 2.05749 0
M  V30 987 H 88.0521 4.44316 2.01084 0
M  V30 988 H 87.0571 5.49786 -0.0385419 0
M  V30 989 H 88.2821 6.79095 0.0270945 0
M  V30 990 H 86.2281 6.18449 2.18761 0
M  V30 991 H 86.1451 7.48709 1.04738 0
M  V30 992 H 87.4131 7.4673 2.23639 0
M  V30 993 N 91.6422 0.330177 1.54103 0
M  V30 994 C 93.0582 -0.0222371 1.59585 0
M  V30 995 C 93.2582 -1.49902 1.34654 0
M  V30 996 O 92.3142 -2.25592 1.13421 0
M  V30 997 C 93.6272 0.401932 2.98002 0
M  V30 998 C 95.1752 0.353145 3.11001 0
M  V30 999 C 95.6502 0.752576 4.51775 0
M  V30 1000 N 97.1412 0.706239 4.57784 0
M  V30 1001 C 97.8762 0.987417 5.64834 0
M  V30 1002 N 97.3722 1.33607 6.79795 0
M  V30 1003 N 99.1652 0.91254 5.54643 0
M  V30 1004 H 91.3162 1.29228 1.68564 0
M  V30 1005 H 93.5792 0.525906 0.78875 0
M  V30 1006 H 93.2852 1.4311 3.21267 0
M  V30 1007 H 93.1592 -0.229699 3.765 0
M  V30 1008 H 95.5462 -0.666822 2.87467 0
M  V30 1009 H 95.6272 1.0198 2.34593 0
M  V30 1010 H 95.2712 1.77049 4.76042 0
M  V30 1011 H 95.2012 0.0635409 5.26562 0
M  V30 1012 H 97.6922 0.44889 3.75224 0
M  V30 1013 H 98.0052 1.53582 7.57385 0
M  V30 1014 H 96.3502 1.37439 6.81275 0
M  V30 1015 H 99.5412 0.639601 4.6371 0
M  V30 1016 H 99.7142 1.13503 6.37982 0
M  V30 1017 N 93.1203 -1.57491 0.0584922 0
M  V30 1018 C 94.0673 -2.11958 -0.913376 0
M  V30 1019 C 95.0373 -1.02875 -1.30407 0
M  V30 1020 O 96.2223 -1.30464 -1.39226 0
M  V30 1021 C 93.3623 -2.67497 -2.18035 0
M  V30 1022 C 92.4753 -3.90691 -1.84349 0
M  V30 1023 C 91.6103 -4.3452 -3.05559 0
M  V30 1024 C 90.6493 -5.50395 -2.67827 0
M  V30 1025 N 89.7863 -5.89244 -3.81754 0
M  V30 1026 H 94.6263 -2.94704 -0.442017 0
M  V30 1027 H 92.1633 -1.45643 -0.206545 0
M  V30 1028 H 94.1213 -2.978 -2.92183 0
M  V30 1029 H 92.7513 -1.87537 -2.62735 0
M  V30 1030 H 91.8033 -3.66934 -1.00319 0
M  V30 1031 H 93.1153 -4.7489 -1.5258 0
M  V30 1032 H 92.2693 -4.66414 -3.87998 0
M  V30 1033 H 91.0083 -3.49147 -3.40511 0
M  V30 1034 H 90.0133 -5.18165 -1.83806 0
M  V30 1035 H 91.2383 -6.3749 -2.34059 0
M  V30 1036 H 89.1843 -5.06823 -4.16493 0
M  V30 1037 H 89.1013 -6.68151 -3.53708 0
M  V30 1038 H 90.3693 -6.25756 -4.64811 0
M  V30 1039 N 94.5984 0.214957 -1.56127 0
M  V30 1040 C 95.5284 1.2695 -1.95974 0
M  V30 1041 C 96.5094 1.48539 -0.828868 0
M  V30 1042 O 97.6944 1.60611 -1.09168 0
M  V30 1043 C 94.8244 2.61794 -2.28214 0
M  V30 1044 C 93.7784 2.54851 -3.43853 0
M  V30 1045 C 93.1044 3.93785 -3.61715 0
M  V30 1046 C 94.4044 2.09065 -4.78632 0
M  V30 1047 H 96.0984 0.93846 -2.84312 0
M  V30 1048 H 93.6444 0.449996 -1.36788 0
M  V30 1049 H 95.5974 3.35731 -2.54682 0
M  V30 1050 H 94.3214 2.96599 -1.36736 0
M  V30 1051 H 92.9804 1.8337 -3.17444 0
M  V30 1052 H 92.6284 4.25908 -2.67602 0
M  V30 1053 H 92.3284 3.90019 -4.39498 0
M  V30 1054 H 93.8524 4.69374 -3.90539 0
M  V30 1055 H 95.2664 2.7275 -5.04262 0
M  V30 1056 H 93.6634 2.16346 -5.59745 0
M  V30 1057 H 94.7334 1.04315 -4.73547 0
M  V30 1058 N 96.0765 1.50051 0.48192 0
M  V30 1059 C 97.3165 1.62128 1.24474 0
M  V30 1060 C 97.6805 0.309742 1.89485 0
M  V30 1061 O 98.8815 0.305854 2.67054 0
M  V30 1062 C 97.1525 2.76151 2.26882 0
M  V30 1063 S 98.7115 3.08297 3.12247 0
M  V30 1064 H 95.5295 0.571661 0.422759 0
M  V30 1065 H 98.1315 1.87791 0.54359 0
M  V30 1066 H 96.8355 3.69942 1.77683 0
M  V30 1067 H 96.3665 2.52541 3.0164 0
M  V30 1068 H 98.3815 2.51287 4.27866 0
M  V30 1069 N 97.5546 -0.734337 1.39446 0
M  V30 1070 C 98.8006 -1.49613 1.36908 0
M  V30 1071 C 99.1336 -1.94169 -0.0347829 0
M  V30 1072 O 98.4086 -1.66833 -0.999847 0
M  V30 1073 C 98.6916 -2.73534 2.34203 0
M  V30 1074 C 98.5446 -2.34993 3.83534 0
M  V30 1075 C 99.8636 -3.75635 2.29317 0
M  V30 1076 H 96.9826 -0.542714 0.498629 0
M  V30 1077 H 99.6246 -0.839597 1.70443 0
M  V30 1078 H 97.7746 -3.29553 2.05736 0
M  V30 1079 H 99.4466 -1.84601 4.22753 0
M  V30 1080 H 97.6896 -1.67213 4.00278 0
M  V30 1081 H 98.3606 -3.23738 4.47099 0
M  V30 1082 H 100.837 -3.29203 2.54489 0
M  V30 1083 H 99.7126 -4.60008 2.99472 0
M  V30 1084 H 99.9736 -4.22603 1.29842 0
M  V30 1085 N 99.0327 -1.24633 -0.964593 0
M  V30 1086 C 99.9647 -0.999302 -2.06268 0
M  V30 1087 C 100.978 0.0323226 -1.62768 0
M  V30 1088 O 102.167 -0.205079 -1.77318 0
M  V30 1089 C 99.2667 -0.486816 -3.35385 0
M  V30 1090 C 98.4397 -1.5823 -4.07777 0
M  V30 1091 C 97.4987 -1.07191 -5.15166 0
M  V30 1092 O 96.5247 -1.76426 -5.41168 0
M  V30 1093 N 97.7267 0.0920373 -5.80427 0
M  V30 1094 H 100.492 -1.94477 -2.28033 0
M  V30 1095 H 98.0527 -1.15704 -1.13244 0
M  V30 1096 H 100.045 -0.130066 -4.04491 0
M  V30 1097 H 98.6147 0.364459 -3.10468 0
M  V30 1098 H 97.8347 -2.11109 -3.32906 0
M  V30 1099 H 99.1227 -2.31854 -4.52903 0
M  V30 1100 H 98.5207 0.670784 -5.61709 0
M  V30 1101 H 97.0777 0.389905 -6.50633 0
M  V30 1102 N 100.511 1.16574 -1.06058 0
M  V30 1103 C 101.739 1.90952 -0.796552 0
M  V30 1104 C 102.154 1.77302 0.648808 0
M  V30 1105 O 101.511 1.11605 1.44397 0
M  V30 1106 C 101.562 3.41736 -1.17894 0
M  V30 1107 O 101.283 3.54975 -2.56758 0
M  V30 1108 C 102.784 4.33169 -0.942308 0
M  V30 1109 H 100.004 0.605594 -0.288959 0
M  V30 1110 H 102.548 1.47777 -1.41358 0
M  V30 1111 H 100.703 3.82623 -0.606491 0
M  V30 1112 H 101.117 4.4846 -2.72 0
M  V30 1113 H 102.591 5.37439 -1.25952 0
M  V30 1114 H 103.068 4.3903 0.122078 0
M  V30 1115 H 103.674 3.98007 -1.49902 0
M  V30 1116 N 101.989 0.842826 1.3317 0
M  V30 1117 C 103.217 0.454055 2.01856 0
M  V30 1118 C 103.632 -0.94587 1.63397 0
M  V30 1119 O 102.989 -1.61534 0.849302 0
M  V30 1120 C 103.04 0.569715 3.56982 0
M  V30 1121 O 102.761 1.91448 3.94055 0
M  V30 1122 C 104.262 0.178412 4.42941 0
M  V30 1123 H 101.482 0.17979 0.646465 0
M  V30 1124 H 104.026 1.1365 1.70012 0
M  V30 1125 H 102.181 -0.0648587 3.87346 0
M  V30 1126 H 102.595 1.90282 4.88767 0
M  V30 1127 H 104.069 0.310376 5.51127 0
M  V30 1128 H 104.546 -0.880056 4.30293 0
M  V30 1129 H 105.152 0.787579 4.17944 0
M  V30 1130 N 103.467 -1.45747 0.599634 0
M  V30 1131 C 104.397 -2.33235 -0.111306 0
M  V30 1132 C 105.378 -1.46359 -0.866781 0
M  V30 1133 O 106.563 -1.75146 -0.838904 0
M  V30 1134 C 103.693 -3.28932 -1.11451 0
M  V30 1135 C 102.647 -4.25381 -0.472772 0
M  V30 1136 C 101.973 -5.1071 -1.58365 0
M  V30 1137 C 103.273 -5.18831 0.600948 0
M  V30 1138 H 104.967 -2.92927 0.61919 0
M  V30 1139 H 102.513 -1.40857 0.299215 0
M  V30 1140 H 104.466 -3.89002 -1.62036 0
M  V30 1141 H 103.19 -2.67381 -1.8755 0
M  V30 1142 H 101.849 -3.66598 0.0121472 0
M  V30 1143 H 101.497 -4.45533 -2.33473 0
M  V30 1144 H 101.197 -5.7604 -1.15982 0
M  V30 1145 H 102.721 -5.73647 -2.09194 0
M  V30 1146 H 104.135 -5.73019 0.179491 0
M  V30 1147 H 102.532 -5.92595 0.946076 0
M  V30 1148 H 103.602 -4.6174 1.48068 0
M  V30 1149 N 104.945 -0.338344 -1.53925 0
M  V30 1150 C 105.892 0.520845 -2.24846 0
M  V30 1151 C 106.862 1.09976 -1.24477 0
M  V30 1152 O 108.047 1.13735 -1.53196 0
M  V30 1153 C 105.187 1.6685 -3.02084 0
M  V30 1154 C 104.3 1.11739 -4.17299 0
M  V30 1155 C 103.435 2.23193 -4.82036 0
M  V30 1156 C 102.474 1.65407 -5.89328 0
M  V30 1157 N 101.611 2.70582 -6.47866 0
M  V30 1158 H 106.451 -0.0904881 -2.97863 0
M  V30 1159 H 103.988 -0.0564282 -1.46992 0
M  V30 1160 H 105.946 2.34407 -3.45122 0
M  V30 1161 H 104.576 2.2509 -2.31375 0
M  V30 1162 H 103.628 0.332919 -3.7894 0
M  V30 1163 H 104.94 0.654677 -4.94485 0
M  V30 1164 H 104.094 2.98626 -5.28117 0
M  V30 1165 H 102.833 2.72807 -4.04262 0
M  V30 1166 H 101.838 0.884779 -5.42634 0
M  V30 1167 H 103.063 1.16652 -6.69006 0
M  V30 1168 H 101.009 3.1946 -5.72959 0
M  V30 1169 H 100.926 2.28917 -7.20509 0
M  V30 1170 H 102.194 3.45799 -6.98601 0
M  V30 1171 N 106.423 1.57458 -0.0668435 0
M  V30 1172 C 107.7 1.8469 0.644132 0
M  V30 1173 C 108.08 0.958343 1.88093 0
M  V30 1174 O 107.428 0.0233579 2.28488 0
M  V30 1175 C 107.638 3.34767 0.986509 0
M  V30 1176 C 108.986 4.02159 1.36212 0
M  V30 1177 O 110.01 3.39484 1.07839 0
M  V30 1178 O 108.869 5.12694 1.89227 0
M  V30 1179 H 105.963 0.762816 0.319437 0
M  V30 1180 H 108.509 1.6942 -0.0973986 0
M  V30 1181 H 107.281 3.91151 0.107883 0
M  V30 1182 H 106.904 3.55281 1.78497 0
M  V30 1183 N 107.901 -0.206675 1.56239 0
M  V30 1184 C 108.851 -1.26 1.90021 0
M  V30 1185 C 109.835 -1.41566 0.764721 0
M  V30 1186 O 111.027 -1.44131 1.02739 0
M  V30 1187 C 108.156 -2.6073 2.23326 0
M  V30 1188 C 107.242 -2.49005 3.43304 0
M  V30 1189 N 107.633 -2.06946 4.61527 0
M  V30 1190 C 105.931 -2.79927 3.47213 0
M  V30 1191 C 106.632 -2.06832 5.43687 0
M  V30 1192 N 105.608 -2.47892 4.83788 0
M  V30 1193 H 109.41 -0.925955 2.78932 0
M  V30 1194 H 106.924 -0.415172 1.57003 0
M  V30 1195 H 108.921 -3.36798 2.45708 0
M  V30 1196 H 107.581 -2.94968 1.35735 0
M  V30 1197 H 108.592 -1.77839 4.86409 0
M  V30 1198 H 105.269 -3.18438 2.70006 0
M  V30 1199 H 106.659 -1.76312 6.48354 0
M  V30 1200 N 109.379 -1.50304 -0.473955 0
M  V30 1201 C 110.607 -1.64902 -1.24959 0
M  V30 1202 C 111.022 -0.331198 -1.85872 0
M  V30 1203 O 110.379 0.68652 -1.69095 0
M  V30 1204 C 110.43 -2.73803 -2.36038 0
M  V30 1205 O 110.151 -4.00477 -1.77624 0
M  V30 1206 C 111.652 -2.99349 -3.26964 0
M  V30 1207 H 108.872 -0.554383 -0.378022 0
M  V30 1208 H 111.416 -1.9651 -0.566054 0
M  V30 1209 H 109.571 -2.44898 -3.00173 0
M  V30 1210 H 109.985 -4.60678 -2.5075 0
M  V30 1211 H 111.459 -3.79217 -4.01121 0
M  V30 1212 H 111.936 -2.10307 -3.85574 0
M  V30 1213 H 112.542 -3.29774 -2.68569 0
M  V30 1214 N 110.857 0.726932 -1.39834 0
M  V30 1215 C 111.767 1.87131 -1.41489 0
M  V30 1216 C 112.783 1.71239 -0.308757 0
M  V30 1217 O 113.959 1.93701 -0.551529 0
M  V30 1218 C 111.024 3.22811 -1.26468 0
M  V30 1219 C 110.085 3.51039 -2.47124 0
M  V30 1220 C 109.318 4.80245 -2.3281 0
M  V30 1221 O 109.541 5.54537 -1.33585 0
M  V30 1222 O 108.475 5.08554 -3.21957 0
M  V30 1223 H 112.301 1.8869 -2.3797 0
M  V30 1224 H 109.886 0.875837 -1.21035 0
M  V30 1225 H 111.768 4.03877 -1.20255 0
M  V30 1226 H 110.443 3.22005 -0.330862 0
M  V30 1227 H 109.35 2.70027 -2.58914 0
M  V30 1228 H 110.683 3.56632 -3.39227 0
M  V30 1229 N 112.336 1.25143 0.95797 0
M  V30 1230 C 113.584 1.09476 1.69881 0
M  V30 1231 C 113.905 -0.365502 1.91544 0
M  V30 1232 O 113.175 -1.25985 1.50015 0
M  V30 1233 H 111.755 0.402128 0.629525 0
M  V30 1234 H 114.417 1.57214 1.15194 0
M  V30 1235 H 113.513 1.60046 2.6794 0
M  V30 1236 N 113.814 -1.1601 1.06675 0
M  V30 1237 C 114.744 -2.22688 0.702307 0
M  V30 1238 C 115.725 -1.67306 -0.307032 0
M  V30 1239 O 116.91 -1.93352 -0.181305 0
M  V30 1240 C 114.04 -3.47178 0.092038 0
M  V30 1241 C 112.994 -4.15477 1.02777 0
M  V30 1242 C 112.32 -5.33963 0.28061 0
M  V30 1243 C 113.62 -4.66019 2.35846 0
M  V30 1244 H 115.314 -2.53429 1.59419 0
M  V30 1245 H 112.86 -1.21813 0.767961 0
M  V30 1246 H 114.813 -4.21037 -0.174814 0
M  V30 1247 H 113.537 -3.15749 -0.834877 0
M  V30 1248 H 112.196 -3.43549 1.27944 0
M  V30 1249 H 111.844 -4.98788 -0.649545 0
M  V30 1250 H 111.544 -5.806 0.904258 0
M  V30 1251 H 113.068 -6.10596 0.021396 0
M  V30 1252 H 114.482 -5.3144 2.15045 0
M  V30 1253 H 112.879 -5.23293 2.93743 0
M  V30 1254 H 113.949 -3.82023 2.98641 0
M  V30 1255 N 115.292 -0.849877 -1.32721 0
M  V30 1256 C 116.517 -0.463856 -2.02146 0
M  V30 1257 C 116.942 0.930449 -1.63476 0
M  V30 1258 O 116.3 1.61033 -0.832952 0
M  V30 1259 C 116.348 -0.604955 -3.55489 0
M  V30 1260 O 115.452 0.36425 -4.10788 0
M  V30 1261 H 114.793 -0.187046 -0.637111 0
M  V30 1262 H 117.323 -1.14775 -1.69375 0
M  V30 1263 H 117.333 -0.490696 -4.05038 0
M  V30 1264 H 116.008 -1.62174 -3.82978 0
M  V30 1265 H 114.585 0.206628 -3.72327 0
M  V30 1266 N 116.77 1.45427 -0.607355 0
M  V30 1267 C 118.047 1.9557 -0.0344566 0
M  V30 1268 C 118.427 1.54979 1.43334 0
M  V30 1269 O 117.775 0.812241 2.13576 0
M  V30 1270 C 117.985 3.48226 -0.232321 0
M  V30 1271 C 119.333 4.2445 -0.113001 0
M  V30 1272 O 120.357 3.55829 -0.162431 0
M  V30 1273 O 119.216 5.465 0.00209442 0
M  V30 1274 H 116.31 0.826222 0.0358667 0
M  V30 1275 H 118.856 1.55594 -0.6774 0
M  V30 1276 H 117.628 3.70739 -1.25174 0
M  V30 1277 H 117.251 3.95092 0.445896 0
M  V30 1278 N 118.248 0.346503 1.53744 0
M  V30 1279 C 119.195 -0.508914 2.25119 0
M  V30 1280 C 120.165 -1.09315 1.25058 0
M  V30 1281 O 121.35 -1.12921 1.53797 0
M  V30 1282 C 118.49 -1.65246 3.02965 0
M  V30 1283 C 117.603 -1.09525 4.17886 0
M  V30 1284 C 116.738 -2.20634 4.83212 0
M  V30 1285 C 115.777 -1.62279 5.90196 0
M  V30 1286 N 114.914 -2.67143 6.49291 0
M  V30 1287 H 119.754 0.106283 2.9781 0
M  V30 1288 H 117.291 0.0642227 1.4696 0
M  V30 1289 H 119.249 -2.32574 3.4636 0
M  V30 1290 H 117.879 -2.2386 2.32565 0
M  V30 1291 H 116.931 -0.312818 3.79112 0
M  V30 1292 H 118.243 -0.628444 4.94825 0
M  V30 1293 H 117.397 -2.95821 5.29693 0
M  V30 1294 H 116.136 -2.70659 4.05703 0
M  V30 1295 H 115.141 -0.855989 5.43096 0
M  V30 1296 H 116.366 -1.13102 6.69615 0
M  V30 1297 H 114.312 -3.16417 5.74645 0
M  V30 1298 H 114.229 -2.25093 7.21713 0
M  V30 1299 H 115.497 -3.4209 7.00425 0
M  V30 1300 N 119.726 -1.57421 0.075193 0
M  V30 1301 C 120.636 -2.1642 -0.905511 0
M  V30 1302 C 121.652 -1.12828 -1.32461 0
M  V30 1303 O 122.828 -1.45109 -1.39661 0
M  V30 1304 C 119.893 -2.71693 -2.15369 0
M  V30 1305 C 118.954 -3.90171 -1.79068 0
M  V30 1306 C 118.187 -4.42798 -2.97936 0
M  V30 1307 O 118.41 -3.94416 -4.12058 0
M  V30 1308 O 117.344 -5.34085 -2.77555 0
M  V30 1309 H 121.17 -3.00588 -0.433626 0
M  V30 1310 H 118.755 -1.48664 -0.148067 0
M  V30 1311 H 120.637 -3.07104 -2.88557 0
M  V30 1312 H 119.312 -1.90582 -2.61649 0
M  V30 1313 H 118.219 -3.59606 -1.03122 0
M  V30 1314 H 119.552 -4.72584 -1.37569 0
M  V30 1315 N 121.204 0.198386 -1.56346 0
M  V30 1316 C 122.136 1.26987 -1.90806 0
M  V30 1317 C 123.149 1.41877 -0.798419 0
M  V30 1318 O 124.338 1.42362 -1.07682 0
M  V30 1319 C 121.438 2.64246 -2.12196 0
M  V30 1320 C 120.611 2.71007 -3.43328 0
M  V30 1321 C 119.67 3.89439 -3.5387 0
M  V30 1322 O 118.696 3.76695 -4.26719 0
M  V30 1323 N 119.898 5.04752 -2.86715 0
M  V30 1324 H 122.663 0.977433 -2.83313 0
M  V30 1325 H 120.224 0.388322 -1.57174 0
M  V30 1326 H 122.216 3.41896 -2.1654 0
M  V30 1327 H 120.786 2.85992 -1.26204 0
M  V30 1328 H 120.006 1.79657 -3.50881 0
M  V30 1329 H 121.294 2.72512 -4.29668 0
M  V30 1330 H 120.692 5.18004 -2.2735 0
M  V30 1331 H 119.249 5.8036 -2.96691 0
M  V30 1332 N 122.682 1.50554 0.465978 0
M  V30 1333 C 124.098 1.38093 0.800154 0
M  V30 1334 C 124.298 0.440988 1.96615 0
M  V30 1335 O 123.354 -0.114499 2.5224 0
M  V30 1336 C 124.667 2.79565 1.10742 0
M  V30 1337 C 126.215 2.88516 1.21357 0
M  V30 1338 C 126.69 4.30833 1.55393 0
M  V30 1339 N 128.181 4.33807 1.62375 0
M  V30 1340 C 128.916 5.40927 1.90225 0
M  V30 1341 N 128.412 6.58247 2.16062 0
M  V30 1342 N 130.205 5.28376 1.9177 0
M  V30 1343 H 122.356 2.10237 -0.302366 0
M  V30 1344 H 124.619 0.945203 -0.0727746 0
M  V30 1345 H 124.325 3.50208 0.323661 0
M  V30 1346 H 124.199 3.17125 2.04234 0
M  V30 1347 H 126.586 2.1809 1.98799 0
M  V30 1348 H 126.667 2.54492 0.258321 0
M  V30 1349 H 126.311 5.01799 0.784889 0
M  V30 1350 H 126.241 4.62347 2.52076 0
M  V30 1351 H 128.732 3.49212 1.44427 0
M  V30 1352 H 129.045 7.3569 2.36601 0
M  V30 1353 H 127.39 6.61413 2.13444 0
M  V30 1354 H 130.581 4.35715 1.71085 0
M  V30 1355 H 130.754 6.11944 2.13139 0
M  V30 1356 N 124.16 -0.719506 1.40217 0
M  V30 1357 C 125.407 -1.47933 1.38283 0
M  V30 1358 C 125.735 -1.94493 -0.0161536 0
M  V30 1359 O 124.99 -1.68224 -0.999956 0
M  V30 1360 C 125.289 -2.72271 2.31524 0
M  V30 1361 C 124.955 -2.44496 3.78857 0
M  V30 1362 C 123.617 -2.36631 4.18998 0
M  V30 1363 C 125.969 -2.21104 4.71977 0
M  V30 1364 C 123.297 -2.03437 5.503 0
M  V30 1365 C 125.649 -1.89423 6.03574 0
M  V30 1366 C 124.313 -1.80038 6.42762 0
M  V30 1367 H 123.583 -0.541325 0.506012 0
M  V30 1368 H 126.23 -0.824502 1.72842 0
M  V30 1369 H 124.535 -3.42572 1.90137 0
M  V30 1370 H 126.232 -3.30348 2.27313 0
M  V30 1371 H 122.822 -2.51503 3.47051 0
M  V30 1372 H 127.006 -2.26139 4.41786 0
M  V30 1373 H 122.262 -1.94705 5.79569 0
M  V30 1374 H 126.436 -1.70336 6.75247 0
M  V30 1375 H 124.063 -1.54083 7.44421 0
M  V30 1376 N 125.638 -1.25649 -0.95132 0
M  V30 1377 C 126.884 -1.10757 -1.69884 0
M  V30 1378 C 127.217 0.350061 -1.91019 0
M  V30 1379 O 126.492 1.25783 -1.48354 0
M  V30 1380 C 126.775 -1.86606 -3.07978 0
M  V30 1381 C 126.628 -3.40217 -2.94232 0
M  V30 1382 C 127.947 -1.65182 -4.07925 0
M  V30 1383 H 125.066 -0.40374 -0.616574 0
M  V30 1384 H 127.708 -1.54521 -1.10558 0
M  V30 1385 H 125.858 -1.49409 -3.58621 0
M  V30 1386 H 127.53 -3.87108 -2.50889 0
M  V30 1387 H 125.773 -3.67759 -2.30078 0
M  V30 1388 H 126.444 -3.88505 -3.92133 0
M  V30 1389 H 128.92 -1.9757 -3.66204 0
M  V30 1390 H 127.796 -2.20683 -5.02583 0
M  V30 1391 H 128.057 -0.593933 -4.38092 0
M  V30 1392 N 127.117 1.15442 -1.07289 0
M  V30 1393 C 128.394 1.82306 -0.708792 0
M  V30 1394 C 128.774 1.94991 0.808807 0
M  V30 1395 O 128.122 1.50085 1.72298 0
M  V30 1396 C 128.332 3.18695 -1.42247 0
M  V30 1397 C 129.68 3.94341 -1.57417 0
M  V30 1398 O 130.704 3.28247 -1.38319 0
M  V30 1399 O 129.563 5.12839 -1.88834 0
M  V30 1400 H 126.657 0.787628 -0.252132 0
M  V30 1401 H 129.203 1.22559 -1.17377 0
M  V30 1402 H 127.975 3.04557 -2.45684 0
M  V30 1403 H 127.598 3.86128 -0.948223 0
M  V30 1404 N 128.595 0.856903 1.32268 0
M  V30 1405 C 129.542 0.301172 2.28827 0
M  V30 1406 C 130.512 -0.593104 1.5515 0
M  V30 1407 O 131.697 -0.527537 1.83362 0
M  V30 1408 C 128.837 -0.502523 3.41422 0
M  V30 1409 C 127.95 0.417797 4.29975 0
M  V30 1410 C 127.085 -0.398749 5.29701 0
M  V30 1411 C 126.124 0.518827 6.09897 0
M  V30 1412 N 125.261 -0.260674 7.01616 0
M  V30 1413 H 130.101 1.12983 2.75751 0
M  V30 1414 H 127.638 0.568582 1.35667 0
M  V30 1415 H 129.596 -0.984141 4.05426 0
M  V30 1416 H 128.226 -1.29599 2.95642 0
M  V30 1417 H 127.278 1.01781 3.66531 0
M  V30 1418 H 128.59 1.12191 4.86019 0
M  V30 1419 H 127.744 -0.943435 5.9932 0
M  V30 1420 H 126.483 -1.13622 4.7428 0
M  V30 1421 H 125.488 1.07538 5.39181 0
M  V30 1422 H 126.713 1.25495 6.67404 0
M  V30 1423 H 124.659 -0.981198 6.4862 0
M  V30 1424 H 124.576 0.384364 7.55022 0
M  V30 1425 H 125.844 -0.787014 7.75517 0
M  V30 1426 N 130.073 -1.45103 0.615059 0
M  V30 1427 C 131.003 -2.33339 -0.0865619 0
M  V30 1428 C 131.984 -1.4727 -0.851209 0
M  V30 1429 O 133.169 -1.76026 -0.820281 0
M  V30 1430 C 130.299 -3.30095 -1.07956 0
M  V30 1431 C 129.253 -4.25858 -0.427628 0
M  V30 1432 C 128.579 -5.12361 -1.5294 0
M  V30 1433 C 129.879 -5.18165 0.655944 0
M  V30 1434 H 131.573 -2.92254 0.650224 0
M  V30 1435 H 129.119 -1.40532 0.314138 0
M  V30 1436 H 131.072 -3.90698 -1.57901 0
M  V30 1437 H 129.796 -2.69355 -1.84703 0
M  V30 1438 H 128.455 -3.66564 0.0510292 0
M  V30 1439 H 128.103 -4.47984 -2.28734 0
M  V30 1440 H 127.803 -5.77238 -1.09865 0
M  V30 1441 H 129.327 -5.75833 -2.03098 0
M  V30 1442 H 130.741 -5.72796 0.240257 0
M  V30 1443 H 129.138 -5.91559 1.00888 0
M  V30 1444 H 130.208 -4.60144 1.52957 0
M  V30 1445 N 131.551 -0.354651 -1.53558 0
M  V30 1446 C 132.781 0.239167 -2.05211 0
M  V30 1447 C 133.189 1.43879 -1.22863 0
M  V30 1448 O 132.532 1.81857 -0.259565 0
M  V30 1449 C 132.594 0.707251 -3.52474 0
M  V30 1450 C 132.258 -0.374212 -4.55465 0
M  V30 1451 C 133.255 -1.22054 -5.0537 0
M  V30 1452 C 130.94 -0.531323 -4.99482 0
M  V30 1453 C 132.934 -2.20942 -5.97882 0
M  V30 1454 C 130.621 -1.52358 -5.91802 0
M  V30 1455 C 131.619 -2.36108 -6.40892 0
M  V30 1456 O 131.307 -3.33643 -7.31394 0
M  V30 1457 H 131.039 0.0479716 -0.674296 0
M  V30 1458 H 133.593 -0.508121 -1.99016 0
M  V30 1459 H 131.823 1.50596 -3.56171 0
M  V30 1460 H 133.512 1.22285 -3.87042 0
M  V30 1461 H 134.278 -1.1103 -4.7212 0
M  V30 1462 H 130.157 0.110738 -4.60867 0
M  V30 1463 H 133.701 -2.86348 -6.36121 0
M  V30 1464 H 129.598 -1.63434 -6.24467 0
M  V30 1465 H 130.366 -3.29244 -7.4936 0
M  V30 1466 N 133.029 1.57378 -0.0835403 0
M  V30 1467 C 134.257 1.98263 0.59157 0
M  V30 1468 C 134.672 0.962302 1.62435 0
M  V30 1469 O 134.029 -0.049581 1.82433 0
M  V30 1470 C 134.08 3.39214 1.24965 0
M  V30 1471 O 133.801 4.37339 0.258186 0
M  V30 1472 C 135.302 3.95038 2.01147 0
M  V30 1473 H 132.522 0.651773 0.159477 0
M  V30 1474 H 135.066 2.03878 -0.159415 0
M  V30 1475 H 133.221 3.34649 1.95164 0
M  V30 1476 H 133.635 5.19371 0.731734 0
M  V30 1477 H 135.109 4.95848 2.42567 0
M  V30 1478 H 135.586 3.32222 2.87272 0
M  V30 1479 H 136.192 4.0304 1.35789 0
M  V30 1480 N 134.507 -0.190092 1.56449 0
M  V30 1481 C 135.755 -0.907908 1.80559 0
M  V30 1482 C 136.076 -1.83583 0.657438 0
M  V30 1483 O 135.346 -1.93203 -0.323924 0
M  V30 1484 H 133.926 -0.338247 0.666032 0
M  V30 1485 H 136.588 -0.194403 1.93928 0
M  V30 1486 H 135.684 -1.49604 2.73907 0
M  V30 1487 N 135.985 -1.50799 -0.457987 0
M  V30 1488 C 136.915 -1.73553 -1.5621 0
M  V30 1489 C 137.896 -0.584774 -1.59732 0
M  V30 1490 O 139.081 -0.825314 -1.7579 0
M  V30 1491 C 136.211 -1.84169 -2.94447 0
M  V30 1492 C 135.165 -2.99461 -3.0579 0
M  V30 1493 C 134.491 -2.95235 -4.45803 0
M  V30 1494 C 135.791 -4.39766 -2.81786 0
M  V30 1495 H 137.485 -2.66 -1.37421 0
M  V30 1496 H 135.031 -1.28002 -0.659662 0
M  V30 1497 H 136.984 -1.98672 -3.71628 0
M  V30 1498 H 135.708 -0.883545 -3.14422 0
M  V30 1499 H 134.367 -2.8463 -2.31044 0
M  V30 1500 H 134.015 -1.97239 -4.62715 0
M  V30 1501 H 133.715 -3.72642 -4.54326 0
M  V30 1502 H 135.239 -3.11803 -5.24987 0
M  V30 1503 H 136.653 -4.55054 -3.4871 0
M  V30 1504 H 135.05 -5.18722 -3.0174 0
M  V30 1505 H 136.12 -4.51229 -1.7754 0
M  V30 1506 N 137.463 0.71206 -1.40597 0
M  V30 1507 C 138.712 1.46754 -1.38369 0
M  V30 1508 C 139.025 1.95598 0.0097839 0
M  V30 1509 O 140.231 2.71059 0.154677 0
M  V30 1510 C 138.687 2.65289 -2.43207 0
M  V30 1511 C 138.295 2.23301 -3.88382 0
M  V30 1512 C 140.039 3.43008 -2.50091 0
M  V30 1513 C 137.946 3.38696 -4.84808 0
M  V30 1514 H 136.876 0.55118 -0.514506 0
M  V30 1515 H 139.527 0.774616 -1.66349 0
M  V30 1516 H 137.909 3.36769 -2.08332 0
M  V30 1517 H 139.083 1.59218 -4.32419 0
M  V30 1518 H 137.398 1.58618 -3.85006 0
M  V30 1519 H 139.995 4.28881 -3.1932 0
M  V30 1520 H 140.338 3.87065 -1.53253 0
M  V30 1521 H 140.871 2.78574 -2.83974 0
M  V30 1522 H 137.61 2.99668 -5.82992 0
M  V30 1523 H 137.13 4.01683 -4.45433 0
M  V30 1524 H 138.809 4.04712 -5.04794 0
M  V30 1525 N 138.941 1.26152 0.944643 0
M  V30 1526 C 139.873 1.03199 2.04652 0
M  V30 1527 C 140.886 -0.00642356 1.62799 0
M  V30 1528 O 142.075 0.233263 1.76969 0
M  V30 1529 C 139.175 0.540111 3.34568 0
M  V30 1530 C 138.348 1.64697 4.05208 0
M  V30 1531 C 137.407 1.15374 5.13396 0
M  V30 1532 O 136.433 1.85013 5.38293 0
M  V30 1533 N 137.635 0.00031529 5.805 0
M  V30 1534 H 140.4 1.9808 2.2491 0
M  V30 1535 H 137.961 1.17491 1.11389 0
M  V30 1536 H 139.953 0.194401 4.04233 0
M  V30 1537 H 138.523 -0.315021 3.11009 0
M  V30 1538 H 137.743 2.16379 3.29506 0
M  V30 1539 H 139.031 2.3903 4.49157 0
M  V30 1540 H 138.429 -0.581336 5.62705 0
M  V30 1541 H 136.986 -0.286346 6.51171 0
M  V30 1542 N 140.419 -1.14872 1.07899 0
M  V30 1543 C 141.667 -1.85422 0.803941 0
M  V30 1544 C 141.988 -1.83051 -0.67211 0
M  V30 1545 O 141.258 -1.27532 -1.48703 0
M  V30 1546 H 139.838 -0.686537 0.294408 0
M  V30 1547 H 142.5 -1.39226 1.3639 0
M  V30 1548 H 141.596 -2.90399 1.14346 0
M  V30 1549 N 141.898 -0.863906 -1.31812 0
M  V30 1550 C 142.83 -0.272485 -2.27575 0
M  V30 1551 C 143.843 0.56104 -1.52827 0
M  V30 1552 O 145.032 0.384021 -1.7432 0
M  V30 1553 C 142.132 0.63283 -3.32939 0
M  V30 1554 C 141.305 -0.166902 -4.37081 0
M  V30 1555 C 140.364 0.665608 -5.21973 0
M  V30 1556 O 139.39 0.0958091 -5.69119 0
M  V30 1557 N 140.592 1.9787 -5.45736 0
M  V30 1558 H 143.357 -1.0954 -2.78964 0
M  V30 1559 H 140.918 -0.724791 -1.4477 0
M  V30 1560 H 142.91 1.19532 -3.86645 0
M  V30 1561 H 141.48 1.35642 -2.81638 0
M  V30 1562 H 140.7 -0.910838 -3.83533 0
M  V30 1563 H 141.988 -0.715874 -5.03739 0
M  V30 1564 H 141.386 2.46484 -5.09178 0
M  V30 1565 H 139.943 2.48911 -6.024 0
M  V30 1566 N 143.376 1.44774 -0.622745 0
M  V30 1567 C 144.792 1.56986 -0.287652 0
M  V30 1568 C 144.992 1.61167 1.20944 0
M  V30 1569 O 144.048 1.55015 1.99315 0
M  V30 1570 C 145.361 2.84551 -0.972188 0
M  V30 1571 C 146.909 2.9825 -0.949536 0
M  V30 1572 C 147.384 4.28605 -1.61437 0
M  V30 1573 N 148.875 4.35399 -1.58057 0
M  V30 1574 C 149.61 5.34964 -2.064 0
M  V30 1575 N 149.106 6.40981 -2.62897 0
M  V30 1576 N 150.899 5.26419 -1.97078 0
M  V30 1577 H 143.05 1.40304 -1.59463 0
M  V30 1578 H 145.313 0.671794 -0.668878 0
M  V30 1579 H 145.019 2.87417 -2.02693 0
M  V30 1580 H 144.893 3.73807 -0.504771 0
M  V30 1581 H 147.28 2.94941 0.0967067 0
M  V30 1582 H 147.361 2.10364 -1.45536 0
M  V30 1583 H 147.005 4.32672 -2.66002 0
M  V30 1584 H 146.935 5.15334 -1.08344 0
M  V30 1585 H 149.426 3.59397 -1.16801 0
M  V30 1586 H 149.739 7.13225 -2.97539 0
M  V30 1587 H 148.084 6.4169 -2.66943 0
M  V30 1588 H 151.275 4.42504 -1.52669 0
M  V30 1589 H 151.448 6.03861 -2.35066 0
M  V30 1590 N 144.854 0.36279 1.53368 0
M  V30 1591 C 145.817 -0.472679 2.24273 0
M  V30 1592 C 146.817 -1.012 1.24961 0
M  V30 1593 O 148.007 -0.898194 1.49259 0
M  V30 1594 C 145.139 -1.66039 2.97731 0
M  V30 1595 H 146.332 0.14773 2.99536 0
M  V30 1596 H 143.885 0.114434 1.55881 0
M  V30 1597 H 144.62 -2.31896 2.26704 0
M  V30 1598 H 144.405 -1.28066 3.70596 0
M  V30 1599 H 145.895 -2.25252 3.51641 0
M  V30 1600 N 146.332 -1.57332 0.0918853 0
M  V30 1601 C 147.572 -1.96117 -0.575988 0
M  V30 1602 C 147.936 -0.972499 -1.65549 0
M  V30 1603 O 149.137 -1.24872 -2.38034 0
M  V30 1604 C 147.408 -3.39407 -1.11973 0
M  V30 1605 S 148.967 -4.00185 -1.79992 0
M  V30 1606 H 145.785 -0.685682 -0.188045 0
M  V30 1607 H 148.387 -1.94755 0.170525 0
M  V30 1608 H 147.091 -4.09131 -0.322504 0
M  V30 1609 H 146.622 -3.44358 -1.90214 0
M  V30 1610 H 148.637 -3.88728 -3.08391 0
M  V30 1611 N 147.81 0.181792 -1.56548 0
M  V30 1612 C 148.74 1.22765 -1.98623 0
M  V30 1613 C 149.721 1.46747 -0.860189 0
M  V30 1614 O 150.906 1.58259 -1.12551 0
M  V30 1615 C 148.036 2.56894 -2.33715 0
M  V30 1616 C 146.99 2.475 -3.49182 0
M  V30 1617 C 146.316 3.86023 -3.69986 0
M  V30 1618 C 147.616 1.98866 -4.82959 0
M  V30 1619 H 149.31 0.877942 -2.86239 0
M  V30 1620 H 146.856 0.42088 -1.37712 0
M  V30 1621 H 148.809 3.30253 -2.61746 0
M  V30 1622 H 147.533 2.93632 -1.42997 0
M  V30 1623 H 146.192 1.76596 -3.21262 0
M  V30 1624 H 145.84 4.20136 -2.76576 0
M  V30 1625 H 145.54 3.80609 -4.47672 0
M  V30 1626 H 147.064 4.60984 -4.00407 0
M  V30 1627 H 148.478 2.61992 -5.09934 0
M  V30 1628 H 146.875 2.04424 -5.64208 0
M  V30 1629 H 147.945 0.942465 -4.75653 0
M  V30 1630 N 149.288 1.51039 0.449983 0
M  V30 1631 C 150.251 1.70863 1.5277 0
M  V30 1632 C 151.251 0.578846 1.5002 0
M  V30 1633 O 152.441 0.846213 1.52266 0
M  V30 1634 C 149.573 1.75341 2.9235 0
M  V30 1635 H 150.766 2.67034 1.36502 0
M  V30 1636 H 148.319 1.40838 0.677812 0
M  V30 1637 H 149.054 0.809383 3.14037 0
M  V30 1638 H 148.839 2.57436 2.95752 0
M  V30 1639 H 150.329 1.92559 3.70555 0
M  V30 1640 N 150.766 -0.704594 1.40972 0
M  V30 1641 C 151.676 -1.84856 1.44448 0
M  V30 1642 C 152.692 -1.70726 0.335961 0
M  V30 1643 O 153.868 -1.92799 0.582276 0
M  V30 1644 C 150.933 -3.20758 1.31587 0
M  V30 1645 C 149.994 -3.47063 2.52677 0
M  V30 1646 C 149.227 -4.76481 2.4042 0
M  V30 1647 O 149.45 -5.52341 1.42391 0
M  V30 1648 O 148.384 -5.03367 3.30007 0
M  V30 1649 H 152.21 -1.8488 2.40942 0
M  V30 1650 H 149.795 -0.85647 1.22413 0
M  V30 1651 H 151.677 -4.01913 1.26665 0
M  V30 1652 H 150.352 -3.21438 0.382049 0
M  V30 1653 H 149.259 -2.65873 2.63177 0
M  V30 1654 H 150.592 -3.5119 3.44858 0
M  V30 1655 N 152.244 -1.26651 -0.937939 0
M  V30 1656 C 153.207 -1.08546 -2.01867 0
M  V30 1657 C 154.207 -0.0327327 -1.60767 0
M  V30 1658 O 155.397 -0.276427 -1.71993 0
M  V30 1659 C 152.529 -0.651711 -3.34613 0
M  V30 1660 H 153.722 -2.04502 -2.1936 0
M  V30 1661 H 151.275 -1.09294 -1.11734 0
M  V30 1662 H 152.01 0.309696 -3.22818 0
M  V30 1663 H 151.795 -1.41189 -3.65798 0
M  V30 1664 H 153.285 -0.546973 -4.14002 0
M  V30 1665 N 153.722 1.14298 -1.08507 0
M  V30 1666 C 154.971 1.84708 -0.810305 0
M  V30 1667 C 155.284 1.83903 0.666271 0
M  V30 1668 O 156.49 2.50112 1.05624 0
M  V30 1669 C 154.946 3.31572 -1.39957 0
M  V30 1670 C 154.554 3.40791 -2.90801 0
M  V30 1671 C 156.298 4.07087 -1.20334 0
M  V30 1672 C 154.205 4.81872 -3.4286 0
M  V30 1673 H 153.135 0.691985 -0.299454 0
M  V30 1674 H 155.786 1.28841 -1.30661 0
M  V30 1675 H 154.168 3.87183 -0.830976 0
M  V30 1676 H 155.342 2.95225 -3.53806 0
M  V30 1677 H 153.657 2.78732 -3.0935 0
M  V30 1678 H 156.254 5.11225 -1.56693 0
M  V30 1679 H 156.597 4.16054 -0.143237 0
M  V30 1680 H 157.13 3.57779 -1.73893 0
M  V30 1681 H 153.869 4.78094 -4.48449 0
M  V30 1682 H 153.389 5.27972 -2.84615 0
M  V30 1683 H 155.068 5.50765 -3.39509 0
M  V30 1684 N 155.201 0.870884 1.31352 0
M  V30 1685 C 156.429 0.49677 2.00848 0
M  V30 1686 C 156.844 -0.910998 1.65367 0
M  V30 1687 O 156.201 -1.59696 0.883374 0
M  V30 1688 C 156.252 0.645308 3.55694 0
M  V30 1689 O 155.973 1.99764 3.89905 0
M  V30 1690 C 157.474 0.272326 4.42463 0
M  V30 1691 H 154.694 0.193462 0.642506 0
M  V30 1692 H 157.238 1.1723 1.67563 0
M  V30 1693 H 155.393 0.0173176 3.87396 0
M  V30 1694 H 155.807 2.00607 4.84621 0
M  V30 1695 H 157.281 0.427208 5.50344 0
M  V30 1696 H 157.758 -0.788587 4.32062 0
M  V30 1697 H 158.364 0.876054 4.1618 0
M  V30 1698 N 156.679 -1.44442 0.630414 0
M  V30 1699 C 157.609 -2.33418 -0.0618083 0
M  V30 1700 C 158.59 -1.48165 -0.835541 0
M  V30 1701 O 159.775 -1.76886 -0.801564 0
M  V30 1702 C 156.905 -3.31222 -1.04449 0
M  V30 1703 C 155.859 -4.26288 -0.382436 0
M  V30 1704 C 155.185 -5.13954 -1.47497 0
M  V30 1705 C 156.485 -5.1744 0.710865 0
M  V30 1706 H 158.179 -2.91548 0.681184 0
M  V30 1707 H 155.725 -1.40191 0.329026 0
M  V30 1708 H 157.678 -3.92351 -1.53748 0
M  V30 1709 H 156.402 -2.71299 -1.81836 0
M  V30 1710 H 155.061 -3.6649 0.0899054 0
M  V30 1711 H 154.709 -4.50385 -2.2397 0
M  V30 1712 H 154.409 -5.7837 -1.03737 0
M  V30 1713 H 155.933 -5.77955 -1.96979 0
M  V30 1714 H 157.347 -5.72509 0.300996 0
M  V30 1715 H 155.744 -5.90455 1.07156 0
M  V30 1716 H 156.814 -4.58496 1.57829 0
M  V30 1717 N 158.157 -0.370918 -1.53173 0
M  V30 1718 C 159.403 0.217423 -2.01631 0
M  V30 1719 C 159.736 1.47983 -1.25756 0
M  V30 1720 O 159.011 1.91274 -0.352764 0
M  V30 1721 C 159.294 0.503982 -3.56556 0
M  V30 1722 C 159.147 -0.77243 -4.43118 0
M  V30 1723 C 160.466 1.30234 -4.20389 0
M  V30 1724 H 157.585 0.0775486 -0.732909 0
M  V30 1725 H 160.227 -0.496863 -1.83388 0
M  V30 1726 H 158.377 1.11248 -3.72231 0
M  V30 1727 H 160.049 -1.4098 -4.39229 0
M  V30 1728 H 158.292 -1.39167 -4.10871 0
M  V30 1729 H 158.963 -0.526815 -5.4948 0
M  V30 1730 H 161.439 0.787546 -4.08579 0
M  V30 1731 H 160.315 1.47158 -5.28806 0
M  V30 1732 H 160.576 2.31237 -3.76805 0
M  V30 1733 N 159.635 1.57281 -0.100228 0
M  V30 1734 C 160.545 2.17833 0.870965 0
M  V30 1735 C 161.561 1.14921 1.30649 0
M  V30 1736 O 162.737 1.47313 1.37335 0
M  V30 1737 C 159.802 2.75085 2.1102 0
M  V30 1738 C 158.863 3.9297 1.72838 0
M  V30 1739 C 158.096 4.47482 2.90854 0
M  V30 1740 O 158.319 4.00922 4.05731 0
M  V30 1741 O 157.253 5.38433 2.69023 0
M  V30 1742 H 161.079 3.0124 0.38575 0
M  V30 1743 H 158.664 1.48881 0.124397 0
M  V30 1744 H 160.546 3.11656 2.83634 0
M  V30 1745 H 159.221 1.94721 2.58584 0
M  V30 1746 H 158.128 3.61201 0.973883 0
M  V30 1747 H 159.461 4.74713 1.30033 0
M  V30 1748 N 161.113 -0.173488 1.56642 0
M  V30 1749 C 162.338 -0.910149 1.86363 0
M  V30 1750 C 162.763 -1.75132 0.686318 0
M  V30 1751 O 162.121 -1.77595 -0.364643 0
M  V30 1752 C 162.169 -1.76447 3.14482 0
M  V30 1753 O 161.273 -2.86584 2.96553 0
M  V30 1754 H 160.614 -0.255086 0.613047 0
M  V30 1755 H 163.144 -0.172283 2.03873 0
M  V30 1756 H 163.154 -2.16483 3.45831 0
M  V30 1757 H 161.829 -1.14658 3.99783 0
M  V30 1758 H 160.406 -2.50146 2.76553 0
M  V30 1759 N 162.591 -1.51276 -0.441967 0
M  V30 1760 C 163.819 -1.67516 -1.21434 0
M  V30 1761 C 164.234 -0.37055 -1.85128 0
M  V30 1762 O 163.591 0.650498 -1.70513 0
M  V30 1763 C 163.642 -2.78748 -2.30177 0
M  V30 1764 O 163.363 -4.04154 -1.69089 0
M  V30 1765 C 164.864 -3.06217 -3.20541 0
M  V30 1766 H 162.084 -0.562276 -0.366178 0
M  V30 1767 H 164.628 -1.97666 -0.524244 0
M  V30 1768 H 162.783 -2.5121 -2.94911 0
M  V30 1769 H 163.197 -4.65894 -2.40922 0
M  V30 1770 H 164.671 -3.8764 -3.92987 0
M  V30 1771 H 165.148 -2.18439 -3.81026 0
M  V30 1772 H 165.754 -3.35397 -2.61513 0
M  V30 1773 N 164.069 0.697108 -1.41344 0
M  V30 1774 C 165.019 1.80313 -1.39539 0
M  V30 1775 C 166.003 1.58618 -0.270001 0
M  V30 1776 O 167.195 1.69477 -0.510551 0
M  V30 1777 C 164.324 3.18606 -1.27848 0
M  V30 1778 C 163.41 3.46001 -2.45244 0
M  V30 1779 N 163.801 3.44103 -3.70711 0
M  V30 1780 C 162.099 3.76542 -2.39023 0
M  V30 1781 C 162.8 3.7036 -4.48563 0
M  V30 1782 N 161.776 3.90027 -3.78655 0
M  V30 1783 H 165.578 1.77207 -2.34468 0
M  V30 1784 H 163.092 0.897031 -1.35378 0
M  V30 1785 H 165.089 3.97833 -1.24637 0
M  V30 1786 H 163.749 3.22925 -0.339032 0
M  V30 1787 H 164.76 3.2452 -4.03618 0
M  V30 1788 H 161.437 3.88241 -1.53542 0
M  V30 1789 H 162.827 3.75042 -5.57488 0
M  V30 1790 N 165.547 1.27147 0.931209 0
M  V30 1791 C 166.772 1.16191 1.71797 0
M  V30 1792 C 167.197 -0.278004 1.86034 0
M  V30 1793 O 166.555 -1.20137 1.35782 0
M  V30 1794 C 166.603 1.84673 3.09723 0
M  V30 1795 O 165.707 1.14231 3.96264 0
M  V30 1796 H 165.048 0.404303 0.526721 0
M  V30 1797 H 167.578 1.68152 1.1656 0
M  V30 1798 H 167.588 1.91893 3.60057 0
M  V30 1799 H 166.263 2.89421 2.98677 0
M  V30 1800 H 164.84 1.15056 3.54706 0
M  V30 1801 N 167.025 -1.13721 1.09112 0
M  V30 1802 C 168.441 -1.36914 0.820174 0
M  V30 1803 C 168.641 -1.93356 -0.567079 0
M  V30 1804 O 167.697 -2.15093 -1.32255 0
M  V30 1805 C 169.01 -2.3235 1.90877 0
M  V30 1806 C 170.558 -2.45973 1.93562 0
M  V30 1807 C 171.033 -3.44714 3.01556 0
M  V30 1808 N 172.524 -3.52263 3.00775 0
M  V30 1809 C 173.259 -4.28536 3.80978 0
M  V30 1810 N 172.755 -5.07991 4.71081 0
M  V30 1811 N 174.548 -4.23804 3.69251 0
M  V30 1812 H 166.699 -0.754348 1.98553 0
M  V30 1813 H 168.962 -0.3944 0.862063 0
M  V30 1814 H 168.668 -1.98027 2.90651 0
M  V30 1815 H 168.542 -3.32332 1.78424 0
M  V30 1816 H 170.929 -2.79584 0.944286 0
M  V30 1817 H 171.01 -1.45926 2.10093 0
M  V30 1818 H 170.654 -3.11835 4.00901 0
M  V30 1819 H 170.584 -4.44558 2.82269 0
M  V30 1820 H 173.075 -2.95567 2.35475 0
M  V30 1821 H 173.388 -5.63487 5.28869 0
M  V30 1822 H 171.733 -5.07235 4.75119 0
M  V30 1823 H 174.924 -3.60806 2.98222 0
M  V30 1824 H 175.097 -4.82995 4.31995 0
M  V30 1825 N 168.503 -0.877838 -1.30888 0
M  V30 1826 C 169.45 -0.337538 -2.28318 0
M  V30 1827 C 170.42 0.568346 -1.56074 0
M  V30 1828 O 171.605 0.498298 -1.84178 0
M  V30 1829 C 168.745 0.448142 -3.42178 0
M  V30 1830 C 167.858 -0.48615 -4.29256 0
M  V30 1831 C 166.993 0.314427 -5.30269 0
M  V30 1832 C 166.032 -0.615791 -6.08995 0
M  V30 1833 N 165.169 0.14902 -7.01942 0
M  V30 1834 H 170.009 -1.17356 -2.73919 0
M  V30 1835 H 167.546 -0.590094 -1.34745 0
M  V30 1836 H 169.504 0.919517 -4.06941 0
M  V30 1837 H 168.134 1.24879 -2.97666 0
M  V30 1838 H 167.186 -1.076 -3.64865 0
M  V30 1839 H 168.498 -1.19909 -4.84173 0
M  V30 1840 H 167.652 0.847969 -6.00745 0
M  V30 1841 H 166.391 1.06062 -4.76027 0
M  V30 1842 H 165.396 -1.16102 -5.37401 0
M  V30 1843 H 166.621 -1.36097 -6.65323 0
M  V30 1844 H 164.567 0.877884 -6.50099 0
M  V30 1845 H 164.484 -0.504433 -7.54315 0
M  V30 1846 H 165.752 0.663537 -7.76671 0
M  V30 1847 N 169.982 1.44106 -0.638065 0
M  V30 1848 C 170.929 2.30715 0.062701 0
M  V30 1849 C 171.899 1.43882 0.829883 0
M  V30 1850 O 173.084 1.72775 0.809532 0
M  V30 1851 C 170.224 3.29258 1.03358 0
M  V30 1852 C 169.337 4.31192 0.26409 0
M  V30 1853 C 168.472 5.16825 1.22741 0
M  V30 1854 C 167.511 6.10462 0.447475 0
M  V30 1855 N 166.648 6.8877 1.36161 0
M  V30 1856 H 171.488 2.90096 -0.681781 0
M  V30 1857 H 169.025 1.42925 -0.347988 0
M  V30 1858 H 170.983 3.84886 1.60992 0
M  V30 1859 H 169.613 2.71562 1.74511 0
M  V30 1860 H 168.665 3.77981 -0.428295 0
M  V30 1861 H 169.977 4.97619 -0.343052 0
M  V30 1862 H 169.131 5.77004 1.87487 0
M  V30 1863 H 167.87 4.50488 1.86847 0
M  V30 1864 H 166.875 5.49386 -0.213433 0
M  V30 1865 H 168.1 6.78837 -0.188968 0
M  V30 1866 H 166.046 6.25096 1.98975 0
M  V30 1867 H 165.963 7.51663 0.808656 0
M  V30 1868 H 167.231 7.53467 1.99769 0
M  V30 1869 N 171.46 0.379036 1.52974 0
M  V30 1870 C 172.37 -0.468639 2.29872 0
M  V30 1871 C 173.386 -1.08067 1.36373 0
M  V30 1872 O 174.562 -1.08871 1.69438 0
M  V30 1873 C 171.627 -1.58594 3.083 0
M  V30 1874 C 170.688 -1.00007 4.17489 0
M  V30 1875 C 169.921 -2.06413 4.92168 0
M  V30 1876 O 170.144 -3.27751 4.66835 0
M  V30 1877 O 169.078 -1.68717 5.7777 0
M  V30 1878 H 172.904 0.157508 3.03291 0
M  V30 1879 H 170.489 0.143035 1.48714 0
M  V30 1880 H 172.371 -2.23525 3.57232 0
M  V30 1881 H 171.046 -2.19724 2.37703 0
M  V30 1882 H 169.953 -0.314299 3.72777 0
M  V30 1883 H 171.286 -0.433135 4.90291 0
M  V30 1884 N 172.938 -1.57226 0.108567 0
M  V30 1885 C 173.868 -2.17778 -0.84232 0
M  V30 1886 C 174.849 -1.11487 -1.2847 0
M  V30 1887 O 176.034 -1.39681 -1.34918 0
M  V30 1888 C 173.164 -2.76888 -2.09644 0
M  V30 1889 C 172.118 -3.88669 -1.79221 0
M  V30 1890 C 171.444 -4.34541 -3.11574 0
M  V30 1891 C 172.744 -5.11251 -1.06864 0
M  V30 1892 H 174.438 -2.97489 -0.337774 0
M  V30 1893 H 171.984 -1.43097 -0.161025 0
M  V30 1894 H 173.937 -3.17904 -2.76614 0
M  V30 1895 H 172.661 -1.94451 -2.62405 0
M  V30 1896 H 171.32 -3.48213 -1.14644 0
M  V30 1897 H 170.968 -3.48977 -3.62249 0
M  V30 1898 H 170.668 -5.09914 -2.91996 0
M  V30 1899 H 172.192 -4.782 -3.7968 0
M  V30 1900 H 173.606 -5.49352 -1.63968 0
M  V30 1901 H 172.003 -5.9214 -0.974178 0
M  V30 1902 H 173.073 -4.8487 -0.0536168 0
M  V30 1903 N 174.416 0.165178 -1.56732 0
M  V30 1904 C 175.379 1.18822 -1.95995 0
M  V30 1905 C 176.379 1.3685 -0.84431 0
M  V30 1906 O 177.569 1.34152 -1.11126 0
M  V30 1907 C 174.701 2.5521 -2.26011 0
M  V30 1908 H 175.894 0.851825 -2.87548 0
M  V30 1909 H 173.447 0.407857 -1.50885 0
M  V30 1910 H 174.182 2.93852 -1.37191 0
M  V30 1911 H 173.967 2.43489 -3.07336 0
M  V30 1912 H 175.457 3.28927 -2.57288 0
M  V30 1913 N 175.894 1.51508 0.433938 0
M  V30 1914 C 176.826 1.69266 1.54537 0
M  V30 1915 C 177.839 0.573276 1.52373 0
M  V30 1916 O 179.028 0.847698 1.57087 0
M  V30 1917 C 176.128 1.69524 2.93453 0
M  V30 1918 C 175.301 2.98101 3.20085 0
M  V30 1919 C 174.36 2.90502 4.38742 0
M  V30 1920 O 173.386 3.64442 4.3723 0
M  V30 1921 N 174.588 2.06586 5.42496 0
M  V30 1922 H 177.353 2.65145 1.39708 0
M  V30 1923 H 174.914 1.49437 0.622922 0
M  V30 1924 H 176.906 1.62004 3.70859 0
M  V30 1925 H 175.476 0.812245 3.01863 0
M  V30 1926 H 174.696 3.19464 2.30947 0
M  V30 1927 H 175.984 3.83207 3.34708 0
M  V30 1928 H 175.382 1.45896 5.46563 0
M  V30 1929 H 173.939 2.04943 6.18742 0
M  V30 1930 N 177.372 -0.689602 1.41712 0
M  V30 1931 C 178.618 -1.45181 1.41599 0
M  V30 1932 C 178.951 -1.94181 0.0270081 0
M  V30 1933 O 178.226 -1.6993 -0.946265 0
M  V30 1934 C 178.509 -2.65945 2.42787 0
M  V30 1935 C 178.362 -2.22672 3.90816 0
M  V30 1936 C 179.681 -3.68149 2.41151 0
M  V30 1937 H 176.8 -0.526576 0.515642 0
M  V30 1938 H 179.442 -0.784947 1.73028 0
M  V30 1939 H 177.592 -3.2284 2.16116 0
M  V30 1940 H 179.264 -1.71058 4.28412 0
M  V30 1941 H 177.507 -1.54394 4.05395 0
M  V30 1942 H 178.178 -3.0935 4.57172 0
M  V30 1943 H 180.654 -3.2094 2.64834 0
M  V30 1944 H 179.53 -4.50248 3.13955 0
M  V30 1945 H 179.791 -4.18259 1.43221 0
M  V30 1946 N 178.85 -1.27639 -0.924453 0
M  V30 1947 C 179.78 -1.13166 -2.04244 0
M  V30 1948 C 180.761 -0.032256 -1.70069 0
M  V30 1949 O 181.946 -0.207328 -1.9309 0
M  V30 1950 C 179.076 -0.781496 -3.38393 0
M  V30 1951 C 178.03 -1.83449 -3.86692 0
M  V30 1952 C 177.356 -1.33822 -5.17683 0
M  V30 1953 C 178.656 -3.23917 -4.09726 0
M  V30 1954 H 180.35 -2.06689 -2.1661 0
M  V30 1955 H 177.896 -0.995136 -1.04082 0
M  V30 1956 H 179.849 -0.667057 -4.16087 0
M  V30 1957 H 178.573 0.189439 -3.2605 0
M  V30 1958 H 177.232 -1.93789 -3.11193 0
M  V30 1959 H 176.88 -0.35665 -5.01734 0
M  V30 1960 H 176.58 -2.04224 -5.50968 0
M  V30 1961 H 178.104 -1.23679 -5.97943 0
M  V30 1962 H 179.518 -3.16559 -4.77978 0
M  V30 1963 H 177.915 -3.92059 -4.54324 0
M  V30 1964 H 178.985 -3.68729 -3.14908 0
M  V30 1965 N 180.328 1.1314 -1.09713 0
M  V30 1966 C 181.258 2.20748 -0.761102 0
M  V30 1967 C 182.239 1.68061 0.262566 0
M  V30 1968 O 183.424 1.93765 0.129977 0
M  V30 1969 C 180.554 3.46812 -0.184054 0
M  V30 1970 C 179.508 4.12606 -1.13757 0
M  V30 1971 C 178.834 5.33031 -0.422083 0
M  V30 1972 C 180.134 4.59603 -2.48118 0
M  V30 1973 H 181.828 2.49113 -1.66082 0
M  V30 1974 H 179.374 1.19734 -0.799987 0
M  V30 1975 H 181.327 4.21353 0.0631215 0
M  V30 1976 H 180.051 3.17851 0.750868 0
M  V30 1977 H 178.71 3.40036 -1.37007 0
M  V30 1978 H 178.358 5.00335 0.517072 0
M  V30 1979 H 178.058 5.77999 -1.05788 0
M  V30 1980 H 179.582 6.10325 -0.183277 0
M  V30 1981 H 180.996 5.25552 -2.29059 0
M  V30 1982 H 179.393 5.15321 -3.07514 0
M  V30 1983 H 180.463 3.73971 -3.08665 0
M  V30 1984 N 181.806 0.884767 1.30421 0
M  V30 1985 C 182.738 0.308655 2.27112 0
M  V30 1986 C 183.751 -0.536655 1.53701 0
M  V30 1987 O 184.94 -0.35624 1.74909 0
M  V30 1988 C 182.04 -0.579782 3.33904 0
M  V30 1989 C 181.213 0.236417 4.36761 0
M  V30 1990 C 180.272 -0.582482 5.22966 0
M  V30 1991 O 179.298 -0.00525502 5.692 0
M  V30 1992 N 180.5 -1.89163 5.48815 0
M  V30 1993 H 183.265 1.13964 2.77186 0
M  V30 1994 H 180.826 0.747731 1.43599 0
M  V30 1995 H 182.818 -1.13366 3.88497 0
M  V30 1996 H 181.388 -1.31144 2.83761 0
M  V30 1997 H 180.608 0.97174 3.82035 0
M  V30 1998 H 181.896 0.795924 5.02536 0
M  V30 1999 H 181.294 -2.38352 5.13035 0
M  V30 2000 H 179.851 -2.39296 6.06284 0
M  V30 2001 N 183.284 -1.43765 0.645699 0
M  V30 2002 C 184.231 -2.30745 -0.0504648 0
M  V30 2003 C 185.201 -1.4432 -0.822241 0
M  V30 2004 O 186.386 -1.73202 -0.800358 0
M  V30 2005 C 183.526 -3.29802 -1.0161 0
M  V30 2006 C 182.639 -4.31326 -0.241219 0
M  V30 2007 C 181.774 -5.17469 -1.19998 0
M  V30 2008 C 180.813 -6.10691 -0.415094 0
M  V30 2009 N 179.95 -6.89483 -1.32506 0
M  V30 2010 H 184.79 -2.8973 0.697155 0
M  V30 2011 H 182.327 -1.42738 0.355563 0
M  V30 2012 H 184.285 -3.85734 -1.58949 0
M  V30 2013 H 182.915 -2.72483 -1.73069 0
M  V30 2014 H 181.967 -3.77749 0.448334 0
M  V30 2015 H 183.279 -4.9743 0.369437 0
M  V30 2016 H 182.433 -5.7799 -1.84424 0
M  V30 2017 H 181.172 -4.51473 -1.84455 0
M  V30 2018 H 180.177 -5.49265 0.242565 0
M  V30 2019 H 181.402 -6.78727 0.224966 0
M  V30 2020 H 179.348 -6.26142 -1.95657 0
M  V30 2021 H 179.265 -7.52081 -0.768783 0
M  V30 2022 H 180.533 -7.54516 -1.9577 0
M  V30 2023 N 184.763 -0.387143 -1.52771 0
M  V30 2024 C 186.009 0.196025 -2.0185 0
M  V30 2025 C 186.342 1.46641 -1.27319 0
M  V30 2026 O 185.617 1.90889 -0.373032 0
M  V30 2027 C 185.9 0.466136 -3.5707 0
M  V30 2028 C 185.753 -0.819385 -4.42274 0
M  V30 2029 C 187.072 1.25768 -4.21747 0
M  V30 2030 H 184.191 0.0697708 -0.73369 0
M  V30 2031 H 186.833 -0.516286 -1.82851 0
M  V30 2032 H 184.983 1.07293 -3.7339 0
M  V30 2033 H 186.655 -1.4563 -4.37709 0
M  V30 2034 H 184.898 -1.43517 -4.09372 0
M  V30 2035 H 185.569 -0.585065 -5.48891 0
M  V30 2036 H 188.045 0.744167 -4.09391 0
M  V30 2037 H 186.921 1.41541 -5.30337 0
M  V30 2038 H 187.182 2.27228 -3.79236 0
M  V30 2039 N 186.241 1.57166 -0.116904 0
M  V30 2040 C 187.171 2.18222 0.830759 0
M  V30 2041 C 188.152 1.12167 1.27877 0
M  V30 2042 O 189.337 1.40394 1.34176 0
M  V30 2043 C 186.467 2.77996 2.08172 0
M  V30 2044 C 185.421 3.89614 1.77157 0
M  V30 2045 C 184.747 4.36187 3.09265 0
M  V30 2046 C 186.047 5.1181 1.04151 0
M  V30 2047 H 187.741 2.97664 0.321992 0
M  V30 2048 H 185.287 1.4318 0.153434 0
M  V30 2049 H 187.24 3.19366 2.74924 0
M  V30 2050 H 185.964 1.9584 2.6137 0
M  V30 2051 H 184.623 3.48816 1.12796 0
M  V30 2052 H 184.271 3.50893 3.60393 0
M  V30 2053 H 183.971 5.11455 2.89288 0
M  V30 2054 H 185.495 4.80207 3.77139 0
M  V30 2055 H 186.909 5.50214 1.61052 0
M  V30 2056 H 185.306 5.92648 0.942762 0
M  V30 2057 H 186.376 4.84892 0.0279022 0
M  V30 2058 N 187.719 -0.156864 1.56817 0
M  V30 2059 C 188.649 -1.19589 2.00551 0
M  V30 2060 C 189.63 -1.4536 0.883426 0
M  V30 2061 O 190.815 -1.56449 1.15054 0
M  V30 2062 C 187.945 -2.53143 2.37773 0
M  V30 2063 C 186.899 -2.41913 3.53075 0
M  V30 2064 C 186.225 -3.80088 3.76081 0
M  V30 2065 C 187.525 -1.91157 4.86062 0
M  V30 2066 H 189.219 -0.832293 2.87599 0
M  V30 2067 H 186.765 -0.398918 1.38364 0
M  V30 2068 H 188.718 -3.26047 2.66967 0
M  V30 2069 H 187.442 -2.91319 1.4765 0
M  V30 2070 H 186.101 -1.71462 3.24031 0
M  V30 2071 H 185.749 -4.15683 2.83225 0
M  V30 2072 H 185.449 -3.73439 4.53671 0
M  V30 2073 H 186.973 -4.54556 4.0769 0
M  V30 2074 H 188.387 -2.53846 5.14038 0
M  V30 2075 H 186.784 -1.95422 5.67389 0
M  V30 2076 H 187.854 -0.866673 4.77092 0
M  V30 2077 N 189.197 -1.51736 -0.425897 0
M  V30 2078 C 190.427 -1.68549 -1.19476 0
M  V30 2079 C 190.835 -0.387288 -1.85194 0
M  V30 2080 O 190.178 0.645142 -1.71999 0
M  V30 2081 C 190.24 -2.75275 -2.31223 0
M  V30 2082 C 189.904 -4.17534 -1.8578 0
M  V30 2083 C 190.901 -5.01936 -1.35485 0
M  V30 2084 C 188.586 -4.6369 -1.93123 0
M  V30 2085 C 190.58 -6.30559 -0.931347 0
M  V30 2086 C 188.267 -5.92307 -1.50384 0
M  V30 2087 C 189.265 -6.75569 -1.00473 0
M  V30 2088 O 188.953 -8.0178 -0.583452 0
M  V30 2089 H 188.685 -0.568525 -0.365725 0
M  V30 2090 H 191.239 -1.98982 -0.509444 0
M  V30 2091 H 189.469 -2.40182 -3.03067 0
M  V30 2092 H 191.158 -2.80853 -2.93047 0
M  V30 2093 H 191.924 -4.67475 -1.29197 0
M  V30 2094 H 187.803 -3.98997 -2.30916 0
M  V30 2095 H 191.347 -6.95498 -0.541084 0
M  V30 2096 H 187.244 -6.2628 -1.56346 0
M  V30 2097 H 188.012 -8.1543 -0.708275 0
M  V30 2098 N 190.675 0.682077 -1.42076 0
M  V30 2099 C 191.625 1.78823 -1.41444 0
M  V30 2100 C 192.609 1.58323 -0.28681 0
M  V30 2101 O 193.801 1.68926 -0.528498 0
M  V30 2102 C 190.93 3.17232 -1.3122 0
M  V30 2103 C 190.016 3.4338 -2.489 0
M  V30 2104 N 190.407 3.40152 -3.7434 0
M  V30 2105 C 188.705 3.73986 -2.43003 0
M  V30 2106 C 189.406 3.65581 -4.52466 0
M  V30 2107 N 188.382 3.85989 -3.8277 0
M  V30 2108 H 192.184 1.7471 -2.36334 0
M  V30 2109 H 189.698 0.882622 -1.36321 0
M  V30 2110 H 191.695 3.96489 -1.2885 0
M  V30 2111 H 190.355 3.22547 -0.373263 0
M  V30 2112 H 191.366 3.20221 -4.07037 0
M  V30 2113 H 188.043 3.86591 -1.57651 0
M  V30 2114 H 189.433 3.69108 -5.61435 0
M  V30 2115 N 192.153 1.28127 0.917671 0
M  V30 2116 C 193.569 1.05749 1.19538 0
M  V30 2117 C 193.769 -0.202633 2.00479 0
M  V30 2118 O 192.825 -0.905382 2.3571 0
M  V30 2119 C 194.138 2.30273 1.93378 0
M  V30 2120 C 195.686 2.35412 2.06277 0
M  V30 2121 C 196.161 3.59692 2.83524 0
M  V30 2122 N 197.652 3.60309 2.91087 0
M  V30 2123 C 198.387 4.53147 3.51348 0
M  V30 2124 N 197.883 5.563 4.12919 0
M  V30 2125 N 199.676 4.40751 3.48849 0
M  V30 2126 H 191.827 2.09024 0.377184 0
M  V30 2127 H 194.09 0.919798 0.22951 0
M  V30 2128 H 193.796 3.22055 1.41328 0
M  V30 2129 H 193.67 2.36378 2.93947 0
M  V30 2130 H 196.057 1.4413 2.57508 0
M  V30 2131 H 196.138 2.33304 1.04895 0
M  V30 2132 H 195.782 4.51316 2.32973 0
M  V30 2133 H 195.712 3.59054 3.85211 0
M  V30 2134 H 198.203 2.85714 2.47338 0
M  V30 2135 H 198.516 6.2329 4.56869 0
M  V30 2136 H 196.861 5.60131 4.11435 0
M  V30 2137 H 200.052 3.59367 2.99955 0
M  V30 2138 H 200.225 5.13291 3.9552 0
M  V30 2139 N 193.631 -1.12557 1.10312 0
M  V30 2140 C 194.541 -2.21841 0.763142 0
M  V30 2141 C 195.557 -1.72354 -0.238801 0
M  V30 2142 O 196.733 -2.01249 -0.0778746 0
M  V30 2143 C 193.798 -3.46131 0.198632 0
M  V30 2144 C 192.859 -4.10464 1.25769 0
M  V30 2145 C 192.092 -5.28821 0.72002 0
M  V30 2146 O 192.315 -5.6859 -0.453993 0
M  V30 2147 O 191.249 -5.83437 1.47935 0
M  V30 2148 H 195.075 -2.53312 1.67532 0
M  V30 2149 H 192.66 -1.20867 0.878157 0
M  V30 2150 H 194.542 -4.2125 -0.112401 0
M  V30 2151 H 193.217 -3.16338 -0.686419 0
M  V30 2152 H 192.124 -3.3713 1.62156 0
M  V30 2153 H 193.457 -4.44408 2.11571 0
M  V30 2154 N 195.109 -0.891671 -1.2995 0
M  V30 2155 C 196.041 -0.320695 -2.26945 0
M  V30 2156 C 197.054 0.528497 -1.53983 0
M  V30 2157 O 198.243 0.346959 -1.75096 0
M  V30 2158 C 195.343 0.562066 -3.34207 0
M  V30 2159 C 194.516 -0.259576 -4.36629 0
M  V30 2160 C 193.575 0.554739 -5.23268 0
M  V30 2161 O 192.601 -0.0249311 -5.69195 0
M  V30 2162 N 193.803 1.8625 -5.4981 0
M  V30 2163 H 196.568 -1.15432 -2.76578 0
M  V30 2164 H 194.129 -0.755336 -1.432 0
M  V30 2165 H 196.121 1.11304 -3.89093 0
M  V30 2166 H 194.691 1.29637 -2.84452 0
M  V30 2167 H 193.911 -0.991986 -3.81514 0
M  V30 2168 H 195.199 -0.822564 -5.02107 0
M  V30 2169 H 194.597 2.35628 -5.14292 0
M  V30 2170 H 193.154 2.36078 -6.07545 0
M  V30 2171 N 196.587 1.43421 -0.653314 0
M  V30 2172 C 197.497 2.34568 0.0388565 0
M  V30 2173 C 198.513 1.53888 0.81207 0
M  V30 2174 O 199.689 1.86539 0.759294 0
M  V30 2175 C 196.754 3.32167 0.993269 0
M  V30 2176 C 195.815 4.28751 0.216977 0
M  V30 2177 C 195.048 5.21688 1.12593 0
M  V30 2178 O 195.271 5.19052 2.36519 0
M  V30 2179 O 194.205 5.98919 0.598284 0
M  V30 2180 H 198.031 2.95251 -0.711386 0
M  V30 2181 H 195.616 1.43564 -0.413502 0
M  V30 2182 H 197.498 3.92183 1.54176 0
M  V30 2183 H 196.173 2.73987 1.72374 0
M  V30 2184 H 195.08 3.72215 -0.375101 0
M  V30 2185 H 196.413 4.89913 -0.473924 0
M  V30 2186 N 198.065 0.39524 1.52563 0
M  V30 2187 C 198.997 -0.472201 2.24283 0
M  V30 2188 C 200.01 -1.02178 1.26742 0
M  V30 2189 O 201.199 -0.923097 1.52778 0
M  V30 2190 C 198.299 -1.66775 2.95024 0
M  V30 2191 C 197.472 -1.2445 4.19322 0
M  V30 2192 C 196.531 -2.30539 4.7301 0
M  V30 2193 O 195.557 -1.91702 5.35947 0
M  V30 2194 N 196.759 -3.6253 4.53379 0
M  V30 2195 H 199.524 0.142282 2.99362 0
M  V30 2196 H 197.085 0.2219 1.60372 0
M  V30 2197 H 199.077 -2.37283 3.27839 0
M  V30 2198 H 197.647 -2.18845 2.23217 0
M  V30 2199 H 196.867 -0.368069 3.92478 0
M  V30 2200 H 198.155 -0.938457 5.0007 0
M  V30 2201 H 197.553 -3.96841 4.03154 0
M  V30 2202 H 196.11 -4.29055 4.90668 0
M  V30 2203 N 199.544 -1.57102 0.125237 0
M  V30 2204 C 200.769 -2.0019 -0.542101 0
M  V30 2205 C 201.194 -1.00449 -1.59034 0
M  V30 2206 O 200.552 0.0229423 -1.81285 0
M  V30 2207 C 200.6 -3.42129 -1.13929 0
M  V30 2208 O 199.704 -3.45307 -2.2547 0
M  V30 2209 H 199.045 -0.650171 -0.134812 0
M  V30 2210 H 201.575 -2.03461 0.215553 0
M  V30 2211 H 201.585 -3.80471 -1.4733 0
M  V30 2212 H 200.26 -4.14237 -0.371531 0
M  V30 2213 H 198.837 -3.1879 -1.93462 0
M  V30 2214 N 201.022 0.148545 -1.56898 0
M  V30 2215 C 201.97 1.20265 -1.99096 0
M  V30 2216 C 202.964 1.44559 -0.883123 0
M  V30 2217 O 204.17 1.4487 -1.0683 0
M  V30 2218 H 200.545 0.404786 -0.63376 0
M  V30 2219 H 202.516 0.82004 -2.86911 0
M  V30 2220 C 201.265 2.52886 -2.3863 0
M  V30 2221 H 200.588 2.35021 -3.23427 0
M  V30 2222 H 202.028 3.25274 -2.7198 0
M  V30 2223 C 200.487 3.13315 -1.23837 0
M  V30 2224 O 201.017 3.98077 -0.538268 0
M  V30 2225 N 199.223 2.72742 -1.00301 0
M  V30 2226 H 198.77 2.03912 -1.5741 0
M  V30 2227 H 198.728 3.13507 -0.236838 0
M  V30 2228 N 202.5 1.5196 0.417844 0
M  V30 2229 C 203.447 1.74678 1.50852 0
M  V30 2230 C 204.417 0.588947 1.55308 0
M  V30 2231 O 205.602 0.825544 1.72016 0
M  V30 2232 C 202.742 1.89544 2.88387 0
M  V30 2233 C 201.855 3.17166 2.93309 0
M  V30 2234 C 200.99 3.22513 4.22088 0
M  V30 2235 C 200.029 4.44372 4.20951 0
M  V30 2236 N 199.166 4.47161 5.41287 0
M  V30 2237 H 204.006 2.67768 1.30783 0
M  V30 2238 H 201.543 1.32689 0.63498 0
M  V30 2239 H 203.501 1.96146 3.68216 0
M  V30 2240 H 202.131 0.998424 3.06971 0
M  V30 2241 H 201.183 3.19778 2.06024 0
M  V30 2242 H 202.495 4.07021 2.88332 0
M  V30 2243 H 201.649 3.28139 5.10303 0
M  V30 2244 H 200.388 2.30581 4.29748 0
M  V30 2245 H 199.393 4.38902 3.31127 0
M  V30 2246 H 200.618 5.3759 4.14938 0
M  V30 2247 H 198.564 3.58108 5.49632 0
M  V30 2248 H 198.481 5.3085 5.3827 0
M  V30 2249 H 199.749 4.57005 6.3148 0
M  V30 2250 N 203.978 -0.674533 1.42435 0
M  V30 2251 C 205.226 -1.43175 1.42637 0
M  V30 2252 C 205.547 -1.94951 0.0438992 0
M  V30 2253 O 204.817 -1.7308 -0.917607 0
M  V30 2254 H 203.397 -0.531307 0.525092 0
M  V30 2255 H 206.059 -0.797006 1.77859 0
M  V30 2256 H 205.155 -2.28463 2.12629 0
M  V30 2257 N 205.456 -1.28612 -0.910864 0
M  V30 2258 C 206.403 -1.12786 -2.01365 0
M  V30 2259 C 207.373 -0.024201 -1.66082 0
M  V30 2260 O 208.558 -0.189667 -1.89855 0
M  V30 2261 C 205.698 -0.798743 -3.35729 0
M  V30 2262 C 204.811 -1.98173 -3.83864 0
M  V30 2263 C 203.946 -1.59298 -5.06752 0
M  V30 2264 C 202.985 -2.74245 -5.47226 0
M  V30 2265 N 202.122 -2.35842 -6.61304 0
M  V30 2266 H 206.962 -2.07142 -2.14234 0
M  V30 2267 H 204.499 -1.03093 -1.0493 0
M  V30 2268 H 206.457 -0.588662 -4.13026 0
M  V30 2269 H 205.087 0.10789 -3.2262 0
M  V30 2270 H 204.139 -2.30386 -3.02699 0
M  V30 2271 H 205.451 -2.84343 -4.09818 0
M  V30 2272 H 204.605 -1.34513 -5.916 0
M  V30 2273 H 203.344 -0.702618 -4.82612 0
M  V30 2274 H 202.349 -2.99725 -4.60918 0
M  V30 2275 H 203.574 -3.63928 -5.73353 0
M  V30 2276 H 201.52 -1.49279 -6.38789 0
M  V30 2277 H 201.437 -3.15546 -6.86998 0
M  V30 2278 H 202.705 -2.14348 -7.4945 0
M  V30 2279 N 206.934 1.1197 -1.10907 0
M  V30 2280 C 208.345 1.65114 -0.871446 0
M  V30 2281 C 208.696 1.86885 0.597353 0
M  V30 2282 O 207.821 1.59896 1.45816 0
M  V30 2283 C 208.416 2.99944 -1.5754 0
M  V30 2284 C 206.975 3.50018 -1.38435 0
M  V30 2285 C 206.122 2.24941 -1.62164 0
M  V30 2286 H 209.073 0.956851 -1.2661 0
M  V30 2287 H 209.094 3.66651 -1.01721 0
M  V30 2288 H 208.606 2.84067 -2.64438 0
M  V30 2289 H 206.707 3.71071 -0.337214 0
M  V30 2290 H 206.82 4.29165 -2.12965 0
M  V30 2291 H 205.184 2.3229 -1.04467 0
M  V30 2292 H 205.967 2.11612 -2.70324 0
M  V30 2293 N 208.412 0.89855 1.29475 0
M  V30 2294 C 209.342 0.39201 2.30186 0
M  V30 2295 C 210.323 -0.532359 1.61555 0
M  V30 2296 O 211.508 -0.443331 1.89072 0
M  V30 2297 C 208.638 -0.382353 3.45189 0
M  V30 2298 C 207.592 0.451483 4.25612 0
M  V30 2299 C 206.918 -0.450307 5.328 0
M  V30 2300 C 208.218 1.70079 4.93832 0
M  V30 2301 H 209.912 1.23362 2.72804 0
M  V30 2302 H 207.458 0.594638 1.31149 0
M  V30 2303 H 209.411 -0.747451 4.14718 0
M  V30 2304 H 208.135 -1.25774 3.01411 0
M  V30 2305 H 206.794 0.798897 3.57789 0
M  V30 2306 H 206.442 -1.32379 4.85268 0
M  V30 2307 H 206.142 0.103902 5.87508 0
M  V30 2308 H 207.666 -0.811623 6.05182 0
M  V30 2309 H 209.08 1.40549 5.55805 0
M  V30 2310 H 207.477 2.19623 5.58467 0
M  V30 2311 H 208.547 2.43744 4.19186 0
M  V30 2312 N 209.89 -1.43072 0.660911 0
M  V30 2313 C 210.853 -2.29194 -0.0166406 0
M  V30 2314 C 211.853 -1.42609 -0.742912 0
M  V30 2315 O 213.043 -1.64155 -0.583004 0
M  V30 2316 C 210.175 -3.24831 -1.0343 0
M  V30 2317 H 211.368 -2.90596 0.741208 0
M  V30 2318 H 208.921 -1.5048 0.422532 0
M  V30 2319 H 209.656 -2.68339 -1.82111 0
M  V30 2320 H 209.441 -3.88676 -0.517082 0
M  V30 2321 H 210.931 -3.89451 -1.50723 0
M  V30 2322 N 211.368 -0.403325 -1.52352 0
M  V30 2323 C 212.615 0.174347 -2.01748 0
M  V30 2324 C 212.943 1.45636 -1.2892 0
M  V30 2325 O 212.198 1.9193 -0.382258 0
M  V30 2326 C 212.497 0.474665 -3.54234 0
M  V30 2327 C 212.163 -0.717458 -4.45155 0
M  V30 2328 C 210.825 -1.04447 -4.69728 0
M  V30 2329 C 213.177 -1.51432 -4.98716 0
M  V30 2330 C 210.505 -2.16963 -5.45109 0
M  V30 2331 C 212.857 -2.6302 -5.75329 0
M  V30 2332 C 211.521 -2.96213 -5.98175 0
M  V30 2333 H 210.791 0.0637981 -0.738248 0
M  V30 2334 H 213.438 -0.543553 -1.83624 0
M  V30 2335 H 211.743 1.27406 -3.70506 0
M  V30 2336 H 213.44 0.934496 -3.89959 0
M  V30 2337 H 210.03 -0.452596 -4.26204 0
M  V30 2338 H 214.214 -1.27491 -4.79645 0
M  V30 2339 H 209.47 -2.43034 -5.61021 0
M  V30 2340 H 213.644 -3.25158 -6.15829 0
M  V30 2341 H 211.271 -3.83516 -6.56368 0
M  V30 2342 N 212.846 1.57033 -0.133567 0
M  V30 2343 C 214.262 1.58035 0.222944 0
M  V30 2344 C 214.462 1.14713 1.6566 0
M  V30 2345 O 213.518 0.841218 2.38075 0
M  V30 2346 C 214.831 3.00691 -0.0236116 0
M  V30 2347 C 216.379 3.12973 0.0411512 0
M  V30 2348 C 216.854 4.57654 -0.177899 0
M  V30 2349 N 218.345 4.63033 -0.124365 0
M  V30 2350 C 219.08 5.72771 -0.268553 0
M  V30 2351 N 218.576 6.91206 -0.46972 0
M  V30 2352 N 220.369 5.61718 -0.2071 0
M  V30 2353 H 212.52 1.8349 -1.06981 0
M  V30 2354 H 214.783 0.848677 -0.422436 0
M  V30 2355 H 214.489 3.36726 -1.0153 0
M  V30 2356 H 214.363 3.70614 0.701808 0
M  V30 2357 H 216.75 2.76787 1.02338 0
M  V30 2358 H 216.831 2.45564 -0.716383 0
M  V30 2359 H 216.475 4.94542 -1.15717 0
M  V30 2360 H 216.405 5.23173 0.599797 0
M  V30 2361 H 218.896 3.7789 0.027011 0
M  V30 2362 H 219.209 7.70693 -0.570212 0
M  V30 2363 H 217.554 6.93156 -0.505876 0
M  V30 2364 H 220.745 4.68072 -0.0507986 0
M  V30 2365 H 220.918 6.47195 -0.322909 0
M  V30 2366 N 214.325 -0.140222 1.56975 0
M  V30 2367 C 215.571 -0.852949 1.83991 0
M  V30 2368 C 215.904 -1.80512 0.716187 0
M  V30 2369 O 215.179 -1.92479 -0.279681 0
M  V30 2370 C 215.462 -1.6215 3.21527 0
M  V30 2371 C 215.315 -0.690363 4.4447 0
M  V30 2372 C 216.634 -2.58247 3.56366 0
M  V30 2373 H 213.753 -0.308634 0.669264 0
M  V30 2374 H 216.395 -0.117898 1.89634 0
M  V30 2375 H 214.545 -2.24812 3.16847 0
M  V30 2376 H 216.217 -0.0742264 4.6124 0
M  V30 2377 H 214.46 -0.000396433 4.338 0
M  V30 2378 H 215.131 -1.2643 5.37326 0
M  V30 2379 H 217.607 -2.05701 3.61699 0
M  V30 2380 H 216.483 -3.09067 4.53617 0
M  V30 2381 H 216.744 -3.39923 2.82674 0
M  V30 2382 N 215.803 -1.52179 -0.40978 0
M  V30 2383 C 217.051 -1.65878 -1.15451 0
M  V30 2384 C 217.372 -0.390771 -1.91044 0
M  V30 2385 O 216.642 0.594323 -1.86667 0
M  V30 2386 H 215.222 -0.611405 -0.429177 0
M  V30 2387 H 217.884 -1.89219 -0.467134 0
M  V30 2388 H 216.98 -2.49954 -1.86894 0
M  V30 2389 N 217.281 0.66697 -1.42791 0
M  V30 2390 C 218.211 1.79218 -1.49677 0
M  V30 2391 C 219.192 1.66405 -0.352623 0
M  V30 2392 O 220.377 1.85708 -0.567993 0
M  V30 2393 C 217.507 3.17565 -1.40605 0
M  V30 2394 C 216.461 3.45124 -2.53127 0
M  V30 2395 C 215.787 4.83127 -2.29112 0
M  V30 2396 C 217.087 3.41236 -3.95418 0
M  V30 2397 H 218.781 1.73713 -2.43853 0
M  V30 2398 H 216.327 0.83432 -1.17367 0
M  V30 2399 H 218.28 3.96022 -1.44029 0
M  V30 2400 H 217.004 3.23767 -0.429271 0
M  V30 2401 H 215.663 2.69031 -2.49034 0
M  V30 2402 H 215.311 4.85988 -1.29709 0
M  V30 2403 H 215.011 5.02528 -3.04531 0
M  V30 2404 H 216.535 5.63859 -2.34297 0
M  V30 2405 H 217.949 4.09651 -4.01073 0
M  V30 2406 H 216.346 3.72173 -4.70752 0
M  V30 2407 H 217.416 2.39665 -4.21532 0
M  V30 2408 N 218.759 1.29093 0.90403 0
M  V30 2409 C 219.984 1.19809 1.69294 0
M  V30 2410 C 220.409 -0.238481 1.86582 0
M  V30 2411 O 219.767 -1.1723 1.383 0
M  V30 2412 C 219.815 1.91202 3.05736 0
M  V30 2413 O 218.919 1.22611 3.93752 0
M  V30 2414 H 218.26 0.415385 0.518027 0
M  V30 2415 H 220.79 1.70586 1.12967 0
M  V30 2416 H 220.8 1.99487 3.55906 0
M  V30 2417 H 219.475 2.95692 2.92471 0
M  V30 2418 H 218.052 1.22554 3.52186 0
M  V30 2419 N 220.237 -1.11381 1.11499 0
M  V30 2420 C 221.485 -1.8277 0.862524 0
M  V30 2421 C 221.806 -1.85097 -0.613534 0
M  V30 2422 O 221.076 -1.32198 -1.4457 0
M  V30 2423 H 219.656 -0.676823 0.316101 0
M  V30 2424 H 222.318 -1.34816 1.4075 0
M  V30 2425 H 221.414 -2.86614 1.23527 0
M  V30 2426 N 221.715 -0.905404 -1.28997 0
M  V30 2427 C 223.126 -0.581953 -1.77398 0
M  V30 2428 C 223.477 0.902552 -1.74208 0
M  V30 2429 O 222.602 1.70584 -1.33154 0
M  V30 2430 C 223.197 -1.04961 -3.22131 0
M  V30 2431 C 221.756 -0.777229 -3.68288 0
M  V30 2432 C 220.903 -1.22109 -2.48967 0
M  V30 2433 H 223.854 -1.08754 -1.15578 0
M  V30 2434 H 223.875 -0.387387 -3.78523 0
M  V30 2435 H 223.387 -2.13008 -3.24421 0
M  V30 2436 H 221.488 0.290383 -3.71467 0
M  V30 2437 H 221.601 -1.37911 -4.58822 0
M  V30 2438 H 219.965 -0.639971 -2.46529 0
M  V30 2439 H 220.748 -2.30972 -2.53982 0
M  V30 2440 N 223.193 1.4272 -0.668489 0
M  V30 2441 C 224.604 1.84793 -0.266151 0
M  V30 2442 C 224.955 1.55959 1.19043 0
M  V30 2443 O 224.08 1.01622 1.91055 0
M  V30 2444 C 224.675 3.35436 -0.476271 0
M  V30 2445 C 223.234 3.76182 -0.128113 0
M  V30 2446 C 222.381 2.66344 -0.771777 0
M  V30 2447 H 225.332 1.32656 -0.871098 0
M  V30 2448 H 225.353 3.79515 0.273561 0
M  V30 2449 H 224.865 3.5639 -1.53647 0
M  V30 2450 H 222.966 3.60836 0.928891 0
M  V30 2451 H 223.079 4.75766 -0.564231 0
M  V30 2452 H 221.443 2.53885 -0.203652 0
M  V30 2453 H 222.226 2.90123 -1.83531 0
M  V30 2454 N 224.671 0.411399 1.52136 0
M  V30 2455 C 225.919 -0.163322 2.01439 0
M  V30 2456 C 226.24 -1.45453 1.29879 0
M  V30 2457 O 225.51 -1.91225 0.4254 0
M  V30 2458 H 224.09 -0.0633447 0.744309 0
M  V30 2459 H 226.752 0.548161 1.87033 0
M  V30 2460 H 225.848 -0.357817 3.10042 0
M  V30 2461 N 226.149 -1.5696 0.141893 0
M  V30 2462 C 227.112 -2.15316 -0.785587 0
M  V30 2463 C 228.112 -1.09366 -1.1788 0
M  V30 2464 O 229.302 -1.35031 -1.10056 0
M  V30 2465 C 226.434 -2.71211 -2.06537 0
M  V30 2466 H 227.627 -2.98608 -0.278041 0
M  V30 2467 H 225.18 -1.5593 -0.107519 0
M  V30 2468 H 225.915 -1.91571 -2.6167 0
M  V30 2469 H 225.7 -3.4872 -1.79268 0
M  V30 2470 H 227.19 -3.16189 -2.72789 0
M  V30 2471 N 227.627 0.131896 -1.57047 0
M  V30 2472 C 228.875 0.840269 -1.83804 0
M  V30 2473 C 229.196 1.81017 -0.72512 0
M  V30 2474 O 228.466 1.94272 0.251995 0
M  V30 2475 H 227.046 0.313294 -0.678127 0
M  V30 2476 H 229.708 0.122294 -1.94516 0
M  V30 2477 H 228.804 1.39335 -2.79271 0
M  V30 2478 N 229.106 1.52395 0.401703 0
M  V30 2479 C 230.053 1.76268 1.48991 0
M  V30 2480 C 231.023 0.605386 1.54675 0
M  V30 2481 O 232.208 0.843742 1.7113 0
M  V30 2482 C 229.348 1.92592 2.86361 0
M  V30 2483 C 228.461 3.20259 2.89928 0
M  V30 2484 C 227.596 3.26972 4.18644 0
M  V30 2485 C 226.635 4.48812 4.16214 0
M  V30 2486 N 225.772 4.52877 5.36514 0
M  V30 2487 H 230.612 2.6914 1.27935 0
M  V30 2488 H 228.149 1.33355 0.620871 0
M  V30 2489 H 230.107 2.0004 3.66115 0
M  V30 2490 H 228.737 1.03093 3.05895 0
M  V30 2491 H 227.789 3.21945 2.02621 0
M  V30 2492 H 229.101 4.10056 2.83999 0
M  V30 2493 H 228.255 3.33533 5.06794 0
M  V30 2494 H 226.994 2.35126 4.27278 0
M  V30 2495 H 225.999 4.4239 3.26453 0
M  V30 2496 H 227.224 5.41961 4.09213 0
M  V30 2497 H 225.17 3.63917 5.45802 0
M  V30 2498 H 225.087 5.36529 5.32609 0
M  V30 2499 H 226.355 4.63676 6.26597 0
M  V30 2500 N 230.584 -0.659388 1.43143 0
M  V30 2501 C 231.809 -1.45221 1.48073 0
M  V30 2502 C 232.234 -1.87845 0.097995 0
M  V30 2503 O 231.592 -1.56985 -0.90694 0
M  V30 2504 C 231.64 -2.66748 2.42647 0
M  V30 2505 O 230.744 -3.65583 1.90848 0
M  V30 2506 H 230.085 -0.435669 0.501088 0
M  V30 2507 H 232.615 -0.807432 1.87994 0
M  V30 2508 H 232.625 -3.14637 2.59745 0
M  V30 2509 H 231.3 -2.35067 3.43098 0
M  V30 2510 H 229.877 -3.24693 1.83381 0
M  V30 2511 N 232.062 -1.29571 -0.897171 0
M  V30 2512 C 233.29 -1.20583 -1.68129 0
M  V30 2513 C 233.705 0.233181 -1.87354 0
M  V30 2514 O 233.062 1.15579 -1.41236 0
M  V30 2515 C 233.113 -1.91772 -3.06441 0
M  V30 2516 O 232.834 -3.30053 -2.88091 0
M  V30 2517 C 234.335 -1.89291 -4.00854 0
M  V30 2518 H 231.555 -0.417826 -0.525036 0
M  V30 2519 H 234.099 -1.70987 -1.12177 0
M  V30 2520 H 232.254 -1.45196 -3.59161 0
M  V30 2521 H 232.668 -3.65942 -3.75748 0
M  V30 2522 H 234.142 -2.43662 -4.95311 0
M  V30 2523 H 234.619 -0.869014 -4.30517 0
M  V30 2524 H 235.225 -2.35622 -3.54066 0
M  V30 2525 N 233.54 1.10788 -1.12088 0
M  V30 2526 C 234.787 1.82671 -0.873931 0
M  V30 2527 C 235.115 1.85004 0.600311 0
M  V30 2528 O 234.37 1.30365 1.45957 0
M  V30 2529 C 234.669 3.29294 -1.38926 0
M  V30 2530 C 234.335 3.47113 -2.87791 0
M  V30 2531 C 232.997 3.51684 -3.28439 0
M  V30 2532 C 235.349 3.52808 -3.83635 0
M  V30 2533 C 232.677 3.59513 -4.63646 0
M  V30 2534 C 235.029 3.62169 -5.18668 0
M  V30 2535 C 233.693 3.65003 -5.58864 0
M  V30 2536 H 232.963 0.668441 -0.319794 0
M  V30 2537 H 235.61 1.30613 -1.40045 0
M  V30 2538 H 233.915 3.83894 -0.783122 0
M  V30 2539 H 235.612 3.83416 -1.17443 0
M  V30 2540 H 232.202 3.4423 -2.5535 0
M  V30 2541 H 236.386 3.4853 -3.53328 0
M  V30 2542 H 231.642 3.59987 -4.94185 0
M  V30 2543 H 235.816 3.6552 -5.92763 0
M  V30 2544 H 233.443 3.70822 -6.63623 0
M  V30 2545 N 235.018 0.912232 1.28515 0
M  V30 2546 C 236.267 0.540504 1.94323 0
M  V30 2547 C 236.58 -0.920044 1.72611 0
M  V30 2548 O 237.786 -1.39986 2.32629 0
M  V30 2549 C 236.242 0.915803 3.48053 0
M  V30 2550 C 235.85 2.39598 3.78546 0
M  V30 2551 C 237.594 0.614588 4.20027 0
M  V30 2552 C 235.501 2.71148 5.25578 0
M  V30 2553 H 234.431 0.198418 0.727424 0
M  V30 2554 H 237.082 1.11094 1.46049 0
M  V30 2555 H 235.464 0.274168 3.9505 0
M  V30 2556 H 236.638 3.08422 3.42364 0
M  V30 2557 H 234.953 2.66749 3.1974 0
M  V30 2558 H 237.55 0.827002 5.28266 0
M  V30 2559 H 237.893 -0.447531 4.13887 0
M  V30 2560 H 238.426 1.21462 3.78803 0
M  V30 2561 H 235.165 3.76207 5.36794 0
M  V30 2562 H 234.685 2.0696 5.62963 0
M  V30 2563 H 236.364 2.58072 5.93302 0
M  V30 2564 N 236.496 -1.42363 0.676048 0
M  V30 2565 C 237.406 -2.346 -0.00153389 0
M  V30 2566 C 238.422 -1.5516 -0.787485 0
M  V30 2567 O 239.598 -1.87723 -0.729521 0
M  V30 2568 C 236.663 -3.33705 -0.940298 0
M  V30 2569 C 235.724 -4.29042 -0.148739 0
M  V30 2570 C 234.957 -5.23413 -1.04279 0
M  V30 2571 O 235.18 -5.22749 -2.28232 0
M  V30 2572 O 234.114 -5.99795 -0.502925 0
M  V30 2573 H 237.94 -2.94082 0.758268 0
M  V30 2574 H 235.525 -1.42888 0.436289 0
M  V30 2575 H 237.407 -3.94586 -1.47917 0
M  V30 2576 H 236.082 -2.76695 -1.67993 0
M  V30 2577 H 234.989 -3.71571 0.43427 0
M  V30 2578 H 236.322 -4.89097 0.551805 0
M  V30 2579 N 237.974 -0.419461 -1.51915 0
M  V30 2580 C 239.204 0.151915 -2.06041 0
M  V30 2581 C 239.612 1.38539 -1.28855 0
M  V30 2582 O 238.955 1.80592 -0.336463 0
M  V30 2583 C 239.017 0.557119 -3.55157 0
M  V30 2584 C 238.681 -0.567054 -4.53468 0
M  V30 2585 C 239.678 -1.43379 -4.99738 0
M  V30 2586 C 237.363 -0.742693 -4.96779 0
M  V30 2587 C 239.357 -2.46102 -5.87973 0
M  V30 2588 C 237.044 -1.77322 -5.84808 0
M  V30 2589 C 238.042 -2.63078 -6.30301 0
M  V30 2590 O 237.73 -3.64364 -7.16585 0
M  V30 2591 H 237.462 0.0193293 -0.675724 0
M  V30 2592 H 240.016 -0.592073 -1.96682 0
M  V30 2593 H 238.246 1.35355 -3.62238 0
M  V30 2594 H 239.935 1.05759 -3.9188 0
M  V30 2595 H 240.701 -1.30954 -4.66986 0
M  V30 2596 H 236.58 -0.0848307 -4.60922 0
M  V30 2597 H 240.124 -3.13071 -6.23404 0
M  V30 2598 H 236.021 -1.89773 -6.16974 0
M  V30 2599 H 236.789 -3.60731 -7.34721 0
M  V30 2600 N 239.452 1.56882 -0.150215 0
M  V30 2601 C 240.699 1.96228 0.500093 0
M  V30 2602 C 241.027 1.03522 1.64661 0
M  V30 2603 O 240.282 0.0650683 1.95592 0
M  V30 2604 C 240.581 3.41801 1.04437 0
M  V30 2605 C 240.247 4.50897 0.0159671 0
M  V30 2606 C 238.909 4.8046 -0.266731 0
M  V30 2607 C 241.261 5.16703 -0.683192 0
M  V30 2608 C 238.589 5.73135 -1.25434 0
M  V30 2609 C 240.941 6.10441 -1.65964 0
M  V30 2610 C 239.605 6.38382 -1.95 0
M  V30 2611 H 238.875 0.718048 0.182997 0
M  V30 2612 H 241.522 1.90019 -0.237724 0
M  V30 2613 H 239.827 3.44857 1.85959 0
M  V30 2614 H 241.524 3.69573 1.55618 0
M  V30 2615 H 238.114 4.27891 0.246485 0
M  V30 2616 H 242.298 4.93993 -0.477983 0
M  V30 2617 H 237.554 5.93074 -1.48571 0
M  V30 2618 H 241.728 6.60507 -2.20689 0
M  V30 2619 H 239.355 7.09996 -2.71679 0
M  V30 2620 N 240.93 -0.123565 1.57115 0
M  V30 2621 C 242.178 -0.83051 1.84247 0
M  V30 2622 C 242.499 -1.80629 0.73471 0
M  V30 2623 O 241.769 -1.94403 -0.241688 0
M  V30 2624 H 240.349 -0.309694 0.679778 0
M  V30 2625 H 243.011 -0.111976 1.94578 0
M  V30 2626 H 242.107 -1.37852 2.80006 0
M  V30 2627 N 242.408 -1.52605 -0.393616 0
M  V30 2628 C 243.355 -1.77055 -1.48054 0
M  V30 2629 C 244.325 -0.61358 -1.54352 0
M  V30 2630 O 245.51 -0.852806 -1.70681 0
M  V30 2631 C 242.65 -1.94108 -2.85335 0
M  V30 2632 C 241.763 -3.21792 -2.88226 0
M  V30 2633 C 240.898 -3.29188 -4.16904 0
M  V30 2634 C 239.937 -4.51013 -4.13828 0
M  V30 2635 N 239.074 -4.55716 -5.34105 0
M  V30 2636 H 243.914 -2.69815 -1.26506 0
M  V30 2637 H 241.451 -1.33683 -0.61379 0
M  V30 2638 H 243.409 -2.01979 -3.65049 0
M  V30 2639 H 242.039 -1.04713 -3.05344 0
M  V30 2640 H 241.091 -3.23015 -2.00911 0
M  V30 2641 H 242.403 -4.11557 -2.8182 0
M  V30 2642 H 241.557 -3.36216 -5.05018 0
M  V30 2643 H 240.296 -2.37389 -4.26026 0
M  V30 2644 H 239.301 -4.44115 -3.24102 0
M  V30 2645 H 240.526 -5.44123 -4.06333 0
M  V30 2646 H 238.472 -3.66807 -5.43865 0
M  V30 2647 H 238.389 -5.39346 -5.29756 0
M  V30 2648 H 239.657 -4.66993 -6.2413 0
M  V30 2649 N 243.887 0.651787 -1.4349 0
M  V30 2650 C 244.82 1.77668 -1.43211 0
M  V30 2651 C 245.798 1.59931 -0.29338 0
M  V30 2652 O 246.982 1.82095 -0.487191 0
M  V30 2653 C 244.109 3.14986 -1.24505 0
M  V30 2654 C 243.155 3.51421 -2.41673 0
M  V30 2655 S 243.988 3.51234 -4.04222 0
M  V30 2656 C 245.144 4.91206 -3.87902 0
M  V30 2657 H 245.377 1.77635 -2.38397 0
M  V30 2658 H 242.91 0.824558 -1.30539 0
M  V30 2659 H 244.868 3.94237 -1.144 0
M  V30 2660 H 243.529 3.1258 -0.308651 0
M  V30 2661 H 242.722 4.51291 -2.24393 0
M  V30 2662 H 242.324 2.79585 -2.48411 0
M  V30 2663 H 244.616 5.79902 -3.50315 0
M  V30 2664 H 245.559 5.13537 -4.8753 0
M  V30 2665 H 245.967 4.64808 -3.20334 0
M  V30 2666 N 245.365 1.30045 0.890287 0
M  V30 2667 C 246.295 1.18541 2.01172 0
M  V30 2668 C 247.276 0.0773356 1.69924 0
M  V30 2669 O 248.461 0.25845 1.92473 0
M  V30 2670 C 245.591 0.870941 3.36202 0
M  V30 2671 C 244.545 1.93637 3.81692 0
M  V30 2672 C 243.871 1.475 5.13953 0
M  V30 2673 C 245.171 3.34666 4.00994 0
M  V30 2674 H 246.865 2.12359 2.11054 0
M  V30 2675 H 244.411 1.02238 1.01407 0
M  V30 2676 H 246.364 0.777141 4.14172 0
M  V30 2677 H 245.088 -0.102926 3.26438 0
M  V30 2678 H 243.747 2.01972 3.05946 0
M  V30 2679 H 243.395 0.489551 5.00612 0
M  V30 2680 H 243.095 2.1876 5.4536 0
M  V30 2681 H 244.619 1.39489 5.94454 0
M  V30 2682 H 246.033 3.2912 4.69417 0
M  V30 2683 H 244.43 4.03966 4.43769 0
M  V30 2684 H 245.5 3.76949 3.05021 0
M  V30 2685 N 246.843 -1.10192 1.12674 0
M  V30 2686 C 248.071 -1.85983 0.906527 0
M  V30 2687 C 248.486 -1.80783 -0.544333 0
M  V30 2688 O 247.843 -1.19834 -1.37645 0
M  V30 2689 C 247.894 -3.34281 1.37618 0
M  V30 2690 O 247.615 -3.39401 2.77017 0
M  V30 2691 C 249.116 -4.26938 1.19325 0
M  V30 2692 H 246.336 -0.587716 0.323775 0
M  V30 2693 H 248.88 -1.39284 1.49734 0
M  V30 2694 H 247.035 -3.78436 0.828539 0
M  V30 2695 H 247.449 -4.31838 2.97684 0
M  V30 2696 H 248.923 -5.29181 1.57071 0
M  V30 2697 H 249.4 -4.38995 0.134097 0
M  V30 2698 H 250.006 -3.8859 1.72852 0
M  V30 2699 N 248.321 -0.919034 -1.28029 0
M  V30 2700 C 249.231 -0.416756 -2.30869 0
M  V30 2701 C 250.247 0.498235 -1.66714 0
M  V30 2702 O 251.423 0.383144 -1.97722 0
M  V30 2703 C 248.488 0.330274 -3.45123 0
M  V30 2704 C 247.549 -0.618578 -4.2482 0
M  V30 2705 C 246.782 0.0928959 -5.33619 0
M  V30 2706 O 247.005 1.31375 -5.55065 0
M  V30 2707 O 245.939 -0.574499 -5.99152 0
M  V30 2708 H 249.765 -1.27043 -2.75851 0
M  V30 2709 H 247.35 -0.684052 -1.3282 0
M  V30 2710 H 249.232 0.751972 -4.14636 0
M  V30 2711 H 247.907 1.1597 -3.02213 0
M  V30 2712 H 246.814 -1.08978 -3.57875 0
M  V30 2713 H 248.147 -1.41497 -4.71423 0
M  V30 2714 N 249.799 1.42003 -0.683588 0
M  V30 2715 C 251.215 1.55625 -0.353976 0
M  V30 2716 C 251.415 1.66151 1.14 0
M  V30 2717 O 250.471 1.63329 1.92561 0
M  V30 2718 C 251.784 2.80171 -1.092 0
M  V30 2719 C 253.332 2.93954 -1.07518 0
M  V30 2720 C 253.807 4.21372 -1.79471 0
M  V30 2721 N 255.298 4.28303 -1.76381 0
M  V30 2722 C 256.033 5.25729 -2.28904 0
M  V30 2723 N 255.529 6.29254 -2.89846 0
M  V30 2724 N 257.322 5.17586 -2.19228 0
M  V30 2725 H 249.473 1.33415 -1.6527 0
M  V30 2726 H 251.736 0.64282 -0.696769 0
M  V30 2727 H 251.442 2.78561 -2.14701 0
M  V30 2728 H 251.316 3.7133 -0.662862 0
M  V30 2729 H 253.703 2.95086 -0.028475 0
M  V30 2730 H 253.784 2.04002 -1.54328 0
M  V30 2731 H 253.428 4.21001 -2.84114 0
M  V30 2732 H 253.358 5.10275 -1.30104 0
M  V30 2733 H 255.849 3.54119 -1.31939 0
M  V30 2734 H 256.162 6.99964 -3.27522 0
M  V30 2735 H 254.507 6.29791 -2.93919 0
M  V30 2736 H 257.698 4.35631 -1.71299 0
M  V30 2737 H 257.871 5.93348 -2.60466 0
M  V30 2738 N 251.277 0.427512 1.51691 0
M  V30 2739 C 252.525 -0.141948 2.01601 0
M  V30 2740 C 252.846 -1.44067 1.31414 0
M  V30 2741 O 252.116 -1.90763 0.445658 0
M  V30 2742 H 250.696 -0.0554468 0.744939 0
M  V30 2743 H 253.358 0.567968 1.86441 0
M  V30 2744 H 252.454 -0.324913 3.10404 0
M  V30 2745 N 252.755 -1.56801 0.158532 0
M  V30 2746 C 253.705 -2.13923 -0.788738 0
M  V30 2747 C 254.689 -1.07006 -1.2016 0
M  V30 2748 O 255.881 -1.33159 -1.1661 0
M  V30 2749 C 253.01 -2.77348 -2.02319 0
M  V30 2750 C 252.096 -3.91404 -1.6329 0
M  V30 2751 N 252.487 -4.9677 -0.951463 0
M  V30 2752 C 250.785 -4.02326 -1.92482 0
M  V30 2753 C 251.486 -5.76698 -0.761221 0
M  V30 2754 N 250.462 -5.27859 -1.29869 0
M  V30 2755 H 254.264 -2.92757 -0.258995 0
M  V30 2756 H 251.778 -1.62344 -0.0426055 0
M  V30 2757 H 253.775 -3.16639 -2.71192 0
M  V30 2758 H 252.435 -1.99991 -2.558 0
M  V30 2759 H 253.446 -5.14284 -0.610928 0
M  V30 2760 H 250.123 -3.36059 -2.47732 0
M  V30 2761 H 251.513 -6.71529 -0.223284 0
M  V30 2762 N 254.233 0.115231 -1.57178 0
M  V30 2763 C 255.18 1.14115 -2.00615 0
M  V30 2764 C 256.15 1.40939 -0.878941 0
M  V30 2765 O 257.335 1.52741 -1.14345 0
M  V30 2766 C 254.475 2.46156 -2.4187 0
M  V30 2767 C 253.588 2.26236 -3.68024 0
M  V30 2768 C 252.723 3.51534 -3.98243 0
M  V30 2769 C 251.762 3.26787 -5.17568 0
M  V30 2770 N 250.899 4.44298 -5.43639 0
M  V30 2771 H 255.739 0.763743 -2.88047 0
M  V30 2772 H 253.276 0.365615 -1.42484 0
M  V30 2773 H 255.234 3.23189 -2.63827 0
M  V30 2774 H 253.864 2.81783 -1.57475 0
M  V30 2775 H 252.916 1.40102 -3.5366 0
M  V30 2776 H 254.228 2.03929 -4.55208 0
M  V30 2777 H 253.382 4.36984 -4.20868 0
M  V30 2778 H 252.121 3.76876 -3.09541 0
M  V30 2779 H 251.126 2.39729 -4.94783 0
M  V30 2780 H 252.351 3.02812 -6.0785 0
M  V30 2781 H 250.297 4.69754 -4.57895 0
M  V30 2782 H 250.214 4.25109 -6.25154 0
M  V30 2783 H 251.482 5.3087 -5.70786 0
M  V30 2784 N 255.711 1.52812 0.385517 0
M  V30 2785 C 256.641 1.80808 1.47752 0
M  V30 2786 C 257.622 0.660318 1.5676 0
M  V30 2787 O 258.807 0.908246 1.71652 0
M  V30 2788 C 255.937 1.98008 2.85324 0
M  V30 2789 C 254.891 3.13709 2.91154 0
M  V30 2790 C 254.217 3.16169 4.31209 0
M  V30 2791 C 255.517 4.52709 2.60483 0
M  V30 2792 H 257.211 2.72253 1.24573 0
M  V30 2793 H 254.757 1.31003 0.597839 0
M  V30 2794 H 256.71 2.16176 3.61726 0
M  V30 2795 H 255.434 1.03255 3.09848 0
M  V30 2796 H 254.093 2.95329 2.17201 0
M  V30 2797 H 253.741 2.19092 4.52778 0
M  V30 2798 H 253.441 3.93894 4.36029 0
M  V30 2799 H 254.965 3.36496 5.09512 0
M  V30 2800 H 256.379 4.71173 3.26602 0
M  V30 2801 H 254.776 5.32528 2.76648 0
M  V30 2802 H 255.846 4.59186 1.55809 0
M  V30 2803 N 257.189 -0.644168 1.43834 0
M  V30 2804 C 258.414 -1.43642 1.49605 0
M  V30 2805 C 258.839 -1.8773 0.117913 0
M  V30 2806 O 258.197 -1.57938 -0.890239 0
M  V30 2807 C 258.245 -2.6416 2.45463 0
M  V30 2808 O 257.349 -3.63538 1.94714 0
M  V30 2809 H 256.69 -0.430329 0.50568 0
M  V30 2810 H 259.22 -0.787448 1.8884 0
M  V30 2811 H 259.23 -3.11864 2.63068 0
M  V30 2812 H 257.905 -2.31414 3.45572 0
M  V30 2813 H 256.482 -3.2273 1.86814 0
M  V30 2814 N 258.668 -1.30515 -0.883378 0
M  V30 2815 C 259.914 -1.19607 -1.63774 0
M  V30 2816 C 260.247 0.248314 -1.92606 0
M  V30 2817 O 259.522 1.17742 -1.54813 0
M  V30 2818 C 259.805 -2.02669 -2.97653 0
M  V30 2819 C 259.658 -3.55335 -2.75784 0
M  V30 2820 C 260.977 -1.86573 -3.98596 0
M  V30 2821 H 258.096 -0.435856 -0.594305 0
M  V30 2822 H 260.738 -1.60165 -1.02212 0
M  V30 2823 H 258.888 -1.68208 -3.50197 0
M  V30 2824 H 260.56 -3.99863 -2.30016 0
M  V30 2825 H 258.803 -3.79438 -2.1026 0
M  V30 2826 H 259.474 -4.08745 -3.70988 0
M  V30 2827 H 261.95 -2.16703 -3.55217 0
M  V30 2828 H 260.826 -2.47014 -4.90179 0
M  V30 2829 H 261.087 -0.825321 -4.34328 0
M  V30 2830 N 260.146 1.09593 -1.13257 0
M  V30 2831 C 261.076 2.18214 -0.830946 0
M  V30 2832 C 262.057 1.68812 0.208966 0
M  V30 2833 O 263.242 1.9408 0.0682666 0
M  V30 2834 C 260.372 3.46051 -0.294296 0
M  V30 2835 C 259.326 4.08778 -1.26826 0
M  V30 2836 C 258.652 5.31419 -0.591449 0
M  V30 2837 C 259.952 4.51476 -2.62615 0
M  V30 2838 H 261.646 2.43703 -1.73923 0
M  V30 2839 H 259.192 1.17128 -0.837675 0
M  V30 2840 H 261.145 4.2134 -0.0709606 0
M  V30 2841 H 259.869 3.20079 0.649366 0
M  V30 2842 H 258.528 3.35505 -1.47756 0
M  V30 2843 H 258.176 5.01727 0.357633 0
M  V30 2844 H 257.876 5.74341 -1.24123 0
M  V30 2845 H 259.4 6.09433 -0.377355 0
M  V30 2846 H 260.814 5.17999 -2.45663 0
M  V30 2847 H 259.211 5.05277 -3.23752 0
M  V30 2848 H 260.281 3.63962 -3.20406 0
M  V30 2849 N 261.624 0.925811 1.2754 0
M  V30 2850 C 262.587 0.428129 2.25166 0
M  V30 2851 C 263.587 -0.452261 1.54309 0
M  V30 2852 O 264.777 -0.253608 1.72344 0
M  V30 2853 C 261.909 -0.384749 3.38722 0
M  V30 2854 H 263.102 1.29066 2.70706 0
M  V30 2855 H 260.655 0.706323 1.3943 0
M  V30 2856 H 261.39 -1.26618 2.98561 0
M  V30 2857 H 261.175 0.246454 3.91325 0
M  V30 2858 H 262.665 -0.723389 4.11287 0
M  V30 2859 N 263.102 -1.41638 0.69111 0
M  V30 2860 C 264.348 -2.01598 0.220519 0
M  V30 2861 C 264.681 -1.54594 -1.17535 0
M  V30 2862 O 263.956 -0.755177 -1.79241 0
M  V30 2863 C 264.239 -3.59062 0.273243 0
M  V30 2864 C 264.092 -4.16203 1.70573 0
M  V30 2865 C 265.411 -4.38546 -0.369457 0
M  V30 2866 H 262.53 -0.732468 0.0816045 0
M  V30 2867 H 265.172 -1.68445 0.878986 0
M  V30 2868 H 263.322 -3.87435 -0.287411 0
M  V30 2869 H 264.994 -3.98722 2.31989 0
M  V30 2870 H 263.237 -3.71414 2.2413 0
M  V30 2871 H 263.908 -5.25358 1.69419 0
M  V30 2872 H 266.384 -4.1596 0.107977 0
M  V30 2873 H 265.26 -5.48069 -0.302002 0
M  V30 2874 H 265.521 -4.17662 -1.44951 0
M  V30 2875 N 264.58 -0.43555 -1.51462 0
M  V30 2876 C 265.857 0.191364 -1.94662 0
M  V30 2877 C 266.237 1.60254 -1.37411 0
M  V30 2878 O 265.585 2.2152 -0.560458 0
M  V30 2879 C 265.795 0.17091 -3.48581 0
M  V30 2880 C 267.143 0.377357 -4.2292 0
M  V30 2881 O 268.167 0.249104 -3.55328 0
M  V30 2882 O 267.026 0.63247 -5.42828 0
M  V30 2883 H 264.12 0.130932 -0.816569 0
M  V30 2884 H 266.666 -0.4934 -1.62369 0
M  V30 2885 H 265.438 -0.815738 -3.82703 0
M  V30 2886 H 265.061 0.898659 -3.87311 0
M  V30 2887 N 266.058 1.56714 -0.166846 0
M  V30 2888 C 267.469 1.83378 0.350646 0
M  V30 2889 C 267.82 1.08646 1.63372 0
M  V30 2890 O 266.945 0.338058 2.13743 0
M  V30 2891 C 267.54 3.32643 0.642963 0
M  V30 2892 C 266.099 3.59818 1.10491 0
M  V30 2893 C 265.246 2.76954 0.138411 0
M  V30 2894 H 268.197 1.53803 -0.391193 0
M  V30 2895 H 268.218 3.49878 1.49551 0
M  V30 2896 H 267.73 3.87007 -0.291055 0
M  V30 2897 H 265.831 3.1086 2.05418 0
M  V30 2898 H 265.944 4.68178 1.01716 0
M  V30 2899 H 264.308 2.4666 0.634911 0
M  V30 2900 H 265.091 3.34097 -0.789549 0
M  V30 2901 N 267.536 -0.106894 1.57237 0
M  V30 2902 C 268.761 -0.830287 1.90055 0
M  V30 2903 C 269.186 -1.72064 0.75998 0
M  V30 2904 O 268.544 -1.78982 -0.288991 0
M  V30 2905 C 268.592 -1.6295 3.21683 0
M  V30 2906 O 267.696 -2.73748 3.08441 0
M  V30 2907 H 267.037 -0.228855 0.623315 0
M  V30 2908 H 269.567 -0.085658 2.04421 0
M  V30 2909 H 269.577 -2.01621 3.54701 0
M  V30 2910 H 268.252 -0.975989 4.04286 0
M  V30 2911 H 266.829 -2.38192 2.86913 0
M  V30 2912 N 269.014 -1.53014 -0.377408 0
M  V30 2913 C 270.239 -1.72818 -1.14668 0
M  V30 2914 C 270.664 -0.450725 -1.8262 0
M  V30 2915 O 270.022 0.59439 -1.7128 0
M  V30 2916 C 270.07 -2.88627 -2.16164 0
M  V30 2917 O 269.174 -2.56409 -3.22998 0
M  V30 2918 H 268.515 -0.574301 -0.333278 0
M  V30 2919 H 271.045 -1.99853 -0.438152 0
M  V30 2920 H 271.055 -3.14455 -2.59966 0
M  V30 2921 H 269.73 -3.81294 -1.66095 0
M  V30 2922 H 268.307 -2.4136 -2.84253 0
M  V30 2923 N 270.492 0.636531 -1.44174 0
M  V30 2924 C 271.732 1.40781 -1.48189 0
M  V30 2925 C 272.096 1.91688 -0.10944 0
M  V30 2926 O 273.297 2.68789 -0.0242741 0
M  V30 2927 C 271.568 2.54575 -2.50851 0
M  V30 2928 S 273.127 3.4284 -2.73873 0
M  V30 2929 H 269.945 0.480345 -0.524204 0
M  V30 2930 H 272.547 0.737416 -1.81059 0
M  V30 2931 H 271.251 2.15478 -3.49281 0
M  V30 2932 H 270.782 3.26447 -2.19536 0
M  V30 2933 H 272.797 4.51846 -2.05059 0
M  V30 2934 N 271.97 1.30982 0.876444 0
M  V30 2935 C 273.198 1.23242 1.6619 0
M  V30 2936 C 273.613 -0.203345 1.87702 0
M  V30 2937 O 272.97 -1.13317 1.43057 0
M  V30 2938 C 273.021 1.96623 3.03351 0
M  V30 2939 O 272.742 3.34594 2.82804 0
M  V30 2940 C 274.243 1.95644 3.97792 0
M  V30 2941 H 271.463 0.426126 0.518322 0
M  V30 2942 H 274.007 1.7275 1.09442 0
M  V30 2943 H 272.162 1.50892 3.56806 0
M  V30 2944 H 272.576 3.71873 3.69879 0
M  V30 2945 H 274.05 2.51511 4.91372 0
M  V30 2946 H 274.527 0.937395 4.2908 0
M  V30 2947 H 275.133 2.41225 3.50272 0
M  V30 2948 N 273.449 -1.08991 1.13837 0
M  V30 2949 C 274.674 -1.85551 0.926585 0
M  V30 2950 C 275.099 -1.80782 -0.519566 0
M  V30 2951 O 274.457 -1.18855 -1.36906 0
M  V30 2952 C 274.505 -3.31266 1.42462 0
M  V30 2953 O 273.609 -4.07822 0.612789 0
M  V30 2954 H 272.95 -0.575192 0.331738 0
M  V30 2955 H 275.48 -1.37604 1.51414 0
M  V30 2956 H 275.49 -3.82112 1.43019 0
M  V30 2957 H 274.165 -3.34052 2.47754 0
M  V30 2958 H 272.742 -3.66731 0.675463 0
M  V30 2959 N 274.927 -0.932562 -1.27047 0
M  V30 2960 C 276.175 -0.574422 -1.93765 0
M  V30 2961 C 276.496 0.887993 -1.73608 0
M  V30 2962 O 275.766 1.62999 -1.08665 0
M  V30 2963 H 274.346 -0.209451 -0.717035 0
M  V30 2964 H 277.008 -1.18601 -1.5466 0
M  V30 2965 H 276.104 -0.784841 -3.02071 0
M  V30 2966 N 276.405 1.4127 -0.698611 0
M  V30 2967 C 277.653 2.00782 -0.230409 0
M  V30 2968 C 277.974 1.5562 1.17505 0
M  V30 2969 O 277.244 0.78815 1.79346 0
M  V30 2970 H 275.824 0.742464 -0.0821944 0
M  V30 2971 H 278.486 1.72852 -0.90045 0
M  V30 2972 H 277.582 3.11095 -0.25021 0
M  V30 2973 N 277.883 0.443576 1.51229 0
M  V30 2974 C 279.108 -0.121648 2.07043 0
M  V30 2975 C 279.533 -1.35156 1.30823 0
M  V30 2976 O 278.891 -1.7793 0.347934 0
M  V30 2977 C 278.939 -0.41624 3.5819 0
M  V30 2978 O 278.043 -1.50163 3.8409 0
M  V30 2979 H 277.384 0.000871367 0.663999 0
M  V30 2980 H 279.914 0.626706 1.94765 0
M  V30 2981 H 279.924 -0.664867 4.02546 0
M  V30 2982 H 278.599 0.482653 4.1309 0
M  V30 2983 H 277.176 -1.24248 3.51592 0
M  V30 2984 N 279.361 -1.56624 0.175154 0
M  V30 2985 C 280.291 -2.21155 -0.749195 0
M  V30 2986 C 281.272 -1.16836 -1.23626 0
M  V30 2987 O 282.457 -1.45277 -1.28873 0
M  V30 2988 C 279.587 -2.8553 -1.97711 0
M  V30 2989 C 278.541 -3.95921 -1.62575 0
M  V30 2990 C 277.867 -4.47365 -2.92864 0
M  V30 2991 C 279.167 -5.15323 -0.850838 0
M  V30 2992 H 280.861 -2.98653 -0.211295 0
M  V30 2993 H 278.407 -1.43651 -0.100188 0
M  V30 2994 H 280.36 -3.2935 -2.62881 0
M  V30 2995 H 279.084 -2.05406 -2.53921 0
M  V30 2996 H 277.743 -3.52762 -0.997719 0
M  V30 2997 H 277.391 -3.64027 -3.47122 0
M  V30 2998 H 277.091 -5.21839 -2.70106 0
M  V30 2999 H 278.615 -4.93873 -3.59056 0
M  V30 3000 H 280.029 -5.55812 -1.40521 0
M  V30 3001 H 278.426 -5.95739 -0.722154 0
M  V30 3002 H 279.496 -4.84661 0.152082 0
M  V30 3003 N 280.839 0.0985539 -1.57292 0
M  V30 3004 C 281.769 1.12064 -2.04851 0
M  V30 3005 C 282.75 1.41981 -0.936767 0
M  V30 3006 O 283.935 1.52071 -1.20781 0
M  V30 3007 C 281.065 2.44144 -2.47004 0
M  V30 3008 C 280.019 2.28643 -3.6181 0
M  V30 3009 C 279.345 3.65869 -3.89929 0
M  V30 3010 C 280.645 1.72986 -4.92822 0
M  V30 3011 H 282.339 0.724979 -2.9049 0
M  V30 3012 H 279.885 0.34729 -1.39749 0
M  V30 3013 H 281.838 3.15914 -2.78884 0
M  V30 3014 H 280.562 2.85639 -1.5836 0
M  V30 3015 H 279.221 1.59318 -3.30172 0
M  V30 3016 H 278.869 4.04885 -2.98458 0
M  V30 3017 H 278.569 3.56344 -4.67218 0
M  V30 3018 H 280.093 4.39112 -4.2428 0
M  V30 3019 H 281.507 2.34593 -5.23105 0
M  V30 3020 H 279.904 1.74229 -5.74251 0
M  V30 3021 H 280.974 0.689007 -4.7998 0
M  V30 3022 N 282.317 1.53212 0.369288 0
M  V30 3023 C 283.565 1.68881 1.11012 0
M  V30 3024 C 283.886 0.441285 1.89941 0
M  V30 3025 O 283.156 -0.544623 1.88177 0
M  V30 3026 H 281.736 0.622569 0.412816 0
M  V30 3027 H 284.398 1.90391 0.416802 0
M  V30 3028 H 283.494 2.54822 1.80201 0
M  V30 3029 N 283.795 -0.628877 1.44509 0
M  V30 3030 C 285.072 -1.38733 1.37886 0
M  V30 3031 C 285.452 -2.11065 0.0387008 0
M  V30 3032 O 284.8 -2.06476 -0.97878 0
M  V30 3033 C 285.01 -2.35188 2.57852 0
M  V30 3034 C 286.358 -2.9845 3.02014 0
M  V30 3035 O 287.382 -2.45513 2.58073 0
M  V30 3036 O 286.241 -3.94487 3.78209 0
M  V30 3037 H 283.335 -0.621015 0.54614 0
M  V30 3038 H 285.881 -0.653744 1.56602 0
M  V30 3039 H 284.653 -1.80855 3.46998 0
M  V30 3040 H 284.276 -3.1596 2.4136 0
M  V30 3041 N 285.273 -1.31445 -0.869486 0
M  V30 3042 C 286.22 -1.19135 -1.97675 0
M  V30 3043 C 287.19 -0.0770266 -1.65921 0
M  V30 3044 O 288.375 -0.249972 -1.89155 0
M  V30 3045 C 285.515 -0.905149 -3.33018 0
M  V30 3046 C 284.628 -2.10285 -3.77365 0
M  V30 3047 C 283.763 -1.75339 -5.01427 0
M  V30 3048 C 282.802 -2.91515 -5.38224 0
M  V30 3049 N 281.939 -2.56762 -6.53466 0
M  V30 3050 H 286.779 -2.13853 -2.07535 0
M  V30 3051 H 284.316 -1.06379 -1.01597 0
M  V30 3052 H 286.274 -0.719765 -4.10944 0
M  V30 3053 H 284.904 0.00519624 -3.228 0
M  V30 3054 H 283.956 -2.39899 -2.95216 0
M  V30 3055 H 285.268 -2.97237 -4.00564 0
M  V30 3056 H 284.422 -1.53266 -5.87022 0
M  V30 3057 H 283.161 -0.855801 -4.80133 0
M  V30 3058 H 282.166 -3.14237 -4.51149 0
M  V30 3059 H 283.391 -3.81985 -5.61484 0
M  V30 3060 H 281.337 -1.69526 -6.33717 0
M  V30 3061 H 281.254 -3.37243 -6.76612 0
M  V30 3062 H 282.522 -2.38083 -7.42251 0
M  V30 3063 N 286.751 1.08385 -1.14413 0
M  V30 3064 C 287.979 1.84517 -0.936001 0
M  V30 3065 C 288.394 1.81626 0.515503 0
M  V30 3066 O 287.751 1.22008 1.35721 0
M  V30 3067 C 287.802 3.32049 -1.42918 0
M  V30 3068 O 287.523 3.34951 -2.82381 0
M  V30 3069 C 289.024 4.24986 -1.26103 0
M  V30 3070 H 286.244 0.582491 -0.333084 0
M  V30 3071 H 288.788 1.36885 -1.5193 0
M  V30 3072 H 286.943 3.7707 -0.888641 0
M  V30 3073 H 287.357 4.27048 -3.04517 0
M  V30 3074 H 288.831 5.26615 -1.6547 0
M  V30 3075 H 289.308 4.38726 -0.20392 0
M  V30 3076 H 289.914 3.85791 -1.79012 0
M  V30 3077 N 288.23 0.939286 1.26551 0
M  V30 3078 C 289.646 0.641304 1.46149 0
M  V30 3079 C 289.846 -0.805964 1.84679 0
M  V30 3080 O 288.902 -1.58278 1.96734 0
M  V30 3081 C 290.215 1.6011 2.54529 0
M  V30 3082 C 291.763 1.6106 2.68382 0
M  V30 3083 C 292.238 2.55765 3.79932 0
M  V30 3084 N 293.729 2.5404 3.87322 0
M  V30 3085 C 294.464 3.24004 4.73085 0
M  V30 3086 N 293.96 4.03388 5.63249 0
M  V30 3087 N 295.753 3.12965 4.66914 0
M  V30 3088 H 287.904 1.87478 0.998285 0
M  V30 3089 H 290.167 0.805559 0.499779 0
M  V30 3090 H 289.873 2.63412 2.33039 0
M  V30 3091 H 289.747 1.35171 3.52149 0
M  V30 3092 H 292.134 0.584835 2.89247 0
M  V30 3093 H 292.215 1.90053 1.71212 0
M  V30 3094 H 291.859 3.58458 3.5982 0
M  V30 3095 H 291.789 2.24063 4.76554 0
M  V30 3096 H 294.28 1.96396 3.22858 0
M  V30 3097 H 294.593 4.5373 6.25579 0
M  V30 3098 H 292.938 4.07489 5.63008 0
M  V30 3099 H 296.129 2.50432 3.95476 0
M  V30 3100 H 296.302 3.67759 5.33533 0
M  V30 3101 N 289.708 -1.40897 0.706093 0
M  V30 3102 C 290.641 -2.282 -0.00328781 0
M  V30 3103 C 291.619 -1.42816 -0.77732 0
M  V30 3104 O 292.803 -1.72237 -0.765944 0
M  V30 3105 C 289.93 -3.23226 -1.01205 0
M  V30 3106 C 288.976 -4.25222 -0.329955 0
M  V30 3107 S 289.809 -5.27269 0.935298 0
M  V30 3108 C 290.965 -6.25859 -0.0716061 0
M  V30 3109 H 291.198 -2.88016 0.737143 0
M  V30 3110 H 288.731 -1.46191 0.496756 0
M  V30 3111 H 290.689 -3.78503 -1.58888 0
M  V30 3112 H 289.35 -2.62485 -1.72513 0
M  V30 3113 H 288.543 -4.92023 -1.09221 0
M  V30 3114 H 288.145 -3.73595 0.174069 0
M  V30 3115 H 290.437 -6.71204 -0.921521 0
M  V30 3116 H 291.38 -7.0586 0.562765 0
M  V30 3117 H 291.788 -5.62852 -0.431088 0
M  V30 3118 N 291.186 -0.45159 -1.50991 0
M  V30 3119 C 292.414 0.108334 -2.06616 0
M  V30 3120 C 292.829 1.35224 -1.31757 0
M  V30 3121 O 292.186 1.78475 -0.381174 0
M  V30 3122 C 292.237 0.41619 -3.59096 0
M  V30 3123 O 291.958 -0.778361 -4.3113 0
M  V30 3124 C 293.459 1.02523 -4.31282 0
M  V30 3125 H 290.679 0.00159995 -0.670998 0
M  V30 3126 H 293.223 -0.634771 -1.94399 0
M  V30 3127 H 291.378 1.10921 -3.71181 0
M  V30 3128 H 291.792 -0.511181 -5.22003 0
M  V30 3129 H 293.266 1.19053 -5.39009 0
M  V30 3130 H 293.743 2.01013 -3.905 0
M  V30 3131 H 294.349 0.371173 -4.23677 0
M  V30 3132 N 292.664 1.56529 -0.183458 0
M  V30 3133 C 293.574 2.22144 0.754272 0
M  V30 3134 C 294.59 1.21684 1.24374 0
M  V30 3135 O 295.766 1.54385 1.29333 0
M  V30 3136 C 292.831 2.85884 1.96141 0
M  V30 3137 C 291.892 4.01579 1.51765 0
M  V30 3138 C 291.125 4.6227 2.66725 0
M  V30 3139 O 291.348 4.21865 3.83909 0
M  V30 3140 O 290.282 5.51936 2.40104 0
M  V30 3141 H 294.108 3.02861 0.225527 0
M  V30 3142 H 291.693 1.49331 0.0453032 0
M  V30 3143 H 293.575 3.26253 2.66715 0
M  V30 3144 H 292.25 2.08154 2.47899 0
M  V30 3145 H 291.157 3.65856 0.781049 0
M  V30 3146 H 292.49 4.80938 1.04686 0
M  V30 3147 N 294.142 -0.090211 1.57342 0
M  V30 3148 C 295.072 -1.10976 2.05443 0
M  V30 3149 C 296.053 -1.41482 0.944284 0
M  V30 3150 O 297.238 -1.51428 1.21586 0
M  V30 3151 C 294.368 -2.42831 2.48295 0
M  V30 3152 C 293.322 -2.26721 3.63018 0
M  V30 3153 C 292.648 -3.63796 3.91863 0
M  V30 3154 C 293.948 -1.7037 4.93732 0
M  V30 3155 H 295.642 -0.709564 2.9087 0
M  V30 3156 H 293.188 -0.339874 1.39932 0
M  V30 3157 H 295.141 -3.14431 2.80555 0
M  V30 3158 H 293.865 -2.84795 1.59873 0
M  V30 3159 H 292.524 -1.57565 3.31012 0
M  V30 3160 H 292.172 -4.03297 3.00601 0
M  V30 3161 H 291.872 -3.53861 4.69101 0
M  V30 3162 H 293.396 -4.36855 4.26603 0
M  V30 3163 H 294.81 -2.31816 5.24342 0
M  V30 3164 H 293.207 -1.71181 5.75167 0
M  V30 3165 H 294.277 -0.663542 4.80339 0
M  V30 3166 N 295.62 -1.53406 -0.361157 0
M  V30 3167 C 296.845 -1.74024 -1.12829 0
M  V30 3168 C 297.27 -0.470069 -1.82132 0
M  V30 3169 O 296.628 0.57619 -1.719 0
M  V30 3170 C 296.676 -2.90903 -2.13091 0
M  V30 3171 O 295.78 -2.59821 -3.20261 0
M  V30 3172 H 295.121 -0.577804 -0.327168 0
M  V30 3173 H 297.651 -2.00307 -0.41693 0
M  V30 3174 H 297.661 -3.17194 -2.56616 0
M  V30 3175 H 296.336 -3.83034 -1.62042 0
M  V30 3176 H 294.913 -2.44362 -2.81677 0
M  V30 3177 N 297.098 0.621204 -1.44841 0
M  V30 3178 C 298.514 0.94048 -1.28946 0
M  V30 3179 C 298.714 2.00154 -0.23249 0
M  V30 3180 O 297.77 2.49651 0.378237 0
M  V30 3181 C 299.083 1.39433 -2.66419 0
M  V30 3182 C 300.631 1.50927 -2.74208 0
M  V30 3183 C 301.106 1.99692 -4.12174 0
M  V30 3184 N 302.597 2.06947 -4.144 0
M  V30 3185 C 303.332 2.45871 -5.1801 0
M  V30 3186 N 302.828 2.83862 -6.31977 0
M  V30 3187 N 304.621 2.46092 -5.05366 0
M  V30 3188 H 296.772 -0.0803548 -2.12248 0
M  V30 3189 H 299.035 0.0266913 -0.947624 0
M  V30 3190 H 298.741 0.688925 -3.44887 0
M  V30 3191 H 298.615 2.36347 -2.93973 0
M  V30 3192 H 301.002 2.20561 -1.96053 0
M  V30 3193 H 301.083 0.523627 -2.50383 0
M  V30 3194 H 300.727 1.30649 -4.90809 0
M  V30 3195 H 300.657 2.99146 -4.33381 0
M  V30 3196 H 303.148 1.80232 -3.32152 0
M  V30 3197 H 303.461 3.12405 -7.0684 0
M  V30 3198 H 301.806 2.8159 -6.35399 0
M  V30 3199 H 304.997 2.1581 -4.15384 0
M  V30 3200 H 305.17 2.76102 -5.86235 0
M  V30 3201 N 298.576 1.31904 0.862503 0
M  V30 3202 C 299.853 1.12644 1.59908 0
M  V30 3203 C 300.233 -0.316104 2.0872 0
M  V30 3204 O 299.581 -1.31145 1.87118 0
M  V30 3205 C 299.791 2.1472 2.7513 0
M  V30 3206 C 301.139 2.47637 3.44907 0
M  V30 3207 O 302.163 2.13205 2.85346 0
M  V30 3208 O 301.022 3.06632 4.52371 0
M  V30 3209 H 298.116 0.43416 0.703871 0
M  V30 3210 H 300.662 1.43408 0.907314 0
M  V30 3211 H 299.434 3.1172 2.3653 0
M  V30 3212 H 299.057 1.84905 3.51989 0
M  V30 3213 N 300.054 -1.07777 1.14986 0
M  V30 3214 C 300.987 -2.14228 0.786243 0
M  V30 3215 C 301.965 -1.60888 -0.235347 0
M  V30 3216 O 303.149 -1.88099 -0.122909 0
M  V30 3217 C 300.276 -3.38281 0.168433 0
M  V30 3218 C 299.322 -4.10387 1.16123 0
M  V30 3219 S 300.155 -4.62371 2.70135 0
M  V30 3220 C 301.311 -5.89704 2.09762 0
M  V30 3221 H 301.544 -2.44741 1.68787 0
M  V30 3222 H 299.077 -1.19984 0.971756 0
M  V30 3223 H 301.035 -4.10098 -0.181588 0
M  V30 3224 H 299.696 -3.05953 -0.710725 0
M  V30 3225 H 298.889 -4.99431 0.677086 0
M  V30 3226 H 298.491 -3.44513 1.45556 0
M  V30 3227 H 300.783 -6.61648 1.45701 0
M  V30 3228 H 301.726 -6.42824 2.96955 0
M  V30 3229 H 302.134 -5.4302 1.54239 0
M  V30 3230 N 301.532 -0.945985 -1.26051 0
M  V30 3231 C 302.48 -0.450259 -2.282 0
M  V30 3232 C 303.474 0.47497 -1.62605 0
M  V30 3233 O 304.68 0.352653 -1.76512 0
M  V30 3234 H 301.055 -0.127081 -0.741184 0
M  V30 3235 H 303.026 -1.32422 -2.67408 0
M  V30 3236 C 301.775 0.26467 -3.46691 0
M  V30 3237 H 301.098 -0.438123 -3.97392 0
M  V30 3238 H 302.538 0.575678 -4.20074 0
M  V30 3239 C 300.997 1.48416 -3.02447 0
M  V30 3240 O 301.527 2.58227 -3.07704 0
M  V30 3241 N 299.733 1.34243 -2.57735 0
M  V30 3242 H 299.28 0.448994 -2.53657 0
M  V30 3243 H 299.238 2.15957 -2.28495 0
M  V30 3244 N 303.011 1.40521 -0.713556 0
M  V30 3245 C 303.974 2.29098 -0.0684347 0
M  V30 3246 C 304.974 1.45268 0.689472 0
M  V30 3247 O 306.164 1.66205 0.521677 0
M  V30 3248 C 303.296 3.28446 0.913024 0
M  V30 3249 H 304.489 2.87645 -0.84855 0
M  V30 3250 H 302.042 1.48809 -0.47809 0
M  V30 3251 H 302.777 2.74913 1.72027 0
M  V30 3252 H 302.562 3.90327 0.372472 0
M  V30 3253 H 304.052 3.94777 1.36165 0
M  V30 3254 N 304.489 0.459591 1.5075 0
M  V30 3255 C 305.719 -0.0972338 2.06371 0
M  V30 3256 C 306.127 -1.35074 1.32483 0
M  V30 3257 O 305.47 -1.79637 0.384226 0
M  V30 3258 C 305.532 -0.462759 3.56509 0
M  V30 3259 C 305.196 0.687084 4.51805 0
M  V30 3260 C 306.193 1.56578 4.95761 0
M  V30 3261 C 303.878 0.874144 4.94635 0
M  V30 3262 C 305.872 2.61604 5.81242 0
M  V30 3263 C 303.559 1.92765 5.79901 0
M  V30 3264 C 304.557 2.79697 6.23104 0
M  V30 3265 O 304.245 3.83235 7.06673 0
M  V30 3266 H 303.977 -0.00140687 0.675999 0
M  V30 3267 H 306.531 0.644011 1.95043 0
M  V30 3268 H 304.761 -1.25703 3.65699 0
M  V30 3269 H 306.45 -0.953323 3.94546 0
M  V30 3270 H 307.216 1.4329 4.6335 0
M  V30 3271 H 303.095 0.207006 4.60535 0
M  V30 3272 H 306.639 3.29489 6.14884 0
M  V30 3273 H 302.536 2.06064 6.11725 0
M  V30 3274 H 303.304 3.80084 7.24899 0
M  V30 3275 N 305.967 -1.56429 0.191757 0
M  V30 3276 C 307.216 -1.9666 -0.448088 0
M  V30 3277 C 307.529 -1.08136 -1.62991 0
M  V30 3278 O 308.735 -1.38135 -2.33733 0
M  V30 3279 C 307.191 -3.49753 -0.848585 0
M  V30 3280 C 306.799 -4.46935 0.308764 0
M  V30 3281 C 308.543 -3.9876 -1.4557 0
M  V30 3282 C 306.45 -5.91293 -0.112506 0
M  V30 3283 H 305.38 -0.734312 -0.171179 0
M  V30 3284 H 308.031 -1.81301 0.283242 0
M  V30 3285 H 306.413 -3.60604 -1.63649 0
M  V30 3286 H 307.587 -4.47813 1.08627 0
M  V30 3287 H 305.902 -4.08102 0.827158 0
M  V30 3288 H 308.499 -5.04086 -1.78328 0
M  V30 3289 H 308.842 -3.42875 -2.36099 0
M  V30 3290 H 309.375 -3.9101 -0.731836 0
M  V30 3291 H 306.114 -6.51097 0.758514 0
M  V30 3292 H 305.634 -5.93676 -0.854941 0
M  V30 3293 H 307.313 -6.44663 -0.549448 0
M  V30 3294 N 307.445 0.0818655 -1.57387 0
M  V30 3295 C 308.861 0.436412 -1.53517 0
M  V30 3296 C 309.061 1.79758 -0.910459 0
M  V30 3297 O 308.117 2.47324 -0.508636 0
M  V30 3298 C 309.43 0.386734 -2.98203 0
M  V30 3299 C 310.978 0.467644 -3.09487 0
M  V30 3300 C 311.453 0.447978 -4.55804 0
M  V30 3301 N 312.944 0.508348 -4.60402 0
M  V30 3302 C 313.679 0.515184 -5.71081 0
M  V30 3303 N 313.175 0.477435 -6.91153 0
M  V30 3304 N 314.968 0.560988 -5.59294 0
M  V30 3305 H 307.119 -0.809546 -1.96367 0
M  V30 3306 H 309.382 -0.302733 -0.898363 0
M  V30 3307 H 309.088 -0.546539 -3.47427 0
M  V30 3308 H 308.962 1.20075 -3.57578 0
M  V30 3309 H 311.349 1.39134 -2.60242 0
M  V30 3310 H 311.43 -0.374753 -2.5304 0
M  V30 3311 H 311.074 -0.471826 -5.05704 0
M  V30 3312 H 311.004 1.30777 -5.10103 0
M  V30 3313 H 313.495 0.54218 -3.7399 0
M  V30 3314 H 313.808 0.486299 -7.71268 0
M  V30 3315 H 312.153 0.444278 -6.93579 0
M  V30 3316 H 315.344 0.5881 -4.64391 0
M  V30 3317 H 315.517 0.562846 -6.45551 0
M  V30 3318 N 308.923 1.53595 0.353017 0
M  V30 3319 C 310.334 1.61937 0.929153 0
M  V30 3320 C 310.685 0.494686 1.89861 0
M  V30 3321 O 309.81 -0.377017 2.1309 0
M  V30 3322 C 310.405 2.93526 1.69199 0
M  V30 3323 C 308.964 3.04161 2.21727 0
M  V30 3324 C 308.111 2.57322 1.03348 0
M  V30 3325 H 311.062 1.58155 0.131431 0
M  V30 3326 H 311.083 2.82034 2.55416 0
M  V30 3327 H 310.595 3.75362 0.986144 0
M  V30 3328 H 308.696 2.26938 2.95516 0
M  V30 3329 H 308.809 4.09465 2.48748 0
M  V30 3330 H 307.173 2.12499 1.40414 0
M  V30 3331 H 307.956 3.41588 0.342428 0
M  V30 3332 N 310.401 -0.613514 1.45168 0
M  V30 3333 C 311.626 -1.40437 1.52618 0
M  V30 3334 C 312.051 -1.87438 0.157707 0
M  V30 3335 O 311.409 -1.59791 -0.856537 0
M  V30 3336 C 311.457 -2.58894 2.51011 0
M  V30 3337 O 310.561 -3.59326 2.02382 0
M  V30 3338 H 309.902 -0.419506 0.514695 0
M  V30 3339 H 312.432 -0.747215 1.90467 0
M  V30 3340 H 312.442 -3.06214 2.69624 0
M  V30 3341 H 311.117 -2.24032 3.50403 0
M  V30 3342 H 309.694 -3.18695 1.93618 0
M  V30 3343 N 311.879 -1.3236 -0.855495 0
M  V30 3344 C 313.29 -1.2056 -1.42556 0
M  V30 3345 C 313.641 0.182209 -1.95352 0
M  V30 3346 O 312.766 1.08088 -1.87472 0
M  V30 3347 C 313.361 -2.1826 -2.59129 0
M  V30 3348 C 311.92 -2.10351 -3.12137 0
M  V30 3349 C 311.067 -2.06674 -1.84882 0
M  V30 3350 H 314.018 -1.442 -0.662727 0
M  V30 3351 H 314.039 -1.78064 -3.36264 0
M  V30 3352 H 313.551 -3.19257 -2.20673 0
M  V30 3353 H 311.652 -1.12599 -3.55179 0
M  V30 3354 H 311.765 -3.00135 -3.73438 0
M  V30 3355 H 310.129 -1.51901 -2.04446 0
M  V30 3356 H 310.912 -3.09451 -1.48643 0
M  V30 3357 N 313.357 1.07166 -1.15556 0
M  V30 3358 C 314.585 1.83514 -0.955519 0
M  V30 3359 C 315 1.82163 0.49621 0
M  V30 3360 O 314.357 1.23441 1.34419 0
M  V30 3361 C 314.408 3.30515 -1.46432 0
M  V30 3362 O 314.129 3.31937 -2.85918 0
M  V30 3363 C 315.63 4.23625 -1.30603 0
M  V30 3364 H 312.85 0.578926 -0.339244 0
M  V30 3365 H 315.394 1.35265 -1.53374 0
M  V30 3366 H 313.549 3.76106 -0.928584 0
M  V30 3367 H 313.963 4.23794 -3.09029 0
M  V30 3368 H 315.437 5.24831 -1.71047 0
M  V30 3369 H 315.914 4.38485 -0.250441 0
M  V30 3370 H 316.52 3.83871 -1.83094 0
M  V30 3371 N 314.835 0.952656 1.25548 0
M  V30 3372 C 316.251 0.656769 1.4546 0
M  V30 3373 C 316.451 -0.78633 1.85524 0
M  V30 3374 O 315.507 -1.56183 1.98402 0
M  V30 3375 C 316.82 1.62801 2.52817 0
M  V30 3376 C 318.368 1.63897 2.66659 0
M  V30 3377 C 318.843 2.5978 3.77198 0
M  V30 3378 N 320.334 2.58133 3.84606 0
M  V30 3379 C 321.069 3.29003 4.69621 0
M  V30 3380 N 320.565 4.09339 5.58939 0
M  V30 3381 N 322.358 3.179 4.63569 0
M  V30 3382 H 314.509 1.88526 0.978344 0
M  V30 3383 H 316.772 0.810815 0.491206 0
M  V30 3384 H 316.478 2.65869 2.30232 0
M  V30 3385 H 316.352 1.38898 3.50695 0
M  V30 3386 H 318.739 0.615481 2.8861 0
M  V30 3387 H 318.82 1.91858 1.69187 0
M  V30 3388 H 318.464 3.62254 3.55997 0
M  V30 3389 H 318.394 2.29105 4.7415 0
M  V30 3390 H 320.885 1.99809 3.20757 0
M  V30 3391 H 321.198 4.6034 6.20731 0
M  V30 3392 H 319.543 4.13438 5.58654 0
M  V30 3393 H 322.734 2.54612 3.92798 0
M  V30 3394 H 322.907 3.73398 5.29602 0
M  V30 3395 N 316.313 -1.40141 0.720998 0
M  V30 3396 C 317.561 -2.0039 0.262323 0
M  V30 3397 C 317.882 -1.57469 -1.15015 0
M  V30 3398 O 317.152 -0.816582 -1.78069 0
M  V30 3399 H 315.732 -0.741063 0.093996 0
M  V30 3400 H 318.394 -1.71398 0.927835 0
M  V30 3401 H 317.49 -3.10658 0.299671 0
M  V30 3402 N 317.792 -0.46758 -1.50504 0
M  V30 3403 C 319.02 0.0864133 -2.06719 0
M  V30 3404 C 319.435 1.33819 -1.33184 0
M  V30 3405 O 318.792 1.78061 -0.400083 0
M  V30 3406 C 318.843 0.378079 -3.59517 0
M  V30 3407 O 318.564 -0.824044 -4.3028 0
M  V30 3408 C 320.065 0.979426 -4.32345 0
M  V30 3409 H 317.285 -0.00551697 -0.670977 0
M  V30 3410 H 319.829 -0.655354 -1.93715 0
M  V30 3411 H 317.984 1.06977 -3.72337 0
M  V30 3412 H 318.398 -0.566518 -5.21432 0
M  V30 3413 H 319.872 1.1333 -5.40241 0
M  V30 3414 H 320.349 1.9686 -3.9261 0
M  V30 3415 H 320.955 0.326216 -4.24047 0
M  V30 3416 N 319.27 1.56325 -0.20005 0
M  V30 3417 C 320.2 2.22318 0.713916 0
M  V30 3418 C 321.181 1.18788 1.21752 0
M  V30 3419 O 322.366 1.47309 1.26545 0
M  V30 3420 C 319.496 2.88639 1.93144 0
M  V30 3421 C 318.45 3.98457 1.56255 0
M  V30 3422 C 317.776 4.51967 2.85709 0
M  V30 3423 C 319.076 5.16612 0.768747 0
M  V30 3424 H 320.77 2.98952 0.163755 0
M  V30 3425 H 318.316 1.43792 0.0773219 0
M  V30 3426 H 320.269 3.33491 2.57608 0
M  V30 3427 H 318.993 2.09419 2.50621 0
M  V30 3428 H 317.652 3.54305 0.941471 0
M  V30 3429 H 317.3 3.69503 3.41287 0
M  V30 3430 H 317 5.26071 2.6177 0
M  V30 3431 H 318.524 4.99523 3.51154 0
M  V30 3432 H 319.938 5.57977 1.3166 0
M  V30 3433 H 318.335 5.96812 0.627286 0
M  V30 3434 H 319.405 4.84358 -0.229168 0
M  V30 3435 N 320.748 -0.0735177 1.57428 0
M  V30 3436 C 321.996 -0.771472 1.86796 0
M  V30 3437 C 322.317 -1.78201 0.791804 0
M  V30 3438 O 321.587 -1.95074 -0.179718 0
M  V30 3439 H 320.167 -0.28791 0.689287 0
M  V30 3440 H 322.829 -0.0500161 1.94836 0
M  V30 3441 H 321.925 -1.28874 2.8425 0
M  V30 3442 N 322.226 -1.5378 -0.344866 0
M  V30 3443 C 323.474 -1.70625 -1.08311 0
M  V30 3444 C 323.795 -0.471447 -1.89215 0
M  V30 3445 O 323.065 0.514616 -1.8902 0
M  V30 3446 H 321.645 -0.629058 -0.402859 0
M  V30 3447 H 324.307 -1.9103 -0.386459 0
M  V30 3448 H 323.403 -2.57656 -1.76124 0
M  V30 3449 N 323.704 0.605807 -1.45491 0
M  V30 3450 C 324.95 1.36679 -1.49823 0
M  V30 3451 C 325.283 1.93693 -0.140175 0
M  V30 3452 O 324.558 1.75158 0.845581 0
M  V30 3453 C 324.841 2.51337 -2.57879 0
M  V30 3454 C 324.694 1.99508 -4.03134 0
M  V30 3455 C 326.013 3.53463 -2.62205 0
M  V30 3456 H 323.132 0.495617 -0.545466 0
M  V30 3457 H 325.774 0.682732 -1.7731 0
M  V30 3458 H 323.924 3.09691 -2.34571 0
M  V30 3459 H 325.596 1.45789 -4.37656 0
M  V30 3460 H 323.839 1.30496 -4.13707 0
M  V30 3461 H 324.51 2.82169 -4.74431 0
M  V30 3462 H 326.986 3.04953 -2.83095 0
M  V30 3463 H 325.862 4.31178 -3.39672 0
M  V30 3464 H 326.123 4.09197 -1.67363 0
M  V30 3465 N 325.182 1.32811 0.848464 0
M  V30 3466 C 326.41 1.26739 1.63538 0
M  V30 3467 C 326.825 -0.163484 1.88091 0
M  V30 3468 O 326.182 -1.10258 1.45429 0
M  V30 3469 C 326.233 2.03013 2.99112 0
M  V30 3470 O 325.954 3.40518 2.75643 0
M  V30 3471 C 327.455 2.04038 3.93552 0
M  V30 3472 H 324.675 0.437024 0.509167 0
M  V30 3473 H 327.219 1.75033 1.05753 0
M  V30 3474 H 325.374 1.58426 3.53525 0
M  V30 3475 H 325.788 3.79635 3.61908 0
M  V30 3476 H 327.262 2.61877 4.85926 0
M  V30 3477 H 327.739 1.0282 4.26995 0
M  V30 3478 H 328.345 2.486 3.45077 0
M  V30 3479 N 326.66 -1.06551 1.16123 0
M  V30 3480 C 328.076 -1.3142 0.905585 0
M  V30 3481 C 328.276 -1.96571 -0.442964 0
M  V30 3482 O 327.332 -2.23068 -1.18308 0
M  V30 3483 C 328.645 -2.19741 2.05267 0
M  V30 3484 C 330.193 -2.33165 2.08813 0
M  V30 3485 C 330.668 -3.24838 3.22868 0
M  V30 3486 N 332.159 -3.32421 3.22568 0
M  V30 3487 C 332.894 -4.0344 4.0746 0
M  V30 3488 N 332.39 -4.77003 5.02434 0
M  V30 3489 N 334.183 -3.99464 3.95456 0
M  V30 3490 H 326.334 -0.626548 2.02949 0
M  V30 3491 H 328.597 -0.338777 0.8854 0
M  V30 3492 H 328.303 -1.79142 3.02657 0
M  V30 3493 H 328.177 -3.20313 1.99198 0
M  V30 3494 H 330.564 -2.73013 1.12018 0
M  V30 3495 H 330.645 -1.3227 2.18948 0
M  V30 3496 H 330.289 -2.85708 4.19921 0
M  V30 3497 H 330.219 -4.25707 3.0997 0
M  V30 3498 H 332.71 -2.79994 2.53795 0
M  V30 3499 H 333.023 -5.28712 5.63634 0
M  V30 3500 H 331.368 -4.75992 5.06415 0
M  V30 3501 H 334.559 -3.4111 3.20564 0
M  V30 3502 H 334.732 -4.54544 4.61837 0
M  V30 3503 N 328.138 -0.959301 -1.25041 0
M  V30 3504 C 329.366 -0.633949 -1.96948 0
M  V30 3505 C 329.781 0.794916 -1.7125 0
M  V30 3506 O 329.138 1.53231 -0.991287 0
M  V30 3507 C 329.189 -0.888805 -3.50403 0
M  V30 3508 O 328.91 -2.26149 -3.75218 0
M  V30 3509 C 330.411 -0.576482 -4.39536 0
M  V30 3510 H 327.631 -0.237263 -0.627652 0
M  V30 3511 H 330.175 -1.28495 -1.59089 0
M  V30 3512 H 328.33 -0.284145 -3.86357 0
M  V30 3513 H 328.744 -2.33514 -4.6965 0
M  V30 3514 H 330.218 -0.805314 -5.46094 0
M  V30 3515 H 330.695 0.489075 -4.36468 0
M  V30 3516 H 331.301 -1.16067 -4.09156 0
M  V30 3517 N 329.616 1.39756 -0.72842 0
M  V30 3518 C 330.844 2.04948 -0.283528 0
M  V30 3519 C 331.259 1.54908 1.0793 0
M  V30 3520 O 330.616 0.711135 1.68075 0
M  V30 3521 C 330.667 3.60498 -0.268957 0
M  V30 3522 O 330.388 4.08695 -1.57798 0
M  V30 3523 C 331.889 4.4288 0.192912 0
M  V30 3524 H 329.109 0.659243 -0.125056 0
M  V30 3525 H 331.653 1.78927 -0.990226 0
M  V30 3526 H 329.808 3.85444 0.388801 0
M  V30 3527 H 330.222 5.02977 -1.48709 0
M  V30 3528 H 331.696 5.51791 0.151952 0
M  V30 3529 H 332.173 4.21418 1.23708 0
M  V30 3530 H 332.779 4.23069 -0.435039 0
M  V30 3531 N 331.094 0.475555 1.50254 0
M  V30 3532 C 332.042 -0.330276 2.30243 0
M  V30 3533 C 333.036 -0.986306 1.37726 0
M  V30 3534 O 334.242 -0.9169 1.54897 0
M  V30 3535 H 330.617 -0.125353 0.741479 0
M  V30 3536 H 332.588 0.364702 2.96163 0
M  V30 3537 C 331.337 -1.39704 3.18399 0
M  V30 3538 H 330.66 -0.901621 3.89501 0
M  V30 3539 H 332.1 -1.93336 3.77355 0
M  V30 3540 C 330.559 -2.4014 2.36293 0
M  V30 3541 O 331.089 -3.45504 2.04914 0
M  V30 3542 N 329.295 -2.1197 1.98789 0
M  V30 3543 H 328.842 -1.2631 2.24507 0
M  V30 3544 H 328.8 -2.79403 1.44157 0
M  V30 3545 N 332.573 -1.56217 0.208337 0
M  V30 3546 C 333.483 -2.23316 -0.718836 0
M  V30 3547 C 334.499 -1.23648 -1.22422 0
M  V30 3548 O 335.675 -1.56423 -1.26861 0
M  V30 3549 C 332.74 -2.88968 -1.91568 0
M  V30 3550 C 331.801 -4.03943 -1.45357 0
M  V30 3551 C 331.034 -4.66455 -2.59337 0
M  V30 3552 O 331.257 -4.27919 -3.77149 0
M  V30 3553 O 330.191 -5.55686 -2.31293 0
M  V30 3554 H 334.017 -3.03182 -0.177315 0
M  V30 3555 H 331.602 -1.49384 -0.0215402 0
M  V30 3556 H 333.484 -3.30455 -2.61491 0
M  V30 3557 H 332.159 -2.12071 -2.44556 0
M  V30 3558 H 331.066 -3.67052 -0.722746 0
M  V30 3559 H 332.399 -4.82543 -0.970219 0
M  V30 3560 N 334.051 0.0651679 -1.57465 0
M  V30 3561 C 335.014 1.06117 -2.03155 0
M  V30 3562 C 336.014 1.31204 -0.929632 0
M  V30 3563 O 337.204 1.26813 -1.19432 0
M  V30 3564 C 334.336 2.4032 -2.41783 0
M  V30 3565 H 335.529 0.667231 -2.92383 0
M  V30 3566 H 333.082 0.311075 -1.53173 0
M  V30 3567 H 333.817 2.84532 -1.55601 0
M  V30 3568 H 333.602 2.23451 -3.22199 0
M  V30 3569 H 335.092 3.11898 -2.77685 0
M  V30 3570 N 335.529 1.53961 0.336706 0
M  V30 3571 C 336.778 1.70751 1.07363 0
M  V30 3572 C 337.091 0.481061 1.89592 0
M  V30 3573 O 338.297 0.530046 2.66276 0
M  V30 3574 C 336.753 3.01965 1.95818 0
M  V30 3575 C 336.361 4.31971 1.18764 0
M  V30 3576 C 338.105 3.28121 2.69327 0
M  V30 3577 C 336.012 5.54255 2.06289 0
M  V30 3578 H 334.942 0.636292 0.404535 0
M  V30 3579 H 337.593 1.80459 0.332681 0
M  V30 3580 H 335.975 2.86132 2.7376 0
M  V30 3581 H 337.149 4.5853 0.456849 0
M  V30 3582 H 335.464 4.12481 0.569946 0
M  V30 3583 H 338.061 4.16673 3.35094 0
M  V30 3584 H 338.404 2.45426 3.36261 0
M  V30 3585 H 338.937 3.44762 1.98454 0
M  V30 3586 H 335.676 6.39513 1.43885 0
M  V30 3587 H 335.196 5.31935 2.77138 0
M  V30 3588 H 336.875 5.90159 2.65182 0
M  V30 3589 N 337.007 -0.598083 1.45811 0
M  V30 3590 C 337.937 -1.71873 1.58057 0
M  V30 3591 C 338.918 -1.64533 0.431615 0
M  V30 3592 O 340.103 -1.82787 0.65595 0
M  V30 3593 C 337.233 -3.10495 1.55597 0
M  V30 3594 C 336.187 -3.32654 2.69305 0
M  V30 3595 C 335.513 -4.71646 2.51902 0
M  V30 3596 C 336.813 -3.21981 4.11248 0
M  V30 3597 H 338.507 -1.61881 2.51863 0
M  V30 3598 H 336.053 -0.777372 1.21214 0
M  V30 3599 H 338.006 -3.88699 1.6276 0
M  V30 3600 H 336.73 -3.2135 0.583255 0
M  V30 3601 H 335.389 -2.56843 2.61586 0
M  V30 3602 H 335.037 -4.79246 1.52748 0
M  V30 3603 H 334.737 -4.87426 3.2816 0
M  V30 3604 H 336.261 -5.52038 2.60933 0
M  V30 3605 H 337.675 -3.90049 4.20161 0
M  V30 3606 H 336.072 -3.49289 4.87972 0
M  V30 3607 H 337.142 -2.1928 4.32486 0
M  V30 3608 N 338.485 -1.33259 -0.841409 0
M  V30 3609 C 339.415 -1.25926 -1.96634 0
M  V30 3610 C 340.396 -0.140349 -1.6952 0
M  V30 3611 O 341.581 -0.329707 -1.91381 0
M  V30 3612 C 338.711 -0.99512 -3.32738 0
M  V30 3613 C 337.665 -2.0767 -3.74242 0
M  V30 3614 C 336.991 -1.66474 -5.08125 0
M  V30 3615 C 338.291 -3.49318 -3.88297 0
M  V30 3616 H 339.985 -2.20046 -2.03027 0
M  V30 3617 H 337.531 -1.05931 -0.975425 0
M  V30 3618 H 339.484 -0.930323 -4.11002 0
M  V30 3619 H 338.208 -0.0183004 -3.26595 0
M  V30 3620 H 336.867 -2.13187 -2.98239 0
M  V30 3621 H 336.515 -0.675012 -4.9845 0
M  V30 3622 H 336.215 -2.3885 -5.36865 0
M  V30 3623 H 337.739 -1.61455 -5.88867 0
M  V30 3624 H 339.153 -3.46316 -4.56879 0
M  V30 3625 H 337.55 -4.20158 -4.28471 0
M  V30 3626 H 338.62 -3.8801 -2.9082 0
M  V30 3627 N 339.963 1.05934 -1.16686 0
M  V30 3628 C 341.203 1.80382 -0.961345 0
M  V30 3629 C 341.567 1.85331 0.501643 0
M  V30 3630 O 342.768 2.55795 0.825986 0
M  V30 3631 C 341.039 3.20777 -1.57596 0
M  V30 3632 S 342.598 4.11795 -1.51559 0
M  V30 3633 H 339.416 0.621332 -0.345641 0
M  V30 3634 H 342.018 1.27157 -1.48497 0
M  V30 3635 H 340.722 3.14773 -2.63337 0
M  V30 3636 H 340.253 3.79078 -1.05182 0
M  V30 3637 H 342.268 4.93485 -0.518374 0
M  V30 3638 N 341.441 0.965919 1.2453 0
M  V30 3639 C 342.351 0.502154 2.29163 0
M  V30 3640 C 343.367 -0.436017 1.68448 0
M  V30 3641 O 344.543 -0.309497 1.99008 0
M  V30 3642 C 341.608 -0.201956 3.46111 0
M  V30 3643 C 340.669 0.775821 4.22232 0
M  V30 3644 C 339.902 0.105217 5.33596 0
M  V30 3645 O 340.125 -1.10683 5.59558 0
M  V30 3646 O 339.059 0.796475 5.96607 0
M  V30 3647 H 342.885 1.37194 2.70946 0
M  V30 3648 H 340.47 0.732875 1.30189 0
M  V30 3649 H 342.352 -0.597564 4.17142 0
M  V30 3650 H 341.027 -1.04673 3.06309 0
M  V30 3651 H 339.934 1.22185 3.53584 0
M  V30 3652 H 341.267 1.58896 4.65846 0
M  V30 3653 N 342.919 -1.39368 0.735821 0
M  V30 3654 C 344.167 -2.00101 0.283562 0
M  V30 3655 C 344.488 -1.5868 -1.13338 0
M  V30 3656 O 343.758 -0.835423 -1.77193 0
M  V30 3657 H 342.338 -0.740024 0.101851 0
M  V30 3658 H 345 -1.70404 0.945962 0
M  V30 3659 H 344.096 -3.10323 0.332604 0
M  V30 3660 N 344.397 -0.483516 -1.5 0
M  V30 3661 C 345.36 0.292965 -2.2732 0
M  V30 3662 C 346.36 0.909499 -1.32608 0
M  V30 3663 O 347.55 0.776745 -1.55924 0
M  V30 3664 C 344.682 1.41854 -3.09984 0
M  V30 3665 H 345.875 -0.385289 -2.97415 0
M  V30 3666 H 343.428 -0.237942 -1.54478 0
M  V30 3667 H 344.163 2.13148 -2.44414 0
M  V30 3668 H 343.948 0.982114 -3.79601 0
M  V30 3669 H 345.438 1.96597 -3.68429 0
M  V30 3670 N 345.875 1.56104 -0.216619 0
M  V30 3671 C 347.123 1.97781 0.415593 0
M  V30 3672 C 347.444 1.10536 1.60645 0
M  V30 3673 O 346.714 0.181303 1.95059 0
M  V30 3674 H 345.294 0.730415 0.156534 0
M  V30 3675 H 347.956 1.92445 -0.308366 0
M  V30 3676 H 347.052 3.03072 0.74525 0
M  V30 3677 N 347.353 -0.0568162 1.57498 0
M  V30 3678 C 348.583 -0.764515 1.91934 0
M  V30 3679 C 348.991 -1.70877 0.81227 0
M  V30 3680 O 348.334 -1.82351 -0.222213 0
M  V30 3681 C 348.396 -1.5994 3.21962 0
M  V30 3682 C 348.06 -0.822925 4.4953 0
M  V30 3683 C 349.057 -0.135464 5.19723 0
M  V30 3684 C 346.742 -0.785666 4.96117 0
M  V30 3685 C 348.736 0.578861 6.34766 0
M  V30 3686 C 346.423 -0.0675784 6.11063 0
M  V30 3687 C 347.421 0.613471 6.80239 0
M  V30 3688 O 347.109 1.31996 7.92989 0
M  V30 3689 H 346.841 -0.221647 0.63863 0
M  V30 3690 H 349.395 -0.0268218 2.05382 0
M  V30 3691 H 347.625 -2.38026 3.04763 0
M  V30 3692 H 349.314 -2.18715 3.41934 0
M  V30 3693 H 350.08 -0.155458 4.84751 0
M  V30 3694 H 345.959 -1.30524 4.42136 0
M  V30 3695 H 349.503 1.111 6.88696 0
M  V30 3696 H 345.4 -0.0455636 6.45484 0
M  V30 3697 H 346.168 1.23077 8.09194 0
M  V30 3698 N 348.832 -1.54138 -0.328536 0
M  V30 3699 C 350.109 -1.62749 -1.08499 0
M  V30 3700 C 350.489 -0.458198 -2.06067 0
M  V30 3701 O 349.837 0.548046 -2.2183 0
M  V30 3702 C 350.047 -2.99519 -1.79135 0
M  V30 3703 C 351.395 -3.55394 -2.32337 0
M  V30 3704 O 352.419 -3.01792 -1.89209 0
M  V30 3705 O 351.278 -4.49186 -3.11279 0
M  V30 3706 H 348.372 -0.65886 -0.499832 0
M  V30 3707 H 350.918 -1.66484 -0.328826 0
M  V30 3708 H 349.69 -3.76061 -1.08139 0
M  V30 3709 H 349.313 -2.99441 -2.61574 0
M  V30 3710 N 350.31 0.590341 -1.46126 0
M  V30 3711 C 351.559 1.34499 -1.50309 0
M  V30 3712 C 351.872 1.94977 -0.156021 0
M  V30 3713 O 353.078 2.71395 -0.0756037 0
M  V30 3714 C 351.534 2.43723 -2.64815 0
M  V30 3715 C 351.142 1.89582 -4.0591 0
M  V30 3716 C 352.886 3.20579 -2.78262 0
M  V30 3717 C 350.793 2.9639 -5.11769 0
M  V30 3718 H 349.723 0.505593 -0.559368 0
M  V30 3719 H 352.374 0.630848 -1.72315 0
M  V30 3720 H 350.756 3.17902 -2.36124 0
M  V30 3721 H 351.93 1.21997 -4.44357 0
M  V30 3722 H 350.245 1.25418 -3.97063 0
M  V30 3723 H 352.842 4.00276 -3.54519 0
M  V30 3724 H 353.185 3.72684 -1.85505 0
M  V30 3725 H 353.718 2.53505 -3.06562 0
M  V30 3726 H 350.457 2.49181 -6.06291 0
M  V30 3727 H 349.977 3.62487 -4.77873 0
M  V30 3728 H 351.656 3.60474 -5.37278 0
M  V30 3729 N 351.788 1.33704 0.83433 0
M  V30 3730 C 353.037 1.24763 1.58484 0
M  V30 3731 C 353.35 -0.183775 1.94735 0
M  V30 3732 O 354.556 -0.395234 2.68608 0
M  V30 3733 C 353.012 2.18638 2.85876 0
M  V30 3734 C 352.62 3.66974 2.56971 0
M  V30 3735 C 354.364 2.18581 3.63899 0
M  V30 3736 C 352.271 4.5275 3.80488 0
M  V30 3737 H 351.201 0.463425 0.594772 0
M  V30 3738 H 353.852 1.58797 0.919551 0
M  V30 3739 H 352.234 1.77542 3.5397 0
M  V30 3740 H 353.408 4.16538 1.9706 0
M  V30 3741 H 351.723 3.69366 1.92244 0
M  V30 3742 H 354.32 2.79894 4.55591 0
M  V30 3743 H 354.663 1.18207 3.99165 0
M  V30 3744 H 355.196 2.58062 3.02735 0
M  V30 3745 H 351.935 5.54017 3.5035 0
M  V30 3746 H 351.455 4.07927 4.39722 0
M  V30 3747 H 353.134 4.66784 4.4802 0
M  V30 3748 N 353.266 -1.05314 1.17247 0
M  V30 3749 C 354.196 -2.1498 0.911362 0
M  V30 3750 C 355.177 -1.69471 -0.146169 0
M  V30 3751 O 356.362 -1.942 0.003812 0
M  V30 3752 C 353.492 -3.4472 0.422528 0
M  V30 3753 C 352.446 -4.03789 1.4191 0
M  V30 3754 C 351.772 -5.28858 0.788274 0
M  V30 3755 C 353.072 -4.41418 2.7919 0
M  V30 3756 H 354.766 -2.3708 1.82848 0
M  V30 3757 H 352.312 -1.13938 0.880569 0
M  V30 3758 H 354.265 -4.20787 0.227289 0
M  V30 3759 H 352.989 -3.22269 -0.530123 0
M  V30 3760 H 351.648 -3.2979 1.60106 0
M  V30 3761 H 351.296 -5.02709 -0.171173 0
M  V30 3762 H 350.996 -5.69338 1.45353 0
M  V30 3763 H 352.52 -6.07612 0.603282 0
M  V30 3764 H 353.934 -5.08524 2.64719 0
M  V30 3765 H 352.331 -4.92913 3.42282 0
M  V30 3766 H 353.401 -3.51819 3.33693 0
M  V30 3767 N 354.744 -0.972509 -1.24016 0
M  V30 3768 C 355.993 -0.632603 -1.91523 0
M  V30 3769 C 356.306 0.836641 -1.76804 0
M  V30 3770 O 357.512 1.28728 -2.39043 0
M  V30 3771 C 355.968 -1.08082 -3.43287 0
M  V30 3772 C 355.576 -2.57386 -3.66683 0
M  V30 3773 C 357.32 -0.814288 -4.16617 0
M  V30 3774 C 355.227 -2.95915 -5.12043 0
M  V30 3775 H 354.157 -0.232898 -0.717129 0
M  V30 3776 H 356.808 -1.17936 -1.40582 0
M  V30 3777 H 355.19 -0.462339 -3.93292 0
M  V30 3778 H 356.364 -3.24405 -3.27258 0
M  V30 3779 H 354.679 -2.81701 -3.06649 0
M  V30 3780 H 357.276 -1.0781 -5.23718 0
M  V30 3781 H 357.619 0.24955 -4.15551 0
M  V30 3782 H 358.152 -1.39397 -3.72577 0
M  V30 3783 H 354.891 -4.0139 -5.18234 0
M  V30 3784 H 354.411 -2.33584 -5.52448 0
M  V30 3785 H 356.09 -2.86086 -5.80314 0
M  V30 3786 N 356.222 1.38976 -0.743202 0
M  V30 3787 C 357.132 2.3434 -0.110399 0
M  V30 3788 C 358.148 1.58741 0.712559 0
M  V30 3789 O 359.324 1.9099 0.639125 0
M  V30 3790 C 356.389 3.37812 0.780012 0
M  V30 3791 C 355.45 4.29263 -0.0561319 0
M  V30 3792 C 354.683 5.27793 0.791875 0
M  V30 3793 O 354.906 5.33043 2.03031 0
M  V30 3794 O 353.84 6.01512 0.216183 0
M  V30 3795 H 357.666 2.90129 -0.897714 0
M  V30 3796 H 355.251 1.40643 -0.503966 0
M  V30 3797 H 357.133 4.01194 1.28923 0
M  V30 3798 H 355.808 2.84395 1.546 0
M  V30 3799 H 354.715 3.69076 -0.611056 0
M  V30 3800 H 356.048 4.85907 -0.784531 0
M  V30 3801 N 357.7 0.491464 1.49741 0
M  V30 3802 C 358.928 -0.0535151 2.06831 0
M  V30 3803 C 359.343 -1.31683 1.35296 0
M  V30 3804 O 358.7 -1.77402 0.42836 0
M  V30 3805 C 358.751 -0.320835 3.60073 0
M  V30 3806 O 358.472 0.892394 4.28915 0
M  V30 3807 C 359.973 -0.910519 4.33848 0
M  V30 3808 H 357.193 0.0161909 0.670805 0
M  V30 3809 H 359.737 0.68609 1.92647 0
M  V30 3810 H 357.892 -1.0104 3.73991 0
M  V30 3811 H 358.306 0.649401 5.20464 0
M  V30 3812 H 359.78 -1.04721 5.41976 0
M  V30 3813 H 360.257 -1.90589 3.95692 0
M  V30 3814 H 360.863 -0.258712 4.24512 0
M  V30 3815 N 359.178 -1.55987 0.224894 0
M  V30 3816 C 360.424 -1.98684 -0.406502 0
M  V30 3817 C 360.757 -1.11248 -1.59177 0
M  V30 3818 O 360.032 -0.170909 -1.93748 0
M  V30 3819 C 360.315 -3.50218 -0.837808 0
M  V30 3820 C 360.168 -4.48426 0.351332 0
M  V30 3821 C 361.487 -4.06243 -1.69278 0
M  V30 3822 H 358.606 -0.722337 -0.146283 0
M  V30 3823 H 361.248 -1.87255 0.321799 0
M  V30 3824 H 359.398 -3.60089 -1.45837 0
M  V30 3825 H 361.07 -4.50562 0.989526 0
M  V30 3826 H 359.313 -4.22159 0.998207 0
M  V30 3827 H 359.984 -5.52 0.00655905 0
M  V30 3828 H 362.46 -3.99337 -1.16914 0
M  V30 3829 H 361.336 -5.12581 -1.96346 0
M  V30 3830 H 361.597 -3.53332 -2.65723 0
M  V30 3831 N 360.656 0.0484629 -1.57525 0
M  V30 3832 C 361.904 0.741657 -1.88 0
M  V30 3833 C 362.225 1.76918 -0.820054 0
M  V30 3834 O 361.495 1.95335 0.148661 0
M  V30 3835 H 360.075 0.276908 -0.69378 0
M  V30 3836 H 362.737 0.019013 -1.94891 0
M  V30 3837 H 361.833 1.24336 -2.86264 0
M  V30 3838 N 362.134 1.5431 0.320358 0
M  V30 3839 C 363.38 1.72924 1.05949 0
M  V30 3840 C 363.713 0.503185 1.87568 0
M  V30 3841 O 362.988 -0.499839 1.87968 0
M  V30 3842 C 363.271 3.00676 1.98156 0
M  V30 3843 C 363.124 4.3354 1.19845 0
M  V30 3844 C 364.443 3.24198 2.9763 0
M  V30 3845 H 361.562 0.629195 0.383774 0
M  V30 3846 H 364.204 1.87008 0.335854 0
M  V30 3847 H 362.354 2.888 2.59859 0
M  V30 3848 H 364.026 4.57305 0.605773 0
M  V30 3849 H 362.269 4.309 0.500784 0
M  V30 3850 H 362.94 5.19156 1.87567 0
M  V30 3851 H 365.416 3.35557 2.4605 0
M  V30 3852 H 364.292 4.14938 3.59329 0
M  V30 3853 H 364.553 2.41577 3.7026 0
M  V30 3854 N 363.613 -0.582584 1.46437 0
M  V30 3855 C 364.861 -1.33814 1.51453 0
M  V30 3856 C 365.182 -1.94277 0.167792 0
M  V30 3857 O 364.452 -1.78566 -0.805677 0
M  V30 3858 H 363.032 -0.496838 0.557818 0
M  V30 3859 H 365.694 -0.682281 1.82568 0
M  V30 3860 H 364.79 -2.14479 2.26728 0
M  V30 3861 N 365.091 -1.34144 -0.827227 0
M  V30 3862 C 366.023 -1.21206 -1.9453 0
M  V30 3863 C 367.036 -0.140176 -1.62195 0
M  V30 3864 O 368.225 -0.391647 -1.7415 0
M  V30 3865 C 365.325 -0.839141 -3.28347 0
M  V30 3866 C 364.498 -2.0051 -3.88734 0
M  V30 3867 C 363.557 -1.61128 -5.00923 0
M  V30 3868 O 362.583 -2.32726 -5.19449 0
M  V30 3869 N 363.785 -0.522958 -5.7814 0
M  V30 3870 H 366.55 -2.17525 -2.06162 0
M  V30 3871 H 364.111 -1.27043 -1.00358 0
M  V30 3872 H 366.103 -0.557556 -4.00841 0
M  V30 3873 H 364.673 0.0337293 -3.12582 0
M  V30 3874 H 363.893 -2.45166 -3.08686 0
M  V30 3875 H 365.181 -2.78498 -4.25812 0
M  V30 3876 H 364.579 0.0723518 -5.65654 0
M  V30 3877 H 363.136 -0.301089 -6.51104 0
M  V30 3878 N 366.569 1.04691 -1.17803 0
M  V30 3879 C 367.794 1.81984 -0.994813 0
M  V30 3880 C 368.219 1.82586 0.452112 0
M  V30 3881 O 367.577 1.23854 1.324 0
M  V30 3882 C 367.625 3.2575 -1.54659 0
M  V30 3883 O 366.729 4.05267 -0.763728 0
M  V30 3884 H 366.07 0.562483 -0.352857 0
M  V30 3885 H 368.6 1.3189 -1.56417 0
M  V30 3886 H 368.61 3.76541 -1.57102 0
M  V30 3887 H 367.285 3.24627 -2.59981 0
M  V30 3888 H 365.862 3.63972 -0.811108 0
M  V30 3889 N 368.047 0.979072 1.23499 0
M  V30 3890 C 368.957 0.526431 2.28617 0
M  V30 3891 C 369.973 -0.418126 1.68901 0
M  V30 3892 O 371.149 -0.288372 1.99325 0
M  V30 3893 C 368.214 -0.165235 3.46306 0
M  V30 3894 C 367.275 0.82056 4.21385 0
M  V30 3895 C 366.508 0.161807 5.33455 0
M  V30 3896 O 366.731 -1.04742 5.60701 0
M  V30 3897 O 365.665 0.859708 5.95729 0
M  V30 3898 H 369.491 1.4006 2.69475 0
M  V30 3899 H 367.076 0.746643 1.29405 0
M  V30 3900 H 368.958 -0.553287 4.17752 0
M  V30 3901 H 367.633 -1.01419 3.07402 0
M  V30 3902 H 366.54 1.25929 3.52268 0
M  V30 3903 H 367.873 1.63828 4.64135 0
M  V30 3904 N 369.525 -1.3858 0.750561 0
M  V30 3905 C 370.772 -2.00184 0.305373 0
M  V30 3906 C 371.1 -1.59575 -1.11203 0
M  V30 3907 O 370.355 -0.823236 -1.77542 0
M  V30 3908 C 370.654 -3.55455 0.372373 0
M  V30 3909 C 370.32 -4.15765 1.745 0
M  V30 3910 C 368.982 -4.31951 2.12065 0
M  V30 3911 C 371.334 -4.49067 2.64553 0
M  V30 3912 C 368.662 -4.78734 3.39162 0
M  V30 3913 C 371.014 -4.97265 3.91038 0
M  V30 3914 C 369.678 -5.11658 4.28676 0
M  V30 3915 H 368.948 -0.732526 0.111744 0
M  V30 3916 H 371.595 -1.65673 0.960451 0
M  V30 3917 H 369.9 -3.90084 -0.366272 0
M  V30 3918 H 371.597 -4.00999 0.00953918 0
M  V30 3919 H 368.187 -4.03579 1.44297 0
M  V30 3920 H 372.371 -4.36166 2.36796 0
M  V30 3921 H 367.627 -4.88062 3.68246 0
M  V30 3922 H 371.801 -5.22003 4.60962 0
M  V30 3923 H 369.428 -5.47668 5.27222 0
M  V30 3924 N 371.003 -0.499398 -1.49478 0
M  V30 3925 C 371.966 0.268838 -2.27618 0
M  V30 3926 C 372.966 0.895383 -1.33565 0
M  V30 3927 O 374.156 0.760164 -1.56739 0
M  V30 3928 C 371.288 1.38559 -3.11471 0
M  V30 3929 H 372.481 -0.416812 -2.96989 0
M  V30 3930 H 370.034 -0.254313 -1.54217 0
M  V30 3931 H 370.769 2.10544 -2.46661 0
M  V30 3932 H 370.554 0.941797 -3.80621 0
M  V30 3933 H 372.044 1.92678 -3.70493 0
M  V30 3934 N 372.481 1.55866 -0.233164 0
M  V30 3935 C 373.727 1.98897 0.395959 0
M  V30 3936 C 374.06 1.12091 1.58585 0
M  V30 3937 O 373.335 0.181182 1.93654 0
M  V30 3938 C 373.618 3.50658 0.819224 0
M  V30 3939 C 373.471 4.48233 -0.375109 0
M  V30 3940 C 374.79 4.07135 1.67121 0
M  V30 3941 H 371.909 0.723102 0.142451 0
M  V30 3942 H 374.551 1.87082 -0.331725 0
M  V30 3943 H 372.701 3.60857 1.43925 0
M  V30 3944 H 374.373 4.50031 -1.01341 0
M  V30 3945 H 372.616 4.21624 -1.02058 0
M  V30 3946 H 373.287 5.51988 -0.0358328 0
M  V30 3947 H 375.763 3.99952 1.14795 0
M  V30 3948 H 374.639 5.13615 1.93625 0
M  V30 3949 H 374.9 3.54736 2.63846 0
M  V30 3950 N 373.959 -0.0401083 1.57549 0
M  V30 3951 C 374.922 -1.02871 2.04817 0
M  V30 3952 C 375.922 -1.29708 0.950388 0
M  V30 3953 O 377.112 -1.24897 1.21435 0
M  V30 3954 C 374.244 -2.36443 2.45576 0
M  V30 3955 H 375.437 -0.620631 2.93408 0
M  V30 3956 H 372.99 -0.286667 1.53649 0
M  V30 3957 H 373.725 -2.82021 1.60108 0
M  V30 3958 H 373.51 -2.18296 3.25713 0
M  V30 3959 H 375 -3.07441 2.82612 0
M  V30 3960 N 375.437 -1.54477 -0.31217 0
M  V30 3961 C 376.714 -1.63891 -1.06767 0
M  V30 3962 C 377.094 -0.480028 -2.0557 0
M  V30 3963 O 376.442 0.524487 -2.22399 0
M  V30 3964 C 376.652 -3.01402 -1.75948 0
M  V30 3965 C 378 -3.57838 -2.28554 0
M  V30 3966 O 379.024 -3.03782 -1.85998 0
M  V30 3967 O 377.883 -4.52462 -3.06497 0
M  V30 3968 H 374.977 -0.664125 -0.492816 0
M  V30 3969 H 377.523 -1.66823 -0.311149 0
M  V30 3970 H 376.295 -3.77187 -1.04144 0
M  V30 3971 H 375.918 -3.02199 -2.58383 0
M  V30 3972 N 376.915 0.57481 -1.46744 0
M  V30 3973 C 377.848 1.69827 -1.52427 0
M  V30 3974 C 378.826 1.58151 -0.377744 0
M  V30 3975 O 380.01 1.79257 -0.58303 0
M  V30 3976 C 377.137 3.07943 -1.41027 0
M  V30 3977 C 376.183 3.38116 -2.59961 0
M  V30 3978 S 377.016 3.29313 -4.22272 0
M  V30 3979 C 378.172 4.69953 -4.13394 0
M  V30 3980 H 378.405 1.64748 -2.47478 0
M  V30 3981 H 375.938 0.754203 -1.34726 0
M  V30 3982 H 377.896 3.87619 -1.35137 0
M  V30 3983 H 376.557 3.10504 -0.473909 0
M  V30 3984 H 375.75 4.38762 -2.47999 0
M  V30 3985 H 375.352 2.66024 -2.62882 0
M  V30 3986 H 377.644 5.60517 -3.80562 0
M  V30 3987 H 378.587 4.86972 -5.14066 0
M  V30 3988 H 378.995 4.47174 -3.44522 0
M  V30 3989 N 378.394 1.34581 0.820102 0
M  V30 3990 C 379.64 1.27285 1.57881 0
M  V30 3991 C 379.973 -0.156137 1.93571 0
M  V30 3992 O 379.248 -1.10222 1.60254 0
M  V30 3993 C 379.531 2.16639 2.87645 0
M  V30 3994 C 379.384 3.68088 2.58517 0
M  V30 3995 C 380.703 2.05378 3.8924 0
M  V30 3996 H 377.822 0.463714 0.572833 0
M  V30 3997 H 380.464 1.64859 0.944539 0
M  V30 3998 H 378.614 1.84725 3.41773 0
M  V30 3999 H 380.286 4.10382 2.10676 0
M  V30 4000 H 378.529 3.89038 1.91917 0
M  V30 4001 H 379.2 4.2598 3.51063 0
M  V30 4002 H 381.676 2.33404 3.44473 0
M  V30 4003 H 380.552 2.7012 4.77835 0
M  V30 4004 H 380.813 1.0316 4.29896 0
M  V30 4005 N 379.872 -1.04064 1.18357 0
M  V30 4006 C 381.149 -1.74252 0.888581 0
M  V30 4007 C 381.529 -2.02138 -0.60856 0
M  V30 4008 O 380.877 -1.66656 -1.56327 0
M  V30 4009 C 381.087 -3.0277 1.73584 0
M  V30 4010 C 382.435 -3.76506 1.96286 0
M  V30 4011 O 383.459 -3.12668 1.70637 0
M  V30 4012 O 382.318 -4.91243 2.39464 0
M  V30 4013 H 379.412 -0.758271 0.330082 0
M  V30 4014 H 381.958 -1.1013 1.2911 0
M  V30 4015 H 380.73 -2.78299 2.75073 0
M  V30 4016 H 380.353 -3.74631 1.33183 0
M  V30 4017 N 381.35 -0.985608 -1.22978 0
M  V30 4018 C 382.283 -0.47487 -2.23204 0
M  V30 4019 C 383.261 0.460865 -1.55932 0
M  V30 4020 O 384.445 0.388105 -1.84461 0
M  V30 4021 C 381.572 0.312427 -3.37256 0
M  V30 4022 C 380.618 -0.568219 -4.22698 0
M  V30 4023 S 381.451 -2.01919 -4.95973 0
M  V30 4024 C 382.607 -1.24118 -6.1347 0
M  V30 4025 H 382.84 -1.32419 -2.66181 0
M  V30 4026 H 380.373 -0.792005 -1.32539 0
M  V30 4027 H 382.331 0.760645 -4.03391 0
M  V30 4028 H 380.992 1.13693 -2.92801 0
M  V30 4029 H 380.185 0.0371657 -5.03986 0
M  V30 4030 H 379.787 -0.952897 -3.61657 0
M  V30 4031 H 382.079 -0.505121 -6.75614 0
M  V30 4032 H 383.022 -2.02907 -6.78406 0
M  V30 4033 H 383.43 -0.757669 -5.59392 0
M  V30 4034 N 382.828 1.3818 -0.7579 0
M  V30 4035 C 384.075 2.00019 -0.315985 0
M  V30 4036 C 384.403 1.60163 1.10355 0
M  V30 4037 O 383.658 0.83264 1.77103 0
M  V30 4038 C 383.957 3.55252 -0.391218 0
M  V30 4039 C 383.623 4.14834 -1.76702 0
M  V30 4040 C 382.285 4.30821 -2.14353 0
M  V30 4041 C 384.637 4.47658 -2.66931 0
M  V30 4042 C 381.965 4.76928 -3.41696 0
M  V30 4043 C 384.317 4.95184 -3.93669 0
M  V30 4044 C 382.981 5.09377 -4.31383 0
M  V30 4045 H 382.251 0.731923 -0.115627 0
M  V30 4046 H 384.898 1.65161 -0.969223 0
M  V30 4047 H 383.203 3.90273 0.34558 0
M  V30 4048 H 384.9 4.00988 -0.030805 0
M  V30 4049 H 381.49 4.02808 -1.46435 0
M  V30 4050 H 385.674 4.34904 -2.39106 0
M  V30 4051 H 380.93 4.86103 -3.70829 0
M  V30 4052 H 385.104 5.19551 -4.63724 0
M  V30 4053 H 382.731 5.44865 -5.30119 0
M  V30 4054 N 384.306 0.507319 1.49211 0
M  V30 4055 C 385.552 -0.0350047 2.0277 0
M  V30 4056 C 385.885 -1.3606 1.38569 0
M  V30 4057 O 385.16 -1.87321 0.523542 0
M  V30 4058 C 385.443 -0.180916 3.59645 0
M  V30 4059 C 385.296 1.16825 4.34364 0
M  V30 4060 C 386.615 -0.918558 4.30407 0
M  V30 4061 H 383.734 -0.0112473 0.736914 0
M  V30 4062 H 386.376 0.659956 1.7817 0
M  V30 4063 H 384.526 -0.772826 3.80736 0
M  V30 4064 H 386.198 1.79952 4.24753 0
M  V30 4065 H 384.441 1.75594 3.96673 0
M  V30 4066 H 385.112 1.01939 5.42506 0
M  V30 4067 H 387.588 -0.41649 4.1401 0
M  V30 4068 H 386.464 -0.989505 5.39907 0
M  V30 4069 H 386.725 -1.96373 3.96093 0
M  V30 4070 N 385.784 -1.5574 0.241426 0
M  V30 4071 C 386.714 -2.24133 -0.654722 0
M  V30 4072 C 387.695 -1.21974 -1.1856 0
M  V30 4073 O 388.88 -1.50612 -1.22595 0
M  V30 4074 C 386.01 -2.93659 -1.85423 0
M  V30 4075 C 384.964 -4.0246 -1.45636 0
M  V30 4076 C 384.29 -4.59383 -2.73626 0
M  V30 4077 C 385.59 -5.18468 -0.631506 0
M  V30 4078 H 387.284 -2.99281 -0.0844353 0
M  V30 4079 H 384.83 -1.43947 -0.0391707 0
M  V30 4080 H 386.783 -3.40203 -2.48676 0
M  V30 4081 H 385.507 -2.15991 -2.44981 0
M  V30 4082 H 384.166 -3.56676 -0.847202 0
M  V30 4083 H 383.814 -3.78422 -3.3137 0
M  V30 4084 H 383.514 -5.32826 -2.4773 0
M  V30 4085 H 385.038 -5.08658 -3.37786 0
M  V30 4086 H 386.452 -5.61272 -1.1682 0
M  V30 4087 H 384.849 -5.98266 -0.468831 0
M  V30 4088 H 385.919 -4.8358 0.357506 0
M  V30 4089 N 387.262 0.0317525 -1.57568 0
M  V30 4090 C 388.192 1.03274 -2.0942 0
M  V30 4091 C 389.173 1.3788 -0.996143 0
M  V30 4092 O 390.358 1.46811 -1.27122 0
M  V30 4093 C 387.488 2.33448 -2.57137 0
M  V30 4094 C 386.442 2.13091 -3.71182 0
M  V30 4095 C 385.768 3.49001 -4.05095 0
M  V30 4096 C 387.068 1.51928 -4.99715 0
M  V30 4097 H 388.762 0.60112 -2.93303 0
M  V30 4098 H 386.308 0.287705 -1.41097 0
M  V30 4099 H 388.261 3.03802 -2.92032 0
M  V30 4100 H 386.985 2.78665 -1.70333 0
M  V30 4101 H 385.644 1.45171 -3.36632 0
M  V30 4102 H 385.292 3.91862 -3.15362 0
M  V30 4103 H 384.992 3.36207 -4.81911 0
M  V30 4104 H 386.516 4.20721 -4.42522 0
M  V30 4105 H 387.93 2.12196 -5.32584 0
M  V30 4106 H 386.327 1.49716 -5.81124 0
M  V30 4107 H 387.397 0.484811 -4.8247 0
M  V30 4108 N 388.74 1.54641 0.303973 0
M  V30 4109 C 389.67 1.88386 1.3796 0
M  V30 4110 C 390.651 0.742485 1.5304 0
M  V30 4111 O 391.836 0.997959 1.66597 0
M  V30 4112 C 388.966 2.12854 2.74427 0
M  V30 4113 C 387.92 3.28702 2.74115 0
M  V30 4114 C 387.246 3.38582 4.13844 0
M  V30 4115 C 388.546 4.65881 2.3612 0
M  V30 4116 H 390.24 2.78474 1.09966 0
M  V30 4117 H 387.786 1.33988 0.527556 0
M  V30 4118 H 389.739 2.35047 3.49758 0
M  V30 4119 H 388.463 1.19535 3.03939 0
M  V30 4120 H 387.122 3.06428 2.0124 0
M  V30 4121 H 386.77 2.42784 4.40528 0
M  V30 4122 H 386.47 4.16453 4.14537 0
M  V30 4123 H 387.994 3.63031 4.90959 0
M  V30 4124 H 389.408 4.87823 3.01167 0
M  V30 4125 H 387.805 5.46444 2.48031 0
M  V30 4126 H 388.875 4.66799 1.3125 0
M  V30 4127 N 390.218 -0.567019 1.47046 0
M  V30 4128 C 391.629 -1.14916 1.47143 0
M  V30 4129 C 391.98 -1.94954 0.220767 0
M  V30 4130 O 391.105 -2.05602 -0.67505 0
M  V30 4131 C 391.7 -2.09069 2.666 0
M  V30 4132 C 390.259 -2.62575 2.69687 0
M  V30 4133 C 389.406 -1.38755 2.40088 0
M  V30 4134 H 392.357 -0.354126 1.54699 0
M  V30 4135 H 392.378 -2.92789 2.43011 0
M  V30 4136 H 391.89 -1.50789 3.57609 0
M  V30 4137 H 389.991 -3.24681 1.82792 0
M  V30 4138 H 390.104 -3.04239 3.70102 0
M  V30 4139 H 388.468 -1.69098 1.90468 0
M  V30 4140 H 389.251 -0.822822 3.33293 0
M  V30 4141 N 391.696 -1.35014 -0.812953 0
M  V30 4142 C 393.107 -1.25035 -1.38648 0
M  V30 4143 C 393.458 0.119967 -1.95833 0
M  V30 4144 O 392.583 1.02069 -1.90816 0
M  V30 4145 C 393.178 -2.26394 -2.52054 0
M  V30 4146 C 391.737 -2.20175 -3.05287 0
M  V30 4147 C 390.884 -2.12451 -1.78213 0
M  V30 4148 H 393.835 -1.46235 -0.616516 0
M  V30 4149 H 393.856 -1.88672 -3.30429 0
M  V30 4150 H 393.368 -3.26116 -2.10404 0
M  V30 4151 H 391.469 -1.23841 -3.51417 0
M  V30 4152 H 391.582 -3.11863 -3.63701 0
M  V30 4153 H 389.946 -1.58328 -1.9951 0
M  V30 4154 H 390.729 -3.14024 -1.38723 0
M  V30 4155 N 393.175 1.03435 -1.18907 0
M  V30 4156 C 394.138 2.09756 -0.923844 0
M  V30 4157 C 395.138 1.60528 0.093416 0
M  V30 4158 O 396.328 1.73631 -0.140727 0
M  V30 4159 C 393.46 3.38692 -0.387354 0
M  V30 4160 H 394.653 2.34719 -1.86674 0
M  V30 4161 H 392.206 1.19959 -1.00197 0
M  V30 4162 H 392.941 3.19396 0.561845 0
M  V30 4163 H 392.726 3.75742 -1.12074 0
M  V30 4164 H 394.216 4.17016 -0.220694 0
M  V30 4165 N 394.653 0.992116 1.22453 0
M  V30 4166 C 395.901 0.666215 1.90804 0
M  V30 4167 C 396.222 -0.804152 1.77647 0
M  V30 4168 O 395.492 -1.57629 1.16318 0
M  V30 4169 H 394.072 0.243423 0.706225 0
M  V30 4170 H 396.734 1.25845 1.48825 0
M  V30 4171 H 395.83 0.928069 2.97982 0
M  V30 4172 N 396.131 -1.37776 0.765217 0
M  V30 4173 C 397.379 -1.99454 0.325943 0
M  V30 4174 C 397.7 -1.61049 -1.09947 0
M  V30 4175 O 396.97 -0.872821 -1.75381 0
M  V30 4176 H 395.55 -0.737697 0.117525 0
M  V30 4177 H 398.212 -1.68359 0.981895 0
M  V30 4178 H 397.308 -3.09547 0.398353 0
M  V30 4179 N 397.609 -0.515225 -1.4894 0
M  V30 4180 C 398.886 0.0879088 -1.95402 0
M  V30 4181 C 399.266 1.52745 -1.45712 0
M  V30 4182 O 398.614 2.18238 -0.677093 0
M  V30 4183 C 398.824 -0.0141055 -3.48997 0
M  V30 4184 C 400.172 0.152646 -4.24326 0
M  V30 4185 O 401.196 0.0604025 -3.56149 0
M  V30 4186 O 400.055 0.34384 -5.45417 0
M  V30 4187 H 397.149 0.0874636 -0.822362 0
M  V30 4188 H 399.695 -0.578775 -1.59525 0
M  V30 4189 H 398.467 -1.01745 -3.77841 0
M  V30 4190 H 398.09 0.692091 -3.9153 0
M  V30 4191 N 399.087 1.5561 -0.249682 0
M  V30 4192 C 399.997 2.25143 0.659375 0
M  V30 4193 C 401.013 1.2685 1.19101 0
M  V30 4194 O 402.189 1.59732 1.22669 0
M  V30 4195 C 399.254 2.93945 1.8384 0
M  V30 4196 C 398.315 4.07655 1.34596 0
M  V30 4197 C 397.548 4.73167 2.46878 0
M  V30 4198 O 397.771 4.37768 3.65671 0
M  V30 4199 O 396.705 5.61623 2.16478 0
M  V30 4200 H 400.531 3.03545 0.0968698 0
M  V30 4201 H 398.116 1.49389 -0.018074 0
M  V30 4202 H 399.998 3.37271 2.52638 0
M  V30 4203 H 398.673 2.18481 2.38847 0
M  V30 4204 H 397.58 3.68839 0.625174 0
M  V30 4205 H 398.913 4.84946 0.841941 0
M  V30 4206 N 400.565 -0.0233959 1.57583 0
M  V30 4207 C 401.495 -1.02162 2.09965 0
M  V30 4208 C 402.476 -1.3735 1.00344 0
M  V30 4209 O 403.661 -1.46135 1.27899 0
M  V30 4210 C 400.791 -2.32081 2.58371 0
M  V30 4211 C 399.745 -2.1112 3.72307 0
M  V30 4212 C 399.071 -3.46848 4.06941 0
M  V30 4213 C 400.371 -1.49276 5.00514 0
M  V30 4214 H 402.065 -0.585557 2.93618 0
M  V30 4215 H 399.611 -0.280218 1.41247 0
M  V30 4216 H 401.564 -3.02249 2.93639 0
M  V30 4217 H 400.288 -2.77758 1.71808 0
M  V30 4218 H 398.947 -1.43384 3.37397 0
M  V30 4219 H 398.595 -3.90184 3.17436 0
M  V30 4220 H 398.295 -3.33646 4.83688 0
M  V30 4221 H 399.819 -4.18369 4.44747 0
M  V30 4222 H 401.233 -2.09368 5.33702 0
M  V30 4223 H 399.63 -1.46632 5.8191 0
M  V30 4224 H 400.7 -0.459217 4.82721 0
M  V30 4225 N 402.043 -1.548 -0.295768 0
M  V30 4226 C 402.975 -1.82492 -1.3867 0
M  V30 4227 C 403.988 -0.708134 -1.46592 0
M  V30 4228 O 405.177 -0.985686 -1.48817 0
M  V30 4229 C 402.277 -1.95256 -2.76999 0
M  V30 4230 C 401.45 -3.25709 -2.91946 0
M  V30 4231 C 400.509 -3.28824 -4.10806 0
M  V30 4232 O 399.535 -4.02328 -4.02643 0
M  V30 4233 N 400.737 -2.5459 -5.21694 0
M  V30 4234 H 403.502 -2.76646 -1.15269 0
M  V30 4235 H 401.063 -1.54438 -0.485849 0
M  V30 4236 H 403.055 -1.94736 -3.54768 0
M  V30 4237 H 401.625 -1.08072 -2.93324 0
M  V30 4238 H 400.845 -3.38959 -2.01247 0
M  V30 4239 H 402.133 -4.11786 -2.98847 0
M  V30 4240 H 401.531 -1.94512 -5.31208 0
M  V30 4241 H 400.088 -2.59818 -5.97778 0
M  V30 4242 N 403.521 0.559213 -1.47345 0
M  V30 4243 C 404.769 1.31388 -1.53563 0
M  V30 4244 C 405.09 1.93985 -0.198678 0
M  V30 4245 O 404.36 1.79825 0.777167 0
M  V30 4246 H 402.94 0.487901 -0.565652 0
M  V30 4247 H 405.602 0.65315 -1.8363 0
M  V30 4248 H 404.698 2.10844 -2.30111 0
M  V30 4249 N 404.999 1.35443 0.805782 0
M  V30 4250 C 406.248 1.28097 1.55801 0
M  V30 4251 C 406.561 -0.142428 1.95081 0
M  V30 4252 O 407.767 -0.33817 2.69386 0
M  V30 4253 C 406.223 2.24653 2.81174 0
M  V30 4254 C 405.831 3.72342 2.49129 0
M  V30 4255 C 407.575 2.2625 3.59181 0
M  V30 4256 C 405.482 4.60719 3.70799 0
M  V30 4257 H 404.412 0.475937 0.584808 0
M  V30 4258 H 407.063 1.60712 0.885661 0
M  V30 4259 H 405.445 1.85011 3.50124 0
M  V30 4260 H 406.619 4.20624 1.88181 0
M  V30 4261 H 404.934 3.73361 1.84366 0
M  V30 4262 H 407.531 2.89495 4.49552 0
M  V30 4263 H 407.874 1.26647 3.96568 0
M  V30 4264 H 408.407 2.64426 2.97193 0
M  V30 4265 H 405.146 5.61324 3.3852 0
M  V30 4266 H 404.666 4.17163 4.3097 0
M  V30 4267 H 406.345 4.76182 4.38018 0
M  V30 4268 N 406.477 -1.02803 1.19454 0
M  V30 4269 C 407.424 -2.11099 0.933046 0
M  V30 4270 C 408.394 -1.65571 -0.132447 0
M  V30 4271 O 409.579 -1.90797 0.00987576 0
M  V30 4272 C 406.719 -3.41763 0.478747 0
M  V30 4273 C 405.832 -4.00833 1.6111 0
M  V30 4274 C 404.967 -5.19511 1.10825 0
M  V30 4275 C 404.006 -5.70639 2.21445 0
M  V30 4276 N 403.143 -6.80589 1.72461 0
M  V30 4277 H 407.983 -2.32804 1.86028 0
M  V30 4278 H 405.52 -1.14179 0.927441 0
M  V30 4279 H 407.478 -4.16736 0.196745 0
M  V30 4280 H 406.108 -3.20166 -0.411493 0
M  V30 4281 H 405.16 -3.23066 2.00829 0
M  V30 4282 H 406.472 -4.34794 2.4445 0
M  V30 4283 H 405.626 -6.01645 0.781533 0
M  V30 4284 H 404.365 -4.87086 0.244606 0
M  V30 4285 H 403.37 -4.87116 2.54947 0
M  V30 4286 H 404.595 -6.05102 3.08267 0
M  V30 4287 H 402.541 -6.50016 0.884056 0
M  V30 4288 H 402.458 -7.13681 2.49389 0
M  V30 4289 H 403.726 -7.66317 1.42755 0
M  V30 4290 N 407.956 -0.998596 -1.21925 0
M  V30 4291 C 409.372 -0.710303 -1.42923 0
M  V30 4292 C 409.572 0.716933 -1.88314 0
M  V30 4293 O 408.628 1.48712 -2.04062 0
M  V30 4294 C 409.941 -1.72072 -2.466 0
M  V30 4295 C 411.489 -1.73681 -2.60392 0
M  V30 4296 C 411.964 -2.73601 -3.67296 0
M  V30 4297 N 413.455 -2.7223 -3.7476 0
M  V30 4298 C 414.19 -3.46206 -4.57087 0
M  V30 4299 N 413.686 -4.29802 -5.43362 0
M  V30 4300 N 415.479 -3.34886 -4.51451 0
M  V30 4301 H 407.63 -1.92028 -0.9077 0
M  V30 4302 H 409.893 -0.828487 -0.460775 0
M  V30 4303 H 409.599 -2.74231 -2.20206 0
M  V30 4304 H 409.473 -1.51818 -3.45299 0
M  V30 4305 H 411.86 -0.722173 -2.86127 0
M  V30 4306 H 411.941 -1.98005 -1.61949 0
M  V30 4307 H 411.585 -3.75217 -3.42307 0
M  V30 4308 H 411.515 -2.46545 -4.65321 0
M  V30 4309 H 414.006 -2.11576 -3.1312 0
M  V30 4310 H 414.319 -4.83061 -6.03218 0
M  V30 4311 H 412.664 -4.33887 -5.42925 0
M  V30 4312 H 415.855 -2.69015 -3.83078 0
M  V30 4313 H 416.028 -3.92796 -5.15379 0
M  V30 4314 N 409.434 1.37368 -0.772513 0
M  V30 4315 C 410.682 1.99279 -0.336516 0
M  V30 4316 C 411.003 1.6163 1.09091 0
M  V30 4317 O 410.273 0.882109 1.74916 0
M  V30 4318 H 408.853 0.737063 -0.121435 0
M  V30 4319 H 411.515 1.67836 -0.990809 0
M  V30 4320 H 410.611 3.09332 -0.414763 0
M  V30 4321 N 410.912 0.523116 1.48665 0
M  V30 4322 C 412.161 -0.01544 2.01694 0
M  V30 4323 C 412.474 -1.35975 1.40606 0
M  V30 4324 O 413.68 -1.98627 1.85093 0
M  V30 4325 C 412.136 -0.0779303 3.59816 0
M  V30 4326 C 411.744 1.26107 4.29885 0
M  V30 4327 C 413.488 -0.565678 4.20714 0
M  V30 4328 C 411.395 1.15954 5.79921 0
M  V30 4329 H 410.325 -0.00954163 0.75394 0
M  V30 4330 H 412.976 0.665865 1.70993 0
M  V30 4331 H 411.358 -0.824165 3.87329 0
M  V30 4332 H 412.532 2.02233 4.14051 0
M  V30 4333 H 410.847 1.68401 3.80828 0
M  V30 4334 H 413.444 -0.6595 5.30617 0
M  V30 4335 H 413.787 -1.56984 3.85567 0
M  V30 4336 H 414.32 0.12467 3.97605 0
M  V30 4337 H 411.059 2.13864 6.19631 0
M  V30 4338 H 410.579 0.439529 5.98187 0
M  V30 4339 H 412.258 0.847361 6.41427 0
M  V30 4340 N 412.39 -1.55475 0.257931 0
M  V30 4341 C 413.639 -1.98383 -0.364275 0
M  V30 4342 C 413.952 -1.14952 -1.58258 0
M  V30 4343 O 415.158 -1.47924 -2.27664 0
M  V30 4344 C 413.614 -3.53037 -0.699479 0
M  V30 4345 C 413.222 -4.45223 0.498046 0
M  V30 4346 C 414.966 -4.04575 -1.28526 0
M  V30 4347 C 412.873 -5.91238 0.138383 0
M  V30 4348 H 411.803 -0.740911 -0.13988 0
M  V30 4349 H 414.454 -1.79936 0.359883 0
M  V30 4350 H 412.836 -3.6722 -1.48207 0
M  V30 4351 H 414.01 -4.42803 1.27522 0
M  V30 4352 H 412.325 -4.04226 0.999503 0
M  V30 4353 H 414.922 -5.11196 -1.56788 0
M  V30 4354 H 415.265 -3.5258 -2.21344 0
M  V30 4355 H 415.798 -3.93762 -0.565337 0
M  V30 4356 H 412.537 -6.47294 1.03398 0
M  V30 4357 H 412.057 -5.96768 -0.602374 0
M  V30 4358 H 413.736 -6.46413 -0.27553 0
M  V30 4359 N 413.868 0.0150385 -1.57593 0
M  V30 4360 C 414.778 1.02791 -2.10882 0
M  V30 4361 C 415.794 1.38702 -1.0506 0
M  V30 4362 O 416.97 1.47739 -1.36877 0
M  V30 4363 C 414.035 2.30568 -2.58919 0
M  V30 4364 C 413.096 2.01108 -3.79281 0
M  V30 4365 C 412.329 3.22794 -4.25018 0
M  V30 4366 O 412.552 4.33959 -3.70183 0
M  V30 4367 O 411.486 3.07672 -5.17322 0
M  V30 4368 H 415.312 0.604973 -2.97613 0
M  V30 4369 H 412.897 0.23292 -1.47573 0
M  V30 4370 H 414.779 3.05662 -2.90084 0
M  V30 4371 H 413.454 2.72129 -1.75293 0
M  V30 4372 H 412.361 1.23537 -3.53114 0
M  V30 4373 H 413.694 1.64394 -4.63935 0
M  V30 4374 N 415.346 1.54954 0.287554 0
M  V30 4375 C 416.279 1.81737 1.3801 0
M  V30 4376 C 417.257 0.669412 1.48181 0
M  V30 4377 O 418.441 0.910839 1.65033 0
M  V30 4378 C 415.568 1.96606 2.75796 0
M  V30 4379 C 414.614 3.19098 2.82982 0
M  V30 4380 S 415.447 4.7683 2.43707 0
M  V30 4381 C 416.603 4.94653 3.83496 0
M  V30 4382 H 416.836 2.74122 1.15085 0
M  V30 4383 H 414.369 1.46538 0.486403 0
M  V30 4384 H 416.327 2.05858 3.55152 0
M  V30 4385 H 414.988 1.05136 2.95982 0
M  V30 4386 H 414.181 3.26344 3.84077 0
M  V30 4387 H 413.783 3.08361 2.11635 0
M  V30 4388 H 416.075 4.79502 4.78628 0
M  V30 4389 H 417.018 5.96728 3.8121 0
M  V30 4390 H 417.426 4.2272 3.74123 0
M  V30 4391 N 416.824 -0.551391 1.4764 0
M  V30 4392 C 417.787 -1.64007 1.60107 0
M  V30 4393 C 418.787 -1.53601 0.47576 0
M  V30 4394 O 419.977 -1.57655 0.740988 0
M  V30 4395 C 417.109 -3.03569 1.55108 0
M  V30 4396 H 418.302 -1.543 2.57161 0
M  V30 4397 H 415.855 -0.771776 1.35917 0
M  V30 4398 H 416.59 -3.18804 0.594519 0
M  V30 4399 H 416.375 -3.12532 2.36783 0
M  V30 4400 H 417.865 -3.82762 1.66982 0
M  V30 4401 N 418.302 -1.35869 -0.798587 0
M  V30 4402 C 419.579 -1.20145 -1.54352 0
M  V30 4403 C 419.959 0.216161 -2.0999 0
M  V30 4404 O 419.307 1.22068 -1.93162 0
M  V30 4405 C 419.517 -2.27602 -2.64572 0
M  V30 4406 C 420.865 -2.63811 -3.32699 0
M  V30 4407 O 421.889 -2.26576 -2.74849 0
M  V30 4408 O 420.748 -3.27866 -4.37226 0
M  V30 4409 H 417.842 -0.467248 -0.682355 0
M  V30 4410 H 420.388 -1.47574 -0.837859 0
M  V30 4411 H 419.16 -3.2265 -2.21388 0
M  V30 4412 H 418.783 -2.01488 -3.42766 0
M  V30 4413 N 419.78 1.02168 -1.19998 0
M  V30 4414 C 420.71 2.12488 -0.96804 0
M  V30 4415 C 421.691 1.69799 0.101185 0
M  V30 4416 O 422.876 1.94121 -0.0552993 0
M  V30 4417 C 420.006 3.43479 -0.513776 0
M  V30 4418 C 418.96 3.99884 -1.52566 0
M  V30 4419 C 418.286 5.26582 -0.928214 0
M  V30 4420 C 419.586 4.33861 -2.90795 0
M  V30 4421 H 421.28 2.32149 -1.89069 0
M  V30 4422 H 418.826 1.11564 -0.910468 0
M  V30 4423 H 420.779 4.20036 -0.338774 0
M  V30 4424 H 419.503 3.23561 0.444493 0
M  V30 4425 H 418.162 3.25429 -1.68794 0
M  V30 4426 H 417.81 5.02986 0.0378289 0
M  V30 4427 H 417.51 5.65284 -1.60397 0
M  V30 4428 H 419.034 6.05799 -0.764167 0
M  V30 4429 H 420.448 5.01327 -2.78109 0
M  V30 4430 H 418.845 4.83664 -3.55231 0
M  V30 4431 H 419.915 3.42848 -3.42904 0
M  V30 4432 N 421.258 1.00505 1.21394 0
M  V30 4433 C 422.504 0.688793 1.90745 0
M  V30 4434 C 422.837 -0.778486 1.77914 0
M  V30 4435 O 422.112 -1.56433 1.15581 0
M  V30 4436 C 422.395 1.11063 3.42545 0
M  V30 4437 C 422.248 2.63737 3.64367 0
M  V30 4438 C 423.567 0.673059 4.34923 0
M  V30 4439 H 420.686 0.251702 0.692687 0
M  V30 4440 H 423.328 1.25074 1.43026 0
M  V30 4441 H 421.478 0.632508 3.83317 0
M  V30 4442 H 423.15 3.19313 3.32922 0
M  V30 4443 H 421.393 3.05248 3.08231 0
M  V30 4444 H 422.064 2.88305 4.70727 0
M  V30 4445 H 424.54 1.08392 4.01734 0
M  V30 4446 H 423.416 0.996383 5.39781 0
M  V30 4447 H 423.677 -0.425808 4.40045 0
M  V30 4448 N 422.737 -1.36956 0.779787 0
M  V30 4449 C 423.7 -2.2851 0.177662 0
M  V30 4450 C 424.7 -1.48393 -0.619377 0
M  V30 4451 O 425.89 -1.68505 -0.441785 0
M  V30 4452 C 423.022 -3.32428 -0.755279 0
M  V30 4453 H 424.215 -2.83269 0.984823 0
M  V30 4454 H 421.768 -1.46358 0.548544 0
M  V30 4455 H 422.503 -2.82808 -1.58714 0
M  V30 4456 H 422.288 -3.91659 -0.185817 0
M  V30 4457 H 423.778 -4.00824 -1.17174 0
M  V30 4458 N 424.215 -0.530993 -1.48385 0
M  V30 4459 C 425.461 0.00274135 -2.028 0
M  V30 4460 C 425.794 1.33838 -1.40716 0
M  V30 4461 O 425.069 1.86465 -0.553277 0
M  V30 4462 C 425.352 0.123676 -3.59888 0
M  V30 4463 C 425.205 -1.2372 -4.3245 0
M  V30 4464 C 426.524 0.849967 -4.31814 0
M  V30 4465 H 423.643 -0.000477758 -0.737 0
M  V30 4466 H 426.285 -0.688217 -1.77098 0
M  V30 4467 H 424.435 0.712157 -3.81917 0
M  V30 4468 H 426.107 -1.86687 -4.21836 0
M  V30 4469 H 424.35 -1.81882 -3.93829 0
M  V30 4470 H 425.021 -1.10557 -5.40815 0
M  V30 4471 H 427.497 0.350572 -4.14621 0
M  V30 4472 H 426.373 0.903486 -5.41413 0
M  V30 4473 H 426.634 1.90047 -3.99167 0
M  V30 4474 N 425.693 1.55336 -0.266172 0
M  V30 4475 C 426.921 2.03801 0.356756 0
M  V30 4476 C 427.336 1.14485 1.50129 0
M  V30 4477 O 426.693 0.163121 1.8177 0
M  V30 4478 C 426.744 3.51455 0.846281 0
M  V30 4479 O 426.465 4.37371 -0.252663 0
M  V30 4480 C 427.966 4.15767 1.53794 0
M  V30 4481 H 425.186 0.665906 0.0825218 0
M  V30 4482 H 427.73 2.00636 -0.39566 0
M  V30 4483 H 425.885 3.55092 1.54881 0
M  V30 4484 H 426.299 5.24358 0.122173 0
M  V30 4485 H 427.773 5.20714 1.83198 0
M  V30 4486 H 428.25 3.63404 2.46646 0
M  V30 4487 H 428.856 4.16107 0.879488 0
M  V30 4488 N 427.171 -0.0066808 1.57599 0
M  V30 4489 C 428.118 -1.00024 2.08 0
M  V30 4490 C 429.088 -1.34549 0.973943 0
M  V30 4491 O 430.273 -1.44502 1.24595 0
M  V30 4492 C 427.413 -2.2891 2.58252 0
M  V30 4493 C 426.526 -2.00346 3.82734 0
M  V30 4494 C 425.661 -3.23265 4.21513 0
M  V30 4495 C 424.7 -2.90357 5.3885 0
M  V30 4496 N 423.837 -4.05793 5.72954 0
M  V30 4497 H 428.677 -0.563499 2.92624 0
M  V30 4498 H 426.214 -0.266592 1.44664 0
M  V30 4499 H 428.172 -3.04247 2.85464 0
M  V30 4500 H 426.802 -2.70265 1.76512 0
M  V30 4501 H 425.854 -1.15406 3.62471 0
M  V30 4502 H 427.166 -1.72086 4.68175 0
M  V30 4503 H 426.32 -4.06953 4.49971 0
M  V30 4504 H 425.059 -3.54657 3.34768 0
M  V30 4505 H 424.064 -2.05075 5.10122 0
M  V30 4506 H 425.289 -2.60219 6.27266 0
M  V30 4507 H 423.235 -4.37094 4.89167 0
M  V30 4508 H 423.152 -3.81034 6.52954 0
M  V30 4509 H 424.42 -4.90289 6.06001 0
M  V30 4510 N 428.649 -1.55105 -0.279332 0
M  V30 4511 C 429.874 -1.7976 -1.03446 0
M  V30 4512 C 430.299 -0.565952 -1.79384 0
M  V30 4513 O 429.657 0.484259 -1.74713 0
M  V30 4514 C 429.705 -3.0179 -1.97371 0
M  V30 4515 O 428.809 -2.76432 -3.06038 0
M  V30 4516 H 428.15 -0.594334 -0.29608 0
M  V30 4517 H 430.68 -2.02235 -0.310165 0
M  V30 4518 H 430.69 -3.30351 -2.39441 0
M  V30 4519 H 429.365 -3.91085 -1.4151 0
M  V30 4520 H 427.942 -2.58949 -2.68328 0
M  V30 4521 N 430.127 0.543554 -1.4793 0
M  V30 4522 C 431.404 1.30458 -1.4574 0
M  V30 4523 C 431.784 2.1048 -0.161692 0
M  V30 4524 O 431.132 2.11831 0.856734 0
M  V30 4525 C 431.342 2.19754 -2.71126 0
M  V30 4526 C 432.69 2.80334 -3.18901 0
M  V30 4527 O 433.714 2.30049 -2.71948 0
M  V30 4528 O 432.573 3.71766 -4.00565 0
M  V30 4529 H 429.667 0.588117 -0.581418 0
M  V30 4530 H 432.213 0.561328 -1.60147 0
M  V30 4531 H 430.985 1.60316 -3.56952 0
M  V30 4532 H 430.608 3.01351 -2.59371 0
M  V30 4533 N 431.605 1.3629 0.791371 0
M  V30 4534 C 432.853 1.30154 1.5461 0
M  V30 4535 C 433.174 -0.119409 1.94634 0
M  V30 4536 O 432.444 -1.05924 1.64794 0
M  V30 4537 H 431.024 0.478784 0.573389 0
M  V30 4538 H 433.686 1.70565 0.94306 0
M  V30 4539 H 432.782 1.92762 2.45457 0
M  V30 4540 N 433.083 -1.0153 1.20538 0
M  V30 4541 C 434.36 -1.72327 0.925343 0
M  V30 4542 C 434.74 -2.03383 -0.565547 0
M  V30 4543 O 434.088 -1.69934 -1.52757 0
M  V30 4544 C 434.298 -2.9902 1.79967 0
M  V30 4545 C 435.646 -3.72258 2.04228 0
M  V30 4546 O 436.67 -3.08979 1.77231 0
M  V30 4547 O 435.529 -4.86053 2.4983 0
M  V30 4548 H 432.623 -0.751099 0.346092 0
M  V30 4549 H 435.169 -1.07366 1.31417 0
M  V30 4550 H 433.941 -2.72402 2.80915 0
M  V30 4551 H 433.564 -3.71721 1.41099 0
M  V30 4552 N 434.561 -1.01147 -1.20859 0
M  V30 4553 C 435.491 -0.597663 -2.25722 0
M  V30 4554 C 436.472 0.384744 -1.65692 0
M  V30 4555 O 437.657 0.271303 -1.92296 0
M  V30 4556 C 434.787 0.0700149 -3.47229 0
M  V30 4557 C 433.741 -0.832843 -4.19819 0
M  V30 4558 C 433.067 -0.0312202 -5.34691 0
M  V30 4559 C 434.367 -2.1385 -4.76514 0
M  V30 4560 H 436.061 -1.47423 -2.60589 0
M  V30 4561 H 433.607 -0.710301 -1.25263 0
M  V30 4562 H 435.56 0.37103 -4.19763 0
M  V30 4563 H 434.284 0.981259 -3.11511 0
M  V30 4564 H 432.943 -1.11778 -3.49144 0
M  V30 4565 H 432.591 0.881515 -4.95215 0
M  V30 4566 H 432.291 -0.632434 -5.84187 0
M  V30 4567 H 433.815 0.26346 -6.10031 0
M  V30 4568 H 435.229 -1.9002 -5.40893 0
M  V30 4569 H 433.626 -2.69012 -5.36426 0
M  V30 4570 H 434.696 -2.80495 -3.95538 0
M  V30 4571 N 436.039 1.36541 -0.78704 0
M  V30 4572 C 437.288 1.98552 -0.35494 0
M  V30 4573 C 437.601 1.63171 1.07864 0
M  V30 4574 O 438.807 2.18399 1.61289 0
M  V30 4575 C 437.263 3.55136 -0.583671 0
M  V30 4576 C 436.871 3.99444 -2.02851 0
M  V30 4577 C 438.615 4.2395 -0.215957 0
M  V30 4578 C 436.522 5.48796 -2.20403 0
M  V30 4579 H 435.452 0.742888 -0.128972 0
M  V30 4580 H 438.103 1.5587 -0.968337 0
M  V30 4581 H 436.485 3.95875 0.0994046 0
M  V30 4582 H 437.659 3.6991 -2.74779 0
M  V30 4583 H 435.974 3.43459 -2.35425 0
M  V30 4584 H 438.571 5.33709 -0.325405 0
M  V30 4585 H 438.914 4.07827 0.835646 0
M  V30 4586 H 439.447 3.88565 -0.852175 0
M  V30 4587 H 436.186 5.69864 -3.23937 0
M  V30 4588 H 435.706 5.79964 -1.52977 0
M  V30 4589 H 437.385 6.14986 -2.01002 0
M  V30 4590 N 437.518 0.538854 1.48102 0
M  V30 4591 C 438.764 0.00801365 2.02798 0
M  V30 4592 C 439.097 -1.3309 1.41424 0
M  V30 4593 O 438.372 -1.86169 0.563158 0
M  V30 4594 C 438.655 -0.104589 3.59948 0
M  V30 4595 C 438.508 1.26012 4.31788 0
M  V30 4596 C 439.827 -0.827055 4.32259 0
M  V30 4597 H 436.946 0.00438624 0.736987 0
M  V30 4598 H 439.588 0.6976 1.7673 0
M  V30 4599 H 437.738 -0.691893 3.82289 0
M  V30 4600 H 439.41 1.88922 4.2084 0
M  V30 4601 H 437.653 1.83968 3.92859 0
M  V30 4602 H 438.324 1.13424 5.40221 0
M  V30 4603 H 440.8 -0.328578 4.14801 0
M  V30 4604 H 439.676 -0.87476 5.41885 0
M  V30 4605 H 439.937 -1.87927 4.0017 0
M  V30 4606 N 438.996 -1.55193 0.274407 0
M  V30 4607 C 440.407 -1.85358 -0.223488 0
M  V30 4608 C 440.758 -1.19642 -1.555 0
M  V30 4609 O 439.883 -0.484498 -2.10907 0
M  V30 4610 C 440.478 -3.36282 -0.412285 0
M  V30 4611 C 439.037 -3.66574 -0.854413 0
M  V30 4612 C 438.184 -2.7725 0.0527056 0
M  V30 4613 H 441.135 -1.50743 0.496215 0
M  V30 4614 H 441.156 -3.59349 -1.25094 0
M  V30 4615 H 440.668 -3.84083 0.556965 0
M  V30 4616 H 438.769 -3.24273 -1.83516 0
M  V30 4617 H 438.882 -4.74073 -0.692226 0
M  V30 4618 H 437.246 -2.50447 -0.463484 0
M  V30 4619 H 438.029 -3.27865 1.01783 0
M  V30 4620 N 440.474 -0.00167713 -1.576 0
M  V30 4621 C 441.437 0.974046 -2.07473 0
M  V30 4622 C 442.437 1.27143 -0.984444 0
M  V30 4623 O 443.627 1.21633 -1.24703 0
M  V30 4624 C 440.759 2.29849 -2.51759 0
M  V30 4625 H 441.952 0.54262 -2.9495 0
M  V30 4626 H 439.505 0.245829 -1.54355 0
M  V30 4627 H 440.24 2.77677 -1.67529 0
M  V30 4628 H 440.025 2.09584 -3.31386 0
M  V30 4629 H 441.515 2.9984 -2.90664 0
M  V30 4630 N 441.952 1.55251 0.271103 0
M  V30 4631 C 443.368 1.47133 0.618393 0
M  V30 4632 C 443.568 0.686994 1.89427 0
M  V30 4633 O 442.624 0.206609 2.51653 0
M  V30 4634 C 443.937 2.91361 0.743593 0
M  V30 4635 C 445.485 3.01587 0.837522 0
M  V30 4636 C 445.96 4.47073 0.994483 0
M  V30 4637 N 447.451 4.50909 1.05996 0
M  V30 4638 C 448.186 5.60698 1.20024 0
M  V30 4639 N 447.682 6.80348 1.30759 0
M  V30 4640 N 449.475 5.48444 1.23149 0
M  V30 4641 H 441.626 2.04698 -0.566784 0
M  V30 4642 H 443.889 0.928319 -0.192165 0
M  V30 4643 H 443.595 3.51483 -0.123493 0
M  V30 4644 H 443.469 3.40484 1.62328 0
M  V30 4645 H 445.856 2.4156 1.69507 0
M  V30 4646 H 445.937 2.55713 -0.0668086 0
M  V30 4647 H 445.581 5.07703 0.141582 0
M  V30 4648 H 445.511 4.90605 1.91349 0
M  V30 4649 H 448.002 3.6472 0.989316 0
M  V30 4650 H 448.315 7.59772 1.41303 0
M  V30 4651 H 446.66 6.83156 1.27761 0
M  V30 4652 H 449.851 4.53907 1.14394 0
M  V30 4653 H 450.024 6.34049 1.33738 0
M  V30 4654 N 443.43 -0.535701 1.48216 0
M  V30 4655 C 444.846 -0.863701 1.3421 0
M  V30 4656 C 445.046 -1.98458 0.34879 0
M  V30 4657 O 444.102 -2.51432 -0.23204 0
M  V30 4658 C 445.415 -1.23662 2.74095 0
M  V30 4659 C 446.963 -1.34683 2.82541 0
M  V30 4660 C 447.438 -1.75322 4.23115 0
M  V30 4661 N 448.929 -1.82434 4.2576 0
M  V30 4662 C 449.664 -2.15252 5.31464 0
M  V30 4663 N 449.16 -2.46533 6.47452 0
M  V30 4664 N 450.953 -2.16209 5.18855 0
M  V30 4665 H 443.104 0.203965 2.11418 0
M  V30 4666 H 445.367 0.0286033 0.947568 0
M  V30 4667 H 445.073 -0.486674 3.48316 0
M  V30 4668 H 444.947 -2.18805 3.07253 0
M  V30 4669 H 447.334 -2.08756 2.08579 0
M  V30 4670 H 447.415 -0.376756 2.5301 0
M  V30 4671 H 447.059 -1.01812 4.97591 0
M  V30 4672 H 446.989 -2.7337 4.50085 0
M  V30 4673 H 449.48 -1.6056 3.42095 0
M  V30 4674 H 449.793 -2.70662 7.23852 0
M  V30 4675 H 448.138 -2.44065 6.50736 0
M  V30 4676 H 451.329 -1.91224 4.2726 0
M  V30 4677 H 451.502 -2.41453 6.01335 0
M  V30 4678 N 444.908 -1.36708 -0.784132 0
M  V30 4679 C 446.157 -1.30559 -1.53744 0
M  V30 4680 C 446.47 0.111374 -1.95283 0
M  V30 4681 O 447.676 0.29527 -2.6989 0
M  V30 4682 C 446.132 -2.29098 -2.77565 0
M  V30 4683 C 445.74 -3.76258 -2.43174 0
M  V30 4684 C 447.484 -2.31936 -3.55536 0
M  V30 4685 C 445.391 -4.6656 -3.63422 0
M  V30 4686 H 444.321 -0.48518 -0.577162 0
M  V30 4687 H 446.972 -1.62101 -0.859981 0
M  V30 4688 H 445.354 -1.90557 -3.47137 0
M  V30 4689 H 446.528 -4.23565 -1.81465 0
M  V30 4690 H 444.843 -3.76246 -1.78403 0
M  V30 4691 H 447.44 -2.9661 -4.44889 0
M  V30 4692 H 447.783 -1.3294 -3.94503 0
M  V30 4693 H 448.316 -2.6912 -2.92949 0
M  V30 4694 H 445.055 -5.66638 -3.29547 0
M  V30 4695 H 444.575 -4.23966 -4.24279 0
M  V30 4696 H 446.254 -4.8309 -4.30387 0
M  V30 4697 N 446.386 1.0089 -1.21074 0
M  V30 4698 C 447.318 2.09737 -0.924291 0
M  V30 4699 C 448.331 1.62546 0.0909809 0
M  V30 4700 O 449.52 1.77942 -0.141021 0
M  V30 4701 C 446.62 3.36922 -0.36559 0
M  V30 4702 C 445.793 4.13216 -1.43426 0
M  V30 4703 C 444.852 5.18696 -0.885496 0
M  V30 4704 O 443.878 5.47176 -1.56801 0
M  V30 4705 N 445.08 5.79718 0.301227 0
M  V30 4706 H 447.845 2.34895 -1.8613 0
M  V30 4707 H 445.406 1.17341 -1.11546 0
M  V30 4708 H 447.398 4.04697 0.0158407 0
M  V30 4709 H 445.968 3.08952 0.476149 0
M  V30 4710 H 445.188 3.40301 -1.9897 0
M  V30 4711 H 446.476 4.60967 -2.15376 0
M  V30 4712 H 445.874 5.58926 0.872849 0
M  V30 4713 H 444.431 6.48804 0.624211 0
M  V30 4714 N 447.864 1.01787 1.20321 0
M  V30 4715 C 448.827 0.593972 2.2137 0
M  V30 4716 C 449.827 -0.336553 1.57239 0
M  V30 4717 O 451.017 -0.125069 1.7375 0
M  V30 4718 C 448.149 -0.132433 3.40643 0
M  V30 4719 H 449.342 1.48791 2.60387 0
M  V30 4720 H 446.895 0.807803 1.33807 0
M  V30 4721 H 447.63 -1.04123 3.0713 0
M  V30 4722 H 447.415 0.53605 3.88418 0
M  V30 4723 H 448.905 -0.416314 4.1552 0
M  V30 4724 N 449.342 -1.36122 0.79427 0
M  V30 4725 C 450.252 -2.33769 0.197296 0
M  V30 4726 C 451.268 -1.61276 -0.653153 0
M  V30 4727 O 452.444 -1.9323 -0.5678 0
M  V30 4728 C 449.509 -3.40474 -0.654098 0
M  V30 4729 C 448.57 -4.28759 0.215411 0
M  V30 4730 C 447.803 -5.30368 -0.595443 0
M  V30 4731 O 448.026 -5.40211 -1.83107 0
M  V30 4732 O 446.96 -6.019 0.00721351 0
M  V30 4733 H 450.786 -2.86597 1.00478 0
M  V30 4734 H 448.371 -1.38676 0.555818 0
M  V30 4735 H 450.253 -4.05703 -1.13944 0
M  V30 4736 H 448.928 -2.89937 -1.43938 0
M  V30 4737 H 447.835 -3.66554 0.747615 0
M  V30 4738 H 449.168 -4.82661 0.964332 0
M  V30 4739 N 450.82 -0.546701 -1.47814 0
M  V30 4740 C 452.05 -0.0232519 -2.06587 0
M  V30 4741 C 452.458 1.2712 -1.40133 0
M  V30 4742 O 451.801 1.77091 -0.488305 0
M  V30 4743 C 451.863 0.254117 -3.58601 0
M  V30 4744 C 451.527 -0.949331 -4.47031 0
M  V30 4745 C 452.524 -1.85216 -4.85789 0
M  V30 4746 C 450.209 -1.16104 -4.88697 0
M  V30 4747 C 452.203 -2.95047 -5.65001 0
M  V30 4748 C 449.89 -2.26247 -5.67676 0
M  V30 4749 C 450.888 -3.1555 -6.05737 0
M  V30 4750 O 450.576 -4.23784 -6.83127 0
M  V30 4751 H 450.308 -0.0380082 -0.674931 0
M  V30 4752 H 452.862 -0.756631 -1.90956 0
M  V30 4753 H 451.092 1.04168 -3.72406 0
M  V30 4754 H 452.781 0.72167 -3.99433 0
M  V30 4755 H 453.547 -1.70061 -4.54207 0
M  V30 4756 H 449.426 -0.475159 -4.58545 0
M  V30 4757 H 452.97 -3.64778 -5.94628 0
M  V30 4758 H 448.867 -2.41379 -5.98671 0
M  V30 4759 H 449.635 -4.21701 -7.01506 0
M  V30 4760 N 452.299 1.55045 -0.282633 0
M  V30 4761 C 453.545 2.00056 0.332481 0
M  V30 4762 C 453.878 1.1708 1.54939 0
M  V30 4763 O 453.153 0.2427 1.9298 0
M  V30 4764 C 453.436 3.53086 0.70725 0
M  V30 4765 C 453.289 4.46813 -0.517521 0
M  V30 4766 C 454.608 4.12245 1.54084 0
M  V30 4767 H 451.727 0.727268 0.119373 0
M  V30 4768 H 454.369 1.85932 -0.391076 0
M  V30 4769 H 452.519 3.65253 1.32372 0
M  V30 4770 H 454.191 4.46579 -1.15607 0
M  V30 4771 H 452.434 4.18163 -1.1542 0
M  V30 4772 H 453.105 5.51595 -0.211426 0
M  V30 4773 H 455.581 4.03401 1.02013 0
M  V30 4774 H 454.457 5.19515 1.77186 0
M  V30 4775 H 454.718 3.62951 2.52427 0
M  V30 4776 N 453.777 0.010035 1.57597 0
M  V30 4777 C 455.002 -0.687021 1.95691 0
M  V30 4778 C 455.427 -1.65952 0.885519 0
M  V30 4779 O 454.785 -1.80633 -0.15543 0
M  V30 4780 C 454.833 -1.3864 3.32884 0
M  V30 4781 O 453.937 -2.50115 3.27897 0
M  V30 4782 H 453.278 -0.181989 0.638573 0
M  V30 4783 H 455.808 0.0662122 2.04493 0
M  V30 4784 H 455.818 -1.74754 3.6868 0
M  V30 4785 H 454.493 -0.673411 4.10412 0
M  V30 4786 H 453.07 -2.16253 3.03791 0
M  V30 4787 N 455.255 -1.55392 -0.262866 0
M  V30 4788 C 456.218 -1.88181 -1.30846 0
M  V30 4789 C 457.218 -0.757079 -1.41862 0
M  V30 4790 O 458.408 -1.02519 -1.40838 0
M  V30 4791 C 455.54 -2.09609 -2.68844 0
M  V30 4792 H 456.733 -2.81659 -1.02997 0
M  V30 4793 H 454.286 -1.48039 -0.501414 0
M  V30 4794 H 455.021 -1.18547 -3.01856 0
M  V30 4795 H 454.806 -2.91508 -2.62231 0
M  V30 4796 H 456.296 -2.36215 -3.44372 0
M  V30 4797 N 456.733 0.527833 -1.48498 0
M  V30 4798 C 457.663 1.64136 -1.66077 0
M  V30 4799 C 458.644 1.62286 -0.509625 0
M  V30 4800 O 459.829 1.79449 -0.742413 0
M  V30 4801 C 456.959 3.02717 -1.70234 0
M  V30 4802 C 455.913 3.19426 -2.8487 0
M  V30 4803 C 455.239 4.5909 -2.74118 0
M  V30 4804 C 456.539 3.01993 -4.26142 0
M  V30 4805 H 458.233 1.4968 -2.593 0
M  V30 4806 H 455.779 0.718654 -1.24785 0
M  V30 4807 H 457.732 3.80491 -1.8112 0
M  V30 4808 H 456.456 3.18201 -0.735911 0
M  V30 4809 H 455.115 2.4407 -2.73542 0
M  V30 4810 H 454.763 4.71413 -1.7544 0
M  V30 4811 H 454.463 4.71214 -3.51042 0
M  V30 4812 H 455.987 5.3896 -2.86974 0
M  V30 4813 H 457.401 3.69558 -4.38292 0
M  V30 4814 H 455.798 3.2561 -5.04082 0
M  V30 4815 H 456.868 1.98396 -4.42456 0
M  V30 4816 N 458.211 1.37122 0.776871 0
M  V30 4817 C 459.158 1.3247 1.88998 0
M  V30 4818 C 460.128 0.191143 1.64997 0
M  V30 4819 O 461.313 0.379683 1.86984 0
M  V30 4820 C 458.453 1.13241 3.25992 0
M  V30 4821 C 457.566 2.35782 3.61982 0
M  V30 4822 C 456.701 2.09465 4.88158 0
M  V30 4823 C 455.74 3.279 5.16864 0
M  V30 4824 N 454.877 3.01167 6.34226 0
M  V30 4825 H 459.717 2.27642 1.9231 0
M  V30 4826 H 457.254 1.13125 0.94027 0
M  V30 4827 H 459.212 1.00115 4.0501 0
M  V30 4828 H 457.842 0.217186 3.22069 0
M  V30 4829 H 456.894 2.59666 2.77989 0
M  V30 4830 H 458.206 3.24125 3.79137 0
M  V30 4831 H 457.36 1.93341 5.75069 0
M  V30 4832 H 456.099 1.18452 4.73097 0
M  V30 4833 H 455.104 3.44569 4.2843 0
M  V30 4834 H 456.329 4.19757 5.33836 0
M  V30 4835 H 454.275 2.12779 6.20533 0
M  V30 4836 H 454.192 3.83052 6.51772 0
M  V30 4837 H 455.46 2.88649 7.24087 0
M  V30 4838 N 459.689 -1.00246 1.21608 0
M  V30 4839 C 460.619 -2.10921 1.00172 0
M  V30 4840 C 461.6 -1.69938 -0.0741587 0
M  V30 4841 O 462.785 -1.94009 0.0861753 0
M  V30 4842 C 459.915 -3.42618 0.568355 0
M  V30 4843 C 458.869 -3.97407 1.58909 0
M  V30 4844 C 458.195 -5.25038 1.01187 0
M  V30 4845 C 459.495 -4.2918 2.97661 0
M  V30 4846 H 461.189 -2.29112 1.92739 0
M  V30 4847 H 458.735 -1.10101 0.928102 0
M  V30 4848 H 460.688 -4.19444 0.405555 0
M  V30 4849 H 459.412 -3.24227 -0.392961 0
M  V30 4850 H 458.071 -3.22703 1.73949 0
M  V30 4851 H 457.719 -5.02982 0.0421965 0
M  V30 4852 H 457.419 -5.62661 1.6937 0
M  V30 4853 H 458.943 -6.04507 0.860448 0
M  V30 4854 H 460.357 -4.96839 2.86049 0
M  V30 4855 H 458.754 -4.77952 3.6288 0
M  V30 4856 H 459.824 -3.3735 3.48315 0
M  V30 4857 N 461.167 -1.02423 -1.1978 0
M  V30 4858 C 462.097 -0.62157 -2.25075 0
M  V30 4859 C 463.078 0.367148 -1.6609 0
M  V30 4860 O 464.263 0.250892 -1.92573 0
M  V30 4861 C 461.393 0.0331826 -3.47284 0
M  V30 4862 C 460.347 -0.877323 -4.18912 0
M  V30 4863 C 459.673 -0.0879296 -5.34628 0
M  V30 4864 C 460.973 -2.18892 -4.74219 0
M  V30 4865 H 462.667 -1.50179 -2.59011 0
M  V30 4866 H 460.213 -0.723547 -1.24502 0
M  V30 4867 H 462.166 0.326488 -4.20133 0
M  V30 4868 H 460.89 0.948164 -3.12534 0
M  V30 4869 H 459.549 -1.15475 -3.47938 0
M  V30 4870 H 459.197 0.828941 -4.96123 0
M  V30 4871 H 458.897 -0.694359 -5.83483 0
M  V30 4872 H 460.421 0.198743 -6.10276 0
M  V30 4873 H 461.835 -1.95746 -5.38847 0
M  V30 4874 H 460.232 -2.74686 -5.33542 0
M  V30 4875 H 461.302 -2.84674 -3.92541 0
M  V30 4876 N 462.645 1.35699 -0.801477 0
M  V30 4877 C 464.061 1.52065 -0.484596 0
M  V30 4878 C 464.261 1.75215 0.995084 0
M  V30 4879 O 463.317 1.79061 1.78026 0
M  V30 4880 C 464.63 2.69908 -1.32552 0
M  V30 4881 C 466.178 2.83784 -1.32044 0
M  V30 4882 C 466.653 4.04646 -2.14536 0
M  V30 4883 N 468.144 4.11814 -2.12046 0
M  V30 4884 C 468.879 5.04437 -2.72636 0
M  V30 4885 N 468.375 6.02426 -3.42133 0
M  V30 4886 N 470.168 4.97144 -2.62305 0
M  V30 4887 H 462.319 1.18928 -1.75983 0
M  V30 4888 H 464.582 0.581455 -0.748741 0
M  V30 4889 H 464.288 2.59363 -2.37537 0
M  V30 4890 H 464.162 3.64376 -0.975181 0
M  V30 4891 H 466.549 2.93783 -0.27846 0
M  V30 4892 H 466.63 1.90188 -1.71062 0
M  V30 4893 H 466.274 3.95407 -3.18772 0
M  V30 4894 H 466.204 4.97413 -1.72882 0
M  V30 4895 H 468.695 3.41664 -1.61476 0
M  V30 4896 H 469.008 6.69688 -3.85666 0
M  V30 4897 H 467.353 6.02615 -3.46237 0
M  V30 4898 H 470.544 4.19546 -2.07603 0
M  V30 4899 H 470.717 5.69138 -3.09815 0
M  V30 4900 N 464.123 0.554532 1.47522 0
M  V30 4901 C 465.07 -0.19466 2.29978 0
M  V30 4902 C 466.04 -0.910882 1.38896 0
M  V30 4903 O 467.225 -0.907102 1.67858 0
M  V30 4904 C 464.365 -1.22035 3.22802 0
M  V30 4905 C 463.478 -0.510474 4.28973 0
M  V30 4906 C 462.613 -1.52123 5.08952 0
M  V30 4907 C 461.652 -0.796173 6.069 0
M  V30 4908 N 460.789 -1.75363 6.79847 0
M  V30 4909 H 465.629 0.51461 2.93523 0
M  V30 4910 H 463.166 0.265607 1.44682 0
M  V30 4911 H 465.124 -1.8276 3.7504 0
M  V30 4912 H 463.754 -1.89769 2.61127 0
M  V30 4913 H 462.806 0.211234 3.79813 0
M  V30 4914 H 464.118 0.0576503 4.98767 0
M  V30 4915 H 463.272 -2.20207 5.65326 0
M  V30 4916 H 462.011 -2.12327 4.39054 0
M  V30 4917 H 461.016 -0.101388 5.49707 0
M  V30 4918 H 462.241 -0.199911 6.78806 0
M  V30 4919 H 460.187 -2.3443 6.12682 0
M  V30 4920 H 460.104 -1.23759 7.45801 0
M  V30 4921 H 461.372 -2.4257 7.40797 0
M  V30 4922 N 465.601 -1.54893 0.290851 0
M  V30 4923 C 467.017 -1.59476 -0.0628432 0
M  V30 4924 C 467.217 -1.30795 -1.5328 0
M  V30 4925 O 466.273 -1.07644 -2.28406 0
M  V30 4926 C 467.586 -2.98928 0.325962 0
M  V30 4927 C 469.134 -3.11799 0.273882 0
M  V30 4928 C 469.609 -4.53544 0.637359 0
M  V30 4929 N 471.1 -4.59433 0.589507 0
M  V30 4930 C 471.835 -5.67164 0.84335 0
M  V30 4931 N 471.331 -6.82975 1.16263 0
M  V30 4932 N 473.124 -5.56786 0.771091 0
M  V30 4933 H 465.275 -1.71798 1.24896 0
M  V30 4934 H 467.538 -0.801879 0.505663 0
M  V30 4935 H 467.244 -3.24805 1.34887 0
M  V30 4936 H 467.118 -3.75793 -0.325441 0
M  V30 4937 H 469.505 -2.85677 -0.739765 0
M  V30 4938 H 469.586 -2.37112 0.959766 0
M  V30 4939 H 469.23 -4.80394 1.64877 0
M  V30 4940 H 469.16 -5.26553 -0.0704866 0
M  V30 4941 H 471.651 -3.76245 0.353252 0
M  V30 4942 H 471.964 -7.61048 1.34257 0
M  V30 4943 H 470.309 -6.84552 1.20057 0
M  V30 4944 H 473.5 -4.65187 0.521383 0
M  V30 4945 H 473.673 -6.40664 0.972295 0
M  V30 4946 N 467.08 -0.0183926 -1.57589 0
M  V30 4947 C 468.305 0.676634 -1.96052 0
M  V30 4948 C 468.73 1.6548 -0.894307 0
M  V30 4949 O 468.088 1.80712 0.145849 0
M  V30 4950 C 468.136 1.36872 -3.33614 0
M  V30 4951 O 467.24 2.48372 -3.29219 0
M  V30 4952 H 466.581 0.1786 -0.63953 0
M  V30 4953 H 469.111 -0.077056 -2.04455 0
M  V30 4954 H 469.121 1.72797 -3.69601 0
M  V30 4955 H 467.796 0.651636 -4.10763 0
M  V30 4956 H 466.373 2.14639 -3.04934 0
M  V30 4957 N 468.558 1.5553 0.254621 0
M  V30 4958 C 469.49 1.86104 1.33783 0
M  V30 4959 C 470.503 0.746752 1.44663 0
M  V30 4960 O 471.692 1.0248 1.46151 0
M  V30 4961 C 468.792 2.02532 2.71724 0
M  V30 4962 C 467.965 3.33335 2.83208 0
M  V30 4963 C 467.024 3.396 4.01943 0
M  V30 4964 O 466.05 4.12862 3.91834 0
M  V30 4965 N 467.252 2.68332 5.1476 0
M  V30 4966 H 470.017 2.79605 1.07893 0
M  V30 4967 H 467.578 1.55672 0.444732 0
M  V30 4968 H 469.57 2.04074 3.4948 0
M  V30 4969 H 468.14 1.15811 2.90356 0
M  V30 4970 H 467.36 3.44176 1.92189 0
M  V30 4971 H 468.648 4.19565 2.87824 0
M  V30 4972 H 468.046 2.08528 5.25864 0
M  V30 4973 H 466.603 2.75575 5.90679 0
M  V30 4974 N 470.036 -0.519951 1.48776 0
M  V30 4975 C 471.282 -1.27711 1.57536 0
M  V30 4976 C 471.615 -1.92547 0.252866 0
M  V30 4977 O 470.89 -1.7979 -0.742021 0
M  V30 4978 C 471.173 -2.35875 2.72094 0
M  V30 4979 C 471.026 -1.75664 4.1408 0
M  V30 4980 C 472.345 -3.37575 2.82367 0
M  V30 4981 H 469.464 -0.462971 0.573434 0
M  V30 4982 H 472.106 -0.578194 1.80989 0
M  V30 4983 H 470.256 -2.95488 2.52228 0
M  V30 4984 H 471.928 -1.20025 4.45412 0
M  V30 4985 H 470.171 -1.06154 4.20611 0
M  V30 4986 H 470.842 -2.54029 4.90075 0
M  V30 4987 H 473.318 -2.87929 3.00393 0
M  V30 4988 H 472.194 -4.1064 3.64233 0
M  V30 4989 H 472.455 -3.98743 1.90936 0
M  V30 4990 N 471.514 -1.37532 -0.769588 0
M  V30 4991 C 472.76 -1.34063 -1.52966 0
M  V30 4992 C 473.115 0.0737942 -1.92258 0
M  V30 4993 O 472.408 1.03291 -1.61374 0
M  V30 4994 C 472.602 -2.21558 -2.8044 0
M  V30 4995 C 472.431 -3.71367 -2.53608 0
M  V30 4996 C 471.201 -4.40464 -2.47628 0
M  V30 4997 C 473.399 -4.64177 -2.21459 0
M  V30 4998 N 471.381 -5.758 -2.12902 0
M  V30 4999 C 472.752 -5.87907 -1.9689 0
M  V30 5000 C 474.807 -4.52541 -2.07633 0
M  V30 5001 C 473.51 -7.01304 -1.59892 0
M  V30 5002 C 475.536 -5.65825 -1.72034 0
M  V30 5003 C 474.898 -6.88606 -1.48327 0
M  V30 5004 H 470.997 -0.545856 -0.559969 0
M  V30 5005 H 473.581 -1.72773 -0.897634 0
M  V30 5006 H 471.752 -1.85061 -3.41478 0
M  V30 5007 H 473.484 -2.09332 -3.46356 0
M  V30 5008 H 470.239 -3.93491 -2.63556 0
M  V30 5009 H 470.663 -6.47328 -1.9823 0
M  V30 5010 H 475.305 -3.58183 -2.24643 0
M  V30 5011 H 473.023 -7.95594 -1.4162 0
M  V30 5012 H 476.609 -5.58793 -1.61991 0
M  V30 5013 H 475.489 -7.74779 -1.21189 0
M  V30 5014 N 472.992 0.995999 -1.22138 0
M  V30 5015 C 473.939 2.08551 -0.988687 0
M  V30 5016 C 474.909 1.65864 0.0885021 0
M  V30 5017 O 476.094 1.90704 -0.0604589 0
M  V30 5018 C 473.234 3.40374 -0.569191 0
M  V30 5019 C 472.347 3.96421 -1.71681 0
M  V30 5020 C 471.482 5.1639 -1.2456 0
M  V30 5021 C 470.521 5.64567 -2.36497 0
M  V30 5022 N 469.658 6.75777 -1.90445 0
M  V30 5023 H 474.498 2.2779 -1.92135 0
M  V30 5024 H 472.035 1.1168 -0.957388 0
M  V30 5025 H 473.993 4.16068 -0.307166 0
M  V30 5026 H 472.623 3.21145 0.326462 0
M  V30 5027 H 471.675 3.17628 -2.09324 0
M  V30 5028 H 472.987 4.2816 -2.55891 0
M  V30 5029 H 472.141 5.99362 -0.940774 0
M  V30 5030 H 470.88 4.86266 -0.373662 0
M  V30 5031 H 469.885 4.80185 -2.67772 0
M  V30 5032 H 471.11 5.96716 -3.24202 0
M  V30 5033 H 469.056 6.47443 -1.05609 0
M  V30 5034 H 468.973 7.06818 -2.68223 0
M  V30 5035 H 470.241 7.62262 -1.63022 0
M  V30 5036 N 474.47 1.03057 1.19235 0
M  V30 5037 C 475.881 0.757449 1.70645 0
M  V30 5038 C 476.232 -0.722735 1.82403 0
M  V30 5039 O 475.357 -1.56325 1.49638 0
M  V30 5040 C 475.952 1.36833 3.09939 0
M  V30 5041 C 474.511 1.14375 3.58602 0
M  V30 5042 C 473.658 1.46533 2.35422 0
M  V30 5043 H 476.609 1.19828 1.04052 0
M  V30 5044 H 476.63 0.766184 3.72706 0
M  V30 5045 H 476.142 2.44562 3.01349 0
M  V30 5046 H 474.243 0.0847542 3.72504 0
M  V30 5047 H 474.356 1.83366 4.42622 0
M  V30 5048 H 472.72 0.884712 2.38841 0
M  V30 5049 H 473.503 2.55349 2.2946 0
M  V30 5050 N 475.948 -1.35272 0.808662 0
M  V30 5051 C 476.895 -2.29764 0.218482 0
M  V30 5052 C 477.865 -1.52911 -0.648652 0
M  V30 5053 O 479.05 -1.81341 -0.593297 0
M  V30 5054 C 476.19 -3.39388 -0.625282 0
M  V30 5055 C 475.303 -4.31202 0.262516 0
M  V30 5056 C 474.438 -5.27919 -0.589451 0
M  V30 5057 C 473.477 -6.11371 0.298617 0
M  V30 5058 N 472.614 -7.0022 -0.513443 0
M  V30 5059 H 477.454 -2.79645 1.02968 0
M  V30 5060 H 474.991 -1.37629 0.519303 0
M  V30 5061 H 476.949 -4.01615 -1.12966 0
M  V30 5062 H 475.579 -2.90777 -1.40173 0
M  V30 5063 H 474.631 -3.69962 0.885013 0
M  V30 5064 H 475.943 -4.89748 0.945971 0
M  V30 5065 H 475.097 -5.95529 -1.15888 0
M  V30 5066 H 473.836 -4.69875 -1.30647 0
M  V30 5067 H 472.841 -5.42707 0.880301 0
M  V30 5068 H 474.066 -6.71494 1.01352 0
M  V30 5069 H 472.012 -6.44662 -1.21439 0
M  V30 5070 H 471.929 -7.55917 0.111922 0
M  V30 5071 H 473.197 -7.72175 -1.06608 0
M  V30 5072 N 477.426 -0.562348 -1.47226 0
M  V30 5073 C 478.672 -0.0402761 -2.0276 0
M  V30 5074 C 479.005 1.30823 -1.43523 0
M  V30 5075 O 478.28 1.85249 -0.592705 0
M  V30 5076 C 478.563 0.047311 -3.60069 0
M  V30 5077 C 478.416 -1.32865 -4.29729 0
M  V30 5078 C 479.735 0.758182 -4.3352 0
M  V30 5079 H 476.854 -0.0161105 -0.736824 0
M  V30 5080 H 479.496 -0.725628 -1.75598 0
M  V30 5081 H 477.646 0.630986 -3.83342 0
M  V30 5082 H 479.318 -1.95593 -4.17781 0
M  V30 5083 H 477.561 -1.90195 -3.89882 0
M  V30 5084 H 478.232 -1.22004 -5.38349 0
M  V30 5085 H 480.708 0.262546 -4.15271 0
M  V30 5086 H 479.584 0.78844 -5.43208 0
M  V30 5087 H 479.845 1.81537 -4.03109 0
M  V30 5088 N 478.904 1.54736 -0.299062 0
M  V30 5089 C 480.153 1.99279 0.311549 0
M  V30 5090 C 480.466 1.19107 1.55154 0
M  V30 5091 O 481.672 1.53908 2.23662 0
M  V30 5092 C 480.128 3.54768 0.605632 0
M  V30 5093 C 479.736 4.43746 -0.615914 0
M  V30 5094 C 481.48 4.07841 1.17754 0
M  V30 5095 C 479.387 5.90663 -0.29509 0
M  V30 5096 H 478.317 0.744359 0.120187 0
M  V30 5097 H 480.968 1.78919 -0.407464 0
M  V30 5098 H 479.35 3.71021 1.38419 0
M  V30 5099 H 480.524 4.39267 -1.39218 0
M  V30 5100 H 478.839 4.01434 -1.10633 0
M  V30 5101 H 481.436 5.15174 1.43179 0
M  V30 5102 H 481.779 3.58324 2.11918 0
M  V30 5103 H 482.312 3.95123 0.460739 0
M  V30 5104 H 479.051 6.44325 -1.20524 0
M  V30 5105 H 478.571 5.98155 0.44394 0
M  V30 5106 H 480.25 6.46916 0.104048 0
M  V30 5107 N 480.382 0.0267497 1.57577 0
M  V30 5108 C 481.798 -0.32962 1.56159 0
M  V30 5109 C 481.998 -1.73059 1.03213 0
M  V30 5110 O 481.054 -2.43233 0.677804 0
M  V30 5111 C 482.367 -0.18039 3.00158 0
M  V30 5112 C 483.915 -0.253334 3.11973 0
M  V30 5113 C 484.39 -0.132921 4.57807 0
M  V30 5114 N 485.881 -0.189979 4.6281 0
M  V30 5115 C 486.616 -0.120554 5.73273 0
M  V30 5116 N 486.112 -0.000180315 6.928 0
M  V30 5117 N 487.905 -0.174369 5.61829 0
M  V30 5118 H 480.056 0.942896 1.90324 0
M  V30 5119 H 482.319 0.3639 0.875375 0
M  V30 5120 H 482.025 0.784576 3.42837 0
M  V30 5121 H 481.899 -0.951565 3.65 0
M  V30 5122 H 484.286 -1.20876 2.69208 0
M  V30 5123 H 484.367 0.548177 2.49857 0
M  V30 5124 H 484.011 0.819073 5.01252 0
M  V30 5125 H 483.941 -0.953264 5.179 0
M  V30 5126 H 486.432 -0.283257 3.76837 0
M  V30 5127 H 486.745 0.0461666 7.72786 0
M  V30 5128 H 485.09 0.034569 6.94991 0
M  V30 5129 H 488.281 -0.266794 4.67339 0
M  V30 5130 H 488.454 -0.116802 6.47895 0
M  V30 5131 N 481.861 -1.55662 -0.24637 0
M  V30 5132 C 483.11 -1.7672 -0.972254 0
M  V30 5133 C 483.423 -0.59078 -1.86465 0
M  V30 5134 O 484.629 -0.684391 -2.62732 0
M  V30 5135 C 483.085 -3.12869 -1.7788 0
M  V30 5136 C 482.693 -4.38161 -0.933768 0
M  V30 5137 C 484.437 -3.43265 -2.49738 0
M  V30 5138 C 482.344 -5.6534 -1.73623 0
M  V30 5139 H 481.274 -0.658795 -0.366749 0
M  V30 5140 H 483.925 -1.82092 -0.226902 0
M  V30 5141 H 482.307 -3.01606 -2.56612 0
M  V30 5142 H 483.481 -4.60413 -0.188736 0
M  V30 5143 H 481.796 -4.15102 -0.328488 0
M  V30 5144 H 484.393 -4.35501 -3.10231 0
M  V30 5145 H 484.736 -2.64614 -3.2138 0
M  V30 5146 H 485.269 -3.55746 -1.78016 0
M  V30 5147 H 482.008 -6.46814 -1.06354 0
M  V30 5148 H 481.528 -5.47188 -2.45653 0
M  V30 5149 H 483.207 -6.04616 -2.30323 0
M  V30 5150 N 483.339 0.512053 -1.4905 0
M  V30 5151 C 484.564 1.2959 -1.6193 0
M  V30 5152 C 484.989 1.85906 -0.286454 0
M  V30 5153 O 484.347 1.65312 0.744426 0
M  V30 5154 C 484.395 2.40987 -2.68249 0
M  V30 5155 O 483.499 3.44531 -2.26654 0
M  V30 5156 H 482.84 0.383053 -0.542371 0
M  V30 5157 H 485.37 0.614231 -1.95162 0
M  V30 5158 H 485.38 2.86913 -2.90078 0
M  V30 5159 H 484.055 1.99361 -3.65004 0
M  V30 5160 H 482.632 3.046 -2.15112 0
M  V30 5161 N 484.817 1.37938 0.762283 0
M  V30 5162 C 485.78 1.34279 1.85747 0
M  V30 5163 C 486.78 0.244969 1.58923 0
M  V30 5164 O 487.97 0.501365 1.66829 0
M  V30 5165 C 485.102 1.08833 3.23061 0
M  V30 5166 H 486.295 2.31705 1.90401 0
M  V30 5167 H 483.848 1.23105 0.963057 0
M  V30 5168 H 484.583 0.119767 3.24079 0
M  V30 5169 H 484.368 1.88306 3.43923 0
M  V30 5170 H 485.858 1.08946 4.03138 0
M  V30 5171 N 486.295 -0.989507 1.22664 0
M  V30 5172 C 487.711 -1.25395 0.987331 0
M  V30 5173 C 487.911 -1.9899 -0.317056 0
M  V30 5174 O 486.967 -2.30141 -1.03882 0
M  V30 5175 C 488.28 -2.06242 2.18826 0
M  V30 5176 C 489.828 -2.19413 2.23219 0
M  V30 5177 C 490.303 -3.03648 3.42873 0
M  V30 5178 N 491.794 -3.11234 3.43056 0
M  V30 5179 C 492.529 -3.7671 4.32293 0
M  V30 5180 N 492.025 -4.44085 5.31752 0
M  V30 5181 N 493.818 -3.73505 4.2006 0
M  V30 5182 H 485.969 -0.496212 2.06522 0
M  V30 5183 H 488.232 -0.281784 0.905153 0
M  V30 5184 H 487.938 -1.59531 3.13437 0
M  V30 5185 H 487.812 -3.06996 2.19165 0
M  V30 5186 H 490.199 -2.65336 1.29154 0
M  V30 5187 H 490.28 -1.18078 2.26917 0
M  V30 5188 H 489.924 -2.58424 4.37241 0
M  V30 5189 H 489.854 -4.05132 3.36416 0
M  V30 5190 H 492.345 -2.63287 2.71088 0
M  V30 5191 H 492.658 -4.91797 5.96117 0
M  V30 5192 H 491.003 -4.42822 5.35662 0
M  V30 5193 H 494.194 -3.20033 3.41609 0
M  V30 5194 H 494.367 -4.24253 4.8981 0
M  V30 5195 N 487.773 -1.03688 -1.18687 0
M  V30 5196 C 488.998 -0.757819 -1.93059 0
M  V30 5197 C 489.423 0.678353 -1.75442 0
M  V30 5198 O 488.781 1.46938 -1.06203 0
M  V30 5199 C 488.829 -1.12423 -3.42627 0
M  V30 5200 O 487.933 -0.247505 -4.11657 0
M  V30 5201 H 487.274 -0.279245 -0.602427 0
M  V30 5202 H 489.804 -1.3857 -1.5053 0
M  V30 5203 H 489.814 -1.08454 -3.93322 0
M  V30 5204 H 488.489 -2.17049 -3.54771 0
M  V30 5205 H 487.066 -0.34649 -3.71287 0
M  V30 5206 N 489.251 1.34841 -0.815825 0
M  V30 5207 C 490.499 1.98107 -0.399744 0
M  V30 5208 C 490.82 1.65019 1.03894 0
M  V30 5209 O 490.09 0.937311 1.72021 0
M  V30 5210 H 488.67 0.732827 -0.144823 0
M  V30 5211 H 491.332 1.64599 -1.0437 0
M  V30 5212 H 490.428 3.07856 -0.512965 0
M  V30 5213 N 490.729 0.570148 1.46925 0
M  V30 5214 C 491.639 -0.173061 2.33961 0
M  V30 5215 C 492.655 -0.898825 1.48987 0
M  V30 5216 O 493.831 -0.864825 1.81887 0
M  V30 5217 C 490.896 -1.18177 3.25937 0
M  V30 5218 C 489.957 -0.462041 4.26806 0
M  V30 5219 C 489.19 -1.4227 5.14388 0
M  V30 5220 O 489.413 -2.65842 5.04662 0
M  V30 5221 O 488.347 -0.940127 5.94513 0
M  V30 5222 H 492.173 0.541216 2.98839 0
M  V30 5223 H 489.758 0.330647 1.45695 0
M  V30 5224 H 491.64 -1.76372 3.82715 0
M  V30 5225 H 490.315 -1.87774 2.63671 0
M  V30 5226 H 489.222 0.161429 3.73752 0
M  V30 5227 H 490.555 0.192719 4.91823 0
M  V30 5228 N 492.207 -1.54576 0.307264 0
M  V30 5229 C 493.455 -1.99867 -0.299574 0
M  V30 5230 C 493.776 -1.19714 -1.53927 0
M  V30 5231 O 493.046 -0.29472 -1.9367 0
M  V30 5232 H 491.626 -0.738299 -0.113683 0
M  V30 5233 H 494.288 -1.9032 0.420042 0
M  V30 5234 H 493.384 -3.06901 -0.567283 0
M  V30 5235 N 493.685 -0.035106 -1.57561 0
M  V30 5236 C 494.934 0.641604 -1.91223 0
M  V30 5237 C 495.247 1.72944 -0.913761 0
M  V30 5238 O 496.453 2.46321 -1.14185 0
M  V30 5239 C 494.909 1.19249 -3.3957 0
M  V30 5240 C 494.517 0.137616 -4.47789 0
M  V30 5241 C 496.261 1.84537 -3.82291 0
M  V30 5242 C 494.168 0.700478 -5.87237 0
M  V30 5243 H 493.098 0.243417 -0.713627 0
M  V30 5244 H 495.749 -0.101382 -1.8322 0
M  V30 5245 H 494.131 1.98728 -3.42525 0
M  V30 5246 H 495.305 -0.635153 -4.56402 0
M  V30 5247 H 493.62 -0.416855 -4.14308 0
M  V30 5248 H 496.217 2.27616 -4.83834 0
M  V30 5249 H 496.56 2.69054 -3.17672 0
M  V30 5250 H 497.093 1.11739 -3.81784 0
M  V30 5251 H 493.832 -0.106693 -6.55413 0
M  V30 5252 H 493.352 1.4416 -5.82218 0
M  V30 5253 H 495.031 1.18837 -6.35993 0
M  V30 5254 N 495.163 1.55791 0.238111 0
M  V30 5255 C 496.388 1.8244 0.986432 0
M  V30 5256 C 496.813 0.613314 1.7782 0
M  V30 5257 O 496.171 -0.437767 1.75935 0
M  V30 5258 C 496.219 3.06917 1.893 0
M  V30 5259 O 495.323 2.84449 2.98601 0
M  V30 5260 H 494.664 0.601975 0.280218 0
M  V30 5261 H 497.194 2.02987 0.256437 0
M  V30 5262 H 497.204 3.36583 2.30598 0
M  V30 5263 H 495.879 3.947 1.31091 0
M  V30 5264 H 494.456 2.65972 2.61368 0
M  V30 5265 N 496.642 -0.504142 1.49319 0
M  V30 5266 C 497.552 -1.63248 1.68486 0
M  V30 5267 C 498.568 -1.64488 0.567432 0
M  V30 5268 O 499.744 -1.82966 0.841749 0
M  V30 5269 C 496.809 -2.99627 1.74426 0
M  V30 5270 C 495.87 -3.09039 2.97982 0
M  V30 5271 C 495.103 -4.38913 3.0363 0
M  V30 5272 O 495.326 -5.27528 2.16958 0
M  V30 5273 O 494.26 -4.53231 3.96062 0
M  V30 5274 H 498.086 -1.50008 2.64067 0
M  V30 5275 H 495.671 -0.680086 1.33023 0
M  V30 5276 H 497.553 -3.80689 1.80705 0
M  V30 5277 H 496.228 -3.13136 0.820233 0
M  V30 5278 H 495.135 -2.27177 2.97223 0
M  V30 5279 H 496.468 -3.00456 3.89855 0
M  V30 5280 N 498.12 -1.38341 -0.754957 0
M  V30 5281 C 499.053 -1.29837 -1.87663 0
M  V30 5282 C 500.031 -0.175659 -1.61648 0
M  V30 5283 O 501.215 -0.352745 -1.8517 0
M  V30 5284 C 498.342 -1.01141 -3.23246 0
M  V30 5285 C 497.388 -2.15331 -3.6815 0
M  V30 5286 S 498.221 -3.77459 -3.79849 0
M  V30 5287 C 499.377 -3.50948 -5.18253 0
M  V30 5288 H 499.61 -2.24771 -1.9459 0
M  V30 5289 H 497.143 -1.24161 -0.917796 0
M  V30 5290 H 499.101 -0.852687 -4.01546 0
M  V30 5291 H 497.762 -0.0792784 -3.14 0
M  V30 5292 H 496.955 -1.90795 -4.6649 0
M  V30 5293 H 496.557 -2.27304 -2.97 0
M  V30 5294 H 498.849 -3.06977 -6.03963 0
M  V30 5295 H 499.792 -4.48677 -5.47809 0
M  V30 5296 H 500.2 -2.85492 -4.86985 0
M  V30 5297 N 499.598 0.982988 -1.23187 0
M  V30 5298 C 500.844 1.7273 -1.07405 0
M  V30 5299 C 501.199 1.885 0.385447 0
M  V30 5300 O 500.492 1.4243 1.28157 0
M  V30 5301 C 500.686 3.12736 -1.73006 0
M  V30 5302 C 500.515 3.10621 -3.25184 0
M  V30 5303 C 499.285 3.15957 -3.94334 0
M  V30 5304 C 501.483 2.93992 -4.21987 0
M  V30 5305 N 499.465 3.03701 -5.33516 0
M  V30 5306 C 500.836 2.8987 -5.48065 0
M  V30 5307 C 502.891 2.78457 -4.12754 0
M  V30 5308 C 501.594 2.71804 -6.65969 0
M  V30 5309 C 503.62 2.61754 -5.30319 0
M  V30 5310 C 502.982 2.58328 -6.55321 0
M  V30 5311 H 499.081 0.641279 -0.447533 0
M  V30 5312 H 501.665 1.16664 -1.55877 0
M  V30 5313 H 499.836 3.67026 -1.2707 0
M  V30 5314 H 501.568 3.75786 -1.50224 0
M  V30 5315 H 498.323 3.24034 -3.45397 0
M  V30 5316 H 498.747 3.00855 -6.06478 0
M  V30 5317 H 503.389 2.79898 -3.16886 0
M  V30 5318 H 501.107 2.69108 -7.61975 0
M  V30 5319 H 504.693 2.50702 -5.25014 0
M  V30 5320 H 503.573 2.45564 -7.4476 0
M  V30 5321 N 501.076 1.04316 1.18135 0
M  V30 5322 C 502.353 0.662166 1.84051 0
M  V30 5323 C 502.733 -0.858169 1.9287 0
M  V30 5324 O 502.081 -1.76062 1.45652 0
M  V30 5325 C 502.291 1.3409 3.22212 0
M  V30 5326 C 503.639 1.4733 3.9822 0
M  V30 5327 O 504.663 1.29921 3.31661 0
M  V30 5328 O 503.522 1.75722 5.17479 0
M  V30 5329 H 500.616 0.232005 0.79379 0
M  V30 5330 H 503.162 1.1422 1.25506 0
M  V30 5331 H 501.934 2.37853 3.10711 0
M  V30 5332 H 501.557 0.849649 3.88416 0
M  V30 5333 N 502.554 -1.34406 0.822964 0
M  V30 5334 C 503.501 -2.29519 0.24284 0
M  V30 5335 C 504.471 -1.5359 -0.632397 0
M  V30 5336 O 505.656 -1.8196 -0.57403 0
M  V30 5337 C 502.796 -3.40032 -0.58925 0
M  V30 5338 C 501.909 -4.30899 0.308236 0
M  V30 5339 C 501.044 -5.28515 -0.533425 0
M  V30 5340 C 500.083 -6.1102 0.363444 0
M  V30 5341 N 499.22 -7.00725 -0.439147 0
M  V30 5342 H 504.06 -2.78537 1.05929 0
M  V30 5343 H 501.597 -1.3707 0.533872 0
M  V30 5344 H 503.555 -4.0279 -1.087 0
M  V30 5345 H 502.185 -2.92248 -1.37081 0
M  V30 5346 H 501.237 -3.69002 0.924203 0
M  V30 5347 H 502.549 -4.88717 0.997862 0
M  V30 5348 H 501.703 -5.96725 -1.09565 0
M  V30 5349 H 500.442 -4.71235 -1.25656 0
M  V30 5350 H 499.447 -5.41743 0.937812 0
M  V30 5351 H 500.672 -6.70381 1.08469 0
M  V30 5352 H 498.618 -6.45913 -1.14595 0
M  V30 5353 H 498.535 -7.55756 0.19209 0
M  V30 5354 H 499.803 -7.73263 -0.984124 0
M  V30 5355 N 504.032 -0.577932 -1.46621 0
M  V30 5356 C 504.965 0.206312 -2.27265 0
M  V30 5357 C 505.943 0.901306 -1.35334 0
M  V30 5358 O 507.127 0.916151 -1.64739 0
M  V30 5359 C 504.254 1.29563 -3.1294 0
M  V30 5360 C 503.3 0.706981 -4.206 0
M  V30 5361 S 504.133 -0.462459 -5.33499 0
M  V30 5362 C 505.289 0.628171 -6.2274 0
M  V30 5363 H 505.522 -0.477961 -2.93433 0
M  V30 5364 H 503.055 -0.364715 -1.50031 0
M  V30 5365 H 505.013 1.91935 -3.62865 0
M  V30 5366 H 503.674 1.95183 -2.46095 0
M  V30 5367 H 502.867 1.52565 -4.80354 0
M  V30 5368 H 502.469 0.159022 -3.73662 0
M  V30 5369 H 504.761 1.51506 -6.60342 0
M  V30 5370 H 505.704 0.0674961 -7.08068 0
M  V30 5371 H 506.112 0.930167 -5.56784 0
M  V30 5372 N 505.51 1.54411 -0.315457 0
M  V30 5373 C 506.457 2.24048 0.554166 0
M  V30 5374 C 507.427 1.2283 1.11812 0
M  V30 5375 O 508.612 1.51491 1.15997 0
M  V30 5376 C 505.752 2.99574 1.71316 0
M  V30 5377 C 504.865 4.15594 1.17922 0
M  V30 5378 C 504 4.78669 2.30324 0
M  V30 5379 C 503.039 5.86807 1.74137 0
M  V30 5380 N 502.176 6.43777 2.8017 0
M  V30 5381 H 507.016 2.97964 -0.0462602 0
M  V30 5382 H 504.553 1.47059 -0.0346009 0
M  V30 5383 H 506.511 3.41604 2.39505 0
M  V30 5384 H 505.141 2.28008 2.285 0
M  V30 5385 H 504.193 3.78404 0.389136 0
M  V30 5386 H 505.505 4.93459 0.728012 0
M  V30 5387 H 504.659 5.23626 3.06433 0
M  V30 5388 H 503.398 4.00168 2.78778 0
M  V30 5389 H 502.403 5.41261 0.965236 0
M  V30 5390 H 503.628 6.67201 1.2657 0
M  V30 5391 H 501.574 5.68153 3.2793 0
M  V30 5392 H 501.491 7.17031 2.39588 0
M  V30 5393 H 502.759 6.9339 3.56132 0
M  V30 5394 N 506.988 0.0434614 1.5754 0
M  V30 5395 C 508.265 -0.671479 1.83713 0
M  V30 5396 C 508.645 -1.89495 0.930315 0
M  V30 5397 O 507.993 -2.28498 -0.0105639 0
M  V30 5398 C 508.203 -1.0361 3.33266 0
M  V30 5399 C 509.551 -1.42167 4.00092 0
M  V30 5400 O 510.575 -1.12866 3.37846 0
M  V30 5401 O 509.434 -1.96817 5.09829 0
M  V30 5402 H 506.528 -0.330726 0.75799 0
M  V30 5403 H 509.074 0.0722373 1.69546 0
M  V30 5404 H 507.846 -0.165938 3.90948 0
M  V30 5405 H 507.469 -1.83751 3.52592 0
M  V30 5406 N 508.466 -1.55915 -0.229846 0
M  V30 5407 C 509.713 -1.78542 -0.955452 0
M  V30 5408 C 510.041 -0.610785 -1.84661 0
M  V30 5409 O 509.296 0.405213 -1.91459 0
M  V30 5410 C 509.595 -3.06845 -1.8325 0
M  V30 5411 C 509.261 -4.37395 -1.09528 0
M  V30 5412 C 507.923 -4.72868 -0.891598 0
M  V30 5413 C 510.275 -5.18029 -0.574046 0
M  V30 5414 C 507.603 -5.86496 -0.154655 0
M  V30 5415 C 509.955 -6.32423 0.149513 0
M  V30 5416 C 508.619 -6.66504 0.364519 0
M  V30 5417 H 507.889 -0.653333 -0.349625 0
M  V30 5418 H 510.536 -1.90183 -0.224235 0
M  V30 5419 H 508.841 -2.90291 -2.63132 0
M  V30 5420 H 510.538 -3.21553 -2.39592 0
M  V30 5421 H 507.128 -4.09538 -1.26399 0
M  V30 5422 H 511.312 -4.91066 -0.718899 0
M  V30 5423 H 506.568 -6.11396 0.0222356 0
M  V30 5424 H 510.742 -6.94137 0.560947 0
M  V30 5425 H 508.369 -7.54397 0.937495 0
M  V30 5426 N 509.944 0.496216 -1.49584 0
M  V30 5427 C 510.876 1.61404 -1.62731 0
M  V30 5428 C 511.889 1.54613 -0.50978 0
M  V30 5429 O 513.078 1.60458 -0.782017 0
M  V30 5430 C 510.178 3.00212 -1.57245 0
M  V30 5431 C 509.351 3.32138 -2.84611 0
M  V30 5432 C 508.41 4.5038 -2.72112 0
M  V30 5433 O 507.436 4.51926 -3.46051 0
M  V30 5434 N 508.638 5.50575 -1.83977 0
M  V30 5435 H 511.403 1.50552 -2.59141 0
M  V30 5436 H 508.964 0.684182 -1.46733 0
M  V30 5437 H 510.956 3.77241 -1.4653 0
M  V30 5438 H 509.526 3.04964 -0.686729 0
M  V30 5439 H 508.746 2.4396 -3.09641 0
M  V30 5440 H 510.034 3.50268 -3.69039 0
M  V30 5441 H 509.432 5.52128 -1.23171 0
M  V30 5442 H 507.989 6.26687 -1.79182 0
M  V30 5443 N 511.423 1.38739 0.74761 0
M  V30 5444 C 512.7 1.25791 1.49786 0
M  V30 5445 C 513.08 -0.138075 2.10648 0
M  V30 5446 O 512.428 -1.14815 1.9756 0
M  V30 5447 C 512.638 2.37265 2.55942 0
M  V30 5448 C 513.986 2.75978 3.22679 0
M  V30 5449 O 515.01 2.36621 2.6625 0
M  V30 5450 O 513.869 3.43867 4.24756 0
M  V30 5451 H 510.963 0.492251 0.664543 0
M  V30 5452 H 513.509 1.50582 0.782511 0
M  V30 5453 H 512.281 3.30644 2.0926 0
M  V30 5454 H 511.904 2.14071 3.35051 0
M  V30 5455 N 512.901 -0.976442 1.23707 0
M  V30 5456 C 513.831 -2.08749 1.04624 0
M  V30 5457 C 514.812 -1.70057 -0.0380956 0
M  V30 5458 O 515.997 -1.93782 0.127308 0
M  V30 5459 C 513.127 -3.41335 0.640902 0
M  V30 5460 C 512.081 -3.93947 1.67302 0
M  V30 5461 C 511.407 -5.22774 1.12301 0
M  V30 5462 C 512.707 -4.22769 3.06697 0
M  V30 5463 H 514.401 -2.24972 1.97555 0
M  V30 5464 H 511.947 -1.08108 0.951247 0
M  V30 5465 H 513.9 -4.18489 0.494434 0
M  V30 5466 H 512.624 -3.24988 -0.324099 0
M  V30 5467 H 511.283 -3.18941 1.80755 0
M  V30 5468 H 510.931 -5.0278 0.148877 0
M  V30 5469 H 510.631 -5.58942 1.81267 0
M  V30 5470 H 512.155 -6.02546 0.988479 0
M  V30 5471 H 513.569 -4.90659 2.96524 0
M  V30 5472 H 511.966 -4.70147 3.72937 0
M  V30 5473 H 513.036 -3.29885 3.55392 0
M  V30 5474 N 514.379 -1.04941 -1.1758 0
M  V30 5475 C 515.312 -0.592518 -2.20373 0
M  V30 5476 C 516.29 0.377561 -1.58156 0
M  V30 5477 O 517.474 0.28978 -1.86259 0
M  V30 5478 C 514.601 0.133215 -3.38438 0
M  V30 5479 C 513.647 -0.791484 -4.19092 0
M  V30 5480 S 514.48 -2.27925 -4.84572 0
M  V30 5481 C 515.636 -1.56462 -6.06028 0
M  V30 5482 H 515.869 -1.46342 -2.58788 0
M  V30 5483 H 513.402 -0.861148 -1.28155 0
M  V30 5484 H 515.36 0.545746 -4.06856 0
M  V30 5485 H 514.021 0.980124 -2.98416 0
M  V30 5486 H 513.214 -0.230039 -5.03475 0
M  V30 5487 H 512.816 -1.14326 -3.56098 0
M  V30 5488 H 515.108 -0.862539 -6.71987 0
M  V30 5489 H 516.051 -2.38583 -6.66696 0
M  V30 5490 H 516.459 -1.05313 -5.5459 0
M  V30 5491 N 515.857 1.33968 -0.830081 0
M  V30 5492 C 516.787 2.31911 -0.271911 0
M  V30 5493 C 517.768 1.58571 0.61556 0
M  V30 5494 O 518.953 1.86514 0.540946 0
M  V30 5495 C 516.083 3.42737 0.561146 0
M  V30 5496 C 515.037 4.27383 -0.229789 0
M  V30 5497 C 514.363 5.29742 0.726463 0
M  V30 5498 C 515.663 5.02 -1.44197 0
M  V30 5499 H 517.357 2.78844 -1.09025 0
M  V30 5500 H 514.903 1.34061 -0.52571 0
M  V30 5501 H 516.856 4.10276 0.961867 0
M  V30 5502 H 515.58 2.94471 1.41261 0
M  V30 5503 H 514.239 3.61456 -0.611964 0
M  V30 5504 H 513.887 4.77736 1.57408 0
M  V30 5505 H 513.587 5.87255 0.20142 0
M  V30 5506 H 515.111 6.00149 1.12489 0
M  V30 5507 H 516.525 5.62355 -1.11488 0
M  V30 5508 H 514.922 5.69122 -1.90317 0
M  V30 5509 H 515.992 4.31281 -2.2164 0
M  V30 5510 N 517.335 0.585699 1.46312 0
M  V30 5511 C 518.298 -0.135673 2.28798 0
M  V30 5512 C 519.298 -0.815988 1.38558 0
M  V30 5513 O 520.488 -0.667487 1.60904 0
M  V30 5514 C 517.62 -1.20163 3.1902 0
M  V30 5515 H 518.813 0.589257 2.94054 0
M  V30 5516 H 516.366 0.343794 1.52472 0
M  V30 5517 H 517.101 -1.95804 2.58517 0
M  V30 5518 H 516.886 -0.718282 3.85465 0
M  V30 5519 H 518.376 -1.70749 3.81096 0
M  V30 5520 N 518.813 -1.54241 0.323641 0
M  V30 5521 C 520.038 -2.05452 -0.283605 0
M  V30 5522 C 520.463 -1.19823 -1.44997 0
M  V30 5523 O 519.821 -0.207358 -1.8011 0
M  V30 5524 C 519.869 -3.53823 -0.695795 0
M  V30 5525 O 518.973 -3.71134 -1.79815 0
M  V30 5526 H 518.314 -0.662024 -0.0511917 0
M  V30 5527 H 520.844 -1.99079 0.472073 0
M  V30 5528 H 520.854 -3.96094 -0.978434 0
M  V30 5529 H 519.529 -4.15602 0.157287 0
M  V30 5530 H 518.106 -3.40768 -1.51431 0
M  V30 5531 N 520.291 -0.0518155 -1.57515 0
M  V30 5532 C 521.539 0.620595 -1.92336 0
M  V30 5533 C 521.86 1.71345 -0.930907 0
M  V30 5534 O 521.13 1.95885 0.0241341 0
M  V30 5535 H 519.71 0.232226 -0.709986 0
M  V30 5536 H 522.372 -0.104969 -1.94617 0
M  V30 5537 H 521.468 1.05879 -2.93592 0
M  V30 5538 N 521.769 1.56035 0.221574 0
M  V30 5539 C 522.679 1.95581 1.29558 0
M  V30 5540 C 523.695 0.859639 1.51282 0
M  V30 5541 O 524.871 1.16321 1.64413 0
M  V30 5542 C 521.936 2.26447 2.62531 0
M  V30 5543 C 520.997 3.49632 2.4911 0
M  V30 5544 C 520.23 3.79017 3.75742 0
M  V30 5545 O 520.453 3.10077 4.78757 0
M  V30 5546 O 519.387 4.72507 3.72855 0
M  V30 5547 H 523.213 2.8711 0.990035 0
M  V30 5548 H 520.798 1.43244 0.424434 0
M  V30 5549 H 522.68 2.47494 3.41064 0
M  V30 5550 H 521.355 1.38092 2.92766 0
M  V30 5551 H 520.262 3.33864 1.68777 0
M  V30 5552 H 521.595 4.3837 2.23814 0
M  V30 5553 N 523.247 -0.488276 1.49845 0
M  V30 5554 C 524.177 -1.59675 1.70371 0
M  V30 5555 C 525.158 -1.60878 0.552473 0
M  V30 5556 O 526.343 -1.77417 0.78973 0
M  V30 5557 C 523.473 -2.98098 1.782 0
M  V30 5558 C 522.427 -3.11761 2.93239 0
M  V30 5559 C 521.753 -4.51661 2.86193 0
M  V30 5560 C 523.053 -2.90589 4.33999 0
M  V30 5561 H 524.747 -1.42752 2.63177 0
M  V30 5562 H 522.293 -0.685317 1.26647 0
M  V30 5563 H 524.246 -3.75555 1.91144 0
M  V30 5564 H 522.97 -3.16138 0.820018 0
M  V30 5565 H 521.629 -2.36732 2.79917 0
M  V30 5566 H 521.277 -4.66595 1.87877 0
M  V30 5567 H 520.977 -4.61742 3.63412 0
M  V30 5568 H 522.501 -5.31162 3.01163 0
M  V30 5569 H 523.915 -3.57807 4.47936 0
M  V30 5570 H 522.312 -3.1213 5.12538 0
M  V30 5571 H 523.382 -1.86595 4.4756 0
M  V30 5572 N 524.725 -1.39134 -0.740242 0
M  V30 5573 C 525.953 -1.39334 -1.5295 0
M  V30 5574 C 526.368 0.0135008 -1.88795 0
M  V30 5575 O 525.725 0.983524 -1.5373 0
M  V30 5576 C 525.776 -2.2614 -2.82034 0
M  V30 5577 O 525.497 -3.61345 -2.47712 0
M  V30 5578 C 526.998 -2.34666 -3.76094 0
M  V30 5579 H 524.218 -0.476103 -0.472828 0
M  V30 5580 H 526.762 -1.82883 -0.9151 0
M  V30 5581 H 524.917 -1.86018 -3.39818 0
M  V30 5582 H 525.331 -4.07194 -3.30595 0
M  V30 5583 H 526.805 -2.99663 -4.63579 0
M  V30 5584 H 527.282 -1.36426 -4.17474 0
M  V30 5585 H 527.888 -2.75236 -3.2423 0
M  V30 5586 N 526.204 0.969867 -1.24223 0
M  V30 5587 C 527.167 2.04564 -1.03373 0
M  V30 5588 C 528.167 1.60798 0.00819206 0
M  V30 5589 O 529.357 1.72641 -0.232567 0
M  V30 5590 C 526.489 3.36163 -0.566343 0
M  V30 5591 H 527.682 2.24494 -1.98853 0
M  V30 5592 H 525.235 1.1448 -1.06415 0
M  V30 5593 H 525.97 3.21925 0.391751 0
M  V30 5594 H 525.755 3.69273 -1.31834 0
M  V30 5595 H 527.245 4.1526 -0.441435 0
M  V30 5596 N 527.682 1.05563 1.17022 0
M  V30 5597 C 528.629 0.659893 2.21165 0
M  V30 5598 C 529.599 -0.339813 1.62587 0
M  V30 5599 O 530.784 -0.230378 1.89404 0
M  V30 5600 C 527.924 0.0447297 3.45071 0
M  V30 5601 C 527.037 1.09372 4.17926 0
M  V30 5602 C 526.172 0.445481 5.29329 0
M  V30 5603 C 525.211 1.47852 5.93975 0
M  V30 5604 N 524.348 0.854172 6.96885 0
M  V30 5605 H 529.188 1.55243 2.54369 0
M  V30 5606 H 526.725 0.776336 1.24946 0
M  V30 5607 H 528.683 -0.329404 4.15898 0
M  V30 5608 H 527.313 -0.811244 3.1244 0
M  V30 5609 H 526.365 1.58564 3.45777 0
M  V30 5610 H 527.677 1.87773 4.62107 0
M  V30 5611 H 526.831 0.0179688 6.06697 0
M  V30 5612 H 525.57 -0.370481 4.86291 0
M  V30 5613 H 524.575 1.91601 5.15334 0
M  V30 5614 H 525.8 2.29645 6.39093 0
M  V30 5615 H 523.746 0.0587882 6.55974 0
M  V30 5616 H 523.663 1.57567 7.39397 0
M  V30 5617 H 524.931 0.451559 7.78191 0
M  V30 5618 N 529.16 -1.33526 0.837174 0
M  V30 5619 C 530.576 -1.50727 0.524743 0
M  V30 5620 C 530.776 -1.77792 -0.948279 0
M  V30 5621 O 529.832 -1.83719 -1.73216 0
M  V30 5622 C 531.145 -2.66299 1.39661 0
M  V30 5623 C 532.693 -2.80183 1.39521 0
M  V30 5624 C 533.168 -3.98815 2.25189 0
M  V30 5625 N 534.659 -4.06047 2.2289 0
M  V30 5626 C 535.394 -4.97032 2.85915 0
M  V30 5627 N 534.89 -5.93143 3.57985 0
M  V30 5628 N 536.683 -4.90015 2.75394 0
M  V30 5629 H 528.834 -1.1422 1.79074 0
M  V30 5630 H 531.097 -0.561399 0.763894 0
M  V30 5631 H 530.803 -2.52974 2.4433 0
M  V30 5632 H 530.677 -3.61663 1.07145 0
M  V30 5633 H 533.064 -2.92942 0.356253 0
M  V30 5634 H 533.145 -1.85586 1.76044 0
M  V30 5635 H 532.789 -3.86817 3.29143 0
M  V30 5636 H 532.719 -4.92654 1.86009 0
M  V30 5637 H 535.21 -3.37262 1.70478 0
M  V30 5638 H 535.523 -6.59227 4.03286 0
M  V30 5639 H 533.868 -5.93223 3.62093 0
M  V30 5640 H 537.059 -4.13894 2.18654 0
M  V30 5641 H 537.232 -5.60724 3.24796 0
M  V30 5642 N 530.638 -0.59345 -1.46 0
M  V30 5643 C 532.054 -0.255965 -1.57534 0
M  V30 5644 C 532.254 1.24167 -1.58697 0
M  V30 5645 O 531.31 2.02398 -1.50968 0
M  V30 5646 C 532.623 -0.91466 -2.86451 0
M  V30 5647 C 534.171 -0.889253 -3.00102 0
M  V30 5648 C 534.646 -1.52769 -4.3177 0
M  V30 5649 N 536.137 -1.49253 -4.38495 0
M  V30 5650 C 536.872 -1.9558 -5.39014 0
M  V30 5651 N 536.368 -2.49929 -6.46148 0
M  V30 5652 N 538.161 -1.86432 -5.30282 0
M  V30 5653 H 530.312 -1.56604 -1.43489 0
M  V30 5654 H 532.575 -0.655207 -0.685133 0
M  V30 5655 H 532.281 -1.96861 -2.91442 0
M  V30 5656 H 532.155 -0.429356 -3.74748 0
M  V30 5657 H 534.542 0.156111 -2.94687 0
M  V30 5658 H 534.623 -1.41268 -2.13253 0
M  V30 5659 H 534.267 -2.57231 -4.37944 0
M  V30 5660 H 534.197 -0.979398 -5.17412 0
M  V30 5661 H 536.688 -1.09536 -3.61677 0
M  V30 5662 H 537.001 -2.83109 -7.19075 0
M  V30 5663 H 535.346 -2.53961 -6.46938 0
M  V30 5664 H 538.537 -1.43722 -4.4549 0
M  V30 5665 H 538.71 -2.22852 -6.08474 0
M  V30 5666 N 532.116 1.54067 -0.331816 0
M  V30 5667 C 533.063 2.24623 0.530372 0
M  V30 5668 C 534.033 1.24009 1.10503 0
M  V30 5669 O 535.218 1.52712 1.14384 0
M  V30 5670 C 532.358 3.01374 1.68129 0
M  V30 5671 C 531.471 4.16821 1.13507 0
M  V30 5672 C 530.606 4.81085 2.25234 0
M  V30 5673 C 529.645 5.88621 1.67903 0
M  V30 5674 N 528.782 6.46713 2.73326 0
M  V30 5675 H 533.622 2.97898 -0.0778607 0
M  V30 5676 H 531.159 1.47014 -0.0501965 0
M  V30 5677 H 533.117 3.44125 2.35868 0
M  V30 5678 H 531.747 2.30419 2.26069 0
M  V30 5679 H 530.799 3.78796 0.348979 0
M  V30 5680 H 532.111 4.94203 0.675633 0
M  V30 5681 H 531.265 5.26846 3.00862 0
M  V30 5682 H 530.004 4.03102 2.74518 0
M  V30 5683 H 529.009 5.42254 0.907773 0
M  V30 5684 H 530.234 6.68506 1.19487 0
M  V30 5685 H 528.18 5.71599 3.21886 0
M  V30 5686 H 528.097 7.19532 2.3197 0
M  V30 5687 H 529.365 6.97129 3.48758 0
M  V30 5688 N 533.594 0.0601682 1.57485 0
M  V30 5689 C 534.526 -0.94047 2.09016 0
M  V30 5690 C 535.539 -1.26897 1.01985 0
M  V30 5691 O 536.728 -1.22819 1.29529 0
M  V30 5692 C 533.828 -2.25955 2.52582 0
M  V30 5693 C 533.001 -2.11163 3.83052 0
M  V30 5694 C 532.06 -3.26273 4.12835 0
M  V30 5695 O 531.086 -3.01779 4.82616 0
M  V30 5696 N 532.288 -4.51022 3.65458 0
M  V30 5697 H 535.053 -0.500578 2.9549 0
M  V30 5698 H 532.614 -0.125852 1.6141 0
M  V30 5699 H 534.606 -3.01846 2.69575 0
M  V30 5700 H 533.176 -2.61481 1.71308 0
M  V30 5701 H 532.396 -1.19808 3.75552 0
M  V30 5702 H 533.684 -1.98517 4.68475 0
M  V30 5703 H 533.082 -4.73811 3.09062 0
M  V30 5704 H 531.639 -5.23978 3.87673 0
M  V30 5705 N 535.072 -1.5615 -0.213296 0
M  V30 5706 C 536.004 -1.89586 -1.28802 0
M  V30 5707 C 537.017 -0.784844 -1.42633 0
M  V30 5708 O 538.206 -1.06319 -1.43383 0
M  V30 5709 C 535.306 -2.09665 -2.66259 0
M  V30 5710 C 534.479 -3.40726 -2.7427 0
M  V30 5711 C 533.538 -3.50137 -3.92798 0
M  V30 5712 O 532.564 -4.23105 -3.8075 0
M  V30 5713 N 533.766 -2.81886 -5.07465 0
M  V30 5714 H 536.531 -2.82368 -1.00442 0
M  V30 5715 H 534.092 -1.56796 -0.403302 0
M  V30 5716 H 536.084 -2.13268 -3.43946 0
M  V30 5717 H 534.654 -1.23469 -2.87183 0
M  V30 5718 H 533.874 -3.4915 -1.82997 0
M  V30 5719 H 535.162 -4.27048 -2.76599 0
M  V30 5720 H 534.56 -2.22397 -5.2015 0
M  V30 5721 H 533.117 -2.91139 -5.83165 0
M  V30 5722 N 536.55 0.480323 -1.50102 0
M  V30 5723 C 537.497 1.57946 -1.6829 0
M  V30 5724 C 538.467 1.57611 -0.524223 0
M  V30 5725 O 539.652 1.75282 -0.753709 0
M  V30 5726 C 536.792 2.95978 -1.77457 0
M  V30 5727 C 535.905 3.06173 -3.04766 0
M  V30 5728 C 535.04 4.35063 -3.04784 0
M  V30 5729 C 534.079 4.38966 -4.26586 0
M  V30 5730 N 533.216 5.59314 -4.24396 0
M  V30 5731 H 538.056 1.41743 -2.62131 0
M  V30 5732 H 535.593 0.689304 -1.2995 0
M  V30 5733 H 537.551 3.76011 -1.80752 0
M  V30 5734 H 536.181 3.10837 -0.870637 0
M  V30 5735 H 535.233 2.19071 -3.10986 0
M  V30 5736 H 536.545 3.04916 -3.9475 0
M  V30 5737 H 535.699 5.23436 -3.06757 0
M  V30 5738 H 534.438 4.38915 -2.12614 0
M  V30 5739 H 533.443 3.48992 -4.24835 0
M  V30 5740 H 534.668 4.36813 -5.19972 0
M  V30 5741 H 532.614 5.63969 -3.35074 0
M  V30 5742 H 532.531 5.5976 -5.08138 0
M  V30 5743 H 533.799 6.49837 -4.30502 0
M  V30 5744 N 538.028 1.39524 0.732853 0
M  V30 5745 C 539.274 1.37068 1.49467 0
M  V30 5746 C 539.607 -0.0327166 1.94172 0
M  V30 5747 O 538.882 -0.998071 1.66939 0
M  V30 5748 C 539.165 2.34494 2.73285 0
M  V30 5749 C 539.018 3.83784 2.34585 0
M  V30 5750 C 540.337 2.29717 3.75391 0
M  V30 5751 H 537.456 0.499206 0.542183 0
M  V30 5752 H 540.098 1.70532 0.837783 0
M  V30 5753 H 538.248 2.06087 3.29333 0
M  V30 5754 H 539.92 4.22949 1.84151 0
M  V30 5755 H 538.163 4.00455 1.66787 0
M  V30 5756 H 538.834 4.47444 3.23262 0
M  V30 5757 H 541.31 2.54839 3.28932 0
M  V30 5758 H 540.186 2.99962 4.59689 0
M  V30 5759 H 540.447 1.30291 4.22465 0
M  V30 5760 N 539.506 -0.963266 1.24736 0
M  V30 5761 C 540.752 -1.71 1.10139 0
M  V30 5762 C 541.107 -1.89089 -0.35541 0
M  V30 5763 O 540.4 -1.44451 -1.25875 0
M  V30 5764 C 540.594 -3.09944 1.7796 0
M  V30 5765 C 540.423 -3.05408 3.30085 0
M  V30 5766 C 539.193 -3.09643 3.99311 0
M  V30 5767 C 541.391 -2.87241 4.26611 0
M  V30 5768 N 539.373 -2.95174 5.3828 0
M  V30 5769 C 540.744 -2.81114 5.52607 0
M  V30 5770 C 542.799 -2.71856 4.17132 0
M  V30 5771 C 541.502 -2.61174 6.70209 0
M  V30 5772 C 543.528 -2.53284 5.34417 0
M  V30 5773 C 542.89 -2.4787 6.59348 0
M  V30 5774 H 538.989 -0.634078 0.457678 0
M  V30 5775 H 541.573 -1.14169 1.57713 0
M  V30 5776 H 539.744 -3.64958 1.32893 0
M  V30 5777 H 541.476 -3.73348 1.56183 0
M  V30 5778 H 538.231 -3.18498 3.50508 0
M  V30 5779 H 538.655 -2.91168 6.11188 0
M  V30 5780 H 543.297 -2.74821 3.21299 0
M  V30 5781 H 541.015 -2.56952 7.6616 0
M  V30 5782 H 544.601 -2.42317 5.28936 0
M  V30 5783 H 543.481 -2.33685 7.48573 0
M  V30 5784 N 540.985 -1.06182 -1.16461 0
M  V30 5785 C 541.918 -0.615859 -2.19733 0
M  V30 5786 C 542.896 0.360766 -1.58547 0
M  V30 5787 O 544.08 0.270009 -1.86556 0
M  V30 5788 C 541.207 0.097312 -3.3856 0
M  V30 5789 C 540.253 -0.835889 -4.18229 0
M  V30 5790 S 541.086 -2.33052 -4.82128 0
M  V30 5791 C 542.242 -1.62881 -6.04335 0
M  V30 5792 H 542.475 -1.49079 -2.57221 0
M  V30 5793 H 540.008 -0.874692 -1.27234 0
M  V30 5794 H 541.966 0.502563 -4.07412 0
M  V30 5795 H 540.627 0.948418 -2.99439 0
M  V30 5796 H 539.82 -0.283426 -5.03202 0
M  V30 5797 H 539.422 -1.18097 -3.54865 0
M  V30 5798 H 541.714 -0.933764 -6.71034 0
M  V30 5799 H 542.657 -2.45641 -6.64128 0
M  V30 5800 H 543.065 -1.11189 -5.53441 0
M  V30 5801 N 542.463 1.3308 -0.844243 0
M  V30 5802 C 543.709 1.98304 -0.452453 0
M  V30 5803 C 544.064 1.65645 0.978746 0
M  V30 5804 O 543.357 0.928849 1.6758 0
M  V30 5805 C 543.551 3.52045 -0.616354 0
M  V30 5806 C 543.38 3.99643 -2.06193 0
M  V30 5807 C 542.15 4.27224 -2.69829 0
M  V30 5808 C 544.348 4.15471 -3.03131 0
M  V30 5809 N 542.33 4.60998 -4.05406 0
M  V30 5810 C 543.701 4.52665 -4.23668 0
M  V30 5811 C 545.756 3.97776 -2.99465 0
M  V30 5812 C 544.459 4.74011 -5.41023 0
M  V30 5813 C 546.485 4.20301 -4.16055 0
M  V30 5814 C 545.847 4.57801 -5.35348 0
M  V30 5815 H 541.946 0.752122 -0.214096 0
M  V30 5816 H 544.53 1.61096 -1.09344 0
M  V30 5817 H 542.701 3.884 -0.00513205 0
M  V30 5818 H 544.433 4.04228 -0.19548 0
M  V30 5819 H 541.188 4.18911 -2.20931 0
M  V30 5820 H 541.612 4.82087 -4.75312 0
M  V30 5821 H 546.254 3.67893 -2.08362 0
M  V30 5822 H 543.972 5.02753 -6.32665 0
M  V30 5823 H 547.558 4.08122 -4.14641 0
M  V30 5824 H 546.438 4.74884 -6.24063 0
M  V30 5825 N 543.941 0.601185 1.45683 0
M  V30 5826 C 544.889 -0.133955 2.32214 0
M  V30 5827 C 545.883 -0.866034 1.45589 0
M  V30 5828 O 547.089 -0.782326 1.6211 0
M  V30 5829 H 543.464 -0.0620613 0.749435 0
M  V30 5830 H 545.435 0.614389 2.92007 0
M  V30 5831 C 544.184 -1.12216 3.29094 0
M  V30 5832 H 543.507 -0.568273 3.95741 0
M  V30 5833 H 544.947 -1.60659 3.92383 0
M  V30 5834 C 543.406 -2.19251 2.55794 0
M  V30 5835 O 543.936 -3.26894 2.33459 0
M  V30 5836 N 542.142 -1.9436 2.16039 0
M  V30 5837 H 541.689 -1.06829 2.34404 0
M  V30 5838 H 541.647 -2.66181 1.67318 0
M  V30 5839 N 545.419 -1.53889 0.339982 0
M  V30 5840 C 546.349 -2.27843 -0.510856 0
M  V30 5841 C 547.33 -1.29267 -1.10563 0
M  V30 5842 O 548.515 -1.58104 -1.12768 0
M  V30 5843 C 545.645 -3.04857 -1.66372 0
M  V30 5844 C 544.599 -4.10907 -1.19746 0
M  V30 5845 C 543.925 -4.75855 -2.43857 0
M  V30 5846 C 545.225 -5.21435 -0.300501 0
M  V30 5847 H 546.919 -2.99212 0.106067 0
M  V30 5848 H 544.465 -1.43904 0.0524533 0
M  V30 5849 H 546.418 -3.5533 -2.26537 0
M  V30 5850 H 545.142 -2.31133 -2.30749 0
M  V30 5851 H 543.801 -3.61342 -0.618654 0
M  V30 5852 H 543.449 -3.9873 -3.06633 0
M  V30 5853 H 543.149 -5.47502 -2.13343 0
M  V30 5854 H 544.673 -5.2911 -3.04754 0
M  V30 5855 H 546.087 -5.67565 -0.80889 0
M  V30 5856 H 544.484 -6.00036 -0.0874076 0
M  V30 5857 H 545.554 -4.80328 0.664321 0
M  V30 5858 N 546.897 -0.0685191 -1.57451 0
M  V30 5859 C 548.146 0.600898 -1.92541 0
M  V30 5860 C 548.459 1.70967 -0.950239 0
M  V30 5861 O 549.665 2.43844 -1.19384 0
M  V30 5862 C 548.121 1.12019 -3.42023 0
M  V30 5863 C 547.729 0.0426028 -4.4798 0
M  V30 5864 C 549.473 1.76386 -3.86119 0
M  V30 5865 C 547.38 0.575759 -5.88591 0
M  V30 5866 H 546.31 0.228225 -0.71863 0
M  V30 5867 H 548.961 -0.140223 -1.82963 0
M  V30 5868 H 547.343 1.91418 -3.46663 0
M  V30 5869 H 548.517 -0.73182 -4.54952 0
M  V30 5870 H 546.832 -0.504642 -4.13331 0
M  V30 5871 H 549.429 2.17302 -4.88553 0
M  V30 5872 H 549.772 2.62255 -3.23308 0
M  V30 5873 H 550.305 1.03615 -3.84069 0
M  V30 5874 H 547.044 -0.245691 -6.55039 0
M  V30 5875 H 546.564 1.31778 -5.85145 0
M  V30 5876 H 548.243 1.0532 -6.3837 0
M  V30 5877 N 548.375 1.56261 0.205012 0
M  V30 5878 C 549.307 1.90266 1.27795 0
M  V30 5879 C 550.32 0.792397 1.42214 0
M  V30 5880 O 551.509 1.07077 1.42817 0
M  V30 5881 C 548.609 2.11074 2.65143 0
M  V30 5882 C 547.782 3.42176 2.7246 0
M  V30 5883 C 546.841 3.52216 3.90936 0
M  V30 5884 O 545.867 4.25119 3.78501 0
M  V30 5885 N 547.069 2.84573 5.05963 0
M  V30 5886 H 549.834 2.82896 0.989434 0
M  V30 5887 H 547.395 1.57008 0.394981 0
M  V30 5888 H 549.387 2.15089 3.4281 0
M  V30 5889 H 547.957 1.2499 2.86524 0
M  V30 5890 H 547.177 3.50116 1.81142 0
M  V30 5891 H 548.465 4.28509 2.74331 0
M  V30 5892 H 547.863 2.25152 5.18963 0
M  V30 5893 H 546.42 2.94228 5.81613 0
M  V30 5894 N 549.853 -0.472356 1.50355 0
M  V30 5895 C 550.763 -1.59637 1.7191 0
M  V30 5896 C 551.779 -1.63247 0.602195 0
M  V30 5897 O 552.955 -1.81139 0.880369 0
M  V30 5898 C 550.02 -2.9586 1.80742 0
M  V30 5899 C 549.081 -3.02649 3.04471 0
M  V30 5900 C 548.314 -4.32374 3.12872 0
M  V30 5901 O 548.537 -5.22807 2.28099 0
M  V30 5902 O 547.471 -4.44728 4.05587 0
M  V30 5903 H 551.297 -1.44373 2.67189 0
M  V30 5904 H 548.882 -0.651717 1.34436 0
M  V30 5905 H 550.764 -3.7677 1.88739 0
M  V30 5906 H 549.439 -3.11325 0.88647 0
M  V30 5907 H 548.346 -2.20821 3.01975 0
M  V30 5908 H 549.679 -2.92119 3.9614 0
M  V30 5909 N 551.331 -1.39911 -0.725443 0
M  V30 5910 C 552.556 -1.41137 -1.5197 0
M  V30 5911 C 552.981 -0.010262 -1.88097 0
M  V30 5912 O 552.339 0.979184 -1.52583 0
M  V30 5913 C 552.387 -2.2994 -2.77777 0
M  V30 5914 O 551.491 -1.73586 -3.74088 0
M  V30 5915 H 550.832 -0.480219 -0.458569 0
M  V30 5916 H 553.362 -1.84023 -0.894249 0
M  V30 5917 H 553.372 -2.44785 -3.26411 0
M  V30 5918 H 552.047 -3.31759 -2.50816 0
M  V30 5919 H 550.624 -1.68035 -3.32894 0
M  V30 5920 N 552.809 0.956637 -1.25245 0
M  V30 5921 C 554.055 1.70352 -1.10036 0
M  V30 5922 C 554.388 1.90869 0.358156 0
M  V30 5923 O 553.663 1.47819 1.26411 0
M  V30 5924 C 553.946 3.08766 -1.85298 0
M  V30 5925 C 553.799 2.95672 -3.38966 0
M  V30 5926 C 555.118 4.08622 -1.63451 0
M  V30 5927 H 552.237 0.618279 -0.401123 0
M  V30 5928 H 554.879 1.11212 -1.54051 0
M  V30 5929 H 553.029 3.59252 -1.47887 0
M  V30 5930 H 554.701 2.52527 -3.86041 0
M  V30 5931 H 552.944 2.31634 -3.6678 0
M  V30 5932 H 553.615 3.93776 -3.86839 0
M  V30 5933 H 556.091 3.67038 -1.96015 0
M  V30 5934 H 554.967 5.03514 -2.18551 0
M  V30 5935 H 555.228 4.3834 -0.575357 0
M  V30 5936 N 554.287 1.06798 1.15896 0
M  V30 5937 C 555.217 0.704677 2.22613 0
M  V30 5938 C 556.198 -0.305252 1.67339 0
M  V30 5939 O 557.383 -0.179247 1.93371 0
M  V30 5940 C 554.513 0.0957325 3.47168 0
M  V30 5941 C 553.467 1.0322 4.15367 0
M  V30 5942 C 552.793 0.286293 5.33933 0
M  V30 5943 C 554.093 2.36341 4.65768 0
M  V30 5944 H 555.787 1.59688 2.53259 0
M  V30 5945 H 553.333 0.769257 1.21731 0
M  V30 5946 H 555.286 -0.170333 4.21056 0
M  V30 5947 H 554.01 -0.831516 3.15838 0
M  V30 5948 H 552.669 1.28309 3.43413 0
M  V30 5949 H 552.317 -0.644237 4.98857 0
M  V30 5950 H 552.017 0.910436 5.80504 0
M  V30 5951 H 553.541 0.0278938 6.10594 0
M  V30 5952 H 554.955 2.1561 5.31211 0
M  V30 5953 H 553.352 2.94299 5.2298 0
M  V30 5954 H 554.422 2.99047 3.81705 0
M  V30 5955 N 555.766 -1.3263 0.851289 0
M  V30 5956 C 556.676 -2.32722 0.296268 0
M  V30 5957 C 557.692 -1.63901 -0.584162 0
M  V30 5958 O 558.868 -1.95465 -0.485334 0
M  V30 5959 C 555.933 -3.42942 -0.509103 0
M  V30 5960 C 554.994 -4.2746 0.397069 0
M  V30 5961 C 554.227 -5.32416 -0.36996 0
M  V30 5962 O 554.45 -5.47491 -1.6003 0
M  V30 5963 O 553.384 -6.01327 0.262493 0
M  V30 5964 H 557.21 -2.82078 1.12543 0
M  V30 5965 H 554.795 -1.36194 0.614135 0
M  V30 5966 H 556.677 -4.1017 -0.96634 0
M  V30 5967 H 555.352 -2.95781 -1.31512 0
M  V30 5968 H 554.259 -3.63053 0.902411 0
M  V30 5969 H 555.592 -4.78136 1.16818 0
M  V30 5970 N 557.244 -0.608902 -1.45362 0
M  V30 5971 C 558.194 0.130616 -2.27626 0
M  V30 5972 C 559.178 0.837323 -1.37396 0
M  V30 5973 O 560.37 0.727096 -1.61376 0
M  V30 5974 C 557.499 1.12646 -3.24293 0
M  V30 5975 C 556.585 0.42052 -4.2201 0
M  V30 5976 N 556.976 -0.538569 -5.02925 0
M  V30 5977 C 555.274 0.667901 -4.40971 0
M  V30 5978 C 555.975 -0.953625 -5.7383 0
M  V30 5979 N 554.951 -0.297097 -5.42788 0
M  V30 5980 H 558.753 -0.605996 -2.87585 0
M  V30 5981 H 556.267 -0.432672 -1.5653 0
M  V30 5982 H 558.264 1.67066 -3.81961 0
M  V30 5983 H 556.924 1.86361 -2.65894 0
M  V30 5984 H 557.935 -0.915375 -5.09746 0
M  V30 5985 H 554.612 1.38963 -3.93695 0
M  V30 5986 H 556.002 -1.74473 -6.48852 0
M  V30 5987 N 558.722 1.53707 -0.348139 0
M  V30 5988 C 559.969 2.00988 0.246966 0
M  V30 5989 C 560.297 1.23586 1.50189 0
M  V30 5990 O 559.552 0.312817 1.93184 0
M  V30 5991 C 559.851 3.52292 0.602061 0
M  V30 5992 C 559.517 4.47453 -0.556509 0
M  V30 5993 C 558.179 4.73188 -0.874446 0
M  V30 5994 C 560.531 5.03851 -1.33354 0
M  V30 5995 C 557.859 5.52577 -1.9717 0
M  V30 5996 C 560.211 5.84437 -2.42108 0
M  V30 5997 C 558.875 6.08465 -2.74456 0
M  V30 5998 H 558.145 0.735469 0.0903712 0
M  V30 5999 H 560.792 1.85464 -0.477001 0
M  V30 6000 H 559.097 3.65672 1.40681 0
M  V30 6001 H 560.794 3.86337 1.07447 0
M  V30 6002 H 557.384 4.27558 -0.298652 0
M  V30 6003 H 561.568 4.8393 -1.10117 0
M  V30 6004 H 556.824 5.69418 -2.22651 0
M  V30 6005 H 560.998 6.27151 -3.02745 0
M  V30 6006 H 558.625 6.69768 -3.59604 0
M  V30 6007 N 560.2 0.0768682 1.57412 0
M  V30 6008 C 561.616 -0.279772 1.57129 0
M  V30 6009 C 561.816 -1.69688 1.08666 0
M  V30 6010 O 560.872 -2.40953 0.754843 0
M  V30 6011 C 562.185 -0.0848055 3.0058 0
M  V30 6012 C 563.733 -0.153954 3.12621 0
M  V30 6013 C 564.208 0.0127946 4.57998 0
M  V30 6014 N 565.699 -0.0426435 4.6318 0
M  V30 6015 C 566.434 0.0618892 5.73367 0
M  V30 6016 N 565.93 0.220229 6.9245 0
M  V30 6017 N 567.723 0.00446072 5.621 0
M  V30 6018 H 559.874 1.00297 1.87228 0
M  V30 6019 H 562.137 0.391565 0.863354 0
M  V30 6020 H 561.843 0.89325 3.40168 0
M  V30 6021 H 561.717 -0.834961 3.67843 0
M  V30 6022 H 564.104 -1.1225 2.72917 0
M  V30 6023 H 564.185 0.627389 2.47987 0
M  V30 6024 H 563.829 0.978128 4.98392 0
M  V30 6025 H 563.759 -0.788016 5.20671 0
M  V30 6026 H 566.25 -0.163226 3.77547 0
M  V30 6027 H 566.563 0.291999 7.72248 0
M  V30 6028 H 564.908 0.255658 6.9453 0
M  V30 6029 H 568.099 -0.117979 4.67951 0
M  V30 6030 H 568.272 0.0893796 6.47938 0
M  V30 6031 N 561.678 -1.56367 -0.196722 0
M  V30 6032 C 562.906 -1.84639 -0.933608 0
M  V30 6033 C 563.321 -0.659164 -1.76919 0
M  V30 6034 O 562.678 0.372142 -1.78665 0
M  V30 6035 C 562.729 -3.11694 -1.83109 0
M  V30 6036 O 562.45 -4.25838 -1.02924 0
M  V30 6037 C 563.951 -3.53132 -2.67979 0
M  V30 6038 H 561.171 -0.613188 -0.272473 0
M  V30 6039 H 563.715 -2.03475 -0.204465 0
M  V30 6040 H 561.87 -2.94759 -2.51387 0
M  V30 6041 H 562.284 -4.98178 -1.64069 0
M  V30 6042 H 563.758 -4.45005 -3.26611 0
M  V30 6043 H 564.235 -2.76045 -3.41608 0
M  V30 6044 H 564.841 -3.72592 -2.05074 0
M  V30 6045 N 563.156 0.464375 -1.50603 0
M  V30 6046 C 564.106 1.55929 -1.66343 0
M  V30 6047 C 565.09 1.52338 -0.517887 0
M  V30 6048 O 566.282 1.59248 -0.772601 0
M  V30 6049 C 563.411 2.94327 -1.7671 0
M  V30 6050 C 562.497 3.02777 -2.96962 0
M  V30 6051 N 562.888 2.81026 -4.20545 0
M  V30 6052 C 561.186 3.33919 -2.95659 0
M  V30 6053 C 561.887 2.94618 -5.01573 0
M  V30 6054 N 560.863 3.25112 -4.35664 0
M  V30 6055 H 564.665 1.37822 -2.59581 0
M  V30 6056 H 562.179 0.671227 -1.47879 0
M  V30 6057 H 564.176 3.73063 -1.86091 0
M  V30 6058 H 562.836 3.13476 -0.846353 0
M  V30 6059 H 563.847 2.56477 -4.49933 0
M  V30 6060 H 560.524 3.59013 -2.13111 0
M  V30 6061 H 561.914 2.81984 -6.09865 0
M  V30 6062 N 564.634 1.40294 0.718013 0
M  V30 6063 C 566.045 1.34289 1.29705 0
M  V30 6064 C 566.396 0.0152228 1.96194 0
M  V30 6065 O 565.521 -0.88682 1.97394 0
M  V30 6066 C 566.116 2.43219 2.3586 0
M  V30 6067 C 564.675 2.40682 2.89394 0
M  V30 6068 C 563.822 2.24223 1.63154 0
M  V30 6069 H 566.773 1.50135 0.514312 0
M  V30 6070 H 566.794 2.10986 3.16647 0
M  V30 6071 H 566.306 3.39836 1.87439 0
M  V30 6072 H 564.407 1.47756 3.42051 0
M  V30 6073 H 564.52 3.36177 3.41353 0
M  V30 6074 H 562.884 1.71696 1.88129 0
M  V30 6075 H 563.667 3.22834 1.16761 0
M  V30 6076 N 566.112 -0.949982 1.2575 0
M  V30 6077 C 567.34 -1.72972 1.13527 0
M  V30 6078 C 567.755 -1.8623 -0.310453 0
M  V30 6079 O 567.112 -1.36336 -1.2132 0
M  V30 6080 C 567.163 -3.14108 1.78936 0
M  V30 6081 O 566.884 -3.01493 3.17858 0
M  V30 6082 C 568.385 -4.08338 1.72554 0
M  V30 6083 H 565.605 -0.541864 0.395758 0
M  V30 6084 H 568.149 -1.19151 1.66202 0
M  V30 6085 H 566.304 -3.64858 1.30221 0
M  V30 6086 H 566.718 -3.90559 3.50092 0
M  V30 6087 H 568.192 -5.04963 2.22973 0
M  V30 6088 H 568.669 -4.33742 0.690251 0
M  V30 6089 H 569.275 -3.63506 2.2078 0
M  V30 6090 N 567.59 -1.07411 -1.15328 0
M  V30 6091 C 568.836 -0.798831 -1.86404 0
M  V30 6092 C 569.169 0.673433 -1.8215 0
M  V30 6093 O 568.444 1.49428 -1.24505 0
M  V30 6094 C 568.727 -1.30846 -3.35487 0
M  V30 6095 C 568.58 -2.84532 -3.4837 0
M  V30 6096 C 569.899 -0.925486 -4.30259 0
M  V30 6097 H 567.018 -0.291659 -0.676834 0
M  V30 6098 H 569.66 -1.332 -1.35491 0
M  V30 6099 H 567.81 -0.854916 -3.78977 0
M  V30 6100 H 569.482 -3.3818 -3.13739 0
M  V30 6101 H 567.725 -3.22699 -2.8991 0
M  V30 6102 H 568.396 -3.15259 -4.53118 0
M  V30 6103 H 570.872 -1.3163 -3.94731 0
M  V30 6104 H 569.748 -1.3094 -5.33053 0
M  V30 6105 H 570.009 0.168525 -4.41779 0
M  V30 6106 N 569.068 1.32177 -0.85831 0
M  V30 6107 C 570.484 1.49873 -0.548656 0
M  V30 6108 C 570.684 1.79278 0.919874 0
M  V30 6109 O 569.74 1.86451 1.70271 0
M  V30 6110 C 571.053 2.64043 -1.4388 0
M  V30 6111 C 572.601 2.77928 -1.43961 0
M  V30 6112 C 573.076 3.95182 -2.31506 0
M  V30 6113 N 574.567 4.0245 -2.29321 0
M  V30 6114 C 575.302 4.9242 -2.93786 0
M  V30 6115 N 574.798 5.87373 -3.67376 0
M  V30 6116 N 576.591 4.85572 -2.83155 0
M  V30 6117 H 568.742 1.11357 -1.80868 0
M  V30 6118 H 571.005 0.549175 -0.772729 0
M  V30 6119 H 570.711 2.49055 -2.48324 0
M  V30 6120 H 570.585 3.59912 -1.12885 0
M  V30 6121 H 572.972 2.92338 -0.402813 0
M  V30 6122 H 573.053 1.82762 -1.78974 0
M  V30 6123 H 572.697 3.81531 -3.35256 0
M  V30 6124 H 572.627 4.89633 -1.93823 0
M  V30 6125 H 575.118 3.34507 -1.75822 0
M  V30 6126 H 575.431 6.52728 -4.13722 0
M  V30 6127 H 573.776 5.87388 -3.71484 0
M  V30 6128 H 576.967 4.10363 -2.25211 0
M  V30 6129 H 577.14 5.55486 -3.33676 0
M  V30 6130 N 570.547 0.616602 1.45037 0
M  V30 6131 C 571.457 -0.0985401 2.34393 0
M  V30 6132 C 572.473 -0.850971 1.51771 0
M  V30 6133 O 573.649 -0.806521 1.84546 0
M  V30 6134 C 570.714 -1.07748 3.29532 0
M  V30 6135 C 569.775 -0.326022 4.2806 0
M  V30 6136 C 569.008 -1.25833 5.18654 0
M  V30 6137 O 569.231 -2.49652 5.12864 0
M  V30 6138 O 568.165 -0.750512 5.97203 0
M  V30 6139 H 571.991 0.636016 2.96966 0
M  V30 6140 H 569.576 0.376832 1.44569 0
M  V30 6141 H 571.458 -1.64107 3.88133 0
M  V30 6142 H 570.133 -1.79291 2.69512 0
M  V30 6143 H 569.04 0.280253 3.73049 0
M  V30 6144 H 570.373 0.349091 4.9096 0
M  V30 6145 N 572.025 -1.5352 0.356285 0
M  V30 6146 C 572.957 -2.23009 -0.529127 0
M  V30 6147 C 573.97 -1.241 -1.05371 0
M  V30 6148 O 575.159 -1.50379 -0.961679 0
M  V30 6149 C 572.259 -2.90685 -1.74229 0
M  V30 6150 C 571.432 -4.16019 -1.35081 0
M  V30 6151 C 570.491 -4.66989 -2.42502 0
M  V30 6152 O 569.517 -5.30895 -2.05279 0
M  V30 6153 N 570.719 -4.44006 -3.7395 0
M  V30 6154 H 573.484 -2.99627 0.0660501 0
M  V30 6155 H 571.045 -1.60885 0.181014 0
M  V30 6156 H 573.037 -3.21695 -2.4555 0
M  V30 6157 H 571.607 -2.17575 -2.24454 0
M  V30 6158 H 570.827 -3.91414 -0.467833 0
M  V30 6159 H 572.115 -4.9752 -1.06542 0
M  V30 6160 H 571.513 -3.92924 -4.06973 0
M  V30 6161 H 570.07 -4.7959 -4.41403 0
M  V30 6162 N 573.503 -0.0852151 -1.57369 0
M  V30 6163 C 574.752 0.580443 -1.93168 0
M  V30 6164 C 575.065 1.6995 -0.968319 0
M  V30 6165 O 576.271 2.42564 -1.21963 0
M  V30 6166 C 574.727 1.08386 -3.43192 0
M  V30 6167 C 574.335 -0.00491388 -4.48 0
M  V30 6168 C 576.079 1.72281 -3.87968 0
M  V30 6169 C 573.986 0.513299 -5.89168 0
M  V30 6170 H 572.916 0.22059 -0.72101 0
M  V30 6171 H 575.567 -0.159621 -1.82804 0
M  V30 6172 H 573.949 1.8773 -3.48674 0
M  V30 6173 H 575.123 -0.780032 -4.5415 0
M  V30 6174 H 573.438 -0.548453 -4.12772 0
M  V30 6175 H 576.035 2.12108 -4.9083 0
M  V30 6176 H 576.378 2.58811 -3.26071 0
M  V30 6177 H 576.911 0.995359 -3.85146 0
M  V30 6178 H 573.65 -0.315153 -6.54742 0
M  V30 6179 H 573.17 1.25564 -5.8651 0
M  V30 6180 H 574.849 0.985433 -6.39451 0
M  V30 6181 N 574.981 1.5647 0.188427 0
M  V30 6182 C 576.392 1.70864 0.752494 0
M  V30 6183 C 576.743 0.692905 1.83557 0
M  V30 6184 O 575.868 -0.149307 2.15884 0
M  V30 6185 C 576.463 3.09789 1.37173 0
M  V30 6186 C 575.022 3.25925 1.88281 0
M  V30 6187 C 574.169 2.66817 0.755259 0
M  V30 6188 H 577.12 1.58657 -0.0367408 0
M  V30 6189 H 577.141 3.07489 2.24122 0
M  V30 6190 H 576.653 3.83693 0.583219 0
M  V30 6191 H 574.754 2.56948 2.6983 0
M  V30 6192 H 574.867 4.33498 2.04001 0
M  V30 6193 H 573.231 2.2617 1.17128 0
M  V30 6194 H 574.014 3.43294 -0.0211237 0
M  V30 6195 N 576.459 -0.456382 1.50847 0
M  V30 6196 C 577.389 -1.56025 1.73719 0
M  V30 6197 C 578.37 -1.5967 0.586473 0
M  V30 6198 O 579.555 -1.75702 0.827185 0
M  V30 6199 C 576.685 -2.94251 1.84483 0
M  V30 6200 C 575.639 -3.05471 2.99786 0
M  V30 6201 C 574.965 -4.45489 2.95709 0
M  V30 6202 C 576.265 -2.81318 4.40065 0
M  V30 6203 H 577.959 -1.37138 2.66146 0
M  V30 6204 H 575.505 -0.658299 1.28072 0
M  V30 6205 H 577.458 -3.71417 1.99067 0
M  V30 6206 H 576.182 -3.14328 0.886891 0
M  V30 6207 H 574.841 -2.30741 2.84876 0
M  V30 6208 H 574.489 -4.62505 1.97732 0
M  V30 6209 H 574.189 -4.53929 3.73125 0
M  V30 6210 H 575.713 -5.24655 3.12362 0
M  V30 6211 H 577.127 -3.48226 4.55425 0
M  V30 6212 H 575.524 -3.01188 5.19043 0
M  V30 6213 H 576.594 -1.7706 4.51418 0
M  V30 6214 N 577.937 -1.40673 -0.710563 0
M  V30 6215 C 578.867 -1.44095 -1.83736 0
M  V30 6216 C 579.848 -0.301286 -1.67411 0
M  V30 6217 O 581.033 -0.510618 -1.87367 0
M  V30 6218 C 578.163 -1.30773 -3.21738 0
M  V30 6219 C 577.117 -2.42395 -3.52745 0
M  V30 6220 C 576.443 -2.14147 -4.89944 0
M  V30 6221 C 577.743 -3.84738 -3.53234 0
M  V30 6222 H 579.437 -2.38396 -1.81129 0
M  V30 6223 H 576.983 -1.14746 -0.870017 0
M  V30 6224 H 578.936 -1.31783 -4.00264 0
M  V30 6225 H 577.66 -0.329507 -3.24934 0
M  V30 6226 H 576.319 -2.40643 -2.76562 0
M  V30 6227 H 575.967 -1.14703 -4.89747 0
M  V30 6228 H 575.667 -2.88934 -5.11655 0
M  V30 6229 H 577.191 -2.16848 -5.70797 0
M  V30 6230 H 578.605 -3.88286 -4.2179 0
M  V30 6231 H 577.002 -4.59085 -3.86473 0
M  V30 6232 H 578.072 -4.13962 -2.52514 0
M  V30 6233 N 579.415 0.9433 -1.26252 0
M  V30 6234 C 580.325 2.07532 -1.09397 0
M  V30 6235 C 581.341 1.73977 -0.0280449 0
M  V30 6236 O 582.517 2.00067 -0.231337 0
M  V30 6237 C 579.582 3.39002 -0.726523 0
M  V30 6238 C 578.643 3.86353 -1.87163 0
M  V30 6239 C 577.876 5.11549 -1.52162 0
M  V30 6240 O 578.099 5.68834 -0.422385 0
M  V30 6241 O 577.033 5.53889 -2.35565 0
M  V30 6242 H 580.859 2.24658 -2.04359 0
M  V30 6243 H 578.444 1.05988 -1.05295 0
M  V30 6244 H 580.326 4.18 -0.534236 0
M  V30 6245 H 579.001 3.2312 0.193721 0
M  V30 6246 H 577.908 3.0831 -2.11886 0
M  V30 6247 H 579.241 4.06752 -2.77152 0
M  V30 6248 N 580.893 1.08022 1.14757 0
M  V30 6249 C 581.825 0.664566 2.19354 0
M  V30 6250 C 582.838 -0.286374 1.60261 0
M  V30 6251 O 584.027 -0.0746362 1.78344 0
M  V30 6252 C 581.127 -0.0434634 3.38872 0
M  V30 6253 C 580.3 0.925381 4.27499 0
M  V30 6254 C 579.359 0.253398 5.2559 0
M  V30 6255 O 578.385 0.896581 5.62094 0
M  V30 6256 N 579.587 -0.998263 5.71852 0
M  V30 6257 H 582.352 1.56438 2.55631 0
M  V30 6258 H 579.913 0.965788 1.29939 0
M  V30 6259 H 581.905 -0.503857 4.01551 0
M  V30 6260 H 580.475 -0.845321 3.00954 0
M  V30 6261 H 579.695 1.56472 3.61815 0
M  V30 6262 H 580.983 1.58203 4.8358 0
M  V30 6263 H 580.381 -1.54063 5.44317 0
M  V30 6264 H 578.938 -1.40222 6.36538 0
M  V30 6265 N 582.371 -1.3172 0.865308 0
M  V30 6266 C 583.318 -2.2863 0.315736 0
M  V30 6267 C 584.288 -1.55524 -0.583213 0
M  V30 6268 O 585.473 -1.83694 -0.51585 0
M  V30 6269 C 582.613 -3.41735 -0.480773 0
M  V30 6270 C 581.726 -4.297 0.445167 0
M  V30 6271 C 580.861 -5.29944 -0.365012 0
M  V30 6272 C 579.9 -6.09554 0.557651 0
M  V30 6273 N 579.037 -7.01768 -0.215994 0
M  V30 6274 H 583.877 -2.75026 1.14736 0
M  V30 6275 H 581.414 -1.35302 0.577209 0
M  V30 6276 H 583.372 -4.06045 -0.958306 0
M  V30 6277 H 582.002 -2.96461 -1.27714 0
M  V30 6278 H 581.054 -3.65875 1.04113 0
M  V30 6279 H 582.366 -4.85295 1.15284 0
M  V30 6280 H 581.52 -5.99908 -0.905255 0
M  V30 6281 H 580.259 -4.74994 -1.106 0
M  V30 6282 H 579.264 -5.38485 1.10969 0
M  V30 6283 H 580.489 -6.66591 1.29742 0
M  V30 6284 H 578.435 -6.49232 -0.939878 0
M  V30 6285 H 578.352 -7.54762 0.432431 0
M  V30 6286 H 579.62 -7.76002 -0.737618 0
M  V30 6287 N 583.85 -0.624285 -1.44708 0
M  V30 6288 C 585.096 -0.126237 -2.02407 0
M  V30 6289 C 585.428 1.24618 -1.48943 0
M  V30 6290 O 584.704 1.82569 -0.670742 0
M  V30 6291 C 584.986 -0.105449 -3.59946 0
M  V30 6292 C 584.84 -1.50972 -4.23707 0
M  V30 6293 C 586.159 0.573629 -4.36346 0
M  V30 6294 H 583.278 -0.0473472 -0.735478 0
M  V30 6295 H 585.92 -0.799452 -1.72362 0
M  V30 6296 H 584.07 0.46783 -3.85673 0
M  V30 6297 H 585.742 -2.13136 -4.0911 0
M  V30 6298 H 583.985 -2.0656 -3.81465 0
M  V30 6299 H 584.656 -1.44727 -5.32689 0
M  V30 6300 H 587.132 0.0861787 -4.16011 0
M  V30 6301 H 586.008 0.557338 -5.46063 0
M  V30 6302 H 586.269 1.64276 -4.10446 0
M  V30 6303 N 585.328 1.53329 -0.364422 0
M  V30 6304 C 586.258 2.28627 0.474543 0
M  V30 6305 C 587.239 1.31009 1.08492 0
M  V30 6306 O 588.424 1.59878 1.10239 0
M  V30 6307 C 585.554 3.07465 1.61501 0
M  V30 6308 C 584.508 4.1276 1.13194 0
M  V30 6309 C 583.834 4.79674 2.36255 0
M  V30 6310 C 585.134 5.21847 0.217507 0
M  V30 6311 H 586.828 2.99005 -0.153656 0
M  V30 6312 H 584.374 1.43803 -0.0753406 0
M  V30 6313 H 586.327 3.58889 2.20855 0
M  V30 6314 H 585.051 2.34775 2.27042 0
M  V30 6315 H 583.71 3.62281 0.56109 0
M  V30 6316 H 583.358 4.03557 3.00251 0
M  V30 6317 H 583.058 5.50827 2.04606 0
M  V30 6318 H 584.582 5.33892 2.96297 0
M  V30 6319 H 585.996 5.6878 0.718493 0
M  V30 6320 H 584.393 6.00099 -0.00806408 0
M  V30 6321 H 585.463 4.7921 -0.740653 0
M  V30 6322 N 586.806 0.0935595 1.57322 0
M  V30 6323 C 588.055 -0.570191 1.93473 0
M  V30 6324 C 588.368 -1.69434 0.977318 0
M  V30 6325 O 589.574 -2.41914 1.23248 0
M  V30 6326 C 588.03 -1.06564 3.43762 0
M  V30 6327 C 587.638 0.0286723 4.47991 0
M  V30 6328 C 589.382 -1.70221 3.88877 0
M  V30 6329 C 587.289 -0.482046 5.89432 0
M  V30 6330 H 586.219 -0.216764 0.72217 0
M  V30 6331 H 588.87 0.169313 1.82717 0
M  V30 6332 H 587.252 -1.85878 3.49664 0
M  V30 6333 H 588.426 0.804106 4.5373 0
M  V30 6334 H 586.741 0.570336 4.12476 0
M  V30 6335 H 589.338 -2.09502 4.91948 0
M  V30 6336 H 589.681 -2.57078 3.27439 0
M  V30 6337 H 590.214 -0.974919 3.85668 0
M  V30 6338 H 586.953 0.349871 6.54566 0
M  V30 6339 H 586.473 -1.22452 5.87167 0
M  V30 6340 H 588.152 -0.951508 6.39965 0
M  V30 6341 N 588.284 -1.56567 -0.180126 0
M  V30 6342 C 589.532 -1.81133 -0.896392 0
M  V30 6343 C 589.853 -0.669114 -1.83161 0
M  V30 6344 O 589.123 0.311616 -1.93406 0
M  V30 6345 H 587.703 -0.668172 -0.333999 0
M  V30 6346 H 590.365 -1.94048 -0.182051 0
M  V30 6347 H 589.461 -2.74854 -1.47857 0
M  V30 6348 N 589.762 0.448376 -1.51087 0
M  V30 6349 C 590.725 1.52588 -1.71025 0
M  V30 6350 C 591.725 1.49958 -0.580442 0
M  V30 6351 O 592.915 1.52176 -0.847833 0
M  V30 6352 C 590.047 2.92163 -1.75652 0
M  V30 6353 H 591.24 1.36218 -2.67179 0
M  V30 6354 H 588.793 0.676313 -1.4091 0
M  V30 6355 H 589.528 3.13951 -0.812724 0
M  V30 6356 H 589.313 2.95478 -2.57751 0
M  V30 6357 H 590.803 3.70349 -1.92953 0
M  V30 6358 N 591.24 1.41047 0.703093 0
M  V30 6359 C 592.17 1.45067 1.82969 0
M  V30 6360 C 593.151 0.31016 1.67248 0
M  V30 6361 O 594.336 0.520548 1.87093 0
M  V30 6362 C 591.466 1.32478 3.2104 0
M  V30 6363 C 590.42 2.44262 3.51454 0
M  V30 6364 C 589.746 2.16742 4.88801 0
M  V30 6365 C 591.046 3.86606 3.51189 0
M  V30 6366 H 592.74 2.39353 1.79863 0
M  V30 6367 H 590.286 1.15206 0.863919 0
M  V30 6368 H 592.239 1.33904 3.99559 0
M  V30 6369 H 590.963 0.346735 3.24754 0
M  V30 6370 H 589.622 2.42107 2.75282 0
M  V30 6371 H 589.27 1.17299 4.89132 0
M  V30 6372 H 588.97 2.91643 5.10116 0
M  V30 6373 H 590.494 2.19872 5.69639 0
M  V30 6374 H 591.908 3.90517 4.19725 0
M  V30 6375 H 590.305 4.61128 3.84033 0
M  V30 6376 H 591.375 4.15296 2.50315 0
M  V30 6377 N 592.718 -0.936591 1.26751 0
M  V30 6378 C 593.943 -1.72288 1.15462 0
M  V30 6379 C 594.368 -1.85915 -0.285887 0
M  V30 6380 O 593.726 -1.35272 -1.20711 0
M  V30 6381 C 593.774 -3.10503 1.83359 0
M  V30 6382 O 592.878 -3.96745 1.1255 0
M  V30 6383 H 592.219 -0.52843 0.402067 0
M  V30 6384 H 594.749 -1.17271 1.67656 0
M  V30 6385 H 594.759 -3.60867 1.90365 0
M  V30 6386 H 593.434 -2.99901 2.88153 0
M  V30 6387 H 592.011 -3.55191 1.13551 0
M  V30 6388 N 594.196 -1.08629 -1.14182 0
M  V30 6389 C 595.607 -0.838003 -1.66836 0
M  V30 6390 C 595.958 0.634885 -1.85644 0
M  V30 6391 O 595.083 1.49008 -1.56926 0
M  V30 6392 C 595.678 -1.51465 -3.03058 0
M  V30 6393 C 594.237 -1.31355 -3.52736 0
M  V30 6394 C 593.384 -1.57599 -2.28162 0
M  V30 6395 H 596.335 -1.24656 -0.982165 0
M  V30 6396 H 596.356 -0.943134 -3.68626 0
M  V30 6397 H 595.868 -2.58661 -2.89337 0
M  V30 6398 H 593.969 -0.262384 -3.71675 0
M  V30 6399 H 594.082 -2.04275 -4.33369 0
M  V30 6400 H 592.446 -0.997659 -2.34348 0
M  V30 6401 H 593.229 -2.66006 -2.17015 0
M  V30 6402 N 595.674 1.31259 -0.872281 0
M  V30 6403 C 596.922 1.96233 -0.483409 0
M  V30 6404 C 597.243 1.69276 0.968012 0
M  V30 6405 O 596.513 1.00943 1.67891 0
M  V30 6406 H 595.093 0.726025 -0.175774 0
M  V30 6407 H 597.755 1.60024 -1.11258 0
M  V30 6408 H 596.851 3.05403 -0.643075 0
M  V30 6409 N 597.152 0.631951 1.44375 0
M  V30 6410 C 598.082 -0.0593243 2.33425 0
M  V30 6411 C 599.063 -0.833964 1.48253 0
M  V30 6412 O 600.248 -0.799682 1.76971 0
M  V30 6413 C 597.378 -1.04096 3.31333 0
M  V30 6414 C 596.332 -0.377899 4.26328 0
M  V30 6415 C 595.658 -1.4695 5.14111 0
M  V30 6416 C 596.958 0.716371 5.17364 0
M  V30 6417 H 598.652 0.684287 2.91475 0
M  V30 6418 H 596.198 0.330518 1.40156 0
M  V30 6419 H 598.151 -1.53331 3.92514 0
M  V30 6420 H 596.875 -1.81547 2.71493 0
M  V30 6421 H 595.534 0.0938054 3.6648 0
M  V30 6422 H 595.182 -2.2349 4.50623 0
M  V30 6423 H 594.882 -1.03121 5.78481 0
M  V30 6424 H 596.406 -1.96363 5.78164 0
M  V30 6425 H 597.82 0.307089 5.72477 0
M  V30 6426 H 596.217 1.07784 5.90341 0
M  V30 6427 H 597.287 1.58316 4.58327 0
M  V30 6428 N 598.631 -1.53133 0.372548 0
M  V30 6429 C 599.594 -2.24569 -0.458389 0
M  V30 6430 C 600.594 -1.25603 -1.00402 0
M  V30 6431 O 601.784 -1.49827 -0.888672 0
M  V30 6432 C 598.916 -2.98783 -1.6414 0
M  V30 6433 H 600.109 -2.99436 0.166799 0
M  V30 6434 H 597.662 -1.55805 0.124357 0
M  V30 6435 H 598.397 -2.28176 -2.30448 0
M  V30 6436 H 598.182 -3.71404 -1.25704 0
M  V30 6437 H 599.672 -3.53068 -2.23008 0
M  V30 6438 N 600.109 -0.101901 -1.5727 0
M  V30 6439 C 601.072 0.840129 -2.13247 0
M  V30 6440 C 602.072 1.20625 -1.06331 0
M  V30 6441 O 603.262 1.13456 -1.32186 0
M  V30 6442 C 600.394 2.13372 -2.65867 0
M  V30 6443 H 601.587 0.353945 -2.97804 0
M  V30 6444 H 599.14 0.147167 -1.55606 0
M  V30 6445 H 599.875 2.66461 -1.84849 0
M  V30 6446 H 599.66 1.88085 -3.44044 0
M  V30 6447 H 601.15 2.80748 -3.09145 0
M  V30 6448 N 601.587 1.56661 0.17182 0
M  V30 6449 C 602.864 1.72838 0.915778 0
M  V30 6450 C 603.244 0.66316 2.00413 0
M  V30 6451 O 602.592 -0.322123 2.26218 0
M  V30 6452 C 602.802 3.16019 1.48097 0
M  V30 6453 C 604.15 3.76962 1.95408 0
M  V30 6454 O 605.174 3.19294 1.57892 0
M  V30 6455 O 604.033 4.78219 2.64516 0
M  V30 6456 H 601.127 0.705797 0.431021 0
M  V30 6457 H 603.673 1.68947 0.159689 0
M  V30 6458 H 602.445 3.85031 0.697618 0
M  V30 6459 H 602.068 3.24234 2.30126 0
M  V30 6460 N 603.065 -0.440357 1.51323 0
M  V30 6461 C 604.312 -1.19004 1.63842 0
M  V30 6462 C 604.64 -1.91266 0.35321 0
M  V30 6463 O 603.895 -1.84143 -0.662565 0
M  V30 6464 C 604.194 -2.2339 2.78984 0
M  V30 6465 C 603.86 -1.68162 4.18369 0
M  V30 6466 C 602.522 -1.52823 4.56288 0
M  V30 6467 C 604.874 -1.27524 5.05358 0
M  V30 6468 C 602.202 -0.953157 5.78906 0
M  V30 6469 C 604.554 -0.714474 6.28552 0
M  V30 6470 C 603.218 -0.547961 6.65247 0
M  V30 6471 H 602.488 -0.435468 0.59954 0
M  V30 6472 H 605.135 -0.481538 1.85347 0
M  V30 6473 H 603.44 -3.00267 2.51688 0
M  V30 6474 H 605.137 -2.81211 2.85869 0
M  V30 6475 H 601.727 -1.81077 3.8847 0
M  V30 6476 H 605.911 -1.38197 4.76671 0
M  V30 6477 H 601.167 -0.811882 6.05986 0
M  V30 6478 H 605.341 -0.391059 6.95301 0
M  V30 6479 H 602.968 -0.100222 7.60134 0
M  V30 6480 N 604.543 -1.41418 -0.695603 0
M  V30 6481 C 605.473 -1.46035 -1.82197 0
M  V30 6482 C 606.454 -0.319025 -1.67082 0
M  V30 6483 O 607.639 -0.530462 -1.86815 0
M  V30 6484 C 604.769 -1.34179 -3.20333 0
M  V30 6485 C 603.723 -2.46123 -3.50154 0
M  V30 6486 C 603.049 -2.19332 -4.87645 0
M  V30 6487 C 604.349 -3.88463 -3.49133 0
M  V30 6488 H 606.043 -2.40303 -1.78591 0
M  V30 6489 H 603.589 -1.15663 -0.857797 0
M  V30 6490 H 605.542 -1.36021 -3.98844 0
M  V30 6491 H 604.266 -0.363952 -3.24566 0
M  V30 6492 H 602.925 -2.43563 -2.73994 0
M  V30 6493 H 602.573 -1.19891 -4.88503 0
M  V30 6494 H 602.273 -2.94344 -5.08562 0
M  V30 6495 H 603.797 -2.22889 -5.68465 0
M  V30 6496 H 605.211 -3.92738 -4.17648 0
M  V30 6497 H 603.608 -4.63158 -3.81582 0
M  V30 6498 H 604.678 -4.16617 -2.48109 0
M  V30 6499 N 606.021 0.929856 -1.27246 0
M  V30 6500 C 606.951 2.04722 -1.12299 0
M  V30 6501 C 607.932 1.70082 -0.0250464 0
M  V30 6502 O 609.117 1.93176 -0.199141 0
M  V30 6503 C 606.247 3.38721 -0.767145 0
M  V30 6504 C 605.201 3.87466 -1.81808 0
M  V30 6505 C 604.527 5.18246 -1.31626 0
M  V30 6506 C 605.827 4.11095 -3.22177 0
M  V30 6507 H 607.521 2.17485 -2.05769 0
M  V30 6508 H 605.067 1.04503 -0.990715 0
M  V30 6509 H 607.02 4.16366 -0.649413 0
M  V30 6510 H 605.744 3.25967 0.203259 0
M  V30 6511 H 604.403 3.12012 -1.92468 0
M  V30 6512 H 604.051 5.01881 -0.335378 0
M  V30 6513 H 603.751 5.51829 -2.01887 0
M  V30 6514 H 605.275 5.98462 -1.21143 0
M  V30 6515 H 606.689 4.79316 -3.1453 0
M  V30 6516 H 605.086 4.55982 -3.90129 0
M  V30 6517 H 606.156 3.16468 -3.67391 0
M  V30 6518 N 607.499 1.09233 1.13605 0
M  V30 6519 C 608.446 0.729921 2.18954 0
M  V30 6520 C 609.416 -0.287916 1.63586 0
M  V30 6521 O 610.601 -0.170003 1.90041 0
M  V30 6522 C 607.741 0.154489 3.44754 0
M  V30 6523 C 606.854 1.22613 4.14234 0
M  V30 6524 C 605.989 0.613657 5.27644 0
M  V30 6525 C 605.028 1.66674 5.8897 0
M  V30 6526 N 604.165 1.07545 6.93814 0
M  V30 6527 H 609.005 1.63257 2.49302 0
M  V30 6528 H 606.542 0.815693 1.22413 0
M  V30 6529 H 608.5 -0.196923 4.16735 0
M  V30 6530 H 607.13 -0.711433 3.14863 0
M  V30 6531 H 606.182 1.69485 3.40557 0
M  V30 6532 H 607.494 2.0238 4.55899 0
M  V30 6533 H 606.648 0.210976 6.06333 0
M  V30 6534 H 605.387 -0.215584 4.87223 0
M  V30 6535 H 604.392 2.07899 5.08978 0
M  V30 6536 H 605.617 2.49861 6.31464 0
M  V30 6537 H 603.563 0.267451 6.55455 0
M  V30 6538 H 603.48 1.81011 7.3401 0
M  V30 6539 H 604.748 0.698906 7.7636 0
M  V30 6540 N 608.977 -1.30795 0.87923 0
M  V30 6541 C 609.94 -2.26563 0.346676 0
M  V30 6542 C 610.94 -1.52578 -0.507597 0
M  V30 6543 O 612.13 -1.71318 -0.315575 0
M  V30 6544 C 609.262 -3.37115 -0.506611 0
M  V30 6545 H 610.455 -2.75183 1.19223 0
M  V30 6546 H 608.008 -1.41886 0.655598 0
M  V30 6547 H 608.743 -2.93802 -1.37299 0
M  V30 6548 H 608.528 -3.91959 0.105218 0
M  V30 6549 H 610.018 -4.08412 -0.871192 0
M  V30 6550 N 610.455 -0.639598 -1.44038 0
M  V30 6551 C 611.702 -0.14748 -2.01962 0
M  V30 6552 C 612.03 1.23372 -1.50365 0
M  V30 6553 O 611.285 1.8345 -0.681501 0
M  V30 6554 C 611.584 -0.0925348 -3.5728 0
M  V30 6555 C 611.25 -1.41365 -4.28167 0
M  V30 6556 C 609.912 -1.77545 -4.47248 0
M  V30 6557 C 612.264 -2.2853 -4.68427 0
M  V30 6558 C 609.592 -3.00583 -5.03852 0
M  V30 6559 C 611.944 -3.50846 -5.26393 0
M  V30 6560 C 610.608 -3.8724 -5.43692 0
M  V30 6561 H 609.878 -0.0539666 -0.739032 0
M  V30 6562 H 612.525 -0.827599 -1.72694 0
M  V30 6563 H 610.83 0.670987 -3.86012 0
M  V30 6564 H 612.527 0.304891 -3.99839 0
M  V30 6565 H 609.117 -1.1221 -4.13651 0
M  V30 6566 H 613.301 -2.0187 -4.5339 0
M  V30 6567 H 608.557 -3.28846 -5.15432 0
M  V30 6568 H 612.731 -4.18616 -5.56537 0
M  V30 6569 H 610.358 -4.8266 -5.87319 0
M  V30 6570 N 611.933 1.52934 -0.380664 0
M  V30 6571 C 612.88 2.26197 0.458641 0
M  V30 6572 C 613.85 1.27462 1.06502 0
M  V30 6573 O 615.035 1.56274 1.09467 0
M  V30 6574 C 612.175 3.06571 1.58456 0
M  V30 6575 C 611.288 4.20222 1.00189 0
M  V30 6576 C 610.423 4.88007 2.09815 0
M  V30 6577 C 609.462 5.93665 1.49092 0
M  V30 6578 N 608.599 6.55081 2.52613 0
M  V30 6579 H 613.439 2.975 -0.172595 0
M  V30 6580 H 610.976 1.4678 -0.0969426 0
M  V30 6581 H 612.934 3.51455 2.24801 0
M  V30 6582 H 611.564 2.37494 2.18624 0
M  V30 6583 H 610.616 3.79714 0.228292 0
M  V30 6584 H 611.928 4.96102 0.518064 0
M  V30 6585 H 611.082 5.36151 2.83948 0
M  V30 6586 H 609.821 4.11632 2.61555 0
M  V30 6587 H 608.826 5.44868 0.7348 0
M  V30 6588 H 610.051 6.71969 0.981582 0
M  V30 6589 H 607.997 5.8155 3.03538 0
M  V30 6590 H 607.914 7.26548 2.08961 0
M  V30 6591 H 609.182 7.07871 3.26402 0
M  V30 6592 N 613.412 0.11024 1.57214 0
M  V30 6593 C 614.637 -0.561179 1.99664 0
M  V30 6594 C 615.062 -1.59985 0.989266 0
M  V30 6595 O 614.42 -1.81255 -0.0402399 0
M  V30 6596 C 614.468 -1.17189 3.41027 0
M  V30 6597 O 613.572 -2.28755 3.4314 0
M  V30 6598 H 612.913 -0.14101 0.648855 0
M  V30 6599 H 615.443 0.196128 2.03658 0
M  V30 6600 H 615.453 -1.50954 3.79047 0
M  V30 6601 H 614.128 -0.411041 4.13864 0
M  V30 6602 H 612.705 -1.96495 3.16929 0
M  V30 6603 N 614.89 -1.56749 -0.16351 0
M  V30 6604 C 616.306 -1.51043 -0.515567 0
M  V30 6605 C 616.506 -0.815855 -1.84245 0
M  V30 6606 O 615.562 -0.379477 -2.49632 0
M  V30 6607 C 616.875 -2.95791 -0.541114 0
M  V30 6608 C 618.423 -3.0664 -0.627776 0
M  V30 6609 C 618.898 -4.52861 -0.684141 0
M  V30 6610 N 620.389 -4.5714 -0.746818 0
M  V30 6611 C 621.124 -5.67634 -0.811137 0
M  V30 6612 N 620.62 -6.8774 -0.835811 0
M  V30 6613 N 622.413 -5.55624 -0.850756 0
M  V30 6614 H 614.564 -2.00307 0.70645 0
M  V30 6615 H 616.827 -0.912876 0.255659 0
M  V30 6616 H 616.533 -3.49797 0.365329 0
M  V30 6617 H 616.407 -3.50858 -1.38487 0
M  V30 6618 H 618.794 -2.52663 -1.52464 0
M  V30 6619 H 618.875 -2.54645 0.242805 0
M  V30 6620 H 618.519 -5.07472 0.2085 0
M  V30 6621 H 618.449 -5.02621 -1.57098 0
M  V30 6622 H 620.94 -3.70669 -0.735717 0
M  V30 6623 H 621.253 -7.67701 -0.886279 0
M  V30 6624 H 619.598 -6.90334 -0.803958 0
M  V30 6625 H 622.789 -4.60709 -0.828535 0
M  V30 6626 H 622.962 -6.41756 -0.897418 0
M  V30 6627 N 616.368 0.432326 -1.51554 0
M  V30 6628 C 617.645 1.19288 -1.55015 0
M  V30 6629 C 618.025 2.08701 -0.317375 0
M  V30 6630 O 617.373 2.17602 0.697243 0
M  V30 6631 C 617.583 1.99037 -2.86679 0
M  V30 6632 C 618.931 2.55907 -3.38817 0
M  V30 6633 O 619.955 2.09243 -2.88263 0
M  V30 6634 O 618.814 3.41029 -4.27038 0
M  V30 6635 H 615.908 0.543369 -0.623441 0
M  V30 6636 H 618.454 0.440988 -1.6387 0
M  V30 6637 H 617.226 1.33397 -3.6786 0
M  V30 6638 H 616.849 2.81281 -2.8101 0
M  V30 6639 O 617.885 1.50798 0.578109 0
M  V30 6640 H 618.576 1.4938 1.2331 0
M  V30 END ATOM
M  V30 BEGIN BOND
M  V30 END BOND
M  V30 END CTAB
M  END
$$$$
