drugbank_target|Q8IVL5 Prolyl 3-hydroxylase 2 (DB00126; DB00172)
 OpenBabel12092120073D

  0  0  0     0  0            999 V3000
M  V30 BEGIN CTAB
M  V30 COUNTS 11230 11371 0 0 0
M  V30 BEGIN ATOM
M  V30 1 H -0.908 1.98254 -0.117106 0
M  V30 2 N 0 1.576 0 0
M  V30 3 C 0.933 2.03868 1.02534 0
M  V30 4 C 1.911 0.928543 1.3348 0
M  V30 5 O 3.095 1.19667 1.45644 0
M  V30 6 C 0.222 2.43627 2.35294 0
M  V30 7 C -0.732 3.65373 2.2001 0
M  V30 8 S 0.101 5.13292 1.52614 0
M  V30 9 C 1.257 5.56322 2.86805 0
M  V30 10 H 1.49 2.90518 0.631377 0
M  V30 11 H -0.977 1.52953 0.210867 0
M  V30 12 H 0.981 2.67203 3.11629 0
M  V30 13 H -0.358 1.57376 2.7183 0
M  V30 14 H -1.165 3.90944 3.18086 0
M  V30 15 H -1.563 3.418 1.51819 0
M  V30 16 H 0.729 5.58782 3.83104 0
M  V30 17 H 1.672 6.56266 2.65933 0
M  V30 18 H 2.08 4.83886 2.90714 0
M  V30 19 N 1.4781 -0.272755 1.55222 0
M  V30 20 C 2.8941 -0.619959 1.47067 0
M  V30 21 C 3.0941 -1.895 0.684978 0
M  V30 22 O 2.1501 -2.51675 0.203931 0
M  V30 23 C 3.4631 -0.746693 2.91282 0
M  V30 24 C 5.0111 -0.840731 3.01497 0
M  V30 25 C 5.4861 -0.99924 4.46967 0
M  V30 26 N 6.9771 -1.06476 4.50796 0
M  V30 27 C 7.7121 -1.20621 5.6057 0
M  V30 28 N 7.2081 -1.31483 6.80209 0
M  V30 29 N 9.0011 -1.23733 5.48312 0
M  V30 30 H 1.1521 0.564606 2.04758 0
M  V30 31 H 3.4151 0.191177 0.928523 0
M  V30 32 H 3.1211 0.119753 3.51496 0
M  V30 33 H 2.9951 -1.6269 3.40311 0
M  V30 34 H 5.3821 -1.69764 2.41379 0
M  V30 35 H 5.4631 0.0640874 2.5572 0
M  V30 36 H 5.1071 -0.146984 5.07687 0
M  V30 37 H 5.0371 -1.91871 4.90401 0
M  V30 38 H 7.5281 -0.993196 3.64615 0
M  V30 39 H 7.8411 -1.42111 7.59621 0
M  V30 40 H 6.1861 -1.28487 6.8302 0
M  V30 41 H 9.3771 -1.14877 4.53785 0
M  V30 42 H 9.5501 -1.34412 6.33906 0
M  V30 43 N 2.9562 -1.48159 -0.537278 0
M  V30 44 C 3.8662 -1.64807 -1.6696 0
M  V30 45 C 4.8822 -0.530651 -1.65711 0
M  V30 46 O 6.0582 -0.800784 -1.84796 0
M  V30 47 C 3.1232 -1.67708 -3.03438 0
M  V30 48 C 2.1842 -2.91025 -3.156 0
M  V30 49 C 1.4172 -2.93778 -4.45567 0
M  V30 50 O 1.6402 -2.05153 -5.3223 0
M  V30 51 O 0.5742 -3.85868 -4.61941 0
M  V30 52 H 4.4002 -2.6066 -1.55853 0
M  V30 53 H 1.9852 -1.31475 -0.709549 0
M  V30 54 H 3.8672 -1.7218 -3.84619 0
M  V30 55 H 2.5422 -0.750278 -3.14885 0
M  V30 56 H 1.4492 -2.92089 -2.33741 0
M  V30 57 H 2.7822 -3.83065 -3.09066 0
M  V30 58 N 4.4343 0.785586 -1.36625 0
M  V30 59 C 5.8503 1.08419 -1.17122 0
M  V30 60 C 6.0503 2.015 0.00208491 0
M  V30 61 O 5.1063 2.43551 0.666278 0
M  V30 62 C 6.4193 1.69498 -2.48377 0
M  V30 63 C 7.9673 1.81821 -2.54775 0
M  V30 64 C 8.4423 2.46315 -3.86126 0
M  V30 65 N 9.9333 2.53779 -3.87492 0
M  V30 66 C 10.6683 3.045 -4.85868 0
M  V30 67 N 10.1643 3.55499 -5.94637 0
M  V30 68 N 11.9573 3.03247 -4.73284 0
M  V30 69 H 4.1083 0.167264 -2.1174 0
M  V30 70 H 6.3713 0.13682 -0.938075 0
M  V30 71 H 6.0773 1.08571 -3.34522 0
M  V30 72 H 5.9513 2.6896 -2.64462 0
M  V30 73 H 8.3383 2.41884 -1.69045 0
M  V30 74 H 8.4193 0.811532 -2.42586 0
M  V30 75 H 8.0633 1.86895 -4.72263 0
M  V30 76 H 7.9933 3.47561 -3.95612 0
M  V30 77 H 10.4843 2.17672 -3.08913 0
M  V30 78 H 10.7973 3.92562 -6.65669 0
M  V30 79 H 9.1423 3.5364 -5.98301 0
M  V30 80 H 12.3333 2.62696 -3.87438 0
M  V30 81 H 12.5063 3.42467 -5.50109 0
M  V30 82 N 5.9124 1.20967 1.01018 0
M  V30 83 C 7.1614 1.01796 1.74128 0
M  V30 84 C 7.4744 -0.449691 1.90361 0
M  V30 85 O 8.6804 -0.76068 2.60626 0
M  V30 86 C 7.1364 1.7727 3.13215 0
M  V30 87 C 6.7444 3.28171 3.04972 0
M  V30 88 C 8.4884 1.66489 3.90489 0
M  V30 89 C 6.3954 3.96156 4.39107 0
M  V30 90 H 5.3254 0.377276 0.652824 0
M  V30 91 H 7.9764 1.44651 1.12909 0
M  V30 92 H 6.3584 1.27205 3.75013 0
M  V30 93 H 7.5324 3.85499 2.52443 0
M  V30 94 H 5.8474 3.39437 2.41188 0
M  V30 95 H 8.4444 2.14617 4.89738 0
M  V30 96 H 8.7874 0.6222 4.11624 0
M  V30 97 H 9.3204 2.14003 3.35332 0
M  V30 98 H 6.0594 5.00604 4.23174 0
M  V30 99 H 5.5794 3.43617 4.91617 0
M  V30 100 H 7.2584 4.00774 5.07926 0
M  V30 101 N 7.3905 -1.2043 1.01659 0
M  V30 102 C 8.6365 -1.90356 0.716674 0
M  V30 103 C 8.9915 -1.77367 -0.745557 0
M  V30 104 O 8.2845 -1.1471 -1.53467 0
M  V30 105 C 8.4785 -3.40464 1.08714 0
M  V30 106 C 8.3075 -3.6806 2.58384 0
M  V30 107 C 7.0775 -3.86775 3.25167 0
M  V30 108 C 9.2755 -3.70623 3.56572 0
M  V30 109 N 7.2575 -4.01889 4.64067 0
M  V30 110 C 8.6285 -3.91161 4.81034 0
M  V30 111 C 10.6835 -3.53586 3.50544 0
M  V30 112 C 9.3865 -3.96428 6.00198 0
M  V30 113 C 11.4125 -3.60125 4.6911 0
M  V30 114 C 10.7745 -3.81135 5.92381 0
M  V30 115 H 6.8735 -0.716226 0.313918 0
M  V30 116 H 9.4575 -1.44815 1.30141 0
M  V30 117 H 7.6285 -3.84757 0.530745 0
M  V30 118 H 9.3605 -3.97863 0.740763 0
M  V30 119 H 6.1155 -3.85156 2.75594 0
M  V30 120 H 6.5395 -4.13323 5.36184 0
M  V30 121 H 11.1815 -3.36308 2.56235 0
M  V30 122 H 8.8995 -4.12502 6.94887 0
M  V30 123 H 12.4855 -3.4825 4.66062 0
M  V30 124 H 11.3655 -3.86054 6.82592 0
M  V30 125 N 8.8686 -0.792821 -1.36206 0
M  V30 126 C 9.8316 -0.199459 -2.2833 0
M  V30 127 C 10.8316 0.605189 -1.48977 0
M  V30 128 O 12.0216 0.425685 -1.68919 0
M  V30 129 C 9.1536 0.723523 -3.33134 0
M  V30 130 H 10.3466 -1.01181 -2.82316 0
M  V30 131 H 7.8996 -0.562485 -1.45828 0
M  V30 132 H 8.6346 1.56008 -2.84309 0
M  V30 133 H 8.4196 0.148436 -3.91819 0
M  V30 134 H 9.9096 1.13344 -4.01924 0
M  V30 135 N 10.3467 1.47872 -0.545128 0
M  V30 136 C 11.7577 1.86384 -0.108581 0
M  V30 137 C 12.1087 1.45309 1.31832 0
M  V30 138 O 11.2337 0.850641 1.9898 0
M  V30 139 C 11.8287 3.38265 -0.190274 0
M  V30 140 C 10.3877 3.75914 0.191164 0
M  V30 141 C 9.5347 2.71926 -0.543273 0
M  V30 142 H 12.4857 1.39561 -0.755537 0
M  V30 143 H 12.5067 3.75831 0.594217 0
M  V30 144 H 12.0187 3.6813 -1.2289 0
M  V30 145 H 10.1197 3.51665 1.23136 0
M  V30 146 H 10.2327 4.78836 -0.158987 0
M  V30 147 H 8.5967 2.54697 0.0122495 0
M  V30 148 H 9.3797 3.04634 -1.58282 0
M  V30 149 N 11.8248 0.280983 1.55075 0
M  V30 150 C 13.2358 -0.215629 1.85451 0
M  V30 151 C 13.5868 -1.54991 1.203 0
M  V30 152 O 12.7118 -2.10699 0.493435 0
M  V30 153 C 13.3068 -0.398026 3.36454 0
M  V30 154 C 11.8658 -0.838866 3.66933 0
M  V30 155 C 11.0128 0.064458 2.77225 0
M  V30 156 H 13.9638 0.502601 1.50531 0
M  V30 157 H 13.9848 -1.23569 3.59876 0
M  V30 158 H 13.4968 0.573241 3.83843 0
M  V30 159 H 11.5978 -1.8214 3.25048 0
M  V30 160 H 11.7108 -0.672123 4.74362 0
M  V30 161 H 10.0748 -0.452863 2.50642 0
M  V30 162 H 10.8578 1.03172 3.2743 0
M  V30 163 N 13.3029 -1.57598 0.00835791 0
M  V30 164 C 14.2329 -2.1198 -0.979113 0
M  V30 165 C 15.2139 -1.03091 -1.35301 0
M  V30 166 O 16.3989 -1.30818 -1.43528 0
M  V30 167 C 13.5289 -2.62995 -2.26828 0
M  V30 168 C 12.4829 -3.76485 -2.03576 0
M  V30 169 C 11.8089 -4.13846 -3.38579 0
M  V30 170 C 13.1089 -5.0342 -1.39161 0
M  V30 171 H 14.8029 -2.94738 -0.526281 0
M  V30 172 H 12.3489 -1.41783 -0.251704 0
M  V30 173 H 14.3019 -2.99669 -2.96271 0
M  V30 174 H 13.0259 -1.7737 -2.7424 0
M  V30 175 H 11.6849 -3.40217 -1.36557 0
M  V30 176 H 11.3329 -3.25232 -3.83709 0
M  V30 177 H 11.0329 -4.90312 -3.23834 0
M  V30 178 H 12.5569 -4.53086 -4.09323 0
M  V30 179 H 13.9709 -5.37812 -1.98573 0
M  V30 180 H 12.3679 -5.84746 -1.34878 0
M  V30 181 H 13.4379 -4.83548 -0.361868 0
M  V30 182 N 14.781 0.264519 -1.55364 0
M  V30 183 C 15.711 1.33121 -1.91836 0
M  V30 184 C 16.692 1.51101 -0.781192 0
M  V30 185 O 17.877 1.64003 -1.04003 0
M  V30 186 C 15.007 2.68921 -2.19769 0
M  V30 187 C 13.961 2.65661 -3.35571 0
M  V30 188 C 13.287 4.05093 -3.49004 0
M  V30 189 C 14.587 2.24187 -4.71739 0
M  V30 190 H 16.281 1.02844 -2.81182 0
M  V30 191 H 13.827 0.493286 -1.35287 0
M  V30 192 H 15.78 3.43663 -2.43872 0
M  V30 193 H 14.504 3.00799 -1.27231 0
M  V30 194 H 13.163 1.93377 -3.1145 0
M  V30 195 H 12.811 4.34206 -2.53917 0
M  V30 196 H 12.511 4.03804 -4.26868 0
M  V30 197 H 14.035 4.81561 -3.75408 0
M  V30 198 H 15.449 2.88654 -4.9533 0
M  V30 199 H 13.846 2.34044 -5.52579 0
M  V30 200 H 14.916 1.19327 -4.69988 0
M  V30 201 N 16.2591 1.48442 0.529413 0
M  V30 202 C 17.1891 1.65902 1.64313 0
M  V30 203 C 18.1701 0.507897 1.6234 0
M  V30 204 O 19.3551 0.740503 1.79528 0
M  V30 205 C 16.4851 1.69911 3.02898 0
M  V30 206 C 15.4391 2.8453 3.19729 0
M  V30 207 C 14.7651 2.73629 4.59381 0
M  V30 208 C 16.0651 4.25821 3.02447 0
M  V30 209 H 17.7591 2.5914 1.49955 0
M  V30 210 H 15.3051 1.24709 0.719982 0
M  V30 211 H 17.2581 1.80715 3.80684 0
M  V30 212 H 15.9821 0.732524 3.18279 0
M  V30 213 H 14.6411 2.73283 2.44361 0
M  V30 214 H 14.2891 1.74938 4.71599 0
M  V30 215 H 13.9891 3.50541 4.71588 0
M  V30 216 H 15.5131 2.86401 5.39265 0
M  V30 217 H 16.9271 4.37898 3.70024 0
M  V30 218 H 15.3241 5.03735 3.26146 0
M  V30 219 H 16.3941 4.42244 1.98867 0
M  V30 220 N 17.7372 -0.778329 1.37039 0
M  V30 221 C 18.6672 -1.90546 1.34962 0
M  V30 222 C 19.6482 -1.68681 0.219274 0
M  V30 223 O 20.8332 -1.89634 0.418624 0
M  V30 224 C 17.9632 -3.27734 1.14925 0
M  V30 225 C 16.9172 -3.64147 2.24902 0
M  V30 226 C 16.2432 -4.99806 1.89996 0
M  V30 227 C 17.5432 -3.71579 3.67051 0
M  V30 228 H 19.2372 -1.92541 2.29277 0
M  V30 229 H 16.7832 -0.924948 1.10366 0
M  V30 230 H 18.7362 -4.06215 1.12104 0
M  V30 231 H 17.4602 -3.26154 0.170631 0
M  V30 232 H 16.1192 -2.8797 2.26868 0
M  V30 233 H 15.7672 -4.94759 0.906796 0
M  V30 234 H 15.4672 -5.25139 2.63634 0
M  V30 235 H 16.9912 -5.80694 1.88749 0
M  V30 236 H 18.4052 -4.40227 3.67251 0
M  V30 237 H 16.8022 -4.08405 4.39688 0
M  V30 238 H 17.8722 -2.72404 4.01154 0
M  V30 239 N 19.2153 -1.21501 -1.00376 0
M  V30 240 C 20.1453 -0.999478 -2.11028 0
M  V30 241 C 21.1263 0.0759671 -1.6993 0
M  V30 242 O 22.3113 -0.0841106 -1.94018 0
M  V30 243 C 19.4413 -0.564709 -3.42678 0
M  V30 244 C 18.3953 -1.58486 -3.97576 0
M  V30 245 C 17.7213 -1.00628 -5.25146 0
M  V30 246 C 19.0213 -2.97204 -4.29496 0
M  V30 247 H 20.7153 -1.92495 -2.29317 0
M  V30 248 H 18.2613 -0.92693 -1.102 0
M  V30 249 H 20.2143 -0.401091 -4.19487 0
M  V30 250 H 18.9383 0.396411 -3.24185 0
M  V30 251 H 17.5973 -1.73606 -3.22888 0
M  V30 252 H 17.2453 -0.0368439 -5.02987 0
M  V30 253 H 16.9453 -1.68771 -5.62841 0
M  V30 254 H 18.4693 -0.854015 -6.04598 0
M  V30 255 H 19.8833 -2.8552 -4.97143 0
M  V30 256 H 18.2803 -3.62372 -4.78338 0
M  V30 257 H 19.3503 -3.47956 -3.3772 0
M  V30 258 N 20.6934 1.19889 -1.02296 0
M  V30 259 C 22.1044 1.71124 -0.746568 0
M  V30 260 C 22.4554 1.81939 0.734335 0
M  V30 261 O 21.5804 1.48639 1.57275 0
M  V30 262 C 22.1754 3.10804 -1.34857 0
M  V30 263 C 20.7344 3.59323 -1.1209 0
M  V30 264 C 19.8814 2.3635 -1.45031 0
M  V30 265 H 22.8324 1.04813 -1.19163 0
M  V30 266 H 22.8534 3.73186 -0.742437 0
M  V30 267 H 22.3654 3.029 -2.42638 0
M  V30 268 H 20.4664 3.7255 -0.0610337 0
M  V30 269 H 20.5794 4.4378 -1.80544 0
M  V30 270 H 18.9434 2.39399 -0.869487 0
M  V30 271 H 19.7264 2.31081 -2.53883 0
M  V30 272 N 22.1715 0.800033 1.35784 0
M  V30 273 C 23.1015 0.220184 2.3246 0
M  V30 274 C 24.0825 -0.65073 1.57161 0
M  V30 275 O 25.2675 -0.582359 1.85263 0
M  V30 276 C 22.3975 -0.637353 3.41402 0
M  V30 277 C 21.3515 0.134531 4.27789 0
M  V30 278 C 20.6775 -0.844285 5.27992 0
M  V30 279 C 21.9775 1.32979 5.05088 0
M  V30 280 H 23.6715 1.02787 2.81203 0
M  V30 281 H 21.2175 0.495717 1.35199 0
M  V30 282 H 23.1705 -1.05302 4.08031 0
M  V30 283 H 21.8945 -1.47785 2.91251 0
M  V30 284 H 20.5535 0.531296 3.6273 0
M  V30 285 H 20.2015 -1.68011 4.74111 0
M  V30 286 H 19.9015 -0.332184 5.8666 0
M  V30 287 H 21.4255 -1.2583 5.97494 0
M  V30 288 H 22.8395 0.98934 5.64699 0
M  V30 289 H 21.2365 1.77593 5.7322 0
M  V30 290 H 22.3065 2.11978 4.36111 0
M  V30 291 N 23.6496 -1.47581 0.552962 0
M  V30 292 C 24.5796 -2.32762 -0.185451 0
M  V30 293 C 25.5606 -1.43527 -0.912905 0
M  V30 294 O 26.7456 -1.72388 -0.894201 0
M  V30 295 C 23.8756 -3.25219 -1.21859 0
M  V30 296 C 22.8296 -4.23661 -0.607864 0
M  V30 297 C 22.1556 -5.05413 -1.74533 0
M  V30 298 C 23.4556 -5.20481 0.435582 0
M  V30 299 H 25.1496 -2.94749 0.525684 0
M  V30 300 H 22.6956 -1.41738 0.254251 0
M  V30 301 H 24.6486 -3.8365 -1.7433 0
M  V30 302 H 23.3726 -2.61279 -1.95961 0
M  V30 303 H 22.0316 -3.66451 -0.104489 0
M  V30 304 H 21.6796 -4.3788 -2.47529 0
M  V30 305 H 21.3796 -5.72059 -1.34249 0
M  V30 306 H 22.9036 -5.66701 -2.27338 0
M  V30 307 H 24.3176 -5.733 -0.00290157 0
M  V30 308 H 22.7146 -5.95305 0.757067 0
M  V30 309 H 23.7846 -4.66217 1.33303 0
M  V30 310 N 25.1277 -0.289203 -1.54924 0
M  V30 311 C 26.0577 0.58549 -2.2604 0
M  V30 312 C 27.0387 1.14753 -1.25562 0
M  V30 313 O 28.2237 1.17906 -1.54311 0
M  V30 314 C 25.3537 1.76305 -2.99222 0
M  V30 315 C 24.3077 1.33191 -4.06748 0
M  V30 316 C 23.6337 2.5937 -4.6758 0
M  V30 317 C 24.9337 0.471775 -5.20165 0
M  V30 318 H 26.6277 -0.00763532 -2.99399 0
M  V30 319 H 24.1737 -0.00511229 -1.43999 0
M  V30 320 H 26.1267 2.38097 -3.47689 0
M  V30 321 H 24.8507 2.38223 -2.23422 0
M  V30 322 H 23.5097 0.737121 -3.59113 0
M  V30 323 H 23.1577 3.19576 -3.88433 0
M  V30 324 H 22.8577 2.31228 -5.40192 0
M  V30 325 H 24.3817 3.21985 -5.18804 0
M  V30 326 H 25.7957 0.995056 -5.64599 0
M  V30 327 H 24.1927 0.284639 -5.99425 0
M  V30 328 H 25.2627 -0.506041 -4.82252 0
M  V30 329 N 26.6058 1.57591 -0.0167156 0
M  V30 330 C 28.0168 1.79201 0.523834 0
M  V30 331 C 28.3678 0.925796 1.72984 0
M  V30 332 O 27.4928 0.132792 2.15992 0
M  V30 333 C 28.0878 3.25 0.957091 0
M  V30 334 C 26.6468 3.47648 1.44283 0
M  V30 335 C 25.7938 2.74374 0.401757 0
M  V30 336 H 28.7448 1.56831 -0.242816 0
M  V30 337 H 28.7658 3.34031 1.82219 0
M  V30 338 H 28.2778 3.88019 0.0791415 0
M  V30 339 H 26.3788 2.89866 2.34113 0
M  V30 340 H 26.4918 4.56352 1.45877 0
M  V30 341 H 24.8558 2.39485 0.867121 0
M  V30 342 H 25.6388 3.40102 -0.467513 0
M  V30 343 N 28.0839 -0.256276 1.55502 0
M  V30 344 C 29.4949 -0.826068 1.67431 0
M  V30 345 C 29.8459 -1.86396 0.612446 0
M  V30 346 O 28.9709 -2.15031 -0.243025 0
M  V30 347 C 29.5659 -1.50512 3.03532 0
M  V30 348 C 28.1249 -2.02273 3.17431 0
M  V30 349 C 27.2719 -0.870548 2.63281 0
M  V30 350 H 30.2229 -0.0322728 1.58667 0
M  V30 351 H 30.2439 -2.37279 2.97454 0
M  V30 352 H 29.7559 -0.749484 3.80794 0
M  V30 353 H 27.8569 -2.80746 2.44974 0
M  V30 354 H 27.9699 -2.22655 4.24219 0
M  V30 355 H 26.3339 -1.26851 2.20864 0
M  V30 356 H 27.1169 -0.128149 3.43061 0
M  V30 357 N 29.562 -1.4872 -0.521534 0
M  V30 358 C 30.973 -1.50607 -1.10337 0
M  V30 359 C 31.324 -0.280612 -1.94183 0
M  V30 360 O 30.449 0.611507 -2.0758 0
M  V30 361 C 31.044 -2.72903 -2.00772 0
M  V30 362 C 29.603 -2.77634 -2.54158 0
M  V30 363 C 28.75 -2.44241 -1.31307 0
M  V30 364 H 31.701 -1.55714 -0.306388 0
M  V30 365 H 31.722 -2.519 -2.85178 0
M  V30 366 H 31.234 -3.62077 -1.39721 0
M  V30 367 H 29.335 -1.92689 -3.18907 0
M  V30 368 H 29.448 -3.79283 -2.92714 0
M  V30 369 H 27.812 -1.95577 -1.63161 0
M  V30 370 H 28.595 -3.35666 -0.719943 0
M  V30 371 N 31.0401 0.771051 -1.3745 0
M  V30 372 C 31.9701 1.89827 -1.3597 0
M  V30 373 C 32.9511 1.68562 -0.228216 0
M  V30 374 O 34.1361 1.8941 -0.428675 0
M  V30 375 C 31.2661 3.2712 -1.16662 0
M  V30 376 C 30.2201 3.6295 -2.2683 0
M  V30 377 C 29.5461 4.98791 -1.92644 0
M  V30 378 C 30.8461 3.69627 -3.69017 0
M  V30 379 H 32.5401 1.91323 -2.30295 0
M  V30 380 H 30.0861 0.919082 -1.10855 0
M  V30 381 H 32.0391 4.05615 -1.14256 0
M  V30 382 H 30.7631 3.26059 -0.187926 0
M  V30 383 H 29.4221 2.86763 -2.28392 0
M  V30 384 H 29.0701 4.94271 -0.933021 0
M  V30 385 H 28.7701 5.23733 -2.66416 0
M  V30 386 H 30.2941 5.79685 -1.91826 0
M  V30 387 H 31.7081 4.38273 -3.69581 0
M  V30 388 H 30.1051 4.06067 -4.41848 0
M  V30 389 H 31.1751 2.70273 -4.02592 0
M  V30 390 N 32.5182 1.22032 0.997298 0
M  V30 391 C 33.7642 1.05382 1.73972 0
M  V30 392 C 34.1192 -0.407419 1.88037 0
M  V30 393 O 33.4122 -1.29811 1.40924 0
M  V30 394 C 33.6062 1.69345 3.14733 0
M  V30 395 C 33.4352 3.21537 3.14395 0
M  V30 396 C 32.2052 3.9062 3.20537 0
M  V30 397 C 34.4032 4.18527 2.98897 0
M  V30 398 N 32.3852 5.29935 3.09906 0
M  V30 399 C 33.7562 5.44645 2.96247 0
M  V30 400 C 35.8112 4.09476 2.83255 0
M  V30 401 C 34.5142 6.62752 2.79557 0
M  V30 402 C 36.5402 5.27228 2.67926 0
M  V30 403 C 35.9022 6.52262 2.65959 0
M  V30 404 H 32.0012 0.440018 0.646458 0
M  V30 405 H 34.5852 1.54505 1.18475 0
M  V30 406 H 32.7562 1.22778 3.68484 0
M  V30 407 H 34.4882 1.45828 3.77513 0
M  V30 408 H 31.2432 3.41592 3.28043 0
M  V30 409 H 31.6672 6.02926 3.07912 0
M  V30 410 H 36.3092 3.13598 2.83577 0
M  V30 411 H 34.0272 7.58783 2.77982 0
M  V30 412 H 37.6132 5.22053 2.56812 0
M  V30 413 H 36.4932 7.41844 2.54239 0
M  V30 414 N 33.9963 -1.19345 1.0293 0
M  V30 415 C 35.2443 -1.88665 0.724574 0
M  V30 416 C 35.5653 -1.80036 -0.749144 0
M  V30 417 O 34.8353 -1.2111 -1.53978 0
M  V30 418 H 33.4153 -0.698406 0.265025 0
M  V30 419 H 36.0773 -1.44885 1.30362 0
M  V30 420 H 35.1733 -2.94987 1.01926 0
M  V30 421 N 35.4744 -0.807222 -1.35358 0
M  V30 422 C 36.7224 -0.387122 -1.98358 0
M  V30 423 C 37.0434 1.04942 -1.64354 0
M  V30 424 O 36.3134 1.72615 -0.926339 0
M  V30 425 H 34.8934 -0.140154 -0.733734 0
M  V30 426 H 37.5554 -1.0332 -1.6526 0
M  V30 427 H 36.6514 -0.493352 -3.08176 0
M  V30 428 N 36.9525 1.47285 -0.560781 0
M  V30 429 C 38.3635 1.86258 -0.128343 0
M  V30 430 C 38.7145 1.46699 1.30284 0
M  V30 431 O 37.8395 0.871698 1.98067 0
M  V30 432 C 38.4345 3.38044 -0.22614 0
M  V30 433 C 36.9935 3.76096 0.151283 0
M  V30 434 C 36.1405 2.71335 -0.572084 0
M  V30 435 H 39.0915 1.38752 -0.770297 0
M  V30 436 H 39.1125 3.76441 0.554322 0
M  V30 437 H 38.6245 3.66806 -1.26788 0
M  V30 438 H 36.7255 3.52951 1.19399 0
M  V30 439 H 36.8385 4.78641 -0.209765 0
M  V30 440 H 35.2025 2.54696 -0.0147653 0
M  V30 441 H 35.9855 3.02938 -1.61504 0
M  V30 442 N 38.4306 0.297415 1.54768 0
M  V30 443 C 39.8416 -0.195947 1.85669 0
M  V30 444 C 40.1926 -1.53707 1.21937 0
M  V30 445 O 39.3176 -2.10164 0.515754 0
M  V30 446 C 39.9126 -0.362318 3.36857 0
M  V30 447 C 38.4716 -0.799901 3.67802 0
M  V30 448 C 37.6186 0.0938578 2.77141 0
M  V30 449 H 40.5696 0.518538 1.4999 0
M  V30 450 H 40.5906 -1.19745 3.61167 0
M  V30 451 H 40.1026 0.613921 3.83214 0
M  V30 452 H 38.2036 -1.78682 3.26961 0
M  V30 453 H 38.3166 -0.621773 4.75048 0
M  V30 454 H 36.6806 -0.426254 2.51108 0
M  V30 455 H 37.4636 1.06639 3.26318 0
M  V30 456 N 39.9087 -1.5758 0.0250728 0
M  V30 457 C 41.1857 -1.82917 -0.692873 0
M  V30 458 C 41.5657 -0.908137 -1.90568 0
M  V30 459 O 40.9137 0.0372298 -2.2847 0
M  V30 460 C 41.1237 -3.32034 -1.07492 0
M  V30 461 C 42.4717 -3.98406 -1.46826 0
M  V30 462 O 43.4957 -3.36505 -1.16801 0
M  V30 463 O 42.3547 -5.07497 -2.02754 0
M  V30 464 H 39.4487 -0.754079 -0.33955 0
M  V30 465 H 41.9947 -1.69619 0.0524456 0
M  V30 466 H 40.7667 -3.90728 -0.211552 0
M  V30 467 H 40.3897 -3.50424 -1.87854 0
M  V30 468 N 41.3868 0.248026 -1.55636 0
M  V30 469 C 42.6118 0.998028 -1.81808 0
M  V30 470 C 43.0368 1.78207 -0.601979 0
M  V30 471 O 42.3948 1.75653 0.448961 0
M  V30 472 C 42.4428 1.9125 -3.05705 0
M  V30 473 O 41.5468 3.00406 -2.82542 0
M  V30 474 H 40.8878 0.284045 -0.600179 0
M  V30 475 H 43.4178 0.269357 -2.02819 0
M  V30 476 H 43.4278 2.32737 -3.35108 0
M  V30 477 H 42.1028 1.33602 -3.93857 0
M  V30 478 H 40.6798 2.63056 -2.64303 0
M  V30 479 N 42.8649 1.48995 0.513639 0
M  V30 480 C 44.2759 1.5119 1.09537 0
M  V30 481 C 44.6269 0.290906 1.94031 0
M  V30 482 O 43.7519 -0.60049 2.07902 0
M  V30 483 C 44.3469 2.73964 1.99322 0
M  V30 484 C 42.9059 2.78978 2.52682 0
M  V30 485 C 42.0529 2.44934 1.30009 0
M  V30 486 H 45.0039 1.55875 0.298125 0
M  V30 487 H 45.0249 2.53409 2.83838 0
M  V30 488 H 44.5369 3.62813 1.37799 0
M  V30 489 H 42.6379 1.94378 3.1788 0
M  V30 490 H 42.7509 3.8083 2.90698 0
M  V30 491 H 41.1149 1.9644 1.62122 0
M  V30 492 H 41.8979 3.36043 0.702131 0
M  V30 493 N 44.343 -0.763751 1.37857 0
M  V30 494 C 45.759 -1.06542 1.18832 0
M  V30 495 C 45.959 -2.01478 0.0299722 0
M  V30 496 O 45.015 -2.4458 -0.627447 0
M  V30 497 C 46.328 -1.65525 2.51042 0
M  V30 498 C 47.876 -1.77745 2.57635 0
M  V30 499 C 48.351 -2.4014 3.89996 0
M  V30 500 N 49.842 -2.47582 3.91481 0
M  V30 501 C 50.577 -2.96732 4.9065 0
M  V30 502 N 50.073 -3.45993 6.00217 0
M  V30 503 N 51.866 -2.95679 4.78048 0
M  V30 504 H 44.017 -0.133556 2.1198 0
M  V30 505 H 46.28 -0.121879 0.940133 0
M  V30 506 H 45.986 -1.03236 3.36207 0
M  V30 507 H 45.86 -2.64719 2.68707 0
M  V30 508 H 48.247 -2.39164 1.72872 0
M  V30 509 H 48.328 -0.772836 2.43846 0
M  V30 510 H 47.972 -1.79358 4.75177 0
M  V30 511 H 47.902 -3.41223 4.01092 0
M  V30 512 H 50.393 -2.1273 3.12337 0
M  V30 513 H 50.706 -3.81922 6.7183 0
M  V30 514 H 49.051 -3.44077 6.03851 0
M  V30 515 H 52.242 -2.56499 3.91568 0
M  V30 516 H 52.415 -3.33672 5.55488 0
M  V30 517 N 45.8211 -1.22559 -0.990812 0
M  V30 518 C 47.2371 -0.985996 -1.255 0
M  V30 519 C 47.4371 0.319173 -1.98956 0
M  V30 520 O 46.4931 1.04127 -2.3003 0
M  V30 521 C 47.8061 -2.18607 -2.06474 0
M  V30 522 C 49.3541 -2.22985 -2.19651 0
M  V30 523 C 49.8291 -3.4255 -3.04012 0
M  V30 524 N 51.3201 -3.42725 -3.11599 0
M  V30 525 C 52.0551 -4.31892 -3.7717 0
M  V30 526 N 51.5511 -5.31279 -4.44651 0
M  V30 527 N 53.3441 -4.19662 -3.73952 0
M  V30 528 H 45.4951 -2.06469 -0.49841 0
M  V30 529 H 47.7581 -0.904853 -0.282747 0
M  V30 530 H 47.4641 -3.13267 -1.59865 0
M  V30 531 H 47.3381 -2.18838 -3.07229 0
M  V30 532 H 49.7251 -1.28871 -2.65474 0
M  V30 533 H 49.8061 -2.26791 -1.18319 0
M  V30 534 H 49.4501 -4.36965 -2.58889 0
M  V30 535 H 49.3801 -3.35984 -4.0549 0
M  V30 536 H 51.8711 -2.70807 -2.63575 0
M  V30 537 H 52.1841 -5.95593 -4.92431 0
M  V30 538 H 50.5291 -5.3519 -4.43392 0
M  V30 539 H 53.7201 -3.41268 -3.20396 0
M  V30 540 H 53.8931 -4.89358 -4.24774 0
M  V30 541 N 47.2992 1.18797 -1.03562 0
M  V30 542 C 48.2092 2.25913 -0.632505 0
M  V30 543 C 49.2252 1.70668 0.338882 0
M  V30 544 O 50.4012 2.00453 0.195076 0
M  V30 545 C 47.4662 3.467 0.00350942 0
M  V30 546 C 46.5272 4.17098 -1.01624 0
M  V30 547 C 45.7602 5.32119 -0.410478 0
M  V30 548 O 45.9832 5.64976 0.784725 0
M  V30 549 O 44.9172 5.9107 -1.13667 0
M  V30 550 H 48.7432 2.62648 -1.52478 0
M  V30 551 H 46.3282 1.25781 -0.806195 0
M  V30 552 H 48.2102 4.19878 0.35781 0
M  V30 553 H 46.8852 3.11798 0.869686 0
M  V30 554 H 45.7922 3.4601 -1.42224 0
M  V30 555 H 47.1252 4.55987 -1.85301 0
M  V30 556 N 48.7773 0.814389 1.34928 0
M  V30 557 C 49.7073 0.244827 2.32213 0
M  V30 558 C 50.6883 -0.634024 1.57842 0
M  V30 559 O 51.8733 -0.562676 1.8587 0
M  V30 560 C 49.0033 -0.601106 3.42058 0
M  V30 561 C 47.9573 0.179896 4.27622 0
M  V30 562 C 47.2833 -0.788237 5.28858 0
M  V30 563 C 48.5833 1.38329 5.03649 0
M  V30 564 H 50.2773 1.05763 2.80097 0
M  V30 565 H 47.8233 0.510029 1.34665 0
M  V30 566 H 49.7763 -1.00968 4.09125 0
M  V30 567 H 48.5003 -1.44688 2.92802 0
M  V30 568 H 47.1593 0.569739 3.62146 0
M  V30 569 H 46.8073 -1.62973 4.75866 0
M  V30 570 H 46.5073 -0.269942 5.8698 0
M  V30 571 H 48.0313 -1.19485 5.98795 0
M  V30 572 H 49.4453 1.04918 5.63618 0
M  V30 573 H 47.8423 1.83662 5.71304 0
M  V30 574 H 48.9123 2.16592 4.33839 0
M  V30 575 N 50.2554 -1.46986 0.568584 0
M  V30 576 C 51.1654 -2.33942 -0.17555 0
M  V30 577 C 52.1814 -1.48891 -0.90041 0
M  V30 578 O 53.3574 -1.81794 -0.86676 0
M  V30 579 C 50.4224 -3.25811 -1.18524 0
M  V30 580 C 49.4834 -4.26757 -0.466582 0
M  V30 581 C 48.7164 -5.14236 -1.42817 0
M  V30 582 O 48.9394 -5.04379 -2.66379 0
M  V30 583 O 47.8734 -5.94412 -0.946453 0
M  V30 584 H 51.6994 -2.98896 0.538036 0
M  V30 585 H 49.2844 -1.4573 0.329097 0
M  V30 586 H 51.1664 -3.82527 -1.76779 0
M  V30 587 H 49.8414 -2.63471 -1.88055 0
M  V30 588 H 48.7484 -3.73769 0.157451 0
M  V30 589 H 50.0814 -4.91843 0.187485 0
M  V30 590 N 51.7335 -0.305618 -1.54608 0
M  V30 591 C 52.6635 0.561482 -2.26649 0
M  V30 592 C 53.6445 1.13415 -1.26772 0
M  V30 593 O 54.8295 1.16262 -1.55553 0
M  V30 594 C 51.9595 1.73122 -3.01075 0
M  V30 595 C 50.9135 1.2887 -4.08138 0
M  V30 596 C 50.2395 2.54396 -4.70305 0
M  V30 597 C 51.5395 0.416578 -5.20636 0
M  V30 598 H 53.2335 -0.0393902 -2.99374 0
M  V30 599 H 50.7795 -0.020385 -1.43986 0
M  V30 600 H 52.7325 2.34396 -3.50195 0
M  V30 601 H 51.4565 2.3584 -2.25936 0
M  V30 602 H 50.1155 0.698991 -3.59875 0
M  V30 603 H 49.7635 3.15439 -3.918 0
M  V30 604 H 49.4635 2.25486 -5.42614 0
M  V30 605 H 50.9875 3.16464 -5.2219 0
M  V30 606 H 52.4015 0.935116 -5.65622 0
M  V30 607 H 50.7985 0.221046 -5.99693 0
M  V30 608 H 51.8685 -0.557162 -4.81688 0
M  V30 609 N 53.2116 1.57565 -0.0334293 0
M  V30 610 C 54.1216 2.13943 0.962572 0
M  V30 611 C 55.1376 1.09276 1.35406 0
M  V30 612 O 56.3136 1.41355 1.4346 0
M  V30 613 C 53.3786 2.65887 2.22497 0
M  V30 614 C 52.4396 3.85286 1.8935 0
M  V30 615 C 51.6726 4.34743 3.09571 0
M  V30 616 O 51.8956 3.83352 4.22371 0
M  V30 617 O 50.8296 5.26538 2.91618 0
M  V30 618 H 54.6556 2.99333 0.513169 0
M  V30 619 H 52.2406 1.4822 0.18743 0
M  V30 620 H 54.1226 2.99346 2.96598 0
M  V30 621 H 52.7976 1.83578 2.6661 0
M  V30 622 H 51.7046 3.56746 1.1262 0
M  V30 623 H 53.0376 4.68771 1.5005 0
M  V30 624 N 54.6897 -0.239769 1.55765 0
M  V30 625 C 56.1007 -0.808263 1.68297 0
M  V30 626 C 56.4517 -1.85736 0.632181 0
M  V30 627 O 55.5767 -2.15277 -0.220204 0
M  V30 628 C 56.1717 -1.47284 3.05111 0
M  V30 629 C 54.7307 -1.98895 3.19559 0
M  V30 630 C 53.8777 -0.842575 2.64189 0
M  V30 631 H 56.8287 -0.0154422 1.58692 0
M  V30 632 H 56.8497 -2.34111 2.99954 0
M  V30 633 H 56.3617 -0.709053 3.81568 0
M  V30 634 H 54.4627 -2.78132 2.47938 0
M  V30 635 H 54.5757 -2.18143 4.26556 0
M  V30 636 H 52.9397 -1.24501 2.22197 0
M  V30 637 H 53.7227 -0.0917552 3.43177 0
M  V30 638 N 56.1678 -1.49265 -0.50573 0
M  V30 639 C 57.4158 -1.582 -1.25766 0
M  V30 640 C 57.7368 -0.268482 -1.93143 0
M  V30 641 O 57.0068 0.711833 -1.8251 0
M  V30 642 H 55.5868 -0.582873 -0.467191 0
M  V30 643 H 58.2488 -1.85865 -0.586525 0
M  V30 644 H 57.3448 -2.37563 -2.02412 0
M  V30 645 N 57.6459 0.756429 -1.3826 0
M  V30 646 C 59.0569 1.33359 -1.30661 0
M  V30 647 C 59.4079 1.96161 0.0388875 0
M  V30 648 O 58.5329 1.94874 0.940918 0
M  V30 649 C 59.1279 2.42477 -2.36622 0
M  V30 650 C 57.6869 2.95922 -2.3261 0
M  V30 651 C 56.8339 1.69275 -2.19639 0
M  V30 652 H 59.7849 0.55552 -1.4866 0
M  V30 653 H 59.8059 3.22345 -2.02174 0
M  V30 654 H 59.3179 1.96739 -3.34538 0
M  V30 655 H 57.4189 3.45996 -1.38267 0
M  V30 656 H 57.5319 3.50494 -3.26636 0
M  V30 657 H 55.8959 1.92793 -1.66442 0
M  V30 658 H 56.6789 1.25619 -3.19491 0
M  V30 659 N 59.124 1.23083 0.984299 0
M  V30 660 C 60.054 1.03292 2.09411 0
M  V30 661 C 61.035 -0.048923 1.7003 0
M  V30 662 O 62.22 0.114967 1.93859 0
M  V30 663 C 59.35 0.619155 3.41736 0
M  V30 664 C 58.304 1.64791 3.95004 0
M  V30 665 C 57.63 1.0897 5.23478 0
M  V30 666 C 58.93 3.03999 4.24714 0
M  V30 667 H 60.624 1.96119 2.26225 0
M  V30 668 H 58.17 0.944344 1.08711 0
M  V30 669 H 60.123 0.467777 4.18796 0
M  V30 670 H 58.847 -0.344786 3.24775 0
M  V30 671 H 57.506 1.78721 3.20085 0
M  V30 672 H 57.154 0.11686 5.02864 0
M  V30 673 H 56.854 1.77704 5.60085 0
M  V30 674 H 58.378 0.950093 6.03163 0
M  V30 675 H 59.792 2.93393 4.92538 0
M  V30 676 H 58.189 3.69936 4.72512 0
M  V30 677 H 59.259 3.53285 3.32142 0
M  V30 678 N 60.6021 -1.18246 1.0419 0
M  V30 679 C 61.5341 -2.2142 0.592088 0
M  V30 680 C 62.5471 -1.59233 -0.338909 0
M  V30 681 O 63.7361 -1.78002 -0.133231 0
M  V30 682 C 60.8361 -3.38546 -0.154854 0
M  V30 683 C 60.0091 -4.3031 0.784328 0
M  V30 684 C 59.0681 -5.26138 0.0804583 0
M  V30 685 O 58.0941 -5.64738 0.711292 0
M  V30 686 N 59.2961 -5.68261 -1.18574 0
M  V30 687 H 62.0611 -2.60636 1.47949 0
M  V30 688 H 59.6221 -1.33044 0.922544 0
M  V30 689 H 61.6141 -3.99678 -0.635606 0
M  V30 690 H 60.1841 -2.98012 -0.943811 0
M  V30 691 H 59.4041 -3.66764 1.44491 0
M  V30 692 H 60.6921 -4.8852 1.42218 0
M  V30 693 H 60.0901 -5.38957 -1.71876 0
M  V30 694 H 58.6471 -6.31584 -1.61074 0
M  V30 695 N 62.0802 -0.821533 -1.34494 0
M  V30 696 C 63.4912 -0.467956 -1.8074 0
M  V30 697 C 63.8422 1.01151 -1.68116 0
M  V30 698 O 62.9672 1.78707 -1.22036 0
M  V30 699 C 63.5622 -0.842627 -3.28154 0
M  V30 700 C 62.1212 -0.541439 -3.72485 0
M  V30 701 C 61.2682 -1.06028 -2.56229 0
M  V30 702 H 64.2192 -1.01183 -1.22261 0
M  V30 703 H 64.2402 -0.145876 -3.8022 0
M  V30 704 H 63.7522 -1.91945 -3.37311 0
M  V30 705 H 61.8532 0.526034 -3.68868 0
M  V30 706 H 61.9662 -1.08453 -4.66663 0
M  V30 707 H 60.3302 -0.481892 -2.501 0
M  V30 708 H 61.1132 -2.14352 -2.68157 0
M  V30 709 N 63.5583 1.46682 -0.576371 0
M  V30 710 C 64.8053 2.02412 -0.0595339 0
M  V30 711 C 65.1333 1.44859 1.29793 0
M  V30 712 O 64.3883 0.601099 1.8624 0
M  V30 713 C 64.6873 3.57345 0.062886 0
M  V30 714 C 64.3533 4.33908 -1.22616 0
M  V30 715 C 63.0153 4.54544 -1.57933 0
M  V30 716 C 65.3673 4.77919 -2.07948 0
M  V30 717 C 62.6953 5.16444 -2.78393 0
M  V30 718 C 65.0473 5.41149 -3.27629 0
M  V30 719 C 63.7113 5.60014 -3.63236 0
M  V30 720 H 62.9813 0.74068 -0.021785 0
M  V30 721 H 65.6283 1.76128 -0.751735 0
M  V30 722 H 63.9333 3.82729 0.838178 0
M  V30 723 H 65.6303 3.98136 0.478439 0
M  V30 724 H 62.2203 4.18138 -0.941202 0
M  V30 725 H 66.4043 4.61738 -1.81967 0
M  V30 726 H 61.6603 5.29242 -3.06126 0
M  V30 727 H 65.8343 5.74211 -3.94023 0
M  V30 728 H 63.4613 6.07748 -4.56669 0
M  V30 729 N 65.0364 0.313813 1.54444 0
M  V30 730 C 66.3134 -0.345447 1.92525 0
M  V30 731 C 66.6934 -1.70667 1.24242 0
M  V30 732 O 66.0414 -2.25273 0.382654 0
M  V30 733 C 66.2514 -0.44737 3.46121 0
M  V30 734 C 67.5994 -0.712238 4.18584 0
M  V30 735 O 68.6234 -0.530678 3.52225 0
M  V30 736 O 67.4824 -1.06183 5.36085 0
M  V30 737 H 64.5764 -0.195407 0.803583 0
M  V30 738 H 67.1224 0.362813 1.65776 0
M  V30 739 H 65.8944 0.509043 3.87975 0
M  V30 740 H 65.5174 -1.20359 3.78945 0
M  V30 741 N 66.5145 -1.57545 0.0417849 0
M  V30 742 C 67.4445 -2.14009 -0.933929 0
M  V30 743 C 68.4255 -1.05938 -1.33083 0
M  V30 744 O 69.6105 -1.33833 -1.40721 0
M  V30 745 C 66.7405 -2.67747 -2.21199 0
M  V30 746 C 65.6945 -3.80718 -1.95544 0
M  V30 747 C 65.0205 -4.20935 -3.29724 0
M  V30 748 C 66.3205 -5.06258 -1.28452 0
M  V30 749 H 68.0145 -2.95788 -0.463645 0
M  V30 750 H 65.5605 -1.42285 -0.221573 0
M  V30 751 H 67.5135 -3.05886 -2.89848 0
M  V30 752 H 66.2375 -1.83147 -2.70416 0
M  V30 753 H 64.8965 -3.43037 -1.2931 0
M  V30 754 H 64.5445 -3.33298 -3.76724 0
M  V30 755 H 64.2445 -4.9707 -3.13361 0
M  V30 756 H 65.7685 -4.61666 -3.9962 0
M  V30 757 H 67.1825 -5.41903 -1.8712 0
M  V30 758 H 65.5795 -5.87475 -1.22445 0
M  V30 759 H 66.6495 -4.84207 -0.259219 0
M  V30 760 N 67.9926 0.231505 -1.5589 0
M  V30 761 C 68.9226 1.29022 -1.94617 0
M  V30 762 C 69.9036 1.4941 -0.813067 0
M  V30 763 O 71.0886 1.6176 -1.07459 0
M  V30 764 C 68.2186 2.64199 -2.25424 0
M  V30 765 C 67.1726 2.58484 -3.41131 0
M  V30 766 C 66.4986 3.97599 -3.57518 0
M  V30 767 C 67.7986 2.1413 -4.76388 0
M  V30 768 H 69.4926 0.968563 -2.83301 0
M  V30 769 H 67.0386 0.464479 -1.36303 0
M  V30 770 H 68.9916 3.38413 -2.51107 0
M  V30 771 H 67.7156 2.98032 -1.33583 0
M  V30 772 H 66.3746 1.86727 -3.15481 0
M  V30 773 H 66.0226 4.28723 -2.6307 0
M  V30 774 H 65.7226 3.94659 -4.35337 0
M  V30 775 H 67.2466 4.7349 -3.85538 0
M  V30 776 H 68.6606 2.78083 -5.01341 0
M  V30 777 H 67.0576 2.2227 -5.57419 0
M  V30 778 H 68.1276 1.09331 -4.72414 0
M  V30 779 N 69.4707 1.49531 0.497807 0
M  V30 780 C 70.7007 1.62657 1.27382 0
M  V30 781 C 71.1087 0.298488 1.86831 0
M  V30 782 O 70.4517 -0.72647 1.68725 0
M  V30 783 C 70.5137 2.6393 2.44093 0
M  V30 784 C 70.1777 4.08195 2.05489 0
M  V30 785 C 71.1747 4.949 1.59279 0
M  V30 786 C 68.8597 4.53948 2.15026 0
M  V30 787 C 70.8537 6.25397 1.23113 0
M  V30 788 C 68.5407 5.84458 1.78473 0
M  V30 789 C 69.5387 6.70006 1.32591 0
M  V30 790 O 69.2267 7.98083 0.965327 0
M  V30 791 H 68.9587 0.550429 0.392434 0
M  V30 792 H 71.5127 1.96325 0.603801 0
M  V30 793 H 69.7427 2.25449 3.14181 0
M  V30 794 H 71.4317 2.66552 3.06113 0
M  V30 795 H 72.1977 4.60779 1.51354 0
M  V30 796 H 68.0767 3.87525 2.4969 0
M  V30 797 H 71.6207 6.92125 0.872299 0
M  V30 798 H 67.5177 6.18107 1.86048 0
M  V30 799 H 68.2857 8.11122 1.09652 0
M  V30 800 N 70.9488 -0.749086 1.3866 0
M  V30 801 C 71.9118 -1.84457 1.36045 0
M  V30 802 C 72.9118 -1.58682 0.260122 0
M  V30 803 O 74.1018 -1.66343 0.517261 0
M  V30 804 C 71.2338 -3.22008 1.11911 0
M  V30 805 H 72.4268 -1.88182 2.33512 0
M  V30 806 H 69.9798 -0.951266 1.24019 0
M  V30 807 H 70.7148 -3.2395 0.150686 0
M  V30 808 H 70.4998 -3.42111 1.91579 0
M  V30 809 H 71.9898 -4.0208 1.12788 0
M  V30 810 N 72.4269 -1.23603 -0.977757 0
M  V30 811 C 73.6519 -1.09735 -1.75991 0
M  V30 812 C 74.0769 0.346858 -1.84874 0
M  V30 813 O 73.4349 1.25093 -1.3123 0
M  V30 814 C 73.4829 -1.73051 -3.16363 0
M  V30 815 O 72.5869 -0.994452 -4.0023 0
M  V30 816 H 71.9279 -0.384476 -0.541364 0
M  V30 817 H 74.4579 -1.6371 -1.2272 0
M  V30 818 H 74.4679 -1.78398 -3.66931 0
M  V30 819 H 73.1429 -2.78137 -3.09213 0
M  V30 820 H 71.7199 -1.01812 -3.58732 0
M  V30 821 N 73.905 1.17692 -1.04816 0
M  V30 822 C 75.153 1.87488 -0.754497 0
M  V30 823 C 75.474 1.81205 0.720407 0
M  V30 824 O 74.744 1.23544 1.52032 0
M  V30 825 H 73.324 0.694101 -0.276102 0
M  V30 826 H 75.986 1.42793 -1.32651 0
M  V30 827 H 75.082 2.93328 -1.06606 0
M  V30 828 N 75.3831 0.828654 1.34056 0
M  V30 829 C 76.3461 0.259927 2.27721 0
M  V30 830 C 77.3461 -0.565478 1.50529 0
M  V30 831 O 78.5361 -0.38075 1.69988 0
M  V30 832 C 75.6681 -0.634944 3.34935 0
M  V30 833 H 76.8611 1.0863 2.79534 0
M  V30 834 H 74.4141 0.600951 1.44285 0
M  V30 835 H 75.1491 -1.48416 2.88346 0
M  V30 836 H 74.9341 -0.0444999 3.92075 0
M  V30 837 H 76.4241 -1.02648 4.04788 0
M  V30 838 N 76.8612 -1.46375 0.584142 0
M  V30 839 C 77.8242 -2.28784 -0.138108 0
M  V30 840 C 78.8242 -1.38471 -0.817462 0
M  V30 841 O 80.0142 -1.60833 -0.669199 0
M  V30 842 C 77.1462 -3.18892 -1.20503 0
M  V30 843 H 78.3392 -2.94117 0.586127 0
M  V30 844 H 75.8922 -1.52509 0.342171 0
M  V30 845 H 76.6272 -2.58309 -1.96079 0
M  V30 846 H 76.4122 -3.85388 -0.722384 0
M  V30 847 H 77.9022 -3.80914 -1.71155 0
M  V30 848 N 78.3393 -0.321999 -1.54275 0
M  V30 849 C 79.3023 0.531975 -2.22941 0
M  V30 850 C 80.3023 1.04478 -1.22234 0
M  V30 851 O 81.4923 0.937452 -1.46825 0
M  V30 852 C 78.6243 1.73874 -2.93224 0
M  V30 853 H 79.8173 -0.0682612 -2.99822 0
M  V30 854 H 77.3703 -0.0730644 -1.56129 0
M  V30 855 H 78.1053 2.37825 -2.20476 0
M  V30 856 H 77.8903 1.37847 -3.6707 0
M  V30 857 H 79.3803 2.34496 -3.45545 0
M  V30 858 N 79.8174 1.5752 -0.0501392 0
M  V30 859 C 81.0474 1.96678 0.632573 0
M  V30 860 C 81.4554 0.926298 1.64974 0
M  V30 861 O 80.7984 -0.09802 1.83438 0
M  V30 862 C 80.8604 3.32068 1.37735 0
M  V30 863 C 80.5244 4.54076 0.516131 0
M  V30 864 C 81.5214 5.19445 -0.217357 0
M  V30 865 C 79.2064 5.00304 0.44736 0
M  V30 866 C 81.2004 6.29378 -1.00807 0
M  V30 867 C 78.8874 6.10114 -0.347038 0
M  V30 868 C 79.8854 6.74512 -1.07344 0
M  V30 869 O 79.5734 7.82211 -1.85477 0
M  V30 870 H 79.3054 0.652193 0.177821 0
M  V30 871 H 81.8594 2.05091 -0.112543 0
M  V30 872 H 80.0894 3.20206 2.16807 0
M  V30 873 H 81.7784 3.55981 1.95019 0
M  V30 874 H 82.5444 4.84689 -0.173688 0
M  V30 875 H 78.4234 4.49971 1.00235 0
M  V30 876 H 81.9674 6.79575 -1.57556 0
M  V30 877 H 77.8644 6.44307 -0.392349 0
M  V30 878 H 78.6324 7.98982 -1.77678 0
M  V30 879 N 81.2955 -0.223234 1.56011 0
M  V30 880 C 82.5255 -0.963413 1.82762 0
M  V30 881 C 82.9335 -1.78516 0.626804 0
M  V30 882 O 82.2765 -1.78974 -0.414014 0
M  V30 883 C 82.3385 -1.93126 3.0322 0
M  V30 884 C 82.0025 -1.2942 4.38291 0
M  V30 885 C 82.9995 -0.684916 5.15369 0
M  V30 886 C 80.6845 -1.30647 4.85012 0
M  V30 887 C 82.6785 -0.0963971 6.37327 0
M  V30 888 C 80.3655 -0.71411 6.06913 0
M  V30 889 C 81.3635 -0.110123 6.82911 0
M  V30 890 O 81.0515 0.47303 8.02507 0
M  V30 891 H 80.7835 -0.288011 0.611576 0
M  V30 892 H 83.3375 -0.244103 2.03944 0
M  V30 893 H 81.5675 -2.68952 2.77852 0
M  V30 894 H 83.2565 -2.53685 3.16857 0
M  V30 895 H 84.0225 -0.667774 4.80381 0
M  V30 896 H 79.9015 -1.76598 4.25833 0
M  V30 897 H 83.4455 0.375657 6.96588 0
M  V30 898 H 79.3425 -0.728659 6.41374 0
M  V30 899 H 80.1105 0.367186 8.17676 0
M  V30 900 N 82.7736 -1.49793 -0.48987 0
M  V30 901 C 83.9986 -1.63836 -1.27172 0
M  V30 902 C 84.4236 -0.31402 -1.8546 0
M  V30 903 O 83.7816 0.719803 -1.66399 0
M  V30 904 C 83.8296 -2.71797 -2.36978 0
M  V30 905 O 82.9336 -2.31744 -3.41128 0
M  V30 906 H 82.2746 -0.547997 -0.37496 0
M  V30 907 H 84.8046 -1.96053 -0.585191 0
M  V30 908 H 84.8146 -2.94305 -2.82575 0
M  V30 909 H 83.4896 -3.67923 -1.93921 0
M  V30 910 H 82.0666 -2.1961 -3.01373 0
M  V30 911 N 84.2517 0.741722 -1.39055 0
M  V30 912 C 85.4997 1.49818 -1.35643 0
M  V30 913 C 85.8207 1.94938 0.0491642 0
M  V30 914 O 85.0907 1.68505 0.999141 0
M  V30 915 H 83.6707 0.555755 -0.499144 0
M  V30 916 H 86.3327 0.880957 -1.73854 0
M  V30 917 H 85.4287 2.38348 -2.01486 0
M  V30 918 N 85.7298 1.2412 0.971189 0
M  V30 919 C 87.0068 0.986867 1.6888 0
M  V30 920 C 87.3868 -0.491857 2.0529 0
M  V30 921 O 86.7348 -1.46531 1.75331 0
M  V30 922 C 86.9448 1.9063 2.92338 0
M  V30 923 C 88.2928 2.17515 3.64654 0
M  V30 924 O 89.3168 1.88254 3.02388 0
M  V30 925 O 88.1758 2.6719 4.7673 0
M  V30 926 H 85.2698 0.372944 0.738134 0
M  V30 927 H 87.8158 1.35203 1.02559 0
M  V30 928 H 86.5878 2.90552 2.62097 0
M  V30 929 H 86.2108 1.54408 3.66393 0
M  V30 930 N 87.2079 -1.17134 1.05439 0
M  V30 931 C 88.4379 -1.91094 0.785274 0
M  V30 932 C 88.8459 -1.77198 -0.663142 0
M  V30 933 O 88.1889 -1.10835 -1.46497 0
M  V30 934 C 88.2509 -3.42594 1.08949 0
M  V30 935 C 87.9149 -3.80274 2.53458 0
M  V30 936 C 88.9119 -3.82912 3.51673 0
M  V30 937 C 86.5969 -4.11162 2.88532 0
M  V30 938 C 88.5909 -4.15913 4.83006 0
M  V30 939 C 86.2779 -4.43831 4.20068 0
M  V30 940 C 87.2759 -4.46185 5.17115 0
M  V30 941 O 86.9639 -4.78083 6.46291 0
M  V30 942 H 86.6959 -0.613073 0.284811 0
M  V30 943 H 89.2499 -1.49461 1.40893 0
M  V30 944 H 87.4799 -3.84534 0.408741 0
M  V30 945 H 89.1689 -3.97817 0.805991 0
M  V30 946 H 89.9349 -3.5917 3.25917 0
M  V30 947 H 85.8139 -4.085 2.13656 0
M  V30 948 H 89.3579 -4.17665 5.5875 0
M  V30 949 H 85.2549 -4.67037 4.45586 0
M  V30 950 H 86.0229 -4.9593 6.51149 0
M  V30 951 N 88.686 -0.835752 -1.33615 0
M  V30 952 C 89.596 -0.269088 -2.33052 0
M  V30 953 C 90.612 0.603251 -1.63208 0
M  V30 954 O 91.788 0.508112 -1.94885 0
M  V30 955 C 88.853 0.549091 -3.42324 0
M  V30 956 C 87.914 -0.347156 -4.27894 0
M  V30 957 C 87.147 0.43207 -5.31948 0
M  V30 958 O 87.37 1.66409 -5.45586 0
M  V30 959 O 86.304 -0.192298 -6.01593 0
M  V30 960 H 90.13 -1.09243 -2.83372 0
M  V30 961 H 87.715 -0.598198 -1.36901 0
M  V30 962 H 89.597 1.01414 -4.09015 0
M  V30 963 H 88.272 1.34955 -2.94226 0
M  V30 964 H 87.179 -0.859979 -3.64081 0
M  V30 965 H 88.512 -1.1123 -4.79467 0
M  V30 966 N 90.1641 1.46063 -0.591896 0
M  V30 967 C 91.5801 1.57561 -0.254288 0
M  V30 968 C 91.7801 1.58565 1.24336 0
M  V30 969 O 90.8361 1.50753 2.02558 0
M  V30 970 C 92.1491 2.86549 -0.911611 0
M  V30 971 C 93.6971 3.00197 -0.886059 0
M  V30 972 C 94.1721 4.31933 -1.5231 0
M  V30 973 N 95.6631 4.38654 -1.48786 0
M  V30 974 C 96.3981 5.39222 -1.95006 0
M  V30 975 N 95.8941 6.46414 -2.49241 0
M  V30 976 N 97.6871 5.3048 -1.85868 0
M  V30 977 H 89.8381 1.43655 -1.56451 0
M  V30 978 H 92.1011 0.68583 -0.654478 0
M  V30 979 H 91.8071 2.91651 -1.96551 0
M  V30 980 H 91.6811 3.74794 -0.425368 0
M  V30 981 H 94.0681 2.9467 0.159246 0
M  V30 982 H 94.1491 2.13403 -1.41041 0
M  V30 983 H 93.7931 4.38217 -2.56765 0
M  V30 984 H 93.7231 5.17516 -0.973891 0
M  V30 985 H 96.2141 3.61793 -1.09151 0
M  V30 986 H 96.5271 7.19376 -2.82344 0
M  V30 987 H 94.8721 6.47208 -2.53272 0
M  V30 988 H 98.0631 4.45643 -1.43248 0
M  V30 989 H 98.2361 6.08711 -2.22204 0
M  V30 990 N 91.6422 0.330177 1.54103 0
M  V30 991 C 92.6052 -0.520144 2.2322 0
M  V30 992 C 93.6052 -1.03828 1.22786 0
M  V30 993 O 94.7952 -0.929652 1.4732 0
M  V30 994 C 91.9272 -1.72317 2.94142 0
M  V30 995 H 93.1202 0.0841605 2.99782 0
M  V30 996 H 90.6732 0.0813433 1.56088 0
M  V30 997 H 91.4082 -2.36653 2.21734 0
M  V30 998 H 91.1932 -1.35898 3.67796 0
M  V30 999 H 92.6832 -2.3266 3.46784 0
M  V30 1000 N 93.1203 -1.57491 0.0584922 0
M  V30 1001 C 94.3663 -1.93264 -0.614558 0
M  V30 1002 C 94.6993 -0.937717 -1.7006 0
M  V30 1003 O 93.9743 0.0351652 -1.94468 0
M  V30 1004 C 94.2573 -3.3938 -1.20386 0
M  V30 1005 C 94.1103 -4.49625 -0.125375 0
M  V30 1006 C 95.4293 -3.86039 -2.11334 0
M  V30 1007 H 92.5483 -0.702791 -0.221933 0
M  V30 1008 H 95.1903 -1.8961 0.12175 0
M  V30 1009 H 93.3403 -3.42626 -1.83139 0
M  V30 1010 H 95.0123 -4.58506 0.506971 0
M  V30 1011 H 93.2553 -4.30354 0.545672 0
M  V30 1012 H 93.9263 -5.48967 -0.577861 0
M  V30 1013 H 96.4023 -3.84716 -1.58534 0
M  V30 1014 H 95.2783 -4.88914 -2.49507 0
M  V30 1015 H 95.5393 -3.23215 -3.01636 0
M  V30 1016 N 94.5984 0.214957 -1.56127 0
M  V30 1017 C 96.0144 0.564948 -1.49267 0
M  V30 1018 C 96.2144 1.86827 -0.754838 0
M  V30 1019 O 95.2704 2.50745 -0.297198 0
M  V30 1020 C 96.5834 0.638071 -2.93852 0
M  V30 1021 C 98.1314 0.728253 -3.0441 0
M  V30 1022 C 98.6064 0.832663 -4.50367 0
M  V30 1023 N 100.097 0.896712 -4.54437 0
M  V30 1024 C 100.832 0.997324 -5.6466 0
M  V30 1025 N 100.328 1.06147 -6.8462 0
M  V30 1026 N 102.121 1.03297 -5.52527 0
M  V30 1027 H 94.2724 -0.640211 -2.02522 0
M  V30 1028 H 96.5354 -0.225507 -0.920788 0
M  V30 1029 H 96.2414 -0.250126 -3.50809 0
M  V30 1030 H 96.1154 1.49947 -3.46115 0
M  V30 1031 H 98.5024 1.60689 -2.47514 0
M  V30 1032 H 98.5834 -0.158952 -2.55306 0
M  V30 1033 H 98.2274 -0.0415417 -5.07883 0
M  V30 1034 H 98.1574 1.73538 -4.97184 0
M  V30 1035 H 100.648 0.857188 -3.6805 0
M  V30 1036 H 100.961 1.1382 -7.64372 0
M  V30 1037 H 99.3064 1.03049 -6.87318 0
M  V30 1038 H 102.497 0.979558 -4.57736 0
M  V30 1039 H 102.67 1.10793 -6.38458 0
M  V30 1040 N 96.0765 1.50051 0.48192 0
M  V30 1041 C 97.3535 1.51009 1.2432 0
M  V30 1042 C 97.7335 0.248587 2.09631 0
M  V30 1043 O 97.0815 -0.768409 2.15192 0
M  V30 1044 C 97.2915 2.79981 2.08355 0
M  V30 1045 C 98.6395 3.3022 2.66908 0
M  V30 1046 O 99.6635 2.81228 2.18607 0
M  V30 1047 O 98.5225 4.15595 3.54884 0
M  V30 1048 H 95.6165 0.605239 0.563573 0
M  V30 1049 H 98.1625 1.62332 0.494627 0
M  V30 1050 H 96.9345 3.63275 1.45419 0
M  V30 1051 H 96.5575 2.7161 2.90368 0
M  V30 1052 N 97.5546 -0.734337 1.39446 0
M  V30 1053 C 98.4846 -1.86155 1.40955 0
M  V30 1054 C 99.4656 -1.67898 0.272827 0
M  V30 1055 O 100.651 -1.88207 0.478743 0
M  V30 1056 C 97.7806 -3.23912 1.25294 0
M  V30 1057 C 96.7346 -3.56808 2.36373 0
M  V30 1058 C 96.0606 -4.93508 2.058 0
M  V30 1059 C 97.3606 -3.59713 3.78687 0
M  V30 1060 H 99.0546 -1.8515 2.35287 0
M  V30 1061 H 96.6006 -0.889367 1.13253 0
M  V30 1062 H 98.5536 -4.02443 1.2497 0
M  V30 1063 H 97.2776 -3.25446 0.274308 0
M  V30 1064 H 95.9366 -2.80606 2.35914 0
M  V30 1065 H 95.5846 -4.91623 1.06374 0
M  V30 1066 H 95.2846 -5.16486 2.80208 0
M  V30 1067 H 96.8086 -5.74396 2.07128 0
M  V30 1068 H 98.2226 -4.2832 3.81071 0
M  V30 1069 H 96.6196 -3.94209 4.52459 0
M  V30 1070 H 97.6896 -2.59504 4.09617 0
M  V30 1071 N 99.0327 -1.24633 -0.964593 0
M  V30 1072 C 99.9427 -1.05859 -2.09359 0
M  V30 1073 C 100.959 0.00148855 -1.74 0
M  V30 1074 O 102.135 -0.197346 -2.00431 0
M  V30 1075 C 99.1997 -0.668879 -3.40187 0
M  V30 1076 C 98.2607 -1.80578 -3.89474 0
M  V30 1077 C 97.4937 -1.43457 -5.14058 0
M  V30 1078 O 97.7167 -0.325775 -5.69469 0
M  V30 1079 O 96.6507 -2.2613 -5.57807 0
M  V30 1080 H 100.477 -2.00516 -2.28094 0
M  V30 1081 H 98.0617 -1.03481 -1.0776 0
M  V30 1082 H 99.9437 -0.463211 -4.18846 0
M  V30 1083 H 98.6187 0.248536 -3.22744 0
M  V30 1084 H 97.5257 -2.06623 -3.11862 0
M  V30 1085 H 98.8587 -2.70208 -4.11398 0
M  V30 1086 N 100.511 1.16574 -1.06058 0
M  V30 1087 C 101.474 2.19085 -0.673392 0
M  V30 1088 C 102.474 1.5835 0.279648 0
M  V30 1089 O 103.664 1.74088 0.0623488 0
M  V30 1090 C 100.796 3.40899 0.00954234 0
M  V30 1091 H 101.989 2.54853 -1.58081 0
M  V30 1092 H 99.5418 1.30808 -0.855516 0
M  V30 1093 H 100.277 3.10684 0.929826 0
M  V30 1094 H 100.062 3.86233 -0.67573 0
M  V30 1095 H 101.552 4.1675 0.266245 0
M  V30 1096 N 101.989 0.842826 1.3317 0
M  V30 1097 C 102.952 0.284065 2.27433 0
M  V30 1098 C 103.952 -0.54948 1.5112 0
M  V30 1099 O 105.142 -0.362699 1.70382 0
M  V30 1100 C 102.274 -0.599384 3.35589 0
M  V30 1101 H 103.467 1.11589 2.78366 0
M  V30 1102 H 101.02 0.616221 1.4364 0
M  V30 1103 H 101.755 -1.45349 2.89904 0
M  V30 1104 H 101.54 -0.00291266 3.921 0
M  V30 1105 H 103.03 -0.983488 4.05854 0
M  V30 1106 N 103.467 -1.45747 0.599634 0
M  V30 1107 C 104.397 -2.33235 -0.111306 0
M  V30 1108 C 105.378 -1.46359 -0.866781 0
M  V30 1109 O 106.563 -1.75146 -0.838904 0
M  V30 1110 C 103.693 -3.28932 -1.11451 0
M  V30 1111 C 102.647 -4.25381 -0.472772 0
M  V30 1112 C 101.973 -5.1071 -1.58365 0
M  V30 1113 C 103.273 -5.18831 0.600948 0
M  V30 1114 H 104.967 -2.92927 0.61919 0
M  V30 1115 H 102.513 -1.40857 0.299215 0
M  V30 1116 H 104.466 -3.89002 -1.62036 0
M  V30 1117 H 103.19 -2.67381 -1.8755 0
M  V30 1118 H 101.849 -3.66598 0.0121472 0
M  V30 1119 H 101.497 -4.45533 -2.33473 0
M  V30 1120 H 101.197 -5.7604 -1.15982 0
M  V30 1121 H 102.721 -5.73647 -2.09194 0
M  V30 1122 H 104.135 -5.73019 0.179491 0
M  V30 1123 H 102.532 -5.92595 0.946076 0
M  V30 1124 H 103.602 -4.6174 1.48068 0
M  V30 1125 N 104.945 -0.338344 -1.53925 0
M  V30 1126 C 106.361 0.0137736 -1.59594 0
M  V30 1127 C 106.561 1.49186 -1.35447 0
M  V30 1128 O 105.617 2.24987 -1.14616 0
M  V30 1129 C 106.93 -0.41773 -2.97784 0
M  V30 1130 C 108.478 -0.369633 -3.1081 0
M  V30 1131 C 108.953 -0.776524 -4.51369 0
M  V30 1132 N 110.444 -0.730506 -4.57403 0
M  V30 1133 C 111.179 -1.01736 -5.64303 0
M  V30 1134 N 110.675 -1.3721 -6.79077 0
M  V30 1135 N 112.468 -0.941942 -5.54151 0
M  V30 1136 H 104.619 -1.3012 -1.67876 0
M  V30 1137 H 106.882 -0.530082 -0.78595 0
M  V30 1138 H 106.588 -1.44811 -3.20504 0
M  V30 1139 H 106.462 0.209729 -3.76616 0
M  V30 1140 H 108.849 0.651568 -2.87817 0
M  V30 1141 H 108.93 -1.03223 -2.34049 0
M  V30 1142 H 108.574 -1.79571 -4.75096 0
M  V30 1143 H 108.504 -0.0914649 -5.26521 0
M  V30 1144 H 110.995 -0.468783 -3.74981 0
M  V30 1145 H 111.308 -1.57597 -7.5656 0
M  V30 1146 H 109.653 -1.4105 -6.80536 0
M  V30 1147 H 112.844 -0.664184 -4.63364 0
M  V30 1148 H 113.017 -1.16884 -6.37371 0
M  V30 1149 N 106.423 1.57458 -0.0668435 0
M  V30 1150 C 107.648 1.9804 0.616027 0
M  V30 1151 C 108.073 0.944771 1.62652 0
M  V30 1152 O 107.431 -0.0902094 1.81075 0
M  V30 1153 C 107.479 3.37665 1.26549 0
M  V30 1154 O 106.583 3.36701 2.38131 0
M  V30 1155 H 105.924 0.644719 0.158849 0
M  V30 1156 H 108.454 2.04121 -0.139891 0
M  V30 1157 H 108.464 3.7474 1.6135 0
M  V30 1158 H 107.139 4.12573 0.525016 0
M  V30 1159 H 105.716 3.1139 2.0516 0
M  V30 1160 N 107.901 -0.206675 1.56239 0
M  V30 1161 C 108.851 -1.26 1.90021 0
M  V30 1162 C 109.835 -1.41566 0.764721 0
M  V30 1163 O 111.027 -1.44131 1.02739 0
M  V30 1164 C 108.156 -2.6073 2.23326 0
M  V30 1165 C 107.242 -2.49005 3.43304 0
M  V30 1166 N 107.633 -2.06946 4.61527 0
M  V30 1167 C 105.931 -2.79927 3.47213 0
M  V30 1168 C 106.632 -2.06832 5.43687 0
M  V30 1169 N 105.608 -2.47892 4.83788 0
M  V30 1170 H 109.41 -0.925955 2.78932 0
M  V30 1171 H 106.924 -0.415172 1.57003 0
M  V30 1172 H 108.921 -3.36798 2.45708 0
M  V30 1173 H 107.581 -2.94968 1.35735 0
M  V30 1174 H 108.592 -1.77839 4.86409 0
M  V30 1175 H 105.269 -3.18438 2.70006 0
M  V30 1176 H 106.659 -1.76312 6.48354 0
M  V30 1177 N 109.379 -1.50304 -0.473955 0
M  V30 1178 C 110.795 -1.37667 -0.807466 0
M  V30 1179 C 110.995 -0.430555 -1.96846 0
M  V30 1180 O 110.051 0.127874 -2.52176 0
M  V30 1181 C 111.364 -2.78974 -1.12223 0
M  V30 1182 C 112.912 -2.87868 -1.22885 0
M  V30 1183 C 113.387 -4.30003 -1.57676 0
M  V30 1184 N 114.878 -4.3294 -1.64673 0
M  V30 1185 C 115.613 -5.3991 -1.93091 0
M  V30 1186 N 115.109 -6.57092 -2.1955 0
M  V30 1187 N 116.902 -5.27351 -1.94569 0
M  V30 1188 H 109.053 -2.10394 0.291212 0
M  V30 1189 H 111.316 -0.945575 0.0677609 0
M  V30 1190 H 111.022 -3.50031 -0.342229 0
M  V30 1191 H 110.896 -3.16038 -2.05913 0
M  V30 1192 H 113.283 -2.17032 -1.99953 0
M  V30 1193 H 113.364 -2.54352 -0.271814 0
M  V30 1194 H 113.008 -5.01375 -0.81149 0
M  V30 1195 H 112.938 -4.61004 -2.54525 0
M  V30 1196 H 115.429 -3.48441 -1.46277 0
M  V30 1197 H 115.742 -7.34425 -2.405 0
M  V30 1198 H 114.087 -6.60272 -2.16948 0
M  V30 1199 H 117.278 -4.34801 -1.73394 0
M  V30 1200 H 117.451 -6.10805 -2.16381 0
M  V30 1201 N 110.857 0.726932 -1.39834 0
M  V30 1202 C 112.273 1.03354 -1.21615 0
M  V30 1203 C 112.473 2.01327 -0.08338 0
M  V30 1204 O 111.529 2.46158 0.56238 0
M  V30 1205 C 112.842 1.58811 -2.55342 0
M  V30 1206 C 114.39 1.70851 -2.62257 0
M  V30 1207 C 114.865 2.29716 -3.96225 0
M  V30 1208 N 116.356 2.37116 -3.97907 0
M  V30 1209 C 117.091 2.83619 -4.98345 0
M  V30 1210 N 116.587 3.29958 -6.09179 0
M  V30 1211 N 118.38 2.82901 -4.8572 0
M  V30 1212 H 110.531 0.0773069 -2.12259 0
M  V30 1213 H 112.794 0.0969102 -0.943034 0
M  V30 1214 H 112.5 0.942855 -3.38826 0
M  V30 1215 H 112.374 2.57502 -2.75632 0
M  V30 1216 H 114.761 2.34497 -1.79152 0
M  V30 1217 H 114.842 0.707913 -2.45809 0
M  V30 1218 H 114.486 1.66696 -4.79765 0
M  V30 1219 H 114.416 3.30469 -4.09997 0
M  V30 1220 H 116.907 2.04374 -3.17868 0
M  V30 1221 H 117.22 3.63976 -6.8172 0
M  V30 1222 H 115.565 3.27946 -6.12761 0
M  V30 1223 H 118.756 2.46027 -3.98231 0
M  V30 1224 H 118.929 3.18827 -5.6414 0
M  V30 1225 N 112.336 1.25143 0.95797 0
M  V30 1226 C 113.266 1.07711 2.07173 0
M  V30 1227 C 114.247 -0.0128462 1.70095 0
M  V30 1228 O 115.432 0.156061 1.93572 0
M  V30 1229 C 112.562 0.691503 3.40346 0
M  V30 1230 C 111.516 1.73132 3.9142 0
M  V30 1231 C 110.842 1.20049 5.21049 0
M  V30 1232 C 112.142 3.1294 4.1817 0
M  V30 1233 H 113.836 2.00873 2.22014 0
M  V30 1234 H 111.382 0.967191 1.06684 0
M  V30 1235 H 113.335 0.556505 4.17709 0
M  V30 1236 H 112.059 -0.275819 3.25433 0
M  V30 1237 H 110.718 1.8547 3.16222 0
M  V30 1238 H 110.366 0.223499 5.02503 0
M  V30 1239 H 110.066 1.89545 5.56189 0
M  V30 1240 H 111.59 1.07782 6.01012 0
M  V30 1241 H 113.004 3.03775 4.86203 0
M  V30 1242 H 111.401 3.79875 4.64559 0
M  V30 1243 H 112.471 3.6025 3.24573 0
M  V30 1244 N 113.814 -1.1601 1.06675 0
M  V30 1245 C 115.23 -1.38622 0.790948 0
M  V30 1246 C 115.43 -1.92109 -0.607965 0
M  V30 1247 O 114.486 -2.12239 -1.36787 0
M  V30 1248 C 115.799 -2.36347 1.85905 0
M  V30 1249 C 117.347 -2.50023 1.88301 0
M  V30 1250 C 117.822 -3.51033 2.94176 0
M  V30 1251 N 119.313 -3.58563 2.93235 0
M  V30 1252 C 120.048 -4.36521 3.71803 0
M  V30 1253 N 119.544 -5.17869 4.602 0
M  V30 1254 N 121.337 -4.31541 3.60178 0
M  V30 1255 H 113.488 -0.796294 1.96908 0
M  V30 1256 H 115.751 -0.412597 0.853503 0
M  V30 1257 H 115.457 -2.04147 2.86386 0
M  V30 1258 H 115.331 -3.36042 1.71334 0
M  V30 1259 H 117.718 -2.81524 0.884769 0
M  V30 1260 H 117.799 -1.5035 2.06951 0
M  V30 1261 H 117.443 -3.20268 3.94196 0
M  V30 1262 H 117.373 -4.50445 2.72776 0
M  V30 1263 H 119.864 -3.00496 2.29152 0
M  V30 1264 H 120.177 -5.74578 5.16797 0
M  V30 1265 H 118.522 -5.17199 4.64253 0
M  V30 1266 H 121.713 -3.67051 2.90502 0
M  V30 1267 H 121.886 -4.9205 4.21653 0
M  V30 1268 N 115.292 -0.849877 -1.32721 0
M  V30 1269 C 116.202 -0.293791 -2.32753 0
M  V30 1270 C 117.218 0.585906 -1.63839 0
M  V30 1271 O 118.394 0.487413 -1.95413 0
M  V30 1272 C 115.459 0.512752 -3.42887 0
M  V30 1273 C 114.52 -0.39252 -4.27502 0
M  V30 1274 C 113.753 0.375625 -5.32377 0
M  V30 1275 O 113.976 1.60613 -5.4732 0
M  V30 1276 O 112.91 -0.256094 -6.01355 0
M  V30 1277 H 116.736 -1.12242 -2.82197 0
M  V30 1278 H 114.321 -0.612685 -1.36259 0
M  V30 1279 H 116.203 0.970704 -4.10067 0
M  V30 1280 H 114.878 1.31826 -2.95641 0
M  V30 1281 H 113.785 -0.898547 -3.63149 0
M  V30 1282 H 115.118 -1.16309 -4.7826 0
M  V30 1283 N 116.77 1.45427 -0.607355 0
M  V30 1284 C 118.019 2.01452 -0.100036 0
M  V30 1285 C 118.332 1.48159 1.27704 0
M  V30 1286 O 119.538 1.96159 1.87707 0
M  V30 1287 C 117.994 3.59672 -0.128158 0
M  V30 1288 C 117.602 4.21962 -1.50507 0
M  V30 1289 C 119.346 4.23262 0.323932 0
M  V30 1290 C 117.253 5.72333 -1.48959 0
M  V30 1291 H 116.183 0.75325 -0.0336299 0
M  V30 1292 H 118.834 1.66901 -0.76265 0
M  V30 1293 H 117.216 3.91411 0.601105 0
M  V30 1294 H 118.39 4.01796 -2.25602 0
M  V30 1295 H 116.705 3.70565 -1.89923 0
M  V30 1296 H 119.302 5.33522 0.354691 0
M  V30 1297 H 119.645 3.93921 1.34656 0
M  V30 1298 H 120.178 3.96239 -0.352056 0
M  V30 1299 H 116.917 6.06373 -2.48981 0
M  V30 1300 H 116.437 5.94691 -0.781214 0
M  V30 1301 H 118.116 6.35525 -1.21313 0
M  V30 1302 N 118.248 0.346503 1.53744 0
M  V30 1303 C 119.664 -0.00530975 1.59599 0
M  V30 1304 C 119.864 -1.48465 1.36236 0
M  V30 1305 O 118.92 -2.24376 1.15808 0
M  V30 1306 C 120.233 0.433516 2.97559 0
M  V30 1307 C 121.781 0.386111 3.10609 0
M  V30 1308 C 122.256 0.800451 4.50951 0
M  V30 1309 N 123.747 0.754753 4.5701 0
M  V30 1310 C 124.482 1.04727 5.63755 0
M  V30 1311 N 123.978 1.4081 6.7834 0
M  V30 1312 N 125.771 0.971316 5.53644 0
M  V30 1313 H 117.922 1.31009 1.67184 0
M  V30 1314 H 120.185 0.534242 0.783128 0
M  V30 1315 H 119.891 1.46509 3.19731 0
M  V30 1316 H 119.765 -0.189753 3.76722 0
M  V30 1317 H 122.152 -0.636295 2.88158 0
M  V30 1318 H 122.233 1.04462 2.33498 0
M  V30 1319 H 121.877 1.82088 4.74137 0
M  V30 1320 H 121.807 0.119386 5.26465 0
M  V30 1321 H 124.298 0.488662 3.74727 0
M  V30 1322 H 124.611 1.61607 7.55714 0
M  V30 1323 H 122.956 1.44657 6.79779 0
M  V30 1324 H 126.147 0.688748 4.63005 0
M  V30 1325 H 126.32 1.20263 6.36742 0
M  V30 1326 N 119.726 -1.57421 0.075193 0
M  V30 1327 C 120.954 -1.97946 -0.602076 0
M  V30 1328 C 121.369 -0.953674 -1.62943 0
M  V30 1329 O 120.726 0.0592551 -1.82404 0
M  V30 1330 C 120.777 -3.38546 -1.26762 0
M  V30 1331 O 120.498 -4.37195 -0.281376 0
M  V30 1332 C 121.999 -3.93966 -2.03239 0
M  V30 1333 H 119.219 -0.650918 -0.162931 0
M  V30 1334 H 121.763 -2.03959 0.148601 0
M  V30 1335 H 119.918 -3.33609 -1.96936 0
M  V30 1336 H 120.332 -5.18975 -0.759267 0
M  V30 1337 H 121.806 -4.94555 -2.45193 0
M  V30 1338 H 122.283 -3.30693 -2.8903 0
M  V30 1339 H 122.889 -4.02315 -1.37924 0
M  V30 1340 N 121.204 0.198386 -1.56346 0
M  V30 1341 C 122.62 0.549085 -1.49857 0
M  V30 1342 C 122.82 1.86016 -0.774611 0
M  V30 1343 O 121.876 2.50416 -0.323776 0
M  V30 1344 C 123.189 0.606868 -2.94512 0
M  V30 1345 C 124.737 0.695925 -3.05165 0
M  V30 1346 C 125.212 0.784848 -4.51225 0
M  V30 1347 N 126.703 0.848463 -4.55363 0
M  V30 1348 C 127.438 0.937378 -5.65686 0
M  V30 1349 N 126.934 0.9888 -6.85707 0
M  V30 1350 N 128.727 0.974312 -5.53592 0
M  V30 1351 H 120.878 -0.661655 -2.01831 0
M  V30 1352 H 123.141 -0.235261 -0.918344 0
M  V30 1353 H 122.847 -0.28732 -3.50524 0
M  V30 1354 H 122.721 1.46268 -3.47686 0
M  V30 1355 H 125.108 1.58055 -2.49204 0
M  V30 1356 H 125.189 -0.186022 -2.55123 0
M  V30 1357 H 124.833 -0.0954072 -5.0781 0
M  V30 1358 H 124.763 1.68255 -4.98997 0
M  V30 1359 H 127.254 0.818103 -3.68938 0
M  V30 1360 H 127.567 1.05707 -7.65536 0
M  V30 1361 H 125.912 0.957534 -6.88372 0
M  V30 1362 H 129.103 0.930954 -4.58749 0
M  V30 1363 H 129.276 1.04015 -6.39597 0
M  V30 1364 N 122.682 1.50554 0.465978 0
M  V30 1365 C 123.922 1.63439 1.22747 0
M  V30 1366 C 124.286 0.329822 1.89146 0
M  V30 1367 O 125.487 0.334161 2.66715 0
M  V30 1368 C 123.758 2.78542 2.2394 0
M  V30 1369 S 125.317 3.11591 3.0896 0
M  V30 1370 H 122.135 0.576113 0.416672 0
M  V30 1371 H 124.737 1.88357 0.523641 0
M  V30 1372 H 123.441 3.71805 1.7375 0
M  V30 1373 H 122.972 2.55726 2.98944 0
M  V30 1374 H 124.987 2.55811 4.25176 0
M  V30 1375 N 124.16 -0.719506 1.40217 0
M  V30 1376 C 125.123 -1.8153 1.39927 0
M  V30 1377 C 126.123 -1.58095 0.293723 0
M  V30 1378 O 127.313 -1.65209 0.552429 0
M  V30 1379 C 124.445 -3.19561 1.18716 0
M  V30 1380 H 125.638 -1.83186 2.37451 0
M  V30 1381 H 123.191 -0.924746 1.26008 0
M  V30 1382 H 123.926 -3.23557 0.219366 0
M  V30 1383 H 123.711 -3.3797 1.98793 0
M  V30 1384 H 125.201 -3.99598 1.21291 0
M  V30 1385 N 125.638 -1.25649 -0.95132 0
M  V30 1386 C 127.054 -1.02542 -1.223 0
M  V30 1387 C 127.254 0.255715 -1.99871 0
M  V30 1388 O 126.31 0.967558 -2.33226 0
M  V30 1389 C 127.623 -2.25065 -1.99415 0
M  V30 1390 C 129.171 -2.29861 -2.12446 0
M  V30 1391 C 129.646 -3.52048 -2.92961 0
M  V30 1392 N 131.137 -3.52465 -3.00538 0
M  V30 1393 C 131.872 -4.43672 -3.63239 0
M  V30 1394 N 131.368 -5.45157 -4.27523 0
M  V30 1395 N 133.161 -4.31346 -3.60412 0
M  V30 1396 H 125.312 -2.07951 -0.432471 0
M  V30 1397 H 127.575 -0.91339 -0.253816 0
M  V30 1398 H 127.281 -3.18194 -1.49817 0
M  V30 1399 H 127.155 -2.28502 -3.00111 0
M  V30 1400 H 129.542 -1.37252 -2.61239 0
M  V30 1401 H 129.623 -2.3044 -1.11044 0
M  V30 1402 H 129.267 -4.44981 -2.44856 0
M  V30 1403 H 129.197 -3.48715 -3.94596 0
M  V30 1404 H 131.688 -2.79056 -2.54826 0
M  V30 1405 H 132.001 -6.10958 -4.73234 0
M  V30 1406 H 130.346 -5.49025 -4.26141 0
M  V30 1407 H 133.537 -3.51288 -3.09377 0
M  V30 1408 H 133.71 -5.02624 -4.0899 0
M  V30 1409 N 127.117 1.15442 -1.07289 0
M  V30 1410 C 128.067 2.18164 -0.662467 0
M  V30 1411 C 129.051 1.57845 0.312074 0
M  V30 1412 O 130.243 1.76552 0.125905 0
M  V30 1413 C 127.372 3.43246 -0.0611295 0
M  V30 1414 C 126.458 4.1062 -1.06077 0
M  V30 1415 N 126.849 4.53491 -2.24008 0
M  V30 1416 C 125.147 4.36949 -0.893964 0
M  V30 1417 C 125.848 5.05731 -2.87422 0
M  V30 1418 N 124.824 4.99236 -2.15091 0
M  V30 1419 H 128.626 2.49038 -1.56068 0
M  V30 1420 H 126.14 1.32003 -0.945988 0
M  V30 1421 H 128.137 4.16145 0.250792 0
M  V30 1422 H 126.797 3.13854 0.832207 0
M  V30 1423 H 127.808 4.46898 -2.6173 0
M  V30 1424 H 124.485 4.17466 -0.0534693 0
M  V30 1425 H 125.875 5.48865 -3.87553 0
M  V30 1426 N 128.595 0.856903 1.32268 0
M  V30 1427 C 129.835 0.467705 1.98977 0
M  V30 1428 C 130.199 -0.959231 1.66321 0
M  V30 1429 O 131.4 -1.4531 2.26138 0
M  V30 1430 C 129.671 0.70256 3.50427 0
M  V30 1431 S 131.23 0.411269 4.36868 0
M  V30 1432 H 128.048 0.175121 0.689096 0
M  V30 1433 H 130.65 1.1101 1.60925 0
M  V30 1434 H 129.354 1.74012 3.71683 0
M  V30 1435 H 128.885 0.0466707 3.93372 0
M  V30 1436 H 130.9 -0.761799 4.90317 0
M  V30 1437 N 130.073 -1.45103 0.615059 0
M  V30 1438 C 131.036 -2.29025 -0.0895485 0
M  V30 1439 C 132.036 -1.40174 -0.787906 0
M  V30 1440 O 133.226 -1.62217 -0.634933 0
M  V30 1441 C 130.358 -3.21376 -1.13711 0
M  V30 1442 H 131.551 -2.92807 0.648382 0
M  V30 1443 H 129.104 -1.51749 0.374444 0
M  V30 1444 H 129.839 -2.6241 -1.90556 0
M  V30 1445 H 129.624 -3.86834 -0.640475 0
M  V30 1446 H 131.114 -3.84459 -1.63036 0
M  V30 1447 N 131.551 -0.354651 -1.53558 0
M  V30 1448 C 132.514 0.484566 -2.24019 0
M  V30 1449 C 133.514 1.01861 -1.24422 0
M  V30 1450 O 134.704 0.906097 -1.4878 0
M  V30 1451 C 131.836 1.67615 -2.96847 0
M  V30 1452 H 133.029 -0.131843 -2.9961 0
M  V30 1453 H 130.582 -0.106165 -1.55939 0
M  V30 1454 H 131.317 2.33095 -2.25471 0
M  V30 1455 H 131.102 1.30029 -3.69912 0
M  V30 1456 H 132.592 2.27114 -3.50441 0
M  V30 1457 N 133.029 1.57378 -0.0835403 0
M  V30 1458 C 134.445 1.57246 0.273109 0
M  V30 1459 C 134.645 1.09385 1.69225 0
M  V30 1460 O 133.701 0.765051 2.40631 0
M  V30 1461 C 135.014 3.00614 0.0720628 0
M  V30 1462 C 136.562 3.12684 0.1407 0
M  V30 1463 C 137.037 4.57989 -0.0322094 0
M  V30 1464 N 138.528 4.63194 0.0230085 0
M  V30 1465 C 139.263 5.73335 -0.0861941 0
M  V30 1466 N 138.759 6.9235 -0.24958 0
M  V30 1467 N 140.552 5.62093 -0.0282886 0
M  V30 1468 H 132.703 1.86801 -1.0109 0
M  V30 1469 H 134.966 0.861687 -0.395222 0
M  V30 1470 H 134.672 3.39786 -0.907662 0
M  V30 1471 H 134.546 3.68193 0.81936 0
M  V30 1472 H 136.933 2.73391 1.11092 0
M  V30 1473 H 137.014 2.47719 -0.637896 0
M  V30 1474 H 136.658 4.97973 -0.999247 0
M  V30 1475 H 136.588 5.21 0.765937 0
M  V30 1476 H 139.079 3.77613 0.14722 0
M  V30 1477 H 139.392 7.72117 -0.324733 0
M  V30 1478 H 137.737 6.94415 -0.285097 0
M  V30 1479 H 140.928 4.67997 0.0981408 0
M  V30 1480 H 141.101 6.47895 -0.116845 0
M  V30 1481 N 134.507 -0.190092 1.56449 0
M  V30 1482 C 135.457 -1.23977 1.91347 0
M  V30 1483 C 136.441 -1.40747 0.779693 0
M  V30 1484 O 137.633 -1.43033 1.04262 0
M  V30 1485 C 134.762 -2.58347 2.26079 0
M  V30 1486 C 133.848 -2.4535 3.45925 0
M  V30 1487 N 134.239 -2.02039 4.63696 0
M  V30 1488 C 132.537 -2.76229 3.50162 0
M  V30 1489 C 133.238 -2.01053 5.4585 0
M  V30 1490 N 132.214 -2.42747 4.8639 0
M  V30 1491 H 136.016 -0.896318 2.79899 0
M  V30 1492 H 133.53 -0.398496 1.57435 0
M  V30 1493 H 135.527 -3.34173 2.49267 0
M  V30 1494 H 134.187 -2.93512 1.38856 0
M  V30 1495 H 135.198 -1.7267 4.88268 0
M  V30 1496 H 131.875 -3.15556 2.73369 0
M  V30 1497 H 133.265 -1.69426 6.50188 0
M  V30 1498 N 135.985 -1.50799 -0.457987 0
M  V30 1499 C 137.396 -1.55152 -1.0385 0
M  V30 1500 C 137.747 -0.362719 -1.92818 0
M  V30 1501 O 136.872 0.522915 -2.09987 0
M  V30 1502 C 137.467 -2.81173 -1.89017 0
M  V30 1503 C 136.026 -2.88164 -2.42154 0
M  V30 1504 C 135.173 -2.49591 -1.20829 0
M  V30 1505 H 138.124 -1.56874 -0.240068 0
M  V30 1506 H 138.145 -2.63769 -2.74238 0
M  V30 1507 H 137.657 -3.67677 -1.24238 0
M  V30 1508 H 135.758 -2.06042 -3.10447 0
M  V30 1509 H 135.871 -3.91356 -2.76364 0
M  V30 1510 H 134.235 -2.02322 -1.54719 0
M  V30 1511 H 135.018 -3.38418 -0.576927 0
M  V30 1512 N 137.463 0.71206 -1.40597 0
M  V30 1513 C 138.393 1.83889 -1.43899 0
M  V30 1514 C 139.374 1.67442 -0.299504 0
M  V30 1515 O 140.559 1.87421 -0.508624 0
M  V30 1516 C 137.689 3.21877 -1.30431 0
M  V30 1517 C 136.643 3.53002 -2.42019 0
M  V30 1518 C 135.969 4.90172 -2.13626 0
M  V30 1519 C 137.269 3.53643 -3.84362 0
M  V30 1520 H 138.963 1.81383 -2.38203 0
M  V30 1521 H 136.509 0.871237 -1.14654 0
M  V30 1522 H 138.462 4.00404 -1.31357 0
M  V30 1523 H 137.186 3.24968 -0.326049 0
M  V30 1524 H 135.845 2.76818 -2.40349 0
M  V30 1525 H 135.493 4.89869 -1.14182 0
M  V30 1526 H 135.193 5.11962 -2.88389 0
M  V30 1527 H 136.717 5.71028 -2.1624 0
M  V30 1528 H 138.131 4.22203 -3.87837 0
M  V30 1529 H 136.528 3.86961 -4.58673 0
M  V30 1530 H 137.598 2.52954 -4.13693 0
M  V30 1531 N 138.941 1.26152 0.944643 0
M  V30 1532 C 140.352 1.10454 1.50522 0
M  V30 1533 C 140.703 -0.31635 1.93633 0
M  V30 1534 O 139.828 -1.20746 1.79581 0
M  V30 1535 C 140.423 1.99891 2.73549 0
M  V30 1536 C 138.982 1.88348 3.25886 0
M  V30 1537 C 138.129 1.93447 1.9868 0
M  V30 1538 H 141.08 1.39292 0.760489 0
M  V30 1539 H 141.101 1.54477 3.47732 0
M  V30 1540 H 140.613 3.03297 2.42141 0
M  V30 1541 H 138.714 0.878636 3.62092 0
M  V30 1542 H 138.827 2.73696 3.93227 0
M  V30 1543 H 137.191 1.37456 2.14425 0
M  V30 1544 H 137.974 2.98476 1.69607 0
M  V30 1545 N 140.419 -1.14872 1.07899 0
M  V30 1546 C 141.83 -1.67367 0.827363 0
M  V30 1547 C 142.181 -1.85236 -0.646693 0
M  V30 1548 O 141.306 -1.55974 -1.50004 0
M  V30 1549 C 141.901 -3.04016 1.49532 0
M  V30 1550 C 140.46 -3.53566 1.29106 0
M  V30 1551 C 139.607 -2.29161 1.56143 0
M  V30 1552 H 142.558 -0.990083 1.24028 0
M  V30 1553 H 142.579 -3.69219 0.919643 0
M  V30 1554 H 142.091 -2.90978 2.56814 0
M  V30 1555 H 140.192 -3.71835 0.238713 0
M  V30 1556 H 140.305 -4.34661 2.01511 0
M  V30 1557 H 138.669 -2.34978 0.982717 0
M  V30 1558 H 139.452 -2.18705 2.64619 0
M  V30 1559 N 141.898 -0.863906 -1.31812 0
M  V30 1560 C 143.309 -0.52522 -1.7916 0
M  V30 1561 C 143.66 0.957518 -1.71248 0
M  V30 1562 O 142.785 1.74734 -1.27659 0
M  V30 1563 C 143.38 -0.9466 -3.25307 0
M  V30 1564 C 141.939 -0.659668 -3.70574 0
M  V30 1565 C 141.086 -1.14126 -2.52726 0
M  V30 1566 H 144.037 -1.05022 -1.1898 0
M  V30 1567 H 144.058 -0.266766 -3.79564 0
M  V30 1568 H 143.57 -2.02579 -3.31034 0
M  V30 1569 H 141.671 0.408416 -3.70355 0
M  V30 1570 H 141.784 -1.23245 -4.62977 0
M  V30 1571 H 140.148 -0.561216 -2.4844 0
M  V30 1572 H 140.931 -2.22775 -2.61201 0
M  V30 1573 N 143.376 1.44774 -0.622745 0
M  V30 1574 C 144.787 1.85546 -0.207226 0
M  V30 1575 C 145.138 1.52093 1.23944 0
M  V30 1576 O 144.263 0.95492 1.94191 0
M  V30 1577 C 144.858 3.36781 -0.369313 0
M  V30 1578 C 143.417 3.76399 -0.00836847 0
M  V30 1579 C 142.564 2.68664 -0.686651 0
M  V30 1580 H 145.515 1.3536 -0.828454 0
M  V30 1581 H 145.536 3.78453 0.394162 0
M  V30 1582 H 145.048 3.61098 -1.42231 0
M  V30 1583 H 143.149 3.57698 1.04322 0
M  V30 1584 H 143.262 4.7732 -0.412584 0
M  V30 1585 H 141.626 2.54404 -0.122777 0
M  V30 1586 H 142.409 2.95815 -1.74208 0
M  V30 1587 N 144.854 0.36279 1.53368 0
M  V30 1588 C 146.265 -0.117022 1.86333 0
M  V30 1589 C 146.616 -1.48397 1.28347 0
M  V30 1590 O 145.741 -2.07787 0.604428 0
M  V30 1591 C 146.336 -0.21912 3.38091 0
M  V30 1592 C 144.895 -0.643184 3.70864 0
M  V30 1593 C 144.042 0.211318 2.76494 0
M  V30 1594 H 146.993 0.581687 1.47655 0
M  V30 1595 H 147.014 -1.04319 3.6592 0
M  V30 1596 H 146.526 0.775902 3.80265 0
M  V30 1597 H 144.627 -1.64654 3.34245 0
M  V30 1598 H 144.74 -0.41973 4.77258 0
M  V30 1599 H 143.104 -0.319367 2.5269 0
M  V30 1600 H 143.887 1.20383 3.21501 0
M  V30 1601 N 146.332 -1.57332 0.0918853 0
M  V30 1602 C 147.58 -1.93853 -0.571446 0
M  V30 1603 C 147.901 -0.974212 -1.6892 0
M  V30 1604 O 147.171 -0.0257254 -1.95883 0
M  V30 1605 H 145.751 -0.715666 -0.214082 0
M  V30 1606 H 148.413 -1.94287 0.154464 0
M  V30 1607 H 147.509 -2.96191 -0.983729 0
M  V30 1608 N 147.81 0.181792 -1.56548 0
M  V30 1609 C 148.72 1.24538 -1.98815 0
M  V30 1610 C 149.736 1.49045 -0.897861 0
M  V30 1611 O 150.912 1.61399 -1.20467 0
M  V30 1612 C 147.977 2.56683 -2.33055 0
M  V30 1613 C 147.038 2.40131 -3.55859 0
M  V30 1614 C 146.271 3.65975 -3.88456 0
M  V30 1615 O 146.494 4.70711 -3.22161 0
M  V30 1616 O 145.428 3.6071 -4.81842 0
M  V30 1617 H 149.254 0.916647 -2.89536 0
M  V30 1618 H 146.839 0.387842 -1.44278 0
M  V30 1619 H 148.721 3.34655 -2.56094 0
M  V30 1620 H 147.396 2.89157 -1.45498 0
M  V30 1621 H 146.303 1.60226 -3.38051 0
M  V30 1622 H 147.636 2.12585 -4.43924 0
M  V30 1623 N 149.288 1.51039 0.449983 0
M  V30 1624 C 150.536 1.62759 1.19808 0
M  V30 1625 C 150.857 0.339981 1.92013 0
M  V30 1626 O 150.127 -0.643606 1.85026 0
M  V30 1627 H 148.707 0.599811 0.445237 0
M  V30 1628 H 151.369 1.87914 0.517138 0
M  V30 1629 H 150.465 2.44911 1.93455 0
M  V30 1630 N 150.766 -0.704594 1.40972 0
M  V30 1631 C 152.177 -1.28418 1.3552 0
M  V30 1632 C 152.528 -1.96171 0.0339434 0
M  V30 1633 O 151.653 -1.98231 -0.867944 0
M  V30 1634 C 152.248 -2.33528 2.45459 0
M  V30 1635 C 150.807 -2.87085 2.43433 0
M  V30 1636 C 149.954 -1.61007 2.2577 0
M  V30 1637 H 152.905 -0.499963 1.50619 0
M  V30 1638 H 152.926 -3.14619 2.13998 0
M  V30 1639 H 152.438 -1.84187 3.41609 0
M  V30 1640 H 150.539 -3.40626 1.51013 0
M  V30 1641 H 150.652 -3.3813 3.39419 0
M  V30 1642 H 149.016 -1.86482 1.73483 0
M  V30 1643 H 149.799 -1.13675 3.23933 0
M  V30 1644 N 152.244 -1.26651 -0.937939 0
M  V30 1645 C 153.492 -1.12165 -1.68118 0
M  V30 1646 C 153.813 0.334983 -1.92101 0
M  V30 1647 O 153.083 1.23583 -1.52 0
M  V30 1648 H 151.663 -0.412093 -0.623048 0
M  V30 1649 H 154.325 -1.59027 -1.12678 0
M  V30 1650 H 153.421 -1.64289 -2.6536 0
M  V30 1651 N 153.722 1.14298 -1.08507 0
M  V30 1652 C 154.685 2.17607 -0.719711 0
M  V30 1653 C 155.685 1.58907 0.245997 0
M  V30 1654 O 156.875 1.74181 0.0254081 0
M  V30 1655 C 154.007 3.40842 -0.0627695 0
M  V30 1656 H 155.2 2.51443 -1.63452 0
M  V30 1657 H 152.753 1.28963 -0.88307 0
M  V30 1658 H 153.488 3.12587 0.863716 0
M  V30 1659 H 153.273 3.84713 -0.757504 0
M  V30 1660 H 154.763 4.17221 0.177786 0
M  V30 1661 N 155.201 0.870884 1.31352 0
M  V30 1662 C 156.111 0.330783 2.32256 0
M  V30 1663 C 157.127 -0.559767 1.6475 0
M  V30 1664 O 158.303 -0.456263 1.96164 0
M  V30 1665 C 155.368 -0.458137 3.4366 0
M  V30 1666 C 154.429 0.460482 4.26823 0
M  V30 1667 C 153.662 -0.290881 5.32907 0
M  V30 1668 O 153.885 -1.51885 5.49806 0
M  V30 1669 O 152.819 0.351732 6.00871 0
M  V30 1670 H 156.645 1.16718 2.80376 0
M  V30 1671 H 154.23 0.634285 1.35267 0
M  V30 1672 H 156.112 -0.905343 4.1156 0
M  V30 1673 H 154.787 -1.27106 2.97701 0
M  V30 1674 H 153.694 0.956207 3.61673 0
M  V30 1675 H 155.027 1.23903 4.7635 0
M  V30 1676 N 156.679 -1.44442 0.630414 0
M  V30 1677 C 157.609 -2.33418 -0.0618083 0
M  V30 1678 C 158.59 -1.48165 -0.835541 0
M  V30 1679 O 159.775 -1.76886 -0.801564 0
M  V30 1680 C 156.905 -3.31222 -1.04449 0
M  V30 1681 C 155.859 -4.26288 -0.382436 0
M  V30 1682 C 155.185 -5.13954 -1.47497 0
M  V30 1683 C 156.485 -5.1744 0.710865 0
M  V30 1684 H 158.179 -2.91548 0.681184 0
M  V30 1685 H 155.725 -1.40191 0.329026 0
M  V30 1686 H 157.678 -3.92351 -1.53748 0
M  V30 1687 H 156.402 -2.71299 -1.81836 0
M  V30 1688 H 155.061 -3.6649 0.0899054 0
M  V30 1689 H 154.709 -4.50385 -2.2397 0
M  V30 1690 H 154.409 -5.7837 -1.03737 0
M  V30 1691 H 155.933 -5.77955 -1.96979 0
M  V30 1692 H 157.347 -5.72509 0.300996 0
M  V30 1693 H 155.744 -5.90455 1.07156 0
M  V30 1694 H 156.814 -4.58496 1.57829 0
M  V30 1695 N 158.157 -0.370918 -1.53173 0
M  V30 1696 C 159.568 0.107139 -1.86392 0
M  V30 1697 C 159.919 1.47714 -1.29132 0
M  V30 1698 O 159.044 2.07464 -0.615439 0
M  V30 1699 C 159.639 0.201187 -3.38202 0
M  V30 1700 C 158.198 0.623507 -3.712 0
M  V30 1701 C 157.345 -0.225978 -2.76378 0
M  V30 1702 H 160.296 -0.58951 -1.47345 0
M  V30 1703 H 160.317 1.02377 -3.66468 0
M  V30 1704 H 159.829 -0.796058 -3.79848 0
M  V30 1705 H 157.93 1.62879 -3.35114 0
M  V30 1706 H 158.043 0.394414 -4.77474 0
M  V30 1707 H 156.407 0.305962 -2.52856 0
M  V30 1708 H 157.19 -1.22086 -3.20858 0
M  V30 1709 N 159.635 1.57281 -0.100228 0
M  V30 1710 C 160.565 2.17328 0.853857 0
M  V30 1711 C 161.546 1.10804 1.2906 0
M  V30 1712 O 162.731 1.38963 1.35657 0
M  V30 1713 C 159.861 2.75772 2.11109 0
M  V30 1714 C 158.815 3.87713 1.81279 0
M  V30 1715 C 158.141 4.32882 3.13874 0
M  V30 1716 C 159.441 5.10677 1.09574 0
M  V30 1717 H 161.135 2.97305 0.353545 0
M  V30 1718 H 158.681 1.43009 0.168612 0
M  V30 1719 H 160.634 3.16433 2.78296 0
M  V30 1720 H 159.358 1.93057 2.63432 0
M  V30 1721 H 158.017 3.476 1.16489 0
M  V30 1722 H 157.665 3.47051 3.64095 0
M  V30 1723 H 157.365 5.08358 2.94696 0
M  V30 1724 H 158.889 4.7618 3.82211 0
M  V30 1725 H 160.303 5.48474 1.66879 0
M  V30 1726 H 158.7 5.91615 1.00557 0
M  V30 1727 H 159.77 4.84835 0.0793299 0
M  V30 1728 N 161.113 -0.173488 1.56642 0
M  V30 1729 C 162.36 -0.890465 1.81871 0
M  V30 1730 C 162.688 -1.82339 0.67696 0
M  V30 1731 O 161.943 -1.92795 -0.335926 0
M  V30 1732 C 162.242 -1.72069 3.13252 0
M  V30 1733 C 161.908 -0.936878 4.41059 0
M  V30 1734 C 160.57 -0.720545 4.75775 0
M  V30 1735 C 162.922 -0.386919 5.19762 0
M  V30 1736 C 160.25 0.0568829 5.86672 0
M  V30 1737 C 162.602 0.37741 6.31473 0
M  V30 1738 C 161.266 0.604563 6.64757 0
M  V30 1739 H 160.536 -0.325844 0.665512 0
M  V30 1740 H 163.183 -0.155527 1.90867 0
M  V30 1741 H 161.488 -2.52496 2.99588 0
M  V30 1742 H 163.185 -2.27844 3.29982 0
M  V30 1743 H 159.775 -1.11553 4.13828 0
M  V30 1744 H 163.959 -0.541398 4.93338 0
M  V30 1745 H 159.215 0.242635 6.10918 0
M  V30 1746 H 163.389 0.810825 6.91664 0
M  V30 1747 H 161.016 1.20885 7.50527 0
M  V30 1748 N 162.591 -1.51276 -0.441967 0
M  V30 1749 C 164.007 -1.39349 -0.778083 0
M  V30 1750 C 164.207 -0.472212 -1.95889 0
M  V30 1751 O 163.263 0.0743551 -2.5239 0
M  V30 1752 C 164.576 -2.81292 -1.0628 0
M  V30 1753 C 166.124 -2.9041 -1.16751 0
M  V30 1754 C 166.599 -4.33251 -1.48519 0
M  V30 1755 N 168.09 -4.36336 -1.55453 0
M  V30 1756 C 168.825 -5.43885 -1.81596 0
M  V30 1757 N 168.321 -6.61601 -2.05562 0
M  V30 1758 N 170.114 -5.3136 -1.8334 0
M  V30 1759 H 162.265 -2.09729 0.335774 0
M  V30 1760 H 164.528 -0.943925 0.0878028 0
M  V30 1761 H 164.234 -3.50678 -0.267905 0
M  V30 1762 H 164.108 -3.20334 -1.99163 0
M  V30 1763 H 166.495 -2.21225 -1.95304 0
M  V30 1764 H 166.576 -2.54871 -0.217801 0
M  V30 1765 H 166.22 -5.02984 -0.704958 0
M  V30 1766 H 166.15 -4.66299 -2.44689 0
M  V30 1767 H 168.641 -3.51466 -1.38853 0
M  V30 1768 H 168.954 -7.39361 -2.24867 0
M  V30 1769 H 167.299 -6.64725 -2.02894 0
M  V30 1770 H 170.49 -4.38382 -1.64132 0
M  V30 1771 H 170.663 -6.15258 -2.03377 0
M  V30 1772 N 164.069 0.697108 -1.41344 0
M  V30 1773 C 165.294 1.49096 -1.44171 0
M  V30 1774 C 165.719 1.88038 -0.0481568 0
M  V30 1775 O 165.077 1.54525 0.948243 0
M  V30 1776 C 165.125 2.73088 -2.3549 0
M  V30 1777 O 164.229 3.70514 -1.81088 0
M  V30 1778 H 163.57 0.448801 -0.489361 0
M  V30 1779 H 166.1 0.856992 -1.85787 0
M  V30 1780 H 166.11 3.21413 -2.51312 0
M  V30 1781 H 164.785 2.44081 -3.36745 0
M  V30 1782 H 163.362 3.29441 -1.74708 0
M  V30 1783 N 165.547 1.27147 0.931209 0
M  V30 1784 C 166.477 1.12081 2.04842 0
M  V30 1785 C 167.458 0.0232364 1.70084 0
M  V30 1786 O 168.643 0.197085 1.93197 0
M  V30 1787 C 165.773 0.76354 3.38803 0
M  V30 1788 C 164.727 1.81396 3.87659 0
M  V30 1789 C 164.053 1.31075 5.18385 0
M  V30 1790 C 165.353 3.21739 4.11438 0
M  V30 1791 H 167.047 2.05537 2.17703 0
M  V30 1792 H 164.593 0.989603 1.04608 0
M  V30 1793 H 166.546 0.644982 4.16435 0
M  V30 1794 H 165.27 -0.206727 3.25945 0
M  V30 1795 H 163.929 1.92136 3.12217 0
M  V30 1796 H 163.577 0.330037 5.01916 0
M  V30 1797 H 163.277 2.013 5.52044 0
M  V30 1798 H 164.801 1.20506 5.98591 0
M  V30 1799 H 166.215 3.14019 4.79651 0
M  V30 1800 H 164.612 3.89644 4.56397 0
M  V30 1801 H 165.682 3.67054 3.16859 0
M  V30 1802 N 167.025 -1.13721 1.09112 0
M  V30 1803 C 167.955 -2.21148 0.749385 0
M  V30 1804 C 168.936 -1.6792 -0.271475 0
M  V30 1805 O 170.121 -1.93693 -0.140251 0
M  V30 1806 C 167.251 -3.46905 0.165659 0
M  V30 1807 C 166.205 -4.13203 1.11567 0
M  V30 1808 C 165.531 -5.33248 0.393809 0
M  V30 1809 C 166.831 -4.60912 2.45678 0
M  V30 1810 H 168.525 -2.4999 1.64758 0
M  V30 1811 H 166.071 -1.20156 0.793626 0
M  V30 1812 H 168.024 -4.21313 -0.085466 0
M  V30 1813 H 166.748 -3.17449 -0.767714 0
M  V30 1814 H 165.407 -3.40758 1.35202 0
M  V30 1815 H 165.055 -5.00054 -0.543599 0
M  V30 1816 H 164.755 -5.78552 1.02721 0
M  V30 1817 H 166.279 -6.10413 0.150908 0
M  V30 1818 H 167.693 -5.26759 2.26269 0
M  V30 1819 H 166.09 -5.16944 3.04776 0
M  V30 1820 H 167.16 -3.75603 3.06677 0
M  V30 1821 N 168.503 -0.877838 -1.30888 0
M  V30 1822 C 169.751 -0.491723 -1.96027 0
M  V30 1823 C 170.072 0.960827 -1.69685 0
M  V30 1824 O 169.342 1.67462 -1.01654 0
M  V30 1825 H 167.922 -0.17885 -0.725273 0
M  V30 1826 H 170.584 -1.11935 -1.59551 0
M  V30 1827 H 169.68 -0.656016 -3.05128 0
M  V30 1828 N 169.982 1.44106 -0.638065 0
M  V30 1829 C 171.398 1.56672 -0.304286 0
M  V30 1830 C 171.598 1.6244 1.19228 0
M  V30 1831 O 170.654 1.57121 1.9766 0
M  V30 1832 C 171.967 2.83503 -1.00231 0
M  V30 1833 C 173.515 2.97226 -0.981116 0
M  V30 1834 C 173.99 4.26868 -1.65974 0
M  V30 1835 N 175.481 4.33698 -1.62666 0
M  V30 1836 C 176.216 5.32745 -2.12063 0
M  V30 1837 N 175.712 6.38157 -2.6968 0
M  V30 1838 N 177.505 5.24299 -2.02651 0
M  V30 1839 H 169.656 1.38605 -1.60942 0
M  V30 1840 H 171.919 0.664661 -0.675965 0
M  V30 1841 H 171.625 2.85251 -2.0573 0
M  V30 1842 H 171.499 3.73251 -0.54439 0
M  V30 1843 H 173.886 2.95027 0.0654188 0
M  V30 1844 H 173.967 2.08808 -1.47759 0
M  V30 1845 H 173.611 4.29826 -2.70576 0
M  V30 1846 H 173.541 5.14156 -1.13804 0
M  V30 1847 H 176.032 3.58138 -1.20606 0
M  V30 1848 H 176.345 7.10029 -3.05087 0
M  V30 1849 H 174.69 6.38823 -2.73734 0
M  V30 1850 H 177.881 4.4086 -1.57353 0
M  V30 1851 H 178.054 6.01334 -2.41457 0
M  V30 1852 N 171.46 0.379036 1.52974 0
M  V30 1853 C 172.423 -0.448865 2.24762 0
M  V30 1854 C 173.423 -0.998689 1.26027 0
M  V30 1855 O 174.613 -0.882313 1.50203 0
M  V30 1856 C 171.745 -1.62872 2.99476 0
M  V30 1857 H 172.938 0.179491 2.99362 0
M  V30 1858 H 170.491 0.13096 1.5575 0
M  V30 1859 H 171.226 -2.29479 2.29151 0
M  V30 1860 H 171.011 -1.24128 3.71934 0
M  V30 1861 H 172.501 -2.2151 3.5401 0
M  V30 1862 N 172.938 -1.57226 0.108567 0
M  V30 1863 C 174.354 -1.5766 -0.248058 0
M  V30 1864 C 174.554 -1.12063 -1.67464 0
M  V30 1865 O 173.61 -0.803236 -2.39383 0
M  V30 1866 C 174.923 -3.0069 -0.0242287 0
M  V30 1867 C 176.471 -3.12868 -0.0909372 0
M  V30 1868 C 176.946 -4.57879 0.105067 0
M  V30 1869 N 178.437 -4.63172 0.0506846 0
M  V30 1870 C 179.172 -5.73126 0.177396 0
M  V30 1871 N 178.668 -6.91866 0.359696 0
M  V30 1872 N 180.461 -5.61977 0.117709 0
M  V30 1873 H 172.612 -1.85169 1.04049 0
M  V30 1874 H 174.875 -0.85529 0.40888 0
M  V30 1875 H 174.581 -3.38299 0.961604 0
M  V30 1876 H 174.455 -3.6945 -0.76068 0
M  V30 1877 H 176.842 -2.75124 -1.06729 0
M  V30 1878 H 176.923 -2.46672 0.677225 0
M  V30 1879 H 176.567 -4.96321 1.07834 0
M  V30 1880 H 176.497 -5.22153 -0.682954 0
M  V30 1881 H 178.988 -3.778 -0.0871266 0
M  V30 1882 H 179.301 -7.71503 0.447529 0
M  V30 1883 H 177.646 -6.93874 0.395536 0
M  V30 1884 H 180.837 -4.68094 -0.0236741 0
M  V30 1885 H 181.01 -6.47627 0.219905 0
M  V30 1886 N 174.416 0.165178 -1.56732 0
M  V30 1887 C 175.656 0.887231 -1.8414 0
M  V30 1888 C 176.02 1.79159 -0.690353 0
M  V30 1889 O 177.221 2.55172 -0.845032 0
M  V30 1890 C 175.492 1.65674 -3.16681 0
M  V30 1891 S 177.051 2.42671 -3.6559 0
M  V30 1892 H 173.869 0.297042 -0.645978 0
M  V30 1893 H 176.471 0.148439 -1.94936 0
M  V30 1894 H 175.175 0.983507 -3.98441 0
M  V30 1895 H 174.706 2.43679 -3.08843 0
M  V30 1896 H 176.721 3.67499 -3.33406 0
M  V30 1897 N 175.894 1.51508 0.433938 0
M  V30 1898 C 177.124 1.67914 1.20369 0
M  V30 1899 C 177.532 0.377461 1.85397 0
M  V30 1900 O 176.875 -0.654255 1.71654 0
M  V30 1901 C 176.937 2.74045 2.32679 0
M  V30 1902 C 176.601 4.16543 1.87991 0
M  V30 1903 C 177.598 5.01211 1.38145 0
M  V30 1904 C 175.283 4.6266 1.95579 0
M  V30 1905 C 177.277 6.30056 0.964774 0
M  V30 1906 C 174.964 5.91501 1.53523 0
M  V30 1907 C 175.962 6.75027 1.04055 0
M  V30 1908 O 175.65 8.01459 0.625964 0
M  V30 1909 H 175.382 0.566578 0.368735 0
M  V30 1910 H 177.936 1.98709 0.51999 0
M  V30 1911 H 176.166 2.38572 3.04336 0
M  V30 1912 H 177.855 2.79295 2.94532 0
M  V30 1913 H 178.621 4.66783 1.31675 0
M  V30 1914 H 174.5 3.97767 2.33029 0
M  V30 1915 H 178.044 6.95202 0.57796 0
M  V30 1916 H 173.941 6.25442 1.59665 0
M  V30 1917 H 174.709 8.15043 0.751509 0
M  V30 1918 N 177.372 -0.689602 1.41712 0
M  V30 1919 C 178.788 -1.00093 1.24312 0
M  V30 1920 C 178.988 -2.01036 0.136729 0
M  V30 1921 O 178.044 -2.47562 -0.496918 0
M  V30 1922 C 179.357 -1.51985 2.59463 0
M  V30 1923 C 180.905 -1.63838 2.66695 0
M  V30 1924 C 181.38 -2.1913 4.02177 0
M  V30 1925 N 182.871 -2.26483 4.04054 0
M  V30 1926 C 183.606 -2.70306 5.0569 0
M  V30 1927 N 183.102 -3.13691 6.17713 0
M  V30 1928 N 184.895 -2.69923 4.9305 0
M  V30 1929 H 177.046 -0.0210029 2.1239 0
M  V30 1930 H 179.309 -0.0718733 0.945272 0
M  V30 1931 H 179.015 -0.85269 3.41207 0
M  V30 1932 H 178.889 -2.50103 2.82362 0
M  V30 1933 H 181.276 -2.29664 1.85306 0
M  V30 1934 H 181.357 -0.642492 2.476 0
M  V30 1935 H 181.001 -1.53918 4.84016 0
M  V30 1936 H 180.931 -3.19482 4.18615 0
M  V30 1937 H 183.422 -1.95874 3.23174 0
M  V30 1938 H 183.735 -3.45773 6.9113 0
M  V30 1939 H 182.08 -3.11585 6.21241 0
M  V30 1940 H 185.271 -2.35382 4.04614 0
M  V30 1941 H 185.444 -3.03758 5.72394 0
M  V30 1942 N 178.85 -1.27639 -0.924453 0
M  V30 1943 C 180.075 -1.17101 -1.71179 0
M  V30 1944 C 180.5 0.268134 -1.86179 0
M  V30 1945 O 179.858 1.19415 -1.36418 0
M  V30 1946 C 179.906 -1.86313 -3.08739 0
M  V30 1947 O 179.01 -1.16331 -3.95652 0
M  V30 1948 H 178.351 -0.407091 -0.524569 0
M  V30 1949 H 180.881 -1.68767 -1.15666 0
M  V30 1950 H 180.891 -1.938 -3.59034 0
M  V30 1951 H 179.566 -2.91001 -2.97138 0
M  V30 1952 H 178.143 -1.16935 -3.54091 0
M  V30 1953 N 180.328 1.1314 -1.09713 0
M  V30 1954 C 181.568 1.8613 -0.844683 0
M  V30 1955 C 181.932 1.81765 0.618491 0
M  V30 1956 O 183.133 2.50024 0.98699 0
M  V30 1957 C 181.404 3.30151 -1.36877 0
M  V30 1958 S 182.963 4.206 -1.25064 0
M  V30 1959 H 179.781 0.642056 -0.305427 0
M  V30 1960 H 182.383 1.36343 -1.4011 0
M  V30 1961 H 181.087 3.30883 -2.42786 0
M  V30 1962 H 180.618 3.85 -0.808614 0
M  V30 1963 H 182.633 4.95783 -0.203486 0
M  V30 1964 N 181.806 0.884767 1.30421 0
M  V30 1965 C 182.716 0.355398 2.31892 0
M  V30 1966 C 183.732 -0.542261 1.65335 0
M  V30 1967 O 184.908 -0.435432 1.96637 0
M  V30 1968 C 181.973 -0.421661 3.44126 0
M  V30 1969 C 181.034 0.505727 4.26311 0
M  V30 1970 C 180.267 -0.234343 5.33185 0
M  V30 1971 O 180.49 -1.46045 5.51386 0
M  V30 1972 O 179.424 0.415443 6.00465 0
M  V30 1973 H 183.25 1.19685 2.79122 0
M  V30 1974 H 180.835 0.648596 1.34587 0
M  V30 1975 H 182.717 -0.861641 4.12497 0
M  V30 1976 H 181.392 -1.23942 2.99032 0
M  V30 1977 H 180.299 0.994513 3.60639 0
M  V30 1978 H 181.632 1.28948 4.75009 0
M  V30 1979 N 183.284 -1.43765 0.645699 0
M  V30 1980 C 184.512 -2.06253 0.163556 0
M  V30 1981 C 184.927 -1.48352 -1.16778 0
M  V30 1982 O 184.284 -0.611932 -1.71935 0
M  V30 1983 C 184.335 -3.61453 0.0583186 0
M  V30 1984 O 184.056 -4.172 1.33702 0
M  V30 1985 C 185.557 -4.41002 -0.450795 0
M  V30 1986 H 182.777 -0.665413 0.0864077 0
M  V30 1987 H 185.321 -1.84396 0.884222 0
M  V30 1988 H 183.476 -3.82522 -0.612865 0
M  V30 1989 H 183.89 -5.10791 1.19131 0
M  V30 1990 H 185.364 -5.49966 -0.473403 0
M  V30 1991 H 185.841 -4.13488 -1.48068 0
M  V30 1992 H 186.447 -4.24886 0.187637 0
M  V30 1993 N 184.763 -0.387143 -1.52771 0
M  V30 1994 C 185.695 0.484089 -2.2403 0
M  V30 1995 C 186.708 1.02849 -1.26198 0
M  V30 1996 O 187.897 0.931186 -1.52286 0
M  V30 1997 C 184.997 1.68337 -2.94136 0
M  V30 1998 C 184.17 1.26672 -4.18656 0
M  V30 1999 C 183.229 2.33045 -4.7178 0
M  V30 2000 O 182.255 1.94541 -5.34923 0
M  V30 2001 N 183.457 3.64929 -4.5145 0
M  V30 2002 H 186.222 -0.126404 -2.99433 0
M  V30 2003 H 183.783 -0.213392 -1.60488 0
M  V30 2004 H 185.775 2.39019 -3.26577 0
M  V30 2005 H 184.345 2.20025 -2.22053 0
M  V30 2006 H 183.565 0.388878 -3.92277 0
M  V30 2007 H 184.853 0.964964 -4.99566 0
M  V30 2008 H 184.251 3.98974 -4.01044 0
M  V30 2009 H 182.808 4.31651 -4.88386 0
M  V30 2010 N 186.241 1.57166 -0.116904 0
M  V30 2011 C 187.657 1.5779 0.239693 0
M  V30 2012 C 187.857 1.1295 1.66867 0
M  V30 2013 O 186.913 0.81592 2.38954 0
M  V30 2014 C 188.226 3.00699 0.00828202 0
M  V30 2015 C 189.774 3.12912 0.0743438 0
M  V30 2016 C 190.249 4.57817 -0.129348 0
M  V30 2017 N 191.74 4.63139 -0.075247 0
M  V30 2018 C 192.475 5.73023 -0.207788 0
M  V30 2019 N 191.971 6.91665 -0.396382 0
M  V30 2020 N 193.764 5.61906 -0.14751 0
M  V30 2021 H 185.915 1.84615 -1.05029 0
M  V30 2022 H 188.178 0.85311 -0.41341 0
M  V30 2023 H 187.884 3.37784 -0.979531 0
M  V30 2024 H 187.758 3.69848 0.741077 0
M  V30 2025 H 190.145 2.75686 1.05268 0
M  V30 2026 H 190.226 2.4631 -0.690297 0
M  V30 2027 H 189.87 4.95742 -1.10465 0
M  V30 2028 H 189.8 5.22507 0.655253 0
M  V30 2029 H 192.291 3.7784 0.0670898 0
M  V30 2030 H 192.604 7.71255 -0.488437 0
M  V30 2031 H 190.949 6.93654 -0.432329 0
M  V30 2032 H 194.14 4.681 -0.00115036 0
M  V30 2033 H 194.313 6.47501 -0.254247 0
M  V30 2034 N 187.719 -0.156864 1.56817 0
M  V30 2035 C 188.649 -1.19589 2.00551 0
M  V30 2036 C 189.63 -1.4536 0.883426 0
M  V30 2037 O 190.815 -1.56449 1.15054 0
M  V30 2038 C 187.945 -2.53143 2.37773 0
M  V30 2039 C 186.899 -2.41913 3.53075 0
M  V30 2040 C 186.225 -3.80088 3.76081 0
M  V30 2041 C 187.525 -1.91157 4.86062 0
M  V30 2042 H 189.219 -0.832293 2.87599 0
M  V30 2043 H 186.765 -0.398918 1.38364 0
M  V30 2044 H 188.718 -3.26047 2.66967 0
M  V30 2045 H 187.442 -2.91319 1.4765 0
M  V30 2046 H 186.101 -1.71462 3.24031 0
M  V30 2047 H 185.749 -4.15683 2.83225 0
M  V30 2048 H 185.449 -3.73439 4.53671 0
M  V30 2049 H 186.973 -4.54556 4.0769 0
M  V30 2050 H 188.387 -2.53846 5.14038 0
M  V30 2051 H 186.784 -1.95422 5.67389 0
M  V30 2052 H 187.854 -0.866673 4.77092 0
M  V30 2053 N 189.197 -1.51736 -0.425897 0
M  V30 2054 C 190.445 -1.64644 -1.17204 0
M  V30 2055 C 190.766 -0.370486 -1.91448 0
M  V30 2056 O 190.036 0.614088 -1.86026 0
M  V30 2057 H 188.616 -0.606819 -0.435638 0
M  V30 2058 H 191.278 -1.88713 -0.487177 0
M  V30 2059 H 190.374 -2.47958 -1.89534 0
M  V30 2060 N 190.675 0.682077 -1.42076 0
M  V30 2061 C 191.923 1.4393 -1.41876 0
M  V30 2062 C 192.244 1.94971 -0.0335599 0
M  V30 2063 O 191.514 1.72591 0.926773 0
M  V30 2064 H 190.094 0.534085 -0.522267 0
M  V30 2065 H 192.756 0.806427 -1.77434 0
M  V30 2066 H 191.852 2.29588 -2.11414 0
M  V30 2067 N 192.153 1.28127 0.917671 0
M  V30 2068 C 193.564 1.13622 1.48145 0
M  V30 2069 C 193.915 -0.275207 1.9426 0
M  V30 2070 O 193.04 -1.1691 1.82102 0
M  V30 2071 C 193.635 2.05648 2.69248 0
M  V30 2072 C 192.194 1.95219 3.21818 0
M  V30 2073 C 191.341 1.97618 1.94532 0
M  V30 2074 H 194.292 1.40874 0.730772 0
M  V30 2075 H 194.313 1.61818 3.44377 0
M  V30 2076 H 193.825 3.08365 2.35653 0
M  V30 2077 H 191.926 0.955244 3.60147 0
M  V30 2078 H 192.039 2.81976 3.87333 0
M  V30 2079 H 190.403 1.41973 2.11461 0
M  V30 2080 H 191.186 3.02007 1.63238 0
M  V30 2081 N 193.631 -1.12557 1.10312 0
M  V30 2082 C 194.594 -2.16434 0.75424 0
M  V30 2083 C 195.594 -1.59278 -0.220685 0
M  V30 2084 O 196.784 -1.742 0.00230591 0
M  V30 2085 C 193.916 -3.40699 0.116987 0
M  V30 2086 H 195.109 -2.48811 1.67431 0
M  V30 2087 H 192.662 -1.27542 0.903475 0
M  V30 2088 H 193.397 -3.13921 -0.813877 0
M  V30 2089 H 193.182 -3.83459 0.818613 0
M  V30 2090 H 194.672 -4.17451 -0.111387 0
M  V30 2091 N 195.109 -0.891671 -1.2995 0
M  V30 2092 C 196.334 -0.527932 -2.00568 0
M  V30 2093 C 196.759 0.877969 -1.66353 0
M  V30 2094 O 196.117 1.58301 -0.883762 0
M  V30 2095 C 196.165 -0.717745 -3.53385 0
M  V30 2096 O 195.269 0.233376 -4.11739 0
M  V30 2097 H 194.61 -0.20722 -0.630837 0
M  V30 2098 H 197.14 -1.20105 -1.65638 0
M  V30 2099 H 197.15 -0.619307 -4.03272 0
M  V30 2100 H 195.825 -1.74276 -3.77625 0
M  V30 2101 H 194.402 0.0880706 -3.72796 0
M  V30 2102 N 196.587 1.43421 -0.653314 0
M  V30 2103 C 198.003 1.56341 -0.320886 0
M  V30 2104 C 198.203 1.63696 1.17499 0
M  V30 2105 O 197.259 1.59208 1.95982 0
M  V30 2106 C 198.572 2.82424 -1.03233 0
M  V30 2107 C 200.12 2.96168 -1.01259 0
M  V30 2108 C 200.595 4.25084 -1.70492 0
M  V30 2109 N 202.086 4.31948 -1.67257 0
M  V30 2110 C 202.821 5.30466 -2.17701 0
M  V30 2111 N 202.317 6.35261 -2.76434 0
M  V30 2112 N 204.11 5.2212 -2.082 0
M  V30 2113 H 196.261 1.3689 -1.62403 0
M  V30 2114 H 198.524 0.657455 -0.682977 0
M  V30 2115 H 198.23 2.83053 -2.08744 0
M  V30 2116 H 198.104 3.72653 -0.583948 0
M  V30 2117 H 200.491 2.9508 0.0341235 0
M  V30 2118 H 200.572 2.07229 -1.49966 0
M  V30 2119 H 200.216 4.26932 -2.7512 0
M  V30 2120 H 200.146 5.1292 -1.19251 0
M  V30 2121 H 202.637 3.56838 -1.24398 0
M  V30 2122 H 202.95 7.06754 -3.12601 0
M  V30 2123 H 201.295 6.35884 -2.80495 0
M  V30 2124 H 204.486 4.39166 -1.62021 0
M  V30 2125 H 204.659 5.98739 -2.47822 0
M  V30 2126 N 198.065 0.39524 1.52563 0
M  V30 2127 C 199.015 -0.4541 2.23432 0
M  V30 2128 C 199.999 -1.02482 1.24042 0
M  V30 2129 O 201.191 -0.949938 1.49349 0
M  V30 2130 C 198.32 -1.57769 3.049 0
M  V30 2131 C 197.406 -1.01842 4.1169 0
M  V30 2132 N 197.797 -0.184613 5.05463 0
M  V30 2133 C 196.095 -1.29033 4.26927 0
M  V30 2134 C 196.796 0.125013 5.81566 0
M  V30 2135 N 195.772 -0.480498 5.41472 0
M  V30 2136 H 199.574 0.189413 2.93289 0
M  V30 2137 H 197.088 0.204877 1.61102 0
M  V30 2138 H 199.085 -2.19862 3.54212 0
M  V30 2139 H 197.745 -2.22397 2.36579 0
M  V30 2140 H 198.756 0.178602 5.17592 0
M  V30 2141 H 195.433 -1.93721 3.69836 0
M  V30 2142 H 196.823 0.800962 6.67109 0
M  V30 2143 N 199.544 -1.57102 0.125237 0
M  V30 2144 C 200.96 -1.57915 -0.231322 0
M  V30 2145 C 201.16 -1.13833 -1.66266 0
M  V30 2146 O 200.216 -0.828581 -2.38518 0
M  V30 2147 C 201.529 -3.00699 0.00766489 0
M  V30 2148 C 203.077 -3.12947 -0.0577483 0
M  V30 2149 C 203.552 -4.57742 0.153626 0
M  V30 2150 N 205.043 -4.63092 0.0998073 0
M  V30 2151 C 205.778 -5.72905 0.238174 0
M  V30 2152 N 205.274 -6.91445 0.433057 0
M  V30 2153 N 207.067 -5.6182 0.177308 0
M  V30 2154 H 199.218 -1.84055 1.06007 0
M  V30 2155 H 201.481 -0.850905 0.417929 0
M  V30 2156 H 201.187 -3.3726 0.997431 0
M  V30 2157 H 201.061 -3.70236 -0.721452 0
M  V30 2158 H 203.448 -2.7624 -1.03804 0
M  V30 2159 H 203.529 -2.4594 0.70335 0
M  V30 2160 H 203.173 -4.95149 1.13092 0
M  V30 2161 H 203.103 -5.22848 -0.627534 0
M  V30 2162 H 205.594 -3.77871 -0.047051 0
M  V30 2163 H 205.907 -7.70985 0.529332 0
M  V30 2164 H 204.252 -6.93415 0.469109 0
M  V30 2165 H 207.443 -4.68093 0.0259748 0
M  V30 2166 H 207.616 -6.47357 0.288582 0
M  V30 2167 N 201.022 0.148545 -1.56898 0
M  V30 2168 C 202.268 0.862694 -1.83536 0
M  V30 2169 C 202.601 1.80889 -0.706604 0
M  V30 2170 O 201.876 1.92328 0.289885 0
M  V30 2171 C 202.159 1.63853 -3.20662 0
M  V30 2172 C 202.012 0.713925 -4.44098 0
M  V30 2173 C 203.331 2.60133 -3.54991 0
M  V30 2174 H 200.45 0.312179 -0.667618 0
M  V30 2175 H 203.092 0.127953 -1.89569 0
M  V30 2176 H 201.242 2.26489 -3.1565 0
M  V30 2177 H 202.914 0.098686 -4.61194 0
M  V30 2178 H 201.157 0.0234019 -4.33794 0
M  V30 2179 H 201.828 1.29278 -5.36648 0
M  V30 2180 H 204.304 2.07616 -3.60603 0
M  V30 2181 H 203.18 3.11468 -4.51972 0
M  V30 2182 H 203.441 3.41417 -2.80868 0
M  V30 2183 N 202.5 1.5196 0.417844 0
M  V30 2184 C 203.725 1.69717 1.1921 0
M  V30 2185 C 204.15 0.402148 1.83751 0
M  V30 2186 O 203.508 -0.639593 1.69643 0
M  V30 2187 C 203.556 2.82794 2.2374 0
M  V30 2188 O 202.66 2.47756 3.29683 0
M  V30 2189 H 202.001 0.565263 0.348387 0
M  V30 2190 H 204.531 1.98621 0.490985 0
M  V30 2191 H 204.541 3.07452 2.68212 0
M  V30 2192 H 203.216 3.76756 1.76146 0
M  V30 2193 H 201.793 2.33739 2.90552 0
M  V30 2194 N 203.978 -0.674533 1.42435 0
M  V30 2195 C 204.888 -1.81751 1.48337 0
M  V30 2196 C 205.904 -1.69975 0.372099 0
M  V30 2197 O 207.08 -1.91521 0.62304 0
M  V30 2198 C 204.145 -3.17895 1.38361 0
M  V30 2199 C 203.206 -3.41625 2.59982 0
M  V30 2200 C 202.439 -4.71274 2.50473 0
M  V30 2201 O 202.662 -5.49197 1.54075 0
M  V30 2202 O 201.596 -4.96254 3.4061 0
M  V30 2203 H 205.422 -1.79728 2.44809 0
M  V30 2204 H 203.007 -0.830312 1.24202 0
M  V30 2205 H 204.889 -3.99136 1.35161 0
M  V30 2206 H 203.564 -3.20555 0.450144 0
M  V30 2207 H 202.471 -2.60231 2.68757 0
M  V30 2208 H 203.804 -3.43796 3.52229 0
M  V30 2209 N 205.456 -1.28612 -0.910864 0
M  V30 2210 C 206.733 -1.06632 -1.63979 0
M  V30 2211 C 207.113 0.393351 -2.07403 0
M  V30 2212 O 206.461 1.37999 -1.82122 0
M  V30 2213 C 206.671 -2.0436 -2.8291 0
M  V30 2214 C 208.019 -2.34666 -3.5386 0
M  V30 2215 O 209.043 -2.02467 -2.93062 0
M  V30 2216 O 207.902 -2.89631 -4.63439 0
M  V30 2217 H 204.996 -0.407737 -0.7195 0
M  V30 2218 H 207.542 -1.39942 -0.959914 0
M  V30 2219 H 206.314 -3.02727 -2.47936 0
M  V30 2220 H 205.937 -1.71714 -3.58609 0
M  V30 2221 N 206.934 1.1197 -1.10907 0
M  V30 2222 C 208.18 1.8386 -0.855773 0
M  V30 2223 C 208.513 1.84134 0.617103 0
M  V30 2224 O 207.788 1.29041 1.45529 0
M  V30 2225 C 208.071 3.31305 -1.411 0
M  V30 2226 C 207.924 3.39456 -2.9511 0
M  V30 2227 C 209.243 4.2721 -1.05736 0
M  V30 2228 H 206.362 0.667545 -0.312334 0
M  V30 2229 H 209.004 1.31331 -1.37303 0
M  V30 2230 H 207.154 3.76169 -0.97105 0
M  V30 2231 H 208.826 3.03191 -3.47668 0
M  V30 2232 H 207.069 2.79849 -3.31462 0
M  V30 2233 H 207.74 4.43209 -3.29044 0
M  V30 2234 H 210.216 3.90497 -1.43706 0
M  V30 2235 H 209.092 5.28775 -1.47269 0
M  V30 2236 H 209.353 4.42088 0.0325958 0
M  V30 2237 N 208.412 0.89855 1.29475 0
M  V30 2238 C 209.828 0.594483 1.48115 0
M  V30 2239 C 210.028 -0.86431 1.82022 0
M  V30 2240 O 209.084 -1.64457 1.91599 0
M  V30 2241 C 210.397 1.51932 2.59494 0
M  V30 2242 C 211.945 1.5244 2.7337 0
M  V30 2243 C 212.42 2.43548 3.87877 0
M  V30 2244 N 213.911 2.41589 3.95208 0
M  V30 2245 C 214.646 3.08789 4.83153 0
M  V30 2246 N 214.142 3.85265 5.75798 0
M  V30 2247 N 215.935 2.97952 4.76635 0
M  V30 2248 H 208.086 1.84207 1.05742 0
M  V30 2249 H 210.349 0.789251 0.525154 0
M  V30 2250 H 210.055 2.55865 2.41301 0
M  V30 2251 H 209.929 1.23899 3.56271 0
M  V30 2252 H 212.316 0.492518 2.90961 0
M  V30 2253 H 212.397 1.8451 1.77172 0
M  V30 2254 H 212.041 3.46829 3.71041 0
M  V30 2255 H 211.971 2.08788 4.83441 0
M  V30 2256 H 214.462 1.86025 3.28943 0
M  V30 2257 H 214.775 4.33598 6.39697 0
M  V30 2258 H 213.12 3.89371 5.75687 0
M  V30 2259 H 216.311 2.37723 4.03244 0
M  V30 2260 H 216.484 3.50599 5.44962 0
M  V30 2261 N 209.89 -1.43072 0.660911 0
M  V30 2262 C 211.115 -2.06584 0.183805 0
M  V30 2263 C 211.54 -1.49257 -1.14472 0
M  V30 2264 O 210.898 -0.605528 -1.70889 0
M  V30 2265 C 210.946 -3.60418 0.114434 0
M  V30 2266 O 210.05 -4.01981 -0.921137 0
M  V30 2267 H 209.391 -0.656669 0.0983994 0
M  V30 2268 H 211.921 -1.83447 0.906006 0
M  V30 2269 H 211.931 -4.07946 -0.0663394 0
M  V30 2270 H 210.606 -4.01519 1.08422 0
M  V30 2271 H 209.183 -3.66029 -0.71253 0
M  V30 2272 N 211.368 -0.403325 -1.52352 0
M  V30 2273 C 212.645 0.232611 -1.94212 0
M  V30 2274 C 213.025 1.63133 -1.33981 0
M  V30 2275 O 212.373 2.22659 -0.513344 0
M  V30 2276 C 212.583 0.244811 -3.4814 0
M  V30 2277 C 213.931 0.46698 -4.22024 0
M  V30 2278 O 214.955 0.324419 -3.5472 0
M  V30 2279 O 213.814 0.74747 -5.41364 0
M  V30 2280 H 210.908 0.148223 -0.813609 0
M  V30 2281 H 213.454 -0.458848 -1.63379 0
M  V30 2282 H 212.226 -0.734378 -3.84347 0
M  V30 2283 H 211.849 0.980611 -3.85318 0
M  V30 2284 N 212.846 1.57033 -0.133567 0
M  V30 2285 C 214.093 1.95686 0.520877 0
M  V30 2286 C 214.421 1.0177 1.6575 0
M  V30 2287 O 213.676 0.0443195 1.9565 0
M  V30 2288 C 213.975 3.40674 1.08057 0
M  V30 2289 C 213.641 4.50855 0.0637899 0
M  V30 2290 C 212.303 4.80716 -0.215757 0
M  V30 2291 C 214.655 5.17398 -0.62835 0
M  V30 2292 C 211.983 5.74433 -1.19348 0
M  V30 2293 C 214.335 6.12167 -1.5948 0
M  V30 2294 C 212.999 6.40414 -1.88218 0
M  V30 2295 H 212.269 0.716067 0.190602 0
M  V30 2296 H 214.916 1.9026 -0.217556 0
M  V30 2297 H 213.221 3.42865 1.89606 0
M  V30 2298 H 214.918 3.67902 1.59529 0
M  V30 2299 H 211.508 4.27605 0.291855 0
M  V30 2300 H 215.692 4.94472 -0.425562 0
M  V30 2301 H 210.948 5.94616 -1.42272 0
M  V30 2302 H 215.122 6.6281 -2.13671 0
M  V30 2303 H 212.749 7.12838 -2.64133 0
M  V30 2304 N 214.325 -0.140222 1.56975 0
M  V30 2305 C 215.257 -1.19818 1.95388 0
M  V30 2306 C 216.27 -1.38816 0.850525 0
M  V30 2307 O 217.459 -1.38267 1.12891 0
M  V30 2308 C 214.559 -2.56189 2.21857 0
M  V30 2309 C 213.732 -2.58077 3.5315 0
M  V30 2310 C 212.791 -3.76037 3.6808 0
M  V30 2311 O 211.817 -3.60598 4.40406 0
M  V30 2312 N 213.019 -4.93763 3.05251 0
M  V30 2313 H 215.784 -0.871609 2.86746 0
M  V30 2314 H 213.345 -0.32972 1.58507 0
M  V30 2315 H 215.337 -3.33623 2.2908 0
M  V30 2316 H 213.907 -2.81111 1.36731 0
M  V30 2317 H 213.127 -1.6651 3.57307 0
M  V30 2318 H 214.415 -2.56377 4.39486 0
M  V30 2319 H 213.813 -5.09209 2.46419 0
M  V30 2320 H 212.37 -5.68949 3.18026 0
M  V30 2321 N 215.803 -1.52179 -0.40978 0
M  V30 2322 C 217.219 -1.40968 -0.74835 0
M  V30 2323 C 217.419 -0.513657 -1.94843 0
M  V30 2324 O 216.475 0.0208026 -2.52491 0
M  V30 2325 C 217.788 -2.83483 -1.0029 0
M  V30 2326 C 219.336 -2.92821 -1.10565 0
M  V30 2327 C 219.811 -4.36303 -1.39296 0
M  V30 2328 N 221.302 -4.39535 -1.46162 0
M  V30 2329 C 222.037 -5.47614 -1.70018 0
M  V30 2330 N 221.533 -6.65812 -1.91483 0
M  V30 2331 N 223.326 -5.35129 -1.72027 0
M  V30 2332 H 215.477 -2.0897 0.380186 0
M  V30 2333 H 217.74 -0.94185 0.107805 0
M  V30 2334 H 217.446 -3.51168 -0.193461 0
M  V30 2335 H 217.32 -3.24487 -1.92323 0
M  V30 2336 H 219.707 -2.25318 -1.90568 0
M  V30 2337 H 219.788 -2.55276 -0.16369 0
M  V30 2338 H 219.432 -5.04366 -0.598109 0
M  V30 2339 H 219.362 -4.71385 -2.34743 0
M  V30 2340 H 221.853 -3.54332 -1.31367 0
M  V30 2341 H 222.166 -7.43964 -2.09134 0
M  V30 2342 H 220.511 -6.68879 -1.88749 0
M  V30 2343 H 223.702 -4.41764 -1.54796 0
M  V30 2344 H 223.875 -6.19433 -1.9028 0
M  V30 2345 N 217.281 0.66697 -1.42791 0
M  V30 2346 C 218.697 0.981027 -1.25889 0
M  V30 2347 C 218.897 2.00793 -0.168695 0
M  V30 2348 O 217.953 2.48321 0.45747 0
M  V30 2349 C 219.266 1.47838 -2.61848 0
M  V30 2350 C 220.814 1.59575 -2.69267 0
M  V30 2351 C 221.289 2.12704 -4.05612 0
M  V30 2352 N 222.78 2.20026 -4.07606 0
M  V30 2353 C 223.515 2.62227 -5.09926 0
M  V30 2354 N 223.011 3.03824 -6.22626 0
M  V30 2355 N 224.804 2.62045 -4.97281 0
M  V30 2356 H 216.955 -0.0127891 -2.12396 0
M  V30 2357 H 219.218 0.0568258 -0.946295 0
M  V30 2358 H 218.924 0.798299 -3.4252 0
M  V30 2359 H 218.798 2.45579 -2.86305 0
M  V30 2360 H 221.185 2.26687 -1.88936 0
M  V30 2361 H 221.266 0.60302 -2.48591 0
M  V30 2362 H 220.91 1.46198 -4.86404 0
M  V30 2363 H 220.84 3.12782 -4.23645 0
M  V30 2364 H 223.331 1.90708 -3.2625 0
M  V30 2365 H 223.644 3.34734 -6.96544 0
M  V30 2366 H 221.989 3.01662 -6.26119 0
M  V30 2367 H 225.18 2.28916 -4.08308 0
M  V30 2368 H 225.353 2.94613 -5.77154 0
M  V30 2369 N 218.759 1.29093 0.90403 0
M  V30 2370 C 220.005 1.16986 1.65656 0
M  V30 2371 C 220.338 -0.278925 1.92186 0
M  V30 2372 O 219.613 -1.2019 1.5292 0
M  V30 2373 C 219.896 1.97908 3.0084 0
M  V30 2374 C 219.749 3.50903 2.81403 0
M  V30 2375 C 221.068 1.80208 4.01513 0
M  V30 2376 H 218.187 0.426346 0.601164 0
M  V30 2377 H 220.829 1.58518 1.04747 0
M  V30 2378 H 218.979 1.62616 3.52829 0
M  V30 2379 H 220.651 3.96153 2.36348 0
M  V30 2380 H 218.894 3.76045 2.1627 0
M  V30 2381 H 219.565 4.02791 3.77443 0
M  V30 2382 H 222.041 2.11025 3.58619 0
M  V30 2383 H 220.917 2.39184 4.94047 0
M  V30 2384 H 221.178 0.756119 4.35586 0
M  V30 2385 N 220.237 -1.11381 1.11499 0
M  V30 2386 C 221.648 -1.6465 0.880191 0
M  V30 2387 C 221.999 -1.87199 -0.587434 0
M  V30 2388 O 221.124 -1.60667 -1.44966 0
M  V30 2389 C 221.719 -2.99105 1.59128 0
M  V30 2390 C 220.278 -3.49279 1.40289 0
M  V30 2391 C 219.425 -2.24077 1.63354 0
M  V30 2392 H 222.376 -0.950123 1.27116 0
M  V30 2393 H 222.397 -3.66107 1.03664 0
M  V30 2394 H 221.909 -2.82661 2.65941 0
M  V30 2395 H 220.01 -3.70887 0.356888 0
M  V30 2396 H 220.123 -4.2803 2.15238 0
M  V30 2397 H 218.487 -2.31733 1.05698 0
M  V30 2398 H 219.27 -2.10175 2.71443 0
M  V30 2399 N 221.715 -0.905404 -1.28997 0
M  V30 2400 C 222.945 -0.549049 -1.99171 0
M  V30 2401 C 223.353 0.87203 -1.67906 0
M  V30 2402 O 222.696 1.58796 -0.923561 0
M  V30 2403 C 222.758 -0.668306 -3.53234 0
M  V30 2404 C 222.422 -2.0574 -4.08069 0
M  V30 2405 C 223.419 -3.0292 -4.22534 0
M  V30 2406 C 221.104 -2.36833 -4.42962 0
M  V30 2407 C 223.098 -4.29314 -4.71135 0
M  V30 2408 C 220.785 -3.63467 -4.91258 0
M  V30 2409 C 221.783 -4.59522 -5.053 0
M  V30 2410 O 221.471 -5.83907 -5.52546 0
M  V30 2411 H 221.203 -0.208784 -0.64295 0
M  V30 2412 H 223.757 -1.21836 -1.65363 0
M  V30 2413 H 221.987 0.0580547 -3.86656 0
M  V30 2414 H 223.676 -0.320273 -4.04634 0
M  V30 2415 H 224.442 -2.80216 -3.95859 0
M  V30 2416 H 220.321 -1.62824 -4.31288 0
M  V30 2417 H 223.865 -5.04293 -4.8201 0
M  V30 2418 H 219.762 -3.86 -5.17372 0
M  V30 2419 H 220.53 -5.86578 -5.70849 0
M  V30 2420 N 223.193 1.4272 -0.668489 0
M  V30 2421 C 224.141 2.32586 0.0254857 0
M  V30 2422 C 225.135 1.49471 0.797176 0
M  V30 2423 O 226.341 1.65583 0.705853 0
M  V30 2424 H 222.716 0.751514 0.0270339 0
M  V30 2425 H 224.687 2.88823 -0.749936 0
M  V30 2426 C 223.436 3.3397 0.967427 0
M  V30 2427 H 222.759 3.97961 0.383048 0
M  V30 2428 H 224.199 3.9945 1.42181 0
M  V30 2429 C 222.658 2.65744 2.0708 0
M  V30 2430 O 223.188 2.48454 3.15648 0
M  V30 2431 N 221.394 2.2487 1.8407 0
M  V30 2432 H 220.941 2.39132 0.95778 0
M  V30 2433 H 220.899 1.79552 2.58086 0
M  V30 2434 N 224.671 0.411399 1.52136 0
M  V30 2435 C 225.901 -0.16284 2.05957 0
M  V30 2436 C 226.309 -1.3922 1.28119 0
M  V30 2437 O 225.652 -1.80768 0.326881 0
M  V30 2438 C 225.714 -0.575946 3.54856 0
M  V30 2439 C 225.378 0.542998 4.53763 0
M  V30 2440 C 226.375 1.40726 5.00492 0
M  V30 2441 C 224.06 0.716337 4.97166 0
M  V30 2442 C 226.054 2.4298 5.8927 0
M  V30 2443 C 223.741 1.74218 5.8574 0
M  V30 2444 C 224.739 2.59731 6.31687 0
M  V30 2445 O 224.427 3.60558 7.18507 0
M  V30 2446 H 224.159 -0.0229125 0.675612 0
M  V30 2447 H 226.713 0.581634 1.96993 0
M  V30 2448 H 224.943 -1.37274 3.61515 0
M  V30 2449 H 226.632 -1.07836 3.91313 0
M  V30 2450 H 227.398 1.28476 4.67674 0
M  V30 2451 H 223.277 0.0603857 4.6096 0
M  V30 2452 H 226.821 3.0976 6.25055 0
M  V30 2453 H 222.718 1.86498 6.17971 0
M  V30 2454 H 223.486 3.56829 7.36624 0
M  V30 2455 N 226.149 -1.5696 0.141893 0
M  V30 2456 C 227.079 -2.19516 -0.795936 0
M  V30 2457 C 228.06 -1.14187 -1.26077 0
M  V30 2458 O 229.245 -1.42511 -1.31925 0
M  V30 2459 C 226.375 -2.81272 -2.03723 0
M  V30 2460 C 225.329 -3.92384 -1.70936 0
M  V30 2461 C 224.655 -4.41052 -3.02287 0
M  V30 2462 C 225.955 -5.13403 -0.959954 0
M  V30 2463 H 227.649 -2.98138 -0.274596 0
M  V30 2464 H 225.195 -1.43406 -0.130636 0
M  V30 2465 H 227.148 -3.237 -2.69808 0
M  V30 2466 H 225.872 -1.99973 -2.58221 0
M  V30 2467 H 224.531 -3.50566 -1.07232 0
M  V30 2468 H 224.179 -3.56582 -3.54765 0
M  V30 2469 H 223.879 -5.15993 -2.81114 0
M  V30 2470 H 225.403 -4.86146 -3.69451 0
M  V30 2471 H 226.817 -5.52706 -1.52279 0
M  V30 2472 H 225.214 -5.94073 -0.848357 0
M  V30 2473 H 226.284 -4.84875 0.0492434 0
M  V30 2474 N 227.627 0.131896 -1.57047 0
M  V30 2475 C 228.559 1.1878 -1.9602 0
M  V30 2476 C 229.572 1.38363 -0.857875 0
M  V30 2477 O 230.761 1.37666 -1.13623 0
M  V30 2478 C 227.861 2.55008 -2.23213 0
M  V30 2479 C 227.034 2.56201 -3.54513 0
M  V30 2480 C 226.093 3.7408 -3.70069 0
M  V30 2481 O 225.119 3.58258 -4.42312 0
M  V30 2482 N 226.321 4.92137 -3.07866 0
M  V30 2483 H 229.086 0.85639 -2.87204 0
M  V30 2484 H 226.647 0.321309 -1.5868 0
M  V30 2485 H 228.639 3.32404 -2.30846 0
M  V30 2486 H 227.209 2.80382 -1.3822 0
M  V30 2487 H 226.429 1.64613 -3.58185 0
M  V30 2488 H 227.717 2.54043 -4.4084 0
M  V30 2489 H 227.115 5.07895 -2.49116 0
M  V30 2490 H 225.672 5.67254 -3.21039 0
M  V30 2491 N 229.106 1.52395 0.401703 0
M  V30 2492 C 230.522 1.41363 0.740864 0
M  V30 2493 C 230.722 0.523982 1.94568 0
M  V30 2494 O 229.778 -0.00741204 2.52499 0
M  V30 2495 C 231.091 2.84011 0.987847 0
M  V30 2496 C 232.639 2.93404 1.09011 0
M  V30 2497 C 233.114 4.37036 1.3698 0
M  V30 2498 N 234.605 4.40304 1.43829 0
M  V30 2499 C 235.34 5.48508 1.67112 0
M  V30 2500 N 234.836 6.66819 1.87949 0
M  V30 2501 N 236.629 5.36034 1.69187 0
M  V30 2502 H 228.78 2.08765 -0.391262 0
M  V30 2503 H 231.043 0.941265 -0.112798 0
M  V30 2504 H 230.749 3.51265 0.174835 0
M  V30 2505 H 230.623 3.25502 1.906 0
M  V30 2506 H 233.01 2.26325 1.8937 0
M  V30 2507 H 233.091 2.55359 0.15015 0
M  V30 2508 H 232.735 5.04676 0.571353 0
M  V30 2509 H 232.665 4.72623 2.3224 0
M  V30 2510 H 235.156 3.55024 1.29486 0
M  V30 2511 H 235.469 7.45063 2.05185 0
M  V30 2512 H 233.814 6.6987 1.85199 0
M  V30 2513 H 237.005 4.42579 1.52451 0
M  V30 2514 H 237.178 6.20434 1.86993 0
M  V30 2515 N 230.584 -0.659388 1.43143 0
M  V30 2516 C 231.547 -1.75432 1.47501 0
M  V30 2517 C 232.547 -1.56707 0.360512 0
M  V30 2518 O 233.737 -1.62717 0.622002 0
M  V30 2519 C 230.869 -3.14239 1.32162 0
M  V30 2520 H 232.062 -1.7295 2.45006 0
M  V30 2521 H 229.615 -0.870469 1.29817 0
M  V30 2522 H 230.35 -3.22336 0.356401 0
M  V30 2523 H 230.135 -3.29235 2.12948 0
M  V30 2524 H 231.625 -3.94094 1.3813 0
M  V30 2525 N 232.062 -1.29571 -0.897171 0
M  V30 2526 C 233.292 -1.20408 -1.67886 0
M  V30 2527 C 233.7 0.237429 -1.87704 0
M  V30 2528 O 233.043 1.17048 -1.41582 0
M  V30 2529 C 233.105 -1.84887 -3.08314 0
M  V30 2530 C 232.769 -3.34189 -3.11716 0
M  V30 2531 C 233.766 -4.30374 -2.91675 0
M  V30 2532 C 231.451 -3.75431 -3.33701 0
M  V30 2533 C 233.445 -5.65776 -2.93557 0
M  V30 2534 C 231.132 -5.10955 -3.35214 0
M  V30 2535 C 232.13 -6.05938 -3.15164 0
M  V30 2536 O 231.818 -7.38987 -3.1647 0
M  V30 2537 H 231.55 -0.418289 -0.531046 0
M  V30 2538 H 234.104 -1.71514 -1.13014 0
M  V30 2539 H 232.334 -1.28295 -3.64798 0
M  V30 2540 H 234.023 -1.70011 -3.6858 0
M  V30 2541 H 234.789 -3.99844 -2.74499 0
M  V30 2542 H 230.668 -3.01953 -3.48347 0
M  V30 2543 H 234.212 -6.39889 -2.77826 0
M  V30 2544 H 230.109 -5.4113 -3.51922 0
M  V30 2545 H 230.877 -7.47823 -3.3272 0
M  V30 2546 N 233.54 1.10788 -1.12088 0
M  V30 2547 C 234.789 1.82036 -0.868659 0
M  V30 2548 C 235.102 1.85929 0.607426 0
M  V30 2549 O 236.308 2.53346 0.97613 0
M  V30 2550 C 234.764 3.26951 -1.50435 0
M  V30 2551 C 234.372 3.31367 -3.01496 0
M  V30 2552 C 236.116 4.03053 -1.33225 0
M  V30 2553 C 234.023 4.7072 -3.58017 0
M  V30 2554 H 232.953 0.682108 -0.321318 0
M  V30 2555 H 235.604 1.24618 -1.34694 0
M  V30 2556 H 233.986 3.84343 -0.953735 0
M  V30 2557 H 235.16 2.83819 -3.6302 0
M  V30 2558 H 233.475 2.6875 -3.18061 0
M  V30 2559 H 236.072 5.05981 -1.72878 0
M  V30 2560 H 236.415 4.15387 -0.275529 0
M  V30 2561 H 236.948 3.52066 -1.85188 0
M  V30 2562 H 233.687 4.63585 -4.63432 0
M  V30 2563 H 233.207 5.1865 -3.01268 0
M  V30 2564 H 234.886 5.39685 -3.56859 0
M  V30 2565 N 235.018 0.912232 1.28515 0
M  V30 2566 C 235.965 0.397954 2.27343 0
M  V30 2567 C 236.935 -0.526766 1.57526 0
M  V30 2568 O 238.12 -0.449292 1.85435 0
M  V30 2569 C 235.26 -0.357263 3.43246 0
M  V30 2570 C 234.373 0.599788 4.27816 0
M  V30 2571 C 233.508 -0.173725 5.30916 0
M  V30 2572 C 232.547 0.777039 6.07148 0
M  V30 2573 N 231.684 0.0371398 7.0209 0
M  V30 2574 H 236.524 1.24577 2.70711 0
M  V30 2575 H 234.061 0.625612 1.33133 0
M  V30 2576 H 236.019 -0.8113 4.09236 0
M  V30 2577 H 234.649 -1.16943 3.00872 0
M  V30 2578 H 233.701 1.17235 3.61884 0
M  V30 2579 H 235.013 1.32704 4.80823 0
M  V30 2580 H 234.167 -0.688394 6.02782 0
M  V30 2581 H 232.906 -0.934041 4.78672 0
M  V30 2582 H 231.911 1.3031 5.34134 0
M  V30 2583 H 233.136 1.53689 6.61481 0
M  V30 2584 H 231.082 -0.705213 6.52198 0
M  V30 2585 H 230.999 0.704249 7.52713 0
M  V30 2586 H 232.267 -0.457383 7.78157 0
M  V30 2587 N 236.496 -1.42363 0.676048 0
M  V30 2588 C 237.426 -2.33497 0.0124832 0
M  V30 2589 C 238.407 -1.50748 -0.787981 0
M  V30 2590 O 239.592 -1.79346 -0.744884 0
M  V30 2591 C 236.722 -3.34377 -0.938582 0
M  V30 2592 C 235.676 -4.27289 -0.246622 0
M  V30 2593 C 235.002 -5.18386 -1.31071 0
M  V30 2594 C 236.302 -5.14916 0.875125 0
M  V30 2595 H 237.996 -2.89233 0.773593 0
M  V30 2596 H 235.542 -1.39073 0.37346 0
M  V30 2597 H 237.495 -3.97044 -1.41188 0
M  V30 2598 H 236.219 -2.76947 -1.73113 0
M  V30 2599 H 234.878 -3.66018 0.206456 0
M  V30 2600 H 234.526 -4.57282 -2.09528 0
M  V30 2601 H 234.226 -5.81378 -0.852839 0
M  V30 2602 H 235.75 -5.83929 -1.78492 0
M  V30 2603 H 237.164 -5.71262 0.482983 0
M  V30 2604 H 235.561 -5.86747 1.25887 0
M  V30 2605 H 236.631 -4.53242 1.72335 0
M  V30 2606 N 237.974 -0.419461 -1.51915 0
M  V30 2607 C 238.922 0.415502 -2.28859 0
M  V30 2608 C 239.916 1.03674 -1.3397 0
M  V30 2609 O 241.122 0.973757 -1.51387 0
M  V30 2610 H 237.497 0.152786 -0.736315 0
M  V30 2611 H 239.468 -0.254531 -2.97312 0
M  V30 2612 C 238.217 1.51425 -3.12995 0
M  V30 2613 H 237.54 1.04556 -3.85886 0
M  V30 2614 H 238.98 2.07208 -3.6992 0
M  V30 2615 C 237.439 2.48745 -2.27217 0
M  V30 2616 O 237.969 3.52871 -1.9195 0
M  V30 2617 N 236.175 2.19202 -1.90785 0
M  V30 2618 H 235.722 1.34556 -2.19664 0
M  V30 2619 H 235.68 2.84561 -1.33687 0
M  V30 2620 N 239.452 1.56882 -0.150215 0
M  V30 2621 C 240.384 2.14057 0.819286 0
M  V30 2622 C 241.397 1.09082 1.20851 0
M  V30 2623 O 242.586 1.36347 1.15203 0
M  V30 2624 C 239.686 2.65102 2.11127 0
M  V30 2625 C 238.859 3.94511 1.88891 0
M  V30 2626 C 237.918 4.30834 3.02107 0
M  V30 2627 O 236.944 4.99099 2.73659 0
M  V30 2628 N 238.146 3.90676 4.29363 0
M  V30 2629 H 240.911 2.97871 0.330618 0
M  V30 2630 H 238.472 1.61866 0.0332538 0
M  V30 2631 H 240.464 2.86411 2.85921 0
M  V30 2632 H 239.034 1.85994 2.51247 0
M  V30 2633 H 238.254 3.81795 0.981152 0
M  V30 2634 H 239.542 4.7907 1.71376 0
M  V30 2635 H 238.94 3.35677 4.55343 0
M  V30 2636 H 237.497 4.1703 5.00928 0
M  V30 2637 N 240.93 -0.123565 1.57115 0
M  V30 2638 C 241.86 -1.15309 2.03042 0
M  V30 2639 C 242.841 -1.43454 0.914061 0
M  V30 2640 O 244.026 -1.53973 1.18347 0
M  V30 2641 C 241.156 -2.48043 2.43089 0
M  V30 2642 C 240.11 -2.3437 3.58127 0
M  V30 2643 C 239.436 -3.72026 3.84059 0
M  V30 2644 C 240.736 -1.80804 4.90007 0
M  V30 2645 H 242.43 -0.771102 2.893 0
M  V30 2646 H 239.976 -0.369479 1.39179 0
M  V30 2647 H 241.929 -3.20311 2.73823 0
M  V30 2648 H 240.653 -2.88122 1.53796 0
M  V30 2649 H 239.312 -1.64551 3.27595 0
M  V30 2650 H 238.96 -4.09582 2.91979 0
M  V30 2651 H 238.66 -3.63732 4.6149 0
M  V30 2652 H 240.184 -4.45806 4.1724 0
M  V30 2653 H 241.598 -2.42886 5.19307 0
M  V30 2654 H 239.995 -1.83343 5.71407 0
M  V30 2655 H 241.065 -0.76528 4.78823 0
M  V30 2656 N 242.408 -1.52605 -0.393616 0
M  V30 2657 C 243.318 -1.79971 -1.50492 0
M  V30 2658 C 244.334 -0.686181 -1.59899 0
M  V30 2659 O 245.51 -0.973274 -1.76322 0
M  V30 2660 C 242.575 -1.95867 -2.86072 0
M  V30 2661 C 241.636 -3.19781 -2.86424 0
M  V30 2662 C 240.869 -3.34909 -4.15538 0
M  V30 2663 O 241.092 -2.54948 -5.10253 0
M  V30 2664 O 240.026 -4.28141 -4.23059 0
M  V30 2665 H 243.852 -2.74328 -1.30299 0
M  V30 2666 H 241.437 -1.3764 -0.581005 0
M  V30 2667 H 243.319 -2.08056 -3.66457 0
M  V30 2668 H 241.994 -1.04699 -3.063 0
M  V30 2669 H 240.901 -3.13038 -2.04837 0
M  V30 2670 H 242.234 -4.1078 -2.71147 0
M  V30 2671 N 243.887 0.651787 -1.4349 0
M  V30 2672 C 244.834 1.76462 -1.4876 0
M  V30 2673 C 245.804 1.62641 -0.337189 0
M  V30 2674 O 246.989 1.82864 -0.544544 0
M  V30 2675 C 244.129 3.14623 -1.41796 0
M  V30 2676 C 243.242 3.39568 -2.67053 0
M  V30 2677 C 242.377 4.67585 -2.52068 0
M  V30 2678 C 241.416 4.85639 -3.72587 0
M  V30 2679 N 240.553 6.04915 -3.56402 0
M  V30 2680 H 245.393 1.71293 -2.43849 0
M  V30 2681 H 242.93 0.835889 -1.21043 0
M  V30 2682 H 244.888 3.94496 -1.35753 0
M  V30 2683 H 243.518 3.18859 -0.50288 0
M  V30 2684 H 242.57 2.53783 -2.8337 0
M  V30 2685 H 243.882 3.48795 -3.56572 0
M  V30 2686 H 243.036 5.55586 -2.4374 0
M  V30 2687 H 241.775 4.60681 -1.60075 0
M  V30 2688 H 240.78 3.96073 -3.81321 0
M  V30 2689 H 242.005 4.94372 -4.65589 0
M  V30 2690 H 239.951 5.9914 -2.67146 0
M  V30 2691 H 239.868 6.15106 -4.39524 0
M  V30 2692 H 241.136 6.95533 -3.51929 0
M  V30 2693 N 245.365 1.30045 0.890287 0
M  V30 2694 C 246.328 1.15963 1.977 0
M  V30 2695 C 247.328 0.0923777 1.60534 0
M  V30 2696 O 248.518 0.340071 1.70848 0
M  V30 2697 C 245.65 0.775451 3.31963 0
M  V30 2698 H 246.843 2.12502 2.11619 0
M  V30 2699 H 244.396 1.13366 1.07601 0
M  V30 2700 H 245.131 -0.189671 3.23745 0
M  V30 2701 H 244.916 1.54668 3.60306 0
M  V30 2702 H 246.406 0.700251 4.11687 0
M  V30 2703 N 246.843 -1.10192 1.12674 0
M  V30 2704 C 248.089 -1.82475 0.884915 0
M  V30 2705 C 248.422 -1.85093 -0.58773 0
M  V30 2706 O 247.697 -1.3134 -1.43457 0
M  V30 2707 C 247.98 -3.29018 1.46353 0
M  V30 2708 C 247.833 -3.34718 3.00473 0
M  V30 2709 C 249.152 -4.25473 1.12519 0
M  V30 2710 H 246.271 -0.662492 0.322915 0
M  V30 2711 H 248.913 -1.2913 1.39375 0
M  V30 2712 H 247.063 -3.74576 1.03077 0
M  V30 2713 H 248.735 -2.97622 3.52447 0
M  V30 2714 H 246.978 -2.74541 3.35872 0
M  V30 2715 H 247.649 -4.37918 3.36053 0
M  V30 2716 H 250.125 -3.88161 1.499 0
M  V30 2717 H 249.001 -5.26365 1.55663 0
M  V30 2718 H 249.262 -4.42084 0.0377407 0
M  V30 2719 N 248.321 -0.919034 -1.28029 0
M  V30 2720 C 249.231 -0.416756 -2.30869 0
M  V30 2721 C 250.247 0.498235 -1.66714 0
M  V30 2722 O 251.423 0.383144 -1.97722 0
M  V30 2723 C 248.488 0.330274 -3.45123 0
M  V30 2724 C 247.549 -0.618578 -4.2482 0
M  V30 2725 C 246.782 0.0928959 -5.33619 0
M  V30 2726 O 247.005 1.31375 -5.55065 0
M  V30 2727 O 245.939 -0.574499 -5.99152 0
M  V30 2728 H 249.765 -1.27043 -2.75851 0
M  V30 2729 H 247.35 -0.684052 -1.3282 0
M  V30 2730 H 249.232 0.751972 -4.14636 0
M  V30 2731 H 247.907 1.1597 -3.02213 0
M  V30 2732 H 246.814 -1.08978 -3.57875 0
M  V30 2733 H 248.147 -1.41497 -4.71423 0
M  V30 2734 N 249.799 1.42003 -0.683588 0
M  V30 2735 C 250.762 2.29191 -0.0198243 0
M  V30 2736 C 251.762 1.43773 0.72013 0
M  V30 2737 O 252.952 1.65061 0.556815 0
M  V30 2738 C 250.084 3.26435 0.982487 0
M  V30 2739 H 251.277 2.8938 -0.787345 0
M  V30 2740 H 248.83 1.49789 -0.446418 0
M  V30 2741 H 249.565 2.71203 1.77819 0
M  V30 2742 H 249.35 3.89449 0.455182 0
M  V30 2743 H 250.84 3.918 1.44508 0
M  V30 2744 N 251.277 0.427512 1.51691 0
M  V30 2745 C 252.24 -0.377132 2.26076 0
M  V30 2746 C 253.24 -0.958089 1.29141 0
M  V30 2747 O 254.43 -0.83408 1.52934 0
M  V30 2748 C 251.562 -1.53262 3.04506 0
M  V30 2749 H 252.755 0.27464 2.9864 0
M  V30 2750 H 250.308 0.180445 1.55255 0
M  V30 2751 H 251.043 -2.22072 2.36335 0
M  V30 2752 H 250.828 -1.12232 3.75694 0
M  V30 2753 H 252.318 -2.10135 3.60878 0
M  V30 2754 N 252.755 -1.56801 0.158532 0
M  V30 2755 C 253.705 -2.13923 -0.788738 0
M  V30 2756 C 254.689 -1.07006 -1.2016 0
M  V30 2757 O 255.881 -1.33159 -1.1661 0
M  V30 2758 C 253.01 -2.77348 -2.02319 0
M  V30 2759 C 252.096 -3.91404 -1.6329 0
M  V30 2760 N 252.487 -4.9677 -0.951463 0
M  V30 2761 C 250.785 -4.02326 -1.92482 0
M  V30 2762 C 251.486 -5.76698 -0.761221 0
M  V30 2763 N 250.462 -5.27859 -1.29869 0
M  V30 2764 H 254.264 -2.92757 -0.258995 0
M  V30 2765 H 251.778 -1.62344 -0.0426055 0
M  V30 2766 H 253.775 -3.16639 -2.71192 0
M  V30 2767 H 252.435 -1.99991 -2.558 0
M  V30 2768 H 253.446 -5.14284 -0.610928 0
M  V30 2769 H 250.123 -3.36059 -2.47732 0
M  V30 2770 H 251.513 -6.71529 -0.223284 0
M  V30 2771 N 254.233 0.115231 -1.57178 0
M  V30 2772 C 255.461 0.836437 -1.89239 0
M  V30 2773 C 255.876 1.73256 -0.750175 0
M  V30 2774 O 255.233 1.80357 0.278832 0
M  V30 2775 C 255.284 1.66671 -3.20785 0
M  V30 2776 O 255.005 0.806652 -4.3061 0
M  V30 2777 C 256.506 2.49274 -3.66575 0
M  V30 2778 H 253.726 0.240253 -0.626514 0
M  V30 2779 H 256.27 0.0984932 -2.04263 0
M  V30 2780 H 254.425 2.35737 -3.0742 0
M  V30 2781 H 254.839 1.37969 -5.06028 0
M  V30 2782 H 256.313 3.03055 -4.6137 0
M  V30 2783 H 256.79 3.26807 -2.93417 0
M  V30 2784 H 257.396 1.85443 -3.82741 0
M  V30 2785 N 255.711 1.52812 0.385517 0
M  V30 2786 C 256.958 1.68026 1.1302 0
M  V30 2787 C 257.286 0.421934 1.89868 0
M  V30 2788 O 256.541 -0.595749 1.86412 0
M  V30 2789 C 256.84 2.86856 2.13187 0
M  V30 2790 C 256.506 4.24159 1.5297 0
M  V30 2791 C 255.168 4.61501 1.36274 0
M  V30 2792 C 257.52 5.09627 1.09223 0
M  V30 2793 C 254.848 5.81966 0.743837 0
M  V30 2794 C 257.2 6.30719 0.487411 0
M  V30 2795 C 255.864 6.6679 0.307777 0
M  V30 2796 H 255.134 0.614849 0.413571 0
M  V30 2797 H 257.781 1.86962 0.414405 0
M  V30 2798 H 256.086 2.6235 2.90998 0
M  V30 2799 H 257.783 2.95821 2.70722 0
M  V30 2800 H 254.373 3.94746 1.66954 0
M  V30 2801 H 258.557 4.81343 1.20922 0
M  V30 2802 H 253.813 6.08519 0.592891 0
M  V30 2803 H 257.987 6.96259 0.140143 0
M  V30 2804 H 255.614 7.60001 -0.173879 0
M  V30 2805 N 257.189 -0.644168 1.43834 0
M  V30 2806 C 258.436 -1.40395 1.4593 0
M  V30 2807 C 258.764 -1.94305 0.0869658 0
M  V30 2808 O 258.019 -1.73288 -0.909378 0
M  V30 2809 C 258.318 -2.59615 2.45631 0
M  V30 2810 C 257.984 -2.2407 3.91284 0
M  V30 2811 C 256.646 -2.14089 4.30952 0
M  V30 2812 C 258.998 -1.95775 4.83034 0
M  V30 2813 C 256.326 -1.73981 5.6031 0
M  V30 2814 C 258.678 -1.57163 6.12766 0
M  V30 2815 C 257.342 -1.45713 6.51402 0
M  V30 2816 H 256.612 -0.513741 0.533995 0
M  V30 2817 H 259.259 -0.731724 1.76969 0
M  V30 2818 H 257.564 -3.32011 2.08028 0
M  V30 2819 H 259.261 -3.17834 2.44504 0
M  V30 2820 H 255.851 -2.32753 3.59895 0
M  V30 2821 H 260.035 -2.02403 4.53152 0
M  V30 2822 H 255.291 -1.63709 5.89075 0
M  V30 2823 H 259.465 -1.34303 6.83327 0
M  V30 2824 H 257.092 -1.14406 7.51542 0
M  V30 2825 N 258.668 -1.30515 -0.883378 0
M  V30 2826 C 259.914 -1.19607 -1.63774 0
M  V30 2827 C 260.247 0.248314 -1.92606 0
M  V30 2828 O 259.522 1.17742 -1.54813 0
M  V30 2829 C 259.805 -2.02669 -2.97653 0
M  V30 2830 C 259.658 -3.55335 -2.75784 0
M  V30 2831 C 260.977 -1.86573 -3.98596 0
M  V30 2832 H 258.096 -0.435856 -0.594305 0
M  V30 2833 H 260.738 -1.60165 -1.02212 0
M  V30 2834 H 258.888 -1.68208 -3.50197 0
M  V30 2835 H 260.56 -3.99863 -2.30016 0
M  V30 2836 H 258.803 -3.79438 -2.1026 0
M  V30 2837 H 259.474 -4.08745 -3.70988 0
M  V30 2838 H 261.95 -2.16703 -3.55217 0
M  V30 2839 H 260.826 -2.47014 -4.90179 0
M  V30 2840 H 261.087 -0.825321 -4.34328 0
M  V30 2841 N 260.146 1.09593 -1.13257 0
M  V30 2842 C 261.109 2.14359 -0.811358 0
M  V30 2843 C 262.109 1.59808 0.178377 0
M  V30 2844 O 263.299 1.74132 -0.0484911 0
M  V30 2845 C 260.431 3.40269 -0.207276 0
M  V30 2846 H 261.624 2.44284 -1.73969 0
M  V30 2847 H 259.177 1.25102 -0.936973 0
M  V30 2848 H 259.912 3.15969 0.73036 0
M  V30 2849 H 259.697 3.81154 -0.919992 0
M  V30 2850 H 261.187 4.176 0.000667944 0
M  V30 2851 N 261.624 0.925811 1.2754 0
M  V30 2852 C 262.572 0.413897 2.28888 0
M  V30 2853 C 263.566 -0.500779 1.61829 0
M  V30 2854 O 264.772 -0.38069 1.75928 0
M  V30 2855 H 261.147 0.115274 0.743112 0
M  V30 2856 H 263.118 1.28151 2.69481 0
M  V30 2857 C 261.867 -0.319792 3.46226 0
M  V30 2858 H 261.19 0.374846 3.98039 0
M  V30 2859 H 262.63 -0.642435 4.19105 0
M  V30 2860 C 261.089 -1.53209 3.00048 0
M  V30 2861 O 261.619 -2.6309 3.03557 0
M  V30 2862 N 259.825 -1.38326 2.55566 0
M  V30 2863 H 259.372 -0.489292 2.5291 0
M  V30 2864 H 259.33 -2.19564 2.25031 0
M  V30 2865 N 263.102 -1.41638 0.69111 0
M  V30 2866 C 264.513 -1.84346 0.295517 0
M  V30 2867 C 264.864 -1.57833 -1.16547 0
M  V30 2868 O 263.989 -1.04648 -1.89414 0
M  V30 2869 C 264.584 -3.34636 0.529575 0
M  V30 2870 C 263.143 -3.7593 0.187944 0
M  V30 2871 C 262.29 -2.65082 0.814052 0
M  V30 2872 H 265.241 -1.31253 0.892092 0
M  V30 2873 H 265.262 -3.79903 -0.213148 0
M  V30 2874 H 264.774 -3.53901 1.59297 0
M  V30 2875 H 262.875 -3.62268 -0.871367 0
M  V30 2876 H 262.988 -4.74808 0.63985 0
M  V30 2877 H 261.352 -2.53528 0.244017 0
M  V30 2878 H 262.135 -2.87167 1.88123 0
M  V30 2879 N 264.58 -0.43555 -1.51462 0
M  V30 2880 C 265.49 0.383001 -2.31453 0
M  V30 2881 C 266.506 1.02931 -1.4029 0
M  V30 2882 O 267.682 1.02507 -1.73362 0
M  V30 2883 C 264.747 1.47043 -3.13973 0
M  V30 2884 C 263.808 0.844433 -4.20913 0
M  V30 2885 C 263.041 1.88004 -4.9949 0
M  V30 2886 O 263.264 3.10199 -4.78678 0
M  V30 2887 O 262.198 1.47157 -5.83634 0
M  V30 2888 H 266.024 -0.269964 -3.02498 0
M  V30 2889 H 263.609 -0.19813 -1.4808 0
M  V30 2890 H 265.491 2.10113 -3.65281 0
M  V30 2891 H 264.166 2.10751 -2.45695 0
M  V30 2892 H 263.073 0.175729 -3.73687 0
M  V30 2893 H 264.406 0.250869 -4.9156 0
M  V30 2894 N 266.058 1.56714 -0.166846 0
M  V30 2895 C 267.008 2.14338 0.777382 0
M  V30 2896 C 267.992 1.07642 1.19591 0
M  V30 2897 O 269.184 1.33775 1.15902 0
M  V30 2898 C 266.313 2.78417 2.00846 0
M  V30 2899 C 265.399 3.92264 1.61212 0
M  V30 2900 N 265.79 4.97268 0.925104 0
M  V30 2901 C 264.088 4.03342 1.90346 0
M  V30 2902 C 264.789 5.77093 0.730627 0
M  V30 2903 N 263.765 5.2854 1.27067 0
M  V30 2904 H 267.567 2.9289 0.243466 0
M  V30 2905 H 265.081 1.62364 0.0339954 0
M  V30 2906 H 267.078 3.18073 2.69509 0
M  V30 2907 H 265.738 2.01344 2.54736 0
M  V30 2908 H 266.749 5.14601 0.583646 0
M  V30 2909 H 263.426 3.37368 2.45946 0
M  V30 2910 H 264.816 6.71638 0.187668 0
M  V30 2911 N 267.536 -0.106894 1.57237 0
M  V30 2912 C 268.469 -1.16125 1.96444 0
M  V30 2913 C 269.447 -1.3947 0.835871 0
M  V30 2914 O 270.631 -1.53425 1.09513 0
M  V30 2915 C 267.758 -2.51277 2.27107 0
M  V30 2916 C 266.804 -2.44285 3.4961 0
M  V30 2917 S 267.637 -1.87077 5.01759 0
M  V30 2918 C 268.793 -3.23877 5.35588 0
M  V30 2919 H 269.026 -0.826971 2.85567 0
M  V30 2920 H 266.559 -0.314124 1.51171 0
M  V30 2921 H 268.517 -3.29035 2.45451 0
M  V30 2922 H 267.178 -2.81879 1.38576 0
M  V30 2923 H 266.371 -3.4387 3.68469 0
M  V30 2924 H 265.973 -1.74652 3.30715 0
M  V30 2925 H 268.265 -4.20122 5.31511 0
M  V30 2926 H 269.208 -3.09833 6.36717 0
M  V30 2927 H 269.616 -3.22864 4.63054 0
M  V30 2928 N 269.014 -1.53014 -0.377408 0
M  V30 2929 C 269.924 -1.81557 -1.48574 0
M  V30 2930 C 270.94 -0.703102 -1.59162 0
M  V30 2931 O 272.116 -0.99192 -1.75279 0
M  V30 2932 C 269.181 -1.9889 -2.83978 0
M  V30 2933 C 268.242 -3.22801 -2.83016 0
M  V30 2934 C 267.475 -3.39298 -4.11962 0
M  V30 2935 O 267.698 -2.60345 -5.0752 0
M  V30 2936 O 266.632 -4.32604 -4.18494 0
M  V30 2937 H 270.458 -2.75695 -1.27382 0
M  V30 2938 H 268.043 -1.38248 -0.566373 0
M  V30 2939 H 269.925 -2.11931 -3.6423 0
M  V30 2940 H 268.6 -1.07942 -3.05172 0
M  V30 2941 H 267.507 -3.15193 -2.01505 0
M  V30 2942 H 268.84 -4.13632 -2.66775 0
M  V30 2943 N 270.492 0.636531 -1.44174 0
M  V30 2944 C 271.425 1.76139 -1.45087 0
M  V30 2945 C 272.403 1.59611 -0.310326 0
M  V30 2946 O 273.587 1.81568 -0.506477 0
M  V30 2947 C 270.714 3.13648 -1.27839 0
M  V30 2948 C 269.76 3.48838 -2.45386 0
M  V30 2949 S 270.593 3.46927 -4.07924 0
M  V30 2950 C 271.749 4.87064 -3.9309 0
M  V30 2951 H 271.982 1.75096 -2.40268 0
M  V30 2952 H 269.515 0.810666 -1.31406 0
M  V30 2953 H 271.473 3.93002 -1.18575 0
M  V30 2954 H 270.134 3.12235 -0.341787 0
M  V30 2955 H 269.327 4.48886 -2.29167 0
M  V30 2956 H 268.929 2.76935 -2.51362 0
M  V30 2957 H 271.221 5.76153 -3.56446 0
M  V30 2958 H 272.164 5.08337 -4.92949 0
M  V30 2959 H 272.572 4.61384 -3.25246 0
M  V30 2960 N 271.97 1.30982 0.876444 0
M  V30 2961 C 272.902 1.13902 1.98894 0
M  V30 2962 C 273.915 0.0798815 1.62604 0
M  V30 2963 O 275.104 0.326743 1.75484 0
M  V30 2964 C 272.204 0.716699 3.31235 0
M  V30 2965 C 271.377 1.85945 3.95908 0
M  V30 2966 C 270.436 1.42426 5.06558 0
M  V30 2967 O 269.462 2.13287 5.27729 0
M  V30 2968 N 270.664 0.308025 5.79682 0
M  V30 2969 H 273.429 2.09724 2.14094 0
M  V30 2970 H 270.99 1.2323 1.05004 0
M  V30 2971 H 272.982 0.408403 4.02634 0
M  V30 2972 H 271.552 -0.149719 3.12241 0
M  V30 2973 H 270.772 2.33541 3.17573 0
M  V30 2974 H 272.06 2.62503 4.35855 0
M  V30 2975 H 271.458 -0.282241 5.64995 0
M  V30 2976 H 270.015 0.0592282 6.51773 0
M  V30 2977 N 273.449 -1.08991 1.13837 0
M  V30 2978 C 274.381 -2.15606 0.777612 0
M  V30 2979 C 275.394 -1.61533 -0.202739 0
M  V30 2980 O 276.583 -1.78491 0.0181055 0
M  V30 2981 C 273.683 -3.3864 0.132623 0
M  V30 2982 C 272.856 -4.22115 1.1462 0
M  V30 2983 C 271.915 -5.23564 0.526074 0
M  V30 2984 O 270.941 -5.56678 1.18735 0
M  V30 2985 N 272.143 -5.76266 -0.699866 0
M  V30 2986 H 274.908 -2.47159 1.69506 0
M  V30 2987 H 272.469 -1.24747 1.03198 0
M  V30 2988 H 274.461 -4.03626 -0.29459 0
M  V30 2989 H 273.031 -3.04938 -0.687849 0
M  V30 2990 H 272.251 -3.53199 1.75055 0
M  V30 2991 H 273.539 -4.74709 1.83109 0
M  V30 2992 H 272.937 -5.51585 -1.25581 0
M  V30 2993 H 271.494 -6.42963 -1.06968 0
M  V30 2994 N 274.927 -0.932562 -1.27047 0
M  V30 2995 C 275.875 -0.42603 -2.28665 0
M  V30 2996 C 276.869 0.49219 -1.62092 0
M  V30 2997 O 278.075 0.371355 -1.76128 0
M  V30 2998 H 274.45 -0.119213 -0.742491 0
M  V30 2999 H 276.421 -1.29579 -2.68797 0
M  V30 3000 C 275.17 0.301426 -3.46391 0
M  V30 3001 H 274.493 -0.39595 -3.97834 0
M  V30 3002 H 275.933 0.6202 -4.1944 0
M  V30 3003 C 274.392 1.51616 -3.00856 0
M  V30 3004 O 274.922 2.61476 -3.04948 0
M  V30 3005 N 273.128 1.36969 -2.56296 0
M  V30 3006 H 272.675 0.475873 -2.53166 0
M  V30 3007 H 272.633 2.18368 -2.26192 0
M  V30 3008 N 276.405 1.4127 -0.698611 0
M  V30 3009 C 277.654 2.00408 -0.227949 0
M  V30 3010 C 277.967 1.55981 1.18023 0
M  V30 3011 O 279.173 2.07699 1.74852 0
M  V30 3012 C 277.629 3.58129 -0.356636 0
M  V30 3013 C 277.237 4.11536 -1.77037 0
M  V30 3014 C 278.981 4.24466 0.0540969 0
M  V30 3015 C 276.888 5.61701 -1.85055 0
M  V30 3016 H 275.818 0.749586 -0.0814657 0
M  V30 3017 H 278.469 1.61713 -0.867249 0
M  V30 3018 H 276.851 3.94442 0.350965 0
M  V30 3019 H 278.025 3.86636 -2.50698 0
M  V30 3020 H 276.34 3.57736 -2.13105 0
M  V30 3021 H 278.937 5.34698 0.0146723 0
M  V30 3022 H 279.28 4.01687 1.09332 0
M  V30 3023 H 279.813 3.93198 -0.603337 0
M  V30 3024 H 276.552 5.89312 -2.8704 0
M  V30 3025 H 276.072 5.88519 -1.15783 0
M  V30 3026 H 277.751 6.26524 -1.61484 0
M  V30 3027 N 277.883 0.443576 1.51229 0
M  V30 3028 C 278.793 -0.370721 2.31652 0
M  V30 3029 C 279.809 -1.02186 1.40833 0
M  V30 3030 O 280.985 -1.01586 1.73903 0
M  V30 3031 C 278.05 -1.45376 3.14749 0
M  V30 3032 C 277.111 -0.822099 4.21355 0
M  V30 3033 C 276.344 -1.85353 5.0048 0
M  V30 3034 O 276.567 -3.07656 4.80316 0
M  V30 3035 O 275.501 -1.4406 5.84406 0
M  V30 3036 H 279.327 0.286002 3.0235 0
M  V30 3037 H 276.912 0.20598 1.47973 0
M  V30 3038 H 278.794 -2.08173 3.66391 0
M  V30 3039 H 277.469 -2.09445 2.46809 0
M  V30 3040 H 276.376 -0.155909 3.73775 0
M  V30 3041 H 277.709 -0.224797 4.91686 0
M  V30 3042 N 279.361 -1.56624 0.175154 0
M  V30 3043 C 280.309 -2.19468 -0.770495 0
M  V30 3044 C 281.303 -1.15985 -1.23466 0
M  V30 3045 O 282.509 -1.34176 -1.19987 0
M  V30 3046 H 278.884 -0.703095 -0.266761 0
M  V30 3047 H 280.855 -2.97613 -0.216542 0
M  V30 3048 C 279.604 -2.85264 -1.98796 0
M  V30 3049 H 278.927 -3.64623 -1.63983 0
M  V30 3050 H 280.367 -3.327 -2.62843 0
M  V30 3051 C 278.826 -1.85239 -2.81404 0
M  V30 3052 O 279.356 -1.34024 -3.78682 0
M  V30 3053 N 277.562 -1.53911 -2.46495 0
M  V30 3054 H 277.109 -1.95751 -1.67449 0
M  V30 3055 H 277.067 -0.872382 -3.02054 0
M  V30 3056 N 280.839 0.0985539 -1.57292 0
M  V30 3057 C 282.069 0.815135 -1.8984 0
M  V30 3058 C 282.477 1.7297 -0.766679 0
M  V30 3059 O 281.82 1.81698 0.270483 0
M  V30 3060 C 281.882 1.6842 -3.17608 0
M  V30 3061 C 281.546 0.94182 -4.4719 0
M  V30 3062 C 282.543 0.273212 -5.19182 0
M  V30 3063 C 280.228 0.916927 -4.9386 0
M  V30 3064 C 282.222 -0.410361 -6.36078 0
M  V30 3065 C 279.909 0.229567 -6.10669 0
M  V30 3066 C 280.907 -0.432902 -6.81627 0
M  V30 3067 O 280.595 -1.10925 -7.9621 0
M  V30 3068 H 280.327 0.238501 -0.632529 0
M  V30 3069 H 282.881 0.0812659 -2.05239 0
M  V30 3070 H 281.111 2.46022 -2.98345 0
M  V30 3071 H 282.8 2.27704 -3.36015 0
M  V30 3072 H 283.566 0.283927 -4.84168 0
M  V30 3073 H 279.445 1.42201 -4.3852 0
M  V30 3074 H 282.989 -0.928013 -6.914 0
M  V30 3075 H 278.886 0.216686 -6.45136 0
M  V30 3076 H 279.654 -1.01579 -8.12172 0
M  V30 3077 N 282.317 1.53212 0.369288 0
M  V30 3078 C 283.733 1.42902 0.710712 0
M  V30 3079 C 283.933 0.565135 1.93413 0
M  V30 3080 O 282.989 0.0461484 2.52458 0
M  V30 3081 C 284.302 2.86042 0.927382 0
M  V30 3082 C 285.85 2.9565 1.02762 0
M  V30 3083 C 286.325 4.39843 1.27679 0
M  V30 3084 N 287.816 4.43256 1.34457 0
M  V30 3085 C 288.551 5.51929 1.55439 0
M  V30 3086 N 288.047 6.70655 1.73762 0
M  V30 3087 N 289.84 5.39502 1.57779 0
M  V30 3088 H 281.991 2.07888 -0.435457 0
M  V30 3089 H 284.254 0.938661 -0.132739 0
M  V30 3090 H 283.96 3.51557 0.100287 0
M  V30 3091 H 283.834 3.29472 1.83653 0
M  V30 3092 H 286.221 2.30291 1.84527 0
M  V30 3093 H 286.302 2.5562 0.0959504 0
M  V30 3094 H 285.946 5.05774 0.464175 0
M  V30 3095 H 285.876 4.77443 2.22162 0
M  V30 3096 H 288.367 3.5769 1.21926 0
M  V30 3097 H 288.68 7.49248 1.89335 0
M  V30 3098 H 287.025 6.73648 1.70948 0
M  V30 3099 H 290.216 4.45713 1.43029 0
M  V30 3100 H 290.389 6.2426 1.7379 0
M  V30 3101 N 283.795 -0.628877 1.44509 0
M  V30 3102 C 284.758 -1.72263 1.51188 0
M  V30 3103 C 285.758 -1.55907 0.39367 0
M  V30 3104 O 286.948 -1.61361 0.656377 0
M  V30 3105 C 284.08 -3.11365 1.38798 0
M  V30 3106 H 285.273 -1.67714 2.4862 0
M  V30 3107 H 282.826 -0.842737 1.31634 0
M  V30 3108 H 283.561 -3.21507 0.424693 0
M  V30 3109 H 283.346 -3.24644 2.19884 0
M  V30 3110 H 284.836 -3.91075 1.46458 0
M  V30 3111 N 285.273 -1.31445 -0.869486 0
M  V30 3112 C 286.501 -1.24122 -1.65534 0
M  V30 3113 C 286.916 0.193387 -1.87807 0
M  V30 3114 O 286.273 1.12557 -1.43656 0
M  V30 3115 C 286.324 -1.98229 -3.02304 0
M  V30 3116 O 286.045 -3.3609 -2.81026 0
M  V30 3117 C 287.546 -1.97751 -3.96749 0
M  V30 3118 H 284.766 -0.428868 -0.516055 0
M  V30 3119 H 287.31 -1.73328 -1.08525 0
M  V30 3120 H 285.465 -1.52782 -3.56001 0
M  V30 3121 H 285.879 -3.7383 -3.67902 0
M  V30 3122 H 287.353 -2.54114 -4.90031 0
M  V30 3123 H 287.83 -0.960137 -4.28577 0
M  V30 3124 H 288.436 -2.43079 -3.48988 0
M  V30 3125 N 286.751 1.08385 -1.14413 0
M  V30 3126 C 287.714 2.13486 -0.834048 0
M  V30 3127 C 288.714 1.59988 0.161418 0
M  V30 3128 O 289.904 1.74071 -0.0669575 0
M  V30 3129 C 287.036 3.4003 -0.243354 0
M  V30 3130 H 288.229 2.42425 -1.7655 0
M  V30 3131 H 285.782 1.24101 -0.950189 0
M  V30 3132 H 286.517 3.16726 0.696807 0
M  V30 3133 H 286.302 3.80157 -0.960367 0
M  V30 3134 H 287.792 4.17577 -0.0436242 0
M  V30 3135 N 288.23 0.939286 1.26551 0
M  V30 3136 C 289.478 0.58469 1.93457 0
M  V30 3137 C 289.799 -0.878774 1.74076 0
M  V30 3138 O 289.069 -1.62421 1.09528 0
M  V30 3139 H 287.649 0.21325 0.715914 0
M  V30 3140 H 290.311 1.1942 1.54029 0
M  V30 3141 H 289.407 0.800849 3.0165 0
M  V30 3142 N 289.708 -1.40897 0.706093 0
M  V30 3143 C 290.954 -2.01352 0.241889 0
M  V30 3144 C 291.287 -1.55832 -1.15888 0
M  V30 3145 O 290.562 -0.774145 -1.7843 0
M  V30 3146 C 290.845 -3.58752 0.311311 0
M  V30 3147 C 290.698 -4.1437 1.74978 0
M  V30 3148 C 292.017 -4.38914 -0.322922 0
M  V30 3149 H 289.136 -0.731562 0.0893687 0
M  V30 3150 H 291.778 -1.67504 0.896802 0
M  V30 3151 H 289.928 -3.87718 -0.246302 0
M  V30 3152 H 291.6 -3.96239 2.36205 0
M  V30 3153 H 289.843 -3.69016 2.28057 0
M  V30 3154 H 290.514 -5.23532 1.74981 0
M  V30 3155 H 292.99 -4.15822 0.152089 0
M  V30 3156 H 291.866 -5.48358 -0.243855 0
M  V30 3157 H 292.127 -4.19176 -1.40513 0
M  V30 3158 N 291.186 -0.45159 -1.50991 0
M  V30 3159 C 292.096 0.358431 -2.31846 0
M  V30 3160 C 293.112 1.01438 -1.41373 0
M  V30 3161 O 294.288 1.00663 -1.74439 0
M  V30 3162 C 291.353 1.43704 -3.15515 0
M  V30 3163 C 290.414 0.799742 -4.21785 0
M  V30 3164 C 289.647 1.82696 -5.01456 0
M  V30 3165 O 289.87 3.05105 -4.81941 0
M  V30 3166 O 288.804 1.40958 -5.85162 0
M  V30 3167 H 292.63 -0.302032 -3.02194 0
M  V30 3168 H 290.215 -0.213825 -1.47862 0
M  V30 3169 H 292.097 2.06227 -3.67489 0
M  V30 3170 H 290.772 2.08133 -2.47916 0
M  V30 3171 H 289.679 0.136084 -3.73852 0
M  V30 3172 H 291.012 0.198718 -4.91799 0
M  V30 3173 N 292.664 1.56529 -0.183458 0
M  V30 3174 C 293.627 2.17324 0.728223 0
M  V30 3175 C 294.627 1.12453 1.14939 0
M  V30 3176 O 295.817 1.37902 1.06437 0
M  V30 3177 C 292.949 2.76591 1.99274 0
M  V30 3178 H 294.142 2.99241 0.198772 0
M  V30 3179 H 291.695 1.5616 0.0661391 0
M  V30 3180 H 292.43 1.98441 2.56499 0
M  V30 3181 H 292.215 3.5335 1.69959 0
M  V30 3182 H 293.705 3.23311 2.6431 0
M  V30 3183 N 294.142 -0.090211 1.57342 0
M  V30 3184 C 295.072 -1.10976 2.05443 0
M  V30 3185 C 296.053 -1.41482 0.944284 0
M  V30 3186 O 297.238 -1.51428 1.21586 0
M  V30 3187 C 294.368 -2.42831 2.48295 0
M  V30 3188 C 293.322 -2.26721 3.63018 0
M  V30 3189 C 292.648 -3.63796 3.91863 0
M  V30 3190 C 293.948 -1.7037 4.93732 0
M  V30 3191 H 295.642 -0.709564 2.9087 0
M  V30 3192 H 293.188 -0.339874 1.39932 0
M  V30 3193 H 295.141 -3.14431 2.80555 0
M  V30 3194 H 293.865 -2.84795 1.59873 0
M  V30 3195 H 292.524 -1.57565 3.31012 0
M  V30 3196 H 292.172 -4.03297 3.00601 0
M  V30 3197 H 291.872 -3.53861 4.69101 0
M  V30 3198 H 293.396 -4.36855 4.26603 0
M  V30 3199 H 294.81 -2.31816 5.24342 0
M  V30 3200 H 293.207 -1.71181 5.75167 0
M  V30 3201 H 294.277 -0.663542 4.80339 0
M  V30 3202 N 295.62 -1.53406 -0.361157 0
M  V30 3203 C 296.552 -1.76446 -1.46286 0
M  V30 3204 C 297.565 -0.645322 -1.49464 0
M  V30 3205 O 298.754 -0.921681 -1.52864 0
M  V30 3206 C 295.854 -1.83332 -2.85031 0
M  V30 3207 C 295.027 -3.13033 -3.05498 0
M  V30 3208 C 294.086 -3.11104 -4.24383 0
M  V30 3209 O 293.112 -3.84888 -4.19344 0
M  V30 3210 N 294.314 -2.32234 -5.32022 0
M  V30 3211 H 297.079 -2.71508 -1.26899 0
M  V30 3212 H 294.64 -1.52238 -0.550915 0
M  V30 3213 H 296.632 -1.79514 -3.62708 0
M  V30 3214 H 295.202 -0.955342 -2.97644 0
M  V30 3215 H 294.422 -3.30119 -2.15442 0
M  V30 3216 H 295.71 -3.9874 -3.16044 0
M  V30 3217 H 295.108 -1.71807 -5.38979 0
M  V30 3218 H 293.665 -2.3423 -6.08259 0
M  V30 3219 N 297.098 0.621204 -1.44841 0
M  V30 3220 C 298.028 1.74366 -1.55303 0
M  V30 3221 C 299.009 1.65199 -0.405385 0
M  V30 3222 O 300.194 1.83807 -0.626787 0
M  V30 3223 C 297.324 3.12931 -1.50637 0
M  V30 3224 C 296.278 3.36896 -2.63979 0
M  V30 3225 C 295.604 4.75594 -2.44366 0
M  V30 3226 C 296.904 3.28483 -4.06074 0
M  V30 3227 H 298.598 1.65867 -2.49256 0
M  V30 3228 H 296.144 0.796558 -1.19962 0
M  V30 3229 H 298.097 3.9124 -1.56555 0
M  V30 3230 H 296.821 3.22237 -0.532057 0
M  V30 3231 H 295.48 2.60972 -2.57467 0
M  V30 3232 H 295.128 4.81616 -1.45105 0
M  V30 3233 H 294.828 4.92586 -3.20364 0
M  V30 3234 H 296.352 5.5612 -2.52117 0
M  V30 3235 H 297.766 3.96684 -4.13902 0
M  V30 3236 H 296.163 3.57008 -4.82354 0
M  V30 3237 H 297.233 2.26133 -4.28943 0
M  V30 3238 N 298.576 1.31904 0.862503 0
M  V30 3239 C 299.822 1.22197 1.61851 0
M  V30 3240 C 300.155 -0.217641 1.92977 0
M  V30 3241 O 299.43 -1.15264 1.56666 0
M  V30 3242 C 299.713 2.07378 2.94391 0
M  V30 3243 C 299.566 3.59678 2.70096 0
M  V30 3244 C 300.885 1.92891 3.95577 0
M  V30 3245 H 298.004 0.445255 0.587296 0
M  V30 3246 H 300.646 1.6177 0.99651 0
M  V30 3247 H 298.796 1.73758 3.47477 0
M  V30 3248 H 300.468 4.03472 2.23625 0
M  V30 3249 H 298.711 3.82735 2.04197 0
M  V30 3250 H 299.382 4.14595 3.64438 0
M  V30 3251 H 301.858 2.22327 3.51724 0
M  V30 3252 H 300.734 2.54781 4.86187 0
M  V30 3253 H 300.995 0.894315 4.3296 0
M  V30 3254 N 300.054 -1.07777 1.14986 0
M  V30 3255 C 301.331 -1.7699 0.832695 0
M  V30 3256 C 301.711 -2.001 -0.672561 0
M  V30 3257 O 301.059 -1.61598 -1.6155 0
M  V30 3258 C 301.269 -3.08139 1.63863 0
M  V30 3259 C 302.617 -3.8256 1.84208 0
M  V30 3260 O 303.641 -3.17939 1.60603 0
M  V30 3261 O 302.5 -4.98612 2.23714 0
M  V30 3262 H 299.594 -0.768389 0.305791 0
M  V30 3263 H 302.14 -1.14182 1.25541 0
M  V30 3264 H 300.912 -2.86909 2.6608 0
M  V30 3265 H 300.535 -3.78678 1.21197 0
M  V30 3266 N 301.532 -0.945985 -1.26051 0
M  V30 3267 C 302.948 -0.649045 -1.45807 0
M  V30 3268 C 303.148 0.796158 -1.85104 0
M  V30 3269 O 302.204 1.57233 -1.97571 0
M  V30 3270 C 303.517 -1.61458 -2.53677 0
M  V30 3271 C 305.065 -1.62481 -2.67524 0
M  V30 3272 C 305.54 -2.57776 -3.7857 0
M  V30 3273 N 307.031 -2.5609 -3.85969 0
M  V30 3274 C 307.766 -3.26508 -4.7136 0
M  V30 3275 N 307.262 -4.0637 -5.61102 0
M  V30 3276 N 309.055 -3.15437 -4.65248 0
M  V30 3277 H 301.206 -1.88005 -0.988328 0
M  V30 3278 H 303.469 -0.808198 -0.4955 0
M  V30 3279 H 303.175 -2.64644 -2.31638 0
M  V30 3280 H 303.049 -1.37036 -3.51427 0
M  V30 3281 H 305.436 -0.600167 -2.88933 0
M  V30 3282 H 305.517 -1.90958 -1.70202 0
M  V30 3283 H 305.161 -3.60361 -3.57913 0
M  V30 3284 H 305.091 -2.26587 -4.75359 0
M  V30 3285 H 307.582 -1.98105 -3.21812 0
M  V30 3286 H 307.895 -4.57042 -6.23164 0
M  V30 3287 H 306.24 -4.10469 -5.60839 0
M  V30 3288 H 309.431 -2.52525 -3.94143 0
M  V30 3289 H 309.604 -3.70584 -5.31575 0
M  V30 3290 N 303.011 1.40521 -0.713556 0
M  V30 3291 C 303.921 2.34522 -0.0606667 0
M  V30 3292 C 304.937 1.57193 0.74607 0
M  V30 3293 O 306.113 1.89591 0.679493 0
M  V30 3294 C 303.178 3.36081 0.851491 0
M  V30 3295 C 302.239 4.29286 0.0349339 0
M  V30 3296 C 301.472 5.25994 0.903649 0
M  V30 3297 O 301.695 5.28616 2.14292 0
M  V30 3298 O 300.629 6.00918 0.343723 0
M  V30 3299 H 304.455 2.91968 -0.835972 0
M  V30 3300 H 302.04 1.41681 -0.47402 0
M  V30 3301 H 303.922 3.98369 1.37404 0
M  V30 3302 H 302.597 2.81052 1.60598 0
M  V30 3303 H 301.504 3.70289 -0.532633 0
M  V30 3304 H 302.837 4.87462 -0.681287 0
M  V30 3305 N 304.489 0.459591 1.5075 0
M  V30 3306 C 305.452 -0.329093 2.26825 0
M  V30 3307 C 306.452 -0.930481 1.31144 0
M  V30 3308 O 307.642 -0.801453 1.54669 0
M  V30 3309 C 304.774 -1.46768 3.07688 0
M  V30 3310 H 305.967 0.337924 2.9799 0
M  V30 3311 H 303.52 0.213336 1.54837 0
M  V30 3312 H 304.255 -2.17009 2.40993 0
M  V30 3313 H 304.04 -1.04238 3.77991 0
M  V30 3314 H 305.53 -2.02433 3.65254 0
M  V30 3315 N 305.967 -1.56429 0.191757 0
M  V30 3316 C 306.914 -2.18936 -0.730454 0
M  V30 3317 C 307.884 -1.13557 -1.21219 0
M  V30 3318 O 309.069 -1.41794 -1.27668 0
M  V30 3319 C 306.209 -2.85013 -1.9458 0
M  V30 3320 C 305.322 -4.04909 -1.50574 0
M  V30 3321 C 304.457 -4.58853 -2.67634 0
M  V30 3322 C 303.496 -5.71114 -2.20217 0
M  V30 3323 N 302.633 -6.19478 -3.30442 0
M  V30 3324 H 307.473 -2.97389 -0.190664 0
M  V30 3325 H 305.01 -1.46869 -0.0823694 0
M  V30 3326 H 306.968 -3.21492 -2.65893 0
M  V30 3327 H 305.598 -2.09129 -2.45896 0
M  V30 3328 H 304.65 -3.74115 -0.688605 0
M  V30 3329 H 305.962 -4.86113 -1.11784 0
M  V30 3330 H 305.116 -4.97619 -3.47074 0
M  V30 3331 H 303.855 -3.76749 -3.09696 0
M  V30 3332 H 302.86 -5.31879 -1.3923 0
M  V30 3333 H 304.085 -6.55033 -1.79189 0
M  V30 3334 H 302.031 -5.40297 -3.72041 0
M  V30 3335 H 301.948 -6.95725 -2.9581 0
M  V30 3336 H 303.216 -6.62898 -4.10106 0
M  V30 3337 N 307.445 0.0818655 -1.57387 0
M  V30 3338 C 308.856 0.634871 -1.75574 0
M  V30 3339 C 309.207 1.78435 -0.815809 0
M  V30 3340 O 308.332 2.164 0.0025366 0
M  V30 3341 C 308.927 1.15845 -3.18379 0
M  V30 3342 C 307.486 1.65741 -3.37945 0
M  V30 3343 C 306.633 0.572549 -2.71325 0
M  V30 3344 H 309.584 -0.144268 -1.58043 0
M  V30 3345 H 309.605 2.02751 -3.21982 0
M  V30 3346 H 309.117 0.321631 -3.86765 0
M  V30 3347 H 307.218 2.51781 -2.74658 0
M  V30 3348 H 307.331 1.74129 -4.46336 0
M  V30 3349 H 305.695 1.01518 -2.33594 0
M  V30 3350 H 306.478 -0.253918 -3.4236 0
M  V30 3351 N 308.923 1.53595 0.353017 0
M  V30 3352 C 309.873 1.77299 1.43349 0
M  V30 3353 C 310.857 0.627884 1.48143 0
M  V30 3354 O 312.049 0.88697 1.53173 0
M  V30 3355 C 309.178 1.97757 2.80619 0
M  V30 3356 C 308.264 3.18305 2.80254 0
M  V30 3357 N 308.655 4.39967 2.49526 0
M  V30 3358 C 306.953 3.19283 3.11407 0
M  V30 3359 C 307.654 5.21772 2.57156 0
M  V30 3360 N 306.63 4.58269 2.92388 0
M  V30 3361 H 310.432 2.68963 1.18474 0
M  V30 3362 H 307.946 1.52391 0.561306 0
M  V30 3363 H 309.943 2.1287 3.58458 0
M  V30 3364 H 308.603 1.07329 3.06448 0
M  V30 3365 H 309.614 4.67482 2.22893 0
M  V30 3366 H 306.291 2.3879 3.4247 0
M  V30 3367 H 307.681 6.2885 2.36638 0
M  V30 3368 N 310.401 -0.613514 1.45168 0
M  V30 3369 C 311.334 -1.73809 1.47871 0
M  V30 3370 C 312.312 -1.59097 0.33568 0
M  V30 3371 O 313.496 -1.8074 0.535299 0
M  V30 3372 C 310.623 -3.11574 1.32813 0
M  V30 3373 C 309.669 -3.4489 2.50905 0
M  V30 3374 S 310.502 -3.40393 4.13392 0
M  V30 3375 C 311.658 -4.80749 4.00789 0
M  V30 3376 H 311.891 -1.71252 2.43023 0
M  V30 3377 H 309.424 -0.789658 1.32679 0
M  V30 3378 H 311.382 -3.91065 1.24812 0
M  V30 3379 H 310.043 -3.11652 0.391418 0
M  V30 3380 H 309.236 -4.45183 2.36279 0
M  V30 3381 H 308.838 -2.72901 2.55736 0
M  V30 3382 H 311.13 -5.7041 3.65567 0
M  V30 3383 H 312.073 -5.00431 5.00974 0
M  V30 3384 H 312.481 -4.56151 3.32545 0
M  V30 3385 N 311.879 -1.3236 -0.855495 0
M  V30 3386 C 312.789 -1.23221 -1.99634 0
M  V30 3387 C 313.805 -0.145983 -1.73387 0
M  V30 3388 O 314.981 -0.366502 -1.98037 0
M  V30 3389 C 312.046 -0.954782 -3.33294 0
M  V30 3390 C 311.107 -2.12937 -3.72769 0
M  V30 3391 C 310.34 -1.86508 -5.00051 0
M  V30 3392 O 310.563 -0.807231 -5.64659 0
M  V30 3393 O 309.497 -2.72591 -5.36636 0
M  V30 3394 H 313.323 -2.19126 -2.1028 0
M  V30 3395 H 310.908 -1.12241 -0.986018 0
M  V30 3396 H 312.79 -0.816519 -4.13414 0
M  V30 3397 H 311.465 -0.0258854 -3.2369 0
M  V30 3398 H 310.372 -2.3231 -2.93228 0
M  V30 3399 H 311.705 -3.04102 -3.87018 0
M  V30 3400 N 313.357 1.07166 -1.15556 0
M  V30 3401 C 314.582 1.84053 -0.955988 0
M  V30 3402 C 315.007 1.81586 0.490739 0
M  V30 3403 O 314.365 1.21018 1.34997 0
M  V30 3404 C 314.413 3.28957 -1.47714 0
M  V30 3405 O 313.517 4.06795 -0.677593 0
M  V30 3406 H 312.858 0.569842 -0.340847 0
M  V30 3407 H 315.388 1.35178 -1.53584 0
M  V30 3408 H 315.398 3.79788 -1.4908 0
M  V30 3409 H 314.073 3.30068 -2.53037 0
M  V30 3410 H 312.65 3.6561 -0.733721 0
M  V30 3411 N 314.835 0.952656 1.25548 0
M  V30 3412 C 316.065 0.622592 1.96996 0
M  V30 3413 C 316.473 -0.809112 1.71026 0
M  V30 3414 O 315.816 -1.55258 0.981861 0
M  V30 3415 C 315.878 0.798946 3.5051 0
M  V30 3416 C 315.542 2.20744 4.00151 0
M  V30 3417 C 316.539 3.18394 4.11001 0
M  V30 3418 C 314.224 2.5311 4.33867 0
M  V30 3419 C 316.218 4.46504 4.54877 0
M  V30 3420 C 313.905 3.8145 4.7743 0
M  V30 3421 C 314.903 4.77959 4.87897 0
M  V30 3422 O 314.591 6.04012 5.30494 0
M  V30 3423 H 314.323 0.232503 0.634758 0
M  V30 3424 H 316.877 1.2789 1.60728 0
M  V30 3425 H 315.107 0.0854903 3.86605 0
M  V30 3426 H 316.796 0.47023 4.03167 0
M  V30 3427 H 317.562 2.94715 3.85186 0
M  V30 3428 H 313.441 1.78719 4.24948 0
M  V30 3429 H 316.985 5.21835 4.62962 0
M  V30 3430 H 312.882 4.04936 5.0269 0
M  V30 3431 H 313.65 6.0736 5.48685 0
M  V30 3432 N 316.313 -1.40141 0.720998 0
M  V30 3433 C 317.261 -2.3252 0.0608547 0
M  V30 3434 C 318.255 -1.52326 -0.741152 0
M  V30 3435 O 319.461 -1.68089 -0.643911 0
M  V30 3436 H 315.836 -0.751999 0.000876664 0
M  V30 3437 H 317.807 -2.8584 0.856614 0
M  V30 3438 C 316.556 -3.37331 -0.842809 0
M  V30 3439 H 315.879 -3.99108 -0.235084 0
M  V30 3440 H 317.319 -4.04452 -1.27257 0
M  V30 3441 C 315.778 -2.73246 -1.97074 0
M  V30 3442 O 316.308 -2.59998 -3.06209 0
M  V30 3443 N 314.514 -2.31547 -1.75597 0
M  V30 3444 H 314.061 -2.42522 -0.868368 0
M  V30 3445 H 314.019 -1.89007 -2.51244 0
M  V30 3446 N 317.792 -0.46758 -1.50504 0
M  V30 3447 C 318.755 0.317059 -2.26996 0
M  V30 3448 C 319.755 0.923513 -1.31635 0
M  V30 3449 O 320.945 0.793239 -1.55091 0
M  V30 3450 C 318.077 1.45134 -3.08462 0
M  V30 3451 H 319.27 -0.353723 -2.97807 0
M  V30 3452 H 316.823 -0.221545 -1.54722 0
M  V30 3453 H 317.558 2.15728 -2.4214 0
M  V30 3454 H 317.343 1.02232 -3.78538 0
M  V30 3455 H 318.833 2.00493 -3.66323 0
M  V30 3456 N 319.27 1.56325 -0.20005 0
M  V30 3457 C 320.518 1.97329 0.436547 0
M  V30 3458 C 320.839 1.08826 1.61808 0
M  V30 3459 O 320.109 0.160604 1.95241 0
M  V30 3460 H 318.689 0.728714 0.164272 0
M  V30 3461 H 321.351 1.92761 -0.287937 0
M  V30 3462 H 320.447 3.02264 0.777353 0
M  V30 3463 N 320.748 -0.0735177 1.57428 0
M  V30 3464 C 321.994 -0.774145 1.87443 0
M  V30 3465 C 322.327 -1.77311 0.792103 0
M  V30 3466 O 321.602 -1.93492 -0.197793 0
M  V30 3467 C 321.885 -1.48367 3.28115 0
M  V30 3468 C 321.738 -0.501227 4.46999 0
M  V30 3469 C 323.057 -2.429 3.66998 0
M  V30 3470 H 320.176 -0.279971 0.681752 0
M  V30 3471 H 322.818 -0.0373616 1.89963 0
M  V30 3472 H 320.968 -2.11171 3.26097 0
M  V30 3473 H 322.64 0.121468 4.6114 0
M  V30 3474 H 320.883 0.183593 4.33411 0
M  V30 3475 H 321.554 -1.03526 5.42205 0
M  V30 3476 H 324.03 -1.90175 3.70098 0
M  V30 3477 H 322.906 -2.89549 4.66318 0
M  V30 3478 H 323.167 -3.27628 2.96837 0
M  V30 3479 N 322.226 -1.5378 -0.344866 0
M  V30 3480 C 323.173 -1.81676 -1.42346 0
M  V30 3481 C 324.143 -0.662376 -1.52321 0
M  V30 3482 O 325.328 -0.906675 -1.67881 0
M  V30 3483 C 322.468 -2.03087 -2.79015 0
M  V30 3484 C 321.581 -3.30799 -2.77842 0
M  V30 3485 C 320.716 -3.42285 -4.0622 0
M  V30 3486 C 319.755 -4.6395 -3.9927 0
M  V30 3487 N 318.892 -4.72477 -5.19336 0
M  V30 3488 H 323.732 -2.73703 -1.17858 0
M  V30 3489 H 321.269 -1.35568 -0.570949 0
M  V30 3490 H 323.227 -2.1349 -3.58438 0
M  V30 3491 H 321.857 -1.14375 -3.01858 0
M  V30 3492 H 320.909 -3.29244 -1.90533 0
M  V30 3493 H 322.221 -4.20314 -2.68584 0
M  V30 3494 H 321.375 -3.52113 -4.94066 0
M  V30 3495 H 320.114 -2.50823 -4.18258 0
M  V30 3496 H 319.119 -4.54201 -3.09809 0
M  V30 3497 H 320.344 -5.56775 -3.88817 0
M  V30 3498 H 318.29 -3.83924 -5.3192 0
M  V30 3499 H 318.207 -5.55927 -5.12329 0
M  V30 3500 H 319.475 -4.86613 -6.08957 0
M  V30 3501 N 323.704 0.605807 -1.45491 0
M  V30 3502 C 324.654 1.71074 -1.50724 0
M  V30 3503 C 325.638 1.5658 -0.37033 0
M  V30 3504 O 326.83 1.65887 -0.617299 0
M  V30 3505 C 323.959 3.0983 -1.47852 0
M  V30 3506 C 323.045 3.29704 -2.66751 0
M  V30 3507 N 323.436 3.19831 -3.91844 0
M  V30 3508 C 321.734 3.60579 -2.62486 0
M  V30 3509 C 322.435 3.41083 -4.71208 0
M  V30 3510 N 321.411 3.65157 -4.02693 0
M  V30 3511 H 325.213 1.61937 -2.45263 0
M  V30 3512 H 322.727 0.80912 -1.40808 0
M  V30 3513 H 324.724 3.89101 -1.49686 0
M  V30 3514 H 323.384 3.20115 -0.543714 0
M  V30 3515 H 324.395 2.98194 -4.23439 0
M  V30 3516 H 321.072 3.7769 -1.77922 0
M  V30 3517 H 322.462 3.38828 -5.80211 0
M  V30 3518 N 325.182 1.32811 0.848464 0
M  V30 3519 C 326.412 1.26556 1.63301 0
M  V30 3520 C 326.82 -0.1676 1.88456 0
M  V30 3521 O 326.163 -1.11713 1.45828 0
M  V30 3522 C 326.225 1.96202 3.01239 0
M  V30 3523 C 325.889 3.45528 2.99098 0
M  V30 3524 C 326.886 4.40903 2.75501 0
M  V30 3525 C 324.571 3.87558 3.19537 0
M  V30 3526 C 326.565 5.76282 2.72356 0
M  V30 3527 C 324.252 5.23044 3.16019 0
M  V30 3528 C 325.25 6.17217 2.92458 0
M  V30 3529 O 324.938 7.50223 2.88825 0
M  V30 3530 H 324.67 0.43771 0.515156 0
M  V30 3531 H 327.224 1.7559 1.0657 0
M  V30 3532 H 325.454 1.41746 3.59785 0
M  V30 3533 H 327.143 1.83573 3.62016 0
M  V30 3534 H 327.909 4.09756 2.5947 0
M  V30 3535 H 323.788 3.14674 3.369 0
M  V30 3536 H 327.332 6.4976 2.53886 0
M  V30 3537 H 323.229 5.53818 3.31596 0
M  V30 3538 H 323.997 7.59657 3.04735 0
M  V30 3539 N 326.66 -1.06551 1.16123 0
M  V30 3540 C 327.57 -2.17484 0.879662 0
M  V30 3541 C 328.586 -1.73377 -0.147104 0
M  V30 3542 O 329.762 -2.01379 0.0289128 0
M  V30 3543 C 326.827 -3.44591 0.381829 0
M  V30 3544 C 325.888 -4.0322 1.4735 0
M  V30 3545 C 325.121 -5.24261 0.999324 0
M  V30 3546 O 325.344 -5.70198 -0.151957 0
M  V30 3547 O 324.278 -5.74775 1.78653 0
M  V30 3548 H 328.104 -2.44075 1.80724 0
M  V30 3549 H 325.689 -1.16042 0.940992 0
M  V30 3550 H 327.571 -4.21254 0.111053 0
M  V30 3551 H 326.246 -3.19532 -0.51777 0
M  V30 3552 H 325.153 -3.2806 1.79798 0
M  V30 3553 H 326.486 -4.32568 2.34831 0
M  V30 3554 N 328.138 -0.959301 -1.25041 0
M  V30 3555 C 329.101 -0.487677 -2.23952 0
M  V30 3556 C 330.101 0.41119 -1.55454 0
M  V30 3557 O 331.291 0.207825 -1.72956 0
M  V30 3558 C 328.423 0.294807 -3.39623 0
M  V30 3559 H 329.616 -1.36198 -2.67189 0
M  V30 3560 H 327.169 -0.743042 -1.37508 0
M  V30 3561 H 327.904 1.18658 -3.01813 0
M  V30 3562 H 327.689 -0.35012 -3.90534 0
M  V30 3563 H 329.179 0.614089 -4.1306 0
M  V30 3564 N 329.616 1.39756 -0.72842 0
M  V30 3565 C 330.893 1.94574 -0.200079 0
M  V30 3566 C 331.273 1.66569 1.29684 0
M  V30 3567 O 330.621 0.990326 2.05924 0
M  V30 3568 C 330.831 3.45004 -0.526608 0
M  V30 3569 C 332.179 4.21965 -0.472318 0
M  V30 3570 O 333.203 3.53173 -0.463413 0
M  V30 3571 O 332.062 5.44552 -0.461075 0
M  V30 3572 H 329.156 0.826289 -0.0342851 0
M  V30 3573 H 331.702 1.49293 -0.806829 0
M  V30 3574 H 330.474 3.58796 -1.56144 0
M  V30 3575 H 330.097 3.97449 0.109449 0
M  V30 3576 N 331.094 0.475555 1.50254 0
M  V30 3577 C 332.371 -0.139685 1.95101 0
M  V30 3578 C 332.751 -1.56555 1.41611 0
M  V30 3579 O 332.099 -2.19956 0.618993 0
M  V30 3580 C 332.309 -0.0784298 3.48912 0
M  V30 3581 C 333.657 -0.265095 4.23772 0
M  V30 3582 O 334.681 -0.154808 3.55863 0
M  V30 3583 O 333.54 -0.488327 5.44314 0
M  V30 3584 H 330.634 -0.109236 0.819754 0
M  V30 3585 H 333.18 0.536276 1.61004 0
M  V30 3586 H 331.952 0.916918 3.80405 0
M  V30 3587 H 331.575 -0.795655 3.89558 0
M  V30 3588 N 332.573 -1.56217 0.208337 0
M  V30 3589 C 333.82 -1.97949 -0.42692 0
M  V30 3590 C 334.148 -1.09562 -1.60706 0
M  V30 3591 O 333.403 -0.137616 -1.95216 0
M  V30 3592 C 333.702 -3.45441 -0.916797 0
M  V30 3593 C 333.368 -4.50646 0.151391 0
M  V30 3594 C 332.03 -4.79139 0.444867 0
M  V30 3595 C 334.382 -5.13811 0.874492 0
M  V30 3596 C 331.71 -5.68084 1.46619 0
M  V30 3597 C 334.062 -6.03861 1.88506 0
M  V30 3598 C 332.726 -6.30704 2.18559 0
M  V30 3599 H 331.996 -0.724345 -0.156221 0
M  V30 3600 H 334.643 -1.89006 0.308084 0
M  V30 3601 H 332.948 -3.51521 -1.73032 0
M  V30 3602 H 334.645 -3.75094 -1.41794 0
M  V30 3603 H 331.235 -4.28511 -0.0875068 0
M  V30 3604 H 335.419 -4.91879 0.660996 0
M  V30 3605 H 330.675 -5.87151 1.7048 0
M  V30 3606 H 334.849 -6.51861 2.45051 0
M  V30 3607 H 332.476 -6.99424 2.97843 0
M  V30 3608 N 334.051 0.0651679 -1.57465 0
M  V30 3609 C 334.961 1.09448 -2.07505 0
M  V30 3610 C 335.977 1.41974 -1.00595 0
M  V30 3611 O 337.153 1.52018 -1.32107 0
M  V30 3612 C 334.218 2.38689 -2.51453 0
M  V30 3613 C 333.279 2.13073 -3.72691 0
M  V30 3614 C 332.512 3.36152 -4.14533 0
M  V30 3615 O 332.735 4.45517 -3.56189 0
M  V30 3616 O 331.669 3.23974 -5.07272 0
M  V30 3617 H 335.495 0.69935 -2.95538 0
M  V30 3618 H 333.08 0.279752 -1.46757 0
M  V30 3619 H 334.962 3.14736 -2.80212 0
M  V30 3620 H 333.637 2.77568 -1.66546 0
M  V30 3621 H 332.544 1.34709 -3.49005 0
M  V30 3622 H 333.877 1.79071 -4.5847 0
M  V30 3623 N 335.529 1.53961 0.336706 0
M  V30 3624 C 336.462 1.77255 1.43722 0
M  V30 3625 C 337.44 0.62193 1.50236 0
M  V30 3626 O 338.624 0.857874 1.67847 0
M  V30 3627 C 335.751 1.87733 2.81912 0
M  V30 3628 C 334.797 3.09933 2.92991 0
M  V30 3629 S 335.63 4.68836 2.58753 0
M  V30 3630 C 336.786 4.82202 3.99039 0
M  V30 3631 H 337.019 2.70322 1.23748 0
M  V30 3632 H 334.552 1.44917 0.532777 0
M  V30 3633 H 336.51 1.94455 3.61521 0
M  V30 3634 H 335.171 0.956666 2.99177 0
M  V30 3635 H 334.364 3.1396 3.94265 0
M  V30 3636 H 333.966 3.01472 2.21338 0
M  V30 3637 H 336.258 4.64032 4.9364 0
M  V30 3638 H 337.201 5.84298 4.00002 0
M  V30 3639 H 337.609 4.10604 3.87382 0
M  V30 3640 N 337.007 -0.598083 1.45811 0
M  V30 3641 C 337.97 -1.69018 1.54808 0
M  V30 3642 C 338.97 -1.55037 0.426652 0
M  V30 3643 O 340.16 -1.59932 0.690456 0
M  V30 3644 C 337.292 -3.0835 1.45371 0
M  V30 3645 H 338.485 -1.62403 2.52121 0
M  V30 3646 H 336.038 -0.814626 1.33392 0
M  V30 3647 H 336.773 -3.20534 0.492793 0
M  V30 3648 H 336.558 -3.19907 2.26721 0
M  V30 3649 H 338.048 -3.8788 1.54721 0
M  V30 3650 N 338.485 -1.33259 -0.841409 0
M  V30 3651 C 339.734 -1.23921 -1.59143 0
M  V30 3652 C 340.047 0.1941 -1.94635 0
M  V30 3653 O 341.253 0.409474 -2.68394 0
M  V30 3654 C 339.709 -2.17119 -2.87032 0
M  V30 3655 C 339.317 -3.65606 -2.58914 0
M  V30 3656 C 341.061 -2.16648 -3.65053 0
M  V30 3657 C 338.968 -4.50726 -3.82884 0
M  V30 3658 H 337.898 -0.460264 -0.597221 0
M  V30 3659 H 340.549 -1.58307 -0.927959 0
M  V30 3660 H 338.931 -1.75663 -3.54906 0
M  V30 3661 H 340.105 -4.15487 -1.99267 0
M  V30 3662 H 338.42 -3.68341 -1.942 0
M  V30 3663 H 341.017 -2.77474 -4.57069 0
M  V30 3664 H 341.36 -1.16088 -3.99787 0
M  V30 3665 H 341.893 -2.56453 -3.041 0
M  V30 3666 H 338.632 -5.52151 -3.53283 0
M  V30 3667 H 338.152 -4.0559 -4.41879 0
M  V30 3668 H 339.831 -4.64401 -4.50489 0
M  V30 3669 N 339.963 1.05934 -1.16686 0
M  V30 3670 C 341.379 1.30938 -0.912542 0
M  V30 3671 C 341.579 1.96803 0.432533 0
M  V30 3672 O 340.635 2.23693 1.17123 0
M  V30 3673 C 341.948 2.18649 -2.06429 0
M  V30 3674 C 343.496 2.32055 -2.10047 0
M  V30 3675 C 343.971 3.23122 -3.24586 0
M  V30 3676 N 345.462 3.30706 -3.24327 0
M  V30 3677 C 346.197 4.01273 -4.09594 0
M  V30 3678 N 345.693 4.74332 -5.04956 0
M  V30 3679 N 347.486 3.97361 -3.97569 0
M  V30 3680 H 339.637 0.615777 -2.03278 0
M  V30 3681 H 341.9 0.334077 -0.887185 0
M  V30 3682 H 341.606 1.77534 -3.03603 0
M  V30 3683 H 341.48 3.19252 -2.00894 0
M  V30 3684 H 343.867 2.72415 -1.13464 0
M  V30 3685 H 343.948 1.31107 -2.19647 0
M  V30 3686 H 343.592 2.83477 -4.2143 0
M  V30 3687 H 343.522 4.24057 -3.12223 0
M  V30 3688 H 346.013 2.78644 -2.55276 0
M  V30 3689 H 346.326 5.25716 -5.6643 0
M  V30 3690 H 344.671 4.733 -5.08933 0
M  V30 3691 H 347.862 3.39405 -3.22369 0
M  V30 3692 H 348.035 4.52089 -4.64241 0
M  V30 3693 N 341.441 0.965919 1.2453 0
M  V30 3694 C 342.391 0.465731 2.23193 0
M  V30 3695 C 343.375 -0.451277 1.54442 0
M  V30 3696 O 344.567 -0.282489 1.74731 0
M  V30 3697 C 341.696 -0.244511 3.42428 0
M  V30 3698 C 340.782 0.691222 4.18429 0
M  V30 3699 N 341.173 1.82771 4.71623 0
M  V30 3700 C 339.471 0.501649 4.4317 0
M  V30 3701 C 340.172 2.41285 5.29298 0
M  V30 3702 N 339.148 1.69819 5.16394 0
M  V30 3703 H 342.95 1.33291 2.61937 0
M  V30 3704 H 340.464 0.824789 1.39896 0
M  V30 3705 H 342.461 -0.620056 4.12263 0
M  V30 3706 H 341.121 -1.10815 3.05205 0
M  V30 3707 H 342.132 2.20929 4.68413 0
M  V30 3708 H 338.809 -0.318177 4.16286 0
M  V30 3709 H 340.199 3.37181 5.8117 0
M  V30 3710 N 342.919 -1.39368 0.735821 0
M  V30 3711 C 344.166 -2.00497 0.284123 0
M  V30 3712 C 344.494 -1.58387 -1.12889 0
M  V30 3713 O 343.749 -0.804359 -1.78406 0
M  V30 3714 C 344.048 -3.5583 0.334651 0
M  V30 3715 C 343.714 -4.17593 1.7008 0
M  V30 3716 C 342.376 -4.34176 2.07472 0
M  V30 3717 C 344.728 -4.51848 2.59775 0
M  V30 3718 C 342.056 -4.82304 3.34065 0
M  V30 3719 C 344.408 -5.01384 3.85741 0
M  V30 3720 C 343.072 -5.16175 4.23225 0
M  V30 3721 H 342.342 -0.73367 0.103968 0
M  V30 3722 H 344.989 -1.66683 0.942825 0
M  V30 3723 H 343.294 -3.89674 -0.407625 0
M  V30 3724 H 344.991 -4.00986 -0.0329927 0
M  V30 3725 H 341.581 -4.05087 1.40008 0
M  V30 3726 H 345.765 -4.38653 2.32157 0
M  V30 3727 H 341.021 -4.91941 3.63049 0
M  V30 3728 H 345.195 -5.26863 4.55399 0
M  V30 3729 H 342.822 -5.5323 5.21384 0
M  V30 3730 N 344.397 -0.483516 -1.5 0
M  V30 3731 C 345.307 0.309172 -2.32554 0
M  V30 3732 C 346.323 0.984159 -1.43493 0
M  V30 3733 O 347.499 0.969399 -1.76535 0
M  V30 3734 C 344.564 1.36979 -3.18493 0
M  V30 3735 C 343.625 0.710095 -4.23387 0
M  V30 3736 C 342.858 1.72018 -5.05218 0
M  V30 3737 O 343.081 2.94813 -4.88305 0
M  V30 3738 O 342.015 1.28515 -5.8802 0
M  V30 3739 H 345.841 -0.366064 -3.01486 0
M  V30 3740 H 343.426 -0.24514 -1.47375 0
M  V30 3741 H 345.308 1.98385 -3.71781 0
M  V30 3742 H 343.983 2.02828 -2.52275 0
M  V30 3743 H 342.89 0.0567539 -3.74057 0
M  V30 3744 H 344.223 0.0943557 -4.9211 0
M  V30 3745 N 345.875 1.56104 -0.216619 0
M  V30 3746 C 346.807 2.17339 0.72776 0
M  V30 3747 C 347.82 1.14109 1.16116 0
M  V30 3748 O 349.009 1.4111 1.09317 0
M  V30 3749 C 346.109 2.73818 1.99693 0
M  V30 3750 C 345.282 4.02168 1.71988 0
M  V30 3751 C 344.341 4.43259 2.83562 0
M  V30 3752 O 343.367 5.10257 2.52244 0
M  V30 3753 N 344.569 4.08535 4.12407 0
M  V30 3754 H 347.334 2.99005 0.203983 0
M  V30 3755 H 344.895 1.61861 -0.0354289 0
M  V30 3756 H 346.887 2.9828 2.73516 0
M  V30 3757 H 345.457 1.96483 2.43132 0
M  V30 3758 H 344.677 3.85612 0.818337 0
M  V30 3759 H 345.965 4.85907 1.50903 0
M  V30 3760 H 345.363 3.54687 4.40696 0
M  V30 3761 H 343.92 4.37901 4.8279 0
M  V30 3762 N 347.353 -0.0568162 1.57498 0
M  V30 3763 C 348.316 -1.05038 2.03715 0
M  V30 3764 C 349.316 -1.30709 0.936577 0
M  V30 3765 O 350.506 -1.26178 1.20103 0
M  V30 3766 C 347.638 -2.39034 2.43055 0
M  V30 3767 H 348.831 -0.651715 2.92733 0
M  V30 3768 H 346.384 -0.302947 1.53336 0
M  V30 3769 H 347.119 -2.83703 1.57108 0
M  V30 3770 H 346.904 -2.21739 3.2338 0
M  V30 3771 H 348.394 -3.10421 2.79336 0
M  V30 3772 N 348.832 -1.54138 -0.328536 0
M  V30 3773 C 349.762 -1.86167 -1.40939 0
M  V30 3774 C 350.743 -0.718044 -1.54202 0
M  V30 3775 O 351.928 -0.971328 -1.68163 0
M  V30 3776 C 349.058 -2.08461 -2.77779 0
M  V30 3777 C 348.012 -3.24299 -2.7931 0
M  V30 3778 C 347.338 -3.31955 -4.19178 0
M  V30 3779 C 348.638 -4.62065 -2.43502 0
M  V30 3780 H 350.332 -2.76689 -1.14383 0
M  V30 3781 H 347.878 -1.33132 -0.548806 0
M  V30 3782 H 349.831 -2.29453 -3.53454 0
M  V30 3783 H 348.555 -1.14684 -3.05802 0
M  V30 3784 H 347.214 -3.03187 -2.0609 0
M  V30 3785 H 346.862 -2.35745 -4.44335 0
M  V30 3786 H 346.562 -4.09805 -4.2111 0
M  V30 3787 H 348.086 -3.55175 -4.96672 0
M  V30 3788 H 349.5 -4.8297 -3.08889 0
M  V30 3789 H 347.897 -5.42429 -2.56693 0
M  V30 3790 H 348.967 -4.64652 -1.38659 0
M  V30 3791 N 350.31 0.590341 -1.46126 0
M  V30 3792 C 351.726 0.912917 -1.30912 0
M  V30 3793 C 351.926 1.99616 -0.274893 0
M  V30 3794 O 350.982 2.50397 0.325197 0
M  V30 3795 C 352.295 1.3375 -2.69317 0
M  V30 3796 C 353.843 1.45077 -2.77348 0
M  V30 3797 C 354.318 1.90904 -4.16317 0
M  V30 3798 N 355.809 1.9811 -4.18696 0
M  V30 3799 C 356.544 2.34828 -5.23109 0
M  V30 3800 N 356.04 2.70393 -6.37856 0
M  V30 3801 N 357.833 2.35317 -5.10473 0
M  V30 3802 H 349.984 -0.125358 -2.1203 0
M  V30 3803 H 352.247 0.00658481 -0.947977 0
M  V30 3804 H 351.953 0.615614 -3.4627 0
M  V30 3805 H 351.827 2.30058 -2.9892 0
M  V30 3806 H 354.214 2.16353 -2.00687 0
M  V30 3807 H 354.295 0.4704 -2.51438 0
M  V30 3808 H 353.939 1.20209 -4.9347 0
M  V30 3809 H 353.869 2.89886 -4.39629 0
M  V30 3810 H 356.36 1.73146 -3.359 0
M  V30 3811 H 356.673 2.97341 -7.13308 0
M  V30 3812 H 355.018 2.68048 -6.41229 0
M  V30 3813 H 358.209 2.0695 -4.19868 0
M  V30 3814 H 358.382 2.63605 -5.9196 0
M  V30 3815 N 351.788 1.33704 0.83433 0
M  V30 3816 C 352.698 1.26382 1.97648 0
M  V30 3817 C 353.714 0.173548 1.73132 0
M  V30 3818 O 354.89 0.397962 1.97429 0
M  V30 3819 C 351.955 1.00769 3.31733 0
M  V30 3820 C 351.016 2.1884 3.69334 0
M  V30 3821 C 350.249 1.9444 4.9702 0
M  V30 3822 O 350.472 0.896961 5.63303 0
M  V30 3823 O 349.406 2.81093 5.32231 0
M  V30 3824 H 353.232 2.22444 2.06767 0
M  V30 3825 H 350.817 1.13795 0.968037 0
M  V30 3826 H 352.699 0.882186 4.12062 0
M  V30 3827 H 351.374 0.0773783 3.23608 0
M  V30 3828 H 350.281 2.36946 2.89495 0
M  V30 3829 H 351.614 3.10221 3.82131 0
M  V30 3830 N 353.266 -1.05314 1.17247 0
M  V30 3831 C 354.496 -1.81707 0.983166 0
M  V30 3832 C 354.904 -1.83222 -0.471822 0
M  V30 3833 O 354.247 -1.25721 -1.3394 0
M  V30 3834 C 354.309 -3.29134 1.44606 0
M  V30 3835 C 353.973 -3.51304 2.92292 0
M  V30 3836 C 354.97 -3.4353 3.90235 0
M  V30 3837 C 352.655 -3.78306 3.30439 0
M  V30 3838 C 354.649 -3.62442 5.24323 0
M  V30 3839 C 352.336 -3.96866 4.64694 0
M  V30 3840 C 353.334 -3.88933 5.61445 0
M  V30 3841 O 353.022 -4.06976 6.93272 0
M  V30 3842 H 352.754 -0.579476 0.348114 0
M  V30 3843 H 355.308 -1.33705 1.55924 0
M  V30 3844 H 353.538 -3.78046 0.813537 0
M  V30 3845 H 355.227 -3.87049 1.22262 0
M  V30 3846 H 355.993 -3.22648 3.62109 0
M  V30 3847 H 351.872 -3.83585 2.55702 0
M  V30 3848 H 355.416 -3.56165 5.99827 0
M  V30 3849 H 351.313 -4.1724 4.92525 0
M  V30 3850 H 352.081 -4.24209 6.99992 0
M  V30 3851 N 354.744 -0.972509 -1.24016 0
M  V30 3852 C 355.991 -0.637034 -1.92219 0
M  V30 3853 C 356.319 0.828418 -1.75976 0
M  V30 3854 O 355.574 1.61206 -1.10955 0
M  V30 3855 C 355.873 -0.963694 -3.44162 0
M  V30 3856 C 355.539 -2.41807 -3.80579 0
M  V30 3857 C 354.201 -2.81556 -3.9023 0
M  V30 3858 C 356.553 -3.36172 -3.98293 0
M  V30 3859 C 353.881 -4.14702 -4.15017 0
M  V30 3860 C 356.233 -4.68952 -4.24578 0
M  V30 3861 C 354.897 -5.08472 -4.32449 0
M  V30 3862 H 354.167 -0.233107 -0.703379 0
M  V30 3863 H 356.814 -1.2249 -1.47202 0
M  V30 3864 H 355.119 -0.29365 -3.90698 0
M  V30 3865 H 356.816 -0.682449 -3.9515 0
M  V30 3866 H 353.406 -2.09988 -3.73635 0
M  V30 3867 H 357.59 -3.06644 -3.90234 0
M  V30 3868 H 352.846 -4.4494 -4.19331 0
M  V30 3869 H 357.02 -5.42037 -4.37229 0
M  V30 3870 H 354.647 -6.11665 -4.51409 0
M  V30 3871 N 356.222 1.38976 -0.743202 0
M  V30 3872 C 357.468 2.0064 -0.295189 0
M  V30 3873 C 357.801 1.5885 1.11716 0
M  V30 3874 O 357.076 0.821181 1.76315 0
M  V30 3875 C 357.359 3.578 -0.406318 0
M  V30 3876 C 357.212 4.09586 -1.85903 0
M  V30 3877 C 358.531 4.39616 0.206439 0
M  V30 3878 H 355.65 0.728935 -0.108733 0
M  V30 3879 H 358.292 1.65067 -0.940897 0
M  V30 3880 H 356.442 3.88235 0.143419 0
M  V30 3881 H 358.114 3.89837 -2.46627 0
M  V30 3882 H 356.357 3.6284 -2.3776 0
M  V30 3883 H 357.028 5.18708 -1.888 0
M  V30 3884 H 359.504 4.15273 -0.262283 0
M  V30 3885 H 358.38 5.48812 0.0983819 0
M  V30 3886 H 358.641 4.22754 1.2935 0
M  V30 3887 N 357.7 0.491464 1.49741 0
M  V30 3888 C 358.61 -0.296835 2.32715 0
M  V30 3889 C 359.626 -0.976536 1.44013 0
M  V30 3890 O 360.802 -0.960023 1.77047 0
M  V30 3891 C 357.867 -1.35288 3.19215 0
M  V30 3892 C 356.928 -0.687632 4.23757 0
M  V30 3893 C 356.161 -1.69336 5.06123 0
M  V30 3894 O 356.384 -2.92219 4.89861 0
M  V30 3895 O 355.318 -1.25394 5.88693 0
M  V30 3896 H 359.144 0.382048 3.01287 0
M  V30 3897 H 356.729 0.252953 1.47243 0
M  V30 3898 H 358.611 -1.96411 3.72828 0
M  V30 3899 H 357.286 -2.01487 2.53347 0
M  V30 3900 H 356.193 -0.0369159 3.74082 0
M  V30 3901 H 357.526 -0.0682566 4.92153 0
M  V30 3902 N 359.178 -1.55987 0.224894 0
M  V30 3903 C 360.455 -1.90232 -0.455083 0
M  V30 3904 C 360.835 -1.14269 -1.77499 0
M  V30 3905 O 360.183 -0.253079 -2.27094 0
M  V30 3906 C 360.393 -3.42993 -0.644758 0
M  V30 3907 C 361.741 -4.13821 -0.950669 0
M  V30 3908 O 362.765 -3.4861 -0.731423 0
M  V30 3909 O 361.624 -5.29128 -1.36695 0
M  V30 3910 H 358.718 -0.79108 -0.241084 0
M  V30 3911 H 361.264 -1.67581 0.267327 0
M  V30 3912 H 360.036 -3.90252 0.28613 0
M  V30 3913 H 359.659 -3.71434 -1.41853 0
M  V30 3914 N 360.656 0.0484629 -1.57525 0
M  V30 3915 C 361.884 0.755421 -1.92616 0
M  V30 3916 C 362.299 1.69919 -0.822984 0
M  V30 3917 O 361.656 1.81378 0.202085 0
M  V30 3918 C 361.707 1.52915 -3.27566 0
M  V30 3919 O 361.428 0.62329 -4.33644 0
M  V30 3920 C 362.929 2.33502 -3.76818 0
M  V30 3921 H 360.149 0.213465 -0.63614 0
M  V30 3922 H 362.693 0.0117698 -2.04497 0
M  V30 3923 H 360.848 2.22486 -3.17142 0
M  V30 3924 H 361.262 1.16383 -5.11425 0
M  V30 3925 H 362.736 2.83214 -4.73808 0
M  V30 3926 H 363.213 3.14068 -3.07014 0
M  V30 3927 H 363.819 1.69043 -3.90262 0
M  V30 3928 N 362.134 1.5431 0.320358 0
M  V30 3929 C 363.044 1.86946 1.41734 0
M  V30 3930 C 364.06 0.761689 1.56443 0
M  V30 3931 O 365.236 1.05629 1.71477 0
M  V30 3932 C 362.301 2.09293 2.76401 0
M  V30 3933 C 361.362 3.33082 2.70841 0
M  V30 3934 C 360.595 3.54353 3.99086 0
M  V30 3935 O 360.818 2.79002 4.97508 0
M  V30 3936 O 359.752 4.47838 4.0215 0
M  V30 3937 H 363.578 2.80232 1.17062 0
M  V30 3938 H 361.163 1.40255 0.514673 0
M  V30 3939 H 363.045 2.25303 3.56113 0
M  V30 3940 H 361.72 1.19194 3.00956 0
M  V30 3941 H 360.627 3.22454 1.89668 0
M  V30 3942 H 361.96 4.23249 2.5124 0
M  V30 3943 N 363.613 -0.582584 1.46437 0
M  V30 3944 C 364.853 -1.35184 1.53312 0
M  V30 3945 C 365.217 -1.9115 0.180508 0
M  V30 3946 O 366.418 -2.68514 0.124017 0
M  V30 3947 C 364.689 -2.45089 2.60127 0
M  V30 3948 S 366.248 -3.32439 2.86408 0
M  V30 3949 H 363.066 -0.460559 0.54167 0
M  V30 3950 H 365.668 -0.669709 1.83671 0
M  V30 3951 H 364.372 -2.02366 3.57038 0
M  V30 3952 H 363.903 -3.18074 2.315 0
M  V30 3953 H 365.918 -4.43924 2.21688 0
M  V30 3954 N 365.091 -1.34144 -0.827227 0
M  V30 3955 C 366.507 -1.13732 -1.11969 0
M  V30 3956 C 366.707 0.0640463 -2.01398 0
M  V30 3957 O 365.763 0.740856 -2.41387 0
M  V30 3958 C 367.076 -2.43047 -1.77055 0
M  V30 3959 C 368.624 -2.49063 -1.89569 0
M  V30 3960 C 369.099 -3.78369 -2.58072 0
M  V30 3961 N 370.59 -3.79505 -2.65575 0
M  V30 3962 C 371.325 -4.76274 -3.19297 0
M  V30 3963 N 370.821 -5.83424 -3.73616 0
M  V30 3964 N 372.614 -4.63735 -3.17658 0
M  V30 3965 H 364.765 -2.11126 -0.232296 0
M  V30 3966 H 367.028 -0.933424 -0.165602 0
M  V30 3967 H 366.734 -3.31025 -1.18807 0
M  V30 3968 H 366.608 -2.56066 -2.76966 0
M  V30 3969 H 368.995 -1.61527 -2.46968 0
M  V30 3970 H 369.076 -2.39975 -0.885745 0
M  V30 3971 H 368.72 -4.66293 -2.01329 0
M  V30 3972 H 368.65 -3.84737 -3.59562 0
M  V30 3973 H 371.141 -3.02074 -2.27068 0
M  V30 3974 H 371.454 -6.53282 -4.12846 0
M  V30 3975 H 369.799 -5.87143 -3.71871 0
M  V30 3976 H 372.99 -3.79177 -2.74486 0
M  V30 3977 H 373.163 -5.39318 -3.59221 0
M  V30 3978 N 366.569 1.04691 -1.17803 0
M  V30 3979 C 367.797 1.81446 -0.99423 0
M  V30 3980 C 368.212 1.83174 0.457459 0
M  V30 3981 O 367.569 1.26265 1.31771 0
M  V30 3982 C 367.62 3.27334 -1.5341 0
M  V30 3983 O 367.341 3.25798 -2.92895 0
M  V30 3984 C 368.842 4.20759 -1.39559 0
M  V30 3985 H 366.062 0.571599 -0.351447 0
M  V30 3986 H 368.606 1.31982 -1.56208 0
M  V30 3987 H 366.761 3.74052 -1.00815 0
M  V30 3988 H 367.175 4.17144 -3.17949 0
M  V30 3989 H 368.649 5.21084 -1.82141 0
M  V30 3990 H 369.126 4.37856 -0.343394 0
M  V30 3991 H 369.732 3.79901 -1.91195 0
M  V30 3992 N 368.047 0.979072 1.23499 0
M  V30 3993 C 368.977 0.537606 2.27227 0
M  V30 3994 C 369.958 -0.428539 1.64613 0
M  V30 3995 O 371.143 -0.322191 1.91509 0
M  V30 3996 C 368.273 -0.162052 3.46922 0
M  V30 3997 C 367.227 0.721242 4.21879 0
M  V30 3998 C 366.553 -0.110555 5.34586 0
M  V30 3999 C 367.853 2.01141 4.82016 0
M  V30 4000 H 369.547 1.40462 2.64406 0
M  V30 4001 H 367.093 0.67684 1.27102 0
M  V30 4002 H 369.046 -0.482192 4.18632 0
M  V30 4003 H 367.77 -1.06351 3.08799 0
M  V30 4004 H 366.429 1.02482 3.51984 0
M  V30 4005 H 366.077 -1.0125 4.92704 0
M  V30 4006 H 365.777 0.477325 5.85658 0
M  V30 4007 H 367.301 -0.425107 6.09118 0
M  V30 4008 H 368.715 1.75612 5.45741 0
M  V30 4009 H 367.112 2.54695 5.43369 0
M  V30 4010 H 368.182 2.69909 4.02836 0
M  V30 4011 N 369.525 -1.3858 0.750561 0
M  V30 4012 C 370.765 -2.02032 0.310258 0
M  V30 4013 C 371.129 -1.58288 -1.08668 0
M  V30 4014 O 372.33 -2.14049 -1.62593 0
M  V30 4015 C 370.601 -3.54856 0.425647 0
M  V30 4016 S 372.16 -4.38748 0.0674797 0
M  V30 4017 H 368.978 -0.700705 0.120554 0
M  V30 4018 H 371.58 -1.69134 0.980512 0
M  V30 4019 H 370.284 -3.84182 1.44335 0
M  V30 4020 H 369.815 -3.92527 -0.261894 0
M  V30 4021 H 371.83 -4.82835 -1.14388 0
M  V30 4022 N 371.003 -0.499398 -1.49478 0
M  V30 4023 C 371.913 0.284489 -2.32869 0
M  V30 4024 C 372.929 0.968885 -1.44529 0
M  V30 4025 O 374.105 0.95062 -1.77553 0
M  V30 4026 C 371.17 1.33594 -3.19928 0
M  V30 4027 C 370.231 0.665149 -4.24116 0
M  V30 4028 C 369.464 1.6665 -5.07014 0
M  V30 4029 O 369.687 2.89618 -4.91404 0
M  V30 4030 O 368.621 1.22271 -5.8935 0
M  V30 4031 H 372.447 -0.39802 -3.01081 0
M  V30 4032 H 370.032 -0.260758 -1.47107 0
M  V30 4033 H 371.914 1.94431 -3.73864 0
M  V30 4034 H 370.589 2.0014 -2.54412 0
M  V30 4035 H 369.496 0.0170769 -3.74096 0
M  V30 4036 H 370.829 0.0421555 -4.92182 0
M  V30 4037 N 372.481 1.55866 -0.233164 0
M  V30 4038 C 373.729 1.9821 0.394593 0
M  V30 4039 C 374.05 1.12234 1.59463 0
M  V30 4040 O 373.32 0.201981 1.94856 0
M  V30 4041 H 371.9 0.732034 0.148778 0
M  V30 4042 H 374.562 1.92107 -0.32876 0
M  V30 4043 H 373.658 3.03845 0.713063 0
M  V30 4044 N 373.959 -0.0401083 1.57549 0
M  V30 4045 C 375.37 -0.588097 1.77196 0
M  V30 4046 C 375.721 -1.76209 0.862832 0
M  V30 4047 O 374.846 -2.16331 0.0548389 0
M  V30 4048 C 375.441 -1.07363 3.21339 0
M  V30 4049 C 374 -1.56723 3.42221 0
M  V30 4050 C 373.147 -0.50041 2.72747 0
M  V30 4051 H 376.098 0.186119 1.57605 0
M  V30 4052 H 376.119 -1.94143 3.27244 0
M  V30 4053 H 375.631 -0.218975 3.87482 0
M  V30 4054 H 373.732 -2.4441 2.81237 0
M  V30 4055 H 373.845 -1.62234 4.50796 0
M  V30 4056 H 372.209 -0.952894 2.36203 0
M  V30 4057 H 372.992 0.344599 3.41566 0
M  V30 4058 N 375.437 -1.54477 -0.31217 0
M  V30 4059 C 376.369 -1.81011 -1.40598 0
M  V30 4060 C 377.382 -0.692546 -1.47335 0
M  V30 4061 O 378.571 -0.969847 -1.49854 0
M  V30 4062 C 375.671 -1.92307 -2.79054 0
M  V30 4063 C 374.844 -3.22594 -2.95384 0
M  V30 4064 C 373.903 -3.24448 -4.1427 0
M  V30 4065 O 372.929 -3.98035 -4.06887 0
M  V30 4066 N 374.131 -2.49042 -5.24365 0
M  V30 4067 H 376.896 -2.75408 -1.18196 0
M  V30 4068 H 374.457 -1.53914 -0.502202 0
M  V30 4069 H 376.449 -1.90962 -3.56813 0
M  V30 4070 H 375.019 -1.04955 -2.94454 0
M  V30 4071 H 374.239 -3.36806 -2.04831 0
M  V30 4072 H 375.527 -4.08593 -3.03198 0
M  V30 4073 H 374.925 -1.88867 -5.33241 0
M  V30 4074 H 373.482 -2.53463 -6.005 0
M  V30 4075 N 376.915 0.57481 -1.46744 0
M  V30 4076 C 378.331 0.898981 -1.31873 0
M  V30 4077 C 378.531 1.99313 -0.29605 0
M  V30 4078 O 377.587 2.50728 0.298621 0
M  V30 4079 C 378.9 1.30886 -2.7072 0
M  V30 4080 C 380.448 1.42127 -2.78871 0
M  V30 4081 C 380.923 1.86478 -4.18318 0
M  V30 4082 N 382.414 1.93658 -4.20774 0
M  V30 4083 C 383.149 2.29267 -5.2557 0
M  V30 4084 N 382.645 2.63612 -6.40688 0
M  V30 4085 N 384.438 2.29889 -5.1294 0
M  V30 4086 H 376.589 -0.147839 -2.11885 0
M  V30 4087 H 378.852 -0.00347013 -0.947994 0
M  V30 4088 H 378.558 0.578853 -3.46904 0
M  V30 4089 H 378.432 2.26874 -3.01343 0
M  V30 4090 H 380.819 2.14213 -2.0297 0
M  V30 4091 H 380.9 0.443705 -2.51922 0
M  V30 4092 H 380.544 1.14968 -4.94717 0
M  V30 4093 H 380.474 2.85207 -4.42679 0
M  V30 4094 H 382.965 1.69574 -3.37718 0
M  V30 4095 H 383.278 2.89759 -7.16421 0
M  V30 4096 H 381.623 2.61232 -6.44036 0
M  V30 4097 H 384.814 2.02485 -4.22039 0
M  V30 4098 H 384.987 2.57312 -5.94722 0
M  V30 4099 N 378.394 1.34581 0.820102 0
M  V30 4100 C 379.641 1.27096 1.57648 0
M  V30 4101 C 379.969 -0.158317 1.93855 0
M  V30 4102 O 379.224 -1.12028 1.60463 0
M  V30 4103 C 379.523 2.10997 2.8847 0
M  V30 4104 C 379.189 3.59966 2.71543 0
M  V30 4105 C 377.851 4.00575 2.66634 0
M  V30 4106 C 380.203 4.54548 2.55021 0
M  V30 4107 C 377.531 5.33953 2.43128 0
M  V30 4108 C 379.883 5.88109 2.33047 0
M  V30 4109 C 378.547 6.27878 2.26552 0
M  V30 4110 H 377.817 0.465078 0.576874 0
M  V30 4111 H 380.464 1.6635 0.948671 0
M  V30 4112 H 378.769 1.6458 3.55557 0
M  V30 4113 H 380.466 2.0255 3.46084 0
M  V30 4114 H 377.056 3.27733 2.76205 0
M  V30 4115 H 381.24 4.24069 2.57835 0
M  V30 4116 H 376.496 5.63781 2.3656 0
M  V30 4117 H 380.67 6.60985 2.19251 0
M  V30 4118 H 378.297 7.31162 2.081 0
M  V30 4119 N 379.872 -1.04064 1.18357 0
M  V30 4120 C 380.782 -2.15569 0.925596 0
M  V30 4121 C 381.798 -1.7365 -0.110295 0
M  V30 4122 O 382.974 -2.01273 0.0716218 0
M  V30 4123 C 380.039 -3.43704 0.454836 0
M  V30 4124 C 379.1 -4.00004 1.55869 0
M  V30 4125 C 378.333 -5.22023 1.1103 0
M  V30 4126 O 378.556 -5.70392 -0.0309756 0
M  V30 4127 O 377.49 -5.70856 1.90805 0
M  V30 4128 H 381.316 -2.40187 1.8586 0
M  V30 4129 H 378.901 -1.1402 0.965394 0
M  V30 4130 H 380.783 -4.20923 0.200382 0
M  V30 4131 H 379.458 -3.20559 -0.449876 0
M  V30 4132 H 378.365 -3.24172 1.86716 0
M  V30 4133 H 379.698 -4.2749 2.43953 0
M  V30 4134 N 381.35 -0.985608 -1.22978 0
M  V30 4135 C 382.26 -0.538548 -2.28335 0
M  V30 4136 C 383.276 0.409163 -1.69121 0
M  V30 4137 O 384.452 0.277797 -1.99475 0
M  V30 4138 C 381.517 0.146867 -3.46389 0
M  V30 4139 C 380.578 -0.842896 -4.20944 0
M  V30 4140 C 379.811 -0.190095 -5.33361 0
M  V30 4141 O 380.034 1.01767 -5.61248 0
M  V30 4142 O 378.968 -0.891289 -5.95264 0
M  V30 4143 H 382.794 -1.41487 -2.68729 0
M  V30 4144 H 380.379 -0.753495 -1.29007 0
M  V30 4145 H 382.261 0.531125 -4.1804 0
M  V30 4146 H 380.936 0.997871 -3.07935 0
M  V30 4147 H 379.843 -1.27795 -3.51595 0
M  V30 4148 H 381.176 -1.66287 -4.6326 0
M  V30 4149 N 382.828 1.3818 -0.7579 0
M  V30 4150 C 384.058 2.04004 -0.326463 0
M  V30 4151 C 384.466 1.57286 1.05156 0
M  V30 4152 O 383.809 0.743144 1.67997 0
M  V30 4153 C 383.871 3.58444 -0.275402 0
M  V30 4154 C 383.535 4.28237 -1.59569 0
M  V30 4155 C 384.532 4.53312 -2.54566 0
M  V30 4156 C 382.217 4.66341 -1.86631 0
M  V30 4157 C 384.211 5.15531 -3.74842 0
M  V30 4158 C 381.898 5.28283 -3.0718 0
M  V30 4159 C 382.896 5.52814 -4.01106 0
M  V30 4160 O 382.584 6.13465 -5.19534 0
M  V30 4161 H 382.316 0.662026 -0.136739 0
M  V30 4162 H 384.87 1.7777 -1.02893 0
M  V30 4163 H 383.1 3.83667 0.483337 0
M  V30 4164 H 384.789 4.05701 0.127099 0
M  V30 4165 H 385.555 4.24299 -2.34936 0
M  V30 4166 H 381.434 4.46591 -1.14358 0
M  V30 4167 H 384.978 5.34594 -4.48168 0
M  V30 4168 H 380.875 5.56719 -3.26702 0
M  V30 4169 H 381.643 6.31951 -5.20173 0
M  V30 4170 N 384.306 0.507319 1.49211 0
M  V30 4171 C 385.216 -0.272136 2.33016 0
M  V30 4172 C 386.232 -0.961206 1.45041 0
M  V30 4173 O 387.408 -0.941191 1.78055 0
M  V30 4174 C 384.473 -1.31895 3.20631 0
M  V30 4175 C 383.534 -0.642648 4.24463 0
M  V30 4176 C 382.767 -1.63959 5.07891 0
M  V30 4177 O 382.99 -2.87007 4.92933 0
M  V30 4178 O 381.924 -1.19143 5.8999 0
M  V30 4179 H 385.75 0.413982 3.00865 0
M  V30 4180 H 383.335 0.268556 1.46966 0
M  V30 4181 H 385.217 -1.92446 3.7489 0
M  V30 4182 H 383.892 -1.98788 2.5547 0
M  V30 4183 H 382.799 0.00276252 3.741 0
M  V30 4184 H 384.132 -0.0160534 4.92197 0
M  V30 4185 N 385.784 -1.5574 0.241426 0
M  V30 4186 C 387.014 -2.02913 -0.38857 0
M  V30 4187 C 387.422 -1.12014 -1.52478 0
M  V30 4188 O 386.765 -0.125903 -1.83268 0
M  V30 4189 C 386.827 -3.4636 -0.963075 0
M  V30 4190 C 386.491 -4.56982 0.0401916 0
M  V30 4191 C 387.488 -5.12941 0.847766 0
M  V30 4192 C 385.173 -5.0203 0.164699 0
M  V30 4193 C 387.167 -6.12437 1.76636 0
M  V30 4194 C 384.854 -6.01358 1.0868 0
M  V30 4195 C 385.852 -6.5644 1.88616 0
M  V30 4196 O 385.54 -7.53831 2.79273 0
M  V30 4197 H 385.272 -0.668983 -0.0971452 0
M  V30 4198 H 387.826 -2.02198 0.361248 0
M  V30 4199 H 386.056 -3.44206 -1.76235 0
M  V30 4200 H 387.745 -3.77065 -1.50257 0
M  V30 4201 H 388.511 -4.78974 0.762133 0
M  V30 4202 H 384.39 -4.58824 -0.447411 0
M  V30 4203 H 387.934 -6.55355 2.39071 0
M  V30 4204 H 383.831 -6.34746 1.17338 0
M  V30 4205 H 384.599 -7.71428 2.73572 0
M  V30 4206 N 387.262 0.0317525 -1.57568 0
M  V30 4207 C 388.192 1.03274 -2.0942 0
M  V30 4208 C 389.173 1.3788 -0.996143 0
M  V30 4209 O 390.358 1.46811 -1.27122 0
M  V30 4210 C 387.488 2.33448 -2.57137 0
M  V30 4211 C 386.442 2.13091 -3.71182 0
M  V30 4212 C 385.768 3.49001 -4.05095 0
M  V30 4213 C 387.068 1.51928 -4.99715 0
M  V30 4214 H 388.762 0.60112 -2.93303 0
M  V30 4215 H 386.308 0.287705 -1.41097 0
M  V30 4216 H 388.261 3.03802 -2.92032 0
M  V30 4217 H 386.985 2.78665 -1.70333 0
M  V30 4218 H 385.644 1.45171 -3.36632 0
M  V30 4219 H 385.292 3.91862 -3.15362 0
M  V30 4220 H 384.992 3.36207 -4.81911 0
M  V30 4221 H 386.516 4.20721 -4.42522 0
M  V30 4222 H 387.93 2.12196 -5.32584 0
M  V30 4223 H 386.327 1.49716 -5.81124 0
M  V30 4224 H 387.397 0.484811 -4.8247 0
M  V30 4225 N 388.74 1.54641 0.303973 0
M  V30 4226 C 389.988 1.73437 1.0375 0
M  V30 4227 C 390.309 0.521449 1.87899 0
M  V30 4228 O 389.579 -0.46432 1.90318 0
M  V30 4229 H 388.159 0.639518 0.386039 0
M  V30 4230 H 390.821 1.91988 0.335675 0
M  V30 4231 H 389.917 2.62235 1.69231 0
M  V30 4232 N 390.218 -0.567019 1.47046 0
M  V30 4233 C 391.448 -1.34831 1.56538 0
M  V30 4234 C 391.856 -1.8802 0.21101 0
M  V30 4235 O 391.199 -1.65152 -0.804387 0
M  V30 4236 C 391.261 -2.56139 2.52256 0
M  V30 4237 C 390.925 -2.24307 3.98165 0
M  V30 4238 C 391.922 -1.82192 4.86931 0
M  V30 4239 C 389.607 -2.35968 4.43423 0
M  V30 4240 C 391.601 -1.52153 6.18973 0
M  V30 4241 C 389.288 -2.05542 5.75496 0
M  V30 4242 C 390.286 -1.63701 6.63092 0
M  V30 4243 O 389.974 -1.33657 7.92711 0
M  V30 4244 H 389.706 -0.417683 0.531523 0
M  V30 4245 H 392.26 -0.694726 1.93294 0
M  V30 4246 H 390.49 -3.24356 2.10548 0
M  V30 4247 H 392.179 -3.18214 2.51982 0
M  V30 4248 H 392.945 -1.72684 4.53217 0
M  V30 4249 H 388.824 -2.67495 3.75456 0
M  V30 4250 H 392.368 -1.19421 6.87302 0
M  V30 4251 H 388.265 -2.14679 6.08755 0
M  V30 4252 H 389.033 -1.4737 8.05124 0
M  V30 4253 N 391.696 -1.35014 -0.812953 0
M  V30 4254 C 392.643 -1.27412 -1.92444 0
M  V30 4255 C 393.613 -0.14733 -1.65445 0
M  V30 4256 O 394.798 -0.329974 -1.87925 0
M  V30 4257 C 391.938 -1.04558 -3.28879 0
M  V30 4258 C 391.051 -2.26101 -3.68106 0
M  V30 4259 C 390.186 -1.96449 -4.9354 0
M  V30 4260 C 389.225 -3.14081 -5.25376 0
M  V30 4261 N 388.362 -2.84246 -6.41988 0
M  V30 4262 H 393.202 -2.22463 -1.98278 0
M  V30 4263 H 390.739 -1.10593 -0.969933 0
M  V30 4264 H 392.697 -0.893413 -4.07522 0
M  V30 4265 H 391.327 -0.131719 -3.22531 0
M  V30 4266 H 390.379 -2.52204 -2.84775 0
M  V30 4267 H 391.691 -3.13959 -3.87597 0
M  V30 4268 H 390.845 -1.78026 -5.79993 0
M  V30 4269 H 389.584 -1.05867 -4.76071 0
M  V30 4270 H 388.589 -3.33089 -4.37415 0
M  V30 4271 H 389.814 -4.05455 -5.44778 0
M  V30 4272 H 387.76 -1.96252 -6.25956 0
M  V30 4273 H 387.677 -3.65637 -6.61699 0
M  V30 4274 H 388.945 -2.6935 -7.31485 0
M  V30 4275 N 393.175 1.03435 -1.18907 0
M  V30 4276 C 394.138 2.09756 -0.923844 0
M  V30 4277 C 395.138 1.60528 0.093416 0
M  V30 4278 O 396.328 1.73631 -0.140727 0
M  V30 4279 C 393.46 3.38692 -0.387354 0
M  V30 4280 H 394.653 2.34719 -1.86674 0
M  V30 4281 H 392.206 1.19959 -1.00197 0
M  V30 4282 H 392.941 3.19396 0.561845 0
M  V30 4283 H 392.726 3.75742 -1.12074 0
M  V30 4284 H 394.216 4.17016 -0.220694 0
M  V30 4285 N 394.653 0.992116 1.22453 0
M  V30 4286 C 395.901 0.666215 1.90804 0
M  V30 4287 C 396.222 -0.804152 1.77647 0
M  V30 4288 O 395.492 -1.57629 1.16318 0
M  V30 4289 H 394.072 0.243423 0.706225 0
M  V30 4290 H 396.734 1.25845 1.48825 0
M  V30 4291 H 395.83 0.928069 2.97982 0
M  V30 4292 N 396.131 -1.37776 0.765217 0
M  V30 4293 C 397.061 -2.32945 0.160953 0
M  V30 4294 C 398.042 -1.55454 -0.690516 0
M  V30 4295 O 399.227 -1.83721 -0.629318 0
M  V30 4296 C 396.357 -3.39669 -0.724031 0
M  V30 4297 C 395.311 -4.27992 0.0256173 0
M  V30 4298 C 394.637 -5.25673 -0.978383 0
M  V30 4299 C 395.937 -5.08309 1.20082 0
M  V30 4300 H 397.631 -2.83728 0.955969 0
M  V30 4301 H 395.177 -1.36416 0.461149 0
M  V30 4302 H 397.13 -4.05219 -1.15652 0
M  V30 4303 H 395.854 -2.87396 -1.5515 0
M  V30 4304 H 394.513 -3.63964 0.438812 0
M  V30 4305 H 394.161 -4.69682 -1.80022 0
M  V30 4306 H 393.861 -5.85625 -0.481378 0
M  V30 4307 H 395.385 -5.94098 -1.40995 0
M  V30 4308 H 396.799 -5.67034 0.845307 0
M  V30 4309 H 395.196 -5.77554 1.62947 0
M  V30 4310 H 396.266 -4.41365 2.00811 0
M  V30 4311 N 397.609 -0.515225 -1.4894 0
M  V30 4312 C 398.839 0.0205735 -2.0659 0
M  V30 4313 C 399.247 1.30064 -1.37405 0
M  V30 4314 O 398.59 1.78087 -0.450632 0
M  V30 4315 C 398.652 0.330124 -3.57981 0
M  V30 4316 C 398.316 -0.854295 -4.48944 0
M  V30 4317 C 399.313 -1.7487 -4.89609 0
M  V30 4318 C 396.998 -1.05712 -4.9105 0
M  V30 4319 C 398.992 -2.82996 -5.71132 0
M  V30 4320 C 396.679 -2.14154 -5.72347 0
M  V30 4321 C 397.677 -3.0263 -6.12294 0
M  V30 4322 O 397.365 -4.09198 -6.91962 0
M  V30 4323 H 397.097 -0.0236833 -0.675585 0
M  V30 4324 H 399.651 -0.715956 -1.92518 0
M  V30 4325 H 397.881 1.12044 -3.70112 0
M  V30 4326 H 399.57 0.806233 -3.97812 0
M  V30 4327 H 400.336 -1.60388 -4.57712 0
M  V30 4328 H 396.215 -0.377788 -4.59449 0
M  V30 4329 H 399.759 -3.52083 -6.02232 0
M  V30 4330 H 395.656 -2.28626 -6.03656 0
M  V30 4331 H 396.424 -4.06726 -7.10293 0
M  V30 4332 N 399.087 1.5561 -0.249682 0
M  V30 4333 C 399.997 2.25143 0.659375 0
M  V30 4334 C 401.013 1.2685 1.19101 0
M  V30 4335 O 402.189 1.59732 1.22669 0
M  V30 4336 C 399.254 2.93945 1.8384 0
M  V30 4337 C 398.315 4.07655 1.34596 0
M  V30 4338 C 397.548 4.73167 2.46878 0
M  V30 4339 O 397.771 4.37768 3.65671 0
M  V30 4340 O 396.705 5.61623 2.16478 0
M  V30 4341 H 400.531 3.03545 0.0968698 0
M  V30 4342 H 398.116 1.49389 -0.018074 0
M  V30 4343 H 399.998 3.37271 2.52638 0
M  V30 4344 H 398.673 2.18481 2.38847 0
M  V30 4345 H 397.58 3.68839 0.625174 0
M  V30 4346 H 398.913 4.84946 0.841941 0
M  V30 4347 N 400.565 -0.0233959 1.57583 0
M  V30 4348 C 401.528 -1.00693 2.05897 0
M  V30 4349 C 402.528 -1.28693 0.964092 0
M  V30 4350 O 403.718 -1.23602 1.22753 0
M  V30 4351 C 400.85 -2.33825 2.4807 0
M  V30 4352 H 402.043 -0.589476 2.9405 0
M  V30 4353 H 399.596 -0.270354 1.53944 0
M  V30 4354 H 400.331 -2.80307 1.6309 0
M  V30 4355 H 400.116 -2.1483 3.2801 0
M  V30 4356 H 401.606 -3.04426 2.85857 0
M  V30 4357 N 402.043 -1.548 -0.295768 0
M  V30 4358 C 403.292 -1.73538 -1.02798 0
M  V30 4359 C 403.605 -0.531159 -1.8825 0
M  V30 4360 O 404.811 -0.600458 -2.64777 0
M  V30 4361 C 403.267 -3.07051 -1.87744 0
M  V30 4362 C 402.875 -4.34968 -1.07269 0
M  V30 4363 C 404.619 -3.35146 -2.60533 0
M  V30 4364 C 402.526 -5.5953 -1.91521 0
M  V30 4365 H 401.456 -0.646794 -0.387522 0
M  V30 4366 H 404.107 -1.81278 -0.284718 0
M  V30 4367 H 402.489 -2.93289 -2.66078 0
M  V30 4368 H 403.663 -4.5958 -0.335117 0
M  V30 4369 H 401.978 -4.13847 -0.460384 0
M  V30 4370 H 404.575 -4.2541 -3.23929 0
M  V30 4371 H 404.918 -2.54255 -3.29636 0
M  V30 4372 H 405.451 -3.49902 -1.89244 0
M  V30 4373 H 402.19 -6.43103 -1.26878 0
M  V30 4374 H 401.71 -5.39096 -2.62937 0
M  V30 4375 H 403.389 -5.96982 -2.49442 0
M  V30 4376 N 403.521 0.559213 -1.47345 0
M  V30 4377 C 404.484 1.64854 -1.59235 0
M  V30 4378 C 405.484 1.53851 -0.467607 0
M  V30 4379 O 406.674 1.58045 -0.732617 0
M  V30 4380 C 403.806 3.04388 -1.53496 0
M  V30 4381 H 404.999 1.55662 -2.56339 0
M  V30 4382 H 402.552 0.778973 -1.35505 0
M  V30 4383 H 403.287 3.19115 -0.577604 0
M  V30 4384 H 403.072 3.13783 -2.35123 0
M  V30 4385 H 404.562 3.83642 -1.6495 0
M  V30 4386 N 404.999 1.35443 0.805782 0
M  V30 4387 C 406.276 1.19325 1.54987 0
M  V30 4388 C 406.656 -0.227294 2.09873 0
M  V30 4389 O 406.004 -1.2309 1.92512 0
M  V30 4390 C 406.214 2.26196 2.65775 0
M  V30 4391 C 407.562 2.62043 3.34094 0
M  V30 4392 O 408.586 2.25115 2.76046 0
M  V30 4393 O 407.445 3.25542 4.38958 0
M  V30 4394 H 404.539 0.463623 0.684823 0
M  V30 4395 H 407.085 1.47127 0.845674 0
M  V30 4396 H 405.857 3.21471 2.23096 0
M  V30 4397 H 405.48 1.99667 3.43829 0
M  V30 4398 N 406.477 -1.02803 1.19454 0
M  V30 4399 C 407.427 -2.0945 0.900827 0
M  V30 4400 C 408.411 -1.60335 -0.134715 0
M  V30 4401 O 409.603 -1.76857 0.0710924 0
M  V30 4402 C 406.732 -3.4044 0.442229 0
M  V30 4403 C 405.818 -3.96286 1.51056 0
M  V30 4404 N 406.209 -4.25785 2.73021 0
M  V30 4405 C 404.507 -4.24307 1.37404 0
M  V30 4406 C 405.208 -4.70654 3.41848 0
M  V30 4407 N 404.184 -4.72238 2.69243 0
M  V30 4408 H 407.986 -2.3015 1.82779 0
M  V30 4409 H 405.5 -1.20672 1.08683 0
M  V30 4410 H 407.497 -4.16354 0.21326 0
M  V30 4411 H 406.157 -3.21159 -0.478238 0
M  V30 4412 H 407.168 -4.15041 3.09776 0
M  V30 4413 H 403.845 -4.14285 0.517103 0
M  V30 4414 H 405.235 -5.02392 4.46152 0
M  V30 4415 N 407.956 -0.998596 -1.21925 0
M  V30 4416 C 409.186 -0.695276 -1.94549 0
M  V30 4417 C 409.594 0.745079 -1.73911 0
M  V30 4418 O 408.937 1.51507 -1.03881 0
M  V30 4419 C 408.999 -0.928485 -3.47303 0
M  V30 4420 C 408.663 -2.35443 -3.91683 0
M  V30 4421 C 409.66 -3.33428 -3.98901 0
M  V30 4422 C 407.345 -2.69038 -4.24174 0
M  V30 4423 C 409.339 -4.63079 -4.37992 0
M  V30 4424 C 407.026 -3.98906 -4.62944 0
M  V30 4425 C 408.024 -4.95738 -4.69822 0
M  V30 4426 O 407.712 -6.23285 -5.07711 0
M  V30 4427 H 407.444 -0.255902 -0.625692 0
M  V30 4428 H 409.998 -1.33767 -1.5587 0
M  V30 4429 H 408.228 -0.228917 -3.86022 0
M  V30 4430 H 409.917 -0.619539 -4.01144 0
M  V30 4431 H 410.683 -3.08807 -3.73983 0
M  V30 4432 H 406.562 -1.94367 -4.18022 0
M  V30 4433 H 410.106 -5.38658 -4.43275 0
M  V30 4434 H 406.003 -4.23314 -4.87314 0
M  V30 4435 H 406.771 -6.27306 -5.25766 0
M  V30 4436 N 409.434 1.37368 -0.772513 0
M  V30 4437 C 410.367 2.27956 -0.105593 0
M  V30 4438 C 411.345 1.46362 0.708295 0
M  V30 4439 O 412.529 1.75695 0.682895 0
M  V30 4440 C 409.656 3.27687 0.856686 0
M  V30 4441 C 408.702 4.26312 0.1267 0
M  V30 4442 S 409.535 5.22206 -1.1858 0
M  V30 4443 C 410.691 6.25488 -0.227081 0
M  V30 4444 H 410.924 2.84171 -0.87372 0
M  V30 4445 H 408.457 1.43654 -0.565939 0
M  V30 4446 H 410.415 3.85653 1.40648 0
M  V30 4447 H 409.076 2.70417 1.59793 0
M  V30 4448 H 408.269 4.96674 0.856212 0
M  V30 4449 H 407.871 3.72339 -0.352117 0
M  V30 4450 H 410.163 6.74836 0.600231 0
M  V30 4451 H 411.106 7.02371 -0.898899 0
M  V30 4452 H 411.514 5.64267 0.162053 0
M  V30 4453 N 410.912 0.523116 1.48665 0
M  V30 4454 C 411.844 -0.280421 2.27478 0
M  V30 4455 C 412.857 -0.910694 1.34945 0
M  V30 4456 O 414.046 -0.790295 1.60052 0
M  V30 4457 C 411.146 -1.41171 3.08097 0
M  V30 4458 C 410.319 -0.884642 4.28361 0
M  V30 4459 C 409.378 -1.89622 4.90846 0
M  V30 4460 O 408.404 -1.4559 5.50265 0
M  V30 4461 N 409.606 -3.22801 4.82472 0
M  V30 4462 H 412.371 0.395481 2.97079 0
M  V30 4463 H 409.932 0.357018 1.57915 0
M  V30 4464 H 411.924 -2.08645 3.4677 0
M  V30 4465 H 410.494 -1.99139 2.40961 0
M  V30 4466 H 409.714 -0.0341177 3.94185 0
M  V30 4467 H 411.002 -0.511268 5.06225 0
M  V30 4468 H 410.4 -3.61246 4.35336 0
M  V30 4469 H 408.957 -3.85927 5.25265 0
M  V30 4470 N 412.39 -1.55475 0.257931 0
M  V30 4471 C 413.636 -1.99502 -0.364266 0
M  V30 4472 C 413.969 -1.146 -1.56782 0
M  V30 4473 O 413.244 -0.211968 -1.93342 0
M  V30 4474 C 413.527 -3.51917 -0.763333 0
M  V30 4475 C 413.38 -4.4758 0.446371 0
M  V30 4476 C 414.699 -4.09742 -1.60623 0
M  V30 4477 H 411.818 -0.725277 -0.130929 0
M  V30 4478 H 414.46 -1.8653 0.361446 0
M  V30 4479 H 412.61 -3.63101 -1.38166 0
M  V30 4480 H 414.282 -4.48362 1.08487 0
M  V30 4481 H 412.525 -4.19947 1.08753 0
M  V30 4482 H 413.196 -5.51862 0.123645 0
M  V30 4483 H 415.672 -4.01727 -1.08418 0
M  V30 4484 H 414.548 -5.16631 -1.85429 0
M  V30 4485 H 414.809 -3.58889 -2.58169 0
M  V30 4486 N 413.868 0.0150385 -1.57593 0
M  V30 4487 C 414.798 1.01047 -2.10503 0
M  V30 4488 C 415.779 1.36816 -1.01071 0
M  V30 4489 O 416.964 1.45455 -1.28672 0
M  V30 4490 C 414.094 2.30708 -2.59598 0
M  V30 4491 C 413.048 2.09142 -3.73421 0
M  V30 4492 C 412.374 3.44685 -4.08774 0
M  V30 4493 C 413.674 1.46619 -5.01298 0
M  V30 4494 H 415.368 0.569978 -2.93925 0
M  V30 4495 H 412.914 0.272724 -1.41394 0
M  V30 4496 H 414.867 3.00687 -2.95238 0
M  V30 4497 H 413.591 2.76843 -1.73279 0
M  V30 4498 H 412.25 1.41592 -3.38153 0
M  V30 4499 H 411.898 3.88495 -3.195 0
M  V30 4500 H 411.598 3.31077 -4.8545 0
M  V30 4501 H 413.122 4.16004 -4.4696 0
M  V30 4502 H 414.536 2.06535 -5.34805 0
M  V30 4503 H 412.933 1.43544 -5.82679 0
M  V30 4504 H 414.003 0.433611 -4.82957 0
M  V30 4505 N 415.346 1.54954 0.287554 0
M  V30 4506 C 416.592 1.75132 1.02257 0
M  V30 4507 C 416.925 0.542858 1.86458 0
M  V30 4508 O 416.2 -0.459856 1.88986 0
M  V30 4509 C 416.483 3.04812 1.91733 0
M  V30 4510 C 416.336 4.35985 1.10622 0
M  V30 4511 C 417.655 3.30438 2.90687 0
M  V30 4512 H 414.774 0.637194 0.370341 0
M  V30 4513 H 417.416 1.87678 0.296111 0
M  V30 4514 H 415.566 2.94247 2.53675 0
M  V30 4515 H 417.238 4.58487 0.508636 0
M  V30 4516 H 415.481 4.31865 0.409271 0
M  V30 4517 H 416.152 5.23017 1.76513 0
M  V30 4518 H 418.628 3.40701 2.38877 0
M  V30 4519 H 417.504 4.22467 3.50447 0
M  V30 4520 H 417.765 2.49377 3.65053 0
M  V30 4521 N 416.824 -0.551391 1.4764 0
M  V30 4522 C 418.064 -1.31901 1.56145 0
M  V30 4523 C 418.428 -1.90724 0.221013 0
M  V30 4524 O 419.629 -2.6819 0.180945 0
M  V30 4525 C 417.9 -2.39517 2.65267 0
M  V30 4526 S 419.459 -3.26289 2.93395 0
M  V30 4527 H 416.277 -0.448965 0.551318 0
M  V30 4528 H 418.879 -0.630599 1.85051 0
M  V30 4529 H 417.583 -1.94747 3.6125 0
M  V30 4530 H 417.114 -3.13092 2.38195 0
M  V30 4531 H 419.129 -4.39122 2.31055 0
M  V30 4532 N 418.302 -1.35869 -0.798587 0
M  V30 4533 C 419.234 -1.25305 -1.91915 0
M  V30 4534 C 420.247 -0.174548 -1.61862 0
M  V30 4535 O 421.436 -0.428499 -1.73281 0
M  V30 4536 C 418.536 -0.9086 -3.26493 0
M  V30 4537 C 417.709 -2.08711 -3.84394 0
M  V30 4538 C 416.768 -1.71717 -4.97393 0
M  V30 4539 O 415.794 -2.43692 -5.14396 0
M  V30 4540 N 416.996 -0.645473 -5.769 0
M  V30 4541 H 419.761 -2.21849 -2.01502 0
M  V30 4542 H 417.322 -1.29143 -0.976408 0
M  V30 4543 H 419.314 -0.642455 -3.99568 0
M  V30 4544 H 417.884 -0.0325815 -3.12583 0
M  V30 4545 H 417.104 -2.51659 -3.03416 0
M  V30 4546 H 418.392 -2.87468 -4.19809 0
M  V30 4547 H 417.79 -0.047648 -5.6568 0
M  V30 4548 H 416.347 -0.43913 -6.50319 0
M  V30 4549 N 419.78 1.02168 -1.19998 0
M  V30 4550 C 420.73 2.08969 -0.911921 0
M  V30 4551 C 421.714 1.60404 0.12621 0
M  V30 4552 O 422.906 1.76817 -0.0804706 0
M  V30 4553 C 420.035 3.402 -0.460277 0
M  V30 4554 C 419.121 3.9548 -1.53155 0
M  V30 4555 N 419.512 4.24332 -2.75275 0
M  V30 4556 C 417.81 4.23572 -1.39653 0
M  V30 4557 C 418.511 4.68834 -3.44339 0
M  V30 4558 N 417.487 4.70804 -2.71744 0
M  V30 4559 H 421.289 2.29178 -1.83997 0
M  V30 4560 H 418.803 1.20094 -1.09322 0
M  V30 4561 H 420.8 4.16235 -0.235337 0
M  V30 4562 H 419.46 3.21408 0.4612 0
M  V30 4563 H 420.471 4.13393 -3.11973 0
M  V30 4564 H 417.148 4.14005 -0.539067 0
M  V30 4565 H 418.538 5.00019 -4.4881 0
M  V30 4566 N 421.258 1.00505 1.21394 0
M  V30 4567 C 422.168 0.574806 2.27449 0
M  V30 4568 C 423.184 -0.382206 1.6975 0
M  V30 4569 O 424.36 -0.246027 1.99892 0
M  V30 4570 C 421.425 -0.0917414 3.46579 0
M  V30 4571 C 420.486 0.909758 4.1955 0
M  V30 4572 C 419.719 0.274924 5.32991 0
M  V30 4573 O 419.942 -0.928254 5.62796 0
M  V30 4574 O 418.876 0.985877 5.93771 0
M  V30 4575 H 422.702 1.45744 2.66444 0
M  V30 4576 H 420.287 0.773923 1.27792 0
M  V30 4577 H 422.169 -0.464551 4.18832 0
M  V30 4578 H 420.844 -0.948755 3.09484 0
M  V30 4579 H 419.751 1.33372 3.49518 0
M  V30 4580 H 421.084 1.73636 4.60555 0
M  V30 4581 N 422.737 -1.36956 0.779787 0
M  V30 4582 C 423.977 -2.01328 0.353043 0
M  V30 4583 C 424.341 -1.60558 -1.05286 0
M  V30 4584 O 425.542 -2.1745 -1.58016 0
M  V30 4585 C 423.813 -3.53874 0.500822 0
M  V30 4586 S 425.372 -4.38506 0.16053 0
M  V30 4587 H 422.19 -0.69799 0.13539 0
M  V30 4588 H 424.792 -1.67016 1.01617 0
M  V30 4589 H 423.496 -3.81034 1.52451 0
M  V30 4590 H 423.027 -3.92994 -0.178574 0
M  V30 4591 H 425.042 -4.85153 -1.04121 0
M  V30 4592 N 424.215 -0.530993 -1.48385 0
M  V30 4593 C 425.461 0.00274135 -2.028 0
M  V30 4594 C 425.794 1.33838 -1.40716 0
M  V30 4595 O 425.069 1.86465 -0.553277 0
M  V30 4596 C 425.352 0.123676 -3.59888 0
M  V30 4597 C 425.205 -1.2372 -4.3245 0
M  V30 4598 C 426.524 0.849967 -4.31814 0
M  V30 4599 H 423.643 -0.000477758 -0.737 0
M  V30 4600 H 426.285 -0.688217 -1.77098 0
M  V30 4601 H 424.435 0.712157 -3.81917 0
M  V30 4602 H 426.107 -1.86687 -4.21836 0
M  V30 4603 H 424.35 -1.81882 -3.93829 0
M  V30 4604 H 425.021 -1.10557 -5.40815 0
M  V30 4605 H 427.497 0.350572 -4.14621 0
M  V30 4606 H 426.373 0.903486 -5.41413 0
M  V30 4607 H 426.634 1.90047 -3.99167 0
M  V30 4608 N 425.693 1.55336 -0.266172 0
M  V30 4609 C 427.109 1.59356 0.0882065 0
M  V30 4610 C 427.309 1.2834 1.55342 0
M  V30 4611 O 426.365 1.03996 2.30089 0
M  V30 4612 C 427.678 2.99409 -0.278364 0
M  V30 4613 C 429.226 3.12196 -0.224243 0
M  V30 4614 C 429.701 4.545 -0.565123 0
M  V30 4615 N 431.192 4.60313 -0.51634 0
M  V30 4616 C 431.927 5.68434 -0.753013 0
M  V30 4617 N 431.423 6.84738 -1.05383 0
M  V30 4618 N 433.216 5.57942 -0.682414 0
M  V30 4619 H 425.367 1.73764 -1.22147 0
M  V30 4620 H 427.63 0.809822 -0.492841 0
M  V30 4621 H 427.336 3.2691 -1.29703 0
M  V30 4622 H 427.21 3.75228 0.385186 0
M  V30 4623 H 429.597 2.84464 0.78512 0
M  V30 4624 H 429.678 2.38609 -0.921922 0
M  V30 4625 H 429.322 4.82956 -1.57213 0
M  V30 4626 H 429.252 5.26374 0.154248 0
M  V30 4627 H 431.743 3.7676 -0.29335 0
M  V30 4628 H 432.056 7.63088 -1.22133 0
M  V30 4629 H 430.401 6.86375 -1.09151 0
M  V30 4630 H 433.592 4.65958 -0.44731 0
M  V30 4631 H 433.765 6.4213 -0.870248 0
M  V30 4632 N 427.171 -0.0066808 1.57599 0
M  V30 4633 C 428.081 -1.01671 2.11424 0
M  V30 4634 C 429.097 -1.38143 1.05795 0
M  V30 4635 O 430.273 -1.47011 1.37658 0
M  V30 4636 C 427.338 -2.29192 2.60139 0
M  V30 4637 C 426.399 -1.99094 3.80342 0
M  V30 4638 C 425.632 -3.20535 4.26724 0
M  V30 4639 O 425.855 -4.3199 3.72479 0
M  V30 4640 O 424.789 -3.04924 5.18946 0
M  V30 4641 H 428.615 -0.589181 2.9793 0
M  V30 4642 H 426.2 -0.225091 1.47695 0
M  V30 4643 H 428.082 -3.0412 2.917 0
M  V30 4644 H 426.757 -2.71195 1.76733 0
M  V30 4645 H 425.664 -1.21663 3.53764 0
M  V30 4646 H 426.997 -1.61931 4.648 0
M  V30 4647 N 428.649 -1.55105 -0.279332 0
M  V30 4648 C 429.579 -1.90557 -1.34945 0
M  V30 4649 C 430.56 -0.766738 -1.51839 0
M  V30 4650 O 431.745 -1.02434 -1.64988 0
M  V30 4651 C 428.875 -2.17193 -2.71006 0
M  V30 4652 C 427.829 -3.33021 -2.68851 0
M  V30 4653 C 427.155 -3.45123 -4.08405 0
M  V30 4654 C 428.455 -4.69578 -2.28678 0
M  V30 4655 H 430.149 -2.80188 -1.05522 0
M  V30 4656 H 427.695 -1.34811 -0.506173 0
M  V30 4657 H 429.648 -2.40581 -3.45975 0
M  V30 4658 H 428.372 -1.24355 -3.01999 0
M  V30 4659 H 427.031 -3.0959 -1.9634 0
M  V30 4660 H 426.679 -2.49762 -4.3661 0
M  V30 4661 H 426.379 -4.22995 -4.07859 0
M  V30 4662 H 427.903 -3.70796 -4.85121 0
M  V30 4663 H 429.317 -4.92553 -2.93368 0
M  V30 4664 H 427.714 -5.5032 -2.39306 0
M  V30 4665 H 428.784 -4.68828 -1.23807 0
M  V30 4666 N 430.127 0.543554 -1.4793 0
M  V30 4667 C 431.09 1.63156 -1.60975 0
M  V30 4668 C 432.09 1.53346 -0.483899 0
M  V30 4669 O 433.28 1.5726 -0.749339 0
M  V30 4670 C 430.412 3.02743 -1.56716 0
M  V30 4671 H 431.605 1.52934 -2.57975 0
M  V30 4672 H 429.158 0.764557 -1.36324 0
M  V30 4673 H 429.893 3.18484 -0.611418 0
M  V30 4674 H 429.678 3.11272 -2.38438 0
M  V30 4675 H 431.168 3.81871 -1.6901 0
M  V30 4676 N 431.605 1.3629 0.791371 0
M  V30 4677 C 432.833 1.33562 1.58016 0
M  V30 4678 C 433.248 -0.0835616 1.88615 0
M  V30 4679 O 432.605 -1.0399 1.49974 0
M  V30 4680 C 432.656 2.15517 2.90232 0
M  V30 4681 O 432.377 3.51902 2.60953 0
M  V30 4682 C 433.878 2.20546 3.84544 0
M  V30 4683 H 431.098 0.458226 0.490173 0
M  V30 4684 H 433.642 1.79361 0.982345 0
M  V30 4685 H 431.797 1.73278 3.46487 0
M  V30 4686 H 432.211 3.94644 3.4548 0
M  V30 4687 H 433.685 2.82252 4.74382 0
M  V30 4688 H 434.162 1.20838 4.2225 0
M  V30 4689 H 434.768 2.63013 3.34222 0
M  V30 4690 N 433.083 -1.0153 1.20538 0
M  V30 4691 C 434.499 -1.27461 0.96051 0
M  V30 4692 C 434.699 -1.98273 -0.359193 0
M  V30 4693 O 433.755 -2.27886 -1.0874 0
M  V30 4694 C 435.068 -2.10837 2.14402 0
M  V30 4695 C 436.616 -2.24099 2.18515 0
M  V30 4696 C 437.091 -3.10852 3.36355 0
M  V30 4697 N 438.582 -3.18441 3.36377 0
M  V30 4698 C 439.317 -3.85795 4.24205 0
M  V30 4699 N 438.813 -4.55264 5.22213 0
M  V30 4700 N 440.606 -3.82331 4.12043 0
M  V30 4701 H 432.757 -0.539907 2.05423 0
M  V30 4702 H 435.02 -0.30092 0.898972 0
M  V30 4703 H 434.726 -1.66144 3.09983 0
M  V30 4704 H 434.6 -3.11576 2.12604 0
M  V30 4705 H 436.987 -2.68016 1.23497 0
M  V30 4706 H 437.068 -1.22865 2.24361 0
M  V30 4707 H 436.712 -2.6764 4.31661 0
M  V30 4708 H 436.642 -4.12177 3.27746 0
M  V30 4709 H 439.133 -2.68978 2.65442 0
M  V30 4710 H 439.446 -5.04331 5.85551 0
M  V30 4711 H 437.791 -4.54085 5.26148 0
M  V30 4712 H 440.982 -3.27207 3.34743 0
M  V30 4713 H 441.155 -4.34547 4.807 0
M  V30 4714 N 434.561 -1.01147 -1.20859 0
M  V30 4715 C 435.972 -0.730205 -1.71828 0
M  V30 4716 C 436.323 0.751662 -1.8123 0
M  V30 4717 O 435.448 1.58686 -1.47132 0
M  V30 4718 C 436.043 -1.31885 -3.12077 0
M  V30 4719 C 434.602 -1.08656 -3.60376 0
M  V30 4720 C 433.749 -1.42769 -2.37723 0
M  V30 4721 H 436.7 -1.18158 -1.05945 0
M  V30 4722 H 436.721 -0.706793 -3.73878 0
M  V30 4723 H 436.233 -2.39737 -3.05201 0
M  V30 4724 H 434.334 -0.0254814 -3.72591 0
M  V30 4725 H 434.447 -1.76301 -4.45483 0
M  V30 4726 H 432.811 -0.846603 -2.40218 0
M  V30 4727 H 433.594 -2.51666 -2.33493 0
M  V30 4728 N 436.039 1.36541 -0.78704 0
M  V30 4729 C 437.287 1.98911 -0.357633 0
M  V30 4730 C 437.608 1.62778 1.07371 0
M  V30 4731 O 436.878 0.900612 1.73971 0
M  V30 4732 H 435.458 0.735734 -0.129246 0
M  V30 4733 H 438.12 1.66776 -1.00855 0
M  V30 4734 H 437.216 3.08874 -0.447549 0
M  V30 4735 N 437.518 0.538854 1.48102 0
M  V30 4736 C 438.934 0.19732 1.58376 0
M  V30 4737 C 439.134 -1.29971 1.5398 0
M  V30 4738 O 438.19 -2.07861 1.43352 0
M  V30 4739 C 439.503 0.807716 2.89649 0
M  V30 4740 C 441.051 0.77726 3.03196 0
M  V30 4741 C 441.526 1.36639 4.37143 0
M  V30 4742 N 443.017 1.32875 4.43732 0
M  V30 4743 C 443.752 1.7544 5.45901 0
M  V30 4744 N 443.248 2.25776 6.54979 0
M  V30 4745 N 445.041 1.66623 5.36836 0
M  V30 4746 H 437.192 1.5117 1.49202 0
M  V30 4747 H 439.455 0.629327 0.708979 0
M  V30 4748 H 439.161 1.85909 2.98548 0
M  V30 4749 H 439.035 0.289975 3.76084 0
M  V30 4750 H 441.422 -0.265374 2.93904 0
M  V30 4751 H 441.503 1.33256 2.18349 0
M  V30 4752 H 441.147 2.408 4.47189 0
M  V30 4753 H 441.077 0.786689 5.20691 0
M  V30 4754 H 443.568 0.96037 3.65493 0
M  V30 4755 H 443.881 2.56226 7.29087 0
M  V30 4756 H 442.226 2.29775 6.55918 0
M  V30 4757 H 445.417 1.27089 4.50517 0
M  V30 4758 H 445.59 2.00115 6.16326 0
M  V30 4759 N 438.996 -1.55193 0.274407 0
M  V30 4760 C 439.926 -2.25471 -0.607032 0
M  V30 4761 C 440.907 -1.24461 -1.15946 0
M  V30 4762 O 442.092 -1.53179 -1.19373 0
M  V30 4763 C 439.222 -2.97526 -1.79153 0
M  V30 4764 C 438.176 -4.05459 -1.37067 0
M  V30 4765 C 437.502 -4.65084 -2.6382 0
M  V30 4766 C 438.802 -5.19691 -0.521389 0
M  V30 4767 H 440.496 -2.99393 -0.0209343 0
M  V30 4768 H 438.042 -1.43997 -0.00862866 0
M  V30 4769 H 439.995 -3.45402 -2.41404 0
M  V30 4770 H 438.719 -2.21138 -2.40344 0
M  V30 4771 H 437.378 -3.58393 -0.771355 0
M  V30 4772 H 437.026 -3.85365 -3.23268 0
M  V30 4773 H 436.726 -5.37961 -2.36372 0
M  V30 4774 H 438.25 -5.15708 -3.26921 0
M  V30 4775 H 439.664 -5.63623 -1.04889 0
M  V30 4776 H 438.061 -5.99126 -0.341825 0
M  V30 4777 H 439.131 -4.82713 0.46 0
M  V30 4778 N 440.474 -0.00167713 -1.576 0
M  V30 4779 C 441.699 0.69739 -1.95323 0
M  V30 4780 C 442.124 1.6642 -0.876706 0
M  V30 4781 O 441.482 1.80548 0.165007 0
M  V30 4782 C 441.53 1.40403 -3.32144 0
M  V30 4783 O 440.634 2.5185 -3.26566 0
M  V30 4784 H 439.975 0.185373 -0.637599 0
M  V30 4785 H 442.505 -0.0553665 -2.04525 0
M  V30 4786 H 442.515 1.76707 -3.67748 0
M  V30 4787 H 441.19 0.695167 -4.10049 0
M  V30 4788 H 439.767 2.17861 -3.0264 0
M  V30 4789 N 441.952 1.55251 0.271103 0
M  V30 4790 C 443.363 1.66635 0.842007 0
M  V30 4791 C 443.714 0.594631 1.86972 0
M  V30 4792 O 442.839 -0.263532 2.14789 0
M  V30 4793 C 443.434 3.02082 1.53401 0
M  V30 4794 C 441.993 3.15487 2.05293 0
M  V30 4795 C 441.14 2.62438 0.895631 0
M  V30 4796 H 444.091 1.58629 0.0474117 0
M  V30 4797 H 444.112 2.95176 2.40107 0
M  V30 4798 H 443.624 3.80062 0.785786 0
M  V30 4799 H 441.725 2.42284 2.83071 0
M  V30 4800 H 441.838 4.22075 2.26693 0
M  V30 4801 H 440.202 2.19644 1.28953 0
M  V30 4802 H 440.985 3.42923 0.160878 0
M  V30 4803 N 443.43 -0.535701 1.48216 0
M  V30 4804 C 444.679 -1.28828 1.55197 0
M  V30 4805 C 444.992 -1.94263 0.228278 0
M  V30 4806 O 446.198 -2.70927 0.176278 0
M  V30 4807 C 444.654 -2.33727 2.73678 0
M  V30 4808 C 444.262 -1.74386 4.12666 0
M  V30 4809 C 446.006 -3.1003 2.89968 0
M  V30 4810 C 443.913 -2.77192 5.22416 0
M  V30 4811 H 442.843 -0.484484 0.577747 0
M  V30 4812 H 445.494 -0.56646 1.74538 0
M  V30 4813 H 443.876 -3.08919 2.4776 0
M  V30 4814 H 445.05 -1.05421 4.48579 0
M  V30 4815 H 443.365 -1.10595 4.01445 0
M  V30 4816 H 445.962 -3.86842 3.6913 0
M  V30 4817 H 446.305 -3.65542 1.9921 0
M  V30 4818 H 446.838 -2.41952 3.15759 0
M  V30 4819 H 443.577 -2.26507 6.15122 0
M  V30 4820 H 443.097 -3.44502 4.90998 0
M  V30 4821 H 444.776 -3.40285 5.50286 0
M  V30 4822 N 444.908 -1.36708 -0.784132 0
M  V30 4823 C 445.818 -1.3363 -1.92822 0
M  V30 4824 C 446.834 -0.237686 -1.72369 0
M  V30 4825 O 448.01 -0.470962 -1.95816 0
M  V30 4826 C 445.075 -1.13011 -3.27764 0
M  V30 4827 C 444.136 -2.32397 -3.60957 0
M  V30 4828 C 443.369 -2.12752 -4.89461 0
M  V30 4829 O 443.592 -1.10541 -5.59586 0
M  V30 4830 O 442.526 -3.00653 -5.21432 0
M  V30 4831 H 446.352 -2.29964 -1.98369 0
M  V30 4832 H 443.937 -1.1731 -0.925136 0
M  V30 4833 H 445.819 -1.03451 -4.08504 0
M  V30 4834 H 444.494 -0.19743 -3.23097 0
M  V30 4835 H 443.401 -2.47527 -2.80502 0
M  V30 4836 H 444.734 -3.2419 -3.70354 0
M  V30 4837 N 446.386 1.0089 -1.21074 0
M  V30 4838 C 447.334 2.11707 -0.963476 0
M  V30 4839 C 448.328 1.69172 0.0879032 0
M  V30 4840 O 449.534 1.79889 -0.0631415 0
M  V30 4841 H 445.909 0.692026 -0.294287 0
M  V30 4842 H 447.88 2.29743 -1.90422 0
M  V30 4843 C 446.629 3.43473 -0.540509 0
M  V30 4844 H 445.952 3.76634 -1.34114 0
M  V30 4845 H 447.392 4.22044 -0.406777 0
M  V30 4846 C 445.851 3.2849 0.748079 0
M  V30 4847 O 446.381 3.58883 1.8046 0
M  V30 4848 N 444.587 2.81715 0.713081 0
M  V30 4849 H 444.134 2.5718 -0.146973 0
M  V30 4850 H 444.092 2.72071 1.57558 0
M  V30 4851 N 447.864 1.01787 1.20321 0
M  V30 4852 C 449.111 0.707936 1.89722 0
M  V30 4853 C 449.439 -0.762535 1.78929 0
M  V30 4854 O 448.694 -1.56977 1.16861 0
M  V30 4855 C 448.993 1.09076 3.40349 0
M  V30 4856 C 448.659 2.55765 3.71342 0
M  V30 4857 C 447.321 2.95845 3.79511 0
M  V30 4858 C 449.673 3.50723 3.85542 0
M  V30 4859 C 447.001 4.2982 3.99339 0
M  V30 4860 C 449.353 4.84387 4.06881 0
M  V30 4861 C 448.017 5.24172 4.1328 0
M  V30 4862 H 447.287 0.259052 0.694243 0
M  V30 4863 H 449.934 1.27868 1.42555 0
M  V30 4864 H 448.239 0.438453 3.89339 0
M  V30 4865 H 449.936 0.828636 3.92345 0
M  V30 4866 H 446.526 2.2371 3.65584 0
M  V30 4867 H 450.71 3.20916 3.78585 0
M  V30 4868 H 445.966 4.60196 4.02529 0
M  V30 4869 H 450.14 5.57891 4.1681 0
M  V30 4870 H 447.767 6.27997 4.28396 0
M  V30 4871 N 449.342 -1.36122 0.79427 0
M  V30 4872 C 450.272 -2.32551 0.210328 0
M  V30 4873 C 451.253 -1.56884 -0.657386 0
M  V30 4874 O 452.438 -1.85014 -0.590207 0
M  V30 4875 C 449.568 -3.41128 -0.651819 0
M  V30 4876 C 448.522 -4.27842 0.116395 0
M  V30 4877 C 447.848 -5.2763 -0.86666 0
M  V30 4878 C 449.148 -5.05647 1.30837 0
M  V30 4879 H 450.842 -2.81636 1.01594 0
M  V30 4880 H 448.388 -1.35407 0.489981 0
M  V30 4881 H 450.341 -4.07581 -1.07031 0
M  V30 4882 H 449.065 -2.90622 -1.49019 0
M  V30 4883 H 447.724 -3.62952 0.515915 0
M  V30 4884 H 447.372 -4.73395 -1.70019 0
M  V30 4885 H 447.072 -5.86514 -0.35705 0
M  V30 4886 H 448.596 -5.96955 -1.28361 0
M  V30 4887 H 450.01 -5.65113 0.965393 0
M  V30 4888 H 448.407 -5.73967 1.75161 0
M  V30 4889 H 449.477 -4.37006 2.10128 0
M  V30 4890 N 450.82 -0.546701 -1.47814 0
M  V30 4891 C 452.231 -0.110564 -1.86372 0
M  V30 4892 C 452.582 1.31678 -1.45449 0
M  V30 4893 O 451.707 1.98889 -0.852758 0
M  V30 4894 C 452.302 -0.193873 -3.38245 0
M  V30 4895 C 450.861 0.187164 -3.75934 0
M  V30 4896 C 450.008 -0.546166 -2.71868 0
M  V30 4897 H 452.959 -0.757022 -1.39481 0
M  V30 4898 H 452.98 0.590218 -3.75895 0
M  V30 4899 H 452.492 -1.23282 -3.67999 0
M  V30 4900 H 450.593 1.22762 -3.51796 0
M  V30 4901 H 450.706 -0.164083 -4.78819 0
M  V30 4902 H 449.07 0.00953904 -2.54698 0
M  V30 4903 H 449.853 -1.58606 -3.04465 0
M  V30 4904 N 452.299 1.55045 -0.282633 0
M  V30 4905 C 453.229 2.2579 0.595066 0
M  V30 4906 C 454.21 1.25074 1.15284 0
M  V30 4907 O 455.395 1.5381 1.18559 0
M  V30 4908 C 452.525 2.98472 1.77572 0
M  V30 4909 C 451.479 4.0618 1.34914 0
M  V30 4910 C 450.805 4.66477 2.6135 0
M  V30 4911 C 452.105 5.1996 0.493821 0
M  V30 4912 H 453.799 2.994 0.00505653 0
M  V30 4913 H 451.345 1.44 0.000992001 0
M  V30 4914 H 453.298 3.46677 2.39568 0
M  V30 4915 H 452.022 2.2241 2.39168 0
M  V30 4916 H 450.681 3.58797 0.752338 0
M  V30 4917 H 450.329 3.87074 3.2122 0
M  V30 4918 H 450.029 5.39207 2.33516 0
M  V30 4919 H 451.553 5.17435 3.24181 0
M  V30 4920 H 452.967 5.64172 1.01898 0
M  V30 4921 H 451.364 5.99299 0.310047 0
M  V30 4922 H 452.434 4.82462 -0.485593 0
M  V30 4923 N 453.777 0.010035 1.57597 0
M  V30 4924 C 454.727 -0.986858 2.05536 0
M  V30 4925 C 455.711 -1.29711 0.952042 0
M  V30 4926 O 456.903 -1.28641 1.21575 0
M  V30 4927 C 454.032 -2.2756 2.57043 0
M  V30 4928 C 453.118 -1.99455 3.74271 0
M  V30 4929 N 453.509 -1.41546 4.85591 0
M  V30 4930 C 451.807 -2.29547 3.82393 0
M  V30 4931 C 452.508 -1.3014 5.66956 0
M  V30 4932 N 451.484 -1.79044 5.13268 0
M  V30 4933 H 455.286 -0.533778 2.89012 0
M  V30 4934 H 452.8 -0.195432 1.6122 0
M  V30 4935 H 454.797 -2.99829 2.89669 0
M  V30 4936 H 453.457 -2.73512 1.7499 0
M  V30 4937 H 454.468 -1.09294 5.06236 0
M  V30 4938 H 451.145 -2.78304 3.11213 0
M  V30 4939 H 452.535 -0.855237 6.66435 0
M  V30 4940 N 455.255 -1.55392 -0.262866 0
M  V30 4941 C 456.485 -1.80251 -1.00961 0
M  V30 4942 C 456.893 -0.58117 -1.80053 0
M  V30 4943 O 456.236 0.459427 -1.77862 0
M  V30 4944 C 456.298 -2.98207 -2.00781 0
M  V30 4945 C 455.962 -4.34856 -1.40533 0
M  V30 4946 C 456.959 -5.13459 -0.815853 0
M  V30 4947 C 454.644 -4.8153 -1.42948 0
M  V30 4948 C 456.638 -6.36875 -0.258562 0
M  V30 4949 C 454.325 -6.04899 -0.868334 0
M  V30 4950 C 455.323 -6.8241 -0.283884 0
M  V30 4951 O 455.011 -8.03451 0.268644 0
M  V30 4952 H 454.743 -0.604049 -0.303482 0
M  V30 4953 H 457.297 -2.03257 -0.295926 0
M  V30 4954 H 455.527 -2.70917 -2.75936 0
M  V30 4955 H 457.216 -3.10299 -2.61667 0
M  V30 4956 H 457.982 -4.78526 -0.789812 0
M  V30 4957 H 453.861 -4.21201 -1.87378 0
M  V30 4958 H 457.405 -6.97318 0.198257 0
M  V30 4959 H 453.302 -6.39312 -0.891649 0
M  V30 4960 H 454.07 -8.18346 0.158974 0
M  V30 4961 N 456.733 0.527833 -1.48498 0
M  V30 4962 C 458.01 1.28905 -1.47115 0
M  V30 4963 C 458.39 2.10297 -0.184007 0
M  V30 4964 O 457.738 2.12728 0.834218 0
M  V30 4965 C 457.948 2.16866 -2.73441 0
M  V30 4966 C 459.296 2.76936 -3.21857 0
M  V30 4967 O 460.32 2.27152 -2.74373 0
M  V30 4968 O 459.179 3.67496 -4.04486 0
M  V30 4969 H 456.273 0.581918 -0.587623 0
M  V30 4970 H 458.819 0.544311 -1.60734 0
M  V30 4971 H 457.591 1.56521 -3.58632 0
M  V30 4972 H 457.214 2.98583 -2.62553 0
M  V30 4973 N 458.211 1.37122 0.776871 0
M  V30 4974 C 459.441 1.35034 1.56363 0
M  V30 4975 C 459.849 -0.0674681 1.8908 0
M  V30 4976 O 459.192 -1.03826 1.51545 0
M  V30 4977 C 459.254 2.11894 2.90415 0
M  V30 4978 C 458.918 3.60897 2.80362 0
M  V30 4979 C 459.915 4.54887 2.51742 0
M  V30 4980 C 457.6 4.03951 2.98545 0
M  V30 4981 C 459.594 5.89909 2.41426 0
M  V30 4982 C 457.281 5.3906 2.87849 0
M  V30 4983 C 458.279 6.31852 2.5933 0
M  V30 4984 O 457.967 7.64479 2.48651 0
M  V30 4985 H 457.699 0.464402 0.49123 0
M  V30 4986 H 460.253 1.80992 0.971127 0
M  V30 4987 H 458.483 1.60618 3.51765 0
M  V30 4988 H 460.172 2.02505 3.51776 0
M  V30 4989 H 460.938 4.22934 2.37385 0
M  V30 4990 H 456.817 3.3209 3.19746 0
M  V30 4991 H 460.361 6.62304 2.19086 0
M  V30 4992 H 456.258 5.70617 3.01773 0
M  V30 4993 H 457.026 7.74742 2.64039 0
M  V30 4994 N 459.689 -1.00246 1.21608 0
M  V30 4995 C 460.619 -2.10921 1.00172 0
M  V30 4996 C 461.6 -1.69938 -0.0741587 0
M  V30 4997 O 462.785 -1.94009 0.0861753 0
M  V30 4998 C 459.915 -3.42618 0.568355 0
M  V30 4999 C 458.869 -3.97407 1.58909 0
M  V30 5000 C 458.195 -5.25038 1.01187 0
M  V30 5001 C 459.495 -4.2918 2.97661 0
M  V30 5002 H 461.189 -2.29112 1.92739 0
M  V30 5003 H 458.735 -1.10101 0.928102 0
M  V30 5004 H 460.688 -4.19444 0.405555 0
M  V30 5005 H 459.412 -3.24227 -0.392961 0
M  V30 5006 H 458.071 -3.22703 1.73949 0
M  V30 5007 H 457.719 -5.02982 0.0421965 0
M  V30 5008 H 457.419 -5.62661 1.6937 0
M  V30 5009 H 458.943 -6.04507 0.860448 0
M  V30 5010 H 460.357 -4.96839 2.86049 0
M  V30 5011 H 458.754 -4.77952 3.6288 0
M  V30 5012 H 459.824 -3.3735 3.48315 0
M  V30 5013 N 461.167 -1.02423 -1.1978 0
M  V30 5014 C 462.099 -0.559152 -2.22275 0
M  V30 5015 C 463.112 0.36251 -1.58713 0
M  V30 5016 O 464.301 0.159641 -1.77785 0
M  V30 5017 C 461.401 0.205094 -3.38279 0
M  V30 5018 C 460.574 -0.720361 -4.31427 0
M  V30 5019 C 459.633 -0.00234368 -5.262 0
M  V30 5020 O 458.659 -0.627378 -5.65732 0
M  V30 5021 N 459.861 1.26996 -5.66438 0
M  V30 5022 H 462.626 -1.44064 -2.62804 0
M  V30 5023 H 460.187 -0.902692 -1.34399 0
M  V30 5024 H 462.179 0.694868 -3.9869 0
M  V30 5025 H 460.749 0.987947 -2.96578 0
M  V30 5026 H 459.969 -1.39031 -3.68869 0
M  V30 5027 H 461.257 -1.3495 -4.90577 0
M  V30 5028 H 460.655 1.79858 -5.36347 0
M  V30 5029 H 459.212 1.70432 -6.29123 0
M  V30 5030 N 462.645 1.35699 -0.801477 0
M  V30 5031 C 463.892 1.98913 -0.379459 0
M  V30 5032 C 464.22 1.63592 1.05204 0
M  V30 5033 O 463.475 0.888563 1.74365 0
M  V30 5034 C 463.774 3.53828 -0.504041 0
M  V30 5035 C 463.44 4.09002 -1.8981 0
M  V30 5036 C 462.102 4.23783 -2.27951 0
M  V30 5037 C 464.454 4.38939 -2.81038 0
M  V30 5038 C 461.782 4.65816 -3.56696 0
M  V30 5039 C 464.134 4.82409 -4.09224 0
M  V30 5040 C 462.798 4.95395 -4.4737 0
M  V30 5041 H 462.068 0.727874 -0.138854 0
M  V30 5042 H 464.715 1.61994 -1.02128 0
M  V30 5043 H 463.02 3.91175 0.221242 0
M  V30 5044 H 464.717 4.00687 -0.158361 0
M  V30 5045 H 461.307 3.97946 -1.59176 0
M  V30 5046 H 465.491 4.27077 -2.52821 0
M  V30 5047 H 460.747 4.74059 -3.86106 0
M  V30 5048 H 464.921 5.04535 -4.80018 0
M  V30 5049 H 462.548 5.27724 -5.47185 0
M  V30 5050 N 464.123 0.554532 1.47522 0
M  V30 5051 C 465.086 -0.184174 2.28459 0
M  V30 5052 C 466.086 -0.845195 1.36796 0
M  V30 5053 O 467.276 -0.701467 1.59452 0
M  V30 5054 C 464.408 -1.26903 3.16399 0
M  V30 5055 H 465.601 0.526751 2.95238 0
M  V30 5056 H 463.154 0.311375 1.53167 0
M  V30 5057 H 463.889 -2.01244 2.54306 0
M  V30 5058 H 463.674 -0.799883 3.83854 0
M  V30 5059 H 465.164 -1.78794 3.77389 0
M  V30 5060 N 465.601 -1.54893 0.290851 0
M  V30 5061 C 466.831 -2.04047 -0.323818 0
M  V30 5062 C 467.239 -1.16809 -1.48837 0
M  V30 5063 O 466.582 -0.184145 -1.82775 0
M  V30 5064 C 466.644 -3.49248 -0.852395 0
M  V30 5065 C 466.308 -4.56623 0.185557 0
M  V30 5066 C 467.305 -5.09985 1.01053 0
M  V30 5067 C 464.99 -5.01252 0.324332 0
M  V30 5068 C 466.984 -6.06507 1.96031 0
M  V30 5069 C 464.671 -5.97596 1.27757 0
M  V30 5070 C 465.669 -6.50107 2.09405 0
M  V30 5071 O 465.357 -7.44565 3.03114 0
M  V30 5072 H 465.089 -0.671735 -0.0758129 0
M  V30 5073 H 467.643 -2.00947 0.425393 0
M  V30 5074 H 465.873 -3.49639 -1.65195 0
M  V30 5075 H 467.562 -3.81654 -1.38185 0
M  V30 5076 H 468.328 -4.76307 0.914129 0
M  V30 5077 H 464.207 -4.60015 -0.301213 0
M  V30 5078 H 467.751 -6.47418 2.598 0
M  V30 5079 H 463.648 -6.30691 1.37473 0
M  V30 5080 H 464.416 -7.62334 2.97976 0
M  V30 5081 N 467.08 -0.0183926 -1.57589 0
M  V30 5082 C 468.31 0.67207 -1.95363 0
M  V30 5083 C 468.718 1.66807 -0.892872 0
M  V30 5084 O 468.061 1.83204 0.134958 0
M  V30 5085 C 468.123 1.44397 -3.29226 0
M  V30 5086 C 467.787 0.607511 -4.52944 0
M  V30 5087 C 468.784 -0.112657 -5.19778 0
M  V30 5088 C 466.469 0.548068 -4.99301 0
M  V30 5089 C 468.463 -0.881057 -6.31281 0
M  V30 5090 C 466.15 -0.224044 -6.10689 0
M  V30 5091 C 467.148 -0.937323 -6.76538 0
M  V30 5092 O 466.836 -1.6968 -7.85789 0
M  V30 5093 H 466.568 0.190925 -0.648478 0
M  V30 5094 H 469.122 -0.0711994 -2.05277 0
M  V30 5095 H 467.352 2.23214 -3.15773 0
M  V30 5096 H 469.041 2.02152 -3.51979 0
M  V30 5097 H 469.807 -0.0759998 -4.8494 0
M  V30 5098 H 465.686 1.09281 -4.4786 0
M  V30 5099 H 469.23 -1.43832 -6.82611 0
M  V30 5100 H 465.127 -0.262457 -6.44966 0
M  V30 5101 H 465.895 -1.61544 -8.024 0
M  V30 5102 N 468.558 1.5553 0.254621 0
M  V30 5103 C 469.974 1.4778 0.602753 0
M  V30 5104 C 470.174 0.707047 1.88688 0
M  V30 5105 O 469.23 0.233288 2.5142 0
M  V30 5106 C 470.543 2.92133 0.712648 0
M  V30 5107 C 472.091 3.02458 0.805488 0
M  V30 5108 C 472.566 4.48102 0.947009 0
M  V30 5109 N 474.057 4.52008 1.01207 0
M  V30 5110 C 474.792 5.61939 1.1407 0
M  V30 5111 N 474.288 6.81697 1.23536 0
M  V30 5112 N 476.081 5.49719 1.17325 0
M  V30 5113 H 468.232 2.04085 -0.588463 0
M  V30 5114 H 470.495 0.926229 -0.202001 0
M  V30 5115 H 470.201 3.51332 -0.160766 0
M  V30 5116 H 470.075 3.42187 1.58707 0
M  V30 5117 H 472.462 2.43344 1.66936 0
M  V30 5118 H 472.543 2.55627 -0.0939266 0
M  V30 5119 H 472.187 5.07824 0.087725 0
M  V30 5120 H 472.117 4.92607 1.86135 0
M  V30 5121 H 474.608 3.65749 0.950577 0
M  V30 5122 H 474.921 7.61228 1.33236 0
M  V30 5123 H 473.266 6.84473 1.20508 0
M  V30 5124 H 476.457 4.55095 1.09573 0
M  V30 5125 H 476.63 6.35432 1.27005 0
M  V30 5126 N 470.036 -0.519951 1.48776 0
M  V30 5127 C 471.282 -1.27711 1.57536 0
M  V30 5128 C 471.615 -1.92547 0.252866 0
M  V30 5129 O 470.89 -1.7979 -0.742021 0
M  V30 5130 C 471.173 -2.35875 2.72094 0
M  V30 5131 C 471.026 -1.75664 4.1408 0
M  V30 5132 C 472.345 -3.37575 2.82367 0
M  V30 5133 H 469.464 -0.462971 0.573434 0
M  V30 5134 H 472.106 -0.578194 1.80989 0
M  V30 5135 H 470.256 -2.95488 2.52228 0
M  V30 5136 H 471.928 -1.20025 4.45412 0
M  V30 5137 H 470.171 -1.06154 4.20611 0
M  V30 5138 H 470.842 -2.54029 4.90075 0
M  V30 5139 H 473.318 -2.87929 3.00393 0
M  V30 5140 H 472.194 -4.1064 3.64233 0
M  V30 5141 H 472.455 -3.98743 1.90936 0
M  V30 5142 N 471.514 -1.37532 -0.769588 0
M  V30 5143 C 472.762 -1.32597 -1.5252 0
M  V30 5144 C 473.083 0.0884294 -1.94799 0
M  V30 5145 O 472.353 1.03289 -1.66458 0
M  V30 5146 H 470.933 -0.487846 -0.565699 0
M  V30 5147 H 473.595 -1.72044 -0.915806 0
M  V30 5148 H 472.691 -1.96643 -2.42359 0
M  V30 5149 N 472.992 0.995999 -1.22138 0
M  V30 5150 C 473.902 2.11985 -1.00496 0
M  V30 5151 C 474.918 1.7394 0.0457701 0
M  V30 5152 O 476.094 2.00868 -0.146273 0
M  V30 5153 C 473.159 3.41779 -0.582086 0
M  V30 5154 C 472.22 3.93943 -1.70608 0
M  V30 5155 C 471.453 5.17542 -1.30328 0
M  V30 5156 O 471.676 5.70114 -0.180743 0
M  V30 5157 O 470.61 5.63382 -2.11861 0
M  V30 5158 H 474.436 2.33123 -1.94647 0
M  V30 5159 H 472.021 1.10358 -1.00705 0
M  V30 5160 H 473.903 4.1989 -0.356467 0
M  V30 5161 H 472.578 3.22007 0.330592 0
M  V30 5162 H 471.485 3.17019 -1.98619 0
M  V30 5163 H 472.818 4.18141 -2.59651 0
M  V30 5164 N 474.47 1.03057 1.19235 0
M  V30 5165 C 475.7 0.746613 1.92638 0
M  V30 5166 C 476.108 -0.698708 1.75826 0
M  V30 5167 O 475.451 -1.487 1.07861 0
M  V30 5168 C 475.513 1.02024 3.44719 0
M  V30 5169 C 475.177 2.45745 3.85303 0
M  V30 5170 C 476.174 3.43887 3.8992 0
M  V30 5171 C 473.859 2.8019 4.16892 0
M  V30 5172 C 475.853 4.74529 4.2556 0
M  V30 5173 C 473.54 4.1104 4.52205 0
M  V30 5174 C 474.538 5.0802 4.56513 0
M  V30 5175 O 474.226 6.36527 4.91008 0
M  V30 5176 H 473.958 0.272401 0.618687 0
M  V30 5177 H 476.512 1.37853 1.52269 0
M  V30 5178 H 474.742 0.331184 3.85279 0
M  V30 5179 H 476.431 0.725677 3.9936 0
M  V30 5180 H 477.197 3.18614 3.65664 0
M  V30 5181 H 473.076 2.05382 4.12722 0
M  V30 5182 H 476.62 5.50222 4.28838 0
M  V30 5183 H 472.517 4.36086 4.7592 0
M  V30 5184 H 473.285 6.41025 5.08949 0
M  V30 5185 N 475.948 -1.35272 0.808662 0
M  V30 5186 C 477.194 -1.99003 0.390581 0
M  V30 5187 C 477.527 -1.63999 -1.0401 0
M  V30 5188 O 476.802 -0.904368 -1.72196 0
M  V30 5189 C 477.085 -3.55454 0.576566 0
M  V30 5190 C 476.938 -4.00249 2.05233 0
M  V30 5191 C 478.257 -4.401 0.00354277 0
M  V30 5192 H 475.376 -0.722917 0.143388 0
M  V30 5193 H 478.018 -1.6039 1.01858 0
M  V30 5194 H 476.168 -3.88477 0.0419766 0
M  V30 5195 H 477.84 -3.77626 2.64946 0
M  V30 5196 H 476.083 -3.51082 2.54801 0
M  V30 5197 H 476.754 -5.0911 2.13333 0
M  V30 5198 H 479.23 -4.13548 0.460117 0
M  V30 5199 H 478.106 -5.48656 0.163575 0
M  V30 5200 H 478.367 -4.28444 -1.09032 0
M  V30 5201 N 477.426 -0.562348 -1.47226 0
M  V30 5202 C 478.373 0.182461 -2.30078 0
M  V30 5203 C 479.343 0.903503 -1.39377 0
M  V30 5204 O 480.528 0.898188 -1.68337 0
M  V30 5205 C 477.668 1.20322 -3.23445 0
M  V30 5206 C 476.781 0.487717 -4.29238 0
M  V30 5207 C 475.916 1.49422 -5.09752 0
M  V30 5208 C 474.955 0.763976 -6.07314 0
M  V30 5209 N 474.092 1.71755 -6.80768 0
M  V30 5210 H 478.932 -0.530169 -2.93246 0
M  V30 5211 H 476.469 -0.273276 -1.44539 0
M  V30 5212 H 478.427 1.80768 -3.76004 0
M  V30 5213 H 477.057 1.88382 -2.6213 0
M  V30 5214 H 476.109 -0.231374 -3.79696 0
M  V30 5215 H 477.421 -0.0841003 -4.98729 0
M  V30 5216 H 476.575 2.17206 -5.66486 0
M  V30 5217 H 475.314 2.09995 -4.40174 0
M  V30 5218 H 474.319 0.0722344 -5.49753 0
M  V30 5219 H 475.544 0.16391 -6.78902 0
M  V30 5220 H 473.49 2.31177 -6.13916 0
M  V30 5221 H 473.407 1.19802 -7.46447 0
M  V30 5222 H 474.675 2.38638 -7.42073 0
M  V30 5223 N 478.904 1.54736 -0.299062 0
M  V30 5224 C 479.867 2.22127 0.565012 0
M  V30 5225 C 480.867 1.20669 1.06281 0
M  V30 5226 O 482.057 1.45417 0.959145 0
M  V30 5227 C 479.189 2.90611 1.78208 0
M  V30 5228 H 480.382 2.99891 -0.0237448 0
M  V30 5229 H 477.935 1.5622 -0.0498788 0
M  V30 5230 H 478.67 2.16921 2.41072 0
M  V30 5231 H 478.455 3.64984 1.43281 0
M  V30 5232 H 479.945 3.42026 2.396 0
M  V30 5233 N 480.382 0.0267497 1.57577 0
M  V30 5234 C 481.312 -0.954308 2.13108 0
M  V30 5235 C 482.293 -1.34088 1.04663 0
M  V30 5236 O 483.478 -1.41992 1.32484 0
M  V30 5237 C 480.608 -2.23744 2.65624 0
M  V30 5238 C 479.562 -1.99168 3.78835 0
M  V30 5239 C 478.888 -3.33726 4.17769 0
M  V30 5240 C 480.188 -1.33277 5.0501 0
M  V30 5241 H 481.882 -0.491848 2.95332 0
M  V30 5242 H 479.428 -0.23514 1.42067 0
M  V30 5243 H 481.381 -2.92754 3.03106 0
M  V30 5244 H 480.105 -2.72151 1.80558 0
M  V30 5245 H 478.764 -1.32577 3.41788 0
M  V30 5246 H 478.412 -3.79888 3.29688 0
M  V30 5247 H 478.112 -3.18089 4.94058 0
M  V30 5248 H 479.636 -4.04008 4.57832 0
M  V30 5249 H 481.05 -1.92283 5.40093 0
M  V30 5250 H 479.447 -1.28045 5.8628 0
M  V30 5251 H 480.517 -0.305411 4.83937 0
M  V30 5252 N 481.861 -1.55662 -0.24637 0
M  V30 5253 C 482.771 -1.93495 -1.32653 0
M  V30 5254 C 483.787 -0.835462 -1.5263 0
M  V30 5255 O 484.963 -1.1369 -1.66242 0
M  V30 5256 C 482.028 -2.22242 -2.66101 0
M  V30 5257 C 481.089 -3.45625 -2.54641 0
M  V30 5258 C 480.322 -3.72991 -3.81724 0
M  V30 5259 O 480.545 -3.02421 -4.8363 0
M  V30 5260 O 479.479 -4.66515 -3.80325 0
M  V30 5261 H 483.305 -2.85498 -1.03559 0
M  V30 5262 H 480.89 -1.42551 -0.44717 0
M  V30 5263 H 482.772 -2.42037 -3.44958 0
M  V30 5264 H 481.447 -1.33417 -2.94926 0
M  V30 5265 H 480.354 -3.31136 -1.74067 0
M  V30 5266 H 481.687 -4.34754 -2.3076 0
M  V30 5267 N 483.339 0.512053 -1.4905 0
M  V30 5268 C 484.579 1.27715 -1.59588 0
M  V30 5269 C 484.943 1.90071 -0.271502 0
M  V30 5270 O 486.144 2.67616 -0.251987 0
M  V30 5271 C 484.415 2.32399 -2.71524 0
M  V30 5272 S 485.974 3.18396 -3.01943 0
M  V30 5273 H 482.792 0.43419 -0.563027 0
M  V30 5274 H 485.394 0.581315 -1.86657 0
M  V30 5275 H 484.098 1.85101 -3.66287 0
M  V30 5276 H 483.629 3.06667 -2.46412 0
M  V30 5277 H 485.644 4.32842 -2.42616 0
M  V30 5278 N 484.817 1.37938 0.762283 0
M  V30 5279 C 485.78 1.34279 1.85747 0
M  V30 5280 C 486.78 0.244969 1.58923 0
M  V30 5281 O 487.97 0.501365 1.66829 0
M  V30 5282 C 485.102 1.08833 3.23061 0
M  V30 5283 H 486.295 2.31705 1.90401 0
M  V30 5284 H 483.848 1.23105 0.963057 0
M  V30 5285 H 484.583 0.119767 3.24079 0
M  V30 5286 H 484.368 1.88306 3.43923 0
M  V30 5287 H 485.858 1.08946 4.03138 0
M  V30 5288 N 486.295 -0.989507 1.22664 0
M  V30 5289 C 487.242 -2.08024 0.999733 0
M  V30 5290 C 488.212 -1.65909 -0.0797047 0
M  V30 5291 O 489.397 -1.90669 0.0705715 0
M  V30 5292 C 486.537 -3.40067 0.587234 0
M  V30 5293 C 485.65 -3.95505 1.73781 0
M  V30 5294 C 484.785 -5.15722 1.27297 0
M  V30 5295 C 483.824 -5.63305 2.39488 0
M  V30 5296 N 482.961 -6.74758 1.94026 0
M  V30 5297 H 487.801 -2.26768 1.9334 0
M  V30 5298 H 485.338 -1.11171 0.963297 0
M  V30 5299 H 487.296 -4.15899 0.329227 0
M  V30 5300 H 485.926 -3.21314 -0.309426 0
M  V30 5301 H 484.978 -3.16513 2.11006 0
M  V30 5302 H 486.29 -4.26797 2.58158 0
M  V30 5303 H 485.444 -5.98854 0.972546 0
M  V30 5304 H 484.183 -4.86061 0.399445 0
M  V30 5305 H 483.188 -4.78759 2.70315 0
M  V30 5306 H 484.413 -5.94988 3.27362 0
M  V30 5307 H 482.359 -6.46874 1.09041 0
M  V30 5308 H 482.276 -7.05386 2.71968 0
M  V30 5309 H 483.544 -7.61387 1.67062 0
M  V30 5310 N 487.773 -1.03688 -1.18687 0
M  V30 5311 C 488.736 -0.629115 -2.20397 0
M  V30 5312 C 489.736 0.311495 -1.57754 0
M  V30 5313 O 490.926 0.0974107 -1.73927 0
M  V30 5314 C 488.058 0.0782231 -3.4081 0
M  V30 5315 H 489.251 -1.52915 -2.57987 0
M  V30 5316 H 486.804 -0.828988 -1.32505 0
M  V30 5317 H 487.539 0.992233 -3.08748 0
M  V30 5318 H 487.324 -0.597776 -3.87517 0
M  V30 5319 H 488.814 0.350156 -4.16129 0
M  V30 5320 N 489.251 1.34841 -0.815825 0
M  V30 5321 C 490.481 2.02436 -0.412695 0
M  V30 5322 C 490.889 1.61604 0.983906 0
M  V30 5323 O 490.232 0.813729 1.64694 0
M  V30 5324 C 490.294 3.56953 -0.427182 0
M  V30 5325 C 489.958 4.21083 -1.77589 0
M  V30 5326 C 490.955 4.42107 -2.73564 0
M  V30 5327 C 488.64 4.58006 -2.06243 0
M  V30 5328 C 490.634 4.99169 -3.9637 0
M  V30 5329 C 488.321 5.1478 -3.2931 0
M  V30 5330 C 489.319 5.35304 -4.24191 0
M  V30 5331 O 489.007 5.90878 -5.45086 0
M  V30 5332 H 488.739 0.655631 -0.164695 0
M  V30 5333 H 491.293 1.73246 -1.1034 0
M  V30 5334 H 489.523 3.85372 0.320175 0
M  V30 5335 H 491.212 4.05875 -0.0450875 0
M  V30 5336 H 491.978 4.13953 -2.52721 0
M  V30 5337 H 487.857 4.41339 -1.33196 0
M  V30 5338 H 491.401 5.15105 -4.70439 0
M  V30 5339 H 487.298 5.42362 -3.5002 0
M  V30 5340 H 488.066 6.0932 -5.46508 0
M  V30 5341 N 490.729 0.570148 1.46925 0
M  V30 5342 C 491.659 -0.158274 2.32963 0
M  V30 5343 C 492.64 -0.896093 1.44583 0
M  V30 5344 O 493.825 -0.874022 1.7342 0
M  V30 5345 C 490.955 -1.18055 3.26619 0
M  V30 5346 C 489.909 -0.558379 4.24342 0
M  V30 5347 C 489.235 -1.68623 5.07415 0
M  V30 5348 C 490.535 0.496295 5.19937 0
M  V30 5349 H 492.229 0.560046 2.94115 0
M  V30 5350 H 489.775 0.270775 1.41431 0
M  V30 5351 H 491.728 -1.69841 3.85658 0
M  V30 5352 H 490.452 -1.92899 2.63548 0
M  V30 5353 H 489.111 -0.0617157 3.66548 0
M  V30 5354 H 488.759 -2.42402 4.40738 0
M  V30 5355 H 488.459 -1.27564 5.73586 0
M  V30 5356 H 489.983 -2.20709 5.69315 0
M  V30 5357 H 491.397 0.0640052 5.73264 0
M  V30 5358 H 489.794 0.82649 5.94381 0
M  V30 5359 H 490.864 1.38735 4.6463 0
M  V30 5360 N 492.207 -1.54576 0.307264 0
M  V30 5361 C 493.137 -2.26708 -0.55907 0
M  V30 5362 C 494.118 -1.26893 -1.1328 0
M  V30 5363 O 495.303 -1.55677 -1.16097 0
M  V30 5364 C 492.433 -3.01259 -1.72801 0
M  V30 5365 C 491.387 -4.08275 -1.28435 0
M  V30 5366 C 490.713 -4.70575 -2.53895 0
M  V30 5367 C 492.013 -5.2068 -0.411038 0
M  V30 5368 H 493.707 -2.9937 0.042576 0
M  V30 5369 H 491.253 -1.43983 0.0219173 0
M  V30 5370 H 493.206 -3.50444 -2.34023 0
M  V30 5371 H 491.93 -2.26187 -2.356 0
M  V30 5372 H 490.589 -3.59949 -0.695161 0
M  V30 5373 H 490.237 -3.92136 -3.15021 0
M  V30 5374 H 489.937 -5.42854 -2.24908 0
M  V30 5375 H 491.461 -5.22527 -3.15908 0
M  V30 5376 H 492.875 -5.65721 -0.929097 0
M  V30 5377 H 491.272 -5.99716 -0.214664 0
M  V30 5378 H 492.342 -4.81629 0.562287 0
M  V30 5379 N 493.685 -0.035106 -1.57561 0
M  V30 5380 C 494.925 0.646316 -1.93913 0
M  V30 5381 C 495.289 1.68947 -0.912185 0
M  V30 5382 O 496.49 2.42381 -1.1621 0
M  V30 5383 C 494.761 1.24136 -3.35149 0
M  V30 5384 S 496.32 1.94302 -3.93436 0
M  V30 5385 H 493.138 0.212642 -0.678457 0
M  V30 5386 H 495.74 -0.100203 -1.95243 0
M  V30 5387 H 494.444 0.46979 -4.07702 0
M  V30 5388 H 493.975 2.02505 -3.37276 0
M  V30 5389 H 495.99 3.22205 -3.77357 0
M  V30 5390 N 495.163 1.55791 0.238111 0
M  V30 5391 C 496.113 1.87444 1.29803 0
M  V30 5392 C 497.097 0.736043 1.43078 0
M  V30 5393 O 498.289 0.998146 1.46171 0
M  V30 5394 C 495.418 2.18028 2.65177 0
M  V30 5395 C 494.504 3.38217 2.55871 0
M  V30 5396 N 494.895 4.57264 2.16202 0
M  V30 5397 C 493.193 3.41502 2.86866 0
M  V30 5398 C 493.894 5.3941 2.17744 0
M  V30 5399 N 492.87 4.78695 2.57589 0
M  V30 5400 H 496.672 2.7701 0.981965 0
M  V30 5401 H 494.186 1.56135 0.44672 0
M  V30 5402 H 496.183 2.38873 3.4168 0
M  V30 5403 H 494.843 1.29765 2.97643 0
M  V30 5404 H 495.854 4.82727 1.87602 0
M  V30 5405 H 492.531 2.63536 3.23813 0
M  V30 5406 H 493.921 6.44671 1.89339 0
M  V30 5407 N 496.642 -0.504142 1.49319 0
M  V30 5408 C 498.053 -1.08572 1.51885 0
M  V30 5409 C 498.404 -1.93842 0.303255 0
M  V30 5410 O 497.529 -2.0828 -0.58724 0
M  V30 5411 C 498.124 -1.97574 2.75227 0
M  V30 5412 C 496.683 -2.509 2.80581 0
M  V30 5413 C 495.83 -1.28447 2.45757 0
M  V30 5414 H 498.781 -0.288194 1.56061 0
M  V30 5415 H 498.802 -2.82219 2.55211 0
M  V30 5416 H 498.314 -1.35486 3.63683 0
M  V30 5417 H 496.415 -3.16636 1.96398 0
M  V30 5418 H 496.528 -2.88268 3.82673 0
M  V30 5419 H 494.892 -1.60868 1.97468 0
M  V30 5420 H 495.675 -0.68072 3.36483 0
M  V30 5421 N 498.12 -1.38341 -0.754957 0
M  V30 5422 C 499.397 -1.24995 -1.50451 0
M  V30 5423 C 499.777 0.149244 -2.10572 0
M  V30 5424 O 499.125 1.15861 -1.96948 0
M  V30 5425 C 499.335 -2.35904 -2.57197 0
M  V30 5426 C 500.683 -2.74262 -3.24138 0
M  V30 5427 O 501.707 -2.35205 -2.67501 0
M  V30 5428 O 500.566 -3.4161 -4.26574 0
M  V30 5429 H 497.66 -0.48872 -0.667144 0
M  V30 5430 H 500.206 -1.50165 -0.790486 0
M  V30 5431 H 498.978 -3.2953 -2.11011 0
M  V30 5432 H 498.601 -2.12291 -3.36182 0
M  V30 5433 N 499.598 0.982988 -1.23187 0
M  V30 5434 C 500.875 1.69814 -0.970707 0
M  V30 5435 C 501.255 2.04811 0.511424 0
M  V30 5436 O 500.603 1.73924 1.48198 0
M  V30 5437 C 500.813 2.94143 -1.87831 0
M  V30 5438 C 502.161 3.66712 -2.14026 0
M  V30 5439 O 503.185 3.04171 -1.8536 0
M  V30 5440 O 502.044 4.79258 -2.62629 0
M  V30 5441 H 499.138 0.741659 -0.365884 0
M  V30 5442 H 501.684 1.03844 -1.34218 0
M  V30 5443 H 500.456 2.64858 -2.88038 0
M  V30 5444 H 500.079 3.6785 -1.50905 0
M  V30 5445 N 501.076 1.04316 1.18135 0
M  V30 5446 C 501.986 0.646876 2.25505 0
M  V30 5447 C 503.002 -0.328008 1.7088 0
M  V30 5448 O 504.178 -0.182309 2.00573 0
M  V30 5449 C 501.243 0.0185664 3.46695 0
M  V30 5450 C 500.304 1.04277 4.16443 0
M  V30 5451 C 499.537 0.444352 5.31847 0
M  V30 5452 O 499.76 -0.748735 5.65465 0
M  V30 5453 O 498.694 1.17428 5.90334 0
M  V30 5454 H 502.52 1.54147 2.61672 0
M  V30 5455 H 500.105 0.814188 1.25265 0
M  V30 5456 H 501.987 -0.331068 4.20097 0
M  V30 5457 H 500.662 -0.849814 3.12346 0
M  V30 5458 H 499.569 1.44425 3.45098 0
M  V30 5459 H 500.902 1.882 4.54798 0
M  V30 5460 N 502.554 -1.34406 0.822964 0
M  V30 5461 C 503.831 -1.92733 0.333641 0
M  V30 5462 C 504.211 -1.75107 -1.17901 0
M  V30 5463 O 503.559 -1.12983 -1.98613 0
M  V30 5464 C 503.769 -3.40557 0.763023 0
M  V30 5465 C 505.117 -4.17709 0.761879 0
M  V30 5466 O 506.141 -3.49141 0.705606 0
M  V30 5467 O 505 -5.40082 0.835109 0
M  V30 5468 H 502.094 -0.821964 0.0911249 0
M  V30 5469 H 504.64 -1.4338 0.907757 0
M  V30 5470 H 503.412 -3.47187 1.8049 0
M  V30 5471 H 503.035 -3.97259 0.164605 0
M  V30 5472 N 504.032 -0.577932 -1.46621 0
M  V30 5473 C 505.278 -0.0617793 -2.02706 0
M  V30 5474 C 505.611 1.29294 -1.44903 0
M  V30 5475 O 504.886 1.8461 -0.61232 0
M  V30 5476 C 505.169 0.00911824 -3.60099 0
M  V30 5477 C 505.022 -1.37416 -4.28295 0
M  V30 5478 C 506.341 0.712159 -4.343 0
M  V30 5479 H 503.46 -0.0239246 -0.736612 0
M  V30 5480 H 506.102 -0.744211 -1.74818 0
M  V30 5481 H 504.252 0.590292 -3.83989 0
M  V30 5482 H 505.924 -2.00013 -4.15683 0
M  V30 5483 H 504.167 -1.94319 -3.87843 0
M  V30 5484 H 504.838 -1.27707 -5.37024 0
M  V30 5485 H 507.314 0.218486 -4.15526 0
M  V30 5486 H 506.19 0.730782 -5.44014 0
M  V30 5487 H 506.451 1.77251 -4.05012 0
M  V30 5488 N 505.51 1.54411 -0.315457 0
M  V30 5489 C 506.44 2.27002 0.547039 0
M  V30 5490 C 507.421 1.27492 1.12605 0
M  V30 5491 O 508.606 1.5629 1.15269 0
M  V30 5492 C 505.736 3.02171 1.71201 0
M  V30 5493 C 504.69 4.0895 1.26268 0
M  V30 5494 C 504.016 4.71915 2.51396 0
M  V30 5495 C 505.316 5.20891 0.383419 0
M  V30 5496 H 507.01 2.99343 -0.0584517 0
M  V30 5497 H 504.556 1.4397 -0.0295527 0
M  V30 5498 H 506.509 3.51681 2.32161 0
M  V30 5499 H 505.233 2.27433 2.34397 0
M  V30 5500 H 503.892 3.60312 0.676062 0
M  V30 5501 H 503.54 3.93801 3.12937 0
M  V30 5502 H 503.24 5.44039 2.22026 0
M  V30 5503 H 504.764 5.24195 3.13133 0
M  V30 5504 H 506.178 5.66206 0.899082 0
M  V30 5505 H 504.575 5.99821 0.182857 0
M  V30 5506 H 505.645 4.81324 -0.587821 0
M  V30 5507 N 506.988 0.0434614 1.5754 0
M  V30 5508 C 508.265 -0.671479 1.83713 0
M  V30 5509 C 508.645 -1.89495 0.930315 0
M  V30 5510 O 507.993 -2.28498 -0.0105639 0
M  V30 5511 C 508.203 -1.0361 3.33266 0
M  V30 5512 C 509.551 -1.42167 4.00092 0
M  V30 5513 O 510.575 -1.12866 3.37846 0
M  V30 5514 O 509.434 -1.96817 5.09829 0
M  V30 5515 H 506.528 -0.330726 0.75799 0
M  V30 5516 H 509.074 0.0722373 1.69546 0
M  V30 5517 H 507.846 -0.165938 3.90948 0
M  V30 5518 H 507.469 -1.83751 3.52592 0
M  V30 5519 N 508.466 -1.55915 -0.229846 0
M  V30 5520 C 509.414 -1.9258 -1.30444 0
M  V30 5521 C 510.408 -0.806839 -1.48951 0
M  V30 5522 O 511.614 -0.991606 -1.50224 0
M  V30 5523 H 507.989 -0.611878 -0.437161 0
M  V30 5524 H 509.96 -2.82264 -0.96797 0
M  V30 5525 C 508.709 -2.25171 -2.6494 0
M  V30 5526 H 508.032 -3.10782 -2.51504 0
M  V30 5527 H 509.472 -2.54716 -3.38963 0
M  V30 5528 C 507.931 -1.07394 -3.19324 0
M  V30 5529 O 508.461 -0.330759 -4.00336 0
M  V30 5530 N 506.667 -0.859984 -2.77584 0
M  V30 5531 H 506.214 -1.46605 -2.11813 0
M  V30 5532 H 506.172 -0.0736671 -3.14314 0
M  V30 5533 N 509.944 0.496216 -1.49584 0
M  V30 5534 C 511.19 1.25189 -1.59548 0
M  V30 5535 C 511.523 1.9212 -0.283466 0
M  V30 5536 O 510.798 1.80947 0.713324 0
M  V30 5537 C 511.081 2.31516 -2.75812 0
M  V30 5538 C 510.934 1.69054 -4.16822 0
M  V30 5539 C 512.253 3.3304 -2.87702 0
M  V30 5540 H 509.372 0.45379 -0.580727 0
M  V30 5541 H 512.014 0.549327 -1.81886 0
M  V30 5542 H 510.164 2.91438 -2.56897 0
M  V30 5543 H 511.836 1.12923 -4.47265 0
M  V30 5544 H 510.079 0.994485 -4.22247 0
M  V30 5545 H 510.75 2.462 -4.94054 0
M  V30 5546 H 513.226 2.83114 -3.04936 0
M  V30 5547 H 512.102 4.04794 -3.7072 0
M  V30 5548 H 512.363 3.95655 -1.97255 0
M  V30 5549 N 511.423 1.38739 0.74761 0
M  V30 5550 C 512.7 1.25791 1.49786 0
M  V30 5551 C 513.08 -0.138075 2.10648 0
M  V30 5552 O 512.428 -1.14815 1.9756 0
M  V30 5553 C 512.638 2.37265 2.55942 0
M  V30 5554 C 513.986 2.75978 3.22679 0
M  V30 5555 O 515.01 2.36621 2.6625 0
M  V30 5556 O 513.869 3.43867 4.24756 0
M  V30 5557 H 510.963 0.492251 0.664543 0
M  V30 5558 H 513.509 1.50582 0.782511 0
M  V30 5559 H 512.281 3.30644 2.0926 0
M  V30 5560 H 511.904 2.14071 3.35051 0
M  V30 5561 N 512.901 -0.976442 1.23707 0
M  V30 5562 C 514.131 -1.75087 1.09673 0
M  V30 5563 C 514.539 -1.85852 -0.354344 0
M  V30 5564 O 513.882 -1.33985 -1.25673 0
M  V30 5565 C 513.944 -3.19272 1.65245 0
M  V30 5566 C 513.608 -3.32004 3.14042 0
M  V30 5567 C 514.605 -3.18017 4.11292 0
M  V30 5568 C 512.29 -3.56525 3.53829 0
M  V30 5569 C 514.284 -3.28363 5.46312 0
M  V30 5570 C 511.971 -3.6651 4.88993 0
M  V30 5571 C 512.969 -3.52439 5.85043 0
M  V30 5572 O 512.657 -3.62063 7.1775 0
M  V30 5573 H 512.389 -0.556164 0.384262 0
M  V30 5574 H 514.943 -1.23518 1.64111 0
M  V30 5575 H 513.173 -3.72107 1.05231 0
M  V30 5576 H 514.862 -3.7849 1.46629 0
M  V30 5577 H 515.628 -2.98966 3.81896 0
M  V30 5578 H 511.507 -3.66547 2.79579 0
M  V30 5579 H 515.051 -3.17297 6.21263 0
M  V30 5580 H 510.948 -3.85072 5.18063 0
M  V30 5581 H 511.716 -3.78833 7.25553 0
M  V30 5582 N 514.379 -1.04941 -1.1758 0
M  V30 5583 C 515.609 -0.777166 -1.91425 0
M  V30 5584 C 516.017 0.670647 -1.76915 0
M  V30 5585 O 515.36 1.46965 -1.10213 0
M  V30 5586 C 515.422 -1.07495 -3.43052 0
M  V30 5587 C 515.086 -2.51844 -3.81345 0
M  V30 5588 C 516.083 -3.50047 -3.844 0
M  V30 5589 C 513.768 -2.86787 -4.12382 0
M  V30 5590 C 515.762 -4.81239 -4.17957 0
M  V30 5591 C 513.449 -4.18182 -4.45608 0
M  V30 5592 C 514.447 -5.15219 -4.48373 0
M  V30 5593 O 514.135 -6.44258 -4.80819 0
M  V30 5594 H 513.867 -0.282209 -0.614275 0
M  V30 5595 H 516.421 -1.40258 -1.50056 0
M  V30 5596 H 514.651 -0.392437 -3.84704 0
M  V30 5597 H 516.34 -0.78912 -3.98155 0
M  V30 5598 H 517.106 -3.24391 -3.60548 0
M  V30 5599 H 512.985 -2.11922 -4.09402 0
M  V30 5600 H 516.529 -5.56974 -4.2003 0
M  V30 5601 H 512.426 -4.43602 -4.68922 0
M  V30 5602 H 513.194 -6.49041 -4.98686 0
M  V30 5603 N 515.857 1.33968 -0.830081 0
M  V30 5604 C 516.767 2.33164 -0.259207 0
M  V30 5605 C 517.783 1.62951 0.610164 0
M  V30 5606 O 518.959 1.94668 0.516369 0
M  V30 5607 C 516.024 3.42088 0.563598 0
M  V30 5608 C 515.085 4.28037 -0.329014 0
M  V30 5609 C 514.318 5.3176 0.454616 0
M  V30 5610 O 514.541 5.44876 1.6872 0
M  V30 5611 O 513.475 6.01669 -0.166794 0
M  V30 5612 H 517.301 2.83832 -1.08041 0
M  V30 5613 H 514.886 1.37154 -0.59239 0
M  V30 5614 H 516.768 4.08581 1.03147 0
M  V30 5615 H 515.443 2.93651 1.36201 0
M  V30 5616 H 514.35 3.64443 -0.844538 0
M  V30 5617 H 515.683 4.79934 -1.09196 0
M  V30 5618 N 517.335 0.585699 1.46312 0
M  V30 5619 C 518.56 0.0762461 2.0726 0
M  V30 5620 C 518.985 -1.22071 1.43109 0
M  V30 5621 O 518.343 -1.73804 0.515942 0
M  V30 5622 C 518.391 -0.0729404 3.60526 0
M  V30 5623 O 517.495 -1.1287 3.96654 0
M  V30 5624 H 516.836 0.0641558 0.660893 0
M  V30 5625 H 519.366 0.809492 1.87905 0
M  V30 5626 H 519.376 -0.278158 4.07051 0
M  V30 5627 H 518.051 0.874188 4.06609 0
M  V30 5628 H 516.628 -0.901703 3.61834 0
M  V30 5629 N 518.813 -1.54241 0.323641 0
M  V30 5630 C 519.743 -2.27289 -0.534993 0
M  V30 5631 C 520.724 -1.28087 -1.11927 0
M  V30 5632 O 521.909 -1.56899 -1.14439 0
M  V30 5633 C 519.039 -3.03075 -1.69596 0
M  V30 5634 C 517.993 -4.09614 -1.24098 0
M  V30 5635 C 517.319 -4.73242 -2.4889 0
M  V30 5636 C 518.619 -5.21087 -0.355789 0
M  V30 5637 H 520.313 -2.99308 0.0743257 0
M  V30 5638 H 517.859 -1.43952 0.0371874 0
M  V30 5639 H 519.812 -3.52907 -2.30293 0
M  V30 5640 H 518.536 -2.28673 -2.33187 0
M  V30 5641 H 517.195 -3.60666 -0.656945 0
M  V30 5642 H 516.843 -3.95455 -3.10845 0
M  V30 5643 H 516.543 -5.45209 -2.19138 0
M  V30 5644 H 518.067 -5.25848 -3.10348 0
M  V30 5645 H 519.481 -5.66675 -0.869042 0
M  V30 5646 H 517.878 -5.9991 -0.151045 0
M  V30 5647 H 518.948 -4.81005 0.613339 0
M  V30 5648 N 520.291 -0.0518155 -1.57515 0
M  V30 5649 C 521.221 0.920283 -2.146 0
M  V30 5650 C 522.202 1.32406 -1.06783 0
M  V30 5651 O 523.387 1.39866 -1.34726 0
M  V30 5652 C 520.517 2.1949 -2.6915 0
M  V30 5653 C 519.471 1.93116 -3.81956 0
M  V30 5654 C 518.797 3.27037 -4.23026 0
M  V30 5655 C 520.097 1.25225 -5.07066 0
M  V30 5656 H 521.791 0.444801 -2.96077 0
M  V30 5657 H 519.337 0.212508 -1.42423 0
M  V30 5658 H 521.29 2.87894 -3.07725 0
M  V30 5659 H 520.014 2.69244 -1.84865 0
M  V30 5660 H 518.673 1.27123 -3.43854 0
M  V30 5661 H 518.321 3.74595 -3.3569 0
M  V30 5662 H 518.021 3.10189 -4.99056 0
M  V30 5663 H 519.545 3.96673 -4.64202 0
M  V30 5664 H 520.959 1.83666 -5.43083 0
M  V30 5665 H 519.356 1.18702 -5.88243 0
M  V30 5666 H 520.426 0.228382 -4.84362 0
M  V30 5667 N 521.769 1.56035 0.221574 0
M  V30 5668 C 523.046 1.69837 0.970301 0
M  V30 5669 C 523.426 0.599065 2.02421 0
M  V30 5670 O 522.774 -0.393929 2.25079 0
M  V30 5671 C 522.984 3.11148 1.58076 0
M  V30 5672 C 524.332 3.70555 2.07302 0
M  V30 5673 O 525.356 3.14109 1.6797 0
M  V30 5674 O 524.215 4.69562 2.79596 0
M  V30 5675 H 521.309 0.691727 0.453257 0
M  V30 5676 H 523.855 1.68353 0.213358 0
M  V30 5677 H 522.627 3.82617 0.819759 0
M  V30 5678 H 522.25 3.16749 2.40324 0
M  V30 5679 N 523.247 -0.488276 1.49845 0
M  V30 5680 C 524.524 -1.24959 1.50481 0
M  V30 5681 C 524.904 -2.09735 0.239698 0
M  V30 5682 O 524.252 -2.14865 -0.777524 0
M  V30 5683 C 524.462 -2.0954 2.79095 0
M  V30 5684 C 525.81 -2.68305 3.29086 0
M  V30 5685 O 526.834 -2.19797 2.80299 0
M  V30 5686 O 525.693 -3.56643 4.14087 0
M  V30 5687 H 522.787 -0.566133 0.602845 0
M  V30 5688 H 525.333 -0.501504 1.6212 0
M  V30 5689 H 524.105 -1.46958 3.62656 0
M  V30 5690 H 523.728 -2.91517 2.70377 0
M  V30 5691 N 524.725 -1.39134 -0.740242 0
M  V30 5692 C 525.95 -1.39518 -1.53459 0
M  V30 5693 C 526.375 0.00968883 -1.88098 0
M  V30 5694 O 525.733 0.995312 -1.51536 0
M  V30 5695 C 525.781 -2.26981 -2.802 0
M  V30 5696 O 524.885 -1.69609 -3.75908 0
M  V30 5697 H 524.226 -0.475328 -0.463637 0
M  V30 5698 H 526.756 -1.83064 -0.913717 0
M  V30 5699 H 526.766 -2.41309 -3.28989 0
M  V30 5700 H 525.441 -3.29081 -2.5432 0
M  V30 5701 H 524.018 -1.64495 -3.34658 0
M  V30 5702 N 526.204 0.969867 -1.24223 0
M  V30 5703 C 527.453 1.70687 -1.07466 0
M  V30 5704 C 527.766 1.91736 0.386861 0
M  V30 5705 O 528.972 2.62986 0.674581 0
M  V30 5706 C 527.428 3.07217 -1.87472 0
M  V30 5707 C 527.036 2.94018 -3.3802 0
M  V30 5708 C 528.78 3.84804 -1.79237 0
M  V30 5709 C 526.687 4.25844 -4.10379 0
M  V30 5710 H 525.617 0.640067 -0.398536 0
M  V30 5711 H 528.268 1.08092 -1.48285 0
M  V30 5712 H 526.65 3.70628 -1.39466 0
M  V30 5713 H 527.824 2.39632 -3.9359 0
M  V30 5714 H 526.139 2.29898 -3.47183 0
M  V30 5715 H 528.736 4.82417 -2.30603 0
M  V30 5716 H 529.079 4.09356 -0.757197 0
M  V30 5717 H 529.612 3.28115 -2.24912 0
M  V30 5718 H 526.351 4.06486 -5.14246 0
M  V30 5719 H 525.871 4.80054 -3.59594 0
M  V30 5720 H 527.55 4.94475 -4.17257 0
M  V30 5721 N 527.682 1.05563 1.17022 0
M  V30 5722 C 528.959 0.68165 1.83338 0
M  V30 5723 C 529.339 -0.837665 1.93769 0
M  V30 5724 O 528.687 -1.74507 1.47511 0
M  V30 5725 C 528.897 1.375 3.20772 0
M  V30 5726 C 530.245 1.51545 3.96635 0
M  V30 5727 O 531.269 1.33431 3.30264 0
M  V30 5728 O 530.128 1.812 5.15586 0
M  V30 5729 H 527.222 0.240412 0.791285 0
M  V30 5730 H 529.768 1.15545 1.24288 0
M  V30 5731 H 528.54 2.41135 3.08171 0
M  V30 5732 H 528.163 0.890798 3.87493 0
M  V30 5733 N 529.16 -1.33526 0.837174 0
M  V30 5734 C 530.571 -1.80182 0.489017 0
M  V30 5735 C 530.922 -1.69285 -0.991826 0
M  V30 5736 O 530.047 -1.24113 -1.77271 0
M  V30 5737 C 530.642 -3.27149 0.880866 0
M  V30 5738 C 529.201 -3.71828 0.584872 0
M  V30 5739 C 528.348 -2.54974 1.09011 0
M  V30 5740 H 531.299 -1.21071 1.02603 0
M  V30 5741 H 531.32 -3.80024 0.190239 0
M  V30 5742 H 530.832 -3.35048 1.95869 0
M  V30 5743 H 528.933 -3.69457 -0.48295 0
M  V30 5744 H 529.046 -4.65366 1.13892 0
M  V30 5745 H 527.41 -2.4952 0.511047 0
M  V30 5746 H 528.193 -2.65637 2.17467 0
M  V30 5747 N 530.638 -0.59345 -1.46 0
M  V30 5748 C 531.601 0.123538 -2.28867 0
M  V30 5749 C 532.601 0.808628 -1.38989 0
M  V30 5750 O 533.791 0.658945 -1.61256 0
M  V30 5751 C 530.923 1.1847 -3.19653 0
M  V30 5752 H 532.116 -0.604843 -2.93737 0
M  V30 5753 H 529.669 -0.351875 -1.52288 0
M  V30 5754 H 530.404 1.94431 -2.59552 0
M  V30 5755 H 530.189 0.69783 -3.8584 0
M  V30 5756 H 531.679 1.68726 -3.81997 0
M  V30 5757 N 532.116 1.54067 -0.331816 0
M  V30 5758 C 533.341 2.05599 0.272705 0
M  V30 5759 C 533.766 1.2059 1.44359 0
M  V30 5760 O 533.124 0.216907 1.79998 0
M  V30 5761 C 533.172 3.54188 0.677021 0
M  V30 5762 O 532.276 3.72082 1.77844 0
M  V30 5763 H 531.617 0.662286 0.0476801 0
M  V30 5764 H 534.147 1.98826 -0.482624 0
M  V30 5765 H 534.157 3.96608 0.957415 0
M  V30 5766 H 532.832 4.15513 -0.179325 0
M  V30 5767 H 531.409 3.41566 1.49622 0
M  V30 5768 N 533.594 0.0601682 1.57485 0
M  V30 5769 C 534.843 -0.611101 1.9222 0
M  V30 5770 C 535.156 -1.71469 0.941159 0
M  V30 5771 O 536.362 -2.44473 1.18089 0
M  V30 5772 C 534.818 -1.13832 3.41424 0
M  V30 5773 C 534.426 -0.0663596 4.47951 0
M  V30 5774 C 536.17 -1.78432 3.85178 0
M  V30 5775 C 534.077 -0.606965 5.88277 0
M  V30 5776 H 533.007 -0.232033 0.71741 0
M  V30 5777 H 535.658 0.130518 1.83035 0
M  V30 5778 H 534.04 -1.93254 3.45643 0
M  V30 5779 H 535.214 0.707682 4.55333 0
M  V30 5780 H 533.529 0.482715 4.13593 0
M  V30 5781 H 536.126 -2.1989 4.87394 0
M  V30 5782 H 536.469 -2.63966 3.21913 0
M  V30 5783 H 537.002 -1.05651 3.83514 0
M  V30 5784 H 533.741 0.21095 6.5516 0
M  V30 5785 H 533.261 -1.34879 5.84438 0
M  V30 5786 H 534.94 -1.08704 6.37803 0
M  V30 5787 N 535.072 -1.5615 -0.213296 0
M  V30 5788 C 535.982 -1.96265 -1.28519 0
M  V30 5789 C 536.998 -0.86765 -1.50824 0
M  V30 5790 O 538.174 -1.17191 -1.63793 0
M  V30 5791 C 535.239 -2.27836 -2.61327 0
M  V30 5792 C 534.3 -3.50949 -2.47252 0
M  V30 5793 C 533.533 -3.81004 -3.73727 0
M  V30 5794 O 533.756 -3.12612 -4.77106 0
M  V30 5795 O 532.69 -4.74477 -3.70344 0
M  V30 5796 H 536.516 -2.87631 -0.974795 0
M  V30 5797 H 534.101 -1.43467 -0.416832 0
M  V30 5798 H 535.983 -2.49299 -3.39747 0
M  V30 5799 H 534.658 -1.39643 -2.9203 0
M  V30 5800 H 533.565 -3.34754 -1.67004 0
M  V30 5801 H 534.898 -4.39551 -2.21486 0
M  V30 5802 N 536.55 0.480323 -1.50102 0
M  V30 5803 C 537.513 1.56181 -1.6775 0
M  V30 5804 C 538.513 1.51156 -0.548503 0
M  V30 5805 O 539.703 1.5394 -0.815363 0
M  V30 5806 C 536.835 2.95823 -1.69415 0
M  V30 5807 H 538.028 1.41855 -2.6423 0
M  V30 5808 H 535.581 0.70605 -1.39444 0
M  V30 5809 H 536.316 3.15604 -0.745948 0
M  V30 5810 H 536.101 3.00878 -2.51425 0
M  V30 5811 H 537.591 3.74359 -1.85054 0
M  V30 5812 N 538.028 1.39524 0.732853 0
M  V30 5813 C 539.444 1.21176 1.03868 0
M  V30 5814 C 539.644 0.0748448 2.01361 0
M  V30 5815 O 538.7 -0.57281 2.45917 0
M  V30 5816 C 540.013 2.54667 1.59892 0
M  V30 5817 C 541.561 2.6153 1.71962 0
M  V30 5818 C 542.036 3.95248 2.31394 0
M  V30 5819 N 543.527 3.96899 2.38801 0
M  V30 5820 C 544.262 4.97138 2.85729 0
M  V30 5821 N 543.758 6.07775 3.32537 0
M  V30 5822 N 545.551 4.84516 2.84957 0
M  V30 5823 H 537.702 2.12225 0.086304 0
M  V30 5824 H 539.965 0.942614 0.100907 0
M  V30 5825 H 539.671 3.38423 0.95721 0
M  V30 5826 H 539.545 2.74538 2.58668 0
M  V30 5827 H 541.932 1.78156 2.35254 0
M  V30 5828 H 542.013 2.45507 0.718327 0
M  V30 5829 H 541.657 4.79054 1.68729 0
M  V30 5830 H 541.587 4.08593 3.32204 0
M  V30 5831 H 544.078 3.16998 2.05719 0
M  V30 5832 H 544.391 6.8017 3.66862 0
M  V30 5833 H 542.736 6.11366 3.30541 0
M  V30 5834 H 545.927 3.97185 2.47713 0
M  V30 5835 H 546.1 5.62783 3.21215 0
M  V30 5836 N 539.506 -0.963266 1.24736 0
M  V30 5837 C 540.416 -2.09246 1.06082 0
M  V30 5838 C 541.432 -1.74 0.000363101 0
M  V30 5839 O 542.608 -2.0041 0.199479 0
M  V30 5840 C 539.673 -3.40115 0.672498 0
M  V30 5841 C 538.734 -3.89282 1.80993 0
M  V30 5842 C 537.967 -5.13905 1.44004 0
M  V30 5843 O 538.19 -5.69434 0.331835 0
M  V30 5844 O 537.124 -5.57566 2.26723 0
M  V30 5845 H 540.95 -2.27881 2.00759 0
M  V30 5846 H 538.535 -1.07649 1.03595 0
M  V30 5847 H 540.417 -4.18797 0.467668 0
M  V30 5848 H 539.092 -3.22771 -0.245102 0
M  V30 5849 H 537.999 -3.11642 2.06955 0
M  V30 5850 H 539.332 -4.1111 2.70646 0
M  V30 5851 N 540.985 -1.06182 -1.16461 0
M  V30 5852 C 542.262 -0.691364 -1.82974 0
M  V30 5853 C 542.642 0.827377 -1.9421 0
M  V30 5854 O 541.99 1.73723 -1.48434 0
M  V30 5855 C 542.2 -1.39199 -3.20038 0
M  V30 5856 C 543.548 -1.53647 -3.95825 0
M  V30 5857 O 544.572 -1.35181 -3.29552 0
M  V30 5858 O 543.431 -1.83932 -5.14618 0
M  V30 5859 H 540.525 -0.244605 -0.789998 0
M  V30 5860 H 543.071 -1.16203 -1.23673 0
M  V30 5861 H 541.843 -2.42766 -3.06888 0
M  V30 5862 H 541.466 -0.911335 -3.87015 0
M  V30 5863 N 542.463 1.3308 -0.844243 0
M  V30 5864 C 543.393 2.3161 -0.296493 0
M  V30 5865 C 544.374 1.59215 0.598707 0
M  V30 5866 O 545.559 1.87077 0.521134 0
M  V30 5867 C 542.689 3.43313 0.524762 0
M  V30 5868 C 541.643 4.27115 -0.275106 0
M  V30 5869 C 540.969 5.30483 0.670236 0
M  V30 5870 C 542.269 5.00443 -1.49514 0
M  V30 5871 H 543.963 2.77672 -1.11976 0
M  V30 5872 H 541.509 1.33496 -0.539899 0
M  V30 5873 H 543.462 4.11273 0.918298 0
M  V30 5874 H 542.186 2.95952 1.3813 0
M  V30 5875 H 540.845 3.60787 -0.650267 0
M  V30 5876 H 540.493 4.79379 1.52332 0
M  V30 5877 H 540.193 5.87435 0.139123 0
M  V30 5878 H 541.717 6.01308 1.06117 0
M  V30 5879 H 543.131 5.61141 -1.17447 0
M  V30 5880 H 541.528 5.67071 -1.96343 0
M  V30 5881 H 542.598 4.28906 -2.26202 0
M  V30 5882 N 543.941 0.601185 1.45683 0
M  V30 5883 C 545.169 0.100054 2.06658 0
M  V30 5884 C 545.584 -1.21285 1.44691 0
M  V30 5885 O 544.941 -1.73735 0.558772 0
M  V30 5886 C 544.992 -0.0528579 3.61461 0
M  V30 5887 O 544.713 1.20809 4.21114 0
M  V30 5888 C 546.214 -0.586193 4.39407 0
M  V30 5889 H 543.434 0.065905 0.667756 0
M  V30 5890 H 545.978 0.827101 1.87028 0
M  V30 5891 H 544.133 -0.730203 3.80456 0
M  V30 5892 H 544.547 1.03368 5.14213 0
M  V30 5893 H 546.021 -0.642297 5.4825 0
M  V30 5894 H 546.498 -1.60713 4.0874 0
M  V30 5895 H 547.104 0.0568935 4.25262 0
M  V30 5896 N 545.419 -1.53889 0.339982 0
M  V30 5897 C 546.352 -2.21187 -0.561405 0
M  V30 5898 C 547.33 -1.19463 -1.10306 0
M  V30 5899 O 548.514 -1.48268 -1.164 0
M  V30 5900 C 545.641 -2.8865 -1.77198 0
M  V30 5901 C 544.687 -4.04232 -1.3601 0
M  V30 5902 S 545.52 -5.34129 -0.382909 0
M  V30 5903 C 546.676 -6.05094 -1.60039 0
M  V30 5904 H 546.909 -2.97298 0.0102092 0
M  V30 5905 H 544.442 -1.53901 0.124056 0
M  V30 5906 H 546.4 -3.28138 -2.4665 0
M  V30 5907 H 545.061 -2.12311 -2.3148 0
M  V30 5908 H 544.254 -4.50358 -2.2626 0
M  V30 5909 H 543.856 -3.66503 -0.745098 0
M  V30 5910 H 546.148 -6.2827 -2.53541 0
M  V30 5911 H 547.091 -6.98182 -1.18099 0
M  V30 5912 H 547.499 -5.35207 -1.79483 0
M  V30 5913 N 546.897 -0.0685191 -1.57451 0
M  V30 5914 C 548.144 0.601348 -1.93365 0
M  V30 5915 C 548.472 1.69816 -0.948294 0
M  V30 5916 O 547.727 1.95666 0.0366199 0
M  V30 5917 C 548.026 1.22051 -3.35914 0
M  V30 5918 C 547.692 0.250165 -4.50205 0
M  V30 5919 C 546.354 -0.0167954 -4.81197 0
M  V30 5920 C 548.706 -0.413867 -5.19554 0
M  V30 5921 C 546.034 -0.95493 -5.78876 0
M  V30 5922 C 548.386 -1.3403 -6.18238 0
M  V30 5923 C 547.05 -1.61576 -6.47649 0
M  V30 5924 H 546.32 0.220049 -0.707573 0
M  V30 5925 H 548.967 -0.138697 -1.90997 0
M  V30 5926 H 547.272 2.03622 -3.34732 0
M  V30 5927 H 548.969 1.74605 -3.6099 0
M  V30 5928 H 545.559 0.468421 -4.26033 0
M  V30 5929 H 549.743 -0.220733 -4.95809 0
M  V30 5930 H 544.999 -1.17563 -5.99991 0
M  V30 5931 H 549.173 -1.86081 -6.71079 0
M  V30 5932 H 546.8 -2.34431 -7.2315 0
M  V30 5933 N 548.375 1.56261 0.205012 0
M  V30 5934 C 549.621 1.80306 0.9283 0
M  V30 5935 C 549.954 0.640932 1.83319 0
M  V30 5936 O 549.229 -0.359032 1.91158 0
M  V30 5937 C 549.512 3.14547 1.75306 0
M  V30 5938 C 549.365 4.41236 0.873562 0
M  V30 5939 C 550.684 3.45382 2.72762 0
M  V30 5940 H 547.803 0.655929 0.336044 0
M  V30 5941 H 550.445 1.88984 0.196211 0
M  V30 5942 H 548.595 3.0728 2.37721 0
M  V30 5943 H 550.267 4.60539 0.264887 0
M  V30 5944 H 548.51 4.33427 0.179773 0
M  V30 5945 H 549.181 5.31639 1.48541 0
M  V30 5946 H 551.657 3.52884 2.20481 0
M  V30 5947 H 550.533 4.40449 3.2756 0
M  V30 5948 H 550.794 2.68377 3.51321 0
M  V30 5949 N 549.853 -0.472356 1.50355 0
M  V30 5950 C 550.8 -1.57051 1.69126 0
M  V30 5951 C 551.77 -1.5733 0.532574 0
M  V30 5952 O 552.955 -1.7488 0.762994 0
M  V30 5953 C 550.095 -2.95033 1.79024 0
M  V30 5954 C 549.208 -3.04552 3.06386 0
M  V30 5955 C 548.343 -4.33441 3.07087 0
M  V30 5956 C 547.382 -4.36697 4.28908 0
M  V30 5957 N 546.519 -5.57056 4.27356 0
M  V30 5958 H 551.359 -1.40351 2.62879 0
M  V30 5959 H 548.896 -0.682403 1.30314 0
M  V30 5960 H 550.854 -3.75048 1.82744 0
M  V30 5961 H 549.484 -3.10371 0.887109 0
M  V30 5962 H 548.536 -2.17419 3.12143 0
M  V30 5963 H 549.848 -3.02818 3.96362 0
M  V30 5964 H 549.002 -5.21801 3.09529 0
M  V30 5965 H 547.741 -4.37782 2.14939 0
M  V30 5966 H 546.746 -3.46734 4.2668 0
M  V30 5967 H 547.971 -4.34049 5.22282 0
M  V30 5968 H 545.917 -5.62184 3.3806 0
M  V30 5969 H 545.834 -5.57058 5.111 0
M  V30 5970 H 547.102 -6.47545 4.33942 0
M  V30 5971 N 551.331 -1.39911 -0.725443 0
M  V30 5972 C 552.747 -1.21725 -1.03224 0
M  V30 5973 C 552.947 -0.0855224 -2.01318 0
M  V30 5974 O 552.003 0.55976 -2.46217 0
M  V30 5975 C 553.316 -2.55511 -1.58539 0
M  V30 5976 C 554.864 -2.62439 -1.70572 0
M  V30 5977 C 555.339 -3.9647 -2.29294 0
M  V30 5978 N 556.83 -3.98159 -2.36692 0
M  V30 5979 C 557.565 -4.98647 -2.83088 0
M  V30 5980 N 557.061 -6.0953 -3.2931 0
M  V30 5981 N 558.854 -4.8602 -2.82384 0
M  V30 5982 H 551.005 -2.12267 -0.075048 0
M  V30 5983 H 553.268 -0.943136 -0.0959066 0
M  V30 5984 H 552.974 -3.38926 -0.939249 0
M  V30 5985 H 552.848 -2.75905 -2.57208 0
M  V30 5986 H 555.235 -1.79401 -2.34306 0
M  V30 5987 H 555.316 -2.45885 -0.705297 0
M  V30 5988 H 554.96 -4.79942 -1.66186 0
M  V30 5989 H 554.89 -4.10349 -3.30032 0
M  V30 5990 H 557.381 -3.18085 -2.04035 0
M  V30 5991 H 557.694 -6.82106 -3.6325 0
M  V30 5992 H 556.039 -6.1311 -3.27294 0
M  V30 5993 H 559.23 -3.98493 -2.45603 0
M  V30 5994 H 559.403 -5.64478 -3.18226 0
M  V30 5995 N 552.809 0.956637 -1.25245 0
M  V30 5996 C 553.759 2.03841 -1.02141 0
M  V30 5997 C 554.743 1.60848 0.0410058 0
M  V30 5998 O 555.935 1.76142 -0.174084 0
M  V30 5999 C 553.064 3.37282 -0.639963 0
M  V30 6000 C 552.15 3.86805 -1.73903 0
M  V30 6001 N 552.541 4.09143 -2.97381 0
M  V30 6002 C 550.839 4.15574 -1.61909 0
M  V30 6003 C 551.54 4.49923 -3.68707 0
M  V30 6004 N 550.516 4.55737 -2.96318 0
M  V30 6005 H 554.318 2.19102 -1.95886 0
M  V30 6006 H 551.832 1.1413 -1.15534 0
M  V30 6007 H 553.829 4.14403 -0.455643 0
M  V30 6008 H 552.489 3.23401 0.29018 0
M  V30 6009 H 553.5 3.96275 -3.33447 0
M  V30 6010 H 550.177 4.10566 -0.757764 0
M  V30 6011 H 551.567 4.75526 -4.74684 0
M  V30 6012 N 554.287 1.06798 1.15896 0
M  V30 6013 C 555.234 0.683314 2.20453 0
M  V30 6014 C 556.204 -0.32255 1.62938 0
M  V30 6015 O 557.389 -0.210276 1.89638 0
M  V30 6016 C 554.529 0.0813266 3.45004 0
M  V30 6017 C 553.642 1.13799 4.16742 0
M  V30 6018 C 552.777 0.501598 5.28826 0
M  V30 6019 C 551.816 1.54144 5.92373 0
M  V30 6020 N 550.953 0.928038 6.9594 0
M  V30 6021 H 555.793 1.57932 2.52708 0
M  V30 6022 H 553.33 0.789544 1.24115 0
M  V30 6023 H 555.288 -0.285274 4.16224 0
M  V30 6024 H 553.918 -0.77806 3.13283 0
M  V30 6025 H 552.97 1.62223 3.44075 0
M  V30 6026 H 554.282 1.92664 4.60089 0
M  V30 6027 H 553.436 0.0823162 6.06644 0
M  V30 6028 H 552.175 -0.318883 4.86656 0
M  V30 6029 H 551.18 1.97056 5.13273 0
M  V30 6030 H 552.405 2.3641 6.36621 0
M  V30 6031 H 550.351 0.12836 6.55874 0
M  V30 6032 H 550.268 1.65401 7.37685 0
M  V30 6033 H 551.536 0.534071 7.77668 0
M  V30 6034 N 555.766 -1.3263 0.851289 0
M  V30 6035 C 556.696 -2.31449 0.308771 0
M  V30 6036 C 557.677 -1.59531 -0.590255 0
M  V30 6037 O 558.862 -1.87351 -0.511205 0
M  V30 6038 C 555.992 -3.43586 -0.506548 0
M  V30 6039 C 554.946 -4.26963 0.297753 0
M  V30 6040 C 554.272 -5.30831 -0.642094 0
M  V30 6041 C 555.572 -4.99643 1.52166 0
M  V30 6042 H 557.266 -2.77074 1.13447 0
M  V30 6043 H 554.812 -1.33207 0.546971 0
M  V30 6044 H 556.765 -4.11754 -0.896474 0
M  V30 6045 H 555.489 -2.96681 -1.36558 0
M  V30 6046 H 554.148 -3.60437 0.669391 0
M  V30 6047 H 553.796 -4.8018 -1.49788 0
M  V30 6048 H 553.496 -5.87501 -0.107968 0
M  V30 6049 H 555.02 -6.01862 -1.02927 0
M  V30 6050 H 556.434 -5.6051 1.20421 0
M  V30 6051 H 554.831 -5.66022 1.99347 0
M  V30 6052 H 555.901 -4.27701 2.28474 0
M  V30 6053 N 557.244 -0.608902 -1.45362 0
M  V30 6054 C 558.154 0.110969 -2.34337 0
M  V30 6055 C 559.17 0.859007 -1.51318 0
M  V30 6056 O 560.346 0.816296 -1.84116 0
M  V30 6057 C 557.411 1.09494 -3.28956 0
M  V30 6058 C 556.472 0.348718 -4.27881 0
M  V30 6059 C 555.705 1.28582 -5.17979 0
M  V30 6060 O 555.928 2.52369 -5.11533 0
M  V30 6061 O 554.862 0.782172 -5.96796 0
M  V30 6062 H 558.688 -0.620258 -2.97299 0
M  V30 6063 H 556.273 -0.36916 -1.44767 0
M  V30 6064 H 558.155 1.66163 -3.87257 0
M  V30 6065 H 556.83 1.80717 -2.68557 0
M  V30 6066 H 555.737 -0.260465 -3.73192 0
M  V30 6067 H 557.07 -0.323049 -4.91139 0
M  V30 6068 N 558.722 1.53707 -0.348139 0
M  V30 6069 C 559.947 2.05877 0.250883 0
M  V30 6070 C 560.372 1.22115 1.43072 0
M  V30 6071 O 559.73 0.235986 1.79758 0
M  V30 6072 C 559.778 3.54886 0.639416 0
M  V30 6073 O 558.882 3.73948 1.73888 0
M  V30 6074 H 558.223 0.662754 0.040653 0
M  V30 6075 H 560.753 1.98303 -0.503685 0
M  V30 6076 H 560.763 3.97601 0.915295 0
M  V30 6077 H 559.438 4.153 -0.223386 0
M  V30 6078 H 558.015 3.43134 1.45991 0
M  V30 6079 N 560.2 0.0768682 1.57412 0
M  V30 6080 C 561.11 -0.903207 2.16516 0
M  V30 6081 C 562.126 -1.32341 1.12968 0
M  V30 6082 O 563.302 -1.39507 1.45258 0
M  V30 6083 C 560.367 -2.1508 2.71922 0
M  V30 6084 C 559.428 -1.78653 3.90361 0
M  V30 6085 C 558.661 -2.97465 4.43114 0
M  V30 6086 O 558.884 -4.11638 3.94854 0
M  V30 6087 O 557.818 -2.76987 5.3438 0
M  V30 6088 H 561.644 -0.430427 3.00634 0
M  V30 6089 H 559.229 -0.146485 1.4868 0
M  V30 6090 H 561.111 -2.8823 3.07411 0
M  V30 6091 H 559.786 -2.61446 1.9086 0
M  V30 6092 H 558.693 -1.0274 3.59716 0
M  V30 6093 H 560.026 -1.37066 4.7273 0
M  V30 6094 N 561.678 -1.56367 -0.196722 0
M  V30 6095 C 562.608 -1.97442 -1.24655 0
M  V30 6096 C 563.589 -0.846147 -1.47561 0
M  V30 6097 O 564.774 -1.11035 -1.59326 0
M  V30 6098 C 561.904 -2.31253 -2.59112 0
M  V30 6099 C 560.858 -3.46804 -2.50821 0
M  V30 6100 C 560.184 -3.66286 -3.89536 0
M  V30 6101 C 561.484 -4.8104 -2.03465 0
M  V30 6102 H 563.178 -2.85388 -0.905216 0
M  V30 6103 H 560.724 -1.37304 -0.434002 0
M  V30 6104 H 562.677 -2.58583 -3.32736 0
M  V30 6105 H 561.401 -1.40188 -2.94983 0
M  V30 6106 H 560.06 -3.19563 -1.79653 0
M  V30 6107 H 559.708 -2.72555 -4.22756 0
M  V30 6108 H 559.408 -4.4402 -3.84864 0
M  V30 6109 H 560.932 -3.9599 -4.64784 0
M  V30 6110 H 562.346 -5.07411 -2.66846 0
M  V30 6111 H 560.743 -5.62232 -2.09798 0
M  V30 6112 H 561.813 -4.74732 -0.98781 0
M  V30 6113 N 563.156 0.464375 -1.50603 0
M  V30 6114 C 564.405 1.21277 -1.61167 0
M  V30 6115 C 564.718 1.92953 -0.320704 0
M  V30 6116 O 565.924 2.69778 -0.30534 0
M  V30 6117 C 564.38 2.20403 -2.84518 0
M  V30 6118 C 563.988 1.54499 -4.20516 0
M  V30 6119 C 565.732 2.95843 -3.0443 0
M  V30 6120 C 563.639 2.51951 -5.35047 0
M  V30 6121 H 562.569 0.456367 -0.600204 0
M  V30 6122 H 565.22 0.48254 -1.77042 0
M  V30 6123 H 563.602 2.96746 -2.62217 0
M  V30 6124 H 564.776 0.83899 -4.53098 0
M  V30 6125 H 563.091 0.913152 -4.06264 0
M  V30 6126 H 565.688 3.6879 -3.87167 0
M  V30 6127 H 566.031 3.55622 -2.16423 0
M  V30 6128 H 566.564 2.26611 -3.26944 0
M  V30 6129 H 563.303 1.96901 -6.25228 0
M  V30 6130 H 562.823 3.20683 -5.06875 0
M  V30 6131 H 564.502 3.13643 -5.65895 0
M  V30 6132 N 564.634 1.40294 0.718013 0
M  V30 6133 C 565.581 1.40367 1.8321 0
M  V30 6134 C 566.551 0.260952 1.64037 0
M  V30 6135 O 567.736 0.458648 1.85205 0
M  V30 6136 C 564.876 1.26965 3.20895 0
M  V30 6137 C 563.989 2.50922 3.51656 0
M  V30 6138 C 563.124 2.29981 4.78834 0
M  V30 6139 C 562.163 3.49527 5.02491 0
M  V30 6140 N 561.3 3.27796 6.20882 0
M  V30 6141 H 566.14 2.35593 1.82482 0
M  V30 6142 H 563.677 1.17012 0.891444 0
M  V30 6143 H 565.635 1.17202 4.00399 0
M  V30 6144 H 564.265 0.353591 3.20858 0
M  V30 6145 H 563.317 2.71223 2.66725 0
M  V30 6146 H 564.629 3.39913 3.65048 0
M  V30 6147 H 563.783 2.17558 5.66351 0
M  V30 6148 H 562.522 1.38411 4.67647 0
M  V30 6149 H 561.527 3.6243 4.1343 0
M  V30 6150 H 562.752 4.42021 5.15553 0
M  V30 6151 H 560.698 2.38906 6.1095 0
M  V30 6152 H 560.615 4.10351 6.34939 0
M  V30 6153 H 561.883 3.19101 7.11193 0
M  V30 6154 N 566.112 -0.949982 1.2575 0
M  V30 6155 C 567.337 -1.73503 1.13628 0
M  V30 6156 C 567.762 -1.85601 -0.30559 0
M  V30 6157 O 567.12 -1.33984 -1.22139 0
M  V30 6158 C 567.168 -3.1243 1.80055 0
M  V30 6159 O 566.272 -3.97916 1.08336 0
M  V30 6160 H 565.613 -0.532665 0.396439 0
M  V30 6161 H 568.143 -1.19043 1.66403 0
M  V30 6162 H 568.153 -3.62866 1.86527 0
M  V30 6163 H 566.828 -3.02941 2.84956 0
M  V30 6164 H 565.405 -3.56375 1.09777 0
M  V30 6165 N 567.59 -1.07411 -1.15328 0
M  V30 6166 C 568.553 -0.698914 -2.18284 0
M  V30 6167 C 569.553 0.261149 -1.58665 0
M  V30 6168 O 570.743 0.0420277 -1.74149 0
M  V30 6169 C 567.875 -0.0302427 -3.40887 0
M  V30 6170 H 569.068 -1.61045 -2.52991 0
M  V30 6171 H 566.621 -0.870724 -1.298 0
M  V30 6172 H 567.356 0.893505 -3.11748 0
M  V30 6173 H 567.141 -0.720759 -3.85419 0
M  V30 6174 H 568.631 0.21759 -4.17033 0
M  V30 6175 N 569.068 1.32177 -0.85831 0
M  V30 6176 C 570.031 2.27086 -0.310588 0
M  V30 6177 C 571.031 1.51751 0.531806 0
M  V30 6178 O 572.221 1.70794 0.34279 0
M  V30 6179 C 569.353 3.36266 0.560179 0
M  V30 6180 H 570.546 2.77045 -1.1483 0
M  V30 6181 H 568.099 1.42911 -0.632942 0
M  V30 6182 H 568.834 2.9158 1.41956 0
M  V30 6183 H 568.619 3.92077 -0.0428473 0
M  V30 6184 H 570.109 4.06974 0.936056 0
M  V30 6185 N 570.547 0.616602 1.45037 0
M  V30 6186 C 571.457 -0.0985401 2.34393 0
M  V30 6187 C 572.473 -0.850971 1.51771 0
M  V30 6188 O 573.649 -0.806521 1.84546 0
M  V30 6189 C 570.714 -1.07748 3.29532 0
M  V30 6190 C 569.775 -0.326022 4.2806 0
M  V30 6191 C 569.008 -1.25833 5.18654 0
M  V30 6192 O 569.231 -2.49652 5.12864 0
M  V30 6193 O 568.165 -0.750512 5.97203 0
M  V30 6194 H 571.991 0.636016 2.96966 0
M  V30 6195 H 569.576 0.376832 1.44569 0
M  V30 6196 H 571.458 -1.64107 3.88133 0
M  V30 6197 H 570.133 -1.79291 2.69512 0
M  V30 6198 H 569.04 0.280253 3.73049 0
M  V30 6199 H 570.373 0.349091 4.9096 0
M  V30 6200 N 572.025 -1.5352 0.356285 0
M  V30 6201 C 573.273 -2.00719 -0.235837 0
M  V30 6202 C 573.594 -1.24551 -1.5004 0
M  V30 6203 O 572.864 -0.356185 -1.92635 0
M  V30 6204 H 571.444 -0.741542 -0.0901366 0
M  V30 6205 H 574.106 -1.88887 0.480378 0
M  V30 6206 H 573.202 -3.08551 -0.469357 0
M  V30 6207 N 573.503 -0.0852151 -1.57369 0
M  V30 6208 C 574.433 0.874556 -2.16503 0
M  V30 6209 C 575.414 1.30111 -1.09568 0
M  V30 6210 O 576.599 1.36977 -1.37662 0
M  V30 6211 C 573.729 2.13731 -2.73745 0
M  V30 6212 C 572.683 1.84971 -3.85966 0
M  V30 6213 C 572.009 3.17991 -4.29867 0
M  V30 6214 C 573.309 1.14442 -5.09608 0
M  V30 6215 H 575.003 0.381899 -2.96954 0
M  V30 6216 H 572.549 0.18225 -1.42842 0
M  V30 6217 H 574.502 2.81302 -3.13763 0
M  V30 6218 H 573.226 2.65263 -1.90534 0
M  V30 6219 H 571.885 1.19801 -3.46473 0
M  V30 6220 H 571.533 3.6739 -3.4356 0
M  V30 6221 H 571.233 2.99534 -5.05523 0
M  V30 6222 H 572.757 3.86737 -4.72511 0
M  V30 6223 H 574.171 1.72105 -5.46857 0
M  V30 6224 H 572.568 1.06197 -5.90629 0
M  V30 6225 H 573.638 0.12559 -4.84737 0
M  V30 6226 N 574.981 1.5647 0.188427 0
M  V30 6227 C 576.229 1.80655 0.905986 0
M  V30 6228 C 576.55 0.659391 1.83513 0
M  V30 6229 O 575.82 -0.321868 1.93238 0
M  V30 6230 H 574.4 0.666391 0.337538 0
M  V30 6231 H 577.062 1.93949 0.192339 0
M  V30 6232 H 576.158 2.74066 1.49313 0
M  V30 6233 N 576.459 -0.456382 1.50847 0
M  V30 6234 C 577.706 -1.20736 1.62571 0
M  V30 6235 C 578.034 -1.9163 0.332904 0
M  V30 6236 O 577.289 -1.8343 -0.682058 0
M  V30 6237 C 577.588 -2.26336 2.76599 0
M  V30 6238 C 577.254 -1.7259 4.16562 0
M  V30 6239 C 575.916 -1.57654 4.54641 0
M  V30 6240 C 578.268 -1.32877 5.03977 0
M  V30 6241 C 575.596 -1.0145 5.77862 0
M  V30 6242 C 577.948 -0.7811 6.27759 0
M  V30 6243 C 576.612 -0.618488 6.64628 0
M  V30 6244 H 575.882 -0.441803 0.594888 0
M  V30 6245 H 578.529 -0.501169 1.84826 0
M  V30 6246 H 576.834 -3.0292 2.48489 0
M  V30 6247 H 578.531 -2.84227 2.82871 0
M  V30 6248 H 575.121 -1.85187 3.86528 0
M  V30 6249 H 579.305 -1.43245 4.75179 0
M  V30 6250 H 574.561 -0.876109 6.0509 0
M  V30 6251 H 578.735 -0.464783 6.94847 0
M  V30 6252 H 576.362 -0.180838 7.59985 0
M  V30 6253 N 577.937 -1.40673 -0.710563 0
M  V30 6254 C 579.162 -1.42741 -1.50465 0
M  V30 6255 C 579.587 -0.0302116 -1.88076 0
M  V30 6256 O 578.945 0.962945 -1.53613 0
M  V30 6257 C 578.993 -2.32873 -2.75322 0
M  V30 6258 O 578.097 -1.77544 -3.72226 0
M  V30 6259 H 577.438 -0.485056 -0.45345 0
M  V30 6260 H 579.968 -1.84961 -0.874681 0
M  V30 6261 H 579.978 -2.48233 -3.23797 0
M  V30 6262 H 578.653 -3.34401 -2.47283 0
M  V30 6263 H 577.23 -1.71556 -3.31093 0
M  V30 6264 N 579.415 0.9433 -1.26252 0
M  V30 6265 C 580.645 1.72117 -1.14277 0
M  V30 6266 C 581.053 1.86726 0.304944 0
M  V30 6267 O 580.396 1.3727 1.22076 0
M  V30 6268 C 580.458 3.14778 -1.73651 0
M  V30 6269 C 580.122 3.23561 -3.22734 0
M  V30 6270 C 581.119 3.07001 -4.19579 0
M  V30 6271 C 578.804 3.47019 -3.63157 0
M  V30 6272 C 580.798 3.13763 -5.54826 0
M  V30 6273 C 578.485 3.53416 -4.98538 0
M  V30 6274 C 579.483 3.36804 -5.94182 0
M  V30 6275 O 579.171 3.42906 -7.27098 0
M  V30 6276 H 578.903 0.545781 -0.398873 0
M  V30 6277 H 581.457 1.19123 -1.67328 0
M  V30 6278 H 579.687 3.69186 -1.1506 0
M  V30 6279 H 581.376 3.74469 -1.56613 0
M  V30 6280 H 582.142 2.88736 -3.89688 0
M  V30 6281 H 578.021 3.59006 -2.89199 0
M  V30 6282 H 581.565 3.00714 -6.29458 0
M  V30 6283 H 577.462 3.71201 -5.28091 0
M  V30 6284 H 578.23 3.59463 -7.35342 0
M  V30 6285 N 580.893 1.08022 1.14757 0
M  V30 6286 C 582.121 0.828847 1.89572 0
M  V30 6287 C 582.536 -0.618621 1.78377 0
M  V30 6288 O 581.893 -1.42482 1.1404 0
M  V30 6289 C 581.944 1.23677 3.39685 0
M  V30 6290 O 581.665 2.62746 3.50566 0
M  V30 6291 C 583.166 1.01569 4.31507 0
M  V30 6292 H 580.386 0.299196 0.600602 0
M  V30 6293 H 582.93 1.43846 1.45357 0
M  V30 6294 H 581.085 0.671347 3.81539 0
M  V30 6295 H 581.499 2.79573 4.43778 0
M  V30 6296 H 582.973 1.35055 5.35223 0
M  V30 6297 H 583.45 -0.0475433 4.39174 0
M  V30 6298 H 584.056 1.56636 3.95405 0
M  V30 6299 N 582.371 -1.3172 0.865308 0
M  V30 6300 C 583.281 -2.32394 0.320935 0
M  V30 6301 C 584.297 -1.64511 -0.566746 0
M  V30 6302 O 585.473 -1.95969 -0.464575 0
M  V30 6303 C 582.538 -3.43462 -0.472701 0
M  V30 6304 C 581.599 -4.27015 0.442385 0
M  V30 6305 C 580.832 -5.32779 -0.313469 0
M  V30 6306 O 581.055 -5.49158 -1.54214 0
M  V30 6307 O 579.989 -6.01015 0.326257 0
M  V30 6308 H 583.815 -2.80868 1.15528 0
M  V30 6309 H 581.4 -1.35535 0.628545 0
M  V30 6310 H 583.282 -4.11172 -0.922781 0
M  V30 6311 H 581.957 -2.97159 -1.28367 0
M  V30 6312 H 580.864 -3.62075 0.940866 0
M  V30 6313 H 582.197 -4.76871 1.21882 0
M  V30 6314 N 583.85 -0.624285 -1.44708 0
M  V30 6315 C 585.26 -0.2092 -1.85524 0
M  V30 6316 C 585.611 1.23783 -1.52225 0
M  V30 6317 O 584.736 1.94089 -0.956986 0
M  V30 6318 C 585.332 -0.372897 -3.36742 0
M  V30 6319 C 583.891 -0.012374 -3.76398 0
M  V30 6320 C 583.038 -0.68951 -2.68591 0
M  V30 6321 H 585.989 -0.829894 -1.35272 0
M  V30 6322 H 586.01 0.390134 -3.78495 0
M  V30 6323 H 585.522 -1.42615 -3.60947 0
M  V30 6324 H 583.623 1.03941 -3.57809 0
M  V30 6325 H 583.736 -0.417663 -4.77276 0
M  V30 6326 H 582.1 -0.125484 -2.54391 0
M  V30 6327 H 582.883 -1.74522 -2.9563 0
M  V30 6328 N 585.328 1.53329 -0.364422 0
M  V30 6329 C 586.276 2.27212 0.497737 0
M  V30 6330 C 587.27 1.30146 1.08437 0
M  V30 6331 O 588.476 1.47778 1.0277 0
M  V30 6332 H 584.851 0.730329 0.179232 0
M  V30 6333 H 586.822 2.98037 -0.147182 0
M  V30 6334 C 585.571 3.07333 1.6261 0
M  V30 6335 H 584.894 3.81866 1.184 0
M  V30 6336 H 586.334 3.62209 2.20409 0
M  V30 6337 C 584.793 2.18102 2.56775 0
M  V30 6338 O 585.323 1.79104 3.59562 0
M  V30 6339 N 583.529 1.82759 2.25937 0
M  V30 6340 H 583.076 2.14671 1.42387 0
M  V30 6341 H 583.034 1.23342 2.89196 0
M  V30 6342 N 586.806 0.0935595 1.57322 0
M  V30 6343 C 588.036 -0.578095 1.98347 0
M  V30 6344 C 588.444 -1.62357 0.971441 0
M  V30 6345 O 587.787 -1.83639 -0.0473959 0
M  V30 6346 C 587.849 -1.28525 3.3574 0
M  V30 6347 C 587.513 -0.390714 4.55327 0
M  V30 6348 C 588.51 0.360522 5.18648 0
M  V30 6349 C 586.195 -0.309221 5.01347 0
M  V30 6350 C 588.189 1.18125 6.26359 0
M  V30 6351 C 585.876 0.515157 6.08925 0
M  V30 6352 C 586.874 1.25904 6.71295 0
M  V30 6353 O 586.562 2.06978 7.76798 0
M  V30 6354 H 586.294 -0.159767 0.656849 0
M  V30 6355 H 588.848 0.169058 2.04703 0
M  V30 6356 H 587.078 -2.07894 3.26063 0
M  V30 6357 H 588.767 -1.85128 3.61223 0
M  V30 6358 H 589.533 0.307285 4.84026 0
M  V30 6359 H 585.412 -0.877881 4.52564 0
M  V30 6360 H 588.956 1.76236 6.74971 0
M  V30 6361 H 584.853 0.56988 6.42979 0
M  V30 6362 H 585.621 1.99644 7.93779 0
M  V30 6363 N 588.284 -1.56567 -0.180126 0
M  V30 6364 C 589.53 -1.82658 -0.894859 0
M  V30 6365 C 589.885 -0.672826 -1.80252 0
M  V30 6366 O 589.178 0.331227 -1.88715 0
M  V30 6367 C 589.372 -3.1252 -1.73395 0
M  V30 6368 C 589.201 -4.40417 -0.909028 0
M  V30 6369 C 587.971 -5.01872 -0.587562 0
M  V30 6370 C 590.169 -5.13669 -0.254698 0
M  V30 6371 N 588.151 -6.13373 0.254428 0
M  V30 6372 C 589.522 -6.18373 0.448837 0
M  V30 6373 C 591.577 -4.97603 -0.171958 0
M  V30 6374 C 590.28 -7.08753 1.22725 0
M  V30 6375 C 592.306 -5.88418 0.593101 0
M  V30 6376 C 591.668 -6.92579 1.28503 0
M  V30 6377 H 587.767 -0.719493 -0.306356 0
M  V30 6378 H 590.351 -1.94021 -0.16247 0
M  V30 6379 H 588.522 -3.02365 -2.43783 0
M  V30 6380 H 590.254 -3.2664 -2.38931 0
M  V30 6381 H 587.009 -4.64666 -0.915557 0
M  V30 6382 H 587.433 -6.73721 0.665474 0
M  V30 6383 H 592.075 -4.17089 -0.692555 0
M  V30 6384 H 589.793 -7.88718 1.75923 0
M  V30 6385 H 593.379 -5.78059 0.658674 0
M  V30 6386 H 592.259 -7.61638 1.86754 0
M  V30 6387 N 589.762 0.448376 -1.51087 0
M  V30 6388 C 591.011 1.19561 -1.62444 0
M  V30 6389 C 591.324 1.92602 -0.341151 0
M  V30 6390 O 592.53 2.69439 -0.333936 0
M  V30 6391 C 590.986 2.17373 -2.8684 0
M  V30 6392 C 590.594 1.5003 -4.22131 0
M  V30 6393 C 592.338 2.92597 -3.0755 0
M  V30 6394 C 590.245 2.46262 -5.37689 0
M  V30 6395 H 589.175 0.449975 -0.605011 0
M  V30 6396 H 591.826 0.463735 -1.77544 0
M  V30 6397 H 590.208 2.93948 -2.65349 0
M  V30 6398 H 591.382 0.790886 -4.53962 0
M  V30 6399 H 589.697 0.870011 -4.0721 0
M  V30 6400 H 592.294 3.64663 -3.91056 0
M  V30 6401 H 592.637 3.53306 -2.20183 0
M  V30 6402 H 593.17 2.23131 -3.29329 0
M  V30 6403 H 589.909 1.90258 -6.27281 0
M  V30 6404 H 589.429 3.15289 -5.10248 0
M  V30 6405 H 591.108 3.07623 -5.6919 0
M  V30 6406 N 591.24 1.41047 0.703093 0
M  V30 6407 C 592.656 1.23351 1.01275 0
M  V30 6408 C 592.856 0.11754 2.01157 0
M  V30 6409 O 591.912 -0.520518 2.47077 0
M  V30 6410 C 593.225 2.58001 1.54454 0
M  V30 6411 C 594.773 2.65119 1.66376 0
M  V30 6412 C 595.248 4.00067 2.22958 0
M  V30 6413 N 596.739 4.01875 2.30328 0
M  V30 6414 C 597.474 5.03087 2.75119 0
M  V30 6415 N 596.97 6.14692 3.19571 0
M  V30 6416 N 598.763 4.90451 2.74616 0
M  V30 6417 H 590.914 2.1236 0.0412686 0
M  V30 6418 H 593.177 0.944543 0.08089 0
M  V30 6419 H 592.883 3.40378 0.88521 0
M  V30 6420 H 592.757 2.79962 2.52786 0
M  V30 6421 H 595.144 1.83106 2.31422 0
M  V30 6422 H 595.225 2.46975 0.666089 0
M  V30 6423 H 594.869 4.82526 1.58529 0
M  V30 6424 H 594.799 4.15547 3.23462 0
M  V30 6425 H 597.29 3.21291 1.98949 0
M  V30 6426 H 597.603 6.87799 3.52352 0
M  V30 6427 H 595.948 6.18239 3.17498 0
M  V30 6428 H 599.139 4.0235 2.39233 0
M  V30 6429 H 599.312 5.6947 3.09206 0
M  V30 6430 N 592.718 -0.936591 1.26751 0
M  V30 6431 C 593.948 -1.71509 1.15188 0
M  V30 6432 C 594.356 -1.86885 -0.295037 0
M  V30 6433 O 593.699 -1.37915 -1.21347 0
M  V30 6434 C 593.761 -3.13853 1.75318 0
M  V30 6435 C 593.425 -3.21845 3.24445 0
M  V30 6436 C 594.422 -3.04771 4.21201 0
M  V30 6437 C 592.107 -3.45088 3.64992 0
M  V30 6438 C 594.101 -3.10816 5.56482 0
M  V30 6439 C 591.788 -3.50767 5.00405 0
M  V30 6440 C 592.786 -3.33648 5.9596 0
M  V30 6441 O 592.474 -3.39045 7.28906 0
M  V30 6442 H 592.206 -0.543658 0.401761 0
M  V30 6443 H 594.76 -1.18234 1.67958 0
M  V30 6444 H 592.99 -3.6857 1.17016 0
M  V30 6445 H 594.679 -3.73634 1.58596 0
M  V30 6446 H 595.445 -2.86665 3.91214 0
M  V30 6447 H 591.324 -3.57467 2.91098 0
M  V30 6448 H 594.868 -2.97372 6.31043 0
M  V30 6449 H 590.765 -3.68396 5.30052 0
M  V30 6450 H 591.533 -3.55558 7.37238 0
M  V30 6451 N 594.196 -1.08629 -1.14182 0
M  V30 6452 C 595.444 -0.815731 -1.84906 0
M  V30 6453 C 595.765 0.660441 -1.83475 0
M  V30 6454 O 595.035 1.47888 -1.28476 0
M  V30 6455 H 593.615 -0.298773 -0.684648 0
M  V30 6456 H 596.277 -1.37274 -1.38354 0
M  V30 6457 H 595.373 -1.16193 -2.89665 0
M  V30 6458 N 595.674 1.31259 -0.872281 0
M  V30 6459 C 596.922 1.96233 -0.483409 0
M  V30 6460 C 597.243 1.69276 0.968012 0
M  V30 6461 O 596.513 1.00943 1.67891 0
M  V30 6462 H 595.093 0.726025 -0.175774 0
M  V30 6463 H 597.755 1.60024 -1.11258 0
M  V30 6464 H 596.851 3.05403 -0.643075 0
M  V30 6465 N 597.152 0.631951 1.44375 0
M  V30 6466 C 598.568 0.297642 1.568 0
M  V30 6467 C 598.768 -1.19916 1.61934 0
M  V30 6468 O 597.824 -1.98324 1.56281 0
M  V30 6469 C 599.137 0.990286 2.83926 0
M  V30 6470 C 600.685 0.968507 2.97639 0
M  V30 6471 C 601.16 1.64163 4.27568 0
M  V30 6472 N 602.651 1.60826 4.34384 0
M  V30 6473 C 603.386 2.09802 5.33639 0
M  V30 6474 N 602.882 2.66973 6.39294 0
M  V30 6475 N 604.675 2.00426 5.25153 0
M  V30 6476 H 596.826 1.60353 1.39286 0
M  V30 6477 H 599.089 0.673142 0.667521 0
M  V30 6478 H 598.795 2.04519 2.8612 0
M  V30 6479 H 598.669 0.528563 3.73478 0
M  V30 6480 H 601.056 -0.0779247 2.94997 0
M  V30 6481 H 601.137 1.46873 2.09433 0
M  V30 6482 H 600.781 2.68752 4.3097 0
M  V30 6483 H 600.711 1.11624 5.14634 0
M  V30 6484 H 603.202 1.19087 3.58646 0
M  V30 6485 H 603.515 3.02074 7.11316 0
M  V30 6486 H 601.86 2.71024 6.39977 0
M  V30 6487 H 605.051 1.55483 4.41523 0
M  V30 6488 H 605.224 2.38906 6.02352 0
M  V30 6489 N 598.631 -1.53133 0.372548 0
M  V30 6490 C 599.563 -2.23557 -0.505444 0
M  V30 6491 C 600.576 -1.25211 -1.04049 0
M  V30 6492 O 601.765 -1.51391 -0.945675 0
M  V30 6493 C 598.865 -2.92516 -1.71136 0
M  V30 6494 C 598.038 -4.17428 -1.30661 0
M  V30 6495 C 597.097 -4.69535 -2.37536 0
M  V30 6496 O 596.123 -5.33042 -1.99637 0
M  V30 6497 N 597.325 -4.47947 -3.6922 0
M  V30 6498 H 600.09 -2.9954 0.0978259 0
M  V30 6499 H 597.651 -1.60684 0.198068 0
M  V30 6500 H 599.643 -3.24281 -2.42124 0
M  V30 6501 H 598.213 -2.19944 -2.22134 0
M  V30 6502 H 597.433 -3.91888 -0.426292 0
M  V30 6503 H 598.721 -4.98622 -1.01259 0
M  V30 6504 H 598.119 -3.97219 -4.02783 0
M  V30 6505 H 596.676 -4.84245 -4.36292 0
M  V30 6506 N 600.109 -0.101901 -1.5727 0
M  V30 6507 C 601.386 0.602832 -1.86079 0
M  V30 6508 C 601.766 1.85912 -1 0
M  V30 6509 O 601.114 2.28379 -0.0742488 0
M  V30 6510 C 601.324 0.911694 -3.36881 0
M  V30 6511 C 602.672 1.2722 -4.05093 0
M  V30 6512 O 603.696 1.0025 -3.41802 0
M  V30 6513 O 602.555 1.7776 -5.16782 0
M  V30 6514 H 599.649 0.302366 -0.769743 0
M  V30 6515 H 602.195 -0.135113 -1.69161 0
M  V30 6516 H 600.967 0.0207256 -3.91295 0
M  V30 6517 H 600.59 1.70538 -3.59169 0
M  V30 6518 N 601.587 1.56661 0.17182 0
M  V30 6519 C 602.497 1.99604 1.2327 0
M  V30 6520 C 603.513 0.907333 1.4847 0
M  V30 6521 O 604.689 1.21492 1.60629 0
M  V30 6522 C 601.754 2.34685 2.55194 0
M  V30 6523 C 600.815 3.57381 2.3786 0
M  V30 6524 C 600.048 3.90779 3.63494 0
M  V30 6525 O 600.271 3.25152 4.6865 0
M  V30 6526 O 599.205 4.84129 3.57634 0
M  V30 6527 H 603.031 2.90114 0.898192 0
M  V30 6528 H 600.616 1.44522 0.378647 0
M  V30 6529 H 602.498 2.5822 3.33017 0
M  V30 6530 H 601.173 1.47336 2.88225 0
M  V30 6531 H 600.08 3.39064 1.5807 0
M  V30 6532 H 601.413 4.45268 2.09754 0
M  V30 6533 N 603.065 -0.440357 1.51323 0
M  V30 6534 C 604.013 -1.55492 1.72988 0
M  V30 6535 C 605.007 -1.58564 0.596138 0
M  V30 6536 O 606.213 -1.62345 0.777443 0
M  V30 6537 H 602.588 -0.516532 0.546533 0
M  V30 6538 H 604.559 -1.34392 2.66423 0
M  V30 6539 C 603.308 -2.93176 1.86931 0
M  V30 6540 H 602.631 -2.91543 2.73574 0
M  V30 6541 H 604.071 -3.70537 2.06103 0
M  V30 6542 C 602.53 -3.30988 0.628365 0
M  V30 6543 O 603.06 -4.01106 -0.218367 0
M  V30 6544 N 601.266 -2.86719 0.473339 0
M  V30 6545 H 600.813 -2.2983 1.16345 0
M  V30 6546 H 600.771 -3.12381 -0.355727 0
M  V30 6547 N 604.543 -1.41418 -0.695603 0
M  V30 6548 C 605.959 -1.23887 -1.00619 0
M  V30 6549 C 606.159 -0.128206 -2.01092 0
M  V30 6550 O 605.215 0.507408 -2.47349 0
M  V30 6551 C 606.528 -2.58816 -1.53083 0
M  V30 6552 C 608.076 -2.65998 -1.64967 0
M  V30 6553 C 608.551 -4.01244 -2.20833 0
M  V30 6554 N 610.042 -4.0309 -2.28194 0
M  V30 6555 C 610.777 -5.04539 -2.72448 0
M  V30 6556 N 610.273 -6.16378 -3.16306 0
M  V30 6557 N 612.066 -4.91901 -2.72011 0
M  V30 6558 H 604.217 -2.12379 -0.0300061 0
M  V30 6559 H 606.48 -0.944958 -0.0758797 0
M  V30 6560 H 606.186 -3.40842 -0.867147 0
M  V30 6561 H 606.06 -2.81299 -2.51298 0
M  V30 6562 H 608.447 -1.84331 -2.30448 0
M  V30 6563 H 608.528 -2.47325 -0.652982 0
M  V30 6564 H 608.172 -4.83359 -1.55968 0
M  V30 6565 H 608.102 -4.17257 -3.21254 0
M  V30 6566 H 610.593 -3.22341 -1.97242 0
M  V30 6567 H 610.906 -6.89658 -3.487 0
M  V30 6568 H 609.251 -6.19914 -3.14215 0
M  V30 6569 H 612.442 -4.03613 -2.37095 0
M  V30 6570 H 612.615 -5.71102 -3.06181 0
M  V30 6571 N 606.021 0.929856 -1.27246 0
M  V30 6572 C 607.267 1.6798 -1.13625 0
M  V30 6573 C 607.6 1.91586 0.317589 0
M  V30 6574 O 606.875 1.50467 1.23247 0
M  V30 6575 C 607.158 3.04766 -1.91806 0
M  V30 6576 C 607.011 2.88415 -3.45162 0
M  V30 6577 C 608.33 4.05063 -1.72082 0
M  V30 6578 H 605.449 0.609632 -0.414147 0
M  V30 6579 H 608.091 1.0792 -1.56376 0
M  V30 6580 H 606.241 3.56034 -1.55474 0
M  V30 6581 H 607.913 2.44282 -3.91311 0
M  V30 6582 H 606.156 2.23802 -3.71611 0
M  V30 6583 H 606.827 3.85482 -3.95105 0
M  V30 6584 H 609.303 3.62798 -2.03757 0
M  V30 6585 H 608.179 4.98765 -2.29182 0
M  V30 6586 H 608.44 4.37021 -0.668206 0
M  V30 6587 N 607.499 1.09233 1.13605 0
M  V30 6588 C 608.91 0.846839 1.6639 0
M  V30 6589 C 609.261 -0.625031 1.85978 0
M  V30 6590 O 608.386 -1.48173 1.57714 0
M  V30 6591 C 608.981 1.5307 3.0225 0
M  V30 6592 C 607.54 1.33223 3.52035 0
M  V30 6593 C 606.687 1.58806 2.27323 0
M  V30 6594 H 609.638 1.25175 0.975541 0
M  V30 6595 H 609.659 0.96267 3.68121 0
M  V30 6596 H 609.171 2.60192 2.87961 0
M  V30 6597 H 607.272 0.282091 3.71531 0
M  V30 6598 H 607.385 2.0657 4.32279 0
M  V30 6599 H 605.749 1.01007 2.33815 0
M  V30 6600 H 606.532 2.67153 2.15602 0
M  V30 6601 N 608.977 -1.30795 0.87923 0
M  V30 6602 C 610.202 -2.01063 0.508769 0
M  V30 6603 C 610.627 -1.65508 -0.893803 0
M  V30 6604 O 609.985 -0.868616 -1.59138 0
M  V30 6605 C 610.033 -3.54054 0.683991 0
M  V30 6606 O 609.137 -4.11498 -0.272654 0
M  V30 6607 H 608.478 -0.632786 0.201191 0
M  V30 6608 H 611.008 -1.66776 1.18519 0
M  V30 6609 H 611.018 -4.03845 0.580798 0
M  V30 6610 H 609.693 -3.79271 1.70665 0
M  V30 6611 H 608.27 -3.72695 -0.12364 0
M  V30 6612 N 610.455 -0.639598 -1.44038 0
M  V30 6613 C 611.703 -0.147188 -2.01563 0
M  V30 6614 C 612.024 1.2384 -1.50628 0
M  V30 6615 O 611.294 1.82452 -0.713316 0
M  V30 6616 H 609.874 -0.0514231 -0.745228 0
M  V30 6617 H 612.536 -0.828205 -1.76428 0
M  V30 6618 H 611.632 -0.121358 -3.11864 0
M  V30 6619 N 611.933 1.52934 -0.380664 0
M  V30 6620 C 613.179 2.01765 0.20458 0
M  V30 6621 C 613.512 1.26696 1.47179 0
M  V30 6622 O 612.787 0.364936 1.91046 0
M  V30 6623 C 613.07 3.56869 0.481269 0
M  V30 6624 C 612.923 4.42617 -0.800629 0
M  V30 6625 C 614.242 4.2121 1.27554 0
M  V30 6626 H 611.361 0.733388 0.0728803 0
M  V30 6627 H 614.003 1.83068 -0.50853 0
M  V30 6628 H 612.153 3.72932 1.08875 0
M  V30 6629 H 613.825 4.38323 -1.43773 0
M  V30 6630 H 612.068 4.09977 -1.4178 0
M  V30 6631 H 612.739 5.49134 -0.561791 0
M  V30 6632 H 615.215 4.09072 0.761514 0
M  V30 6633 H 614.091 5.29732 1.43788 0
M  V30 6634 H 614.352 3.78269 2.28833 0
M  V30 6635 N 613.412 0.11024 1.57214 0
M  V30 6636 C 614.36 -0.860586 2.16094 0
M  V30 6637 C 615.354 -1.28156 1.1078 0
M  V30 6638 O 616.56 -1.25433 1.29099 0
M  V30 6639 H 612.935 -0.295606 0.691463 0
M  V30 6640 H 614.906 -0.33942 2.96463 0
M  V30 6641 C 613.655 -2.10421 2.768 0
M  V30 6642 H 612.978 -1.7892 3.5753 0
M  V30 6643 H 614.418 -2.76375 3.21547 0
M  V30 6644 C 612.877 -2.88823 1.73444 0
M  V30 6645 O 613.407 -3.839 1.18251 0
M  V30 6646 N 611.613 -2.52649 1.43586 0
M  V30 6647 H 611.16 -1.754 1.8866 0
M  V30 6648 H 611.118 -3.05403 0.746735 0
M  V30 6649 N 614.89 -1.56749 -0.16351 0
M  V30 6650 C 616.136 -1.82704 -0.880168 0
M  V30 6651 C 616.469 -0.689311 -1.81555 0
M  V30 6652 O 615.744 0.308224 -1.92042 0
M  V30 6653 C 616.027 -3.19084 -1.66905 0
M  V30 6654 C 615.88 -4.43397 -0.756269 0
M  V30 6655 C 617.199 -3.52493 -2.63509 0
M  V30 6656 H 614.318 -0.664608 -0.318535 0
M  V30 6657 H 616.96 -1.89438 -0.146036 0
M  V30 6658 H 615.11 -3.13475 -2.2949 0
M  V30 6659 H 616.782 -4.61079 -0.14269 0
M  V30 6660 H 615.025 -4.33752 -0.0647944 0
M  V30 6661 H 615.696 -5.3539 -1.34393 0
M  V30 6662 H 618.172 -3.58606 -2.11047 0
M  V30 6663 H 617.048 -4.48979 -3.15767 0
M  V30 6664 H 617.309 -2.77597 -3.44082 0
M  V30 6665 N 616.368 0.432326 -1.51554 0
M  V30 6666 C 617.278 1.55023 -1.76082 0
M  V30 6667 C 618.294 1.61593 -0.645265 0
M  V30 6668 O 619.47 1.78742 -0.928086 0
M  V30 6669 C 616.535 2.90964 -1.88523 0
M  V30 6670 C 615.596 2.9447 -3.12388 0
M  V30 6671 C 614.829 4.23926 -3.24225 0
M  V30 6672 O 615.052 5.16576 -2.4188 0
M  V30 6673 O 613.986 4.33818 -4.17235 0
M  V30 6674 H 617.812 1.37238 -2.70923 0
M  V30 6675 H 615.397 0.615845 -1.36117 0
M  V30 6676 H 617.279 3.71633 -1.98662 0
M  V30 6677 H 615.954 3.08865 -0.9687 0
M  V30 6678 H 614.861 2.12737 -3.07723 0
M  V30 6679 H 616.194 2.81514 -4.03746 0
M  V30 6680 N 617.846 1.41785 0.688094 0
M  V30 6681 C 619.094 1.41264 1.4453 0
M  V30 6682 C 619.415 0.0252946 1.94984 0
M  V30 6683 O 618.685 -0.934081 1.72197 0
M  V30 6684 H 617.265 0.519998 0.536294 0
M  V30 6685 H 619.927 1.7709 0.813941 0
M  V30 6686 H 619.023 2.10439 2.30482 0
M  V30 6687 N 619.324 -0.923095 1.27737 0
M  V30 6688 C 620.287 -2.00587 1.10894 0
M  V30 6689 C 621.287 -1.60718 0.0514927 0
M  V30 6690 O 622.477 -1.71658 0.296481 0
M  V30 6691 C 619.609 -3.33829 0.690717 0
M  V30 6692 H 620.802 -2.16959 2.07048 0
M  V30 6693 H 618.355 -1.10451 1.1059 0
M  V30 6694 H 619.09 -3.23157 -0.272 0
M  V30 6695 H 618.875 -3.64125 1.45448 0
M  V30 6696 H 620.365 -4.13336 0.595252 0
M  V30 6697 N 620.802 -1.09834 -1.13024 0
M  V30 6698 C 621.712 -0.753731 -2.22162 0
M  V30 6699 C 622.728 0.246105 -1.72251 0
M  V30 6700 O 623.904 0.0864051 -2.01215 0
M  V30 6701 C 620.969 -0.183958 -3.46212 0
M  V30 6702 C 620.03 -1.24028 -4.10993 0
M  V30 6703 C 619.263 -0.697597 -5.29121 0
M  V30 6704 O 619.486 0.478092 -5.68393 0
M  V30 6705 O 618.42 -1.4546 -5.84059 0
M  V30 6706 H 622.246 -1.66456 -2.5402 0
M  V30 6707 H 619.831 -0.873026 -1.21238 0
M  V30 6708 H 621.713 0.130257 -4.21199 0
M  V30 6709 H 620.388 0.699823 -3.16045 0
M  V30 6710 H 619.295 -1.60725 -3.37814 0
M  V30 6711 H 620.628 -2.09685 -4.45301 0
M  V30 6712 N 622.28 1.30327 -0.886154 0
M  V30 6713 C 623.526 1.96388 -0.505941 0
M  V30 6714 C 623.859 1.69784 0.942712 0
M  V30 6715 O 623.134 1.00322 1.6663 0
M  V30 6716 C 623.417 3.51488 -0.782826 0
M  V30 6717 C 623.27 3.87603 -2.28219 0
M  V30 6718 C 624.589 4.39331 -0.260128 0
M  V30 6719 H 621.708 0.713327 -0.185292 0
M  V30 6720 H 624.35 1.54178 -1.11036 0
M  V30 6721 H 622.5 3.87572 -0.268399 0
M  V30 6722 H 624.172 3.61537 -2.86512 0
M  V30 6723 H 622.415 3.3563 -2.74837 0
M  V30 6724 H 623.086 4.95806 -2.42653 0
M  V30 6725 H 625.562 4.10162 -0.700444 0
M  V30 6726 H 624.438 5.46769 -0.483179 0
M  V30 6727 H 624.699 4.34072 0.838674 0
M  V30 6728 N 623.758 0.647228 1.43697 0
M  V30 6729 C 624.708 -0.0702191 2.27892 0
M  V30 6730 C 625.692 -0.800601 1.39568 0
M  V30 6731 O 626.884 -0.684055 1.63247 0
M  V30 6732 C 624.013 -1.04008 3.27165 0
M  V30 6733 C 623.099 -0.308484 4.22977 0
M  V30 6734 N 623.49 0.671721 5.0132 0
M  V30 6735 C 621.788 -0.550751 4.42586 0
M  V30 6736 C 622.489 1.10543 5.711 0
M  V30 6737 N 621.465 0.440903 5.41809 0
M  V30 6738 H 625.267 0.682031 2.85877 0
M  V30 6739 H 622.781 0.474022 1.55328 0
M  V30 6740 H 624.778 -1.56881 3.86256 0
M  V30 6741 H 623.438 -1.79246 2.70742 0
M  V30 6742 H 624.449 1.0502 5.0714 0
M  V30 6743 H 621.126 -1.28476 3.97241 0
M  V30 6744 H 622.516 1.91614 6.43998 0
M  V30 6745 N 625.236 -1.5273 0.388769 0
M  V30 6746 C 626.484 -2.01174 -0.193208 0
M  V30 6747 C 626.805 -1.27705 -1.47365 0
M  V30 6748 O 626.075 -0.396966 -1.91836 0
M  V30 6749 H 624.655 -0.743287 -0.0743871 0
M  V30 6750 H 627.317 -1.87826 0.520336 0
M  V30 6751 H 626.413 -3.09477 -0.403803 0
M  V30 6752 N 626.714 -0.118576 -1.57153 0
M  V30 6753 C 627.961 0.539526 -1.9518 0
M  V30 6754 C 628.289 1.66714 -1.00184 0
M  V30 6755 O 627.544 1.95683 -0.0256482 0
M  V30 6756 C 627.843 1.11303 -3.39627 0
M  V30 6757 C 627.509 0.106809 -4.50773 0
M  V30 6758 C 626.171 -0.169876 -4.809 0
M  V30 6759 C 628.523 -0.57895 -5.17975 0
M  V30 6760 C 625.851 -1.13861 -5.75545 0
M  V30 6761 C 628.203 -1.53631 -6.13661 0
M  V30 6762 C 626.867 -1.82099 -6.42181 0
M  V30 6763 H 626.137 0.197427 -0.714215 0
M  V30 6764 H 628.784 -0.199391 -1.90459 0
M  V30 6765 H 627.089 1.92869 -3.4104 0
M  V30 6766 H 628.786 1.63032 -3.66363 0
M  V30 6767 H 625.376 0.332645 -4.27307 0
M  V30 6768 H 629.56 -0.378359 -4.94856 0
M  V30 6769 H 624.816 -1.36592 -5.95947 0
M  V30 6770 H 628.99 -2.07337 -6.64819 0
M  V30 6771 H 626.617 -2.57319 -7.15326 0
M  V30 6772 N 628.193 1.56834 0.155195 0
M  V30 6773 C 629.418 1.87412 0.888337 0
M  V30 6774 C 629.843 0.70671 1.74319 0
M  V30 6775 O 629.201 -0.343892 1.78009 0
M  V30 6776 C 629.249 3.1652 1.72765 0
M  V30 6777 O 628.353 2.99877 2.83103 0
M  V30 6778 H 627.694 0.615983 0.247914 0
M  V30 6779 H 630.224 2.04061 0.148478 0
M  V30 6780 H 630.234 3.48334 2.12433 0
M  V30 6781 H 628.909 4.01094 1.09985 0
M  V30 6782 H 627.486 2.79453 2.46902 0
M  V30 6783 N 629.671 -0.424282 1.51781 0
M  V30 6784 C 630.604 -1.53633 1.68737 0
M  V30 6785 C 631.582 -1.53549 0.534915 0
M  V30 6786 O 632.766 -1.72483 0.760391 0
M  V30 6787 C 629.893 -2.92195 1.71288 0
M  V30 6788 C 628.939 -3.10251 2.92654 0
M  V30 6789 S 629.772 -2.85166 4.53256 0
M  V30 6790 C 630.928 -4.25986 4.58571 0
M  V30 6791 H 631.161 -1.39018 2.62795 0
M  V30 6792 H 628.694 -0.614854 1.41629 0
M  V30 6793 H 630.652 -3.72059 1.73443 0
M  V30 6794 H 629.313 -3.04162 0.783847 0
M  V30 6795 H 628.506 -4.1159 2.90877 0
M  V30 6796 H 628.108 -2.38231 2.88308 0
M  V30 6797 H 630.4 -5.19392 4.35015 0
M  V30 6798 H 631.343 -4.32792 5.60444 0
M  V30 6799 H 631.751 -4.1025 3.87757 0
M  V30 6800 N 631.149 -1.42148 -0.680565 0
M  V30 6801 C 632.397 -1.42029 -1.43779 0
M  V30 6802 C 632.718 -0.0356347 -1.94967 0
M  V30 6803 O 631.988 0.924936 -1.7269 0
M  V30 6804 H 630.568 -0.522835 -0.533529 0
M  V30 6805 H 633.23 -1.7752 -0.804538 0
M  V30 6806 H 632.326 -2.11658 -2.29363 0
M  V30 6807 N 632.627 0.916307 -1.28225 0
M  V30 6808 C 633.574 2.01841 -1.11932 0
M  V30 6809 C 634.544 1.66091 -0.0171604 0
M  V30 6810 O 635.729 1.89934 -0.181617 0
M  V30 6811 C 632.869 3.36065 -0.784504 0
M  V30 6812 C 631.982 3.847 -1.96544 0
M  V30 6813 C 631.117 5.07423 -1.57149 0
M  V30 6814 C 630.156 5.48384 -2.71922 0
M  V30 6815 N 629.293 6.62298 -2.33037 0
M  V30 6816 H 634.133 2.1511 -2.06232 0
M  V30 6817 H 631.67 1.05366 -1.02647 0
M  V30 6818 H 633.628 4.13272 -0.571148 0
M  V30 6819 H 632.258 3.22571 0.121565 0
M  V30 6820 H 631.31 3.03673 -2.291 0
M  V30 6821 H 632.622 4.1102 -2.82603 0
M  V30 6822 H 631.776 5.92165 -1.32004 0
M  V30 6823 H 630.515 4.82906 -0.682153 0
M  V30 6824 H 629.52 4.62184 -2.97768 0
M  V30 6825 H 630.745 5.7489 -3.61494 0
M  V30 6826 H 628.691 6.39416 -1.4657 0
M  V30 6827 H 628.608 6.8833 -3.12631 0
M  V30 6828 H 629.876 7.50352 -2.11169 0
M  V30 6829 N 634.105 1.10431 1.1244 0
M  V30 6830 C 635.052 0.753103 2.18167 0
M  V30 6831 C 636.022 -0.270549 1.63882 0
M  V30 6832 O 637.207 -0.149837 1.90211 0
M  V30 6833 C 634.347 0.191046 3.44571 0
M  V30 6834 C 633.46 1.26999 4.12911 0
M  V30 6835 C 632.595 0.669586 5.26963 0
M  V30 6836 C 631.634 1.72912 5.87169 0
M  V30 6837 N 630.771 1.14898 6.92635 0
M  V30 6838 H 635.611 1.65892 2.47556 0
M  V30 6839 H 633.148 0.828631 1.21541 0
M  V30 6840 H 635.106 -0.152712 4.1692 0
M  V30 6841 H 633.736 -0.677997 3.15599 0
M  V30 6842 H 632.788 1.73087 3.3874 0
M  V30 6843 H 634.1 2.07204 4.53727 0
M  V30 6844 H 633.254 0.275274 6.06075 0
M  V30 6845 H 631.993 -0.163895 4.87425 0
M  V30 6846 H 630.998 2.13286 5.06744 0
M  V30 6847 H 632.223 2.56544 6.28778 0
M  V30 6848 H 630.169 0.336956 6.55134 0
M  V30 6849 H 630.086 1.88786 7.32049 0
M  V30 6850 H 631.354 0.78121 7.75576 0
M  V30 6851 N 635.583 -1.29855 0.893053 0
M  V30 6852 C 636.513 -2.3035 0.382249 0
M  V30 6853 C 637.494 -1.61328 -0.539203 0
M  V30 6854 O 638.679 -1.88882 -0.451342 0
M  V30 6855 C 635.809 -3.45024 -0.396983 0
M  V30 6856 C 634.763 -4.258 0.433437 0
M  V30 6857 C 634.089 -5.32605 -0.472889 0
M  V30 6858 C 635.389 -4.94549 1.67984 0
M  V30 6859 H 637.083 -2.73325 1.22205 0
M  V30 6860 H 634.629 -1.314 0.589073 0
M  V30 6861 H 636.582 -4.14398 -0.765024 0
M  V30 6862 H 635.306 -3.00875 -1.2705 0
M  V30 6863 H 633.965 -3.58125 0.783723 0
M  V30 6864 H 633.613 -4.84702 -1.34435 0
M  V30 6865 H 633.313 -5.87547 0.0789958 0
M  V30 6866 H 634.837 -6.04832 -0.837269 0
M  V30 6867 H 636.251 -5.56395 1.38192 0
M  V30 6868 H 634.648 -5.59393 2.17254 0
M  V30 6869 H 635.718 -4.20215 2.41965 0
M  V30 6870 N 637.061 -0.65484 -1.43351 0
M  V30 6871 C 638.286 -0.175046 -2.0666 0
M  V30 6872 C 638.711 1.15104 -1.4877 0
M  V30 6873 O 638.069 1.71144 -0.598279 0
M  V30 6874 C 638.117 -0.0991544 -3.60464 0
M  V30 6875 O 637.221 0.938169 -4.01587 0
M  V30 6876 H 636.562 -0.0956148 -0.65708 0
M  V30 6877 H 639.092 -0.898222 -1.83829 0
M  V30 6878 H 639.102 0.083632 -4.07914 0
M  V30 6879 H 637.777 -1.06719 -4.01975 0
M  V30 6880 H 636.354 0.72804 -3.65724 0
M  V30 6881 N 638.539 1.52521 -0.396863 0
M  V30 6882 C 639.95 1.86547 0.0754868 0
M  V30 6883 C 640.301 1.31621 1.45501 0
M  V30 6884 O 639.426 0.650563 2.0639 0
M  V30 6885 C 640.021 3.38495 0.143754 0
M  V30 6886 C 638.58 3.72205 0.560413 0
M  V30 6887 C 637.727 2.75954 -0.272856 0
M  V30 6888 H 640.678 1.46323 -0.614434 0
M  V30 6889 H 640.699 3.68153 0.961425 0
M  V30 6890 H 640.211 3.78442 -0.860415 0
M  V30 6891 H 638.312 3.3783 1.57167 0
M  V30 6892 H 638.425 4.78074 0.313314 0
M  V30 6893 H 636.789 2.53339 0.263 0
M  V30 6894 H 637.572 3.1874 -1.27515 0
M  V30 6895 N 640.017 0.126909 1.57088 0
M  V30 6896 C 640.964 -0.82036 2.15728 0
M  V30 6897 C 641.934 -1.25811 1.08447 0
M  V30 6898 O 643.119 -1.33422 1.36393 0
M  V30 6899 C 640.259 -2.06199 2.76724 0
M  V30 6900 C 639.372 -1.67188 3.98337 0
M  V30 6901 C 638.507 -2.86378 4.47393 0
M  V30 6902 C 637.546 -2.43644 5.61519 0
M  V30 6903 N 636.683 -3.55775 6.05284 0
M  V30 6904 H 641.523 -0.313472 2.96347 0
M  V30 6905 H 639.06 -0.14303 1.46403 0
M  V30 6906 H 641.018 -2.78959 3.10222 0
M  V30 6907 H 639.648 -2.54333 1.98782 0
M  V30 6908 H 638.7 -0.842714 3.70948 0
M  V30 6909 H 640.012 -1.31789 4.81075 0
M  V30 6910 H 639.166 -3.67353 4.82842 0
M  V30 6911 H 637.905 -3.25009 3.63621 0
M  V30 6912 H 636.91 -1.61104 5.25667 0
M  V30 6913 H 638.135 -2.06122 6.47063 0
M  V30 6914 H 636.081 -3.94065 5.24451 0
M  V30 6915 H 635.998 -3.24325 6.82898 0
M  V30 6916 H 637.266 -4.37166 6.45373 0
M  V30 6917 N 641.495 -1.56914 -0.146875 0
M  V30 6918 C 642.744 -1.82546 -0.857898 0
M  V30 6919 C 643.057 -0.708169 -1.8233 0
M  V30 6920 O 644.263 -0.850093 -2.57848 0
M  V30 6921 C 642.719 -3.23548 -1.57623 0
M  V30 6922 C 642.327 -4.43212 -0.653224 0
M  V30 6923 C 644.071 -3.58453 -2.27402 0
M  V30 6924 C 641.978 -5.75237 -1.37318 0
M  V30 6925 H 640.908 -0.680786 -0.32411 0
M  V30 6926 H 643.559 -1.83166 -0.110639 0
M  V30 6927 H 641.941 -3.17315 -2.36912 0
M  V30 6928 H 643.115 -4.60682 0.104452 0
M  V30 6929 H 641.43 -4.16351 -0.0638336 0
M  V30 6930 H 644.027 -4.54349 -2.81907 0
M  V30 6931 H 644.37 -2.84516 -3.03901 0
M  V30 6932 H 644.903 -3.66347 -1.55032 0
M  V30 6933 H 641.642 -6.52269 -0.650041 0
M  V30 6934 H 641.162 -5.61703 -2.10357 0
M  V30 6935 H 642.841 -6.18039 -1.91406 0
M  V30 6936 N 642.974 0.416227 -1.52004 0
M  V30 6937 C 644.251 1.17637 -1.56272 0
M  V30 6938 C 644.631 2.08352 -0.339493 0
M  V30 6939 O 643.979 2.1833 0.674124 0
M  V30 6940 C 644.189 1.95986 -2.88774 0
M  V30 6941 C 645.537 2.52299 -3.41512 0
M  V30 6942 O 646.561 2.06174 -2.90467 0
M  V30 6943 O 645.42 3.3648 -4.30631 0
M  V30 6944 H 642.514 0.536726 -0.629169 0
M  V30 6945 H 645.06 0.423583 -1.64329 0
M  V30 6946 H 643.832 1.29487 -3.69254 0
M  V30 6947 H 643.455 2.78285 -2.83978 0
M  V30 6948 N 644.452 1.42507 0.673017 0
M  V30 6949 C 645.868 1.25472 0.986355 0
M  V30 6950 C 646.068 0.160181 2.00862 0
M  V30 6951 O 645.124 -0.467993 2.48125 0
M  V30 6952 C 646.437 2.61219 1.48947 0
M  V30 6953 C 647.985 2.68589 1.60715 0
M  V30 6954 C 648.46 4.04707 2.14422 0
M  V30 6955 N 649.951 4.0667 2.21752 0
M  V30 6956 C 650.686 5.0881 2.64386 0
M  V30 6957 N 650.182 6.21332 3.0646 0
M  V30 6958 N 651.975 4.96166 2.64151 0
M  V30 6959 H 644.126 2.124 -0.00378532 0
M  V30 6960 H 646.389 0.946046 0.0608367 0
M  V30 6961 H 646.095 3.42179 0.812812 0
M  V30 6962 H 645.969 2.85261 2.46791 0
M  V30 6963 H 648.356 1.87974 2.27486 0
M  V30 6964 H 648.437 2.48333 0.613552 0
M  V30 6965 H 648.081 4.8578 1.48258 0
M  V30 6966 H 648.011 4.22315 3.14575 0
M  V30 6967 H 650.502 3.25438 1.92089 0
M  V30 6968 H 650.815 6.95118 3.37684 0
M  V30 6969 H 649.16 6.24835 3.04313 0
M  V30 6970 H 652.351 4.07334 2.30644 0
M  V30 6971 H 652.524 5.759 2.97057 0
M  V30 6972 N 645.93 -0.909495 1.28709 0
M  V30 6973 C 647.207 -1.63865 1.06806 0
M  V30 6974 C 647.587 -2.07445 -0.391143 0
M  V30 6975 O 646.935 -1.82269 -1.37805 0
M  V30 6976 C 647.145 -2.82692 2.04661 0
M  V30 6977 C 648.493 -3.5361 2.35042 0
M  V30 6978 O 649.517 -2.92847 2.02779 0
M  V30 6979 O 648.376 -4.63131 2.90124 0
M  V30 6980 H 645.47 -0.719065 0.408502 0
M  V30 6981 H 648.016 -0.958424 1.40044 0
M  V30 6982 H 646.788 -2.47614 3.0299 0
M  V30 6983 H 646.411 -3.58426 1.72095 0
M  V30 6984 N 647.408 -1.11026 -1.11852 0
M  V30 6985 C 648.338 -0.786812 -2.19844 0
M  V30 6986 C 649.319 0.242935 -1.68356 0
M  V30 6987 O 650.504 0.107355 -1.93903 0
M  V30 6988 C 647.634 -0.224516 -3.46574 0
M  V30 6989 C 646.588 -1.18564 -4.1125 0
M  V30 6990 C 645.914 -0.484261 -5.32503 0
M  V30 6991 C 647.214 -2.53465 -4.56676 0
M  V30 6992 H 648.908 -1.68978 -2.47158 0
M  V30 6993 H 646.454 -0.813906 -1.18792 0
M  V30 6994 H 648.407 0.0139435 -4.21398 0
M  V30 6995 H 647.131 0.713722 -3.18706 0
M  V30 6996 H 645.79 -1.40966 -3.38414 0
M  V30 6997 H 645.438 0.458646 -5.00905 0
M  V30 6998 H 645.138 -1.12526 -5.76725 0
M  V30 6999 H 646.662 -0.254492 -6.10069 0
M  V30 7000 H 648.076 -2.35177 -5.22843 0
M  V30 7001 H 646.473 -3.13507 -5.11697 0
M  V30 7002 H 647.543 -3.13008 -3.70343 0
M  V30 7003 N 648.886 1.2938 -0.899927 0
M  V30 7004 C 650.302 1.48052 -0.596059 0
M  V30 7005 C 650.502 1.82114 0.862372 0
M  V30 7006 O 649.558 1.91774 1.64253 0
M  V30 7007 C 650.871 2.59332 -1.52208 0
M  V30 7008 C 652.419 2.73208 -1.5273 0
M  V30 7009 C 652.894 3.87617 -2.43961 0
M  V30 7010 N 654.385 3.9495 -2.42009 0
M  V30 7011 C 655.12 4.82824 -3.09303 0
M  V30 7012 N 654.616 5.75387 -3.85877 0
M  V30 7013 N 656.409 4.76317 -2.98459 0
M  V30 7014 H 648.56 1.05546 -1.8432 0
M  V30 7015 H 650.823 0.524314 -0.78981 0
M  V30 7016 H 650.529 2.41029 -2.56121 0
M  V30 7017 H 650.403 3.56139 -1.24278 0
M  V30 7018 H 652.79 2.90908 -0.495614 0
M  V30 7019 H 652.871 1.76975 -1.84698 0
M  V30 7020 H 652.515 3.70672 -3.47224 0
M  V30 7021 H 652.445 4.83218 -2.09303 0
M  V30 7022 H 654.936 3.28744 -1.86375 0
M  V30 7023 H 655.249 6.39235 -4.34279 0
M  V30 7024 H 653.594 5.75272 -3.89984 0
M  V30 7025 H 656.785 4.0299 -2.38152 0
M  V30 7026 H 656.958 5.44589 -3.51179 0
M  V30 7027 N 650.364 0.662433 1.43002 0
M  V30 7028 C 651.274 -0.0239199 2.34588 0
M  V30 7029 C 652.29 -0.802255 1.54402 0
M  V30 7030 O 653.466 -0.747401 1.87018 0
M  V30 7031 C 650.531 -0.972098 3.32793 0
M  V30 7032 C 649.592 -0.189673 4.28881 0
M  V30 7033 C 648.825 -1.09269 5.22395 0
M  V30 7034 O 649.048 -2.33209 5.20547 0
M  V30 7035 O 647.982 -0.560136 5.99288 0
M  V30 7036 H 651.808 0.730171 2.94792 0
M  V30 7037 H 649.393 0.422635 1.43297 0
M  V30 7038 H 651.275 -1.51676 3.93157 0
M  V30 7039 H 649.95 -1.70626 2.75079 0
M  V30 7040 H 648.857 0.398794 3.71968 0
M  V30 7041 H 650.19 0.50511 4.89601 0
M  V30 7042 N 651.842 -1.52309 0.404946 0
M  V30 7043 C 653.09 -2.01368 -0.17186 0
M  V30 7044 C 653.411 -1.29261 -1.46002 0
M  V30 7045 O 652.681 -0.41729 -1.91404 0
M  V30 7046 H 651.261 -0.744034 -0.0664993 0
M  V30 7047 H 653.923 -1.87263 0.540228 0
M  V30 7048 H 653.019 -3.09888 -0.370957 0
M  V30 7049 N 653.32 -0.135238 -1.57019 0
M  V30 7050 C 654.568 0.51777 -1.95355 0
M  V30 7051 C 654.889 1.6617 -1.02042 0
M  V30 7052 O 654.159 1.95738 -0.0797343 0
M  V30 7053 H 652.739 0.194264 -0.721298 0
M  V30 7054 H 655.401 -0.207983 -1.93787 0
M  V30 7055 H 654.497 0.901675 -2.98791 0
M  V30 7056 N 654.798 1.5699 0.138552 0
M  V30 7057 C 656.209 1.73171 0.697754 0
M  V30 7058 C 656.56 0.750952 1.8126 0
M  V30 7059 O 655.685 -0.080549 2.1625 0
M  V30 7060 C 656.28 3.13996 1.27248 0
M  V30 7061 C 654.839 3.3175 1.77816 0
M  V30 7062 C 653.986 2.69084 0.669991 0
M  V30 7063 H 656.937 1.5846 -0.0871979 0
M  V30 7064 H 656.958 3.14463 2.14227 0
M  V30 7065 H 656.47 3.85354 0.460855 0
M  V30 7066 H 654.571 2.65403 2.61519 0
M  V30 7067 H 654.684 4.39768 1.90107 0
M  V30 7068 H 653.048 2.29782 1.09874 0
M  V30 7069 H 653.831 3.43053 -0.130329 0
M  V30 7070 N 656.276 -0.40816 1.52223 0
M  V30 7071 C 657.206 -1.5042 1.78595 0
M  V30 7072 C 658.187 -1.57723 0.636974 0
M  V30 7073 O 659.372 -1.72982 0.882664 0
M  V30 7074 C 656.502 -2.88232 1.93751 0
M  V30 7075 C 655.456 -2.95779 3.09352 0
M  V30 7076 C 654.782 -4.35855 3.09732 0
M  V30 7077 C 656.082 -2.67175 4.48793 0
M  V30 7078 H 657.776 -1.28601 2.70374 0
M  V30 7079 H 655.322 -0.617221 1.30101 0
M  V30 7080 H 657.275 -3.64895 2.10783 0
M  V30 7081 H 655.999 -3.11347 0.986443 0
M  V30 7082 H 654.658 -2.21561 2.92072 0
M  V30 7083 H 654.306 -4.55981 2.12346 0
M  V30 7084 H 654.006 -4.41829 3.87377 0
M  V30 7085 H 655.53 -5.14451 3.28895 0
M  V30 7086 H 656.944 -3.3356 4.66273 0
M  V30 7087 H 655.341 -2.84523 5.28362 0
M  V30 7088 H 656.411 -1.62609 4.56822 0
M  V30 7089 N 657.755 -1.42862 -0.66545 0
M  V30 7090 C 658.685 -1.49867 -1.79059 0
M  V30 7091 C 659.666 -0.354394 -1.66367 0
M  V30 7092 O 660.851 -0.569969 -1.85647 0
M  V30 7093 C 657.981 -1.40943 -3.17415 0
M  V30 7094 C 656.935 -2.53495 -3.44854 0
M  V30 7095 C 656.261 -2.29626 -4.82883 0
M  V30 7096 C 657.561 -3.95781 -3.40815 0
M  V30 7097 H 659.255 -2.44037 -1.73453 0
M  V30 7098 H 656.801 -1.17456 -0.833071 0
M  V30 7099 H 658.754 -1.4445 -3.95869 0
M  V30 7100 H 657.478 -0.432716 -3.23721 0
M  V30 7101 H 656.137 -2.4932 -2.68766 0
M  V30 7102 H 655.785 -1.30226 -4.8585 0
M  V30 7103 H 655.485 -3.05065 -5.02204 0
M  V30 7104 H 657.009 -2.34897 -5.63609 0
M  V30 7105 H 658.423 -4.01508 -4.09224 0
M  V30 7106 H 656.82 -4.71148 -3.71672 0
M  V30 7107 H 657.89 -4.21786 -2.39216 0
M  V30 7108 N 659.233 0.902656 -1.29189 0
M  V30 7109 C 660.463 1.68394 -1.19695 0
M  V30 7110 C 660.871 1.87602 0.245384 0
M  V30 7111 O 660.214 1.41084 1.17648 0
M  V30 7112 C 660.276 3.09094 -1.83578 0
M  V30 7113 C 659.94 3.1313 -3.32864 0
M  V30 7114 C 660.937 2.93497 -4.29134 0
M  V30 7115 C 658.622 3.3529 -3.74013 0
M  V30 7116 C 660.616 2.95953 -5.64527 0
M  V30 7117 C 658.303 3.37377 -5.09529 0
M  V30 7118 C 659.301 3.1773 -6.04596 0
M  V30 7119 O 658.989 3.196 -7.37639 0
M  V30 7120 H 658.721 0.532815 -0.416034 0
M  V30 7121 H 661.275 1.1374 -1.71033 0
M  V30 7122 H 659.505 3.65338 -1.26747 0
M  V30 7123 H 661.194 3.69297 -1.68447 0
M  V30 7124 H 661.96 2.76192 -3.98677 0
M  V30 7125 H 657.839 3.49623 -3.00474 0
M  V30 7126 H 661.383 2.80536 -6.38706 0
M  V30 7127 H 657.28 3.54213 -5.39633 0
M  V30 7128 H 658.048 3.35887 -7.46406 0
M  V30 7129 N 660.711 1.11618 1.11262 0
M  V30 7130 C 661.621 0.78898 2.20935 0
M  V30 7131 C 662.637 -0.21867 1.7262 0
M  V30 7132 O 663.813 -0.0543826 2.01327 0
M  V30 7133 C 660.878 0.239014 3.45875 0
M  V30 7134 C 659.939 1.3055 4.08968 0
M  V30 7135 C 659.172 0.781687 5.27944 0
M  V30 7136 O 659.395 -0.387605 5.69082 0
M  V30 7137 O 658.329 1.54734 5.81671 0
M  V30 7138 H 662.155 1.70477 2.51339 0
M  V30 7139 H 659.74 0.892203 1.19834 0
M  V30 7140 H 661.622 -0.0632312 4.21353 0
M  V30 7141 H 660.297 -0.649454 3.17118 0
M  V30 7142 H 659.204 1.66079 3.35214 0
M  V30 7143 H 660.537 2.16743 4.41909 0
M  V30 7144 N 662.189 -1.289 0.906776 0
M  V30 7145 C 663.137 -2.29477 0.379873 0
M  V30 7146 C 664.131 -1.61068 -0.524747 0
M  V30 7147 O 665.337 -1.75344 -0.406765 0
M  V30 7148 H 661.712 -0.744742 0.10423 0
M  V30 7149 H 663.683 -2.71353 1.24137 0
M  V30 7150 C 662.432 -3.45713 -0.371154 0
M  V30 7151 H 661.755 -3.98551 0.315716 0
M  V30 7152 H 663.195 -4.18105 -0.704581 0
M  V30 7153 C 661.654 -2.9774 -1.57646 0
M  V30 7154 O 662.184 -2.99618 -2.67567 0
M  V30 7155 N 660.39 -2.53485 -1.42105 0
M  V30 7156 H 659.937 -2.52156 -0.526783 0
M  V30 7157 H 659.895 -2.21747 -2.22881 0
M  V30 7158 N 663.667 -0.670007 -1.42649 0
M  V30 7159 C 664.916 -0.187526 -2.00826 0
M  V30 7160 C 665.229 1.21142 -1.53571 0
M  V30 7161 O 666.435 1.79001 -2.04134 0
M  V30 7162 C 664.891 -0.284409 -3.58774 0
M  V30 7163 C 664.499 -1.6871 -4.15019 0
M  V30 7164 C 666.243 0.139605 -4.2427 0
M  V30 7165 C 664.15 -1.73701 -5.65316 0
M  V30 7166 H 663.08 -0.0663468 -0.751075 0
M  V30 7167 H 665.731 -0.834492 -1.63427 0
M  V30 7168 H 664.113 0.430364 -3.93655 0
M  V30 7169 H 665.287 -2.42857 -3.91608 0
M  V30 7170 H 663.602 -2.05855 -3.61957 0
M  V30 7171 H 666.199 0.122398 -5.3456 0
M  V30 7172 H 666.542 1.17403 -3.99402 0
M  V30 7173 H 667.075 -0.523995 -3.94334 0
M  V30 7174 H 663.814 -2.75109 -5.94975 0
M  V30 7175 H 663.334 -1.03903 -5.90732 0
M  V30 7176 H 665.013 -1.48829 -6.2965 0
M  V30 7177 N 665.145 1.52092 -0.413018 0
M  V30 7178 C 666.373 2.06274 0.160881 0
M  V30 7179 C 666.788 1.28273 1.38533 0
M  V30 7180 O 666.145 0.33563 1.79387 0
M  V30 7181 C 666.196 3.57921 0.507443 0
M  V30 7182 O 665.917 4.32971 -0.668388 0
M  V30 7183 C 667.418 4.28533 1.13465 0
M  V30 7184 H 664.638 0.67074 0.0186759 0
M  V30 7185 H 667.182 1.95951 -0.585092 0
M  V30 7186 H 665.337 3.68238 1.20331 0
M  V30 7187 H 665.751 5.23135 -0.378169 0
M  V30 7188 H 667.225 5.35804 1.32732 0
M  V30 7189 H 667.702 3.85258 2.10886 0
M  V30 7190 H 668.308 4.22595 0.478876 0
M  V30 7191 N 666.623 0.143563 1.56945 0
M  V30 7192 C 667.87 -0.508407 1.96014 0
M  V30 7193 C 668.198 -1.65099 1.02824 0
M  V30 7194 O 667.453 -1.95618 0.0567764 0
M  V30 7195 C 667.752 -1.05885 3.41355 0
M  V30 7196 C 667.418 -0.0350809 4.50886 0
M  V30 7197 C 666.08 0.246362 4.80569 0
M  V30 7198 C 668.432 0.661282 5.16988 0
M  V30 7199 C 665.76 1.23003 5.73661 0
M  V30 7200 C 668.112 1.63375 6.11139 0
M  V30 7201 C 666.776 1.92292 6.39203 0
M  V30 7202 H 666.046 -0.186039 0.717266 0
M  V30 7203 H 668.693 0.229667 1.90118 0
M  V30 7204 H 666.998 -1.87419 3.44066 0
M  V30 7205 H 668.695 -1.57183 3.6891 0
M  V30 7206 H 665.285 -0.264622 4.27782 0
M  V30 7207 H 669.469 0.457038 4.94191 0
M  V30 7208 H 664.725 1.46056 5.93698 0
M  V30 7209 H 668.899 2.17887 6.61436 0
M  V30 7210 H 666.526 2.68666 7.11142 0
M  V30 7211 N 668.101 -1.57061 -0.130224 0
M  V30 7212 C 669.347 -1.8453 -0.841216 0
M  V30 7213 C 669.68 -0.727666 -1.80052 0
M  V30 7214 O 668.955 0.267419 -1.92653 0
M  V30 7215 C 669.238 -3.22553 -1.60099 0
M  V30 7216 C 669.091 -4.44901 -0.662048 0
M  V30 7217 C 670.41 -3.58003 -2.55973 0
M  V30 7218 H 667.529 -0.671215 -0.304366 0
M  V30 7219 H 670.171 -1.89705 -0.105821 0
M  V30 7220 H 668.321 -3.18272 -2.22789 0
M  V30 7221 H 669.993 -4.61278 -0.0448559 0
M  V30 7222 H 668.236 -4.33791 0.0272253 0
M  V30 7223 H 668.907 -5.3812 -1.23006 0
M  V30 7224 H 671.383 -3.63002 -2.03393 0
M  V30 7225 H 670.259 -4.55576 -3.06172 0
M  V30 7226 H 670.52 -2.84833 -3.38116 0
M  V30 7227 N 669.579 0.400081 -1.52437 0
M  V30 7228 C 670.809 1.16598 -1.70553 0
M  V30 7229 C 671.217 1.8451 -0.418665 0
M  V30 7230 O 670.56 1.73069 0.615855 0
M  V30 7231 C 670.622 2.26517 -2.7916 0
M  V30 7232 C 670.286 1.78666 -4.20628 0
M  V30 7233 C 671.283 1.26946 -5.04163 0
M  V30 7234 C 668.968 1.85225 -4.66902 0
M  V30 7235 C 670.962 0.824187 -6.32049 0
M  V30 7236 C 668.649 1.40309 -5.94774 0
M  V30 7237 C 669.647 0.889922 -6.77178 0
M  V30 7238 O 669.335 0.447281 -8.02655 0
M  V30 7239 H 669.067 0.356023 -0.574651 0
M  V30 7240 H 671.621 0.475598 -1.99818 0
M  V30 7241 H 669.851 2.98946 -2.45292 0
M  V30 7242 H 671.54 2.88237 -2.85787 0
M  V30 7243 H 672.306 1.21244 -4.69601 0
M  V30 7244 H 668.185 2.24111 -4.02859 0
M  V30 7245 H 671.729 0.422958 -6.96317 0
M  V30 7246 H 667.626 1.45693 -6.28843 0
M  V30 7247 H 668.394 0.569768 -8.16514 0
M  V30 7248 N 671.057 1.43213 0.657864 0
M  V30 7249 C 672.005 1.48271 1.79216 0
M  V30 7250 C 672.999 0.35675 1.65601 0
M  V30 7251 O 674.205 0.530535 1.72004 0
M  V30 7252 H 670.58 0.464729 0.591211 0
M  V30 7253 H 672.551 2.43792 1.7207 0
M  V30 7254 C 671.3 1.41837 3.17455 0
M  V30 7255 H 670.623 2.27781 3.28567 0
M  V30 7256 H 672.063 1.49438 3.96793 0
M  V30 7257 C 670.522 0.135347 3.36628 0
M  V30 7258 O 671.052 -0.805199 3.93547 0
M  V30 7259 N 669.258 0.0470316 2.90562 0
M  V30 7260 H 668.805 0.813221 2.44427 0
M  V30 7261 H 668.763 -0.810737 3.03767 0
M  V30 7262 N 672.536 -0.895792 1.29666 0
M  V30 7263 C 673.761 -1.68528 1.20885 0
M  V30 7264 C 674.186 -1.8673 -0.226595 0
M  V30 7265 O 673.544 -1.39044 -1.16347 0
M  V30 7266 C 673.592 -3.04512 1.93144 0
M  V30 7267 O 672.696 -3.92963 1.25115 0
M  V30 7268 H 672.037 -0.515371 0.418675 0
M  V30 7269 H 674.567 -1.11878 1.71302 0
M  V30 7270 H 674.577 -3.54628 2.0175 0
M  V30 7271 H 673.252 -2.90582 2.97548 0
M  V30 7272 H 671.829 -3.51399 1.24794 0
M  V30 7273 N 674.014 -1.12206 -1.10668 0
M  V30 7274 C 674.924 -0.800686 -2.20513 0
M  V30 7275 C 675.94 0.209512 -1.72734 0
M  V30 7276 O 677.116 0.043705 -2.01353 0
M  V30 7277 C 674.181 -0.257353 -3.45744 0
M  V30 7278 C 673.242 -1.32718 -4.0827 0
M  V30 7279 C 672.475 -0.809674 -5.27522 0
M  V30 7280 O 672.698 0.35742 -5.69279 0
M  V30 7281 O 671.632 -1.57816 -5.80842 0
M  V30 7282 H 675.458 -1.71807 -2.50432 0
M  V30 7283 H 673.043 -0.898546 -1.19359 0
M  V30 7284 H 674.925 0.0408849 -4.2138 0
M  V30 7285 H 673.6 0.632627 -3.17458 0
M  V30 7286 H 672.507 -1.67855 -3.34329 0
M  V30 7287 H 673.84 -2.19083 -4.40753 0
M  V30 7288 N 675.492 1.28418 -0.913599 0
M  V30 7289 C 676.424 2.26368 -0.359169 0
M  V30 7290 C 677.437 1.54858 0.502285 0
M  V30 7291 O 678.626 1.75659 0.31719 0
M  V30 7292 C 675.726 3.35112 0.50526 0
M  V30 7293 C 674.899 4.36126 -0.333648 0
M  V30 7294 C 673.958 5.24134 0.465845 0
M  V30 7295 O 672.984 5.6907 -0.121538 0
M  V30 7296 N 674.186 5.52892 1.76891 0
M  V30 7297 H 676.951 2.74579 -1.2011 0
M  V30 7298 H 674.512 1.41898 -0.779532 0
M  V30 7299 H 676.504 3.90926 1.04684 0
M  V30 7300 H 675.074 2.86611 1.2479 0
M  V30 7301 H 674.294 3.79776 -1.0566 0
M  V30 7302 H 675.582 5.00638 -0.907669 0
M  V30 7303 H 674.98 5.18217 2.26865 0
M  V30 7304 H 673.537 6.11464 2.25732 0
M  V30 7305 N 676.97 0.677563 1.42291 0
M  V30 7306 C 677.9 0.014968 2.33495 0
M  V30 7307 C 678.881 -0.786376 1.50831 0
M  V30 7308 O 680.066 -0.742975 1.79426 0
M  V30 7309 C 677.196 -0.935023 3.34477 0
M  V30 7310 C 676.15 -0.242074 4.27315 0
M  V30 7311 C 675.476 -1.30519 5.18526 0
M  V30 7312 C 676.776 0.880604 5.14823 0
M  V30 7313 H 678.47 0.776671 2.89151 0
M  V30 7314 H 676.016 0.37494 1.39033 0
M  V30 7315 H 677.969 -1.40766 3.97194 0
M  V30 7316 H 676.693 -1.72818 2.77131 0
M  V30 7317 H 675.352 0.210351 3.65996 0
M  V30 7318 H 675 -2.09041 4.57505 0
M  V30 7319 H 674.7 -0.846652 5.81468 0
M  V30 7320 H 676.224 -1.7787 5.84119 0
M  V30 7321 H 677.638 0.489062 5.7121 0
M  V30 7322 H 676.035 1.26511 5.86613 0
M  V30 7323 H 677.105 1.72818 4.53059 0
M  V30 7324 N 678.448 -1.51871 0.421078 0
M  V30 7325 C 679.396 -2.28903 -0.413066 0
M  V30 7326 C 680.39 -1.3408 -1.03532 0
M  V30 7327 O 681.596 -1.5149 -0.972146 0
M  V30 7328 H 677.971 -0.736478 -0.152003 0
M  V30 7329 H 679.942 -2.97285 0.257695 0
M  V30 7330 C 678.691 -3.13156 -1.51091 0
M  V30 7331 H 678.014 -3.85997 -1.04145 0
M  V30 7332 H 679.454 -3.7014 -2.06814 0
M  V30 7333 C 677.913 -2.27482 -2.48503 0
M  V30 7334 O 678.443 -1.92325 -3.52667 0
M  V30 7335 N 676.649 -1.91019 -2.18998 0
M  V30 7336 H 676.196 -2.19808 -1.34322 0
M  V30 7337 H 676.154 -1.3399 -2.84419 0
M  V30 7338 N 679.926 -0.151884 -1.56866 0
M  V30 7339 C 681.174 0.497021 -1.95893 0
M  V30 7340 C 681.495 1.65078 -1.03799 0
M  V30 7341 O 680.765 1.95642 -0.10049 0
M  V30 7342 H 679.345 0.186603 -0.723318 0
M  V30 7343 H 682.007 -0.228525 -1.93556 0
M  V30 7344 H 681.103 0.869933 -2.99731 0
M  V30 7345 N 681.404 1.57128 0.121893 0
M  V30 7346 C 682.632 1.88883 0.844451 0
M  V30 7347 C 683.047 0.742824 1.73573 0
M  V30 7348 O 682.404 -0.286475 1.80238 0
M  V30 7349 C 682.455 3.20076 1.68029 0
M  V30 7350 O 682.176 4.30264 0.824898 0
M  V30 7351 C 683.677 3.65515 2.50826 0
M  V30 7352 H 680.897 0.62549 0.242907 0
M  V30 7353 H 683.441 2.04219 0.107151 0
M  V30 7354 H 681.596 3.06418 2.37038 0
M  V30 7355 H 682.01 5.05439 1.40113 0
M  V30 7356 H 683.484 4.60081 3.05008 0
M  V30 7357 H 683.961 2.92029 3.28048 0
M  V30 7358 H 684.567 3.81952 1.87064 0
M  V30 7359 N 682.882 -0.391992 1.52647 0
M  V30 7360 C 683.814 -1.49811 1.73463 0
M  V30 7361 C 684.827 -1.50734 0.615078 0
M  V30 7362 O 686.016 -1.5469 0.890696 0
M  V30 7363 C 683.116 -2.88667 1.77552 0
M  V30 7364 C 682.289 -3.11743 3.06815 0
M  V30 7365 C 681.348 -4.30564 3.02491 0
M  V30 7366 O 680.374 -4.27014 3.76361 0
M  V30 7367 N 681.576 -5.36593 2.21468 0
M  V30 7368 H 684.341 -1.32343 2.68897 0
M  V30 7369 H 681.902 -0.581475 1.51098 0
M  V30 7370 H 683.894 -3.66251 1.7217 0
M  V30 7371 H 682.464 -2.99508 0.895181 0
M  V30 7372 H 681.684 -2.2205 3.25711 0
M  V30 7373 H 682.972 -3.24013 3.92292 0
M  V30 7374 H 682.37 -5.42332 1.60913 0
M  V30 7375 H 680.927 -6.12855 2.21928 0
M  V30 7376 N 684.36 -1.4356 -0.65026 0
M  V30 7377 C 685.776 -1.27025 -0.966269 0
M  V30 7378 C 685.976 -0.192117 -2.00582 0
M  V30 7379 O 685.032 0.428459 -2.48838 0
M  V30 7380 C 686.345 -2.63556 -1.44772 0
M  V30 7381 C 687.893 -2.71111 -1.56421 0
M  V30 7382 C 688.368 -4.08067 -2.07956 0
M  V30 7383 N 689.859 -4.10146 -2.15254 0
M  V30 7384 C 690.594 -5.12952 -2.56258 0
M  V30 7385 N 690.09 -6.26129 -2.96537 0
M  V30 7386 N 691.883 -5.00306 -2.56224 0
M  V30 7387 H 684.034 -2.12367 0.0375758 0
M  V30 7388 H 686.297 -0.946894 -0.0457782 0
M  V30 7389 H 686.003 -3.43429 -0.758271 0
M  V30 7390 H 685.877 -2.89152 -2.42221 0
M  V30 7391 H 688.264 -1.91569 -2.24467 0
M  V30 7392 H 688.345 -2.49277 -0.573967 0
M  V30 7393 H 687.989 -4.88077 -1.40511 0
M  V30 7394 H 687.919 -4.27266 -3.07817 0
M  V30 7395 H 690.41 -3.28453 -1.86887 0
M  V30 7396 H 690.723 -7.00403 -3.26582 0
M  V30 7397 H 689.068 -6.29597 -2.94334 0
M  V30 7398 H 692.259 -4.10952 -2.24135 0
M  V30 7399 H 692.432 -5.80553 -2.87857 0
M  V30 7400 N 685.838 0.888903 -1.30139 0
M  V30 7401 C 687.084 1.6428 -1.18912 0
M  V30 7402 C 687.417 1.92499 0.256477 0
M  V30 7403 O 686.692 1.54312 1.18397 0
M  V30 7404 C 686.975 2.9851 -2.01405 0
M  V30 7405 C 686.828 2.77288 -3.54163 0
M  V30 7406 C 688.147 3.99383 -1.84882 0
M  V30 7407 H 685.266 0.596148 -0.433333 0
M  V30 7408 H 687.908 1.0289 -1.5973 0
M  V30 7409 H 686.058 3.50907 -1.66722 0
M  V30 7410 H 687.73 2.31709 -3.98884 0
M  V30 7411 H 685.973 2.11867 -3.78543 0
M  V30 7412 H 686.644 3.72717 -4.07168 0
M  V30 7413 H 689.12 3.56132 -2.15196 0
M  V30 7414 H 687.996 4.91222 -2.44934 0
M  V30 7415 H 688.257 4.34674 -0.806902 0
M  V30 7416 N 687.317 1.12792 1.10072 0
M  V30 7417 C 688.247 0.821688 2.18565 0
M  V30 7418 C 689.228 -0.21612 1.68721 0
M  V30 7419 O 690.413 -0.0764932 1.94049 0
M  V30 7420 C 687.543 0.279624 3.46172 0
M  V30 7421 C 686.497 1.25092 4.09312 0
M  V30 7422 C 685.823 0.568916 5.31665 0
M  V30 7423 C 687.123 2.60699 4.52585 0
M  V30 7424 H 688.817 1.72888 2.44438 0
M  V30 7425 H 686.363 0.832702 1.17482 0
M  V30 7426 H 688.316 0.053099 4.21367 0
M  V30 7427 H 687.04 -0.662929 3.19801 0
M  V30 7428 H 685.699 1.46332 3.36129 0
M  V30 7429 H 685.347 -0.378898 5.01571 0
M  V30 7430 H 685.047 1.21687 5.74862 0
M  V30 7431 H 686.571 0.351517 6.09587 0
M  V30 7432 H 687.985 2.43465 5.19035 0
M  V30 7433 H 686.382 3.21608 5.06644 0
M  V30 7434 H 687.452 3.1886 3.65317 0
M  V30 7435 N 688.795 -1.27931 0.920396 0
M  V30 7436 C 689.725 -2.29487 0.431024 0
M  V30 7437 C 690.706 -1.62435 -0.504861 0
M  V30 7438 O 691.891 -1.89797 -0.411176 0
M  V30 7439 C 689.021 -3.45788 -0.323709 0
M  V30 7440 C 687.975 -4.24784 0.523658 0
M  V30 7441 C 687.301 -5.33488 -0.359809 0
M  V30 7442 C 688.601 -4.90874 1.78437 0
M  V30 7443 H 690.295 -2.70671 1.27975 0
M  V30 7444 H 687.841 -1.30121 0.616813 0
M  V30 7445 H 689.794 -4.15927 -0.676952 0
M  V30 7446 H 688.518 -3.03502 -1.2064 0
M  V30 7447 H 687.177 -3.56382 0.85951 0
M  V30 7448 H 686.825 -4.87445 -1.24124 0
M  V30 7449 H 686.525 -5.87247 0.203605 0
M  V30 7450 H 688.049 -6.06472 -0.708787 0
M  V30 7451 H 689.463 -5.53339 1.49963 0
M  V30 7452 H 687.86 -5.54659 2.29071 0
M  V30 7453 H 688.93 -4.14988 2.50824 0
M  V30 7454 N 690.273 -0.685099 -1.4193 0
M  V30 7455 C 691.55 -0.140152 -1.95097 0
M  V30 7456 C 691.93 1.34745 -1.62502 0
M  V30 7457 O 691.278 2.08872 -0.926534 0
M  V30 7458 C 691.488 -0.420268 -3.4646 0
M  V30 7459 C 692.836 -0.342338 -4.23218 0
M  V30 7460 O 693.86 -0.354592 -3.54431 0
M  V30 7461 O 692.719 -0.293404 -5.45712 0
M  V30 7462 H 689.813 -0.00885998 -0.826953 0
M  V30 7463 H 692.359 -0.760539 -1.51703 0
M  V30 7464 H 691.131 -1.45037 -3.63428 0
M  V30 7465 H 690.754 0.231616 -3.96925 0
M  V30 7466 N 691.751 1.51645 -0.429126 0
M  V30 7467 C 692.699 2.29119 0.400921 0
M  V30 7468 C 693.693 1.34628 1.02819 0
M  V30 7469 O 694.899 1.52004 0.964098 0
M  V30 7470 H 691.274 0.737273 0.148095 0
M  V30 7471 H 693.245 2.97144 -0.273457 0
M  V30 7472 C 691.994 3.13953 1.49429 0
M  V30 7473 H 691.317 3.86544 1.02097 0
M  V30 7474 H 692.757 3.71232 2.04849 0
M  V30 7475 C 691.216 2.28796 2.47293 0
M  V30 7476 O 691.746 1.94193 3.51642 0
M  V30 7477 N 689.952 1.92177 2.17982 0
M  V30 7478 H 689.499 2.20517 1.33154 0
M  V30 7479 H 689.457 1.35497 2.83704 0
M  V30 7480 N 693.229 0.160201 1.56784 0
M  V30 7481 C 694.475 -0.48831 1.96833 0
M  V30 7482 C 694.808 -1.63641 1.04571 0
M  V30 7483 O 694.083 -1.94289 0.0906481 0
M  V30 7484 C 694.366 -0.981908 3.46454 0
M  V30 7485 C 694.219 0.165607 4.49495 0
M  V30 7486 C 695.538 -1.85931 3.98896 0
M  V30 7487 H 692.657 -0.176027 0.71567 0
M  V30 7488 H 695.299 0.244093 1.88426 0
M  V30 7489 H 693.449 -1.60602 3.5375 0
M  V30 7490 H 695.121 0.802372 4.54268 0
M  V30 7491 H 693.364 0.822789 4.25926 0
M  V30 7492 H 694.035 -0.221699 5.51555 0
M  V30 7493 H 696.511 -1.33327 3.94161 0
M  V30 7494 H 695.387 -2.17373 5.04024 0
M  V30 7495 H 695.648 -2.80106 3.42042 0
M  V30 7496 N 694.707 -1.5719 -0.113559 0
M  V30 7497 C 695.637 -2.03772 -1.14013 0
M  V30 7498 C 696.618 -0.923176 -1.42869 0
M  V30 7499 O 697.803 -1.19325 -1.53216 0
M  V30 7500 C 694.933 -2.44663 -2.4649 0
M  V30 7501 C 693.887 -3.59612 -2.32085 0
M  V30 7502 C 693.213 -3.8642 -3.69573 0
M  V30 7503 C 694.513 -4.91149 -1.7768 0
M  V30 7504 H 696.207 -2.89785 -0.752665 0
M  V30 7505 H 693.753 -1.39412 -0.360609 0
M  V30 7506 H 695.706 -2.75857 -3.18561 0
M  V30 7507 H 694.43 -1.55628 -2.87137 0
M  V30 7508 H 693.089 -3.28636 -1.62461 0
M  V30 7509 H 692.737 -2.94581 -4.07715 0
M  V30 7510 H 692.437 -4.63797 -3.60786 0
M  V30 7511 H 693.961 -4.2007 -4.4314 0
M  V30 7512 H 695.375 -5.20843 -2.39574 0
M  V30 7513 H 693.772 -5.72562 -1.79701 0
M  V30 7514 H 694.842 -4.79301 -0.734776 0
M  V30 7515 N 696.185 0.383891 -1.52853 0
M  V30 7516 C 697.41 1.154 -1.7233 0
M  V30 7517 C 697.835 1.82809 -0.44298 0
M  V30 7518 O 697.193 1.71026 0.601645 0
M  V30 7519 C 697.241 2.17386 -2.87708 0
M  V30 7520 O 696.345 3.24082 -2.55038 0
M  V30 7521 H 695.686 0.335709 -0.572883 0
M  V30 7522 H 698.216 0.44662 -1.99666 0
M  V30 7523 H 698.226 2.61296 -3.1335 0
M  V30 7524 H 696.901 1.6771 -3.80587 0
M  V30 7525 H 695.478 2.85273 -2.40153 0
M  V30 7526 N 697.663 1.43903 0.642637 0
M  V30 7527 C 698.573 1.52349 1.78401 0
M  V30 7528 C 699.589 0.409869 1.69104 0
M  V30 7529 O 700.765 0.665548 1.90085 0
M  V30 7530 C 697.83 1.45408 3.14734 0
M  V30 7531 C 696.891 2.67528 3.35749 0
M  V30 7532 C 696.124 2.60909 4.65577 0
M  V30 7533 O 696.347 1.6627 5.45628 0
M  V30 7534 O 695.281 3.5158 4.88544 0
M  V30 7535 H 699.107 2.48752 1.7423 0
M  V30 7536 H 696.692 1.26021 0.802439 0
M  V30 7537 H 698.574 1.44019 3.96026 0
M  V30 7538 H 697.249 0.521437 3.19473 0
M  V30 7539 H 696.156 2.74487 2.5418 0
M  V30 7540 H 697.489 3.598 3.35864 0
M  V30 7541 N 699.141 -0.881989 1.30609 0
M  V30 7542 C 700.051 -2.02076 1.19174 0
M  V30 7543 C 701.067 -1.73645 0.11102 0
M  V30 7544 O 702.243 -1.98735 0.326528 0
M  V30 7545 C 699.308 -3.3515 0.887438 0
M  V30 7546 C 698.369 -3.76983 2.05383 0
M  V30 7547 C 697.602 -5.03707 1.76395 0
M  V30 7548 O 697.825 -5.66171 0.693302 0
M  V30 7549 O 696.759 -5.42019 2.61723 0
M  V30 7550 H 700.585 -2.14652 2.14845 0
M  V30 7551 H 698.17 -1.00843 1.10232 0
M  V30 7552 H 700.052 -4.14975 0.73306 0
M  V30 7553 H 698.727 -3.23676 -0.0393354 0
M  V30 7554 H 697.634 -2.97849 2.26355 0
M  V30 7555 H 698.967 -3.93066 2.96243 0
M  V30 7556 N 700.619 -1.13374 -1.09472 0
M  V30 7557 C 701.551 -0.768466 -2.15933 0
M  V30 7558 C 702.564 0.209585 -1.61445 0
M  V30 7559 O 703.753 -0.010539 -1.78497 0
M  V30 7560 C 700.853 -0.118266 -3.38694 0
M  V30 7561 C 700.026 -1.12829 -4.22597 0
M  V30 7562 C 699.085 -0.503875 -5.23782 0
M  V30 7563 O 698.111 -1.16374 -5.57177 0
M  V30 7564 N 699.313 0.724288 -5.75964 0
M  V30 7565 H 702.078 -1.68457 -2.47876 0
M  V30 7566 H 699.639 -1.02668 -1.25183 0
M  V30 7567 H 701.631 0.311698 -4.03498 0
M  V30 7568 H 700.201 0.700769 -3.04644 0
M  V30 7569 H 699.421 -1.73556 -3.53938 0
M  V30 7570 H 700.709 -1.81095 -4.75481 0
M  V30 7571 H 700.107 1.27918 -5.51048 0
M  V30 7572 H 698.664 1.09692 -6.42504 0
M  V30 7573 N 702.098 1.27442 -0.927168 0
M  V30 7574 C 703.338 1.96157 -0.574608 0
M  V30 7575 C 703.702 1.71265 0.867897 0
M  V30 7576 O 704.903 2.33664 1.3287 0
M  V30 7577 C 703.174 3.46115 -0.891009 0
M  V30 7578 S 704.733 4.34006 -0.646885 0
M  V30 7579 H 701.551 0.678619 -0.212125 0
M  V30 7580 H 704.153 1.54688 -1.19549 0
M  V30 7581 H 702.857 3.6173 -1.93854 0
M  V30 7582 H 702.388 3.92545 -0.259301 0
M  V30 7583 H 704.403 4.93719 0.495568 0
M  V30 7584 N 703.576 0.692616 1.41565 0
M  V30 7585 C 704.992 0.363878 1.55397 0
M  V30 7586 C 705.192 -1.1294 1.66874 0
M  V30 7587 O 704.248 -1.91517 1.64552 0
M  V30 7588 C 705.561 1.10982 2.7947 0
M  V30 7589 C 707.109 1.09387 2.93263 0
M  V30 7590 C 707.584 1.8215 4.20221 0
M  V30 7591 N 709.075 1.79105 4.27172 0
M  V30 7592 C 709.81 2.32247 5.2426 0
M  V30 7593 N 709.306 2.93847 6.27396 0
M  V30 7594 N 711.099 2.22519 5.1618 0
M  V30 7595 H 703.25 1.66116 1.3236 0
M  V30 7596 H 705.513 0.700848 0.63837 0
M  V30 7597 H 705.219 2.1647 2.77188 0
M  V30 7598 H 705.093 0.686492 3.709 0
M  V30 7599 H 707.48 0.0472638 2.95062 0
M  V30 7600 H 707.561 1.55623 2.03015 0
M  V30 7601 H 707.205 2.86789 4.19183 0
M  V30 7602 H 707.135 1.33351 5.09436 0
M  V30 7603 H 709.626 1.34191 3.53272 0
M  V30 7604 H 709.939 3.31972 6.97864 0
M  V30 7605 H 708.284 2.97924 6.27906 0
M  V30 7606 H 711.475 1.7407 4.34531 0
M  V30 7607 H 711.648 2.64239 5.91677 0
M  V30 7608 N 705.054 -1.51416 0.437162 0
M  V30 7609 C 705.964 -2.31493 -0.380537 0
M  V30 7610 C 706.98 -1.40399 -1.02782 0
M  V30 7611 O 708.156 -1.73471 -1.02323 0
M  V30 7612 C 705.221 -3.1413 -1.46709 0
M  V30 7613 C 704.282 -4.21003 -0.839953 0
M  V30 7614 C 703.515 -4.9969 -1.87473 0
M  V30 7615 O 703.738 -4.79008 -3.09689 0
M  V30 7616 O 702.672 -5.8379 -1.46536 0
M  V30 7617 H 706.498 -3.02469 0.273183 0
M  V30 7618 H 704.083 -1.48059 0.199706 0
M  V30 7619 H 705.965 -3.65505 -2.09724 0
M  V30 7620 H 704.64 -2.45919 -2.10489 0
M  V30 7621 H 703.547 -3.73706 -0.171752 0
M  V30 7622 H 704.88 -4.91587 -0.245638 0
M  V30 7623 N 706.532 -0.168513 -1.56696 0
M  V30 7624 C 707.462 0.758563 -2.20835 0
M  V30 7625 C 708.443 1.24121 -1.1631 0
M  V30 7626 O 709.628 1.29487 -1.4473 0
M  V30 7627 C 706.758 1.9892 -2.8469 0
M  V30 7628 C 705.712 1.64252 -3.95228 0
M  V30 7629 C 705.038 2.94757 -4.46119 0
M  V30 7630 C 706.338 0.872675 -5.14958 0
M  V30 7631 H 708.032 0.223953 -2.98561 0
M  V30 7632 H 705.578 0.106277 -1.43607 0
M  V30 7633 H 707.531 2.64275 -3.28233 0
M  V30 7634 H 706.255 2.5479 -2.04327 0
M  V30 7635 H 704.914 1.01266 -3.52336 0
M  V30 7636 H 704.562 3.48662 -3.62552 0
M  V30 7637 H 704.262 2.72316 -5.2069 0
M  V30 7638 H 705.786 3.61147 -4.92347 0
M  V30 7639 H 707.2 1.42875 -5.55211 0
M  V30 7640 H 705.597 0.747402 -5.95428 0
M  V30 7641 H 706.667 -0.131535 -4.84722 0
M  V30 7642 N 708.01 1.57248 0.105221 0
M  V30 7643 C 708.96 1.9777 1.1345 0
M  V30 7644 C 709.944 0.854654 1.36325 0
M  V30 7645 O 711.136 1.11844 1.37186 0
M  V30 7646 C 708.265 2.39717 2.45745 0
M  V30 7647 C 707.351 3.58686 2.26286 0
M  V30 7648 N 707.742 4.73942 1.76671 0
M  V30 7649 C 706.04 3.64586 2.56891 0
M  V30 7650 C 706.741 5.55923 1.71245 0
M  V30 7651 N 705.717 4.98803 2.16093 0
M  V30 7652 H 709.519 2.84336 0.743664 0
M  V30 7653 H 707.033 1.59359 0.312787 0
M  V30 7654 H 709.03 2.66971 3.20206 0
M  V30 7655 H 707.69 1.54523 2.85574 0
M  V30 7656 H 708.701 4.9689 1.46016 0
M  V30 7657 H 705.378 2.90031 3.00314 0
M  V30 7658 H 706.768 6.58398 1.34022 0
M  V30 7659 N 709.488 -0.375779 1.53054 0
M  V30 7660 C 710.713 -1.14484 1.7294 0
M  V30 7661 C 711.138 -1.82572 0.452668 0
M  V30 7662 O 710.496 -1.71343 -0.592567 0
M  V30 7663 C 710.544 -2.15857 2.88857 0
M  V30 7664 O 709.648 -3.22725 2.56753 0
M  V30 7665 H 708.989 -0.332666 0.574656 0
M  V30 7666 H 711.519 -0.436025 1.999 0
M  V30 7667 H 711.529 -2.59631 3.14731 0
M  V30 7668 H 710.204 -1.65689 3.81471 0
M  V30 7669 H 708.781 -2.83996 2.41663 0
M  V30 7670 N 710.966 -1.44241 -0.634997 0
M  V30 7671 C 712.212 -1.47038 -1.39669 0
M  V30 7672 C 712.545 -0.101122 -1.93937 0
M  V30 7673 O 711.82 0.880699 -1.73418 0
M  V30 7674 C 712.103 -2.52763 -2.56482 0
M  V30 7675 C 711.956 -3.99032 -2.07589 0
M  V30 7676 C 713.275 -2.55031 -3.58674 0
M  V30 7677 H 710.394 -0.53537 -0.506506 0
M  V30 7678 H 713.036 -1.75898 -0.718317 0
M  V30 7679 H 711.186 -2.28284 -3.14354 0
M  V30 7680 H 712.858 -4.3463 -1.54577 0
M  V30 7681 H 711.101 -4.10994 -1.38804 0
M  V30 7682 H 711.772 -4.68649 -2.91671 0
M  V30 7683 H 714.248 -2.76893 -3.10595 0
M  V30 7684 H 713.124 -3.30916 -4.37934 0
M  V30 7685 H 713.385 -1.59085 -4.12486 0
M  V30 7686 N 712.444 0.87505 -1.31075 0
M  V30 7687 C 713.407 1.96333 -1.18263 0
M  V30 7688 C 714.407 1.60416 -0.111106 0
M  V30 7689 O 715.597 1.7044 -0.359987 0
M  V30 7690 C 712.729 3.31036 -0.81414 0
M  V30 7691 H 713.922 2.09125 -2.14958 0
M  V30 7692 H 711.475 1.06271 -1.14614 0
M  V30 7693 H 712.21 3.23944 0.151875 0
M  V30 7694 H 711.995 3.58476 -1.58862 0
M  V30 7695 H 713.485 4.10842 -0.748249 0
M  V30 7696 N 713.922 1.13953 1.08869 0
M  V30 7697 C 715.147 0.928559 1.85452 0
M  V30 7698 C 715.572 -0.517642 1.80837 0
M  V30 7699 O 714.93 -1.36779 1.19001 0
M  V30 7700 C 714.978 1.42814 3.31114 0
M  V30 7701 O 714.082 0.617129 4.07756 0
M  V30 7702 H 713.423 0.33235 0.574839 0
M  V30 7703 H 715.953 1.5156 1.37443 0
M  V30 7704 H 715.963 1.43425 3.8196 0
M  V30 7705 H 714.638 2.48109 3.33788 0
M  V30 7706 H 713.215 0.679365 3.66659 0
M  V30 7707 N 715.4 -1.26948 0.933913 0
M  V30 7708 C 716.648 -1.93704 0.576484 0
M  V30 7709 C 716.969 -1.73702 -0.886145 0
M  V30 7710 O 716.239 -1.08838 -1.62884 0
M  V30 7711 H 714.819 -0.716812 0.210214 0
M  V30 7712 H 717.481 -1.54534 1.18766 0
M  V30 7713 H 716.577 -3.01987 0.788055 0
M  V30 7714 N 716.879 -0.700114 -1.41195 0
M  V30 7715 C 718.128 -0.230082 -2.00383 0
M  V30 7716 C 718.441 1.17857 -1.56106 0
M  V30 7717 O 719.647 1.74631 -2.07885 0
M  V30 7718 C 718.103 -0.360447 -3.5809 0
M  V30 7719 C 717.711 -1.77475 -4.11347 0
M  V30 7720 C 719.455 0.0495799 -4.24471 0
M  V30 7721 C 717.362 -1.85653 -5.61504 0
M  V30 7722 H 716.292 -0.0822633 -0.749499 0
M  V30 7723 H 718.943 -0.868969 -1.6162 0
M  V30 7724 H 717.325 0.346768 -3.94479 0
M  V30 7725 H 718.499 -2.51109 -3.86369 0
M  V30 7726 H 716.814 -2.13486 -3.57509 0
M  V30 7727 H 719.411 0.00898219 -5.34699 0
M  V30 7728 H 719.754 1.08904 -4.01803 0
M  V30 7729 H 720.287 -0.607521 -3.93134 0
M  V30 7730 H 717.026 -2.87667 -5.89006 0
M  V30 7731 H 716.546 -1.1641 -5.88395 0
M  V30 7732 H 718.225 -1.62151 -6.26351 0
M  V30 7733 N 718.357 1.51182 -0.445186 0
M  V30 7734 C 719.29 2.24528 0.4077 0
M  V30 7735 C 720.268 1.26778 1.01814 0
M  V30 7736 O 721.452 1.55934 1.05909 0
M  V30 7737 C 718.579 3.00171 1.56892 0
M  V30 7738 C 717.625 4.12641 1.0784 0
M  V30 7739 S 718.458 5.35498 0.014049 0
M  V30 7740 C 719.614 6.14681 1.17975 0
M  V30 7741 H 719.847 2.96522 -0.214987 0
M  V30 7742 H 717.38 1.52681 -0.229781 0
M  V30 7743 H 719.338 3.44349 2.23459 0
M  V30 7744 H 717.999 2.27752 2.16304 0
M  V30 7745 H 717.192 4.64875 1.94698 0
M  V30 7746 H 716.794 3.70765 0.490852 0
M  V30 7747 H 719.086 6.44244 2.09658 0
M  V30 7748 H 720.029 7.04659 0.697222 0
M  V30 7749 H 720.437 5.46299 1.42187 0
M  V30 7750 N 719.835 0.176821 1.56605 0
M  V30 7751 C 720.765 -0.746841 2.21234 0
M  V30 7752 C 721.746 -1.23502 1.16967 0
M  V30 7753 O 722.931 -1.28718 1.45414 0
M  V30 7754 C 720.061 -1.97407 2.8574 0
M  V30 7755 C 719.015 -1.62153 3.96094 0
M  V30 7756 C 718.341 -2.92387 4.47676 0
M  V30 7757 C 719.641 -0.845353 5.15413 0
M  V30 7758 H 721.335 -0.208116 2.98676 0
M  V30 7759 H 718.881 -0.0986594 1.43662 0
M  V30 7760 H 720.834 -2.62531 3.2963 0
M  V30 7761 H 719.558 -2.53703 2.05676 0
M  V30 7762 H 718.217 -0.993964 3.52868 0
M  V30 7763 H 717.865 -3.46734 3.64396 0
M  V30 7764 H 717.565 -2.69551 5.22127 0
M  V30 7765 H 719.089 -3.5853 4.94255 0
M  V30 7766 H 720.503 -1.39929 5.55961 0
M  V30 7767 H 718.9 -0.715814 5.95815 0
M  V30 7768 H 719.97 0.157239 4.84645 0
M  V30 7769 N 721.313 -1.57302 -0.09688 0
M  V30 7770 C 722.559 -1.86273 -0.801885 0
M  V30 7771 C 722.892 -0.765694 -1.78468 0
M  V30 7772 O 722.167 0.226495 -1.93177 0
M  V30 7773 C 722.45 -3.25876 -1.53221 0
M  V30 7774 C 722.303 -4.46205 -0.567529 0
M  V30 7775 C 723.622 -3.63352 -2.48321 0
M  V30 7776 H 720.741 -0.67752 -0.29006 0
M  V30 7777 H 723.383 -1.89887 -0.0655577 0
M  V30 7778 H 721.533 -3.22926 -2.15988 0
M  V30 7779 H 723.205 -4.6127 0.0529982 0
M  V30 7780 H 721.448 -4.33636 0.119233 0
M  V30 7781 H 722.119 -5.40608 -1.11564 0
M  V30 7782 H 724.595 -3.67234 -1.95648 0
M  V30 7783 H 723.471 -4.61968 -2.9644 0
M  V30 7784 H 723.732 -2.91941 -3.31998 0
M  V30 7785 N 722.791 0.367657 -1.53252 0
M  V30 7786 C 724.039 1.10832 -1.68999 0
M  V30 7787 C 724.36 1.89894 -0.443306 0
M  V30 7788 O 723.63 1.88235 0.54262 0
M  V30 7789 H 722.21 0.412153 -0.623008 0
M  V30 7790 H 724.872 0.414775 -1.90435 0
M  V30 7791 H 723.968 1.7993 -2.55013 0
M  V30 7792 N 724.269 1.44576 0.627338 0
M  V30 7793 C 725.546 1.38033 1.38586 0
M  V30 7794 C 725.926 0.0409468 2.1106 0
M  V30 7795 O 725.274 -0.976582 2.0658 0
M  V30 7796 C 725.484 2.58102 2.34913 0
M  V30 7797 C 726.832 3.02332 2.98129 0
M  V30 7798 O 727.856 2.58334 2.45238 0
M  V30 7799 O 726.715 3.78628 3.94085 0
M  V30 7800 H 723.809 0.546801 0.620434 0
M  V30 7801 H 726.355 1.56672 0.652077 0
M  V30 7802 H 725.127 3.4719 1.80485 0
M  V30 7803 H 724.75 2.41696 3.15703 0
M  V30 7804 N 725.747 -0.868086 1.31537 0
M  V30 7805 C 726.995 -1.61807 1.21091 0
M  V30 7806 C 727.316 -1.93631 -0.230623 0
M  V30 7807 O 726.586 -1.5846 -1.15183 0
M  V30 7808 H 725.166 -0.599854 0.445178 0
M  V30 7809 H 727.828 -1.03915 1.64887 0
M  V30 7810 H 726.924 -2.56088 1.78396 0
M  V30 7811 N 727.225 -1.14528 -1.08264 0
M  V30 7812 C 728.455 -0.936604 -1.8415 0
M  V30 7813 C 728.863 0.518298 -1.81962 0
M  V30 7814 O 728.206 1.37096 -1.22272 0
M  V30 7815 C 728.268 -1.36182 -3.32708 0
M  V30 7816 C 727.932 -2.83257 -3.58629 0
M  V30 7817 C 728.929 -3.81366 -3.5335 0
M  V30 7818 C 726.614 -3.20704 -3.86593 0
M  V30 7819 C 728.608 -5.14929 -3.75668 0
M  V30 7820 C 726.295 -4.54443 -4.08564 0
M  V30 7821 C 727.293 -5.51365 -4.03095 0
M  V30 7822 O 726.981 -6.8269 -4.24488 0
M  V30 7823 H 726.713 -0.333254 -0.588148 0
M  V30 7824 H 729.267 -1.5247 -1.3763 0
M  V30 7825 H 727.497 -0.717063 -3.79994 0
M  V30 7826 H 729.186 -1.12372 -3.90035 0
M  V30 7827 H 729.952 -3.53781 -3.31759 0
M  V30 7828 H 725.831 -2.45857 -3.89969 0
M  V30 7829 H 729.375 -5.90568 -3.71315 0
M  V30 7830 H 725.272 -4.81747 -4.29639 0
M  V30 7831 H 726.04 -6.8897 -4.41886 0
M  V30 7832 N 728.703 1.26451 -0.940633 0
M  V30 7833 C 730.119 1.4608 -0.642859 0
M  V30 7834 C 730.319 1.84765 0.803998 0
M  V30 7835 O 729.375 1.96902 1.58069 0
M  V30 7836 C 730.688 2.54359 -1.60381 0
M  V30 7837 C 732.236 2.6821 -1.61345 0
M  V30 7838 C 732.711 3.79659 -2.56169 0
M  V30 7839 N 734.202 3.87051 -2.54452 0
M  V30 7840 C 734.937 4.72739 -3.24507 0
M  V30 7841 N 734.433 5.6282 -4.03987 0
M  V30 7842 N 736.226 4.66581 -3.13462 0
M  V30 7843 H 728.377 0.996289 -1.87584 0
M  V30 7844 H 730.64 0.498921 -0.80609 0
M  V30 7845 H 730.346 2.32758 -2.6366 0
M  V30 7846 H 730.22 3.52005 -1.35545 0
M  V30 7847 H 732.607 2.89184 -0.587913 0
M  V30 7848 H 732.688 1.7101 -1.90235 0
M  V30 7849 H 732.332 3.59438 -3.58841 0
M  V30 7850 H 732.262 4.76315 -2.2457 0
M  V30 7851 H 734.753 3.22649 -1.96739 0
M  V30 7852 H 735.066 6.25095 -4.54396 0
M  V30 7853 H 733.411 5.62574 -4.08088 0
M  V30 7854 H 736.602 3.9521 -2.50852 0
M  V30 7855 H 736.775 5.33141 -3.68327 0
M  V30 7856 N 730.181 0.707592 1.40822 0
M  V30 7857 C 731.429 0.243189 2.00632 0
M  V30 7858 C 731.75 -1.16512 1.56365 0
M  V30 7859 O 731.02 -1.78841 0.799553 0
M  V30 7860 H 729.6 0.0869203 0.741926 0
M  V30 7861 H 732.262 0.911438 1.72275 0
M  V30 7862 H 731.358 0.270014 3.1093 0
M  V30 7863 N 731.66 -1.50943 0.453197 0
M  V30 7864 C 732.607 -2.28128 -0.350197 0
M  V30 7865 C 733.577 -1.32398 -1.00299 0
M  V30 7866 O 734.762 -1.61319 -1.01887 0
M  V30 7867 C 731.902 -3.13782 -1.43649 0
M  V30 7868 C 731.015 -4.24523 -0.800255 0
M  V30 7869 C 730.15 -4.97462 -1.86293 0
M  V30 7870 C 729.189 -6.00102 -1.20598 0
M  V30 7871 N 728.326 -6.66387 -2.21071 0
M  V30 7872 H 733.166 -2.96337 0.31434 0
M  V30 7873 H 730.703 -1.46151 0.166863 0
M  V30 7874 H 732.661 -3.6178 -2.07776 0
M  V30 7875 H 731.291 -2.47655 -2.07044 0
M  V30 7876 H 730.343 -3.80371 -0.0468651 0
M  V30 7877 H 731.655 -4.98009 -0.280777 0
M  V30 7878 H 730.809 -5.49088 -2.58044 0
M  V30 7879 H 729.548 -4.23642 -2.41617 0
M  V30 7880 H 728.553 -5.47753 -0.474 0
M  V30 7881 H 729.778 -6.75887 -0.659859 0
M  V30 7882 H 727.724 -5.9537 -2.75446 0
M  V30 7883 H 727.641 -7.3569 -1.74058 0
M  V30 7884 H 728.909 -7.22638 -2.92257 0
M  V30 7885 N 733.138 -0.185124 -1.56509 0
M  V30 7886 C 734.366 0.462139 -2.01673 0
M  V30 7887 C 734.781 1.55873 -1.06532 0
M  V30 7888 O 734.138 1.82371 -0.0684805 0
M  V30 7889 C 734.189 1.0277 -3.46584 0
M  V30 7890 O 733.91 -0.0251296 -4.38093 0
M  V30 7891 C 735.411 1.75183 -4.07217 0
M  V30 7892 H 732.631 0.117001 -0.660721 0
M  V30 7893 H 735.175 -0.290905 -2.0242 0
M  V30 7894 H 733.33 1.73118 -3.46568 0
M  V30 7895 H 733.744 0.394387 -5.23015 0
M  V30 7896 H 735.218 2.09999 -5.10494 0
M  V30 7897 H 735.695 2.6519 -3.50101 0
M  V30 7898 H 736.301 1.09445 -4.10977 0
M  V30 7899 N 734.616 1.57351 0.0885366 0
M  V30 7900 C 735.841 1.91011 0.80805 0
M  V30 7901 C 736.266 0.780009 1.71165 0
M  V30 7902 O 735.624 -0.268083 1.79307 0
M  V30 7903 C 735.672 3.23562 1.59185 0
M  V30 7904 O 734.776 3.11615 2.7013 0
M  V30 7905 H 734.117 0.625943 0.221565 0
M  V30 7906 H 736.647 2.04507 0.0617954 0
M  V30 7907 H 736.657 3.5703 1.97468 0
M  V30 7908 H 735.332 4.05398 0.928741 0
M  V30 7909 H 733.909 2.89673 2.34827 0
M  V30 7910 N 736.094 -0.359525 1.53444 0
M  V30 7911 C 737.505 -0.936009 1.61542 0
M  V30 7912 C 737.856 -1.90069 0.486633 0
M  V30 7913 O 736.981 -2.12929 -0.386047 0
M  V30 7914 C 737.576 -1.70441 2.92806 0
M  V30 7915 C 736.135 -2.23015 3.03218 0
M  V30 7916 C 735.282 -1.04438 2.56881 0
M  V30 7917 H 738.233 -0.138134 1.58098 0
M  V30 7918 H 738.254 -2.56609 2.80948 0
M  V30 7919 H 737.766 -1.00205 3.74941 0
M  V30 7920 H 735.867 -2.96475 2.25684 0
M  V30 7921 H 735.98 -2.50481 4.08407 0
M  V30 7922 H 734.344 -1.41314 2.11902 0
M  V30 7923 H 735.127 -0.356905 3.4144 0
M  V30 7924 N 737.572 -1.44907 -0.619662 0
M  V30 7925 C 738.522 -1.49085 -1.72504 0
M  V30 7926 C 739.506 -0.355372 -1.56926 0
M  V30 7927 O 740.698 -0.601441 -1.66468 0
M  V30 7928 C 737.827 -1.44889 -3.11227 0
M  V30 7929 C 736.913 -2.63593 -3.32234 0
M  V30 7930 N 737.304 -3.88775 -3.23555 0
M  V30 7931 C 735.602 -2.59033 -3.63067 0
M  V30 7932 C 736.303 -4.67932 -3.45564 0
M  V30 7933 N 735.279 -3.9919 -3.68983 0
M  V30 7934 H 739.081 -2.43706 -1.6427 0
M  V30 7935 H 736.595 -1.4003 -0.82252 0
M  V30 7936 H 738.592 -1.45966 -3.90512 0
M  V30 7937 H 737.252 -0.513143 -3.2062 0
M  V30 7938 H 738.263 -4.20574 -3.02221 0
M  V30 7939 H 734.94 -1.7431 -3.79371 0
M  V30 7940 H 736.33 -5.76952 -3.44349 0
M  V30 7941 N 739.05 0.861098 -1.31996 0
M  V30 7942 C 740.278 1.6474 -1.25173 0
M  V30 7943 C 740.693 1.87926 0.181425 0
M  V30 7944 O 740.05 1.4437 1.1164 0
M  V30 7945 C 740.101 3.01036 -2.0015 0
M  V30 7946 O 739.822 2.7888 -3.37872 0
M  V30 7947 C 741.323 3.95481 -2.00273 0
M  V30 7948 H 738.543 0.513314 -0.432146 0
M  V30 7949 H 741.087 1.07419 -1.74016 0
M  V30 7950 H 739.242 3.55021 -1.55046 0
M  V30 7951 H 739.656 3.65514 -3.76165 0
M  V30 7952 H 741.13 4.88403 -2.57229 0
M  V30 7953 H 741.607 4.27957 -0.987407 0
M  V30 7954 H 742.213 3.47433 -2.45296 0
M  V30 7955 N 740.528 1.15101 1.07655 0
M  V30 7956 C 741.939 0.933848 1.61667 0
M  V30 7957 C 742.29 -0.525569 1.8903 0
M  V30 7958 O 741.415 -1.39605 1.65346 0
M  V30 7959 C 742.01 1.68876 2.93711 0
M  V30 7960 C 740.569 1.51697 3.44478 0
M  V30 7961 C 739.716 1.70633 2.18586 0
M  V30 7962 H 742.667 1.30171 0.907816 0
M  V30 7963 H 742.688 1.15645 3.625 0
M  V30 7964 H 742.2 2.7509 2.73764 0
M  V30 7965 H 740.301 0.478635 3.69513 0
M  V30 7966 H 740.414 2.29194 4.20722 0
M  V30 7967 H 738.778 1.13259 2.28132 0
M  V30 7968 H 739.561 2.78206 2.01137 0
M  V30 7969 N 742.006 -1.2595 0.947325 0
M  V30 7970 C 742.954 -2.28152 0.452687 0
M  V30 7971 C 743.948 -1.62655 -0.473239 0
M  V30 7972 O 745.154 -1.76549 -0.350774 0
M  V30 7973 H 741.529 -0.741049 0.12787 0
M  V30 7974 H 743.5 -2.67267 1.32707 0
M  V30 7975 C 742.249 -3.46719 -0.26098 0
M  V30 7976 H 741.572 -3.97345 0.442352 0
M  V30 7977 H 743.012 -4.20135 -0.571208 0
M  V30 7978 C 741.471 -3.02605 -1.48094 0
M  V30 7979 O 742.001 -3.07979 -2.57899 0
M  V30 7980 N 740.207 -2.57877 -1.33969 0
M  V30 7981 H 739.754 -2.53704 -0.446295 0
M  V30 7982 H 739.712 -2.28725 -2.15713 0
M  V30 7983 N 743.484 -0.715051 -1.40445 0
M  V30 7984 C 744.394 -0.0631624 -2.34515 0
M  V30 7985 C 745.41 0.744397 -1.57273 0
M  V30 7986 O 746.586 0.677475 -1.89663 0
M  V30 7987 C 743.651 0.847915 -3.36172 0
M  V30 7988 C 742.712 0.0303655 -4.29289 0
M  V30 7989 C 741.945 0.898051 -5.2609 0
M  V30 7990 O 742.168 2.13729 -5.28844 0
M  V30 7991 O 741.102 0.337328 -6.00954 0
M  V30 7992 H 744.928 -0.839078 -2.91879 0
M  V30 7993 H 742.513 -0.475527 -1.4163 0
M  V30 7994 H 744.395 1.3698 -3.98515 0
M  V30 7995 H 743.07 1.60299 -2.81222 0
M  V30 7996 H 741.977 -0.536573 -3.70232 0
M  V30 7997 H 743.31 -0.686474 -4.87389 0
M  V30 7998 N 744.962 1.50701 -0.461195 0
M  V30 7999 C 745.909 2.2831 0.338094 0
M  V30 8000 C 746.879 1.32928 0.995957 0
M  V30 8001 O 748.064 1.61857 1.0103 0
M  V30 8002 C 745.204 3.14539 1.41983 0
M  V30 8003 C 744.317 4.24942 0.77773 0
M  V30 8004 C 743.452 4.98443 1.83652 0
M  V30 8005 C 742.491 6.00733 1.17413 0
M  V30 8006 N 741.628 6.6755 2.17533 0
M  V30 8007 H 746.468 2.96167 -0.330051 0
M  V30 8008 H 744.005 1.4606 -0.174611 0
M  V30 8009 H 745.963 3.62877 2.05855 0
M  V30 8010 H 744.593 2.48749 2.05727 0
M  V30 8011 H 743.645 3.80391 0.0266924 0
M  V30 8012 H 744.957 4.98151 0.254362 0
M  V30 8013 H 744.111 5.50449 2.55129 0
M  V30 8014 H 742.85 4.24917 2.39367 0
M  V30 8015 H 741.855 5.47997 0.444944 0
M  V30 8016 H 743.08 6.76227 0.624006 0
M  V30 8017 H 741.026 5.96823 2.72284 0
M  V30 8018 H 740.943 7.36603 1.70154 0
M  V30 8019 H 742.211 7.24178 2.88421 0
M  V30 8020 N 746.441 0.193421 1.56409 0
M  V30 8021 C 747.688 -0.445789 1.97532 0
M  V30 8022 C 748.016 -1.61744 1.08024 0
M  V30 8023 O 747.271 -1.95338 0.118982 0
M  V30 8024 C 747.57 -0.949718 3.44551 0
M  V30 8025 C 747.236 0.108383 4.5077 0
M  V30 8026 C 745.898 0.399126 4.79542 0
M  V30 8027 C 748.25 0.825423 5.14622 0
M  V30 8028 C 745.578 1.41192 5.69457 0
M  V30 8029 C 747.93 1.82735 6.05632 0
M  V30 8030 C 746.594 2.12531 6.32761 0
M  V30 8031 H 745.864 -0.163126 0.722822 0
M  V30 8032 H 748.511 0.290035 1.89291 0
M  V30 8033 H 746.816 -1.76378 3.49854 0
M  V30 8034 H 748.513 -1.45367 3.73724 0
M  V30 8035 H 745.103 -0.128392 4.28408 0
M  V30 8036 H 749.287 0.61403 4.92487 0
M  V30 8037 H 744.543 1.6487 5.88751 0
M  V30 8038 H 748.717 2.3882 6.5417 0
M  V30 8039 H 746.344 2.91155 7.02234 0
M  V30 8040 N 747.919 -1.57396 -0.0801906 0
M  V30 8041 C 748.829 -2.06451 -1.11423 0
M  V30 8042 C 749.845 -0.992352 -1.42928 0
M  V30 8043 O 751.021 -1.30651 -1.53272 0
M  V30 8044 C 748.086 -2.49164 -2.41077 0
M  V30 8045 C 747.147 -3.70641 -2.16619 0
M  V30 8046 C 746.38 -4.11307 -3.40092 0
M  V30 8047 O 746.603 -3.51922 -4.48895 0
M  V30 8048 O 745.537 -5.04157 -3.288 0
M  V30 8049 H 749.363 -2.94857 -0.727519 0
M  V30 8050 H 746.948 -1.46484 -0.293743 0
M  V30 8051 H 748.83 -2.77196 -3.17396 0
M  V30 8052 H 747.505 -1.6389 -2.79145 0
M  V30 8053 H 746.412 -3.47703 -1.38033 0
M  V30 8054 H 747.745 -4.5674 -1.83437 0
M  V30 8055 N 749.397 0.351382 -1.53633 0
M  V30 8056 C 750.645 1.09034 -1.70165 0
M  V30 8057 C 750.966 1.89413 -0.463422 0
M  V30 8058 O 750.236 1.888 0.522624 0
M  V30 8059 H 748.816 0.405522 -0.627344 0
M  V30 8060 H 751.478 0.394554 -1.90865 0
M  V30 8061 H 750.574 1.77215 -2.56907 0
M  V30 8062 N 750.875 1.45233 0.611969 0
M  V30 8063 C 751.838 1.53189 1.70487 0
M  V30 8064 C 752.838 0.411839 1.55437 0
M  V30 8065 O 754.028 0.675164 1.60584 0
M  V30 8066 C 751.16 1.42422 3.09723 0
M  V30 8067 H 752.353 2.5056 1.64802 0
M  V30 8068 H 749.906 1.32609 0.827318 0
M  V30 8069 H 750.641 0.462185 3.2099 0
M  V30 8070 H 750.426 2.23658 3.22055 0
M  V30 8071 H 751.916 1.51012 3.89339 0
M  V30 8072 N 752.353 -0.854086 1.3245 0
M  V30 8073 C 753.581 -1.64074 1.26045 0
M  V30 8074 C 753.996 -1.8802 -0.171456 0
M  V30 8075 O 753.353 -1.4496 -1.10873 0
M  V30 8076 C 753.404 -2.9997 2.01743 0
M  V30 8077 O 753.125 -2.77084 3.39346 0
M  V30 8078 C 754.626 -3.94414 2.02368 0
M  V30 8079 H 751.846 -0.511015 0.434862 0
M  V30 8080 H 754.39 -1.06494 1.74583 0
M  V30 8081 H 752.545 -3.54193 1.56926 0
M  V30 8082 H 752.959 -3.63514 3.78098 0
M  V30 8083 H 754.433 -4.87032 2.59815 0
M  V30 8084 H 754.91 -4.27427 1.01009 0
M  V30 8085 H 755.516 -3.46127 2.47135 0
M  V30 8086 N 753.831 -1.1567 -1.07043 0
M  V30 8087 C 755.077 -0.9349 -1.79965 0
M  V30 8088 C 755.41 0.536464 -1.86643 0
M  V30 8089 O 754.685 1.39781 -1.35247 0
M  V30 8090 C 754.968 -1.55371 -3.24857 0
M  V30 8091 C 754.821 -3.09589 -3.26305 0
M  V30 8092 C 756.14 -1.24209 -4.22209 0
M  V30 8093 H 753.259 -0.341061 -0.653335 0
M  V30 8094 H 755.901 -1.42883 -1.25237 0
M  V30 8095 H 754.051 -1.13368 -3.71591 0
M  V30 8096 H 755.723 -3.60521 -2.87789 0
M  V30 8097 H 753.966 -3.43315 -2.65174 0
M  V30 8098 H 754.637 -3.48002 -4.28484 0
M  V30 8099 H 757.113 -1.60548 -3.8388 0
M  V30 8100 H 755.989 -1.70119 -5.21872 0
M  V30 8101 H 756.25 -0.15964 -4.41812 0
M  V30 8102 N 755.309 1.25446 -0.953992 0
M  V30 8103 C 756.239 2.28264 -0.491717 0
M  V30 8104 C 757.22 1.63717 0.461617 0
M  V30 8105 O 758.405 1.90821 0.36071 0
M  V30 8106 C 755.535 3.46525 0.231915 0
M  V30 8107 C 754.489 4.23247 -0.636098 0
M  V30 8108 C 753.815 5.34254 0.218238 0
M  V30 8109 C 755.115 4.85971 -1.91389 0
M  V30 8110 H 756.809 2.67183 -1.35106 0
M  V30 8111 H 754.355 1.2844 -0.651095 0
M  V30 8112 H 756.308 4.17576 0.566439 0
M  V30 8113 H 755.032 3.06594 1.12551 0
M  V30 8114 H 753.691 3.53978 -0.953696 0
M  V30 8115 H 753.339 4.90564 1.11156 0
M  V30 8116 H 753.039 5.86501 -0.359232 0
M  V30 8117 H 754.563 6.08138 0.547743 0
M  V30 8118 H 755.977 5.49168 -1.64581 0
M  V30 8119 H 754.374 5.48391 -2.43696 0
M  V30 8120 H 755.444 4.08192 -2.61738 0
M  V30 8121 N 756.787 0.722489 1.40064 0
M  V30 8122 C 757.734 0.0743738 2.3068 0
M  V30 8123 C 758.704 -0.743004 1.48555 0
M  V30 8124 O 759.889 -0.705536 1.77276 0
M  V30 8125 C 757.029 -0.836292 3.34814 0
M  V30 8126 C 756.142 -0.00764663 4.31999 0
M  V30 8127 C 755.277 -0.918428 5.232 0
M  V30 8128 C 754.316 -0.0842838 6.12042 0
M  V30 8129 N 753.453 -0.950316 6.95639 0
M  V30 8130 H 758.293 0.852794 2.85537 0
M  V30 8131 H 755.83 0.432222 1.40607 0
M  V30 8132 H 757.788 -1.3786 3.93765 0
M  V30 8133 H 756.418 -1.58082 2.81443 0
M  V30 8134 H 755.47 0.651928 3.74772 0
M  V30 8135 H 756.782 0.63786 4.94705 0
M  V30 8136 H 755.936 -1.52902 5.87116 0
M  V30 8137 H 754.675 -1.59774 4.60786 0
M  V30 8138 H 753.68 0.5392 5.4715 0
M  V30 8139 H 754.905 0.591628 6.76518 0
M  V30 8140 H 752.851 -1.61515 6.35806 0
M  V30 8141 H 752.768 -0.361004 7.55138 0
M  V30 8142 H 754.036 -1.54687 7.63997 0
M  V30 8143 N 758.265 -1.50454 0.469181 0
M  V30 8144 C 759.228 -2.2703 -0.314643 0
M  V30 8145 C 760.228 -1.31734 -0.922111 0
M  V30 8146 O 761.418 -1.55176 -0.791588 0
M  V30 8147 C 758.55 -3.08616 -1.44806 0
M  V30 8148 H 759.743 -2.97769 0.356892 0
M  V30 8149 H 757.296 -1.54698 0.223191 0
M  V30 8150 H 758.031 -2.42369 -2.1547 0
M  V30 8151 H 757.816 -3.78647 -1.01829 0
M  V30 8152 H 759.306 -3.66536 -2.00103 0
M  V30 8153 N 759.743 -0.201713 -1.56304 0
M  V30 8154 C 760.673 0.71155 -2.22394 0
M  V30 8155 C 761.654 1.21625 -1.18917 0
M  V30 8156 O 762.839 1.26388 -1.47444 0
M  V30 8157 C 759.969 1.92837 -2.88845 0
M  V30 8158 C 758.923 1.55831 -3.98623 0
M  V30 8159 C 758.249 2.85228 -4.52271 0
M  V30 8160 C 759.549 0.763249 -5.16693 0
M  V30 8161 H 761.243 0.160573 -2.98969 0
M  V30 8162 H 758.789 0.0757916 -1.438 0
M  V30 8163 H 760.742 2.57253 -3.33764 0
M  V30 8164 H 759.466 2.50398 -2.09686 0
M  V30 8165 H 758.125 0.9377 -3.54405 0
M  V30 8166 H 757.773 3.40893 -3.69866 0
M  V30 8167 H 757.473 2.6121 -5.26349 0
M  V30 8168 H 758.997 3.50622 -4.99897 0
M  V30 8169 H 760.411 1.31066 -5.58117 0
M  V30 8170 H 758.808 0.620935 -5.96879 0
M  V30 8171 H 759.878 -0.234322 -4.84334 0
M  V30 8172 N 761.222 1.57436 0.0718424 0
M  V30 8173 C 762.169 2.03686 1.08539 0
M  V30 8174 C 763.139 0.917474 1.38462 0
M  V30 8175 O 764.324 1.18513 1.4953 0
M  V30 8176 C 761.464 2.48566 2.39393 0
M  V30 8177 C 760.577 3.74122 2.16001 0
M  V30 8178 C 759.712 4.07786 3.40418 0
M  V30 8179 C 758.751 5.26383 3.1239 0
M  V30 8180 N 757.888 5.55685 4.29138 0
M  V30 8181 H 762.728 2.90043 0.684018 0
M  V30 8182 H 760.265 1.43438 0.326183 0
M  V30 8183 H 762.223 2.72639 3.15791 0
M  V30 8184 H 760.853 1.65186 2.77333 0
M  V30 8185 H 759.905 3.57389 1.30296 0
M  V30 8186 H 761.217 4.60659 1.91298 0
M  V30 8187 H 760.371 4.32759 4.25211 0
M  V30 8188 H 759.11 3.19817 3.68197 0
M  V30 8189 H 758.115 5.01206 2.25993 0
M  V30 8190 H 759.34 6.1597 2.85934 0
M  V30 8191 H 757.286 4.70675 4.56948 0
M  V30 8192 H 757.203 6.3664 4.07708 0
M  V30 8193 H 758.471 5.85209 5.14928 0
M  V30 8194 N 762.7 -0.34323 1.53817 0
M  V30 8195 C 763.925 -1.1079 1.75329 0
M  V30 8196 C 764.35 -1.81571 0.491293 0
M  V30 8197 O 763.708 -1.72561 -0.556089 0
M  V30 8198 C 763.756 -2.09681 2.9337 0
M  V30 8199 O 762.86 -3.17207 2.63541 0
M  V30 8200 H 762.201 -0.320402 0.581583 0
M  V30 8201 H 764.731 -0.393525 2.0078 0
M  V30 8202 H 764.741 -2.52897 3.20168 0
M  V30 8203 H 763.416 -1.5756 3.84899 0
M  V30 8204 H 761.993 -2.78806 2.47632 0
M  V30 8205 N 764.178 -1.45556 -0.604258 0
M  V30 8206 C 765.426 -1.4945 -1.36048 0
M  V30 8207 C 765.747 -0.138933 -1.94504 0
M  V30 8208 O 765.017 0.832097 -1.7735 0
M  V30 8209 H 763.597 -0.550381 -0.505064 0
M  V30 8210 H 766.259 -1.81535 -0.709308 0
M  V30 8211 H 765.355 -2.23519 -2.17821 0
M  V30 8212 N 765.656 0.84705 -1.32902 0
M  V30 8213 C 766.886 1.63166 -1.26729 0
M  V30 8214 C 767.294 1.88474 0.165595 0
M  V30 8215 O 766.637 1.45947 1.11558 0
M  V30 8216 C 766.699 3.0103 -1.96522 0
M  V30 8217 C 766.363 2.9873 -3.45846 0
M  V30 8218 C 767.36 2.75032 -4.41196 0
M  V30 8219 C 765.045 3.19125 -3.87898 0
M  V30 8220 C 767.039 2.71743 -5.76571 0
M  V30 8221 C 764.726 3.15462 -5.2338 0
M  V30 8222 C 765.724 2.91801 -6.17528 0
M  V30 8223 O 765.412 2.88027 -7.5053 0
M  V30 8224 H 765.144 0.51469 -0.438258 0
M  V30 8225 H 767.698 1.06383 -1.75704 0
M  V30 8226 H 765.928 3.59634 -1.42128 0
M  V30 8227 H 767.617 3.61821 -1.83958 0
M  V30 8228 H 768.383 2.59034 -4.10032 0
M  V30 8229 H 764.262 3.36565 -3.15032 0
M  V30 8230 H 767.806 2.53194 -6.5003 0
M  V30 8231 H 763.703 3.31006 -5.54171 0
M  V30 8232 H 764.471 3.03927 -7.59981 0
M  V30 8233 N 767.134 1.16236 1.06428 0
M  V30 8234 C 768.044 0.881976 2.1739 0
M  V30 8235 C 769.06 -0.145259 1.73393 0
M  V30 8236 O 770.236 0.0310558 2.01376 0
M  V30 8237 C 767.301 0.385496 3.4455 0
M  V30 8238 C 766.362 1.47779 4.03063 0
M  V30 8239 C 765.595 1.0049 5.24154 0
M  V30 8240 O 765.818 -0.145889 5.70213 0
M  V30 8241 O 764.752 1.79265 5.74585 0
M  V30 8242 H 768.578 1.80983 2.43883 0
M  V30 8243 H 766.163 0.942226 1.15942 0
M  V30 8244 H 768.045 0.115536 4.21242 0
M  V30 8245 H 766.72 -0.514369 3.19587 0
M  V30 8246 H 765.627 1.80147 3.27869 0
M  V30 8247 H 766.96 2.35291 4.32318 0
M  V30 8248 N 768.612 -1.24939 0.960631 0
M  V30 8249 C 769.86 -1.92437 0.617441 0
M  V30 8250 C 770.181 -1.75543 -0.849101 0
M  V30 8251 O 769.451 -1.12269 -1.60538 0
M  V30 8252 H 768.031 -0.712192 0.225371 0
M  V30 8253 H 770.693 -1.5198 1.22017 0
M  V30 8254 H 769.789 -3.00247 0.851933 0
M  V30 8255 N 770.09 -0.729906 -1.39679 0
M  V30 8256 C 771.506 -0.404951 -1.54377 0
M  V30 8257 C 771.706 1.08476 -1.6981 0
M  V30 8258 O 770.762 1.87087 -1.69572 0
M  V30 8259 C 772.075 -1.18352 -2.76429 0
M  V30 8260 C 773.623 -1.17124 -2.9026 0
M  V30 8261 C 774.098 -1.93227 -4.15244 0
M  V30 8262 N 775.589 -1.90368 -4.22273 0
M  V30 8263 C 776.324 -2.46065 -5.17918 0
M  V30 8264 N 775.82 -3.10378 -6.19385 0
M  V30 8265 N 777.613 -2.36127 -5.10099 0
M  V30 8266 H 769.764 -1.69567 -1.27909 0
M  V30 8267 H 772.027 -0.717527 -0.619564 0
M  V30 8268 H 771.733 -2.23743 -2.71352 0
M  V30 8269 H 771.607 -0.784589 -3.6895 0
M  V30 8270 H 773.994 -0.125478 -2.94833 0
M  V30 8271 H 774.075 -1.60951 -1.98817 0
M  V30 8272 H 773.719 -2.97802 -4.11432 0
M  V30 8273 H 773.649 -1.4681 -5.05722 0
M  V30 8274 H 776.14 -1.4351 -3.4959 0
M  V30 8275 H 776.453 -3.50358 -6.88817 0
M  V30 8276 H 774.798 -3.14467 -6.19787 0
M  V30 8277 H 777.989 -1.85529 -4.29763 0
M  V30 8278 H 778.162 -2.79833 -5.84463 0
M  V30 8279 N 771.568 1.50203 -0.477153 0
M  V30 8280 C 772.814 2.02658 0.0758507 0
M  V30 8281 C 773.147 1.358 1.38824 0
M  V30 8282 O 772.422 0.485696 1.88338 0
M  V30 8283 C 772.705 3.59208 0.253339 0
M  V30 8284 C 772.558 4.36629 -1.0805 0
M  V30 8285 C 773.877 4.28469 1.00509 0
M  V30 8286 H 770.996 0.736538 0.0260921 0
M  V30 8287 H 773.638 1.79464 -0.623925 0
M  V30 8288 H 771.788 3.79101 0.849378 0
M  V30 8289 H 773.46 4.28292 -1.71358 0
M  V30 8290 H 771.703 4.0013 -1.67566 0
M  V30 8291 H 772.374 5.44449 -0.909883 0
M  V30 8292 H 774.85 4.13087 0.499818 0
M  V30 8293 H 773.726 5.37804 1.09808 0
M  V30 8294 H 773.987 3.92057 2.04314 0
M  V30 8295 N 773.046 0.209999 1.56195 0
M  V30 8296 C 774.457 -0.299943 1.84275 0
M  V30 8297 C 774.808 -1.60314 1.1311 0
M  V30 8298 O 773.933 -2.1273 0.396874 0
M  V30 8299 C 774.528 -0.550986 3.3429 0
M  V30 8300 C 773.087 -1.00526 3.62728 0
M  V30 8301 C 772.234 -0.0619828 2.77231 0
M  V30 8302 H 775.185 0.433458 1.52666 0
M  V30 8303 H 775.206 -1.39846 3.53869 0
M  V30 8304 H 774.718 0.397669 3.86057 0
M  V30 8305 H 772.819 -1.96768 3.16407 0
M  V30 8306 H 772.932 -0.887664 4.70805 0
M  V30 8307 H 771.296 -0.566648 2.48317 0
M  V30 8308 H 772.079 0.881383 3.31793 0
M  V30 8309 N 774.524 -1.57472 -0.0634922 0
M  V30 8310 C 775.454 -2.07297 -1.07473 0
M  V30 8311 C 776.435 -0.968162 -1.39859 0
M  V30 8312 O 777.62 -1.24139 -1.49343 0
M  V30 8313 C 774.75 -2.52381 -2.38581 0
M  V30 8314 C 773.704 -3.66813 -2.20526 0
M  V30 8315 C 773.03 -3.97982 -3.57092 0
M  V30 8316 C 774.33 -4.96553 -1.61965 0
M  V30 8317 H 776.024 -2.92033 -0.660092 0
M  V30 8318 H 773.57 -1.40488 -0.316074 0
M  V30 8319 H 775.523 -2.85852 -3.09624 0
M  V30 8320 H 774.247 -1.64684 -2.8204 0
M  V30 8321 H 772.906 -3.33639 -1.51924 0
M  V30 8322 H 772.554 -3.07403 -3.98136 0
M  V30 8323 H 772.254 -4.7504 -3.45848 0
M  V30 8324 H 773.778 -4.33956 -4.29552 0
M  V30 8325 H 775.192 -5.28201 -2.22883 0
M  V30 8326 H 773.589 -5.7799 -1.61394 0
M  V30 8327 H 774.659 -4.81396 -0.581918 0
M  V30 8328 N 776.003 0.335068 -1.53997 0
M  V30 8329 C 776.95 1.41187 -1.82579 0
M  V30 8330 C 777.92 1.51897 -0.672061 0
M  V30 8331 O 779.105 1.673 -0.917346 0
M  V30 8332 C 776.245 2.77717 -2.0486 0
M  V30 8333 C 775.358 2.7573 -3.32561 0
M  V30 8334 C 774.493 4.04032 -3.44864 0
M  V30 8335 C 773.532 3.96308 -4.66483 0
M  V30 8336 N 772.669 5.16317 -4.75774 0
M  V30 8337 H 777.509 1.16113 -2.74448 0
M  V30 8338 H 775.046 0.562305 -1.35928 0
M  V30 8339 H 777.004 3.57071 -2.15768 0
M  V30 8340 H 775.634 3.01124 -1.16294 0
M  V30 8341 H 774.686 1.88432 -3.3045 0
M  V30 8342 H 775.998 2.65902 -4.22016 0
M  V30 8343 H 775.152 4.91814 -3.55251 0
M  V30 8344 H 773.891 4.16652 -2.53481 0
M  V30 8345 H 772.896 3.06911 -4.56164 0
M  V30 8346 H 774.121 3.85263 -5.5924 0
M  V30 8347 H 772.067 5.29464 -3.87303 0
M  V30 8348 H 771.984 5.08779 -5.59178 0
M  V30 8349 H 773.252 6.05846 -4.9048 0
M  V30 8350 N 777.481 1.45874 0.596531 0
M  V30 8351 C 778.706 1.54247 1.38646 0
M  V30 8352 C 779.131 0.179571 1.87241 0
M  V30 8353 O 778.489 -0.837831 1.6078 0
M  V30 8354 C 778.537 2.54015 2.55946 0
M  V30 8355 O 777.641 2.06561 3.5694 0
M  V30 8356 H 776.982 0.519555 0.413471 0
M  V30 8357 H 779.512 1.91327 0.724936 0
M  V30 8358 H 779.522 2.73179 3.03047 0
M  V30 8359 H 778.197 3.52994 2.19928 0
M  V30 8360 H 776.774 1.97324 3.16414 0
M  V30 8361 N 778.959 -0.83999 1.33349 0
M  V30 8362 C 779.922 -1.93128 1.23426 0
M  V30 8363 C 780.922 -1.60065 0.153599 0
M  V30 8364 O 782.112 -1.69425 0.405049 0
M  V30 8365 C 779.244 -3.28761 0.901622 0
M  V30 8366 H 780.437 -2.03352 2.20427 0
M  V30 8367 H 777.99 -1.03194 1.17391 0
M  V30 8368 H 778.725 -3.24233 -0.0659337 0
M  V30 8369 H 778.51 -3.54138 1.68311 0
M  V30 8370 H 780 -4.08714 0.856913 0
M  V30 8371 N 780.437 -1.16799 -1.0581 0
M  V30 8372 C 781.853 -0.913935 -1.30841 0
M  V30 8373 C 782.053 0.430439 -1.96849 0
M  V30 8374 O 781.109 1.16885 -2.23817 0
M  V30 8375 C 782.422 -2.06662 -2.18429 0
M  V30 8376 C 783.97 -2.10294 -2.31831 0
M  V30 8377 C 784.445 -3.2493 -3.22776 0
M  V30 8378 N 785.936 -3.24678 -3.30361 0
M  V30 8379 C 786.671 -4.10021 -4.00837 0
M  V30 8380 N 786.167 -5.05461 -4.73795 0
M  V30 8381 N 787.96 -3.97991 -3.96937 0
M  V30 8382 H 780.111 -2.03343 -0.613613 0
M  V30 8383 H 782.374 -0.88754 -0.333133 0
M  V30 8384 H 782.08 -3.03791 -1.77211 0
M  V30 8385 H 781.954 -2.01233 -3.19038 0
M  V30 8386 H 784.341 -1.13754 -2.72294 0
M  V30 8387 H 784.422 -2.19786 -1.30873 0
M  V30 8388 H 784.066 -4.21731 -2.83028 0
M  V30 8389 H 783.996 -3.12674 -4.23725 0
M  V30 8390 H 786.487 -2.55573 -2.78372 0
M  V30 8391 H 786.8 -5.66989 -5.25113 0
M  V30 8392 H 785.145 -5.09436 -4.72758 0
M  V30 8393 H 788.336 -3.2273 -3.39062 0
M  V30 8394 H 788.509 -4.64722 -4.51594 0
M  V30 8395 N 781.915 1.24427 -0.967243 0
M  V30 8396 C 782.845 2.2773 -0.515899 0
M  V30 8397 C 783.826 1.64197 0.444227 0
M  V30 8398 O 785.011 1.91193 0.340451 0
M  V30 8399 C 782.141 3.46751 0.195149 0
M  V30 8400 C 781.095 4.22548 -0.680953 0
M  V30 8401 C 780.421 5.34456 0.161561 0
M  V30 8402 C 781.721 4.83914 -1.96532 0
M  V30 8403 H 783.415 2.65735 -1.37933 0
M  V30 8404 H 780.961 1.27742 -0.664681 0
M  V30 8405 H 782.914 4.18153 0.522117 0
M  V30 8406 H 781.638 3.07771 1.09292 0
M  V30 8407 H 780.297 3.52946 -0.991186 0
M  V30 8408 H 779.945 4.91716 1.05947 0
M  V30 8409 H 779.645 5.86087 -0.421418 0
M  V30 8410 H 781.169 6.08685 0.483211 0
M  V30 8411 H 782.583 5.47392 -1.70396 0
M  V30 8412 H 780.98 5.45775 -2.49499 0
M  V30 8413 H 782.05 4.05393 -2.66053 0
M  V30 8414 N 783.393 0.737304 1.3929 0
M  V30 8415 C 784.64 0.286257 2.00467 0
M  V30 8416 C 784.968 -1.1272 1.58507 0
M  V30 8417 O 784.223 -1.7832 0.806257 0
M  V30 8418 C 784.522 0.338438 3.55794 0
M  V30 8419 C 784.188 1.70524 4.17411 0
M  V30 8420 C 782.85 2.07934 4.33955 0
M  V30 8421 C 785.202 2.60256 4.51571 0
M  V30 8422 C 782.53 3.34578 4.81948 0
M  V30 8423 C 784.882 3.86275 5.00974 0
M  V30 8424 C 783.546 4.23774 5.15725 0
M  V30 8425 H 782.816 0.104749 0.733559 0
M  V30 8426 H 785.463 0.944598 1.66582 0
M  V30 8427 H 783.768 -0.403478 3.89717 0
M  V30 8428 H 785.465 -0.0287255 4.0099 0
M  V30 8429 H 782.055 1.40439 4.04938 0
M  V30 8430 H 786.239 2.32624 4.38406 0
M  V30 8431 H 781.495 3.63572 4.91554 0
M  V30 8432 H 785.669 4.5596 5.26378 0
M  V30 8433 H 783.296 5.21972 5.52674 0
M  V30 8434 N 784.871 -1.49948 0.485112 0
M  V30 8435 C 786.101 -2.06506 -0.0621921 0
M  V30 8436 C 786.509 -1.34756 -1.32806 0
M  V30 8437 O 785.852 -0.41466 -1.78959 0
M  V30 8438 C 785.914 -3.57243 -0.402182 0
M  V30 8439 C 785.578 -4.50574 0.763671 0
M  V30 8440 C 786.575 -4.93032 1.6497 0
M  V30 8441 C 784.26 -4.9308 0.957973 0
M  V30 8442 C 786.254 -5.76718 2.71432 0
M  V30 8443 C 783.941 -5.76546 2.0258 0
M  V30 8444 C 784.939 -6.18267 2.90232 0
M  V30 8445 O 784.627 -7.00066 3.95174 0
M  V30 8446 H 784.359 -0.675925 0.0100672 0
M  V30 8447 H 786.913 -1.93922 0.677023 0
M  V30 8448 H 785.143 -3.6778 -1.19478 0
M  V30 8449 H 786.832 -3.96107 -0.886219 0
M  V30 8450 H 787.598 -4.60851 1.51134 0
M  V30 8451 H 783.477 -4.60117 0.285144 0
M  V30 8452 H 787.021 -6.09203 3.39878 0
M  V30 8453 H 782.918 -6.0814 2.16417 0
M  V30 8454 H 783.686 -7.18343 3.92333 0
M  V30 8455 N 786.349 -0.21828 -1.56081 0
M  V30 8456 C 787.626 0.463143 -1.90038 0
M  V30 8457 C 788.006 1.77982 -1.13515 0
M  V30 8458 O 787.354 2.27199 -0.24345 0
M  V30 8459 C 787.564 0.659292 -3.42716 0
M  V30 8460 C 788.912 0.968203 -4.13414 0
M  V30 8461 O 789.936 0.746195 -3.48296 0
M  V30 8462 O 788.795 1.38936 -5.28544 0
M  V30 8463 H 785.889 0.244435 -0.790051 0
M  V30 8464 H 788.435 -0.260221 -1.67693 0
M  V30 8465 H 787.207 -0.269584 -3.9037 0
M  V30 8466 H 786.83 1.43426 -3.7083 0
M  V30 8467 N 787.827 1.57504 0.0551401 0
M  V30 8468 C 789.076 1.87237 0.750009 0
M  V30 8469 C 789.389 0.813268 1.77891 0
M  V30 8470 O 790.595 0.99898 2.52453 0
M  V30 8471 C 789.051 3.32187 1.38491 0
M  V30 8472 C 788.659 4.46267 0.393707 0
M  V30 8473 C 790.403 3.71101 2.06117 0
M  V30 8474 C 788.31 5.82265 1.03547 0
M  V30 8475 H 787.24 0.698524 0.283866 0
M  V30 8476 H 789.891 1.835 0.00365997 0
M  V30 8477 H 788.273 3.30588 2.18008 0
M  V30 8478 H 789.447 4.59289 -0.372865 0
M  V30 8479 H 787.762 4.16015 -0.17902 0
M  V30 8480 H 790.359 4.70012 2.54937 0
M  V30 8481 H 790.702 3.01751 2.86796 0
M  V30 8482 H 791.235 3.74762 1.33409 0
M  V30 8483 H 787.974 6.54949 0.268644 0
M  V30 8484 H 787.494 5.73012 1.7725 0
M  V30 8485 H 789.173 6.28148 1.55047 0
M  V30 8486 N 789.305 -0.326896 1.54172 0
M  V30 8487 C 790.53 -1.08924 1.76494 0
M  V30 8488 C 790.955 -1.81039 0.510523 0
M  V30 8489 O 790.313 -1.73141 -0.537756 0
M  V30 8490 C 790.361 -2.06558 2.95578 0
M  V30 8491 O 789.465 -3.14394 2.6689 0
M  V30 8492 H 788.806 -0.314216 0.584948 0
M  V30 8493 H 791.336 -0.372207 2.01186 0
M  V30 8494 H 791.346 -2.49487 3.22832 0
M  V30 8495 H 790.021 -1.53469 3.86549 0
M  V30 8496 H 788.598 -2.76164 2.50576 0
M  V30 8497 N 790.784 -1.46188 -0.588786 0
M  V30 8498 C 791.694 -1.58865 -1.72624 0
M  V30 8499 C 792.71 -0.472348 -1.67466 0
M  V30 8500 O 793.886 -0.735638 -1.87484 0
M  V30 8501 C 790.951 -1.56989 -3.0912 0
M  V30 8502 C 790.012 -2.79804 -3.25589 0
M  V30 8503 C 789.245 -2.78009 -4.55573 0
M  V30 8504 O 789.468 -1.86406 -5.39082 0
M  V30 8505 O 788.402 -3.6947 -4.75159 0
M  V30 8506 H 792.228 -2.55047 -1.64878 0
M  V30 8507 H 789.813 -1.28912 -0.755115 0
M  V30 8508 H 791.695 -1.58618 -3.90408 0
M  V30 8509 H 790.37 -0.639648 -3.17317 0
M  V30 8510 H 789.277 -2.83732 -2.43818 0
M  V30 8511 H 790.61 -3.72017 -3.22279 0
M  V30 8512 N 792.262 0.832906 -1.33792 0
M  V30 8513 C 793.209 1.94314 -1.24541 0
M  V30 8514 C 794.179 1.65646 -0.122753 0
M  V30 8515 O 795.364 1.88394 -0.30204 0
M  V30 8516 C 792.504 3.30395 -0.996641 0
M  V30 8517 C 791.617 3.71422 -2.20612 0
M  V30 8518 C 790.752 4.96401 -1.89101 0
M  V30 8519 C 789.791 5.2998 -3.06247 0
M  V30 8520 N 788.928 6.46137 -2.74685 0
M  V30 8521 H 793.768 2.01559 -2.19495 0
M  V30 8522 H 791.305 0.986243 -1.09141 0
M  V30 8523 H 793.263 4.08803 -0.832817 0
M  V30 8524 H 791.893 3.22691 -0.0838242 0
M  V30 8525 H 790.945 2.88488 -2.47949 0
M  V30 8526 H 792.257 3.92215 -3.0817 0
M  V30 8527 H 791.411 5.82572 -1.69396 0
M  V30 8528 H 790.15 4.7759 -0.987882 0
M  V30 8529 H 789.155 4.42312 -3.26559 0
M  V30 8530 H 790.38 5.50737 -3.97323 0
M  V30 8531 H 788.326 6.28801 -1.86938 0
M  V30 8532 H 788.243 6.67054 -3.55774 0
M  V30 8533 H 789.511 7.35403 -2.58461 0
M  V30 8534 N 793.74 1.17359 1.05189 0
M  V30 8535 C 794.703 0.892604 2.11105 0
M  V30 8536 C 795.703 -0.117236 1.60372 0
M  V30 8537 O 796.893 0.114936 1.7382 0
M  V30 8538 C 794.025 0.337032 3.3923 0
M  V30 8539 H 795.218 1.83169 2.37464 0
M  V30 8540 H 792.771 0.984051 1.21434 0
M  V30 8541 H 793.506 -0.609198 3.18527 0
M  V30 8542 H 793.291 1.06484 3.77364 0
M  V30 8543 H 794.781 0.158763 4.17298 0
M  V30 8544 N 795.218 -1.23913 0.973828 0
M  V30 8545 C 796.634 -1.44325 0.681363 0
M  V30 8546 C 796.834 -1.86832 -0.754728 0
M  V30 8547 O 795.89 -2.01024 -1.52793 0
M  V30 8548 C 797.203 -2.50017 1.67069 0
M  V30 8549 C 798.751 -2.63838 1.68399 0
M  V30 8550 C 799.226 -3.72734 2.66145 0
M  V30 8551 N 800.717 -3.80169 2.64624 0
M  V30 8552 C 801.452 -4.6397 3.36927 0
M  V30 8553 N 800.948 -5.51911 4.18767 0
M  V30 8554 N 802.741 -4.58106 3.25722 0
M  V30 8555 H 794.892 -0.946204 1.9016 0
M  V30 8556 H 797.155 -0.477374 0.819035 0
M  V30 8557 H 796.861 -2.25686 2.69738 0
M  V30 8558 H 796.735 -3.48287 1.4483 0
M  V30 8559 H 799.122 -2.87524 0.664379 0
M  V30 8560 H 799.203 -1.65906 1.94702 0
M  V30 8561 H 798.847 -3.49797 3.68245 0
M  V30 8562 H 798.777 -4.70193 2.3712 0
M  V30 8563 H 801.268 -3.17319 2.05224 0
M  V30 8564 H 801.581 -6.12828 4.70809 0
M  V30 8565 H 799.926 -5.51556 4.2286 0
M  V30 8566 H 803.117 -3.8842 2.61242 0
M  V30 8567 H 803.29 -5.23188 3.82333 0
M  V30 8568 N 796.696 -0.74468 -1.38897 0
M  V30 8569 C 798.112 -0.421302 -1.53939 0
M  V30 8570 C 798.312 1.06668 -1.70951 0
M  V30 8571 O 797.368 1.85278 -1.71547 0
M  V30 8572 C 798.681 -1.21278 -2.75159 0
M  V30 8573 C 800.229 -1.20196 -2.89001 0
M  V30 8574 C 800.704 -1.97621 -4.13171 0
M  V30 8575 N 802.195 -1.94836 -4.2023 0
M  V30 8576 C 802.93 -2.51545 -5.15279 0
M  V30 8577 N 802.426 -3.1693 -6.16058 0
M  V30 8578 N 804.219 -2.41524 -5.07565 0
M  V30 8579 H 796.37 -1.70914 -1.26103 0
M  V30 8580 H 798.633 -0.724058 -0.611919 0
M  V30 8581 H 798.339 -2.26609 -2.68963 0
M  V30 8582 H 798.213 -0.823677 -3.68097 0
M  V30 8583 H 800.6 -0.156742 -2.94683 0
M  V30 8584 H 800.681 -1.63051 -1.97099 0
M  V30 8585 H 800.325 -3.02149 -4.0825 0
M  V30 8586 H 800.255 -1.52166 -5.04136 0
M  V30 8587 H 802.746 -1.4721 -3.48048 0
M  V30 8588 H 803.059 -3.57644 -6.85062 0
M  V30 8589 H 801.404 -3.21023 -6.16417 0
M  V30 8590 H 804.595 -1.90077 -4.27771 0
M  V30 8591 H 804.768 -2.86016 -5.81462 0
M  V30 8592 N 798.174 1.49689 -0.493057 0
M  V30 8593 C 799.423 2.01622 0.0560733 0
M  V30 8594 C 799.736 1.37838 1.3878 0
M  V30 8595 O 800.942 1.81054 2.02316 0
M  V30 8596 C 799.398 3.59586 0.150409 0
M  V30 8597 C 799.006 4.32338 -1.1742 0
M  V30 8598 C 800.75 4.19489 0.650327 0
M  V30 8599 C 798.657 5.8214 -1.04246 0
M  V30 8600 H 797.587 0.753594 0.0247297 0
M  V30 8601 H 800.238 1.723 -0.631279 0
M  V30 8602 H 798.62 3.8559 0.902035 0
M  V30 8603 H 799.794 4.18042 -1.9385 0
M  V30 8604 H 798.109 3.84144 -1.60694 0
M  V30 8605 H 800.706 5.29181 0.766272 0
M  V30 8606 H 801.049 3.82326 1.6472 0
M  V30 8607 H 801.582 3.97775 -0.0445371 0
M  V30 8608 H 798.321 6.23814 -2.01336 0
M  V30 8609 H 797.841 5.98952 -0.31892 0
M  V30 8610 H 799.52 6.43004 -0.717957 0
M  V30 8611 N 799.652 0.226554 1.55963 0
M  V30 8612 C 800.898 -0.404387 1.98727 0
M  V30 8613 C 801.231 -1.59059 1.11418 0
M  V30 8614 O 800.506 -1.93729 0.172971 0
M  V30 8615 C 800.789 -0.834081 3.50307 0
M  V30 8616 C 800.642 0.356104 4.48388 0
M  V30 8617 C 801.961 -1.68845 4.06423 0
M  V30 8618 H 799.08 -0.145515 0.722492 0
M  V30 8619 H 801.722 0.323791 1.87221 0
M  V30 8620 H 799.872 -1.45454 3.60244 0
M  V30 8621 H 801.544 0.99432 4.50456 0
M  V30 8622 H 799.787 1.0027 4.22053 0
M  V30 8623 H 800.458 0.0124333 5.51999 0
M  V30 8624 H 802.934 -1.16489 3.99461 0
M  V30 8625 H 801.81 -1.958 5.1279 0
M  V30 8626 H 802.071 -2.65347 3.53615 0
M  V30 8627 N 801.13 -1.57531 -0.0467866 0
M  V30 8628 C 802.04 -2.08768 -1.07018 0
M  V30 8629 C 803.056 -1.02245 -1.40791 0
M  V30 8630 O 804.232 -1.33873 -1.50466 0
M  V30 8631 C 801.297 -2.54221 -2.35738 0
M  V30 8632 C 800.358 -3.75152 -2.08709 0
M  V30 8633 C 799.591 -4.18428 -3.31291 0
M  V30 8634 O 799.814 -3.61365 -4.4133 0
M  V30 8635 O 798.748 -5.11018 -3.18032 0
M  V30 8636 H 802.574 -2.96334 -0.664812 0
M  V30 8637 H 800.159 -1.47074 -0.262605 0
M  V30 8638 H 802.041 -2.83866 -3.11445 0
M  V30 8639 H 800.716 -1.69774 -2.75605 0
M  V30 8640 H 799.623 -3.50553 -1.30627 0
M  V30 8641 H 800.956 -4.60528 -1.73708 0
M  V30 8642 N 802.608 0.318715 -1.54344 0
M  V30 8643 C 803.833 1.07987 -1.77069 0
M  V30 8644 C 804.258 1.80766 -0.520117 0
M  V30 8645 O 803.616 1.73424 0.528566 0
M  V30 8646 C 803.664 2.04987 -2.96669 0
M  V30 8647 O 802.768 3.12974 -2.68554 0
M  V30 8648 H 802.109 0.311109 -0.586606 0
M  V30 8649 H 804.639 0.361533 -2.0138 0
M  V30 8650 H 804.649 2.47771 -3.2415 0
M  V30 8651 H 803.324 1.51417 -3.87357 0
M  V30 8652 H 801.901 2.74831 -2.52037 0
M  V30 8653 N 804.086 1.46499 0.581025 0
M  V30 8654 C 805.316 1.55244 1.36319 0
M  V30 8655 C 805.724 0.193059 1.88212 0
M  V30 8656 O 805.067 -0.820109 1.64377 0
M  V30 8657 C 805.129 2.498 2.58535 0
M  V30 8658 C 804.793 3.96007 2.28096 0
M  V30 8659 C 805.79 4.85171 1.8683 0
M  V30 8660 C 803.475 4.41152 2.40189 0
M  V30 8661 C 805.469 6.17493 1.58053 0
M  V30 8662 C 803.156 5.73508 2.11024 0
M  V30 8663 C 804.154 6.615 1.70021 0
M  V30 8664 O 803.842 7.914 1.41215 0
M  V30 8665 H 803.574 0.527513 0.422736 0
M  V30 8666 H 806.128 1.92623 0.713139 0
M  V30 8667 H 804.358 2.07443 3.2635 0
M  V30 8668 H 806.047 2.48934 3.20604 0
M  V30 8669 H 806.813 4.51548 1.77001 0
M  V30 8670 H 802.692 3.72886 2.71066 0
M  V30 8671 H 806.236 6.86131 1.25974 0
M  V30 8672 H 802.133 6.06679 2.20478 0
M  V30 8673 H 802.901 8.03681 1.55046 0
M  V30 8674 N 805.565 -0.825799 1.34232 0
M  V30 8675 C 806.812 -1.58185 1.26427 0
M  V30 8676 C 807.14 -1.93786 -0.166533 0
M  V30 8677 O 806.395 -1.59986 -1.12707 0
M  V30 8678 C 806.694 -2.89362 2.09772 0
M  V30 8679 C 806.36 -2.73066 3.58812 0
M  V30 8680 C 805.022 -2.68329 3.99441 0
M  V30 8681 C 807.374 -2.56946 4.53462 0
M  V30 8682 C 804.702 -2.4539 5.32917 0
M  V30 8683 C 807.054 -2.35538 5.87115 0
M  V30 8684 C 805.718 -2.29212 6.26912 0
M  V30 8685 H 804.988 -0.57884 0.462629 0
M  V30 8686 H 807.635 -0.955714 1.65947 0
M  V30 8687 H 805.94 -3.56251 1.63071 0
M  V30 8688 H 807.637 -3.4694 2.01081 0
M  V30 8689 H 804.227 -2.77591 3.26559 0
M  V30 8690 H 808.411 -2.59631 4.22972 0
M  V30 8691 H 803.667 -2.38947 5.62774 0
M  V30 8692 H 807.841 -2.22051 6.6005 0
M  V30 8693 H 805.468 -2.11197 7.30274 0
M  V30 8694 N 807.043 -1.17915 -1.04565 0
M  V30 8695 C 807.976 -0.845021 -2.11978 0
M  V30 8696 C 808.954 0.19089 -1.61476 0
M  V30 8697 O 810.138 0.0709905 -1.88366 0
M  V30 8698 C 807.265 -0.261657 -3.37688 0
M  V30 8699 C 806.311 -1.27396 -4.07029 0
M  V30 8700 S 807.144 -2.82783 -4.54746 0
M  V30 8701 C 808.3 -2.25944 -5.83695 0
M  V30 8702 H 808.533 -1.75472 -2.39993 0
M  V30 8703 H 806.066 -1.00447 -1.17259 0
M  V30 8704 H 808.024 0.0684257 -4.10443 0
M  V30 8705 H 806.685 0.626082 -3.07797 0
M  V30 8706 H 805.878 -0.814557 -4.97374 0
M  V30 8707 H 805.48 -1.55002 -3.40368 0
M  V30 8708 H 807.772 -1.63892 -6.57378 0
M  V30 8709 H 808.715 -3.14569 -6.34391 0
M  V30 8710 H 809.123 -1.69155 -5.3856 0
M  V30 8711 N 808.521 1.23394 -0.980386 0
M  V30 8712 C 809.451 2.2717 -0.540024 0
M  V30 8713 C 810.432 1.64659 0.426787 0
M  V30 8714 O 811.617 1.91543 0.320153 0
M  V30 8715 C 808.747 3.46939 0.15836 0
M  V30 8716 C 807.701 4.21802 -0.725732 0
M  V30 8717 C 807.027 5.34597 0.104866 0
M  V30 8718 C 808.327 4.81802 -2.01654 0
M  V30 8719 H 810.021 2.64257 -1.40743 0
M  V30 8720 H 807.567 1.2703 -0.678193 0
M  V30 8721 H 809.52 4.18683 0.477737 0
M  V30 8722 H 808.244 3.08912 1.06022 0
M  V30 8723 H 806.903 3.51875 -1.02857 0
M  V30 8724 H 806.551 4.92812 1.00726 0
M  V30 8725 H 806.251 5.85607 -0.483557 0
M  V30 8726 H 807.775 6.09163 0.418624 0
M  V30 8727 H 809.189 5.45554 -1.76193 0
M  V30 8728 H 807.586 5.43098 -2.55273 0
M  V30 8729 H 808.656 4.02549 -2.70338 0
M  V30 8730 N 809.999 0.752036 1.385 0
M  V30 8731 C 810.947 0.112634 2.32327 0
M  V30 8732 C 811.941 -0.707037 1.53939 0
M  V30 8733 O 813.147 -0.606309 1.69481 0
M  V30 8734 H 809.522 0.0176275 0.751793 0
M  V30 8735 H 811.493 0.920074 2.83861 0
M  V30 8736 C 810.242 -0.767458 3.39124 0
M  V30 8737 H 809.565 -0.146122 3.99533 0
M  V30 8738 H 811.005 -1.18216 4.07187 0
M  V30 8739 C 809.464 -1.90938 2.77568 0
M  V30 8740 O 809.994 -3.00342 2.66754 0
M  V30 8741 N 808.2 -1.70396 2.35401 0
M  V30 8742 H 807.747 -0.81413 2.44397 0
M  V30 8743 H 807.705 -2.46972 1.94557 0
M  V30 8744 N 811.477 -1.49425 0.500989 0
M  V30 8745 C 812.702 -2.07356 -0.0425154 0
M  V30 8746 C 813.127 -1.35887 -1.30063 0
M  V30 8747 O 812.485 -0.41561 -1.76472 0
M  V30 8748 C 812.533 -3.59518 -0.279188 0
M  V30 8749 O 811.637 -3.89542 -1.3539 0
M  V30 8750 H 810.978 -0.663482 0.0262207 0
M  V30 8751 H 813.508 -1.92231 0.700607 0
M  V30 8752 H 813.518 -4.04791 -0.5107 0
M  V30 8753 H 812.193 -4.10946 0.640009 0
M  V30 8754 H 810.77 -3.56079 -1.10734 0
M  V30 8755 N 812.955 -0.234822 -1.55841 0
M  V30 8756 C 814.183 0.397745 -2.03041 0
M  V30 8757 C 814.598 1.52405 -1.11437 0
M  V30 8758 O 813.955 1.82061 -0.126466 0
M  V30 8759 C 814.006 0.916919 -3.49678 0
M  V30 8760 O 813.727 -0.164493 -4.37791 0
M  V30 8761 C 815.228 1.62139 -4.12584 0
M  V30 8762 H 812.448 0.0959214 -0.664108 0
M  V30 8763 H 814.992 -0.355156 -2.01392 0
M  V30 8764 H 813.147 1.62004 -3.519 0
M  V30 8765 H 813.561 0.227794 -5.24005 0
M  V30 8766 H 815.035 1.93651 -5.16917 0
M  V30 8767 H 815.512 2.53918 -3.58361 0
M  V30 8768 H 816.118 0.963145 -4.14251 0
M  V30 8769 N 814.433 1.57553 0.0384317 0
M  V30 8770 C 815.363 2.0898 1.04161 0
M  V30 8771 C 816.344 0.99029 1.38301 0
M  V30 8772 O 817.529 1.26499 1.47349 0
M  V30 8773 C 814.659 2.56145 2.34536 0
M  V30 8774 C 813.613 3.70275 2.14663 0
M  V30 8775 C 812.939 4.03612 3.50715 0
M  V30 8776 C 814.239 4.99067 1.54045 0
M  V30 8777 H 815.933 2.93046 0.613548 0
M  V30 8778 H 813.479 1.40973 0.293684 0
M  V30 8779 H 815.432 2.90741 3.05037 0
M  V30 8780 H 814.156 1.6915 2.79385 0
M  V30 8781 H 812.815 3.36013 1.46597 0
M  V30 8782 H 812.463 3.13698 3.93195 0
M  V30 8783 H 812.163 4.80482 3.38247 0
M  V30 8784 H 813.687 4.40735 4.22593 0
M  V30 8785 H 815.101 5.3168 2.14451 0
M  V30 8786 H 813.498 5.80484 1.52178 0
M  V30 8787 H 814.568 4.8226 0.505259 0
M  V30 8788 N 815.911 -0.310526 1.54511 0
M  V30 8789 C 817.141 -1.06456 1.77061 0
M  V30 8790 C 817.549 -1.81755 0.525528 0
M  V30 8791 O 816.892 -1.76365 -0.513904 0
M  V30 8792 C 816.954 -2.09856 2.91892 0
M  V30 8793 C 816.618 -1.53838 4.30329 0
M  V30 8794 C 817.615 -0.973358 5.10707 0
M  V30 8795 C 815.3 -1.57688 4.76906 0
M  V30 8796 C 817.294 -0.454283 6.35779 0
M  V30 8797 C 814.981 -1.05393 6.01943 0
M  V30 8798 C 815.979 -0.493595 6.81214 0
M  V30 8799 O 815.667 0.0214506 8.03897 0
M  V30 8800 H 815.399 -0.321913 0.594431 0
M  V30 8801 H 817.953 -0.358289 2.02251 0
M  V30 8802 H 816.183 -2.84137 2.62304 0
M  V30 8803 H 817.872 -2.71085 3.02106 0
M  V30 8804 H 818.638 -0.936588 4.75871 0
M  V30 8805 H 814.517 -2.00242 4.1524 0
M  V30 8806 H 818.061 -0.0162657 6.97598 0
M  V30 8807 H 813.958 -1.08782 6.36268 0
M  V30 8808 H 814.726 -0.0927478 8.18447 0
M  V30 8809 N 817.389 -1.46805 -0.573248 0
M  V30 8810 C 818.636 -1.52604 -1.3311 0
M  V30 8811 C 818.964 -0.181633 -1.9365 0
M  V30 8812 O 818.219 0.823775 -1.77517 0
M  V30 8813 C 818.518 -2.58001 -2.47326 0
M  V30 8814 C 818.184 -4.01747 -2.04719 0
M  V30 8815 C 816.846 -4.40881 -1.92814 0
M  V30 8816 C 819.198 -4.92008 -1.71982 0
M  V30 8817 C 816.526 -5.68129 -1.46445 0
M  V30 8818 C 818.878 -6.19703 -1.27089 0
M  V30 8819 C 817.542 -6.57733 -1.13768 0
M  V30 8820 H 816.812 -0.558417 -0.487084 0
M  V30 8821 H 819.459 -1.80327 -0.644538 0
M  V30 8822 H 817.764 -2.23974 -3.2147 0
M  V30 8823 H 819.461 -2.59715 -3.05531 0
M  V30 8824 H 816.051 -3.70819 -2.14922 0
M  V30 8825 H 820.235 -4.62485 -1.8006 0
M  V30 8826 H 815.491 -5.96359 -1.34783 0
M  V30 8827 H 819.665 -6.89064 -1.00814 0
M  V30 8828 H 817.292 -7.56228 -0.776142 0
M  V30 8829 N 818.867 0.818669 -1.34668 0
M  V30 8830 C 820.092 1.61193 -1.30505 0
M  V30 8831 C 820.517 1.87734 0.117341 0
M  V30 8832 O 819.875 1.45591 1.08042 0
M  V30 8833 C 819.923 2.92733 -2.1057 0
M  V30 8834 O 819.027 3.85 -1.47813 0
M  V30 8835 H 818.368 0.490085 -0.44801 0
M  V30 8836 H 820.898 1.01701 -1.77534 0
M  V30 8837 H 820.908 3.42262 -2.22082 0
M  V30 8838 H 819.583 2.7274 -3.13984 0
M  V30 8839 H 818.16 3.43525 -1.45069 0
M  V30 8840 N 820.346 1.18468 1.03938 0
M  V30 8841 C 821.576 1.0043 1.80547 0
M  V30 8842 C 821.984 -0.450407 1.83761 0
M  V30 8843 O 821.327 -1.32463 1.27276 0
M  V30 8844 C 821.389 1.48437 3.27424 0
M  V30 8845 C 821.053 2.96372 3.47869 0
M  V30 8846 C 822.05 3.94217 3.38953 0
M  V30 8847 C 819.735 3.34831 3.74424 0
M  V30 8848 C 821.729 5.28517 3.56298 0
M  V30 8849 C 819.416 4.69294 3.91416 0
M  V30 8850 C 820.414 5.65946 3.82354 0
M  V30 8851 O 820.102 6.97974 3.98858 0
M  V30 8852 H 819.834 0.354853 0.575374 0
M  V30 8853 H 822.388 1.57473 1.31876 0
M  V30 8854 H 820.618 0.857601 3.7707 0
M  V30 8855 H 822.307 1.2677 3.85596 0
M  V30 8856 H 823.073 3.6585 3.184 0
M  V30 8857 H 818.952 2.60161 3.80575 0
M  V30 8858 H 822.496 6.03943 3.49141 0
M  V30 8859 H 818.393 4.97361 4.11463 0
M  V30 8860 H 819.161 7.04895 4.1601 0
M  V30 8861 N 821.824 -1.22873 0.986916 0
M  V30 8862 C 823.052 -1.95487 0.677663 0
M  V30 8863 C 823.467 -1.72978 -0.756572 0
M  V30 8864 O 822.824 -1.02517 -1.50985 0
M  V30 8865 C 822.875 -3.48337 0.966638 0
M  V30 8866 O 822.596 -3.70087 2.34451 0
M  V30 8867 C 824.097 -4.38142 0.674248 0
M  V30 8868 H 821.317 -0.622211 0.251185 0
M  V30 8869 H 823.861 -1.56187 1.32007 0
M  V30 8870 H 822.016 -3.85628 0.370137 0
M  V30 8871 H 822.43 -4.64332 2.43918 0
M  V30 8872 H 823.904 -5.44165 0.926759 0
M  V30 8873 H 824.381 -4.3745 -0.391728 0
M  V30 8874 H 824.987 -4.06469 1.25152 0
M  V30 8875 N 823.302 -0.75937 -1.38099 0
M  V30 8876 C 824.252 -0.111098 -2.27729 0
M  V30 8877 C 825.236 0.687161 -1.45489 0
M  V30 8878 O 826.428 0.552167 -1.68167 0
M  V30 8879 C 823.557 0.776809 -3.34396 0
M  V30 8880 C 822.643 -0.0286108 -4.2409 0
M  V30 8881 N 823.034 -1.06797 -4.94397 0
M  V30 8882 C 821.332 0.197307 -4.45563 0
M  V30 8883 C 822.033 -1.55576 -5.6051 0
M  V30 8884 N 821.009 -0.870059 -5.36592 0
M  V30 8885 H 824.811 -0.907047 -2.79553 0
M  V30 8886 H 822.325 -0.595954 -1.5107 0
M  V30 8887 H 824.322 1.25691 -3.97502 0
M  V30 8888 H 822.982 1.57164 -2.84129 0
M  V30 8889 H 823.993 -1.44988 -4.97191 0
M  V30 8890 H 820.67 0.965028 -4.06194 0
M  V30 8891 H 822.06 -2.42184 -6.26735 0
M  V30 8892 N 824.78 1.49157 -0.508906 0
M  V30 8893 C 825.713 2.26056 0.312103 0
M  V30 8894 C 826.691 1.30982 0.963456 0
M  V30 8895 O 827.875 1.60286 0.992002 0
M  V30 8896 C 825.002 3.06555 1.4402 0
M  V30 8897 C 824.048 4.16844 0.902414 0
M  V30 8898 S 824.881 5.35076 -0.213087 0
M  V30 8899 C 826.037 6.19132 0.917985 0
M  V30 8900 H 826.27 2.95343 -0.340559 0
M  V30 8901 H 823.803 1.51569 -0.294331 0
M  V30 8902 H 825.761 3.53517 2.08653 0
M  V30 8903 H 824.422 2.36722 2.0645 0
M  V30 8904 H 823.615 4.72714 1.74806 0
M  V30 8905 H 823.217 3.72513 0.333156 0
M  V30 8906 H 825.509 6.52556 1.82145 0
M  V30 8907 H 826.452 7.06982 0.397724 0
M  V30 8908 H 826.86 5.51839 1.18889 0
M  V30 8909 N 826.258 0.243083 1.55714 0
M  V30 8910 C 827.504 -0.383287 1.99145 0
M  V30 8911 C 827.837 -1.57868 1.13098 0
M  V30 8912 O 827.112 -1.93535 0.193509 0
M  V30 8913 C 827.395 -0.796879 3.51172 0
M  V30 8914 C 827.248 0.403642 4.47985 0
M  V30 8915 C 828.567 -1.64525 4.08191 0
M  V30 8916 H 825.686 -0.137843 0.723995 0
M  V30 8917 H 828.328 0.343631 1.86867 0
M  V30 8918 H 826.478 -1.41625 3.61766 0
M  V30 8919 H 828.15 1.04204 4.49376 0
M  V30 8920 H 826.393 1.04741 4.20965 0
M  V30 8921 H 827.064 0.0709794 5.51954 0
M  V30 8922 H 829.54 -1.12246 4.00674 0
M  V30 8923 H 828.416 -1.9035 5.14838 0
M  V30 8924 H 828.677 -2.61582 3.56409 0
M  V30 8925 N 827.736 -1.57571 -0.0300757 0
M  V30 8926 C 828.976 -1.91074 -0.725946 0
M  V30 8927 C 829.34 -0.841545 -1.72575 0
M  V30 8928 O 830.541 -1.06088 -2.46979 0
M  V30 8929 C 828.812 -3.2973 -1.37888 0
M  V30 8930 S 830.371 -3.85065 -2.10405 0
M  V30 8931 H 827.189 -0.669084 -0.240515 0
M  V30 8932 H 829.791 -1.9549 0.019384 0
M  V30 8933 H 828.495 -4.05411 -0.637974 0
M  V30 8934 H 828.026 -3.28614 -2.16278 0
M  V30 8935 H 830.041 -3.63711 -3.37533 0
M  V30 8936 N 829.214 0.302327 -1.54673 0
M  V30 8937 C 830.63 0.647911 -1.45857 0
M  V30 8938 C 830.83 1.90773 -0.64869 0
M  V30 8939 O 829.886 2.52018 -0.155865 0
M  V30 8940 C 831.199 0.802144 -2.89804 0
M  V30 8941 C 832.747 0.898114 -2.99838 0
M  V30 8942 C 833.222 1.08436 -4.44978 0
M  V30 8943 N 834.713 1.15059 -4.48682 0
M  V30 8944 C 835.448 1.31296 -5.58166 0
M  V30 8945 N 834.944 1.4444 -6.77576 0
M  V30 8946 N 836.737 1.34174 -5.45851 0
M  V30 8947 H 828.888 -0.525428 -2.05798 0
M  V30 8948 H 831.151 -0.173423 -0.932002 0
M  V30 8949 H 830.857 -0.0526531 -3.51661 0
M  V30 8950 H 830.731 1.69155 -3.37145 0
M  V30 8951 H 833.118 1.7434 -2.38096 0
M  V30 8952 H 833.199 -0.0152752 -2.55795 0
M  V30 8953 H 832.843 0.243843 -5.07314 0
M  V30 8954 H 832.773 2.01195 -4.8665 0
M  V30 8955 H 835.264 1.0626 -3.62653 0
M  V30 8956 H 835.577 1.56582 -7.56771 0
M  V30 8957 H 833.922 1.41499 -6.80443 0
M  V30 8958 H 837.113 1.23516 -4.5151 0
M  V30 8959 H 837.286 1.46485 -6.31226 0
M  V30 8960 N 830.692 1.47107 0.565454 0
M  V30 8961 C 831.92 1.56909 1.3486 0
M  V30 8962 C 832.335 0.216312 1.87557 0
M  V30 8963 O 831.692 -0.789168 1.64555 0
M  V30 8964 C 831.743 2.58776 2.52423 0
M  V30 8965 O 831.464 3.888 2.01906 0
M  V30 8966 C 832.965 2.78683 3.44747 0
M  V30 8967 H 830.185 0.530096 0.411387 0
M  V30 8968 H 832.729 1.92658 0.685782 0
M  V30 8969 H 830.884 2.25983 3.1466 0
M  V30 8970 H 831.298 4.44393 2.78595 0
M  V30 8971 H 832.772 3.53842 4.23674 0
M  V30 8972 H 833.249 1.86208 3.97773 0
M  V30 8973 H 833.855 3.12641 2.88333 0
M  V30 8974 N 832.17 -0.811516 1.35101 0
M  V30 8975 C 833.133 -1.90467 1.27495 0
M  V30 8976 C 834.133 -1.59703 0.187516 0
M  V30 8977 O 835.323 -1.68528 0.440896 0
M  V30 8978 C 832.455 -3.26774 0.971154 0
M  V30 8979 H 833.648 -1.98631 2.2469 0
M  V30 8980 H 831.201 -1.00681 1.19553 0
M  V30 8981 H 831.936 -3.243 0.0028557 0
M  V30 8982 H 831.721 -3.50488 1.75785 0
M  V30 8983 H 833.211 -4.06804 0.943414 0
M  V30 8984 N 833.648 -1.19017 -1.03309 0
M  V30 8985 C 834.578 -0.94772 -2.13402 0
M  V30 8986 C 835.559 0.117383 -1.69694 0
M  V30 8987 O 836.744 -0.0367733 -1.94165 0
M  V30 8988 C 833.874 -0.480977 -3.43953 0
M  V30 8989 C 832.828 -1.48743 -4.01322 0
M  V30 8990 C 832.154 -0.877924 -5.27443 0
M  V30 8991 C 833.454 -2.86642 -4.36616 0
M  V30 8992 H 835.148 -1.86846 -2.33942 0
M  V30 8993 H 832.694 -0.899781 -1.12427 0
M  V30 8994 H 834.647 -0.298677 -4.2034 0
M  V30 8995 H 833.371 0.475348 -3.23122 0
M  V30 8996 H 832.03 -1.65681 -3.27025 0
M  V30 8997 H 831.678 0.0858232 -5.02927 0
M  V30 8998 H 831.378 -1.54996 -5.66789 0
M  V30 8999 H 832.902 -0.706326 -6.06501 0
M  V30 9000 H 834.316 -2.73312 -5.03958 0
M  V30 9001 H 832.713 -3.50599 -4.87032 0
M  V30 9002 H 833.783 -3.39617 -3.46105 0
M  V30 9003 N 835.127 1.22348 -0.993418 0
M  V30 9004 C 836.352 1.95666 -0.687727 0
M  V30 9005 C 836.777 1.72883 0.741161 0
M  V30 9006 O 836.135 1.00837 1.50671 0
M  V30 9007 C 836.183 3.46457 -0.99998 0
M  V30 9008 O 835.287 4.12281 -0.0989386 0
M  V30 9009 H 834.628 0.612102 -0.257346 0
M  V30 9010 H 837.158 1.55428 -1.33054 0
M  V30 9011 H 837.168 3.96976 -0.942035 0
M  V30 9012 H 835.843 3.62365 -2.04118 0
M  V30 9013 H 834.42 3.72295 -0.212413 0
M  V30 9014 N 836.605 0.766683 1.37694 0
M  V30 9015 C 837.853 0.328065 1.9942 0
M  V30 9016 C 838.174 -1.09775 1.61166 0
M  V30 9017 O 837.444 -1.75288 0.874686 0
M  V30 9018 H 836.024 0.11831 0.737572 0
M  V30 9019 H 838.686 0.983686 1.68255 0
M  V30 9020 H 837.782 0.401647 3.09505 0
M  V30 9021 N 838.083 -1.48885 0.516809 0
M  V30 9022 C 839.015 -2.27357 -0.290061 0
M  V30 9023 C 840.028 -1.34558 -0.916406 0
M  V30 9024 O 841.217 -1.59715 -0.797073 0
M  V30 9025 C 838.317 -3.07496 -1.42476 0
M  V30 9026 C 837.49 -4.27982 -0.902793 0
M  V30 9027 C 836.549 -4.90038 -1.91701 0
M  V30 9028 O 835.575 -5.49643 -1.47922 0
M  V30 9029 N 836.777 -4.811 -3.24843 0
M  V30 9030 H 839.542 -2.97244 0.382884 0
M  V30 9031 H 837.103 -1.58064 0.35032 0
M  V30 9032 H 839.095 -3.45882 -2.10113 0
M  V30 9033 H 837.665 -2.40115 -2.00159 0
M  V30 9034 H 836.885 -3.94167 -0.0508272 0
M  V30 9035 H 838.173 -5.06003 -0.532723 0
M  V30 9036 H 837.571 -4.33801 -3.63088 0
M  V30 9037 H 836.128 -5.23625 -3.8815 0
M  V30 9038 N 839.561 -0.251338 -1.55583 0
M  V30 9039 C 840.493 0.679167 -2.18906 0
M  V30 9040 C 841.506 1.13545 -1.16667 0
M  V30 9041 O 842.695 1.06146 -1.4351 0
M  V30 9042 C 839.795 1.93544 -2.78198 0
M  V30 9043 C 838.968 1.62987 -4.05899 0
M  V30 9044 C 838.027 2.73618 -4.49466 0
M  V30 9045 O 837.053 2.40815 -5.15749 0
M  V30 9046 N 838.255 4.03204 -4.1762 0
M  V30 9047 H 841.02 0.137328 -2.99385 0
M  V30 9048 H 838.581 -0.0714754 -1.61742 0
M  V30 9049 H 840.573 2.66804 -3.04299 0
M  V30 9050 H 839.143 2.38695 -2.0185 0
M  V30 9051 H 838.363 0.732237 -3.8734 0
M  V30 9052 H 839.651 1.40041 -4.89148 0
M  V30 9053 H 839.049 4.32686 -3.64416 0
M  V30 9054 H 837.606 4.72916 -4.48547 0
M  V30 9055 N 841.039 1.57585 0.0217189 0
M  V30 9056 C 842.316 1.80779 0.74687 0
M  V30 9057 C 842.696 0.851163 1.9318 0
M  V30 9058 O 842.044 -0.105039 2.28258 0
M  V30 9059 C 842.254 3.28696 1.17302 0
M  V30 9060 C 843.602 3.93871 1.58589 0
M  V30 9061 O 844.626 3.3289 1.2674 0
M  V30 9062 O 843.485 5.01254 2.1773 0
M  V30 9063 H 840.579 0.743666 0.361786 0
M  V30 9064 H 843.125 1.697 -0.00206785 0
M  V30 9065 H 841.897 3.89927 0.327453 0
M  V30 9066 H 841.52 3.44692 1.98174 0
M  V30 9067 N 842.517 -0.29412 1.54831 0
M  V30 9068 C 843.933 -0.640167 1.46199 0
M  V30 9069 C 844.133 -1.90426 0.658798 0
M  V30 9070 O 843.189 -2.51932 0.169228 0
M  V30 9071 C 844.502 -0.786763 2.90225 0
M  V30 9072 C 846.05 -0.882201 3.0031 0
M  V30 9073 C 846.525 -1.06074 4.45547 0
M  V30 9074 N 848.016 -1.12678 4.49286 0
M  V30 9075 C 848.751 -1.28334 5.58854 0
M  V30 9076 N 848.247 -1.40845 6.78332 0
M  V30 9077 N 850.04 -1.31277 5.46555 0
M  V30 9078 H 842.191 0.536334 2.05517 0
M  V30 9079 H 844.454 0.178363 0.93107 0
M  V30 9080 H 844.16 0.0713018 3.51628 0
M  V30 9081 H 844.034 -1.67364 3.38037 0
M  V30 9082 H 846.421 -1.73075 2.39017 0
M  V30 9083 H 846.502 0.0288405 2.55784 0
M  V30 9084 H 846.146 -0.216935 5.07437 0
M  V30 9085 H 846.076 -1.98611 4.8771 0
M  V30 9086 H 848.567 -1.04335 3.63212 0
M  V30 9087 H 848.88 -1.52566 7.57591 0
M  V30 9088 H 847.225 -1.37888 6.81184 0
M  V30 9089 H 850.416 -1.2112 4.52159 0
M  V30 9090 H 850.589 -1.43136 6.31994 0
M  V30 9091 N 843.995 -1.47404 -0.557645 0
M  V30 9092 C 845.411 -1.32913 -0.88353 0
M  V30 9093 C 845.611 -0.31929 -1.98954 0
M  V30 9094 O 844.667 0.26934 -2.51059 0
M  V30 9095 C 845.98 -2.72229 -1.27718 0
M  V30 9096 C 847.528 -2.8051 -1.38863 0
M  V30 9097 C 848.003 -4.20466 -1.81583 0
M  V30 9098 N 849.494 -4.23005 -1.88735 0
M  V30 9099 C 850.229 -5.2821 -2.23118 0
M  V30 9100 N 849.725 -6.4372 -2.56117 0
M  V30 9101 N 851.518 -5.15588 -2.23888 0
M  V30 9102 H 843.669 -2.11698 0.172557 0
M  V30 9103 H 845.932 -0.947889 0.0145334 0
M  V30 9104 H 845.638 -3.47556 -0.538329 0
M  V30 9105 H 845.512 -3.03971 -2.23342 0
M  V30 9106 H 847.899 -2.05457 -2.11829 0
M  V30 9107 H 847.98 -2.52423 -0.414274 0
M  V30 9108 H 847.624 -4.96025 -1.09187 0
M  V30 9109 H 847.554 -4.45977 -2.80021 0
M  V30 9110 H 850.045 -3.39674 -1.65621 0
M  V30 9111 H 850.358 -7.19754 -2.81378 0
M  V30 9112 H 848.703 -6.47041 -2.53698 0
M  V30 9113 H 851.894 -4.24374 -1.97546 0
M  V30 9114 H 852.067 -5.97685 -2.50353 0
M  V30 9115 N 845.473 0.80434 -1.35529 0
M  V30 9116 C 846.421 1.93769 -1.28671 0
M  V30 9117 C 847.415 1.68428 -0.181222 0
M  V30 9118 O 848.621 1.76617 -0.347338 0
M  V30 9119 H 844.996 0.636663 -0.400206 0
M  V30 9120 H 846.967 1.96673 -2.24415 0
M  V30 9121 C 845.716 3.30572 -1.07784 0
M  V30 9122 H 845.039 3.5063 -1.9209 0
M  V30 9123 H 846.479 4.1027 -1.07027 0
M  V30 9124 C 844.938 3.36193 0.218213 0
M  V30 9125 O 845.468 3.82941 1.21323 0
M  V30 9126 N 843.674 2.89455 0.257761 0
M  V30 9127 H 843.221 2.51604 -0.552562 0
M  V30 9128 H 843.179 2.93597 1.12465 0
M  V30 9129 N 846.951 1.19563 1.02676 0
M  V30 9130 C 848.228 0.908857 1.73203 0
M  V30 9131 C 848.608 -0.584928 2.02834 0
M  V30 9132 O 847.956 -1.54372 1.68469 0
M  V30 9133 C 848.166 1.77105 3.00724 0
M  V30 9134 C 849.514 2.00667 3.7419 0
M  V30 9135 O 850.538 1.74274 3.10656 0
M  V30 9136 O 849.397 2.4518 4.88415 0
M  V30 9137 H 846.491 0.338909 0.754367 0
M  V30 9138 H 849.037 1.30387 1.08616 0
M  V30 9139 H 847.809 2.78303 2.7507 0
M  V30 9140 H 847.432 1.37546 3.73051 0
M  V30 9141 N 848.429 -1.21819 0.999893 0
M  V30 9142 C 849.359 -2.26282 0.576096 0
M  V30 9143 C 850.34 -1.65317 -0.400537 0
M  V30 9144 O 851.525 -1.92028 -0.28964 0
M  V30 9145 C 848.655 -3.47147 -0.103145 0
M  V30 9146 C 847.609 -4.20594 0.792745 0
M  V30 9147 C 846.935 -5.34696 -0.0198026 0
M  V30 9148 C 848.235 -4.78533 2.09293 0
M  V30 9149 H 849.929 -2.61984 1.4493 0
M  V30 9150 H 847.475 -1.25935 0.698316 0
M  V30 9151 H 849.428 -4.1939 -0.411068 0
M  V30 9152 H 848.152 -3.1056 -1.01094 0
M  V30 9153 H 846.811 -3.50194 1.08442 0
M  V30 9154 H 846.459 -4.94352 -0.928729 0
M  V30 9155 H 846.159 -5.84764 0.576661 0
M  V30 9156 H 847.683 -6.09752 -0.321659 0
M  V30 9157 H 849.097 -5.42682 1.8485 0
M  V30 9158 H 847.494 -5.38968 2.63881 0
M  V30 9159 H 848.564 -3.98197 2.76708 0
M  V30 9160 N 849.908 -0.773975 -1.37286 0
M  V30 9161 C 851.133 -0.349561 -2.04433 0
M  V30 9162 C 851.558 1.02082 -1.5799 0
M  V30 9163 O 850.916 1.65458 -0.741172 0
M  V30 9164 C 850.964 -0.404292 -3.58326 0
M  V30 9165 O 850.068 0.594447 -4.08093 0
M  V30 9166 H 849.409 -0.150959 -0.646612 0
M  V30 9167 H 851.939 -1.05079 -1.75555 0
M  V30 9168 H 851.949 -0.262378 -4.07155 0
M  V30 9169 H 850.624 -1.40403 -3.91484 0
M  V30 9170 H 849.201 0.415468 -3.70578 0
M  V30 9171 N 851.386 1.48609 -0.524698 0
M  V30 9172 C 852.336 2.26505 0.260696 0
M  V30 9173 C 853.32 1.32378 0.914597 0
M  V30 9174 O 854.512 1.5695 0.818277 0
M  V30 9175 C 851.641 3.17313 1.31024 0
M  V30 9176 C 850.727 4.18911 0.661391 0
M  V30 9177 N 851.118 5.05183 -0.24981 0
M  V30 9178 C 849.416 4.36425 0.91922 0
M  V30 9179 C 850.117 5.78348 -0.623598 0
M  V30 9180 N 849.093 5.43598 0.0140839 0
M  V30 9181 H 852.895 2.90582 -0.440388 0
M  V30 9182 H 850.409 1.5875 -0.342364 0
M  V30 9183 H 852.406 3.71772 1.88656 0
M  V30 9184 H 851.066 2.54791 2.01275 0
M  V30 9185 H 852.077 5.1415 -0.622093 0
M  V30 9186 H 848.754 3.85095 1.6127 0
M  V30 9187 H 850.144 6.57775 -1.37046 0
M  V30 9188 N 852.864 0.259585 1.55447 0
M  V30 9189 C 854.275 -0.241165 1.85136 0
M  V30 9190 C 854.626 -1.56634 1.18153 0
M  V30 9191 O 853.751 -2.11359 0.464351 0
M  V30 9192 C 854.346 -0.444355 3.35873 0
M  V30 9193 C 852.905 -0.889354 3.65742 0
M  V30 9194 C 852.052 0.0262474 2.77288 0
M  V30 9195 H 855.003 0.481808 1.51209 0
M  V30 9196 H 855.024 -1.28517 3.58139 0
M  V30 9197 H 854.536 0.520289 3.84597 0
M  V30 9198 H 852.637 -1.86602 3.22507 0
M  V30 9199 H 852.75 -0.737432 4.73391 0
M  V30 9200 H 851.114 -0.487361 2.49994 0
M  V30 9201 H 851.897 0.986494 3.28821 0
M  V30 9202 N 854.342 -1.57594 -0.0133615 0
M  V30 9203 C 855.591 -1.8916 -0.700103 0
M  V30 9204 C 855.904 -0.860147 -1.75673 0
M  V30 9205 O 857.11 -1.06556 -2.49716 0
M  V30 9206 C 855.566 -3.35742 -1.29635 0
M  V30 9207 C 855.174 -4.47154 -0.275249 0
M  V30 9208 C 856.918 -3.76436 -1.96205 0
M  V30 9209 C 854.825 -5.84805 -0.880726 0
M  V30 9210 H 853.755 -0.705805 -0.265247 0
M  V30 9211 H 856.406 -1.83445 0.044993 0
M  V30 9212 H 854.788 -3.36252 -2.09167 0
M  V30 9213 H 855.962 -4.58139 0.494506 0
M  V30 9214 H 854.277 -4.15394 0.289256 0
M  V30 9215 H 856.874 -4.76606 -2.42386 0
M  V30 9216 H 857.217 -3.09249 -2.78695 0
M  V30 9217 H 857.75 -3.78168 -1.23426 0
M  V30 9218 H 854.489 -6.55431 -0.0949013 0
M  V30 9219 H 854.009 -5.7751 -1.61995 0
M  V30 9220 H 855.688 -6.32038 -1.38338 0
M  V30 9221 N 855.82 0.285905 -1.54985 0
M  V30 9222 C 856.77 1.35505 -1.83364 0
M  V30 9223 C 857.754 1.45273 -0.691698 0
M  V30 9224 O 858.946 1.49172 -0.952725 0
M  V30 9225 C 856.075 2.71756 -2.0977 0
M  V30 9226 C 855.161 2.6615 -3.30189 0
M  V30 9227 N 855.552 2.30161 -4.50399 0
M  V30 9228 C 853.85 2.97232 -3.3252 0
M  V30 9229 C 854.551 2.34228 -5.32459 0
M  V30 9230 N 853.527 2.72187 -4.70548 0
M  V30 9231 H 857.329 1.06668 -2.7386 0
M  V30 9232 H 854.843 0.494521 -1.54688 0
M  V30 9233 H 856.84 3.48864 -2.28253 0
M  V30 9234 H 855.5 3.01492 -1.20551 0
M  V30 9235 H 856.511 2.02358 -4.7673 0
M  V30 9236 H 853.188 3.31764 -2.53454 0
M  V30 9237 H 854.578 2.09074 -6.38543 0
M  V30 9238 N 857.298 1.47698 0.54982 0
M  V30 9239 C 858.261 1.60282 1.63837 0
M  V30 9240 C 859.261 0.477394 1.5355 0
M  V30 9241 O 860.451 0.742665 1.57576 0
M  V30 9242 C 857.583 1.55431 3.03404 0
M  V30 9243 H 858.776 2.57325 1.54026 0
M  V30 9244 H 856.329 1.35999 0.770329 0
M  V30 9245 H 857.064 0.597912 3.1874 0
M  V30 9246 H 856.849 2.37116 3.12279 0
M  V30 9247 H 858.339 1.6739 3.82584 0
M  V30 9248 N 858.776 -0.797141 1.35954 0
M  V30 9249 C 860.053 -1.54224 1.2031 0
M  V30 9250 C 860.433 -2.10013 -0.213926 0
M  V30 9251 O 859.781 -1.93292 -1.21862 0
M  V30 9252 C 859.991 -2.6433 2.27883 0
M  V30 9253 C 861.339 -3.32418 2.64165 0
M  V30 9254 O 862.363 -2.74607 2.26868 0
M  V30 9255 O 861.222 -4.36876 3.28331 0
M  V30 9256 H 858.316 -0.681857 0.467974 0
M  V30 9257 H 860.862 -0.836288 1.47663 0
M  V30 9258 H 859.634 -2.21044 3.22885 0
M  V30 9259 H 859.257 -3.42551 2.01853 0
M  V30 9260 N 860.254 -1.20106 -1.0204 0
M  V30 9261 C 861.202 -0.943231 -2.12617 0
M  V30 9262 C 862.196 0.104042 -1.6908 0
M  V30 9263 O 863.402 -0.0459732 -1.79941 0
M  V30 9264 H 859.777 -0.28767 -0.694802 0
M  V30 9265 H 861.748 -1.88221 -2.3155 0
M  V30 9266 C 860.497 -0.50771 -3.43973 0
M  V30 9267 H 859.82 -1.30514 -3.77897 0
M  V30 9268 H 861.26 -0.366486 -4.22413 0
M  V30 9269 C 859.719 0.77939 -3.27761 0
M  V30 9270 O 860.249 1.83876 -3.57145 0
M  V30 9271 N 858.455 0.739931 -2.81022 0
M  V30 9272 H 858.002 -0.122426 -2.57309 0
M  V30 9273 H 857.96 1.60147 -2.70556 0
M  V30 9274 N 861.732 1.21287 -1.00634 0
M  V30 9275 C 862.972 1.92106 -0.698194 0
M  V30 9276 C 863.336 1.76437 0.757222 0
M  V30 9277 O 864.537 2.41641 1.17741 0
M  V30 9278 C 862.808 3.39748 -1.10932 0
M  V30 9279 S 864.367 4.29013 -0.921586 0
M  V30 9280 H 861.185 0.663755 -0.254853 0
M  V30 9281 H 863.787 1.46772 -1.29145 0
M  V30 9282 H 862.491 3.48669 -2.16467 0
M  V30 9283 H 862.022 3.90101 -0.508419 0
M  V30 9284 H 864.037 4.95871 0.180578 0
M  V30 9285 N 863.21 0.781244 1.36873 0
M  V30 9286 C 864.14 0.188128 2.32741 0
M  V30 9287 C 865.121 -0.672326 1.56249 0
M  V30 9288 O 866.306 -0.607835 1.84442 0
M  V30 9289 C 863.436 -0.684341 3.40491 0
M  V30 9290 C 862.39 0.0755641 4.27933 0
M  V30 9291 C 861.716 -0.916968 5.26779 0
M  V30 9292 C 863.016 1.26006 5.06873 0
M  V30 9293 H 864.71 0.989016 2.82593 0
M  V30 9294 H 862.256 0.477038 1.35869 0
M  V30 9295 H 864.209 -1.10915 4.06541 0
M  V30 9296 H 862.933 -1.51785 2.89187 0
M  V30 9297 H 861.592 0.481258 3.63427 0
M  V30 9298 H 861.24 -1.74528 4.71751 0
M  V30 9299 H 860.94 -0.413 5.86147 0
M  V30 9300 H 862.464 -1.34052 5.95703 0
M  V30 9301 H 863.878 0.911425 5.66009 0
M  V30 9302 H 862.275 1.69676 5.75613 0
M  V30 9303 H 863.345 2.05948 4.38991 0
M  V30 9304 N 864.689 -1.48329 0.532571 0
M  V30 9305 C 865.619 -2.32485 -0.217511 0
M  V30 9306 C 866.6 -1.42255 -0.932598 0
M  V30 9307 O 867.785 -1.7114 -0.917873 0
M  V30 9308 C 864.915 -3.23509 -1.26329 0
M  V30 9309 C 863.869 -4.22784 -0.666191 0
M  V30 9310 C 863.195 -5.0296 -1.81482 0
M  V30 9311 C 864.495 -5.21031 0.363813 0
M  V30 9312 H 866.189 -2.95445 0.485014 0
M  V30 9313 H 863.735 -1.42075 0.234694 0
M  V30 9314 H 865.688 -3.81211 -1.79601 0
M  V30 9315 H 864.412 -2.58554 -1.99543 0
M  V30 9316 H 863.071 -3.66272 -0.15498 0
M  V30 9317 H 862.719 -4.34427 -2.5354 0
M  V30 9318 H 862.419 -5.70154 -1.4212 0
M  V30 9319 H 863.943 -5.63514 -2.35126 0
M  V30 9320 H 865.357 -5.73241 -0.0819079 0
M  V30 9321 H 863.754 -5.96292 0.674956 0
M  V30 9322 H 864.824 -4.6801 1.26865 0
M  V30 9323 N 866.167 -0.267825 -1.55308 0
M  V30 9324 C 867.444 0.402449 -1.91415 0
M  V30 9325 C 867.824 1.7428 -1.1912 0
M  V30 9326 O 867.172 2.2631 -0.315609 0
M  V30 9327 C 867.382 0.549926 -3.4464 0
M  V30 9328 C 868.73 0.836188 -4.16285 0
M  V30 9329 O 869.754 0.635009 -3.50494 0
M  V30 9330 O 868.613 1.22051 -5.32697 0
M  V30 9331 H 865.707 0.219177 -0.797427 0
M  V30 9332 H 868.253 -0.313439 -1.6678 0
M  V30 9333 H 867.025 -0.393641 -3.89315 0
M  V30 9334 H 866.648 1.31556 -3.75205 0
M  V30 9335 N 867.645 1.57599 0.00500368 0
M  V30 9336 C 869.056 1.78462 0.54848 0
M  V30 9337 C 869.407 0.901869 1.74243 0
M  V30 9338 O 868.532 0.103014 2.16155 0
M  V30 9339 C 869.127 3.2365 1.00179 0
M  V30 9340 C 867.686 3.45627 1.49061 0
M  V30 9341 C 866.833 2.73794 0.439531 0
M  V30 9342 H 869.784 1.57151 -0.22118 0
M  V30 9343 H 869.805 3.31488 1.86805 0
M  V30 9344 H 869.317 3.87873 0.132607 0
M  V30 9345 H 867.418 2.86612 2.38085 0
M  V30 9346 H 867.531 4.54298 1.52152 0
M  V30 9347 H 865.895 2.38267 0.900043 0
M  V30 9348 H 866.678 3.40714 -0.420599 0
M  V30 9349 N 869.123 -0.277682 1.55134 0
M  V30 9350 C 870.033 -1.36524 1.90783 0
M  V30 9351 C 871.049 -1.54283 0.804542 0
M  V30 9352 O 872.225 -1.68499 1.10318 0
M  V30 9353 C 869.29 -2.70524 2.16835 0
M  V30 9354 C 868.351 -2.61552 3.40424 0
M  V30 9355 C 867.584 -3.89162 3.65224 0
M  V30 9356 O 867.807 -4.89624 2.92616 0
M  V30 9357 O 866.741 -3.89647 4.58758 0
M  V30 9358 H 870.567 -1.0929 2.83354 0
M  V30 9359 H 868.152 -0.475799 1.41621 0
M  V30 9360 H 870.034 -3.49765 2.35038 0
M  V30 9361 H 868.709 -2.97555 1.27448 0
M  V30 9362 H 867.616 -1.80704 3.27562 0
M  V30 9363 H 868.949 -2.39472 4.30016 0
M  V30 9364 N 870.601 -1.47988 -0.541979 0
M  V30 9365 C 871.564 -1.61148 -1.62984 0
M  V30 9366 C 872.564 -0.48553 -1.53295 0
M  V30 9367 O 873.754 -0.751012 -1.5718 0
M  V30 9368 C 870.886 -1.57038 -3.02576 0
M  V30 9369 H 872.079 -2.58138 -1.52659 0
M  V30 9370 H 869.632 -1.36405 -0.763106 0
M  V30 9371 H 870.367 -0.614807 -3.18419 0
M  V30 9372 H 870.152 -2.38769 -3.11018 0
M  V30 9373 H 871.642 -1.69416 -3.81691 0
M  V30 9374 N 872.079 0.78992 -1.36375 0
M  V30 9375 C 873.027 1.92394 -1.30719 0
M  V30 9376 C 874.021 1.68226 -0.199076 0
M  V30 9377 O 875.227 1.76239 -0.366051 0
M  V30 9378 H 871.602 0.632382 -0.406936 0
M  V30 9379 H 873.573 1.94282 -2.26488 0
M  V30 9380 C 872.322 3.2941 -1.11284 0
M  V30 9381 H 871.645 3.48573 -1.95798 0
M  V30 9382 H 873.085 4.09111 -1.11373 0
M  V30 9383 C 871.544 3.36405 0.182543 0
M  V30 9384 O 872.074 3.84206 1.17255 0
M  V30 9385 N 870.28 2.89712 0.227046 0
M  V30 9386 H 869.827 2.51004 -0.579217 0
M  V30 9387 H 869.785 2.94773 1.09344 0
M  V30 9388 N 873.557 1.20646 1.01402 0
M  V30 9389 C 874.467 0.973385 2.13453 0
M  V30 9390 C 875.483 -0.0715865 1.73853 0
M  V30 9391 O 876.659 0.116438 2.01063 0
M  V30 9392 C 873.724 0.531285 3.42605 0
M  V30 9393 C 872.785 1.64741 3.96433 0
M  V30 9394 C 872.018 1.22631 5.1942 0
M  V30 9395 O 872.241 0.0960891 5.70319 0
M  V30 9396 O 871.175 2.03474 5.66465 0
M  V30 9397 H 875.001 1.91164 2.35987 0
M  V30 9398 H 872.586 0.990553 1.11841 0
M  V30 9399 H 874.468 0.294095 4.20373 0
M  V30 9400 H 873.143 -0.378358 3.21481 0
M  V30 9401 H 872.05 1.93891 3.19933 0
M  V30 9402 H 873.383 2.53415 4.2195 0
M  V30 9403 N 875.035 -1.20752 1.01276 0
M  V30 9404 C 876.275 -1.91733 0.708372 0
M  V30 9405 C 876.639 -1.76836 -0.747855 0
M  V30 9406 O 877.84 -2.42262 -1.16458 0
M  V30 9407 C 876.111 -3.39155 1.12732 0
M  V30 9408 S 877.67 -4.28518 0.944325 0
M  V30 9409 H 874.488 -0.662394 0.25837 0
M  V30 9410 H 877.09 -1.46085 1.29921 0
M  V30 9411 H 875.794 -3.47516 2.18313 0
M  V30 9412 H 875.325 -3.89826 0.5291 0
M  V30 9413 H 877.34 -4.9596 -0.154278 0
M  V30 9414 N 876.513 -0.788492 -1.36457 0
M  V30 9415 C 877.759 -0.370067 -2.00005 0
M  V30 9416 C 878.114 1.0464 -1.61456 0
M  V30 9417 O 877.407 1.71277 -0.85876 0
M  V30 9418 C 877.601 -0.470255 -3.54293 0
M  V30 9419 C 877.43 -1.89492 -4.07827 0
M  V30 9420 C 876.2 -2.51932 -4.38016 0
M  V30 9421 C 878.398 -2.85692 -4.2765 0
M  V30 9422 N 876.38 -3.85997 -4.77368 0
M  V30 9423 C 877.751 -4.04588 -4.69796 0
M  V30 9424 C 879.806 -2.8276 -4.09818 0
M  V30 9425 C 878.509 -5.2096 -4.95977 0
M  V30 9426 C 880.535 -3.98319 -4.37145 0
M  V30 9427 C 879.897 -5.1596 -4.79547 0
M  V30 9428 H 875.996 -0.182813 -0.760331 0
M  V30 9429 H 878.58 -1.02589 -1.6548 0
M  V30 9430 H 876.751 0.155476 -3.88089 0
M  V30 9431 H 878.483 -0.0281643 -4.0469 0
M  V30 9432 H 875.238 -2.0342 -4.27688 0
M  V30 9433 H 875.662 -4.54971 -5.01329 0
M  V30 9434 H 880.304 -1.92971 -3.76194 0
M  V30 9435 H 878.022 -6.11335 -5.28483 0
M  V30 9436 H 881.608 -3.97411 -4.24919 0
M  V30 9437 H 880.488 -6.03893 -5.00283 0
M  V30 9438 N 877.991 1.48044 -0.54043 0
M  V30 9439 C 878.938 2.29781 0.216597 0
M  V30 9440 C 879.908 1.38021 0.924094 0
M  V30 9441 O 881.093 1.66985 0.923078 0
M  V30 9442 C 878.233 3.21623 1.2511 0
M  V30 9443 C 877.346 4.28467 0.551384 0
M  V30 9444 C 876.481 5.07477 1.56972 0
M  V30 9445 C 875.52 6.06113 0.854048 0
M  V30 9446 N 874.657 6.78143 1.81842 0
M  V30 9447 H 879.497 2.94001 -0.486578 0
M  V30 9448 H 877.034 1.44929 -0.251789 0
M  V30 9449 H 878.992 3.73279 1.8633 0
M  V30 9450 H 877.622 2.59305 1.92252 0
M  V30 9451 H 876.674 3.79997 -0.174982 0
M  V30 9452 H 877.986 4.98799 -0.0100542 0
M  V30 9453 H 877.14 5.63199 2.25592 0
M  V30 9454 H 875.879 4.37008 2.16507 0
M  V30 9455 H 874.884 5.49585 0.153838 0
M  V30 9456 H 876.109 6.78584 0.264675 0
M  V30 9457 H 874.055 6.10417 2.40265 0
M  V30 9458 H 873.972 7.44587 1.3087 0
M  V30 9459 H 875.24 7.38448 2.49628 0
M  V30 9460 N 879.47 0.276058 1.55163 0
M  V30 9461 C 880.38 -0.621066 2.2623 0
M  V30 9462 C 881.396 -1.16931 1.28853 0
M  V30 9463 O 882.572 -1.1994 1.61791 0
M  V30 9464 C 879.637 -1.78824 2.97023 0
M  V30 9465 C 878.698 -1.27657 4.09881 0
M  V30 9466 C 877.931 -2.38812 4.77289 0
M  V30 9467 O 878.154 -3.58188 4.43912 0
M  V30 9468 O 877.088 -2.06915 5.65217 0
M  V30 9469 H 880.914 -0.0453346 3.03666 0
M  V30 9470 H 878.499 0.0434275 1.49337 0
M  V30 9471 H 880.381 -2.46877 3.41511 0
M  V30 9472 H 879.056 -2.35104 2.22503 0
M  V30 9473 H 877.963 -0.56248 3.69847 0
M  V30 9474 H 879.296 -0.759509 4.86305 0
M  V30 9475 N 880.948 -1.576 0.00335426 0
M  V30 9476 C 882.359 -1.7875 -0.539008 0
M  V30 9477 C 882.71 -0.911097 -1.73763 0
M  V30 9478 O 881.835 -0.114476 -2.16097 0
M  V30 9479 C 882.43 -3.24177 -0.984611 0
M  V30 9480 C 880.989 -3.46412 -1.47226 0
M  V30 9481 C 880.136 -2.74024 -0.425004 0
M  V30 9482 H 883.087 -1.57032 0.229511 0
M  V30 9483 H 883.108 -3.32474 -1.85044 0
M  V30 9484 H 882.62 -3.87938 -0.112035 0
M  V30 9485 H 880.721 -2.8787 -2.36562 0
M  V30 9486 H 880.834 -4.55098 -1.49741 0
M  V30 9487 H 879.198 -2.38741 -0.887394 0
M  V30 9488 H 879.981 -3.40486 0.438662 0
M  V30 9489 N 882.426 0.269451 -1.5528 0
M  V30 9490 C 883.837 0.840233 -1.66724 0
M  V30 9491 C 884.188 1.86909 -0.596621 0
M  V30 9492 O 883.313 2.14817 0.261246 0
M  V30 9493 C 883.908 1.5308 -3.02245 0
M  V30 9494 C 882.467 2.04957 -3.15705 0
M  V30 9495 C 881.614 0.892838 -2.62533 0
M  V30 9496 H 884.565 0.0457236 -1.58634 0
M  V30 9497 H 884.586 2.39792 -2.95432 0
M  V30 9498 H 884.098 0.781741 -3.80145 0
M  V30 9499 H 882.199 2.82813 -2.42585 0
M  V30 9500 H 882.312 2.26244 -4.22316 0
M  V30 9501 H 880.676 1.28719 -2.19781 0
M  V30 9502 H 881.459 0.157229 -3.4294 0
M  V30 9503 N 883.904 1.48273 0.534124 0
M  V30 9504 C 884.867 1.6201 1.62127 0
M  V30 9505 C 885.867 0.493653 1.53035 0
M  V30 9506 O 887.057 0.759337 1.56779 0
M  V30 9507 C 884.189 1.5864 3.01739 0
M  V30 9508 H 885.382 2.58944 1.51288 0
M  V30 9509 H 882.935 1.36808 0.755861 0
M  V30 9510 H 883.67 0.631685 3.18088 0
M  V30 9511 H 883.455 2.40415 3.09747 0
M  V30 9512 H 884.945 1.71438 3.80787 0
M  V30 9513 N 885.382 -0.782676 1.36792 0
M  V30 9514 C 886.612 -1.56934 1.3437 0
M  V30 9515 C 887.02 -1.89049 -0.0754828 0
M  V30 9516 O 886.363 -1.51103 -1.04467 0
M  V30 9517 C 886.425 -2.91311 2.10661 0
M  V30 9518 C 886.089 -2.81889 3.59705 0
M  V30 9519 C 887.086 -2.53668 4.53815 0
M  V30 9520 C 884.771 -3.00254 4.02682 0
M  V30 9521 C 886.765 -2.43925 5.8888 0
M  V30 9522 C 884.452 -2.90132 5.37835 0
M  V30 9523 C 885.45 -2.62006 6.30747 0
M  V30 9524 O 885.138 -2.5189 7.63418 0
M  V30 9525 H 884.87 -0.493194 0.462316 0
M  V30 9526 H 887.424 -0.978791 1.80579 0
M  V30 9527 H 885.654 -3.52443 1.59125 0
M  V30 9528 H 887.343 -3.52632 2.01012 0
M  V30 9529 H 888.109 -2.39176 4.21924 0
M  V30 9530 H 883.988 -3.21151 3.30731 0
M  V30 9531 H 887.532 -2.21892 6.6137 0
M  V30 9532 H 883.429 -3.04189 5.69332 0
M  V30 9533 H 884.197 -2.67321 7.73616 0
M  V30 9534 N 886.86 -1.21182 -1.00761 0
M  V30 9535 C 888.088 -1.05335 -1.78079 0
M  V30 9536 C 888.503 0.396988 -1.84579 0
M  V30 9537 O 887.86 1.27548 -1.30529 0
M  V30 9538 C 887.911 -1.64089 -3.22113 0
M  V30 9539 O 887.632 -3.03448 -3.15992 0
M  V30 9540 C 889.133 -1.53318 -4.15943 0
M  V30 9541 H 886.353 -0.37005 -0.559736 0
M  V30 9542 H 888.897 -1.60463 -1.26775 0
M  V30 9543 H 887.052 -1.13059 -3.70535 0
M  V30 9544 H 887.466 -3.31492 -4.06465 0
M  V30 9545 H 888.94 -1.99174 -5.14814 0
M  V30 9546 H 889.417 -0.487166 -4.3649 0
M  V30 9547 H 890.023 -2.03582 -3.73409 0
M  V30 9548 N 888.338 1.20213 -1.01915 0
M  V30 9549 C 889.585 1.89647 -0.709955 0
M  V30 9550 C 889.913 1.7901 0.760631 0
M  V30 9551 O 889.168 1.17028 1.56853 0
M  V30 9552 C 889.467 3.40232 -1.09438 0
M  V30 9553 C 889.133 3.7107 -2.5616 0
M  V30 9554 C 887.795 3.79196 -2.96249 0
M  V30 9555 C 890.147 3.85169 -3.51133 0
M  V30 9556 C 887.475 3.98882 -4.30244 0
M  V30 9557 C 889.827 4.06365 -4.8482 0
M  V30 9558 C 888.491 4.12722 -5.24611 0
M  V30 9559 H 887.761 0.693967 -0.259791 0
M  V30 9560 H 890.408 1.42419 -1.2802 0
M  V30 9561 H 888.713 3.89292 -0.442596 0
M  V30 9562 H 890.41 3.92257 -0.832811 0
M  V30 9563 H 887 3.65346 -2.24099 0
M  V30 9564 H 891.184 3.78243 -3.21319 0
M  V30 9565 H 886.44 4.02039 -4.60624 0
M  V30 9566 H 890.614 4.16216 -5.58334 0
M  V30 9567 H 888.241 4.27728 -6.28453 0
M  V30 9568 N 889.816 0.795718 1.36037 0
M  V30 9569 C 891.232 0.478145 1.52269 0
M  V30 9570 C 891.432 -1.0025 1.74792 0
M  V30 9571 O 890.488 -1.78783 1.78305 0
M  V30 9572 C 891.801 1.31406 2.70468 0
M  V30 9573 C 893.349 1.3084 2.84341 0
M  V30 9574 C 893.824 2.12819 4.05551 0
M  V30 9575 N 895.315 2.10298 4.12709 0
M  V30 9576 C 896.05 2.70495 5.05589 0
M  V30 9577 N 895.546 3.39576 6.03871 0
M  V30 9578 N 897.339 2.60195 4.98252 0
M  V30 9579 H 889.49 1.75477 1.19673 0
M  V30 9580 H 891.753 0.74627 0.584624 0
M  V30 9581 H 891.459 2.36435 2.60368 0
M  V30 9582 H 891.333 0.959726 3.64786 0
M  V30 9583 H 893.72 0.266003 2.93899 0
M  V30 9584 H 893.801 1.70254 1.90912 0
M  V30 9585 H 893.445 3.17093 3.96755 0
M  V30 9586 H 893.375 1.70772 4.98141 0
M  V30 9587 H 895.866 1.60026 3.42345 0
M  V30 9588 H 896.179 3.82823 6.71317 0
M  V30 9589 H 894.524 3.43679 6.04077 0
M  V30 9590 H 897.715 2.05823 4.20422 0
M  V30 9591 H 897.888 3.074 5.70447 0
M  V30 9592 N 891.294 -1.47756 0.548274 0
M  V30 9593 C 892.571 -1.9555 -0.0443603 0
M  V30 9594 C 892.951 -1.49079 -1.49462 0
M  V30 9595 O 892.299 -0.725538 -2.16675 0
M  V30 9596 C 892.509 -3.48879 0.0918425 0
M  V30 9597 C 893.857 -4.2456 -0.0580879 0
M  V30 9598 O 894.881 -3.56195 0.018946 0
M  V30 9599 O 893.74 -5.46048 -0.222261 0
M  V30 9600 H 890.834 -0.824106 -0.0691235 0
M  V30 9601 H 893.38 -1.58196 0.614166 0
M  V30 9602 H 892.152 -3.7548 1.10137 0
M  V30 9603 H 891.775 -3.92975 -0.604704 0
M  V30 9604 N 892.772 -0.284283 -1.55015 0
M  V30 9605 C 894.002 0.332465 -2.03907 0
M  V30 9606 C 894.41 1.49331 -1.16177 0
M  V30 9607 O 893.753 1.82851 -0.176395 0
M  V30 9608 C 893.815 0.867193 -3.48884 0
M  V30 9609 C 893.479 -0.166198 -4.56698 0
M  V30 9610 C 894.476 -0.988898 -5.10408 0
M  V30 9611 C 892.161 -0.303081 -5.01385 0
M  V30 9612 C 894.155 -1.93458 -6.07333 0
M  V30 9613 C 891.842 -1.25223 -5.98133 0
M  V30 9614 C 892.84 -2.06647 -6.50988 0
M  V30 9615 O 892.528 -2.99955 -7.45843 0
M  V30 9616 H 892.26 0.0786597 -0.671408 0
M  V30 9617 H 894.814 -0.416871 -2.01125 0
M  V30 9618 H 893.044 1.66676 -3.48935 0
M  V30 9619 H 894.733 1.39802 -3.81065 0
M  V30 9620 H 895.499 -0.89393 -4.76691 0
M  V30 9621 H 891.378 0.320711 -4.59883 0
M  V30 9622 H 894.922 -2.57053 -6.48513 0
M  V30 9623 H 890.819 -1.34798 -6.31268 0
M  V30 9624 H 891.587 -2.94742 -7.6359 0
M  V30 9625 N 894.251 1.57596 -0.0117121 0
M  V30 9626 C 895.476 1.95764 0.684938 0
M  V30 9627 C 895.901 0.887285 1.65858 0
M  V30 9628 O 895.259 -0.153508 1.80649 0
M  V30 9629 C 895.307 3.33031 1.38285 0
M  V30 9630 O 894.411 3.28163 2.49765 0
M  V30 9631 H 893.752 0.638767 0.181309 0
M  V30 9632 H 896.282 2.04486 -0.0683883 0
M  V30 9633 H 896.292 3.68866 1.74362 0
M  V30 9634 H 894.967 4.10483 0.669043 0
M  V30 9635 H 893.544 3.04021 2.15929 0
M  V30 9636 N 895.729 -0.261212 1.5542 0
M  V30 9637 C 896.692 -1.30645 1.8832 0
M  V30 9638 C 897.692 -1.41782 0.758588 0
M  V30 9639 O 898.882 -1.40729 1.02669 0
M  V30 9640 C 896.014 -2.6862 2.09895 0
M  V30 9641 H 897.207 -1.02698 2.81768 0
M  V30 9642 H 894.76 -0.499838 1.48092 0
M  V30 9643 H 895.495 -3.0173 1.18868 0
M  V30 9644 H 895.28 -2.61921 2.91787 0
M  V30 9645 H 896.77 -3.44121 2.36581 0
M  V30 9646 N 897.207 -1.48554 -0.526253 0
M  V30 9647 C 898.137 -1.66252 -1.63959 0
M  V30 9648 C 899.118 -0.511351 -1.62232 0
M  V30 9649 O 900.303 -0.744322 -1.7937 0
M  V30 9650 C 897.433 -1.70556 -3.02536 0
M  V30 9651 C 896.387 -2.8521 -3.19123 0
M  V30 9652 C 895.713 -2.74606 -4.58798 0
M  V30 9653 C 897.013 -4.26463 -3.0154 0
M  V30 9654 H 898.707 -2.59459 -1.49404 0
M  V30 9655 H 896.253 -1.24862 -0.717326 0
M  V30 9656 H 898.206 -1.81524 -3.80298 0
M  V30 9657 H 896.93 -0.739297 -3.18123 0
M  V30 9658 H 895.589 -2.73802 -2.43779 0
M  V30 9659 H 895.237 -1.75941 -4.71226 0
M  V30 9660 H 894.937 -3.51544 -4.70841 0
M  V30 9661 H 896.461 -2.87548 -5.38655 0
M  V30 9662 H 897.875 -4.38685 -3.69091 0
M  V30 9663 H 896.272 -5.04428 -3.25073 0
M  V30 9664 H 897.342 -4.42667 -1.97925 0
M  V30 9665 N 898.685 0.775411 -1.37205 0
M  V30 9666 C 899.615 1.90258 -1.35367 0
M  V30 9667 C 900.596 1.68634 -0.222864 0
M  V30 9668 O 901.781 1.89545 -0.422659 0
M  V30 9669 C 898.911 3.27488 -1.15623 0
M  V30 9670 C 897.865 3.63668 -2.25676 0
M  V30 9671 C 897.191 4.994 -1.91059 0
M  V30 9672 C 898.491 3.70797 -3.67841 0
M  V30 9673 H 900.185 1.92053 -2.29687 0
M  V30 9674 H 897.731 0.922597 -1.10563 0
M  V30 9675 H 899.684 4.05976 -1.12968 0
M  V30 9676 H 898.408 3.26117 -0.177573 0
M  V30 9677 H 897.067 2.87486 -2.2748 0
M  V30 9678 H 896.715 4.94565 -0.917324 0
M  V30 9679 H 896.415 5.24576 -2.64751 0
M  V30 9680 H 897.939 5.80291 -1.89985 0
M  V30 9681 H 899.353 4.39444 -3.68187 0
M  V30 9682 H 897.75 4.07468 -4.40556 0
M  V30 9683 H 898.82 2.71549 -4.01732 0
M  V30 9684 N 900.163 1.21714 1.00117 0
M  V30 9685 C 901.393 1.06124 1.77261 0
M  V30 9686 C 901.801 -0.391717 1.85101 0
M  V30 9687 O 901.144 -1.28347 1.31426 0
M  V30 9688 C 901.206 1.58778 3.22536 0
M  V30 9689 C 900.87 3.07289 3.38264 0
M  V30 9690 C 901.867 4.04801 3.26239 0
M  V30 9691 C 899.552 3.46574 3.63582 0
M  V30 9692 C 901.546 5.39585 3.39303 0
M  V30 9693 C 899.233 4.81509 3.76288 0
M  V30 9694 C 900.231 5.77824 3.64155 0
M  V30 9695 O 899.919 7.1031 3.7645 0
M  V30 9696 H 899.651 0.372979 0.563793 0
M  V30 9697 H 902.205 1.61589 1.26799 0
M  V30 9698 H 900.435 0.977129 3.74151 0
M  V30 9699 H 902.124 1.38974 3.81367 0
M  V30 9700 H 902.89 3.75795 3.066 0
M  V30 9701 H 898.769 2.72137 3.72106 0
M  V30 9702 H 902.313 6.14744 3.2975 0
M  V30 9703 H 898.21 5.102 3.95432 0
M  V30 9704 H 898.978 7.17774 3.93374 0
M  V30 9705 N 901.641 -1.19671 1.02551 0
M  V30 9706 C 902.574 -2.21522 0.547998 0
M  V30 9707 C 903.552 -1.57363 -0.409349 0
M  V30 9708 O 904.736 -1.85638 -0.327248 0
M  V30 9709 C 901.863 -3.38101 -0.201375 0
M  V30 9710 C 900.909 -4.20601 0.706886 0
M  V30 9711 S 901.742 -4.89066 2.18116 0
M  V30 9712 C 902.898 -6.09058 1.4422 0
M  V30 9713 H 903.131 -2.61684 1.41099 0
M  V30 9714 H 900.664 -1.29864 0.835153 0
M  V30 9715 H 902.622 -4.05674 -0.627607 0
M  V30 9716 H 901.283 -2.96381 -1.04005 0
M  V30 9717 H 900.476 -5.03836 0.128554 0
M  V30 9718 H 900.078 -3.58329 1.07129 0
M  V30 9719 H 902.37 -6.73588 0.726975 0
M  V30 9720 H 903.313 -6.71368 2.25102 0
M  V30 9721 H 903.721 -5.56599 0.941176 0
M  V30 9722 N 903.119 -0.802921 -1.35613 0
M  V30 9723 C 904.067 -0.198783 -2.31749 0
M  V30 9724 C 905.061 0.649416 -1.56458 0
M  V30 9725 O 906.267 0.542989 -1.71615 0
M  V30 9726 H 902.642 -0.0455177 -0.750621 0
M  V30 9727 H 904.613 -1.02479 -2.80251 0
M  V30 9728 C 903.362 0.641066 -3.41739 0
M  V30 9729 H 902.685 -0.00226244 -3.998 0
M  V30 9730 H 904.125 1.03022 -4.11294 0
M  V30 9731 C 902.584 1.80505 -2.84464 0
M  V30 9732 O 903.114 2.90235 -2.77717 0
M  V30 9733 N 901.32 1.61542 -2.41563 0
M  V30 9734 H 900.867 0.722863 -2.4725 0
M  V30 9735 H 900.825 2.39581 -2.03589 0
M  V30 9736 N 904.597 1.47463 -0.556102 0
M  V30 9737 C 905.874 1.9557 0.0339892 0
M  V30 9738 C 906.254 1.49869 1.48669 0
M  V30 9739 O 905.602 0.737019 2.16288 0
M  V30 9740 C 905.812 3.48826 -0.110343 0
M  V30 9741 C 907.16 4.24585 0.0355716 0
M  V30 9742 O 908.184 3.5618 -0.0378356 0
M  V30 9743 O 907.043 5.46158 0.193299 0
M  V30 9744 H 904.137 0.824461 0.0647521 0
M  V30 9745 H 906.683 1.57868 -0.622547 0
M  V30 9746 H 905.455 3.74891 -1.12126 0
M  V30 9747 H 905.078 3.9329 0.583855 0
M  V30 9748 N 906.075 0.2925 1.54862 0
M  V30 9749 C 907.352 -0.371946 1.92031 0
M  V30 9750 C 907.732 -1.72363 1.21878 0
M  V30 9751 O 907.08 -2.25779 0.351573 0
M  V30 9752 C 907.29 -0.495027 3.45471 0
M  V30 9753 C 908.638 -0.769855 4.17562 0
M  V30 9754 O 909.662 -0.579168 3.5146 0
M  V30 9755 O 908.521 -1.13561 5.34571 0
M  V30 9756 H 905.615 -0.206463 0.800813 0
M  V30 9757 H 908.161 0.339933 1.6626 0
M  V30 9758 H 906.933 0.455528 3.88639 0
M  V30 9759 H 906.556 -1.2557 3.7725 0
M  V30 9760 N 907.553 -1.57587 0.0200696 0
M  V30 9761 C 908.8 -1.91424 -0.660525 0
M  V30 9762 C 909.128 -0.895626 -1.72652 0
M  V30 9763 O 908.383 0.096771 -1.95461 0
M  V30 9764 C 908.682 -3.32002 -1.32323 0
M  V30 9765 C 908.348 -4.49223 -0.388487 0
M  V30 9766 C 907.01 -4.81021 -0.131184 0
M  V30 9767 C 909.362 -5.20581 0.253906 0
M  V30 9768 C 906.69 -5.81539 0.776471 0
M  V30 9769 C 909.042 -6.22067 1.14956 0
M  V30 9770 C 907.706 -6.52311 1.41584 0
M  V30 9771 H 906.976 -0.700472 -0.241703 0
M  V30 9772 H 909.623 -1.91333 0.0798991 0
M  V30 9773 H 907.928 -3.28312 -2.13819 0
M  V30 9774 H 909.625 -3.5545 -1.85623 0
M  V30 9775 H 906.215 -4.24391 -0.599207 0
M  V30 9776 H 910.399 -4.96253 0.068164 0
M  V30 9777 H 905.655 -6.03322 0.990575 0
M  V30 9778 H 909.829 -6.76484 1.65357 0
M  V30 9779 H 907.456 -7.30017 2.12083 0
M  V30 9780 N 909.032 0.252966 -1.55557 0
M  V30 9781 C 909.942 1.33472 -1.92931 0
M  V30 9782 C 910.958 1.52983 -0.828985 0
M  V30 9783 O 912.134 1.66723 -1.12984 0
M  V30 9784 C 909.199 2.6704 -2.21112 0
M  V30 9785 C 908.26 2.56103 -3.44542 0
M  V30 9786 C 907.493 3.83302 -3.71369 0
M  V30 9787 O 907.716 4.84907 -3.00368 0
M  V30 9788 O 906.65 3.823 -4.64898 0
M  V30 9789 H 910.476 1.04768 -2.85057 0
M  V30 9790 H 908.061 0.453208 -1.4236 0
M  V30 9791 H 909.943 3.45981 -2.40572 0
M  V30 9792 H 908.618 2.95489 -1.32166 0
M  V30 9793 H 907.525 1.7547 -3.30396 0
M  V30 9794 H 908.858 2.32601 -4.33772 0
M  V30 9795 N 910.51 1.48831 0.518367 0
M  V30 9796 C 911.758 1.57128 1.27103 0
M  V30 9797 C 912.079 0.252098 1.93364 0
M  V30 9798 O 911.349 -0.727281 1.819 0
M  V30 9799 H 909.929 0.578891 0.472116 0
M  V30 9800 H 912.591 1.85361 0.602262 0
M  V30 9801 H 911.687 2.35838 2.04418 0
M  V30 9802 N 911.988 -0.768124 1.37614 0
M  V30 9803 C 913.236 -1.52379 1.3276 0
M  V30 9804 C 913.557 -1.94809 -0.0863564 0
M  V30 9805 O 912.827 -1.66568 -1.03112 0
M  V30 9806 H 911.407 -0.565179 0.488448 0
M  V30 9807 H 914.069 -0.913974 1.72141 0
M  V30 9808 H 913.165 -2.4215 1.96901 0
M  V30 9809 N 913.466 -1.22244 -0.994698 0
M  V30 9810 C 914.376 -1.00722 -2.11878 0
M  V30 9811 C 915.392 0.043919 -1.73945 0
M  V30 9812 O 916.568 -0.148411 -2.00852 0
M  V30 9813 C 913.633 -0.585723 -3.41717 0
M  V30 9814 C 912.694 -1.71027 -3.93762 0
M  V30 9815 C 911.927 -1.30879 -5.17403 0
M  V30 9816 O 912.15 -0.18681 -5.70094 0
M  V30 9817 O 911.084 -2.1246 -5.63156 0
M  V30 9818 H 914.91 -1.94894 -2.32916 0
M  V30 9819 H 912.495 -1.00822 -1.10251 0
M  V30 9820 H 914.377 -0.360935 -4.19851 0
M  V30 9821 H 913.052 0.327166 -3.22042 0
M  V30 9822 H 911.959 -1.98956 -3.16808 0
M  V30 9823 H 913.292 -2.60096 -4.17865 0
M  V30 9824 N 914.944 1.19125 -1.03184 0
M  V30 9825 C 916.191 1.88883 -0.730029 0
M  V30 9826 C 916.519 1.79807 0.741602 0
M  V30 9827 O 915.774 1.18686 1.55603 0
M  V30 9828 C 916.073 3.39052 -1.13041 0
M  V30 9829 C 915.739 3.68332 -2.60082 0
M  V30 9830 C 914.401 3.76033 -3.00254 0
M  V30 9831 C 916.753 3.81423 -3.55199 0
M  V30 9832 C 914.081 3.94296 -4.34451 0
M  V30 9833 C 916.433 4.012 -4.89103 0
M  V30 9834 C 915.097 4.07134 -5.28959 0
M  V30 9835 H 914.367 0.691172 -0.267137 0
M  V30 9836 H 917.014 1.41053 -1.29523 0
M  V30 9837 H 915.319 3.88801 -0.48386 0
M  V30 9838 H 917.016 3.91351 -0.874368 0
M  V30 9839 H 913.606 3.62948 -2.27961 0
M  V30 9840 H 917.79 3.74814 -3.25313 0
M  V30 9841 H 913.046 3.97131 -4.64863 0
M  V30 9842 H 917.22 4.10271 -5.62717 0
M  V30 9843 H 914.847 4.21038 -6.32954 0
M  V30 9844 N 916.422 0.810101 1.35185 0
M  V30 9845 C 917.671 0.388589 1.97921 0
M  V30 9846 C 917.984 -1.05079 1.64978 0
M  V30 9847 O 919.19 -1.57559 2.21105 0
M  V30 9848 C 917.646 0.643864 3.54094 0
M  V30 9849 C 917.254 2.09602 3.95943 0
M  V30 9850 C 918.998 0.287883 4.23523 0
M  V30 9851 C 916.905 2.29686 5.44976 0
M  V30 9852 H 915.835 0.141562 0.740592 0
M  V30 9853 H 918.486 0.994653 1.54204 0
M  V30 9854 H 916.868 -0.0321978 3.95987 0
M  V30 9855 H 918.042 2.81018 3.65192 0
M  V30 9856 H 916.357 2.4122 3.39414 0
M  V30 9857 H 918.954 0.415946 5.3308 0
M  V30 9858 H 919.297 -0.766305 4.09186 0
M  V30 9859 H 919.83 0.918004 3.87063 0
M  V30 9860 H 916.569 3.33563 5.64284 0
M  V30 9861 H 916.089 1.62798 5.77284 0
M  V30 9862 H 917.768 2.11411 6.11485 0
M  V30 9863 N 917.9 -1.47166 0.563914 0
M  V30 9864 C 919.147 -2.02456 0.042371 0
M  V30 9865 C 919.475 -1.43753 -1.31016 0
M  V30 9866 O 918.73 -0.585287 -1.86743 0
M  V30 9867 C 919.029 -3.57279 -0.0931797 0
M  V30 9868 C 918.695 -4.34932 1.18933 0
M  V30 9869 C 917.357 -4.55867 1.54073 0
M  V30 9870 C 919.709 -4.79665 2.03889 0
M  V30 9871 C 917.037 -5.18785 2.74005 0
M  V30 9872 C 919.389 -5.43907 3.23029 0
M  V30 9873 C 918.053 -5.63074 3.58475 0
M  V30 9874 H 917.323 -0.740838 0.0155047 0
M  V30 9875 H 919.97 -1.76759 0.736776 0
M  V30 9876 H 918.275 -3.82005 -0.870596 0
M  V30 9877 H 919.972 -3.97716 -0.512176 0
M  V30 9878 H 916.562 -4.18921 0.905718 0
M  V30 9879 H 920.746 -4.63264 1.78046 0
M  V30 9880 H 916.002 -5.31818 3.01628 0
M  V30 9881 H 920.176 -5.77531 3.89141 0
M  V30 9882 H 917.803 -6.11598 4.515 0
M  V30 9883 N 919.378 -0.300708 -1.54705 0
M  V30 9884 C 920.606 0.31127 -2.04545 0
M  V30 9885 C 921.021 1.47542 -1.178 0
M  V30 9886 O 920.378 1.81361 -0.203571 0
M  V30 9887 C 920.429 0.767783 -3.53253 0
M  V30 9888 O 920.15 -0.350027 -4.36699 0
M  V30 9889 C 921.651 1.44494 -4.1909 0
M  V30 9890 H 918.871 0.067668 -0.667579 0
M  V30 9891 H 921.415 -0.440254 -1.99705 0
M  V30 9892 H 919.57 1.46933 -3.58454 0
M  V30 9893 H 919.984 0.00534038 -5.245 0
M  V30 9894 H 921.458 1.71553 -5.24665 0
M  V30 9895 H 921.935 2.3849 -3.68808 0
M  V30 9896 H 922.541 0.786581 -4.17963 0
M  V30 9897 N 920.856 1.57574 -0.0284266 0
M  V30 9898 C 921.766 2.13637 0.96936 0
M  V30 9899 C 922.782 1.08845 1.35752 0
M  V30 9900 O 923.958 1.40899 1.43908 0
M  V30 9901 C 921.023 2.65179 2.2334 0
M  V30 9902 C 920.084 3.84683 1.90572 0
M  V30 9903 C 919.317 4.33758 3.1095 0
M  V30 9904 O 919.54 3.82009 4.23586 0
M  V30 9905 O 918.474 5.2561 2.93288 0
M  V30 9906 H 922.3 2.99169 0.52267 0
M  V30 9907 H 919.885 1.48159 0.192135 0
M  V30 9908 H 921.767 2.98402 2.97547 0
M  V30 9909 H 920.442 1.82731 2.67191 0
M  V30 9910 H 919.349 3.56386 1.13753 0
M  V30 9911 H 920.682 4.68292 1.51538 0
M  V30 9912 N 922.334 -0.244713 1.55689 0
M  V30 9913 C 923.267 -1.32946 1.85474 0
M  V30 9914 C 924.245 -1.46279 0.710021 0
M  V30 9915 O 925.429 -1.62459 0.956004 0
M  V30 9916 C 922.556 -2.7027 2.04137 0
M  V30 9917 C 921.602 -2.74075 3.2678 0
M  V30 9918 S 922.435 -2.30465 4.8337 0
M  V30 9919 C 923.591 -3.69709 5.05041 0
M  V30 9920 H 923.824 -1.07482 2.77191 0
M  V30 9921 H 921.357 -0.445807 1.47824 0
M  V30 9922 H 923.315 -3.4934 2.15574 0
M  V30 9923 H 921.976 -2.9297 1.13259 0
M  V30 9924 H 921.169 -3.74932 3.36812 0
M  V30 9925 H 920.771 -2.03051 3.1408 0
M  V30 9926 H 923.063 -4.65222 4.92518 0
M  V30 9927 H 924.006 -3.6461 6.07014 0
M  V30 9928 H 924.414 -3.62323 4.32877 0
M  V30 9929 N 923.813 -1.49104 -0.510467 0
M  V30 9930 C 925.09 -1.48609 -1.27179 0
M  V30 9931 C 925.47 -0.208537 -2.10067 0
M  V30 9932 O 924.818 0.809335 -2.13687 0
M  V30 9933 C 925.028 -2.75953 -2.1366 0
M  V30 9934 C 926.376 -3.25067 -2.73161 0
M  V30 9935 O 927.4 -2.77005 -2.23934 0
M  V30 9936 O 926.259 -4.08747 -3.62751 0
M  V30 9937 H 923.353 -0.594374 -0.57502 0
M  V30 9938 H 925.899 -1.61358 -0.525515 0
M  V30 9939 H 924.671 -3.60434 -1.52325 0
M  V30 9940 H 924.294 -2.66019 -2.95499 0
M  V30 9941 N 925.291 0.760815 -1.38019 0
M  V30 9942 C 926.254 1.85604 -1.34476 0
M  V30 9943 C 927.254 1.58897 -0.24666 0
M  V30 9944 O 928.444 1.66776 -0.50314 0
M  V30 9945 C 925.576 3.22945 -1.09176 0
M  V30 9946 H 926.769 1.90155 -2.31908 0
M  V30 9947 H 924.322 0.961746 -1.23208 0
M  V30 9948 H 925.057 3.24066 -0.123216 0
M  V30 9949 H 924.842 3.43723 -1.88672 0
M  V30 9950 H 926.332 4.03022 -1.09375 0
M  V30 9951 N 926.769 1.22769 0.988202 0
M  V30 9952 C 927.716 1.00195 2.07917 0
M  V30 9953 C 928.686 -0.0779391 1.65917 0
M  V30 9954 O 929.871 0.0726005 1.90662 0
M  V30 9955 C 927.011 0.590853 3.40004 0
M  V30 9956 C 926.124 1.74202 3.9532 0
M  V30 9957 C 925.259 1.27846 5.15586 0
M  V30 9958 C 924.298 2.40087 5.63049 0
M  V30 9959 N 923.435 1.94744 6.74551 0
M  V30 9960 H 928.275 1.93581 2.26562 0
M  V30 9961 H 925.812 0.96448 1.11068 0
M  V30 9962 H 927.77 0.333653 4.15864 0
M  V30 9963 H 926.4 -0.306007 3.21346 0
M  V30 9964 H 925.452 2.11342 3.16289 0
M  V30 9965 H 926.764 2.58612 4.26522 0
M  V30 9966 H 925.918 0.978919 5.9875 0
M  V30 9967 H 924.657 0.404617 4.86019 0
M  V30 9968 H 923.662 2.70824 4.78471 0
M  V30 9969 H 924.887 3.27995 5.9464 0
M  V30 9970 H 922.833 1.09729 6.46758 0
M  V30 9971 H 922.75 2.72718 7.05096 0
M  V30 9972 H 924.018 1.67873 7.61209 0
M  V30 9973 N 928.247 -1.18576 1.03814 0
M  V30 9974 C 929.475 -1.92437 0.759966 0
M  V30 9975 C 929.89 -1.76031 -0.682526 0
M  V30 9976 O 929.247 -1.08829 -1.46501 0
M  V30 9977 C 929.298 -3.43923 1.11351 0
M  V30 9978 O 929.019 -3.5981 2.49937 0
M  V30 9979 C 930.52 -4.34888 0.859472 0
M  V30 9980 H 927.74 -0.610998 0.277349 0
M  V30 9981 H 930.284 -1.50448 1.38512 0
M  V30 9982 H 928.439 -3.83711 0.533362 0
M  V30 9983 H 928.853 -4.53569 2.63393 0
M  V30 9984 H 930.327 -5.39744 1.15672 0
M  V30 9985 H 930.804 -4.38717 -0.205839 0
M  V30 9986 H 931.41 -4.00795 1.42279 0
M  V30 9987 N 929.725 -0.817259 -1.34754 0
M  V30 9988 C 930.971 -0.403244 -1.98751 0
M  V30 9989 C 931.304 1.02963 -1.64658 0
M  V30 9990 O 930.579 1.71617 -0.915314 0
M  V30 9991 C 930.862 -0.599188 -3.5508 0
M  V30 9992 C 930.715 -2.07777 -3.98934 0
M  V30 9993 C 932.034 -0.0315656 -4.40089 0
M  V30 9994 H 929.153 -0.147988 -0.721989 0
M  V30 9995 H 931.795 -1.02877 -1.59738 0
M  V30 9996 H 929.945 -0.0667116 -3.88443 0
M  V30 9997 H 931.617 -2.67345 -3.75931 0
M  V30 9998 H 929.86 -2.57031 -3.49453 0
M  V30 9999 H 930.531 -2.16571 -5.07741 0
M  V30 10000 H 933.007 -0.48644 -4.13247 0
M  V30 10001 H 931.883 -0.198507 -5.48541 0
M  V30 10002 H 932.144 1.06302 -4.2913 0
M  V30 10003 N 931.203 1.46865 -0.571711 0
M  V30 10004 C 932.431 2.06818 -0.0583975 0
M  V30 10005 C 932.846 1.42218 1.24175 0
M  V30 10006 O 932.203 0.523655 1.74826 0
M  V30 10007 C 932.254 3.61281 0.125673 0
M  V30 10008 O 931.975 4.23462 -1.123 0
M  V30 10009 C 933.476 4.38137 0.674604 0
M  V30 10010 H 930.696 0.668948 -0.052438 0
M  V30 10011 H 933.24 1.88656 -0.789251 0
M  V30 10012 H 931.395 3.78908 0.806707 0
M  V30 10013 H 931.809 5.16192 -0.929869 0
M  V30 10014 H 933.283 5.46845 0.752626 0
M  V30 10015 H 933.76 4.05419 1.68915 0
M  V30 10016 H 934.366 4.2529 0.0287979 0
M  V30 10017 N 932.681 0.308908 1.54543 0
M  V30 10018 C 933.644 -0.550857 2.22482 0
M  V30 10019 C 934.644 -1.0551 1.21344 0
M  V30 10020 O 935.834 -0.949866 1.46025 0
M  V30 10021 C 932.966 -1.76354 2.9174 0
M  V30 10022 H 934.159 0.0428395 2.99869 0
M  V30 10023 H 931.712 0.059825 1.56185 0
M  V30 10024 H 932.447 -2.39686 2.18451 0
M  V30 10025 H 932.232 -1.40954 3.65889 0
M  V30 10026 H 933.722 -2.37417 3.43545 0
M  V30 10027 N 934.159 -1.57557 0.0367827 0
M  V30 10028 C 935.384 -1.96828 -0.653707 0
M  V30 10029 C 935.809 -0.913559 -1.64425 0
M  V30 10030 O 935.167 0.124749 -1.8087 0
M  V30 10031 C 935.215 -3.35189 -1.32969 0
M  V30 10032 O 934.319 -3.32095 -2.44513 0
M  V30 10033 H 933.66 -0.64157 -0.171124 0
M  V30 10034 H 936.19 -2.04351 0.100912 0
M  V30 10035 H 936.2 -3.71593 -1.68472 0
M  V30 10036 H 934.875 -4.11496 -0.603654 0
M  V30 10037 H 933.452 -3.07418 -2.11065 0
M  V30 10038 N 935.637 0.236453 -1.55816 0
M  V30 10039 C 936.886 0.960981 -1.77336 0
M  V30 10040 C 937.199 1.86085 -0.602641 0
M  V30 10041 O 938.405 2.62291 -0.701106 0
M  V30 10042 C 936.861 1.75884 -3.13995 0
M  V30 10043 C 936.469 0.905849 -4.38746 0
M  V30 10044 C 938.213 2.47548 -3.44848 0
M  V30 10045 C 936.12 1.7002 -5.66434 0
M  V30 10046 H 935.05 0.362547 -0.661117 0
M  V30 10047 H 937.701 0.215303 -1.82233 0
M  V30 10048 H 936.083 2.54687 -3.03234 0
M  V30 10049 H 937.257 0.159415 -4.60524 0
M  V30 10050 H 935.572 0.30205 -4.15303 0
M  V30 10051 H 938.169 3.07452 -4.37467 0
M  V30 10052 H 938.512 3.19689 -2.66655 0
M  V30 10053 H 939.045 1.75747 -3.56872 0
M  V30 10054 H 935.784 1.02234 -6.47479 0
M  V30 10055 H 935.304 2.42164 -5.48741 0
M  V30 10056 H 936.983 2.26469 -6.0607 0
M  V30 10057 N 937.115 1.49373 0.502552 0
M  V30 10058 C 938.062 1.65927 1.60427 0
M  V30 10059 C 939.032 0.500768 1.58371 0
M  V30 10060 O 940.217 0.727606 1.76382 0
M  V30 10061 C 937.357 1.73043 2.9858 0
M  V30 10062 C 936.47 3.00187 3.10663 0
M  V30 10063 C 935.605 2.98292 4.3954 0
M  V30 10064 C 934.644 4.20022 4.4525 0
M  V30 10065 N 933.781 4.16046 5.65553 0
M  V30 10066 H 938.621 2.59998 1.45619 0
M  V30 10067 H 936.158 1.28912 0.708519 0
M  V30 10068 H 938.116 1.7515 3.78653 0
M  V30 10069 H 936.746 0.824397 3.12095 0
M  V30 10070 H 935.798 3.07699 2.23663 0
M  V30 10071 H 937.11 3.9018 3.10742 0
M  V30 10072 H 936.264 2.98953 5.27932 0
M  V30 10073 H 935.003 2.06075 4.42023 0
M  V30 10074 H 934.008 4.19607 3.5526 0
M  V30 10075 H 935.233 5.13431 4.44484 0
M  V30 10076 H 933.179 3.26665 5.68881 0
M  V30 10077 H 933.096 4.99773 5.67242 0
M  V30 10078 H 934.364 4.20807 6.56156 0
M  V30 10079 N 938.594 -0.753485 1.38421 0
M  V30 10080 C 940.005 -1.33081 1.30944 0
M  V30 10081 C 940.356 -1.96169 -0.0347124 0
M  V30 10082 O 939.481 -1.95073 -0.936768 0
M  V30 10083 C 940.076 -2.41973 2.37138 0
M  V30 10084 C 938.635 -2.95426 2.33239 0
M  V30 10085 C 937.782 -1.68808 2.19998 0
M  V30 10086 H 940.733 -0.552354 1.48777 0
M  V30 10087 H 940.754 -3.21913 2.02859 0
M  V30 10088 H 940.266 -1.96027 3.34956 0
M  V30 10089 H 938.367 -3.45701 1.39003 0
M  V30 10090 H 938.48 -3.49798 3.27381 0
M  V30 10091 H 936.844 -1.92438 1.66852 0
M  V30 10092 H 937.627 -1.24939 3.19758 0
M  V30 10093 N 940.072 -1.23292 -0.981677 0
M  V30 10094 C 941.019 -1.01296 -2.07383 0
M  V30 10095 C 941.989 0.069139 -1.65956 0
M  V30 10096 O 943.174 -0.0827108 -1.90621 0
M  V30 10097 C 940.314 -0.608876 -3.39686 0
M  V30 10098 C 939.427 -1.76296 -3.9439 0
M  V30 10099 C 938.562 -1.30578 -5.14901 0
M  V30 10100 C 937.601 -2.4307 -5.61768 0
M  V30 10101 N 936.738 -1.98319 -6.73509 0
M  V30 10102 H 941.578 -1.9478 -2.25532 0
M  V30 10103 H 939.115 -0.970356 -1.10555 0
M  V30 10104 H 941.073 -0.355702 -4.15681 0
M  V30 10105 H 939.703 0.288961 -3.21504 0
M  V30 10106 H 938.755 -2.13017 -3.15163 0
M  V30 10107 H 940.067 -2.60871 -4.25145 0
M  V30 10108 H 939.221 -1.01066 -5.98223 0
M  V30 10109 H 937.96 -0.430386 -4.85797 0
M  V30 10110 H 936.965 -2.73358 -4.77028 0
M  V30 10111 H 938.19 -3.31144 -5.92892 0
M  V30 10112 H 936.136 -1.13157 -6.46167 0
M  V30 10113 H 936.053 -2.76454 -7.0364 0
M  V30 10114 H 937.321 -1.71907 -7.60308 0
M  V30 10115 N 941.55 1.18024 -1.04442 0
M  V30 10116 C 942.79 1.89787 -0.758957 0
M  V30 10117 C 943.154 1.78757 0.700707 0
M  V30 10118 O 944.355 2.45265 1.09994 0
M  V30 10119 C 942.626 3.36047 -1.21685 0
M  V30 10120 S 944.185 4.25864 -1.05761 0
M  V30 10121 H 941.003 0.655311 -0.275841 0
M  V30 10122 H 943.605 1.42589 -1.33749 0
M  V30 10123 H 942.309 3.41606 -2.2745 0
M  V30 10124 H 941.84 3.88286 -0.63227 0
M  V30 10125 H 943.855 4.96195 0.022729 0
M  V30 10126 N 943.028 0.824394 1.34319 0
M  V30 10127 C 944.276 0.41235 1.97849 0
M  V30 10128 C 944.597 -1.02841 1.65677 0
M  V30 10129 O 943.867 -1.71421 0.948245 0
M  V30 10130 H 942.447 0.149486 0.73189 0
M  V30 10131 H 945.109 1.05416 1.63931 0
M  V30 10132 H 944.205 0.532557 3.07523 0
M  V30 10133 N 944.506 -1.46559 0.579492 0
M  V30 10134 C 945.922 -1.57771 0.240921 0
M  V30 10135 C 946.122 -1.57505 -1.25676 0
M  V30 10136 O 945.178 -1.4903 -2.03829 0
M  V30 10137 C 946.491 -2.87311 0.887285 0
M  V30 10138 C 948.039 -3.00937 0.860576 0
M  V30 10139 C 948.514 -4.33208 1.48642 0
M  V30 10140 N 950.005 -4.39899 1.45062 0
M  V30 10141 C 950.74 -5.40856 1.90428 0
M  V30 10142 N 950.236 -6.48503 2.43752 0
M  V30 10143 N 952.029 -5.32037 1.81364 0
M  V30 10144 H 944.18 -1.44976 1.55228 0
M  V30 10145 H 946.443 -0.691354 0.648639 0
M  V30 10146 H 946.149 -2.93307 1.94071 0
M  V30 10147 H 946.023 -3.75141 0.393577 0
M  V30 10148 H 948.41 -2.94524 -0.184223 0
M  V30 10149 H 948.491 -2.14591 1.39227 0
M  V30 10150 H 948.135 -4.40378 2.5304 0
M  V30 10151 H 948.065 -5.18323 0.92998 0
M  V30 10152 H 950.556 -3.62706 1.0608 0
M  V30 10153 H 950.869 -7.21744 2.76234 0
M  V30 10154 H 949.214 -6.49332 2.47776 0
M  V30 10155 H 952.405 -4.46841 1.39465 0
M  V30 10156 H 952.578 -6.10573 2.17035 0
M  V30 10157 N 945.984 -0.3171 -1.54377 0
M  V30 10158 C 946.917 0.594178 -2.20329 0
M  V30 10159 C 947.895 1.12067 -1.17812 0
M  V30 10160 O 949.079 1.18588 -1.46524 0
M  V30 10161 C 946.206 1.81463 -2.85987 0
M  V30 10162 C 945.252 1.41996 -4.02168 0
M  V30 10163 S 946.085 0.462159 -5.33502 0
M  V30 10164 C 947.241 1.69004 -6.02651 0
M  V30 10165 H 947.474 0.0339261 -2.97281 0
M  V30 10166 H 945.007 -0.101196 -1.54068 0
M  V30 10167 H 946.965 2.51494 -3.2444 0
M  V30 10168 H 945.626 2.34606 -2.08851 0
M  V30 10169 H 944.819 2.32921 -4.4695 0
M  V30 10170 H 944.421 0.799423 -3.65356 0
M  V30 10171 H 946.713 2.62839 -6.24437 0
M  V30 10172 H 947.656 1.28451 -6.96352 0
M  V30 10173 H 948.064 1.87408 -5.32483 0
M  V30 10174 N 947.462 1.57535 -0.0451378 0
M  V30 10175 C 948.711 1.91628 0.629415 0
M  V30 10176 C 949.024 0.924754 1.72359 0
M  V30 10177 O 950.23 1.15751 2.45589 0
M  V30 10178 C 948.686 3.40322 1.17084 0
M  V30 10179 C 948.294 4.47867 0.109101 0
M  V30 10180 C 950.038 3.83458 1.82099 0
M  V30 10181 C 947.945 5.87671 0.663072 0
M  V30 10182 H 946.875 0.715163 0.238868 0
M  V30 10183 H 949.526 1.83151 -0.113046 0
M  V30 10184 H 947.908 3.43783 1.96543 0
M  V30 10185 H 949.082 4.55988 -0.664201 0
M  V30 10186 H 947.397 4.14034 -0.443227 0
M  V30 10187 H 949.994 4.85273 2.2453 0
M  V30 10188 H 950.337 3.19379 2.67026 0
M  V30 10189 H 950.87 3.82488 1.09305 0
M  V30 10190 H 947.609 6.55332 -0.148423 0
M  V30 10191 H 947.129 5.83124 1.4045 0
M  V30 10192 H 948.808 6.36737 1.14785 0
M  V30 10193 N 948.94 -0.228186 1.55939 0
M  V30 10194 C 950.165 -0.974795 1.83064 0
M  V30 10195 C 950.59 -1.77426 0.624624 0
M  V30 10196 O 949.948 -1.76211 -0.426556 0
M  V30 10197 C 949.996 -1.87342 3.08116 0
M  V30 10198 O 949.1 -2.96784 2.86344 0
M  V30 10199 H 948.441 -0.276379 0.603747 0
M  V30 10200 H 950.971 -0.243507 2.03146 0
M  V30 10201 H 950.981 -2.28451 3.38045 0
M  V30 10202 H 949.656 -1.28575 3.95526 0
M  V30 10203 H 948.233 -2.59669 2.67631 0
M  V30 10204 N 950.418 -1.49637 -0.494624 0
M  V30 10205 C 951.665 -1.59445 -1.24834 0
M  V30 10206 C 951.993 -0.284028 -1.92415 0
M  V30 10207 O 951.248 0.728519 -1.81634 0
M  V30 10208 C 951.547 -2.70749 -2.33302 0
M  V30 10209 C 951.213 -4.12034 -1.83135 0
M  V30 10210 C 949.875 -4.50482 -1.69173 0
M  V30 10211 C 952.227 -5.00432 -1.4566 0
M  V30 10212 C 949.555 -5.75093 -1.16124 0
M  V30 10213 C 951.907 -6.25568 -0.940608 0
M  V30 10214 C 950.571 -6.62839 -0.787432 0
M  V30 10215 H 949.841 -0.583451 -0.456799 0
M  V30 10216 H 952.488 -1.8349 -0.548044 0
M  V30 10217 H 950.793 -2.407 -3.09145 0
M  V30 10218 H 952.49 -2.75546 -2.91334 0
M  V30 10219 H 949.08 -3.8169 -1.94964 0
M  V30 10220 H 953.264 -4.71379 -1.55291 0
M  V30 10221 H 948.52 -6.02665 -1.02982 0
M  V30 10222 H 952.694 -6.93439 -0.641467 0
M  V30 10223 H 950.321 -7.59279 -0.374191 0
M  V30 10224 N 951.896 0.746133 -1.38819 0
M  V30 10225 C 953.121 1.54049 -1.38866 0
M  V30 10226 C 953.546 1.88092 0.0176624 0
M  V30 10227 O 952.904 1.51113 1.00173 0
M  V30 10228 C 952.952 2.8116 -2.25791 0
M  V30 10229 O 952.056 3.76623 -1.68014 0
M  V30 10230 H 951.397 0.465648 -0.473359 0
M  V30 10231 H 953.927 0.921469 -1.82675 0
M  V30 10232 H 953.937 3.30009 -2.39913 0
M  V30 10233 H 952.612 2.55713 -3.27999 0
M  V30 10234 H 951.189 3.35352 -1.63074 0
M  V30 10235 N 953.375 1.23811 0.975125 0
M  V30 10236 C 954.6 1.10109 1.75757 0
M  V30 10237 C 955.025 -0.342922 1.84948 0
M  V30 10238 O 954.383 -1.24814 1.31496 0
M  V30 10239 C 954.431 1.73724 3.15994 0
M  V30 10240 O 953.535 1.00297 4.00018 0
M  V30 10241 H 952.876 0.385627 0.540544 0
M  V30 10242 H 955.406 1.63971 1.22372 0
M  V30 10243 H 955.416 1.79178 3.6655 0
M  V30 10244 H 954.091 2.78794 3.0862 0
M  V30 10245 H 952.668 1.02575 3.58515 0
M  V30 10246 N 954.853 -1.17469 1.05066 0
M  V30 10247 C 956.101 -1.87327 0.758485 0
M  V30 10248 C 956.422 -1.81358 -0.716549 0
M  V30 10249 O 955.692 -1.23868 -1.51768 0
M  V30 10250 H 954.272 -0.693512 0.277579 0
M  V30 10251 H 956.934 -1.4251 1.32954 0
M  V30 10252 H 956.03 -2.93101 1.0723 0
M  V30 10253 N 956.331 -0.831506 -1.3388 0
M  V30 10254 C 957.579 -0.422837 -1.97627 0
M  V30 10255 C 957.9 1.01961 -1.6622 0
M  V30 10256 O 957.17 1.70916 -0.957323 0
M  V30 10257 H 955.75 -0.153365 -0.731087 0
M  V30 10258 H 958.412 -1.06284 -1.6337 0
M  V30 10259 H 957.508 -0.548858 -3.07236 0
M  V30 10260 N 957.809 1.4625 -0.587256 0
M  V30 10261 C 958.719 2.34147 0.145744 0
M  V30 10262 C 959.735 1.50026 0.881376 0
M  V30 10263 O 960.911 1.82884 0.843539 0
M  V30 10264 C 957.976 3.27294 1.14366 0
M  V30 10265 C 957.037 4.27317 0.412199 0
M  V30 10266 C 956.27 5.16013 1.36257 0
M  V30 10267 O 956.493 5.0773 2.59934 0
M  V30 10268 O 955.427 5.95569 0.870681 0
M  V30 10269 H 959.253 2.98187 -0.576055 0
M  V30 10270 H 956.838 1.45299 -0.347628 0
M  V30 10271 H 958.72 3.84747 1.71894 0
M  V30 10272 H 957.395 2.65845 1.84684 0
M  V30 10273 H 956.302 3.73538 -0.205036 0
M  V30 10274 H 957.635 4.91564 -0.250104 0
M  V30 10275 N 959.287 0.325282 1.54207 0
M  V30 10276 C 960.235 -0.5554 2.25872 0
M  V30 10277 C 961.229 -1.11714 1.27344 0
M  V30 10278 O 962.435 -1.06498 1.45115 0
M  V30 10279 H 958.81 -0.19776 0.725531 0
M  V30 10280 H 960.781 0.0712858 2.98315 0
M  V30 10281 C 959.53 -1.70379 3.03095 0
M  V30 10282 H 958.853 -1.2808 3.78729 0
M  V30 10283 H 960.293 -2.29556 3.56483 0
M  V30 10284 C 958.752 -2.62242 2.11496 0
M  V30 10285 O 959.282 -3.64003 1.69895 0
M  V30 10286 N 957.488 -2.30515 1.7695 0
M  V30 10287 H 957.035 -1.47805 2.10978 0
M  V30 10288 H 956.993 -2.92241 1.15942 0
M  V30 10289 N 960.765 -1.57509 0.0534917 0
M  V30 10290 C 962.176 -1.80374 -0.481867 0
M  V30 10291 C 962.527 -0.965917 -1.70776 0
M  V30 10292 O 961.652 -0.183167 -2.15623 0
M  V30 10293 C 962.247 -3.27146 -0.880978 0
M  V30 10294 C 960.806 -3.50921 -1.3613 0
M  V30 10295 C 959.953 -2.75237 -0.337611 0
M  V30 10296 H 962.904 -1.56222 0.279353 0
M  V30 10297 H 962.925 -3.38193 -1.74373 0
M  V30 10298 H 962.437 -3.88098 0.011441 0
M  V30 10299 H 960.538 -2.95251 -2.27283 0
M  V30 10300 H 960.651 -4.59632 -1.35186 0
M  V30 10301 H 959.015 -2.41444 -0.810991 0
M  V30 10302 H 959.798 -3.38918 0.546763 0
M  V30 10303 N 962.243 0.219913 -1.56058 0
M  V30 10304 C 963.193 1.27606 -1.88946 0
M  V30 10305 C 964.177 1.42209 -0.752691 0
M  V30 10306 O 965.369 1.44996 -1.01514 0
M  V30 10307 C 962.498 2.62614 -2.21108 0
M  V30 10308 C 961.584 2.51906 -3.4118 0
M  V30 10309 N 961.975 2.10851 -4.59756 0
M  V30 10310 C 960.273 2.82861 -3.44827 0
M  V30 10311 C 960.974 2.11434 -5.41914 0
M  V30 10312 N 959.95 2.51985 -4.81669 0
M  V30 10313 H 963.752 0.94957 -2.78137 0
M  V30 10314 H 961.266 0.428468 -1.56646 0
M  V30 10315 H 963.263 3.38869 -2.42844 0
M  V30 10316 H 961.923 2.96108 -1.3323 0
M  V30 10317 H 962.934 1.81956 -4.84884 0
M  V30 10318 H 959.611 3.20716 -2.67297 0
M  V30 10319 H 961.001 1.81803 -6.46836 0
M  V30 10320 N 963.721 1.49897 0.486681 0
M  V30 10321 C 964.969 1.59789 1.23742 0
M  V30 10322 C 965.29 0.293056 1.92785 0
M  V30 10323 O 964.56 -0.688534 1.83401 0
M  V30 10324 H 963.14 0.588775 0.459731 0
M  V30 10325 H 965.802 1.86597 0.562808 0
M  V30 10326 H 964.898 2.40121 1.9937 0
M  V30 10327 N 965.199 -0.738761 1.39212 0
M  V30 10328 C 966.445 -1.50046 1.36433 0
M  V30 10329 C 966.778 -1.94157 -0.0409474 0
M  V30 10330 O 966.053 -1.66515 -1.00514 0
M  V30 10331 C 966.336 -2.74277 2.33333 0
M  V30 10332 C 966.189 -2.36209 3.82786 0
M  V30 10333 C 967.508 -3.76361 2.28123 0
M  V30 10334 H 964.627 -0.544294 0.496903 0
M  V30 10335 H 967.269 -0.845005 1.70175 0
M  V30 10336 H 965.419 -3.30204 2.04689 0
M  V30 10337 H 967.091 -1.85942 4.22165 0
M  V30 10338 H 965.334 -1.68483 3.99745 0
M  V30 10339 H 966.005 -3.25156 4.46069 0
M  V30 10340 H 968.481 -3.30009 2.53443 0
M  V30 10341 H 967.357 -4.60957 2.9801 0
M  V30 10342 H 967.618 -4.23013 1.28499 0
M  V30 10343 N 966.677 -1.24326 -0.968545 0
M  V30 10344 C 967.624 -1.0349 -2.06297 0
M  V30 10345 C 968.594 0.0515333 -1.6602 0
M  V30 10346 O 969.779 -0.102924 -1.90522 0
M  V30 10347 C 966.919 -0.64487 -3.39021 0
M  V30 10348 C 966.032 -1.80469 -3.92498 0
M  V30 10349 C 965.167 -1.36032 -5.13487 0
M  V30 10350 C 964.206 -2.49014 -5.59159 0
M  V30 10351 N 963.343 -2.05451 -6.71367 0
M  V30 10352 H 968.183 -1.97161 -2.23454 0
M  V30 10353 H 965.72 -0.982028 -1.0952 0
M  V30 10354 H 967.678 -0.399771 -4.1528 0
M  V30 10355 H 966.308 0.254845 -3.21792 0
M  V30 10356 H 965.36 -2.16348 -3.12886 0
M  V30 10357 H 966.672 -2.65365 -4.22354 0
M  V30 10358 H 965.826 -1.07405 -5.97117 0
M  V30 10359 H 964.565 -0.481887 -4.85313 0
M  V30 10360 H 963.57 -2.78402 -4.74102 0
M  V30 10361 H 964.795 -3.37413 -5.89346 0
M  V30 10362 H 962.741 -1.20004 -6.4493 0
M  V30 10363 H 962.658 -2.83901 -7.00668 0
M  V30 10364 H 963.926 -1.79962 -7.58442 0
M  V30 10365 N 968.156 1.1691 -1.05688 0
M  V30 10366 C 969.119 2.19297 -0.666433 0
M  V30 10367 C 970.119 1.5826 0.284674 0
M  V30 10368 O 971.309 1.74068 0.0678757 0
M  V30 10369 C 968.441 3.40894 0.0203656 0
M  V30 10370 H 969.634 2.55354 -1.57272 0
M  V30 10371 H 967.187 1.31078 -0.851359 0
M  V30 10372 H 967.922 3.10388 0.939686 0
M  V30 10373 H 967.707 3.86446 -0.663464 0
M  V30 10374 H 969.197 4.16664 0.279475 0
M  V30 10375 N 969.634 0.838594 1.33437 0
M  V30 10376 C 970.88 0.434813 1.98084 0
M  V30 10377 C 971.213 -1.00331 1.66275 0
M  V30 10378 O 970.488 -1.70139 0.942501 0
M  V30 10379 C 970.771 0.655602 3.54082 0
M  V30 10380 C 970.624 2.14097 3.95578 0
M  V30 10381 C 971.943 0.101576 4.39983 0
M  V30 10382 H 969.062 0.159456 0.719544 0
M  V30 10383 H 971.704 1.05406 1.58081 0
M  V30 10384 H 969.854 0.128501 3.88287 0
M  V30 10385 H 971.526 2.73292 3.71631 0
M  V30 10386 H 969.769 2.62558 3.4532 0
M  V30 10387 H 970.44 2.24621 5.04231 0
M  V30 10388 H 972.916 0.552122 4.12421 0
M  V30 10389 H 971.792 0.28575 5.48156 0
M  V30 10390 H 972.053 -0.994616 4.30767 0
M  V30 10391 N 971.112 -1.45937 0.595003 0
M  V30 10392 C 972.34 -2.06698 0.091293 0
M  V30 10393 C 972.755 -1.44176 -1.21897 0
M  V30 10394 O 972.112 -0.551402 -1.73971 0
M  V30 10395 C 972.163 -3.61436 -0.0681801 0
M  V30 10396 O 971.884 -4.21622 1.19023 0
M  V30 10397 C 973.385 -4.39155 -0.604814 0
M  V30 10398 H 970.605 -0.668029 0.0630737 0
M  V30 10399 H 973.149 -1.87376 0.819165 0
M  V30 10400 H 971.304 -3.80143 -0.746324 0
M  V30 10401 H 971.718 -5.14647 1.01187 0
M  V30 10402 H 973.192 -5.47973 -0.665532 0
M  V30 10403 H 973.669 -4.08055 -1.62444 0
M  V30 10404 H 974.275 -4.25282 0.0388658 0
M  V30 10405 N 972.59 -0.333456 -1.54032 0
M  V30 10406 C 973.537 0.527981 -2.2468 0
M  V30 10407 C 974.507 1.10371 -1.24127 0
M  V30 10408 O 975.692 1.14221 -1.52834 0
M  V30 10409 C 972.832 1.67808 -3.01553 0
M  V30 10410 C 971.945 1.13064 -4.16942 0
M  V30 10411 C 971.08 2.24722 -4.81325 0
M  V30 10412 C 970.119 1.67277 -5.88799 0
M  V30 10413 N 969.256 2.72638 -6.47003 0
M  V30 10414 H 974.096 -0.0810308 -2.9789 0
M  V30 10415 H 971.633 -0.051761 -1.47009 0
M  V30 10416 H 973.591 2.35502 -3.44376 0
M  V30 10417 H 972.221 2.25823 -2.30659 0
M  V30 10418 H 971.273 0.344948 -3.78833 0
M  V30 10419 H 972.585 0.670373 -4.94275 0
M  V30 10420 H 971.739 3.00301 -5.27166 0
M  V30 10421 H 970.478 2.74089 -4.03394 0
M  V30 10422 H 969.483 0.902002 -5.4235 0
M  V30 10423 H 970.708 1.18775 -6.68632 0
M  V30 10424 H 968.654 3.21277 -5.71941 0
M  V30 10425 H 968.571 2.31204 -7.19778 0
M  V30 10426 H 969.839 3.48015 -6.97499 0
M  V30 10427 N 974.068 1.57479 -0.061844 0
M  V30 10428 C 975.316 1.92727 0.608336 0
M  V30 10429 C 975.637 0.941799 1.70749 0
M  V30 10430 O 974.907 -0.0116608 1.95897 0
M  V30 10431 H 973.487 0.71145 0.2277 0
M  V30 10432 H 976.149 1.94546 -0.117359 0
M  V30 10433 H 975.245 2.9426 1.04007 0
M  V30 10434 N 975.546 -0.211634 1.56173 0
M  V30 10435 C 976.493 -1.26231 1.93221 0
M  V30 10436 C 977.463 -1.46076 0.790641 0
M  V30 10437 O 978.648 -1.59482 1.04739 0
M  V30 10438 C 975.788 -2.60559 2.26281 0
M  V30 10439 C 974.901 -2.48431 3.5342 0
M  V30 10440 C 974.036 -3.7535 3.7588 0
M  V30 10441 C 973.075 -3.57985 4.96501 0
M  V30 10442 N 972.212 -4.76877 5.15299 0
M  V30 10443 H 977.052 -0.939367 2.82807 0
M  V30 10444 H 974.589 -0.452511 1.39967 0
M  V30 10445 H 976.547 -3.38796 2.43461 0
M  V30 10446 H 975.177 -2.9093 1.39855 0
M  V30 10447 H 974.229 -1.61577 3.44379 0
M  V30 10448 H 975.541 -2.31526 4.41811 0
M  V30 10449 H 974.695 -4.62029 3.9321 0
M  V30 10450 H 973.434 -3.95191 2.85788 0
M  V30 10451 H 972.439 -2.69691 4.79111 0
M  V30 10452 H 973.664 -3.39605 5.88086 0
M  V30 10453 H 971.61 -4.97013 4.28152 0
M  V30 10454 H 971.527 -4.62735 5.9784 0
M  V30 10455 H 972.795 -5.64954 5.37073 0
M  V30 10456 N 977.024 -1.50153 -0.478725 0
M  V30 10457 C 978.44 -1.3741 -0.811833 0
M  V30 10458 C 978.64 -0.424303 -1.96982 0
M  V30 10459 O 977.696 0.13588 -2.52134 0
M  V30 10460 C 979.009 -2.78616 -1.13108 0
M  V30 10461 C 980.557 -2.87477 -1.23798 0
M  V30 10462 C 981.032 -4.295 -1.5904 0
M  V30 10463 N 982.523 -4.32415 -1.66047 0
M  V30 10464 C 983.258 -5.39295 -1.94805 0
M  V30 10465 N 982.754 -6.56392 -2.21635 0
M  V30 10466 N 984.547 -5.26731 -1.96243 0
M  V30 10467 H 976.698 -2.10486 0.284531 0
M  V30 10468 H 978.961 -0.945786 0.0647585 0
M  V30 10469 H 978.667 -3.49921 -0.35334 0
M  V30 10470 H 978.541 -3.15382 -2.06915 0
M  V30 10471 H 980.928 -2.16396 -2.00641 0
M  V30 10472 H 981.009 -2.54264 -0.279888 0
M  V30 10473 H 980.653 -5.01115 -0.827404 0
M  V30 10474 H 980.583 -4.60194 -2.55987 0
M  V30 10475 H 983.074 -3.47975 -1.47383 0
M  V30 10476 H 983.387 -7.33658 -2.4283 0
M  V30 10477 H 981.732 -6.59579 -2.19043 0
M  V30 10478 H 984.923 -4.34249 -1.74773 0
M  V30 10479 H 985.096 -6.10115 -2.1832 0
M  V30 10480 N 978.502 0.731368 -1.39602 0
M  V30 10481 C 979.742 1.5036 -1.3846 0
M  V30 10482 C 980.106 1.91991 0.018784 0
M  V30 10483 O 981.307 2.68351 0.155236 0
M  V30 10484 C 979.578 2.70755 -2.33295 0
M  V30 10485 S 981.137 3.6036 -2.50372 0
M  V30 10486 H 977.955 0.514271 -0.490964 0
M  V30 10487 H 980.557 0.856654 -1.75732 0
M  V30 10488 H 979.261 2.38316 -3.34116 0
M  V30 10489 H 978.792 3.40376 -1.97251 0
M  V30 10490 H 980.807 4.64529 -1.74435 0
M  V30 10491 N 979.98 1.24838 0.961938 0
M  V30 10492 C 980.943 1.04674 2.03902 0
M  V30 10493 C 981.943 0.00204674 1.608 0
M  V30 10494 O 983.133 0.243555 1.72489 0
M  V30 10495 C 980.265 0.587736 3.35795 0
M  V30 10496 H 981.458 2.00278 2.23223 0
M  V30 10497 H 979.011 1.07142 1.138 0
M  V30 10498 H 979.746 -0.371244 3.22168 0
M  V30 10499 H 979.531 1.34182 3.68426 0
M  V30 10500 H 981.021 0.467867 4.14971 0
M  V30 10501 N 981.458 -1.16348 1.06306 0
M  V30 10502 C 982.704 -1.87158 0.781007 0
M  V30 10503 C 983.037 -1.81499 -0.690784 0
M  V30 10504 O 982.312 -1.23074 -1.50609 0
M  V30 10505 C 982.595 -3.3672 1.27639 0
M  V30 10506 C 982.448 -3.51069 2.81194 0
M  V30 10507 C 983.767 -4.31122 0.884388 0
M  V30 10508 H 980.886 -0.679586 0.285187 0
M  V30 10509 H 983.528 -1.36756 1.31901 0
M  V30 10510 H 981.678 -3.79775 0.818715 0
M  V30 10511 H 983.35 -3.16952 3.35171 0
M  V30 10512 H 981.593 -2.92976 3.19918 0
M  V30 10513 H 982.264 -4.56105 3.10921 0
M  V30 10514 H 984.74 -3.95969 1.27858 0
M  V30 10515 H 983.616 -5.34279 1.25847 0
M  V30 10516 H 983.877 -4.41598 -0.210673 0
M  V30 10517 N 982.937 -0.845659 -1.3299 0
M  V30 10518 C 983.9 -0.288905 -2.27372 0
M  V30 10519 C 984.9 0.546263 -1.51237 0
M  V30 10520 O 986.09 0.359072 -1.70459 0
M  V30 10521 C 983.222 0.59224 -3.35716 0
M  V30 10522 H 984.415 -1.12181 -2.78128 0
M  V30 10523 H 981.968 -0.619276 -1.43508 0
M  V30 10524 H 982.703 1.44732 -2.90212 0
M  V30 10525 H 982.488 -0.00543255 -3.921 0
M  V30 10526 H 983.978 0.974848 -4.06062 0
M  V30 10527 N 984.415 1.45619 -0.602734 0
M  V30 10528 C 985.345 2.33258 0.106342 0
M  V30 10529 C 986.326 1.46543 0.863664 0
M  V30 10530 O 987.511 1.75324 0.835175 0
M  V30 10531 C 984.641 3.29168 1.10751 0
M  V30 10532 C 983.595 4.25481 0.463717 0
M  V30 10533 C 982.921 5.11046 1.57278 0
M  V30 10534 C 984.221 5.18702 -0.61199 0
M  V30 10535 H 985.915 2.92795 -0.625423 0
M  V30 10536 H 983.461 1.40793 -0.302213 0
M  V30 10537 H 985.414 3.89346 1.61208 0
M  V30 10538 H 984.138 2.6778 1.8698 0
M  V30 10539 H 982.797 3.66595 -0.0199496 0
M  V30 10540 H 982.445 4.46029 2.32524 0
M  V30 10541 H 982.145 5.76286 1.14755 0
M  V30 10542 H 983.669 5.74091 2.07972 0
M  V30 10543 H 985.083 5.72979 -0.191686 0
M  V30 10544 H 983.48 5.92393 -0.958686 0
M  V30 10545 H 984.55 4.61424 -1.4905 0
M  V30 10546 N 985.893 0.34162 1.53853 0
M  V30 10547 C 987.139 -0.248546 2.01876 0
M  V30 10548 C 987.494 -1.48352 1.22513 0
M  V30 10549 O 986.787 -1.89174 0.303919 0
M  V30 10550 C 986.981 -0.616989 3.52034 0
M  V30 10551 C 986.81 0.580727 4.45935 0
M  V30 10552 C 985.58 1.08544 4.93504 0
M  V30 10553 C 987.778 1.43858 4.93771 0
M  V30 10554 N 985.76 2.24568 5.71351 0
M  V30 10555 C 987.131 2.44575 5.69722 0
M  V30 10556 C 989.186 1.46425 4.75882 0
M  V30 10557 C 987.889 3.47687 6.29688 0
M  V30 10558 C 989.915 2.48416 5.36697 0
M  V30 10559 C 989.277 3.4786 6.12514 0
M  V30 10560 H 985.376 -0.0543067 0.780112 0
M  V30 10561 H 987.96 0.480749 1.88671 0
M  V30 10562 H 986.131 -1.31539 3.65448 0
M  V30 10563 H 987.863 -1.19018 3.86803 0
M  V30 10564 H 984.618 0.653832 4.69065 0
M  V30 10565 H 985.042 2.83143 6.14946 0
M  V30 10566 H 989.684 0.709044 4.16812 0
M  V30 10567 H 987.402 4.24103 6.87868 0
M  V30 10568 H 990.988 2.51227 5.24763 0
M  V30 10569 H 989.868 4.25486 6.58734 0
M  V30 10570 N 987.371 -1.57444 0.0701946 0
M  V30 10571 C 988.618 -1.93429 -0.59929 0
M  V30 10572 C 988.946 -0.9501 -1.69715 0
M  V30 10573 O 988.201 0.0345377 -1.9567 0
M  V30 10574 C 988.5 -3.36044 -1.21694 0
M  V30 10575 C 988.166 -4.50232 -0.245374 0
M  V30 10576 C 986.828 -4.81195 0.0219161 0
M  V30 10577 C 989.18 -5.1951 0.419396 0
M  V30 10578 C 986.508 -5.78775 0.96109 0
M  V30 10579 C 988.86 -6.18095 1.34688 0
M  V30 10580 C 987.524 -6.47477 1.62265 0
M  V30 10581 H 986.794 -0.707807 -0.219296 0
M  V30 10582 H 989.441 -1.90982 0.14073 0
M  V30 10583 H 987.746 -3.34948 -2.03265 0
M  V30 10584 H 989.443 -3.61176 -1.74221 0
M  V30 10585 H 986.033 -4.26082 -0.463887 0
M  V30 10586 H 990.217 -4.95785 0.226009 0
M  V30 10587 H 985.473 -5.99865 1.18202 0
M  V30 10588 H 989.647 -6.7088 1.86795 0
M  V30 10589 H 987.274 -7.229 2.352 0
M  V30 10590 N 988.849 0.203349 -1.56283 0
M  V30 10591 C 990.077 0.941426 -1.84241 0
M  V30 10592 C 990.492 1.77197 -0.651658 0
M  V30 10593 O 989.849 1.78506 0.379713 0
M  V30 10594 C 989.9 1.84429 -3.10915 0
M  V30 10595 O 989.621 1.04729 -4.25398 0
M  V30 10596 C 991.122 2.69474 -3.51993 0
M  V30 10597 H 988.342 0.27507 -0.612027 0
M  V30 10598 H 990.886 0.213088 -2.03387 0
M  V30 10599 H 989.041 2.52635 -2.93691 0
M  V30 10600 H 989.455 1.66179 -4.97478 0
M  V30 10601 H 990.929 3.28495 -4.43616 0
M  V30 10602 H 991.406 3.42775 -2.74594 0
M  V30 10603 H 992.012 2.06652 -3.71719 0
M  V30 10604 N 990.327 1.50405 0.470755 0
M  V30 10605 C 991.257 1.72222 1.57676 0
M  V30 10606 C 992.238 0.57121 1.60222 0
M  V30 10607 O 993.423 0.810381 1.76484 0
M  V30 10608 C 990.553 1.81666 2.95998 0
M  V30 10609 C 989.507 2.96857 3.08318 0
M  V30 10610 C 988.833 2.91445 4.4829 0
M  V30 10611 C 990.133 4.37361 2.85504 0
M  V30 10612 H 991.827 2.64825 1.39671 0
M  V30 10613 H 989.373 1.27438 0.67049 0
M  V30 10614 H 991.326 1.95514 3.73299 0
M  V30 10615 H 990.05 0.856856 3.1516 0
M  V30 10616 H 988.709 2.82661 2.33449 0
M  V30 10617 H 988.357 1.93309 4.64371 0
M  V30 10618 H 988.057 3.68776 4.57469 0
M  V30 10619 H 989.581 3.07341 5.27611 0
M  V30 10620 H 990.995 4.52081 3.52555 0
M  V30 10621 H 989.392 5.16145 3.06127 0
M  V30 10622 H 990.462 4.49708 1.81359 0
M  V30 10623 N 991.805 -0.723954 1.39988 0
M  V30 10624 C 993.082 -1.4763 1.28316 0
M  V30 10625 C 993.462 -2.10852 -0.102302 0
M  V30 10626 O 992.81 -1.9948 -1.11445 0
M  V30 10627 C 993.02 -2.51878 2.41574 0
M  V30 10628 C 994.368 -3.17948 2.81415 0
M  V30 10629 O 995.392 -2.62195 2.41106 0
M  V30 10630 O 994.251 -4.18858 3.51027 0
M  V30 10631 H 991.345 -0.656092 0.50346 0
M  V30 10632 H 993.891 -0.75684 1.51888 0
M  V30 10633 H 992.663 -2.03618 3.34149 0
M  V30 10634 H 992.286 -3.3137 2.19727 0
M  V30 10635 N 993.283 -1.25346 -0.955304 0
M  V30 10636 C 994.694 -1.09173 -1.51453 0
M  V30 10637 C 995.045 0.332755 -1.93358 0
M  V30 10638 O 994.17 1.22264 -1.78551 0
M  V30 10639 C 994.765 -1.97564 -2.75234 0
M  V30 10640 C 993.324 -1.85579 -3.27471 0
M  V30 10641 C 992.471 -1.91755 -2.00313 0
M  V30 10642 H 995.422 -1.38642 -0.772271 0
M  V30 10643 H 995.443 -1.51523 -3.49029 0
M  V30 10644 H 994.955 -3.01233 -2.44704 0
M  V30 10645 H 993.056 -0.847906 -3.62824 0
M  V30 10646 H 993.169 -2.70353 -3.95533 0
M  V30 10647 H 991.533 -1.35633 -2.15582 0
M  V30 10648 H 992.316 -2.97028 -1.72132 0
M  V30 10649 N 994.761 1.15782 -1.06922 0
M  V30 10650 C 995.691 2.22538 -0.707045 0
M  V30 10651 C 996.672 1.67371 0.303471 0
M  V30 10652 O 997.857 1.9339 0.177189 0
M  V30 10653 C 994.987 3.47158 -0.0994269 0
M  V30 10654 C 993.941 4.15257 -1.03661 0
M  V30 10655 C 993.267 5.33902 -0.291974 0
M  V30 10656 C 994.567 4.65516 -2.36837 0
M  V30 10657 H 996.261 2.53089 -1.59958 0
M  V30 10658 H 993.807 1.21649 -0.770552 0
M  V30 10659 H 995.76 4.21073 0.165852 0
M  V30 10660 H 994.484 3.15926 0.828155 0
M  V30 10661 H 993.143 3.43276 -1.28674 0
M  V30 10662 H 992.791 4.98926 0.638928 0
M  V30 10663 H 992.491 5.80407 -0.916613 0
M  V30 10664 H 994.015 6.1059 -0.0343915 0
M  V30 10665 H 995.429 5.30981 -2.16175 0
M  V30 10666 H 993.826 5.22666 -2.94856 0
M  V30 10667 H 994.896 3.81387 -2.99453 0
M  V30 10668 N 996.239 0.8527 1.3254 0
M  V30 10669 C 997.469 0.468363 2.01221 0
M  V30 10670 C 997.877 -0.938966 1.64256 0
M  V30 10671 O 997.22 -1.62387 0.858837 0
M  V30 10672 C 997.282 0.525457 3.55639 0
M  V30 10673 C 996.946 1.89133 4.16026 0
M  V30 10674 C 997.943 2.85652 4.34395 0
M  V30 10675 C 995.628 2.18795 4.52144 0
M  V30 10676 C 997.622 4.09985 4.88048 0
M  V30 10677 C 995.309 3.43381 5.05502 0
M  V30 10678 C 996.307 4.38792 5.23403 0
M  V30 10679 O 995.995 5.61173 5.75622 0
M  V30 10680 H 995.727 0.182712 0.65084 0
M  V30 10681 H 998.281 1.15076 1.70138 0
M  V30 10682 H 996.511 -0.213779 3.86109 0
M  V30 10683 H 998.2 0.156999 4.05596 0
M  V30 10684 H 998.966 2.6404 4.06827 0
M  V30 10685 H 994.845 1.45317 4.37498 0
M  V30 10686 H 998.389 4.84465 5.01936 0
M  V30 10687 H 994.286 3.64844 5.32503 0
M  V30 10688 H 995.054 5.63104 5.94017 0
M  V30 10689 N 997.718 -1.45297 0.610449 0
M  V30 10690 C 999.134 -1.57225 0.274332 0
M  V30 10691 C 999.334 -1.60136 -1.22306 0
M  V30 10692 O 998.39 -1.5332 -2.00622 0
M  V30 10693 C 999.703 -2.85365 0.948028 0
M  V30 10694 C 1001.25 -2.99044 0.924216 0
M  V30 10695 C 1001.73 -4.29958 1.57798 0
M  V30 10696 N 1003.22 -4.36723 1.5436 0
M  V30 10697 C 1003.95 -5.36695 2.01857 0
M  V30 10698 N 1003.45 -6.43187 2.57453 0
M  V30 10699 N 1005.24 -5.28071 1.92608 0
M  V30 10700 H 997.392 -1.41651 1.58268 0
M  V30 10701 H 999.655 -0.67744 0.663158 0
M  V30 10702 H 999.361 -2.89125 2.00249 0
M  V30 10703 H 999.235 -3.74222 0.473062 0
M  V30 10704 H 1001.62 -2.94849 -0.121709 0
M  V30 10705 H 1001.7 -2.1159 1.43748 0
M  V30 10706 H 1001.35 -4.34912 2.62325 0
M  V30 10707 H 1001.28 -5.16234 1.03972 0
M  V30 10708 H 1003.77 -3.60374 1.13749 0
M  V30 10709 H 1004.08 -7.15722 2.91482 0
M  V30 10710 H 1002.43 -6.4393 2.61493 0
M  V30 10711 H 1005.62 -4.43783 1.48912 0
M  V30 10712 H 1005.79 -6.05832 2.29938 0
M  V30 10713 N 999.196 -0.349774 -1.5367 0
M  V30 10714 C 1000.11 0.512421 -2.28935 0
M  V30 10715 C 1001.12 1.1065 -1.34286 0
M  V30 10716 O 1002.3 1.12084 -1.67329 0
M  V30 10717 C 999.363 1.64449 -3.05217 0
M  V30 10718 C 998.424 1.07956 -4.15505 0
M  V30 10719 C 997.657 2.15768 -4.88139 0
M  V30 10720 O 997.88 3.366 -4.60496 0
M  V30 10721 O 996.814 1.79712 -5.74445 0
M  V30 10722 H 1000.64 -0.0996001 -3.03537 0
M  V30 10723 H 998.225 -0.114629 -1.4896 0
M  V30 10724 H 1000.11 2.30302 -3.52901 0
M  V30 10725 H 998.782 2.24221 -2.33467 0
M  V30 10726 H 997.689 0.385381 -3.7211 0
M  V30 10727 H 999.022 0.526621 -4.89375 0
M  V30 10728 N 1000.67 1.57404 -0.0785433 0
M  V30 10729 C 1001.6 2.16131 0.883726 0
M  V30 10730 C 1002.58 1.09015 1.30575 0
M  V30 10731 O 1003.77 1.3708 1.37559 0
M  V30 10732 C 1000.9 2.72836 2.1489 0
M  V30 10733 C 999.854 3.85178 1.86605 0
M  V30 10734 C 999.18 4.28516 3.1981 0
M  V30 10735 C 1000.48 5.09118 1.16601 0
M  V30 10736 H 1002.17 2.9679 0.394484 0
M  V30 10737 H 999.72 1.42763 0.188304 0
M  V30 10738 H 1001.67 3.12567 2.8263 0
M  V30 10739 H 1000.4 1.89408 2.66068 0
M  V30 10740 H 999.056 3.45962 1.21268 0
M  V30 10741 H 998.704 3.42 3.68843 0
M  V30 10742 H 998.404 5.04249 3.01674 0
M  V30 10743 H 999.928 4.70868 3.88737 0
M  V30 10744 H 1001.34 5.46123 1.74422 0
M  V30 10745 H 999.739 5.90173 1.087 0
M  V30 10746 H 1000.81 4.8468 0.146138 0
M  V30 10747 N 1002.15 -0.195058 1.56388 0
M  V30 10748 C 1003.06 -1.26219 1.97752 0
M  V30 10749 C 1004.08 -1.49801 0.885192 0
M  V30 10750 O 1005.25 -1.62415 1.19094 0
M  V30 10751 C 1002.32 -2.5865 2.3087 0
M  V30 10752 C 1001.38 -2.4314 3.5381 0
M  V30 10753 C 1000.61 -3.69255 3.85339 0
M  V30 10754 O 1000.84 -4.73425 3.18159 0
M  V30 10755 O 999.77 -3.64782 4.78767 0
M  V30 10756 H 1003.6 -0.941161 2.88749 0
M  V30 10757 H 1001.18 -0.40006 1.43944 0
M  V30 10758 H 1003.06 -3.36814 2.53247 0
M  V30 10759 H 1001.74 -2.9038 1.43042 0
M  V30 10760 H 1000.64 -1.63086 3.3668 0
M  V30 10761 H 1001.98 -2.16341 4.42105 0
M  V30 10762 N 1003.63 -1.50653 -0.462772 0
M  V30 10763 C 1005.05 -1.38263 -0.797213 0
M  V30 10764 C 1005.25 -0.445172 -1.96521 0
M  V30 10765 O 1004.3 0.10913 -2.52264 0
M  V30 10766 C 1005.61 -2.798 -1.10146 0
M  V30 10767 C 1007.16 -2.88774 -1.20742 0
M  V30 10768 C 1007.64 -4.31163 -1.54476 0
M  V30 10769 N 1009.13 -4.34152 -1.61451 0
M  V30 10770 C 1009.86 -5.4133 -1.89074 0
M  V30 10771 N 1009.36 -6.58705 -2.1466 0
M  V30 10772 N 1011.15 -5.28783 -1.90645 0
M  V30 10773 H 1003.3 -2.10172 0.30684 0
M  V30 10774 H 1005.57 -0.945046 0.0747862 0
M  V30 10775 H 1005.27 -3.50276 -0.316207 0
M  V30 10776 H 1005.15 -3.17559 -2.03559 0
M  V30 10777 H 1007.53 -2.18512 -1.98334 0
M  V30 10778 H 1007.61 -2.54547 -0.252904 0
M  V30 10779 H 1007.26 -5.01965 -0.774207 0
M  V30 10780 H 1007.19 -4.62883 -2.51092 0
M  V30 10781 H 1009.68 -3.49519 -1.43684 0
M  V30 10782 H 1009.99 -7.36192 -2.35035 0
M  V30 10783 H 1008.34 -6.61866 -2.12035 0
M  V30 10784 H 1011.53 -4.36078 -1.70158 0
M  V30 10785 H 1011.7 -6.12396 -2.11836 0
M  V30 10786 N 1005.11 0.71652 -1.4037 0
M  V30 10787 C 1006.36 1.47193 -1.37903 0
M  V30 10788 C 1006.67 1.95593 0.0159939 0
M  V30 10789 O 1007.88 2.71009 0.163282 0
M  V30 10790 C 1006.33 2.6606 -2.42363 0
M  V30 10791 C 1005.94 2.24533 -3.87671 0
M  V30 10792 C 1007.68 3.438 -2.49001 0
M  V30 10793 C 1005.59 3.40234 -4.8373 0
M  V30 10794 H 1004.52 0.552811 -0.512753 0
M  V30 10795 H 1007.17 0.779894 -1.66102 0
M  V30 10796 H 1005.55 3.37429 -2.07262 0
M  V30 10797 H 1006.73 1.6059 -4.31911 0
M  V30 10798 H 1005.04 1.59839 -3.845 0
M  V30 10799 H 1007.64 4.29893 -3.17956 0
M  V30 10800 H 1007.98 3.8755 -1.52023 0
M  V30 10801 H 1008.52 2.79474 -2.83088 0
M  V30 10802 H 1005.26 3.01517 -5.82037 0
M  V30 10803 H 1004.78 4.03095 -4.44156 0
M  V30 10804 H 1006.45 4.06312 -5.03507 0
M  V30 10805 N 1006.59 1.25851 0.948643 0
M  V30 10806 C 1007.52 1.02549 2.04979 0
M  V30 10807 C 1008.53 -0.0115923 1.62796 0
M  V30 10808 O 1009.72 0.227643 1.77042 0
M  V30 10809 C 1006.82 0.529486 3.34738 0
M  V30 10810 C 1005.99 1.6341 4.05729 0
M  V30 10811 C 1005.05 1.13743 5.1376 0
M  V30 10812 O 1004.08 1.83303 5.38877 0
M  V30 10813 N 1005.28 -0.0181151 5.80497 0
M  V30 10814 H 1008.05 1.97365 2.25537 0
M  V30 10815 H 1005.61 1.17137 1.11761 0
M  V30 10816 H 1007.6 0.181566 4.04293 0
M  V30 10817 H 1006.17 -0.324893 3.10907 0
M  V30 10818 H 1005.39 2.15331 3.30191 0
M  V30 10819 H 1006.68 2.37603 4.49914 0
M  V30 10820 H 1006.07 -0.599198 5.62518 0
M  V30 10821 H 1004.63 -0.307019 6.51077 0
M  V30 10822 N 1008.06 -1.15214 1.07534 0
M  V30 10823 C 1009.03 -2.18209 0.701237 0
M  V30 10824 C 1010.03 -1.58693 -0.25946 0
M  V30 10825 O 1011.22 -1.74154 -0.0401744 0
M  V30 10826 C 1008.35 -3.40883 0.0338703 0
M  V30 10827 H 1009.54 -2.5282 1.61314 0
M  V30 10828 H 1007.1 -1.29707 0.872105 0
M  V30 10829 H 1007.83 -3.11843 -0.890187 0
M  V30 10830 H 1007.62 -3.85342 0.72486 0
M  V30 10831 H 1009.11 -4.17056 -0.213152 0
M  V30 10832 N 1009.54 -0.859717 -1.32086 0
M  V30 10833 C 1010.82 -0.386665 -1.9174 0
M  V30 10834 C 1011.2 1.13028 -1.78292 0
M  V30 10835 O 1010.55 1.95422 -1.18417 0
M  V30 10836 C 1010.76 -0.856648 -3.38323 0
M  V30 10837 C 1012.11 -0.87678 -4.15449 0
M  V30 10838 O 1013.13 -0.80162 -3.47063 0
M  V30 10839 O 1011.99 -0.98373 -5.37573 0
M  V30 10840 H 1009.08 -0.113758 -0.819139 0
M  V30 10841 H 1011.63 -0.946952 -1.40822 0
M  V30 10842 H 1010.4 -1.89996 -3.42078 0
M  V30 10843 H 1010.02 -0.274095 -3.96654 0
M  V30 10844 N 1011.02 1.44971 -0.618145 0
M  V30 10845 C 1011.93 2.34403 0.0960457 0
M  V30 10846 C 1012.95 1.51862 0.849355 0
M  V30 10847 O 1014.12 1.84632 0.804557 0
M  V30 10848 C 1011.19 3.29646 1.07397 0
M  V30 10849 C 1010.25 4.28095 0.321466 0
M  V30 10850 C 1009.48 5.18787 1.25281 0
M  V30 10851 O 1009.7 5.1313 2.49106 0
M  V30 10852 O 1008.64 5.97282 0.744156 0
M  V30 10853 H 1012.46 2.96898 -0.639176 0
M  V30 10854 H 1010.05 1.44529 -0.37837 0
M  V30 10855 H 1011.93 3.88307 1.63694 0
M  V30 10856 H 1010.61 2.69702 1.79004 0
M  V30 10857 H 1009.51 3.73019 -0.284223 0
M  V30 10858 H 1010.85 4.90923 -0.354315 0
M  V30 10859 N 1012.5 0.357919 1.53482 0
M  V30 10860 C 1013.74 -0.23451 2.0144 0
M  V30 10861 C 1014.08 -1.49044 1.24497 0
M  V30 10862 O 1013.35 -1.91566 0.336535 0
M  V30 10863 C 1013.64 -0.534193 3.56116 0
M  V30 10864 C 1013.49 0.734834 4.43757 0
M  V30 10865 C 1014.81 -1.33793 4.1927 0
M  V30 10866 H 1011.93 -0.0837595 0.732225 0
M  V30 10867 H 1014.57 0.481297 1.83803 0
M  V30 10868 H 1012.72 -1.144 3.71275 0
M  V30 10869 H 1014.39 1.37251 4.40409 0
M  V30 10870 H 1012.63 1.35678 4.12036 0
M  V30 10871 H 1013.3 0.48021 5.49907 0
M  V30 10872 H 1015.78 -0.822158 4.07897 0
M  V30 10873 H 1014.66 -1.51636 5.27539 0
M  V30 10874 H 1014.92 -2.34423 3.74831 0
M  V30 10875 N 1013.98 -1.5736 0.0868897 0
M  V30 10876 C 1015.23 -1.93229 -0.578387 0
M  V30 10877 C 1015.54 -0.970127 -1.69847 0
M  V30 10878 O 1016.74 -1.22222 -2.42434 0
M  V30 10879 C 1015.2 -3.43307 -1.0802 0
M  V30 10880 C 1014.81 -4.47999 0.00968135 0
M  V30 10881 C 1016.55 -3.88151 -1.71868 0
M  V30 10882 C 1014.46 -5.89223 -0.507029 0
M  V30 10883 H 1013.39 -0.721245 -0.219823 0
M  V30 10884 H 1016.04 -1.82787 0.161566 0
M  V30 10885 H 1014.42 -3.48873 -1.87359 0
M  V30 10886 H 1015.6 -4.54067 0.784865 0
M  V30 10887 H 1013.91 -4.12714 0.552845 0
M  V30 10888 H 1016.51 -4.91056 -2.11585 0
M  V30 10889 H 1016.85 -3.26347 -2.58464 0
M  V30 10890 H 1017.38 -3.85252 -0.991259 0
M  V30 10891 H 1014.12 -6.54708 0.322121 0
M  V30 10892 H 1013.64 -5.86643 -1.2494 0
M  V30 10893 H 1015.32 -6.39556 -0.978628 0
M  V30 10894 N 1015.45 0.186762 -1.56489 0
M  V30 10895 C 1016.42 1.21511 -1.94339 0
M  V30 10896 C 1017.42 1.38001 -0.82537 0
M  V30 10897 O 1018.61 1.3567 -1.09266 0
M  V30 10898 C 1015.74 2.583 -2.22472 0
M  V30 10899 H 1016.93 0.891371 -2.86347 0
M  V30 10900 H 1014.49 0.428612 -1.50308 0
M  V30 10901 H 1015.22 2.95715 -1.33129 0
M  V30 10902 H 1015.01 2.47701 -3.03951 0
M  V30 10903 H 1016.5 3.32441 -2.5273 0
M  V30 10904 N 1016.93 1.50896 0.454776 0
M  V30 10905 C 1018.18 1.61936 1.20248 0
M  V30 10906 C 1018.49 0.332983 1.92745 0
M  V30 10907 O 1019.7 0.322512 2.69578 0
M  V30 10908 C 1018.16 2.85916 2.18587 0
M  V30 10909 C 1017.76 4.21492 1.51818 0
M  V30 10910 C 1019.51 3.06307 2.93898 0
M  V30 10911 C 1017.42 5.3664 2.48539 0
M  V30 10912 H 1016.35 0.603098 0.452536 0
M  V30 10913 H 1019 1.77345 0.471257 0
M  V30 10914 H 1017.38 2.64101 2.95071 0
M  V30 10915 H 1018.55 4.53623 0.810123 0
M  V30 10916 H 1016.87 4.06837 0.887265 0
M  V30 10917 H 1019.46 3.89507 3.66317 0
M  V30 10918 H 1019.81 2.18683 3.54236 0
M  V30 10919 H 1020.34 3.2838 2.24525 0
M  V30 10920 H 1017.08 6.26469 1.92916 0
M  V30 10921 H 1016.6 5.08907 3.17449 0
M  V30 10922 H 1018.28 5.67881 3.10033 0
M  V30 10923 N 1018.41 -0.709066 1.40748 0
M  V30 10924 C 1019.34 -1.83583 1.4429 0
M  V30 10925 C 1020.32 -1.67378 0.303067 0
M  V30 10926 O 1021.51 -1.87312 0.512612 0
M  V30 10927 C 1018.64 -3.21599 1.31116 0
M  V30 10928 C 1017.59 -3.52486 2.4277 0
M  V30 10929 C 1016.92 -4.89716 2.14668 0
M  V30 10930 C 1018.22 -3.52824 3.85113 0
M  V30 10931 H 1019.91 -1.80876 2.38588 0
M  V30 10932 H 1017.46 -0.868795 1.14839 0
M  V30 10933 H 1019.41 -4.00123 1.32209 0
M  V30 10934 H 1018.13 -3.24898 0.332965 0
M  V30 10935 H 1016.79 -2.76305 2.40937 0
M  V30 10936 H 1016.44 -4.89625 1.15224 0
M  V30 10937 H 1016.14 -5.11347 2.89478 0
M  V30 10938 H 1017.66 -5.70566 2.17455 0
M  V30 10939 H 1019.08 -4.21377 3.88734 0
M  V30 10940 H 1017.48 -3.85984 4.59496 0
M  V30 10941 H 1018.55 -2.52073 4.14231 0
M  V30 10942 N 1019.89 -1.26353 -0.941956 0
M  V30 10943 C 1021.17 -1.02601 -1.6653 0
M  V30 10944 C 1021.55 0.44381 -2.06382 0
M  V30 10945 O 1020.89 1.42399 -1.78703 0
M  V30 10946 C 1021.1 -1.97401 -2.87809 0
M  V30 10947 C 1022.45 -2.25967 -3.59478 0
M  V30 10948 O 1023.48 -1.95261 -2.97912 0
M  V30 10949 O 1022.34 -2.78244 -4.70364 0
M  V30 10950 H 1019.43 -0.39007 -0.729228 0
M  V30 10951 H 1021.98 -1.37559 -0.993754 0
M  V30 10952 H 1020.75 -2.9659 -2.55245 0
M  V30 10953 H 1020.37 -1.62918 -3.62689 0
M  V30 10954 N 1021.37 1.14642 -1.08144 0
M  V30 10955 C 1022.3 2.19283 -0.6669 0
M  V30 10956 C 1023.31 1.60292 0.284668 0
M  V30 10957 O 1024.5 1.78352 0.0727383 0
M  V30 10958 C 1021.6 3.38877 0.0398572 0
M  V30 10959 C 1020.77 4.274 -0.929929 0
M  V30 10960 C 1019.83 5.25562 -0.258991 0
M  V30 10961 O 1018.86 5.61999 -0.902563 0
M  V30 10962 N 1020.06 5.71958 0.992177 0
M  V30 10963 H 1022.83 2.55464 -1.5671 0
M  V30 10964 H 1020.39 1.29836 -0.96717 0
M  V30 10965 H 1022.38 4.01605 0.499583 0
M  V30 10966 H 1020.95 3.01043 0.842118 0
M  V30 10967 H 1020.17 3.61649 -1.56857 0
M  V30 10968 H 1021.46 4.83411 -1.58717 0
M  V30 10969 H 1020.86 5.44481 1.53484 0
M  V30 10970 H 1019.41 6.36687 1.39544 0
M  V30 10971 N 1022.85 0.866709 1.31628 0
M  V30 10972 C 1023.76 0.323408 2.3236 0
M  V30 10973 C 1024.77 -0.564995 1.64572 0
M  V30 10974 O 1025.95 -0.462489 1.96018 0
M  V30 10975 C 1023.01 -0.469045 3.43513 0
M  V30 10976 C 1022.07 0.446928 4.26967 0
M  V30 10977 C 1021.31 -0.307799 5.32812 0
M  V30 10978 O 1021.53 -1.5363 5.49321 0
M  V30 10979 O 1020.46 0.332653 6.0098 0
M  V30 10980 H 1024.29 1.15827 2.80745 0
M  V30 10981 H 1021.87 0.629987 1.35468 0
M  V30 10982 H 1023.76 -0.918405 4.1127 0
M  V30 10983 H 1022.43 -1.28051 2.97296 0
M  V30 10984 H 1021.34 0.944719 3.61975 0
M  V30 10985 H 1022.67 1.2239 4.76741 0
M  V30 10986 N 1024.32 -1.44642 0.625825 0
M  V30 10987 C 1025.26 -2.28882 -0.120614 0
M  V30 10988 C 1026.27 -1.40985 -0.81407 0
M  V30 10989 O 1027.46 -1.65188 -0.676404 0
M  V30 10990 C 1024.56 -3.17217 -1.19274 0
M  V30 10991 C 1023.73 -4.33499 -0.582839 0
M  V30 10992 C 1022.79 -5.02908 -1.54823 0
M  V30 10993 O 1021.82 -5.59102 -1.06743 0
M  V30 10994 N 1023.02 -5.0387 -2.88262 0
M  V30 10995 H 1025.78 -2.93585 0.602318 0
M  V30 10996 H 1023.34 -1.5503 0.466604 0
M  V30 10997 H 1025.34 -3.60515 -1.83878 0
M  V30 10998 H 1023.91 -2.54301 -1.81797 0
M  V30 10999 H 1023.13 -3.93458 0.241696 0
M  V30 11000 H 1024.41 -5.08561 -0.155914 0
M  V30 11001 H 1023.81 -4.59539 -3.2991 0
M  V30 11002 H 1022.37 -5.50974 -3.4824 0
M  V30 11003 N 1025.8 -0.366053 -1.5329 0
M  V30 11004 C 1026.73 0.514916 -2.23341 0
M  V30 11005 C 1027.75 1.04579 -1.24768 0
M  V30 11006 O 1028.94 0.952084 -1.50989 0
M  V30 11007 C 1026.04 1.72374 -2.91788 0
M  V30 11008 C 1025.21 1.32429 -4.16871 0
M  V30 11009 C 1024.27 2.39524 -4.68524 0
M  V30 11010 O 1023.29 2.01895 -5.32191 0
M  V30 11011 N 1024.5 3.71116 -4.46378 0
M  V30 11012 H 1027.26 -0.0851272 -2.99579 0
M  V30 11013 H 1024.82 -0.191255 -1.60766 0
M  V30 11014 H 1026.81 2.43496 -3.23252 0
M  V30 11015 H 1025.38 2.23064 -2.19 0
M  V30 11016 H 1024.6 0.442901 -3.91704 0
M  V30 11017 H 1025.89 1.03372 -4.98188 0
M  V30 11018 H 1025.29 4.04463 -3.95508 0
M  V30 11019 H 1023.85 4.38341 -4.82391 0
M  V30 11020 N 1027.28 1.57312 -0.0952337 0
M  V30 11021 C 1028.53 1.93974 0.567319 0
M  V30 11022 C 1028.85 0.977805 1.68713 0
M  V30 11023 O 1028.12 0.0298944 1.95877 0
M  V30 11024 H 1026.7 0.71612 0.212558 0
M  V30 11025 H 1029.36 1.94254 -0.158598 0
M  V30 11026 H 1028.46 2.964 0.977423 0
M  V30 11027 N 1028.76 -0.17846 1.56586 0
M  V30 11028 C 1029.7 -1.22104 1.95855 0
M  V30 11029 C 1030.67 -1.44366 0.821447 0
M  V30 11030 O 1031.86 -1.57224 1.08098 0
M  V30 11031 C 1029 -2.55701 2.31757 0
M  V30 11032 C 1028.11 -2.40879 3.5861 0
M  V30 11033 C 1027.25 -3.67293 3.83757 0
M  V30 11034 C 1026.29 -3.47373 5.03982 0
M  V30 11035 N 1025.42 -4.65839 5.25298 0
M  V30 11036 H 1030.26 -0.879168 2.84736 0
M  V30 11037 H 1027.8 -0.422721 1.40895 0
M  V30 11038 H 1029.76 -3.33556 2.50592 0
M  V30 11039 H 1028.39 -2.87898 1.45995 0
M  V30 11040 H 1027.44 -1.54236 3.47729 0
M  V30 11041 H 1028.75 -2.22102 4.46623 0
M  V30 11042 H 1027.91 -4.53584 4.02922 0
M  V30 11043 H 1026.65 -3.89041 2.94107 0
M  V30 11044 H 1025.65 -2.59467 4.84723 0
M  V30 11045 H 1026.88 -3.27055 5.95157 0
M  V30 11046 H 1024.82 -4.8782 4.38598 0
M  V30 11047 H 1024.74 -4.4995 6.0752 0
M  V30 11048 H 1026.01 -5.53435 5.48936 0
M  V30 11049 N 1030.24 -1.51135 -0.446768 0
M  V30 11050 C 1031.19 -1.68152 -1.53977 0
M  V30 11051 C 1032.17 -0.53563 -1.51723 0
M  V30 11052 O 1033.36 -0.791134 -1.58335 0
M  V30 11053 C 1030.49 -1.80133 -2.92245 0
M  V30 11054 C 1029.58 -3.00476 -2.99291 0
M  V30 11055 N 1029.97 -4.23796 -2.76099 0
M  V30 11056 C 1028.27 -2.99536 -3.30445 0
M  V30 11057 C 1028.97 -5.04977 -2.88744 0
M  V30 11058 N 1027.94 -4.39428 -3.20006 0
M  V30 11059 H 1031.74 -2.61172 -1.34784 0
M  V30 11060 H 1029.26 -1.48653 -0.653923 0
M  V30 11061 H 1031.26 -1.90432 -3.70866 0
M  V30 11062 H 1029.92 -0.882879 -3.12467 0
M  V30 11063 H 1030.93 -4.52896 -2.51209 0
M  V30 11064 H 1027.6 -2.17286 -3.56501 0
M  V30 11065 H 1028.99 -6.13114 -2.74847 0
M  V30 11066 N 1031.71 0.701592 -1.41122 0
M  V30 11067 C 1032.62 1.84548 -1.44841 0
M  V30 11068 C 1033.64 1.70654 -0.339594 0
M  V30 11069 O 1034.82 1.92675 -0.586378 0
M  V30 11070 C 1031.88 3.20477 -1.3227 0
M  V30 11071 C 1030.94 3.46524 -2.53415 0
M  V30 11072 C 1030.17 4.75968 -2.41434 0
M  V30 11073 O 1030.4 5.52037 -1.43566 0
M  V30 11074 O 1029.33 5.02664 -3.31078 0
M  V30 11075 H 1033.16 1.84367 -2.41335 0
M  V30 11076 H 1030.74 0.853863 -1.22595 0
M  V30 11077 H 1032.62 4.01642 -1.2752 0
M  V30 11078 H 1031.3 3.21355 -0.388889 0
M  V30 11079 H 1030.21 2.65313 -2.63742 0
M  V30 11080 H 1031.54 3.50455 -3.45604 0
M  V30 11081 N 1033.19 1.2685 0.935242 0
M  V30 11082 C 1034.12 1.1143 2.05196 0
M  V30 11083 C 1035.1 0.0178362 1.70091 0
M  V30 11084 O 1036.29 0.190951 1.93259 0
M  V30 11085 C 1033.42 0.752779 3.39044 0
M  V30 11086 C 1032.37 1.80164 3.88233 0
M  V30 11087 C 1031.7 1.29428 5.18799 0
M  V30 11088 C 1033 3.20431 4.12457 0
M  V30 11089 H 1034.69 2.04845 2.18355 0
M  V30 11090 H 1032.24 0.986276 1.04922 0
M  V30 11091 H 1034.19 0.631757 4.16637 0
M  V30 11092 H 1032.91 -0.217075 3.25878 0
M  V30 11093 H 1031.57 1.91144 3.12825 0
M  V30 11094 H 1031.22 0.3141 5.02018 0
M  V30 11095 H 1030.92 1.99546 5.5268 0
M  V30 11096 H 1032.45 1.18605 5.9897 0
M  V30 11097 H 1033.86 3.12495 4.80645 0
M  V30 11098 H 1032.26 3.88193 4.57631 0
M  V30 11099 H 1033.33 3.66046 3.18023 0
M  V30 11100 N 1034.67 -1.14067 1.0875 0
M  V30 11101 C 1035.62 -2.21332 0.715195 0
M  V30 11102 C 1036.61 -1.67059 -0.280679 0
M  V30 11103 O 1037.82 -1.79432 -0.142874 0
M  V30 11104 H 1034.19 -0.721126 0.213264 0
M  V30 11105 H 1036.16 -2.50002 1.62916 0
M  V30 11106 C 1034.91 -3.474 0.144401 0
M  V30 11107 H 1034.24 -3.89495 0.901884 0
M  V30 11108 H 1035.68 -4.23928 -0.0782564 0
M  V30 11109 C 1034.14 -3.17787 -1.11862 0
M  V30 11110 O 1034.67 -3.35906 -2.20295 0
M  V30 11111 N 1032.87 -2.71719 -1.03039 0
M  V30 11112 H 1032.42 -2.57175 -0.14793 0
M  V30 11113 H 1032.38 -2.52281 -1.87621 0
M  V30 11114 N 1036.15 -0.873678 -1.31166 0
M  V30 11115 C 1037.4 -0.482577 -1.95842 0
M  V30 11116 C 1037.71 0.970881 -1.69804 0
M  V30 11117 O 1038.92 1.4683 -2.28371 0
M  V30 11118 C 1037.37 -0.812074 -3.50619 0
M  V30 11119 C 1036.98 -2.28254 -3.85492 0
M  V30 11120 C 1038.72 -0.489624 -4.21667 0
M  V30 11121 C 1036.63 -2.55426 -5.33396 0
M  V30 11122 H 1035.56 -0.176736 -0.732994 0
M  V30 11123 H 1038.21 -1.06709 -1.49283 0
M  V30 11124 H 1036.59 -0.156769 -3.9569 0
M  V30 11125 H 1037.77 -2.98122 -3.51369 0
M  V30 11126 H 1036.08 -2.5714 -3.27518 0
M  V30 11127 H 1038.68 -0.669811 -5.30488 0
M  V30 11128 H 1039.02 0.570204 -4.12376 0
M  V30 11129 H 1039.56 -1.10163 -3.82242 0
M  V30 11130 H 1036.3 -3.60106 -5.47726 0
M  V30 11131 H 1035.82 -1.90156 -5.68859 0
M  V30 11132 H 1037.49 -2.40345 -6.00702 0
M  V30 11133 N 1037.63 1.44308 -0.633487 0
M  V30 11134 C 1038.57 2.32455 0.0821956 0
M  V30 11135 C 1039.57 1.47482 0.833388 0
M  V30 11136 O 1040.77 1.63812 0.746021 0
M  V30 11137 H 1037.15 0.750631 0.045352 0
M  V30 11138 H 1039.12 2.90566 -0.679282 0
M  V30 11139 C 1037.87 3.31512 1.04858 0
M  V30 11140 H 1037.19 3.96908 0.479979 0
M  V30 11141 H 1038.63 3.95865 1.51879 0
M  V30 11142 C 1037.09 2.60615 2.13498 0
M  V30 11143 O 1037.62 2.40682 3.21613 0
M  V30 11144 N 1035.83 2.20315 1.89499 0
M  V30 11145 H 1035.37 2.36726 1.01581 0
M  V30 11146 H 1035.33 1.73205 2.62388 0
M  V30 11147 N 1039.1 0.374177 1.53094 0
M  V30 11148 C 1040.52 -0.103172 1.86415 0
M  V30 11149 C 1040.87 -1.47439 1.29446 0
M  V30 11150 O 1039.99 -2.07333 0.619853 0
M  V30 11151 C 1040.59 -0.193988 3.38244 0
M  V30 11152 C 1039.15 -0.615605 3.71332 0
M  V30 11153 C 1038.29 0.23186 2.76329 0
M  V30 11154 H 1041.24 0.592644 1.47219 0
M  V30 11155 H 1041.26 -1.01597 3.66686 0
M  V30 11156 H 1040.78 0.80414 3.79678 0
M  V30 11157 H 1038.88 -1.62165 3.3546 0
M  V30 11158 H 1038.99 -0.38425 4.77557 0
M  V30 11159 H 1037.35 -0.300579 2.5292 0
M  V30 11160 H 1038.14 1.22769 3.20597 0
M  V30 11161 N 1040.58 -1.57259 0.103575 0
M  V30 11162 C 1041.53 -2.14487 -0.852295 0
M  V30 11163 C 1042.5 -1.06567 -1.27407 0
M  V30 11164 O 1043.68 -1.34398 -1.35432 0
M  V30 11165 C 1040.82 -2.73632 -2.10284 0
M  V30 11166 C 1039.94 -3.95811 -1.73083 0
M  V30 11167 C 1039.07 -4.43093 -2.92988 0
M  V30 11168 C 1038.11 -5.5784 -2.51953 0
M  V30 11169 N 1037.25 -5.99936 -3.64721 0
M  V30 11170 H 1042.09 -2.95849 -0.35743 0
M  V30 11171 H 1039.63 -1.46175 -0.164748 0
M  V30 11172 H 1041.58 -3.06046 -2.83534 0
M  V30 11173 H 1040.21 -1.94985 -2.57256 0
M  V30 11174 H 1039.27 -3.69656 -0.897688 0
M  V30 11175 H 1040.58 -4.79066 -1.38916 0
M  V30 11176 H 1039.73 -4.77335 -3.74481 0
M  V30 11177 H 1038.47 -3.58756 -3.30372 0
M  V30 11178 H 1037.48 -5.23217 -1.6889 0
M  V30 11179 H 1038.7 -6.43932 -2.15705 0
M  V30 11180 H 1036.65 -5.18543 -4.01807 0
M  V30 11181 H 1036.56 -6.78008 -3.34427 0
M  V30 11182 H 1037.83 -6.38812 -4.46699 0
M  V30 11183 N 1042.06 0.170153 -1.56679 0
M  V30 11184 C 1043.34 0.913938 -1.72935 0
M  V30 11185 C 1043.72 2.00342 -0.665293 0
M  V30 11186 O 1043.07 2.26252 0.319715 0
M  V30 11187 C 1043.28 1.47761 -3.16177 0
M  V30 11188 C 1044.62 1.95007 -3.7717 0
M  V30 11189 O 1045.65 1.57552 -3.19462 0
M  V30 11190 O 1044.51 2.64007 -4.78501 0
M  V30 11191 H 1041.6 0.43027 -0.706256 0
M  V30 11192 H 1044.15 0.157891 -1.68964 0
M  V30 11193 H 1042.92 0.69352 -3.85105 0
M  V30 11194 H 1042.54 2.2978 -3.24479 0
M  V30 11195 N 1043.54 1.5137 0.438746 0
M  V30 11196 C 1044.45 1.75424 1.55768 0
M  V30 11197 C 1045.46 0.638409 1.61865 0
M  V30 11198 O 1046.64 0.9205 1.79133 0
M  V30 11199 C 1043.71 1.87288 2.9176 0
M  V30 11200 C 1042.77 3.11137 2.95791 0
M  V30 11201 C 1042 3.22425 4.25297 0
M  V30 11202 O 1042.22 2.39688 5.17596 0
M  V30 11203 O 1041.16 4.15393 4.35583 0
M  V30 11204 H 1044.98 2.70339 1.38386 0
M  V30 11205 H 1042.57 1.35854 0.621609 0
M  V30 11206 H 1044.45 1.97085 3.72472 0
M  V30 11207 H 1043.12 0.955599 3.09273 0
M  V30 11208 H 1042.03 3.06819 2.1404 0
M  V30 11209 H 1043.36 4.02549 2.83223 0
M  V30 11210 N 1045.02 -0.694098 1.41492 0
M  V30 11211 C 1045.95 -1.82042 1.46229 0
M  V30 11212 C 1046.93 -1.67047 0.320803 0
M  V30 11213 O 1048.11 -1.86758 0.53245 0
M  V30 11214 C 1045.24 -3.2019 1.34519 0
M  V30 11215 C 1044.2 -3.49892 2.46495 0
M  V30 11216 C 1043.52 -4.87411 2.1985 0
M  V30 11217 C 1044.82 -3.4872 3.88834 0
M  V30 11218 H 1046.52 -1.78335 2.40493 0
M  V30 11219 H 1044.06 -0.856566 1.15754 0
M  V30 11220 H 1046.02 -3.98699 1.36445 0
M  V30 11221 H 1044.74 -3.24527 0.367406 0
M  V30 11222 H 1043.4 -2.73734 2.43854 0
M  V30 11223 H 1043.05 -4.88375 1.20411 0
M  V30 11224 H 1042.75 -5.08248 2.94885 0
M  V30 11225 H 1044.27 -5.68228 2.23494 0
M  V30 11226 H 1045.68 -4.1723 3.93182 0
M  V30 11227 H 1044.08 -3.81089 4.63564 0
M  V30 11228 H 1045.15 -2.47665 4.16881 0
M  V30 11229 O 1046.53 -1.38164 -0.836233 0
M  V30 11230 H 1047.22 -1.25159 -1.47834 0
M  V30 END ATOM
M  V30 BEGIN BOND
M  V30 END BOND
M  V30 END CTAB
M  END
$$$$
