drugbank_target|Q8IVL6 Prolyl 3-hydroxylase 3 (DB00126; DB00172)
 OpenBabel12092120073D

  0  0  0     0  0            999 V3000
M  V30 BEGIN CTAB
M  V30 COUNTS 11432 11570 0 0 0
M  V30 BEGIN ATOM
M  V30 1 H -0.908 1.98254 -0.117106 0
M  V30 2 N 0 1.576 0 0
M  V30 3 C 0.933 2.03868 1.02534 0
M  V30 4 C 1.911 0.928543 1.3348 0
M  V30 5 O 3.095 1.19667 1.45644 0
M  V30 6 C 0.222 2.43627 2.35294 0
M  V30 7 C -0.732 3.65373 2.2001 0
M  V30 8 S 0.101 5.13292 1.52614 0
M  V30 9 C 1.257 5.56322 2.86805 0
M  V30 10 H 1.49 2.90518 0.631377 0
M  V30 11 H -0.977 1.52953 0.210867 0
M  V30 12 H 0.981 2.67203 3.11629 0
M  V30 13 H -0.358 1.57376 2.7183 0
M  V30 14 H -1.165 3.90944 3.18086 0
M  V30 15 H -1.563 3.418 1.51819 0
M  V30 16 H 0.729 5.58782 3.83104 0
M  V30 17 H 1.672 6.56266 2.65933 0
M  V30 18 H 2.08 4.83886 2.90714 0
M  V30 19 N 1.4781 -0.272755 1.55222 0
M  V30 20 C 2.4081 -1.34136 1.91127 0
M  V30 21 C 3.3891 -1.51513 0.773168 0
M  V30 22 O 4.5741 -1.64552 1.03132 0
M  V30 23 C 1.7041 -2.70083 2.1834 0
M  V30 24 C 0.6581 -2.67437 3.34158 0
M  V30 25 C -0.0159 -4.06938 3.46851 0
M  V30 26 C 1.2841 -2.26686 4.70543 0
M  V30 27 H 2.9781 -1.04333 2.80633 0
M  V30 28 H 0.5241 -0.500454 1.35024 0
M  V30 29 H 2.4771 -3.44952 2.42046 0
M  V30 30 H 1.2011 -3.01469 1.25634 0
M  V30 31 H -0.1399 -1.95026 3.1042 0
M  V30 32 H -0.4919 -4.35547 2.51611 0
M  V30 33 H -0.7919 -4.06062 4.2472 0
M  V30 34 H 0.7321 -4.83545 3.72849 0
M  V30 35 H 2.1461 -2.91277 4.93792 0
M  V30 36 H 0.5431 -2.36971 5.5133 0
M  V30 37 H 1.6131 -1.21818 4.69349 0
M  V30 38 N 2.9562 -1.48159 -0.537278 0
M  V30 39 C 4.3722 -1.34118 -0.865129 0
M  V30 40 C 4.5722 -0.346678 -1.98495 0
M  V30 41 O 3.6282 0.234715 -2.51407 0
M  V30 42 C 4.9412 -2.73963 -1.23954 0
M  V30 43 C 6.4892 -2.82397 -1.34984 0
M  V30 44 C 6.9642 -4.22928 -1.75772 0
M  V30 45 N 8.4552 -4.25566 -1.82887 0
M  V30 46 C 9.1902 -5.31235 -2.15817 0
M  V30 47 N 8.6862 -6.47189 -2.47222 0
M  V30 48 N 10.4792 -5.18624 -2.16761 0
M  V30 49 H 2.6302 -2.1144 0.201715 0
M  V30 50 H 4.8932 -0.947598 0.0275949 0
M  V30 51 H 4.5992 -3.48264 -0.490381 0
M  V30 52 H 4.4732 -3.0702 -2.19132 0
M  V30 53 H 6.8602 -2.08356 -2.08978 0
M  V30 54 H 6.9412 -2.5297 -0.379448 0
M  V30 55 H 6.5852 -4.97482 -1.02341 0
M  V30 56 H 6.5152 -4.49794 -2.73848 0
M  V30 57 H 9.0062 -3.41924 -1.60924 0
M  V30 58 H 9.3192 -7.23564 -2.71433 0
M  V30 59 H 7.6642 -6.50476 -2.44757 0
M  V30 60 H 10.8552 -4.27056 -1.91679 0
M  V30 61 H 11.0282 -6.01078 -2.42093 0
M  V30 62 N 4.4343 0.785586 -1.36625 0
M  V30 63 C 5.3643 1.91259 -1.33949 0
M  V30 64 C 6.3453 1.68795 -0.210325 0
M  V30 65 O 7.5303 1.89854 -0.408561 0
M  V30 66 C 4.6603 3.28339 -1.13186 0
M  V30 67 C 3.6143 3.65335 -2.22967 0
M  V30 68 C 2.9403 5.00806 -1.87342 0
M  V30 69 C 4.2403 3.7352 -3.65075 0
M  V30 70 H 5.9343 1.93755 -2.28253 0
M  V30 71 H 3.4803 0.930788 -1.09874 0
M  V30 72 H 5.4333 4.06804 -1.09948 0
M  V30 73 H 4.1573 3.2624 -0.153332 0
M  V30 74 H 2.8163 2.89169 -2.25337 0
M  V30 75 H 2.4643 4.95233 -0.880545 0
M  V30 76 H 2.1643 5.26529 -2.60846 0
M  V30 77 H 3.6883 5.81687 -1.85667 0
M  V30 78 H 5.1023 4.42168 -3.64911 0
M  V30 79 H 3.4993 4.10731 -4.37516 0
M  V30 80 H 4.5693 2.74527 -3.99703 0
M  V30 81 N 5.9124 1.20967 1.01018 0
M  V30 82 C 6.8424 0.988272 2.11555 0
M  V30 83 C 7.8234 -0.0849778 1.69888 0
M  V30 84 O 9.0084 0.0738202 1.9406 0
M  V30 85 C 6.1384 0.546528 3.42973 0
M  V30 86 C 5.0924 1.56375 3.9841 0
M  V30 87 C 4.4184 0.97842 5.25672 0
M  V30 88 C 5.7184 2.94922 4.31066 0
M  V30 89 H 7.4124 1.91276 2.30334 0
M  V30 90 H 4.9584 0.921073 1.1069 0
M  V30 91 H 6.9114 0.378839 4.19694 0
M  V30 92 H 5.6354 -0.413598 3.23971 0
M  V30 93 H 4.2944 1.71891 3.23804 0
M  V30 94 H 3.9424 0.0101688 5.02999 0
M  V30 95 H 3.6424 1.65784 5.63728 0
M  V30 96 H 5.1664 0.821939 6.05043 0
M  V30 97 H 6.5804 2.8288 4.9865 0
M  V30 98 H 4.9774 3.5983 4.80253 0
M  V30 99 H 6.0474 3.4616 3.39561 0
M  V30 100 N 7.3905 -1.2043 1.01659 0
M  V30 101 C 8.8065 -1.41852 0.731442 0
M  V30 102 C 9.0065 -1.89358 -0.688898 0
M  V30 103 O 8.0625 -2.06247 -1.45666 0
M  V30 104 C 9.3755 -2.44019 1.75714 0
M  V30 105 C 10.9235 -2.57785 1.77527 0
M  V30 106 C 11.3985 -3.63194 2.79023 0
M  V30 107 N 12.8895 -3.70678 2.77763 0
M  V30 108 C 13.6245 -4.51897 3.52954 0
M  V30 109 N 13.1205 -5.36921 4.37821 0
M  V30 110 N 14.9135 -4.4643 3.41551 0
M  V30 111 H 7.0645 -0.879093 1.93354 0
M  V30 112 H 9.3275 -0.448425 0.835236 0
M  V30 113 H 9.0335 -2.1611 2.77469 0
M  V30 114 H 8.9075 -3.43007 1.56927 0
M  V30 115 H 11.2945 -2.85023 0.764569 0
M  V30 116 H 11.3755 -1.58992 2.00387 0
M  V30 117 H 11.0195 -3.36699 3.80258 0
M  V30 118 H 10.9495 -4.61609 2.53425 0
M  V30 119 H 13.4405 -3.09944 2.16201 0
M  V30 120 H 13.7535 -5.95981 4.91962 0
M  V30 121 H 12.0985 -5.36424 4.41899 0
M  V30 122 H 15.2895 -3.79042 2.74672 0
M  V30 123 H 15.4625 -5.09491 4.00404 0
M  V30 124 N 8.8686 -0.792821 -1.36206 0
M  V30 125 C 10.2796 -0.429513 -1.81692 0
M  V30 126 C 10.6306 1.04695 -1.65932 0
M  V30 127 O 9.7556 1.81256 -1.18218 0
M  V30 128 C 10.3506 -0.772831 -3.29868 0
M  V30 129 C 8.9096 -0.462307 -3.7355 0
M  V30 130 C 8.0566 -1.00569 -2.5842 0
M  V30 131 H 11.0076 -0.985672 -1.24379 0
M  V30 132 H 11.0286 -0.0651928 -3.80444 0
M  V30 133 H 10.5406 -1.84747 -3.41307 0
M  V30 134 H 8.6416 0.604158 -3.67669 0
M  V30 135 H 8.7546 -0.985299 -4.68859 0
M  V30 136 H 7.1186 -0.428734 -2.51066 0
M  V30 137 H 7.9016 -2.08616 -2.72643 0
M  V30 138 N 10.3467 1.47872 -0.545128 0
M  V30 139 C 11.2767 2.32661 0.197793 0
M  V30 140 C 12.2577 1.43041 0.920504 0
M  V30 141 O 13.4427 1.71912 0.90333 0
M  V30 142 C 10.5727 3.24569 1.23582 0
M  V30 143 C 9.5267 4.23333 0.630323 0
M  V30 144 C 8.8527 5.0448 1.77211 0
M  V30 145 C 10.1527 5.20704 -0.407974 0
M  V30 146 H 11.8467 2.95024 -0.510045 0
M  V30 147 H 9.3927 1.4187 -0.246731 0
M  V30 148 H 11.3457 3.8272 1.76362 0
M  V30 149 H 10.0697 2.60236 1.97344 0
M  V30 150 H 8.7287 3.6639 0.123922 0
M  V30 151 H 8.3767 4.36561 2.49847 0
M  V30 152 H 8.0767 5.71339 1.37281 0
M  V30 153 H 9.6007 5.65487 2.3034 0
M  V30 154 H 11.0147 5.7329 0.033305 0
M  V30 155 H 9.4117 5.95699 -0.725486 0
M  V30 156 H 10.4817 4.66917 -1.30828 0
M  V30 157 N 11.8248 0.280983 1.55075 0
M  V30 158 C 12.7548 -0.597469 2.25727 0
M  V30 159 C 13.7358 -1.15417 1.24952 0
M  V30 160 O 14.9208 -1.18722 1.53684 0
M  V30 161 C 12.0508 -1.7789 2.98283 0
M  V30 162 C 11.0048 -1.35347 4.06036 0
M  V30 163 C 10.3308 -2.61846 4.66198 0
M  V30 164 C 11.6308 -0.499354 5.19907 0
M  V30 165 H 13.3248 -0.00824265 2.99399 0
M  V30 166 H 10.8708 -0.0025244 1.44 0
M  V30 167 H 12.8238 -2.39937 3.46422 0
M  V30 168 H 11.5478 -2.39405 2.22155 0
M  V30 169 H 10.2068 -0.756156 3.58717 0
M  V30 170 H 9.8548 -3.21632 3.86732 0
M  V30 171 H 9.5548 -2.3409 5.38958 0
M  V30 172 H 11.0788 -3.24732 5.1709 0
M  V30 173 H 12.4928 -1.02498 5.64063 0
M  V30 174 H 10.8898 -0.316424 5.99265 0
M  V30 175 H 11.9598 0.480459 4.82514 0
M  V30 176 N 13.3029 -1.57598 0.00835791 0
M  V30 177 C 14.2329 -2.1198 -0.979113 0
M  V30 178 C 15.2139 -1.03091 -1.35301 0
M  V30 179 O 16.3989 -1.30818 -1.43528 0
M  V30 180 C 13.5289 -2.62995 -2.26828 0
M  V30 181 C 12.4829 -3.76485 -2.03576 0
M  V30 182 C 11.8089 -4.13846 -3.38579 0
M  V30 183 C 13.1089 -5.0342 -1.39161 0
M  V30 184 H 14.8029 -2.94738 -0.526281 0
M  V30 185 H 12.3489 -1.41783 -0.251704 0
M  V30 186 H 14.3019 -2.99669 -2.96271 0
M  V30 187 H 13.0259 -1.7737 -2.7424 0
M  V30 188 H 11.6849 -3.40217 -1.36557 0
M  V30 189 H 11.3329 -3.25232 -3.83709 0
M  V30 190 H 11.0329 -4.90312 -3.23834 0
M  V30 191 H 12.5569 -4.53086 -4.09323 0
M  V30 192 H 13.9709 -5.37812 -1.98573 0
M  V30 193 H 12.3679 -5.84746 -1.34878 0
M  V30 194 H 13.4379 -4.83548 -0.361868 0
M  V30 195 N 14.781 0.264519 -1.55364 0
M  V30 196 C 15.711 1.33121 -1.91836 0
M  V30 197 C 16.692 1.51101 -0.781192 0
M  V30 198 O 17.877 1.64003 -1.04003 0
M  V30 199 C 15.007 2.68921 -2.19769 0
M  V30 200 C 13.961 2.65661 -3.35571 0
M  V30 201 C 13.287 4.05093 -3.49004 0
M  V30 202 C 14.587 2.24187 -4.71739 0
M  V30 203 H 16.281 1.02844 -2.81182 0
M  V30 204 H 13.827 0.493286 -1.35287 0
M  V30 205 H 15.78 3.43663 -2.43872 0
M  V30 206 H 14.504 3.00799 -1.27231 0
M  V30 207 H 13.163 1.93377 -3.1145 0
M  V30 208 H 12.811 4.34206 -2.53917 0
M  V30 209 H 12.511 4.03804 -4.26868 0
M  V30 210 H 14.035 4.81561 -3.75408 0
M  V30 211 H 15.449 2.88654 -4.9533 0
M  V30 212 H 13.846 2.34044 -5.52579 0
M  V30 213 H 14.916 1.19327 -4.69988 0
M  V30 214 N 16.2591 1.48442 0.529413 0
M  V30 215 C 17.1891 1.65902 1.64313 0
M  V30 216 C 18.1701 0.507897 1.6234 0
M  V30 217 O 19.3551 0.740503 1.79528 0
M  V30 218 C 16.4851 1.69911 3.02898 0
M  V30 219 C 15.4391 2.8453 3.19729 0
M  V30 220 C 14.7651 2.73629 4.59381 0
M  V30 221 C 16.0651 4.25821 3.02447 0
M  V30 222 H 17.7591 2.5914 1.49955 0
M  V30 223 H 15.3051 1.24709 0.719982 0
M  V30 224 H 17.2581 1.80715 3.80684 0
M  V30 225 H 15.9821 0.732524 3.18279 0
M  V30 226 H 14.6411 2.73283 2.44361 0
M  V30 227 H 14.2891 1.74938 4.71599 0
M  V30 228 H 13.9891 3.50541 4.71588 0
M  V30 229 H 15.5131 2.86401 5.39265 0
M  V30 230 H 16.9271 4.37898 3.70024 0
M  V30 231 H 15.3241 5.03735 3.26146 0
M  V30 232 H 16.3941 4.42244 1.98867 0
M  V30 233 N 17.7372 -0.778329 1.37039 0
M  V30 234 C 18.6672 -1.90546 1.34962 0
M  V30 235 C 19.6482 -1.68681 0.219274 0
M  V30 236 O 20.8332 -1.89634 0.418624 0
M  V30 237 C 17.9632 -3.27734 1.14925 0
M  V30 238 C 16.9172 -3.64147 2.24902 0
M  V30 239 C 16.2432 -4.99806 1.89996 0
M  V30 240 C 17.5432 -3.71579 3.67051 0
M  V30 241 H 19.2372 -1.92541 2.29277 0
M  V30 242 H 16.7832 -0.924948 1.10366 0
M  V30 243 H 18.7362 -4.06215 1.12104 0
M  V30 244 H 17.4602 -3.26154 0.170631 0
M  V30 245 H 16.1192 -2.8797 2.26868 0
M  V30 246 H 15.7672 -4.94759 0.906796 0
M  V30 247 H 15.4672 -5.25139 2.63634 0
M  V30 248 H 16.9912 -5.80694 1.88749 0
M  V30 249 H 18.4052 -4.40227 3.67251 0
M  V30 250 H 16.8022 -4.08405 4.39688 0
M  V30 251 H 17.8722 -2.72404 4.01154 0
M  V30 252 N 19.2153 -1.21501 -1.00376 0
M  V30 253 C 20.1453 -0.999478 -2.11028 0
M  V30 254 C 21.1263 0.0759671 -1.6993 0
M  V30 255 O 22.3113 -0.0841106 -1.94018 0
M  V30 256 C 19.4413 -0.564709 -3.42678 0
M  V30 257 C 18.3953 -1.58486 -3.97576 0
M  V30 258 C 17.7213 -1.00628 -5.25146 0
M  V30 259 C 19.0213 -2.97204 -4.29496 0
M  V30 260 H 20.7153 -1.92495 -2.29317 0
M  V30 261 H 18.2613 -0.92693 -1.102 0
M  V30 262 H 20.2143 -0.401091 -4.19487 0
M  V30 263 H 18.9383 0.396411 -3.24185 0
M  V30 264 H 17.5973 -1.73606 -3.22888 0
M  V30 265 H 17.2453 -0.0368439 -5.02987 0
M  V30 266 H 16.9453 -1.68771 -5.62841 0
M  V30 267 H 18.4693 -0.854015 -6.04598 0
M  V30 268 H 19.8833 -2.8552 -4.97143 0
M  V30 269 H 18.2803 -3.62372 -4.78338 0
M  V30 270 H 19.3503 -3.47956 -3.3772 0
M  V30 271 N 20.6934 1.19889 -1.02296 0
M  V30 272 C 22.1044 1.71124 -0.746568 0
M  V30 273 C 22.4554 1.81939 0.734335 0
M  V30 274 O 21.5804 1.48639 1.57275 0
M  V30 275 C 22.1754 3.10804 -1.34857 0
M  V30 276 C 20.7344 3.59323 -1.1209 0
M  V30 277 C 19.8814 2.3635 -1.45031 0
M  V30 278 H 22.8324 1.04813 -1.19163 0
M  V30 279 H 22.8534 3.73186 -0.742437 0
M  V30 280 H 22.3654 3.029 -2.42638 0
M  V30 281 H 20.4664 3.7255 -0.0610337 0
M  V30 282 H 20.5794 4.4378 -1.80544 0
M  V30 283 H 18.9434 2.39399 -0.869487 0
M  V30 284 H 19.7264 2.31081 -2.53883 0
M  V30 285 N 22.1715 0.800033 1.35784 0
M  V30 286 C 23.5825 0.439142 1.81462 0
M  V30 287 C 23.9335 -1.03813 1.66485 0
M  V30 288 O 23.0585 -1.80626 1.19177 0
M  V30 289 C 23.6535 0.790314 3.29453 0
M  V30 290 C 22.2125 0.482111 3.733 0
M  V30 291 C 21.3595 1.01938 2.57883 0
M  V30 292 H 24.3105 0.992254 1.23855 0
M  V30 293 H 24.3315 0.0853677 3.80404 0
M  V30 294 H 23.8435 1.86554 3.40322 0
M  V30 295 H 21.9445 -0.584652 3.67984 0
M  V30 296 H 22.0575 1.01015 4.6833 0
M  V30 297 H 20.4215 0.442043 2.50835 0
M  V30 298 H 21.2045 2.10059 2.71533 0
M  V30 299 N 23.6496 -1.47581 0.552962 0
M  V30 300 C 25.0606 -1.86324 0.118463 0
M  V30 301 C 25.4116 -1.46006 -1.3106 0
M  V30 302 O 24.5366 -0.861182 -1.98526 0
M  V30 303 C 25.1316 -3.3816 0.20821 0
M  V30 304 C 23.6906 -3.7601 -0.171226 0
M  V30 305 C 22.8376 -2.71634 0.557686 0
M  V30 306 H 25.7886 -1.39159 0.762928 0
M  V30 307 H 25.8096 -3.76141 -0.574278 0
M  V30 308 H 25.3216 -3.67473 1.24841 0
M  V30 309 H 23.4226 -3.52313 -1.21269 0
M  V30 310 H 23.5356 -4.78745 0.184379 0
M  V30 311 H 21.8996 -2.547 0.00125792 0
M  V30 312 H 22.6826 -3.0379 1.59896 0
M  V30 313 N 25.1277 -0.289203 -1.54924 0
M  V30 314 C 26.3757 0.322879 -1.99504 0
M  V30 315 C 26.6967 1.55313 -1.1791 0
M  V30 316 O 25.9667 1.94001 -0.272097 0
M  V30 317 H 24.5467 0.122291 -0.736922 0
M  V30 318 H 27.2087 -0.397802 -1.90797 0
M  V30 319 H 26.3047 0.603061 -3.06218 0
M  V30 320 N 26.6058 1.57591 -0.0167156 0
M  V30 321 C 27.8308 1.9598 0.67872 0
M  V30 322 C 28.2558 0.892546 1.65575 0
M  V30 323 O 27.6138 -0.147772 1.80697 0
M  V30 324 C 27.6618 3.33468 1.37227 0
M  V30 325 O 26.7658 3.28954 2.48722 0
M  V30 326 H 26.1068 0.639339 0.17928 0
M  V30 327 H 28.6368 2.04463 -0.0748802 0
M  V30 328 H 28.6468 3.69417 1.7319 0
M  V30 329 H 27.3218 4.10694 0.656007 0
M  V30 330 H 25.8988 3.04705 2.14963 0
M  V30 331 N 28.0839 -0.256276 1.55502 0
M  V30 332 C 29.4949 -0.826068 1.67431 0
M  V30 333 C 29.8459 -1.86396 0.612446 0
M  V30 334 O 28.9709 -2.15031 -0.243025 0
M  V30 335 C 29.5659 -1.50512 3.03532 0
M  V30 336 C 28.1249 -2.02273 3.17431 0
M  V30 337 C 27.2719 -0.870548 2.63281 0
M  V30 338 H 30.2229 -0.0322728 1.58667 0
M  V30 339 H 30.2439 -2.37279 2.97454 0
M  V30 340 H 29.7559 -0.749484 3.80794 0
M  V30 341 H 27.8569 -2.80746 2.44974 0
M  V30 342 H 27.9699 -2.22655 4.24219 0
M  V30 343 H 26.3339 -1.26851 2.20864 0
M  V30 344 H 27.1169 -0.128149 3.43061 0
M  V30 345 N 29.562 -1.4872 -0.521534 0
M  V30 346 C 30.472 -1.66569 -1.65203 0
M  V30 347 C 31.488 -0.548197 -1.65139 0
M  V30 348 O 32.664 -0.820339 -1.83936 0
M  V30 349 C 29.729 -1.70917 -3.01642 0
M  V30 350 C 28.79 -2.94356 -3.12495 0
M  V30 351 C 28.023 -2.98487 -4.42426 0
M  V30 352 O 28.246 -2.10786 -5.30024 0
M  V30 353 O 27.18 -3.90746 -4.57822 0
M  V30 354 H 31.006 -2.62298 -1.5308 0
M  V30 355 H 28.591 -1.3222 -0.695565 0
M  V30 356 H 30.473 -1.7625 -3.82771 0
M  V30 357 H 29.148 -0.783633 -3.14071 0
M  V30 358 H 28.055 -2.94552 -2.3063 0
M  V30 359 H 29.388 -3.86322 -3.04986 0
M  V30 360 N 31.0401 0.771051 -1.3745 0
M  V30 361 C 32.4511 1.34737 -1.29239 0
M  V30 362 C 32.8021 1.96109 0.0596908 0
M  V30 363 O 31.9271 1.93865 0.961534 0
M  V30 364 C 32.5221 2.44973 -2.34037 0
M  V30 365 C 31.0811 2.98372 -2.29458 0
M  V30 366 C 30.2281 1.71595 -2.17831 0
M  V30 367 H 33.1791 0.571256 -1.48062 0
M  V30 368 H 33.2001 3.24471 -1.98744 0
M  V30 369 H 32.7121 2.00276 -3.32432 0
M  V30 370 H 30.8131 3.47443 -1.34589 0
M  V30 371 H 30.9261 3.53939 -3.229 0
M  V30 372 H 29.2901 1.94547 -1.64388 0
M  V30 373 H 30.0731 1.29001 -3.18141 0
M  V30 374 N 32.5182 1.22032 0.997298 0
M  V30 375 C 33.9292 1.0397 1.55071 0
M  V30 376 C 34.2802 -0.398192 1.92117 0
M  V30 377 O 33.4052 -1.28254 1.74298 0
M  V30 378 C 34.0002 1.88109 2.81781 0
M  V30 379 C 32.5592 1.74357 3.33581 0
M  V30 380 C 31.7062 1.84846 2.06706 0
M  V30 381 H 34.6572 1.35941 0.818883 0
M  V30 382 H 34.6782 1.39589 3.53971 0
M  V30 383 H 34.1902 2.92754 2.54787 0
M  V30 384 H 32.2912 0.72427 3.65493 0
M  V30 385 H 32.4042 2.56772 4.04481 0
M  V30 386 H 30.7682 1.28238 2.20062 0
M  V30 387 H 31.5512 2.91014 1.82114 0
M  V30 388 N 33.9963 -1.19345 1.0293 0
M  V30 389 C 35.2443 -1.88665 0.724574 0
M  V30 390 C 35.5653 -1.80036 -0.749144 0
M  V30 391 O 34.8353 -1.2111 -1.53978 0
M  V30 392 H 33.4153 -0.698406 0.265025 0
M  V30 393 H 36.0773 -1.44885 1.30362 0
M  V30 394 H 35.1733 -2.94987 1.01926 0
M  V30 395 N 35.4744 -0.807222 -1.35358 0
M  V30 396 C 36.4044 -0.232509 -2.3234 0
M  V30 397 C 37.3854 0.642386 -1.57504 0
M  V30 398 O 38.5704 0.572526 -1.85569 0
M  V30 399 C 35.7004 0.619238 -3.41735 0
M  V30 400 C 34.6544 -0.157215 -4.27711 0
M  V30 401 C 33.9804 0.816273 -5.28433 0
M  V30 402 C 35.2804 -1.35656 -5.04376 0
M  V30 403 H 36.9744 -1.04276 -2.80654 0
M  V30 404 H 34.5204 -0.50288 -1.34934 0
M  V30 405 H 36.4734 1.03137 -4.08584 0
M  V30 406 H 35.1974 1.46239 -2.92031 0
M  V30 407 H 33.8564 -0.550525 -3.62443 0
M  V30 408 H 33.5044 1.65494 -4.74996 0
M  V30 409 H 33.2044 0.301067 -5.86828 0
M  V30 410 H 34.7284 1.22659 -5.98153 0
M  V30 411 H 36.1424 -1.01927 -5.64166 0
M  V30 412 H 34.5394 -1.8063 -5.7227 0
M  V30 413 H 35.6094 -2.14288 -4.34981 0
M  V30 414 N 36.9525 1.47285 -0.560781 0
M  V30 415 C 38.1805 2.06855 -0.0430262 0
M  V30 416 C 38.5955 1.41291 1.25229 0
M  V30 417 O 37.9525 0.510648 1.7521 0
M  V30 418 C 38.0035 3.61178 0.152518 0
M  V30 419 O 37.7245 4.24285 -1.0915 0
M  V30 420 C 39.2255 4.37624 0.707145 0
M  V30 421 H 36.4455 0.669319 -0.0474652 0
M  V30 422 H 38.9895 1.89237 -0.77521 0
M  V30 423 H 37.1445 3.78298 0.834843 0
M  V30 424 H 37.5585 5.16868 -0.891482 0
M  V30 425 H 39.0325 5.46271 0.793244 0
M  V30 426 H 39.5095 4.04152 1.71923 0
M  V30 427 H 40.1155 4.25257 0.0604027 0
M  V30 428 N 38.4306 0.297415 1.54768 0
M  V30 429 C 39.3626 -0.613881 2.20826 0
M  V30 430 C 40.3756 -1.10032 1.19987 0
M  V30 431 O 41.5646 -1.01839 1.46598 0
M  V30 432 C 38.6646 -1.852 2.83821 0
M  V30 433 C 37.8376 -1.50865 4.10559 0
M  V30 434 C 36.8966 -2.60154 4.57391 0
M  V30 435 O 35.9226 -2.25398 5.2267 0
M  V30 436 N 37.1246 -3.90629 4.29406 0
M  V30 437 H 39.8896 -0.048389 2.99661 0
M  V30 438 H 37.4506 0.11946 1.61459 0
M  V30 439 H 39.4426 -2.57652 3.12086 0
M  V30 440 H 38.0126 -2.32597 2.08847 0
M  V30 441 H 37.2326 -0.616925 3.89343 0
M  V30 442 H 38.5206 -1.25458 4.9309 0
M  V30 443 H 37.9186 -4.21677 3.77101 0
M  V30 444 H 36.4756 -4.59391 4.62388 0
M  V30 445 N 39.9087 -1.5758 0.0250728 0
M  V30 446 C 40.8387 -2.13007 -0.956575 0
M  V30 447 C 41.8197 -1.0452 -1.342 0
M  V30 448 O 43.0047 -1.32332 -1.42133 0
M  V30 449 C 40.1347 -2.65386 -2.24026 0
M  V30 450 C 39.0887 -3.78623 -1.99571 0
M  V30 451 C 38.4147 -4.17414 -3.3417 0
M  V30 452 C 39.7147 -5.04867 -1.33814 0
M  V30 453 H 41.4087 -2.9528 -0.494991 0
M  V30 454 H 38.9547 -1.42042 -0.236651 0
M  V30 455 H 40.9077 -3.02794 -2.93076 0
M  V30 456 H 39.6317 -1.80268 -2.72343 0
M  V30 457 H 38.2907 -3.41646 -1.32941 0
M  V30 458 H 37.9387 -3.29284 -3.80238 0
M  V30 459 H 37.6387 -4.93719 -3.18615 0
M  V30 460 H 39.1627 -4.57402 -4.04495 0
M  V30 461 H 40.5767 -5.39888 -1.92857 0
M  V30 462 H 38.9737 -5.86144 -1.28669 0
M  V30 463 H 40.0437 -4.83904 -0.310561 0
M  V30 464 N 41.3868 0.248026 -1.55636 0
M  V30 465 C 42.6118 0.998028 -1.81808 0
M  V30 466 C 43.0368 1.78207 -0.601979 0
M  V30 467 O 42.3948 1.75653 0.448961 0
M  V30 468 C 42.4428 1.9125 -3.05705 0
M  V30 469 O 41.5468 3.00406 -2.82542 0
M  V30 470 H 40.8878 0.284045 -0.600179 0
M  V30 471 H 43.4178 0.269357 -2.02819 0
M  V30 472 H 43.4278 2.32737 -3.35108 0
M  V30 473 H 42.1028 1.33602 -3.93857 0
M  V30 474 H 40.6798 2.63056 -2.64303 0
M  V30 475 N 42.8649 1.48995 0.513639 0
M  V30 476 C 44.2759 1.5119 1.09537 0
M  V30 477 C 44.6269 0.290906 1.94031 0
M  V30 478 O 43.7519 -0.60049 2.07902 0
M  V30 479 C 44.3469 2.73964 1.99322 0
M  V30 480 C 42.9059 2.78978 2.52682 0
M  V30 481 C 42.0529 2.44934 1.30009 0
M  V30 482 H 45.0039 1.55875 0.298125 0
M  V30 483 H 45.0249 2.53409 2.83838 0
M  V30 484 H 44.5369 3.62813 1.37799 0
M  V30 485 H 42.6379 1.94378 3.1788 0
M  V30 486 H 42.7509 3.8083 2.90698 0
M  V30 487 H 41.1149 1.9644 1.62122 0
M  V30 488 H 41.8979 3.36043 0.702131 0
M  V30 489 N 44.343 -0.763751 1.37857 0
M  V30 490 C 45.591 -1.51957 1.33243 0
M  V30 491 C 45.912 -1.94835 -0.0801709 0
M  V30 492 O 45.182 -1.66894 -1.02582 0
M  V30 493 H 43.762 -0.563626 0.49024 0
M  V30 494 H 46.424 -0.908504 1.7243 0
M  V30 495 H 45.52 -2.41523 1.97669 0
M  V30 496 N 45.8211 -1.22559 -0.990812 0
M  V30 497 C 46.7841 -0.998863 -2.0629 0
M  V30 498 C 47.7841 0.0354834 -1.60761 0
M  V30 499 O 48.9741 -0.203231 -1.7301 0
M  V30 500 C 46.1061 -0.509203 -3.37076 0
M  V30 501 H 47.2991 -1.95014 -2.27837 0
M  V30 502 H 44.8521 -1.04456 -1.16269 0
M  V30 503 H 45.5871 0.446335 -3.21214 0
M  V30 504 H 45.3721 -1.25547 -3.71457 0
M  V30 505 H 46.8621 -0.370888 -4.1595 0
M  V30 506 N 47.2992 1.18797 -1.03562 0
M  V30 507 C 48.7102 1.70322 -0.764676 0
M  V30 508 C 49.0612 1.82708 0.714996 0
M  V30 509 O 48.1862 1.50299 1.55689 0
M  V30 510 C 48.7812 3.09356 -1.38145 0
M  V30 511 C 47.3402 3.58114 -1.15895 0
M  V30 512 C 46.4872 2.34798 -1.4753 0
M  V30 513 H 49.4382 1.03543 -1.20268 0
M  V30 514 H 49.4592 3.72378 -0.781977 0
M  V30 515 H 48.9712 3.00309 -2.45837 0
M  V30 516 H 47.0722 3.72464 -0.100544 0
M  V30 517 H 47.1852 4.4184 -1.8524 0
M  V30 518 H 45.5492 2.38464 -0.894829 0
M  V30 519 H 46.3322 2.28375 -2.56319 0
M  V30 520 N 48.7773 0.814389 1.34928 0
M  V30 521 C 50.1883 0.458364 1.80986 0
M  V30 522 C 50.5393 -1.02042 1.67577 0
M  V30 523 O 49.6643 -1.79352 1.21086 0
M  V30 524 C 50.2593 0.825212 3.28597 0
M  V30 525 C 48.8183 0.521677 3.72767 0
M  V30 526 C 47.9653 1.04668 2.56788 0
M  V30 527 H 50.9163 1.00533 1.22795 0
M  V30 528 H 50.9373 0.12571 3.80292 0
M  V30 529 H 50.4493 1.90154 3.38324 0
M  V30 530 H 48.5503 -0.545589 3.68584 0
M  V30 531 H 48.6633 1.05977 4.67232 0
M  V30 532 H 47.0273 0.468622 2.50352 0
M  V30 533 H 47.8103 2.12927 2.6929 0
M  V30 534 N 50.2554 -1.46986 0.568584 0
M  V30 535 C 51.1874 -2.28233 -0.210337 0
M  V30 536 C 52.2004 -1.37682 -0.868767 0
M  V30 537 O 53.3894 -1.62406 -0.740705 0
M  V30 538 C 50.4894 -3.12293 -1.3163 0
M  V30 539 C 49.6624 -4.30878 -0.7525 0
M  V30 540 C 48.7214 -4.96445 -1.74439 0
M  V30 541 O 47.7474 -5.54482 -1.286 0
M  V30 542 N 48.9494 -4.92171 -3.07812 0
M  V30 543 H 51.7144 -2.95723 0.486648 0
M  V30 544 H 49.2754 -1.56742 0.405409 0
M  V30 545 H 51.2674 -3.53022 -1.97883 0
M  V30 546 H 49.8374 -2.46971 -1.91636 0
M  V30 547 H 49.0574 -3.94104 0.0871128 0
M  V30 548 H 50.3454 -5.07558 -0.35536 0
M  V30 549 H 49.7434 -4.46239 -3.47688 0
M  V30 550 H 48.3004 -5.36884 -3.69592 0
M  V30 551 N 51.7335 -0.305618 -1.54608 0
M  V30 552 C 52.6965 0.555591 -2.22364 0
M  V30 553 C 53.6965 1.05768 -1.21119 0
M  V30 554 O 54.8865 0.952972 -1.45822 0
M  V30 555 C 52.0185 1.76974 -2.91364 0
M  V30 556 H 53.2115 -0.0364572 -2.99878 0
M  V30 557 H 50.7645 -0.0565007 -1.56198 0
M  V30 558 H 51.4995 2.40151 -2.17941 0
M  V30 559 H 51.2845 1.41732 -3.65588 0
M  V30 560 H 52.7745 2.38148 -3.43038 0
M  V30 561 N 53.2116 1.57565 -0.0334293 0
M  V30 562 C 54.6226 1.79746 0.504798 0
M  V30 563 C 54.9736 0.944091 1.71992 0
M  V30 564 O 54.0986 0.155694 2.15839 0
M  V30 565 C 54.6936 3.25997 0.922567 0
M  V30 566 C 53.2526 3.49159 1.40588 0
M  V30 567 C 52.3996 2.74785 0.372633 0
M  V30 568 H 55.3506 1.56565 -0.259436 0
M  V30 569 H 55.3716 3.35945 1.78666 0
M  V30 570 H 54.8836 3.88081 0.0379825 0
M  V30 571 H 52.9846 2.92332 2.31025 0
M  V30 572 H 53.0976 4.57873 1.41028 0
M  V30 573 H 51.4616 2.40391 0.841672 0
M  V30 574 H 52.2446 3.39587 -0.503559 0
M  V30 575 N 54.6897 -0.239769 1.55765 0
M  V30 576 C 55.9667 -0.990056 1.68693 0
M  V30 577 C 56.3467 -2.03107 0.5754 0
M  V30 578 O 55.6947 -2.24604 -0.42017 0
M  V30 579 C 55.9047 -1.61696 3.09282 0
M  V30 580 C 57.2527 -2.11613 3.6811 0
M  V30 581 O 58.2767 -1.71624 3.12127 0
M  V30 582 O 57.1357 -2.85057 4.66267 0
M  V30 583 H 54.2297 -0.461299 0.686391 0
M  V30 584 H 56.7757 -0.232991 1.68093 0
M  V30 585 H 55.5477 -0.864357 3.81634 0
M  V30 586 H 55.1707 -2.44005 3.13923 0
M  V30 587 N 56.1678 -1.49265 -0.50573 0
M  V30 588 C 57.0978 -1.68495 -1.61653 0
M  V30 589 C 58.0788 -0.53366 -1.61512 0
M  V30 590 O 59.2638 -0.76897 -1.78327 0
M  V30 591 C 56.3938 -1.74709 -3.00157 0
M  V30 592 C 55.3478 -2.89581 -3.15162 0
M  V30 593 C 54.6738 -2.80903 -4.5497 0
M  V30 594 C 55.9738 -4.30578 -2.95634 0
M  V30 595 H 57.6678 -2.61493 -1.45814 0
M  V30 596 H 55.2138 -1.25838 -0.70005 0
M  V30 597 H 57.1668 -1.86748 -3.77761 0
M  V30 598 H 55.8908 -0.783067 -3.17074 0
M  V30 599 H 54.5498 -2.77136 -2.39982 0
M  V30 600 H 54.1978 -1.82419 -4.68756 0
M  V30 601 H 53.8978 -3.57999 -4.65951 0
M  V30 602 H 55.4218 -2.94944 -5.34641 0
M  V30 603 H 56.8358 -4.4373 -3.63011 0
M  V30 604 H 55.2328 -5.0886 -3.18091 0
M  V30 605 H 56.3028 -4.45352 -1.91806 0
M  V30 606 N 57.6459 0.756429 -1.3826 0
M  V30 607 C 58.5759 1.88374 -1.37976 0
M  V30 608 C 59.5569 1.68311 -0.246082 0
M  V30 609 O 60.7419 1.88944 -0.44874 0
M  V30 610 C 57.8719 3.25864 -1.20125 0
M  V30 611 C 56.8259 3.60523 -2.30666 0
M  V30 612 C 56.1519 4.9672 -1.97923 0
M  V30 613 C 57.4519 3.65692 -3.72916 0
M  V30 614 H 59.1459 1.88869 -2.32312 0
M  V30 615 H 56.6919 0.907272 -1.11824 0
M  V30 616 H 58.6449 4.0438 -1.18552 0
M  V30 617 H 57.3689 3.25841 -0.222498 0
M  V30 618 H 56.0279 2.84324 -2.3142 0
M  V30 619 H 55.6759 4.93253 -0.985393 0
M  V30 620 H 55.3759 5.20878 -2.71955 0
M  V30 621 H 56.8999 5.77618 -1.97964 0
M  V30 622 H 58.3139 4.34328 -3.74208 0
M  V30 623 H 56.7109 4.01358 -4.4613 0
M  V30 624 H 57.7809 2.65987 -4.05436 0
M  V30 625 N 59.124 1.23083 0.984299 0
M  V30 626 C 60.354 1.08556 1.75781 0
M  V30 627 C 60.762 -0.366171 1.85623 0
M  V30 628 O 60.105 -1.26524 1.33182 0
M  V30 629 C 60.167 1.63208 3.20318 0
M  V30 630 C 59.831 3.11922 3.33997 0
M  V30 631 C 60.828 4.09259 3.2063 0
M  V30 632 C 58.513 3.51552 3.58771 0
M  V30 633 C 60.507 5.4421 3.31835 0
M  V30 634 C 58.194 4.86649 3.69616 0
M  V30 635 C 59.192 5.82787 3.56157 0
M  V30 636 O 58.88 7.15431 3.66626 0
M  V30 637 H 58.612 0.380713 0.5586 0
M  V30 638 H 61.166 1.63321 1.2456 0
M  V30 639 H 59.396 1.0286 3.72769 0
M  V30 640 H 61.085 1.44216 3.79416 0
M  V30 641 H 61.851 3.79984 3.01392 0
M  V30 642 H 57.73 2.77239 3.6832 0
M  V30 643 H 61.274 6.1923 3.21247 0
M  V30 644 H 57.171 5.15601 3.88363 0
M  V30 645 H 57.939 7.23127 3.83445 0
M  V30 646 N 60.6021 -1.18246 1.0419 0
M  V30 647 C 61.5651 -2.20128 0.638452 0
M  V30 648 C 62.5651 -1.57885 -0.304805 0
M  V30 649 O 63.7551 -1.73967 -0.0900369 0
M  V30 650 C 60.8871 -3.4084 -0.0637751 0
M  V30 651 H 62.0801 -2.57336 1.54007 0
M  V30 652 H 59.6331 -1.32152 0.834598 0
M  V30 653 H 60.3681 -3.09166 -0.979136 0
M  V30 654 H 60.1531 -3.8726 0.614198 0
M  V30 655 H 61.6431 -4.16274 -0.332512 0
M  V30 656 N 62.0802 -0.821533 -1.34494 0
M  V30 657 C 63.3572 -0.33159 -1.92769 0
M  V30 658 C 63.7372 1.18088 -1.74981 0
M  V30 659 O 63.0852 1.98733 -1.12772 0
M  V30 660 C 63.2952 -0.759398 -3.40638 0
M  V30 661 C 64.6432 -0.757433 -4.1779 0
M  V30 662 O 65.6672 -0.70189 -3.49216 0
M  V30 663 O 64.5262 -0.829361 -5.4017 0
M  V30 664 H 61.6202 -0.0902502 -0.822061 0
M  V30 665 H 64.1662 -0.906231 -1.43477 0
M  V30 666 H 62.9382 -1.8012 -3.47379 0
M  V30 667 H 62.5612 -0.160378 -3.97276 0
M  V30 668 N 63.5583 1.46682 -0.576371 0
M  V30 669 C 64.8063 2.02013 -0.0594163 0
M  V30 670 C 65.1273 1.45101 1.30271 0
M  V30 671 O 64.3973 0.633317 1.8538 0
M  V30 672 H 62.9773 0.746759 -0.0189745 0
M  V30 673 H 65.6393 1.79862 -0.750717 0
M  V30 674 H 64.7353 3.12097 0.014345 0
M  V30 675 N 65.0364 0.313813 1.54444 0
M  V30 676 C 65.9664 -0.549454 2.26943 0
M  V30 677 C 66.9474 -1.12741 1.27372 0
M  V30 678 O 68.1324 -1.15436 1.56167 0
M  V30 679 C 65.2624 -1.71523 3.01989 0
M  V30 680 C 64.2164 -1.26703 4.08816 0
M  V30 681 C 63.5424 -2.51898 4.71647 0
M  V30 682 C 64.8424 -0.388962 5.2085 0
M  V30 683 H 66.5364 0.0552661 2.99349 0
M  V30 684 H 64.0824 0.0280207 1.43973 0
M  V30 685 H 66.0354 -2.32535 3.51433 0
M  V30 686 H 64.7594 -2.34639 2.27183 0
M  V30 687 H 63.4184 -0.679896 3.6024 0
M  V30 688 H 63.0664 -3.13356 3.93468 0
M  V30 689 H 62.7664 -2.22605 5.43802 0
M  V30 690 H 64.2904 -3.1369 5.23861 0
M  V30 691 H 65.7044 -0.905107 5.6611 0
M  V30 692 H 64.1014 -0.18924 5.99802 0
M  V30 693 H 65.1714 0.582699 4.81386 0
M  V30 694 N 66.5145 -1.57545 0.0417849 0
M  V30 695 C 67.9305 -1.56467 -0.314704 0
M  V30 696 C 68.1305 -1.04859 -1.72066 0
M  V30 697 O 67.1865 -0.700983 -2.42575 0
M  V30 698 C 68.4995 -3.00317 -0.15174 0
M  V30 699 C 70.0475 -3.12201 -0.223553 0
M  V30 700 C 70.5225 -4.57913 -0.0892295 0
M  V30 701 N 72.0135 -4.6297 -0.145808 0
M  V30 702 C 72.7485 -5.73362 -0.0658459 0
M  V30 703 N 72.2445 -6.92769 0.0659282 0
M  V30 704 N 74.0375 -5.6197 -0.12075 0
M  V30 705 H 66.1885 -1.89416 0.961014 0
M  V30 706 H 68.4515 -0.871862 0.372237 0
M  V30 707 H 68.1575 -3.42073 0.817254 0
M  V30 708 H 68.0315 -3.65892 -0.916692 0
M  V30 709 H 70.4185 -2.70349 -1.18301 0
M  V30 710 H 70.4995 -2.49323 0.571994 0
M  V30 711 H 70.1435 -5.00448 0.866867 0
M  V30 712 H 70.0735 -5.18786 -0.903802 0
M  V30 713 H 72.5645 -3.7709 -0.247286 0
M  V30 714 H 72.8775 -7.72707 0.119905 0
M  V30 715 H 71.2225 -6.94927 0.100885 0
M  V30 716 H 74.4135 -4.67572 -0.222187 0
M  V30 717 H 74.5865 -6.47977 -0.0549735 0
M  V30 718 N 67.9926 0.231505 -1.5589 0
M  V30 719 C 68.9556 1.27028 -1.90779 0
M  V30 720 C 69.9556 1.40308 -0.785507 0
M  V30 721 O 71.1456 1.38744 -1.05336 0
M  V30 722 C 68.2776 2.64566 -2.14983 0
M  V30 723 H 69.4706 0.973017 -2.83677 0
M  V30 724 H 67.0236 0.471486 -1.49019 0
M  V30 725 H 67.7586 2.99406 -1.24604 0
M  V30 726 H 67.5436 2.56305 -2.96732 0
M  V30 727 H 69.0336 3.39543 -2.43105 0
M  V30 728 N 69.4707 1.49531 0.497807 0
M  V30 729 C 70.7007 1.62657 1.27382 0
M  V30 730 C 71.1087 0.298488 1.86831 0
M  V30 731 O 70.4517 -0.72647 1.68725 0
M  V30 732 C 70.5137 2.6393 2.44093 0
M  V30 733 C 70.1777 4.08195 2.05489 0
M  V30 734 C 71.1747 4.949 1.59279 0
M  V30 735 C 68.8597 4.53948 2.15026 0
M  V30 736 C 70.8537 6.25397 1.23113 0
M  V30 737 C 68.5407 5.84458 1.78473 0
M  V30 738 C 69.5387 6.70006 1.32591 0
M  V30 739 O 69.2267 7.98083 0.965327 0
M  V30 740 H 68.9587 0.550429 0.392434 0
M  V30 741 H 71.5127 1.96325 0.603801 0
M  V30 742 H 69.7427 2.25449 3.14181 0
M  V30 743 H 71.4317 2.66552 3.06113 0
M  V30 744 H 72.1977 4.60779 1.51354 0
M  V30 745 H 68.0767 3.87525 2.4969 0
M  V30 746 H 71.6207 6.92125 0.872299 0
M  V30 747 H 67.5177 6.18107 1.86048 0
M  V30 748 H 68.2857 8.11122 1.09652 0
M  V30 749 N 70.9488 -0.749086 1.3866 0
M  V30 750 C 71.9118 -1.84457 1.36045 0
M  V30 751 C 72.9118 -1.58682 0.260122 0
M  V30 752 O 74.1018 -1.66343 0.517261 0
M  V30 753 C 71.2338 -3.22008 1.11911 0
M  V30 754 H 72.4268 -1.88182 2.33512 0
M  V30 755 H 69.9798 -0.951266 1.24019 0
M  V30 756 H 70.7148 -3.2395 0.150686 0
M  V30 757 H 70.4998 -3.42111 1.91579 0
M  V30 758 H 71.9898 -4.0208 1.12788 0
M  V30 759 N 72.4269 -1.23603 -0.977757 0
M  V30 760 C 73.3899 -1.02069 -2.05218 0
M  V30 761 C 74.3899 0.0184305 -1.60789 0
M  V30 762 O 75.5799 -0.221569 -1.72785 0
M  V30 763 C 72.7119 -0.544926 -3.36517 0
M  V30 764 H 73.9049 -1.9742 -2.25755 0
M  V30 765 H 71.4579 -1.05684 -1.15155 0
M  V30 766 H 72.1929 0.412241 -3.21669 0
M  V30 767 H 71.9779 -1.2948 -3.70105 0
M  V30 768 H 73.4679 -0.414985 -4.15533 0
M  V30 769 N 73.905 1.17692 -1.04816 0
M  V30 770 C 75.153 1.87488 -0.754497 0
M  V30 771 C 75.474 1.81205 0.720407 0
M  V30 772 O 74.744 1.23544 1.52032 0
M  V30 773 H 73.324 0.694101 -0.276102 0
M  V30 774 H 75.986 1.42793 -1.32651 0
M  V30 775 H 75.082 2.93328 -1.06606 0
M  V30 776 N 75.3831 0.828654 1.34056 0
M  V30 777 C 76.3461 0.259927 2.27721 0
M  V30 778 C 77.3461 -0.565478 1.50529 0
M  V30 779 O 78.5361 -0.38075 1.69988 0
M  V30 780 C 75.6681 -0.634944 3.34935 0
M  V30 781 H 76.8611 1.0863 2.79534 0
M  V30 782 H 74.4141 0.600951 1.44285 0
M  V30 783 H 75.1491 -1.48416 2.88346 0
M  V30 784 H 74.9341 -0.0444999 3.92075 0
M  V30 785 H 76.4241 -1.02648 4.04788 0
M  V30 786 N 76.8612 -1.46375 0.584142 0
M  V30 787 C 78.1072 -2.03248 0.0787103 0
M  V30 788 C 78.4622 -1.44737 -1.26763 0
M  V30 789 O 77.7552 -0.603625 -1.81843 0
M  V30 790 C 77.9492 -3.57373 -0.0439342 0
M  V30 791 C 77.7782 -4.30831 1.28897 0
M  V30 792 C 76.5482 -4.69683 1.8635 0
M  V30 793 C 78.7462 -4.64278 2.21248 0
M  V30 794 N 76.7282 -5.27898 3.13365 0
M  V30 795 C 78.0992 -5.23078 3.32851 0
M  V30 796 C 80.1542 -4.46209 2.20911 0
M  V30 797 C 78.8572 -5.65715 4.44251 0
M  V30 798 C 80.8832 -4.89864 3.31341 0
M  V30 799 C 80.2452 -5.48736 4.41665 0
M  V30 800 H 76.3442 -0.778714 0.0716144 0
M  V30 801 H 78.9282 -1.78509 0.777355 0
M  V30 802 H 77.0992 -3.81823 -0.711749 0
M  V30 803 H 78.8312 -4.00892 -0.553881 0
M  V30 804 H 75.5862 -4.52488 1.39826 0
M  V30 805 H 76.0102 -5.61525 3.78178 0
M  V30 806 H 80.6522 -4.00027 1.36888 0
M  V30 807 H 78.3702 -6.10875 5.29015 0
M  V30 808 H 81.9562 -4.77634 3.322 0
M  V30 809 H 80.8362 -5.81898 5.25704 0
M  V30 810 N 78.3393 -0.321999 -1.54275 0
M  V30 811 C 79.3023 0.531975 -2.22941 0
M  V30 812 C 80.3023 1.04478 -1.22234 0
M  V30 813 O 81.4923 0.937452 -1.46825 0
M  V30 814 C 78.6243 1.73874 -2.93224 0
M  V30 815 H 79.8173 -0.0682612 -2.99822 0
M  V30 816 H 77.3703 -0.0730644 -1.56129 0
M  V30 817 H 78.1053 2.37825 -2.20476 0
M  V30 818 H 77.8903 1.37847 -3.6707 0
M  V30 819 H 79.3803 2.34496 -3.45545 0
M  V30 820 N 79.8174 1.5752 -0.0501392 0
M  V30 821 C 81.2284 1.80271 0.485705 0
M  V30 822 C 81.5794 0.96228 1.70981 0
M  V30 823 O 80.7044 0.178578 2.15662 0
M  V30 824 C 81.2994 3.26957 0.887938 0
M  V30 825 C 79.8584 3.5063 1.36877 0
M  V30 826 C 79.0054 2.75165 0.343468 0
M  V30 827 H 81.9564 1.56281 -0.276028 0
M  V30 828 H 81.9774 3.37821 1.75093 0
M  V30 829 H 81.4894 3.881 -0.0031809 0
M  V30 830 H 79.5904 2.94766 2.27911 0
M  V30 831 H 79.7034 4.59343 1.36164 0
M  V30 832 H 78.0674 2.4127 0.816128 0
M  V30 833 H 78.8504 3.39034 -0.539548 0
M  V30 834 N 81.2955 -0.223234 1.56011 0
M  V30 835 C 82.2585 -1.26014 1.9145 0
M  V30 836 C 83.2585 -1.3989 0.792937 0
M  V30 837 O 84.4485 -1.38184 1.0607 0
M  V30 838 C 81.5805 -2.63422 2.16383 0
M  V30 839 H 82.7735 -0.95796 2.84189 0
M  V30 840 H 80.3265 -0.463576 1.49267 0
M  V30 841 H 81.0615 -2.98741 1.2619 0
M  V30 842 H 80.8465 -2.54728 2.98088 0
M  V30 843 H 82.3365 -3.38249 2.44903 0
M  V30 844 N 82.7736 -1.49793 -0.48987 0
M  V30 845 C 84.0196 -1.60078 -1.24511 0
M  V30 846 C 84.3526 -0.291608 -1.91998 0
M  V30 847 O 83.6276 0.705647 -1.81248 0
M  V30 848 C 83.9106 -2.76791 -2.30345 0
M  V30 849 C 83.7636 -4.17535 -1.67286 0
M  V30 850 C 85.0826 -2.89111 -3.31817 0
M  V30 851 H 82.2016 -0.582645 -0.451324 0
M  V30 852 H 84.8436 -1.82117 -0.541612 0
M  V30 853 H 82.9936 -2.5813 -2.90346 0
M  V30 854 H 84.6656 -4.4774 -1.11026 0
M  V30 855 H 82.9086 -4.22665 -0.976577 0
M  V30 856 H 83.5796 -4.95094 -2.44103 0
M  V30 857 H 86.0556 -3.06133 -2.81819 0
M  V30 858 H 84.9316 -3.72433 -4.03219 0
M  V30 859 H 85.1926 -1.9893 -3.94815 0
M  V30 860 N 84.2517 0.741722 -1.39055 0
M  V30 861 C 85.2147 1.83733 -1.37021 0
M  V30 862 C 86.2147 1.58542 -0.268534 0
M  V30 863 O 87.4047 1.66067 -0.526076 0
M  V30 864 C 84.5367 3.2141 -1.13617 0
M  V30 865 H 85.7297 1.86941 -2.34506 0
M  V30 866 H 83.2827 0.944676 -1.24521 0
M  V30 867 H 84.0177 3.23865 -0.167863 0
M  V30 868 H 83.8027 3.4109 -1.93391 0
M  V30 869 H 85.2927 4.01477 -1.14918 0
M  V30 870 N 85.7298 1.2412 0.971189 0
M  V30 871 C 86.6598 1.05508 2.08304 0
M  V30 872 C 87.6408 -0.0308864 1.70072 0
M  V30 873 O 88.8258 0.135521 1.93727 0
M  V30 874 C 85.9558 0.655365 3.4106 0
M  V30 875 C 84.9098 1.68971 3.93234 0
M  V30 876 C 84.2358 1.14516 5.22293 0
M  V30 877 C 85.5358 3.08487 4.21465 0
M  V30 878 H 87.2298 1.98507 2.24132 0
M  V30 879 H 84.7758 0.955821 1.07704 0
M  V30 880 H 86.7288 0.51217 4.18276 0
M  V30 881 H 85.4528 -0.31032 3.25122 0
M  V30 882 H 84.1118 1.82106 3.18171 0
M  V30 883 H 83.7598 0.170189 5.02712 0
M  V30 884 H 83.4598 1.83635 5.58168 0
M  V30 885 H 84.9838 1.01401 6.02121 0
M  V30 886 H 86.3978 2.98601 4.89398 0
M  V30 887 H 84.7948 3.74926 4.68562 0
M  V30 888 H 85.8648 3.56787 3.28376 0
M  V30 889 N 87.2079 -1.17134 1.05439 0
M  V30 890 C 88.1379 -2.2342 0.678649 0
M  V30 891 C 89.1189 -1.66971 -0.32476 0
M  V30 892 O 90.3039 -1.93149 -0.201802 0
M  V30 893 C 87.4339 -3.47256 0.0552099 0
M  V30 894 C 86.3879 -4.16543 0.98365 0
M  V30 895 C 85.7139 -5.34231 0.223961 0
M  V30 896 C 87.0139 -4.68495 2.3089 0
M  V30 897 H 88.7079 -2.55105 1.56722 0
M  V30 898 H 86.2539 -1.2262 0.754998 0
M  V30 899 H 88.2069 -4.20828 -0.21946 0
M  V30 900 H 86.9309 -3.14846 -0.868319 0
M  V30 901 H 85.5899 -3.44887 1.24293 0
M  V30 902 H 85.2379 -4.98071 -0.702412 0
M  V30 903 H 84.9379 -5.81527 0.842627 0
M  V30 904 H 86.4619 -6.10585 -0.0433671 0
M  V30 905 H 87.8759 -5.33691 2.09396 0
M  V30 906 H 86.2729 -5.26379 2.88176 0
M  V30 907 H 87.3429 -3.85169 2.94572 0
M  V30 908 N 88.686 -0.835752 -1.33615 0
M  V30 909 C 90.102 -0.523139 -1.50783 0
M  V30 910 C 90.302 0.950171 -1.77691 0
M  V30 911 O 89.358 1.73411 -1.83534 0
M  V30 912 C 90.671 -1.39378 -2.66448 0
M  V30 913 C 92.219 -1.39223 -2.80332 0
M  V30 914 C 92.694 -2.24765 -3.99055 0
M  V30 915 N 94.185 -2.22458 -4.06284 0
M  V30 916 C 94.92 -2.85386 -4.97336 0
M  V30 917 N 94.416 -3.57354 -5.93523 0
M  V30 918 N 96.209 -2.74872 -4.90308 0
M  V30 919 H 88.36 -1.78952 -1.14411 0
M  V30 920 H 90.623 -0.763297 -0.562212 0
M  V30 921 H 90.329 -2.44061 -2.53234 0
M  V30 922 H 90.203 -1.0676 -3.61776 0
M  V30 923 H 92.59 -0.353136 -2.92979 0
M  V30 924 H 92.671 -1.75846 -1.85773 0
M  V30 925 H 92.315 -3.28732 -3.87167 0
M  V30 926 H 92.245 -1.85485 -4.92852 0
M  V30 927 H 94.736 -1.70119 -3.37443 0
M  V30 928 H 95.049 -4.02584 -6.59656 0
M  V30 929 H 93.394 -3.61461 -5.93608 0
M  V30 930 H 96.585 -2.18213 -4.14126 0
M  V30 931 H 96.758 -3.24199 -5.61069 0
M  V30 932 N 90.1641 1.46063 -0.591896 0
M  V30 933 C 91.0741 2.34192 0.13831 0
M  V30 934 C 92.0901 1.50305 0.876608 0
M  V30 935 O 93.2661 1.8315 0.837728 0
M  V30 936 C 90.3311 3.27656 1.13326 0
M  V30 937 C 89.3921 4.27445 0.39863 0
M  V30 938 C 88.6251 5.16443 1.34618 0
M  V30 939 O 88.8481 5.08553 2.58321 0
M  V30 940 O 87.7821 5.95843 0.851768 0
M  V30 941 H 91.6081 2.98002 -0.58552 0
M  V30 942 H 89.1931 1.45188 -0.352239 0
M  V30 943 H 91.0751 3.85291 1.70671 0
M  V30 944 H 89.7501 2.6643 1.83839 0
M  V30 945 H 88.6571 3.73471 -0.216895 0
M  V30 946 H 89.9901 4.91482 -0.265709 0
M  V30 947 N 91.6422 0.330177 1.54103 0
M  V30 948 C 92.6052 -0.520144 2.2322 0
M  V30 949 C 93.6052 -1.03828 1.22786 0
M  V30 950 O 94.7952 -0.929652 1.4732 0
M  V30 951 C 91.9272 -1.72317 2.94142 0
M  V30 952 H 93.1202 0.0841605 2.99782 0
M  V30 953 H 90.6732 0.0813433 1.56088 0
M  V30 954 H 91.4082 -2.36653 2.21734 0
M  V30 955 H 91.1932 -1.35898 3.67796 0
M  V30 956 H 92.6832 -2.3266 3.46784 0
M  V30 957 N 93.1203 -1.57491 0.0584922 0
M  V30 958 C 94.0503 -2.14988 -0.911178 0
M  V30 959 C 95.0313 -1.07343 -1.31952 0
M  V30 960 O 96.2163 -1.35318 -1.39294 0
M  V30 961 C 93.3463 -2.70078 -2.18347 0
M  V30 962 C 92.3003 -3.82771 -1.91495 0
M  V30 963 C 91.6263 -4.24408 -3.25241 0
M  V30 964 C 92.9263 -5.07592 -1.23075 0
M  V30 965 H 94.6203 -2.96263 -0.432246 0
M  V30 966 H 92.1663 -1.42512 -0.206469 0
M  V30 967 H 94.1193 -3.08943 -2.86587 0
M  V30 968 H 92.8433 -1.86005 -2.68458 0
M  V30 969 H 91.5023 -3.44389 -1.25664 0
M  V30 970 H 91.1503 -3.37275 -3.73168 0
M  V30 971 H 90.8503 -5.00366 -3.08071 0
M  V30 972 H 92.3743 -4.65879 -3.94701 0
M  V30 973 H 93.7883 -5.43857 -1.81362 0
M  V30 974 H 92.1853 -5.88741 -1.16207 0
M  V30 975 H 93.2553 -4.84454 -0.207847 0
M  V30 976 N 94.5984 0.214957 -1.56127 0
M  V30 977 C 96.0144 0.564948 -1.49267 0
M  V30 978 C 96.2144 1.86827 -0.754838 0
M  V30 979 O 95.2704 2.50745 -0.297198 0
M  V30 980 C 96.5834 0.638071 -2.93852 0
M  V30 981 C 98.1314 0.728253 -3.0441 0
M  V30 982 C 98.6064 0.832663 -4.50367 0
M  V30 983 N 100.097 0.896712 -4.54437 0
M  V30 984 C 100.832 0.997324 -5.6466 0
M  V30 985 N 100.328 1.06147 -6.8462 0
M  V30 986 N 102.121 1.03297 -5.52527 0
M  V30 987 H 94.2724 -0.640211 -2.02522 0
M  V30 988 H 96.5354 -0.225507 -0.920788 0
M  V30 989 H 96.2414 -0.250126 -3.50809 0
M  V30 990 H 96.1154 1.49947 -3.46115 0
M  V30 991 H 98.5024 1.60689 -2.47514 0
M  V30 992 H 98.5834 -0.158952 -2.55306 0
M  V30 993 H 98.2274 -0.0415417 -5.07883 0
M  V30 994 H 98.1574 1.73538 -4.97184 0
M  V30 995 H 100.648 0.857188 -3.6805 0
M  V30 996 H 100.961 1.1382 -7.64372 0
M  V30 997 H 99.3064 1.03049 -6.87318 0
M  V30 998 H 102.497 0.979558 -4.57736 0
M  V30 999 H 102.67 1.10793 -6.38458 0
M  V30 1000 N 96.0765 1.50051 0.48192 0
M  V30 1001 C 97.3015 1.64508 1.26301 0
M  V30 1002 C 97.7265 0.323851 1.85291 0
M  V30 1003 O 97.0845 -0.710969 1.66778 0
M  V30 1004 C 97.1325 2.7305 2.35533 0
M  V30 1005 O 96.2365 2.3355 3.39895 0
M  V30 1006 H 95.5775 0.549978 0.372048 0
M  V30 1007 H 98.1075 1.9636 0.574786 0
M  V30 1008 H 98.1175 2.95799 2.8101 0
M  V30 1009 H 96.7925 3.68946 1.91967 0
M  V30 1010 H 95.3695 2.21205 3.00204 0
M  V30 1011 N 97.5546 -0.734337 1.39446 0
M  V30 1012 C 98.4866 -1.85861 1.34121 0
M  V30 1013 C 99.4996 -1.60871 0.249864 0
M  V30 1014 O 100.689 -1.71093 0.508865 0
M  V30 1015 C 97.7886 -3.21899 1.05991 0
M  V30 1016 C 96.9616 -3.74239 2.26415 0
M  V30 1017 C 96.0206 -4.88841 1.94733 0
M  V30 1018 O 95.0466 -5.02468 2.67422 0
M  V30 1019 N 96.2486 -5.73261 0.913884 0
M  V30 1020 H 99.0136 -1.90934 2.31007 0
M  V30 1021 H 96.5746 -0.915102 1.33557 0
M  V30 1022 H 98.5666 -3.96136 0.828147 0
M  V30 1023 H 97.1366 -3.12091 0.178361 0
M  V30 1024 H 96.3566 -2.91347 2.65539 0
M  V30 1025 H 97.6446 -4.05942 3.06738 0
M  V30 1026 H 97.0426 -5.64842 0.311476 0
M  V30 1027 H 95.5996 -6.47563 0.742015 0
M  V30 1028 N 99.0327 -1.24633 -0.964593 0
M  V30 1029 C 99.9957 -1.0424 -2.04124 0
M  V30 1030 C 100.996 0.00137563 -1.608 0
M  V30 1031 O 102.186 -0.239883 -1.7254 0
M  V30 1032 C 99.3177 -0.580588 -3.3592 0
M  V30 1033 H 100.511 -1.99803 -2.23649 0
M  V30 1034 H 98.0637 -1.06899 -1.14027 0
M  V30 1035 H 98.7987 0.3781 -3.22088 0
M  V30 1036 H 98.5837 -1.33398 -3.6871 0
M  V30 1037 H 100.074 -0.459034 -4.15069 0
M  V30 1038 N 100.511 1.16574 -1.06058 0
M  V30 1039 C 101.474 2.19085 -0.673392 0
M  V30 1040 C 102.474 1.5835 0.279648 0
M  V30 1041 O 103.664 1.74088 0.0623488 0
M  V30 1042 C 100.796 3.40899 0.00954234 0
M  V30 1043 H 101.989 2.54853 -1.58081 0
M  V30 1044 H 99.5418 1.30808 -0.855516 0
M  V30 1045 H 100.277 3.10684 0.929826 0
M  V30 1046 H 100.062 3.86233 -0.67573 0
M  V30 1047 H 101.552 4.1675 0.266245 0
M  V30 1048 N 101.989 0.842826 1.3317 0
M  V30 1049 C 102.919 0.294028 2.31641 0
M  V30 1050 C 103.9 -0.600401 1.59151 0
M  V30 1051 O 105.085 -0.523124 1.87022 0
M  V30 1052 C 102.215 -0.528416 3.43257 0
M  V30 1053 C 101.169 0.27056 4.27144 0
M  V30 1054 C 100.495 -0.675881 5.30411 0
M  V30 1055 C 101.795 1.48981 5.00602 0
M  V30 1056 H 103.489 1.11681 2.77791 0
M  V30 1057 H 101.035 0.538478 1.33553 0
M  V30 1058 H 102.988 -0.922674 4.11175 0
M  V30 1059 H 101.712 -1.38445 2.95805 0
M  V30 1060 H 100.371 0.646427 3.60856 0
M  V30 1061 H 100.019 -1.52842 4.79216 0
M  V30 1062 H 99.7189 -0.145374 5.8742 0
M  V30 1063 H 101.243 -1.06757 6.01195 0
M  V30 1064 H 102.657 1.16849 5.61266 0
M  V30 1065 H 101.054 1.95739 5.6728 0
M  V30 1066 H 102.124 2.25746 4.29147 0
M  V30 1067 N 103.467 -1.45747 0.599634 0
M  V30 1068 C 104.715 -2.01893 0.0915472 0
M  V30 1069 C 105.036 -1.47155 -1.27946 0
M  V30 1070 O 104.306 -0.66273 -1.84349 0
M  V30 1071 H 102.886 -0.746363 0.0308524 0
M  V30 1072 H 105.548 -1.78645 0.779237 0
M  V30 1073 H 104.644 -3.1208 0.0353086 0
M  V30 1074 N 104.945 -0.338344 -1.53925 0
M  V30 1075 C 106.361 0.0137736 -1.59594 0
M  V30 1076 C 106.561 1.49186 -1.35447 0
M  V30 1077 O 105.617 2.24987 -1.14616 0
M  V30 1078 C 106.93 -0.41773 -2.97784 0
M  V30 1079 C 108.478 -0.369633 -3.1081 0
M  V30 1080 C 108.953 -0.776524 -4.51369 0
M  V30 1081 N 110.444 -0.730506 -4.57403 0
M  V30 1082 C 111.179 -1.01736 -5.64303 0
M  V30 1083 N 110.675 -1.3721 -6.79077 0
M  V30 1084 N 112.468 -0.941942 -5.54151 0
M  V30 1085 H 104.619 -1.3012 -1.67876 0
M  V30 1086 H 106.882 -0.530082 -0.78595 0
M  V30 1087 H 106.588 -1.44811 -3.20504 0
M  V30 1088 H 106.462 0.209729 -3.76616 0
M  V30 1089 H 108.849 0.651568 -2.87817 0
M  V30 1090 H 108.93 -1.03223 -2.34049 0
M  V30 1091 H 108.574 -1.79571 -4.75096 0
M  V30 1092 H 108.504 -0.0914649 -5.26521 0
M  V30 1093 H 110.995 -0.468783 -3.74981 0
M  V30 1094 H 111.308 -1.57597 -7.5656 0
M  V30 1095 H 109.653 -1.4105 -6.80536 0
M  V30 1096 H 112.844 -0.664184 -4.63364 0
M  V30 1097 H 113.017 -1.16884 -6.37371 0
M  V30 1098 N 106.423 1.57458 -0.0668435 0
M  V30 1099 C 107.669 1.93587 0.6043 0
M  V30 1100 C 108.002 0.946722 1.69561 0
M  V30 1101 O 107.277 -0.0248516 1.94484 0
M  V30 1102 C 107.56 3.40014 1.18585 0
M  V30 1103 C 107.413 4.49685 0.101529 0
M  V30 1104 C 108.732 3.87154 2.09284 0
M  V30 1105 H 105.851 0.703958 0.218202 0
M  V30 1106 H 108.493 1.89542 -0.131804 0
M  V30 1107 H 106.643 3.43592 1.81319 0
M  V30 1108 H 108.315 4.5823 -0.531279 0
M  V30 1109 H 106.558 4.30059 -0.568487 0
M  V30 1110 H 107.229 5.49266 0.54874 0
M  V30 1111 H 109.705 3.85551 1.56491 0
M  V30 1112 H 108.581 4.90231 2.46911 0
M  V30 1113 H 108.842 3.2481 2.99918 0
M  V30 1114 N 107.901 -0.206675 1.56239 0
M  V30 1115 C 109.317 -0.557025 1.49564 0
M  V30 1116 C 109.517 -1.86424 0.764735 0
M  V30 1117 O 108.573 -2.50584 0.310491 0
M  V30 1118 C 109.886 -0.622478 2.94186 0
M  V30 1119 C 111.434 -0.712099 3.04792 0
M  V30 1120 C 111.909 -0.808767 4.50803 0
M  V30 1121 N 113.4 -0.8726 4.54907 0
M  V30 1122 C 114.135 -0.967365 5.65181 0
M  V30 1123 N 113.631 -1.02515 6.85173 0
M  V30 1124 N 115.424 -1.00366 5.53067 0
M  V30 1125 H 107.575 0.650943 2.02179 0
M  V30 1126 H 109.838 0.230387 0.919579 0
M  V30 1127 H 109.544 0.268727 3.50672 0
M  V30 1128 H 109.418 -1.4811 3.46905 0
M  V30 1129 H 111.805 -1.59374 2.48363 0
M  V30 1130 H 111.886 0.172489 2.55218 0
M  V30 1131 H 111.53 0.0684754 5.07854 0
M  V30 1132 H 111.46 -1.70899 4.98098 0
M  V30 1133 H 113.951 -0.837657 3.68499 0
M  V30 1134 H 114.264 -1.09765 7.64965 0
M  V30 1135 H 112.609 -0.994026 6.87855 0
M  V30 1136 H 115.8 -0.95527 4.58249 0
M  V30 1137 H 115.973 -1.07405 6.39037 0
M  V30 1138 N 109.379 -1.50304 -0.473955 0
M  V30 1139 C 110.309 -1.71886 -1.58042 0
M  V30 1140 C 111.29 -0.567799 -1.60344 0
M  V30 1141 O 112.475 -0.806623 -1.76656 0
M  V30 1142 C 109.605 -1.81036 -2.96384 0
M  V30 1143 C 108.559 -2.962 -3.08949 0
M  V30 1144 C 107.885 -2.9049 -4.48909 0
M  V30 1145 C 109.185 -4.36752 -2.86434 0
M  V30 1146 H 110.879 -2.64527 -1.40234 0
M  V30 1147 H 108.425 -1.27295 -0.673201 0
M  V30 1148 H 110.378 -1.94719 -3.73714 0
M  V30 1149 H 109.102 -0.850147 -3.15341 0
M  V30 1150 H 107.761 -2.82164 -2.3405 0
M  V30 1151 H 107.409 -1.92321 -4.64781 0
M  V30 1152 H 107.109 -3.67802 -4.58253 0
M  V30 1153 H 108.633 -3.06218 -5.28264 0
M  V30 1154 H 110.047 -4.5133 -3.53517 0
M  V30 1155 H 108.444 -5.15493 -3.07225 0
M  V30 1156 H 109.514 -4.49321 -1.82316 0
M  V30 1157 N 110.857 0.726932 -1.39834 0
M  V30 1158 C 112.134 1.47902 -1.28001 0
M  V30 1159 C 112.514 2.1083 0.106789 0
M  V30 1160 O 111.862 1.99242 1.11869 0
M  V30 1161 C 112.072 2.52392 -2.41038 0
M  V30 1162 C 113.42 3.18546 -2.80737 0
M  V30 1163 O 114.444 2.62708 -2.40547 0
M  V30 1164 O 113.303 4.19604 -3.50135 0
M  V30 1165 H 110.397 0.657163 -0.502062 0
M  V30 1166 H 112.943 0.760071 -1.51727 0
M  V30 1167 H 111.715 2.04329 -3.33715 0
M  V30 1168 H 111.338 3.31837 -2.19021 0
M  V30 1169 N 112.336 1.25143 0.95797 0
M  V30 1170 C 113.576 1.10893 1.71703 0
M  V30 1171 C 113.94 -0.34478 1.88879 0
M  V30 1172 O 115.141 -0.609014 2.6181 0
M  V30 1173 C 113.412 1.83889 3.06463 0
M  V30 1174 S 114.971 1.85491 3.97666 0
M  V30 1175 H 111.789 0.396428 0.590226 0
M  V30 1176 H 114.391 1.58618 1.14283 0
M  V30 1177 H 113.095 2.88756 2.9163 0
M  V30 1178 H 112.626 1.36538 3.68946 0
M  V30 1179 H 114.641 0.929553 4.87415 0
M  V30 1180 N 113.814 -1.1601 1.06675 0
M  V30 1181 C 115.062 -1.86264 0.784229 0
M  V30 1182 C 115.383 -1.82328 -0.691488 0
M  V30 1183 O 114.653 -1.25947 -1.50047 0
M  V30 1184 H 113.233 -0.689621 0.28711 0
M  V30 1185 H 115.895 -1.40664 1.34906 0
M  V30 1186 H 114.991 -2.91595 1.11259 0
M  V30 1187 N 115.292 -0.849877 -1.32721 0
M  V30 1188 C 116.255 -0.296122 -2.27279 0
M  V30 1189 C 117.255 0.541458 -1.5141 0
M  V30 1190 O 118.445 0.353658 -1.70572 0
M  V30 1191 C 115.577 0.581579 -3.35902 0
M  V30 1192 H 116.77 -1.13064 -2.77771 0
M  V30 1193 H 114.323 -0.62383 -1.43311 0
M  V30 1194 H 115.058 1.43809 -2.9067 0
M  V30 1195 H 114.843 -0.0178814 -3.92096 0
M  V30 1196 H 116.333 0.961951 -4.0637 0
M  V30 1197 N 116.77 1.45427 -0.607355 0
M  V30 1198 C 117.995 2.07124 -0.107006 0
M  V30 1199 C 118.42 1.44906 1.19933 0
M  V30 1200 O 117.778 0.541687 1.73019 0
M  V30 1201 C 117.826 3.60595 0.0194119 0
M  V30 1202 O 116.93 3.98285 1.0697 0
M  V30 1203 H 116.271 0.659868 -0.0739597 0
M  V30 1204 H 118.801 1.86683 -0.837297 0
M  V30 1205 H 118.811 4.07419 0.2177 0
M  V30 1206 H 117.486 4.05266 -0.934453 0
M  V30 1207 H 116.063 3.63133 0.847889 0
M  V30 1208 N 118.248 0.346503 1.53744 0
M  V30 1209 C 119.488 -0.249413 2.02873 0
M  V30 1210 C 119.852 -1.47532 1.22876 0
M  V30 1211 O 121.053 -2.1456 1.61918 0
M  V30 1212 C 119.324 -0.552909 3.53097 0
M  V30 1213 S 120.883 -1.12521 4.24128 0
M  V30 1214 H 117.701 -0.074042 0.707134 0
M  V30 1215 H 120.303 0.48495 1.8939 0
M  V30 1216 H 119.007 0.347083 4.0893 0
M  V30 1217 H 118.538 -1.31686 3.70705 0
M  V30 1218 H 120.553 -2.41075 4.33702 0
M  V30 1219 N 119.726 -1.57421 0.075193 0
M  V30 1220 C 120.689 -2.11791 -0.876203 0
M  V30 1221 C 121.689 -1.04268 -1.22412 0
M  V30 1222 O 122.879 -1.30242 -1.15684 0
M  V30 1223 C 120.011 -2.62207 -2.17854 0
M  V30 1224 H 121.204 -2.9716 -0.40444 0
M  V30 1225 H 118.757 -1.55333 -0.173557 0
M  V30 1226 H 119.492 -1.803 -2.6956 0
M  V30 1227 H 119.277 -3.40802 -1.93897 0
M  V30 1228 H 120.767 -3.04335 -2.85955 0
M  V30 1229 N 121.204 0.198386 -1.56346 0
M  V30 1230 C 122.167 1.22952 -1.93431 0
M  V30 1231 C 123.167 1.38611 -0.815092 0
M  V30 1232 O 124.357 1.36479 -1.08255 0
M  V30 1233 C 121.489 2.59946 -2.20546 0
M  V30 1234 H 122.682 0.912626 -2.85677 0
M  V30 1235 H 120.235 0.43977 -1.49986 0
M  V30 1236 H 120.97 2.96696 -1.30927 0
M  V30 1237 H 120.755 2.49953 -3.02102 0
M  V30 1238 H 122.245 3.3431 -2.50253 0
M  V30 1239 N 122.682 1.50554 0.465978 0
M  V30 1240 C 123.959 1.5232 1.22712 0
M  V30 1241 C 124.339 0.270807 2.09356 0
M  V30 1242 O 123.687 -0.745541 2.15995 0
M  V30 1243 C 123.897 2.82175 2.05374 0
M  V30 1244 C 125.245 3.33033 2.6339 0
M  V30 1245 O 126.269 2.83531 2.15612 0
M  V30 1246 O 125.128 4.19336 3.50456 0
M  V30 1247 H 122.222 0.611183 0.557122 0
M  V30 1248 H 124.768 1.62847 0.477381 0
M  V30 1249 H 123.54 3.64797 1.41558 0
M  V30 1250 H 123.163 2.74675 2.87471 0
M  V30 1251 N 124.16 -0.719506 1.40217 0
M  V30 1252 C 125.571 -1.29848 1.34151 0
M  V30 1253 C 125.922 -1.96196 0.0131349 0
M  V30 1254 O 125.047 -1.973 -0.88892 0
M  V30 1255 C 125.642 -2.36118 2.42968 0
M  V30 1256 C 124.201 -2.8965 2.40374 0
M  V30 1257 C 123.348 -1.63393 2.24049 0
M  V30 1258 H 126.299 -0.51591 1.5008 0
M  V30 1259 H 126.32 -3.16871 2.10649 0
M  V30 1260 H 125.832 -1.878 3.39636 0
M  V30 1261 H 123.933 -3.42208 1.47392 0
M  V30 1262 H 124.046 -3.4171 3.35814 0
M  V30 1263 H 122.41 -1.88312 1.71495 0
M  V30 1264 H 123.193 -1.17104 3.2271 0
M  V30 1265 N 125.638 -1.25649 -0.95132 0
M  V30 1266 C 126.886 -1.10375 -1.69298 0
M  V30 1267 C 127.207 0.355339 -1.91735 0
M  V30 1268 O 126.477 1.25188 -1.50681 0
M  V30 1269 H 125.057 -0.405461 -0.627384 0
M  V30 1270 H 127.719 -1.57823 -1.14358 0
M  V30 1271 H 126.815 -1.61465 -2.67087 0
M  V30 1272 N 127.117 1.15442 -1.07289 0
M  V30 1273 C 128.08 2.18358 -0.696591 0
M  V30 1274 C 129.08 1.58637 0.262837 0
M  V30 1275 O 130.27 1.74145 0.0438809 0
M  V30 1276 C 127.402 3.4089 -0.0266151 0
M  V30 1277 H 128.595 2.53162 -1.60776 0
M  V30 1278 H 126.148 1.29893 -0.869342 0
M  V30 1279 H 126.883 3.11653 0.896822 0
M  V30 1280 H 126.668 3.85495 -0.716657 0
M  V30 1281 H 128.158 4.17009 0.222028 0
M  V30 1282 N 128.595 0.856903 1.32268 0
M  V30 1283 C 129.558 0.308171 2.27119 0
M  V30 1284 C 130.558 -0.533421 1.51695 0
M  V30 1285 O 131.748 -0.344607 1.70757 0
M  V30 1286 C 128.88 -0.563757 3.36206 0
M  V30 1287 H 130.073 1.14535 2.77167 0
M  V30 1288 H 127.626 0.631421 1.42978 0
M  V30 1289 H 128.361 -1.42266 2.91429 0
M  V30 1290 H 128.146 0.0386749 3.92081 0
M  V30 1291 H 129.636 -0.940386 4.06874 0
M  V30 1292 N 130.073 -1.45103 0.615059 0
M  V30 1293 C 131.003 -2.33339 -0.0865619 0
M  V30 1294 C 131.984 -1.4727 -0.851209 0
M  V30 1295 O 133.169 -1.76026 -0.820281 0
M  V30 1296 C 130.299 -3.30095 -1.07956 0
M  V30 1297 C 129.253 -4.25858 -0.427628 0
M  V30 1298 C 128.579 -5.12361 -1.5294 0
M  V30 1299 C 129.879 -5.18165 0.655944 0
M  V30 1300 H 131.573 -2.92254 0.650224 0
M  V30 1301 H 129.119 -1.40532 0.314138 0
M  V30 1302 H 131.072 -3.90698 -1.57901 0
M  V30 1303 H 129.796 -2.69355 -1.84703 0
M  V30 1304 H 128.455 -3.66564 0.0510292 0
M  V30 1305 H 128.103 -4.47984 -2.28734 0
M  V30 1306 H 127.803 -5.77238 -1.09865 0
M  V30 1307 H 129.327 -5.75833 -2.03098 0
M  V30 1308 H 130.741 -5.72796 0.240257 0
M  V30 1309 H 129.138 -5.91559 1.00888 0
M  V30 1310 H 130.208 -4.60144 1.52957 0
M  V30 1311 N 131.551 -0.354651 -1.53558 0
M  V30 1312 C 132.962 0.126902 -1.86268 0
M  V30 1313 C 133.313 1.49075 -1.27558 0
M  V30 1314 O 132.438 2.08105 -0.5934 0
M  V30 1315 C 133.033 0.237046 -3.3797 0
M  V30 1316 C 131.592 0.662842 -3.70518 0
M  V30 1317 C 130.739 -0.196652 -2.76602 0
M  V30 1318 H 133.69 -0.573849 -1.47962 0
M  V30 1319 H 133.711 1.06259 -3.65362 0
M  V30 1320 H 133.223 -0.755725 -3.80671 0
M  V30 1321 H 131.324 1.66424 -3.33367 0
M  V30 1322 H 131.437 0.445034 -4.77029 0
M  V30 1323 H 129.801 0.332763 -2.52517 0
M  V30 1324 H 130.584 -1.18676 -3.22135 0
M  V30 1325 N 133.029 1.57378 -0.0835403 0
M  V30 1326 C 133.992 2.12252 0.864959 0
M  V30 1327 C 134.992 1.04916 1.21858 0
M  V30 1328 O 136.182 1.30853 1.14991 0
M  V30 1329 C 133.314 2.63358 2.16461 0
M  V30 1330 H 134.507 2.97371 0.388676 0
M  V30 1331 H 132.06 1.55423 0.165317 0
M  V30 1332 H 132.795 1.81727 2.686 0
M  V30 1333 H 132.58 3.41826 1.92087 0
M  V30 1334 H 134.07 3.05847 2.84337 0
M  V30 1335 N 134.507 -0.190092 1.56449 0
M  V30 1336 C 135.753 -0.911052 1.81184 0
M  V30 1337 C 136.086 -1.82699 0.658396 0
M  V30 1338 O 135.361 -1.91491 -0.340775 0
M  V30 1339 C 135.644 -1.72297 3.16205 0
M  V30 1340 C 135.497 -0.831419 4.42049 0
M  V30 1341 C 136.816 -2.69454 3.47969 0
M  V30 1342 H 133.935 -0.32977 0.659106 0
M  V30 1343 H 136.577 -0.178169 1.89163 0
M  V30 1344 H 134.727 -2.34778 3.09534 0
M  V30 1345 H 136.399 -0.220929 4.60771 0
M  V30 1346 H 134.642 -0.138406 4.33579 0
M  V30 1347 H 135.313 -1.43461 5.33032 0
M  V30 1348 H 137.789 -2.17104 3.54972 0
M  V30 1349 H 136.665 -3.23342 4.43555 0
M  V30 1350 H 136.926 -3.48744 2.71717 0
M  V30 1351 N 135.985 -1.50799 -0.457987 0
M  V30 1352 C 136.915 -1.73553 -1.5621 0
M  V30 1353 C 137.896 -0.584774 -1.59732 0
M  V30 1354 O 139.081 -0.825314 -1.7579 0
M  V30 1355 C 136.211 -1.84169 -2.94447 0
M  V30 1356 C 135.165 -2.99461 -3.0579 0
M  V30 1357 C 134.491 -2.95235 -4.45803 0
M  V30 1358 C 135.791 -4.39766 -2.81786 0
M  V30 1359 H 137.485 -2.66 -1.37421 0
M  V30 1360 H 135.031 -1.28002 -0.659662 0
M  V30 1361 H 136.984 -1.98672 -3.71628 0
M  V30 1362 H 135.708 -0.883545 -3.14422 0
M  V30 1363 H 134.367 -2.8463 -2.31044 0
M  V30 1364 H 134.015 -1.97239 -4.62715 0
M  V30 1365 H 133.715 -3.72642 -4.54326 0
M  V30 1366 H 135.239 -3.11803 -5.24987 0
M  V30 1367 H 136.653 -4.55054 -3.4871 0
M  V30 1368 H 135.05 -5.18722 -3.0174 0
M  V30 1369 H 136.12 -4.51229 -1.7754 0
M  V30 1370 N 137.463 0.71206 -1.40597 0
M  V30 1371 C 138.393 1.83889 -1.43899 0
M  V30 1372 C 139.374 1.67442 -0.299504 0
M  V30 1373 O 140.559 1.87421 -0.508624 0
M  V30 1374 C 137.689 3.21877 -1.30431 0
M  V30 1375 C 136.643 3.53002 -2.42019 0
M  V30 1376 C 135.969 4.90172 -2.13626 0
M  V30 1377 C 137.269 3.53643 -3.84362 0
M  V30 1378 H 138.963 1.81383 -2.38203 0
M  V30 1379 H 136.509 0.871237 -1.14654 0
M  V30 1380 H 138.462 4.00404 -1.31357 0
M  V30 1381 H 137.186 3.24968 -0.326049 0
M  V30 1382 H 135.845 2.76818 -2.40349 0
M  V30 1383 H 135.493 4.89869 -1.14182 0
M  V30 1384 H 135.193 5.11962 -2.88389 0
M  V30 1385 H 136.717 5.71028 -2.1624 0
M  V30 1386 H 138.131 4.22203 -3.87837 0
M  V30 1387 H 136.528 3.86961 -4.58673 0
M  V30 1388 H 137.598 2.52954 -4.13693 0
M  V30 1389 N 138.941 1.26152 0.944643 0
M  V30 1390 C 140.189 1.11271 1.6871 0
M  V30 1391 C 140.51 -0.345166 1.91921 0
M  V30 1392 O 139.78 -1.24387 1.51343 0
M  V30 1393 H 138.36 0.408783 0.625224 0
M  V30 1394 H 141.022 1.58427 1.1352 0
M  V30 1395 H 140.118 1.62879 2.66227 0
M  V30 1396 N 140.419 -1.14872 1.07899 0
M  V30 1397 C 141.382 -2.17986 0.708161 0
M  V30 1398 C 142.382 -1.58775 -0.25442 0
M  V30 1399 O 143.572 -1.74166 -0.034645 0
M  V30 1400 C 140.704 -3.40871 0.0446929 0
M  V30 1401 H 141.897 -2.52306 1.62116 0
M  V30 1402 H 139.45 -1.2943 0.876218 0
M  V30 1403 H 140.185 -3.12124 -0.880281 0
M  V30 1404 H 139.97 -3.8511 0.737091 0
M  V30 1405 H 141.46 -4.17121 -0.19991 0
M  V30 1406 N 141.898 -0.863906 -1.31812 0
M  V30 1407 C 143.309 -0.52522 -1.7916 0
M  V30 1408 C 143.66 0.957518 -1.71248 0
M  V30 1409 O 142.785 1.74734 -1.27659 0
M  V30 1410 C 143.38 -0.9466 -3.25307 0
M  V30 1411 C 141.939 -0.659668 -3.70574 0
M  V30 1412 C 141.086 -1.14126 -2.52726 0
M  V30 1413 H 144.037 -1.05022 -1.1898 0
M  V30 1414 H 144.058 -0.266766 -3.79564 0
M  V30 1415 H 143.57 -2.02579 -3.31034 0
M  V30 1416 H 141.671 0.408416 -3.70355 0
M  V30 1417 H 141.784 -1.23245 -4.62977 0
M  V30 1418 H 140.148 -0.561216 -2.4844 0
M  V30 1419 H 140.931 -2.22775 -2.61201 0
M  V30 1420 N 143.376 1.44774 -0.622745 0
M  V30 1421 C 144.286 2.34433 0.0886031 0
M  V30 1422 C 145.302 1.52131 0.844529 0
M  V30 1423 O 146.478 1.84886 0.798691 0
M  V30 1424 C 143.543 3.29986 1.0635 0
M  V30 1425 C 142.604 4.28195 0.307873 0
M  V30 1426 C 141.837 5.19183 1.23633 0
M  V30 1427 O 142.06 5.13918 2.47476 0
M  V30 1428 O 140.994 5.97515 0.725189 0
M  V30 1429 H 144.82 2.96693 -0.648599 0
M  V30 1430 H 142.405 1.44408 -0.382957 0
M  V30 1431 H 144.287 3.88825 1.6246 0
M  V30 1432 H 142.962 2.70269 1.78146 0
M  V30 1433 H 141.869 3.72927 -0.296064 0
M  V30 1434 H 143.202 4.90808 -0.3699 0
M  V30 1435 N 144.854 0.36279 1.53368 0
M  V30 1436 C 146.265 -0.117022 1.86333 0
M  V30 1437 C 146.616 -1.48397 1.28347 0
M  V30 1438 O 145.741 -2.07787 0.604428 0
M  V30 1439 C 146.336 -0.21912 3.38091 0
M  V30 1440 C 144.895 -0.643184 3.70864 0
M  V30 1441 C 144.042 0.211318 2.76494 0
M  V30 1442 H 146.993 0.581687 1.47655 0
M  V30 1443 H 147.014 -1.04319 3.6592 0
M  V30 1444 H 146.526 0.775902 3.80265 0
M  V30 1445 H 144.627 -1.64654 3.34245 0
M  V30 1446 H 144.74 -0.41973 4.77258 0
M  V30 1447 H 143.104 -0.319367 2.5269 0
M  V30 1448 H 143.887 1.20383 3.21501 0
M  V30 1449 N 146.332 -1.57332 0.0918853 0
M  V30 1450 C 147.609 -1.85691 -0.614668 0
M  V30 1451 C 147.989 -0.988146 -1.86545 0
M  V30 1452 O 147.337 -0.0597055 -2.28422 0
M  V30 1453 C 147.547 -3.36294 -0.933126 0
M  V30 1454 C 148.895 -4.04275 -1.29796 0
M  V30 1455 O 149.919 -3.41157 -1.02424 0
M  V30 1456 O 148.778 -5.1564 -1.81047 0
M  V30 1457 H 145.872 -0.767802 -0.307261 0
M  V30 1458 H 148.418 -1.69244 0.12434 0
M  V30 1459 H 147.19 -3.91273 -0.0456404 0
M  V30 1460 H 146.813 -3.58076 -1.72822 0
M  V30 1461 N 147.81 0.181792 -1.56548 0
M  V30 1462 C 149.035 0.920019 -1.85877 0
M  V30 1463 C 149.46 1.75494 -0.677021 0
M  V30 1464 O 148.818 1.77399 0.374056 0
M  V30 1465 C 148.866 1.78112 -3.13542 0
M  V30 1466 O 147.97 2.88152 -2.95029 0
M  V30 1467 H 147.311 0.258334 -0.611686 0
M  V30 1468 H 149.841 0.183092 -2.03779 0
M  V30 1469 H 149.851 2.18314 -3.44678 0
M  V30 1470 H 148.526 1.16777 -3.99169 0
M  V30 1471 H 147.103 2.51609 -2.75222 0
M  V30 1472 N 149.288 1.51039 0.449983 0
M  V30 1473 C 150.536 1.62759 1.19808 0
M  V30 1474 C 150.857 0.339981 1.92013 0
M  V30 1475 O 150.127 -0.643606 1.85026 0
M  V30 1476 H 148.707 0.599811 0.445237 0
M  V30 1477 H 151.369 1.87914 0.517138 0
M  V30 1478 H 150.465 2.44911 1.93455 0
M  V30 1479 N 150.766 -0.704594 1.40972 0
M  V30 1480 C 152.177 -1.28418 1.3552 0
M  V30 1481 C 152.528 -1.96171 0.0339434 0
M  V30 1482 O 151.653 -1.98231 -0.867944 0
M  V30 1483 C 152.248 -2.33528 2.45459 0
M  V30 1484 C 150.807 -2.87085 2.43433 0
M  V30 1485 C 149.954 -1.61007 2.2577 0
M  V30 1486 H 152.905 -0.499963 1.50619 0
M  V30 1487 H 152.926 -3.14619 2.13998 0
M  V30 1488 H 152.438 -1.84187 3.41609 0
M  V30 1489 H 150.539 -3.40626 1.51013 0
M  V30 1490 H 150.652 -3.3813 3.39419 0
M  V30 1491 H 149.016 -1.86482 1.73483 0
M  V30 1492 H 149.799 -1.13675 3.23933 0
M  V30 1493 N 152.244 -1.26651 -0.937939 0
M  V30 1494 C 153.492 -1.12165 -1.68118 0
M  V30 1495 C 153.813 0.334983 -1.92101 0
M  V30 1496 O 153.083 1.23583 -1.52 0
M  V30 1497 H 151.663 -0.412093 -0.623048 0
M  V30 1498 H 154.325 -1.59027 -1.12678 0
M  V30 1499 H 153.421 -1.64289 -2.6536 0
M  V30 1500 N 153.722 1.14298 -1.08507 0
M  V30 1501 C 155.133 1.66926 -0.836227 0
M  V30 1502 C 155.484 1.85576 0.63686 0
M  V30 1503 O 154.609 1.56767 1.49175 0
M  V30 1504 C 155.204 3.03219 -1.51142 0
M  V30 1505 C 153.763 3.52876 -1.30979 0
M  V30 1506 C 152.91 2.2833 -1.57356 0
M  V30 1507 H 155.861 0.983491 -1.24552 0
M  V30 1508 H 155.882 3.68726 -0.939211 0
M  V30 1509 H 155.394 2.89612 -2.58353 0
M  V30 1510 H 153.495 3.71703 -0.258429 0
M  V30 1511 H 153.608 4.33586 -2.03814 0
M  V30 1512 H 151.972 2.34454 -0.995164 0
M  V30 1513 H 152.755 2.17298 -2.65775 0
M  V30 1514 N 155.201 0.870884 1.31352 0
M  V30 1515 C 156.429 0.49677 2.00848 0
M  V30 1516 C 156.844 -0.910998 1.65367 0
M  V30 1517 O 156.201 -1.59696 0.883374 0
M  V30 1518 C 156.252 0.645308 3.55694 0
M  V30 1519 O 155.973 1.99764 3.89905 0
M  V30 1520 C 157.474 0.272326 4.42463 0
M  V30 1521 H 154.694 0.193462 0.642506 0
M  V30 1522 H 157.238 1.1723 1.67563 0
M  V30 1523 H 155.393 0.0173176 3.87396 0
M  V30 1524 H 155.807 2.00607 4.84621 0
M  V30 1525 H 157.281 0.427208 5.50344 0
M  V30 1526 H 157.758 -0.788587 4.32062 0
M  V30 1527 H 158.364 0.876054 4.1618 0
M  V30 1528 N 156.679 -1.44442 0.630414 0
M  V30 1529 C 157.611 -2.2892 -0.113347 0
M  V30 1530 C 158.624 -1.41243 -0.80959 0
M  V30 1531 O 159.813 -1.65402 -0.671156 0
M  V30 1532 C 156.913 -3.17594 -1.18266 0
M  V30 1533 C 156.086 -4.33682 -0.569073 0
M  V30 1534 C 155.145 -5.03397 -1.53226 0
M  V30 1535 O 154.171 -5.59438 -1.04967 0
M  V30 1536 N 155.373 -5.04783 -2.86661 0
M  V30 1537 H 158.138 -2.93392 0.611636 0
M  V30 1538 H 155.699 -1.54881 0.471523 0
M  V30 1539 H 157.691 -3.61097 -1.82732 0
M  V30 1540 H 156.261 -2.54876 -1.80988 0
M  V30 1541 H 155.481 -3.9338 0.254187 0
M  V30 1542 H 156.769 -5.08608 -0.139767 0
M  V30 1543 H 156.167 -4.60584 -3.28449 0
M  V30 1544 H 154.724 -5.52077 -3.46489 0
M  V30 1545 N 158.157 -0.370918 -1.53173 0
M  V30 1546 C 159.405 0.216673 -2.00935 0
M  V30 1547 C 159.726 1.48845 -1.25977 0
M  V30 1548 O 158.996 1.92286 -0.374551 0
M  V30 1549 H 157.576 0.0830565 -0.742368 0
M  V30 1550 H 160.238 -0.49838 -1.8842 0
M  V30 1551 H 159.334 0.439893 -3.08984 0
M  V30 1552 N 159.635 1.57281 -0.100228 0
M  V30 1553 C 160.86 1.99302 0.573881 0
M  V30 1554 C 161.285 0.979059 1.60611 0
M  V30 1555 O 160.643 -0.0517803 1.81226 0
M  V30 1556 C 160.691 3.40274 1.19358 0
M  V30 1557 O 159.795 3.41676 2.30935 0
M  V30 1558 H 159.136 0.647944 0.145138 0
M  V30 1559 H 161.666 2.03779 -0.183156 0
M  V30 1560 H 161.676 3.78078 1.53365 0
M  V30 1561 H 160.351 4.13594 0.437385 0
M  V30 1562 H 158.928 3.15672 1.98509 0
M  V30 1563 N 161.113 -0.173488 1.56642 0
M  V30 1564 C 162.359 -0.887108 1.83035 0
M  V30 1565 C 162.714 -1.79965 0.680461 0
M  V30 1566 O 162.007 -1.88854 -0.323225 0
M  V30 1567 C 162.201 -1.72069 3.13252 0
M  V30 1568 C 162.03 -0.89035 4.40798 0
M  V30 1569 C 160.8 -0.566282 5.02117 0
M  V30 1570 C 162.998 -0.232921 5.13772 0
M  V30 1571 N 160.98 0.280427 6.13259 0
M  V30 1572 C 162.351 0.475046 6.18177 0
M  V30 1573 C 164.406 -0.150863 4.97671 0
M  V30 1574 C 163.109 1.25729 7.08227 0
M  V30 1575 C 165.135 0.618039 5.88162 0
M  V30 1576 C 164.497 1.31438 6.92029 0
M  V30 1577 H 160.596 -0.303303 0.720785 0
M  V30 1578 H 163.18 -0.154244 1.94088 0
M  V30 1579 H 161.351 -2.42499 3.03395 0
M  V30 1580 H 163.083 -2.37545 3.2765 0
M  V30 1581 H 159.838 -0.895852 4.6505 0
M  V30 1582 H 160.262 0.694027 6.73433 0
M  V30 1583 H 164.904 -0.674868 4.17379 0
M  V30 1584 H 162.622 1.79265 7.87966 0
M  V30 1585 H 166.208 0.683173 5.77775 0
M  V30 1586 H 165.088 1.89981 7.6084 0
M  V30 1587 N 162.591 -1.51276 -0.441967 0
M  V30 1588 C 163.501 -1.75092 -1.56141 0
M  V30 1589 C 164.517 -0.634963 -1.62001 0
M  V30 1590 O 165.693 -0.916686 -1.79329 0
M  V30 1591 C 162.758 -1.86666 -2.92158 0
M  V30 1592 C 161.819 -3.10506 -2.96453 0
M  V30 1593 C 161.052 -3.21519 -4.25982 0
M  V30 1594 O 161.275 -2.38586 -5.18105 0
M  V30 1595 O 160.209 -4.14465 -4.36466 0
M  V30 1596 H 164.035 -2.70044 -1.38961 0
M  V30 1597 H 161.62 -1.35722 -0.624499 0
M  V30 1598 H 163.502 -1.96292 -3.72891 0
M  V30 1599 H 162.177 -0.949014 -3.09476 0
M  V30 1600 H 161.084 -3.06363 -2.14692 0
M  V30 1601 H 162.417 -4.01945 -2.84079 0
M  V30 1602 N 164.069 0.697108 -1.41344 0
M  V30 1603 C 165.485 1.00751 -1.2378 0
M  V30 1604 C 165.685 2.01105 -0.126066 0
M  V30 1605 O 164.741 2.47295 0.51004 0
M  V30 1606 C 166.054 1.53359 -2.58653 0
M  V30 1607 C 167.602 1.6525 -2.65822 0
M  V30 1608 C 168.077 2.2126 -4.01009 0
M  V30 1609 N 169.568 2.28622 -4.02847 0
M  V30 1610 C 170.303 2.72984 -5.04249 0
M  V30 1611 N 169.799 3.16962 -6.16041 0
M  V30 1612 N 171.592 2.72534 -4.91611 0
M  V30 1613 H 163.743 0.0322662 -2.12375 0
M  V30 1614 H 166.006 0.0768853 -0.944877 0
M  V30 1615 H 165.712 0.870773 -3.4075 0
M  V30 1616 H 165.586 2.51597 -2.81032 0
M  V30 1617 H 167.973 2.30644 -1.84086 0
M  V30 1618 H 168.054 0.655614 -2.47256 0
M  V30 1619 H 167.698 1.56482 -4.83193 0
M  V30 1620 H 167.628 3.21698 -4.16915 0
M  V30 1621 H 170.119 1.97585 -3.22131 0
M  V30 1622 H 170.432 3.49434 -6.89287 0
M  V30 1623 H 168.777 3.14875 -6.1958 0
M  V30 1624 H 171.968 2.37525 -4.0336 0
M  V30 1625 H 172.141 3.06789 -5.70775 0
M  V30 1626 N 165.547 1.27147 0.931209 0
M  V30 1627 C 166.479 1.05364 2.03546 0
M  V30 1628 C 167.492 0.0108438 1.62796 0
M  V30 1629 O 168.681 0.25202 1.76712 0
M  V30 1630 C 165.781 0.575566 3.33977 0
M  V30 1631 C 164.954 1.68985 4.03439 0
M  V30 1632 C 164.013 1.20813 5.12143 0
M  V30 1633 O 163.039 1.90712 5.363 0
M  V30 1634 N 164.241 0.0618851 5.80467 0
M  V30 1635 H 167.006 2.00454 2.22796 0
M  V30 1636 H 164.567 1.18666 1.10136 0
M  V30 1637 H 166.559 0.237264 4.04004 0
M  V30 1638 H 165.129 -0.282016 3.11325 0
M  V30 1639 H 164.349 2.19861 3.27192 0
M  V30 1640 H 165.637 2.4378 4.46597 0
M  V30 1641 H 165.035 -0.521621 5.6329 0
M  V30 1642 H 163.592 -0.217264 6.51438 0
M  V30 1643 N 167.025 -1.13721 1.09112 0
M  V30 1644 C 167.955 -2.21148 0.749385 0
M  V30 1645 C 168.936 -1.6792 -0.271475 0
M  V30 1646 O 170.121 -1.93693 -0.140251 0
M  V30 1647 C 167.251 -3.46905 0.165659 0
M  V30 1648 C 166.205 -4.13203 1.11567 0
M  V30 1649 C 165.531 -5.33248 0.393809 0
M  V30 1650 C 166.831 -4.60912 2.45678 0
M  V30 1651 H 168.525 -2.4999 1.64758 0
M  V30 1652 H 166.071 -1.20156 0.793626 0
M  V30 1653 H 168.024 -4.21313 -0.085466 0
M  V30 1654 H 166.748 -3.17449 -0.767714 0
M  V30 1655 H 165.407 -3.40758 1.35202 0
M  V30 1656 H 165.055 -5.00054 -0.543599 0
M  V30 1657 H 164.755 -5.78552 1.02721 0
M  V30 1658 H 166.279 -6.10413 0.150908 0
M  V30 1659 H 167.693 -5.26759 2.26269 0
M  V30 1660 H 166.09 -5.16944 3.04776 0
M  V30 1661 H 167.16 -3.75603 3.06677 0
M  V30 1662 N 168.503 -0.877838 -1.30888 0
M  V30 1663 C 169.433 -0.35534 -2.3078 0
M  V30 1664 C 170.414 0.557994 -1.60687 0
M  V30 1665 O 171.599 0.473355 -1.88343 0
M  V30 1666 C 168.729 0.437221 -3.44537 0
M  V30 1667 C 167.683 -0.383715 -4.26276 0
M  V30 1668 C 167.009 0.535014 -5.32017 0
M  V30 1669 C 168.309 -1.62201 -4.96476 0
M  V30 1670 H 170.003 -1.19007 -2.74732 0
M  V30 1671 H 167.549 -0.573698 -1.32078 0
M  V30 1672 H 169.502 0.813334 -4.13477 0
M  V30 1673 H 168.226 1.30553 -2.99372 0
M  V30 1674 H 166.885 -0.741874 -3.59015 0
M  V30 1675 H 166.533 1.40083 -4.831 0
M  V30 1676 H 166.233 -0.0104211 -5.87599 0
M  V30 1677 H 167.757 0.907799 -6.03814 0
M  V30 1678 H 169.171 -1.31689 -5.5797 0
M  V30 1679 H 167.568 -2.10711 -5.61891 0
M  V30 1680 H 168.638 -2.37044 -4.23011 0
M  V30 1681 N 169.982 1.44106 -0.638065 0
M  V30 1682 C 171.398 1.56672 -0.304286 0
M  V30 1683 C 171.598 1.6244 1.19228 0
M  V30 1684 O 170.654 1.57121 1.9766 0
M  V30 1685 C 171.967 2.83503 -1.00231 0
M  V30 1686 C 173.515 2.97226 -0.981116 0
M  V30 1687 C 173.99 4.26868 -1.65974 0
M  V30 1688 N 175.481 4.33698 -1.62666 0
M  V30 1689 C 176.216 5.32745 -2.12063 0
M  V30 1690 N 175.712 6.38157 -2.6968 0
M  V30 1691 N 177.505 5.24299 -2.02651 0
M  V30 1692 H 169.656 1.38605 -1.60942 0
M  V30 1693 H 171.919 0.664661 -0.675965 0
M  V30 1694 H 171.625 2.85251 -2.0573 0
M  V30 1695 H 171.499 3.73251 -0.54439 0
M  V30 1696 H 173.886 2.95027 0.0654188 0
M  V30 1697 H 173.967 2.08808 -1.47759 0
M  V30 1698 H 173.611 4.29826 -2.70576 0
M  V30 1699 H 173.541 5.14156 -1.13804 0
M  V30 1700 H 176.032 3.58138 -1.20606 0
M  V30 1701 H 176.345 7.10029 -3.05087 0
M  V30 1702 H 174.69 6.38823 -2.73734 0
M  V30 1703 H 177.881 4.4086 -1.57353 0
M  V30 1704 H 178.054 6.01334 -2.41457 0
M  V30 1705 N 171.46 0.379036 1.52974 0
M  V30 1706 C 172.423 -0.448865 2.24762 0
M  V30 1707 C 173.423 -0.998689 1.26027 0
M  V30 1708 O 174.613 -0.882313 1.50203 0
M  V30 1709 C 171.745 -1.62872 2.99476 0
M  V30 1710 H 172.938 0.179491 2.99362 0
M  V30 1711 H 170.491 0.13096 1.5575 0
M  V30 1712 H 171.226 -2.29479 2.29151 0
M  V30 1713 H 171.011 -1.24128 3.71934 0
M  V30 1714 H 172.501 -2.2151 3.5401 0
M  V30 1715 N 172.938 -1.57226 0.108567 0
M  V30 1716 C 173.901 -2.13602 -0.831082 0
M  V30 1717 C 174.901 -1.06841 -1.20173 0
M  V30 1718 O 176.091 -1.32666 -1.12895 0
M  V30 1719 C 173.223 -2.66769 -2.12243 0
M  V30 1720 H 174.416 -2.97951 -0.341317 0
M  V30 1721 H 171.969 -1.55667 -0.14057 0
M  V30 1722 H 172.704 -1.85977 -2.65675 0
M  V30 1723 H 172.489 -3.44839 -1.86625 0
M  V30 1724 H 173.979 -3.10332 -2.79435 0
M  V30 1725 N 174.416 0.165178 -1.56732 0
M  V30 1726 C 175.346 1.20651 -1.99914 0
M  V30 1727 C 176.327 1.45827 -0.875705 0
M  V30 1728 O 177.512 1.57057 -1.14223 0
M  V30 1729 C 174.642 2.54401 -2.36427 0
M  V30 1730 C 173.596 2.43782 -3.51787 0
M  V30 1731 C 172.922 3.82078 -3.7406 0
M  V30 1732 C 174.222 1.93732 -4.85041 0
M  V30 1733 H 175.916 0.847534 -2.87154 0
M  V30 1734 H 173.462 0.40625 -1.38151 0
M  V30 1735 H 175.415 3.27458 -2.65234 0
M  V30 1736 H 174.139 2.92098 -1.46103 0
M  V30 1737 H 172.798 1.73178 -3.23117 0
M  V30 1738 H 172.446 4.17179 -2.81017 0
M  V30 1739 H 172.146 3.7584 -4.51684 0
M  V30 1740 H 173.67 4.56712 -4.05274 0
M  V30 1741 H 175.084 2.56569 -5.12684 0
M  V30 1742 H 173.481 1.98428 -5.66345 0
M  V30 1743 H 174.551 0.891962 -4.76626 0
M  V30 1744 N 175.894 1.51508 0.433938 0
M  V30 1745 C 177.31 1.39759 0.770682 0
M  V30 1746 C 177.51 0.482594 1.95636 0
M  V30 1747 O 176.566 -0.0609691 2.52426 0
M  V30 1748 C 177.879 2.81851 1.04787 0
M  V30 1749 C 179.427 2.91025 1.1521 0
M  V30 1750 C 179.902 4.34032 1.46219 0
M  V30 1751 N 181.393 4.37154 1.53136 0
M  V30 1752 C 182.128 5.4484 1.78709 0
M  V30 1753 N 181.624 6.62682 2.02051 0
M  V30 1754 N 183.417 5.32324 1.80519 0
M  V30 1755 H 175.568 2.09548 -0.346892 0
M  V30 1756 H 177.831 0.943446 -0.0928074 0
M  V30 1757 H 177.537 3.50815 0.249304 0
M  V30 1758 H 177.411 3.21386 1.97461 0
M  V30 1759 H 179.798 2.22257 1.94128 0
M  V30 1760 H 179.879 2.54983 0.204281 0
M  V30 1761 H 179.523 5.03351 0.678274 0
M  V30 1762 H 179.453 4.6759 2.42212 0
M  V30 1763 H 181.944 3.52197 1.36987 0
M  V30 1764 H 182.257 7.40543 2.20943 0
M  V30 1765 H 180.602 6.65791 1.99366 0
M  V30 1766 H 183.793 4.39246 1.61805 0
M  V30 1767 H 183.966 6.16328 2.00111 0
M  V30 1768 N 177.372 -0.689602 1.41712 0
M  V30 1769 C 178.788 -1.00093 1.24312 0
M  V30 1770 C 178.988 -2.01036 0.136729 0
M  V30 1771 O 178.044 -2.47562 -0.496918 0
M  V30 1772 C 179.357 -1.51985 2.59463 0
M  V30 1773 C 180.905 -1.63838 2.66695 0
M  V30 1774 C 181.38 -2.1913 4.02177 0
M  V30 1775 N 182.871 -2.26483 4.04054 0
M  V30 1776 C 183.606 -2.70306 5.0569 0
M  V30 1777 N 183.102 -3.13691 6.17713 0
M  V30 1778 N 184.895 -2.69923 4.9305 0
M  V30 1779 H 177.046 -0.0210029 2.1239 0
M  V30 1780 H 179.309 -0.0718733 0.945272 0
M  V30 1781 H 179.015 -0.85269 3.41207 0
M  V30 1782 H 178.889 -2.50103 2.82362 0
M  V30 1783 H 181.276 -2.29664 1.85306 0
M  V30 1784 H 181.357 -0.642492 2.476 0
M  V30 1785 H 181.001 -1.53918 4.84016 0
M  V30 1786 H 180.931 -3.19482 4.18615 0
M  V30 1787 H 183.422 -1.95874 3.23174 0
M  V30 1788 H 183.735 -3.45773 6.9113 0
M  V30 1789 H 182.08 -3.11585 6.21241 0
M  V30 1790 H 185.271 -2.35382 4.04614 0
M  V30 1791 H 185.444 -3.03758 5.72394 0
M  V30 1792 N 178.85 -1.27639 -0.924453 0
M  V30 1793 C 179.813 -1.10681 -2.00705 0
M  V30 1794 C 180.813 -0.0497823 -1.60723 0
M  V30 1795 O 182.003 -0.294654 -1.7169 0
M  V30 1796 C 179.135 -0.687164 -3.33902 0
M  V30 1797 H 180.328 -2.06817 -2.17179 0
M  V30 1798 H 177.881 -1.10473 -1.10569 0
M  V30 1799 H 178.616 0.275439 -3.23128 0
M  V30 1800 H 178.401 -1.45061 -3.6428 0
M  V30 1801 H 179.891 -0.590853 -4.13399 0
M  V30 1802 N 180.328 1.1314 -1.09713 0
M  V30 1803 C 181.605 1.80762 -0.747302 0
M  V30 1804 C 181.985 1.96663 0.767265 0
M  V30 1805 O 181.333 1.53706 1.69076 0
M  V30 1806 C 181.543 3.15606 -1.48975 0
M  V30 1807 C 182.891 3.90914 -1.65746 0
M  V30 1808 O 183.915 3.25239 -1.45251 0
M  V30 1809 O 182.774 5.08718 -1.9967 0
M  V30 1810 H 179.868 0.782103 -0.268782 0
M  V30 1811 H 182.414 1.20041 -1.19951 0
M  V30 1812 H 181.186 2.99278 -2.52088 0
M  V30 1813 H 180.809 3.84029 -1.02991 0
M  V30 1814 N 181.806 0.884767 1.30421 0
M  V30 1815 C 183.046 0.509806 1.9794 0
M  V30 1816 C 183.41 -0.923736 1.68319 0
M  V30 1817 O 184.611 -1.40481 2.29169 0
M  V30 1818 C 182.882 0.776732 3.48858 0
M  V30 1819 S 184.441 0.503843 4.35898 0
M  V30 1820 H 181.259 0.189699 0.685227 0
M  V30 1821 H 183.861 1.14399 1.58535 0
M  V30 1822 H 182.565 1.81857 3.67908 0
M  V30 1823 H 182.096 0.1301 3.93185 0
M  V30 1824 H 184.111 -0.657625 4.91823 0
M  V30 1825 N 183.284 -1.43765 0.645699 0
M  V30 1826 C 184.214 -2.33471 -0.0370477 0
M  V30 1827 C 185.195 -1.49042 -0.819779 0
M  V30 1828 O 186.38 -1.77726 -0.782758 0
M  V30 1829 C 183.51 -3.32311 -1.0093 0
M  V30 1830 C 182.464 -4.2667 -0.337201 0
M  V30 1831 C 181.79 -5.1549 -1.42037 0
M  V30 1832 C 183.09 -5.16657 0.765706 0
M  V30 1833 H 184.784 -2.90809 0.712069 0
M  V30 1834 H 182.33 -1.39834 0.343876 0
M  V30 1835 H 184.283 -3.9396 -1.49578 0
M  V30 1836 H 183.007 -2.73213 -1.78948 0
M  V30 1837 H 181.666 -3.66374 0.128771 0
M  V30 1838 H 181.314 -4.52735 -2.1918 0
M  V30 1839 H 181.014 -5.79438 -0.975966 0
M  V30 1840 H 182.538 -5.80012 -1.90838 0
M  V30 1841 H 183.952 -5.72158 0.361702 0
M  V30 1842 H 182.349 -5.89286 1.13413 0
M  V30 1843 H 183.419 -4.56796 1.62683 0
M  V30 1844 N 184.763 -0.387143 -1.52771 0
M  V30 1845 C 185.991 0.195869 -2.05971 0
M  V30 1846 C 186.406 1.40691 -1.25903 0
M  V30 1847 O 185.763 1.79931 -0.305134 0
M  V30 1848 C 185.814 0.56812 -3.57008 0
M  V30 1849 O 185.535 -0.594803 -4.34043 0
M  V30 1850 C 187.036 1.20723 -4.26545 0
M  V30 1851 H 184.256 0.0300578 -0.670326 0
M  V30 1852 H 186.8 -0.551749 -1.96916 0
M  V30 1853 H 184.955 1.26564 -3.66143 0
M  V30 1854 H 185.369 -0.289322 -5.23701 0
M  V30 1855 H 186.843 1.41807 -5.33474 0
M  V30 1856 H 187.32 2.17395 -3.81623 0
M  V30 1857 H 187.926 0.550535 -4.21722 0
M  V30 1858 N 186.241 1.57166 -0.116904 0
M  V30 1859 C 187.173 2.12271 0.864507 0
M  V30 1860 C 188.186 1.06494 1.23138 0
M  V30 1861 O 189.375 1.33873 1.18069 0
M  V30 1862 C 186.475 2.60564 2.16702 0
M  V30 1863 C 185.648 3.90416 1.97216 0
M  V30 1864 C 184.707 4.24329 3.11178 0
M  V30 1865 O 183.733 4.93182 2.84184 0
M  V30 1866 N 184.935 3.8148 4.37554 0
M  V30 1867 H 187.7 2.97102 0.393726 0
M  V30 1868 H 185.261 1.61759 0.0675805 0
M  V30 1869 H 187.253 2.80282 2.91932 0
M  V30 1870 H 185.823 1.80623 2.55135 0
M  V30 1871 H 185.043 3.79627 1.06192 0
M  V30 1872 H 186.331 4.75327 1.81499 0
M  V30 1873 H 185.729 3.25943 4.62361 0
M  V30 1874 H 184.286 4.06311 5.09661 0
M  V30 1875 N 187.719 -0.156864 1.56817 0
M  V30 1876 C 188.959 -0.877453 1.84608 0
M  V30 1877 C 189.323 -1.78791 0.699845 0
M  V30 1878 O 190.524 -2.5472 0.858553 0
M  V30 1879 C 188.795 -1.63992 3.17555 0
M  V30 1880 S 190.354 -2.40729 3.66872 0
M  V30 1881 H 187.172 -0.293612 0.647544 0
M  V30 1882 H 189.774 -0.138099 1.95012 0
M  V30 1883 H 188.478 -0.962363 3.98957 0
M  V30 1884 H 188.009 -2.42038 3.10131 0
M  V30 1885 H 190.024 -3.65725 3.3535 0
M  V30 1886 N 189.197 -1.51736 -0.425897 0
M  V30 1887 C 190.16 -1.73271 -1.50032 0
M  V30 1888 C 191.16 -0.602639 -1.4908 0
M  V30 1889 O 192.35 -0.87033 -1.509 0
M  V30 1890 C 189.482 -1.79969 -2.89523 0
M  V30 1891 H 190.675 -2.69172 -1.32237 0
M  V30 1892 H 188.228 -1.41899 -0.65532 0
M  V30 1893 H 188.963 -0.859241 -3.1271 0
M  V30 1894 H 188.748 -2.62109 -2.91619 0
M  V30 1895 H 190.238 -1.9843 -3.67444 0
M  V30 1896 N 190.675 0.682077 -1.42076 0
M  V30 1897 C 191.638 1.77756 -1.44691 0
M  V30 1898 C 192.638 1.5726 -0.335535 0
M  V30 1899 O 193.828 1.63686 -0.596037 0
M  V30 1900 C 190.96 3.16301 -1.27146 0
M  V30 1901 H 192.153 1.76826 -2.42224 0
M  V30 1902 H 189.706 0.891012 -1.28416 0
M  V30 1903 H 190.441 3.22862 -0.305075 0
M  V30 1904 H 190.226 3.32581 -2.07683 0
M  V30 1905 H 191.716 3.96241 -1.31843 0
M  V30 1906 N 192.153 1.28127 0.917671 0
M  V30 1907 C 193.569 1.05749 1.19538 0
M  V30 1908 C 193.769 -0.202633 2.00479 0
M  V30 1909 O 192.825 -0.905382 2.3571 0
M  V30 1910 C 194.138 2.30273 1.93378 0
M  V30 1911 C 195.686 2.35412 2.06277 0
M  V30 1912 C 196.161 3.59692 2.83524 0
M  V30 1913 N 197.652 3.60309 2.91087 0
M  V30 1914 C 198.387 4.53147 3.51348 0
M  V30 1915 N 197.883 5.563 4.12919 0
M  V30 1916 N 199.676 4.40751 3.48849 0
M  V30 1917 H 191.827 2.09024 0.377184 0
M  V30 1918 H 194.09 0.919798 0.22951 0
M  V30 1919 H 193.796 3.22055 1.41328 0
M  V30 1920 H 193.67 2.36378 2.93947 0
M  V30 1921 H 196.057 1.4413 2.57508 0
M  V30 1922 H 196.138 2.33304 1.04895 0
M  V30 1923 H 195.782 4.51316 2.32973 0
M  V30 1924 H 195.712 3.59054 3.85211 0
M  V30 1925 H 198.203 2.85714 2.47338 0
M  V30 1926 H 198.516 6.2329 4.56869 0
M  V30 1927 H 196.861 5.60131 4.11435 0
M  V30 1928 H 200.052 3.59367 2.99955 0
M  V30 1929 H 200.225 5.13291 3.9552 0
M  V30 1930 N 193.631 -1.12557 1.10312 0
M  V30 1931 C 195.047 -1.36036 0.834649 0
M  V30 1932 C 195.247 -1.93946 -0.546539 0
M  V30 1933 O 194.303 -2.16484 -1.29966 0
M  V30 1934 C 195.616 -2.30312 1.9333 0
M  V30 1935 C 197.164 -2.43906 1.9616 0
M  V30 1936 C 197.639 -3.41496 3.05195 0
M  V30 1937 N 199.13 -3.49053 3.04494 0
M  V30 1938 C 199.865 -4.24471 3.85502 0
M  V30 1939 N 199.361 -5.02966 4.76442 0
M  V30 1940 N 201.154 -4.19864 3.73725 0
M  V30 1941 H 193.305 -0.733246 1.99342 0
M  V30 1942 H 195.568 -0.385234 0.866198 0
M  V30 1943 H 195.274 -1.94933 2.92735 0
M  V30 1944 H 195.148 -3.30421 1.81939 0
M  V30 1945 H 197.535 -2.78567 0.973886 0
M  V30 1946 H 197.616 -1.4369 2.11629 0
M  V30 1947 H 197.26 -3.07565 4.04186 0
M  V30 1948 H 197.19 -4.41539 2.86968 0
M  V30 1949 H 199.681 -2.93053 2.38596 0
M  V30 1950 H 199.994 -5.57846 5.34815 0
M  V30 1951 H 198.339 -5.02167 4.80472 0
M  V30 1952 H 201.53 -3.57623 3.02032 0
M  V30 1953 H 201.703 -4.78386 4.37093 0
M  V30 1954 N 195.109 -0.891671 -1.2995 0
M  V30 1955 C 196.039 -0.379797 -2.30391 0
M  V30 1956 C 197.02 0.540919 -1.6127 0
M  V30 1957 O 198.205 0.453352 -1.88834 0
M  V30 1958 C 195.335 0.400654 -3.44981 0
M  V30 1959 C 194.289 -0.428905 -4.25846 0
M  V30 1960 C 193.615 0.478557 -5.32554 0
M  V30 1961 C 194.915 -1.67458 -4.94727 0
M  V30 1962 H 196.609 -1.21914 -2.73454 0
M  V30 1963 H 194.155 -0.587675 -1.31462 0
M  V30 1964 H 196.108 0.769434 -4.14316 0
M  V30 1965 H 194.832 1.27371 -3.0074 0
M  V30 1966 H 193.491 -0.779911 -3.58208 0
M  V30 1967 H 193.139 1.34951 -4.84559 0
M  V30 1968 H 192.839 -0.0727433 -5.87555 0
M  V30 1969 H 194.363 0.843705 -6.04743 0
M  V30 1970 H 195.777 -1.376 -5.56542 0
M  V30 1971 H 194.174 -2.16659 -5.59624 0
M  V30 1972 H 195.244 -2.41518 -4.20473 0
M  V30 1973 N 196.587 1.43421 -0.653314 0
M  V30 1974 C 197.835 2.01414 -0.166415 0
M  V30 1975 C 198.156 1.51803 1.22397 0
M  V30 1976 O 197.426 0.730693 1.81763 0
M  V30 1977 H 196.006 0.744703 -0.0585319 0
M  V30 1978 H 198.668 1.75629 -0.845003 0
M  V30 1979 H 197.764 3.11734 -0.151111 0
M  V30 1980 N 198.065 0.39524 1.52563 0
M  V30 1981 C 199.476 -0.0774719 1.86539 0
M  V30 1982 C 199.827 -1.45641 1.31466 0
M  V30 1983 O 198.952 -2.06459 0.648367 0
M  V30 1984 C 199.547 -0.147356 3.38479 0
M  V30 1985 C 198.106 -0.564373 3.72145 0
M  V30 1986 C 197.253 0.269919 2.75983 0
M  V30 1987 H 200.204 0.612876 1.46388 0
M  V30 1988 H 200.225 -0.965343 3.68051 0
M  V30 1989 H 199.737 0.856387 3.78534 0
M  V30 1990 H 197.838 -1.57527 3.37663 0
M  V30 1991 H 197.951 -0.318402 4.78041 0
M  V30 1992 H 196.315 -0.265696 2.5331 0
M  V30 1993 H 197.098 1.27175 3.18875 0
M  V30 1994 N 199.544 -1.57102 0.125237 0
M  V30 1995 C 200.792 -1.95021 -0.530198 0
M  V30 1996 C 201.113 -1.00982 -1.66816 0
M  V30 1997 O 200.383 -0.0672693 -1.95784 0
M  V30 1998 H 198.963 -0.720046 -0.198853 0
M  V30 1999 H 201.625 -1.93916 0.19564 0
M  V30 2000 H 200.721 -2.98211 -0.920681 0
M  V30 2001 N 201.022 0.148545 -1.56898 0
M  V30 2002 C 202.27 0.859717 -1.82902 0
M  V30 2003 C 202.591 1.81775 -0.70588 0
M  V30 2004 O 201.861 1.93994 0.272586 0
M  V30 2005 H 200.441 0.320469 -0.674766 0
M  V30 2006 H 203.103 0.142918 -1.94375 0
M  V30 2007 H 202.199 1.4229 -2.77777 0
M  V30 2008 N 202.5 1.5196 0.417844 0
M  V30 2009 C 203.463 1.74065 1.49111 0
M  V30 2010 C 204.463 0.610537 1.48758 0
M  V30 2011 O 205.653 0.87832 1.50437 0
M  V30 2012 C 202.785 1.81502 2.88565 0
M  V30 2013 H 203.978 2.69869 1.30807 0
M  V30 2014 H 201.531 1.42244 0.647785 0
M  V30 2015 H 202.266 0.875813 3.1225 0
M  V30 2016 H 202.051 2.63651 2.90225 0
M  V30 2017 H 203.541 2.00376 3.66387 0
M  V30 2018 N 203.978 -0.674533 1.42435 0
M  V30 2019 C 204.941 -1.76986 1.45632 0
M  V30 2020 C 205.941 -1.5708 0.343871 0
M  V30 2021 O 207.131 -1.63367 0.604709 0
M  V30 2022 C 204.263 -3.15623 1.28822 0
M  V30 2023 H 205.456 -1.75539 2.43158 0
M  V30 2024 H 203.009 -0.884189 1.28887 0
M  V30 2025 H 203.744 -3.22696 0.322193 0
M  V30 2026 H 203.529 -3.31475 2.09444 0
M  V30 2027 H 205.019 -3.95537 1.33942 0
M  V30 2028 N 205.456 -1.28612 -0.910864 0
M  V30 2029 C 206.872 -1.06381 -1.18976 0
M  V30 2030 C 207.072 0.191998 -2.00583 0
M  V30 2031 O 206.128 0.892869 -2.36187 0
M  V30 2032 C 207.441 -2.31295 -1.92154 0
M  V30 2033 C 208.989 -2.36503 -2.05025 0
M  V30 2034 C 209.464 -3.61191 -2.81612 0
M  V30 2035 N 210.955 -3.61847 -2.89172 0
M  V30 2036 C 211.69 -4.55004 -3.4894 0
M  V30 2037 N 211.186 -5.58482 -4.09963 0
M  V30 2038 N 212.979 -4.42594 -3.46506 0
M  V30 2039 H 205.13 -2.09221 -0.366094 0
M  V30 2040 H 207.393 -0.921003 -0.224629 0
M  V30 2041 H 207.099 -3.228 -1.39618 0
M  V30 2042 H 206.973 -2.37934 -2.9269 0
M  V30 2043 H 209.36 -1.45494 -2.5674 0
M  V30 2044 H 209.441 -2.33857 -1.03657 0
M  V30 2045 H 209.085 -4.52545 -2.30576 0
M  V30 2046 H 209.015 -3.61092 -3.83302 0
M  V30 2047 H 211.506 -2.87022 -2.45819 0
M  V30 2048 H 211.819 -6.25704 -4.53557 0
M  V30 2049 H 210.164 -5.62305 -4.08459 0
M  V30 2050 H 213.355 -3.60953 -2.98045 0
M  V30 2051 H 213.528 -5.15381 -3.92793 0
M  V30 2052 N 206.934 1.1197 -1.10907 0
M  V30 2053 C 207.864 2.19928 -0.784473 0
M  V30 2054 C 208.845 1.6833 0.244726 0
M  V30 2055 O 210.03 1.93892 0.109418 0
M  V30 2056 C 207.16 3.46597 -0.220827 0
M  V30 2057 C 206.114 4.11376 -1.18127 0
M  V30 2058 C 205.44 5.32554 -0.478594 0
M  V30 2059 C 206.74 4.56945 -2.52979 0
M  V30 2060 H 208.434 2.47337 -1.68715 0
M  V30 2061 H 205.98 1.18879 -0.812642 0
M  V30 2062 H 207.933 4.21396 0.0184278 0
M  V30 2063 H 206.657 3.1863 0.717113 0
M  V30 2064 H 205.316 3.38564 -1.40606 0
M  V30 2065 H 204.964 5.00856 0.463976 0
M  V30 2066 H 204.664 5.76844 -1.11912 0
M  V30 2067 H 206.188 6.10096 -0.248 0
M  V30 2068 H 207.602 5.23093 -2.3462 0
M  V30 2069 H 205.999 5.1203 -3.12962 0
M  V30 2070 H 207.069 3.70676 -3.12614 0
M  V30 2071 N 208.412 0.89855 1.29475 0
M  V30 2072 C 209.828 0.594483 1.48115 0
M  V30 2073 C 210.028 -0.86431 1.82022 0
M  V30 2074 O 209.084 -1.64457 1.91599 0
M  V30 2075 C 210.397 1.51932 2.59494 0
M  V30 2076 C 211.945 1.5244 2.7337 0
M  V30 2077 C 212.42 2.43548 3.87877 0
M  V30 2078 N 213.911 2.41589 3.95208 0
M  V30 2079 C 214.646 3.08789 4.83153 0
M  V30 2080 N 214.142 3.85265 5.75798 0
M  V30 2081 N 215.935 2.97952 4.76635 0
M  V30 2082 H 208.086 1.84207 1.05742 0
M  V30 2083 H 210.349 0.789251 0.525154 0
M  V30 2084 H 210.055 2.55865 2.41301 0
M  V30 2085 H 209.929 1.23899 3.56271 0
M  V30 2086 H 212.316 0.492518 2.90961 0
M  V30 2087 H 212.397 1.8451 1.77172 0
M  V30 2088 H 212.041 3.46829 3.71041 0
M  V30 2089 H 211.971 2.08788 4.83441 0
M  V30 2090 H 214.462 1.86025 3.28943 0
M  V30 2091 H 214.775 4.33598 6.39697 0
M  V30 2092 H 213.12 3.89371 5.75687 0
M  V30 2093 H 216.311 2.37723 4.03244 0
M  V30 2094 H 216.484 3.50599 5.44962 0
M  V30 2095 N 209.89 -1.43072 0.660911 0
M  V30 2096 C 211.136 -2.0202 0.177708 0
M  V30 2097 C 211.469 -1.52066 -1.20787 0
M  V30 2098 O 210.744 -0.716987 -1.80802 0
M  V30 2099 C 211.027 -3.59561 0.197019 0
M  V30 2100 C 210.88 -4.19727 1.61706 0
M  V30 2101 C 212.199 -4.37664 -0.462396 0
M  V30 2102 H 209.318 -0.734034 0.0660494 0
M  V30 2103 H 211.96 -1.70272 0.843058 0
M  V30 2104 H 210.11 -3.86739 -0.369527 0
M  V30 2105 H 211.782 -4.03553 2.23479 0
M  V30 2106 H 210.025 -3.76084 2.16201 0
M  V30 2107 H 210.696 -5.28834 1.58237 0
M  V30 2108 H 213.172 -4.16095 0.0197215 0
M  V30 2109 H 212.048 -5.47305 -0.418188 0
M  V30 2110 H 212.309 -4.14493 -1.53778 0
M  V30 2111 N 211.368 -0.403325 -1.52352 0
M  V30 2112 C 212.616 0.174003 -2.0135 0
M  V30 2113 C 212.937 1.46139 -1.29106 0
M  V30 2114 O 212.207 1.91448 -0.415253 0
M  V30 2115 H 210.787 0.0672911 -0.743963 0
M  V30 2116 H 213.449 -0.538235 -1.87321 0
M  V30 2117 H 212.545 0.374254 -3.09848 0
M  V30 2118 N 212.846 1.57033 -0.133567 0
M  V30 2119 C 214.071 2.00475 0.531477 0
M  V30 2120 C 214.496 1.01291 1.58499 0
M  V30 2121 O 213.854 -0.0133279 1.81295 0
M  V30 2122 C 213.902 3.42729 1.12113 0
M  V30 2123 O 213.006 3.46498 2.23636 0
M  V30 2124 H 212.347 0.650876 0.131362 0
M  V30 2125 H 214.877 2.03344 -0.22634 0
M  V30 2126 H 214.887 3.81246 1.4531 0
M  V30 2127 H 213.562 4.14428 0.349557 0
M  V30 2128 H 212.139 3.19811 1.91769 0
M  V30 2129 N 214.325 -0.140222 1.56975 0
M  V30 2130 C 215.288 -1.15689 1.97861 0
M  V30 2131 C 216.288 -1.3549 0.865974 0
M  V30 2132 O 217.478 -1.32367 1.13246 0
M  V30 2133 C 214.61 -2.51582 2.30042 0
M  V30 2134 H 215.803 -0.805971 2.88867 0
M  V30 2135 H 213.356 -0.383801 1.51515 0
M  V30 2136 H 214.091 -2.91632 1.41849 0
M  V30 2137 H 213.876 -2.38569 3.11171 0
M  V30 2138 H 215.366 -3.24792 2.62488 0
M  V30 2139 N 215.803 -1.52179 -0.40978 0
M  V30 2140 C 216.733 -1.78435 -1.5061 0
M  V30 2141 C 217.714 -0.635295 -1.57791 0
M  V30 2142 O 218.899 -0.880823 -1.73076 0
M  V30 2143 C 216.029 -1.93444 -2.88439 0
M  V30 2144 C 214.983 -3.09038 -2.96108 0
M  V30 2145 C 214.309 -3.09268 -4.36185 0
M  V30 2146 C 215.609 -4.48508 -2.67652 0
M  V30 2147 H 217.303 -2.70237 -1.28889 0
M  V30 2148 H 214.849 -1.30036 -0.618605 0
M  V30 2149 H 216.802 -2.10394 -3.65119 0
M  V30 2150 H 215.526 -0.983129 -3.11452 0
M  V30 2151 H 214.185 -2.91837 -2.21872 0
M  V30 2152 H 213.833 -2.11861 -4.56206 0
M  V30 2153 H 213.533 -3.86907 -4.42241 0
M  V30 2154 H 215.057 -3.28348 -5.14801 0
M  V30 2155 H 216.471 -4.65918 -3.34056 0
M  V30 2156 H 214.868 -5.28059 -2.85085 0
M  V30 2157 H 215.938 -4.56649 -1.63095 0
M  V30 2158 N 217.281 0.66697 -1.42791 0
M  V30 2159 C 218.697 0.981027 -1.25889 0
M  V30 2160 C 218.897 2.00793 -0.168695 0
M  V30 2161 O 217.953 2.48321 0.45747 0
M  V30 2162 C 219.266 1.47838 -2.61848 0
M  V30 2163 C 220.814 1.59575 -2.69267 0
M  V30 2164 C 221.289 2.12704 -4.05612 0
M  V30 2165 N 222.78 2.20026 -4.07606 0
M  V30 2166 C 223.515 2.62227 -5.09926 0
M  V30 2167 N 223.011 3.03824 -6.22626 0
M  V30 2168 N 224.804 2.62045 -4.97281 0
M  V30 2169 H 216.955 -0.0127891 -2.12396 0
M  V30 2170 H 219.218 0.0568258 -0.946295 0
M  V30 2171 H 218.924 0.798299 -3.4252 0
M  V30 2172 H 218.798 2.45579 -2.86305 0
M  V30 2173 H 221.185 2.26687 -1.88936 0
M  V30 2174 H 221.266 0.60302 -2.48591 0
M  V30 2175 H 220.91 1.46198 -4.86404 0
M  V30 2176 H 220.84 3.12782 -4.23645 0
M  V30 2177 H 223.331 1.90708 -3.2625 0
M  V30 2178 H 223.644 3.34734 -6.96544 0
M  V30 2179 H 221.989 3.01662 -6.26119 0
M  V30 2180 H 225.18 2.28916 -4.08308 0
M  V30 2181 H 225.353 2.94613 -5.77154 0
M  V30 2182 N 218.759 1.29093 0.90403 0
M  V30 2183 C 220.036 1.075 1.63411 0
M  V30 2184 C 220.416 -0.382346 2.07609 0
M  V30 2185 O 219.764 -1.37031 1.82851 0
M  V30 2186 C 219.974 2.05858 2.81822 0
M  V30 2187 C 221.322 2.36539 3.52611 0
M  V30 2188 O 222.346 2.04019 2.91984 0
M  V30 2189 O 221.205 2.92085 4.61897 0
M  V30 2190 H 218.299 0.411547 0.717327 0
M  V30 2191 H 220.845 1.40449 0.952479 0
M  V30 2192 H 219.617 3.04037 2.46327 0
M  V30 2193 H 219.24 1.73613 3.57693 0
M  V30 2194 N 220.237 -1.11381 1.11499 0
M  V30 2195 C 221.2 -2.15622 0.777153 0
M  V30 2196 C 222.2 -1.59504 -0.203779 0
M  V30 2197 O 223.39 -1.74188 0.020782 0
M  V30 2198 C 220.522 -3.40556 0.153116 0
M  V30 2199 H 221.715 -2.47021 1.70061 0
M  V30 2200 H 219.268 -1.26577 0.916952 0
M  V30 2201 H 220.003 -3.14767 -0.780536 0
M  V30 2202 H 219.788 -3.8257 0.859238 0
M  V30 2203 H 221.278 -4.17546 -0.0671044 0
M  V30 2204 N 221.715 -0.905404 -1.28997 0
M  V30 2205 C 222.962 -0.534248 -1.95325 0
M  V30 2206 C 223.29 0.920535 -1.71337 0
M  V30 2207 O 222.545 1.66861 -1.02254 0
M  V30 2208 C 222.844 -0.779906 -3.48787 0
M  V30 2209 C 222.51 -2.21293 -3.92861 0
M  V30 2210 C 221.172 -2.60475 -4.04606 0
M  V30 2211 C 223.524 -3.14587 -4.15553 0
M  V30 2212 C 220.852 -3.9212 -4.36416 0
M  V30 2213 C 223.204 -4.45787 -4.48839 0
M  V30 2214 C 221.868 -4.84834 -4.58794 0
M  V30 2215 H 221.138 -0.195495 -0.714747 0
M  V30 2216 H 223.785 -1.14514 -1.53488 0
M  V30 2217 H 222.09 -0.0861365 -3.91705 0
M  V30 2218 H 223.787 -0.472029 -3.98212 0
M  V30 2219 H 220.377 -1.89887 -3.84241 0
M  V30 2220 H 224.561 -2.85528 -4.0594 0
M  V30 2221 H 219.817 -4.22086 -4.42327 0
M  V30 2222 H 223.991 -5.18098 -4.65346 0
M  V30 2223 H 221.618 -5.86877 -4.83197 0
M  V30 2224 N 223.193 1.4272 -0.668489 0
M  V30 2225 C 224.609 1.55992 -0.33745 0
M  V30 2226 C 224.809 1.64933 1.15756 0
M  V30 2227 O 223.865 1.61278 1.94282 0
M  V30 2228 C 225.178 2.81314 -1.06222 0
M  V30 2229 C 226.726 2.95078 -1.04394 0
M  V30 2230 C 227.201 4.23252 -1.74991 0
M  V30 2231 N 228.692 4.3015 -1.71829 0
M  V30 2232 C 229.427 5.28127 -2.23315 0
M  V30 2233 N 228.923 6.32293 -2.83156 0
M  V30 2234 N 230.716 5.19882 -2.13726 0
M  V30 2235 H 222.867 1.3516 -1.63846 0
M  V30 2236 H 225.13 0.650174 -0.689912 0
M  V30 2237 H 224.836 2.80823 -2.11734 0
M  V30 2238 H 224.71 3.72012 -0.62344 0
M  V30 2239 H 227.097 2.951 0.0028244 0
M  V30 2240 H 227.178 2.05627 -1.52155 0
M  V30 2241 H 226.822 4.2399 -2.79633 0
M  V30 2242 H 226.752 5.11626 -1.24685 0
M  V30 2243 H 229.243 3.55499 -1.28175 0
M  V30 2244 H 229.556 7.03398 -3.20079 0
M  V30 2245 H 227.901 6.32873 -2.87223 0
M  V30 2246 H 231.092 4.37423 -1.66669 0
M  V30 2247 H 231.265 5.96077 -2.54158 0
M  V30 2248 N 224.671 0.411399 1.52136 0
M  V30 2249 C 226.087 0.0623865 1.59478 0
M  V30 2250 C 226.287 -1.42554 1.4241 0
M  V30 2251 O 225.343 -2.19263 1.2522 0
M  V30 2252 C 226.656 0.559331 2.95452 0
M  V30 2253 C 228.204 0.517503 3.08692 0
M  V30 2254 C 228.679 0.990994 4.4715 0
M  V30 2255 N 230.17 0.947908 4.53397 0
M  V30 2256 C 230.905 1.28544 5.58806 0
M  V30 2257 N 230.401 1.69454 6.71757 0
M  V30 2258 N 232.194 1.20526 5.49026 0
M  V30 2259 H 224.345 1.37982 1.61477 0
M  V30 2260 H 226.608 0.566977 0.759764 0
M  V30 2261 H 226.314 1.59938 3.1323 0
M  V30 2262 H 226.188 -0.0298014 3.77188 0
M  V30 2263 H 228.575 -0.513505 2.90598 0
M  V30 2264 H 228.656 1.14272 2.28857 0
M  V30 2265 H 228.3 2.02034 4.65988 0
M  V30 2266 H 228.23 0.34257 5.25485 0
M  V30 2267 H 230.721 0.647157 3.72317 0
M  V30 2268 H 231.034 1.93513 7.48179 0
M  V30 2269 H 229.379 1.73359 6.73032 0
M  V30 2270 H 232.57 0.884505 4.59667 0
M  V30 2271 H 232.743 1.47161 6.31069 0
M  V30 2272 N 226.149 -1.5696 0.141893 0
M  V30 2273 C 227.565 -1.58151 -0.21456 0
M  V30 2274 C 227.765 -1.1559 -1.65049 0
M  V30 2275 O 226.821 -0.853832 -2.37626 0
M  V30 2276 C 228.134 -3.00674 0.0395576 0
M  V30 2277 C 229.682 -3.1299 -0.0245529 0
M  V30 2278 C 230.157 -4.57554 0.202167 0
M  V30 2279 N 231.648 -4.62961 0.148919 0
M  V30 2280 C 232.383 -5.7262 0.298924 0
M  V30 2281 N 231.879 -6.90947 0.50637 0
M  V30 2282 N 233.672 -5.61601 0.236886 0
M  V30 2283 H 225.823 -1.8292 1.07953 0
M  V30 2284 H 228.086 -0.846425 0.42693 0
M  V30 2285 H 227.792 -3.36183 1.03315 0
M  V30 2286 H 227.666 -3.70981 -0.682143 0
M  V30 2287 H 230.053 -2.77326 -1.00869 0
M  V30 2288 H 230.134 -2.4518 0.729396 0
M  V30 2289 H 229.778 -4.93922 1.18338 0
M  V30 2290 H 229.708 -5.23484 -0.572044 0
M  V30 2291 H 232.199 -3.77899 -0.00697015 0
M  V30 2292 H 232.512 -7.7038 0.611076 0
M  V30 2293 H 230.857 -6.92878 0.542628 0
M  V30 2294 H 234.048 -4.68039 0.0756209 0
M  V30 2295 H 234.221 -6.47015 0.357227 0
M  V30 2296 N 227.627 0.131896 -1.57047 0
M  V30 2297 C 228.537 1.1815 -2.02676 0
M  V30 2298 C 229.553 1.46113 -0.944824 0
M  V30 2299 O 230.729 1.57485 -1.25541 0
M  V30 2300 C 227.794 2.49139 -2.41103 0
M  V30 2301 C 226.855 2.28688 -3.63318 0
M  V30 2302 C 226.088 3.53431 -3.99903 0
M  V30 2303 O 226.311 4.60223 -3.36973 0
M  V30 2304 O 225.245 3.45198 -4.93074 0
M  V30 2305 H 229.071 0.824069 -2.92306 0
M  V30 2306 H 226.656 0.341745 -1.45439 0
M  V30 2307 H 228.538 3.26338 -2.66611 0
M  V30 2308 H 227.213 2.84382 -1.54624 0
M  V30 2309 H 226.12 1.4939 -3.42977 0
M  V30 2310 H 227.453 1.98355 -4.50462 0
M  V30 2311 N 229.106 1.52395 0.401703 0
M  V30 2312 C 230.517 1.58899 0.980202 0
M  V30 2313 C 230.868 0.434032 1.91339 0
M  V30 2314 O 229.993 -0.444619 2.11783 0
M  V30 2315 C 230.588 2.87994 1.78451 0
M  V30 2316 C 229.147 2.96953 2.31292 0
M  V30 2317 C 228.294 2.53903 1.11483 0
M  V30 2318 H 231.245 1.57657 0.18168 0
M  V30 2319 H 231.266 2.73765 2.64259 0
M  V30 2320 H 230.778 3.72035 1.10506 0
M  V30 2321 H 228.879 2.17422 3.02586 0
M  V30 2322 H 228.992 4.01344 2.61649 0
M  V30 2323 H 227.356 2.07925 1.47104 0
M  V30 2324 H 228.139 3.40326 0.450928 0
M  V30 2325 N 230.584 -0.659388 1.43143 0
M  V30 2326 C 231.814 -1.44513 1.47646 0
M  V30 2327 C 232.222 -1.88981 0.0910095 0
M  V30 2328 O 231.565 -1.59702 -0.907789 0
M  V30 2329 C 231.627 -2.71663 2.35456 0
M  V30 2330 C 231.291 -2.49175 3.83094 0
M  V30 2331 C 232.288 -2.1279 4.74359 0
M  V30 2332 C 229.973 -2.63691 4.27519 0
M  V30 2333 C 231.967 -1.9121 6.08044 0
M  V30 2334 C 229.654 -2.41726 5.61259 0
M  V30 2335 C 230.652 -2.0554 6.51339 0
M  V30 2336 O 230.34 -1.838 7.82606 0
M  V30 2337 H 230.072 -0.45064 0.503884 0
M  V30 2338 H 232.626 -0.816248 1.88485 0
M  V30 2339 H 230.856 -3.37089 1.89493 0
M  V30 2340 H 232.545 -3.33595 2.31235 0
M  V30 2341 H 233.311 -2.01157 4.41317 0
M  V30 2342 H 229.19 -2.90832 3.57684 0
M  V30 2343 H 232.734 -1.62889 6.78316 0
M  V30 2344 H 228.631 -2.52959 5.9387 0
M  V30 2345 H 229.399 -1.98275 7.94122 0
M  V30 2346 N 232.062 -1.29571 -0.897171 0
M  V30 2347 C 233.01 -1.14802 -2.02295 0
M  V30 2348 C 234.004 -0.0629637 -1.69283 0
M  V30 2349 O 235.21 -0.222945 -1.78614 0
M  V30 2350 H 231.585 -0.354692 -0.663097 0
M  V30 2351 H 233.556 -2.10108 -2.11889 0
M  V30 2352 C 232.305 -0.843966 -3.37302 0
M  V30 2353 H 231.628 -1.67093 -3.63208 0
M  V30 2354 H 233.068 -0.780672 -4.16751 0
M  V30 2355 C 231.527 0.452843 -3.33843 0
M  V30 2356 O 232.057 1.47813 -3.73516 0
M  V30 2357 N 230.263 0.459601 -2.86943 0
M  V30 2358 H 229.81 -0.375213 -2.54853 0
M  V30 2359 H 229.768 1.32726 -2.85011 0
M  V30 2360 N 233.54 1.10788 -1.12088 0
M  V30 2361 C 234.77 1.86191 -0.895351 0
M  V30 2362 C 235.178 1.80763 0.558702 0
M  V30 2363 O 234.521 1.19188 1.39785 0
M  V30 2364 C 234.583 3.35659 -1.28737 0
M  V30 2365 C 234.247 3.64849 -2.75198 0
M  V30 2366 C 235.244 3.61757 -3.734 0
M  V30 2367 C 232.929 3.93641 -3.12013 0
M  V30 2368 C 234.923 3.87045 -5.06434 0
M  V30 2369 C 232.61 4.18585 -4.4523 0
M  V30 2370 C 233.608 4.15277 -5.42249 0
M  V30 2371 O 233.296 4.3959 -6.73065 0
M  V30 2372 H 233.028 0.595425 -0.32007 0
M  V30 2373 H 235.582 1.40992 -1.49367 0
M  V30 2374 H 233.812 3.81497 -0.63224 0
M  V30 2375 H 235.501 3.92441 -1.03656 0
M  V30 2376 H 236.267 3.39557 -3.46303 0
M  V30 2377 H 232.146 3.95348 -2.37109 0
M  V30 2378 H 235.69 3.84378 -5.82151 0
M  V30 2379 H 231.587 4.40264 -4.72057 0
M  V30 2380 H 232.355 4.57123 -6.78956 0
M  V30 2381 N 235.018 0.912232 1.28515 0
M  V30 2382 C 235.948 0.416403 2.29757 0
M  V30 2383 C 236.929 -0.515194 1.6211 0
M  V30 2384 O 238.114 -0.423253 1.89532 0
M  V30 2385 C 235.244 -0.34572 3.45575 0
M  V30 2386 C 234.198 0.496599 4.25109 0
M  V30 2387 C 233.524 -0.393771 5.33248 0
M  V30 2388 C 234.824 1.75307 4.92001 0
M  V30 2389 H 236.518 1.26249 2.7148 0
M  V30 2390 H 234.064 0.608515 1.30511 0
M  V30 2391 H 236.017 -0.703422 4.15488 0
M  V30 2392 H 234.741 -1.2257 3.02728 0
M  V30 2393 H 233.4 0.8368 3.56922 0
M  V30 2394 H 233.048 -1.27225 4.86644 0
M  V30 2395 H 232.748 0.166209 5.87365 0
M  V30 2396 H 234.272 -0.747389 6.06009 0
M  V30 2397 H 235.686 1.46437 5.54283 0
M  V30 2398 H 234.083 2.25534 5.56106 0
M  V30 2399 H 235.153 2.48176 4.16577 0
M  V30 2400 N 236.496 -1.42363 0.676048 0
M  V30 2401 C 237.428 -2.29164 -0.0404605 0
M  V30 2402 C 238.441 -1.43747 -0.764245 0
M  V30 2403 O 239.63 -1.67453 -0.618195 0
M  V30 2404 C 236.73 -3.21196 -1.08103 0
M  V30 2405 C 235.903 -4.35273 -0.430812 0
M  V30 2406 C 234.962 -5.08017 -1.37133 0
M  V30 2407 O 233.988 -5.62494 -0.87116 0
M  V30 2408 N 235.19 -5.13647 -2.70456 0
M  V30 2409 H 237.955 -2.91298 0.704667 0
M  V30 2410 H 235.516 -1.53303 0.520559 0
M  V30 2411 H 237.508 -3.66728 -1.71152 0
M  V30 2412 H 236.078 -2.60505 -1.72788 0
M  V30 2413 H 235.298 -3.92372 0.379209 0
M  V30 2414 H 236.586 -5.08795 0.0221132 0
M  V30 2415 H 235.984 -4.708 -3.1363 0
M  V30 2416 H 234.541 -5.62821 -3.28749 0
M  V30 2417 N 237.974 -0.419461 -1.51915 0
M  V30 2418 C 239.39 -0.0708431 -1.59443 0
M  V30 2419 C 239.59 1.41796 -1.43164 0
M  V30 2420 O 238.646 2.18596 -1.26381 0
M  V30 2421 C 239.959 -0.574991 -2.95151 0
M  V30 2422 C 241.507 -0.533867 -3.08413 0
M  V30 2423 C 241.982 -1.01469 -4.46618 0
M  V30 2424 N 243.473 -0.971939 -4.52888 0
M  V30 2425 C 244.208 -1.31505 -5.58116 0
M  V30 2426 N 243.704 -1.73014 -6.70849 0
M  V30 2427 N 245.497 -1.23436 -5.48379 0
M  V30 2428 H 237.648 -1.38836 -1.60743 0
M  V30 2429 H 239.911 -0.570998 -0.756747 0
M  V30 2430 H 239.617 -1.61597 -3.12377 0
M  V30 2431 H 239.491 0.00979777 -3.77199 0
M  V30 2432 H 241.878 0.498086 -2.90866 0
M  V30 2433 H 241.959 -1.15484 -2.28248 0
M  V30 2434 H 241.603 -2.04502 -4.6491 0
M  V30 2435 H 241.533 -0.370433 -5.25295 0
M  V30 2436 H 244.024 -0.666893 -3.71969 0
M  V30 2437 H 244.337 -1.97479 -7.47143 0
M  V30 2438 H 242.682 -1.76926 -6.72103 0
M  V30 2439 H 245.873 -0.908869 -4.59192 0
M  V30 2440 H 246.046 -1.50506 -6.30279 0
M  V30 2441 N 239.452 1.56882 -0.150215 0
M  V30 2442 C 240.415 2.1573 0.774157 0
M  V30 2443 C 241.415 1.0999 1.17298 0
M  V30 2444 O 242.605 1.35613 1.09338 0
M  V30 2445 C 239.737 2.72302 2.05096 0
M  V30 2446 H 240.93 2.98752 0.262201 0
M  V30 2447 H 238.483 1.55985 0.099248 0
M  V30 2448 H 239.218 1.92956 2.6065 0
M  V30 2449 H 239.003 3.49665 1.77416 0
M  V30 2450 H 240.493 3.17632 2.71109 0
M  V30 2451 N 240.93 -0.123565 1.57115 0
M  V30 2452 C 242.16 -0.845233 1.88519 0
M  V30 2453 C 242.568 -1.74168 0.739064 0
M  V30 2454 O 241.911 -1.81244 -0.299355 0
M  V30 2455 C 241.973 -1.73452 3.14888 0
M  V30 2456 C 241.637 -1.01285 4.45635 0
M  V30 2457 C 242.634 -0.355774 5.18681 0
M  V30 2458 C 240.319 -0.99538 4.92339 0
M  V30 2459 C 242.313 0.309114 6.3665 0
M  V30 2460 C 240 -0.32669 6.10226 0
M  V30 2461 C 240.998 0.324406 6.82229 0
M  V30 2462 O 240.686 0.982437 7.97874 0
M  V30 2463 H 240.418 -0.248534 0.628655 0
M  V30 2464 H 242.972 -0.113907 2.05084 0
M  V30 2465 H 241.202 -2.50737 2.94394 0
M  V30 2466 H 242.891 -2.33021 3.32349 0
M  V30 2467 H 243.657 -0.360918 4.83655 0
M  V30 2468 H 239.536 -1.49159 4.36202 0
M  V30 2469 H 243.08 0.8179 6.92789 0
M  V30 2470 H 238.977 -0.319294 6.4471 0
M  V30 2471 H 239.745 0.886454 8.13686 0
M  V30 2472 N 242.408 -1.52605 -0.393616 0
M  V30 2473 C 243.638 -1.71046 -1.15874 0
M  V30 2474 C 244.046 -0.426483 -1.84331 0
M  V30 2475 O 243.389 0.608513 -1.73329 0
M  V30 2476 C 243.451 -2.80118 -2.25332 0
M  V30 2477 C 243.115 -4.21381 -1.76881 0
M  V30 2478 C 244.112 -5.04697 -1.24808 0
M  V30 2479 C 241.797 -4.67683 -1.83244 0
M  V30 2480 C 243.791 -6.32393 -0.797387 0
M  V30 2481 C 241.478 -5.95364 -1.37787 0
M  V30 2482 C 242.476 -6.77549 -0.861208 0
M  V30 2483 O 242.164 -8.02837 -0.413252 0
M  V30 2484 H 241.896 -0.576155 -0.353583 0
M  V30 2485 H 244.45 -2.00018 -0.467123 0
M  V30 2486 H 242.68 -2.46557 -2.97904 0
M  V30 2487 H 244.369 -2.87006 -2.87023 0
M  V30 2488 H 245.135 -4.70111 -1.19252 0
M  V30 2489 H 241.014 -4.03805 -2.22401 0
M  V30 2490 H 244.558 -6.9649 -0.393437 0
M  V30 2491 H 240.455 -6.29455 -1.43026 0
M  V30 2492 H 241.223 -8.16749 -0.53515 0
M  V30 2493 N 243.887 0.651787 -1.4349 0
M  V30 2494 C 244.819 1.77725 -1.44729 0
M  V30 2495 C 245.832 1.59141 -0.343231 0
M  V30 2496 O 247.021 1.67835 -0.607751 0
M  V30 2497 C 244.121 3.15172 -1.24579 0
M  V30 2498 C 243.294 3.60402 -2.47849 0
M  V30 2499 C 242.353 4.76656 -2.22902 0
M  V30 2500 O 241.379 4.86022 -2.96263 0
M  V30 2501 N 242.581 5.66958 -1.24656 0
M  V30 2502 H 245.346 1.77141 -2.41746 0
M  V30 2503 H 242.907 0.835678 -1.38665 0
M  V30 2504 H 244.899 3.90634 -1.0577 0
M  V30 2505 H 243.469 3.1052 -0.360015 0
M  V30 2506 H 242.689 2.75369 -2.82073 0
M  V30 2507 H 243.977 3.87368 -3.29884 0
M  V30 2508 H 243.375 5.62065 -0.640265 0
M  V30 2509 H 241.932 6.42135 -1.1183 0
M  V30 2510 N 245.365 1.30045 0.890287 0
M  V30 2511 C 246.295 1.18541 2.01172 0
M  V30 2512 C 247.276 0.0773356 1.69924 0
M  V30 2513 O 248.461 0.25845 1.92473 0
M  V30 2514 C 245.591 0.870941 3.36202 0
M  V30 2515 C 244.545 1.93637 3.81692 0
M  V30 2516 C 243.871 1.475 5.13953 0
M  V30 2517 C 245.171 3.34666 4.00994 0
M  V30 2518 H 246.865 2.12359 2.11054 0
M  V30 2519 H 244.411 1.02238 1.01407 0
M  V30 2520 H 246.364 0.777141 4.14172 0
M  V30 2521 H 245.088 -0.102926 3.26438 0
M  V30 2522 H 243.747 2.01972 3.05946 0
M  V30 2523 H 243.395 0.489551 5.00612 0
M  V30 2524 H 243.095 2.1876 5.4536 0
M  V30 2525 H 244.619 1.39489 5.94454 0
M  V30 2526 H 246.033 3.2912 4.69417 0
M  V30 2527 H 244.43 4.03966 4.43769 0
M  V30 2528 H 245.5 3.76949 3.05021 0
M  V30 2529 N 246.843 -1.10192 1.12674 0
M  V30 2530 C 247.79 -2.16606 0.796906 0
M  V30 2531 C 248.76 -1.64394 -0.237476 0
M  V30 2532 O 249.945 -1.90474 -0.111484 0
M  V30 2533 C 247.085 -3.44116 0.26043 0
M  V30 2534 C 246.198 -4.10268 1.35293 0
M  V30 2535 C 245.333 -5.25507 0.775621 0
M  V30 2536 C 244.372 -5.83567 1.84706 0
M  V30 2537 N 243.509 -6.90179 1.28829 0
M  V30 2538 H 248.349 -2.44163 1.70846 0
M  V30 2539 H 245.886 -1.19846 0.85295 0
M  V30 2540 H 247.844 -4.17143 -0.0686814 0
M  V30 2541 H 246.474 -3.16901 -0.614274 0
M  V30 2542 H 245.526 -3.35184 1.79877 0
M  V30 2543 H 246.838 -4.4946 2.16303 0
M  V30 2544 H 245.992 -6.05398 0.397327 0
M  V30 2545 H 244.731 -4.87656 -0.0656581 0
M  V30 2546 H 243.736 -5.02344 2.23452 0
M  V30 2547 H 244.961 -6.23482 2.69161 0
M  V30 2548 H 242.907 -6.54322 0.468881 0
M  V30 2549 H 242.824 -7.28097 2.03497 0
M  V30 2550 H 244.092 -7.73844 0.937311 0
M  V30 2551 N 248.321 -0.919034 -1.28029 0
M  V30 2552 C 249.268 -0.410005 -2.27129 0
M  V30 2553 C 250.238 0.518405 -1.57803 0
M  V30 2554 O 251.423 0.439451 -1.8567 0
M  V30 2555 C 248.563 0.339054 -3.4343 0
M  V30 2556 C 247.676 -0.622468 -4.27492 0
M  V30 2557 C 246.811 0.145567 -5.31001 0
M  V30 2558 C 245.85 -0.809226 -6.06727 0
M  V30 2559 N 244.987 -0.0743728 -7.02061 0
M  V30 2560 H 249.827 -1.26011 -2.70047 0
M  V30 2561 H 247.364 -0.632663 -1.328 0
M  V30 2562 H 249.322 0.789586 -4.0966 0
M  V30 2563 H 247.952 1.15346 -3.01488 0
M  V30 2564 H 247.004 -1.19153 -3.61257 0
M  V30 2565 H 248.316 -1.35252 -4.80113 0
M  V30 2566 H 247.47 0.656417 -6.03139 0
M  V30 2567 H 246.209 0.908643 -4.79161 0
M  V30 2568 H 245.214 -1.3314 -5.33436 0
M  V30 2569 H 246.439 -1.57194 -6.60656 0
M  V30 2570 H 244.385 0.670616 -6.52563 0
M  V30 2571 H 244.302 -0.744157 -7.52329 0
M  V30 2572 H 245.57 0.416109 -7.78389 0
M  V30 2573 N 249.799 1.42003 -0.683588 0
M  V30 2574 C 250.729 2.33487 -0.024866 0
M  V30 2575 C 251.71 1.51163 0.779975 0
M  V30 2576 O 252.895 1.79739 0.735362 0
M  V30 2577 C 250.025 3.3487 0.920836 0
M  V30 2578 C 248.979 4.27414 0.223958 0
M  V30 2579 C 248.305 5.19074 1.2832 0
M  V30 2580 C 249.605 5.14445 -0.90242 0
M  V30 2581 H 251.299 2.88819 -0.788921 0
M  V30 2582 H 248.845 1.38873 -0.38083 0
M  V30 2583 H 250.798 3.97787 1.39081 0
M  V30 2584 H 249.522 2.77861 1.71642 0
M  V30 2585 H 248.181 3.65904 -0.225864 0
M  V30 2586 H 247.829 4.58387 2.071 0
M  V30 2587 H 247.529 5.81822 0.821995 0
M  V30 2588 H 249.053 5.84867 1.75392 0
M  V30 2589 H 250.467 5.70998 -0.513272 0
M  V30 2590 H 248.864 5.86072 -1.28997 0
M  V30 2591 H 249.934 4.52322 -1.74737 0
M  V30 2592 N 251.277 0.427512 1.51691 0
M  V30 2593 C 252.554 -0.201684 1.94557 0
M  V30 2594 C 252.934 -1.60981 1.36559 0
M  V30 2595 O 252.282 -2.21814 0.548702 0
M  V30 2596 C 252.492 -0.189394 3.48486 0
M  V30 2597 C 253.84 -0.39978 4.22714 0
M  V30 2598 O 254.864 -0.267945 3.55191 0
M  V30 2599 O 253.723 -0.661249 5.42485 0
M  V30 2600 H 250.817 -0.135261 0.815864 0
M  V30 2601 H 253.363 0.484782 1.62628 0
M  V30 2602 H 252.135 0.795431 3.8313 0
M  V30 2603 H 251.758 -0.919187 3.86829 0
M  V30 2604 N 252.755 -1.56801 0.158532 0
M  V30 2605 C 253.685 -2.20347 -0.772609 0
M  V30 2606 C 254.666 -1.15518 -1.24859 0
M  V30 2607 O 255.851 -1.43902 -1.30406 0
M  V30 2608 C 252.981 -2.83417 -2.00729 0
M  V30 2609 C 251.935 -3.94174 -1.66765 0
M  V30 2610 C 251.261 -4.44233 -2.97592 0
M  V30 2611 C 252.561 -5.14392 -0.905447 0
M  V30 2612 H 254.255 -2.98413 -0.242959 0
M  V30 2613 H 251.801 -1.43537 -0.115419 0
M  V30 2614 H 253.754 -3.26543 -2.6636 0
M  V30 2615 H 252.478 -2.02701 -2.56086 0
M  V30 2616 H 251.137 -3.51684 -1.03508 0
M  V30 2617 H 250.785 -3.60325 -3.50963 0
M  V30 2618 H 250.485 -5.18945 -2.75626 0
M  V30 2619 H 252.009 -4.90037 -3.64274 0
M  V30 2620 H 253.423 -5.5429 -1.46408 0
M  V30 2621 H 251.82 -5.9494 -0.7853 0
M  V30 2622 H 252.89 -4.84795 0.100668 0
M  V30 2623 N 254.233 0.115231 -1.57178 0
M  V30 2624 C 255.196 1.12526 -1.99676 0
M  V30 2625 C 256.196 1.34095 -0.88742 0
M  V30 2626 O 257.386 1.30548 -1.15337 0
M  V30 2627 C 254.518 2.4789 -2.34015 0
M  V30 2628 H 255.711 0.759912 -2.90113 0
M  V30 2629 H 253.264 0.359648 -1.52106 0
M  V30 2630 H 253.999 2.89339 -1.4647 0
M  V30 2631 H 253.784 2.33588 -3.14927 0
M  V30 2632 H 255.274 3.20575 -2.67622 0
M  V30 2633 N 255.711 1.52812 0.385517 0
M  V30 2634 C 256.674 1.77188 1.45386 0
M  V30 2635 C 257.674 0.641953 1.4743 0
M  V30 2636 O 258.864 0.910033 1.4854 0
M  V30 2637 C 255.996 1.87582 2.8465 0
M  V30 2638 H 257.189 2.72583 1.25054 0
M  V30 2639 H 254.742 1.43586 0.617467 0
M  V30 2640 H 255.477 0.941849 3.10322 0
M  V30 2641 H 255.262 2.69748 2.84567 0
M  V30 2642 H 256.752 2.08102 3.62054 0
M  V30 2643 N 257.189 -0.644168 1.43834 0
M  V30 2644 C 258.152 -1.73857 1.49353 0
M  V30 2645 C 259.152 -1.56315 0.377112 0
M  V30 2646 O 260.342 -1.62048 0.639226 0
M  V30 2647 C 257.474 -3.12819 1.35488 0
M  V30 2648 H 258.667 -1.70342 2.46827 0
M  V30 2649 H 256.22 -0.856652 1.30733 0
M  V30 2650 H 256.955 -3.2194 0.390569 0
M  V30 2651 H 256.74 -3.26958 2.16428 0
M  V30 2652 H 258.23 -3.92606 1.42302 0
M  V30 2653 N 258.668 -1.30515 -0.883378 0
M  V30 2654 C 259.631 -1.1701 -1.97082 0
M  V30 2655 C 260.631 -0.10089 -1.60483 0
M  V30 2656 O 261.821 -0.349127 -1.70666 0
M  V30 2657 C 258.953 -0.793045 -3.31547 0
M  V30 2658 H 260.146 -2.13622 -2.10489 0
M  V30 2659 H 257.699 -1.13935 -1.06998 0
M  V30 2660 H 258.434 0.172499 -3.23841 0
M  V30 2661 H 258.219 -1.56576 -3.5948 0
M  V30 2662 H 259.709 -0.722073 -4.1131 0
M  V30 2663 N 260.146 1.09593 -1.13257 0
M  V30 2664 C 261.109 2.14359 -0.811358 0
M  V30 2665 C 262.109 1.59808 0.178377 0
M  V30 2666 O 263.299 1.74132 -0.0484911 0
M  V30 2667 C 260.431 3.40269 -0.207276 0
M  V30 2668 H 261.624 2.44284 -1.73969 0
M  V30 2669 H 259.177 1.25102 -0.936973 0
M  V30 2670 H 259.912 3.15969 0.73036 0
M  V30 2671 H 259.697 3.81154 -0.919992 0
M  V30 2672 H 261.187 4.176 0.000667944 0
M  V30 2673 N 261.624 0.925811 1.2754 0
M  V30 2674 C 262.574 0.394488 2.24561 0
M  V30 2675 C 263.558 -0.500183 1.52928 0
M  V30 2676 O 264.75 -0.337936 1.73744 0
M  V30 2677 C 261.879 -0.353328 3.41477 0
M  V30 2678 C 260.965 0.557752 4.20416 0
M  V30 2679 N 261.356 1.67674 4.77199 0
M  V30 2680 C 259.654 0.360404 4.44541 0
M  V30 2681 C 260.355 2.24324 5.36706 0
M  V30 2682 N 259.331 1.53305 5.21535 0
M  V30 2683 H 263.133 1.2489 2.66045 0
M  V30 2684 H 260.647 0.779864 1.4245 0
M  V30 2685 H 262.644 -0.7509 4.10082 0
M  V30 2686 H 261.304 -1.20469 3.01525 0
M  V30 2687 H 262.315 2.05915 4.75204 0
M  V30 2688 H 258.992 -0.450454 4.15063 0
M  V30 2689 H 260.382 3.18521 5.91603 0
M  V30 2690 N 263.102 -1.41638 0.69111 0
M  V30 2691 C 264.33 -2.05628 0.22909 0
M  V30 2692 C 264.745 -1.51992 -1.11999 0
M  V30 2693 O 264.102 -0.666322 -1.69901 0
M  V30 2694 C 264.153 -3.61084 0.173283 0
M  V30 2695 O 263.874 -4.12735 1.46907 0
M  V30 2696 C 265.375 -4.42213 -0.310266 0
M  V30 2697 H 262.595 -0.662327 0.107534 0
M  V30 2698 H 265.139 -1.81489 0.942438 0
M  V30 2699 H 263.294 -3.84278 -0.490858 0
M  V30 2700 H 263.708 -5.06743 1.35322 0
M  V30 2701 H 265.182 -5.51194 -0.298196 0
M  V30 2702 H 265.659 -4.1799 -1.34838 0
M  V30 2703 H 266.265 -4.24074 0.322716 0
M  V30 2704 N 264.58 -0.43555 -1.51462 0
M  V30 2705 C 265.827 0.131514 -2.02072 0
M  V30 2706 C 266.155 1.42868 -1.31981 0
M  V30 2707 O 265.41 1.91076 -0.422883 0
M  V30 2708 C 265.709 0.39942 -3.55161 0
M  V30 2709 C 265.375 -0.81172 -4.43533 0
M  V30 2710 C 264.037 -1.14387 -4.67407 0
M  V30 2711 C 266.389 -1.61976 -4.95392 0
M  V30 2712 C 263.717 -2.28477 -5.40384 0
M  V30 2713 C 266.069 -2.75164 -5.6962 0
M  V30 2714 C 264.733 -3.08835 -5.91758 0
M  V30 2715 H 264.003 0.0481244 -0.739436 0
M  V30 2716 H 266.65 -0.58238 -1.8243 0
M  V30 2717 H 264.955 1.19519 -3.73125 0
M  V30 2718 H 266.652 0.85157 -3.91854 0
M  V30 2719 H 263.242 -0.542898 -4.25148 0
M  V30 2720 H 267.426 -1.37637 -4.76833 0
M  V30 2721 H 262.682 -2.5488 -5.55739 0
M  V30 2722 H 266.856 -3.38147 -6.08793 0
M  V30 2723 H 264.483 -3.97353 -6.48086 0
M  V30 2724 N 266.058 1.56714 -0.166846 0
M  V30 2725 C 267.305 1.96747 0.479252 0
M  V30 2726 C 267.633 1.05263 1.63554 0
M  V30 2727 O 266.888 0.0858098 1.95512 0
M  V30 2728 C 267.187 3.42889 1.00806 0
M  V30 2729 C 266.853 4.50889 -0.0318574 0
M  V30 2730 C 265.515 4.8015 -0.317675 0
M  V30 2731 C 267.867 5.15949 -0.737956 0
M  V30 2732 C 265.195 5.71772 -1.31506 0
M  V30 2733 C 267.547 6.08647 -1.72429 0
M  V30 2734 C 266.211 6.36277 -2.0176 0
M  V30 2735 H 265.481 0.719949 0.175371 0
M  V30 2736 H 268.128 1.89756 -0.257864 0
M  V30 2737 H 266.433 3.4681 1.82291 0
M  V30 2738 H 268.13 3.71203 1.51689 0
M  V30 2739 H 264.72 4.28128 0.201088 0
M  V30 2740 H 268.904 4.93458 -0.530351 0
M  V30 2741 H 264.16 5.91465 -1.54853 0
M  V30 2742 H 268.334 6.58129 -2.27682 0
M  V30 2743 H 265.961 7.07075 -2.79194 0
M  V30 2744 N 267.536 -0.106894 1.57237 0
M  V30 2745 C 268.782 -0.81373 1.85759 0
M  V30 2746 C 269.115 -1.78952 0.754315 0
M  V30 2747 O 268.39 -1.93029 -0.23879 0
M  V30 2748 C 268.673 -1.55293 3.24894 0
M  V30 2749 C 268.526 -0.595929 4.45835 0
M  V30 2750 C 269.845 -2.5063 3.61763 0
M  V30 2751 H 266.964 -0.294369 0.67566 0
M  V30 2752 H 269.606 -0.0776472 1.89841 0
M  V30 2753 H 267.756 -2.1804 3.21544 0
M  V30 2754 H 269.428 0.0236262 4.61294 0
M  V30 2755 H 267.671 0.0916191 4.33703 0
M  V30 2756 H 268.342 -1.15004 5.39887 0
M  V30 2757 H 270.818 -1.97982 3.65981 0
M  V30 2758 H 269.694 -2.99376 4.60071 0
M  V30 2759 H 269.955 -3.3385 2.89821 0
M  V30 2760 N 269.014 -1.53014 -0.377408 0
M  V30 2761 C 269.977 -1.77957 -1.44444 0
M  V30 2762 C 270.977 -0.649763 -1.47087 0
M  V30 2763 O 272.167 -0.917897 -1.48055 0
M  V30 2764 C 269.299 -1.89089 -2.83651 0
M  V30 2765 H 270.492 -2.73243 -1.23606 0
M  V30 2766 H 268.045 -1.43912 -0.609844 0
M  V30 2767 H 268.78 -0.958293 -3.09818 0
M  V30 2768 H 268.565 -2.71254 -2.83132 0
M  V30 2769 H 270.055 -2.1002 -3.60945 0
M  V30 2770 N 270.492 0.636531 -1.44174 0
M  V30 2771 C 271.44 1.76995 -1.50915 0
M  V30 2772 C 272.434 1.65053 -0.381295 0
M  V30 2773 O 273.64 1.71197 -0.55601 0
M  V30 2774 H 270.015 0.584247 -0.473455 0
M  V30 2775 H 271.986 1.68432 -2.4632 0
M  V30 2776 C 270.735 3.15314 -1.46534 0
M  V30 2777 H 270.058 3.25149 -2.32633 0
M  V30 2778 H 271.498 3.9453 -1.55312 0
M  V30 2779 C 269.957 3.3639 -0.185305 0
M  V30 2780 O 270.487 3.94699 0.746688 0
M  V30 2781 N 268.693 2.9046 -0.0901606 0
M  V30 2782 H 268.24 2.43193 -0.849416 0
M  V30 2783 H 268.198 3.04937 0.765553 0
M  V30 2784 N 271.97 1.30982 0.876444 0
M  V30 2785 C 273.381 1.18277 1.44456 0
M  V30 2786 C 273.732 -0.213265 1.95037 0
M  V30 2787 O 272.857 -1.11057 1.85729 0
M  V30 2788 C 273.452 2.1411 2.62569 0
M  V30 2789 C 272.011 2.05358 3.15444 0
M  V30 2790 C 271.158 2.03706 1.88146 0
M  V30 2791 H 274.109 1.43127 0.685584 0
M  V30 2792 H 274.13 1.72692 3.39054 0
M  V30 2793 H 273.642 3.15706 2.25724 0
M  V30 2794 H 271.743 1.06934 3.56926 0
M  V30 2795 H 271.856 2.94156 3.78166 0
M  V30 2796 H 270.22 1.48629 2.06837 0
M  V30 2797 H 271.003 3.07047 1.53547 0
M  V30 2798 N 273.449 -1.08991 1.13837 0
M  V30 2799 C 274.382 -2.15049 0.763477 0
M  V30 2800 C 275.36 -1.60629 -0.252398 0
M  V30 2801 O 276.544 -1.87958 -0.142853 0
M  V30 2802 C 273.671 -3.38441 0.132545 0
M  V30 2803 C 272.717 -4.11596 1.11763 0
M  V30 2804 S 273.55 -4.6521 2.65216 0
M  V30 2805 C 274.706 -5.91896 2.03495 0
M  V30 2806 H 274.939 -2.46518 1.66182 0
M  V30 2807 H 272.472 -1.21008 0.958976 0
M  V30 2808 H 274.43 -4.09883 -0.225074 0
M  V30 2809 H 273.091 -3.05182 -0.743135 0
M  V30 2810 H 272.284 -5.00121 0.624076 0
M  V30 2811 H 271.886 -3.46038 1.41894 0
M  V30 2812 H 274.178 -6.63156 1.38675 0
M  V30 2813 H 275.121 -6.45938 2.9012 0
M  V30 2814 H 275.529 -5.44625 1.48471 0
M  V30 2815 N 274.927 -0.932562 -1.27047 0
M  V30 2816 C 275.877 -0.406392 -2.24349 0
M  V30 2817 C 276.861 0.492066 -1.53191 0
M  V30 2818 O 278.053 0.328717 -1.73921 0
M  V30 2819 C 275.182 0.335214 -3.41659 0
M  V30 2820 C 274.268 -0.58004 -4.20115 0
M  V30 2821 N 274.659 -1.70203 -4.76303 0
M  V30 2822 C 272.957 -0.383974 -4.44344 0
M  V30 2823 C 273.658 -2.27167 -5.35509 0
M  V30 2824 N 272.634 -1.56068 -5.20715 0
M  V30 2825 H 276.436 -1.26299 -2.65378 0
M  V30 2826 H 273.95 -0.787408 -1.42034 0
M  V30 2827 H 275.947 0.729142 -4.10474 0
M  V30 2828 H 274.607 1.18868 -3.0216 0
M  V30 2829 H 275.618 -2.08433 -4.74106 0
M  V30 2830 H 272.295 0.428436 -4.15296 0
M  V30 2831 H 273.685 -3.21654 -5.89905 0
M  V30 2832 N 276.405 1.4127 -0.698611 0
M  V30 2833 C 277.335 2.33447 -0.049629 0
M  V30 2834 C 278.316 1.51982 0.763898 0
M  V30 2835 O 279.501 1.80509 0.716257 0
M  V30 2836 C 276.631 3.35828 0.885267 0
M  V30 2837 C 275.585 4.27627 0.178613 0
M  V30 2838 C 274.911 5.20406 1.22807 0
M  V30 2839 C 276.211 5.13459 -0.956933 0
M  V30 2840 H 277.905 2.87966 -0.81951 0
M  V30 2841 H 275.451 1.38461 -0.395538 0
M  V30 2842 H 277.404 3.9924 1.34854 0
M  V30 2843 H 276.128 2.79666 1.68685 0
M  V30 2844 H 274.787 3.65643 -0.26466 0
M  V30 2845 H 274.435 4.60558 2.02226 0
M  V30 2846 H 274.135 5.82661 0.760239 0
M  V30 2847 H 275.659 5.86695 1.69179 0
M  V30 2848 H 277.073 5.70421 -0.573805 0
M  V30 2849 H 275.47 5.8467 -1.35205 0
M  V30 2850 H 276.54 4.50443 -1.79524 0
M  V30 2851 N 277.883 0.443576 1.51229 0
M  V30 2852 C 278.815 -0.400608 2.25672 0
M  V30 2853 C 279.828 -0.980945 1.29928 0
M  V30 2854 O 281.017 -0.874024 1.55638 0
M  V30 2855 C 278.117 -1.57304 3.00181 0
M  V30 2856 C 277.29 -1.11046 4.23069 0
M  V30 2857 C 276.349 -2.15374 4.80105 0
M  V30 2858 O 275.375 -1.74554 5.41774 0
M  V30 2859 N 276.577 -3.47922 4.64683 0
M  V30 2860 H 279.342 0.23745 2.98758 0
M  V30 2861 H 276.903 0.272809 1.59585 0
M  V30 2862 H 278.895 -2.26733 3.35223 0
M  V30 2863 H 277.465 -2.11632 2.30066 0
M  V30 2864 H 276.685 -0.243019 3.9345 0
M  V30 2865 H 277.973 -0.778888 5.02803 0
M  V30 2866 H 277.371 -3.83815 4.15575 0
M  V30 2867 H 275.928 -4.13228 5.0407 0
M  V30 2868 N 279.361 -1.56624 0.175154 0
M  V30 2869 C 280.294 -2.14 -0.792412 0
M  V30 2870 C 281.272 -1.07114 -1.22333 0
M  V30 2871 O 282.456 -1.35112 -1.31442 0
M  V30 2872 C 279.583 -2.68268 -2.0676 0
M  V30 2873 C 278.629 -3.87562 -1.7804 0
M  V30 2874 S 279.462 -5.27074 -0.946222 0
M  V30 2875 C 280.618 -5.8475 -2.23199 0
M  V30 2876 H 280.851 -2.95736 -0.304588 0
M  V30 2877 H 278.384 -1.54349 -0.0395705 0
M  V30 2878 H 280.342 -3.00182 -2.80002 0
M  V30 2879 H 279.003 -1.86612 -2.52656 0
M  V30 2880 H 278.196 -4.23874 -2.72666 0
M  V30 2881 H 277.798 -3.56555 -1.12891 0
M  V30 2882 H 280.09 -5.97898 -3.18629 0
M  V30 2883 H 281.033 -6.81756 -1.91349 0
M  V30 2884 H 281.441 -5.13198 -2.35134 0
M  V30 2885 N 280.839 0.0985539 -1.57292 0
M  V30 2886 C 282.255 0.45267 -1.53046 0
M  V30 2887 C 282.455 1.80713 -0.891342 0
M  V30 2888 O 281.511 2.4785 -0.482375 0
M  V30 2889 C 282.824 0.418341 -2.97776 0
M  V30 2890 C 284.372 0.500443 -3.08973 0
M  V30 2891 C 284.847 0.496297 -4.55303 0
M  V30 2892 N 286.338 0.557151 -4.59837 0
M  V30 2893 C 287.073 0.575726 -5.70502 0
M  V30 2894 N 286.569 0.550714 -6.90608 0
M  V30 2895 N 288.362 0.620277 -5.58667 0
M  V30 2896 H 280.513 -0.788673 -1.97215 0
M  V30 2897 H 282.776 -0.293188 -0.901524 0
M  V30 2898 H 282.482 -0.509659 -3.47988 0
M  V30 2899 H 282.356 1.2386 -3.56284 0
M  V30 2900 H 284.743 1.41886 -2.58751 0
M  V30 2901 H 284.824 -0.347894 -2.53423 0
M  V30 2902 H 284.468 -0.418162 -5.06176 0
M  V30 2903 H 284.398 1.3618 -5.08687 0
M  V30 2904 H 286.889 0.581816 -3.73394 0
M  V30 2905 H 287.202 0.568075 -7.70709 0
M  V30 2906 H 285.547 0.517816 -6.93068 0
M  V30 2907 H 288.738 0.637322 -4.63741 0
M  V30 2908 H 288.911 0.631283 -6.44918 0
M  V30 2909 N 282.317 1.53212 0.369288 0
M  V30 2910 C 283.227 1.82342 1.47609 0
M  V30 2911 C 284.243 0.711532 1.58787 0
M  V30 2912 O 285.419 1.0012 1.74751 0
M  V30 2913 C 282.484 2.00393 2.8292 0
M  V30 2914 C 281.545 3.24297 2.81301 0
M  V30 2915 C 280.778 3.41478 4.10157 0
M  V30 2916 O 281.001 2.63033 5.06132 0
M  V30 2917 O 279.935 4.34817 4.16194 0
M  V30 2918 H 283.761 2.76366 1.25918 0
M  V30 2919 H 281.346 1.38547 0.559034 0
M  V30 2920 H 283.228 2.13859 3.63101 0
M  V30 2921 H 281.903 1.09559 3.04596 0
M  V30 2922 H 280.81 3.16257 1.99831 0
M  V30 2923 H 282.143 4.15041 2.64578 0
M  V30 2924 N 283.795 -0.628877 1.44509 0
M  V30 2925 C 285.072 -1.38733 1.37886 0
M  V30 2926 C 285.452 -2.11065 0.0387008 0
M  V30 2927 O 284.8 -2.06476 -0.97878 0
M  V30 2928 C 285.01 -2.35188 2.57852 0
M  V30 2929 C 286.358 -2.9845 3.02014 0
M  V30 2930 O 287.382 -2.45513 2.58073 0
M  V30 2931 O 286.241 -3.94487 3.78209 0
M  V30 2932 H 283.335 -0.621015 0.54614 0
M  V30 2933 H 285.881 -0.653744 1.56602 0
M  V30 2934 H 284.653 -1.80855 3.46998 0
M  V30 2935 H 284.276 -3.1596 2.4136 0
M  V30 2936 N 285.273 -1.31445 -0.869486 0
M  V30 2937 C 286.206 -1.13465 -1.97992 0
M  V30 2938 C 287.184 -0.0380291 -1.62556 0
M  V30 2939 O 288.368 -0.194544 -1.87493 0
M  V30 2940 C 285.495 -0.733822 -3.30655 0
M  V30 2941 C 284.541 -1.83356 -3.85075 0
M  V30 2942 S 285.374 -3.43909 -4.10472 0
M  V30 2943 C 286.53 -3.05763 -5.46132 0
M  V30 2944 H 286.763 -2.07471 -2.1294 0
M  V30 2945 H 284.296 -1.15936 -1.01972 0
M  V30 2946 H 286.254 -0.509306 -4.07328 0
M  V30 2947 H 284.915 0.187123 -3.13542 0
M  V30 2948 H 284.108 -1.50574 -4.80982 0
M  V30 2949 H 283.71 -2.01315 -3.15195 0
M  V30 2950 H 286.002 -2.54686 -6.27807 0
M  V30 2951 H 286.945 -4.00635 -5.83864 0
M  V30 2952 H 287.353 -2.43192 -5.09429 0
M  V30 2953 N 286.751 1.08385 -1.14413 0
M  V30 2954 C 287.714 2.13486 -0.834048 0
M  V30 2955 C 288.714 1.59988 0.161418 0
M  V30 2956 O 289.904 1.74071 -0.0669575 0
M  V30 2957 C 287.036 3.4003 -0.243354 0
M  V30 2958 H 288.229 2.42425 -1.7655 0
M  V30 2959 H 285.782 1.24101 -0.950189 0
M  V30 2960 H 286.517 3.16726 0.696807 0
M  V30 2961 H 286.302 3.80157 -0.960367 0
M  V30 2962 H 287.792 4.17577 -0.0436242 0
M  V30 2963 N 288.23 0.939286 1.26551 0
M  V30 2964 C 289.177 0.446088 2.26448 0
M  V30 2965 C 290.147 -0.493234 1.58608 0
M  V30 2966 O 291.332 -0.409857 1.86346 0
M  V30 2967 C 288.472 -0.284375 3.43926 0
M  V30 2968 C 287.585 0.690399 4.26448 0
M  V30 2969 C 286.72 -0.0610712 5.31165 0
M  V30 2970 C 285.759 0.905649 6.05363 0
M  V30 2971 N 284.896 0.186055 7.01853 0
M  V30 2972 H 289.736 1.30291 2.68008 0
M  V30 2973 H 287.273 0.65371 1.31776 0
M  V30 2974 H 289.231 -0.724313 4.10864 0
M  V30 2975 H 287.861 -1.10535 3.03285 0
M  V30 2976 H 286.913 1.24885 3.59316 0
M  V30 2977 H 288.225 1.42873 4.779 0
M  V30 2978 H 287.379 -0.56038 6.04106 0
M  V30 2979 H 286.118 -0.832297 4.80546 0
M  V30 2980 H 285.123 1.4161 5.3125 0
M  V30 2981 H 286.348 1.67685 6.58072 0
M  V30 2982 H 284.294 -0.566714 6.53548 0
M  V30 2983 H 284.211 0.863752 7.51049 0
M  V30 2984 H 285.479 -0.292221 7.78952 0
M  V30 2985 N 289.708 -1.40897 0.706093 0
M  V30 2986 C 290.938 -2.05075 0.250523 0
M  V30 2987 C 291.346 -1.53275 -1.10921 0
M  V30 2988 O 290.689 -0.680281 -1.7064 0
M  V30 2989 C 290.751 -3.59219 0.142178 0
M  V30 2990 C 290.415 -4.33864 1.43566 0
M  V30 2991 C 291.412 -4.62448 2.37566 0
M  V30 2992 C 289.097 -4.72946 1.69195 0
M  V30 2993 C 291.091 -5.29088 3.5545 0
M  V30 2994 C 288.778 -5.3932 2.87362 0
M  V30 2995 C 289.776 -5.6732 3.80312 0
M  V30 2996 O 289.464 -6.32325 4.96408 0
M  V30 2997 H 289.196 -0.666645 0.112074 0
M  V30 2998 H 291.75 -1.81467 0.962239 0
M  V30 2999 H 289.98 -3.81609 -0.6254 0
M  V30 3000 H 291.669 -4.0495 -0.277584 0
M  V30 3001 H 292.435 -4.32727 2.19027 0
M  V30 3002 H 288.314 -4.50527 0.977042 0
M  V30 3003 H 291.858 -5.50859 4.28018 0
M  V30 3004 H 287.755 -5.68461 3.05814 0
M  V30 3005 H 288.523 -6.50821 4.9636 0
M  V30 3006 N 291.186 -0.45159 -1.50991 0
M  V30 3007 C 292.602 -0.104647 -1.59257 0
M  V30 3008 C 292.802 1.38728 -1.4614 0
M  V30 3009 O 291.858 2.15866 -1.30989 0
M  V30 3010 C 293.171 -0.637468 -2.93865 0
M  V30 3011 C 294.719 -0.599166 -3.07212 0
M  V30 3012 C 295.194 -1.1092 -4.44366 0
M  V30 3013 N 296.685 -1.06778 -4.50725 0
M  V30 3014 C 297.42 -1.43314 -5.55201 0
M  V30 3015 N 296.916 -1.87204 -6.67028 0
M  V30 3016 N 298.709 -1.3504 -5.45638 0
M  V30 3017 H 290.86 -1.42214 -1.57762 0
M  V30 3018 H 293.123 -0.586921 -0.744465 0
M  V30 3019 H 292.829 -1.68187 -3.08879 0
M  V30 3020 H 292.703 -0.0702139 -3.77135 0
M  V30 3021 H 295.09 0.436277 -2.91857 0
M  V30 3022 H 295.171 -1.20299 -2.25747 0
M  V30 3023 H 294.815 -2.14318 -4.60467 0
M  V30 3024 H 294.745 -0.481773 -5.24392 0
M  V30 3025 H 297.236 -0.745643 -3.70471 0
M  V30 3026 H 297.549 -2.13282 -7.42786 0
M  V30 3027 H 295.894 -1.91142 -6.68199 0
M  V30 3028 H 299.085 -1.00607 -4.57161 0
M  V30 3029 H 299.258 -1.63841 -6.26945 0
M  V30 3030 N 292.664 1.56529 -0.183458 0
M  V30 3031 C 294.08 1.58664 0.172554 0
M  V30 3032 C 294.28 1.19925 1.61926 0
M  V30 3033 O 293.336 0.916534 2.35278 0
M  V30 3034 C 294.649 3.00463 -0.119262 0
M  V30 3035 C 296.197 3.12945 -0.0584396 0
M  V30 3036 C 296.672 4.56857 -0.323408 0
M  V30 3037 N 298.163 4.62403 -0.271612 0
M  V30 3038 C 298.898 5.71626 -0.450639 0
M  V30 3039 N 298.394 6.89362 -0.689384 0
M  V30 3040 N 300.187 5.60775 -0.385701 0
M  V30 3041 H 292.338 1.79994 -1.12765 0
M  V30 3042 H 294.601 0.834808 -0.449222 0
M  V30 3043 H 294.307 3.33326 -1.12192 0
M  V30 3044 H 294.181 3.72659 0.583544 0
M  V30 3045 H 296.568 2.79902 0.934805 0
M  V30 3046 H 296.649 2.4316 -0.794144 0
M  V30 3047 H 296.293 4.9061 -1.31392 0
M  V30 3048 H 296.223 5.24816 0.43305 0
M  V30 3049 H 298.714 3.77785 -0.0932256 0
M  V30 3050 H 299.027 7.68489 -0.815113 0
M  V30 3051 H 297.372 6.91196 -0.726142 0
M  V30 3052 H 300.563 4.67674 -0.199687 0
M  V30 3053 H 300.736 6.4584 -0.528646 0
M  V30 3054 N 294.142 -0.090211 1.57342 0
M  V30 3055 C 295.075 -1.14035 1.97664 0
M  V30 3056 C 296.053 -1.38576 0.850616 0
M  V30 3057 O 297.237 -1.52255 1.11134 0
M  V30 3058 C 294.364 -2.48854 2.2976 0
M  V30 3059 C 293.41 -2.40564 3.52181 0
M  V30 3060 S 294.243 -1.81745 5.03715 0
M  V30 3061 C 295.399 -3.18178 5.38993 0
M  V30 3062 H 295.632 -0.796636 2.86428 0
M  V30 3063 H 293.165 -0.298072 1.51496 0
M  V30 3064 H 295.123 -3.26413 2.48927 0
M  V30 3065 H 293.784 -2.80393 1.41558 0
M  V30 3066 H 292.977 -3.39942 3.72096 0
M  V30 3067 H 292.579 -1.71135 3.32549 0
M  V30 3068 H 294.871 -4.14461 5.35937 0
M  V30 3069 H 295.814 -3.03062 6.39968 0
M  V30 3070 H 296.222 -3.17935 4.66452 0
M  V30 3071 N 295.62 -1.53406 -0.361157 0
M  V30 3072 C 296.845 -1.74024 -1.12829 0
M  V30 3073 C 297.27 -0.470069 -1.82132 0
M  V30 3074 O 296.628 0.57619 -1.719 0
M  V30 3075 C 296.676 -2.90903 -2.13091 0
M  V30 3076 O 295.78 -2.59821 -3.20261 0
M  V30 3077 H 295.121 -0.577804 -0.327168 0
M  V30 3078 H 297.651 -2.00307 -0.41693 0
M  V30 3079 H 297.661 -3.17194 -2.56616 0
M  V30 3080 H 296.336 -3.83034 -1.62042 0
M  V30 3081 H 294.913 -2.44362 -2.81677 0
M  V30 3082 N 297.098 0.621204 -1.44841 0
M  V30 3083 C 298.346 1.37783 -1.47852 0
M  V30 3084 C 298.667 1.94653 -0.116224 0
M  V30 3085 O 297.937 1.76367 0.852737 0
M  V30 3086 H 296.517 0.511453 -0.544449 0
M  V30 3087 H 299.179 0.730446 -1.80694 0
M  V30 3088 H 298.275 2.20414 -2.20961 0
M  V30 3089 N 298.576 1.31904 0.862503 0
M  V30 3090 C 299.822 1.22197 1.61851 0
M  V30 3091 C 300.155 -0.217641 1.92977 0
M  V30 3092 O 299.43 -1.15264 1.56666 0
M  V30 3093 C 299.713 2.07378 2.94391 0
M  V30 3094 C 299.566 3.59678 2.70096 0
M  V30 3095 C 300.885 1.92891 3.95577 0
M  V30 3096 H 298.004 0.445255 0.587296 0
M  V30 3097 H 300.646 1.6177 0.99651 0
M  V30 3098 H 298.796 1.73758 3.47477 0
M  V30 3099 H 300.468 4.03472 2.23625 0
M  V30 3100 H 298.711 3.82735 2.04197 0
M  V30 3101 H 299.382 4.14595 3.64438 0
M  V30 3102 H 301.858 2.22327 3.51724 0
M  V30 3103 H 300.734 2.54781 4.86187 0
M  V30 3104 H 300.995 0.894315 4.3296 0
M  V30 3105 N 300.054 -1.07777 1.14986 0
M  V30 3106 C 301.47 -1.32373 0.891596 0
M  V30 3107 C 301.67 -1.9609 -0.463788 0
M  V30 3108 O 300.726 -2.21801 -1.20667 0
M  V30 3109 C 302.039 -2.21905 2.02925 0
M  V30 3110 C 303.587 -2.35367 2.06329 0
M  V30 3111 C 304.062 -3.28245 3.19405 0
M  V30 3112 N 305.553 -3.35824 3.19024 0
M  V30 3113 C 306.288 -4.07739 4.03158 0
M  V30 3114 N 305.784 -4.82306 4.97346 0
M  V30 3115 N 307.577 -4.03635 3.91197 0
M  V30 3116 H 299.728 -0.648039 2.02273 0
M  V30 3117 H 301.991 -0.348149 0.881757 0
M  V30 3118 H 301.697 -1.82342 3.0074 0
M  V30 3119 H 301.571 -3.22407 1.95789 0
M  V30 3120 H 303.958 -2.74186 1.09116 0
M  V30 3121 H 304.039 -1.34585 2.17533 0
M  V30 3122 H 303.683 -2.90146 4.16867 0
M  V30 3123 H 303.613 -4.28971 3.05437 0
M  V30 3124 H 306.104 -2.8267 2.50811 0
M  V30 3125 H 306.417 -5.34661 5.57994 0
M  V30 3126 H 304.762 -4.81337 5.01338 0
M  V30 3127 H 307.953 -3.44491 3.16928 0
M  V30 3128 H 308.126 -4.59417 4.5699 0
M  V30 3129 N 301.532 -0.945985 -1.26051 0
M  V30 3130 C 302.943 -0.638096 -1.75457 0
M  V30 3131 C 303.294 0.846672 -1.76991 0
M  V30 3132 O 302.419 1.66262 -1.38513 0
M  V30 3133 C 303.014 -1.15157 -3.18629 0
M  V30 3134 C 301.573 -0.894004 -3.65629 0
M  V30 3135 C 300.72 -1.29967 -2.44957 0
M  V30 3136 H 303.671 -1.12376 -1.1206 0
M  V30 3137 H 303.692 -0.507615 -3.77099 0
M  V30 3138 H 303.204 -2.23222 -3.1748 0
M  V30 3139 H 301.305 0.172057 -3.72203 0
M  V30 3140 H 301.418 -1.52439 -4.54202 0
M  V30 3141 H 299.782 -0.718078 -2.44368 0
M  V30 3142 H 300.565 -2.38935 -2.46505 0
M  V30 3143 N 303.011 1.40521 -0.713556 0
M  V30 3144 C 303.943 2.29191 -0.0203126 0
M  V30 3145 C 304.956 1.45723 0.725864 0
M  V30 3146 O 306.145 1.69033 0.573581 0
M  V30 3147 C 303.245 3.2395 0.995486 0
M  V30 3148 C 302.418 4.36262 0.315256 0
M  V30 3149 C 301.477 5.11474 1.23616 0
M  V30 3150 O 300.503 5.64606 0.721719 0
M  V30 3151 N 301.705 5.20638 2.56743 0
M  V30 3152 H 304.47 2.89327 -0.781652 0
M  V30 3153 H 302.031 1.51869 -0.561022 0
M  V30 3154 H 304.023 3.71137 1.61368 0
M  V30 3155 H 302.593 2.64995 1.6582 0
M  V30 3156 H 301.813 3.91228 -0.483106 0
M  V30 3157 H 303.101 5.08558 -0.157004 0
M  V30 3158 H 302.499 4.7895 3.01037 0
M  V30 3159 H 301.056 5.71339 3.13712 0
M  V30 3160 N 304.489 0.459591 1.5075 0
M  V30 3161 C 305.714 -0.0996819 2.0716 0
M  V30 3162 C 306.139 -1.33761 1.32249 0
M  V30 3163 O 305.497 -1.77551 0.366786 0
M  V30 3164 C 305.545 -0.378226 3.58611 0
M  V30 3165 O 304.649 -1.46081 3.85661 0
M  V30 3166 H 303.99 0.00791392 0.663953 0
M  V30 3167 H 306.52 0.647329 1.9409 0
M  V30 3168 H 306.53 -0.622135 4.03229 0
M  V30 3169 H 305.205 0.526439 4.12555 0
M  V30 3170 H 303.782 -1.20511 3.5289 0
M  V30 3171 N 305.967 -1.56429 0.191757 0
M  V30 3172 C 307.214 -1.97485 -0.447891 0
M  V30 3173 C 307.542 -1.07852 -1.61859 0
M  V30 3174 O 306.797 -0.116903 -1.95351 0
M  V30 3175 C 307.096 -3.44449 -0.953384 0
M  V30 3176 C 306.762 -4.50781 0.103586 0
M  V30 3177 C 305.424 -4.79584 0.394023 0
M  V30 3178 C 307.776 -5.1471 0.819946 0
M  V30 3179 C 305.104 -5.69607 1.40585 0
M  V30 3180 C 307.456 -6.05827 1.8209 0
M  V30 3181 C 306.12 -6.32987 2.11857 0
M  V30 3182 H 305.39 -0.722648 -0.163895 0
M  V30 3183 H 308.037 -1.89322 0.28802 0
M  V30 3184 H 306.342 -3.49666 -1.76751 0
M  V30 3185 H 308.039 -3.73569 -1.45765 0
M  V30 3186 H 304.629 -4.28394 -0.132951 0
M  V30 3187 H 308.813 -4.92552 0.608789 0
M  V30 3188 H 304.069 -5.88926 1.64243 0
M  V30 3189 H 308.243 -6.54424 2.38123 0
M  V30 3190 H 305.87 -7.02544 2.90407 0
M  V30 3191 N 307.445 0.0818655 -1.57387 0
M  V30 3192 C 308.861 0.436412 -1.53517 0
M  V30 3193 C 309.061 1.79758 -0.910459 0
M  V30 3194 O 308.117 2.47324 -0.508636 0
M  V30 3195 C 309.43 0.386734 -2.98203 0
M  V30 3196 C 310.978 0.467644 -3.09487 0
M  V30 3197 C 311.453 0.447978 -4.55804 0
M  V30 3198 N 312.944 0.508348 -4.60402 0
M  V30 3199 C 313.679 0.515184 -5.71081 0
M  V30 3200 N 313.175 0.477435 -6.91153 0
M  V30 3201 N 314.968 0.560988 -5.59294 0
M  V30 3202 H 307.119 -0.809546 -1.96367 0
M  V30 3203 H 309.382 -0.302733 -0.898363 0
M  V30 3204 H 309.088 -0.546539 -3.47427 0
M  V30 3205 H 308.962 1.20075 -3.57578 0
M  V30 3206 H 311.349 1.39134 -2.60242 0
M  V30 3207 H 311.43 -0.374753 -2.5304 0
M  V30 3208 H 311.074 -0.471826 -5.05704 0
M  V30 3209 H 311.004 1.30777 -5.10103 0
M  V30 3210 H 313.495 0.54218 -3.7399 0
M  V30 3211 H 313.808 0.486299 -7.71268 0
M  V30 3212 H 312.153 0.444278 -6.93579 0
M  V30 3213 H 315.344 0.5881 -4.64391 0
M  V30 3214 H 315.517 0.562846 -6.45551 0
M  V30 3215 N 308.923 1.53595 0.353017 0
M  V30 3216 C 310.2 1.61002 1.11075 0
M  V30 3217 C 310.58 0.425356 2.0677 0
M  V30 3218 O 309.928 -0.583267 2.2093 0
M  V30 3219 C 310.138 2.96631 1.83877 0
M  V30 3220 C 311.486 3.51653 2.37961 0
M  V30 3221 O 312.51 2.98743 1.93987 0
M  V30 3222 O 311.369 4.44177 3.18386 0
M  V30 3223 H 308.463 0.650825 0.510251 0
M  V30 3224 H 311.009 1.6594 0.35527 0
M  V30 3225 H 309.781 3.74293 1.14108 0
M  V30 3226 H 309.404 2.95242 2.66304 0
M  V30 3227 N 310.401 -0.613514 1.45168 0
M  V30 3228 C 311.331 -1.7354 1.56225 0
M  V30 3229 C 312.312 -1.64981 0.41414 0
M  V30 3230 O 313.497 -1.83472 0.636526 0
M  V30 3231 C 310.627 -3.12128 1.52295 0
M  V30 3232 C 309.581 -3.35491 2.65762 0
M  V30 3233 C 308.907 -4.74291 2.46885 0
M  V30 3234 C 310.207 -3.26325 4.0781 0
M  V30 3235 H 311.901 -1.64543 2.50132 0
M  V30 3236 H 309.447 -0.790185 1.20383 0
M  V30 3237 H 311.4 -3.90404 1.58628 0
M  V30 3238 H 310.124 -3.2195 0.549139 0
M  V30 3239 H 308.783 -2.59603 2.58847 0
M  V30 3240 H 308.431 -4.80839 1.47657 0
M  V30 3241 H 308.131 -4.9088 3.22972 0
M  V30 3242 H 309.655 -5.54775 2.55063 0
M  V30 3243 H 311.069 -3.94483 4.16 0
M  V30 3244 H 309.466 -3.54445 4.8424 0
M  V30 3245 H 310.536 -2.23855 4.30136 0
M  V30 3246 N 311.879 -1.3236 -0.855495 0
M  V30 3247 C 312.789 -1.23221 -1.99634 0
M  V30 3248 C 313.805 -0.145983 -1.73387 0
M  V30 3249 O 314.981 -0.366502 -1.98037 0
M  V30 3250 C 312.046 -0.954782 -3.33294 0
M  V30 3251 C 311.107 -2.12937 -3.72769 0
M  V30 3252 C 310.34 -1.86508 -5.00051 0
M  V30 3253 O 310.563 -0.807231 -5.64659 0
M  V30 3254 O 309.497 -2.72591 -5.36636 0
M  V30 3255 H 313.323 -2.19126 -2.1028 0
M  V30 3256 H 310.908 -1.12241 -0.986018 0
M  V30 3257 H 312.79 -0.816519 -4.13414 0
M  V30 3258 H 311.465 -0.0258854 -3.2369 0
M  V30 3259 H 310.372 -2.3231 -2.93228 0
M  V30 3260 H 311.705 -3.04102 -3.87018 0
M  V30 3261 N 313.357 1.07166 -1.15556 0
M  V30 3262 C 314.585 1.83514 -0.955519 0
M  V30 3263 C 315 1.82163 0.49621 0
M  V30 3264 O 314.357 1.23441 1.34419 0
M  V30 3265 C 314.408 3.30515 -1.46432 0
M  V30 3266 O 314.129 3.31937 -2.85918 0
M  V30 3267 C 315.63 4.23625 -1.30603 0
M  V30 3268 H 312.85 0.578926 -0.339244 0
M  V30 3269 H 315.394 1.35265 -1.53374 0
M  V30 3270 H 313.549 3.76106 -0.928584 0
M  V30 3271 H 313.963 4.23794 -3.09029 0
M  V30 3272 H 315.437 5.24831 -1.71047 0
M  V30 3273 H 315.914 4.38485 -0.250441 0
M  V30 3274 H 316.52 3.83871 -1.83094 0
M  V30 3275 N 314.835 0.952656 1.25548 0
M  V30 3276 C 316.246 0.647392 1.75116 0
M  V30 3277 C 316.597 -0.837274 1.77438 0
M  V30 3278 O 315.722 -1.65525 1.39393 0
M  V30 3279 C 316.317 1.16845 3.18014 0
M  V30 3280 C 314.876 0.913382 3.6515 0
M  V30 3281 C 314.023 1.31265 2.44264 0
M  V30 3282 H 316.974 1.12968 1.11462 0
M  V30 3283 H 316.995 0.527606 3.76824 0
M  V30 3284 H 316.507 2.24902 3.16292 0
M  V30 3285 H 314.608 -0.152316 3.72289 0
M  V30 3286 H 314.721 1.54845 4.53387 0
M  V30 3287 H 313.085 0.731028 2.43984 0
M  V30 3288 H 313.868 2.40239 2.45234 0
M  V30 3289 N 316.313 -1.40141 0.720998 0
M  V30 3290 C 317.724 -1.83678 0.334553 0
M  V30 3291 C 318.075 -1.6027 -1.13173 0
M  V30 3292 O 317.2 -1.08643 -1.87152 0
M  V30 3293 C 317.795 -3.33437 0.600437 0
M  V30 3294 C 316.354 -3.75447 0.267642 0
M  V30 3295 C 315.501 -2.63296 0.870097 0
M  V30 3296 H 318.452 -1.29331 0.919732 0
M  V30 3297 H 318.473 -3.80269 -0.132517 0
M  V30 3298 H 317.985 -3.50442 1.66768 0
M  V30 3299 H 316.086 -3.64035 -0.794329 0
M  V30 3300 H 316.199 -4.73344 0.74042 0
M  V30 3301 H 314.563 -2.52954 0.297739 0
M  V30 3302 H 315.346 -2.83112 1.94172 0
M  V30 3303 N 317.792 -0.46758 -1.50504 0
M  V30 3304 C 318.742 0.34698 -2.25344 0
M  V30 3305 C 319.726 0.964469 -1.2879 0
M  V30 3306 O 320.918 0.8776 -1.53711 0
M  V30 3307 C 318.047 1.43042 -3.1208 0
M  V30 3308 C 317.133 0.82084 -4.16081 0
M  V30 3309 N 317.524 -0.0567602 -5.05768 0
M  V30 3310 C 315.822 1.08517 -4.32597 0
M  V30 3311 C 316.523 -0.402343 -5.80307 0
M  V30 3312 N 315.499 0.221607 -5.43148 0
M  V30 3313 H 319.301 -0.329129 -2.92051 0
M  V30 3314 H 316.815 -0.281508 -1.59942 0
M  V30 3315 H 318.812 2.02712 -3.64299 0
M  V30 3316 H 317.472 2.10856 -2.46921 0
M  V30 3317 H 318.483 -0.425349 -5.1615 0
M  V30 3318 H 315.16 1.75855 -3.78657 0
M  V30 3319 H 316.55 -1.11834 -6.62528 0
M  V30 3320 N 319.27 1.56325 -0.20005 0
M  V30 3321 C 320.516 1.98772 0.431408 0
M  V30 3322 C 320.871 1.0849 1.58895 0
M  V30 3323 O 320.164 0.130331 1.91156 0
M  V30 3324 C 320.358 3.4495 0.935103 0
M  V30 3325 C 320.187 4.49371 -0.172096 0
M  V30 3326 C 318.957 5.0134 -0.631377 0
M  V30 3327 C 321.155 5.04822 -0.982806 0
M  V30 3328 N 319.137 5.89433 -1.71588 0
M  V30 3329 C 320.508 5.89632 -1.91661 0
M  V30 3330 C 322.563 4.87242 -1.02467 0
M  V30 3331 C 321.266 6.58741 -2.88881 0
M  V30 3332 C 323.292 5.57094 -1.98494 0
M  V30 3333 C 322.654 6.41655 -2.90617 0
M  V30 3334 H 318.753 0.771922 0.125144 0
M  V30 3335 H 321.337 1.92266 -0.306883 0
M  V30 3336 H 319.508 3.51946 1.64282 0
M  V30 3337 H 321.24 3.74354 1.53758 0
M  V30 3338 H 317.995 4.73071 -0.223827 0
M  V30 3339 H 318.419 6.38182 -2.25948 0
M  V30 3340 H 323.061 4.21538 -0.326408 0
M  V30 3341 H 320.779 7.23641 -3.5968 0
M  V30 3342 H 324.365 5.45466 -2.0238 0
M  V30 3343 H 323.245 6.94755 -3.63711 0
M  V30 3344 N 320.748 -0.0735177 1.57428 0
M  V30 3345 C 321.711 -1.07192 2.02589 0
M  V30 3346 C 322.711 -1.31695 0.922661 0
M  V30 3347 O 323.901 -1.27445 1.18758 0
M  V30 3348 C 321.033 -2.41599 2.40506 0
M  V30 3349 H 322.226 -0.682727 2.92025 0
M  V30 3350 H 319.779 -0.319193 1.53006 0
M  V30 3351 H 320.514 -2.85354 1.5409 0
M  V30 3352 H 320.299 -2.25156 3.21009 0
M  V30 3353 H 321.789 -3.13367 2.76027 0
M  V30 3354 N 322.226 -1.5378 -0.344866 0
M  V30 3355 C 323.189 -1.80981 -1.40637 0
M  V30 3356 C 324.189 -0.680816 -1.45676 0
M  V30 3357 O 325.379 -0.949095 -1.46075 0
M  V30 3358 C 322.511 -1.95063 -2.79577 0
M  V30 3359 H 323.704 -2.75803 -1.17783 0
M  V30 3360 H 321.257 -1.45173 -0.579181 0
M  V30 3361 H 321.992 -1.02379 -3.07716 0
M  V30 3362 H 321.777 -2.77198 -2.77315 0
M  V30 3363 H 323.267 -2.17629 -3.56409 0
M  V30 3364 N 323.704 0.605807 -1.45491 0
M  V30 3365 C 324.934 1.38934 -1.52908 0
M  V30 3366 C 325.342 1.88513 -0.161086 0
M  V30 3367 O 324.685 1.62962 0.847891 0
M  V30 3368 C 324.747 2.62737 -2.45376 0
M  V30 3369 C 324.411 2.34785 -3.92078 0
M  V30 3370 C 325.408 1.95038 -4.8193 0
M  V30 3371 C 323.093 2.47642 -4.37011 0
M  V30 3372 C 325.087 1.68511 -6.14722 0
M  V30 3373 C 322.774 2.20728 -5.69844 0
M  V30 3374 C 323.772 1.81225 -6.58519 0
M  V30 3375 O 323.46 1.54627 -7.88889 0
M  V30 3376 H 323.192 0.431629 -0.520262 0
M  V30 3377 H 325.746 0.74573 -1.91384 0
M  V30 3378 H 323.976 3.29824 -2.01874 0
M  V30 3379 H 325.665 3.24783 -2.43456 0
M  V30 3380 H 326.431 1.84639 -4.48479 0
M  V30 3381 H 322.31 2.77356 -3.68232 0
M  V30 3382 H 325.854 1.37602 -6.83894 0
M  V30 3383 H 321.751 2.30744 -6.02849 0
M  V30 3384 H 322.519 1.68665 -8.00933 0
M  V30 3385 N 325.182 1.32811 0.848464 0
M  V30 3386 C 326.459 1.14334 1.58704 0
M  V30 3387 C 326.839 -0.293948 2.09043 0
M  V30 3388 O 326.187 -1.29153 1.88499 0
M  V30 3389 C 326.397 2.17626 2.72837 0
M  V30 3390 C 327.745 2.51282 3.42261 0
M  V30 3391 O 328.769 2.16219 2.83068 0
M  V30 3392 O 327.628 3.11413 4.49093 0
M  V30 3393 H 324.722 0.441601 0.699226 0
M  V30 3394 H 327.268 1.44362 0.892053 0
M  V30 3395 H 326.04 3.14211 2.3321 0
M  V30 3396 H 325.663 1.88628 3.50008 0
M  V30 3397 N 326.66 -1.06551 1.16123 0
M  V30 3398 C 327.888 -1.83005 0.965237 0
M  V30 3399 C 328.303 -1.82423 -0.486542 0
M  V30 3400 O 327.66 -1.24152 -1.33763 0
M  V30 3401 C 327.711 -3.29733 1.48183 0
M  V30 3402 O 327.432 -3.30416 2.87674 0
M  V30 3403 C 328.933 -4.22926 1.32848 0
M  V30 3404 H 326.153 -0.577118 0.342309 0
M  V30 3405 H 328.697 -1.3445 1.54089 0
M  V30 3406 H 326.852 -3.75609 0.948517 0
M  V30 3407 H 327.266 -4.22149 3.11272 0
M  V30 3408 H 328.74 -5.23916 1.73827 0
M  V30 3409 H 329.217 -4.38346 0.273692 0
M  V30 3410 H 329.823 -3.82894 1.85127 0
M  V30 3411 N 328.138 -0.959301 -1.25041 0
M  V30 3412 C 329.386 -0.615393 -1.92503 0
M  V30 3413 C 329.707 0.850969 -1.75452 0
M  V30 3414 O 328.977 1.60658 -1.12098 0
M  V30 3415 H 327.557 -0.224613 -0.712431 0
M  V30 3416 H 330.219 -1.21855 -1.5211 0
M  V30 3417 H 329.315 -0.848738 -3.00338 0
M  V30 3418 N 329.616 1.39756 -0.72842 0
M  V30 3419 C 330.546 2.33289 -0.0991354 0
M  V30 3420 C 331.527 1.53568 0.731489 0
M  V30 3421 O 332.712 1.81987 0.677807 0
M  V30 3422 C 329.842 3.3763 0.813834 0
M  V30 3423 C 328.796 4.2791 0.0878663 0
M  V30 3424 C 328.122 5.22894 1.11741 0
M  V30 3425 C 329.422 5.11314 -1.06563 0
M  V30 3426 H 331.116 2.86163 -0.880408 0
M  V30 3427 H 328.662 1.37591 -0.424819 0
M  V30 3428 H 330.615 4.0201 1.26355 0
M  V30 3429 H 329.339 2.83181 1.62715 0
M  V30 3430 H 327.998 3.65 -0.342159 0
M  V30 3431 H 327.646 4.64744 1.92412 0
M  V30 3432 H 327.346 5.84143 0.636477 0
M  V30 3433 H 328.87 5.90151 1.56697 0
M  V30 3434 H 330.284 5.69076 -0.694671 0
M  V30 3435 H 328.681 5.81671 -1.47577 0
M  V30 3436 H 329.751 4.46534 -1.89038 0
M  V30 3437 N 331.094 0.475555 1.50254 0
M  V30 3438 C 332.004 -0.321501 2.32387 0
M  V30 3439 C 333.02 -0.991755 1.42969 0
M  V30 3440 O 334.196 -0.978747 1.76018 0
M  V30 3441 C 331.261 -1.38667 3.17762 0
M  V30 3442 C 330.322 -0.732538 4.23004 0
M  V30 3443 C 329.555 -1.74695 5.04299 0
M  V30 3444 O 329.778 -2.97399 4.86734 0
M  V30 3445 O 328.712 -1.31631 5.8733 0
M  V30 3446 H 332.538 0.350071 3.01676 0
M  V30 3447 H 330.123 0.237321 1.47503 0
M  V30 3448 H 332.005 -2.00354 3.70724 0
M  V30 3449 H 330.68 -2.04163 2.51196 0
M  V30 3450 H 329.587 -0.0765902 3.74022 0
M  V30 3451 H 330.92 -0.120452 4.92053 0
M  V30 3452 N 332.573 -1.56217 0.208337 0
M  V30 3453 C 333.503 -2.22694 -0.702116 0
M  V30 3454 C 334.484 -1.19432 -1.2112 0
M  V30 3455 O 335.669 -1.47978 -1.25762 0
M  V30 3456 C 332.799 -2.8966 -1.9161 0
M  V30 3457 C 331.753 -3.9928 -1.5414 0
M  V30 3458 C 331.079 -4.53476 -2.83308 0
M  V30 3459 C 332.379 -5.17012 -0.741339 0
M  V30 3460 H 334.073 -2.99034 -0.147898 0
M  V30 3461 H 331.619 -1.43831 -0.0696951 0
M  V30 3462 H 333.572 -3.34852 -2.55836 0
M  V30 3463 H 332.296 -2.10746 -2.49507 0
M  V30 3464 H 330.955 -3.54799 -0.922668 0
M  V30 3465 H 330.603 -3.71308 -3.39322 0
M  V30 3466 H 330.303 -5.27451 -2.58976 0
M  V30 3467 H 331.827 -5.01378 -3.485 0
M  V30 3468 H 333.241 -5.58667 -1.28699 0
M  V30 3469 H 331.638 -5.97137 -0.595627 0
M  V30 3470 H 332.708 -4.8423 0.254851 0
M  V30 3471 N 334.051 0.0651679 -1.57465 0
M  V30 3472 C 334.981 1.07693 -2.07182 0
M  V30 3473 C 335.962 1.39962 -0.966673 0
M  V30 3474 O 337.147 1.49475 -1.2398 0
M  V30 3475 C 334.277 2.3885 -2.52127 0
M  V30 3476 C 333.231 2.20917 -3.66579 0
M  V30 3477 C 332.557 3.57515 -3.97601 0
M  V30 3478 C 333.857 1.62493 -4.9638 0
M  V30 3479 H 335.551 0.663199 -2.91962 0
M  V30 3480 H 333.097 0.317569 -1.40455 0
M  V30 3481 H 335.05 3.09928 -2.85522 0
M  V30 3482 H 333.774 2.82215 -1.64384 0
M  V30 3483 H 332.433 1.52279 -3.33477 0
M  V30 3484 H 332.081 3.98463 -3.06979 0
M  V30 3485 H 331.781 3.46353 -4.74672 0
M  V30 3486 H 333.305 4.30013 -4.33499 0
M  V30 3487 H 334.719 2.23445 -5.27963 0
M  V30 3488 H 333.116 1.62009 -5.77818 0
M  V30 3489 H 334.186 0.587041 -4.81333 0
M  V30 3490 N 335.529 1.53961 0.336706 0
M  V30 3491 C 336.777 1.71197 1.07405 0
M  V30 3492 C 337.098 0.481475 1.88962 0
M  V30 3493 O 336.368 -0.504585 1.8929 0
M  V30 3494 H 334.948 0.631185 0.399517 0
M  V30 3495 H 337.61 1.91232 0.376323 0
M  V30 3496 H 336.706 2.58587 1.74755 0
M  V30 3497 N 337.007 -0.598083 1.45811 0
M  V30 3498 C 338.423 -0.919847 1.30426 0
M  V30 3499 C 338.623 -1.99759 0.264303 0
M  V30 3500 O 337.679 -2.50221 -0.338472 0
M  V30 3501 C 338.992 -1.35176 2.68603 0
M  V30 3502 C 340.54 -1.46546 2.76574 0
M  V30 3503 C 341.015 -1.9311 4.15298 0
M  V30 3504 N 342.506 -2.00328 4.1764 0
M  V30 3505 C 343.241 -2.37599 5.21856 0
M  V30 3506 N 342.737 -2.73771 6.36413 0
M  V30 3507 N 344.53 -2.38021 5.09218 0
M  V30 3508 H 336.681 0.114111 2.12093 0
M  V30 3509 H 338.944 -0.0116121 0.947929 0
M  V30 3510 H 338.65 -0.633969 3.45939 0
M  V30 3511 H 338.524 -2.3164 2.97696 0
M  V30 3512 H 340.911 -2.17415 1.99537 0
M  V30 3513 H 340.992 -0.483727 2.51185 0
M  V30 3514 H 340.636 -1.22824 4.92825 0
M  V30 3515 H 340.566 -2.92213 4.38086 0
M  V30 3516 H 343.057 -1.74925 3.34977 0
M  V30 3517 H 343.37 -3.0112 7.11721 0
M  V30 3518 H 341.715 -2.71445 6.39799 0
M  V30 3519 H 344.906 -2.09174 4.18765 0
M  V30 3520 H 345.079 -2.66741 5.90554 0
M  V30 3521 N 338.485 -1.33259 -0.841409 0
M  V30 3522 C 339.417 -1.19136 -1.95804 0
M  V30 3523 C 340.43 -0.122965 -1.62335 0
M  V30 3524 O 341.619 -0.373154 -1.74556 0
M  V30 3525 C 338.719 -0.804268 -3.29218 0
M  V30 3526 C 337.892 -1.96376 -3.90839 0
M  V30 3527 C 336.951 -1.55806 -5.02604 0
M  V30 3528 O 335.977 -2.27203 -5.21888 0
M  V30 3529 N 337.179 -0.461609 -5.78662 0
M  V30 3530 H 339.944 -2.15326 -2.08458 0
M  V30 3531 H 337.505 -1.25971 -1.017 0
M  V30 3532 H 339.497 -0.51501 -4.0141 0
M  V30 3533 H 338.067 0.0668809 -3.12528 0
M  V30 3534 H 337.287 -2.41879 -3.11269 0
M  V30 3535 H 338.575 -2.73966 -4.28742 0
M  V30 3536 H 337.973 0.132343 -5.65545 0
M  V30 3537 H 336.53 -0.232013 -6.51387 0
M  V30 3538 N 339.963 1.05934 -1.16686 0
M  V30 3539 C 340.873 2.17014 -0.891183 0
M  V30 3540 C 341.889 1.73453 0.137907 0
M  V30 3541 O 343.065 2.01361 -0.039592 0
M  V30 3542 C 340.13 3.44384 -0.400099 0
M  V30 3543 C 339.191 4.02433 -1.49486 0
M  V30 3544 C 338.424 5.23723 -1.02711 0
M  V30 3545 O 338.647 5.7027 0.121716 0
M  V30 3546 O 337.581 5.7382 -1.81699 0
M  V30 3547 H 341.407 2.43113 -1.82015 0
M  V30 3548 H 338.992 1.15541 -0.947132 0
M  V30 3549 H 340.874 4.21189 -0.133392 0
M  V30 3550 H 339.549 3.19802 0.500817 0
M  V30 3551 H 338.456 3.27102 -1.81535 0
M  V30 3552 H 339.789 4.31317 -2.37121 0
M  V30 3553 N 341.441 0.965919 1.2453 0
M  V30 3554 C 342.404 0.499547 2.2369 0
M  V30 3555 C 343.404 -0.40294 1.5567 0
M  V30 3556 O 344.594 -0.19865 1.73064 0
M  V30 3557 C 341.726 -0.276792 3.39774 0
M  V30 3558 H 342.919 1.37613 2.66463 0
M  V30 3559 H 340.472 0.750324 1.37112 0
M  V30 3560 H 341.207 -1.17055 3.02438 0
M  V30 3561 H 340.992 0.370826 3.90343 0
M  V30 3562 H 342.482 -0.592175 4.1338 0
M  V30 3563 N 342.919 -1.39368 0.735821 0
M  V30 3564 C 344.167 -2.00101 0.283562 0
M  V30 3565 C 344.488 -1.5868 -1.13338 0
M  V30 3566 O 343.758 -0.835423 -1.77193 0
M  V30 3567 H 342.338 -0.740024 0.101851 0
M  V30 3568 H 345 -1.70404 0.945962 0
M  V30 3569 H 344.096 -3.10323 0.332604 0
M  V30 3570 N 344.397 -0.483516 -1.5 0
M  V30 3571 C 345.327 0.293829 -2.31644 0
M  V30 3572 C 346.308 0.978864 -1.39112 0
M  V30 3573 O 347.493 0.973644 -1.68029 0
M  V30 3574 C 344.623 1.36897 -3.19181 0
M  V30 3575 C 343.577 0.804833 -4.20365 0
M  V30 3576 C 342.903 1.9792 -4.96721 0
M  V30 3577 C 344.203 -0.192313 -5.21946 0
M  V30 3578 H 345.897 -0.387616 -2.9688 0
M  V30 3579 H 343.443 -0.187856 -1.42769 0
M  V30 3580 H 345.396 1.92037 -3.751 0
M  V30 3581 H 344.12 2.07936 -2.51853 0
M  V30 3582 H 342.779 0.275319 -3.65565 0
M  V30 3583 H 342.427 2.67686 -4.25856 0
M  V30 3584 H 342.127 1.60789 -5.65173 0
M  V30 3585 H 343.651 2.53526 -5.55479 0
M  V30 3586 H 345.065 0.270333 -5.72662 0
M  V30 3587 H 343.462 -0.478543 -5.98189 0
M  V30 3588 H 344.532 -1.11409 -4.71928 0
M  V30 3589 N 345.875 1.56104 -0.216619 0
M  V30 3590 C 346.838 2.18819 0.681962 0
M  V30 3591 C 347.838 1.14866 1.12528 0
M  V30 3592 O 349.028 1.40128 1.03488 0
M  V30 3593 C 346.16 2.80756 1.93362 0
M  V30 3594 H 347.353 2.99595 0.135254 0
M  V30 3595 H 344.906 1.56265 0.0330003 0
M  V30 3596 H 345.641 2.03837 2.52232 0
M  V30 3597 H 345.426 3.56876 1.62426 0
M  V30 3598 H 346.916 3.28844 2.57393 0
M  V30 3599 N 347.353 -0.0568162 1.57498 0
M  V30 3600 C 348.283 -1.06593 2.0775 0
M  V30 3601 C 349.264 -1.39448 0.974082 0
M  V30 3602 O 350.449 -1.48815 1.24771 0
M  V30 3603 C 347.579 -2.37509 2.5339 0
M  V30 3604 C 346.533 -2.1897 3.67745 0
M  V30 3605 C 345.859 -3.55402 3.99492 0
M  V30 3606 C 347.159 -1.59859 4.97235 0
M  V30 3607 H 348.853 -0.647706 2.9231 0
M  V30 3608 H 346.399 -0.310116 1.40621 0
M  V30 3609 H 348.352 -3.08409 2.87162 0
M  V30 3610 H 347.076 -2.8134 1.65878 0
M  V30 3611 H 345.735 -1.50508 3.3428 0
M  V30 3612 H 345.383 -3.9683 3.09088 0
M  V30 3613 H 345.083 -3.43831 4.76502 0
M  V30 3614 H 346.607 -4.27708 4.35773 0
M  V30 3615 H 348.021 -2.20642 5.29141 0
M  V30 3616 H 346.418 -1.58942 5.78669 0
M  V30 3617 H 347.488 -0.561506 4.81638 0
M  V30 3618 N 348.832 -1.54138 -0.328536 0
M  V30 3619 C 350.243 -1.63395 -0.903272 0
M  V30 3620 C 350.594 -0.524828 -1.8905 0
M  V30 3621 O 349.719 0.343068 -2.13663 0
M  V30 3622 C 350.314 -2.9618 -1.64507 0
M  V30 3623 C 348.873 -3.0765 -2.1686 0
M  V30 3624 C 348.02 -2.58933 -0.992416 0
M  V30 3625 H 350.971 -1.58344 -0.106253 0
M  V30 3626 H 350.992 -2.86061 -2.50897 0
M  V30 3627 H 350.504 -3.76884 -0.926302 0
M  V30 3628 H 348.605 -2.31611 -2.91868 0
M  V30 3629 H 348.718 -4.1337 -2.42202 0
M  V30 3630 H 347.082 -2.14706 -1.37016 0
M  V30 3631 H 347.865 -3.42089 -0.288041 0
M  V30 3632 N 350.31 0.590341 -1.46126 0
M  V30 3633 C 351.726 0.912917 -1.30912 0
M  V30 3634 C 351.926 1.99616 -0.274893 0
M  V30 3635 O 350.982 2.50397 0.325197 0
M  V30 3636 C 352.295 1.3375 -2.69317 0
M  V30 3637 C 353.843 1.45077 -2.77348 0
M  V30 3638 C 354.318 1.90904 -4.16317 0
M  V30 3639 N 355.809 1.9811 -4.18696 0
M  V30 3640 C 356.544 2.34828 -5.23109 0
M  V30 3641 N 356.04 2.70393 -6.37856 0
M  V30 3642 N 357.833 2.35317 -5.10473 0
M  V30 3643 H 349.984 -0.125358 -2.1203 0
M  V30 3644 H 352.247 0.00658481 -0.947977 0
M  V30 3645 H 351.953 0.615614 -3.4627 0
M  V30 3646 H 351.827 2.30058 -2.9892 0
M  V30 3647 H 354.214 2.16353 -2.00687 0
M  V30 3648 H 354.295 0.4704 -2.51438 0
M  V30 3649 H 353.939 1.20209 -4.9347 0
M  V30 3650 H 353.869 2.89886 -4.39629 0
M  V30 3651 H 356.36 1.73146 -3.359 0
M  V30 3652 H 356.673 2.97341 -7.13308 0
M  V30 3653 H 355.018 2.68048 -6.41229 0
M  V30 3654 H 358.209 2.0695 -4.19868 0
M  V30 3655 H 358.382 2.63605 -5.9196 0
M  V30 3656 N 351.788 1.33704 0.83433 0
M  V30 3657 C 352.718 1.26967 1.95963 0
M  V30 3658 C 353.699 0.149337 1.69443 0
M  V30 3659 O 354.884 0.339852 1.91203 0
M  V30 3660 C 352.014 1.01275 3.32206 0
M  V30 3661 C 350.968 2.09652 3.73136 0
M  V30 3662 C 350.294 1.69166 5.07235 0
M  V30 3663 C 351.594 3.51372 3.86439 0
M  V30 3664 H 353.288 2.2112 2.01857 0
M  V30 3665 H 350.834 1.06447 0.969793 0
M  V30 3666 H 352.787 0.952106 4.10503 0
M  V30 3667 H 351.511 0.0356203 3.26581 0
M  V30 3668 H 350.17 2.14766 2.97104 0
M  V30 3669 H 349.818 0.701437 4.98085 0
M  V30 3670 H 349.518 2.41694 5.35591 0
M  V30 3671 H 351.042 1.64576 5.88003 0
M  V30 3672 H 352.456 3.48734 4.55036 0
M  V30 3673 H 350.853 4.22425 4.26236 0
M  V30 3674 H 351.923 3.89546 2.88759 0
M  V30 3675 N 353.266 -1.05314 1.17247 0
M  V30 3676 C 354.176 -2.16538 0.90268 0
M  V30 3677 C 355.192 -1.73523 -0.128707 0
M  V30 3678 O 356.368 -2.01337 0.0502701 0
M  V30 3679 C 353.433 -3.44167 0.418356 0
M  V30 3680 C 352.494 -4.01635 1.51618 0
M  V30 3681 C 351.727 -5.23171 1.05487 0
M  V30 3682 O 351.95 -5.70327 -0.0914715 0
M  V30 3683 O 350.884 -5.72848 1.8474 0
M  V30 3684 H 354.71 -2.42145 1.83302 0
M  V30 3685 H 352.295 -1.15037 0.953246 0
M  V30 3686 H 354.177 -4.21112 0.155726 0
M  V30 3687 H 352.852 -3.20063 -0.48385 0
M  V30 3688 H 351.759 -3.26135 1.83268 0
M  V30 3689 H 353.092 -4.30053 2.39405 0
M  V30 3690 N 354.744 -0.972509 -1.24016 0
M  V30 3691 C 355.654 -0.5143 -2.28893 0
M  V30 3692 C 356.67 0.427078 -1.68677 0
M  V30 3693 O 357.846 0.298939 -1.99169 0
M  V30 3694 C 354.911 0.183598 -3.46214 0
M  V30 3695 C 353.972 -0.798202 -4.21814 0
M  V30 3696 C 353.205 -0.133514 -5.33533 0
M  V30 3697 O 353.428 1.07714 -5.60137 0
M  V30 3698 O 352.362 -0.828103 -5.96176 0
M  V30 3699 H 356.188 -1.38629 -2.70214 0
M  V30 3700 H 353.773 -0.739769 -1.29799 0
M  V30 3701 H 355.655 0.575433 -4.17453 0
M  V30 3702 H 354.33 1.03048 -3.0686 0
M  V30 3703 H 353.237 -1.24059 -3.52931 0
M  V30 3704 H 354.57 -1.61364 -4.64997 0
M  V30 3705 N 356.222 1.38976 -0.743202 0
M  V30 3706 C 357.185 2.28901 -0.117014 0
M  V30 3707 C 358.185 1.46698 0.658503 0
M  V30 3708 O 359.375 1.67274 0.486305 0
M  V30 3709 C 356.507 3.30309 0.84315 0
M  V30 3710 H 357.7 2.8578 -0.909373 0
M  V30 3711 H 355.253 1.47761 -0.509547 0
M  V30 3712 H 355.988 2.785 1.66157 0
M  V30 3713 H 355.773 3.91029 0.289594 0
M  V30 3714 H 357.263 3.97577 1.2776 0
M  V30 3715 N 357.7 0.491464 1.49741 0
M  V30 3716 C 358.63 -0.28154 2.31796 0
M  V30 3717 C 359.611 -0.971473 1.3963 0
M  V30 3718 O 360.796 -0.964719 1.68543 0
M  V30 3719 C 357.926 -1.35203 3.19902 0
M  V30 3720 C 356.88 -0.782529 4.20786 0
M  V30 3721 C 356.206 -1.95283 4.97764 0
M  V30 3722 C 357.506 0.21999 5.21837 0
M  V30 3723 H 359.2 0.403355 2.96671 0
M  V30 3724 H 356.746 0.195425 1.42668 0
M  V30 3725 H 358.699 -1.90045 3.76113 0
M  V30 3726 H 357.423 -2.06598 2.52953 0
M  V30 3727 H 356.082 -0.255928 3.65706 0
M  V30 3728 H 355.73 -2.65423 4.2727 0
M  V30 3729 H 355.43 -1.57789 5.66018 0
M  V30 3730 H 356.954 -2.50577 5.56816 0
M  V30 3731 H 358.368 -0.23996 5.72798 0
M  V30 3732 H 356.765 0.51026 5.97927 0
M  V30 3733 H 357.835 1.13911 4.7133 0
M  V30 3734 N 359.178 -1.55987 0.224894 0
M  V30 3735 C 360.11 -2.17722 -0.716224 0
M  V30 3736 C 361.123 -1.14723 -1.15509 0
M  V30 3737 O 362.312 -1.41688 -1.08567 0
M  V30 3738 C 359.412 -2.74873 -1.98238 0
M  V30 3739 C 358.585 -4.03074 -1.69853 0
M  V30 3740 C 357.644 -4.44757 -2.81208 0
M  V30 3741 O 356.67 -5.11587 -2.49534 0
M  V30 3742 N 357.872 -4.10716 -4.10235 0
M  V30 3743 H 360.637 -2.99109 -0.188123 0
M  V30 3744 H 358.198 -1.6184 0.0440123 0
M  V30 3745 H 360.19 -2.99727 -2.7193 0
M  V30 3746 H 358.76 -1.9777 -2.42086 0
M  V30 3747 H 357.98 -3.86041 -0.797875 0
M  V30 3748 H 359.268 -4.86701 -1.48324 0
M  V30 3749 H 358.666 -3.57019 -4.38809 0
M  V30 3750 H 357.223 -4.40455 -4.80461 0
M  V30 3751 N 360.656 0.0484629 -1.57525 0
M  V30 3752 C 361.904 0.741657 -1.88 0
M  V30 3753 C 362.225 1.76918 -0.820054 0
M  V30 3754 O 361.495 1.95335 0.148661 0
M  V30 3755 H 360.075 0.276908 -0.69378 0
M  V30 3756 H 362.737 0.019013 -1.94891 0
M  V30 3757 H 361.833 1.24336 -2.86264 0
M  V30 3758 N 362.134 1.5431 0.320358 0
M  V30 3759 C 363.359 1.76954 1.08175 0
M  V30 3760 C 363.784 0.518193 1.80821 0
M  V30 3761 O 363.142 -0.530411 1.73368 0
M  V30 3762 C 363.19 2.96451 2.05303 0
M  V30 3763 O 362.294 2.68221 3.13259 0
M  V30 3764 H 361.635 0.586275 0.311733 0
M  V30 3765 H 364.165 2.01342 0.363676 0
M  V30 3766 H 364.175 3.23887 2.48116 0
M  V30 3767 H 362.85 3.87196 1.51829 0
M  V30 3768 H 361.427 2.51744 2.75099 0
M  V30 3769 N 363.613 -0.582584 1.46437 0
M  V30 3770 C 364.543 -1.70187 1.59871 0
M  V30 3771 C 365.524 -1.64066 0.449042 0
M  V30 3772 O 366.709 -1.82081 0.6753 0
M  V30 3773 C 363.839 -3.08827 1.58881 0
M  V30 3774 C 362.793 -3.29779 2.72819 0
M  V30 3775 C 362.119 -4.68947 2.5689 0
M  V30 3776 C 363.419 -3.17601 4.1464 0
M  V30 3777 H 365.113 -1.592 2.53566 0
M  V30 3778 H 362.659 -0.764472 1.22032 0
M  V30 3779 H 364.612 -3.86951 1.66873 0
M  V30 3780 H 363.336 -3.20713 0.617306 0
M  V30 3781 H 361.995 -2.54054 2.64296 0
M  V30 3782 H 361.643 -4.77599 1.57823 0
M  V30 3783 H 361.343 -4.83919 3.33312 0
M  V30 3784 H 362.867 -5.4924 2.66773 0
M  V30 3785 H 364.281 -3.8557 4.24274 0
M  V30 3786 H 362.678 -3.44094 4.9165 0
M  V30 3787 H 363.748 -2.14681 4.34788 0
M  V30 3788 N 365.091 -1.34144 -0.827227 0
M  V30 3789 C 366.054 -1.25264 -1.91942 0
M  V30 3790 C 367.054 -0.168866 -1.59911 0
M  V30 3791 O 368.244 -0.421198 -1.69031 0
M  V30 3792 C 365.376 -0.932952 -3.27885 0
M  V30 3793 H 366.569 -2.22357 -2.0124 0
M  V30 3794 H 364.122 -1.1837 -1.0207 0
M  V30 3795 H 364.857 0.0349917 -3.24281 0
M  V30 3796 H 364.642 -1.71682 -3.52516 0
M  V30 3797 H 366.132 -0.895874 -4.07877 0
M  V30 3798 N 366.569 1.04691 -1.17803 0
M  V30 3799 C 367.501 2.12571 -0.857097 0
M  V30 3800 C 368.514 1.62174 0.142647 0
M  V30 3801 O 369.703 1.78301 -0.0843387 0
M  V30 3802 C 366.803 3.37915 -0.258216 0
M  V30 3803 C 365.976 4.1757 -1.30207 0
M  V30 3804 C 365.035 5.2125 -0.720029 0
M  V30 3805 O 364.061 5.51888 -1.39314 0
M  V30 3806 N 365.263 5.78466 0.485507 0
M  V30 3807 H 368.028 2.40698 -1.78562 0
M  V30 3808 H 365.589 1.20831 -1.07757 0
M  V30 3809 H 367.581 4.04442 0.144584 0
M  V30 3810 H 366.151 3.07281 0.574199 0
M  V30 3811 H 365.371 3.46458 -1.88043 0
M  V30 3812 H 366.659 4.67586 -2.00601 0
M  V30 3813 H 366.057 5.55866 1.05022 0
M  V30 3814 H 364.614 6.4649 0.830307 0
M  V30 3815 N 368.047 0.979072 1.23499 0
M  V30 3816 C 368.98 0.463027 2.23453 0
M  V30 3817 C 369.958 -0.469128 1.55685 0
M  V30 3818 O 371.142 -0.397882 1.84253 0
M  V30 3819 C 368.269 -0.330308 3.37086 0
M  V30 3820 C 367.315 0.545795 4.22993 0
M  V30 3821 S 368.148 1.99285 4.97037 0
M  V30 3822 C 369.304 1.20862 6.1412 0
M  V30 3823 H 369.537 1.31005 2.6688 0
M  V30 3824 H 367.07 0.784965 1.32957 0
M  V30 3825 H 369.028 -0.782027 4.02982 0
M  V30 3826 H 367.689 -1.15244 2.92194 0
M  V30 3827 H 366.882 -0.0638928 5.03959 0
M  V30 3828 H 366.484 0.933705 3.62157 0
M  V30 3829 H 368.776 0.469284 6.75873 0
M  V30 3830 H 369.719 1.99307 6.79472 0
M  V30 3831 H 370.127 0.727992 5.59786 0
M  V30 3832 N 369.525 -1.3858 0.750561 0
M  V30 3833 C 370.435 -2.34278 0.122825 0
M  V30 3834 C 371.451 -1.59116 -0.704131 0
M  V30 3835 O 372.627 -1.91326 -0.628987 0
M  V30 3836 C 369.692 -3.38221 -0.762086 0
M  V30 3837 C 368.753 -4.29227 0.078896 0
M  V30 3838 C 367.986 -5.28205 -0.763874 0
M  V30 3839 O 368.209 -5.34112 -2.00201 0
M  V30 3840 O 367.143 -6.01618 -0.18428 0
M  V30 3841 H 370.969 -2.89649 0.913088 0
M  V30 3842 H 368.554 -1.40374 0.511417 0
M  V30 3843 H 370.436 -4.01872 -1.26793 0
M  V30 3844 H 369.111 -2.85211 -1.5309 0
M  V30 3845 H 368.018 -3.68747 0.630621 0
M  V30 3846 H 369.351 -4.85484 0.810289 0
M  V30 3847 N 371.003 -0.499398 -1.49478 0
M  V30 3848 C 372.228 0.044722 -2.07352 0
M  V30 3849 C 372.653 1.30207 -1.35749 0
M  V30 3850 O 372.011 1.76516 -0.413732 0
M  V30 3851 C 372.059 0.283013 -3.59488 0
M  V30 3852 O 371.163 1.35804 -3.89398 0
M  V30 3853 H 370.504 -0.0255147 -0.66351 0
M  V30 3854 H 373.034 -0.698561 -1.92305 0
M  V30 3855 H 373.044 0.515007 -4.04737 0
M  V30 3856 H 371.719 -0.635636 -4.11014 0
M  V30 3857 H 370.296 1.11113 -3.55961 0
M  V30 3858 N 372.481 1.55866 -0.233164 0
M  V30 3859 C 373.721 2.00506 0.397078 0
M  V30 3860 C 374.085 1.1176 1.56121 0
M  V30 3861 O 375.286 1.45796 2.25825 0
M  V30 3862 C 373.557 3.4811 0.809601 0
M  V30 3863 S 375.116 4.14765 1.43231 0
M  V30 3864 H 371.934 0.699828 0.125547 0
M  V30 3865 H 374.536 1.92429 -0.345177 0
M  V30 3866 H 373.24 4.10373 -0.0471601 0
M  V30 3867 H 372.771 3.60085 1.58438 0
M  V30 3868 H 374.786 4.14914 2.7214 0
M  V30 3869 N 373.959 -0.0401083 1.57549 0
M  V30 3870 C 375.375 -0.395556 1.54621 0
M  V30 3871 C 375.575 -1.77281 0.957799 0
M  V30 3872 O 374.631 -2.45888 0.574031 0
M  V30 3873 C 375.944 -0.307535 2.99123 0
M  V30 3874 C 377.492 -0.385425 3.10618 0
M  V30 3875 C 377.967 -0.326973 4.56831 0
M  V30 3876 N 379.458 -0.386102 4.61588 0
M  V30 3877 C 380.193 -0.363591 5.72246 0
M  V30 3878 N 379.689 -0.29402 6.92176 0
M  V30 3879 N 381.482 -0.412503 5.60584 0
M  V30 3880 H 373.633 0.861325 1.94152 0
M  V30 3881 H 375.896 0.326445 0.890021 0
M  V30 3882 H 375.602 0.638461 3.45856 0
M  V30 3883 H 375.476 -1.10552 3.60636 0
M  V30 3884 H 377.863 -1.32185 2.63839 0
M  V30 3885 H 377.944 0.44171 2.51957 0
M  V30 3886 H 377.588 0.605738 5.04275 0
M  V30 3887 H 377.518 -1.17207 5.13391 0
M  V30 3888 H 380.009 -0.442832 3.75296 0
M  V30 3889 H 380.322 -0.28164 7.72287 0
M  V30 3890 H 378.667 -0.260232 6.94513 0
M  V30 3891 H 381.858 -0.464769 4.65787 0
M  V30 3892 H 382.031 -0.391492 6.46816 0
M  V30 3893 N 375.437 -1.54477 -0.31217 0
M  V30 3894 C 376.4 -1.83923 -1.36766 0
M  V30 3895 C 377.4 -0.711563 -1.44199 0
M  V30 3896 O 378.59 -0.979866 -1.44029 0
M  V30 3897 C 375.722 -2.0095 -2.75376 0
M  V30 3898 H 376.915 -2.78239 -1.11906 0
M  V30 3899 H 374.468 -1.46369 -0.548257 0
M  V30 3900 H 375.203 -1.08883 -3.05475 0
M  V30 3901 H 374.988 -2.83018 -2.71373 0
M  V30 3902 H 376.478 -2.2514 -3.51713 0
M  V30 3903 N 376.915 0.57481 -1.46744 0
M  V30 3904 C 378.192 1.3352 -1.4294 0
M  V30 3905 C 378.572 2.10775 -0.117009 0
M  V30 3906 O 377.92 2.09966 0.901474 0
M  V30 3907 C 378.13 2.25456 -2.66403 0
M  V30 3908 C 379.478 2.87035 -3.12883 0
M  V30 3909 O 380.502 2.35766 -2.67007 0
M  V30 3910 O 379.361 3.80179 -3.92589 0
M  V30 3911 H 376.455 0.600318 -0.568812 0
M  V30 3912 H 379.001 0.595171 -1.58921 0
M  V30 3913 H 377.773 1.67851 -3.53471 0
M  V30 3914 H 377.396 3.06785 -2.52921 0
M  V30 3915 N 378.394 1.34581 0.820102 0
M  V30 3916 C 379.634 1.28448 1.58998 0
M  V30 3917 C 379.998 -0.142883 1.91468 0
M  V30 3918 O 381.199 -0.328422 2.66786 0
M  V30 3919 C 379.47 2.153 2.85273 0
M  V30 3920 S 381.029 2.26548 3.75794 0
M  V30 3921 H 377.847 0.456685 0.54494 0
M  V30 3922 H 380.449 1.69825 0.968487 0
M  V30 3923 H 379.153 3.18008 2.59421 0
M  V30 3924 H 378.684 1.7483 3.52417 0
M  V30 3925 H 380.699 1.44034 4.74835 0
M  V30 3926 N 379.872 -1.04064 1.18357 0
M  V30 3927 C 380.782 -2.15569 0.925596 0
M  V30 3928 C 381.798 -1.7365 -0.110295 0
M  V30 3929 O 382.974 -2.01273 0.0716218 0
M  V30 3930 C 380.039 -3.43704 0.454836 0
M  V30 3931 C 379.1 -4.00004 1.55869 0
M  V30 3932 C 378.333 -5.22023 1.1103 0
M  V30 3933 O 378.556 -5.70392 -0.0309756 0
M  V30 3934 O 377.49 -5.70856 1.90805 0
M  V30 3935 H 381.316 -2.40187 1.8586 0
M  V30 3936 H 378.901 -1.1402 0.965394 0
M  V30 3937 H 380.783 -4.20923 0.200382 0
M  V30 3938 H 379.458 -3.20559 -0.449876 0
M  V30 3939 H 378.365 -3.24172 1.86716 0
M  V30 3940 H 379.698 -4.2749 2.43953 0
M  V30 3941 N 381.35 -0.985608 -1.22978 0
M  V30 3942 C 382.598 -0.656087 -1.91154 0
M  V30 3943 C 382.919 0.813561 -1.77218 0
M  V30 3944 O 382.189 1.58244 -1.1548 0
M  V30 3945 H 380.769 -0.239674 -0.707506 0
M  V30 3946 H 383.431 -1.25054 -1.49491 0
M  V30 3947 H 382.527 -0.912253 -2.9847 0
M  V30 3948 N 382.828 1.3818 -0.7579 0
M  V30 3949 C 384.239 1.82726 -0.383134 0
M  V30 3950 C 384.59 1.63214 1.08884 0
M  V30 3951 O 383.715 1.13566 1.84205 0
M  V30 3952 C 384.31 3.31728 -0.688631 0
M  V30 3953 C 382.869 3.74606 -0.367091 0
M  V30 3954 C 382.016 2.60896 -0.939599 0
M  V30 3955 H 384.967 1.26847 -0.953699 0
M  V30 3956 H 384.988 3.80487 0.0316492 0
M  V30 3957 H 384.5 3.45898 -1.76001 0
M  V30 3958 H 382.601 3.66013 0.697532 0
M  V30 3959 H 382.714 4.71215 -0.865658 0
M  V30 3960 H 381.078 2.52075 -0.3647 0
M  V30 3961 H 381.861 2.77864 -2.0161 0
M  V30 3962 N 384.306 0.507319 1.49211 0
M  V30 3963 C 385.216 -0.272136 2.33016 0
M  V30 3964 C 386.232 -0.961206 1.45041 0
M  V30 3965 O 387.408 -0.941191 1.78055 0
M  V30 3966 C 384.473 -1.31895 3.20631 0
M  V30 3967 C 383.534 -0.642648 4.24463 0
M  V30 3968 C 382.767 -1.63959 5.07891 0
M  V30 3969 O 382.99 -2.87007 4.92933 0
M  V30 3970 O 381.924 -1.19143 5.8999 0
M  V30 3971 H 385.75 0.413982 3.00865 0
M  V30 3972 H 383.335 0.268556 1.46966 0
M  V30 3973 H 385.217 -1.92446 3.7489 0
M  V30 3974 H 383.892 -1.98788 2.5547 0
M  V30 3975 H 382.799 0.00276252 3.741 0
M  V30 3976 H 384.132 -0.0160534 4.92197 0
M  V30 3977 N 385.784 -1.5574 0.241426 0
M  V30 3978 C 386.694 -2.2479 -0.671305 0
M  V30 3979 C 387.71 -1.26217 -1.19772 0
M  V30 3980 O 388.886 -1.59079 -1.23514 0
M  V30 3981 C 385.951 -2.92966 -1.85396 0
M  V30 3982 C 385.012 -4.06935 -1.36756 0
M  V30 3983 C 384.245 -4.71851 -2.49384 0
M  V30 3984 O 384.468 -4.35823 -3.67987 0
M  V30 3985 O 383.402 -5.60467 -2.19454 0
M  V30 3986 H 387.228 -3.0349 -0.112966 0
M  V30 3987 H 384.813 -1.49397 0.0101513 0
M  V30 3988 H 386.695 -3.35927 -2.54423 0
M  V30 3989 H 385.37 -2.17211 -2.40002 0
M  V30 3990 H 384.277 -3.68503 -0.644726 0
M  V30 3991 H 385.61 -4.84492 -0.867647 0
M  V30 3992 N 387.262 0.0317525 -1.57568 0
M  V30 3993 C 388.194 1.06073 -2.03178 0
M  V30 3994 C 389.207 1.32627 -0.944132 0
M  V30 3995 O 390.396 1.30162 -1.22148 0
M  V30 3996 C 387.496 2.40297 -2.38978 0
M  V30 3997 C 386.669 2.33137 -3.70089 0
M  V30 3998 C 385.728 3.49787 -3.9311 0
M  V30 3999 O 384.754 3.29403 -4.64201 0
M  V30 4000 N 385.956 4.71562 -3.38541 0
M  V30 4001 H 388.721 0.672006 -2.92069 0
M  V30 4002 H 386.282 0.219745 -1.60402 0
M  V30 4003 H 388.274 3.1705 -2.51518 0
M  V30 4004 H 386.844 2.71024 -1.55771 0
M  V30 4005 H 386.064 1.415 -3.67928 0
M  V30 4006 H 387.352 2.25493 -4.56104 0
M  V30 4007 H 386.75 4.91024 -2.80912 0
M  V30 4008 H 385.307 5.45689 -3.56464 0
M  V30 4009 N 388.74 1.54641 0.303973 0
M  V30 4010 C 389.672 1.81754 1.39636 0
M  V30 4011 C 390.685 0.70035 1.46966 0
M  V30 4012 O 391.874 0.97778 1.49338 0
M  V30 4013 C 388.974 1.93785 2.7803 0
M  V30 4014 C 388.147 3.24156 2.93669 0
M  V30 4015 C 387.206 3.26641 4.12544 0
M  V30 4016 O 386.232 4.00187 4.04771 0
M  V30 4017 N 387.434 2.5182 5.23036 0
M  V30 4018 H 390.199 2.76031 1.16734 0
M  V30 4019 H 387.76 1.54178 0.494033 0
M  V30 4020 H 389.752 1.92852 3.55795 0
M  V30 4021 H 388.322 1.06515 2.93893 0
M  V30 4022 H 387.542 3.37887 2.03042 0
M  V30 4023 H 388.83 4.10195 3.01027 0
M  V30 4024 H 388.228 1.91692 5.32232 0
M  V30 4025 H 386.785 2.56644 5.99147 0
M  V30 4026 N 390.218 -0.567019 1.47046 0
M  V30 4027 C 391.466 -1.322 1.52864 0
M  V30 4028 C 391.787 -1.94088 0.188388 0
M  V30 4029 O 391.057 -1.7941 -0.786693 0
M  V30 4030 H 389.637 -0.490894 0.563056 0
M  V30 4031 H 392.299 -0.662879 1.83281 0
M  V30 4032 H 391.395 -2.12062 2.2899 0
M  V30 4033 N 391.696 -1.35014 -0.812953 0
M  V30 4034 C 392.659 -1.27292 -1.90602 0
M  V30 4035 C 393.659 -0.185817 -1.59723 0
M  V30 4036 O 394.849 -0.439102 -1.68575 0
M  V30 4037 C 391.981 -0.967676 -3.26877 0
M  V30 4038 H 393.174 -2.24479 -1.9887 0
M  V30 4039 H 390.727 -1.19446 -1.00808 0
M  V30 4040 H 391.462 0.0005954 -3.243 0
M  V30 4041 H 391.247 -1.75412 -3.50675 0
M  V30 4042 H 392.737 -0.939085 -4.06904 0
M  V30 4043 N 393.175 1.03435 -1.18907 0
M  V30 4044 C 394.085 2.15075 -0.937015 0
M  V30 4045 C 395.101 1.73706 0.101085 0
M  V30 4046 O 396.277 2.01232 -0.0822948 0
M  V30 4047 C 393.342 3.43458 -0.473057 0
M  V30 4048 C 392.403 3.99172 -1.57989 0
M  V30 4049 C 391.636 5.21427 -1.13797 0
M  V30 4050 O 391.859 5.704 0.000725941 0
M  V30 4051 O 390.793 5.69837 -1.9383 0
M  V30 4052 H 394.619 2.39198 -1.87131 0
M  V30 4053 H 392.204 1.13506 -0.971427 0
M  V30 4054 H 394.086 4.20811 -0.222702 0
M  V30 4055 H 392.761 3.20793 0.432869 0
M  V30 4056 H 391.668 3.23178 -1.88433 0
M  V30 4057 H 393.001 4.2619 -2.46217 0
M  V30 4058 N 394.653 0.992116 1.22453 0
M  V30 4059 C 395.563 0.55065 2.28046 0
M  V30 4060 C 396.579 -0.400189 1.69335 0
M  V30 4061 O 397.755 -0.267215 1.99619 0
M  V30 4062 C 394.82 -0.128496 3.46462 0
M  V30 4063 C 393.881 0.865208 4.20491 0
M  V30 4064 C 393.114 0.218377 5.33253 0
M  V30 4065 O 393.337 -0.987894 5.6178 0
M  V30 4066 O 392.271 0.922845 5.94783 0
M  V30 4067 H 396.097 1.4291 2.67975 0
M  V30 4068 H 393.682 0.760326 1.28606 0
M  V30 4069 H 395.564 -0.508947 4.18315 0
M  V30 4070 H 394.239 -0.981526 3.0846 0
M  V30 4071 H 393.146 1.29658 3.50913 0
M  V30 4072 H 394.479 1.68741 4.62371 0
M  V30 4073 N 396.131 -1.37776 0.765217 0
M  V30 4074 C 397.041 -2.34135 0.147666 0
M  V30 4075 C 398.057 -1.59854 -0.687215 0
M  V30 4076 O 399.233 -1.91983 -0.608659 0
M  V30 4077 C 396.298 -3.3901 -0.72617 0
M  V30 4078 C 395.359 -4.2912 0.124417 0
M  V30 4079 C 394.592 -5.28986 -0.707807 0
M  V30 4080 O 394.815 -5.36205 -1.94525 0
M  V30 4081 O 393.749 -6.01779 -0.12046 0
M  V30 4082 H 397.575 -2.88664 0.943758 0
M  V30 4083 H 395.16 -1.39824 0.526277 0
M  V30 4084 H 397.042 -4.03195 -1.22524 0
M  V30 4085 H 395.717 -2.86819 -1.50056 0
M  V30 4086 H 394.624 -3.68057 0.669696 0
M  V30 4087 H 395.957 -4.84598 0.861736 0
M  V30 4088 N 397.609 -0.515225 -1.4894 0
M  V30 4089 C 398.519 0.259774 -2.33157 0
M  V30 4090 C 399.535 0.953501 -1.45548 0
M  V30 4091 O 400.711 0.931735 -1.78552 0
M  V30 4092 C 397.776 1.30193 -3.21326 0
M  V30 4093 C 396.837 0.620129 -4.24797 0
M  V30 4094 C 396.07 1.61263 -5.08753 0
M  V30 4095 O 396.293 2.84389 -4.94448 0
M  V30 4096 O 395.227 1.16013 -5.90614 0
M  V30 4097 H 399.053 -0.429932 -3.00641 0
M  V30 4098 H 396.638 -0.276346 -1.46822 0
M  V30 4099 H 398.52 1.90455 -3.75905 0
M  V30 4100 H 397.195 1.97431 -2.56521 0
M  V30 4101 H 396.102 -0.0226019 -3.74093 0
M  V30 4102 H 397.435 -0.0100493 -4.92199 0
M  V30 4103 N 399.087 1.5561 -0.249682 0
M  V30 4104 C 400.364 1.90932 0.424761 0
M  V30 4105 C 400.744 1.17078 1.75658 0
M  V30 4106 O 400.092 0.289176 2.26663 0
M  V30 4107 C 400.302 3.43975 0.590109 0
M  V30 4108 C 401.65 4.15281 0.884714 0
M  V30 4109 O 402.674 3.49729 0.67587 0
M  V30 4110 O 401.533 5.31236 1.28259 0
M  V30 4111 H 398.627 0.794815 0.228468 0
M  V30 4112 H 401.173 1.67135 -0.293954 0
M  V30 4113 H 399.945 3.89748 -0.34818 0
M  V30 4114 H 399.568 3.73644 1.35926 0
M  V30 4115 N 400.565 -0.0233959 1.57583 0
M  V30 4116 C 401.813 -0.711654 1.89156 0
M  V30 4117 C 402.134 -1.75591 0.848096 0
M  V30 4118 O 401.404 -1.95547 -0.117566 0
M  V30 4119 H 399.984 -0.265835 0.698098 0
M  V30 4120 H 402.646 0.0119948 1.94896 0
M  V30 4121 H 401.742 -1.19766 2.88206 0
M  V30 4122 N 402.043 -1.548 -0.295768 0
M  V30 4123 C 403.006 -1.85363 -1.34808 0
M  V30 4124 C 404.006 -0.726817 -1.43436 0
M  V30 4125 O 405.196 -0.995088 -1.42981 0
M  V30 4126 C 402.328 -2.03859 -2.73229 0
M  V30 4127 H 403.521 -2.7941 -1.08949 0
M  V30 4128 H 401.074 -1.46942 -0.532702 0
M  V30 4129 H 401.809 -1.12117 -3.04303 0
M  V30 4130 H 401.594 -2.8588 -2.68356 0
M  V30 4131 H 403.084 -2.28857 -3.49305 0
M  V30 4132 N 403.521 0.559213 -1.47345 0
M  V30 4133 C 404.484 1.64854 -1.59235 0
M  V30 4134 C 405.484 1.53851 -0.467607 0
M  V30 4135 O 406.674 1.58045 -0.732617 0
M  V30 4136 C 403.806 3.04388 -1.53496 0
M  V30 4137 H 404.999 1.55662 -2.56339 0
M  V30 4138 H 402.552 0.778973 -1.35505 0
M  V30 4139 H 403.287 3.19115 -0.577604 0
M  V30 4140 H 403.072 3.13783 -2.35123 0
M  V30 4141 H 404.562 3.83642 -1.6495 0
M  V30 4142 N 404.999 1.35443 0.805782 0
M  V30 4143 C 406.224 1.32037 1.59941 0
M  V30 4144 C 406.649 -0.0994215 1.87837 0
M  V30 4145 O 406.007 -1.06648 1.46615 0
M  V30 4146 C 406.055 2.13354 2.90711 0
M  V30 4147 O 405.159 1.5148 3.83572 0
M  V30 4148 H 404.5 0.452666 0.485787 0
M  V30 4149 H 407.03 1.78496 1.00002 0
M  V30 4150 H 407.04 2.25338 3.40128 0
M  V30 4151 H 405.715 3.16572 2.69732 0
M  V30 4152 H 404.292 1.4834 3.42125 0
M  V30 4153 N 406.477 -1.02803 1.19454 0
M  V30 4154 C 407.409 -2.11181 0.890807 0
M  V30 4155 C 408.422 -1.6238 -0.116829 0
M  V30 4156 O 409.611 -1.78144 0.112694 0
M  V30 4157 C 406.711 -3.37461 0.311942 0
M  V30 4158 C 405.884 -4.15446 1.36834 0
M  V30 4159 C 404.943 -5.20039 0.802864 0
M  V30 4160 O 403.969 -5.49602 1.48077 0
M  V30 4161 N 405.171 -5.79165 -0.393417 0
M  V30 4162 H 407.936 -2.37827 1.82369 0
M  V30 4163 H 405.497 -1.19101 1.09666 0
M  V30 4164 H 407.489 -4.0462 -0.0802225 0
M  V30 4165 H 406.059 -3.08156 -0.52524 0
M  V30 4166 H 405.279 -3.43423 1.93531 0
M  V30 4167 H 406.567 -4.64335 2.08015 0
M  V30 4168 H 405.965 -5.57466 -0.961658 0
M  V30 4169 H 404.522 -6.47729 -0.727351 0
M  V30 4170 N 407.956 -0.998596 -1.21925 0
M  V30 4171 C 409.204 -0.676325 -1.90448 0
M  V30 4172 C 409.525 0.794719 -1.78071 0
M  V30 4173 O 408.795 1.5701 -1.17152 0
M  V30 4174 H 407.375 -0.247165 -0.704925 0
M  V30 4175 H 410.037 -1.26633 -1.48156 0
M  V30 4176 H 409.133 -0.943858 -2.97486 0
M  V30 4177 N 409.434 1.37368 -0.772513 0
M  V30 4178 C 410.682 1.99279 -0.336516 0
M  V30 4179 C 411.003 1.6163 1.09091 0
M  V30 4180 O 410.273 0.882109 1.74916 0
M  V30 4181 H 408.853 0.737063 -0.121435 0
M  V30 4182 H 411.515 1.67836 -0.990809 0
M  V30 4183 H 410.611 3.09332 -0.414763 0
M  V30 4184 N 410.912 0.523116 1.48665 0
M  V30 4185 C 411.842 -0.23231 2.32342 0
M  V30 4186 C 412.823 -0.941637 1.41659 0
M  V30 4187 O 414.008 -0.928751 1.70552 0
M  V30 4188 C 411.138 -1.28387 3.22698 0
M  V30 4189 C 410.092 -0.693098 4.22351 0
M  V30 4190 C 409.418 -1.8468 5.01794 0
M  V30 4191 C 410.718 0.33063 5.21252 0
M  V30 4192 H 412.412 0.466192 2.95748 0
M  V30 4193 H 409.958 0.225643 1.42221 0
M  V30 4194 H 411.911 -1.82024 3.80059 0
M  V30 4195 H 410.635 -2.01186 2.57278 0
M  V30 4196 H 409.294 -0.178299 3.66166 0
M  V30 4197 H 408.942 -2.56301 4.32804 0
M  V30 4198 H 408.642 -1.45747 5.69238 0
M  V30 4199 H 410.166 -2.38709 5.62006 0
M  V30 4200 H 411.58 -0.118407 5.73178 0
M  V30 4201 H 409.977 0.636974 5.9671 0
M  V30 4202 H 411.047 1.23883 4.68808 0
M  V30 4203 N 412.39 -1.55475 0.257931 0
M  V30 4204 C 413.62 -2.03314 -0.367026 0
M  V30 4205 C 414.028 -1.13625 -1.51281 0
M  V30 4206 O 413.371 -0.145334 -1.83124 0
M  V30 4207 C 413.433 -3.47362 -0.926284 0
M  V30 4208 C 413.097 -4.56914 0.0886584 0
M  V30 4209 C 414.094 -5.12013 0.902123 0
M  V30 4210 C 411.779 -5.01827 0.217936 0
M  V30 4211 C 413.773 -6.10529 1.83122 0
M  V30 4212 C 411.46 -6.00172 1.15052 0
M  V30 4213 C 412.458 -6.54402 1.95568 0
M  V30 4214 O 412.146 -7.50827 2.87253 0
M  V30 4215 H 411.878 -0.669976 -0.0900443 0
M  V30 4216 H 414.432 -2.01804 0.382673 0
M  V30 4217 H 412.662 -3.46056 -1.72575 0
M  V30 4218 H 414.351 -3.78637 -1.46249 0
M  V30 4219 H 415.117 -4.78139 0.812891 0
M  V30 4220 H 410.996 -4.59272 -0.398721 0
M  V30 4221 H 414.54 -6.52783 2.46008 0
M  V30 4222 H 410.437 -6.33465 1.24064 0
M  V30 4223 H 411.205 -7.68483 2.81739 0
M  V30 4224 N 413.868 0.0150385 -1.57593 0
M  V30 4225 C 414.778 1.02791 -2.10882 0
M  V30 4226 C 415.794 1.38702 -1.0506 0
M  V30 4227 O 416.97 1.47739 -1.36877 0
M  V30 4228 C 414.035 2.30568 -2.58919 0
M  V30 4229 C 413.096 2.01108 -3.79281 0
M  V30 4230 C 412.329 3.22794 -4.25018 0
M  V30 4231 O 412.552 4.33959 -3.70183 0
M  V30 4232 O 411.486 3.07672 -5.17322 0
M  V30 4233 H 415.312 0.604973 -2.97613 0
M  V30 4234 H 412.897 0.23292 -1.47573 0
M  V30 4235 H 414.779 3.05662 -2.90084 0
M  V30 4236 H 413.454 2.72129 -1.75293 0
M  V30 4237 H 412.361 1.23537 -3.53114 0
M  V30 4238 H 413.694 1.64394 -4.63935 0
M  V30 4239 N 415.346 1.54954 0.287554 0
M  V30 4240 C 416.309 1.86076 1.33823 0
M  V30 4241 C 417.309 0.734414 1.43049 0
M  V30 4242 O 418.499 1.00266 1.42452 0
M  V30 4243 C 415.631 2.05305 2.72144 0
M  V30 4244 H 416.824 2.79984 1.07465 0
M  V30 4245 H 414.377 1.47223 0.524902 0
M  V30 4246 H 415.112 1.1373 3.03704 0
M  V30 4247 H 414.897 2.873 2.66836 0
M  V30 4248 H 416.387 2.30706 3.48087 0
M  V30 4249 N 416.824 -0.551391 1.4764 0
M  V30 4250 C 418.073 -1.30467 1.53822 0
M  V30 4251 C 418.386 -1.94495 0.207661 0
M  V30 4252 O 419.592 -2.71099 0.147533 0
M  V30 4253 C 418.048 -2.36616 2.71184 0
M  V30 4254 C 417.656 -1.78754 4.10793 0
M  V30 4255 C 419.4 -3.13088 2.86663 0
M  V30 4256 C 417.307 -2.82717 5.19447 0
M  V30 4257 H 416.237 -0.490584 0.572576 0
M  V30 4258 H 418.888 -0.58494 1.73927 0
M  V30 4259 H 417.27 -3.11529 2.4447 0
M  V30 4260 H 418.444 -1.10173 4.47435 0
M  V30 4261 H 416.759 -1.14846 4.00249 0
M  V30 4262 H 419.356 -3.90736 3.65007 0
M  V30 4263 H 419.699 -3.67635 1.95321 0
M  V30 4264 H 420.232 -2.45288 3.13175 0
M  V30 4265 H 416.971 -2.33018 6.12685 0
M  V30 4266 H 416.491 -3.4969 4.87316 0
M  V30 4267 H 418.17 -3.46102 5.46646 0
M  V30 4268 N 418.302 -1.35869 -0.798587 0
M  V30 4269 C 419.265 -1.29307 -1.89242 0
M  V30 4270 C 420.265 -0.202747 -1.59517 0
M  V30 4271 O 421.455 -0.456957 -1.681 0
M  V30 4272 C 418.587 -1.00229 -3.25833 0
M  V30 4273 H 419.78 -2.26576 -1.96478 0
M  V30 4274 H 417.333 -1.20509 -0.995358 0
M  V30 4275 H 418.068 -0.033801 -3.24282 0
M  V30 4276 H 417.853 -1.79121 -3.48795 0
M  V30 4277 H 419.343 -0.98219 -4.05885 0
M  V30 4278 N 419.78 1.02168 -1.19998 0
M  V30 4279 C 421.028 1.75338 -1.00504 0
M  V30 4280 C 421.349 1.89387 0.464506 0
M  V30 4281 O 420.619 1.43268 1.33608 0
M  V30 4282 H 419.199 0.649564 -0.368885 0
M  V30 4283 H 421.861 1.23205 -1.51018 0
M  V30 4284 H 420.957 2.75892 -1.45912 0
M  V30 4285 N 421.258 1.00505 1.21394 0
M  V30 4286 C 422.208 0.536503 2.21598 0
M  V30 4287 C 423.192 -0.401914 1.55799 0
M  V30 4288 O 424.384 -0.226757 1.75541 0
M  V30 4289 C 421.513 -0.135446 3.43033 0
M  V30 4290 C 420.599 0.823992 4.16018 0
M  V30 4291 N 420.99 1.97683 4.6557 0
M  V30 4292 C 419.288 0.642387 4.4135 0
M  V30 4293 C 419.989 2.58003 5.21354 0
M  V30 4294 N 418.965 1.86162 5.1073 0
M  V30 4295 H 422.767 1.41557 2.57563 0
M  V30 4296 H 420.281 0.868878 1.37202 0
M  V30 4297 H 422.278 -0.488584 4.14027 0
M  V30 4298 H 420.938 -1.01049 3.08576 0
M  V30 4299 H 421.949 2.3572 4.61147 0
M  V30 4300 H 418.626 -0.185578 4.17087 0
M  V30 4301 H 420.016 3.555 5.70149 0
M  V30 4302 N 422.737 -1.36956 0.779787 0
M  V30 4303 C 423.983 -2.00237 0.357324 0
M  V30 4304 C 424.338 -1.60787 -1.05666 0
M  V30 4305 O 423.631 -0.847836 -1.71821 0
M  V30 4306 C 423.825 -3.54585 0.447686 0
M  V30 4307 C 423.654 -4.09025 1.86891 0
M  V30 4308 C 422.424 -4.39612 2.49138 0
M  V30 4309 C 424.622 -4.29461 2.82963 0
M  V30 4310 N 422.604 -4.79816 3.82949 0
M  V30 4311 C 423.975 -4.72363 4.01588 0
M  V30 4312 C 426.03 -4.1161 2.80145 0
M  V30 4313 C 424.733 -4.99284 5.17791 0
M  V30 4314 C 426.759 -4.39672 3.95528 0
M  V30 4315 C 426.121 -4.82822 5.12896 0
M  V30 4316 H 422.22 -0.76148 0.177968 0
M  V30 4317 H 424.804 -1.6613 1.01533 0
M  V30 4318 H 422.975 -3.87982 -0.180184 0
M  V30 4319 H 424.707 -4.047 0.0023955 0
M  V30 4320 H 421.462 -4.28975 2.00693 0
M  V30 4321 H 421.886 -5.04216 4.51769 0
M  V30 4322 H 426.528 -3.77415 1.90572 0
M  V30 4323 H 424.246 -5.32365 6.07958 0
M  V30 4324 H 427.832 -4.27441 3.94697 0
M  V30 4325 H 426.712 -5.04118 6.00695 0
M  V30 4326 N 424.215 -0.530993 -1.48385 0
M  V30 4327 C 425.464 0.00474348 -2.01699 0
M  V30 4328 C 425.777 1.35227 -1.41325 0
M  V30 4329 O 426.983 1.97643 -1.86144 0
M  V30 4330 C 425.439 0.0588473 -3.59852 0
M  V30 4331 C 425.047 -1.28385 -4.2921 0
M  V30 4332 C 426.791 0.543358 -4.21008 0
M  V30 4333 C 424.698 -1.19028 -5.79298 0
M  V30 4334 H 423.628 0.00554317 -0.75398 0
M  V30 4335 H 426.279 -0.674924 -1.70637 0
M  V30 4336 H 424.661 0.803612 -3.8776 0
M  V30 4337 H 425.835 -2.04426 -4.12973 0
M  V30 4338 H 424.15 -1.70418 -3.7993 0
M  V30 4339 H 426.747 0.631351 -5.3096 0
M  V30 4340 H 427.09 1.54937 -3.86394 0
M  V30 4341 H 427.623 -0.145754 -3.97533 0
M  V30 4342 H 424.362 -2.17147 -6.18488 0
M  V30 4343 H 423.882 -0.471246 -5.97946 0
M  V30 4344 H 425.561 -0.881365 -6.40969 0
M  V30 4345 N 425.693 1.55336 -0.266172 0
M  V30 4346 C 426.625 2.19544 0.658247 0
M  V30 4347 C 427.638 1.17746 1.12427 0
M  V30 4348 O 428.827 1.44517 1.04772 0
M  V30 4349 C 425.927 2.80032 1.9088 0
M  V30 4350 C 425.1 4.07436 1.59106 0
M  V30 4351 C 424.159 4.52056 2.69317 0
M  V30 4352 O 423.185 5.18023 2.35883 0
M  V30 4353 N 424.387 4.21448 3.99201 0
M  V30 4354 H 427.152 2.99503 0.108754 0
M  V30 4355 H 424.713 1.61667 -0.0869059 0
M  V30 4356 H 426.705 3.06831 2.63888 0
M  V30 4357 H 425.275 2.04119 2.36758 0
M  V30 4358 H 424.495 3.88021 0.695243 0
M  V30 4359 H 425.783 4.90462 1.35367 0
M  V30 4360 H 425.181 3.68528 4.29189 0
M  V30 4361 H 423.738 4.53039 4.68614 0
M  V30 4362 N 427.171 -0.0066808 1.57599 0
M  V30 4363 C 428.417 -0.693947 1.90558 0
M  V30 4364 C 428.75 -1.73792 0.866594 0
M  V30 4365 O 428.025 -1.94156 -0.115548 0
M  V30 4366 C 428.308 -1.34317 3.34112 0
M  V30 4367 C 428.161 -0.311189 4.48722 0
M  V30 4368 C 429.48 -2.27116 3.7697 0
M  V30 4369 H 426.599 -0.250803 0.693013 0
M  V30 4370 H 429.241 0.043242 1.89951 0
M  V30 4371 H 427.391 -1.9715 3.3476 0
M  V30 4372 H 429.063 0.316944 4.6021 0
M  V30 4373 H 427.306 0.367253 4.32243 0
M  V30 4374 H 427.977 -0.804366 5.46108 0
M  V30 4375 H 430.453 -1.74306 3.77831 0
M  V30 4376 H 429.329 -2.69511 4.78179 0
M  V30 4377 H 429.59 -3.14743 3.10466 0
M  V30 4378 N 428.649 -1.55105 -0.279332 0
M  V30 4379 C 429.579 -1.90557 -1.34945 0
M  V30 4380 C 430.56 -0.766738 -1.51839 0
M  V30 4381 O 431.745 -1.02434 -1.64988 0
M  V30 4382 C 428.875 -2.17193 -2.71006 0
M  V30 4383 C 427.829 -3.33021 -2.68851 0
M  V30 4384 C 427.155 -3.45123 -4.08405 0
M  V30 4385 C 428.455 -4.69578 -2.28678 0
M  V30 4386 H 430.149 -2.80188 -1.05522 0
M  V30 4387 H 427.695 -1.34811 -0.506173 0
M  V30 4388 H 429.648 -2.40581 -3.45975 0
M  V30 4389 H 428.372 -1.24355 -3.01999 0
M  V30 4390 H 427.031 -3.0959 -1.9634 0
M  V30 4391 H 426.679 -2.49762 -4.3661 0
M  V30 4392 H 426.379 -4.22995 -4.07859 0
M  V30 4393 H 427.903 -3.70796 -4.85121 0
M  V30 4394 H 429.317 -4.92553 -2.93368 0
M  V30 4395 H 427.714 -5.5032 -2.39306 0
M  V30 4396 H 428.784 -4.68828 -1.23807 0
M  V30 4397 N 430.127 0.543554 -1.4793 0
M  V30 4398 C 431.059 1.665 -1.57513 0
M  V30 4399 C 432.072 1.56156 -0.460333 0
M  V30 4400 O 433.261 1.62865 -0.730573 0
M  V30 4401 C 430.361 3.05063 -1.47614 0
M  V30 4402 C 429.534 3.41024 -2.739 0
M  V30 4403 C 428.593 4.58809 -2.57645 0
M  V30 4404 O 427.619 4.62707 -3.31498 0
M  V30 4405 N 428.821 5.56149 -1.66368 0
M  V30 4406 H 431.586 1.5872 -2.5422 0
M  V30 4407 H 429.147 0.730517 -1.44482 0
M  V30 4408 H 431.139 3.81712 -1.34455 0
M  V30 4409 H 429.709 3.06994 -0.589359 0
M  V30 4410 H 428.929 2.53687 -3.01723 0
M  V30 4411 H 430.217 3.61831 -3.57709 0
M  V30 4412 H 429.615 5.55767 -1.05543 0
M  V30 4413 H 428.172 6.32071 -1.59154 0
M  V30 4414 N 431.605 1.3629 0.791371 0
M  V30 4415 C 432.845 1.31792 1.56238 0
M  V30 4416 C 433.209 -0.102237 1.91728 0
M  V30 4417 O 434.41 -0.271759 2.67423 0
M  V30 4418 C 432.681 2.21303 2.80642 0
M  V30 4419 S 434.24 2.34468 3.70904 0
M  V30 4420 H 431.058 0.468141 0.535131 0
M  V30 4421 H 433.66 1.71841 0.932246 0
M  V30 4422 H 432.364 3.23439 2.52617 0
M  V30 4423 H 431.895 1.82266 3.4863 0
M  V30 4424 H 433.91 1.54074 4.71673 0
M  V30 4425 N 433.083 -1.0153 1.20538 0
M  V30 4426 C 434.499 -1.27461 0.96051 0
M  V30 4427 C 434.699 -1.98273 -0.359193 0
M  V30 4428 O 433.755 -2.27886 -1.0874 0
M  V30 4429 C 435.068 -2.10837 2.14402 0
M  V30 4430 C 436.616 -2.24099 2.18515 0
M  V30 4431 C 437.091 -3.10852 3.36355 0
M  V30 4432 N 438.582 -3.18441 3.36377 0
M  V30 4433 C 439.317 -3.85795 4.24205 0
M  V30 4434 N 438.813 -4.55264 5.22213 0
M  V30 4435 N 440.606 -3.82331 4.12043 0
M  V30 4436 H 432.757 -0.539907 2.05423 0
M  V30 4437 H 435.02 -0.30092 0.898972 0
M  V30 4438 H 434.726 -1.66144 3.09983 0
M  V30 4439 H 434.6 -3.11576 2.12604 0
M  V30 4440 H 436.987 -2.68016 1.23497 0
M  V30 4441 H 437.068 -1.22865 2.24361 0
M  V30 4442 H 436.712 -2.6764 4.31661 0
M  V30 4443 H 436.642 -4.12177 3.27746 0
M  V30 4444 H 439.133 -2.68978 2.65442 0
M  V30 4445 H 439.446 -5.04331 5.85551 0
M  V30 4446 H 437.791 -4.54085 5.26148 0
M  V30 4447 H 440.982 -3.27207 3.34743 0
M  V30 4448 H 441.155 -4.34547 4.807 0
M  V30 4449 N 434.561 -1.01147 -1.20859 0
M  V30 4450 C 435.493 -0.535546 -2.22855 0
M  V30 4451 C 436.506 0.379323 -1.58319 0
M  V30 4452 O 437.695 0.178489 -1.77605 0
M  V30 4453 C 434.795 0.240962 -3.38042 0
M  V30 4454 C 433.968 -0.674562 -4.32167 0
M  V30 4455 C 433.027 0.053467 -5.26173 0
M  V30 4456 O 432.053 -0.567339 -5.66366 0
M  V30 4457 N 433.255 1.32997 -5.65059 0
M  V30 4458 H 436.02 -1.41268 -2.64317 0
M  V30 4459 H 433.581 -0.888386 -1.35349 0
M  V30 4460 H 435.573 0.737115 -3.97931 0
M  V30 4461 H 434.143 1.01935 -2.95513 0
M  V30 4462 H 433.363 -1.35111 -3.70322 0
M  V30 4463 H 434.651 -1.2974 -4.91981 0
M  V30 4464 H 434.049 1.85536 -5.34409 0
M  V30 4465 H 432.606 1.77095 -6.2728 0
M  V30 4466 N 436.039 1.36541 -0.78704 0
M  V30 4467 C 437.455 1.52571 -0.46844 0
M  V30 4468 C 437.655 1.7415 1.01361 0
M  V30 4469 O 436.711 1.77163 1.79915 0
M  V30 4470 C 438.024 2.71299 -1.29682 0
M  V30 4471 C 439.572 2.85169 -1.29027 0
M  V30 4472 C 440.047 4.06898 -2.10233 0
M  V30 4473 N 441.538 4.1404 -2.07666 0
M  V30 4474 C 442.273 5.07301 -2.67271 0
M  V30 4475 N 441.769 6.06021 -3.35724 0
M  V30 4476 N 443.562 4.99898 -2.57018 0
M  V30 4477 H 435.713 1.20788 -1.74711 0
M  V30 4478 H 437.976 0.589364 -0.742532 0
M  V30 4479 H 437.682 2.61868 -2.34773 0
M  V30 4480 H 437.556 3.6539 -0.936479 0
M  V30 4481 H 439.943 2.94062 -0.247284 0
M  V30 4482 H 440.024 1.91992 -1.69035 0
M  V30 4483 H 439.668 3.98766 -3.1456 0
M  V30 4484 H 439.598 4.99218 -1.67597 0
M  V30 4485 H 442.089 3.43357 -1.57843 0
M  V30 4486 H 442.402 6.73741 -3.78541 0
M  V30 4487 H 440.747 6.06253 -3.39826 0
M  V30 4488 H 443.938 4.21724 -2.03142 0
M  V30 4489 H 444.111 5.72392 -3.03761 0
M  V30 4490 N 437.518 0.538854 1.48102 0
M  V30 4491 C 438.758 0.0101209 2.04397 0
M  V30 4492 C 439.122 -1.30741 1.40609 0
M  V30 4493 O 440.323 -1.92272 1.87843 0
M  V30 4494 C 438.594 -0.100232 3.57259 0
M  V30 4495 S 440.153 -0.577746 4.3498 0
M  V30 4496 H 436.971 0.0163171 0.710813 0
M  V30 4497 H 439.573 0.721429 1.81702 0
M  V30 4498 H 438.277 0.863351 4.01216 0
M  V30 4499 H 437.808 -0.835651 3.84422 0
M  V30 4500 H 439.823 -1.84073 4.60794 0
M  V30 4501 N 438.996 -1.55193 0.274407 0
M  V30 4502 C 440.242 -1.99877 -0.343086 0
M  V30 4503 C 440.575 -1.16256 -1.55558 0
M  V30 4504 O 439.85 -0.232462 -1.93106 0
M  V30 4505 C 440.133 -3.52706 -0.725965 0
M  V30 4506 C 439.986 -4.47081 0.493818 0
M  V30 4507 C 441.305 -4.11422 -1.56268 0
M  V30 4508 H 438.424 -0.726625 -0.123229 0
M  V30 4509 H 441.066 -1.86136 0.38121 0
M  V30 4510 H 439.216 -3.64546 -1.34307 0
M  V30 4511 H 440.888 -4.47186 1.13237 0
M  V30 4512 H 439.131 -4.1877 1.13201 0
M  V30 4513 H 439.802 -5.51699 0.18217 0
M  V30 4514 H 442.278 -4.02855 -1.04151 0
M  V30 4515 H 441.154 -5.18568 -1.79939 0
M  V30 4516 H 441.415 -3.61607 -2.54348 0
M  V30 4517 N 440.474 -0.00167713 -1.576 0
M  V30 4518 C 441.722 0.681471 -1.90264 0
M  V30 4519 C 442.043 1.7422 -0.875924 0
M  V30 4520 O 441.313 1.95709 0.0864412 0
M  V30 4521 H 439.893 0.254696 -0.702239 0
M  V30 4522 H 442.555 -0.0429996 -1.94853 0
M  V30 4523 H 441.651 1.15166 -2.90075 0
M  V30 4524 N 441.952 1.55251 0.271103 0
M  V30 4525 C 442.862 1.9136 1.35714 0
M  V30 4526 C 443.878 0.811075 1.5394 0
M  V30 4527 O 445.054 1.11031 1.6803 0
M  V30 4528 C 442.119 2.1798 2.69603 0
M  V30 4529 C 441.18 3.4153 2.60107 0
M  V30 4530 C 440.413 3.66871 3.8761 0
M  V30 4531 O 440.636 2.94689 4.8838 0
M  V30 4532 O 439.57 4.60405 3.87699 0
M  V30 4533 H 443.396 2.83815 1.08088 0
M  V30 4534 H 440.981 1.41821 0.469792 0
M  V30 4535 H 442.863 2.36518 3.48765 0
M  V30 4536 H 441.538 1.28708 2.97012 0
M  V30 4537 H 440.445 3.28325 1.79314 0
M  V30 4538 H 441.778 4.31027 2.37647 0
M  V30 4539 N 443.43 -0.535701 1.48216 0
M  V30 4540 C 444.658 -1.31671 1.59594 0
M  V30 4541 C 445.073 -1.87083 0.254056 0
M  V30 4542 O 444.43 -1.66112 -0.755854 0
M  V30 4543 C 444.481 -2.47158 2.63809 0
M  V30 4544 O 444.202 -1.94032 3.92789 0
M  V30 4545 C 445.703 -3.39062 2.85573 0
M  V30 4546 H 442.923 -0.400623 0.538277 0
M  V30 4547 H 445.467 -0.646827 1.94001 0
M  V30 4548 H 443.622 -3.10043 2.32276 0
M  V30 4549 H 444.036 -2.69585 4.49916 0
M  V30 4550 H 445.51 -4.16459 3.62306 0
M  V30 4551 H 445.987 -3.93941 1.94184 0
M  V30 4552 H 446.593 -2.81975 3.18387 0
M  V30 4553 N 444.908 -1.36708 -0.784132 0
M  V30 4554 C 445.871 -1.31307 -1.87859 0
M  V30 4555 C 446.871 -0.219654 -1.59293 0
M  V30 4556 O 448.061 -0.47476 -1.67606 0
M  V30 4557 C 445.193 -1.03679 -3.24751 0
M  V30 4558 H 446.386 -2.28647 -1.94064 0
M  V30 4559 H 443.939 -1.21558 -0.98252 0
M  V30 4560 H 444.674 -0.0681936 -3.24228 0
M  V30 4561 H 444.459 -1.82811 -3.46876 0
M  V30 4562 H 445.949 -1.02518 -4.04821 0
M  V30 4563 N 446.386 1.0089 -1.21074 0
M  V30 4564 C 447.614 1.78191 -1.05145 0
M  V30 4565 C 448.029 1.84537 0.398952 0
M  V30 4566 O 447.386 1.30393 1.27687 0
M  V30 4567 C 447.437 3.22288 -1.63746 0
M  V30 4568 O 447.158 3.16315 -3.03111 0
M  V30 4569 C 448.659 4.16106 -1.52875 0
M  V30 4570 H 445.879 0.560129 -0.369454 0
M  V30 4571 H 448.423 1.26945 -1.60328 0
M  V30 4572 H 446.578 3.70655 -1.12664 0
M  V30 4573 H 446.992 4.06817 -3.31059 0
M  V30 4574 H 448.466 5.15026 -1.98626 0
M  V30 4575 H 448.943 4.36541 -0.482521 0
M  V30 4576 H 449.549 3.73625 -2.03185 0
M  V30 4577 N 447.864 1.01787 1.20321 0
M  V30 4578 C 449.28 0.732951 1.41774 0
M  V30 4579 C 449.48 -0.686883 1.89431 0
M  V30 4580 O 448.536 -1.45446 2.06402 0
M  V30 4581 C 449.849 1.75973 2.43832 0
M  V30 4582 C 451.397 1.77802 2.57596 0
M  V30 4583 C 451.872 2.7941 3.62897 0
M  V30 4584 N 453.363 2.78157 3.70382 0
M  V30 4585 C 454.098 3.53434 4.51521 0
M  V30 4586 N 453.594 4.38392 5.36455 0
M  V30 4587 N 455.387 3.42026 4.46066 0
M  V30 4588 H 447.538 1.93447 0.877035 0
M  V30 4589 H 449.801 0.835712 0.447536 0
M  V30 4590 H 449.507 2.77699 2.15815 0
M  V30 4591 H 449.381 1.57292 3.4284 0
M  V30 4592 H 451.768 0.767602 2.84942 0
M  V30 4593 H 451.849 2.00557 1.58779 0
M  V30 4594 H 451.493 3.80616 3.36295 0
M  V30 4595 H 451.423 2.53916 4.61339 0
M  V30 4596 H 453.914 2.16531 3.09714 0
M  V30 4597 H 454.227 4.92596 5.95457 0
M  V30 4598 H 452.572 4.4247 5.35953 0
M  V30 4599 H 455.763 2.75075 3.78749 0
M  V30 4600 H 455.936 4.00946 5.09064 0
M  V30 4601 N 449.342 -1.36122 0.79427 0
M  V30 4602 C 450.753 -1.81646 0.431446 0
M  V30 4603 C 451.104 -1.66043 -1.04518 0
M  V30 4604 O 450.229 -1.1841 -1.8113 0
M  V30 4605 C 450.824 -3.29785 0.776341 0
M  V30 4606 C 449.383 -3.73501 0.466282 0
M  V30 4607 C 448.53 -2.58313 1.00844 0
M  V30 4608 H 451.481 -1.24274 0.986995 0
M  V30 4609 H 451.502 -3.80437 0.0692413 0
M  V30 4610 H 451.014 -3.4111 1.8511 0
M  V30 4611 H 449.115 -3.67733 -0.600245 0
M  V30 4612 H 449.228 -4.68754 0.990288 0
M  V30 4613 H 447.592 -2.5102 0.431406 0
M  V30 4614 H 448.375 -2.72421 2.08906 0
M  V30 4615 N 450.82 -0.546701 -1.47814 0
M  V30 4616 C 452.068 -0.0187037 -2.02091 0
M  V30 4617 C 452.389 1.33168 -1.42447 0
M  V30 4618 O 451.659 1.86619 -0.595839 0
M  V30 4619 H 450.239 -0.00392531 -0.74699 0
M  V30 4620 H 452.901 -0.714327 -1.81338 0
M  V30 4621 H 451.997 0.0772219 -3.12004 0
M  V30 4622 N 452.299 1.55045 -0.282633 0
M  V30 4623 C 453.715 1.59441 0.0712997 0
M  V30 4624 C 453.915 1.2998 1.53972 0
M  V30 4625 O 452.971 1.06431 2.28973 0
M  V30 4626 C 454.284 2.99097 -0.310104 0
M  V30 4627 C 455.832 3.1194 -0.257343 0
M  V30 4628 C 456.307 4.53875 -0.613297 0
M  V30 4629 N 457.798 4.5974 -0.565134 0
M  V30 4630 C 458.533 5.67603 -0.81326 0
M  V30 4631 N 458.029 6.83582 -1.1264 0
M  V30 4632 N 459.822 5.57187 -0.741553 0
M  V30 4633 H 451.973 1.72458 -1.23984 0
M  V30 4634 H 454.236 0.804549 -0.501403 0
M  V30 4635 H 453.942 3.25516 -1.33163 0
M  V30 4636 H 453.816 3.75616 0.345366 0
M  V30 4637 H 456.203 2.85281 0.754905 0
M  V30 4638 H 456.284 2.37618 -0.947178 0
M  V30 4639 H 455.928 4.81261 -1.62327 0
M  V30 4640 H 455.858 5.26508 0.09841 0
M  V30 4641 H 458.349 3.76427 -0.333294 0
M  V30 4642 H 458.662 7.6175 -1.30219 0
M  V30 4643 H 457.007 6.85179 -1.16425 0
M  V30 4644 H 460.198 4.65457 -0.496705 0
M  V30 4645 H 460.371 6.41171 -0.938306 0
M  V30 4646 N 453.777 0.010035 1.57597 0
M  V30 4647 C 455.002 -0.687021 1.95691 0
M  V30 4648 C 455.427 -1.65952 0.885519 0
M  V30 4649 O 454.785 -1.80633 -0.15543 0
M  V30 4650 C 454.833 -1.3864 3.32884 0
M  V30 4651 O 453.937 -2.50115 3.27897 0
M  V30 4652 H 453.278 -0.181989 0.638573 0
M  V30 4653 H 455.808 0.0662122 2.04493 0
M  V30 4654 H 455.818 -1.74754 3.6868 0
M  V30 4655 H 454.493 -0.673411 4.10412 0
M  V30 4656 H 453.07 -2.16253 3.03791 0
M  V30 4657 N 455.255 -1.55392 -0.262866 0
M  V30 4658 C 456.502 -1.76476 -0.993109 0
M  V30 4659 C 456.83 -0.571479 -1.85915 0
M  V30 4660 O 456.085 0.445733 -1.90556 0
M  V30 4661 C 456.384 -3.02889 -1.89718 0
M  V30 4662 C 456.05 -4.34974 -1.18781 0
M  V30 4663 C 454.712 -4.7087 -0.991699 0
M  V30 4664 C 457.064 -5.16695 -0.683798 0
M  V30 4665 C 454.392 -5.86036 -0.279024 0
M  V30 4666 C 456.744 -6.32598 0.0153327 0
M  V30 4667 C 455.408 -6.67127 0.223062 0
M  V30 4668 H 454.678 -0.64577 -0.363404 0
M  V30 4669 H 457.325 -1.89664 -0.264525 0
M  V30 4670 H 455.63 -2.84644 -2.6923 0
M  V30 4671 H 457.327 -3.16399 -2.46359 0
M  V30 4672 H 453.917 -4.06765 -1.35058 0
M  V30 4673 H 458.101 -4.8943 -0.8229 0
M  V30 4674 H 453.357 -6.11306 -0.107456 0
M  V30 4675 H 457.531 -6.95171 0.413584 0
M  V30 4676 H 455.158 -7.56216 0.777265 0
M  V30 4677 N 456.733 0.527833 -1.48498 0
M  V30 4678 C 458.144 1.10975 -1.50138 0
M  V30 4679 C 458.495 1.943 -0.272378 0
M  V30 4680 O 457.62 2.07319 0.620301 0
M  V30 4681 C 458.215 2.01927 -2.72049 0
M  V30 4682 C 456.774 2.55332 -2.76554 0
M  V30 4683 C 455.921 1.32341 -2.43683 0
M  V30 4684 H 458.872 0.312986 -1.55583 0
M  V30 4685 H 458.893 2.86244 -2.50689 0
M  V30 4686 H 458.405 1.41254 -3.61481 0
M  V30 4687 H 456.506 3.19721 -1.91336 0
M  V30 4688 H 456.619 2.94319 -3.78038 0
M  V30 4689 H 454.983 1.63989 -1.94884 0
M  V30 4690 H 455.766 0.734165 -3.35358 0
M  V30 4691 N 458.211 1.37122 0.776871 0
M  V30 4692 C 459.457 1.32243 1.53752 0
M  V30 4693 C 459.79 -0.0944745 1.9397 0
M  V30 4694 O 459.065 -1.05068 1.6368 0
M  V30 4695 C 459.348 2.25681 2.80607 0
M  V30 4696 C 459.201 3.76127 2.46676 0
M  V30 4697 C 460.52 2.17657 3.82509 0
M  V30 4698 H 457.639 0.481704 0.557791 0
M  V30 4699 H 460.281 1.6778 0.891612 0
M  V30 4700 H 458.431 1.95505 3.35723 0
M  V30 4701 H 460.103 4.16877 1.97513 0
M  V30 4702 H 458.346 3.94946 1.79443 0
M  V30 4703 H 459.017 4.36933 3.37333 0
M  V30 4704 H 461.493 2.44245 3.36873 0
M  V30 4705 H 460.369 2.85185 4.69 0
M  V30 4706 H 460.63 1.16785 4.26396 0
M  V30 4707 N 459.689 -1.00246 1.21608 0
M  V30 4708 C 461.1 -1.55511 1.03312 0
M  V30 4709 C 461.451 -1.91946 -0.406332 0
M  V30 4710 O 460.576 -1.73753 -1.28992 0
M  V30 4711 C 461.171 -2.82576 1.86913 0
M  V30 4712 C 459.73 -3.34318 1.72941 0
M  V30 4713 C 458.877 -2.07487 1.83968 0
M  V30 4714 H 461.828 -0.824638 1.35593 0
M  V30 4715 H 461.849 -3.54559 1.38087 0
M  V30 4716 H 461.361 -2.56026 2.91672 0
M  V30 4717 H 459.462 -3.65797 0.70877 0
M  V30 4718 H 459.575 -4.05566 2.55055 0
M  V30 4719 H 457.939 -2.20603 1.27304 0
M  V30 4720 H 458.722 -1.83346 2.9024 0
M  V30 4721 N 461.167 -1.02423 -1.1978 0
M  V30 4722 C 462.444 -0.632802 -1.85081 0
M  V30 4723 C 462.824 0.888745 -1.9148 0
M  V30 4724 O 462.172 1.78357 -1.42832 0
M  V30 4725 C 462.382 -1.28947 -3.24305 0
M  V30 4726 C 463.73 -1.40976 -4.00513 0
M  V30 4727 O 464.754 -1.24628 -3.33686 0
M  V30 4728 O 463.613 -1.67467 -5.20209 0
M  V30 4729 H 460.707 -0.219348 -0.79738 0
M  V30 4730 H 463.253 -1.12209 -1.27307 0
M  V30 4731 H 462.025 -2.3288 -3.14456 0
M  V30 4732 H 461.648 -0.787748 -3.89718 0
M  V30 4733 N 462.645 1.35699 -0.801477 0
M  V30 4734 C 463.892 1.98913 -0.379459 0
M  V30 4735 C 464.22 1.63592 1.05204 0
M  V30 4736 O 463.475 0.888563 1.74365 0
M  V30 4737 C 463.774 3.53828 -0.504041 0
M  V30 4738 C 463.44 4.09002 -1.8981 0
M  V30 4739 C 462.102 4.23783 -2.27951 0
M  V30 4740 C 464.454 4.38939 -2.81038 0
M  V30 4741 C 461.782 4.65816 -3.56696 0
M  V30 4742 C 464.134 4.82409 -4.09224 0
M  V30 4743 C 462.798 4.95395 -4.4737 0
M  V30 4744 H 462.068 0.727874 -0.138854 0
M  V30 4745 H 464.715 1.61994 -1.02128 0
M  V30 4746 H 463.02 3.91175 0.221242 0
M  V30 4747 H 464.717 4.00687 -0.158361 0
M  V30 4748 H 461.307 3.97946 -1.59176 0
M  V30 4749 H 465.491 4.27077 -2.52821 0
M  V30 4750 H 460.747 4.74059 -3.86106 0
M  V30 4751 H 464.921 5.04535 -4.80018 0
M  V30 4752 H 462.548 5.27724 -5.47185 0
M  V30 4753 N 464.123 0.554532 1.47522 0
M  V30 4754 C 465.053 -0.182974 2.32782 0
M  V30 4755 C 466.034 -0.911377 1.43624 0
M  V30 4756 O 467.219 -0.892366 1.72483 0
M  V30 4757 C 464.349 -1.21513 3.25349 0
M  V30 4758 C 463.303 -0.603355 4.23726 0
M  V30 4759 C 462.629 -1.73995 5.05598 0
M  V30 4760 C 463.929 0.441121 5.20434 0
M  V30 4761 H 465.623 0.52882 2.94693 0
M  V30 4762 H 463.169 0.255759 1.41711 0
M  V30 4763 H 465.122 -1.73922 3.83835 0
M  V30 4764 H 463.846 -1.95683 2.61487 0
M  V30 4765 H 462.505 -0.10059 3.66462 0
M  V30 4766 H 462.153 -2.47063 4.38143 0
M  V30 4767 H 461.853 -1.3364 5.72201 0
M  V30 4768 H 463.377 -2.26735 5.66942 0
M  V30 4769 H 464.791 0.00319931 5.733 0
M  V30 4770 H 463.188 0.763402 5.95224 0
M  V30 4771 H 464.258 1.33799 4.66075 0
M  V30 4772 N 465.601 -1.54893 0.290851 0
M  V30 4773 C 467.012 -1.85584 -0.203816 0
M  V30 4774 C 467.363 -1.21285 -1.54222 0
M  V30 4775 O 466.488 -0.506841 -2.10381 0
M  V30 4776 C 467.083 -3.367 -0.376595 0
M  V30 4777 C 465.642 -3.6746 -0.815485 0
M  V30 4778 C 464.789 -2.77178 0.0821087 0
M  V30 4779 H 467.74 -1.50208 0.512175 0
M  V30 4780 H 467.761 -3.60656 -1.21275 0
M  V30 4781 H 467.273 -3.8347 0.59767 0
M  V30 4782 H 465.374 -3.26201 -1.80066 0
M  V30 4783 H 465.487 -4.7478 -0.641905 0
M  V30 4784 H 463.851 -2.50925 -0.436895 0
M  V30 4785 H 464.634 -3.26767 1.05254 0
M  V30 4786 N 467.08 -0.0183926 -1.57589 0
M  V30 4787 C 468.028 0.985111 -2.10709 0
M  V30 4788 C 469.022 1.34397 -1.0312 0
M  V30 4789 O 470.228 1.32746 -1.21567 0
M  V30 4790 H 466.603 0.335418 -0.673052 0
M  V30 4791 H 468.574 0.511689 -2.9398 0
M  V30 4792 C 467.323 2.26202 -2.64061 0
M  V30 4793 H 466.646 1.9946 -3.4649 0
M  V30 4794 H 468.086 2.94652 -3.04887 0
M  V30 4795 C 466.545 2.98444 -1.5631 0
M  V30 4796 O 467.075 3.90142 -0.956674 0
M  V30 4797 N 465.281 2.6059 -1.28612 0
M  V30 4798 H 464.828 1.86101 -1.78112 0
M  V30 4799 H 464.786 3.09238 -0.567406 0
M  V30 4800 N 468.558 1.5553 0.254621 0
M  V30 4801 C 469.49 1.86104 1.33783 0
M  V30 4802 C 470.503 0.746752 1.44663 0
M  V30 4803 O 471.692 1.0248 1.46151 0
M  V30 4804 C 468.792 2.02532 2.71724 0
M  V30 4805 C 467.965 3.33335 2.83208 0
M  V30 4806 C 467.024 3.396 4.01943 0
M  V30 4807 O 466.05 4.12862 3.91834 0
M  V30 4808 N 467.252 2.68332 5.1476 0
M  V30 4809 H 470.017 2.79605 1.07893 0
M  V30 4810 H 467.578 1.55672 0.444732 0
M  V30 4811 H 469.57 2.04074 3.4948 0
M  V30 4812 H 468.14 1.15811 2.90356 0
M  V30 4813 H 467.36 3.44176 1.92189 0
M  V30 4814 H 468.648 4.19565 2.87824 0
M  V30 4815 H 468.046 2.08528 5.25864 0
M  V30 4816 H 466.603 2.75575 5.90679 0
M  V30 4817 N 470.036 -0.519951 1.48776 0
M  V30 4818 C 470.966 -1.63253 1.66945 0
M  V30 4819 C 471.947 -1.62014 0.518224 0
M  V30 4820 O 473.132 -1.79053 0.751919 0
M  V30 4821 C 470.262 -3.0181 1.71836 0
M  V30 4822 C 469.216 -3.17911 2.8656 0
M  V30 4823 C 468.542 -4.5763 2.76548 0
M  V30 4824 C 469.842 -2.99729 4.27738 0
M  V30 4825 H 471.536 -1.48302 2.6009 0
M  V30 4826 H 469.082 -0.712026 1.25165 0
M  V30 4827 H 471.035 -3.79525 1.83135 0
M  V30 4828 H 469.759 -3.17806 0.752775 0
M  V30 4829 H 468.418 -2.42616 2.74833 0
M  V30 4830 H 468.066 -4.70476 1.77937 0
M  V30 4831 H 467.766 -4.69346 3.53536 0
M  V30 4832 H 469.29 -5.37431 2.89828 0
M  V30 4833 H 470.704 -3.67228 4.40246 0
M  V30 4834 H 469.101 -3.22932 5.05801 0
M  V30 4835 H 470.171 -1.96047 4.43502 0
M  V30 4836 N 471.514 -1.37532 -0.769588 0
M  V30 4837 C 472.93 -1.18379 -1.07045 0
M  V30 4838 C 473.13 -0.0214312 -2.01489 0
M  V30 4839 O 472.186 0.637809 -2.44312 0
M  V30 4840 C 473.499 -2.50338 -1.66588 0
M  V30 4841 C 475.047 -2.56879 -1.78835 0
M  V30 4842 C 475.522 -3.88974 -2.41792 0
M  V30 4843 N 477.013 -3.90428 -2.4924 0
M  V30 4844 C 477.748 -4.89388 -2.98809 0
M  V30 4845 N 477.244 -5.98745 -3.48535 0
M  V30 4846 N 479.037 -4.76791 -2.97703 0
M  V30 4847 H 471.188 -2.11921 -0.142541 0
M  V30 4848 H 473.451 -0.939608 -0.125863 0
M  V30 4849 H 473.157 -3.35767 -1.0466 0
M  V30 4850 H 473.031 -2.67583 -2.65856 0
M  V30 4851 H 475.418 -1.71856 -2.39895 0
M  V30 4852 H 475.499 -2.43516 -0.783166 0
M  V30 4853 H 475.143 -4.74412 -1.81371 0
M  V30 4854 H 475.073 -3.99641 -3.4292 0
M  V30 4855 H 477.564 -3.11433 -2.14052 0
M  V30 4856 H 477.877 -6.70205 -3.84767 0
M  V30 4857 H 476.222 -6.02387 -3.46634 0
M  V30 4858 H 479.413 -3.90478 -2.58157 0
M  V30 4859 H 479.586 -5.54069 -3.36024 0
M  V30 4860 N 472.992 0.995999 -1.22138 0
M  V30 4861 C 474.408 1.25917 -0.980667 0
M  V30 4862 C 474.608 1.98819 0.327604 0
M  V30 4863 O 473.664 2.29587 1.05101 0
M  V30 4864 C 474.977 2.07399 -2.17729 0
M  V30 4865 C 476.525 2.20594 -2.22052 0
M  V30 4866 C 477 3.05462 -3.41258 0
M  V30 4867 N 478.491 3.13049 -3.41401 0
M  V30 4868 C 479.226 3.78997 -4.30289 0
M  V30 4869 N 478.722 4.46899 -5.2939 0
M  V30 4870 N 480.515 3.75728 -4.18073 0
M  V30 4871 H 472.666 0.507158 -2.06256 0
M  V30 4872 H 474.929 0.28658 -0.903646 0
M  V30 4873 H 474.635 1.61191 -3.12586 0
M  V30 4874 H 474.509 3.08154 -2.17534 0
M  V30 4875 H 476.896 2.66017 -1.27745 0
M  V30 4876 H 476.977 1.1928 -2.26287 0
M  V30 4877 H 476.621 2.60739 -4.35864 0
M  V30 4878 H 476.551 4.06911 -3.34262 0
M  V30 4879 H 479.042 2.64721 -2.69688 0
M  V30 4880 H 479.355 4.94952 -5.935 0
M  V30 4881 H 477.7 4.45657 -5.33306 0
M  V30 4882 H 480.891 3.2184 -3.39907 0
M  V30 4883 H 481.064 4.26845 -4.87553 0
M  V30 4884 N 474.47 1.03057 1.19235 0
M  V30 4885 C 475.4 0.633497 2.24742 0
M  V30 4886 C 476.381 -0.358335 1.66283 0
M  V30 4887 O 477.566 -0.240676 1.92703 0
M  V30 4888 C 474.696 -0.0147648 3.47297 0
M  V30 4889 C 473.65 0.899527 4.18441 0
M  V30 4890 C 472.976 0.116281 5.34574 0
M  V30 4891 C 474.276 2.21404 4.73051 0
M  V30 4892 H 475.97 1.5155 2.58211 0
M  V30 4893 H 473.516 0.73014 1.24117 0
M  V30 4894 H 475.469 -0.304202 4.20301 0
M  V30 4895 H 474.193 -0.931577 3.13032 0
M  V30 4896 H 472.852 1.17319 3.47321 0
M  V30 4897 H 472.5 -0.802619 4.96555 0
M  V30 4898 H 472.2 0.725293 5.83107 0
M  V30 4899 H 473.724 -0.166376 6.10373 0
M  V30 4900 H 475.138 1.98601 5.37802 0
M  V30 4901 H 473.535 2.77512 5.32078 0
M  V30 4902 H 474.605 2.86752 3.91026 0
M  V30 4903 N 475.948 -1.35272 0.808662 0
M  V30 4904 C 476.898 -2.27181 0.193124 0
M  V30 4905 C 477.882 -1.47871 -0.634265 0
M  V30 4906 O 479.074 -1.70048 -0.491182 0
M  V30 4907 C 476.203 -3.36979 -0.655751 0
M  V30 4908 C 475.289 -4.23712 0.181481 0
M  V30 4909 N 475.68 -4.90225 1.24551 0
M  V30 4910 C 473.978 -4.45985 -0.0365493 0
M  V30 4911 C 474.679 -5.54537 1.75682 0
M  V30 4912 N 473.655 -5.33107 1.06294 0
M  V30 4913 H 477.457 -2.76101 1.00724 0
M  V30 4914 H 474.971 -1.48823 0.650029 0
M  V30 4915 H 476.968 -4.01774 -1.11279 0
M  V30 4916 H 475.628 -2.89611 -1.46819 0
M  V30 4917 H 476.639 -4.91641 1.62818 0
M  V30 4918 H 473.316 -4.09409 -0.817964 0
M  V30 4919 H 474.706 -6.17597 2.64621 0
M  V30 4920 N 477.426 -0.562348 -1.47226 0
M  V30 4921 C 478.336 0.185466 -2.33866 0
M  V30 4922 C 479.352 0.906713 -1.48508 0
M  V30 4923 O 480.528 0.874458 -1.81425 0
M  V30 4924 C 477.593 1.19904 -3.25306 0
M  V30 4925 C 476.654 0.484669 -4.26555 0
M  V30 4926 C 475.887 1.44996 -5.13626 0
M  V30 4927 O 476.11 2.68515 -5.03245 0
M  V30 4928 O 475.044 0.971642 -5.94006 0
M  V30 4929 H 478.87 -0.525361 -2.99121 0
M  V30 4930 H 476.455 -0.322916 -1.45868 0
M  V30 4931 H 478.337 1.78399 -3.81774 0
M  V30 4932 H 477.012 1.8917 -2.62672 0
M  V30 4933 H 475.919 -0.141605 -3.73832 0
M  V30 4934 H 477.252 -0.166634 -4.91918 0
M  V30 4935 N 478.904 1.54736 -0.299062 0
M  V30 4936 C 479.867 2.22127 0.565012 0
M  V30 4937 C 480.867 1.20669 1.06281 0
M  V30 4938 O 482.057 1.45417 0.959145 0
M  V30 4939 C 479.189 2.90611 1.78208 0
M  V30 4940 H 480.382 2.99891 -0.0237448 0
M  V30 4941 H 477.935 1.5622 -0.0498788 0
M  V30 4942 H 478.67 2.16921 2.41072 0
M  V30 4943 H 478.455 3.64984 1.43281 0
M  V30 4944 H 479.945 3.42026 2.396 0
M  V30 4945 N 480.382 0.0267497 1.57577 0
M  V30 4946 C 481.332 -0.965003 2.06571 0
M  V30 4947 C 482.316 -1.28694 0.965746 0
M  V30 4948 O 483.508 -1.27345 1.22932 0
M  V30 4949 C 480.637 -2.24821 2.59443 0
M  V30 4950 C 479.723 -1.95474 3.76365 0
M  V30 4951 N 480.114 -1.36387 4.87065 0
M  V30 4952 C 478.412 -2.25478 3.84806 0
M  V30 4953 C 479.113 -1.24119 5.68304 0
M  V30 4954 N 478.089 -1.7359 5.15138 0
M  V30 4955 H 481.891 -0.503095 2.89562 0
M  V30 4956 H 479.405 -0.178322 1.61418 0
M  V30 4957 H 481.402 -2.9674 2.92833 0
M  V30 4958 H 480.062 -2.7164 1.77881 0
M  V30 4959 H 481.073 -1.03919 5.07367 0
M  V30 4960 H 477.75 -2.74987 3.14147 0
M  V30 4961 H 479.14 -0.784504 6.67304 0
M  V30 4962 N 481.861 -1.55662 -0.24637 0
M  V30 4963 C 482.824 -1.89558 -1.28842 0
M  V30 4964 C 483.824 -0.772082 -1.41052 0
M  V30 4965 O 485.014 -1.04007 -1.39743 0
M  V30 4966 C 482.146 -2.12449 -2.66605 0
M  V30 4967 H 483.339 -2.82735 -1.00004 0
M  V30 4968 H 480.892 -1.48562 -0.485684 0
M  V30 4969 H 481.627 -1.21742 -3.00582 0
M  V30 4970 H 481.412 -2.94273 -2.59125 0
M  V30 4971 H 482.902 -2.39854 -3.41847 0
M  V30 4972 N 483.339 0.512053 -1.4905 0
M  V30 4973 C 484.271 1.63121 -1.6101 0
M  V30 4974 C 485.284 1.55145 -0.493352 0
M  V30 4975 O 486.473 1.61278 -0.764955 0
M  V30 4976 C 483.573 3.01863 -1.54052 0
M  V30 4977 C 482.746 3.35138 -2.81072 0
M  V30 4978 C 481.805 4.5324 -2.67319 0
M  V30 4979 O 480.831 4.55571 -3.41238 0
M  V30 4980 N 482.033 5.52495 -1.78127 0
M  V30 4981 H 484.798 1.53292 -2.5753 0
M  V30 4982 H 482.359 0.699706 -1.45999 0
M  V30 4983 H 484.351 3.78774 -1.42521 0
M  V30 4984 H 482.921 3.05675 -0.654345 0
M  V30 4985 H 482.141 2.4723 -3.07036 0
M  V30 4986 H 483.429 3.54162 -3.65304 0
M  V30 4987 H 482.827 5.53403 -1.17308 0
M  V30 4988 H 481.384 6.28553 -1.72525 0
M  V30 4989 N 484.817 1.37938 0.762283 0
M  V30 4990 C 486.063 1.33866 1.52341 0
M  V30 4991 C 486.396 -0.0738961 1.94059 0
M  V30 4992 O 485.671 -1.03326 1.64785 0
M  V30 4993 C 485.954 2.28644 2.78197 0
M  V30 4994 C 485.807 3.78722 2.42672 0
M  V30 4995 C 487.126 2.21702 3.80179 0
M  V30 4996 H 484.245 0.487593 0.55265 0
M  V30 4997 H 486.887 1.68717 0.873767 0
M  V30 4998 H 485.037 1.99055 3.33631 0
M  V30 4999 H 486.709 4.18948 1.93081 0
M  V30 5000 H 484.952 3.96827 1.75244 0
M  V30 5001 H 485.623 4.40486 3.3268 0
M  V30 5002 H 488.099 2.47805 3.34263 0
M  V30 5003 H 486.975 2.90143 4.65949 0
M  V30 5004 H 487.236 1.21301 4.25133 0
M  V30 5005 N 486.295 -0.989507 1.22664 0
M  V30 5006 C 487.543 -1.72612 1.05117 0
M  V30 5007 C 487.864 -1.90552 -0.414131 0
M  V30 5008 O 487.134 -1.4676 -1.29762 0
M  V30 5009 H 485.714 -0.639555 0.385977 0
M  V30 5010 H 488.376 -1.19158 1.54232 0
M  V30 5011 H 487.472 -2.71926 1.53175 0
M  V30 5012 N 487.773 -1.03688 -1.18687 0
M  V30 5013 C 488.721 -0.618292 -2.24232 0
M  V30 5014 C 489.715 0.353045 -1.6568 0
M  V30 5015 O 490.921 0.220749 -1.78641 0
M  V30 5016 H 487.296 -0.181711 -0.729716 0
M  V30 5017 H 489.267 -1.51893 -2.56848 0
M  V30 5018 C 488.016 0.00677342 -3.47699 0
M  V30 5019 H 487.339 -0.731692 -3.93047 0
M  V30 5020 H 488.779 0.262492 -4.23187 0
M  V30 5021 C 487.238 1.25572 -3.12623 0
M  V30 5022 O 487.768 2.34691 -3.26011 0
M  V30 5023 N 485.974 1.14755 -2.66982 0
M  V30 5024 H 485.521 0.259601 -2.56289 0
M  V30 5025 H 485.479 1.98412 -2.43885 0
M  V30 5026 N 489.251 1.34841 -0.815825 0
M  V30 5027 C 490.181 2.32187 -0.247298 0
M  V30 5028 C 491.162 1.5791 0.632344 0
M  V30 5029 O 492.347 1.8593 0.560698 0
M  V30 5030 C 489.477 3.42122 0.597466 0
M  V30 5031 C 488.431 4.27602 -0.184446 0
M  V30 5032 C 487.757 5.28942 0.782609 0
M  V30 5033 C 489.057 5.03502 -1.38865 0
M  V30 5034 H 490.751 2.79985 -1.06061 0
M  V30 5035 H 488.297 1.34611 -0.511461 0
M  V30 5036 H 490.25 4.09232 1.00533 0
M  V30 5037 H 488.974 2.92956 1.44376 0
M  V30 5038 H 487.633 3.62085 -0.573592 0
M  V30 5039 H 487.281 4.7604 1.62466 0
M  V30 5040 H 486.981 5.87008 0.263695 0
M  V30 5041 H 488.505 5.98922 1.18848 0
M  V30 5042 H 489.919 5.63506 -1.05518 0
M  V30 5043 H 488.316 5.71108 -1.8427 0
M  V30 5044 H 489.386 4.33608 -2.17054 0
M  V30 5045 N 490.729 0.570148 1.46925 0
M  V30 5046 C 491.954 0.0542592 2.07329 0
M  V30 5047 C 492.379 -1.23582 1.41806 0
M  V30 5048 O 491.737 -1.74341 0.497479 0
M  V30 5049 C 491.785 -0.111175 3.60429 0
M  V30 5050 O 490.889 -1.17071 3.95434 0
M  V30 5051 H 490.23 0.0571425 0.661537 0
M  V30 5052 H 492.76 0.789516 1.88753 0
M  V30 5053 H 492.77 -0.321315 4.06733 0
M  V30 5054 H 491.445 0.831012 4.07513 0
M  V30 5055 H 490.022 -0.940029 3.60857 0
M  V30 5056 N 492.207 -1.54576 0.307264 0
M  V30 5057 C 493.139 -2.21212 -0.599807 0
M  V30 5058 C 494.152 -1.20685 -1.09266 0
M  V30 5059 O 495.341 -1.47244 -1.00903 0
M  V30 5060 C 492.441 -2.84994 -1.83389 0
M  V30 5061 C 491.614 -4.11511 -1.48248 0
M  V30 5062 C 490.673 -4.59038 -2.57237 0
M  V30 5063 O 489.699 -5.24095 -2.22065 0
M  V30 5064 N 490.901 -4.31884 -3.87887 0
M  V30 5065 H 493.666 -2.99686 -0.0293075 0
M  V30 5066 H 491.227 -1.61379 0.129738 0
M  V30 5067 H 493.219 -3.1372 -2.5566 0
M  V30 5068 H 491.789 -2.10324 -2.31263 0
M  V30 5069 H 491.009 -3.89728 -0.592122 0
M  V30 5070 H 492.297 -4.93879 -1.22316 0
M  V30 5071 H 491.695 -3.79778 -4.19268 0
M  V30 5072 H 490.252 -4.65304 -4.56438 0
M  V30 5073 N 493.685 -0.035106 -1.57561 0
M  V30 5074 C 494.648 0.929819 -2.09492 0
M  V30 5075 C 495.648 1.25026 -1.01119 0
M  V30 5076 O 496.838 1.18961 -1.27255 0
M  V30 5077 C 493.97 2.24457 -2.56577 0
M  V30 5078 H 495.163 0.479935 -2.96035 0
M  V30 5079 H 492.716 0.213033 -1.54841 0
M  V30 5080 H 493.451 2.74061 -1.73382 0
M  V30 5081 H 493.236 2.02508 -3.35757 0
M  V30 5082 H 494.726 2.93607 -2.96959 0
M  V30 5083 N 495.163 1.55791 0.238111 0
M  V30 5084 C 496.412 1.77234 0.962868 0
M  V30 5085 C 496.725 0.600661 1.86149 0
M  V30 5086 O 497.931 0.698315 2.62366 0
M  V30 5087 C 496.387 3.13808 1.76218 0
M  V30 5088 C 495.995 4.3865 0.910518 0
M  V30 5089 C 497.739 3.44585 2.47914 0
M  V30 5090 C 495.646 5.66252 1.70623 0
M  V30 5091 H 494.576 0.660731 0.36325 0
M  V30 5092 H 497.227 1.8221 0.217242 0
M  V30 5093 H 495.609 3.02963 2.55009 0
M  V30 5094 H 496.783 4.60507 0.164316 0
M  V30 5095 H 495.098 4.15271 0.30647 0
M  V30 5096 H 497.695 4.3714 3.07917 0
M  V30 5097 H 498.038 2.66314 3.19973 0
M  V30 5098 H 498.571 3.56685 1.76127 0
M  V30 5099 H 495.31 6.47369 1.02923 0
M  V30 5100 H 494.83 5.48483 2.42748 0
M  V30 5101 H 496.509 6.05829 2.27114 0
M  V30 5102 N 496.642 -0.504142 1.49319 0
M  V30 5103 C 497.552 -1.63248 1.68486 0
M  V30 5104 C 498.568 -1.64488 0.567432 0
M  V30 5105 O 499.744 -1.82966 0.841749 0
M  V30 5106 C 496.809 -2.99627 1.74426 0
M  V30 5107 C 495.87 -3.09039 2.97982 0
M  V30 5108 C 495.103 -4.38913 3.0363 0
M  V30 5109 O 495.326 -5.27528 2.16958 0
M  V30 5110 O 494.26 -4.53231 3.96062 0
M  V30 5111 H 498.086 -1.50008 2.64067 0
M  V30 5112 H 495.671 -0.680086 1.33023 0
M  V30 5113 H 497.553 -3.80689 1.80705 0
M  V30 5114 H 496.228 -3.13136 0.820233 0
M  V30 5115 H 495.135 -2.27177 2.97223 0
M  V30 5116 H 496.468 -3.00456 3.89855 0
M  V30 5117 N 498.12 -1.38341 -0.754957 0
M  V30 5118 C 499.068 -1.35573 -1.89005 0
M  V30 5119 C 500.062 -0.241824 -1.67665 0
M  V30 5120 O 501.268 -0.410785 -1.7525 0
M  V30 5121 H 497.643 -0.422898 -0.621821 0
M  V30 5122 H 499.614 -2.31359 -1.88455 0
M  V30 5123 C 498.363 -1.19631 -3.26471 0
M  V30 5124 H 497.686 -2.04605 -3.43477 0
M  V30 5125 H 499.126 -1.21748 -4.06144 0
M  V30 5126 C 497.585 0.0968705 -3.36761 0
M  V30 5127 O 498.115 1.07439 -3.87066 0
M  V30 5128 N 496.321 0.153242 -2.90196 0
M  V30 5129 H 495.868 -0.642908 -2.49448 0
M  V30 5130 H 495.826 1.01807 -2.9746 0
M  V30 5131 N 499.598 0.982988 -1.23187 0
M  V30 5132 C 500.844 1.72648 -1.06398 0
M  V30 5133 C 501.177 1.90066 0.398561 0
M  V30 5134 O 500.452 1.45105 1.29518 0
M  V30 5135 C 500.735 3.12627 -1.78707 0
M  V30 5136 C 500.588 3.02795 -3.32618 0
M  V30 5137 C 501.907 4.11997 -1.54747 0
M  V30 5138 H 499.026 0.626649 -0.387918 0
M  V30 5139 H 501.668 1.14455 -1.51658 0
M  V30 5140 H 499.818 3.62308 -1.40234 0
M  V30 5141 H 501.49 2.60659 -3.80598 0
M  V30 5142 H 499.733 2.39362 -3.61785 0
M  V30 5143 H 500.404 4.01893 -3.78399 0
M  V30 5144 H 502.88 3.71114 -1.88186 0
M  V30 5145 H 501.756 5.08037 -2.07821 0
M  V30 5146 H 502.017 4.39462 -0.482249 0
M  V30 5147 N 501.076 1.04316 1.18135 0
M  V30 5148 C 502.006 0.657299 2.24058 0
M  V30 5149 C 502.987 -0.340678 1.66654 0
M  V30 5150 O 504.172 -0.220223 1.92947 0
M  V30 5151 C 501.302 0.0220715 3.47293 0
M  V30 5152 C 500.256 0.943857 4.17463 0
M  V30 5153 C 499.582 0.172973 5.3442 0
M  V30 5154 C 500.882 2.26409 4.70677 0
M  V30 5155 H 502.576 1.5428 2.56589 0
M  V30 5156 H 500.122 0.743263 1.23335 0
M  V30 5157 H 502.075 -0.259607 4.206 0
M  V30 5158 H 500.799 -0.898323 3.14003 0
M  V30 5159 H 499.458 1.20996 3.46057 0
M  V30 5160 H 499.106 -0.749907 4.97379 0
M  V30 5161 H 498.806 0.787098 5.82304 0
M  V30 5162 H 500.33 -0.101628 6.10515 0
M  V30 5163 H 501.744 2.04294 5.35665 0
M  V30 5164 H 500.141 2.8314 5.29105 0
M  V30 5165 H 501.211 2.90883 3.87962 0
M  V30 5166 N 502.554 -1.34406 0.822964 0
M  V30 5167 C 503.779 -2.0304 0.423034 0
M  V30 5168 C 504.204 -1.61568 -0.963196 0
M  V30 5169 O 503.562 -0.800339 -1.62678 0
M  V30 5170 C 503.61 -3.56636 0.53321 0
M  V30 5171 O 502.714 -4.09971 -0.446939 0
M  V30 5172 H 502.055 -0.64075 0.174171 0
M  V30 5173 H 504.585 -1.71653 1.11339 0
M  V30 5174 H 504.595 -4.05945 0.408991 0
M  V30 5175 H 503.27 -3.86168 1.54425 0
M  V30 5176 H 501.847 -3.71835 -0.281601 0
M  V30 5177 N 504.032 -0.577932 -1.46621 0
M  V30 5178 C 505.278 -0.0617793 -2.02706 0
M  V30 5179 C 505.611 1.29294 -1.44903 0
M  V30 5180 O 504.886 1.8461 -0.61232 0
M  V30 5181 C 505.169 0.00911824 -3.60099 0
M  V30 5182 C 505.022 -1.37416 -4.28295 0
M  V30 5183 C 506.341 0.712159 -4.343 0
M  V30 5184 H 503.46 -0.0239246 -0.736612 0
M  V30 5185 H 506.102 -0.744211 -1.74818 0
M  V30 5186 H 504.252 0.590292 -3.83989 0
M  V30 5187 H 505.924 -2.00013 -4.15683 0
M  V30 5188 H 504.167 -1.94319 -3.87843 0
M  V30 5189 H 504.838 -1.27707 -5.37024 0
M  V30 5190 H 507.314 0.218486 -4.15526 0
M  V30 5191 H 506.19 0.730782 -5.44014 0
M  V30 5192 H 506.451 1.77251 -4.05012 0
M  V30 5193 N 505.51 1.54411 -0.315457 0
M  V30 5194 C 506.44 2.27002 0.547039 0
M  V30 5195 C 507.421 1.27492 1.12605 0
M  V30 5196 O 508.606 1.5629 1.15269 0
M  V30 5197 C 505.736 3.02171 1.71201 0
M  V30 5198 C 504.69 4.0895 1.26268 0
M  V30 5199 C 504.016 4.71915 2.51396 0
M  V30 5200 C 505.316 5.20891 0.383419 0
M  V30 5201 H 507.01 2.99343 -0.0584517 0
M  V30 5202 H 504.556 1.4397 -0.0295527 0
M  V30 5203 H 506.509 3.51681 2.32161 0
M  V30 5204 H 505.233 2.27433 2.34397 0
M  V30 5205 H 503.892 3.60312 0.676062 0
M  V30 5206 H 503.54 3.93801 3.12937 0
M  V30 5207 H 503.24 5.44039 2.22026 0
M  V30 5208 H 504.764 5.24195 3.13133 0
M  V30 5209 H 506.178 5.66206 0.899082 0
M  V30 5210 H 504.575 5.99821 0.182857 0
M  V30 5211 H 505.645 4.81324 -0.587821 0
M  V30 5212 N 506.988 0.0434614 1.5754 0
M  V30 5213 C 507.918 -0.931651 2.14109 0
M  V30 5214 C 508.899 -1.32971 1.06079 0
M  V30 5215 O 510.084 -1.40579 1.33982 0
M  V30 5216 C 507.214 -2.20914 2.67982 0
M  V30 5217 C 506.168 -1.95139 3.80926 0
M  V30 5218 C 505.494 -3.29276 4.21285 0
M  V30 5219 C 506.794 -1.27913 5.06395 0
M  V30 5220 H 508.488 -0.460497 2.95837 0
M  V30 5221 H 506.034 -0.220058 1.42309 0
M  V30 5222 H 507.987 -2.89522 3.06194 0
M  V30 5223 H 506.711 -2.70221 1.83434 0
M  V30 5224 H 505.37 -1.28945 3.43175 0
M  V30 5225 H 505.018 -3.76369 3.33699 0
M  V30 5226 H 504.718 -3.12831 4.97404 0
M  V30 5227 H 506.242 -3.99129 4.62091 0
M  V30 5228 H 507.656 -1.86544 5.42102 0
M  V30 5229 H 506.053 -1.2182 5.87605 0
M  V30 5230 H 507.123 -0.254066 4.84234 0
M  V30 5231 N 508.466 -1.55915 -0.229846 0
M  V30 5232 C 509.713 -1.78542 -0.955452 0
M  V30 5233 C 510.041 -0.610785 -1.84661 0
M  V30 5234 O 509.296 0.405213 -1.91459 0
M  V30 5235 C 509.595 -3.06845 -1.8325 0
M  V30 5236 C 509.261 -4.37395 -1.09528 0
M  V30 5237 C 507.923 -4.72868 -0.891598 0
M  V30 5238 C 510.275 -5.18029 -0.574046 0
M  V30 5239 C 507.603 -5.86496 -0.154655 0
M  V30 5240 C 509.955 -6.32423 0.149513 0
M  V30 5241 C 508.619 -6.66504 0.364519 0
M  V30 5242 H 507.889 -0.653333 -0.349625 0
M  V30 5243 H 510.536 -1.90183 -0.224235 0
M  V30 5244 H 508.841 -2.90291 -2.63132 0
M  V30 5245 H 510.538 -3.21553 -2.39592 0
M  V30 5246 H 507.128 -4.09538 -1.26399 0
M  V30 5247 H 511.312 -4.91066 -0.718899 0
M  V30 5248 H 506.568 -6.11396 0.0222356 0
M  V30 5249 H 510.742 -6.94137 0.560947 0
M  V30 5250 H 508.369 -7.54397 0.937495 0
M  V30 5251 N 509.944 0.496216 -1.49584 0
M  V30 5252 C 511.174 1.27209 -1.62793 0
M  V30 5253 C 511.582 1.86799 -0.300476 0
M  V30 5254 O 510.925 1.68802 0.724674 0
M  V30 5255 C 510.987 2.43812 -2.64189 0
M  V30 5256 C 510.651 2.05055 -4.08414 0
M  V30 5257 C 511.648 1.58752 -4.9507 0
M  V30 5258 C 509.333 2.14543 -4.54177 0
M  V30 5259 C 511.327 1.22448 -6.25528 0
M  V30 5260 C 509.014 1.77851 -5.84647 0
M  V30 5261 C 510.012 1.31878 -6.70147 0
M  V30 5262 O 509.7 0.956834 -7.98185 0
M  V30 5263 H 509.432 0.391848 -0.550846 0
M  V30 5264 H 511.986 0.601712 -1.96389 0
M  V30 5265 H 510.216 3.13941 -2.25783 0
M  V30 5266 H 511.905 3.05829 -2.66877 0
M  V30 5267 H 512.671 1.50863 -4.60939 0
M  V30 5268 H 508.55 2.49277 -3.87791 0
M  V30 5269 H 512.094 0.864933 -6.92217 0
M  V30 5270 H 507.991 1.8539 -6.18305 0
M  V30 5271 H 508.759 1.08789 -8.11238 0
M  V30 5272 N 511.423 1.38739 0.74761 0
M  V30 5273 C 512.834 1.31507 1.32524 0
M  V30 5274 C 513.185 -0.0263963 1.96182 0
M  V30 5275 O 512.31 -0.92849 1.95469 0
M  V30 5276 C 512.905 2.38162 2.40966 0
M  V30 5277 C 511.464 2.34489 2.94434 0
M  V30 5278 C 510.611 2.20712 1.67873 0
M  V30 5279 H 513.562 1.4901 0.546043 0
M  V30 5280 H 513.583 2.04222 3.21051 0
M  V30 5281 H 513.095 3.35783 1.94605 0
M  V30 5282 H 511.196 1.40467 3.45108 0
M  V30 5283 H 511.309 3.28861 3.48407 0
M  V30 5284 H 509.673 1.67667 1.91729 0
M  V30 5285 H 510.456 3.20285 1.23582 0
M  V30 5286 N 512.901 -0.976442 1.23707 0
M  V30 5287 C 513.811 -2.10359 1.03856 0
M  V30 5288 C 514.827 -1.73991 -0.0180919 0
M  V30 5289 O 516.003 -2.0061 0.178211 0
M  V30 5290 C 513.068 -3.40809 0.636387 0
M  V30 5291 C 512.129 -3.91179 1.76854 0
M  V30 5292 C 511.362 -5.15404 1.38546 0
M  V30 5293 O 511.585 -5.69754 0.27142 0
M  V30 5294 O 510.519 -5.5994 2.20797 0
M  V30 5295 H 514.345 -2.29997 1.98331 0
M  V30 5296 H 511.93 -1.08742 1.02448 0
M  V30 5297 H 513.812 -4.19269 0.423223 0
M  V30 5298 H 512.487 -3.22493 -0.279322 0
M  V30 5299 H 511.394 -3.13819 2.03638 0
M  V30 5300 H 512.727 -4.13958 2.6627 0
M  V30 5301 N 514.379 -1.04941 -1.1758 0
M  V30 5302 C 515.656 -0.671918 -1.83697 0
M  V30 5303 C 516.036 0.847929 -1.93322 0
M  V30 5304 O 515.384 1.75287 -1.46583 0
M  V30 5305 C 515.594 -1.35797 -3.21497 0
M  V30 5306 C 516.942 -1.4944 -3.97433 0
M  V30 5307 O 517.966 -1.31678 -3.30967 0
M  V30 5308 O 516.825 -1.78463 -5.1654 0
M  V30 5309 H 513.919 -0.236212 -0.792548 0
M  V30 5310 H 516.465 -1.14884 -1.24899 0
M  V30 5311 H 515.237 -2.39498 -3.09446 0
M  V30 5312 H 514.86 -0.870236 -3.8796 0
M  V30 5313 N 515.857 1.33968 -0.830081 0
M  V30 5314 C 516.767 2.33164 -0.259207 0
M  V30 5315 C 517.783 1.62951 0.610164 0
M  V30 5316 O 518.959 1.94668 0.516369 0
M  V30 5317 C 516.024 3.42088 0.563598 0
M  V30 5318 C 515.085 4.28037 -0.329014 0
M  V30 5319 C 514.318 5.3176 0.454616 0
M  V30 5320 O 514.541 5.44876 1.6872 0
M  V30 5321 O 513.475 6.01669 -0.166794 0
M  V30 5322 H 517.301 2.83832 -1.08041 0
M  V30 5323 H 514.886 1.37154 -0.59239 0
M  V30 5324 H 516.768 4.08581 1.03147 0
M  V30 5325 H 515.443 2.93651 1.36201 0
M  V30 5326 H 514.35 3.64443 -0.844538 0
M  V30 5327 H 515.683 4.79934 -1.09196 0
M  V30 5328 N 517.335 0.585699 1.46312 0
M  V30 5329 C 518.298 -0.135673 2.28798 0
M  V30 5330 C 519.298 -0.815988 1.38558 0
M  V30 5331 O 520.488 -0.667487 1.60904 0
M  V30 5332 C 517.62 -1.20163 3.1902 0
M  V30 5333 H 518.813 0.589257 2.94054 0
M  V30 5334 H 516.366 0.343794 1.52472 0
M  V30 5335 H 517.101 -1.95804 2.58517 0
M  V30 5336 H 516.886 -0.718282 3.85465 0
M  V30 5337 H 518.376 -1.70749 3.81096 0
M  V30 5338 N 518.813 -1.54241 0.323641 0
M  V30 5339 C 519.776 -2.22997 -0.529602 0
M  V30 5340 C 520.776 -1.22345 -1.04347 0
M  V30 5341 O 521.966 -1.46924 -0.935889 0
M  V30 5342 C 519.098 -2.93409 -1.73562 0
M  V30 5343 H 520.291 -2.99815 0.0714518 0
M  V30 5344 H 517.844 -1.56121 0.0747258 0
M  V30 5345 H 518.579 -2.20729 -2.37591 0
M  V30 5346 H 518.364 -3.67217 -1.37456 0
M  V30 5347 H 519.854 -3.45794 -2.34128 0
M  V30 5348 N 520.291 -0.0518155 -1.57515 0
M  V30 5349 C 521.238 0.922352 -2.11569 0
M  V30 5350 C 522.208 1.30842 -1.02321 0
M  V30 5351 O 523.393 1.39778 -1.29872 0
M  V30 5352 C 520.533 2.19167 -2.6657 0
M  V30 5353 C 519.646 1.86003 -3.89906 0
M  V30 5354 C 518.781 3.07398 -4.33221 0
M  V30 5355 C 517.82 2.70158 -5.49255 0
M  V30 5356 N 516.957 3.84248 -5.8762 0
M  V30 5357 H 521.797 0.454506 -2.94514 0
M  V30 5358 H 519.334 0.212718 -1.45554 0
M  V30 5359 H 521.292 2.93443 -2.96559 0
M  V30 5360 H 519.922 2.63528 -1.86421 0
M  V30 5361 H 518.974 1.01874 -3.66505 0
M  V30 5362 H 520.286 1.54592 -4.74239 0
M  V30 5363 H 519.44 3.89972 -4.64765 0
M  V30 5364 H 518.179 3.41988 -3.477 0
M  V30 5365 H 517.184 1.86001 -5.17382 0
M  V30 5366 H 518.409 2.36759 -6.36492 0
M  V30 5367 H 516.355 4.18638 -5.05053 0
M  V30 5368 H 516.272 3.56538 -6.66646 0
M  V30 5369 H 517.54 4.6746 -6.2378 0
M  V30 5370 N 521.769 1.56035 0.221574 0
M  V30 5371 C 523.185 1.49026 0.571271 0
M  V30 5372 C 523.385 0.746912 1.87146 0
M  V30 5373 O 522.441 0.286566 2.50869 0
M  V30 5374 C 523.754 2.93579 0.650522 0
M  V30 5375 C 525.302 3.04099 0.741151 0
M  V30 5376 C 525.777 4.5001 0.851747 0
M  V30 5377 N 527.268 4.54053 0.915968 0
M  V30 5378 C 528.003 5.64232 1.02125 0
M  V30 5379 N 527.499 6.84164 1.09049 0
M  V30 5380 N 529.292 5.52084 1.05639 0
M  V30 5381 H 521.443 2.02791 -0.63162 0
M  V30 5382 H 523.706 0.921736 -0.221602 0
M  V30 5383 H 523.412 3.50912 -0.235253 0
M  V30 5384 H 523.286 3.45476 1.51413 0
M  V30 5385 H 525.673 2.4683 1.61737 0
M  V30 5386 H 525.754 2.55371 -0.148128 0
M  V30 5387 H 525.398 5.07896 -0.0200117 0
M  V30 5388 H 525.328 4.96444 1.75644 0
M  V30 5389 H 527.819 3.67683 0.872782 0
M  V30 5390 H 528.132 7.63883 1.1706 0
M  V30 5391 H 526.477 6.86875 1.05962 0
M  V30 5392 H 529.668 4.57317 0.998953 0
M  V30 5393 H 529.841 6.37983 1.13498 0
M  V30 5394 N 523.247 -0.488276 1.49845 0
M  V30 5395 C 524.21 -1.57069 1.66919 0
M  V30 5396 C 525.21 -1.51445 0.540479 0
M  V30 5397 O 526.4 -1.5437 0.807188 0
M  V30 5398 C 523.532 -2.96718 1.67844 0
M  V30 5399 H 524.725 -1.43254 2.63474 0
M  V30 5400 H 522.278 -0.713435 1.39068 0
M  V30 5401 H 523.013 -3.15996 0.7292 0
M  V30 5402 H 522.798 -3.02208 2.49826 0
M  V30 5403 H 524.288 -3.75335 1.83066 0
M  V30 5404 N 524.725 -1.39134 -0.740242 0
M  V30 5405 C 525.655 -1.40165 -1.86751 0
M  V30 5406 C 526.636 -0.265708 -1.68012 0
M  V30 5407 O 527.821 -0.47076 -1.88408 0
M  V30 5408 C 524.951 -1.2392 -3.2444 0
M  V30 5409 C 523.905 -2.34858 -3.57807 0
M  V30 5410 C 523.231 -2.03707 -4.94376 0
M  V30 5411 C 524.531 -3.77159 -3.61315 0
M  V30 5412 H 526.225 -2.345 -1.86145 0
M  V30 5413 H 523.771 -1.12875 -0.89416 0
M  V30 5414 H 525.724 -1.23263 -4.02969 0
M  V30 5415 H 524.448 -0.26051 -3.25559 0
M  V30 5416 H 523.107 -2.34723 -2.81604 0
M  V30 5417 H 522.755 -1.04289 -4.9207 0
M  V30 5418 H 522.455 -2.78016 -5.17669 0
M  V30 5419 H 523.979 -2.04691 -5.75268 0
M  V30 5420 H 525.393 -3.79252 -4.29931 0
M  V30 5421 H 523.79 -4.50784 -3.96124 0
M  V30 5422 H 524.86 -4.08513 -2.61238 0
M  V30 5423 N 526.204 0.969867 -1.24223 0
M  V30 5424 C 527.152 2.08535 -1.03034 0
M  V30 5425 C 528.146 1.69366 0.0340379 0
M  V30 5426 O 529.352 1.79597 -0.12034 0
M  V30 5427 H 525.727 0.682313 -0.316154 0
M  V30 5428 H 527.698 2.23569 -1.97635 0
M  V30 5429 C 526.447 3.4158 -0.649509 0
M  V30 5430 H 525.77 3.72177 -1.46028 0
M  V30 5431 H 527.21 4.20536 -0.540841 0
M  V30 5432 C 525.669 3.30703 0.643194 0
M  V30 5433 O 526.199 3.64443 1.68951 0
M  V30 5434 N 524.405 2.83841 0.623095 0
M  V30 5435 H 523.952 2.56583 -0.228719 0
M  V30 5436 H 523.91 2.76946 1.48823 0
M  V30 5437 N 527.682 1.05563 1.17022 0
M  V30 5438 C 528.614 0.617888 2.20714 0
M  V30 5439 C 529.627 -0.320303 1.59618 0
M  V30 5440 O 530.816 -0.112449 1.78145 0
M  V30 5441 C 527.916 -0.115333 3.38704 0
M  V30 5442 C 527.089 0.834493 4.29366 0
M  V30 5443 C 526.148 0.141855 5.26009 0
M  V30 5444 O 525.174 0.777151 5.6387 0
M  V30 5445 N 526.376 -1.11934 5.69606 0
M  V30 5446 H 529.141 1.50981 2.58892 0
M  V30 5447 H 526.702 0.938008 1.31958 0
M  V30 5448 H 528.694 -0.588918 4.00392 0
M  V30 5449 H 527.264 -0.908967 2.99093 0
M  V30 5450 H 526.484 1.48762 3.65053 0
M  V30 5451 H 527.772 1.4791 4.86827 0
M  V30 5452 H 527.17 -1.65574 5.40927 0
M  V30 5453 H 525.727 -1.53692 6.33421 0
M  V30 5454 N 529.16 -1.33526 0.837174 0
M  V30 5455 C 530.39 -2.01754 0.444848 0
M  V30 5456 C 530.798 -1.63149 -0.958072 0
M  V30 5457 O 530.141 -0.839827 -1.63379 0
M  V30 5458 C 530.203 -3.56228 0.483917 0
M  V30 5459 C 529.867 -4.18205 1.84265 0
M  V30 5460 C 530.864 -4.37699 2.80563 0
M  V30 5461 C 528.549 -4.54667 2.13503 0
M  V30 5462 C 530.543 -4.928 4.04261 0
M  V30 5463 C 528.23 -5.09475 3.37458 0
M  V30 5464 C 529.228 -5.28488 4.32654 0
M  V30 5465 O 528.916 -5.82132 5.54417 0
M  V30 5466 H 528.648 -0.652928 0.175104 0
M  V30 5467 H 531.202 -1.71469 1.13082 0
M  V30 5468 H 529.432 -3.85833 -0.258826 0
M  V30 5469 H 531.121 -4.05752 0.109653 0
M  V30 5470 H 531.887 -4.0988 2.59274 0
M  V30 5471 H 527.766 -4.39164 1.40201 0
M  V30 5472 H 531.31 -5.07555 4.78574 0
M  V30 5473 H 527.207 -5.36725 3.58604 0
M  V30 5474 H 527.975 -6.00548 5.56133 0
M  V30 5475 N 530.638 -0.59345 -1.46 0
M  V30 5476 C 531.57 0.171569 -2.28557 0
M  V30 5477 C 532.583 0.845273 -1.39137 0
M  V30 5478 O 533.772 0.713033 -1.6364 0
M  V30 5479 C 530.872 1.26311 -3.14482 0
M  V30 5480 C 530.045 0.679258 -4.32094 0
M  V30 5481 C 529.104 1.65987 -4.99334 0
M  V30 5482 O 528.13 1.19171 -5.56585 0
M  V30 5483 N 529.332 2.99414 -4.97324 0
M  V30 5484 H 532.097 -0.536771 -2.94854 0
M  V30 5485 H 529.658 -0.431954 -1.56031 0
M  V30 5486 H 531.65 1.91863 -3.5633 0
M  V30 5487 H 530.22 1.87416 -2.50188 0
M  V30 5488 H 529.44 -0.153992 -3.93899 0
M  V30 5489 H 530.728 0.26916 -5.08088 0
M  V30 5490 H 530.126 3.40064 -4.52076 0
M  V30 5491 H 528.683 3.60426 -5.4308 0
M  V30 5492 N 532.116 1.54067 -0.331816 0
M  V30 5493 C 533.079 2.23275 0.517768 0
M  V30 5494 C 534.079 1.22897 1.03697 0
M  V30 5495 O 535.269 1.47419 0.928084 0
M  V30 5496 C 532.401 2.94326 1.72004 0
M  V30 5497 H 533.594 2.99773 -0.0873507 0
M  V30 5498 H 531.147 1.56079 -0.0830042 0
M  V30 5499 H 531.882 2.21986 2.36417 0
M  V30 5500 H 531.667 3.67941 1.35507 0
M  V30 5501 H 533.157 3.47031 2.32291 0
M  V30 5502 N 533.594 0.0601682 1.57485 0
M  V30 5503 C 534.526 -0.94047 2.09016 0
M  V30 5504 C 535.539 -1.26897 1.01985 0
M  V30 5505 O 536.728 -1.22819 1.29529 0
M  V30 5506 C 533.828 -2.25955 2.52582 0
M  V30 5507 C 533.001 -2.11163 3.83052 0
M  V30 5508 C 532.06 -3.26273 4.12835 0
M  V30 5509 O 531.086 -3.01779 4.82616 0
M  V30 5510 N 532.288 -4.51022 3.65458 0
M  V30 5511 H 535.053 -0.500578 2.9549 0
M  V30 5512 H 532.614 -0.125852 1.6141 0
M  V30 5513 H 534.606 -3.01846 2.69575 0
M  V30 5514 H 533.176 -2.61481 1.71308 0
M  V30 5515 H 532.396 -1.19808 3.75552 0
M  V30 5516 H 533.684 -1.98517 4.68475 0
M  V30 5517 H 533.082 -4.73811 3.09062 0
M  V30 5518 H 531.639 -5.23978 3.87673 0
M  V30 5519 N 535.072 -1.5615 -0.213296 0
M  V30 5520 C 536.002 -1.96109 -1.26742 0
M  V30 5521 C 536.983 -0.830448 -1.48451 0
M  V30 5522 O 538.168 -1.09339 -1.60495 0
M  V30 5523 C 535.298 -2.28492 -2.61551 0
M  V30 5524 C 534.252 -3.44124 -2.54485 0
M  V30 5525 C 533.578 -3.62134 -3.93399 0
M  V30 5526 C 534.878 -4.78855 -2.08556 0
M  V30 5527 H 536.572 -2.84412 -0.935434 0
M  V30 5528 H 534.118 -1.36836 -0.44854 0
M  V30 5529 H 536.071 -2.55039 -3.3546 0
M  V30 5530 H 534.795 -1.37052 -2.96453 0
M  V30 5531 H 533.454 -3.17639 -1.83033 0
M  V30 5532 H 533.102 -2.68055 -4.25623 0
M  V30 5533 H 532.802 -4.39913 -3.89551 0
M  V30 5534 H 534.326 -3.91038 -4.68958 0
M  V30 5535 H 535.74 -5.04552 -2.72213 0
M  V30 5536 H 534.137 -5.59975 -2.1575 0
M  V30 5537 H 535.207 -4.73657 -1.03811 0
M  V30 5538 N 536.55 0.480323 -1.50102 0
M  V30 5539 C 537.798 1.23063 -1.60312 0
M  V30 5540 C 538.119 1.92659 -0.301226 0
M  V30 5541 O 537.389 1.83691 0.680753 0
M  V30 5542 H 535.969 0.457231 -0.590719 0
M  V30 5543 H 538.631 0.554893 -1.86834 0
M  V30 5544 H 537.727 1.9835 -2.40964 0
M  V30 5545 N 538.028 1.39524 0.732853 0
M  V30 5546 C 538.938 1.40695 1.87729 0
M  V30 5547 C 539.954 0.301496 1.71368 0
M  V30 5548 O 541.13 0.543313 1.93933 0
M  V30 5549 C 538.195 1.25098 3.23344 0
M  V30 5550 C 537.256 2.45634 3.52083 0
M  V30 5551 C 536.489 2.30772 4.81228 0
M  V30 5552 O 536.712 1.31233 5.55098 0
M  V30 5553 O 535.646 3.19799 5.09914 0
M  V30 5554 H 539.472 2.37168 1.89697 0
M  V30 5555 H 537.057 1.20663 0.880959 0
M  V30 5556 H 538.939 1.18541 4.04383 0
M  V30 5557 H 537.614 0.317209 3.22142 0
M  V30 5558 H 536.521 2.57767 2.71122 0
M  V30 5559 H 537.854 3.37712 3.58066 0
M  V30 5560 N 539.506 -0.963266 1.24736 0
M  V30 5561 C 540.917 -1.52145 1.08207 0
M  V30 5562 C 541.268 -1.93142 -0.345061 0
M  V30 5563 O 540.393 -1.77769 -1.23399 0
M  V30 5564 C 540.988 -2.76486 1.95808 0
M  V30 5565 C 539.547 -3.28646 1.8349 0
M  V30 5566 C 538.694 -2.01529 1.90476 0
M  V30 5567 H 541.645 -0.781083 1.38148 0
M  V30 5568 H 541.666 -3.49986 1.49297 0
M  V30 5569 H 541.178 -2.46617 2.99669 0
M  V30 5570 H 539.279 -3.63357 0.824787 0
M  V30 5571 H 539.392 -3.97246 2.67829 0
M  V30 5572 H 537.756 -2.16442 1.34258 0
M  V30 5573 H 538.539 -1.7402 2.95926 0
M  V30 5574 N 540.985 -1.06182 -1.16461 0
M  V30 5575 C 542.401 -0.785065 -1.38956 0
M  V30 5576 C 542.601 0.616103 -1.9185 0
M  V30 5577 O 541.657 1.37686 -2.11657 0
M  V30 5578 C 542.97 -1.84902 -2.37132 0
M  V30 5579 C 544.518 -1.8724 -2.50819 0
M  V30 5580 C 544.993 -2.92686 -3.52277 0
M  V30 5581 N 546.484 -2.91712 -3.59803 0
M  V30 5582 C 547.219 -3.69949 -4.38093 0
M  V30 5583 N 546.715 -4.58 -5.19815 0
M  V30 5584 N 548.508 -3.58346 -4.33064 0
M  V30 5585 H 540.659 -1.96569 -0.804634 0
M  V30 5586 H 542.922 -0.851747 -0.416211 0
M  V30 5587 H 542.628 -2.85518 -2.0536 0
M  V30 5588 H 542.502 -1.69908 -3.36766 0
M  V30 5589 H 544.889 -0.872827 -2.81897 0
M  V30 5590 H 544.97 -2.06311 -1.51226 0
M  V30 5591 H 544.614 -3.92835 -3.21937 0
M  V30 5592 H 544.544 -2.70864 -4.51598 0
M  V30 5593 H 547.035 -2.27876 -3.01464 0
M  V30 5594 H 547.348 -5.14357 -5.76764 0
M  V30 5595 H 545.693 -4.62056 -5.19162 0
M  V30 5596 H 548.884 -2.88943 -3.68279 0
M  V30 5597 H 549.057 -4.19563 -4.93833 0
M  V30 5598 N 542.463 1.3308 -0.844243 0
M  V30 5599 C 543.874 1.7992 -0.498566 0
M  V30 5600 C 544.225 1.69808 0.982834 0
M  V30 5601 O 543.35 1.25051 1.7661 0
M  V30 5602 C 543.945 3.26677 -0.898204 0
M  V30 5603 C 542.504 3.71513 -0.604583 0
M  V30 5604 C 541.651 2.54393 -1.10362 0
M  V30 5605 H 544.602 1.20526 -1.03244 0
M  V30 5606 H 544.623 3.79918 -0.21039 0
M  V30 5607 H 544.135 3.34004 -1.97643 0
M  V30 5608 H 542.236 3.69708 0.46335 0
M  V30 5609 H 542.349 4.64755 -1.16358 0
M  V30 5610 H 540.713 2.49246 -0.524273 0
M  V30 5611 H 541.496 2.6448 -2.18873 0
M  V30 5612 N 543.941 0.601185 1.45683 0
M  V30 5613 C 545.189 0.0936957 2.01883 0
M  V30 5614 C 545.51 -1.2779 1.47291 0
M  V30 5615 O 544.78 -1.84279 0.664691 0
M  V30 5616 H 543.36 0.0316466 0.746329 0
M  V30 5617 H 546.022 0.781137 1.78562 0
M  V30 5618 H 545.118 0.0386297 3.12076 0
M  V30 5619 N 545.419 -1.53889 0.339982 0
M  V30 5620 C 546.349 -2.27843 -0.510856 0
M  V30 5621 C 547.33 -1.29267 -1.10563 0
M  V30 5622 O 548.515 -1.58104 -1.12768 0
M  V30 5623 C 545.645 -3.04857 -1.66372 0
M  V30 5624 C 544.599 -4.10907 -1.19746 0
M  V30 5625 C 543.925 -4.75855 -2.43857 0
M  V30 5626 C 545.225 -5.21435 -0.300501 0
M  V30 5627 H 546.919 -2.99212 0.106067 0
M  V30 5628 H 544.465 -1.43904 0.0524533 0
M  V30 5629 H 546.418 -3.5533 -2.26537 0
M  V30 5630 H 545.142 -2.31133 -2.30749 0
M  V30 5631 H 543.801 -3.61342 -0.618654 0
M  V30 5632 H 543.449 -3.9873 -3.06633 0
M  V30 5633 H 543.149 -5.47502 -2.13343 0
M  V30 5634 H 544.673 -5.2911 -3.04754 0
M  V30 5635 H 546.087 -5.67565 -0.80889 0
M  V30 5636 H 544.484 -6.00036 -0.0874076 0
M  V30 5637 H 545.554 -4.80328 0.664321 0
M  V30 5638 N 546.897 -0.0685191 -1.57451 0
M  V30 5639 C 548.145 0.60016 -1.92983 0
M  V30 5640 C 548.466 1.70348 -0.949028 0
M  V30 5641 O 547.736 1.959 0.00335647 0
M  V30 5642 H 546.316 0.224682 -0.712409 0
M  V30 5643 H 548.978 -0.125605 -1.94495 0
M  V30 5644 H 548.074 1.02759 -2.94698 0
M  V30 5645 N 548.375 1.56261 0.205012 0
M  V30 5646 C 549.786 1.70056 0.770574 0
M  V30 5647 C 550.137 0.673398 1.84282 0
M  V30 5648 O 549.262 -0.172196 2.15714 0
M  V30 5649 C 549.857 3.08316 1.40451 0
M  V30 5650 C 548.416 3.2391 1.91727 0
M  V30 5651 C 547.563 2.66001 0.783516 0
M  V30 5652 H 550.514 1.58688 -0.019911 0
M  V30 5653 H 550.535 3.05094 2.27371 0
M  V30 5654 H 550.047 3.83053 0.623882 0
M  V30 5655 H 548.148 2.54072 2.7254 0
M  V30 5656 H 548.261 4.3131 2.08588 0
M  V30 5657 H 546.625 2.24915 1.19521 0
M  V30 5658 H 547.408 3.43297 0.0152883 0
M  V30 5659 N 549.853 -0.472356 1.50355 0
M  V30 5660 C 551.269 -0.806001 1.37753 0
M  V30 5661 C 551.469 -1.968 0.432649 0
M  V30 5662 O 550.525 -2.52189 -0.12519 0
M  V30 5663 C 551.838 -1.11926 2.79093 0
M  V30 5664 C 553.386 -1.22579 2.87999 0
M  V30 5665 C 553.861 -1.57218 4.3017 0
M  V30 5666 N 555.352 -1.64212 4.33115 0
M  V30 5667 C 556.087 -1.92517 5.40116 0
M  V30 5668 N 555.583 -2.1885 6.57325 0
M  V30 5669 N 557.376 -1.94008 5.27558 0
M  V30 5670 H 549.527 0.293451 2.10363 0
M  V30 5671 H 551.79 0.0687672 0.945503 0
M  V30 5672 H 551.496 -0.338504 3.50067 0
M  V30 5673 H 551.37 -2.05577 3.16256 0
M  V30 5674 H 553.757 -1.99722 2.17245 0
M  V30 5675 H 553.838 -0.269107 2.54381 0
M  V30 5676 H 553.482 -0.806154 5.01461 0
M  V30 5677 H 553.412 -2.54034 4.61275 0
M  V30 5678 H 555.903 -1.45906 3.48597 0
M  V30 5679 H 556.216 -2.39718 7.3468 0
M  V30 5680 H 554.561 -2.16245 6.60502 0
M  V30 5681 H 557.752 -1.72931 4.34986 0
M  V30 5682 H 557.925 -2.15731 6.11035 0
M  V30 5683 N 551.331 -1.39911 -0.725443 0
M  V30 5684 C 552.241 -1.41688 -1.8698 0
M  V30 5685 C 553.257 -0.310579 -1.71206 0
M  V30 5686 O 554.433 -0.55359 -1.93642 0
M  V30 5687 C 551.498 -1.26811 -3.22676 0
M  V30 5688 C 550.559 -2.47497 -3.50776 0
M  V30 5689 C 549.792 -2.3332 -4.79997 0
M  V30 5690 O 550.015 -1.34175 -5.54394 0
M  V30 5691 O 548.949 -3.22498 -5.08211 0
M  V30 5692 H 552.775 -2.38171 -1.88436 0
M  V30 5693 H 550.36 -1.21128 -0.874548 0
M  V30 5694 H 552.242 -1.20684 -4.03749 0
M  V30 5695 H 550.917 -0.334289 -3.21969 0
M  V30 5696 H 549.824 -2.59201 -2.69751 0
M  V30 5697 H 551.157 -3.39606 -3.5627 0
M  V30 5698 N 552.809 0.956637 -1.25245 0
M  V30 5699 C 554.086 1.67716 -1.00651 0
M  V30 5700 C 554.466 2.0585 0.467866 0
M  V30 5701 O 553.814 1.77029 1.44475 0
M  V30 5702 C 554.024 2.90093 -1.94028 0
M  V30 5703 C 555.372 3.6209 -2.21756 0
M  V30 5704 O 556.396 3.00171 -1.9177 0
M  V30 5705 O 555.255 4.7358 -2.72735 0
M  V30 5706 H 552.349 0.733731 -0.381533 0
M  V30 5707 H 554.895 1.00974 -1.3639 0
M  V30 5708 H 553.667 2.58689 -2.93591 0
M  V30 5709 H 553.29 3.64566 -1.58674 0
M  V30 5710 N 554.287 1.06798 1.15896 0
M  V30 5711 C 555.536 0.782796 1.8589 0
M  V30 5712 C 555.849 -0.693498 1.82893 0
M  V30 5713 O 557.055 -1.09325 2.48516 0
M  V30 5714 C 555.511 1.3502 3.33613 0
M  V30 5715 C 555.119 2.8571 3.45071 0
M  V30 5716 C 556.863 1.14278 4.08829 0
M  V30 5717 C 554.77 3.35669 4.86909 0
M  V30 5718 H 553.7 0.289149 0.696354 0
M  V30 5719 H 556.351 1.28734 1.30766 0
M  V30 5720 H 554.733 0.773407 3.88374 0
M  V30 5721 H 555.907 3.49385 3.00445 0
M  V30 5722 H 554.222 3.05178 2.83294 0
M  V30 5723 H 556.819 1.49087 5.13495 0
M  V30 5724 H 557.162 0.0814575 4.1622 0
M  V30 5725 H 557.695 1.68563 3.60321 0
M  V30 5726 H 554.434 4.41302 4.84698 0
M  V30 5727 H 553.954 2.76745 5.32139 0
M  V30 5728 H 555.633 3.31296 5.55745 0
M  V30 5729 N 555.766 -1.3263 0.851289 0
M  V30 5730 C 556.698 -2.27824 0.250757 0
M  V30 5731 C 557.711 -1.52285 -0.575598 0
M  V30 5732 O 558.9 -1.73946 -0.400638 0
M  V30 5733 C 556 -3.3232 -0.664571 0
M  V30 5734 C 555.173 -4.37221 0.125187 0
M  V30 5735 C 554.232 -5.21314 -0.715385 0
M  V30 5736 O 553.258 -5.69002 -0.150111 0
M  V30 5737 N 554.46 -5.43823 -2.03069 0
M  V30 5738 H 557.225 -2.79997 1.06873 0
M  V30 5739 H 554.786 -1.45455 0.710943 0
M  V30 5740 H 556.778 -3.85486 -1.23216 0
M  V30 5741 H 555.348 -2.80331 -1.38323 0
M  V30 5742 H 554.568 -3.84384 0.874199 0
M  V30 5743 H 555.856 -5.04399 0.667774 0
M  V30 5744 H 555.254 -5.06803 -2.51332 0
M  V30 5745 H 553.811 -5.99998 -2.54648 0
M  V30 5746 N 557.244 -0.608902 -1.45362 0
M  V30 5747 C 558.66 -0.272659 -1.57254 0
M  V30 5748 C 558.86 1.22477 -1.60005 0
M  V30 5749 O 557.916 2.00785 -1.53106 0
M  V30 5750 C 559.229 -0.944991 -2.85465 0
M  V30 5751 C 560.777 -0.921033 -2.99142 0
M  V30 5752 C 561.252 -1.5734 -4.30126 0
M  V30 5753 N 562.743 -1.53895 -4.36887 0
M  V30 5754 C 563.478 -2.01286 -5.36909 0
M  V30 5755 N 562.974 -2.56768 -6.43461 0
M  V30 5756 N 564.767 -1.92046 -5.28275 0
M  V30 5757 H 556.918 -1.58117 -1.4182 0
M  V30 5758 H 559.181 -0.662437 -0.678146 0
M  V30 5759 H 558.887 -1.99941 -2.89338 0
M  V30 5760 H 558.761 -0.469079 -3.74272 0
M  V30 5761 H 561.148 0.124846 -2.94836 0
M  V30 5762 H 561.229 -1.43522 -2.11743 0
M  V30 5763 H 560.873 -2.61862 -4.35191 0
M  V30 5764 H 560.803 -1.03422 -5.16344 0
M  V30 5765 H 563.294 -1.13366 -3.60495 0
M  V30 5766 H 563.607 -2.9072 -7.16032 0
M  V30 5767 H 561.952 -2.60808 -6.44208 0
M  V30 5768 H 565.143 -1.48439 -4.43941 0
M  V30 5769 H 565.316 -2.29293 -6.06077 0
M  V30 5770 N 558.722 1.53707 -0.348139 0
M  V30 5771 C 559.969 2.00988 0.246966 0
M  V30 5772 C 560.297 1.23586 1.50189 0
M  V30 5773 O 559.552 0.312817 1.93184 0
M  V30 5774 C 559.851 3.52292 0.602061 0
M  V30 5775 C 559.517 4.47453 -0.556509 0
M  V30 5776 C 558.179 4.73188 -0.874446 0
M  V30 5777 C 560.531 5.03851 -1.33354 0
M  V30 5778 C 557.859 5.52577 -1.9717 0
M  V30 5779 C 560.211 5.84437 -2.42108 0
M  V30 5780 C 558.875 6.08465 -2.74456 0
M  V30 5781 H 558.145 0.735469 0.0903712 0
M  V30 5782 H 560.792 1.85464 -0.477001 0
M  V30 5783 H 559.097 3.65672 1.40681 0
M  V30 5784 H 560.794 3.86337 1.07447 0
M  V30 5785 H 557.384 4.27558 -0.298652 0
M  V30 5786 H 561.568 4.8393 -1.10117 0
M  V30 5787 H 556.824 5.69418 -2.22651 0
M  V30 5788 H 560.998 6.27151 -3.02745 0
M  V30 5789 H 558.625 6.69768 -3.59604 0
M  V30 5790 N 560.2 0.0768682 1.57412 0
M  V30 5791 C 561.449 -0.590679 1.92857 0
M  V30 5792 C 561.762 -1.70461 0.959293 0
M  V30 5793 O 562.968 -2.43207 1.20675 0
M  V30 5794 C 561.424 -1.10204 3.42612 0
M  V30 5795 C 561.032 -0.0188447 4.47996 0
M  V30 5796 C 562.776 -1.74336 3.87049 0
M  V30 5797 C 560.683 -0.544536 5.88888 0
M  V30 5798 H 559.613 -0.224411 0.71983 0
M  V30 5799 H 562.264 0.149924 1.82887 0
M  V30 5800 H 560.646 -1.89577 3.47673 0
M  V30 5801 H 561.82 0.755936 4.54557 0
M  V30 5802 H 560.135 0.526555 4.13057 0
M  V30 5803 H 562.732 -2.14708 4.89699 0
M  V30 5804 H 563.075 -2.60537 3.24694 0
M  V30 5805 H 563.608 -1.01577 3.84613 0
M  V30 5806 H 560.347 0.280426 6.549 0
M  V30 5807 H 559.867 -1.28673 5.85836 0
M  V30 5808 H 561.546 -1.01933 6.3892 0
M  V30 5809 N 561.678 -1.56367 -0.196722 0
M  V30 5810 C 562.608 -1.97442 -1.24655 0
M  V30 5811 C 563.589 -0.846147 -1.47561 0
M  V30 5812 O 564.774 -1.11035 -1.59326 0
M  V30 5813 C 561.904 -2.31253 -2.59112 0
M  V30 5814 C 560.858 -3.46804 -2.50821 0
M  V30 5815 C 560.184 -3.66286 -3.89536 0
M  V30 5816 C 561.484 -4.8104 -2.03465 0
M  V30 5817 H 563.178 -2.85388 -0.905216 0
M  V30 5818 H 560.724 -1.37304 -0.434002 0
M  V30 5819 H 562.677 -2.58583 -3.32736 0
M  V30 5820 H 561.401 -1.40188 -2.94983 0
M  V30 5821 H 560.06 -3.19563 -1.79653 0
M  V30 5822 H 559.708 -2.72555 -4.22756 0
M  V30 5823 H 559.408 -4.4402 -3.84864 0
M  V30 5824 H 560.932 -3.9599 -4.64784 0
M  V30 5825 H 562.346 -5.07411 -2.66846 0
M  V30 5826 H 560.743 -5.62232 -2.09798 0
M  V30 5827 H 561.813 -4.74732 -0.98781 0
M  V30 5828 N 563.156 0.464375 -1.50603 0
M  V30 5829 C 564.572 0.798684 -1.38178 0
M  V30 5830 C 564.772 1.96568 -0.44308 0
M  V30 5831 O 563.828 2.52252 0.111814 0
M  V30 5832 C 565.141 1.10444 -2.79683 0
M  V30 5833 C 566.689 1.2105 -2.88645 0
M  V30 5834 C 567.164 1.54934 -4.30998 0
M  V30 5835 N 568.655 1.61913 -4.3398 0
M  V30 5836 C 569.39 1.8965 -5.41129 0
M  V30 5837 N 568.886 2.15361 -6.58477 0
M  V30 5838 N 570.679 1.91207 -5.28579 0
M  V30 5839 H 562.83 -0.304603 -2.10204 0
M  V30 5840 H 565.093 -0.0737804 -0.945125 0
M  V30 5841 H 564.799 0.319934 -3.50242 0
M  V30 5842 H 564.673 2.03896 -3.17342 0
M  V30 5843 H 567.06 1.98567 -2.18301 0
M  V30 5844 H 567.141 0.255613 -2.5452 0
M  V30 5845 H 566.785 0.779549 -5.01882 0
M  V30 5846 H 566.715 2.51584 -4.62615 0
M  V30 5847 H 569.206 1.44055 -3.49366 0
M  V30 5848 H 569.519 2.35818 -7.35941 0
M  V30 5849 H 567.864 2.1274 -6.6164 0
M  V30 5850 H 571.055 1.70622 -4.35897 0
M  V30 5851 H 571.228 2.12488 -6.12171 0
M  V30 5852 N 564.634 1.40294 0.718013 0
M  V30 5853 C 565.859 1.41941 1.5122 0
M  V30 5854 C 566.284 0.0202371 1.88089 0
M  V30 5855 O 565.642 -0.971078 1.53101 0
M  V30 5856 C 565.69 2.3141 2.76554 0
M  V30 5857 O 564.794 1.75567 3.73162 0
M  V30 5858 H 564.135 0.482644 0.456016 0
M  V30 5859 H 566.665 1.84494 0.884478 0
M  V30 5860 H 566.675 2.46513 3.25108 0
M  V30 5861 H 565.35 3.33085 2.49053 0
M  V30 5862 H 563.927 1.69798 3.31999 0
M  V30 5863 N 566.112 -0.949982 1.2575 0
M  V30 5864 C 567.042 -2.06483 1.09028 0
M  V30 5865 C 568.023 -1.701 -0.00201532 0
M  V30 5866 O 569.208 -1.93469 0.168383 0
M  V30 5867 C 566.338 -3.39899 0.71316 0
M  V30 5868 C 565.292 -3.90309 1.75621 0
M  V30 5869 C 564.618 -5.20274 1.23365 0
M  V30 5870 C 565.918 -4.16169 3.15596 0
M  V30 5871 H 567.612 -2.20731 2.02283 0
M  V30 5872 H 565.158 -1.06066 0.973964 0
M  V30 5873 H 567.111 -4.17346 0.58309 0
M  V30 5874 H 565.835 -3.25602 -0.255091 0
M  V30 5875 H 564.494 -3.15035 1.8748 0
M  V30 5876 H 564.142 -5.02351 0.255491 0
M  V30 5877 H 563.842 -5.54971 1.93082 0
M  V30 5878 H 565.366 -6.00314 1.11607 0
M  V30 5879 H 566.78 -4.84259 3.06864 0
M  V30 5880 H 565.177 -4.62131 3.82825 0
M  V30 5881 H 566.247 -3.22273 3.6231 0
M  V30 5882 N 567.59 -1.07411 -1.15328 0
M  V30 5883 C 568.838 -0.796073 -1.85761 0
M  V30 5884 C 569.159 0.679864 -1.82764 0
M  V30 5885 O 568.429 1.49242 -1.269 0
M  V30 5886 H 567.009 -0.291495 -0.687779 0
M  V30 5887 H 569.671 -1.35799 -1.39802 0
M  V30 5888 H 568.767 -1.13114 -2.90881 0
M  V30 5889 N 569.068 1.32177 -0.85831 0
M  V30 5890 C 569.978 2.32561 -0.308606 0
M  V30 5891 C 570.994 1.64209 0.575462 0
M  V30 5892 O 572.17 1.95719 0.474961 0
M  V30 5893 C 569.235 3.43207 0.490909 0
M  V30 5894 C 568.296 4.27243 -0.419733 0
M  V30 5895 C 567.529 5.32605 0.341719 0
M  V30 5896 O 567.752 5.48332 1.57125 0
M  V30 5897 O 566.686 6.0118 -0.294379 0
M  V30 5898 H 570.512 2.81477 -1.14037 0
M  V30 5899 H 568.097 1.35866 -0.621349 0
M  V30 5900 H 569.979 4.10677 0.944574 0
M  V30 5901 H 568.654 2.96474 1.29941 0
M  V30 5902 H 567.561 3.62569 -0.921652 0
M  V30 5903 H 568.894 4.7751 -1.19352 0
M  V30 5904 N 570.547 0.616602 1.45037 0
M  V30 5905 C 571.494 -0.0969439 2.30596 0
M  V30 5906 C 572.464 -0.851151 1.42635 0
M  V30 5907 O 573.649 -0.835092 1.71554 0
M  V30 5908 C 570.789 -1.08234 3.27688 0
M  V30 5909 C 569.902 -0.328072 4.30752 0
M  V30 5910 C 569.037 -1.30399 5.14946 0
M  V30 5911 C 568.076 -0.538049 6.09731 0
M  V30 5912 N 567.213 -1.46371 6.86673 0
M  V30 5913 H 572.053 0.63864 2.91076 0
M  V30 5914 H 569.59 0.326733 1.43425 0
M  V30 5915 H 571.548 -1.66688 3.82454 0
M  V30 5916 H 570.178 -1.78523 2.68941 0
M  V30 5917 H 569.23 0.372136 3.78575 0
M  V30 5918 H 570.542 0.269142 4.98073 0
M  V30 5919 H 569.696 -1.96032 5.74157 0
M  V30 5920 H 568.435 -1.93514 4.47665 0
M  V30 5921 H 567.44 0.131852 5.49642 0
M  V30 5922 H 568.665 0.0881732 6.79043 0
M  V30 5923 H 566.611 -2.08233 6.22073 0
M  V30 5924 H 566.528 -0.920152 7.50379 0
M  V30 5925 H 567.796 -2.10932 7.50418 0
M  V30 5926 N 572.025 -1.5352 0.356285 0
M  V30 5927 C 573.441 -1.59599 0.00485267 0
M  V30 5928 C 573.641 -1.37179 -1.47595 0
M  V30 5929 O 572.697 -1.17234 -2.23635 0
M  V30 5930 C 574.01 -2.97277 0.452454 0
M  V30 5931 C 575.558 -3.10357 0.405881 0
M  V30 5932 C 576.033 -4.50432 0.829148 0
M  V30 5933 N 577.524 -4.5652 0.783838 0
M  V30 5934 C 578.259 -5.63077 1.08315 0
M  V30 5935 N 577.755 -6.77429 1.45126 0
M  V30 5936 N 579.548 -5.53014 1.00655 0
M  V30 5937 H 571.699 -1.66346 1.32071 0
M  V30 5938 H 573.962 -0.77971 0.539218 0
M  V30 5939 H 573.668 -3.18792 1.48542 0
M  V30 5940 H 573.542 -3.76836 -0.165762 0
M  V30 5941 H 575.929 -2.88558 -0.617934 0
M  V30 5942 H 576.01 -2.32828 1.05947 0
M  V30 5943 H 575.654 -4.72968 1.85103 0
M  V30 5944 H 575.584 -5.26378 0.152906 0
M  V30 5945 H 578.075 -3.74408 0.512513 0
M  V30 5946 H 578.388 -7.54669 1.66415 0
M  V30 5947 H 576.733 -6.78844 1.48983 0
M  V30 5948 H 579.924 -4.62557 0.718215 0
M  V30 5949 H 580.097 -6.35964 1.24315 0
M  V30 5950 N 573.503 -0.0852151 -1.57369 0
M  V30 5951 C 574.435 0.907099 -2.10486 0
M  V30 5952 C 575.448 1.25259 -1.03991 0
M  V30 5953 O 576.637 1.20743 -1.31467 0
M  V30 5954 C 573.737 2.21908 -2.56145 0
M  V30 5955 C 572.91 2.05042 -3.86363 0
M  V30 5956 C 571.969 3.19664 -4.17973 0
M  V30 5957 O 570.995 2.94062 -4.87356 0
M  V30 5958 N 572.197 4.45151 -3.72587 0
M  V30 5959 H 574.962 0.453505 -2.96249 0
M  V30 5960 H 572.523 0.100157 -1.6159 0
M  V30 5961 H 574.515 2.97519 -2.74343 0
M  V30 5962 H 573.085 2.58723 -1.75446 0
M  V30 5963 H 572.305 1.13819 -3.77411 0
M  V30 5964 H 573.593 1.91039 -4.71574 0
M  V30 5965 H 572.991 4.68834 -3.16561 0
M  V30 5966 H 571.548 5.17744 -3.9596 0
M  V30 5967 N 574.981 1.5647 0.188427 0
M  V30 5968 C 575.911 1.98101 1.23606 0
M  V30 5969 C 576.892 0.853961 1.47111 0
M  V30 5970 O 578.077 1.11879 1.58735 0
M  V30 5971 C 575.207 2.32624 2.57882 0
M  V30 5972 C 574.161 3.48129 2.48978 0
M  V30 5973 C 573.487 3.68347 3.87588 0
M  V30 5974 C 574.787 4.82112 2.00911 0
M  V30 5975 H 576.481 2.85864 0.890068 0
M  V30 5976 H 574.027 1.37532 0.426714 0
M  V30 5977 H 575.98 2.60343 3.3136 0
M  V30 5978 H 574.704 1.41751 2.94235 0
M  V30 5979 H 573.363 3.20511 1.77956 0
M  V30 5980 H 573.011 2.74793 4.21305 0
M  V30 5981 H 572.711 4.46055 3.82503 0
M  V30 5982 H 574.235 3.98449 4.62678 0
M  V30 5983 H 575.649 5.08819 2.64151 0
M  V30 5984 H 574.046 5.63337 2.06814 0
M  V30 5985 H 575.116 4.75249 0.96262 0
M  V30 5986 N 576.459 -0.456382 1.50847 0
M  V30 5987 C 577.689 -1.22848 1.66108 0
M  V30 5988 C 578.097 -1.85936 0.349897 0
M  V30 5989 O 577.44 -1.70664 -0.679665 0
M  V30 5990 C 577.502 -2.36722 2.70561 0
M  V30 5991 C 577.166 -1.94154 4.13707 0
M  V30 5992 C 578.163 -1.4557 4.99105 0
M  V30 5993 C 575.848 -2.02426 4.59705 0
M  V30 5994 C 577.842 -1.0582 6.28555 0
M  V30 5995 C 575.529 -1.62287 5.89157 0
M  V30 5996 C 576.527 -1.14064 6.73408 0
M  V30 5997 O 576.215 -0.744873 8.00442 0
M  V30 5998 H 575.947 -0.377105 0.561042 0
M  V30 5999 H 578.501 -0.549431 1.97915 0
M  V30 6000 H 576.731 -3.07844 2.34027 0
M  V30 6001 H 578.42 -2.98646 2.74892 0
M  V30 6002 H 579.186 -1.38589 4.64777 0
M  V30 6003 H 575.065 -2.38908 3.94264 0
M  V30 6004 H 578.609 -0.6811 6.94267 0
M  V30 6005 H 574.506 -1.68932 6.23003 0
M  V30 6006 H 575.274 -0.87242 8.13837 0
M  V30 6007 N 577.937 -1.40673 -0.710563 0
M  V30 6008 C 579.167 -1.4234 -1.49742 0
M  V30 6009 C 579.575 -0.022821 -1.89186 0
M  V30 6010 O 578.918 0.964773 -1.56326 0
M  V30 6011 C 578.98 -2.25509 -2.79975 0
M  V30 6012 C 578.644 -3.73862 -2.62824 0
M  V30 6013 C 579.641 -4.66379 -2.29752 0
M  V30 6014 C 577.326 -4.17735 -2.78932 0
M  V30 6015 C 579.32 -6.00756 -2.13006 0
M  V30 6016 C 577.007 -5.5218 -2.61802 0
M  V30 6017 C 578.005 -6.43505 -2.28888 0
M  V30 6018 O 577.693 -7.75472 -2.11894 0
M  V30 6019 H 577.425 -0.487311 -0.468513 0
M  V30 6020 H 579.979 -1.8542 -0.883668 0
M  V30 6021 H 578.209 -1.77218 -3.43701 0
M  V30 6022 H 579.898 -2.19058 -3.41714 0
M  V30 6023 H 580.664 -4.33778 -2.16936 0
M  V30 6024 H 576.543 -3.46967 -3.03537 0
M  V30 6025 H 580.087 -6.72003 -1.87237 0
M  V30 6026 H 575.984 -5.84365 -2.74204 0
M  V30 6027 H 576.752 -7.86458 -2.26775 0
M  V30 6028 N 579.415 0.9433 -1.26252 0
M  V30 6029 C 580.378 2.02326 -1.07689 0
M  V30 6030 C 581.378 1.60779 -0.0259174 0
M  V30 6031 O 582.568 1.72108 -0.269134 0
M  V30 6032 C 579.7 3.34886 -0.63752 0
M  V30 6033 H 580.893 2.20225 -2.0357 0
M  V30 6034 H 578.446 1.12197 -1.08819 0
M  V30 6035 H 579.181 3.22684 0.323377 0
M  V30 6036 H 578.966 3.66393 -1.39637 0
M  V30 6037 H 580.456 4.14231 -0.529418 0
M  V30 6038 N 580.893 1.08022 1.14757 0
M  V30 6039 C 581.826 0.650738 2.18725 0
M  V30 6040 C 582.804 -0.335496 1.59101 0
M  V30 6041 O 583.988 -0.240295 1.86962 0
M  V30 6042 C 581.115 -0.0434377 3.38672 0
M  V30 6043 C 580.161 0.90232 4.16846 0
M  V30 6044 S 580.994 2.40693 4.78359 0
M  V30 6045 C 582.15 1.72475 6.01667 0
M  V30 6046 H 582.383 1.53152 2.54817 0
M  V30 6047 H 579.916 0.894823 1.25826 0
M  V30 6048 H 581.874 -0.437684 4.0816 0
M  V30 6049 H 580.535 -0.900659 3.0091 0
M  V30 6050 H 579.728 0.363445 5.02688 0
M  V30 6051 H 579.33 1.23728 3.52941 0
M  V30 6052 H 581.622 1.0404 6.69464 0
M  V30 6053 H 582.565 2.56175 6.60136 0
M  V30 6054 H 582.973 1.19979 5.51602 0
M  V30 6055 N 582.371 -1.3172 0.865308 0
M  V30 6056 C 583.281 -2.32394 0.320935 0
M  V30 6057 C 584.297 -1.64511 -0.566746 0
M  V30 6058 O 585.473 -1.95969 -0.464575 0
M  V30 6059 C 582.538 -3.43462 -0.472701 0
M  V30 6060 C 581.599 -4.27015 0.442385 0
M  V30 6061 C 580.832 -5.32779 -0.313469 0
M  V30 6062 O 581.055 -5.49158 -1.54214 0
M  V30 6063 O 579.989 -6.01015 0.326257 0
M  V30 6064 H 583.815 -2.80868 1.15528 0
M  V30 6065 H 581.4 -1.35535 0.628545 0
M  V30 6066 H 583.282 -4.11172 -0.922781 0
M  V30 6067 H 581.957 -2.97159 -1.28367 0
M  V30 6068 H 580.864 -3.62075 0.940866 0
M  V30 6069 H 582.197 -4.76871 1.21882 0
M  V30 6070 N 583.85 -0.624285 -1.44708 0
M  V30 6071 C 584.8 0.106466 -2.27751 0
M  V30 6072 C 585.784 0.822703 -1.38277 0
M  V30 6073 O 586.976 0.709939 -1.62138 0
M  V30 6074 C 584.105 1.092 -3.25469 0
M  V30 6075 C 583.191 0.375737 -4.22432 0
M  V30 6076 N 583.582 -0.591881 -5.02325 0
M  V30 6077 C 581.88 0.621093 -4.41654 0
M  V30 6078 C 582.581 -1.01443 -5.72786 0
M  V30 6079 N 581.557 -0.354651 -5.42442 0
M  V30 6080 H 585.359 -0.636464 -2.86926 0
M  V30 6081 H 582.873 -0.44925 -1.56062 0
M  V30 6082 H 584.87 1.63006 -3.83712 0
M  V30 6083 H 583.529 1.8353 -2.67856 0
M  V30 6084 H 584.541 -0.969389 -5.08747 0
M  V30 6085 H 581.218 1.34779 -3.95147 0
M  V30 6086 H 582.608 -1.81345 -6.46965 0
M  V30 6087 N 585.328 1.53329 -0.364422 0
M  V30 6088 C 586.258 2.28627 0.474543 0
M  V30 6089 C 587.239 1.31009 1.08492 0
M  V30 6090 O 588.424 1.59878 1.10239 0
M  V30 6091 C 585.554 3.07465 1.61501 0
M  V30 6092 C 584.508 4.1276 1.13194 0
M  V30 6093 C 583.834 4.79674 2.36255 0
M  V30 6094 C 585.134 5.21847 0.217507 0
M  V30 6095 H 586.828 2.99005 -0.153656 0
M  V30 6096 H 584.374 1.43803 -0.0753406 0
M  V30 6097 H 586.327 3.58889 2.20855 0
M  V30 6098 H 585.051 2.34775 2.27042 0
M  V30 6099 H 583.71 3.62281 0.56109 0
M  V30 6100 H 583.358 4.03557 3.00251 0
M  V30 6101 H 583.058 5.50827 2.04606 0
M  V30 6102 H 584.582 5.33892 2.96297 0
M  V30 6103 H 585.996 5.6878 0.718493 0
M  V30 6104 H 584.393 6.00099 -0.00806408 0
M  V30 6105 H 585.463 4.7921 -0.740653 0
M  V30 6106 N 586.806 0.0935595 1.57322 0
M  V30 6107 C 588.054 -0.569383 1.93913 0
M  V30 6108 C 588.375 -1.68817 0.976009 0
M  V30 6109 O 587.645 -1.9588 0.0278099 0
M  V30 6110 H 586.225 -0.21332 0.715894 0
M  V30 6111 H 588.887 0.156531 1.9427 0
M  V30 6112 H 587.983 -0.980577 2.96296 0
M  V30 6113 N 588.284 -1.56567 -0.180126 0
M  V30 6114 C 589.512 -1.85618 -0.913972 0
M  V30 6115 C 589.927 -0.677892 -1.7621 0
M  V30 6116 O 589.284 0.353171 -1.7905 0
M  V30 6117 C 589.335 -3.13619 -1.79793 0
M  V30 6118 O 589.056 -4.26906 -0.98402 0
M  V30 6119 C 590.557 -3.55954 -2.64219 0
M  V30 6120 H 587.777 -0.616043 -0.265954 0
M  V30 6121 H 590.321 -2.03681 -0.182872 0
M  V30 6122 H 588.476 -2.97409 -2.48247 0
M  V30 6123 H 588.89 -4.9989 -1.58776 0
M  V30 6124 H 590.364 -4.48444 -3.21873 0
M  V30 6125 H 590.841 -2.79653 -3.38661 0
M  V30 6126 H 591.447 -3.74746 -2.01111 0
M  V30 6127 N 589.762 0.448376 -1.51087 0
M  V30 6128 C 590.987 1.22605 -1.6728 0
M  V30 6129 C 591.412 1.84524 -0.365045 0
M  V30 6130 O 590.77 1.6832 0.673642 0
M  V30 6131 C 590.818 2.29393 -2.78229 0
M  V30 6132 O 589.922 3.34608 -2.41063 0
M  V30 6133 H 589.263 0.359705 -0.558129 0
M  V30 6134 H 591.793 0.530903 -1.97592 0
M  V30 6135 H 591.803 2.74352 -3.01986 0
M  V30 6136 H 590.478 1.83701 -3.73131 0
M  V30 6137 H 589.055 2.95202 -2.27838 0
M  V30 6138 N 591.24 1.41047 0.703093 0
M  V30 6139 C 592.487 1.4 1.46309 0
M  V30 6140 C 592.815 0.00654574 1.94499 0
M  V30 6141 O 592.07 -0.980255 1.6938 0
M  V30 6142 C 592.369 2.34686 2.6955 0
M  V30 6143 C 592.035 3.81684 2.40058 0
M  V30 6144 C 590.697 4.21731 2.31725 0
M  V30 6145 C 593.049 4.74525 2.15581 0
M  V30 6146 C 590.377 5.52637 1.97001 0
M  V30 6147 C 592.729 6.05744 1.82366 0
M  V30 6148 C 591.393 6.44819 1.72524 0
M  V30 6149 H 590.663 0.512295 0.535382 0
M  V30 6150 H 593.31 1.73792 0.804275 0
M  V30 6151 H 591.615 1.94122 3.40329 0
M  V30 6152 H 593.312 2.31152 3.27673 0
M  V30 6153 H 589.902 3.49963 2.47435 0
M  V30 6154 H 594.086 4.44395 2.20968 0
M  V30 6155 H 589.342 5.81802 1.87928 0
M  V30 6156 H 593.516 6.77189 1.62444 0
M  V30 6157 H 591.143 7.46168 1.45385 0
M  V30 6158 N 592.718 -0.936591 1.26751 0
M  V30 6159 C 593.665 -2.03597 1.08706 0
M  V30 6160 C 594.635 -1.66097 -0.00926542 0
M  V30 6161 O 595.82 -1.90199 0.151377 0
M  V30 6162 C 592.96 -3.3727 0.73094 0
M  V30 6163 C 592.073 -3.87778 1.90399 0
M  V30 6164 C 591.208 -5.09859 1.49056 0
M  V30 6165 C 590.247 -5.5264 2.63164 0
M  V30 6166 N 589.384 -6.65921 2.22471 0
M  V30 6167 H 594.224 -2.18364 2.02784 0
M  V30 6168 H 591.761 -1.06985 1.00958 0
M  V30 6169 H 593.719 -4.14128 0.505328 0
M  V30 6170 H 592.349 -3.22337 -0.172868 0
M  V30 6171 H 591.401 -3.07279 2.2424 0
M  V30 6172 H 592.713 -4.15464 2.76028 0
M  V30 6173 H 591.867 -5.9419 1.22567 0
M  V30 6174 H 590.606 -4.8393 0.60524 0
M  V30 6175 H 589.611 -4.66863 2.90377 0
M  V30 6176 H 590.836 -5.80568 3.52303 0
M  V30 6177 H 588.782 -6.41667 1.36379 0
M  V30 6178 H 588.699 -6.93216 3.01641 0
M  V30 6179 H 589.967 -7.53616 1.99205 0
M  V30 6180 N 594.196 -1.08629 -1.14182 0
M  V30 6181 C 595.473 -0.73002 -1.81466 0
M  V30 6182 C 595.853 0.785996 -1.95922 0
M  V30 6183 O 595.201 1.70535 -1.52086 0
M  V30 6184 C 595.411 -1.45957 -3.17014 0
M  V30 6185 C 596.759 -1.62008 -3.92477 0
M  V30 6186 O 597.783 -1.42141 -3.26611 0
M  V30 6187 O 596.642 -1.94806 -5.106 0
M  V30 6188 H 593.736 -0.261307 -0.784632 0
M  V30 6189 H 596.282 -1.188 -1.2118 0
M  V30 6190 H 595.054 -2.49221 -3.01669 0
M  V30 6191 H 594.677 -0.993222 -3.84995 0
M  V30 6192 N 595.674 1.31259 -0.872281 0
M  V30 6193 C 597.085 1.78822 -0.536617 0
M  V30 6194 C 597.436 1.71855 0.946594 0
M  V30 6195 O 596.561 1.28769 1.73918 0
M  V30 6196 C 597.156 3.24698 -0.967294 0
M  V30 6197 C 595.715 3.70147 -0.683251 0
M  V30 6198 C 594.862 2.51994 -1.15733 0
M  V30 6199 H 597.813 1.18308 -1.05777 0
M  V30 6200 H 597.834 3.79386 -0.290929 0
M  V30 6201 H 597.346 3.29737 -2.04683 0
M  V30 6202 H 595.447 3.70607 0.384825 0
M  V30 6203 H 595.56 4.62183 -1.2619 0
M  V30 6204 H 593.924 2.48078 -0.577024 0
M  V30 6205 H 594.707 2.59778 -2.24434 0
M  V30 6206 N 597.152 0.631951 1.44375 0
M  V30 6207 C 598.429 0.067646 1.95483 0
M  V30 6208 C 598.809 -1.40683 1.57389 0
M  V30 6209 O 598.157 -2.12167 0.848375 0
M  V30 6210 C 598.367 0.291392 3.47781 0
M  V30 6211 C 599.715 0.185028 4.24197 0
M  V30 6212 O 600.739 0.222803 3.55503 0
M  V30 6213 O 599.598 0.0906642 5.46425 0
M  V30 6214 H 596.692 -0.0218379 0.826712 0
M  V30 6215 H 599.238 0.703711 1.54421 0
M  V30 6216 H 598.01 1.31449 3.68561 0
M  V30 6217 H 597.633 -0.378772 3.95792 0
M  V30 6218 N 598.631 -1.53133 0.372548 0
M  V30 6219 C 600.042 -1.86404 -0.105155 0
M  V30 6220 C 600.393 -1.29289 -1.47576 0
M  V30 6221 O 599.518 -0.617646 -2.07398 0
M  V30 6222 C 600.113 -3.38223 -0.197588 0
M  V30 6223 C 598.672 -3.71266 -0.619556 0
M  V30 6224 C 597.819 -2.76353 0.228919 0
M  V30 6225 H 600.77 -1.47282 0.591077 0
M  V30 6226 H 600.791 -3.66577 -1.01987 0
M  V30 6227 H 600.303 -3.79763 0.800099 0
M  V30 6228 H 598.404 -3.35287 -1.62522 0
M  V30 6229 H 598.517 -4.77515 -0.389332 0
M  V30 6230 H 596.881 -2.52888 -0.303271 0
M  V30 6231 H 597.664 -3.20728 1.22428 0
M  V30 6232 N 600.109 -0.101901 -1.5727 0
M  V30 6233 C 601.355 0.554864 -1.95686 0
M  V30 6234 C 601.71 1.65368 -0.983415 0
M  V30 6235 O 601.003 1.91597 -0.0105374 0
M  V30 6236 C 601.197 1.14898 -3.38427 0
M  V30 6237 C 601.026 0.109251 -4.49567 0
M  V30 6238 C 599.796 -0.316633 -5.04307 0
M  V30 6239 C 601.994 -0.665196 -5.0998 0
M  V30 6240 N 599.976 -1.34393 -5.99009 0
M  V30 6241 C 601.347 -1.54413 -6.00464 0
M  V30 6242 C 603.402 -0.717966 -4.92696 0
M  V30 6243 C 602.105 -2.47122 -6.75517 0
M  V30 6244 C 604.131 -1.63268 -5.68417 0
M  V30 6245 C 603.493 -2.49923 -6.58572 0
M  V30 6246 H 599.592 0.17317 -0.762585 0
M  V30 6247 H 602.176 -0.18605 -1.93809 0
M  V30 6248 H 600.347 1.85969 -3.40984 0
M  V30 6249 H 602.079 1.76867 -3.64006 0
M  V30 6250 H 598.834 0.0724419 -4.73545 0
M  V30 6251 H 599.258 -1.85598 -6.51062 0
M  V30 6252 H 603.9 -0.0621637 -4.22754 0
M  V30 6253 H 601.618 -3.13724 -7.44717 0
M  V30 6254 H 605.204 -1.67874 -5.57054 0
M  V30 6255 H 604.084 -3.19553 -7.16139 0
M  V30 6256 N 601.587 1.56661 0.17182 0
M  V30 6257 C 602.815 1.861 0.904115 0
M  V30 6258 C 603.23 0.687227 1.75848 0
M  V30 6259 O 602.587 -0.343671 1.79235 0
M  V30 6260 C 602.638 3.14568 1.78127 0
M  V30 6261 O 602.359 4.27422 0.961366 0
M  V30 6262 C 603.86 3.5735 2.62327 0
M  V30 6263 H 601.08 0.617445 0.262684 0
M  V30 6264 H 603.624 2.03775 0.172068 0
M  V30 6265 H 601.779 2.98721 2.46666 0
M  V30 6266 H 602.193 5.00725 1.56123 0
M  V30 6267 H 603.667 4.50144 3.1949 0
M  V30 6268 H 604.144 2.81445 3.37173 0
M  V30 6269 H 604.75 3.75807 1.99121 0
M  V30 6270 N 603.065 -0.440357 1.51323 0
M  V30 6271 C 604.476 -1.02032 1.56353 0
M  V30 6272 C 604.827 -1.92382 0.385197 0
M  V30 6273 O 603.952 -2.10583 -0.498373 0
M  V30 6274 C 604.547 -1.85723 2.83359 0
M  V30 6275 C 603.106 -2.38774 2.90971 0
M  V30 6276 C 602.253 -1.17908 2.50984 0
M  V30 6277 H 605.204 -0.221744 1.57143 0
M  V30 6278 H 605.225 -2.71141 2.66951 0
M  V30 6279 H 604.737 -1.19939 3.69102 0
M  V30 6280 H 602.838 -3.08021 2.09651 0
M  V30 6281 H 602.951 -2.71778 3.94555 0
M  V30 6282 H 601.315 -1.52347 2.04114 0
M  V30 6283 H 602.098 -0.537393 3.39068 0
M  V30 6284 N 604.543 -1.41418 -0.695603 0
M  V30 6285 C 605.506 -1.42988 -1.79129 0
M  V30 6286 C 606.506 -0.320514 -1.57573 0
M  V30 6287 O 607.696 -0.58039 -1.64247 0
M  V30 6288 C 604.828 -1.24122 -3.175 0
M  V30 6289 H 606.021 -2.40526 -1.7913 0
M  V30 6290 H 603.574 -1.2756 -0.903225 0
M  V30 6291 H 604.309 -0.274253 -3.23138 0
M  V30 6292 H 604.094 -2.045 -3.34547 0
M  V30 6293 H 605.584 -1.28056 -3.97481 0
M  V30 6294 N 606.021 0.929856 -1.27246 0
M  V30 6295 C 606.984 2.01172 -1.09829 0
M  V30 6296 C 607.984 1.60743 -0.0429687 0
M  V30 6297 O 609.174 1.71813 -0.287373 0
M  V30 6298 C 606.306 3.34191 -0.673003 0
M  V30 6299 H 607.499 2.18054 -2.05895 0
M  V30 6300 H 605.052 1.11036 -1.10003 0
M  V30 6301 H 605.787 3.23009 0.289134 0
M  V30 6302 H 605.572 3.64892 -1.43515 0
M  V30 6303 H 607.062 4.13646 -0.573323 0
M  V30 6304 N 607.499 1.09233 1.13605 0
M  V30 6305 C 608.429 0.751738 2.21068 0
M  V30 6306 C 609.41 -0.269688 1.67948 0
M  V30 6307 O 610.595 -0.13819 1.93708 0
M  V30 6308 C 607.725 0.16935 3.46887 0
M  V30 6309 C 606.679 1.12007 4.13084 0
M  V30 6310 C 606.005 0.399483 5.33206 0
M  V30 6311 C 607.305 2.46168 4.6065 0
M  V30 6312 H 608.999 1.65024 2.49815 0
M  V30 6313 H 606.545 0.794905 1.20072 0
M  V30 6314 H 608.498 -0.0809824 4.21322 0
M  V30 6315 H 607.222 -0.764335 3.1753 0
M  V30 6316 H 605.881 1.35564 3.40614 0
M  V30 6317 H 605.529 -0.538277 5.00112 0
M  V30 6318 H 605.229 1.03337 5.78442 0
M  V30 6319 H 606.753 0.157403 6.10397 0
M  V30 6320 H 608.167 2.26829 5.26518 0
M  V30 6321 H 606.564 3.05326 5.1662 0
M  V30 6322 H 607.634 3.07076 3.75276 0
M  V30 6323 N 608.977 -1.30795 0.87923 0
M  V30 6324 C 610.226 -1.95636 0.490875 0
M  V30 6325 C 610.539 -1.70214 -0.963674 0
M  V30 6326 O 611.745 -2.28991 -1.45861 0
M  V30 6327 C 610.201 -3.50271 0.826929 0
M  V30 6328 C 609.809 -3.84521 2.29886 0
M  V30 6329 C 611.553 -4.21456 0.507494 0
M  V30 6330 C 609.46 -5.32309 2.57685 0
M  V30 6331 H 608.39 -0.732238 0.179841 0
M  V30 6332 H 611.041 -1.48829 1.07341 0
M  V30 6333 H 609.423 -3.9562 0.173542 0
M  V30 6334 H 610.597 -3.50102 2.99609 0
M  V30 6335 H 608.912 -3.26425 2.58526 0
M  V30 6336 H 611.509 -5.30199 0.692293 0
M  V30 6337 H 611.852 -4.12614 -0.552718 0
M  V30 6338 H 612.385 -3.81772 1.11782 0
M  V30 6339 H 609.124 -5.46195 3.62424 0
M  V30 6340 H 608.644 -5.68048 1.92566 0
M  V30 6341 H 610.323 -5.99678 2.42889 0
M  V30 6342 N 610.455 -0.639598 -1.44038 0
M  V30 6343 C 611.866 -0.228866 -1.85292 0
M  V30 6344 C 612.217 1.22161 -1.53529 0
M  V30 6345 O 611.342 1.93064 -0.977518 0
M  V30 6346 C 611.937 -0.408592 -3.36327 0
M  V30 6347 C 610.496 -0.0522953 -3.76364 0
M  V30 6348 C 609.643 -0.717959 -2.67844 0
M  V30 6349 H 612.594 -0.844194 -1.34384 0
M  V30 6350 H 612.615 0.349968 -3.78887 0
M  V30 6351 H 612.127 -1.46435 -3.59414 0
M  V30 6352 H 610.228 1.0014 -3.58891 0
M  V30 6353 H 610.341 -0.468261 -4.76806 0
M  V30 6354 H 608.705 -0.152459 -2.54243 0
M  V30 6355 H 609.488 -1.77648 -2.93762 0
M  V30 6356 N 611.933 1.52934 -0.380664 0
M  V30 6357 C 612.843 2.29921 0.466192 0
M  V30 6358 C 613.859 1.36488 1.07922 0
M  V30 6359 O 615.035 1.69553 1.0869 0
M  V30 6360 C 612.1 3.08468 1.58266 0
M  V30 6361 C 611.161 4.17595 0.995627 0
M  V30 6362 C 610.394 4.92387 2.05889 0
M  V30 6363 O 610.617 4.67184 3.27254 0
M  V30 6364 O 609.551 5.77949 1.68102 0
M  V30 6365 H 613.377 3.03274 -0.160735 0
M  V30 6366 H 610.962 1.48698 -0.144617 0
M  V30 6367 H 612.844 3.57469 2.23145 0
M  V30 6368 H 611.519 2.37937 2.19471 0
M  V30 6369 H 610.426 3.72811 0.310332 0
M  V30 6370 H 611.759 4.90336 0.427918 0
M  V30 6371 N 613.412 0.11024 1.57214 0
M  V30 6372 C 614.375 -0.828808 2.1369 0
M  V30 6373 C 615.375 -1.20059 1.06969 0
M  V30 6374 O 616.565 -1.12754 1.32786 0
M  V30 6375 C 613.697 -2.11959 2.66994 0
M  V30 6376 H 614.89 -0.338146 2.97988 0
M  V30 6377 H 612.443 -0.138913 1.55681 0
M  V30 6378 H 613.178 -2.65476 1.8626 0
M  V30 6379 H 612.963 -1.86258 3.45037 0
M  V30 6380 H 614.453 -2.79105 3.10629 0
M  V30 6381 N 614.89 -1.56749 -0.16351 0
M  V30 6382 C 615.82 -2.00042 -1.20438 0
M  V30 6383 C 616.801 -0.877256 -1.45733 0
M  V30 6384 O 617.986 -1.1439 -1.56935 0
M  V30 6385 C 615.116 -2.36697 -2.54149 0
M  V30 6386 C 614.07 -3.52046 -2.43408 0
M  V30 6387 C 613.396 -3.74466 -3.81679 0
M  V30 6388 C 614.696 -4.85247 -1.93216 0
M  V30 6389 H 616.39 -2.87244 -0.844477 0
M  V30 6390 H 613.936 -1.38194 -0.40478 0
M  V30 6391 H 615.889 -2.65582 -3.27176 0
M  V30 6392 H 614.613 -1.46414 -2.91943 0
M  V30 6393 H 613.272 -3.23301 -1.72834 0
M  V30 6394 H 612.92 -2.81461 -4.1688 0
M  V30 6395 H 612.62 -4.52084 -3.75359 0
M  V30 6396 H 614.144 -4.0576 -4.5628 0
M  V30 6397 H 615.558 -5.12957 -2.56023 0
M  V30 6398 H 613.955 -5.66556 -1.97825 0
M  V30 6399 H 615.025 -4.7672 -0.88689 0
M  V30 6400 N 616.368 0.432326 -1.51554 0
M  V30 6401 C 617.784 0.769195 -1.39841 0
M  V30 6402 C 617.984 1.95584 -0.484675 0
M  V30 6403 O 617.04 2.52433 0.0582829 0
M  V30 6404 C 618.353 1.04487 -2.81963 0
M  V30 6405 C 619.901 1.149 -2.91148 0
M  V30 6406 C 620.376 1.45758 -4.34187 0
M  V30 6407 N 621.867 1.52671 -4.37317 0
M  V30 6408 C 622.602 1.78129 -5.4503 0
M  V30 6409 N 622.098 2.01345 -6.62897 0
M  V30 6410 N 623.891 1.79953 -5.32516 0
M  V30 6411 H 616.042 -0.349122 -2.09511 0
M  V30 6412 H 618.305 -0.0938113 -0.943347 0
M  V30 6413 H 618.011 0.24557 -3.50842 0
M  V30 6414 H 617.885 1.97119 -3.21596 0
M  V30 6415 H 620.272 1.93891 -2.22464 0
M  V30 6416 H 620.353 0.201568 -2.55005 0
M  V30 6417 H 619.997 0.672917 -5.03423 0
M  V30 6418 H 619.927 2.41715 -4.67848 0
M  V30 6419 H 622.418 1.36612 -3.52343 0
M  V30 6420 H 622.731 2.20155 -7.40778 0
M  V30 6421 H 621.076 1.98657 -6.66003 0
M  V30 6422 H 624.267 1.61337 -4.39418 0
M  V30 6423 H 624.44 1.99455 -6.1654 0
M  V30 6424 N 617.846 1.41785 0.688094 0
M  V30 6425 C 618.756 1.46596 1.83158 0
M  V30 6426 C 619.772 0.355862 1.70322 0
M  V30 6427 O 620.948 0.604737 1.92106 0
M  V30 6428 C 618.013 1.35322 3.192 0
M  V30 6429 C 617.074 2.56711 3.4409 0
M  V30 6430 C 616.307 2.45965 4.73642 0
M  V30 6431 O 616.53 1.48827 5.50642 0
M  V30 6432 O 615.464 3.35859 4.99482 0
M  V30 6433 H 619.29 2.43083 1.82056 0
M  V30 6434 H 616.875 1.23404 0.842126 0
M  V30 6435 H 618.757 1.31347 4.00407 0
M  V30 6436 H 617.432 0.419536 3.2097 0
M  V30 6437 H 616.339 2.66262 2.62784 0
M  V30 6438 H 617.672 3.48933 3.47141 0
M  V30 6439 N 619.324 -0.923095 1.27737 0
M  V30 6440 C 620.271 -2.02432 1.1086 0
M  V30 6441 C 621.241 -1.66098 0.00835195 0
M  V30 6442 O 622.426 -1.90027 0.171542 0
M  V30 6443 C 619.566 -3.36476 0.766671 0
M  V30 6444 C 618.679 -3.85737 1.94501 0
M  V30 6445 C 617.814 -5.08249 1.54455 0
M  V30 6446 C 616.853 -5.49818 2.6901 0
M  V30 6447 N 615.99 -6.63524 2.29521 0
M  V30 6448 H 620.83 -2.16201 2.05089 0
M  V30 6449 H 618.367 -1.05909 1.02087 0
M  V30 6450 H 620.325 -4.13569 0.549223 0
M  V30 6451 H 618.955 -3.22502 -0.13867 0
M  V30 6452 H 618.007 -3.04883 2.27487 0
M  V30 6453 H 619.319 -4.12513 2.80419 0
M  V30 6454 H 618.473 -5.92857 1.28862 0
M  V30 6455 H 617.212 -4.83261 0.656534 0
M  V30 6456 H 616.217 -4.63757 2.95313 0
M  V30 6457 H 617.442 -5.76799 3.5844 0
M  V30 6458 H 615.388 -6.40185 1.43177 0
M  V30 6459 H 615.305 -6.89978 3.08977 0
M  V30 6460 H 616.573 -7.51461 2.07187 0
M  V30 6461 N 620.802 -1.09834 -1.13024 0
M  V30 6462 C 621.732 -0.763451 -2.20666 0
M  V30 6463 C 622.713 0.260778 -1.68089 0
M  V30 6464 O 623.898 0.127915 -1.93778 0
M  V30 6465 C 621.028 -0.187744 -3.46792 0
M  V30 6466 C 619.982 -1.14196 -4.12484 0
M  V30 6467 C 619.308 -0.427755 -5.32986 0
M  V30 6468 C 620.608 -2.48607 -4.59338 0
M  V30 6469 H 622.302 -1.66347 -2.48936 0
M  V30 6470 H 619.848 -0.801261 -1.19649 0
M  V30 6471 H 621.801 0.0586375 -4.21359 0
M  V30 6472 H 620.525 0.747485 -3.17931 0
M  V30 6473 H 619.184 -1.37369 -3.3989 0
M  V30 6474 H 618.832 0.511747 -5.0039 0
M  V30 6475 H 618.532 -1.06403 -5.77886 0
M  V30 6476 H 620.056 -0.189772 -6.10305 0
M  V30 6477 H 621.47 -2.29618 -5.25308 0
M  V30 6478 H 619.867 -3.08062 -5.14993 0
M  V30 6479 H 620.937 -3.09062 -3.73642 0
M  V30 6480 N 622.28 1.30327 -0.886154 0
M  V30 6481 C 623.696 1.48676 -0.580323 0
M  V30 6482 C 623.896 1.81189 0.881639 0
M  V30 6483 O 622.952 1.90021 1.66278 0
M  V30 6484 C 624.265 2.60932 -1.49449 0
M  V30 6485 C 625.813 2.74812 -1.49824 0
M  V30 6486 C 626.288 3.90183 -2.39836 0
M  V30 6487 N 627.779 3.97495 -2.37806 0
M  V30 6488 C 628.514 4.86078 -3.04165 0
M  V30 6489 N 628.01 5.79448 -3.79753 0
M  V30 6490 N 629.803 4.79456 -2.93391 0
M  V30 6491 H 621.954 1.07495 -1.8319 0
M  V30 6492 H 624.217 0.532661 -0.784204 0
M  V30 6493 H 623.923 2.43731 -2.5355 0
M  V30 6494 H 623.797 3.57437 -1.20494 0
M  V30 6495 H 626.184 2.91418 -0.464731 0
M  V30 6496 H 626.265 1.78924 -1.82811 0
M  V30 6497 H 625.909 3.74334 -3.43273 0
M  V30 6498 H 625.839 4.85411 -2.04166 0
M  V30 6499 H 628.33 3.30703 -1.82877 0
M  V30 6500 H 628.643 6.43805 -4.27475 0
M  V30 6501 H 626.988 5.79376 -3.8386 0
M  V30 6502 H 630.179 4.05494 -2.33864 0
M  V30 6503 H 630.352 5.48283 -3.45383 0
M  V30 6504 N 623.758 0.647228 1.43697 0
M  V30 6505 C 624.668 -0.0487997 2.34549 0
M  V30 6506 C 625.684 -0.818586 1.53542 0
M  V30 6507 O 626.86 -0.767195 1.86215 0
M  V30 6508 C 623.925 -1.00734 3.31743 0
M  V30 6509 C 622.986 -0.23515 4.28655 0
M  V30 6510 C 622.219 -1.14803 5.21206 0
M  V30 6511 O 622.442 -2.38717 5.18045 0
M  V30 6512 O 621.376 -0.623667 5.9866 0
M  V30 6513 H 625.202 0.698863 2.9555 0
M  V30 6514 H 622.787 0.407412 1.43738 0
M  V30 6515 H 624.669 -1.55837 3.91526 0
M  V30 6516 H 623.344 -1.73534 2.73254 0
M  V30 6517 H 622.251 0.359319 3.7237 0
M  V30 6518 H 623.584 0.453152 4.9011 0
M  V30 6519 N 625.236 -1.5273 0.388769 0
M  V30 6520 C 626.513 -1.93981 -0.251133 0
M  V30 6521 C 626.893 -1.32418 -1.64404 0
M  V30 6522 O 626.241 -0.492074 -2.23139 0
M  V30 6523 C 626.451 -3.47891 -0.27802 0
M  V30 6524 C 627.799 -4.21559 -0.507229 0
M  V30 6525 O 628.823 -3.54394 -0.358252 0
M  V30 6526 O 627.682 -5.40626 -0.799094 0
M  V30 6527 H 624.776 -0.812157 -0.15598 0
M  V30 6528 H 627.322 -1.63809 0.443237 0
M  V30 6529 H 626.094 -3.8503 0.697669 0
M  V30 6530 H 625.717 -3.84364 -1.01733 0
M  V30 6531 N 626.714 -0.118576 -1.57153 0
M  V30 6532 C 627.646 0.862247 -2.12363 0
M  V30 6533 C 628.659 1.23025 -1.06625 0
M  V30 6534 O 629.848 1.17927 -1.33998 0
M  V30 6535 C 626.948 2.16425 -2.60794 0
M  V30 6536 C 626.121 1.96801 -3.90626 0
M  V30 6537 C 625.18 3.10726 -4.2466 0
M  V30 6538 O 624.206 2.83659 -4.93484 0
M  V30 6539 N 625.408 4.37147 -3.81946 0
M  V30 6540 H 628.173 0.390564 -2.97144 0
M  V30 6541 H 625.734 0.0658591 -1.61766 0
M  V30 6542 H 627.726 2.91633 -2.80593 0
M  V30 6543 H 626.296 2.54943 -1.80895 0
M  V30 6544 H 625.516 1.05787 -3.7974 0
M  V30 6545 H 626.804 1.80993 -4.7552 0
M  V30 6546 H 626.202 4.62014 -3.26435 0
M  V30 6547 H 624.759 5.09229 -4.06853 0
M  V30 6548 N 628.193 1.56834 0.155195 0
M  V30 6549 C 629.103 2.009 1.21146 0
M  V30 6550 C 630.119 0.923029 1.475 0
M  V30 6551 O 631.295 1.23189 1.59331 0
M  V30 6552 C 628.36 2.37378 2.52691 0
M  V30 6553 C 627.421 3.59883 2.34057 0
M  V30 6554 C 626.654 3.94612 3.59329 0
M  V30 6555 O 626.877 3.30104 4.65175 0
M  V30 6556 O 625.811 4.87895 3.52479 0
M  V30 6557 H 629.637 2.9105 0.867371 0
M  V30 6558 H 627.222 1.44916 0.363298 0
M  V30 6559 H 629.104 2.61737 3.3026 0
M  V30 6560 H 627.779 1.50385 2.86646 0
M  V30 6561 H 626.686 3.40722 1.54465 0
M  V30 6562 H 628.019 4.47468 2.0502 0
M  V30 6563 N 629.671 -0.424282 1.51781 0
M  V30 6564 C 630.618 -1.51591 1.74037 0
M  V30 6565 C 631.588 -1.55556 0.582358 0
M  V30 6566 O 632.773 -1.72364 0.818245 0
M  V30 6567 C 629.913 -2.89188 1.8832 0
M  V30 6568 C 629.026 -2.9465 3.1592 0
M  V30 6569 C 628.161 -4.23452 3.20721 0
M  V30 6570 C 627.2 -4.22831 4.42584 0
M  V30 6571 N 626.337 -5.43178 4.44862 0
M  V30 6572 H 631.177 -1.31917 2.67212 0
M  V30 6573 H 628.714 -0.640599 1.32419 0
M  V30 6574 H 630.672 -3.69044 1.94583 0
M  V30 6575 H 629.302 -3.07392 0.985402 0
M  V30 6576 H 628.354 -2.07378 3.18902 0
M  V30 6577 H 629.666 -2.90055 4.05795 0
M  V30 6578 H 628.82 -5.1169 3.25973 0
M  V30 6579 H 627.559 -4.30722 2.28757 0
M  V30 6580 H 626.564 -3.32984 4.37495 0
M  V30 6581 H 627.789 -4.17213 5.35826 0
M  V30 6582 H 625.735 -5.51145 3.55775 0
M  V30 6583 H 625.652 -5.40515 5.28563 0
M  V30 6584 H 626.92 -6.33412 4.54324 0
M  V30 6585 N 631.149 -1.42148 -0.680565 0
M  V30 6586 C 632.565 -1.24947 -0.992995 0
M  V30 6587 C 632.765 -0.149527 -2.00944 0
M  V30 6588 O 631.821 0.481145 -2.47873 0
M  V30 6589 C 633.134 -2.60426 -1.5033 0
M  V30 6590 C 634.682 -2.67733 -1.62137 0
M  V30 6591 C 635.157 -4.03564 -2.16565 0
M  V30 6592 N 636.648 -4.05488 -2.23905 0
M  V30 6593 C 637.383 -5.07401 -2.67081 0
M  V30 6594 N 636.879 -6.19698 -3.09751 0
M  V30 6595 N 638.672 -4.94758 -2.66778 0
M  V30 6596 H 630.823 -2.12399 -0.0074788 0
M  V30 6597 H 633.086 -0.94571 -0.0658529 0
M  V30 6598 H 632.792 -3.41743 -0.830947 0
M  V30 6599 H 632.666 -2.83949 -2.483 0
M  V30 6600 H 635.053 -1.86765 -2.2848 0
M  V30 6601 H 635.134 -2.48004 -0.626713 0
M  V30 6602 H 634.778 -4.84987 -1.50833 0
M  V30 6603 H 634.708 -4.20641 -3.1681 0
M  V30 6604 H 637.199 -3.24415 -1.93812 0
M  V30 6605 H 637.512 -6.93318 -3.41365 0
M  V30 6606 H 635.857 -6.23212 -3.07623 0
M  V30 6607 H 639.048 -4.06105 -2.32801 0
M  V30 6608 H 639.221 -5.74317 -3.00107 0
M  V30 6609 N 632.627 0.916307 -1.28225 0
M  V30 6610 C 634.038 1.48024 -1.13779 0
M  V30 6611 C 634.389 1.94289 0.273139 0
M  V30 6612 O 633.514 1.82226 1.16716 0
M  V30 6613 C 634.109 2.69029 -2.05935 0
M  V30 6614 C 632.668 3.2161 -1.95561 0
M  V30 6615 C 631.815 1.94321 -1.97825 0
M  V30 6616 H 634.766 0.729272 -1.40951 0
M  V30 6617 H 634.787 3.44204 -1.62184 0
M  V30 6618 H 634.299 2.35325 -3.08616 0
M  V30 6619 H 632.4 3.60045 -0.959076 0
M  V30 6620 H 632.513 3.87032 -2.82388 0
M  V30 6621 H 630.877 2.1131 -1.42198 0
M  V30 6622 H 631.66 1.62917 -3.0218 0
M  V30 6623 N 634.105 1.10431 1.1244 0
M  V30 6624 C 635.351 0.857864 1.84424 0
M  V30 6625 C 635.706 -0.609995 1.82474 0
M  V30 6626 O 634.999 -1.44401 1.25932 0
M  V30 6627 C 635.193 1.34022 3.3132 0
M  V30 6628 C 635.022 2.85344 3.47576 0
M  V30 6629 C 633.792 3.53345 3.61213 0
M  V30 6630 C 635.99 3.83446 3.42744 0
M  V30 6631 N 633.972 4.92989 3.65834 0
M  V30 6632 C 635.343 5.09101 3.5386 0
M  V30 6633 C 637.398 3.76154 3.26209 0
M  V30 6634 C 636.101 6.28323 3.50146 0
M  V30 6635 C 638.127 4.94876 3.23809 0
M  V30 6636 C 637.489 6.19378 3.35485 0
M  V30 6637 H 633.588 0.366917 0.690577 0
M  V30 6638 H 636.172 1.40668 1.34613 0
M  V30 6639 H 634.343 0.818727 3.79673 0
M  V30 6640 H 636.075 1.03801 3.91162 0
M  V30 6641 H 632.83 3.03791 3.63329 0
M  V30 6642 H 633.254 5.65762 3.71809 0
M  V30 6643 H 637.896 2.80813 3.16076 0
M  V30 6644 H 635.614 7.23953 3.5905 0
M  V30 6645 H 639.2 4.90942 3.12197 0
M  V30 6646 H 638.08 7.09704 3.33602 0
M  V30 6647 N 635.583 -1.29855 0.893053 0
M  V30 6648 C 636.86 -1.90694 0.435336 0
M  V30 6649 C 637.24 -1.8111 -1.08454 0
M  V30 6650 O 636.588 -1.23352 -1.92345 0
M  V30 6651 C 636.798 -3.36033 0.942472 0
M  V30 6652 C 638.146 -4.13083 0.982226 0
M  V30 6653 O 639.17 -3.4491 0.889686 0
M  V30 6654 O 638.029 -5.34896 1.12022 0
M  V30 6655 H 635.123 -0.815978 0.134567 0
M  V30 6656 H 637.669 -1.38367 0.982484 0
M  V30 6657 H 636.441 -3.37132 1.9864 0
M  V30 6658 H 636.064 -3.95828 0.374952 0
M  V30 6659 N 637.061 -0.65484 -1.43351 0
M  V30 6660 C 638.011 0.0581325 -2.27926 0
M  V30 6661 C 638.995 0.793188 -1.3999 0
M  V30 6662 O 640.187 0.675387 -1.63608 0
M  V30 6663 C 637.316 1.02272 -3.27712 0
M  V30 6664 C 636.402 0.286048 -4.23134 0
M  V30 6665 N 636.793 -0.698298 -5.00957 0
M  V30 6666 C 635.091 0.527272 -4.42872 0
M  V30 6667 C 635.792 -1.1357 -5.70506 0
M  V30 6668 N 634.768 -0.469631 -5.41568 0
M  V30 6669 H 638.57 -0.697182 -2.85511 0
M  V30 6670 H 636.084 -0.482252 -1.55074 0
M  V30 6671 H 638.081 1.5483 -3.87083 0
M  V30 6672 H 636.741 1.77807 -2.71688 0
M  V30 6673 H 637.752 -1.07708 -5.06576 0
M  V30 6674 H 634.429 1.26367 -3.97916 0
M  V30 6675 H 635.819 -1.95027 -6.42973 0
M  V30 6676 N 638.539 1.52521 -0.396863 0
M  V30 6677 C 639.449 2.30403 0.44178 0
M  V30 6678 C 640.465 1.37625 1.06468 0
M  V30 6679 O 641.641 1.70697 1.06886 0
M  V30 6680 C 638.706 3.1013 1.54986 0
M  V30 6681 C 637.767 4.18628 0.951279 0
M  V30 6682 C 637 4.94543 2.00655 0
M  V30 6683 O 637.223 4.70629 3.22281 0
M  V30 6684 O 636.157 5.797 1.61962 0
M  V30 6685 H 639.983 3.03087 -0.192892 0
M  V30 6686 H 637.568 1.48537 -0.16038 0
M  V30 6687 H 639.45 3.59816 2.19341 0
M  V30 6688 H 638.125 2.40251 2.16935 0
M  V30 6689 H 637.032 3.73119 0.270773 0
M  V30 6690 H 638.365 4.90763 0.375887 0
M  V30 6691 N 640.017 0.126909 1.57088 0
M  V30 6692 C 641.428 -0.397201 1.82426 0
M  V30 6693 C 641.779 -1.66084 1.04453 0
M  V30 6694 O 640.904 -2.14534 0.283552 0
M  V30 6695 C 641.499 -0.727411 3.30899 0
M  V30 6696 C 640.058 -1.19612 3.56889 0
M  V30 6697 C 639.205 -0.20885 2.76512 0
M  V30 6698 H 642.156 0.351924 1.54749 0
M  V30 6699 H 642.177 -1.58407 3.45959 0
M  V30 6700 H 641.689 0.19247 3.87622 0
M  V30 6701 H 639.79 -2.13263 3.05532 0
M  V30 6702 H 639.903 -1.13598 4.65438 0
M  V30 6703 H 638.267 -0.697479 2.44964 0
M  V30 6704 H 639.05 0.704267 3.35998 0
M  V30 6705 N 641.495 -1.56914 -0.146875 0
M  V30 6706 C 642.741 -1.83628 -0.860741 0
M  V30 6707 C 643.074 -0.708528 -1.80813 0
M  V30 6708 O 642.349 0.287838 -1.92358 0
M  V30 6709 C 642.632 -3.20836 -1.63511 0
M  V30 6710 C 642.485 -4.44174 -0.709199 0
M  V30 6711 C 643.804 -3.55268 -2.59756 0
M  V30 6712 H 640.923 -0.667949 -0.311468 0
M  V30 6713 H 643.565 -1.89582 -0.125936 0
M  V30 6714 H 641.715 -3.15891 -2.26153 0
M  V30 6715 H 643.387 -4.61205 -0.0937781 0
M  V30 6716 H 641.63 -4.33796 -0.0187856 0
M  V30 6717 H 642.301 -5.36785 -1.28707 0
M  V30 6718 H 644.777 -3.60824 -2.07232 0
M  V30 6719 H 643.653 -4.52303 -3.10987 0
M  V30 6720 H 643.914 -2.81231 -3.41118 0
M  V30 6721 N 642.974 0.416227 -1.52004 0
M  V30 6722 C 643.921 1.50666 -1.74838 0
M  V30 6723 C 644.891 1.55245 -0.590599 0
M  V30 6724 O 646.076 1.71928 -0.827374 0
M  V30 6725 C 643.216 2.88185 -1.89851 0
M  V30 6726 C 642.329 2.92971 -3.17478 0
M  V30 6727 C 641.464 4.21745 -3.22962 0
M  V30 6728 C 640.503 4.20478 -4.4482 0
M  V30 6729 N 639.64 5.40811 -4.47736 0
M  V30 6730 H 644.48 1.30498 -2.67907 0
M  V30 6731 H 642.017 0.633568 -1.32757 0
M  V30 6732 H 643.975 3.68007 -1.96537 0
M  V30 6733 H 642.605 3.06865 -1.00169 0
M  V30 6734 H 641.657 2.05684 -3.19997 0
M  V30 6735 H 642.969 2.87899 -4.07328 0
M  V30 6736 H 642.123 5.09954 -3.28682 0
M  V30 6737 H 640.862 4.29503 -2.31038 0
M  V30 6738 H 639.867 3.30659 -4.39254 0
M  V30 6739 H 641.092 4.14366 -5.38031 0
M  V30 6740 H 639.038 5.4925 -3.58692 0
M  V30 6741 H 638.955 5.37705 -5.31422 0
M  V30 6742 H 640.223 6.30993 -4.57676 0
M  V30 6743 N 644.452 1.42507 0.673017 0
M  V30 6744 C 645.863 1.38347 1.25367 0
M  V30 6745 C 646.214 0.0776327 1.96046 0
M  V30 6746 O 645.339 -0.823571 2.00116 0
M  V30 6747 C 645.934 2.506 2.28002 0
M  V30 6748 C 644.493 2.49767 2.81591 0
M  V30 6749 C 643.64 2.293 1.55938 0
M  V30 6750 H 646.591 1.51695 0.466288 0
M  V30 6751 H 646.612 2.20953 3.09774 0
M  V30 6752 H 646.124 3.45627 1.76532 0
M  V30 6753 H 644.225 1.58563 3.37177 0
M  V30 6754 H 644.338 3.46867 3.30485 0
M  V30 6755 H 642.702 1.77594 1.82572 0
M  V30 6756 H 643.485 3.26385 1.06431 0
M  V30 6757 N 645.93 -0.909495 1.28709 0
M  V30 6758 C 646.877 -2.01245 1.13 0
M  V30 6759 C 647.847 -1.6608 0.0259684 0
M  V30 6760 O 649.032 -1.89835 0.191687 0
M  V30 6761 C 646.172 -3.35644 0.802315 0
M  V30 6762 C 645.285 -3.83653 1.98582 0
M  V30 6763 C 644.42 -5.06582 1.59837 0
M  V30 6764 C 643.459 -5.46934 2.74827 0
M  V30 6765 N 642.596 -6.61053 2.36546 0
M  V30 6766 H 647.436 -2.14013 2.0737 0
M  V30 6767 H 644.973 -1.0482 1.03205 0
M  V30 6768 H 646.931 -4.12963 0.593057 0
M  V30 6769 H 645.561 -3.22631 -0.104457 0
M  V30 6770 H 644.613 -3.02454 2.30708 0
M  V30 6771 H 645.925 -4.09515 2.84779 0
M  V30 6772 H 645.079 -5.91457 1.35143 0
M  V30 6773 H 643.818 -4.82537 0.707753 0
M  V30 6774 H 642.823 -4.60599 3.00215 0
M  V30 6775 H 644.048 -5.72965 3.64538 0
M  V30 6776 H 641.994 -6.3863 1.49959 0
M  V30 6777 H 641.911 -6.86662 3.16277 0
M  V30 6778 H 643.179 -7.49221 2.15146 0
M  V30 6779 N 647.408 -1.11026 -1.11852 0
M  V30 6780 C 648.819 -0.873203 -1.65021 0
M  V30 6781 C 649.17 0.595364 -1.86949 0
M  V30 6782 O 648.295 1.45645 -1.60051 0
M  V30 6783 C 648.89 -1.57859 -2.99777 0
M  V30 6784 C 647.449 -1.38807 -3.49871 0
M  V30 6785 C 646.596 -1.62403 -2.24768 0
M  V30 6786 H 649.547 -1.26712 -0.955503 0
M  V30 6787 H 649.568 -1.02111 -3.66543 0
M  V30 6788 H 649.08 -2.6474 -2.83786 0
M  V30 6789 H 647.181 -0.341163 -3.71035 0
M  V30 6790 H 647.294 -2.13421 -4.28938 0
M  V30 6791 H 645.658 -1.04714 -2.32179 0
M  V30 6792 H 646.441 -2.70549 -2.11324 0
M  V30 6793 N 648.886 1.2938 -0.899927 0
M  V30 6794 C 649.816 2.30144 -0.39446 0
M  V30 6795 C 650.797 1.61611 0.530639 0
M  V30 6796 O 651.982 1.89119 0.441319 0
M  V30 6797 C 649.112 3.45229 0.37868 0
M  V30 6798 C 648.066 4.25564 -0.456012 0
M  V30 6799 C 647.392 5.32848 0.444637 0
M  V30 6800 C 648.692 4.93651 -1.70605 0
M  V30 6801 H 650.386 2.72673 -1.23653 0
M  V30 6802 H 647.932 1.31086 -0.596034 0
M  V30 6803 H 649.885 4.14797 0.743037 0
M  V30 6804 H 648.609 3.01545 1.25453 0
M  V30 6805 H 647.268 3.57704 -0.802704 0
M  V30 6806 H 646.916 4.85408 1.31863 0
M  V30 6807 H 646.616 5.87497 -0.110154 0
M  V30 6808 H 648.14 6.05268 0.805182 0
M  V30 6809 H 649.554 5.55655 -1.41141 0
M  V30 6810 H 647.951 5.58233 -2.20217 0
M  V30 6811 H 649.021 4.18926 -2.4419 0
M  V30 6812 N 650.364 0.662433 1.43002 0
M  V30 6813 C 651.592 0.187615 2.06048 0
M  V30 6814 C 652.007 -1.15039 1.49705 0
M  V30 6815 O 651.364 -1.71209 0.631956 0
M  V30 6816 C 651.415 0.100498 3.6136 0
M  V30 6817 O 651.136 1.38562 4.15611 0
M  V30 6818 C 652.637 -0.399298 4.41498 0
M  V30 6819 H 649.857 0.0941675 0.664359 0
M  V30 6820 H 652.401 0.905681 1.83351 0
M  V30 6821 H 650.556 -0.568181 3.83211 0
M  V30 6822 H 650.97 1.25084 5.09366 0
M  V30 6823 H 652.444 -0.409187 5.50481 0
M  V30 6824 H 652.921 -1.43232 4.15188 0
M  V30 6825 H 653.527 0.23721 4.24638 0
M  V30 6826 N 651.842 -1.52309 0.404946 0
M  V30 6827 C 653.072 -2.05886 -0.171569 0
M  V30 6828 C 653.48 -1.27527 -1.39762 0
M  V30 6829 O 652.823 -0.319215 -1.80905 0
M  V30 6830 C 652.885 -3.54609 -0.590983 0
M  V30 6831 C 652.549 -4.53989 0.523757 0
M  V30 6832 C 653.546 -5.01084 1.38604 0
M  V30 6833 C 651.231 -4.97465 0.695255 0
M  V30 6834 C 653.225 -5.90295 2.4048 0
M  V30 6835 C 650.912 -5.86473 1.71733 0
M  V30 6836 C 651.91 -6.32782 2.57051 0
M  V30 6837 O 651.598 -7.20029 3.57509 0
M  V30 6838 H 651.33 -0.675508 -0.0257763 0
M  V30 6839 H 653.884 -1.97238 0.573278 0
M  V30 6840 H 652.114 -3.60929 -1.38805 0
M  V30 6841 H 653.803 -3.90853 -1.09494 0
M  V30 6842 H 654.569 -4.68214 1.26492 0
M  V30 6843 H 650.448 -4.60982 0.0408447 0
M  V30 6844 H 653.992 -6.26363 3.07108 0
M  V30 6845 H 649.889 -6.18756 1.83877 0
M  V30 6846 H 650.657 -7.3813 3.53703 0
M  V30 6847 N 653.32 -0.135238 -1.57019 0
M  V30 6848 C 654.566 0.513232 -1.96818 0
M  V30 6849 C 654.921 1.63245 -1.01827 0
M  V30 6850 O 654.214 1.91532 -0.0511756 0
M  V30 6851 C 654.408 1.07694 -3.40788 0
M  V30 6852 C 654.237 0.0138667 -4.49698 0
M  V30 6853 C 653.007 -0.423532 -5.03522 0
M  V30 6854 C 655.205 -0.77322 -5.08454 0
M  V30 6855 N 653.187 -1.47068 -5.96024 0
M  V30 6856 C 654.558 -1.67115 -5.97053 0
M  V30 6857 C 656.613 -0.822313 -4.91063 0
M  V30 6858 C 655.316 -2.61395 -6.70123 0
M  V30 6859 C 657.342 -1.75288 -5.64826 0
M  V30 6860 C 656.704 -2.63836 -6.53123 0
M  V30 6861 H 652.803 0.156956 -0.766087 0
M  V30 6862 H 655.387 -0.227118 -1.93371 0
M  V30 6863 H 653.558 1.78694 -3.44852 0
M  V30 6864 H 655.29 1.69106 -3.67675 0
M  V30 6865 H 652.045 -0.0280202 -4.73592 0
M  V30 6866 H 652.469 -1.99366 -6.46979 0
M  V30 6867 H 657.111 -0.151822 -4.22527 0
M  V30 6868 H 654.829 -3.2945 -7.37895 0
M  V30 6869 H 658.415 -1.79652 -5.53368 0
M  V30 6870 H 657.295 -3.34672 -7.092 0
M  V30 6871 N 654.798 1.5699 0.138552 0
M  V30 6872 C 655.745 1.98899 1.17081 0
M  V30 6873 C 656.715 0.857922 1.42228 0
M  V30 6874 O 657.9 1.12065 1.54422 0
M  V30 6875 C 655.04 2.38189 2.4972 0
M  V30 6876 C 654.153 3.64624 2.31674 0
M  V30 6877 C 653.288 3.9298 3.57407 0
M  V30 6878 C 652.327 5.1266 3.34435 0
M  V30 6879 N 651.464 5.36983 4.5232 0
M  V30 6880 H 656.304 2.86881 0.80642 0
M  V30 6881 H 653.841 1.41925 0.386727 0
M  V30 6882 H 655.799 2.59 3.2707 0
M  V30 6883 H 654.429 1.53275 2.84089 0
M  V30 6884 H 653.481 3.51542 1.45337 0
M  V30 6885 H 654.793 4.52131 2.10664 0
M  V30 6886 H 653.947 4.14335 4.43183 0
M  V30 6887 H 652.686 3.03912 3.8143 0
M  V30 6888 H 651.691 4.9117 2.47048 0
M  V30 6889 H 652.916 6.03288 3.11802 0
M  V30 6890 H 650.862 4.50871 4.76499 0
M  V30 6891 H 650.779 6.18775 4.34343 0
M  V30 6892 H 652.047 5.62842 5.39285 0
M  V30 6893 N 656.276 -0.40816 1.52223 0
M  V30 6894 C 657.553 -1.16807 1.56893 0
M  V30 6895 C 657.933 -2.08169 0.350537 0
M  V30 6896 O 657.281 -2.18684 -0.662536 0
M  V30 6897 C 657.491 -1.94451 2.8981 0
M  V30 6898 C 658.839 -2.50484 3.42845 0
M  V30 6899 O 659.863 -2.0463 2.91556 0
M  V30 6900 O 658.722 -3.34192 4.3241 0
M  V30 6901 H 655.816 -0.533382 0.632007 0
M  V30 6902 H 658.362 -0.414862 1.64551 0
M  V30 6903 H 657.134 -1.27527 3.69936 0
M  V30 6904 H 656.757 -2.76775 2.85449 0
M  V30 6905 N 657.755 -1.42862 -0.66545 0
M  V30 6906 C 659.001 -1.44043 -1.42757 0
M  V30 6907 C 659.334 -0.0599629 -1.94107 0
M  V30 6908 O 658.609 0.917286 -1.71511 0
M  V30 6909 C 658.892 -2.47266 -2.61786 0
M  V30 6910 C 658.745 -3.94539 -2.16007 0
M  V30 6911 C 660.064 -2.47365 -3.64003 0
M  V30 6912 H 657.183 -0.524506 -0.517748 0
M  V30 6913 H 659.825 -1.74335 -0.755466 0
M  V30 6914 H 657.975 -2.21565 -3.19126 0
M  V30 6915 H 659.647 -4.31254 -1.63762 0
M  V30 6916 H 657.89 -4.07957 -1.47491 0
M  V30 6917 H 658.561 -4.62357 -3.01546 0
M  V30 6918 H 661.037 -2.70243 -3.16399 0
M  V30 6919 H 659.913 -3.21552 -4.44854 0
M  V30 6920 H 660.174 -1.50299 -4.15767 0
M  V30 6921 N 659.233 0.902656 -1.29189 0
M  V30 6922 C 660.163 2.02294 -1.16616 0
M  V30 6923 C 661.144 1.6999 -0.0611175 0
M  V30 6924 O 662.329 1.9271 -0.240072 0
M  V30 6925 C 659.459 3.37018 -0.83882 0
M  V30 6926 C 658.413 3.83522 -1.89986 0
M  V30 6927 C 657.739 5.15337 -1.42589 0
M  V30 6928 C 659.039 4.04169 -3.30824 0
M  V30 6929 H 660.733 2.13071 -2.10336 0
M  V30 6930 H 658.279 1.02378 -1.01266 0
M  V30 6931 H 660.232 4.14895 -0.737584 0
M  V30 6932 H 658.956 3.26325 0.134071 0
M  V30 6933 H 657.615 3.07859 -1.99043 0
M  V30 6934 H 657.263 5.01056 -0.441759 0
M  V30 6935 H 656.963 5.47423 -2.13547 0
M  V30 6936 H 658.487 5.95758 -1.3381 0
M  V30 6937 H 659.901 4.72537 -3.24626 0
M  V30 6938 H 658.298 4.47604 -3.99713 0
M  V30 6939 H 659.368 3.08604 -3.74021 0
M  V30 6940 N 660.711 1.11618 1.11262 0
M  V30 6941 C 661.641 0.79846 2.19424 0
M  V30 6942 C 662.622 -0.234003 1.68483 0
M  V30 6943 O 663.807 -0.0970704 1.93957 0
M  V30 6944 C 660.937 0.242892 3.4645 0
M  V30 6945 C 659.891 1.20744 4.10615 0
M  V30 6946 C 659.217 0.512494 5.32238 0
M  V30 6947 C 660.517 2.55884 4.55325 0
M  V30 6948 H 662.211 1.70286 2.46258 0
M  V30 6949 H 659.757 0.820195 1.18359 0
M  V30 6950 H 661.71 0.00840447 4.21399 0
M  V30 6951 H 660.434 -0.696811 3.1908 0
M  V30 6952 H 659.093 1.42759 3.37662 0
M  V30 6953 H 658.741 -0.432075 5.01141 0
M  V30 6954 H 658.441 1.15583 5.7612 0
M  V30 6955 H 659.965 0.286842 6.09926 0
M  V30 6956 H 661.379 2.37946 5.21588 0
M  V30 6957 H 659.776 3.16216 5.10027 0
M  V30 6958 H 660.846 3.14968 3.68678 0
M  V30 6959 N 662.189 -1.289 0.906776 0
M  V30 6960 C 663.119 -2.29932 0.406659 0
M  V30 6961 C 664.1 -1.6189 -0.522061 0
M  V30 6962 O 665.285 -1.8935 -0.431283 0
M  V30 6963 C 662.415 -3.45425 -0.360366 0
M  V30 6964 C 661.369 -4.25316 0.478574 0
M  V30 6965 C 660.695 -5.33076 -0.416373 0
M  V30 6966 C 661.995 -4.92739 1.7322 0
M  V30 6967 H 663.689 -2.72013 1.25097 0
M  V30 6968 H 661.235 -1.30768 0.602977 0
M  V30 6969 H 663.188 -4.15186 -0.721029 0
M  V30 6970 H 661.912 -3.02206 -1.23852 0
M  V30 6971 H 660.571 -3.57273 0.821662 0
M  V30 6972 H 660.219 -4.86101 -1.29287 0
M  V30 6973 H 659.919 -5.8743 0.141309 0
M  V30 6974 H 661.443 -6.05686 -0.773072 0
M  V30 6975 H 662.857 -5.54898 1.44086 0
M  V30 6976 H 661.254 -5.57057 2.23175 0
M  V30 6977 H 662.324 -4.17625 2.46408 0
M  V30 6978 N 663.667 -0.670007 -1.42649 0
M  V30 6979 C 664.577 0.0114788 -2.34597 0
M  V30 6980 C 665.593 0.794055 -1.54825 0
M  V30 6981 O 666.769 0.737472 -1.87412 0
M  V30 6982 C 663.834 0.954436 -3.33304 0
M  V30 6983 C 662.895 0.166925 -4.28975 0
M  V30 6984 C 662.128 1.06497 -5.22967 0
M  V30 6985 O 662.351 2.30446 -5.21777 0
M  V30 6986 O 661.285 0.528347 -5.99577 0
M  V30 6987 H 665.111 -0.745794 -2.944 0
M  V30 6988 H 662.696 -0.430228 -1.43071 0
M  V30 6989 H 664.578 1.49589 -3.93956 0
M  V30 6990 H 663.253 1.69164 -2.7598 0
M  V30 6991 H 662.16 -0.418515 -3.71752 0
M  V30 6992 H 663.493 -0.531067 -4.89327 0
M  V30 6993 N 665.145 1.52092 -0.413018 0
M  V30 6994 C 666.393 2.01456 0.161178 0
M  V30 6995 C 666.714 1.30034 1.45314 0
M  V30 6996 O 665.984 0.427435 1.9118 0
M  V30 6997 H 664.564 0.744376 0.0625526 0
M  V30 6998 H 667.226 1.86974 -0.550151 0
M  V30 6999 H 666.322 3.1008 0.354517 0
M  V30 7000 N 666.623 0.143563 1.56945 0
M  V30 7001 C 667.869 -0.50916 1.96304 0
M  V30 7002 C 668.202 -1.64741 1.0283 0
M  V30 7003 O 667.477 -1.94374 0.0700361 0
M  V30 7004 C 667.76 -1.0186 3.45393 0
M  V30 7005 C 667.613 0.117923 4.49645 0
M  V30 7006 C 668.932 -1.90151 3.96901 0
M  V30 7007 H 666.051 -0.183608 0.713763 0
M  V30 7008 H 668.693 0.224095 1.88674 0
M  V30 7009 H 666.843 -1.64345 3.52027 0
M  V30 7010 H 668.515 0.754145 4.55094 0
M  V30 7011 H 666.758 0.777568 4.26774 0
M  V30 7012 H 667.429 -0.280187 5.51288 0
M  V30 7013 H 669.905 -1.375 3.92725 0
M  V30 7014 H 668.781 -2.22707 5.0169 0
M  V30 7015 H 669.042 -2.83718 3.39052 0
M  V30 7016 N 668.101 -1.57061 -0.130224 0
M  V30 7017 C 669.329 -1.88432 -0.854456 0
M  V30 7018 C 669.744 -0.733608 -1.73964 0
M  V30 7019 O 669.101 0.296029 -1.80083 0
M  V30 7020 C 669.152 -3.1918 -1.69724 0
M  V30 7021 O 668.873 -4.2982 -0.847705 0
M  V30 7022 C 670.374 -3.6418 -2.5276 0
M  V30 7023 H 667.594 -0.624193 -0.246221 0
M  V30 7024 H 670.138 -2.04159 -0.11798 0
M  V30 7025 H 668.293 -3.05156 -2.3866 0
M  V30 7026 H 668.707 -5.04689 -1.42792 0
M  V30 7027 H 670.181 -4.58457 -3.07443 0
M  V30 7028 H 670.658 -2.90285 -3.29592 0
M  V30 7029 H 671.264 -3.80954 -1.89087 0
M  V30 7030 N 669.579 0.400081 -1.52437 0
M  V30 7031 C 670.509 1.4947 -1.7939 0
M  V30 7032 C 671.49 1.57383 -0.645329 0
M  V30 7033 O 672.675 1.72511 -0.891826 0
M  V30 7034 C 669.805 2.87201 -1.95276 0
M  V30 7035 C 668.759 2.94134 -3.10917 0
M  V30 7036 C 668.085 4.34207 -3.1204 0
M  V30 7037 C 669.385 2.64791 -4.50203 0
M  V30 7038 H 671.079 1.27165 -2.71052 0
M  V30 7039 H 668.625 0.610312 -1.30427 0
M  V30 7040 H 670.578 3.63772 -2.12715 0
M  V30 7041 H 669.302 3.10819 -1.00294 0
M  V30 7042 H 667.961 2.20009 -2.93243 0
M  V30 7043 H 667.609 4.54848 -2.14761 0
M  V30 7044 H 667.309 4.39768 -3.89715 0
M  V30 7045 H 668.833 5.127 -3.31619 0
M  V30 7046 H 670.247 3.31083 -4.68035 0
M  V30 7047 H 668.644 2.81717 -5.29864 0
M  V30 7048 H 669.714 1.60184 -4.57678 0
M  V30 7049 N 671.057 1.43213 0.657864 0
M  V30 7050 C 672.285 1.48015 1.44566 0
M  V30 7051 C 672.7 0.0965951 1.88553 0
M  V30 7052 O 672.057 -0.892221 1.59203 0
M  V30 7053 C 672.108 2.42199 2.68369 0
M  V30 7054 O 671.829 3.75173 2.26223 0
M  V30 7055 C 673.33 2.56195 3.61772 0
M  V30 7056 H 670.55 0.502861 0.444266 0
M  V30 7057 H 673.094 1.87907 0.806917 0
M  V30 7058 H 671.249 2.05514 3.28394 0
M  V30 7059 H 671.663 4.25776 3.06293 0
M  V30 7060 H 673.137 3.26182 4.4532 0
M  V30 7061 H 673.614 1.60534 4.0881 0
M  V30 7062 H 674.22 2.93671 3.07632 0
M  V30 7063 N 672.536 -0.895792 1.29666 0
M  V30 7064 C 673.468 -2.00563 1.10937 0
M  V30 7065 C 674.481 -1.62705 0.055734 0
M  V30 7066 O 675.67 -1.7595 0.300656 0
M  V30 7067 C 672.77 -3.32262 0.667448 0
M  V30 7068 C 671.943 -3.98625 1.80047 0
M  V30 7069 C 671.002 -5.08617 1.3489 0
M  V30 7070 O 670.028 -5.30837 2.05429 0
M  V30 7071 N 671.23 -5.80076 0.221937 0
M  V30 7072 H 673.995 -2.17184 2.06522 0
M  V30 7073 H 671.556 -1.06822 1.21658 0
M  V30 7074 H 673.548 -4.03196 0.348586 0
M  V30 7075 H 672.118 -3.11985 -0.196055 0
M  V30 7076 H 671.338 -3.21005 2.28801 0
M  V30 7077 H 672.626 -4.39704 2.56003 0
M  V30 7078 H 672.024 -5.64514 -0.366084 0
M  V30 7079 H 670.581 -6.51789 -0.0375346 0
M  V30 7080 N 674.014 -1.12206 -1.10668 0
M  V30 7081 C 675.291 -0.787382 -1.79052 0
M  V30 7082 C 675.671 0.723267 -1.98323 0
M  V30 7083 O 675.019 1.6561 -1.57434 0
M  V30 7084 C 675.229 -1.55968 -3.1221 0
M  V30 7085 C 676.577 -1.74413 -3.87125 0
M  V30 7086 O 677.601 -1.5246 -3.21923 0
M  V30 7087 O 676.46 -2.10952 -5.04144 0
M  V30 7088 H 673.554 -0.286137 -0.775922 0
M  V30 7089 H 676.1 -1.22595 -1.1734 0
M  V30 7090 H 674.872 -2.58692 -2.93588 0
M  V30 7091 H 674.495 -1.1152 -3.8164 0
M  V30 7092 N 675.492 1.28418 -0.913599 0
M  V30 7093 C 676.717 1.99643 -0.561899 0
M  V30 7094 C 677.142 1.67819 0.849608 0
M  V30 7095 O 676.5 0.910503 1.56779 0
M  V30 7096 C 676.548 3.52116 -0.777622 0
M  V30 7097 O 675.652 4.12076 0.163457 0
M  V30 7098 H 674.993 0.627229 -0.217898 0
M  V30 7099 H 677.523 1.63575 -1.229 0
M  V30 7100 H 677.533 4.02163 -0.687666 0
M  V30 7101 H 676.208 3.74613 -1.8066 0
M  V30 7102 H 674.785 3.72892 0.0247827 0
M  V30 7103 N 676.97 0.677563 1.42291 0
M  V30 7104 C 678.386 0.347376 1.55774 0
M  V30 7105 C 678.586 -1.14703 1.65667 0
M  V30 7106 O 677.642 -1.93252 1.62512 0
M  V30 7107 C 678.955 1.08011 2.80631 0
M  V30 7108 C 680.503 1.06271 2.94407 0
M  V30 7109 C 680.978 1.77683 4.22129 0
M  V30 7110 N 682.469 1.74564 4.29047 0
M  V30 7111 C 683.204 2.26673 5.26694 0
M  V30 7112 N 682.7 2.87176 6.30477 0
M  V30 7113 N 684.493 2.17032 5.18511 0
M  V30 7114 H 676.644 1.64703 1.34114 0
M  V30 7115 H 678.907 0.694038 0.645768 0
M  V30 7116 H 678.613 2.13518 2.79469 0
M  V30 7117 H 678.487 0.647115 3.71608 0
M  V30 7118 H 680.874 0.0159658 2.95096 0
M  V30 7119 H 680.955 1.53461 2.04654 0
M  V30 7120 H 680.599 2.82327 4.22201 0
M  V30 7121 H 680.529 1.2794 5.10822 0
M  V30 7122 H 683.02 1.30436 3.54676 0
M  V30 7123 H 683.333 3.24551 7.01346 0
M  V30 7124 H 681.678 2.91247 6.31031 0
M  V30 7125 H 684.869 1.69451 4.36353 0
M  V30 7126 H 685.042 2.57948 5.94446 0
M  V30 7127 N 678.448 -1.51871 0.421078 0
M  V30 7128 C 679.38 -2.25052 -0.434065 0
M  V30 7129 C 680.393 -1.28458 -1.00013 0
M  V30 7130 O 681.582 -1.54323 -0.897033 0
M  V30 7131 C 678.682 -2.97813 -1.61743 0
M  V30 7132 C 677.855 -4.21374 -1.17315 0
M  V30 7133 C 676.914 -4.76854 -2.22478 0
M  V30 7134 O 675.94 -5.39123 -1.82577 0
M  V30 7135 N 677.142 -4.59467 -3.54782 0
M  V30 7136 H 679.907 -2.99077 0.193073 0
M  V30 7137 H 677.468 -1.59972 0.249088 0
M  V30 7138 H 679.46 -3.3182 -2.31685 0
M  V30 7139 H 678.03 -2.26899 -2.15024 0
M  V30 7140 H 677.25 -3.93046 -0.3014 0
M  V30 7141 H 678.538 -5.01591 -0.853444 0
M  V30 7142 H 677.936 -4.09832 -3.89941 0
M  V30 7143 H 676.493 -4.9788 -4.20665 0
M  V30 7144 N 679.926 -0.151884 -1.56866 0
M  V30 7145 C 680.856 0.781943 -2.20018 0
M  V30 7146 C 681.837 1.25347 -1.14987 0
M  V30 7147 O 683.022 1.31015 -1.43348 0
M  V30 7148 C 680.152 2.01928 -2.82564 0
M  V30 7149 C 679.106 1.68434 -3.93464 0
M  V30 7150 C 678.432 2.99472 -4.42968 0
M  V30 7151 C 679.732 0.927244 -5.14003 0
M  V30 7152 H 681.426 0.255607 -2.98307 0
M  V30 7153 H 678.972 0.121502 -1.43486 0
M  V30 7154 H 680.925 2.67741 -3.25411 0
M  V30 7155 H 679.649 2.56943 -2.01614 0
M  V30 7156 H 678.308 1.04998 -3.51242 0
M  V30 7157 H 677.956 3.52488 -3.58834 0
M  V30 7158 H 677.656 2.77823 -5.17772 0
M  V30 7159 H 679.18 3.66348 -4.88489 0
M  V30 7160 H 680.594 1.48756 -5.53665 0
M  V30 7161 H 678.991 0.810513 -5.94601 0
M  V30 7162 H 680.061 -0.0801163 -4.84834 0
M  V30 7163 N 681.404 1.57128 0.121893 0
M  V30 7164 C 682.352 2.01109 1.16868 0
M  V30 7165 C 683.346 0.907532 1.43039 0
M  V30 7166 O 684.552 1.09274 1.43036 0
M  V30 7167 H 680.927 0.640539 0.393971 0
M  V30 7168 H 682.898 2.88261 0.771224 0
M  V30 7169 C 681.647 2.42887 2.48799 0
M  V30 7170 H 680.97 3.2737 2.29498 0
M  V30 7171 H 682.41 2.77461 3.20611 0
M  V30 7172 C 680.869 1.29137 3.11168 0
M  V30 7173 O 681.399 0.605756 3.97106 0
M  V30 7174 N 679.605 1.04916 2.71 0
M  V30 7175 H 679.152 1.60848 2.01211 0
M  V30 7176 H 679.11 0.290016 3.1306 0
M  V30 7177 N 682.882 -0.391992 1.52647 0
M  V30 7178 C 684.13 -1.13507 1.67214 0
M  V30 7179 C 684.451 -1.90575 0.41304 0
M  V30 7180 O 683.721 -1.87348 -0.572498 0
M  V30 7181 H 682.301 -0.422013 0.616372 0
M  V30 7182 H 684.963 -0.44502 1.89751 0
M  V30 7183 H 684.059 -1.83964 2.52118 0
M  V30 7184 N 684.36 -1.4356 -0.65026 0
M  V30 7185 C 685.585 -1.48995 -1.44275 0
M  V30 7186 C 686.01 -0.109954 -1.87778 0
M  V30 7187 O 685.368 0.896926 -1.57559 0
M  V30 7188 C 685.416 -2.44341 -2.65198 0
M  V30 7189 O 684.52 -1.93172 -3.6436 0
M  V30 7190 H 683.861 -0.503852 -0.432469 0
M  V30 7191 H 686.391 -1.88504 -0.795446 0
M  V30 7192 H 686.401 -2.61743 -3.12977 0
M  V30 7193 H 685.076 -3.44588 -2.32877 0
M  V30 7194 H 683.653 -1.85445 -3.23519 0
M  V30 7195 N 685.838 0.888903 -1.30139 0
M  V30 7196 C 686.748 2.02705 -1.18101 0
M  V30 7197 C 687.764 1.73702 -0.101809 0
M  V30 7198 O 688.94 1.98906 -0.315984 0
M  V30 7199 C 686.005 3.35616 -0.869651 0
M  V30 7200 C 685.066 3.78067 -2.03381 0
M  V30 7201 C 684.299 5.04635 -1.73721 0
M  V30 7202 O 684.522 5.66531 -0.663267 0
M  V30 7203 O 683.456 5.43399 -2.58845 0
M  V30 7204 H 687.282 2.15788 -2.13704 0
M  V30 7205 H 684.867 1.01426 -1.09695 0
M  V30 7206 H 686.749 4.15358 -0.711043 0
M  V30 7207 H 685.424 3.23651 0.0565002 0
M  V30 7208 H 684.331 2.99046 -2.24772 0
M  V30 7209 H 685.664 3.94631 -2.94155 0
M  V30 7210 N 687.317 1.12792 1.10072 0
M  V30 7211 C 688.733 0.864745 1.34143 0
M  V30 7212 C 688.933 -0.503201 1.95116 0
M  V30 7213 O 687.989 -1.25111 2.19325 0
M  V30 7214 C 689.302 1.98413 2.25949 0
M  V30 7215 C 690.85 2.01545 2.39476 0
M  V30 7216 C 691.325 3.12727 3.34613 0
M  V30 7217 N 692.816 3.12194 3.42183 0
M  V30 7218 C 693.551 3.94862 4.15779 0
M  V30 7219 N 693.047 4.87528 4.92228 0
M  V30 7220 N 694.84 3.82985 4.11435 0
M  V30 7221 H 686.991 2.00926 0.68866 0
M  V30 7222 H 689.254 0.874564 0.365844 0
M  V30 7223 H 688.96 2.97005 1.88364 0
M  V30 7224 H 688.834 1.89254 3.26287 0
M  V30 7225 H 691.221 1.0357 2.76328 0
M  V30 7226 H 691.302 2.14777 1.3894 0
M  V30 7227 H 690.946 4.10936 2.98486 0
M  V30 7228 H 690.876 2.96732 4.35037 0
M  V30 7229 H 693.367 2.45065 2.87666 0
M  V30 7230 H 693.68 5.47109 5.45794 0
M  V30 7231 H 692.025 4.91539 4.9134 0
M  V30 7232 H 695.216 3.09923 3.50807 0
M  V30 7233 H 695.389 4.47641 4.68531 0
M  V30 7234 N 688.795 -1.27931 0.920396 0
M  V30 7235 C 689.758 -2.25345 0.41858 0
M  V30 7236 C 690.758 -1.54116 -0.458798 0
M  V30 7237 O 691.948 -1.72235 -0.260912 0
M  V30 7238 C 689.08 -3.38556 -0.399104 0
M  V30 7239 H 690.273 -2.71251 1.27918 0
M  V30 7240 H 687.826 -1.39728 0.700406 0
M  V30 7241 H 688.561 -2.98021 -1.27882 0
M  V30 7242 H 688.346 -3.91426 0.229863 0
M  V30 7243 H 689.836 -4.10976 -0.740817 0
M  V30 7244 N 690.273 -0.685099 -1.4193 0
M  V30 7245 C 691.519 -0.211971 -2.01689 0
M  V30 7246 C 691.852 1.18189 -1.54094 0
M  V30 7247 O 691.127 1.79559 -0.747572 0
M  V30 7248 C 691.41 -0.258019 -3.59174 0
M  V30 7249 C 691.263 -1.68807 -4.16922 0
M  V30 7250 C 692.582 0.388044 -4.38386 0
M  V30 7251 H 689.701 -0.0784987 -0.732808 0
M  V30 7252 H 692.343 -0.871837 -1.68816 0
M  V30 7253 H 690.493 0.303832 -3.8731 0
M  V30 7254 H 692.165 -2.30296 -3.99702 0
M  V30 7255 H 690.408 -2.22553 -3.72361 0
M  V30 7256 H 691.079 -1.6719 -5.26072 0
M  V30 7257 H 693.555 -0.0903432 -4.16002 0
M  V30 7258 H 692.431 0.325232 -5.47936 0
M  V30 7259 H 692.692 1.4672 -4.17044 0
M  V30 7260 N 691.751 1.51645 -0.429126 0
M  V30 7261 C 692.681 2.30434 0.377148 0
M  V30 7262 C 693.662 1.35493 1.02838 0
M  V30 7263 O 694.847 1.6441 1.03359 0
M  V30 7264 C 691.977 3.14038 1.48315 0
M  V30 7265 C 690.931 4.1719 0.955855 0
M  V30 7266 C 690.257 4.89263 2.15698 0
M  V30 7267 C 691.557 5.223 -0.00402136 0
M  V30 7268 H 693.251 2.98085 -0.280336 0
M  V30 7269 H 690.797 1.43354 -0.136265 0
M  V30 7270 H 692.75 3.67933 2.05435 0
M  V30 7271 H 691.474 2.44193 2.16881 0
M  V30 7272 H 690.133 3.64335 0.406929 0
M  V30 7273 H 689.781 4.15929 2.82864 0
M  V30 7274 H 689.481 5.59009 1.81059 0
M  V30 7275 H 691.005 5.45978 2.73387 0
M  V30 7276 H 692.419 5.71315 0.476607 0
M  V30 7277 H 690.816 5.99525 -0.26258 0
M  V30 7278 H 691.886 4.75638 -0.943236 0
M  V30 7279 N 693.229 0.160201 1.56784 0
M  V30 7280 C 694.506 -0.533355 1.88188 0
M  V30 7281 C 694.886 -1.82072 1.06831 0
M  V30 7282 O 694.234 -2.27946 0.158959 0
M  V30 7283 C 694.444 -0.786034 3.40033 0
M  V30 7284 C 695.792 -1.12097 4.09536 0
M  V30 7285 O 696.816 -0.874949 3.45287 0
M  V30 7286 O 695.675 -1.58457 5.23023 0
M  V30 7287 H 692.769 -0.273589 0.780434 0
M  V30 7288 H 695.315 0.197803 1.68543 0
M  V30 7289 H 694.087 0.124515 3.91102 0
M  V30 7290 H 693.71 -1.57091 3.65251 0
M  V30 7291 N 694.707 -1.5719 -0.113559 0
M  V30 7292 C 695.955 -1.84772 -0.818761 0
M  V30 7293 C 696.276 -0.746196 -1.80158 0
M  V30 7294 O 695.546 0.229305 -1.94553 0
M  V30 7295 H 694.126 -0.681737 -0.305359 0
M  V30 7296 H 696.788 -1.94645 -0.0995845 0
M  V30 7297 H 695.884 -2.80878 -1.36067 0
M  V30 7298 N 696.185 0.383891 -1.52853 0
M  V30 7299 C 697.115 1.47559 -1.80965 0
M  V30 7300 C 698.096 1.5669 -0.661986 0
M  V30 7301 O 699.281 1.71556 -0.910072 0
M  V30 7302 C 696.411 2.85114 -1.98312 0
M  V30 7303 C 695.365 2.9082 -3.14019 0
M  V30 7304 C 694.691 4.30873 -3.16627 0
M  V30 7305 C 695.991 2.60001 -4.52986 0
M  V30 7306 H 697.685 1.24283 -2.72386 0
M  V30 7307 H 695.231 0.596445 -1.31067 0
M  V30 7308 H 697.184 3.61496 -2.16561 0
M  V30 7309 H 695.908 3.09738 -1.03585 0
M  V30 7310 H 694.567 2.16886 -2.9556 0
M  V30 7311 H 694.215 4.52545 -2.19573 0
M  V30 7312 H 693.915 4.3561 -3.94357 0
M  V30 7313 H 695.439 5.09154 -3.37038 0
M  V30 7314 H 696.853 3.261 -4.71521 0
M  V30 7315 H 695.25 2.76081 -5.32822 0
M  V30 7316 H 696.32 1.5532 -4.59351 0
M  V30 7317 N 697.663 1.43903 0.642637 0
M  V30 7318 C 698.593 1.52697 1.76652 0
M  V30 7319 C 699.574 0.380816 1.65782 0
M  V30 7320 O 700.759 0.599432 1.84717 0
M  V30 7321 C 697.889 1.45975 3.15133 0
M  V30 7322 C 696.843 2.58949 3.40778 0
M  V30 7323 C 696.169 2.37279 4.79169 0
M  V30 7324 C 697.469 4.01153 3.34475 0
M  V30 7325 H 699.163 2.46766 1.69549 0
M  V30 7326 H 696.709 1.18767 0.814279 0
M  V30 7327 H 698.662 1.5073 3.93521 0
M  V30 7328 H 697.386 0.484162 3.22991 0
M  V30 7329 H 696.045 2.53564 2.64765 0
M  V30 7330 H 695.693 1.37939 4.83717 0
M  V30 7331 H 695.393 3.13016 4.97287 0
M  V30 7332 H 696.917 2.43834 5.59801 0
M  V30 7333 H 698.331 4.07968 4.02784 0
M  V30 7334 H 696.728 4.77001 3.64129 0
M  V30 7335 H 697.798 4.25539 2.32475 0
M  V30 7336 N 699.141 -0.881989 1.30609 0
M  V30 7337 C 700.369 -1.66711 1.22536 0
M  V30 7338 C 700.784 -1.87614 -0.2113 0
M  V30 7339 O 700.141 -1.42576 -1.13923 0
M  V30 7340 C 700.192 -3.04182 1.95335 0
M  V30 7341 O 699.913 -2.8422 3.33393 0
M  V30 7342 C 701.414 -3.98617 1.93956 0
M  V30 7343 H 698.634 -0.520124 0.423925 0
M  V30 7344 H 701.178 -1.10174 1.72285 0
M  V30 7345 H 699.333 -3.57442 1.49378 0
M  V30 7346 H 699.747 -3.71452 3.70302 0
M  V30 7347 H 701.221 -4.92433 2.49426 0
M  V30 7348 H 701.698 -4.29473 0.919198 0
M  V30 7349 H 702.304 -3.51292 2.39738 0
M  V30 7350 N 700.619 -1.13374 -1.09472 0
M  V30 7351 C 702.03 -0.90801 -1.63132 0
M  V30 7352 C 702.381 0.555576 -1.8817 0
M  V30 7353 O 701.506 1.42218 -1.63104 0
M  V30 7354 C 702.101 -1.64182 -2.96361 0
M  V30 7355 C 700.66 -1.46197 -3.46848 0
M  V30 7356 C 699.807 -1.67134 -2.21273 0
M  V30 7357 H 702.758 -1.2871 -0.928411 0
M  V30 7358 H 702.779 -1.09863 -3.64294 0
M  V30 7359 H 702.291 -2.707 -2.78106 0
M  V30 7360 H 700.392 -0.419788 -3.70228 0
M  V30 7361 H 700.505 -2.22472 -4.24315 0
M  V30 7362 H 698.869 -1.09616 -2.29905 0
M  V30 7363 H 699.652 -2.74971 -2.05538 0
M  V30 7364 N 702.098 1.27442 -0.927168 0
M  V30 7365 C 703.061 2.2512 -0.430525 0
M  V30 7366 C 704.061 1.54357 0.450619 0
M  V30 7367 O 705.251 1.72371 0.251774 0
M  V30 7368 C 702.383 3.38763 0.381144 0
M  V30 7369 H 703.576 2.70569 -1.29354 0
M  V30 7370 H 701.129 1.39355 -0.707806 0
M  V30 7371 H 701.864 2.98695 1.263 0
M  V30 7372 H 701.649 3.91298 -0.250618 0
M  V30 7373 H 703.139 4.11364 0.719012 0
M  V30 7374 N 703.576 0.692616 1.41565 0
M  V30 7375 C 704.486 0.0258451 2.34586 0
M  V30 7376 C 705.502 -0.769324 1.56069 0
M  V30 7377 O 706.678 -0.707563 1.88562 0
M  V30 7378 C 703.743 -0.901289 3.3478 0
M  V30 7379 C 702.804 -0.0986579 4.29187 0
M  V30 7380 C 702.037 -0.981634 5.24595 0
M  V30 7381 O 702.26 -2.22115 5.25377 0
M  V30 7382 O 701.194 -0.432892 6.00341 0
M  V30 7383 H 705.02 0.792537 2.93177 0
M  V30 7384 H 702.605 0.452935 1.42369 0
M  V30 7385 H 704.487 -1.43302 3.96286 0
M  V30 7386 H 703.162 -1.64752 2.78637 0
M  V30 7387 H 702.069 0.477604 3.71039 0
M  V30 7388 H 703.402 0.608848 4.8842 0
M  V30 7389 N 705.054 -1.51416 0.437162 0
M  V30 7390 C 706.294 -2.03995 -0.128538 0
M  V30 7391 C 706.658 -1.31417 -1.39977 0
M  V30 7392 O 707.859 -1.74369 -2.0457 0
M  V30 7393 C 706.13 -3.55757 -0.342317 0
M  V30 7394 S 707.689 -4.3006 -0.871446 0
M  V30 7395 H 704.507 -0.710283 -0.0319322 0
M  V30 7396 H 707.109 -1.86177 0.596526 0
M  V30 7397 H 705.813 -4.06148 0.589233 0
M  V30 7398 H 705.344 -3.77869 -1.09447 0
M  V30 7399 H 707.359 -4.47248 -2.14903 0
M  V30 7400 N 706.532 -0.168513 -1.56696 0
M  V30 7401 C 707.78 0.476216 -1.96409 0
M  V30 7402 C 708.101 1.63968 -1.05544 0
M  V30 7403 O 707.371 1.95525 -0.121235 0
M  V30 7404 H 705.951 0.178921 -0.725256 0
M  V30 7405 H 708.613 -0.249042 -1.93302 0
M  V30 7406 H 707.709 0.838094 -3.00637 0
M  V30 7407 N 708.01 1.57248 0.105221 0
M  V30 7408 C 709.256 1.85845 0.811753 0
M  V30 7409 C 709.589 0.756219 1.78871 0
M  V30 7410 O 708.864 -0.236736 1.93054 0
M  V30 7411 C 709.147 3.25059 1.54947 0
M  V30 7412 C 709 4.45898 0.591185 0
M  V30 7413 C 710.319 3.6203 2.50245 0
M  V30 7414 H 707.438 0.675973 0.293649 0
M  V30 7415 H 710.08 1.89849 0.0756269 0
M  V30 7416 H 708.23 3.21776 2.17698 0
M  V30 7417 H 709.902 4.61291 -0.0285352 0
M  V30 7418 H 708.145 4.33693 -0.0962343 0
M  V30 7419 H 708.816 5.40009 1.1443 0
M  V30 7420 H 711.292 3.66192 1.97593 0
M  V30 7421 H 710.168 4.60389 2.98886 0
M  V30 7422 H 710.429 2.90176 3.33542 0
M  V30 7423 N 709.488 -0.375779 1.53054 0
M  V30 7424 C 710.418 -1.46598 1.81745 0
M  V30 7425 C 711.399 -1.56337 0.670286 0
M  V30 7426 O 712.584 -1.71071 0.919158 0
M  V30 7427 C 709.714 -2.84058 1.99821 0
M  V30 7428 C 708.668 -2.8915 3.15557 0
M  V30 7429 C 707.994 -4.29187 3.18908 0
M  V30 7430 C 709.294 -2.57595 4.54359 0
M  V30 7431 H 710.988 -1.22837 2.73041 0
M  V30 7432 H 708.534 -0.589485 1.31381 0
M  V30 7433 H 710.487 -3.60342 2.18475 0
M  V30 7434 H 709.211 -3.09184 1.05226 0
M  V30 7435 H 707.87 -2.15316 2.96706 0
M  V30 7436 H 707.518 -4.51374 2.2197 0
M  V30 7437 H 707.218 -4.33512 3.96662 0
M  V30 7438 H 708.742 -5.07359 3.39734 0
M  V30 7439 H 710.156 -3.23595 4.73243 0
M  V30 7440 H 708.553 -2.73252 5.34279 0
M  V30 7441 H 709.623 -1.52882 4.60169 0
M  V30 7442 N 710.966 -1.44241 -0.634997 0
M  V30 7443 C 711.896 -1.53632 -1.7584 0
M  V30 7444 C 712.877 -0.389603 -1.65578 0
M  V30 7445 O 714.062 -0.609219 -1.84397 0
M  V30 7446 C 711.192 -1.47644 -3.14354 0
M  V30 7447 C 710.146 -2.60752 -3.394 0
M  V30 7448 C 709.472 -2.39817 -4.77904 0
M  V30 7449 C 710.772 -4.02921 -3.32343 0
M  V30 7450 H 712.466 -2.47662 -1.68238 0
M  V30 7451 H 710.012 -1.19197 -0.807969 0
M  V30 7452 H 711.965 -1.52815 -3.92716 0
M  V30 7453 H 710.689 -0.501284 -3.2273 0
M  V30 7454 H 709.348 -2.54965 -2.63417 0
M  V30 7455 H 708.996 -1.40502 -4.82978 0
M  V30 7456 H 708.696 -3.15649 -4.9562 0
M  V30 7457 H 710.22 -2.46799 -5.585 0
M  V30 7458 H 711.634 -4.10098 -4.00615 0
M  V30 7459 H 710.031 -4.78925 -3.61595 0
M  V30 7460 H 711.101 -4.26766 -2.30215 0
M  V30 7461 N 712.444 0.87505 -1.31075 0
M  V30 7462 C 713.376 1.98773 -1.14114 0
M  V30 7463 C 714.389 1.62595 -0.0816119 0
M  V30 7464 O 715.578 1.75449 -0.32861 0
M  V30 7465 C 712.678 3.31159 -0.720224 0
M  V30 7466 C 711.851 3.9571 -1.86366 0
M  V30 7467 C 710.91 5.06407 -1.42965 0
M  V30 7468 O 709.936 5.27501 -2.13848 0
M  V30 7469 N 711.138 5.79649 -0.314194 0
M  V30 7470 H 713.903 2.1387 -2.09951 0
M  V30 7471 H 711.464 1.04873 -1.23342 0
M  V30 7472 H 713.456 4.0259 -0.412687 0
M  V30 7473 H 712.026 3.12257 0.146396 0
M  V30 7474 H 711.246 3.17324 -2.33879 0
M  V30 7475 H 712.534 4.35576 -2.62966 0
M  V30 7476 H 711.932 5.65025 0.276228 0
M  V30 7477 H 710.489 6.51766 -0.0661641 0
M  V30 7478 N 713.922 1.13953 1.08869 0
M  V30 7479 C 714.852 0.844824 2.17681 0
M  V30 7480 C 715.833 -0.198213 1.68941 0
M  V30 7481 O 717.018 -0.0559073 1.9412 0
M  V30 7482 C 714.148 0.316325 3.45856 0
M  V30 7483 C 713.102 1.29426 4.07962 0
M  V30 7484 C 712.428 0.625275 5.31031 0
M  V30 7485 C 713.728 2.65484 4.49795 0
M  V30 7486 H 715.422 1.75471 2.42591 0
M  V30 7487 H 712.968 0.845116 1.16592 0
M  V30 7488 H 714.921 0.0977876 4.21287 0
M  V30 7489 H 713.645 -0.628972 3.20486 0
M  V30 7490 H 712.304 1.49889 3.34558 0
M  V30 7491 H 711.952 -0.325678 5.01945 0
M  V30 7492 H 711.652 1.27777 5.73539 0
M  V30 7493 H 713.176 0.416152 6.0918 0
M  V30 7494 H 714.59 2.48957 5.16424 0
M  V30 7495 H 712.987 3.26963 5.03205 0
M  V30 7496 H 714.057 3.22717 3.61914 0
M  V30 7497 N 715.4 -1.26948 0.933913 0
M  V30 7498 C 716.363 -2.24889 0.442457 0
M  V30 7499 C 717.363 -1.54594 -0.442426 0
M  V30 7500 O 718.553 -1.72502 -0.242629 0
M  V30 7501 C 715.685 -3.3896 -0.363173 0
M  V30 7502 H 716.878 -2.69879 1.30787 0
M  V30 7503 H 714.431 -1.38978 0.715187 0
M  V30 7504 H 715.166 -2.99361 -1.24714 0
M  V30 7505 H 714.951 -3.9116 0.271366 0
M  V30 7506 H 716.441 -4.11739 -0.697186 0
M  V30 7507 N 716.879 -0.700114 -1.41195 0
M  V30 7508 C 717.826 -0.0376652 -2.30769 0
M  V30 7509 C 718.796 0.766544 -1.47354 0
M  V30 7510 O 719.981 0.73365 -1.76131 0
M  V30 7511 C 717.121 0.889452 -3.33441 0
M  V30 7512 C 716.234 0.076373 -4.31932 0
M  V30 7513 C 715.369 1.00155 -5.21673 0
M  V30 7514 C 714.408 0.181644 -6.1183 0
M  V30 7515 N 713.545 1.06087 -6.94039 0
M  V30 7516 H 718.385 -0.80726 -2.86858 0
M  V30 7517 H 715.922 -0.409798 -1.41277 0
M  V30 7518 H 717.88 1.44107 -3.91522 0
M  V30 7519 H 716.51 1.6254 -2.78892 0
M  V30 7520 H 715.562 -0.592223 -3.75762 0
M  V30 7521 H 716.874 -0.559076 -4.95657 0
M  V30 7522 H 716.028 1.62223 -5.8461 0
M  V30 7523 H 714.767 1.67085 -4.58186 0
M  V30 7524 H 713.772 -0.452085 -5.47938 0
M  V30 7525 H 714.997 -0.483925 -6.77374 0
M  V30 7526 H 712.943 1.7161 -6.33156 0
M  V30 7527 H 712.86 0.481094 -7.54468 0
M  V30 7528 H 714.128 1.66822 -7.6144 0
M  V30 7529 N 718.357 1.51182 -0.445186 0
M  V30 7530 C 719.634 1.9478 0.178965 0
M  V30 7531 C 720.014 1.38428 1.59376 0
M  V30 7532 O 719.362 0.574552 2.21159 0
M  V30 7533 C 719.572 3.48683 0.148711 0
M  V30 7534 C 720.92 4.23152 0.35042 0
M  V30 7535 O 721.944 3.55479 0.226474 0
M  V30 7536 O 720.803 5.4322 0.597893 0
M  V30 7537 H 717.897 0.817387 0.12573 0
M  V30 7538 H 720.443 1.62051 -0.503729 0
M  V30 7539 H 719.215 3.82176 -0.84009 0
M  V30 7540 H 718.838 3.87875 0.873979 0
M  V30 7541 N 719.835 0.176821 1.56605 0
M  V30 7542 C 720.798 -0.737429 2.17013 0
M  V30 7543 C 721.798 -1.15414 1.11965 0
M  V30 7544 O 722.988 -1.0702 1.37449 0
M  V30 7545 C 720.12 -2.00445 2.75744 0
M  V30 7546 H 721.313 -0.211455 2.99154 0
M  V30 7547 H 718.866 -0.0727582 1.56131 0
M  V30 7548 H 719.601 -2.57338 1.97352 0
M  V30 7549 H 719.386 -1.71456 3.52626 0
M  V30 7550 H 720.876 -2.65679 3.22187 0
M  V30 7551 N 721.313 -1.57302 -0.09688 0
M  V30 7552 C 722.276 -2.00976 -1.10188 0
M  V30 7553 C 723.276 -0.903009 -1.3305 0
M  V30 7554 O 724.466 -1.16853 -1.29194 0
M  V30 7555 C 721.598 -2.36893 -2.45142 0
M  V30 7556 H 722.791 -2.9098 -0.726003 0
M  V30 7557 H 720.344 -1.52515 -0.341872 0
M  V30 7558 H 721.079 -1.49837 -2.8761 0
M  V30 7559 H 720.864 -3.17632 -2.29897 0
M  V30 7560 H 722.354 -2.71345 -3.1743 0
M  V30 7561 N 722.791 0.367657 -1.53252 0
M  V30 7562 C 724.039 1.10832 -1.68999 0
M  V30 7563 C 724.36 1.89894 -0.443306 0
M  V30 7564 O 723.63 1.88235 0.54262 0
M  V30 7565 H 722.21 0.412153 -0.623008 0
M  V30 7566 H 724.872 0.414775 -1.90435 0
M  V30 7567 H 723.968 1.7993 -2.55013 0
M  V30 7568 N 724.269 1.44576 0.627338 0
M  V30 7569 C 725.232 1.51372 1.72102 0
M  V30 7570 C 726.232 0.395329 1.55865 0
M  V30 7571 O 727.422 0.658094 1.61291 0
M  V30 7572 C 724.554 1.39129 3.11217 0
M  V30 7573 H 725.747 2.48798 1.6745 0
M  V30 7574 H 723.3 1.31724 0.841336 0
M  V30 7575 H 724.035 0.428114 3.21462 0
M  V30 7576 H 723.82 2.20229 3.24409 0
M  V30 7577 H 725.31 1.46874 3.90919 0
M  V30 7578 N 725.747 -0.868086 1.31537 0
M  V30 7579 C 726.995 -1.61807 1.21091 0
M  V30 7580 C 727.316 -1.93631 -0.230623 0
M  V30 7581 O 726.586 -1.5846 -1.15183 0
M  V30 7582 H 725.166 -0.599854 0.445178 0
M  V30 7583 H 727.828 -1.03915 1.64887 0
M  V30 7584 H 726.924 -2.56088 1.78396 0
M  V30 7585 N 727.225 -1.14528 -1.08264 0
M  V30 7586 C 728.188 -0.83632 -2.13397 0
M  V30 7587 C 729.188 0.159715 -1.60005 0
M  V30 7588 O 730.378 -0.0688098 -1.74064 0
M  V30 7589 C 727.51 -0.246973 -3.40004 0
M  V30 7590 H 728.703 -1.76808 -2.42237 0
M  V30 7591 H 726.256 -0.951509 -1.24 0
M  V30 7592 H 726.991 0.693436 -3.168 0
M  V30 7593 H 726.776 -0.964412 -3.80055 0
M  V30 7594 H 728.266 -0.0480679 -4.17572 0
M  V30 7595 N 728.703 1.26451 -0.940633 0
M  V30 7596 C 730.119 1.4608 -0.642859 0
M  V30 7597 C 730.319 1.84765 0.803998 0
M  V30 7598 O 729.375 1.96902 1.58069 0
M  V30 7599 C 730.688 2.54359 -1.60381 0
M  V30 7600 C 732.236 2.6821 -1.61345 0
M  V30 7601 C 732.711 3.79659 -2.56169 0
M  V30 7602 N 734.202 3.87051 -2.54452 0
M  V30 7603 C 734.937 4.72739 -3.24507 0
M  V30 7604 N 734.433 5.6282 -4.03987 0
M  V30 7605 N 736.226 4.66581 -3.13462 0
M  V30 7606 H 728.377 0.996289 -1.87584 0
M  V30 7607 H 730.64 0.498921 -0.80609 0
M  V30 7608 H 730.346 2.32758 -2.6366 0
M  V30 7609 H 730.22 3.52005 -1.35545 0
M  V30 7610 H 732.607 2.89184 -0.587913 0
M  V30 7611 H 732.688 1.7101 -1.90235 0
M  V30 7612 H 732.332 3.59438 -3.58841 0
M  V30 7613 H 732.262 4.76315 -2.2457 0
M  V30 7614 H 734.753 3.22649 -1.96739 0
M  V30 7615 H 735.066 6.25095 -4.54396 0
M  V30 7616 H 733.411 5.62574 -4.08088 0
M  V30 7617 H 736.602 3.9521 -2.50852 0
M  V30 7618 H 736.775 5.33141 -3.68327 0
M  V30 7619 N 730.181 0.707592 1.40822 0
M  V30 7620 C 731.406 0.251626 2.05868 0
M  V30 7621 C 731.831 -1.09503 1.5294 0
M  V30 7622 O 731.189 -1.68806 0.661385 0
M  V30 7623 C 731.237 0.23287 3.59847 0
M  V30 7624 O 730.341 -0.788477 4.04792 0
M  V30 7625 H 729.682 0.119936 0.653078 0
M  V30 7626 H 732.212 0.96583 1.80369 0
M  V30 7627 H 732.222 0.0678204 4.07944 0
M  V30 7628 H 730.897 1.21565 3.97737 0
M  V30 7629 H 729.474 -0.591802 3.68174 0
M  V30 7630 N 731.66 -1.50943 0.453197 0
M  V30 7631 C 732.908 -2.01813 -0.107709 0
M  V30 7632 C 733.229 -1.33841 -1.41816 0
M  V30 7633 O 732.499 -0.477973 -1.8998 0
M  V30 7634 H 731.079 -0.745773 -0.0427948 0
M  V30 7635 H 733.741 -1.8545 0.599531 0
M  V30 7636 H 732.837 -3.10911 -0.27218 0
M  V30 7637 N 733.138 -0.185124 -1.56509 0
M  V30 7638 C 734.368 0.461469 -2.0138 0
M  V30 7639 C 734.776 1.56417 -1.06445 0
M  V30 7640 O 734.119 1.83603 -0.0597515 0
M  V30 7641 C 734.181 1.08731 -3.42663 0
M  V30 7642 C 733.845 0.124581 -4.5683 0
M  V30 7643 C 734.842 -0.662295 -5.15664 0
M  V30 7644 C 732.527 0.0163947 -5.02297 0
M  V30 7645 C 734.521 -1.54442 -6.18406 0
M  V30 7646 C 732.208 -0.869301 -6.04885 0
M  V30 7647 C 733.206 -1.64828 -6.62813 0
M  V30 7648 O 732.894 -2.51915 -7.63409 0
M  V30 7649 H 732.626 0.1212 -0.665046 0
M  V30 7650 H 735.18 -0.288119 -2.03369 0
M  V30 7651 H 733.41 1.8853 -3.37629 0
M  V30 7652 H 735.099 1.63753 -3.71403 0
M  V30 7653 H 735.865 -0.588963 -4.81411 0
M  V30 7654 H 731.744 0.61253 -4.56913 0
M  V30 7655 H 735.288 -2.15289 -6.63548 0
M  V30 7656 H 731.185 -0.943786 -6.38563 0
M  V30 7657 H 731.953 -2.45584 -7.80789 0
M  V30 7658 N 734.616 1.57351 0.0885366 0
M  V30 7659 C 736.032 1.53331 0.442916 0
M  V30 7660 C 736.232 0.902831 1.80142 0
M  V30 7661 O 735.288 0.498147 2.47537 0
M  V30 7662 C 736.601 2.98036 0.399372 0
M  V30 7663 C 738.149 3.09286 0.480759 0
M  V30 7664 C 738.624 4.5561 0.467296 0
M  V30 7665 N 740.115 4.60182 0.52786 0
M  V30 7666 C 740.85 5.70857 0.539388 0
M  V30 7667 N 740.346 6.90944 0.506729 0
M  V30 7668 N 742.139 5.59051 0.584691 0
M  V30 7669 H 734.29 1.96709 -0.801215 0
M  V30 7670 H 736.553 0.899639 -0.298922 0
M  V30 7671 H 736.259 3.47656 -0.531806 0
M  V30 7672 H 736.133 3.57066 1.21589 0
M  V30 7673 H 738.52 2.5965 1.40236 0
M  V30 7674 H 738.601 2.53197 -0.364023 0
M  V30 7675 H 738.245 5.05899 -0.450384 0
M  V30 7676 H 738.175 5.09544 1.32938 0
M  V30 7677 H 740.666 3.73757 0.558028 0
M  V30 7678 H 740.979 7.71055 0.518989 0
M  V30 7679 H 739.324 6.93384 0.473675 0
M  V30 7680 H 742.515 4.64138 0.607781 0
M  V30 7681 H 742.688 6.45307 0.590206 0
M  V30 7682 N 736.094 -0.359525 1.53444 0
M  V30 7683 C 737.342 -1.09935 1.69584 0
M  V30 7684 C 737.663 -1.89656 0.453371 0
M  V30 7685 O 736.933 -1.8852 -0.53263 0
M  V30 7686 H 735.513 -0.408843 0.625185 0
M  V30 7687 H 738.175 -0.40467 1.90653 0
M  V30 7688 H 737.271 -1.78575 2.55964 0
M  V30 7689 N 737.572 -1.44907 -0.619662 0
M  V30 7690 C 738.988 -1.29046 -0.939107 0
M  V30 7691 C 739.188 -0.23462 -2.00129 0
M  V30 7692 O 738.244 0.37558 -2.49691 0
M  V30 7693 C 739.557 -2.66567 -1.39149 0
M  V30 7694 C 741.105 -2.74368 -1.50635 0
M  V30 7695 C 741.58 -4.12386 -1.99253 0
M  V30 7696 N 743.071 -4.1462 -2.06506 0
M  V30 7697 C 743.806 -5.18272 -2.4532 0
M  V30 7698 N 743.302 -6.32278 -2.83189 0
M  V30 7699 N 745.095 -5.05628 -2.45554 0
M  V30 7700 H 737.246 -2.12239 0.0826135 0
M  V30 7701 H 739.509 -0.947652 -0.0256829 0
M  V30 7702 H 739.215 -3.4496 -0.685254 0
M  V30 7703 H 739.089 -2.94224 -2.36034 0
M  V30 7704 H 741.476 -1.96287 -2.20353 0
M  V30 7705 H 741.557 -2.50439 -0.520963 0
M  V30 7706 H 741.201 -4.90947 -1.30127 0
M  V30 7707 H 741.131 -4.33699 -2.98684 0
M  V30 7708 H 743.622 -3.32343 -1.79878 0
M  V30 7709 H 743.935 -7.07172 -3.11652 0
M  V30 7710 H 742.28 -6.35699 -2.80913 0
M  V30 7711 H 745.471 -4.15613 -2.15367 0
M  V30 7712 H 745.644 -5.86529 -2.75478 0
M  V30 7713 N 739.05 0.861098 -1.31996 0
M  V30 7714 C 740.466 1.14827 -1.10846 0
M  V30 7715 C 740.666 2.0117 0.11528 0
M  V30 7716 O 739.722 2.39423 0.802048 0
M  V30 7717 C 741.035 1.83183 -2.38462 0
M  V30 7718 C 742.583 1.95847 -2.44158 0
M  V30 7719 C 743.058 2.67617 -3.71679 0
M  V30 7720 N 744.549 2.75147 -3.72624 0
M  V30 7721 C 745.284 3.31314 -4.67994 0
M  V30 7722 N 744.78 3.88343 -5.73726 0
M  V30 7723 N 746.573 3.29356 -4.55501 0
M  V30 7724 H 738.724 0.285951 -2.10466 0
M  V30 7725 H 740.987 0.189303 -0.928907 0
M  V30 7726 H 740.693 1.27193 -3.27895 0
M  V30 7727 H 740.567 2.83393 -2.48935 0
M  V30 7728 H 742.954 2.50999 -1.55189 0
M  V30 7729 H 743.035 0.94653 -2.37644 0
M  V30 7730 H 742.679 2.13131 -4.61018 0
M  V30 7731 H 742.609 3.69237 -3.75462 0
M  V30 7732 H 745.1 2.34682 -2.96197 0
M  V30 7733 H 745.413 4.29338 -6.42564 0
M  V30 7734 H 743.758 3.86693 -5.77489 0
M  V30 7735 H 746.949 2.84047 -3.72069 0
M  V30 7736 H 747.122 3.7283 -5.30001 0
M  V30 7737 N 740.528 1.15101 1.07655 0
M  V30 7738 C 741.753 0.948177 1.84457 0
M  V30 7739 C 742.178 -0.498432 1.81376 0
M  V30 7740 O 741.536 -1.35509 1.20445 0
M  V30 7741 C 741.584 1.46318 3.29581 0
M  V30 7742 O 740.688 0.660342 4.07079 0
M  V30 7743 H 740.029 0.338428 0.571281 0
M  V30 7744 H 742.559 1.5301 1.35828 0
M  V30 7745 H 742.569 1.47468 3.80417 0
M  V30 7746 H 741.244 2.51635 3.31138 0
M  V30 7747 H 739.821 0.718216 3.65918 0
M  V30 7748 N 742.006 -1.2595 0.947325 0
M  V30 7749 C 743.417 -1.75389 0.639963 0
M  V30 7750 C 743.768 -1.77081 -0.844788 0
M  V30 7751 O 742.893 -1.3869 -1.66114 0
M  V30 7752 C 743.488 -3.18506 1.15496 0
M  V30 7753 C 742.047 -3.65534 0.897894 0
M  V30 7754 C 741.194 -2.44818 1.30228 0
M  V30 7755 H 744.145 -1.1194 1.12495 0
M  V30 7756 H 744.166 -3.77045 0.511627 0
M  V30 7757 H 743.678 -3.17243 2.23559 0
M  V30 7758 H 741.779 -3.72221 -0.168096 0
M  V30 7759 H 741.892 -4.54039 1.52922 0
M  V30 7760 H 740.256 -2.44291 0.720678 0
M  V30 7761 H 741.039 -2.46251 2.39198 0
M  V30 7762 N 743.484 -0.715051 -1.40445 0
M  V30 7763 C 744.434 -0.038591 -2.27967 0
M  V30 7764 C 745.418 0.733099 -1.43229 0
M  V30 7765 O 746.61 0.605388 -1.66325 0
M  V30 7766 C 743.739 0.882801 -3.31755 0
M  V30 7767 C 742.825 0.106325 -4.23967 0
M  V30 7768 N 743.216 -0.910143 -4.97544 0
M  V30 7769 C 741.514 0.33896 -4.4471 0
M  V30 7770 C 742.215 -1.37665 -5.65175 0
M  V30 7771 N 741.191 -0.698905 -5.39088 0
M  V30 7772 H 744.993 -0.81765 -2.82297 0
M  V30 7773 H 742.507 -0.547591 -1.5289 0
M  V30 7774 H 744.504 1.38273 -3.93302 0
M  V30 7775 H 743.164 1.66124 -2.78985 0
M  V30 7776 H 744.175 -1.29097 -5.01552 0
M  V30 7777 H 740.852 1.09377 -4.02918 0
M  V30 7778 H 742.242 -2.22122 -6.34123 0
M  V30 7779 N 744.962 1.50701 -0.461195 0
M  V30 7780 C 746.19 2.06681 0.0951756 0
M  V30 7781 C 746.605 1.32615 1.34382 0
M  V30 7782 O 745.962 0.392531 1.78229 0
M  V30 7783 C 746.013 3.59354 0.393316 0
M  V30 7784 O 745.734 4.30626 -0.805797 0
M  V30 7785 C 747.235 4.31926 0.997744 0
M  V30 7786 H 744.455 0.670995 -0.00267259 0
M  V30 7787 H 746.999 1.93991 -0.647137 0
M  V30 7788 H 745.154 3.7188 1.08555 0
M  V30 7789 H 745.568 5.21667 -0.544409 0
M  V30 7790 H 747.042 5.39756 1.15619 0
M  V30 7791 H 747.519 3.91772 1.98523 0
M  V30 7792 H 748.125 4.23905 0.344188 0
M  V30 7793 N 746.441 0.193421 1.56409 0
M  V30 7794 C 747.852 -0.319471 1.83946 0
M  V30 7795 C 748.203 -1.61505 1.11403 0
M  V30 7796 O 747.328 -2.13139 0.374289 0
M  V30 7797 C 747.923 -0.586411 3.33686 0
M  V30 7798 C 746.482 -1.04368 3.61641 0
M  V30 7799 C 745.629 -0.0913834 2.77149 0
M  V30 7800 H 748.58 0.417242 1.53117 0
M  V30 7801 H 748.601 -1.43591 3.52366 0
M  V30 7802 H 748.113 0.356701 3.86457 0
M  V30 7803 H 746.214 -2.00113 3.14302 0
M  V30 7804 H 746.327 -0.937549 4.69837 0
M  V30 7805 H 744.691 -0.592954 2.47702 0
M  V30 7806 H 745.474 0.846142 3.32709 0
M  V30 7807 N 747.919 -1.57396 -0.0801906 0
M  V30 7808 C 748.869 -1.9955 -1.10289 0
M  V30 7809 C 749.853 -0.876234 -1.34948 0
M  V30 7810 O 751.045 -1.14012 -1.35389 0
M  V30 7811 C 748.174 -2.43596 -2.419 0
M  V30 7812 C 747.26 -3.6224 -2.20551 0
M  V30 7813 N 747.651 -4.76693 -1.69109 0
M  V30 7814 C 745.949 -3.68627 -2.51059 0
M  V30 7815 C 746.65 -5.58577 -1.62379 0
M  V30 7816 N 745.626 -5.02178 -2.0813 0
M  V30 7817 H 749.428 -2.85483 -0.698335 0
M  V30 7818 H 746.942 -1.59837 -0.287395 0
M  V30 7819 H 748.939 -2.72031 -3.15919 0
M  V30 7820 H 747.599 -1.59047 -2.8308 0
M  V30 7821 H 748.61 -4.9915 -1.38092 0
M  V30 7822 H 745.287 -2.94772 -2.95661 0
M  V30 7823 H 746.677 -6.60447 -1.2353 0
M  V30 7824 N 749.397 0.351382 -1.53633 0
M  V30 7825 C 750.307 1.45471 -1.84052 0
M  V30 7826 C 751.323 1.57945 -0.730015 0
M  V30 7827 O 752.499 1.73571 -1.02153 0
M  V30 7828 C 749.564 2.80562 -2.03681 0
M  V30 7829 C 748.625 2.77497 -3.27558 0
M  V30 7830 C 747.858 4.06144 -3.46241 0
M  V30 7831 O 748.081 5.03028 -2.68922 0
M  V30 7832 O 747.015 4.11092 -4.39645 0
M  V30 7833 H 750.841 1.22684 -2.77817 0
M  V30 7834 H 748.426 0.542827 -1.3919 0
M  V30 7835 H 750.308 3.6058 -2.18082 0
M  V30 7836 H 748.983 3.03296 -1.13106 0
M  V30 7837 H 747.89 1.96126 -3.18568 0
M  V30 7838 H 749.223 2.59716 -4.18101 0
M  V30 7839 N 750.875 1.45233 0.611969 0
M  V30 7840 C 752.291 1.29542 0.932251 0
M  V30 7841 C 752.491 0.24523 2.00002 0
M  V30 7842 O 751.547 -0.362333 2.49887 0
M  V30 7843 C 752.86 2.67301 1.37733 0
M  V30 7844 C 754.408 2.75163 1.49178 0
M  V30 7845 C 754.883 4.13437 1.97064 0
M  V30 7846 N 756.374 4.15709 2.04304 0
M  V30 7847 C 757.109 5.19566 2.42568 0
M  V30 7848 N 756.605 6.33771 2.79832 0
M  V30 7849 N 758.398 5.06923 2.42869 0
M  V30 7850 H 750.549 2.12192 -0.0938679 0
M  V30 7851 H 752.812 0.947775 0.0206569 0
M  V30 7852 H 752.518 3.45318 0.666951 0
M  V30 7853 H 752.392 2.95472 2.3447 0
M  V30 7854 H 754.779 1.97453 2.19309 0
M  V30 7855 H 754.86 2.50712 0.507674 0
M  V30 7856 H 754.504 4.91631 1.27521 0
M  V30 7857 H 754.434 4.35277 2.9638 0
M  V30 7858 H 756.925 3.33293 1.78113 0
M  V30 7859 H 757.238 7.08815 3.07898 0
M  V30 7860 H 755.583 6.37179 2.77538 0
M  V30 7861 H 758.774 4.1675 2.1316 0
M  V30 7862 H 758.947 5.87981 2.72364 0
M  V30 7863 N 752.353 -0.854086 1.3245 0
M  V30 7864 C 753.6 -1.60831 1.23043 0
M  V30 7865 C 753.928 -1.93389 -0.2076 0
M  V30 7866 O 753.183 -1.5756 -1.16075 0
M  V30 7867 C 753.482 -2.93746 2.03587 0
M  V30 7868 C 753.148 -2.80615 3.52939 0
M  V30 7869 C 751.81 -2.76742 3.93659 0
M  V30 7870 C 754.162 -2.66507 4.4791 0
M  V30 7871 C 751.49 -2.56638 5.27592 0
M  V30 7872 C 753.842 -2.47939 5.81987 0
M  V30 7873 C 752.506 -2.42458 6.21909 0
M  V30 7874 H 751.776 -0.588523 0.450247 0
M  V30 7875 H 754.423 -0.990699 1.63882 0
M  V30 7876 H 752.728 -3.5963 1.55478 0
M  V30 7877 H 754.425 -3.51127 1.93677 0
M  V30 7878 H 751.015 -2.84456 3.20598 0
M  V30 7879 H 755.199 -2.68544 4.1737 0
M  V30 7880 H 750.455 -2.50831 5.57579 0
M  V30 7881 H 754.629 -2.36002 6.55192 0
M  V30 7882 H 752.256 -2.2664 7.2563 0
M  V30 7883 N 753.831 -1.1567 -1.07043 0
M  V30 7884 C 754.741 -0.870435 -2.17855 0
M  V30 7885 C 755.757 0.154452 -1.73313 0
M  V30 7886 O 756.933 -0.0203759 -2.0139 0
M  V30 7887 C 753.998 -0.367219 -3.4475 0
M  V30 7888 C 753.059 -1.45639 -4.03841 0
M  V30 7889 C 752.292 -0.977092 -5.2468 0
M  V30 7890 O 752.515 0.176127 -5.70128 0
M  V30 7891 O 751.449 -1.76215 -5.75527 0
M  V30 7892 H 755.275 -1.79687 -2.44839 0
M  V30 7893 H 752.86 -0.936064 -1.1644 0
M  V30 7894 H 754.742 -0.0931947 -4.21297 0
M  V30 7895 H 753.417 0.53131 -3.1931 0
M  V30 7896 H 752.324 -1.78406 -3.28819 0
M  V30 7897 H 753.657 -2.32995 -4.3356 0
M  V30 7898 N 755.309 1.25446 -0.953992 0
M  V30 7899 C 756.557 1.92762 -0.607227 0
M  V30 7900 C 756.878 1.7509 0.858399 0
M  V30 7901 O 756.148 1.11416 1.61132 0
M  V30 7902 H 754.728 0.713377 -0.221591 0
M  V30 7903 H 757.39 1.52625 -1.21209 0
M  V30 7904 H 756.486 3.00695 -0.835998 0
M  V30 7905 N 756.787 0.722489 1.40064 0
M  V30 7906 C 757.717 0.0892452 2.33329 0
M  V30 7907 C 758.698 -0.737992 1.53257 0
M  V30 7908 O 759.883 -0.685516 1.81698 0
M  V30 7909 C 757.013 -0.828139 3.37282 0
M  V30 7910 C 755.967 -0.106005 4.27869 0
M  V30 7911 C 755.293 -1.13957 5.22415 0
M  V30 7912 C 756.593 1.04395 5.11761 0
M  V30 7913 H 758.287 0.868269 2.86534 0
M  V30 7914 H 755.833 0.418982 1.3777 0
M  V30 7915 H 757.786 -1.28058 4.01471 0
M  V30 7916 H 756.51 -1.63914 2.82489 0
M  V30 7917 H 755.169 0.326683 3.65142 0
M  V30 7918 H 754.817 -1.9438 4.63924 0
M  V30 7919 H 754.517 -0.661233 5.83868 0
M  V30 7920 H 756.041 -1.59197 5.89482 0
M  V30 7921 H 757.455 0.670541 5.69365 0
M  V30 7922 H 755.852 1.4511 5.82291 0
M  V30 7923 H 756.922 1.87144 4.47331 0
M  V30 7924 N 758.265 -1.50454 0.469181 0
M  V30 7925 C 759.493 -2.06729 -0.0842134 0
M  V30 7926 C 759.908 -1.33326 -1.33677 0
M  V30 7927 O 759.265 -0.401977 -1.78018 0
M  V30 7928 C 759.316 -3.59557 -0.374253 0
M  V30 7929 O 759.037 -4.30192 0.828622 0
M  V30 7930 C 760.538 -4.32449 -0.974824 0
M  V30 7931 H 757.758 -0.670971 0.006231 0
M  V30 7932 H 760.302 -1.93645 0.657415 0
M  V30 7933 H 758.457 -3.7245 -1.06581 0
M  V30 7934 H 758.871 -5.21371 0.572066 0
M  V30 7935 H 760.345 -5.40361 -1.12755 0
M  V30 7936 H 760.822 -3.92819 -1.96442 0
M  V30 7937 H 761.428 -4.24082 -0.321703 0
M  V30 7938 N 759.743 -0.201713 -1.56304 0
M  V30 7939 C 760.989 0.435952 -1.98059 0
M  V30 7940 C 761.322 1.60811 -1.08873 0
M  V30 7941 O 760.597 1.9398 -0.142128 0
M  V30 7942 C 760.88 0.889706 -3.48936 0
M  V30 7943 C 760.733 -0.284725 -4.48898 0
M  V30 7944 C 762.052 1.7529 -4.03685 0
M  V30 7945 H 759.171 0.15699 -0.720085 0
M  V30 7946 H 761.813 -0.293965 -1.87712 0
M  V30 7947 H 759.963 1.51166 -3.57884 0
M  V30 7948 H 761.635 -0.922531 -4.51981 0
M  V30 7949 H 759.878 -0.935427 -4.23594 0
M  V30 7950 H 760.549 0.0753865 -5.51949 0
M  V30 7951 H 763.025 1.2283 -3.97558 0
M  V30 7952 H 761.901 2.03933 -5.0961 0
M  V30 7953 H 762.162 2.70939 -3.49348 0
M  V30 7954 N 761.222 1.57436 0.0718424 0
M  V30 7955 C 762.152 2.06724 1.08571 0
M  V30 7956 C 763.133 0.960731 1.40371 0
M  V30 7957 O 764.318 1.23345 1.49999 0
M  V30 7958 C 761.448 2.51112 2.39916 0
M  V30 7959 C 760.402 3.65639 2.22469 0
M  V30 7960 C 759.728 3.96082 3.59198 0
M  V30 7961 C 761.028 4.95687 1.64596 0
M  V30 7962 H 762.722 2.91679 0.675569 0
M  V30 7963 H 760.268 1.40319 0.32352 0
M  V30 7964 H 762.221 2.84206 3.11135 0
M  V30 7965 H 760.945 1.63186 2.8291 0
M  V30 7966 H 759.604 3.32828 1.53691 0
M  V30 7967 H 759.252 3.05287 3.99761 0
M  V30 7968 H 758.952 4.73199 3.48362 0
M  V30 7969 H 760.476 4.31672 4.31847 0
M  V30 7970 H 761.89 5.27011 2.25681 0
M  V30 7971 H 760.287 5.77126 1.64457 0
M  V30 7972 H 761.357 4.8108 0.60744 0
M  V30 7973 N 762.7 -0.34323 1.53817 0
M  V30 7974 C 763.647 -1.42153 1.81827 0
M  V30 7975 C 764.617 -1.52251 0.663996 0
M  V30 7976 O 765.802 -1.67784 0.908461 0
M  V30 7977 C 762.942 -2.78799 2.03384 0
M  V30 7978 C 762.055 -2.7749 3.31094 0
M  V30 7979 C 761.19 -4.05856 3.42717 0
M  V30 7980 C 760.229 -3.98776 4.64375 0
M  V30 7981 N 759.366 -5.18833 4.73029 0
M  V30 7982 H 764.206 -1.17567 2.73829 0
M  V30 7983 H 761.743 -0.569506 1.35628 0
M  V30 7984 H 763.701 -3.58211 2.13872 0
M  V30 7985 H 762.331 -3.01736 1.14696 0
M  V30 7986 H 761.383 -1.90182 3.29446 0
M  V30 7987 H 762.695 -2.68137 4.206 0
M  V30 7988 H 761.849 -4.93691 3.52638 0
M  V30 7989 H 760.588 -4.1799 2.51267 0
M  V30 7990 H 759.593 -3.09325 4.5453 0
M  V30 7991 H 760.818 -3.88224 5.57189 0
M  V30 7992 H 758.764 -5.31511 3.84489 0
M  V30 7993 H 758.681 -5.11737 5.56472 0
M  V30 7994 H 759.949 -6.08439 4.87261 0
M  V30 7995 N 764.178 -1.45556 -0.604258 0
M  V30 7996 C 765.141 -1.54091 -1.69672 0
M  V30 7997 C 766.141 -0.420076 -1.55216 0
M  V30 7998 O 767.331 -0.683671 -1.60224 0
M  V30 7999 C 764.463 -1.44063 -3.08964 0
M  V30 8000 H 765.656 -2.51431 -1.6347 0
M  V30 8001 H 763.209 -1.33046 -0.820273 0
M  V30 8002 H 763.944 -0.479201 -3.2074 0
M  V30 8003 H 763.729 -2.25362 -3.20865 0
M  V30 8004 H 765.219 -1.53075 -3.88533 0
M  V30 8005 N 765.656 0.84705 -1.32902 0
M  V30 8006 C 766.619 1.9378 -1.224 0
M  V30 8007 C 767.619 1.60144 -0.145108 0
M  V30 8008 O 768.809 1.69638 -0.396058 0
M  V30 8009 C 765.941 3.29234 -0.884174 0
M  V30 8010 H 767.134 2.04518 -2.19345 0
M  V30 8011 H 764.687 1.03816 -1.16842 0
M  V30 8012 H 765.422 3.24193 0.0831277 0
M  V30 8013 H 765.207 3.55026 -1.6643 0
M  V30 8014 H 766.697 4.09162 -0.835226 0
M  V30 8015 N 767.134 1.16236 1.06428 0
M  V30 8016 C 768.066 0.825446 2.1382 0
M  V30 8017 C 769.079 -0.166707 1.61944 0
M  V30 8018 O 770.268 0.0578606 1.78406 0
M  V30 8019 C 767.368 0.208023 3.38261 0
M  V30 8020 C 766.541 1.23994 4.19457 0
M  V30 8021 C 765.6 0.642569 5.22262 0
M  V30 8022 O 764.626 1.31106 5.53895 0
M  V30 8023 N 765.828 -0.571327 5.77682 0
M  V30 8024 H 768.593 1.7497 2.43322 0
M  V30 8025 H 766.154 1.05951 1.22417 0
M  V30 8026 H 768.146 -0.204608 4.04182 0
M  V30 8027 H 766.716 -0.619752 3.06395 0
M  V30 8028 H 765.936 1.82879 3.49212 0
M  V30 8029 H 767.224 1.93638 4.70512 0
M  V30 8030 H 766.622 -1.13263 5.54245 0
M  V30 8031 H 765.179 -0.926187 6.45186 0
M  V30 8032 N 768.612 -1.24939 0.960631 0
M  V30 8033 C 769.542 -2.28 0.503815 0
M  V30 8034 C 770.523 -1.63959 -0.452928 0
M  V30 8035 O 771.708 -1.91009 -0.350585 0
M  V30 8036 C 768.838 -3.46643 -0.213535 0
M  V30 8037 C 767.792 -4.22903 0.658535 0
M  V30 8038 C 767.118 -5.34363 -0.189902 0
M  V30 8039 C 768.418 -4.84949 1.93963 0
M  V30 8040 H 770.112 -2.66462 1.36521 0
M  V30 8041 H 767.658 -1.28093 0.657897 0
M  V30 8042 H 769.611 -4.1787 -0.544286 0
M  V30 8043 H 768.335 -3.07187 -1.10923 0
M  V30 8044 H 766.994 -3.53467 0.972455 0
M  V30 8045 H 766.642 -4.91147 -1.08553 0
M  V30 8046 H 766.342 -5.86302 0.390331 0
M  V30 8047 H 767.866 -6.0842 -0.515484 0
M  V30 8048 H 769.28 -5.48288 1.67491 0
M  V30 8049 H 767.677 -5.47091 2.46601 0
M  V30 8050 H 768.747 -4.06799 2.639 0
M  V30 8051 N 770.09 -0.729906 -1.39679 0
M  V30 8052 C 771.053 -0.0951668 -2.29002 0
M  V30 8053 C 772.053 0.672471 -1.46063 0
M  V30 8054 O 773.243 0.502245 -1.66803 0
M  V30 8055 C 770.375 0.874631 -3.29489 0
M  V30 8056 H 771.568 -0.882062 -2.86635 0
M  V30 8057 H 769.121 -0.495424 -1.4824 0
M  V30 8058 H 769.856 1.68807 -2.76902 0
M  V30 8059 H 769.641 0.326893 -3.90735 0
M  V30 8060 H 771.131 1.31548 -3.96339 0
M  V30 8061 N 771.568 1.50203 -0.477153 0
M  V30 8062 C 772.984 1.59056 -0.131663 0
M  V30 8063 C 773.184 1.48473 1.36227 0
M  V30 8064 O 772.24 1.34635 2.13611 0
M  V30 8065 C 773.553 2.92741 -0.687254 0
M  V30 8066 C 775.101 3.0615 -0.651223 0
M  V30 8067 C 775.576 4.42419 -1.18446 0
M  V30 8068 N 777.067 4.48847 -1.14413 0
M  V30 8069 C 777.802 5.52689 -1.52717 0
M  V30 8070 N 777.298 6.63754 -1.98499 0
M  V30 8071 N 779.091 5.43267 -1.44282 0
M  V30 8072 H 771.242 1.55325 -1.44872 0
M  V30 8073 H 773.505 0.734395 -0.599473 0
M  V30 8074 H 773.211 3.0598 -1.73405 0
M  V30 8075 H 773.085 3.76961 -0.134215 0
M  V30 8076 H 775.472 2.92556 0.386677 0
M  V30 8077 H 775.553 2.23673 -1.24114 0
M  V30 8078 H 775.197 4.56763 -2.22103 0
M  V30 8079 H 775.127 5.23498 -0.570709 0
M  V30 8080 H 777.618 3.69152 -0.808416 0
M  V30 8081 H 777.931 7.39059 -2.25859 0
M  V30 8082 H 776.276 6.64858 -2.02456 0
M  V30 8083 H 779.467 4.55387 -1.08352 0
M  V30 8084 H 779.64 6.24074 -1.74459 0
M  V30 8085 N 773.046 0.209999 1.56195 0
M  V30 8086 C 774.009 -0.691232 2.18528 0
M  V30 8087 C 775.009 -1.13013 1.14388 0
M  V30 8088 O 776.199 -1.04081 1.39688 0
M  V30 8089 C 773.331 -1.94551 2.79934 0
M  V30 8090 H 774.524 -0.147953 2.99535 0
M  V30 8091 H 772.077 -0.0396243 1.5625 0
M  V30 8092 H 772.812 -2.53094 2.02766 0
M  V30 8093 H 772.597 -1.63938 3.56184 0
M  V30 8094 H 774.087 -2.58785 3.2775 0
M  V30 8095 N 774.524 -1.57472 -0.0634922 0
M  V30 8096 C 775.772 -1.87283 -0.759563 0
M  V30 8097 C 776.093 -0.803135 -1.77693 0
M  V30 8098 O 775.363 0.167293 -1.95184 0
M  V30 8099 H 773.943 -0.691106 -0.283516 0
M  V30 8100 H 776.605 -1.94864 -0.0376091 0
M  V30 8101 H 775.701 -2.85064 -1.27062 0
M  V30 8102 N 776.003 0.335068 -1.53997 0
M  V30 8103 C 777.231 1.09418 -1.756 0
M  V30 8104 C 777.646 1.82083 -0.499138 0
M  V30 8105 O 777.003 1.74646 0.529631 0
M  V30 8106 C 777.054 2.10115 -2.94166 0
M  V30 8107 O 776.775 1.40404 -4.14992 0
M  V30 8108 C 778.276 2.98336 -3.27888 0
M  V30 8109 H 775.496 0.32595 -0.586513 0
M  V30 8110 H 778.04 0.384693 -2.00849 0
M  V30 8111 H 776.195 2.76616 -2.71224 0
M  V30 8112 H 776.609 2.07743 -4.81605 0
M  V30 8113 H 778.083 3.6491 -4.1418 0
M  V30 8114 H 778.56 3.64814 -2.44556 0
M  V30 8115 H 779.166 2.37412 -3.52868 0
M  V30 8116 N 777.481 1.45874 0.596531 0
M  V30 8117 C 778.727 1.5069 1.35722 0
M  V30 8118 C 779.06 0.152506 1.936 0
M  V30 8119 O 778.335 -0.834411 1.75692 0
M  V30 8120 C 778.618 2.59474 2.4969 0
M  V30 8121 C 778.471 4.04396 1.96937 0
M  V30 8122 C 779.79 2.64451 3.51787 0
M  V30 8123 H 776.909 0.548611 0.492133 0
M  V30 8124 H 779.551 1.77741 0.671428 0
M  V30 8125 H 777.701 2.36539 3.08191 0
M  V30 8126 H 779.373 4.38576 1.43 0
M  V30 8127 H 777.616 4.14529 1.27859 0
M  V30 8128 H 778.287 4.76218 2.79143 0
M  V30 8129 H 780.763 2.85031 3.03145 0
M  V30 8130 H 779.639 3.42411 4.29006 0
M  V30 8131 H 779.9 1.69965 4.08123 0
M  V30 8132 N 778.959 -0.83999 1.33349 0
M  V30 8133 C 780.207 -1.59202 1.24496 0
M  V30 8134 C 780.528 -1.94077 -0.189499 0
M  V30 8135 O 779.798 -1.60868 -1.11796 0
M  V30 8136 H 778.378 -0.590276 0.457802 0
M  V30 8137 H 781.04 -1.00394 1.67054 0
M  V30 8138 H 780.136 -2.52247 1.83788 0
M  V30 8139 N 780.437 -1.16799 -1.0581 0
M  V30 8140 C 781.662 -0.977402 -1.82925 0
M  V30 8141 C 782.087 0.469514 -1.82146 0
M  V30 8142 O 781.445 1.33576 -1.22585 0
M  V30 8143 C 781.493 -1.51543 -3.27211 0
M  V30 8144 O 780.597 -0.725021 -4.05977 0
M  V30 8145 H 779.938 -0.347474 -0.565825 0
M  V30 8146 H 782.468 -1.55151 -1.33376 0
M  V30 8147 H 782.478 -1.53502 -3.78023 0
M  V30 8148 H 781.153 -2.56872 -3.27093 0
M  V30 8149 H 779.73 -0.77634 -3.64729 0
M  V30 8150 N 781.915 1.24427 -0.967243 0
M  V30 8151 C 782.847 2.24641 -0.454856 0
M  V30 8152 C 783.86 1.56849 0.436152 0
M  V30 8153 O 785.049 1.76846 0.242401 0
M  V30 8154 C 782.149 3.36954 0.362672 0
M  V30 8155 C 781.322 4.34318 -0.518324 0
M  V30 8156 C 780.381 5.25638 0.243122 0
M  V30 8157 O 779.407 5.68043 -0.362791 0
M  V30 8158 N 780.609 5.59897 1.53282 0
M  V30 8159 H 783.374 2.69238 -1.31648 0
M  V30 8160 H 780.935 1.38464 -0.839015 0
M  V30 8161 H 782.927 3.95014 0.880094 0
M  V30 8162 H 781.497 2.91646 1.12522 0
M  V30 8163 H 780.717 3.74953 -1.21672 0
M  V30 8164 H 782.005 4.96338 -1.11919 0
M  V30 8165 H 781.403 5.27373 2.04682 0
M  V30 8166 H 779.96 6.20488 1.99594 0
M  V30 8167 N 783.393 0.737304 1.3929 0
M  V30 8168 C 784.641 0.285691 2.00071 0
M  V30 8169 C 784.962 -1.13169 1.58801 0
M  V30 8170 O 784.232 -1.77104 0.837308 0
M  V30 8171 H 782.812 0.102638 0.739915 0
M  V30 8172 H 785.474 0.947775 1.70303 0
M  V30 8173 H 784.57 0.335906 3.10287 0
M  V30 8174 N 784.871 -1.49948 0.485112 0
M  V30 8175 C 785.834 -2.27351 -0.290546 0
M  V30 8176 C 786.834 -1.32704 -0.908087 0
M  V30 8177 O 788.024 -1.56007 -0.775085 0
M  V30 8178 C 785.156 -3.10135 -1.41524 0
M  V30 8179 H 786.349 -2.97374 0.388454 0
M  V30 8180 H 783.902 -1.54453 0.239586 0
M  V30 8181 H 784.637 -2.44641 -2.12888 0
M  V30 8182 H 784.422 -3.79705 -0.978074 0
M  V30 8183 H 785.912 -3.68638 -1.96204 0
M  V30 8184 N 786.349 -0.21828 -1.56081 0
M  V30 8185 C 787.296 0.693189 -2.20144 0
M  V30 8186 C 788.266 1.19274 -1.15598 0
M  V30 8187 O 789.451 1.25243 -1.4394 0
M  V30 8188 C 786.591 1.89715 -2.88275 0
M  V30 8189 C 785.704 1.4368 -4.07407 0
M  V30 8190 C 784.839 2.59807 -4.63329 0
M  V30 8191 C 783.878 2.10492 -5.74769 0
M  V30 8192 N 783.015 3.1988 -6.24997 0
M  V30 8193 H 787.855 0.14016 -2.9767 0
M  V30 8194 H 785.392 0.0574292 -1.46988 0
M  V30 8195 H 787.35 2.60398 -3.25958 0
M  V30 8196 H 785.98 2.42311 -2.13273 0
M  V30 8197 H 785.032 0.625007 -3.7523 0
M  V30 8198 H 786.344 1.03517 -4.8794 0
M  V30 8199 H 785.498 3.38577 -5.03438 0
M  V30 8200 H 784.237 3.03256 -3.81951 0
M  V30 8201 H 783.242 1.30182 -5.34165 0
M  V30 8202 H 784.467 1.68045 -6.5798 0
M  V30 8203 H 782.413 3.62817 -5.46534 0
M  V30 8204 H 782.33 2.83958 -7.00645 0
M  V30 8205 H 783.598 3.98796 -6.69763 0
M  V30 8206 N 787.827 1.57504 0.0551401 0
M  V30 8207 C 788.757 2.07864 1.06372 0
M  V30 8208 C 789.738 0.975565 1.39344 0
M  V30 8209 O 790.923 1.24929 1.48682 0
M  V30 8210 C 788.053 2.53643 2.3724 0
M  V30 8211 C 787.007 3.67978 2.18578 0
M  V30 8212 C 786.333 3.9987 3.54976 0
M  V30 8213 C 787.633 4.97405 1.59329 0
M  V30 8214 H 789.327 2.92379 0.644595 0
M  V30 8215 H 786.873 1.40654 0.308619 0
M  V30 8216 H 788.826 2.8749 3.08103 0
M  V30 8217 H 787.55 1.66177 2.81163 0
M  V30 8218 H 786.209 3.3444 1.50152 0
M  V30 8219 H 785.857 3.0951 3.965 0
M  V30 8220 H 785.557 4.76867 3.43324 0
M  V30 8221 H 787.081 4.36228 4.27244 0
M  V30 8222 H 788.495 5.29375 2.20078 0
M  V30 8223 H 786.892 5.78837 1.58327 0
M  V30 8224 H 787.962 4.81697 0.55638 0
M  V30 8225 N 789.305 -0.326896 1.54172 0
M  V30 8226 C 790.235 -1.40741 1.86317 0
M  V30 8227 C 791.216 -1.54125 0.719684 0
M  V30 8228 O 792.401 -1.6806 0.973117 0
M  V30 8229 C 789.531 -2.77557 2.08757 0
M  V30 8230 C 788.485 -2.78965 3.24596 0
M  V30 8231 C 787.811 -4.18824 3.32401 0
M  V30 8232 C 789.111 -2.4301 4.62324 0
M  V30 8233 H 790.805 -1.14088 2.76811 0
M  V30 8234 H 788.351 -0.547389 1.3319 0
M  V30 8235 H 790.304 -3.53209 2.29829 0
M  V30 8236 H 789.028 -3.0568 1.15009 0
M  V30 8237 H 787.687 -2.05767 3.03406 0
M  V30 8238 H 787.335 -4.44083 2.36218 0
M  V30 8239 H 787.035 -4.20673 4.10253 0
M  V30 8240 H 788.559 -4.96294 3.55703 0
M  V30 8241 H 789.973 -3.08375 4.83299 0
M  V30 8242 H 788.37 -2.56116 5.42701 0
M  V30 8243 H 789.44 -1.38165 4.64799 0
M  V30 8244 N 790.784 -1.46188 -0.588786 0
M  V30 8245 C 791.714 -1.59148 -1.70863 0
M  V30 8246 C 792.695 -0.442083 -1.64255 0
M  V30 8247 O 793.88 -0.667575 -1.82365 0
M  V30 8248 C 791.01 -1.5757 -3.09498 0
M  V30 8249 C 789.964 -2.71418 -3.30932 0
M  V30 8250 C 789.29 -2.549 -4.70032 0
M  V30 8251 C 790.59 -4.1329 -3.19356 0
M  V30 8252 H 792.284 -2.52889 -1.60274 0
M  V30 8253 H 789.83 -1.21707 -0.769638 0
M  V30 8254 H 791.783 -1.65231 -3.87655 0
M  V30 8255 H 790.507 -0.603705 -3.20972 0
M  V30 8256 H 789.166 -2.63216 -2.55172 0
M  V30 8257 H 788.814 -1.55797 -4.78264 0
M  V30 8258 H 788.514 -3.31257 -4.85327 0
M  V30 8259 H 790.038 -2.64443 -5.50366 0
M  V30 8260 H 791.452 -4.22636 -3.87365 0
M  V30 8261 H 789.849 -4.90187 -3.46175 0
M  V30 8262 H 790.919 -4.33874 -2.16522 0
M  V30 8263 N 792.262 0.832906 -1.33792 0
M  V30 8264 C 793.172 1.97514 -1.26592 0
M  V30 8265 C 794.188 1.73114 -0.175391 0
M  V30 8266 O 795.364 1.97387 -0.400062 0
M  V30 8267 C 792.429 3.31625 -1.01121 0
M  V30 8268 C 791.49 3.69101 -2.19233 0
M  V30 8269 C 790.723 4.96813 -1.94968 0
M  V30 8270 O 790.946 5.63208 -0.902955 0
M  V30 8271 O 789.88 5.31932 -2.8166 0
M  V30 8272 H 793.706 2.0653 -2.22664 0
M  V30 8273 H 791.291 0.966826 -1.13898 0
M  V30 8274 H 793.173 4.11968 -0.886571 0
M  V30 8275 H 791.848 3.23599 -0.080822 0
M  V30 8276 H 790.755 2.89243 -2.37253 0
M  V30 8277 H 792.088 3.818 -3.10628 0
M  V30 8278 N 793.74 1.17359 1.05189 0
M  V30 8279 C 794.986 0.963413 1.78455 0
M  V30 8280 C 795.319 -0.506703 1.87473 0
M  V30 8281 O 794.594 -1.37611 1.37453 0
M  V30 8282 C 794.877 1.60519 3.22344 0
M  V30 8283 C 794.73 3.14741 3.21338 0
M  V30 8284 C 796.049 1.3091 4.20179 0
M  V30 8285 H 793.168 0.351412 0.647826 0
M  V30 8286 H 795.81 1.44858 1.22948 0
M  V30 8287 H 793.96 1.19265 3.69741 0
M  V30 8288 H 795.632 3.65053 2.82017 0
M  V30 8289 H 793.875 3.4749 2.59679 0
M  V30 8290 H 794.546 3.54775 4.22894 0
M  V30 8291 H 797.022 1.66635 3.81277 0
M  V30 8292 H 795.898 1.784 5.191 0
M  V30 8293 H 796.159 0.229908 4.41502 0
M  V30 8294 N 795.218 -1.23913 0.973828 0
M  V30 8295 C 796.443 -1.96735 0.656511 0
M  V30 8296 C 796.868 -1.71682 -0.768571 0
M  V30 8297 O 796.226 -0.984267 -1.52256 0
M  V30 8298 C 796.274 -3.48004 0.944735 0
M  V30 8299 O 795.378 -4.12387 0.0333357 0
M  V30 8300 H 794.719 -0.616119 0.247575 0
M  V30 8301 H 797.249 -1.57525 1.30564 0
M  V30 8302 H 797.259 -3.98424 0.87876 0
M  V30 8303 H 795.934 -3.65567 1.98328 0
M  V30 8304 H 794.511 -3.72585 0.153157 0
M  V30 8305 N 796.696 -0.74468 -1.38897 0
M  V30 8306 C 797.606 -0.112892 -2.34328 0
M  V30 8307 C 798.622 0.71087 -1.58816 0
M  V30 8308 O 799.798 0.637092 -1.91058 0
M  V30 8309 C 796.863 0.776417 -3.37894 0
M  V30 8310 C 795.924 -0.0606999 -4.29257 0
M  V30 8311 C 795.157 0.786258 -5.27877 0
M  V30 8312 O 795.38 2.02463 -5.33259 0
M  V30 8313 O 794.314 0.209781 -6.01534 0
M  V30 8314 H 798.14 -0.900801 -2.90033 0
M  V30 8315 H 795.725 -0.505462 -1.4059 0
M  V30 8316 H 797.607 1.28496 -4.01331 0
M  V30 8317 H 796.282 1.54297 -2.84559 0
M  V30 8318 H 795.189 -0.614984 -3.69011 0
M  V30 8319 H 796.522 -0.789702 -4.85824 0
M  V30 8320 N 798.174 1.49689 -0.493057 0
M  V30 8321 C 799.59 1.58907 -0.148526 0
M  V30 8322 C 799.79 1.4991 1.34645 0
M  V30 8323 O 798.846 1.36893 2.12171 0
M  V30 8324 C 800.159 2.91996 -0.718265 0
M  V30 8325 C 801.707 3.05443 -0.683658 0
M  V30 8326 C 802.182 4.41138 -1.23132 0
M  V30 8327 N 803.673 4.47608 -1.19167 0
M  V30 8328 C 804.408 5.51038 -1.5857 0
M  V30 8329 N 803.904 6.61612 -2.05528 0
M  V30 8330 N 805.697 5.41706 -1.50036 0
M  V30 8331 H 797.848 1.5378 -1.46511 0
M  V30 8332 H 800.111 0.727996 -0.607228 0
M  V30 8333 H 799.817 3.04123 -1.7664 0
M  V30 8334 H 799.691 3.76798 -0.17419 0
M  V30 8335 H 802.078 2.92949 0.355626 0
M  V30 8336 H 802.159 2.22344 -1.26479 0
M  V30 8337 H 801.803 4.54382 -2.26935 0
M  V30 8338 H 801.733 5.22864 -0.626201 0
M  V30 8339 H 804.224 3.68274 -0.847524 0
M  V30 8340 H 804.537 7.36622 -2.33685 0
M  V30 8341 H 802.882 6.62674 -2.09497 0
M  V30 8342 H 806.073 4.54212 -1.13176 0
M  V30 8343 H 806.246 6.22188 -1.81068 0
M  V30 8344 N 799.652 0.226554 1.55963 0
M  V30 8345 C 800.898 -0.404387 1.98727 0
M  V30 8346 C 801.231 -1.59059 1.11418 0
M  V30 8347 O 800.506 -1.93729 0.172971 0
M  V30 8348 C 800.789 -0.834081 3.50307 0
M  V30 8349 C 800.642 0.356104 4.48388 0
M  V30 8350 C 801.961 -1.68845 4.06423 0
M  V30 8351 H 799.08 -0.145515 0.722492 0
M  V30 8352 H 801.722 0.323791 1.87221 0
M  V30 8353 H 799.872 -1.45454 3.60244 0
M  V30 8354 H 801.544 0.99432 4.50456 0
M  V30 8355 H 799.787 1.0027 4.22053 0
M  V30 8356 H 800.458 0.0124333 5.51999 0
M  V30 8357 H 802.934 -1.16489 3.99461 0
M  V30 8358 H 801.81 -1.958 5.1279 0
M  V30 8359 H 802.071 -2.65347 3.53615 0
M  V30 8360 N 801.13 -1.57531 -0.0467866 0
M  V30 8361 C 802.546 -1.54451 -0.402107 0
M  V30 8362 C 802.746 -0.950275 -1.77685 0
M  V30 8363 O 801.802 -0.563602 -2.4613 0
M  V30 8364 C 803.115 -2.9899 -0.320212 0
M  V30 8365 C 804.663 -3.10452 -0.398588 0
M  V30 8366 C 805.138 -4.56689 -0.346335 0
M  V30 8367 N 806.629 -4.6142 -0.405666 0
M  V30 8368 C 807.364 -5.72087 -0.387845 0
M  V30 8369 N 806.86 -6.92045 -0.32336 0
M  V30 8370 N 808.653 -5.60404 -0.436263 0
M  V30 8371 H 800.804 -1.94515 0.853087 0
M  V30 8372 H 803.067 -0.891397 0.322669 0
M  V30 8373 H 802.773 -3.46124 0.623794 0
M  V30 8374 H 802.647 -3.60164 -1.1208 0
M  V30 8375 H 805.034 -2.63276 -1.33302 0
M  V30 8376 H 805.115 -2.52142 0.431026 0
M  V30 8377 H 804.759 -5.04527 0.584356 0
M  V30 8378 H 804.689 -5.12889 -1.19382 0
M  V30 8379 H 807.18 -3.75105 -0.458737 0
M  V30 8380 H 807.493 -7.7216 -0.314375 0
M  V30 8381 H 805.838 -6.94396 -0.28967 0
M  V30 8382 H 809.029 -4.65586 -0.48451 0
M  V30 8383 H 809.202 -6.46645 -0.418907 0
M  V30 8384 N 802.608 0.318715 -1.54344 0
M  V30 8385 C 803.836 1.0755 -1.7675 0
M  V30 8386 C 804.251 1.81543 -0.518422 0
M  V30 8387 O 803.608 1.75198 0.511078 0
M  V30 8388 C 803.659 2.06983 -2.96378 0
M  V30 8389 O 803.38 1.35995 -4.16458 0
M  V30 8390 C 804.881 2.94841 -3.31034 0
M  V30 8391 H 802.101 0.319711 -0.589937 0
M  V30 8392 H 804.645 0.363369 -2.01246 0
M  V30 8393 H 802.8 2.73724 -2.74142 0
M  V30 8394 H 803.214 2.02623 -4.83781 0
M  V30 8395 H 804.688 3.60496 -4.18027 0
M  V30 8396 H 805.165 3.62199 -2.48412 0
M  V30 8397 H 805.771 2.33656 -3.55366 0
M  V30 8398 N 804.086 1.46499 0.581025 0
M  V30 8399 C 805.016 1.60052 1.70017 0
M  V30 8400 C 805.997 0.450788 1.64018 0
M  V30 8401 O 807.182 0.677237 1.82009 0
M  V30 8402 C 804.312 1.5921 3.08658 0
M  V30 8403 C 803.266 2.73169 3.29488 0
M  V30 8404 C 802.592 2.57389 4.68674 0
M  V30 8405 C 803.892 4.14978 3.1716 0
M  V30 8406 H 805.586 2.53735 1.5893 0
M  V30 8407 H 803.132 1.22113 0.763173 0
M  V30 8408 H 805.085 1.67285 3.86773 0
M  V30 8409 H 803.809 0.620718 3.20647 0
M  V30 8410 H 802.468 2.64566 2.53773 0
M  V30 8411 H 802.116 1.58331 4.77431 0
M  V30 8412 H 801.816 3.33826 4.83564 0
M  V30 8413 H 803.34 2.67358 5.48956 0
M  V30 8414 H 804.754 4.24684 3.85119 0
M  V30 8415 H 803.151 4.92016 3.4357 0
M  V30 8416 H 804.221 4.35016 2.14218 0
M  V30 8417 N 805.565 -0.825799 1.34232 0
M  V30 8418 C 806.793 -1.61363 1.29497 0
M  V30 8419 C 807.208 -1.88341 -0.131536 0
M  V30 8420 O 806.565 -1.47279 -1.07773 0
M  V30 8421 C 806.616 -2.95623 2.08061 0
M  V30 8422 O 806.337 -2.69824 3.45147 0
M  V30 8423 C 807.838 -3.90032 2.10688 0
M  V30 8424 H 805.058 -0.501676 0.445603 0
M  V30 8425 H 807.602 -1.02767 1.76803 0
M  V30 8426 H 805.757 -3.50785 1.64404 0
M  V30 8427 H 806.171 -3.55412 3.85723 0
M  V30 8428 H 807.645 -4.81411 2.70087 0
M  V30 8429 H 808.122 -4.25188 1.10052 0
M  V30 8430 H 808.728 -3.40807 2.54422 0
M  V30 8431 N 807.043 -1.17915 -1.04565 0
M  V30 8432 C 807.975 -0.859359 -2.1248 0
M  V30 8433 C 808.988 0.140922 -1.62189 0
M  V30 8434 O 810.177 -0.0862361 -1.78292 0
M  V30 8435 C 807.277 -0.261811 -3.37887 0
M  V30 8436 C 806.45 -1.30651 -4.17431 0
M  V30 8437 C 805.509 -0.725575 -5.21174 0
M  V30 8438 O 804.535 -1.39901 -5.51739 0
M  V30 8439 N 805.737 0.479351 -5.78517 0
M  V30 8440 H 808.502 -1.78818 -2.40508 0
M  V30 8441 H 806.063 -1.07885 -1.20716 0
M  V30 8442 H 808.055 0.14028 -4.04457 0
M  V30 8443 H 806.625 0.570929 -3.07342 0
M  V30 8444 H 805.845 -1.88412 -3.46258 0
M  V30 8445 H 807.133 -2.01099 -4.67372 0
M  V30 8446 H 806.531 1.04431 -5.55977 0
M  V30 8447 H 805.088 0.823427 -6.46578 0
M  V30 8448 N 808.521 1.23394 -0.980386 0
M  V30 8449 C 809.484 2.23092 -0.525619 0
M  V30 8450 C 810.484 1.56129 0.384745 0
M  V30 8451 O 811.674 1.73284 0.178439 0
M  V30 8452 C 808.806 3.40074 0.23712 0
M  V30 8453 H 809.999 2.64839 -1.40714 0
M  V30 8454 H 807.552 1.36227 -0.766275 0
M  V30 8455 H 808.287 3.03783 1.13518 0
M  V30 8456 H 808.072 3.89883 -0.416356 0
M  V30 8457 H 809.562 4.14043 0.543892 0
M  V30 8458 N 809.999 0.752036 1.385 0
M  V30 8459 C 811.229 0.317812 2.04141 0
M  V30 8460 C 811.637 -1.05822 1.56839 0
M  V30 8461 O 810.98 -1.68311 0.736016 0
M  V30 8462 C 811.042 0.260205 3.58557 0
M  V30 8463 C 810.706 1.57753 4.28909 0
M  V30 8464 C 811.703 2.52642 4.54387 0
M  V30 8465 C 809.388 1.84653 4.67128 0
M  V30 8466 C 811.382 3.72653 5.17116 0
M  V30 8467 C 809.069 3.04938 5.29581 0
M  V30 8468 C 810.067 3.98759 5.54509 0
M  V30 8469 O 809.755 5.16929 6.15662 0
M  V30 8470 H 809.487 0.133931 0.6626 0
M  V30 8471 H 812.041 1.02138 1.78205 0
M  V30 8472 H 810.271 -0.499596 3.83459 0
M  V30 8473 H 811.96 -0.144295 4.05643 0
M  V30 8474 H 812.726 2.33135 4.25292 0
M  V30 8475 H 808.605 1.12464 4.47071 0
M  V30 8476 H 812.149 4.45898 5.36489 0
M  V30 8477 H 808.046 3.24339 5.58099 0
M  V30 8478 H 808.814 5.1749 6.3415 0
M  V30 8479 N 811.477 -1.49425 0.500989 0
M  V30 8480 C 812.724 -2.02453 -0.0435355 0
M  V30 8481 C 813.052 -1.38067 -1.36995 0
M  V30 8482 O 812.307 -0.505557 -1.89057 0
M  V30 8483 C 812.606 -3.56562 -0.24463 0
M  V30 8484 C 812.272 -4.39585 1.00379 0
M  V30 8485 C 810.934 -4.61992 1.346 0
M  V30 8486 C 813.286 -4.87881 1.83361 0
M  V30 8487 C 810.614 -5.2994 2.51755 0
M  V30 8488 C 812.966 -5.57119 2.99669 0
M  V30 8489 C 811.63 -5.77771 3.3427 0
M  V30 8490 H 810.9 -0.740829 -0.0159308 0
M  V30 8491 H 813.547 -1.79725 0.661143 0
M  V30 8492 H 811.852 -3.77969 -1.03183 0
M  V30 8493 H 813.549 -3.95185 -0.6804 0
M  V30 8494 H 810.139 -4.22385 0.727225 0
M  V30 8495 H 814.323 -4.70398 1.58237 0
M  V30 8496 H 809.579 -5.44133 2.788 0
M  V30 8497 H 813.753 -5.93516 3.64296 0
M  V30 8498 H 811.38 -6.30197 4.25154 0
M  V30 8499 N 812.955 -0.234822 -1.55841 0
M  V30 8500 C 814.18 0.400741 -2.03492 0
M  V30 8501 C 814.605 1.51618 -1.11327 0
M  V30 8502 O 813.963 1.81002 -0.103922 0
M  V30 8503 C 814.011 0.897184 -3.49261 0
M  V30 8504 O 813.115 2.00764 -3.60233 0
M  V30 8505 H 812.456 0.0890023 -0.658008 0
M  V30 8506 H 814.986 -0.357345 -2.01455 0
M  V30 8507 H 814.996 1.20356 -3.89844 0
M  V30 8508 H 813.671 0.0808639 -4.15821 0
M  V30 8509 H 812.248 1.70689 -3.31541 0
M  V30 8510 N 814.433 1.57553 0.0384317 0
M  V30 8511 C 815.844 1.77258 0.586211 0
M  V30 8512 C 816.195 0.864706 1.76117 0
M  V30 8513 O 815.32 0.057141 2.16325 0
M  V30 8514 C 815.915 3.21453 1.07021 0
M  V30 8515 C 814.474 3.42387 1.56358 0
M  V30 8516 C 813.621 2.72801 0.497508 0
M  V30 8517 H 816.572 1.57585 -0.187796 0
M  V30 8518 H 816.593 3.27451 1.93794 0
M  V30 8519 H 816.105 3.87505 0.214851 0
M  V30 8520 H 814.206 2.81497 2.44111 0
M  V30 8521 H 814.319 4.50968 1.61754 0
M  V30 8522 H 812.683 2.36305 0.95038 0
M  V30 8523 H 813.466 3.41529 -0.348234 0
M  V30 8524 N 815.911 -0.310526 1.54511 0
M  V30 8525 C 816.821 -1.4054 1.87844 0
M  V30 8526 C 817.837 -1.55954 0.771635 0
M  V30 8527 O 819.013 -1.70801 1.06719 0
M  V30 8528 C 816.078 -2.75063 2.11048 0
M  V30 8529 C 815.139 -2.68715 3.348 0
M  V30 8530 C 814.372 -3.96821 3.56887 0
M  V30 8531 O 814.595 -4.95721 2.82165 0
M  V30 8532 O 813.529 -3.99291 4.50389 0
M  V30 8533 H 817.355 -1.15275 2.80972 0
M  V30 8534 H 814.94 -0.505732 1.4058 0
M  V30 8535 H 816.822 -3.54671 2.27566 0
M  V30 8536 H 815.497 -3.00191 1.21108 0
M  V30 8537 H 814.404 -1.87611 3.23655 0
M  V30 8538 H 815.737 -2.4854 4.2484 0
M  V30 8539 N 817.389 -1.46805 -0.573248 0
M  V30 8540 C 818.805 -1.31969 -0.897577 0
M  V30 8541 C 819.005 -0.298171 -1.99282 0
M  V30 8542 O 818.061 0.295953 -2.5076 0
M  V30 8543 C 819.374 -2.70859 -1.30598 0
M  V30 8544 C 820.922 -2.79022 -1.4183 0
M  V30 8545 C 821.397 -4.18516 -1.86033 0
M  V30 8546 N 822.888 -4.2098 -1.9321 0
M  V30 8547 C 823.623 -5.25814 -2.28707 0
M  V30 8548 N 823.119 -6.40968 -2.6293 0
M  V30 8549 N 824.912 -5.13184 -2.29343 0
M  V30 8550 H 817.063 -2.11869 0.150094 0
M  V30 8551 H 819.326 -0.947989 0.00447895 0
M  V30 8552 H 819.032 -3.46965 -0.575161 0
M  V30 8553 H 818.906 -3.01585 -2.26554 0
M  V30 8554 H 821.293 -2.03198 -2.13996 0
M  V30 8555 H 821.374 -2.51969 -0.441024 0
M  V30 8556 H 821.018 -4.94839 -1.14442 0
M  V30 8557 H 820.948 -4.42982 -2.84735 0
M  V30 8558 H 823.439 -3.37898 -1.69214 0
M  V30 8559 H 823.752 -7.16729 -2.88996 0
M  V30 8560 H 822.097 -6.44314 -2.60547 0
M  V30 8561 H 825.288 -4.22255 -2.02036 0
M  V30 8562 H 825.461 -5.94996 -2.56679 0
M  V30 8563 N 818.867 0.818669 -1.34668 0
M  V30 8564 C 820.278 1.39177 -1.24446 0
M  V30 8565 C 820.629 1.9578 0.128268 0
M  V30 8566 O 819.754 1.90382 1.02877 0
M  V30 8567 C 820.349 2.53012 -2.25323 0
M  V30 8568 C 818.908 3.06218 -2.18878 0
M  V30 8569 C 818.055 1.79112 -2.11694 0
M  V30 8570 H 821.006 0.622709 -1.45973 0
M  V30 8571 H 821.027 3.31226 -1.8727 0
M  V30 8572 H 820.539 2.11784 -3.25221 0
M  V30 8573 H 818.64 3.51939 -1.22351 0
M  V30 8574 H 818.753 3.65019 -3.10319 0
M  V30 8575 H 817.117 2.0018 -1.57481 0
M  V30 8576 H 817.9 1.40053 -3.13433 0
M  V30 8577 N 820.346 1.18468 1.03938 0
M  V30 8578 C 821.276 0.936389 2.13902 0
M  V30 8579 C 822.257 -0.126381 1.6963 0
M  V30 8580 O 823.442 0.0264757 1.94182 0
M  V30 8581 C 820.572 0.462729 3.44204 0
M  V30 8582 C 819.526 1.46613 4.02105 0
M  V30 8583 C 818.852 0.84994 5.27902 0
M  V30 8584 C 820.152 2.84323 4.3813 0
M  V30 8585 H 821.846 1.85602 2.3493 0
M  V30 8586 H 819.392 0.893806 1.12903 0
M  V30 8587 H 821.345 0.276382 4.20493 0
M  V30 8588 H 820.069 -0.492477 3.22866 0
M  V30 8589 H 818.728 1.63944 3.27899 0
M  V30 8590 H 818.376 -0.112493 5.02874 0
M  V30 8591 H 818.076 1.51988 5.67603 0
M  V30 8592 H 819.6 0.674152 6.06867 0
M  V30 8593 H 821.014 2.70636 5.054 0
M  V30 8594 H 819.411 3.48012 4.88884 0
M  V30 8595 H 820.481 3.37776 3.47901 0
M  V30 8596 N 821.824 -1.22873 0.986916 0
M  V30 8597 C 822.774 -2.2237 0.503547 0
M  V30 8598 C 823.758 -1.55186 -0.424998 0
M  V30 8599 O 824.95 -1.75186 -0.252791 0
M  V30 8600 C 822.079 -3.42794 -0.186355 0
M  V30 8601 C 821.165 -4.17196 0.762143 0
M  V30 8602 N 821.556 -4.68453 1.9075 0
M  V30 8603 C 819.854 -4.42255 0.576797 0
M  V30 8604 C 820.555 -5.25126 2.50235 0
M  V30 8605 N 819.531 -5.13437 1.7856 0
M  V30 8606 H 823.333 -2.59636 1.37718 0
M  V30 8607 H 820.847 -1.38476 0.848415 0
M  V30 8608 H 822.844 -4.13256 -0.549993 0
M  V30 8609 H 821.504 -3.07042 -1.05619 0
M  V30 8610 H 822.515 -4.64595 2.28848 0
M  V30 8611 H 819.192 -4.16766 -0.247474 0
M  V30 8612 H 820.582 -5.75363 3.46997 0
M  V30 8613 N 823.302 -0.75937 -1.38099 0
M  V30 8614 C 824.232 -0.151077 -2.33011 0
M  V30 8615 C 825.213 0.697099 -1.5516 0
M  V30 8616 O 826.398 0.637101 -1.83452 0
M  V30 8617 C 823.528 0.738423 -3.39359 0
M  V30 8618 C 822.482 -0.0074741 -4.27999 0
M  V30 8619 C 821.808 1.00066 -5.25253 0
M  V30 8620 C 823.108 -1.17926 -5.08813 0
M  V30 8621 H 824.802 -0.943933 -2.84131 0
M  V30 8622 H 822.348 -0.455362 -1.36611 0
M  V30 8623 H 824.301 1.17369 -4.04725 0
M  V30 8624 H 823.025 1.56366 -2.86735 0
M  V30 8625 H 821.684 -0.423379 -3.64147 0
M  V30 8626 H 821.332 1.82012 -4.68914 0
M  V30 8627 H 821.032 0.506199 -5.85416 0
M  V30 8628 H 822.556 1.43512 -5.93495 0
M  V30 8629 H 823.97 -0.821262 -5.67387 0
M  V30 8630 H 822.367 -1.60497 -5.78239 0
M  V30 8631 H 823.437 -1.98938 -4.42212 0
M  V30 8632 N 824.78 1.49157 -0.508906 0
M  V30 8633 C 826.005 2.07376 0.0315182 0
M  V30 8634 C 826.43 1.36575 1.2934 0
M  V30 8635 O 825.788 0.424963 1.76249 0
M  V30 8636 C 825.836 3.59661 0.260118 0
M  V30 8637 O 824.94 3.90255 1.33322 0
M  V30 8638 H 824.281 0.663334 -0.029739 0
M  V30 8639 H 826.811 1.91857 -0.710791 0
M  V30 8640 H 826.821 4.05056 0.489225 0
M  V30 8641 H 825.496 4.10601 -0.661794 0
M  V30 8642 H 824.073 3.56661 1.08844 0
M  V30 8643 N 826.258 0.243083 1.55714 0
M  V30 8644 C 827.505 -0.38272 1.9885 0
M  V30 8645 C 827.833 -1.58225 1.13115 0
M  V30 8646 O 827.088 -1.94861 0.181067 0
M  V30 8647 C 827.387 -0.839621 3.47398 0
M  V30 8648 C 827.053 0.251737 4.50197 0
M  V30 8649 C 825.715 0.551487 4.78029 0
M  V30 8650 C 828.067 0.988728 5.11736 0
M  V30 8651 C 825.395 1.59237 5.64677 0
M  V30 8652 C 827.747 2.0191 5.99512 0
M  V30 8653 C 826.411 2.32554 6.2568 0
M  V30 8654 H 825.681 -0.140047 0.727645 0
M  V30 8655 H 828.328 0.35011 1.88272 0
M  V30 8656 H 826.633 -1.65159 3.55288 0
M  V30 8657 H 828.33 -1.33404 3.78159 0
M  V30 8658 H 824.92 0.00796741 4.28599 0
M  V30 8659 H 829.104 0.7704 4.90284 0
M  V30 8660 H 824.36 1.83517 5.83208 0
M  V30 8661 H 828.534 2.59511 6.46241 0
M  V30 8662 H 826.161 3.13349 6.92616 0
M  V30 8663 N 827.736 -1.57571 -0.0300757 0
M  V30 8664 C 828.964 -1.93485 -0.732891 0
M  V30 8665 C 829.379 -0.842758 -1.68947 0
M  V30 8666 O 828.736 0.180904 -1.81601 0
M  V30 8667 C 828.787 -3.29328 -1.49082 0
M  V30 8668 O 828.508 -4.34341 -0.572639 0
M  V30 8669 C 830.009 -3.79517 -2.29088 0
M  V30 8670 H 827.229 -0.638588 -0.206026 0
M  V30 8671 H 829.773 -2.04496 0.0120966 0
M  V30 8672 H 827.928 -3.19716 -2.1877 0
M  V30 8673 H 828.342 -5.12748 -1.10406 0
M  V30 8674 H 829.816 -4.77081 -2.77665 0
M  V30 8675 H 830.293 -3.10659 -3.10464 0
M  V30 8676 H 830.899 -3.92208 -1.64477 0
M  V30 8677 N 829.214 0.302327 -1.54673 0
M  V30 8678 C 830.164 1.37443 -1.81916 0
M  V30 8679 C 831.148 1.45999 -0.676251 0
M  V30 8680 O 832.34 1.50174 -0.93685 0
M  V30 8681 C 829.469 2.73966 -2.06876 0
M  V30 8682 C 828.555 2.69637 -3.27348 0
M  V30 8683 N 828.946 2.34926 -4.47933 0
M  V30 8684 C 827.244 3.00742 -3.29348 0
M  V30 8685 C 827.945 2.39862 -5.29944 0
M  V30 8686 N 826.921 2.77163 -4.67634 0
M  V30 8687 H 830.723 1.09567 -2.72713 0
M  V30 8688 H 828.237 0.5109 -1.54154 0
M  V30 8689 H 830.234 3.51265 -2.2454 0
M  V30 8690 H 828.894 3.02754 -1.17346 0
M  V30 8691 H 829.905 2.07403 -4.74557 0
M  V30 8692 H 826.582 3.34434 -2.49921 0
M  V30 8693 H 827.972 2.15835 -6.3629 0
M  V30 8694 N 830.692 1.47107 0.565454 0
M  V30 8695 C 831.622 1.61846 1.68309 0
M  V30 8696 C 832.603 0.468159 1.63531 0
M  V30 8697 O 833.788 0.696504 1.8128 0
M  V30 8698 C 830.918 1.62474 3.06952 0
M  V30 8699 C 829.872 2.76649 3.26572 0
M  V30 8700 C 829.198 2.62345 4.65917 0
M  V30 8701 C 830.498 4.18319 3.12741 0
M  V30 8702 H 832.192 2.55407 1.5623 0
M  V30 8703 H 829.738 1.22916 0.750179 0
M  V30 8704 H 831.691 1.71378 3.84977 0
M  V30 8705 H 830.415 0.654692 3.19971 0
M  V30 8706 H 829.074 2.67242 2.50952 0
M  V30 8707 H 828.722 1.63386 4.75725 0
M  V30 8708 H 828.422 3.38936 4.79996 0
M  V30 8709 H 829.946 2.73165 5.46089 0
M  V30 8710 H 831.36 4.28745 3.80593 0
M  V30 8711 H 829.757 4.95632 3.38333 0
M  V30 8712 H 830.827 4.37263 2.09592 0
M  V30 8713 N 832.17 -0.811516 1.35101 0
M  V30 8714 C 833.416 -1.57068 1.28287 0
M  V30 8715 C 833.749 -1.93667 -0.143808 0
M  V30 8716 O 833.024 -1.60953 -1.09199 0
M  V30 8717 C 833.307 -2.86259 2.18466 0
M  V30 8718 C 833.16 -2.56168 3.69727 0
M  V30 8719 C 834.479 -3.87924 2.07852 0
M  V30 8720 H 831.598 -0.569869 0.467353 0
M  V30 8721 H 834.24 -0.934023 1.65457 0
M  V30 8722 H 832.39 -3.4059 1.86898 0
M  V30 8723 H 834.062 -2.08059 4.11715 0
M  V30 8724 H 832.305 -1.89436 3.90252 0
M  V30 8725 H 832.976 -3.48344 4.28206 0
M  V30 8726 H 835.452 -3.4298 2.35593 0
M  V30 8727 H 834.328 -4.76106 2.73157 0
M  V30 8728 H 834.589 -4.2923 1.05896 0
M  V30 8729 N 833.648 -1.19017 -1.03309 0
M  V30 8730 C 834.888 -1.00129 -1.78195 0
M  V30 8731 C 835.252 0.460236 -1.86402 0
M  V30 8732 O 836.453 0.768802 -2.57571 0
M  V30 8733 C 834.724 -1.64703 -3.17187 0
M  V30 8734 S 836.283 -1.60695 -4.08317 0
M  V30 8735 H 833.101 -0.359395 -0.613479 0
M  V30 8736 H 835.703 -1.51293 -1.23818 0
M  V30 8737 H 834.407 -2.70283 -3.08829 0
M  V30 8738 H 833.938 -1.136 -3.76641 0
M  V30 8739 H 835.953 -0.628171 -4.92208 0
M  V30 8740 N 835.127 1.22348 -0.993418 0
M  V30 8741 C 836.543 1.43222 -0.704238 0
M  V30 8742 C 836.743 1.88009 0.724909 0
M  V30 8743 O 835.799 2.03429 1.49575 0
M  V30 8744 C 837.112 2.47328 -1.71025 0
M  V30 8745 C 838.66 2.61126 -1.72576 0
M  V30 8746 C 839.135 3.68453 -2.72041 0
M  V30 8747 N 840.626 3.75911 -2.70639 0
M  V30 8748 C 841.361 4.58551 -3.44266 0
M  V30 8749 N 840.857 5.45179 -4.27495 0
M  V30 8750 N 842.65 4.52866 -3.32969 0
M  V30 8751 H 834.801 0.915832 -1.91641 0
M  V30 8752 H 837.064 0.464283 -0.826526 0
M  V30 8753 H 836.77 2.21366 -2.73295 0
M  V30 8754 H 836.644 3.45939 -1.50353 0
M  V30 8755 H 839.031 2.86431 -0.710037 0
M  V30 8756 H 839.112 1.62787 -1.97317 0
M  V30 8757 H 838.756 3.43895 -3.73763 0
M  V30 8758 H 838.686 4.66362 -2.4457 0
M  V30 8759 H 841.177 3.14014 -2.10247 0
M  V30 8760 H 841.49 6.0526 -4.80499 0
M  V30 8761 H 839.835 5.44759 -4.31582 0
M  V30 8762 H 843.026 3.84215 -2.67389 0
M  V30 8763 H 843.199 5.17039 -3.90608 0
M  V30 8764 N 836.605 0.766683 1.37694 0
M  V30 8765 C 837.83 0.338715 2.04615 0
M  V30 8766 C 838.255 -1.02918 1.57447 0
M  V30 8767 O 837.613 -1.65849 0.732386 0
M  V30 8768 C 837.661 0.385284 3.58536 0
M  V30 8769 O 836.765 -0.616081 4.07772 0
M  V30 8770 H 836.106 0.147527 0.647404 0
M  V30 8771 H 838.636 1.04146 1.7611 0
M  V30 8772 H 838.646 0.240782 4.07289 0
M  V30 8773 H 837.321 1.38325 3.92223 0
M  V30 8774 H 835.898 -0.435115 3.70353 0
M  V30 8775 N 838.083 -1.48885 0.516809 0
M  V30 8776 C 839.046 -2.27916 -0.242256 0
M  V30 8777 C 840.046 -1.34601 -0.879735 0
M  V30 8778 O 841.236 -1.57616 -0.74182 0
M  V30 8779 C 838.368 -3.13067 -1.34914 0
M  V30 8780 H 839.561 -2.96483 0.451444 0
M  V30 8781 H 837.114 -1.5391 0.272294 0
M  V30 8782 H 837.849 -2.49102 -2.07651 0
M  V30 8783 H 837.634 -3.81695 -0.897313 0
M  V30 8784 H 839.124 -3.72716 -1.88341 0
M  V30 8785 N 839.561 -0.251338 -1.55583 0
M  V30 8786 C 840.81 0.372681 -1.98227 0
M  V30 8787 C 841.123 1.58743 -1.1428 0
M  V30 8788 O 842.329 2.28289 -1.46957 0
M  V30 8789 C 840.785 0.714439 -3.52738 0
M  V30 8790 C 840.393 -0.479168 -4.4543 0
M  V30 8791 C 842.137 1.3024 -4.04027 0
M  V30 8792 C 840.044 -0.113318 -5.91291 0
M  V30 8793 H 838.974 0.14302 -0.740312 0
M  V30 8794 H 841.625 -0.352253 -1.80087 0
M  V30 8795 H 840.007 1.49762 -3.66589 0
M  V30 8796 H 841.181 -1.25644 -4.4334 0
M  V30 8797 H 839.496 -0.982359 -4.04646 0
M  V30 8798 H 842.093 1.58953 -5.10527 0
M  V30 8799 H 842.436 2.22837 -3.51638 0
M  V30 8800 H 842.969 0.582024 -3.93519 0
M  V30 8801 H 839.708 -1.00654 -6.47726 0
M  V30 8802 H 839.228 0.627666 -5.96507 0
M  V30 8803 H 840.907 0.30293 -6.4629 0
M  V30 8804 N 841.039 1.57585 0.0217189 0
M  V30 8805 C 841.949 2.10444 1.03684 0
M  V30 8806 C 842.965 1.04472 1.39146 0
M  V30 8807 O 844.141 1.36249 1.48317 0
M  V30 8808 C 841.206 2.5794 2.31664 0
M  V30 8809 C 840.267 3.78425 2.02714 0
M  V30 8810 C 839.5 4.23646 3.24592 0
M  V30 8811 O 839.723 3.6834 4.35525 0
M  V30 8812 O 838.657 5.16013 3.09862 0
M  V30 8813 H 842.483 2.97354 0.617584 0
M  V30 8814 H 840.068 1.47473 0.239174 0
M  V30 8815 H 841.95 2.88785 3.06889 0
M  V30 8816 H 840.625 1.74138 2.7287 0
M  V30 8817 H 839.532 3.52587 1.25033 0
M  V30 8818 H 840.865 4.63234 1.66359 0
M  V30 8819 N 842.517 -0.29412 1.54831 0
M  V30 8820 C 843.765 -1.02643 1.74094 0
M  V30 8821 C 844.086 -1.87563 0.533402 0
M  V30 8822 O 843.356 -1.9061 -0.452192 0
M  V30 8823 H 841.936 -0.381959 0.641963 0
M  V30 8824 H 844.598 -0.323444 1.92197 0
M  V30 8825 H 843.694 -1.67558 2.63307 0
M  V30 8826 N 843.995 -1.47404 -0.557645 0
M  V30 8827 C 844.905 -1.62491 -1.69216 0
M  V30 8828 C 845.921 -0.507764 -1.66426 0
M  V30 8829 O 847.097 -0.775241 -1.85882 0
M  V30 8830 C 844.162 -1.63511 -3.05721 0
M  V30 8831 C 843.223 -2.86648 -3.1958 0
M  V30 8832 C 842.456 -2.87609 -4.49574 0
M  V30 8833 O 842.679 -1.97799 -5.35006 0
M  V30 8834 O 841.613 -3.79465 -4.67215 0
M  V30 8835 H 845.439 -2.58487 -1.59431 0
M  V30 8836 H 843.024 -1.30485 -0.7276 0
M  V30 8837 H 844.906 -1.66863 -3.86956 0
M  V30 8838 H 843.581 -0.706812 -3.15889 0
M  V30 8839 H 842.488 -2.8884 -2.37744 0
M  V30 8840 H 843.821 -3.7877 -3.14316 0
M  V30 8841 N 845.473 0.80434 -1.35529 0
M  V30 8842 C 846.405 1.92445 -1.2449 0
M  V30 8843 C 847.418 1.61934 -0.167685 0
M  V30 8844 O 848.607 1.73461 -0.42115 0
M  V30 8845 C 845.707 3.26875 -0.894751 0
M  V30 8846 C 844.88 3.85275 -2.07079 0
M  V30 8847 C 843.939 4.98116 -1.69607 0
M  V30 8848 O 842.965 5.15424 -2.41509 0
M  V30 8849 N 844.167 5.77169 -0.621012 0
M  V30 8850 H 846.932 2.02441 -2.20993 0
M  V30 8851 H 844.493 0.981874 -1.28728 0
M  V30 8852 H 846.485 3.99837 -0.625511 0
M  V30 8853 H 845.055 3.12594 -0.0193306 0
M  V30 8854 H 844.275 3.0448 -2.5037 0
M  V30 8855 H 845.563 4.21024 -2.85685 0
M  V30 8856 H 844.961 5.65695 -0.0236679 0
M  V30 8857 H 843.518 6.50499 -0.411558 0
M  V30 8858 N 846.951 1.19563 1.02676 0
M  V30 8859 C 847.861 0.950691 2.14474 0
M  V30 8860 C 848.877 -0.0900219 1.73767 0
M  V30 8861 O 850.053 0.0951063 2.01175 0
M  V30 8862 C 847.118 0.494917 3.43149 0
M  V30 8863 C 846.179 1.60527 3.98158 0
M  V30 8864 C 845.412 1.17115 5.20692 0
M  V30 8865 O 845.635 0.0355937 5.70389 0
M  V30 8866 O 844.569 1.97454 5.68591 0
M  V30 8867 H 848.395 1.88651 2.38001 0
M  V30 8868 H 845.98 0.978635 1.12885 0
M  V30 8869 H 847.862 0.249492 4.20661 0
M  V30 8870 H 846.537 -0.412434 3.21062 0
M  V30 8871 H 845.444 1.90487 3.21971 0
M  V30 8872 H 846.777 2.48925 4.24614 0
M  V30 8873 N 848.429 -1.21819 0.999893 0
M  V30 8874 C 849.361 -2.23356 0.514256 0
M  V30 8875 C 850.374 -1.5795 -0.394413 0
M  V30 8876 O 851.563 -1.77427 -0.195428 0
M  V30 8877 C 848.663 -3.37797 -0.273207 0
M  V30 8878 C 847.836 -4.32791 0.633293 0
M  V30 8879 C 846.895 -5.26098 -0.103673 0
M  V30 8880 O 845.921 -5.66881 0.513269 0
M  V30 8881 N 847.123 -5.63764 -1.38383 0
M  V30 8882 H 849.888 -2.65653 1.3874 0
M  V30 8883 H 847.449 -1.3619 0.875431 0
M  V30 8884 H 849.441 -3.97209 -0.775053 0
M  V30 8885 H 848.011 -2.94527 -1.0475 0
M  V30 8886 H 847.231 -3.71595 1.31571 0
M  V30 8887 H 848.519 -4.93196 1.25039 0
M  V30 8888 H 847.917 -5.32614 -1.90627 0
M  V30 8889 H 846.474 -6.25562 -1.83073 0
M  V30 8890 N 849.908 -0.773975 -1.37286 0
M  V30 8891 C 851.324 -0.45386 -1.53011 0
M  V30 8892 C 851.524 1.03018 -1.73175 0
M  V30 8893 O 850.58 1.81597 -1.75438 0
M  V30 8894 C 851.893 -1.27087 -2.72524 0
M  V30 8895 C 853.441 -1.26299 -2.86387 0
M  V30 8896 C 853.916 -2.0634 -4.08886 0
M  V30 8897 N 855.407 -2.03706 -4.16003 0
M  V30 8898 C 856.142 -2.62418 -5.09828 0
M  V30 8899 N 855.638 -3.29926 -6.09197 0
M  V30 8900 N 857.431 -2.52236 -5.02328 0
M  V30 8901 H 849.582 -1.73551 -1.22449 0
M  V30 8902 H 851.845 -0.736874 -0.596423 0
M  V30 8903 H 851.551 -2.32263 -2.64096 0
M  V30 8904 H 851.425 -0.90157 -3.66267 0
M  V30 8905 H 853.812 -0.219213 -2.94285 0
M  V30 8906 H 853.893 -1.67195 -1.93596 0
M  V30 8907 H 853.537 -3.10741 -4.01749 0
M  V30 8908 H 853.467 -1.62825 -5.00795 0
M  V30 8909 H 855.958 -1.54559 -3.44848 0
M  V30 8910 H 856.271 -3.72095 -6.77322 0
M  V30 8911 H 854.616 -3.34026 -6.09469 0
M  V30 8912 H 857.807 -1.99108 -4.23643 0
M  V30 8913 H 857.98 -2.98286 -5.75265 0
M  V30 8914 N 851.386 1.48609 -0.524698 0
M  V30 8915 C 852.319 2.26374 0.288109 0
M  V30 8916 C 853.297 1.31997 0.949509 0
M  V30 8917 O 854.481 1.61329 0.974946 0
M  V30 8918 C 851.608 3.08065 1.4076 0
M  V30 8919 C 850.654 4.17777 0.858152 0
M  V30 8920 S 851.487 5.3482 -0.269827 0
M  V30 8921 C 852.643 6.2007 0.852266 0
M  V30 8922 H 852.876 2.94965 -0.371865 0
M  V30 8923 H 850.409 1.51248 -0.31039 0
M  V30 8924 H 852.367 3.5571 2.04892 0
M  V30 8925 H 851.028 2.38898 2.03928 0
M  V30 8926 H 850.221 4.74542 1.69783 0
M  V30 8927 H 849.823 3.72846 0.293627 0
M  V30 8928 H 852.115 6.54451 1.75213 0
M  V30 8929 H 853.058 7.07364 0.322717 0
M  V30 8930 H 853.466 5.53068 1.13029 0
M  V30 8931 N 852.864 0.259585 1.55447 0
M  V30 8932 C 854.141 -0.412595 1.91199 0
M  V30 8933 C 854.521 -1.74909 1.18194 0
M  V30 8934 O 853.869 -2.26474 0.303603 0
M  V30 8935 C 854.079 -0.568195 3.44344 0
M  V30 8936 C 855.427 -0.858253 4.15836 0
M  V30 8937 O 856.451 -0.653588 3.50152 0
M  V30 8938 O 855.31 -1.24874 5.32042 0
M  V30 8939 H 852.404 -0.223403 0.796254 0
M  V30 8940 H 854.95 0.30459 1.66944 0
M  V30 8941 H 853.722 0.372989 3.89518 0
M  V30 8942 H 853.345 -1.33544 3.74502 0
M  V30 8943 N 854.342 -1.57594 -0.0133615 0
M  V30 8944 C 855.272 -2.10611 -1.00823 0
M  V30 8945 C 856.253 -1.01217 -1.36708 0
M  V30 8946 O 857.438 -1.28827 -1.45318 0
M  V30 8947 C 854.568 -2.59844 -2.30431 0
M  V30 8948 C 853.522 -3.73644 -2.08745 0
M  V30 8949 C 852.848 -4.09141 -3.4425 0
M  V30 8950 C 854.148 -5.01454 -1.46086 0
M  V30 8951 H 855.842 -2.93985 -0.566849 0
M  V30 8952 H 853.388 -1.41423 -0.271219 0
M  V30 8953 H 855.341 -2.95557 -3.00373 0
M  V30 8954 H 854.065 -1.73573 -2.76658 0
M  V30 8955 H 852.724 -3.38303 -1.41232 0
M  V30 8956 H 852.372 -3.19914 -3.88155 0
M  V30 8957 H 852.072 -4.85802 -3.3056 0
M  V30 8958 H 853.596 -4.47402 -4.15528 0
M  V30 8959 H 855.01 -5.35024 -2.05966 0
M  V30 8960 H 853.407 -5.82832 -1.42924 0
M  V30 8961 H 854.477 -4.83003 -0.428471 0
M  V30 8962 N 855.82 0.285905 -1.54985 0
M  V30 8963 C 857.045 1.04207 -1.7932 0
M  V30 8964 C 857.47 1.79622 -0.558343 0
M  V30 8965 O 856.828 1.74506 0.491661 0
M  V30 8966 C 856.876 1.98648 -3.0095 0
M  V30 8967 O 855.98 3.07207 -2.75132 0
M  V30 8968 H 855.321 0.298596 -0.593074 0
M  V30 8969 H 857.851 0.318736 -2.02102 0
M  V30 8970 H 857.861 2.4084 -3.29333 0
M  V30 8971 H 856.536 1.43167 -3.90482 0
M  V30 8972 H 855.113 2.69423 -2.57809 0
M  V30 8973 N 857.298 1.47698 0.54982 0
M  V30 8974 C 858.248 1.57145 1.65195 0
M  V30 8975 C 859.232 0.429839 1.55052 0
M  V30 8976 O 860.424 0.68018 1.63409 0
M  V30 8977 C 857.553 1.59573 3.0396 0
M  V30 8978 C 856.639 2.79144 3.19279 0
M  V30 8979 N 857.03 4.03769 3.04638 0
M  V30 8980 C 855.328 2.76061 3.50295 0
M  V30 8981 C 856.029 4.83887 3.22845 0
M  V30 8982 N 855.005 4.1634 3.49517 0
M  V30 8983 H 858.807 2.51266 1.52455 0
M  V30 8984 H 856.321 1.43795 0.754773 0
M  V30 8985 H 858.318 1.64431 3.83103 0
M  V30 8986 H 856.978 0.66553 3.17806 0
M  V30 8987 H 857.989 4.34515 2.81811 0
M  V30 8988 H 854.666 1.92211 3.70622 0
M  V30 8989 H 856.056 5.92724 3.1643 0
M  V30 8990 N 858.776 -0.797141 1.35954 0
M  V30 8991 C 860.187 -1.37179 1.26644 0
M  V30 8992 C 860.538 -1.9596 -0.0971046 0
M  V30 8993 O 859.663 -1.91994 -0.998355 0
M  V30 8994 C 860.258 -2.49395 2.2932 0
M  V30 8995 C 858.817 -3.02697 2.23722 0
M  V30 8996 C 857.964 -1.75721 2.14517 0
M  V30 8997 H 860.915 -0.599407 1.46945 0
M  V30 8998 H 860.936 -3.28204 1.92515 0
M  V30 8999 H 860.448 -2.06584 3.2855 0
M  V30 9000 H 858.549 -3.49948 1.27934 0
M  V30 9001 H 858.662 -3.60036 3.16087 0
M  V30 9002 H 857.026 -1.97649 1.60646 0
M  V30 9003 H 857.809 -1.35049 3.15621 0
M  V30 9004 N 860.254 -1.20106 -1.0204 0
M  V30 9005 C 861.5 -1.01039 -1.75838 0
M  V30 9006 C 861.833 0.456819 -1.88751 0
M  V30 9007 O 861.108 1.33919 -1.41053 0
M  V30 9008 C 861.391 -1.69009 -3.17975 0
M  V30 9009 C 861.244 -3.2315 -3.1288 0
M  V30 9010 C 862.563 -1.42005 -4.16561 0
M  V30 9011 H 859.682 -0.368465 -0.638281 0
M  V30 9012 H 862.324 -1.48066 -1.19064 0
M  V30 9013 H 860.474 -1.29026 -3.66449 0
M  V30 9014 H 862.146 -3.72402 -2.72239 0
M  V30 9015 H 860.389 -3.54253 -2.50374 0
M  V30 9016 H 861.06 -3.65862 -4.13339 0
M  V30 9017 H 863.536 -1.76685 -3.76725 0
M  V30 9018 H 862.412 -1.92101 -5.14187 0
M  V30 9019 H 862.673 -0.346884 -4.40737 0
M  V30 9020 N 861.732 1.21287 -1.00634 0
M  V30 9021 C 862.682 2.21541 -0.53886 0
M  V30 9022 C 863.666 1.55842 0.400256 0
M  V30 9023 O 864.858 1.75566 0.224889 0
M  V30 9024 C 861.987 3.43047 0.131796 0
M  V30 9025 C 861.073 4.1593 -0.828419 0
M  V30 9026 N 861.464 4.65359 -1.98178 0
M  V30 9027 C 859.762 4.41281 -0.647083 0
M  V30 9028 C 860.463 5.21079 -2.58557 0
M  V30 9029 N 859.439 5.10531 -1.86705 0
M  V30 9030 H 863.241 2.57413 -1.41831 0
M  V30 9031 H 860.755 1.37109 -0.870338 0
M  V30 9032 H 862.752 4.14079 0.484178 0
M  V30 9033 H 861.412 3.08683 1.00721 0
M  V30 9034 H 862.423 4.60896 -2.3621 0
M  V30 9035 H 859.1 4.17107 0.181139 0
M  V30 9036 H 860.49 5.6977 -3.56107 0
M  V30 9037 N 863.21 0.781244 1.36873 0
M  V30 9038 C 864.173 0.180094 2.28491 0
M  V30 9039 C 865.173 -0.617798 1.48458 0
M  V30 9040 O 866.363 -0.439991 1.68552 0
M  V30 9041 C 863.495 -0.751741 3.32508 0
M  V30 9042 H 864.688 0.987837 2.83164 0
M  V30 9043 H 862.241 0.550102 1.463 0
M  V30 9044 H 862.976 -1.58413 2.82977 0
M  V30 9045 H 862.761 -0.181649 3.91679 0
M  V30 9046 H 864.251 -1.16748 4.00949 0
M  V30 9047 N 864.689 -1.48329 0.532571 0
M  V30 9048 C 865.966 -1.95492 -0.0650985 0
M  V30 9049 C 866.346 -1.47485 -1.51034 0
M  V30 9050 O 865.694 -0.702516 -2.17433 0
M  V30 9051 C 865.904 -3.48957 0.0548341 0
M  V30 9052 C 867.252 -4.24475 -0.103115 0
M  V30 9053 O 868.276 -3.56195 -0.0188343 0
M  V30 9054 O 867.135 -5.45781 -0.280164 0
M  V30 9055 H 864.229 -0.823327 -0.0778603 0
M  V30 9056 H 866.775 -1.58839 0.597353 0
M  V30 9057 H 865.547 -3.76628 1.06148 0
M  V30 9058 H 865.17 -3.92311 -0.64635 0
M  V30 9059 N 866.167 -0.267825 -1.55308 0
M  V30 9060 C 867.115 0.638848 -2.23655 0
M  V30 9061 C 868.109 1.16363 -1.2311 0
M  V30 9062 O 869.315 1.1181 -1.41062 0
M  V30 9063 H 865.69 0.224551 -0.717691 0
M  V30 9064 H 867.661 0.0394809 -2.98374 0
M  V30 9065 C 866.41 1.8151 -2.96562 0
M  V30 9066 H 865.733 1.42048 -3.73715 0
M  V30 9067 H 867.173 2.42629 -3.47717 0
M  V30 9068 C 865.632 2.69911 -2.01618 0
M  V30 9069 O 866.162 3.70058 -1.56268 0
M  V30 9070 N 864.368 2.36924 -1.68272 0
M  V30 9071 H 863.915 1.55533 -2.05347 0
M  V30 9072 H 863.873 2.96343 -1.05016 0
M  V30 9073 N 867.645 1.57599 0.00500368 0
M  V30 9074 C 868.885 1.92205 0.695456 0
M  V30 9075 C 869.249 0.868894 1.71214 0
M  V30 9076 O 870.45 1.10004 2.4526 0
M  V30 9077 C 868.721 3.31882 1.32625 0
M  V30 9078 S 870.28 3.88364 2.04252 0
M  V30 9079 H 867.098 0.672826 0.22984 0
M  V30 9080 H 869.7 1.95435 -0.0504824 0
M  V30 9081 H 868.404 4.06375 0.573396 0
M  V30 9082 H 867.935 3.32013 2.11023 0
M  V30 9083 H 869.95 3.69035 3.31704 0
M  V30 9084 N 869.123 -0.277682 1.55134 0
M  V30 9085 C 870.369 -1.0114 1.7578 0
M  V30 9086 C 870.702 -1.86109 0.554719 0
M  V30 9087 O 869.977 -1.89275 -0.447813 0
M  V30 9088 C 870.26 -1.89789 3.06027 0
M  V30 9089 C 870.113 -1.07844 4.3668 0
M  V30 9090 C 871.432 -2.88577 3.32282 0
M  V30 9091 H 868.551 -0.366277 0.639539 0
M  V30 9092 H 871.193 -0.284155 1.87863 0
M  V30 9093 H 869.343 -2.51796 2.95856 0
M  V30 9094 H 871.015 -0.479432 4.58802 0
M  V30 9095 H 869.258 -0.381764 4.32117 0
M  V30 9096 H 869.929 -1.73179 5.24131 0
M  V30 9097 H 872.405 -2.36702 3.42215 0
M  V30 9098 H 871.281 -3.47749 4.2469 0
M  V30 9099 H 871.542 -3.63458 2.51696 0
M  V30 9100 N 870.601 -1.47988 -0.541979 0
M  V30 9101 C 871.531 -1.64503 -1.65713 0
M  V30 9102 C 872.512 -0.494116 -1.62765 0
M  V30 9103 O 873.697 -0.725256 -1.80149 0
M  V30 9104 C 870.827 -1.67337 -3.04328 0
M  V30 9105 C 869.781 -2.81809 -3.2213 0
M  V30 9106 C 869.107 -2.69724 -4.61685 0
M  V30 9107 C 870.407 -4.23241 -3.06046 0
M  V30 9108 H 872.101 -2.5786 -1.52147 0
M  V30 9109 H 869.647 -1.24094 -0.730529 0
M  V30 9110 H 871.6 -1.77481 -3.82202 0
M  V30 9111 H 870.324 -0.705514 -3.18889 0
M  V30 9112 H 868.983 -2.71201 -2.46669 0
M  V30 9113 H 868.631 -1.70934 -4.73065 0
M  V30 9114 H 868.331 -3.4653 -4.74543 0
M  V30 9115 H 869.855 -2.81818 -5.41674 0
M  V30 9116 H 871.269 -4.34746 -3.73723 0
M  V30 9117 H 869.666 -5.00952 -3.30405 0
M  V30 9118 H 870.736 -4.40543 -2.02609 0
M  V30 9119 N 872.079 0.78992 -1.36375 0
M  V30 9120 C 873.356 1.53584 -1.21126 0
M  V30 9121 C 873.736 2.10124 0.202785 0
M  V30 9122 O 873.084 1.93936 1.20835 0
M  V30 9123 C 873.294 2.63117 -2.29282 0
M  V30 9124 C 874.642 3.31013 -2.65924 0
M  V30 9125 O 875.666 2.734 -2.28321 0
M  V30 9126 O 874.525 4.35129 -3.30643 0
M  V30 9127 H 871.619 0.679366 -0.471583 0
M  V30 9128 H 874.165 0.828446 -1.48104 0
M  V30 9129 H 872.937 2.19329 -3.24053 0
M  V30 9130 H 872.56 3.41476 -2.03666 0
M  V30 9131 N 873.557 1.20646 1.01402 0
M  V30 9132 C 874.968 1.01823 1.56489 0
M  V30 9133 C 875.319 -0.42463 1.9155 0
M  V30 9134 O 874.444 -1.30644 1.72514 0
M  V30 9135 C 875.039 1.84208 2.84347 0
M  V30 9136 C 873.598 1.69743 3.35953 0
M  V30 9137 C 872.745 1.8198 2.09233 0
M  V30 9138 H 875.696 1.348 0.837539 0
M  V30 9139 H 875.717 1.34698 3.55861 0
M  V30 9140 H 875.229 2.89215 2.58798 0
M  V30 9141 H 873.33 0.673833 3.66456 0
M  V30 9142 H 873.443 2.51173 4.07981 0
M  V30 9143 H 871.807 1.25193 2.21808 0
M  V30 9144 H 872.59 2.88477 1.86107 0
M  V30 9145 N 875.035 -1.20752 1.01276 0
M  V30 9146 C 876.312 -1.85676 0.615112 0
M  V30 9147 C 876.692 -1.90623 -0.906976 0
M  V30 9148 O 876.04 -1.41124 -1.79712 0
M  V30 9149 C 876.25 -3.2552 1.25847 0
M  V30 9150 C 877.598 -4.0184 1.37148 0
M  V30 9151 O 878.622 -3.3486 1.21438 0
M  V30 9152 O 877.481 -5.21783 1.62495 0
M  V30 9153 H 874.575 -0.799437 0.211729 0
M  V30 9154 H 877.121 -1.28372 1.10989 0
M  V30 9155 H 875.893 -3.16664 2.29869 0
M  V30 9156 H 875.516 -3.90452 0.750524 0
M  V30 9157 N 876.513 -0.788492 -1.36457 0
M  V30 9158 C 877.741 -0.372365 -2.03522 0
M  V30 9159 C 878.156 1.01093 -1.59454 0
M  V30 9160 O 877.513 1.64824 -0.783535 0
M  V30 9161 C 877.564 -0.425435 -3.58988 0
M  V30 9162 O 877.285 -1.75418 -4.01448 0
M  V30 9163 C 878.786 0.000180167 -4.433 0
M  V30 9164 H 876.006 -0.1536 -0.653183 0
M  V30 9165 H 878.55 -1.06708 -1.74452 0
M  V30 9166 H 876.705 0.220856 -3.8677 0
M  V30 9167 H 877.119 -1.70437 -4.96036 0
M  V30 9168 H 878.593 -0.0880919 -5.5193 0
M  V30 9169 H 879.07 1.05269 -4.26398 0
M  V30 9170 H 879.676 -0.618563 -4.20778 0
M  V30 9171 N 877.991 1.48044 -0.54043 0
M  V30 9172 C 879.239 2.02097 -0.0101367 0
M  V30 9173 C 879.56 1.41881 1.33771 0
M  V30 9174 O 878.83 0.587923 1.8687 0
M  V30 9175 H 877.41 0.747 -0.000758716 0
M  V30 9176 H 880.072 1.81639 -0.706634 0
M  V30 9177 H 879.168 3.11969 0.0904474 0
M  V30 9178 N 879.47 0.276058 1.55163 0
M  V30 9179 C 880.38 -0.621066 2.2623 0
M  V30 9180 C 881.396 -1.16931 1.28853 0
M  V30 9181 O 882.572 -1.1994 1.61791 0
M  V30 9182 C 879.637 -1.78824 2.97023 0
M  V30 9183 C 878.698 -1.27657 4.09881 0
M  V30 9184 C 877.931 -2.38812 4.77289 0
M  V30 9185 O 878.154 -3.58188 4.43912 0
M  V30 9186 O 877.088 -2.06915 5.65217 0
M  V30 9187 H 880.914 -0.0453346 3.03666 0
M  V30 9188 H 878.499 0.0434275 1.49337 0
M  V30 9189 H 880.381 -2.46877 3.41511 0
M  V30 9190 H 879.056 -2.35104 2.22503 0
M  V30 9191 H 877.963 -0.56248 3.69847 0
M  V30 9192 H 879.296 -0.759509 4.86305 0
M  V30 9193 N 880.948 -1.576 0.00335426 0
M  V30 9194 C 882.188 -1.92571 -0.685253 0
M  V30 9195 C 882.552 -0.877961 -1.70751 0
M  V30 9196 O 883.753 -1.11303 -2.44673 0
M  V30 9197 C 882.024 -3.3258 -1.30863 0
M  V30 9198 S 883.583 -3.89442 -2.02189 0
M  V30 9199 H 880.401 -0.674035 -0.226268 0
M  V30 9200 H 883.003 -1.95405 0.0608461 0
M  V30 9201 H 881.707 -4.06673 -0.551837 0
M  V30 9202 H 881.238 -3.33128 -2.09259 0
M  V30 9203 H 883.253 -3.70789 -3.29742 0
M  V30 9204 N 882.426 0.269451 -1.5528 0
M  V30 9205 C 883.672 0.997946 -1.77236 0
M  V30 9206 C 884.027 1.83808 -0.568546 0
M  V30 9207 O 883.32 1.8651 0.438706 0
M  V30 9208 C 883.514 1.91 -3.02082 0
M  V30 9209 C 883.343 1.15963 -4.34491 0
M  V30 9210 C 882.113 0.873873 -4.97686 0
M  V30 9211 C 884.311 0.548307 -5.11369 0
M  V30 9212 N 882.293 0.0970863 -6.13823 0
M  V30 9213 C 883.664 -0.0941413 -6.19929 0
M  V30 9214 C 885.719 0.456507 -4.95803 0
M  V30 9215 C 884.422 -0.819547 -7.14616 0
M  V30 9216 C 886.448 -0.255315 -5.90849 0
M  V30 9217 C 885.81 -0.886488 -6.988 0
M  V30 9218 H 881.909 0.347038 -0.700777 0
M  V30 9219 H 884.493 0.273262 -1.92773 0
M  V30 9220 H 882.664 2.60691 -2.87915 0
M  V30 9221 H 884.396 2.57237 -3.12428 0
M  V30 9222 H 881.151 1.18003 -4.58663 0
M  V30 9223 H 881.575 -0.278741 -6.76426 0
M  V30 9224 H 886.217 0.930164 -4.12441 0
M  V30 9225 H 883.935 -1.30488 -7.97495 0
M  V30 9226 H 887.521 -0.32671 -5.80882 0
M  V30 9227 H 886.401 -1.42851 -7.71079 0
M  V30 9228 N 883.904 1.48273 0.534124 0
M  V30 9229 C 885.32 1.34302 0.862272 0
M  V30 9230 C 885.52 0.350902 1.98421 0
M  V30 9231 O 884.576 -0.229364 2.51456 0
M  V30 9232 C 885.889 2.74227 1.23371 0
M  V30 9233 C 887.437 2.82684 1.34383 0
M  V30 9234 C 887.912 4.23301 1.74871 0
M  V30 9235 N 889.403 4.25954 1.81981 0
M  V30 9236 C 890.138 5.31693 2.14686 0
M  V30 9237 N 889.634 6.47714 2.45844 0
M  V30 9238 N 891.427 5.19084 2.15657 0
M  V30 9239 H 883.578 2.11397 -0.206215 0
M  V30 9240 H 885.841 0.947537 -0.0296116 0
M  V30 9241 H 885.547 3.48368 0.482967 0
M  V30 9242 H 885.421 3.07485 2.18478 0
M  V30 9243 H 887.808 2.08801 2.08534 0
M  V30 9244 H 887.889 2.5305 0.374063 0
M  V30 9245 H 887.533 4.97699 1.01282 0
M  V30 9246 H 887.463 4.50376 2.7289 0
M  V30 9247 H 889.954 3.42266 1.60196 0
M  V30 9248 H 890.267 7.2414 2.69892 0
M  V30 9249 H 888.612 6.50995 2.43372 0
M  V30 9250 H 891.803 4.27463 1.9077 0
M  V30 9251 H 891.976 6.01592 2.40813 0
M  V30 9252 N 885.382 -0.782676 1.36792 0
M  V30 9253 C 886.292 -1.92679 1.33835 0
M  V30 9254 C 887.308 -1.72344 0.23952 0
M  V30 9255 O 888.484 -1.95766 0.473045 0
M  V30 9256 C 885.549 -3.27644 1.1336 0
M  V30 9257 C 884.61 -3.6071 2.32781 0
M  V30 9258 C 883.843 -4.89234 2.13273 0
M  V30 9259 O 884.066 -5.59468 1.11136 0
M  V30 9260 O 883 -5.21112 3.01208 0
M  V30 9261 H 886.826 -1.98124 2.30175 0
M  V30 9262 H 884.411 -0.923887 1.17408 0
M  V30 9263 H 886.293 -4.08394 1.03886 0
M  V30 9264 H 884.968 -3.23076 0.200868 0
M  V30 9265 H 883.875 -2.80238 2.47825 0
M  V30 9266 H 885.208 -3.70008 3.24584 0
M  V30 9267 N 886.86 -1.21182 -1.00761 0
M  V30 9268 C 888.271 -1.02652 -1.55947 0
M  V30 9269 C 888.622 0.414466 -1.91772 0
M  V30 9270 O 887.747 1.29727 -1.73204 0
M  V30 9271 C 888.342 -1.85713 -2.83366 0
M  V30 9272 C 886.901 -1.71523 -3.35048 0
M  V30 9273 C 886.048 -1.83087 -2.08265 0
M  V30 9274 H 888.999 -1.35242 -0.830379 0
M  V30 9275 H 889.02 -1.36583 -3.55141 0
M  V30 9276 H 888.532 -2.90584 -2.5726 0
M  V30 9277 H 886.633 -0.693257 -3.66094 0
M  V30 9278 H 886.746 -2.53333 -4.06644 0
M  V30 9279 H 885.11 -1.26367 -2.21141 0
M  V30 9280 H 885.893 -2.8946 -1.84575 0
M  V30 9281 N 888.338 1.20213 -1.01915 0
M  V30 9282 C 889.749 1.7136 -0.741131 0
M  V30 9283 C 890.1 1.81705 0.740107 0
M  V30 9284 O 889.225 1.48139 1.57746 0
M  V30 9285 C 889.82 3.11231 -1.33869 0
M  V30 9286 C 888.379 3.59677 -1.10948 0
M  V30 9287 C 887.526 2.36809 -1.4428 0
M  V30 9288 H 890.477 1.05191 -1.1883 0
M  V30 9289 H 890.498 3.7342 -0.730585 0
M  V30 9290 H 890.01 3.03669 -2.41675 0
M  V30 9291 H 888.111 3.72568 -0.0492052 0
M  V30 9292 H 888.224 4.44351 -1.79134 0
M  V30 9293 H 886.588 2.39674 -0.861881 0
M  V30 9294 H 887.371 2.31886 -2.53148 0
M  V30 9295 N 889.816 0.795718 1.36037 0
M  V30 9296 C 890.779 0.204318 2.28287 0
M  V30 9297 C 891.779 -0.602017 1.49105 0
M  V30 9298 O 892.969 -0.422089 1.69009 0
M  V30 9299 C 890.101 -0.716431 3.33287 0
M  V30 9300 H 891.294 1.01781 2.821 0
M  V30 9301 H 888.847 0.565588 1.45708 0
M  V30 9302 H 889.582 -1.55403 2.84641 0
M  V30 9303 H 889.367 -0.140096 3.9185 0
M  V30 9304 H 890.857 -1.12488 4.02164 0
M  V30 9305 N 891.294 -1.47756 0.548274 0
M  V30 9306 C 892.524 -2.06584 0.0254503 0
M  V30 9307 C 892.932 -1.40268 -1.26971 0
M  V30 9308 O 892.275 -0.49019 -1.77039 0
M  V30 9309 C 892.337 -3.58628 -0.250301 0
M  V30 9310 C 892.001 -4.4693 0.954087 0
M  V30 9311 C 892.998 -4.85592 1.85733 0
M  V30 9312 C 890.683 -4.88573 1.16624 0
M  V30 9313 C 892.677 -5.64686 2.95648 0
M  V30 9314 C 890.364 -5.67435 2.2685 0
M  V30 9315 C 891.362 -6.05401 3.16194 0
M  V30 9316 O 891.05 -6.82676 4.24511 0
M  V30 9317 H 890.782 -0.67489 0.0387264 0
M  V30 9318 H 893.336 -1.90876 0.758663 0
M  V30 9319 H 891.566 -3.72516 -1.03771 0
M  V30 9320 H 893.255 -3.9951 -0.717419 0
M  V30 9321 H 894.021 -4.54026 1.70544 0
M  V30 9322 H 889.9 -4.58494 0.480039 0
M  V30 9323 H 893.444 -5.9424 3.65411 0
M  V30 9324 H 889.341 -5.98413 2.42016 0
M  V30 9325 H 890.109 -7.01057 4.22447 0
M  V30 9326 N 892.772 -0.284283 -1.55015 0
M  V30 9327 C 894 0.332948 -2.04203 0
M  V30 9328 C 894.415 1.48783 -1.16229 0
M  V30 9329 O 893.772 1.81567 -0.184323 0
M  V30 9330 C 893.823 0.805207 -3.52418 0
M  V30 9331 O 893.544 -0.303689 -4.37046 0
M  V30 9332 C 895.045 1.48931 -4.17534 0
M  V30 9333 H 892.265 0.0747447 -0.666824 0
M  V30 9334 H 894.809 -0.419048 -2.00161 0
M  V30 9335 H 892.964 1.50727 -3.56876 0
M  V30 9336 H 893.378 0.0609703 -5.24465 0
M  V30 9337 H 894.852 1.77108 -5.22816 0
M  V30 9338 H 895.329 2.42389 -3.66257 0
M  V30 9339 H 895.935 0.830867 -4.17105 0
M  V30 9340 N 894.251 1.57596 -0.0117121 0
M  V30 9341 C 895.481 1.95077 0.680346 0
M  V30 9342 C 895.889 0.885793 1.67184 0
M  V30 9343 O 895.232 -0.142723 1.83145 0
M  V30 9344 C 895.294 3.28611 1.45791 0
M  V30 9345 C 894.958 4.52682 0.626706 0
M  V30 9346 C 895.955 5.19821 -0.0906223 0
M  V30 9347 C 893.64 4.99064 0.569229 0
M  V30 9348 C 895.634 6.31649 -0.854289 0
M  V30 9349 C 893.321 6.10779 -0.198155 0
M  V30 9350 C 894.319 6.76929 -0.908636 0
M  V30 9351 O 894.007 7.86501 -1.66348 0
M  V30 9352 H 893.739 0.647663 0.193672 0
M  V30 9353 H 896.293 2.05305 -0.0624969 0
M  V30 9354 H 894.523 3.14824 2.2455 0
M  V30 9355 H 896.212 3.51119 2.03642 0
M  V30 9356 H 896.978 4.84968 -0.0554421 0
M  V30 9357 H 892.857 4.47393 1.11178 0
M  V30 9358 H 896.401 6.83215 -1.40937 0
M  V30 9359 H 892.298 6.45072 -0.235114 0
M  V30 9360 H 893.066 8.03078 -1.58141 0
M  V30 9361 N 895.729 -0.261212 1.5542 0
M  V30 9362 C 897.145 -0.609012 1.47524 0
M  V30 9363 C 897.345 -1.88986 0.699042 0
M  V30 9364 O 896.401 -2.51517 0.222628 0
M  V30 9365 C 897.714 -0.725025 2.91828 0
M  V30 9366 C 899.262 -0.818302 3.02114 0
M  V30 9367 C 899.737 -0.965996 4.47697 0
M  V30 9368 N 901.228 -1.03123 4.51575 0
M  V30 9369 C 901.963 -1.16451 5.6145 0
M  V30 9370 N 901.459 -1.26425 6.81167 0
M  V30 9371 N 903.252 -1.19655 5.49217 0
M  V30 9372 H 895.403 0.579807 2.04333 0
M  V30 9373 H 897.666 0.198072 0.927077 0
M  V30 9374 H 897.372 0.145871 3.51397 0
M  V30 9375 H 897.246 -1.60156 3.41511 0
M  V30 9376 H 899.633 -1.67966 2.42634 0
M  V30 9377 H 899.714 0.0830895 2.55665 0
M  V30 9378 H 899.358 -0.109251 5.07782 0
M  V30 9379 H 899.288 -1.88221 4.91813 0
M  V30 9380 H 901.779 -0.966072 3.65343 0
M  V30 9381 H 902.092 -1.36462 7.60656 0
M  V30 9382 H 900.437 -1.23408 6.83956 0
M  V30 9383 H 903.628 -1.11501 4.54626 0
M  V30 9384 H 903.801 -1.29698 6.34888 0
M  V30 9385 N 897.207 -1.48554 -0.526253 0
M  V30 9386 C 898.484 -1.47252 -1.28748 0
M  V30 9387 C 898.864 -0.186245 -2.10277 0
M  V30 9388 O 898.212 0.831954 -2.12816 0
M  V30 9389 C 898.422 -2.73672 -2.16575 0
M  V30 9390 C 899.77 -3.22151 -2.76593 0
M  V30 9391 O 900.794 -2.74614 -2.2686 0
M  V30 9392 O 899.653 -4.04877 -3.67066 0
M  V30 9393 H 896.747 -0.588242 -0.581292 0
M  V30 9394 H 899.293 -1.60792 -0.5426 0
M  V30 9395 H 898.065 -3.58798 -1.56139 0
M  V30 9396 H 897.688 -2.6287 -2.98304 0
M  V30 9397 N 898.685 0.775411 -1.37205 0
M  V30 9398 C 899.915 1.56219 -1.352 0
M  V30 9399 C 900.323 1.89087 0.065456 0
M  V30 9400 O 899.666 1.51655 1.03665 0
M  V30 9401 C 899.728 2.9019 -2.12203 0
M  V30 9402 C 899.392 2.79978 -3.61195 0
M  V30 9403 C 900.389 2.51258 -4.55154 0
M  V30 9404 C 898.074 2.98115 -4.04268 0
M  V30 9405 C 900.068 2.40798 -5.90165 0
M  V30 9406 C 897.755 2.87276 -5.39366 0
M  V30 9407 C 898.753 2.58657 -6.32128 0
M  V30 9408 O 898.441 2.47838 -7.64743 0
M  V30 9409 H 898.173 0.490735 -0.464925 0
M  V30 9410 H 900.727 0.969201 -1.81096 0
M  V30 9411 H 898.957 3.51594 -1.60992 0
M  V30 9412 H 900.646 3.51561 -2.02879 0
M  V30 9413 H 901.412 2.36935 -4.23186 0
M  V30 9414 H 897.291 3.19392 -3.3243 0
M  V30 9415 H 900.835 2.18381 -6.62537 0
M  V30 9416 H 896.732 3.01166 -5.70937 0
M  V30 9417 H 897.5 2.63215 -7.75023 0
M  V30 9418 N 900.163 1.21714 1.00117 0
M  V30 9419 C 901.388 1.06357 1.78054 0
M  V30 9420 C 901.813 -0.382075 1.84179 0
M  V30 9421 O 901.171 -1.27575 1.28819 0
M  V30 9422 C 901.219 1.66982 3.19608 0
M  V30 9423 O 900.323 0.917892 4.02055 0
M  V30 9424 H 899.664 0.374074 0.548602 0
M  V30 9425 H 902.194 1.61338 1.25822 0
M  V30 9426 H 902.204 1.71363 3.70268 0
M  V30 9427 H 900.879 2.72185 3.14465 0
M  V30 9428 H 899.456 0.949473 3.6061 0
M  V30 9429 N 901.641 -1.19671 1.02551 0
M  V30 9430 C 902.889 -1.88894 0.71858 0
M  V30 9431 C 903.21 -1.79797 -0.754856 0
M  V30 9432 O 902.48 -1.20621 -1.54362 0
M  V30 9433 H 901.06 -0.699244 0.262806 0
M  V30 9434 H 903.722 -1.45298 1.29902 0
M  V30 9435 H 902.818 -2.95309 1.00989 0
M  V30 9436 N 903.119 -0.802921 -1.35613 0
M  V30 9437 C 904.049 -0.225131 -2.32412 0
M  V30 9438 C 905.03 0.647383 -1.57299 0
M  V30 9439 O 906.215 0.578414 -1.85386 0
M  V30 9440 C 903.345 0.630085 -3.41537 0
M  V30 9441 C 902.299 -0.143635 -4.27759 0
M  V30 9442 C 901.625 0.833046 -5.28171 0
M  V30 9443 C 902.925 -1.34054 -5.04804 0
M  V30 9444 H 904.619 -1.03385 -2.80984 0
M  V30 9445 H 902.165 -0.498593 -1.35093 0
M  V30 9446 H 904.118 1.04433 -4.08254 0
M  V30 9447 H 902.842 1.47165 -2.91565 0
M  V30 9448 H 901.501 -0.539015 -3.62616 0
M  V30 9449 H 901.149 1.67001 -4.74468 0
M  V30 9450 H 900.849 0.319697 -5.8673 0
M  V30 9451 H 902.373 1.24558 -5.97761 0
M  V30 9452 H 903.787 -1.00136 -5.64487 0
M  V30 9453 H 902.184 -1.78812 -5.72841 0
M  V30 9454 H 903.254 -2.12906 -4.35659 0
M  V30 9455 N 904.597 1.47463 -0.556102 0
M  V30 9456 C 905.527 2.32801 0.180497 0
M  V30 9457 C 906.508 1.43721 0.909848 0
M  V30 9458 O 907.693 1.72578 0.89053 0
M  V30 9459 C 904.823 3.25478 1.21167 0
M  V30 9460 C 903.777 4.2379 0.598846 0
M  V30 9461 C 903.103 5.05783 1.73457 0
M  V30 9462 C 904.403 5.20387 -0.446659 0
M  V30 9463 H 906.097 2.94636 -0.531956 0
M  V30 9464 H 903.643 1.41683 -0.257267 0
M  V30 9465 H 905.596 3.8402 1.73513 0
M  V30 9466 H 904.32 2.61695 1.95405 0
M  V30 9467 H 902.979 3.66472 0.0966897 0
M  V30 9468 H 902.627 4.38405 2.46596 0
M  V30 9469 H 902.327 5.72343 1.33031 0
M  V30 9470 H 903.851 5.67183 2.26131 0
M  V30 9471 H 905.265 5.73299 -0.00930019 0
M  V30 9472 H 903.662 5.95143 -0.769735 0
M  V30 9473 H 904.732 4.65932 -1.34295 0
M  V30 9474 N 906.075 0.2925 1.54862 0
M  V30 9475 C 907.305 -0.321646 2.04081 0
M  V30 9476 C 907.713 -1.48712 1.16967 0
M  V30 9477 O 907.056 -1.82755 0.18609 0
M  V30 9478 C 907.118 -0.848678 3.49339 0
M  V30 9479 C 906.782 0.190416 4.56603 0
M  V30 9480 C 907.779 1.01595 5.09877 0
M  V30 9481 C 905.464 0.329666 5.01217 0
M  V30 9482 C 907.458 1.96676 6.06298 0
M  V30 9483 C 905.145 1.28393 5.9746 0
M  V30 9484 C 906.143 2.10097 6.49883 0
M  V30 9485 O 905.831 3.03907 7.44242 0
M  V30 9486 H 905.563 -0.075098 0.671816 0
M  V30 9487 H 908.117 0.427531 2.00901 0
M  V30 9488 H 906.347 -1.64823 3.49815 0
M  V30 9489 H 908.036 -1.37779 3.81801 0
M  V30 9490 H 908.802 0.919197 4.7621 0
M  V30 9491 H 904.681 -0.296317 4.60047 0
M  V30 9492 H 908.225 2.60488 6.47141 0
M  V30 9493 H 904.122 1.38144 6.30545 0
M  V30 9494 H 904.89 2.98787 7.62016 0
M  V30 9495 N 907.553 -1.57587 0.0200696 0
M  V30 9496 C 908.483 -2.12702 -0.963333 0
M  V30 9497 C 909.464 -1.04094 -1.34531 0
M  V30 9498 O 910.649 -1.31881 -1.42552 0
M  V30 9499 C 907.779 -2.64673 -2.24868 0
M  V30 9500 C 906.733 -3.77987 -2.00772 0
M  V30 9501 C 906.059 -4.16351 -3.35494 0
M  V30 9502 C 907.359 -5.0444 -1.35416 0
M  V30 9503 H 909.053 -2.95121 -0.504363 0
M  V30 9504 H 906.599 -1.41966 -0.24116 0
M  V30 9505 H 908.552 -3.01862 -2.94036 0
M  V30 9506 H 907.276 -1.79403 -2.72914 0
M  V30 9507 H 905.935 -3.41223 -1.34025 0
M  V30 9508 H 905.583 -3.28075 -3.81282 0
M  V30 9509 H 905.283 -4.92705 -3.20181 0
M  V30 9510 H 906.807 -4.56115 -4.05945 0
M  V30 9511 H 908.221 -5.39273 -1.94571 0
M  V30 9512 H 906.618 -5.85732 -1.30529 0
M  V30 9513 H 907.688 -4.83803 -0.325923 0
M  V30 9514 N 909.032 0.252966 -1.55557 0
M  V30 9515 C 909.98 1.33289 -1.90622 0
M  V30 9516 C 910.974 1.50133 -0.784638 0
M  V30 9517 O 912.18 1.51679 -0.969196 0
M  V30 9518 H 908.555 0.446196 -0.605321 0
M  V30 9519 H 910.526 1.00977 -2.80796 0
M  V30 9520 C 909.275 2.68254 -2.21213 0
M  V30 9521 H 908.598 2.5609 -3.07014 0
M  V30 9522 H 910.038 3.42707 -2.49656 0
M  V30 9523 C 908.497 3.20884 -1.02642 0
M  V30 9524 O 909.027 4.00783 -0.271292 0
M  V30 9525 N 907.233 2.7883 -0.818682 0
M  V30 9526 H 906.78 2.13966 -1.43444 0
M  V30 9527 H 906.738 3.14388 -0.0269989 0
M  V30 9528 N 910.51 1.48831 0.518367 0
M  V30 9529 C 911.787 1.47933 1.27966 0
M  V30 9530 C 912.167 0.197393 2.10175 0
M  V30 9531 O 911.515 -0.820656 2.13255 0
M  V30 9532 C 911.725 2.74816 2.15121 0
M  V30 9533 C 913.073 3.23613 2.74881 0
M  V30 9534 O 914.097 2.75814 2.254 0
M  V30 9535 O 912.956 4.06818 3.64913 0
M  V30 9536 H 910.05 0.591316 0.578164 0
M  V30 9537 H 912.596 1.61077 0.534065 0
M  V30 9538 H 911.368 3.59621 1.54234 0
M  V30 9539 H 910.991 2.64449 2.96905 0
M  V30 9540 N 911.988 -0.768124 1.37614 0
M  V30 9541 C 913.265 -1.51637 1.23554 0
M  V30 9542 C 913.645 -2.1042 -0.169331 0
M  V30 9543 O 912.993 -1.95834 -1.17735 0
M  V30 9544 C 913.203 -2.59436 2.33439 0
M  V30 9545 C 914.551 -3.2674 2.71157 0
M  V30 9546 O 915.575 -2.69733 2.32642 0
M  V30 9547 O 914.434 -4.29814 3.37524 0
M  V30 9548 H 911.528 -0.671778 0.482332 0
M  V30 9549 H 914.074 -0.804779 1.49403 0
M  V30 9550 H 912.846 -2.14146 3.27502 0
M  V30 9551 H 912.469 -3.38192 2.09073 0
M  V30 9552 N 913.466 -1.22244 -0.994698 0
M  V30 9553 C 914.713 -1.04591 -1.73398 0
M  V30 9554 C 915.041 0.419223 -1.89928 0
M  V30 9555 O 914.296 1.32714 -1.43824 0
M  V30 9556 C 914.595 -1.70014 -3.14372 0
M  V30 9557 C 914.261 -3.19903 -3.17762 0
M  V30 9558 C 912.923 -3.60803 -3.18394 0
M  V30 9559 C 915.275 -4.15851 -3.14194 0
M  V30 9560 C 912.603 -4.96135 -3.13157 0
M  V30 9561 C 914.955 -5.51157 -3.10498 0
M  V30 9562 C 913.619 -5.91439 -3.09445 0
M  V30 9563 H 912.889 -0.382725 -0.63451 0
M  V30 9564 H 915.536 -1.51981 -1.16508 0
M  V30 9565 H 913.841 -1.14945 -3.7456 0
M  V30 9566 H 915.538 -1.53848 -3.70313 0
M  V30 9567 H 912.128 -2.87336 -3.18019 0
M  V30 9568 H 916.312 -3.85272 -3.12857 0
M  V30 9569 H 911.568 -5.26578 -3.10685 0
M  V30 9570 H 915.742 -6.2523 -3.06692 0
M  V30 9571 H 913.369 -6.96271 -3.05141 0
M  V30 9572 N 914.944 1.19125 -1.03184 0
M  V30 9573 C 915.876 2.21914 -0.573294 0
M  V30 9574 C 916.889 1.5894 0.352397 0
M  V30 9575 O 918.078 1.77883 0.148318 0
M  V30 9576 C 915.178 3.38403 0.18355 0
M  V30 9577 C 914.351 4.3096 -0.747817 0
M  V30 9578 C 913.41 5.26188 -0.0358489 0
M  V30 9579 O 912.436 5.65321 -0.663388 0
M  V30 9580 N 913.638 5.67235 1.23387 0
M  V30 9581 H 916.403 2.61881 -1.45734 0
M  V30 9582 H 913.964 1.33821 -0.911231 0
M  V30 9583 H 915.956 3.99124 0.669468 0
M  V30 9584 H 914.526 2.97201 0.969043 0
M  V30 9585 H 913.746 3.67976 -1.41377 0
M  V30 9586 H 915.034 4.89708 -1.38071 0
M  V30 9587 H 914.432 5.37481 1.76439 0
M  V30 9588 H 912.989 6.30196 1.66423 0
M  V30 9589 N 916.422 0.810101 1.35185 0
M  V30 9590 C 917.67 0.391343 1.98275 0
M  V30 9591 C 917.991 -1.04592 1.64577 0
M  V30 9592 O 917.261 -1.72417 0.93001 0
M  V30 9593 H 915.841 0.141715 0.733434 0
M  V30 9594 H 918.503 1.03672 1.6504 0
M  V30 9595 H 917.599 0.49991 3.0807 0
M  V30 9596 N 917.9 -1.47166 0.563914 0
M  V30 9597 C 919.148 -2.02056 0.0422873 0
M  V30 9598 C 919.469 -1.43992 -1.31497 0
M  V30 9599 O 918.739 -0.617578 -1.85911 0
M  V30 9600 H 917.319 -0.746893 0.0126427 0
M  V30 9601 H 919.981 -1.80492 0.735441 0
M  V30 9602 H 919.077 -3.12073 -0.0408044 0
M  V30 9603 N 919.378 -0.300708 -1.54705 0
M  V30 9604 C 920.655 0.361757 -1.92226 0
M  V30 9605 C 921.035 1.71714 -1.2279 0
M  V30 9606 O 920.383 2.2559 -0.363542 0
M  V30 9607 C 920.593 0.476699 -3.45729 0
M  V30 9608 C 921.941 0.7477 -4.17965 0
M  V30 9609 O 922.965 0.560521 -3.51762 0
M  V30 9610 O 921.824 1.10724 -5.35166 0
M  V30 9611 H 918.918 0.202213 -0.801897 0
M  V30 9612 H 921.464 -0.348746 -1.66078 0
M  V30 9613 H 920.236 -0.476132 -3.88392 0
M  V30 9614 H 919.859 1.23568 -3.77911 0
M  V30 9615 N 920.856 1.57574 -0.0284266 0
M  V30 9616 C 921.786 2.1321 0.952039 0
M  V30 9617 C 922.767 1.04806 1.33977 0
M  V30 9618 O 923.952 1.32635 1.41851 0
M  V30 9619 C 921.082 2.65862 2.23461 0
M  V30 9620 C 920.036 3.79047 1.98765 0
M  V30 9621 C 919.362 4.18124 3.33281 0
M  V30 9622 C 920.662 5.05151 1.32739 0
M  V30 9623 H 922.356 2.95385 0.488705 0
M  V30 9624 H 919.902 1.42092 0.233628 0
M  V30 9625 H 921.855 3.03417 2.92431 0
M  V30 9626 H 920.579 1.80848 2.71959 0
M  V30 9627 H 919.238 3.41929 1.32213 0
M  V30 9628 H 918.886 3.30092 3.79537 0
M  V30 9629 H 918.586 4.94396 3.17563 0
M  V30 9630 H 920.11 4.58262 4.0352 0
M  V30 9631 H 921.524 5.40297 1.91708 0
M  V30 9632 H 919.921 5.86416 1.27421 0
M  V30 9633 H 920.991 4.83969 0.300261 0
M  V30 9634 N 922.334 -0.244713 1.55689 0
M  V30 9635 C 923.581 -0.972446 1.77622 0
M  V30 9636 C 923.909 -1.85235 0.593137 0
M  V30 9637 O 923.164 -1.91064 -0.423464 0
M  V30 9638 C 923.463 -1.8617 3.05083 0
M  V30 9639 C 923.129 -1.13696 4.3633 0
M  V30 9640 C 921.791 -0.936679 4.71996 0
M  V30 9641 C 924.143 -0.623451 5.17458 0
M  V30 9642 C 921.471 -0.210612 5.86322 0
M  V30 9643 C 923.823 0.0891587 6.32537 0
M  V30 9644 C 922.487 0.300904 6.66821 0
M  V30 9645 H 921.757 -0.355843 0.649967 0
M  V30 9646 H 924.404 -0.242372 1.8996 0
M  V30 9647 H 922.709 -2.6589 2.87767 0
M  V30 9648 H 924.406 -2.4265 3.19253 0
M  V30 9649 H 920.996 -1.30301 4.08313 0
M  V30 9650 H 925.18 -0.765725 4.90357 0
M  V30 9651 H 920.436 -0.0361062 6.11389 0
M  V30 9652 H 924.61 0.494685 6.94641 0
M  V30 9653 H 922.237 0.865466 7.55257 0
M  V30 9654 N 923.813 -1.49104 -0.510467 0
M  V30 9655 C 925.06 -1.58112 -1.26518 0
M  V30 9656 C 925.388 -0.263603 -1.92705 0
M  V30 9657 O 924.643 0.747743 -1.80852 0
M  V30 9658 C 924.942 -2.68259 -2.36161 0
M  V30 9659 C 924.608 -4.10069 -1.87495 0
M  V30 9660 C 923.27 -4.48662 -1.73942 0
M  V30 9661 C 925.622 -4.98859 -1.5096 0
M  V30 9662 C 922.95 -5.73829 -1.22217 0
M  V30 9663 C 925.302 -6.24535 -1.00691 0
M  V30 9664 C 923.966 -6.61967 -0.857691 0
M  V30 9665 H 923.236 -0.578574 -0.462962 0
M  V30 9666 H 925.883 -1.82899 -0.567475 0
M  V30 9667 H 924.188 -2.37407 -3.11681 0
M  V30 9668 H 925.885 -2.7244 -2.9424 0
M  V30 9669 H 922.475 -3.79601 -1.99001 0
M  V30 9670 H 926.659 -4.69706 -1.60282 0
M  V30 9671 H 921.915 -6.01539 -1.09368 0
M  V30 9672 H 926.089 -6.9272 -0.71498 0
M  V30 9673 H 923.716 -7.58839 -0.454702 0
M  V30 9674 N 925.291 0.760815 -1.38019 0
M  V30 9675 C 926.519 1.55001 -1.37048 0
M  V30 9676 C 926.934 1.88754 0.0415261 0
M  V30 9677 O 926.291 1.52254 1.00624 0
M  V30 9678 C 926.342 2.8536 -2.21928 0
M  V30 9679 O 926.063 2.53049 -3.57628 0
M  V30 9680 C 927.564 3.79536 -2.29057 0
M  V30 9681 H 924.784 0.479844 -0.469032 0
M  V30 9682 H 927.328 0.942148 -1.81504 0
M  V30 9683 H 925.483 3.42542 -1.80953 0
M  V30 9684 H 925.897 3.36604 -4.02241 0
M  V30 9685 H 927.371 4.67977 -2.92749 0
M  V30 9686 H 927.848 4.19453 -1.30213 0
M  V30 9687 H 928.454 3.28281 -2.70392 0
M  V30 9688 N 926.769 1.22769 0.988202 0
M  V30 9689 C 927.679 1.01844 2.11341 0
M  V30 9690 C 928.695 -0.0346937 1.73965 0
M  V30 9691 O 929.871 0.159061 2.00771 0
M  V30 9692 C 926.936 0.603837 3.41401 0
M  V30 9693 C 925.997 1.73113 3.92849 0
M  V30 9694 C 925.23 1.33621 5.16702 0
M  V30 9695 O 925.453 0.217041 5.69987 0
M  V30 9696 O 924.387 2.15444 5.62021 0
M  V30 9697 H 928.213 1.96127 2.31879 0
M  V30 9698 H 925.798 1.01405 1.09715 0
M  V30 9699 H 927.68 0.383196 4.19654 0
M  V30 9700 H 926.355 -0.310082 3.22211 0
M  V30 9701 H 925.262 2.00634 3.15748 0
M  V30 9702 H 926.595 2.62308 4.1648 0
M  V30 9703 N 928.247 -1.18576 1.03814 0
M  V30 9704 C 929.658 -1.70159 0.768299 0
M  V30 9705 C 930.009 -1.8286 -0.711106 0
M  V30 9706 O 929.134 -1.5063 -1.55369 0
M  V30 9707 C 929.729 -3.09062 1.38804 0
M  V30 9708 C 928.288 -3.57866 1.16656 0
M  V30 9709 C 927.435 -2.34484 1.48029 0
M  V30 9710 H 930.386 -1.03287 1.20488 0
M  V30 9711 H 930.407 -3.72211 0.7899 0
M  V30 9712 H 929.919 -2.99785 2.46476 0
M  V30 9713 H 928.02 -3.72442 0.108471 0
M  V30 9714 H 928.133 -4.41445 1.8618 0
M  V30 9715 H 926.497 -2.38273 0.899902 0
M  V30 9716 H 927.28 -2.27829 2.56805 0
M  V30 9717 N 929.725 -0.817259 -1.34754 0
M  V30 9718 C 930.673 -0.223352 -2.31525 0
M  V30 9719 C 931.667 0.632785 -1.57137 0
M  V30 9720 O 932.873 0.524757 -1.72181 0
M  V30 9721 H 929.248 -0.0534765 -0.750096 0
M  V30 9722 H 931.219 -1.05446 -2.79148 0
M  V30 9723 C 929.968 0.604784 -3.424 0
M  V30 9724 H 929.291 -0.0446664 -3.99775 0
M  V30 9725 H 930.731 0.986543 -4.12363 0
M  V30 9726 C 929.19 1.77478 -2.86362 0
M  V30 9727 O 929.72 2.87273 -2.8078 0
M  V30 9728 N 927.926 1.58971 -2.43263 0
M  V30 9729 H 927.473 0.696598 -2.48003 0
M  V30 9730 H 927.431 2.37408 -2.06119 0
M  V30 9731 N 931.203 1.46865 -0.571711 0
M  V30 9732 C 932.166 2.28658 0.157499 0
M  V30 9733 C 933.166 1.37773 0.829172 0
M  V30 9734 O 934.356 1.6026 0.682811 0
M  V30 9735 C 931.488 3.17859 1.23202 0
M  V30 9736 H 932.681 2.94603 -0.561171 0
M  V30 9737 H 930.234 1.52793 -0.329229 0
M  V30 9738 H 930.969 2.56637 1.98262 0
M  V30 9739 H 930.754 3.84762 0.755031 0
M  V30 9740 H 932.244 3.7945 1.74378 0
M  V30 9741 N 932.681 0.308908 1.54543 0
M  V30 9742 C 933.611 -0.556657 2.26768 0
M  V30 9743 C 934.592 -1.13145 1.27013 0
M  V30 9744 O 935.777 -1.15931 1.558 0
M  V30 9745 C 932.907 -1.72481 3.01443 0
M  V30 9746 C 931.861 -1.28001 4.08411 0
M  V30 9747 C 931.187 -2.53395 4.70845 0
M  V30 9748 C 932.487 -0.405497 5.20724 0
M  V30 9749 H 934.181 0.0457618 2.99365 0
M  V30 9750 H 931.727 0.0234495 1.43981 0
M  V30 9751 H 933.68 -2.3365 3.50693 0
M  V30 9752 H 932.404 -2.35359 2.26437 0
M  V30 9753 H 931.063 -0.69133 3.60022 0
M  V30 9754 H 930.711 -3.14604 3.92471 0
M  V30 9755 H 930.411 -2.2433 5.43093 0
M  V30 9756 H 931.935 -3.15352 5.22863 0
M  V30 9757 H 933.349 -0.923076 5.6582 0
M  V30 9758 H 931.746 -0.208282 5.99738 0
M  V30 9759 H 932.816 0.567412 4.81569 0
M  V30 9760 N 934.159 -1.57557 0.0367827 0
M  V30 9761 C 935.387 -1.96419 -0.650168 0
M  V30 9762 C 935.802 -0.913656 -1.6522 0
M  V30 9763 O 935.159 0.103718 -1.82205 0
M  V30 9764 C 935.21 -3.35355 -1.3498 0
M  V30 9765 O 934.931 -4.36379 -0.387905 0
M  V30 9766 C 936.432 -3.88892 -2.12786 0
M  V30 9767 H 933.652 -0.646751 -0.178756 0
M  V30 9768 H 936.196 -2.04261 0.0988197 0
M  V30 9769 H 934.351 -3.28708 -2.05012 0
M  V30 9770 H 934.765 -5.16969 -0.885596 0
M  V30 9771 H 936.239 -4.88428 -2.5718 0
M  V30 9772 H 936.716 -3.23547 -2.97008 0
M  V30 9773 H 937.322 -3.98831 -1.47694 0
M  V30 9774 N 935.637 0.236453 -1.55816 0
M  V30 9775 C 936.883 0.964439 -1.784 0
M  V30 9776 C 937.216 1.84573 -0.603868 0
M  V30 9777 O 936.491 1.90395 0.397473 0
M  V30 9778 C 936.774 1.81608 -3.10951 0
M  V30 9779 C 936.627 0.962283 -4.39386 0
M  V30 9780 C 937.946 2.79665 -3.39817 0
M  V30 9781 H 935.065 0.349192 -0.649026 0
M  V30 9782 H 937.707 0.234247 -1.8855 0
M  V30 9783 H 935.857 2.43864 -3.02428 0
M  V30 9784 H 937.529 0.35762 -4.59912 0
M  V30 9785 H 935.772 0.267062 -4.32977 0
M  V30 9786 H 936.443 1.59222 -5.28538 0
M  V30 9787 H 938.919 2.27546 -3.4837 0
M  V30 9788 H 937.795 3.36367 -4.33761 0
M  V30 9789 H 938.056 3.56657 -2.61244 0
M  V30 9790 N 937.115 1.49373 0.502552 0
M  V30 9791 C 938.343 1.62488 1.28084 0
M  V30 9792 C 938.758 0.295667 1.86471 0
M  V30 9793 O 938.115 -0.718664 1.67754 0
M  V30 9794 C 938.166 2.69249 2.4122 0
M  V30 9795 O 937.887 3.97014 1.85234 0
M  V30 9796 C 939.388 2.93054 3.32617 0
M  V30 9797 H 936.608 0.547068 0.388533 0
M  V30 9798 H 939.152 1.95394 0.603452 0
M  V30 9799 H 937.307 2.39125 3.04792 0
M  V30 9800 H 937.721 4.55809 2.59496 0
M  V30 9801 H 939.195 3.71493 4.08285 0
M  V30 9802 H 939.672 2.02911 3.89517 0
M  V30 9803 H 940.278 3.24589 2.74813 0
M  V30 9804 N 938.594 -0.753485 1.38421 0
M  V30 9805 C 939.557 -1.84888 1.35459 0
M  V30 9806 C 940.557 -1.58764 0.255083 0
M  V30 9807 O 941.747 -1.66507 0.511978 0
M  V30 9808 C 938.879 -3.22361 1.10888 0
M  V30 9809 H 940.072 -1.88922 2.32913 0
M  V30 9810 H 937.625 -0.955199 1.23716 0
M  V30 9811 H 938.36 -3.23996 0.1404 0
M  V30 9812 H 938.145 -3.42717 1.90492 0
M  V30 9813 H 939.635 -4.02437 1.1151 0
M  V30 9814 N 940.072 -1.23292 -0.981677 0
M  V30 9815 C 941.488 -0.995295 -1.24764 0
M  V30 9816 C 941.688 0.304379 -1.99188 0
M  V30 9817 O 940.744 1.02414 -2.30798 0
M  V30 9818 C 942.057 -2.20135 -2.04844 0
M  V30 9819 C 943.605 -2.24612 -2.17988 0
M  V30 9820 C 944.08 -3.448 -3.01458 0
M  V30 9821 N 945.571 -3.45031 -3.09044 0
M  V30 9822 C 946.306 -4.34683 -3.7395 0
M  V30 9823 N 945.802 -5.34569 -4.4069 0
M  V30 9824 N 947.595 -4.22429 -3.70823 0
M  V30 9825 H 939.746 -2.06834 -0.483052 0
M  V30 9826 H 942.009 -0.906929 -0.276014 0
M  V30 9827 H 941.715 -3.14446 -1.57532 0
M  V30 9828 H 941.589 -2.21115 -3.05594 0
M  V30 9829 H 943.976 -1.30841 -2.64508 0
M  V30 9830 H 944.057 -2.27664 -1.16631 0
M  V30 9831 H 943.701 -4.38877 -2.55635 0
M  V30 9832 H 943.631 -3.38988 -4.02982 0
M  V30 9833 H 946.122 -2.72759 -2.61555 0
M  V30 9834 H 946.435 -5.99236 -4.87991 0
M  V30 9835 H 944.78 -5.3847 -4.39403 0
M  V30 9836 H 947.971 -3.43639 -3.17851 0
M  V30 9837 H 948.144 -4.92501 -4.21126 0
M  V30 9838 N 941.55 1.18024 -1.04442 0
M  V30 9839 C 942.796 1.88377 -0.751133 0
M  V30 9840 C 943.129 1.80377 0.719571 0
M  V30 9841 O 942.404 1.20662 1.52548 0
M  V30 9842 C 942.687 3.38708 -1.22265 0
M  V30 9843 C 942.54 3.55499 -2.75574 0
M  V30 9844 C 943.859 4.32475 -0.815688 0
M  V30 9845 H 940.978 0.684037 -0.27434 0
M  V30 9846 H 943.62 1.38837 -1.29709 0
M  V30 9847 H 941.77 3.8103 -0.758192 0
M  V30 9848 H 943.442 3.22244 -3.30086 0
M  V30 9849 H 941.685 2.98028 -3.15217 0
M  V30 9850 H 942.356 4.60994 -3.03625 0
M  V30 9851 H 944.832 3.97953 -1.21542 0
M  V30 9852 H 943.708 5.36213 -1.17331 0
M  V30 9853 H 943.969 4.41207 0.280901 0
M  V30 9854 N 943.028 0.824394 1.34319 0
M  V30 9855 C 944.444 0.510336 1.51221 0
M  V30 9856 C 944.644 -0.965201 1.76879 0
M  V30 9857 O 943.7 -1.74961 1.82057 0
M  V30 9858 C 945.013 1.37114 2.6762 0
M  V30 9859 C 946.561 1.36842 2.81502 0
M  V30 9860 C 947.036 2.21374 4.00946 0
M  V30 9861 N 948.527 2.19005 4.08156 0
M  V30 9862 C 949.262 2.81159 4.99737 0
M  V30 9863 N 948.758 3.52309 5.96532 0
M  V30 9864 N 950.551 2.70706 4.9262 0
M  V30 9865 H 942.702 1.77976 1.15924 0
M  V30 9866 H 944.965 0.758503 0.568663 0
M  V30 9867 H 944.671 2.41905 2.55294 0
M  V30 9868 H 944.545 1.03689 3.62669 0
M  V30 9869 H 946.932 0.328284 2.93268 0
M  V30 9870 H 947.013 1.74265 1.87257 0
M  V30 9871 H 946.657 3.25437 3.8994 0
M  V30 9872 H 946.587 1.813 4.94407 0
M  V30 9873 H 949.078 1.67252 3.38874 0
M  V30 9874 H 949.391 3.96977 6.63045 0
M  V30 9875 H 947.736 3.56415 5.96652 0
M  V30 9876 H 950.927 2.14694 4.15962 0
M  V30 9877 H 951.1 3.19431 5.63798 0
M  V30 9878 N 944.506 -1.46559 0.579492 0
M  V30 9879 C 945.917 -1.8608 0.152052 0
M  V30 9880 C 946.268 -1.48346 -1.28405 0
M  V30 9881 O 945.393 -0.89685 -1.9694 0
M  V30 9882 C 945.988 -3.37729 0.269171 0
M  V30 9883 C 944.547 -3.76258 -0.103376 0
M  V30 9884 C 943.694 -2.70584 0.60659 0
M  V30 9885 H 946.645 -1.3776 0.787904 0
M  V30 9886 H 946.666 -3.77116 -0.506339 0
M  V30 9887 H 946.178 -3.65162 1.31448 0
M  V30 9888 H 944.279 -3.54443 -1.14895 0
M  V30 9889 H 944.392 -4.78335 0.270701 0
M  V30 9890 H 942.756 -2.54656 0.0471984 0
M  V30 9891 H 943.539 -3.00856 1.65349 0
M  V30 9892 N 945.984 -0.3171 -1.54377 0
M  V30 9893 C 947.4 0.035766 -1.5956 0
M  V30 9894 C 947.6 1.51038 -1.33378 0
M  V30 9895 O 946.656 2.26546 -1.11505 0
M  V30 9896 C 947.969 -0.376652 -2.98332 0
M  V30 9897 C 949.517 -0.326765 -3.1129 0
M  V30 9898 C 949.992 -0.714247 -4.52396 0
M  V30 9899 N 951.483 -0.667402 -4.58367 0
M  V30 9900 C 952.218 -0.939494 -5.65651 0
M  V30 9901 N 951.714 -1.27839 -6.80903 0
M  V30 9902 N 953.507 -0.865484 -5.55397 0
M  V30 9903 H 945.658 -1.27794 -1.69654 0
M  V30 9904 H 947.921 -0.5192 -0.79318 0
M  V30 9905 H 947.627 -1.40381 -3.22469 0
M  V30 9906 H 947.501 0.261611 -3.76292 0
M  V30 9907 H 949.888 0.69117 -2.86892 0
M  V30 9908 H 949.969 -0.999873 -2.35449 0
M  V30 9909 H 949.613 -1.73007 -4.77526 0
M  V30 9910 H 949.543 -0.0188962 -5.26597 0
M  V30 9911 H 952.034 -0.417062 -3.75592 0
M  V30 9912 H 952.347 -1.47155 -7.5866 0
M  V30 9913 H 950.692 -1.31658 -6.82416 0
M  V30 9914 H 953.883 -0.600265 -4.64235 0
M  V30 9915 H 954.056 -1.0809 -6.38921 0
M  V30 9916 N 947.462 1.57535 -0.0451378 0
M  V30 9917 C 948.702 1.9432 0.633955 0
M  V30 9918 C 949.066 0.922924 1.68363 0
M  V30 9919 O 950.267 1.17751 2.41636 0
M  V30 9920 C 948.538 3.35933 1.21999 0
M  V30 9921 S 950.097 3.94666 1.91793 0
M  V30 9922 H 946.915 0.679798 0.208318 0
M  V30 9923 H 949.517 1.95175 -0.112633 0
M  V30 9924 H 948.221 4.07993 0.443821 0
M  V30 9925 H 947.752 3.38559 2.00353 0
M  V30 9926 H 949.767 3.79401 3.19796 0
M  V30 9927 N 948.94 -0.228186 1.55939 0
M  V30 9928 C 950.188 -0.951668 1.78291 0
M  V30 9929 C 950.509 -1.85132 0.612474 0
M  V30 9930 O 949.779 -1.92356 -0.370942 0
M  V30 9931 H 948.359 -0.354388 0.657585 0
M  V30 9932 H 951.021 -0.241635 1.93396 0
M  V30 9933 H 950.117 -1.56239 2.70177 0
M  V30 9934 N 950.418 -1.49637 -0.494624 0
M  V30 9935 C 951.834 -1.36541 -0.826361 0
M  V30 9936 C 952.034 -0.403386 -1.97421 0
M  V30 9937 O 951.09 0.162614 -2.51976 0
M  V30 9938 C 952.403 -2.77401 -1.16057 0
M  V30 9939 C 953.951 -2.86148 -1.26841 0
M  V30 9940 C 954.426 -4.27789 -1.63587 0
M  V30 9941 N 955.917 -4.3063 -1.70624 0
M  V30 9942 C 956.652 -5.37198 -2.00514 0
M  V30 9943 N 956.148 -6.54004 -2.28584 0
M  V30 9944 N 957.941 -5.2462 -2.01818 0
M  V30 9945 H 950.092 -2.10776 0.26219 0
M  V30 9946 H 952.355 -0.946419 0.0547235 0
M  V30 9947 H 952.061 -3.49526 -0.390434 0
M  V30 9948 H 951.935 -3.1317 -2.10249 0
M  V30 9949 H 954.322 -2.14256 -2.02925 0
M  V30 9950 H 954.403 -2.53953 -0.30684 0
M  V30 9951 H 954.047 -5.00209 -0.880507 0
M  V30 9952 H 953.977 -4.57453 -2.60854 0
M  V30 9953 H 956.468 -3.46393 -1.51065 0
M  V30 9954 H 956.781 -7.31041 -2.50598 0
M  V30 9955 H 955.126 -6.57219 -2.26027 0
M  V30 9956 H 958.317 -4.32371 -1.79369 0
M  V30 9957 H 958.49 -6.07765 -2.24778 0
M  V30 9958 N 951.896 0.746133 -1.38819 0
M  V30 9959 C 952.826 1.87344 -1.39372 0
M  V30 9960 C 953.807 1.68123 -0.258583 0
M  V30 9961 O 954.992 1.88606 -0.462769 0
M  V30 9962 C 952.122 3.24962 -1.22543 0
M  V30 9963 C 951.076 3.58799 -2.33339 0
M  V30 9964 C 950.402 4.95235 -2.01609 0
M  V30 9965 C 951.702 3.62911 -3.75624 0
M  V30 9966 H 953.396 1.87138 -2.33709 0
M  V30 9967 H 950.942 0.898937 -1.12495 0
M  V30 9968 H 952.895 4.03488 -1.21554 0
M  V30 9969 H 951.619 3.25667 -0.246707 0
M  V30 9970 H 950.278 2.82596 -2.33527 0
M  V30 9971 H 949.926 4.92508 -1.02202 0
M  V30 9972 H 949.626 5.18843 -2.75819 0
M  V30 9973 H 951.15 5.76131 -2.02251 0
M  V30 9974 H 952.564 4.31535 -3.77426 0
M  V30 9975 H 950.961 3.98031 -4.491 0
M  V30 9976 H 952.031 2.62967 -4.07402 0
M  V30 9977 N 953.375 1.23811 0.975125 0
M  V30 9978 C 954.621 1.07495 1.71967 0
M  V30 9979 C 954.954 -0.386451 1.90316 0
M  V30 9980 O 954.229 -1.28591 1.45927 0
M  V30 9981 C 954.512 1.80694 3.11483 0
M  V30 9982 C 954.365 3.3454 3.00671 0
M  V30 9983 C 955.684 1.57367 4.11003 0
M  V30 9984 H 952.803 0.3919 0.624166 0
M  V30 9985 H 955.445 1.52383 1.13487 0
M  V30 9986 H 953.595 1.42538 3.61407 0
M  V30 9987 H 955.267 3.8225 2.5823 0
M  V30 9988 H 953.51 3.63301 2.37054 0
M  V30 9989 H 954.181 3.80951 3.99475 0
M  V30 9990 H 956.657 1.90545 3.69908 0
M  V30 9991 H 955.533 2.11052 5.06703 0
M  V30 9992 H 955.794 0.510221 4.39146 0
M  V30 9993 N 954.853 -1.17469 1.05066 0
M  V30 9994 C 955.816 -2.19648 0.654793 0
M  V30 9995 C 956.816 -1.58107 -0.293063 0
M  V30 9996 O 958.006 -1.74029 -0.077106 0
M  V30 9997 C 955.138 -3.40878 -0.0384437 0
M  V30 9998 H 956.331 -2.56184 1.55915 0
M  V30 9999 H 953.884 -1.31528 0.844396 0
M  V30 10000 H 954.619 -3.09885 -0.956133 0
M  V30 10001 H 954.404 -3.86792 0.642961 0
M  V30 10002 H 955.894 -4.1651 -0.301568 0
M  V30 10003 N 956.331 -0.831506 -1.3388 0
M  V30 10004 C 957.578 -0.423674 -1.98018 0
M  V30 10005 C 957.906 1.01533 -1.65895 0
M  V30 10006 O 957.161 1.72342 -0.927183 0
M  V30 10007 C 957.46 -0.582733 -3.52617 0
M  V30 10008 C 957.126 -1.98874 -4.04673 0
M  V30 10009 C 955.788 -2.37334 -4.186 0
M  V30 10010 C 958.14 -2.90745 -4.3257 0
M  V30 10011 C 955.468 -3.66984 -4.57755 0
M  V30 10012 C 957.82 -4.19868 -4.73174 0
M  V30 10013 C 956.484 -4.58294 -4.85307 0
M  V30 10014 H 955.754 -0.155033 -0.7246 0
M  V30 10015 H 958.401 -1.05711 -1.59679 0
M  V30 10016 H 956.706 0.134052 -3.91571 0
M  V30 10017 H 958.403 -0.247576 -4.00235 0
M  V30 10018 H 954.993 -1.68001 -3.94301 0
M  V30 10019 H 959.177 -2.62272 -4.2134 0
M  V30 10020 H 954.433 -3.9657 -4.65341 0
M  V30 10021 H 958.607 -4.91138 -4.93717 0
M  V30 10022 H 956.234 -5.58805 -5.15404 0
M  V30 10023 N 957.809 1.4625 -0.587256 0
M  V30 10024 C 959.034 2.07252 -0.0784517 0
M  V30 10025 C 959.459 1.43239 1.21919 0
M  V30 10026 O 958.817 0.517791 1.73749 0
M  V30 10027 C 958.865 3.60534 0.0691037 0
M  V30 10028 O 957.969 3.96773 1.12448 0
M  V30 10029 H 957.31 0.660825 -0.064859 0
M  V30 10030 H 959.84 1.87819 -0.811491 0
M  V30 10031 H 959.85 4.0708 0.273826 0
M  V30 10032 H 958.525 4.06516 -0.878514 0
M  V30 10033 H 957.102 3.6193 0.897852 0
M  V30 10034 N 959.287 0.325282 1.54207 0
M  V30 10035 C 960.512 -0.281418 2.05482 0
M  V30 10036 C 960.937 -1.44869 1.19977 0
M  V30 10037 O 960.295 -1.80088 0.209275 0
M  V30 10038 C 960.343 -0.692029 3.53897 0
M  V30 10039 O 959.447 -1.7942 3.71325 0
M  V30 10040 H 958.788 -0.0504872 0.662078 0
M  V30 10041 H 961.318 0.474191 1.99029 0
M  V30 10042 H 961.328 -0.974219 3.96198 0
M  V30 10043 H 960.003 0.161709 4.15586 0
M  V30 10044 H 958.58 -1.51069 3.40929 0
M  V30 10045 N 960.765 -1.57509 0.0534917 0
M  V30 10046 C 962.013 -1.92402 -0.618548 0
M  V30 10047 C 962.334 -0.93273 -1.71246 0
M  V30 10048 O 961.604 0.0220495 -1.95888 0
M  V30 10049 H 960.184 -0.710233 -0.23147 0
M  V30 10050 H 962.846 -1.94606 0.10704 0
M  V30 10051 H 961.942 -2.93704 -1.05566 0
M  V30 10052 N 962.243 0.219913 -1.56058 0
M  V30 10053 C 963.489 0.945463 -1.79412 0
M  V30 10054 C 963.822 1.83922 -0.62341 0
M  V30 10055 O 963.097 1.90806 0.377256 0
M  V30 10056 C 963.38 1.783 -3.1286 0
M  V30 10057 C 963.233 0.915626 -4.40382 0
M  V30 10058 C 964.552 2.76045 -3.42764 0
M  V30 10059 H 961.671 0.342288 -0.652693 0
M  V30 10060 H 964.313 0.214235 -1.88788 0
M  V30 10061 H 962.463 2.40642 -3.04998 0
M  V30 10062 H 964.135 0.30882 -4.60265 0
M  V30 10063 H 962.378 0.221124 -4.33236 0
M  V30 10064 H 963.049 1.53607 -5.30197 0
M  V30 10065 H 965.525 2.23838 -3.50764 0
M  V30 10066 H 964.401 3.31748 -4.37304 0
M  V30 10067 H 964.662 3.53866 -2.65012 0
M  V30 10068 N 963.721 1.49897 0.486681 0
M  V30 10069 C 964.631 1.70379 1.6127 0
M  V30 10070 C 965.647 0.58659 1.63814 0
M  V30 10071 O 966.823 0.863044 1.81971 0
M  V30 10072 C 963.888 1.77911 2.97571 0
M  V30 10073 C 962.949 3.01569 3.0554 0
M  V30 10074 C 962.182 3.08732 4.35339 0
M  V30 10075 O 962.405 2.23099 5.2496 0
M  V30 10076 O 961.339 4.01325 4.48578 0
M  V30 10077 H 965.165 2.65799 1.46916 0
M  V30 10078 H 962.75 1.33808 0.664516 0
M  V30 10079 H 964.632 1.85135 3.78554 0
M  V30 10080 H 963.307 0.856722 3.12157 0
M  V30 10081 H 962.214 2.99854 2.23693 0
M  V30 10082 H 963.547 3.93335 2.95886 0
M  V30 10083 N 965.199 -0.738761 1.39212 0
M  V30 10084 C 966.147 -1.8741 1.3777 0
M  V30 10085 C 967.141 -1.67371 0.261375 0
M  V30 10086 O 968.347 -1.74759 0.431209 0
M  V30 10087 H 964.722 -0.616843 0.430126 0
M  V30 10088 H 966.693 -1.85742 2.33543 0
M  V30 10089 C 965.442 -3.25053 1.23433 0
M  V30 10090 H 964.765 -3.41066 2.086 0
M  V30 10091 H 966.205 -4.04696 1.2648 0
M  V30 10092 C 964.664 -3.36851 -0.0575624 0
M  V30 10093 O 965.194 -3.88293 -1.02915 0
M  V30 10094 N 963.4 -2.90355 -0.119364 0
M  V30 10095 H 962.947 -2.48681 0.671976 0
M  V30 10096 H 962.905 -2.98628 -0.983286 0
M  V30 10097 N 966.677 -1.24326 -0.968545 0
M  V30 10098 C 968.088 -1.07561 -1.52603 0
M  V30 10099 C 968.439 0.353245 -1.92994 0
M  V30 10100 O 967.564 1.24151 -1.77244 0
M  V30 10101 C 968.159 -1.94634 -2.77314 0
M  V30 10102 C 966.718 -1.82095 -3.29421 0
M  V30 10103 C 965.865 -1.8962 -2.02335 0
M  V30 10104 H 968.816 -1.37815 -0.786932 0
M  V30 10105 H 968.837 -1.47812 -3.50616 0
M  V30 10106 H 968.349 -2.98621 -2.47885 0
M  V30 10107 H 966.45 -0.809376 -3.63703 0
M  V30 10108 H 966.563 -2.66142 -3.98378 0
M  V30 10109 H 964.927 -1.33339 -2.17009 0
M  V30 10110 H 965.71 -2.95185 -1.75273 0
M  V30 10111 N 968.156 1.1691 -1.05688 0
M  V30 10112 C 969.106 2.19056 -0.632339 0
M  V30 10113 C 970.09 1.574 0.333797 0
M  V30 10114 O 971.282 1.76361 0.150223 0
M  V30 10115 C 968.411 3.43297 -0.0138209 0
M  V30 10116 C 967.497 4.12042 -1.00408 0
M  V30 10117 N 967.888 4.56535 -2.17737 0
M  V30 10118 C 966.186 4.38139 -0.833663 0
M  V30 10119 C 966.887 5.09644 -2.80425 0
M  V30 10120 N 965.863 5.02153 -2.08191 0
M  V30 10121 H 969.665 2.51165 -1.52621 0
M  V30 10122 H 967.179 1.33294 -0.927707 0
M  V30 10123 H 969.176 4.1576 0.308117 0
M  V30 10124 H 967.836 3.12677 0.87538 0
M  V30 10125 H 968.847 4.50463 -2.55546 0
M  V30 10126 H 965.524 4.175 0.00406684 0
M  V30 10127 H 966.914 5.54153 -3.79952 0
M  V30 10128 N 969.634 0.838594 1.33437 0
M  V30 10129 C 970.882 0.433312 1.974 0
M  V30 10130 C 971.203 -1.01078 1.66758 0
M  V30 10131 O 970.473 -1.70406 0.966373 0
M  V30 10132 H 969.053 0.15724 0.730263 0
M  V30 10133 H 971.715 1.07149 1.62804 0
M  V30 10134 H 970.811 0.565144 3.06941 0
M  V30 10135 N 971.112 -1.45937 0.595003 0
M  V30 10136 C 972.358 -2.0262 0.0854317 0
M  V30 10137 C 972.691 -1.46402 -1.27594 0
M  V30 10138 O 971.966 -0.633823 -1.83883 0
M  V30 10139 C 972.249 -3.60085 0.0329075 0
M  V30 10140 C 972.102 -4.26663 1.42405 0
M  V30 10141 C 973.421 -4.35101 -0.661426 0
M  V30 10142 H 970.54 -0.736282 0.0325196 0
M  V30 10143 H 973.182 -1.73938 0.764563 0
M  V30 10144 H 971.332 -3.84652 -0.545439 0
M  V30 10145 H 973.004 -4.13321 2.04851 0
M  V30 10146 H 971.247 -3.85549 1.98833 0
M  V30 10147 H 971.918 -5.35497 1.33965 0
M  V30 10148 H 974.394 -4.15753 -0.169977 0
M  V30 10149 H 973.27 -5.44829 -0.667243 0
M  V30 10150 H 973.531 -4.07053 -1.72513 0
M  V30 10151 N 972.59 -0.333456 -1.54032 0
M  V30 10152 C 973.836 0.259248 -2.01741 0
M  V30 10153 C 974.191 1.48999 -1.21725 0
M  V30 10154 O 973.484 1.89333 -0.293882 0
M  V30 10155 C 973.678 0.63565 -3.51702 0
M  V30 10156 C 973.507 -0.55707 -4.46236 0
M  V30 10157 C 972.277 -1.05925 -4.94073 0
M  V30 10158 C 974.475 -1.41237 -4.94527 0
M  V30 10159 N 972.457 -2.21535 -5.72534 0
M  V30 10160 C 973.828 -2.41551 -5.71011 0
M  V30 10161 C 975.883 -1.43899 -4.76652 0
M  V30 10162 C 974.586 -3.44342 -6.31523 0
M  V30 10163 C 976.612 -2.45567 -5.38006 0
M  V30 10164 C 975.974 -3.44606 -6.1435 0
M  V30 10165 H 972.073 0.0584431 -0.779813 0
M  V30 10166 H 974.657 -0.470736 -1.88924 0
M  V30 10167 H 972.828 1.33475 -3.64745 0
M  V30 10168 H 974.56 1.21067 -3.86167 0
M  V30 10169 H 971.315 -0.628947 -4.69405 0
M  V30 10170 H 971.739 -2.79878 -6.16439 0
M  V30 10171 H 976.381 -0.686929 -4.17182 0
M  V30 10172 H 974.099 -4.20449 -6.90107 0
M  V30 10173 H 977.685 -2.4844 -5.26088 0
M  V30 10174 H 976.565 -4.21987 -6.60982 0
M  V30 10175 N 974.068 1.57479 -0.061844 0
M  V30 10176 C 975.031 2.1104 0.894127 0
M  V30 10177 C 976.031 1.03227 1.23292 0
M  V30 10178 O 977.221 1.29256 1.16784 0
M  V30 10179 C 974.353 2.6035 2.20069 0
M  V30 10180 H 975.546 2.96807 0.429619 0
M  V30 10181 H 973.099 1.55181 0.18672 0
M  V30 10182 H 973.834 1.78008 2.71079 0
M  V30 10183 H 973.619 3.39146 1.9678 0
M  V30 10184 H 975.109 3.019 2.88525 0
M  V30 10185 N 975.546 -0.211634 1.56173 0
M  V30 10186 C 976.792 -0.935935 1.79911 0
M  V30 10187 C 977.125 -1.83589 0.633155 0
M  V30 10188 O 976.4 -1.91004 -0.367132 0
M  V30 10189 C 976.683 -1.76638 3.13801 0
M  V30 10190 C 976.536 -0.892259 4.40861 0
M  V30 10191 C 977.855 -2.74224 3.44223 0
M  V30 10192 H 974.974 -0.338822 0.654499 0
M  V30 10193 H 977.616 -0.20422 1.88899 0
M  V30 10194 H 975.766 -2.39021 3.0627 0
M  V30 10195 H 977.438 -0.284407 4.60422 0
M  V30 10196 H 975.681 -0.198145 4.33347 0
M  V30 10197 H 976.352 -1.50793 5.31004 0
M  V30 10198 H 978.828 -2.21975 3.51946 0
M  V30 10199 H 977.704 -3.29424 4.39057 0
M  V30 10200 H 977.965 -3.52455 2.66885 0
M  V30 10201 N 977.024 -1.50153 -0.478725 0
M  V30 10202 C 978.252 -1.64505 -1.25482 0
M  V30 10203 C 978.667 -0.325295 -1.85977 0
M  V30 10204 O 978.024 0.691885 -1.68876 0
M  V30 10205 C 978.075 -2.73052 -2.36906 0
M  V30 10206 O 977.796 -3.99911 -1.78894 0
M  V30 10207 C 979.297 -2.98309 -3.27912 0
M  V30 10208 H 976.517 -0.55318 -0.379781 0
M  V30 10209 H 979.061 -1.96329 -0.57229 0
M  V30 10210 H 977.216 -2.43944 -3.00949 0
M  V30 10211 H 977.63 -4.5988 -2.52211 0
M  V30 10212 H 979.104 -3.77942 -4.02323 0
M  V30 10213 H 979.581 -2.09082 -3.8624 0
M  V30 10214 H 980.187 -3.2892 -2.69614 0
M  V30 10215 N 978.502 0.731368 -1.39602 0
M  V30 10216 C 979.918 1.03739 -1.21286 0
M  V30 10217 C 980.118 2.01353 -0.0769875 0
M  V30 10218 O 979.174 2.45978 0.570193 0
M  V30 10219 C 980.487 1.59621 -2.54837 0
M  V30 10220 C 982.035 1.71683 -2.61713 0
M  V30 10221 C 982.51 2.30973 -3.95494 0
M  V30 10222 N 984.001 2.38378 -3.97153 0
M  V30 10223 C 984.736 2.852 -4.97442 0
M  V30 10224 N 984.232 3.31891 -6.08129 0
M  V30 10225 N 986.025 2.84441 -4.84819 0
M  V30 10226 H 978.176 0.0840456 -2.12234 0
M  V30 10227 H 980.439 0.0999038 -0.942721 0
M  V30 10228 H 980.145 0.953608 -3.38525 0
M  V30 10229 H 980.019 2.58375 -2.74813 0
M  V30 10230 H 982.406 2.35064 -1.78406 0
M  V30 10231 H 982.487 0.715714 -2.45583 0
M  V30 10232 H 982.131 1.68219 -4.79234 0
M  V30 10233 H 982.061 3.31769 -4.08946 0
M  V30 10234 H 984.552 2.05382 -3.17217 0
M  V30 10235 H 984.865 3.66138 -6.8056 0
M  V30 10236 H 983.21 3.2989 -6.11717 0
M  V30 10237 H 986.401 2.4729 -3.97448 0
M  V30 10238 H 986.574 3.20616 -5.63124 0
M  V30 10239 N 979.98 1.24838 0.961938 0
M  V30 10240 C 981.228 1.08936 1.70227 0
M  V30 10241 C 981.549 -0.371582 1.91427 0
M  V30 10242 O 980.819 -1.26461 1.49614 0
M  V30 10243 H 979.399 0.400128 0.630799 0
M  V30 10244 H 982.061 1.56848 1.15692 0
M  V30 10245 H 981.157 1.59195 2.68446 0
M  V30 10246 N 981.458 -1.16348 1.06306 0
M  V30 10247 C 982.874 -1.38873 0.786543 0
M  V30 10248 C 983.074 -1.91915 -0.614061 0
M  V30 10249 O 982.13 -2.11804 -1.3746 0
M  V30 10250 C 983.443 -2.36936 1.85154 0
M  V30 10251 C 984.991 -2.5062 1.87506 0
M  V30 10252 C 985.466 -3.51965 2.9306 0
M  V30 10253 N 986.957 -3.59492 2.92095 0
M  V30 10254 C 987.692 -4.37699 3.70415 0
M  V30 10255 N 987.188 -5.19327 4.58553 0
M  V30 10256 N 988.981 -4.32683 3.58806 0
M  V30 10257 H 981.132 -0.802542 1.96655 0
M  V30 10258 H 983.395 -0.415304 0.852189 0
M  V30 10259 H 983.101 -2.05056 2.85736 0
M  V30 10260 H 982.975 -3.36585 1.70267 0
M  V30 10261 H 985.362 -2.81804 0.875827 0
M  V30 10262 H 985.443 -1.51006 2.06472 0
M  V30 10263 H 985.087 -3.21518 3.93177 0
M  V30 10264 H 985.017 -4.51309 2.71344 0
M  V30 10265 H 987.508 -3.01222 2.28197 0
M  V30 10266 H 987.821 -5.76216 5.1497 0
M  V30 10267 H 986.166 -5.1867 4.62608 0
M  V30 10268 H 989.357 -3.67971 2.89335 0
M  V30 10269 H 989.53 -4.93386 4.20088 0
M  V30 10270 N 982.937 -0.845659 -1.3299 0
M  V30 10271 C 984.353 -0.53433 -1.5039 0
M  V30 10272 C 984.553 0.936939 -1.78392 0
M  V30 10273 O 983.609 1.72043 -1.84818 0
M  V30 10274 C 984.922 -1.41354 -2.65404 0
M  V30 10275 C 986.47 -1.41303 -2.79289 0
M  V30 10276 C 986.945 -2.27724 -3.97373 0
M  V30 10277 N 988.436 -2.25471 -4.0462 0
M  V30 10278 C 989.171 -2.89074 -4.95201 0
M  V30 10279 N 988.667 -3.61755 -5.90851 0
M  V30 10280 N 990.46 -2.78508 -4.88251 0
M  V30 10281 H 982.611 -1.79798 -1.13078 0
M  V30 10282 H 984.874 -0.767454 -0.556524 0
M  V30 10283 H 984.58 -2.45936 -2.51413 0
M  V30 10284 H 984.454 -1.09445 -3.60973 0
M  V30 10285 H 986.841 -0.374899 -2.92709 0
M  V30 10286 H 986.922 -1.77222 -1.84461 0
M  V30 10287 H 986.566 -3.316 -3.84713 0
M  V30 10288 H 986.496 -1.89142 -4.9146 0
M  V30 10289 H 988.987 -1.72622 -3.3617 0
M  V30 10290 H 989.3 -4.07475 -6.56646 0
M  V30 10291 H 987.645 -3.65863 -5.90906 0
M  V30 10292 H 990.836 -2.21285 -4.12493 0
M  V30 10293 H 991.009 -3.2836 -5.58645 0
M  V30 10294 N 984.415 1.45619 -0.602734 0
M  V30 10295 C 985.655 2.0416 -0.0989764 0
M  V30 10296 C 986.019 1.4616 1.24504 0
M  V30 10297 O 987.22 1.96025 1.83923 0
M  V30 10298 C 985.491 3.57357 -0.0551869 0
M  V30 10299 S 987.05 4.3708 0.388086 0
M  V30 10300 H 983.868 0.709431 -0.0472054 0
M  V30 10301 H 986.47 1.78394 -0.799745 0
M  V30 10302 H 985.174 3.97083 -1.03697 0
M  V30 10303 H 984.705 3.87692 0.667727 0
M  V30 10304 H 986.72 4.68362 1.63865 0
M  V30 10305 N 985.893 0.34162 1.53853 0
M  V30 10306 C 986.856 -0.503541 2.236 0
M  V30 10307 C 987.856 -1.02912 1.23554 0
M  V30 10308 O 989.046 -0.918678 1.48007 0
M  V30 10309 C 986.178 -1.70126 2.95415 0
M  V30 10310 H 987.371 0.106437 2.99711 0
M  V30 10311 H 984.924 0.0929408 1.56023 0
M  V30 10312 H 985.659 -2.34999 2.23486 0
M  V30 10313 H 985.444 -1.33161 3.68796 0
M  V30 10314 H 986.934 -2.30077 3.48503 0
M  V30 10315 N 987.371 -1.57444 0.0701946 0
M  V30 10316 C 988.301 -2.15659 -0.895176 0
M  V30 10317 C 989.282 -1.08321 -1.31151 0
M  V30 10318 O 990.467 -1.36349 -1.38284 0
M  V30 10319 C 987.597 -2.71693 -2.16334 0
M  V30 10320 C 986.551 -3.84183 -1.88645 0
M  V30 10321 C 985.877 -4.26814 -3.22078 0
M  V30 10322 C 987.177 -5.08493 -1.19299 0
M  V30 10323 H 988.871 -2.96576 -0.410217 0
M  V30 10324 H 986.417 -1.42662 -0.195872 0
M  V30 10325 H 988.37 -3.11064 -2.84284 0
M  V30 10326 H 987.094 -1.87994 -2.67069 0
M  V30 10327 H 985.753 -3.45314 -1.23101 0
M  V30 10328 H 985.401 -3.40039 -3.70651 0
M  V30 10329 H 985.101 -5.02642 -3.04344 0
M  V30 10330 H 986.625 -4.68799 -3.91228 0
M  V30 10331 H 988.039 -5.4519 -1.77316 0
M  V30 10332 H 986.436 -5.89588 -1.11828 0
M  V30 10333 H 987.506 -4.84595 -0.171839 0
M  V30 10334 N 988.849 0.203349 -1.56283 0
M  V30 10335 C 989.812 1.23566 -1.93039 0
M  V30 10336 C 990.812 1.38869 -0.810687 0
M  V30 10337 O 992.002 1.36822 -1.07821 0
M  V30 10338 C 989.134 2.60645 -2.1972 0
M  V30 10339 H 990.327 0.921692 -2.85385 0
M  V30 10340 H 987.88 0.44453 -1.49845 0
M  V30 10341 H 988.615 2.9711 -1.29985 0
M  V30 10342 H 988.4 2.50911 -3.01307 0
M  V30 10343 H 989.89 3.35103 -2.4919 0
M  V30 10344 N 990.327 1.50405 0.470755 0
M  V30 10345 C 991.257 1.72222 1.57676 0
M  V30 10346 C 992.238 0.57121 1.60222 0
M  V30 10347 O 993.423 0.810381 1.76484 0
M  V30 10348 C 990.553 1.81666 2.95998 0
M  V30 10349 C 989.507 2.96857 3.08318 0
M  V30 10350 C 988.833 2.91445 4.4829 0
M  V30 10351 C 990.133 4.37361 2.85504 0
M  V30 10352 H 991.827 2.64825 1.39671 0
M  V30 10353 H 989.373 1.27438 0.67049 0
M  V30 10354 H 991.326 1.95514 3.73299 0
M  V30 10355 H 990.05 0.856856 3.1516 0
M  V30 10356 H 988.709 2.82661 2.33449 0
M  V30 10357 H 988.357 1.93309 4.64371 0
M  V30 10358 H 988.057 3.68776 4.57469 0
M  V30 10359 H 989.581 3.07341 5.27611 0
M  V30 10360 H 990.995 4.52081 3.52555 0
M  V30 10361 H 989.392 5.16145 3.06127 0
M  V30 10362 H 990.462 4.49708 1.81359 0
M  V30 10363 N 991.805 -0.723954 1.39988 0
M  V30 10364 C 993.051 -1.48476 1.3902 0
M  V30 10365 C 993.406 -1.92397 -0.0105439 0
M  V30 10366 O 992.699 -1.64683 -0.979294 0
M  V30 10367 C 992.893 -2.73004 2.30659 0
M  V30 10368 C 992.722 -2.41261 3.79504 0
M  V30 10369 C 991.492 -2.33013 4.48367 0
M  V30 10370 C 993.69 -2.06078 4.71207 0
M  V30 10371 N 991.672 -1.93856 5.82489 0
M  V30 10372 C 993.043 -1.77455 5.94062 0
M  V30 10373 C 995.098 -1.92642 4.59123 0
M  V30 10374 C 993.801 -1.36748 7.06182 0
M  V30 10375 C 995.827 -1.53338 5.71175 0
M  V30 10376 C 995.189 -1.25607 6.93111 0
M  V30 10377 H 991.288 -0.54172 0.563971 0
M  V30 10378 H 993.872 -0.840344 1.75631 0
M  V30 10379 H 992.043 -3.35209 1.96188 0
M  V30 10380 H 993.775 -3.39286 2.20606 0
M  V30 10381 H 990.53 -2.50476 4.01944 0
M  V30 10382 H 990.954 -1.7684 6.53496 0
M  V30 10383 H 995.596 -2.12745 3.65376 0
M  V30 10384 H 993.314 -1.15386 7.9982 0
M  V30 10385 H 996.9 -1.43532 5.63817 0
M  V30 10386 H 995.78 -0.956505 7.78345 0
M  V30 10387 N 993.283 -1.25346 -0.955304 0
M  V30 10388 C 994.233 -1.02358 -2.03732 0
M  V30 10389 C 995.217 0.0392941 -1.60852 0
M  V30 10390 O 996.409 -0.175959 -1.76123 0
M  V30 10391 C 993.538 -0.643552 -3.37214 0
M  V30 10392 C 992.624 -1.74315 -3.8662 0
M  V30 10393 N 993.015 -2.97816 -4.08827 0
M  V30 10394 C 991.313 -1.62351 -4.15401 0
M  V30 10395 C 992.014 -3.69185 -4.4953 0
M  V30 10396 N 990.99 -2.96803 -4.55422 0
M  V30 10397 H 994.792 -1.96119 -2.18894 0
M  V30 10398 H 992.306 -1.15655 -1.14007 0
M  V30 10399 H 994.303 -0.460053 -4.14354 0
M  V30 10400 H 992.963 0.286738 -3.23431 0
M  V30 10401 H 993.974 -3.33868 -3.95919 0
M  V30 10402 H 990.651 -0.762133 -4.10485 0
M  V30 10403 H 992.041 -4.7519 -4.7502 0
M  V30 10404 N 994.761 1.15782 -1.06922 0
M  V30 10405 C 995.989 1.90355 -0.81072 0
M  V30 10406 C 996.404 1.77779 0.635614 0
M  V30 10407 O 995.761 1.12675 1.43564 0
M  V30 10408 C 995.812 3.4085 -1.2043 0
M  V30 10409 O 995.533 3.53057 -2.59388 0
M  V30 10410 C 997.034 4.32457 -0.974473 0
M  V30 10411 H 994.254 0.60343 -0.293451 0
M  V30 10412 H 996.798 1.46723 -1.42452 0
M  V30 10413 H 994.953 3.82162 -0.634909 0
M  V30 10414 H 995.367 4.46426 -2.75326 0
M  V30 10415 H 996.841 5.36488 -1.29942 0
M  V30 10416 H 997.318 4.39109 0.0894481 0
M  V30 10417 H 997.924 3.96882 -1.52856 0
M  V30 10418 N 996.239 0.8527 1.3254 0
M  V30 10419 C 997.485 0.46507 1.98012 0
M  V30 10420 C 997.84 -0.968179 1.66265 0
M  V30 10421 O 997.133 -1.66985 0.9395 0
M  V30 10422 C 997.327 0.638757 3.51646 0
M  V30 10423 C 997.156 2.08734 3.98322 0
M  V30 10424 C 995.926 2.72544 4.25497 0
M  V30 10425 C 998.124 3.0577 4.13533 0
M  V30 10426 N 996.106 4.08333 4.58408 0
M  V30 10427 C 997.477 4.26542 4.49958 0
M  V30 10428 C 999.532 3.01991 3.95861 0
M  V30 10429 C 998.235 5.4403 4.70557 0
M  V30 10430 C 1000.26 4.18722 4.17643 0
M  V30 10431 C 999.623 5.38252 4.54383 0
M  V30 10432 H 995.722 0.218881 0.750743 0
M  V30 10433 H 998.306 1.10368 1.60397 0
M  V30 10434 H 996.477 0.0298629 3.88389 0
M  V30 10435 H 998.209 0.221215 4.04095 0
M  V30 10436 H 994.964 2.23594 4.17496 0
M  V30 10437 H 995.388 4.78372 4.79051 0
M  V30 10438 H 1000.03 2.107 3.66559 0
M  V30 10439 H 997.748 6.35854 4.98714 0
M  V30 10440 H 1001.33 4.17232 4.05474 0
M  V30 10441 H 1000.21 6.27075 4.709 0
M  V30 10442 N 997.718 -1.45297 0.610449 0
M  V30 10443 C 998.681 -2.28995 -0.0968194 0
M  V30 10444 C 999.681 -1.39923 -0.792353 0
M  V30 10445 O 1000.87 -1.62014 -0.64008 0
M  V30 10446 C 998.003 -3.21013 -1.14731 0
M  V30 10447 H 999.196 -2.93012 0.639082 0
M  V30 10448 H 996.749 -1.51867 0.369624 0
M  V30 10449 H 997.484 -2.61803 -1.91388 0
M  V30 10450 H 997.269 -3.86628 -0.652753 0
M  V30 10451 H 998.759 -3.8394 -1.64256 0
M  V30 10452 N 999.196 -0.349774 -1.5367 0
M  V30 10453 C 1000.61 0.132815 -1.86227 0
M  V30 10454 C 1000.96 1.49479 -1.27084 0
M  V30 10455 O 1000.08 2.08292 -0.58679 0
M  V30 10456 C 1000.68 0.247775 -3.37893 0
M  V30 10457 C 999.237 0.674603 -3.70305 0
M  V30 10458 C 998.384 -0.187869 -2.76663 0
M  V30 10459 H 1001.33 -0.569148 -1.48143 0
M  V30 10460 H 1001.36 1.07418 -3.65023 0
M  V30 10461 H 1000.87 -0.743635 -3.80909 0
M  V30 10462 H 998.969 1.67481 -3.32837 0
M  V30 10463 H 999.082 0.460177 -4.76885 0
M  V30 10464 H 997.446 0.340779 -2.5241 0
M  V30 10465 H 998.229 -1.17653 -3.2251 0
M  V30 10466 N 1000.67 1.57404 -0.0785433 0
M  V30 10467 C 1001.58 2.16612 0.900902 0
M  V30 10468 C 1002.6 1.13109 1.32221 0
M  V30 10469 O 1003.78 1.45406 1.39352 0
M  V30 10470 C 1000.84 2.7215 2.14791 0
M  V30 10471 C 999.902 3.90551 1.78237 0
M  V30 10472 C 999.135 4.43431 2.96993 0
M  V30 10473 O 999.358 3.95292 4.11218 0
M  V30 10474 O 998.292 5.34674 2.76418 0
M  V30 10475 H 1002.12 3.0068 0.427227 0
M  V30 10476 H 999.703 1.48696 0.144902 0
M  V30 10477 H 1001.58 3.07718 2.87902 0
M  V30 10478 H 1000.26 1.91139 2.61243 0
M  V30 10479 H 999.167 3.59825 1.02357 0
M  V30 10480 H 1000.5 4.72876 1.36562 0
M  V30 10481 N 1002.15 -0.195058 1.56388 0
M  V30 10482 C 1003.1 -1.24584 1.90952 0
M  V30 10483 C 1004.09 -1.40993 0.77522 0
M  V30 10484 O 1005.28 -1.43363 1.03808 0
M  V30 10485 C 1002.41 -2.59064 2.25258 0
M  V30 10486 C 1001.49 -2.46447 3.45145 0
M  V30 10487 N 1001.88 -2.0351 4.63052 0
M  V30 10488 C 1000.18 -2.77339 3.49283 0
M  V30 10489 C 1000.88 -2.02785 5.45209 0
M  V30 10490 N 999.859 -2.4429 4.85616 0
M  V30 10491 H 1003.66 -0.9052 2.79613 0
M  V30 10492 H 1001.17 -0.403493 1.57308 0
M  V30 10493 H 1003.17 -3.34963 2.48205 0
M  V30 10494 H 1001.83 -2.93951 1.37924 0
M  V30 10495 H 1002.84 -1.74219 4.87717 0
M  V30 10496 H 999.52 -3.16423 2.72365 0
M  V30 10497 H 1000.91 -1.71489 6.49647 0
M  V30 10498 N 1003.63 -1.50653 -0.462772 0
M  V30 10499 C 1005.05 -1.38263 -0.797213 0
M  V30 10500 C 1005.25 -0.445172 -1.96521 0
M  V30 10501 O 1004.3 0.10913 -2.52264 0
M  V30 10502 C 1005.61 -2.798 -1.10146 0
M  V30 10503 C 1007.16 -2.88774 -1.20742 0
M  V30 10504 C 1007.64 -4.31163 -1.54476 0
M  V30 10505 N 1009.13 -4.34152 -1.61451 0
M  V30 10506 C 1009.86 -5.4133 -1.89074 0
M  V30 10507 N 1009.36 -6.58705 -2.1466 0
M  V30 10508 N 1011.15 -5.28783 -1.90645 0
M  V30 10509 H 1003.3 -2.10172 0.30684 0
M  V30 10510 H 1005.57 -0.945046 0.0747862 0
M  V30 10511 H 1005.27 -3.50276 -0.316207 0
M  V30 10512 H 1005.15 -3.17559 -2.03559 0
M  V30 10513 H 1007.53 -2.18512 -1.98334 0
M  V30 10514 H 1007.61 -2.54547 -0.252904 0
M  V30 10515 H 1007.26 -5.01965 -0.774207 0
M  V30 10516 H 1007.19 -4.62883 -2.51092 0
M  V30 10517 H 1009.68 -3.49519 -1.43684 0
M  V30 10518 H 1009.99 -7.36192 -2.35035 0
M  V30 10519 H 1008.34 -6.61866 -2.12035 0
M  V30 10520 H 1011.53 -4.36078 -1.70158 0
M  V30 10521 H 1011.7 -6.12396 -2.11836 0
M  V30 10522 N 1005.11 0.71652 -1.4037 0
M  V30 10523 C 1006.02 1.86074 -1.42876 0
M  V30 10524 C 1007.03 1.71005 -0.321475 0
M  V30 10525 O 1008.21 1.93286 -0.565909 0
M  V30 10526 C 1005.28 3.21862 -1.28863 0
M  V30 10527 C 1004.34 3.49193 -2.49726 0
M  V30 10528 C 1003.57 4.78502 -2.36372 0
M  V30 10529 O 1003.79 5.53529 -1.37703 0
M  V30 10530 O 1002.73 5.06147 -3.25728 0
M  V30 10531 H 1006.55 1.86916 -2.39366 0
M  V30 10532 H 1004.14 0.866818 -1.21683 0
M  V30 10533 H 1006.02 4.02972 -1.23253 0
M  V30 10534 H 1004.69 3.2175 -0.354783 0
M  V30 10535 H 1003.6 2.68095 -2.60913 0
M  V30 10536 H 1004.93 3.54101 -3.41868 0
M  V30 10537 N 1006.59 1.25851 0.948643 0
M  V30 10538 C 1007.52 1.02549 2.04979 0
M  V30 10539 C 1008.53 -0.0115923 1.62796 0
M  V30 10540 O 1009.72 0.227643 1.77042 0
M  V30 10541 C 1006.82 0.529486 3.34738 0
M  V30 10542 C 1005.99 1.6341 4.05729 0
M  V30 10543 C 1005.05 1.13743 5.1376 0
M  V30 10544 O 1004.08 1.83303 5.38877 0
M  V30 10545 N 1005.28 -0.0181151 5.80497 0
M  V30 10546 H 1008.05 1.97365 2.25537 0
M  V30 10547 H 1005.61 1.17137 1.11761 0
M  V30 10548 H 1007.6 0.181566 4.04293 0
M  V30 10549 H 1006.17 -0.324893 3.10907 0
M  V30 10550 H 1005.39 2.15331 3.30191 0
M  V30 10551 H 1006.68 2.37603 4.49914 0
M  V30 10552 H 1006.07 -0.599198 5.62518 0
M  V30 10553 H 1004.63 -0.307019 6.51077 0
M  V30 10554 N 1008.06 -1.15214 1.07534 0
M  V30 10555 C 1008.97 -2.23636 0.708818 0
M  V30 10556 C 1009.99 -1.7172 -0.280759 0
M  V30 10557 O 1011.17 -2.01 -0.126927 0
M  V30 10558 C 1008.23 -3.46512 0.114167 0
M  V30 10559 C 1007.29 -4.13409 1.15722 0
M  V30 10560 C 1006.53 -5.30419 0.59085 0
M  V30 10561 O 1006.75 -5.67314 -0.592512 0
M  V30 10562 O 1005.68 -5.86871 1.33663 0
M  V30 10563 H 1009.51 -2.57322 1.61305 0
M  V30 10564 H 1007.09 -1.22972 0.848422 0
M  V30 10565 H 1008.98 -4.20851 -0.215091 0
M  V30 10566 H 1007.65 -3.1457 -0.763356 0
M  V30 10567 H 1006.56 -3.40984 1.53886 0
M  V30 10568 H 1007.89 -4.49435 2.00671 0
M  V30 10569 N 1009.54 -0.859717 -1.32086 0
M  V30 10570 C 1010.79 -0.475565 -1.97762 0
M  V30 10571 C 1011.14 0.959348 -1.66776 0
M  V30 10572 O 1010.44 1.66484 -0.948343 0
M  V30 10573 C 1010.63 -0.657397 -3.51302 0
M  V30 10574 C 1010.46 -2.10843 -3.97209 0
M  V30 10575 C 1009.23 -2.74796 -4.24046 0
M  V30 10576 C 1011.43 -3.07959 -4.11905 0
M  V30 10577 N 1009.41 -4.10758 -4.56236 0
M  V30 10578 C 1010.78 -4.28922 -4.4769 0
M  V30 10579 C 1012.84 -3.04086 -3.94254 0
M  V30 10580 C 1011.54 -5.46518 -4.67665 0
M  V30 10581 C 1013.56 -4.20931 -4.15416 0
M  V30 10582 C 1012.93 -5.40654 -4.51522 0
M  V30 10583 H 1009.03 -0.222859 -0.749572 0
M  V30 10584 H 1011.61 -1.11217 -1.59809 0
M  V30 10585 H 1009.78 -0.0504597 -3.88367 0
M  V30 10586 H 1011.51 -0.242642 -4.03972 0
M  V30 10587 H 1008.27 -2.25805 -4.16304 0
M  V30 10588 H 1008.69 -4.80905 -4.76507 0
M  V30 10589 H 1013.33 -2.12641 -3.65436 0
M  V30 10590 H 1011.05 -6.3849 -4.95335 0
M  V30 10591 H 1014.64 -4.19376 -4.03255 0
M  V30 10592 H 1013.52 -6.29563 -4.67568 0
M  V30 10593 N 1011.02 1.44971 -0.618145 0
M  V30 10594 C 1012.27 2.01372 -0.115004 0
M  V30 10595 C 1012.58 1.49104 1.26599 0
M  V30 10596 O 1013.79 1.97549 1.86244 0
M  V30 10597 C 1012.24 3.59567 -0.154883 0
M  V30 10598 C 1011.85 4.20832 -1.53639 0
M  V30 10599 C 1013.6 4.23491 0.292468 0
M  V30 10600 C 1011.5 5.7121 -1.53208 0
M  V30 10601 H 1010.43 0.752979 -0.0392267 0
M  V30 10602 H 1013.08 1.66329 -0.775032 0
M  V30 10603 H 1011.47 3.91847 0.572001 0
M  V30 10604 H 1012.64 4.00109 -2.28582 0
M  V30 10605 H 1010.96 3.69143 -1.92672 0
M  V30 10606 H 1013.55 5.33771 0.315032 0
M  V30 10607 H 1013.9 3.9491 1.31725 0
M  V30 10608 H 1014.43 3.95967 -0.381493 0
M  V30 10609 H 1011.17 6.04506 -2.53481 0
M  V30 10610 H 1010.69 5.94094 -0.825387 0
M  V30 10611 H 1012.37 6.34606 -1.26032 0
M  V30 10612 N 1012.5 0.357919 1.53482 0
M  V30 10613 C 1013.41 -0.500273 2.29204 0
M  V30 10614 C 1014.42 -1.09936 1.3487 0
M  V30 10615 O 1015.6 -1.11195 1.67921 0
M  V30 10616 C 1012.67 -1.62828 3.06085 0
M  V30 10617 C 1011.73 -1.05751 4.16071 0
M  V30 10618 C 1010.96 -2.13176 4.89277 0
M  V30 10619 O 1011.18 -3.34153 4.62274 0
M  V30 10620 O 1010.12 -1.76663 5.7539 0
M  V30 10621 H 1013.94 0.115696 3.0348 0
M  V30 10622 H 1011.53 0.122527 1.48897 0
M  V30 10623 H 1013.41 -2.28427 3.54117 0
M  V30 10624 H 1012.08 -2.22979 2.34653 0
M  V30 10625 H 1010.99 -0.365642 3.72309 0
M  V30 10626 H 1012.32 -0.500661 4.89647 0
M  V30 10627 N 1013.98 -1.5736 0.0868897 0
M  V30 10628 C 1014.94 -2.12436 -0.860439 0
M  V30 10629 C 1015.94 -1.05175 -1.21634 0
M  V30 10630 O 1017.13 -1.31098 -1.14713 0
M  V30 10631 C 1014.26 -2.63818 -2.159 0
M  V30 10632 H 1015.45 -2.97453 -0.382346 0
M  V30 10633 H 1013.01 -1.55458 -0.162009 0
M  V30 10634 H 1013.74 -1.82298 -2.68212 0
M  V30 10635 H 1013.53 -3.42234 -1.91359 0
M  V30 10636 H 1015.02 -3.06452 -2.83685 0
M  V30 10637 N 1015.45 0.186762 -1.56489 0
M  V30 10638 C 1016.4 1.23141 -1.95205 0
M  V30 10639 C 1017.37 1.44799 -0.81378 0
M  V30 10640 O 1018.56 1.57795 -1.07263 0
M  V30 10641 C 1015.7 2.56926 -2.30397 0
M  V30 10642 C 1014.81 2.42777 -3.57328 0
M  V30 10643 C 1013.94 3.69323 -3.81804 0
M  V30 10644 C 1012.98 3.50041 -5.02133 0
M  V30 10645 N 1012.12 4.68619 -5.2282 0
M  V30 10646 H 1016.96 0.894256 -2.84266 0
M  V30 10647 H 1014.5 0.430187 -1.40669 0
M  V30 10648 H 1016.46 3.3488 -2.4882 0
M  V30 10649 H 1015.09 2.88668 -1.44466 0
M  V30 10650 H 1014.14 1.56078 -3.46906 0
M  V30 10651 H 1015.45 2.24468 -4.45439 0
M  V30 10652 H 1014.6 4.55715 -4.00511 0
M  V30 10653 H 1013.34 3.90595 -2.92039 0
M  V30 10654 H 1012.35 2.62034 -4.8334 0
M  V30 10655 H 1013.57 3.30206 -5.93414 0
M  V30 10656 H 1011.52 4.90139 -4.36005 0
M  V30 10657 H 1011.44 4.53165 -6.05126 0
M  V30 10658 H 1012.7 5.56338 -5.45993 0
M  V30 10659 N 1016.93 1.50896 0.454776 0
M  V30 10660 C 1017.84 1.73762 1.5762 0
M  V30 10661 C 1018.86 0.621206 1.62533 0
M  V30 10662 O 1020.03 0.901449 1.801 0
M  V30 10663 C 1017.1 1.84183 2.9373 0
M  V30 10664 C 1016.16 3.07982 2.99075 0
M  V30 10665 C 1015.39 3.17896 4.28693 0
M  V30 10666 O 1015.62 2.34184 5.20109 0
M  V30 10667 O 1014.55 4.10749 4.39964 0
M  V30 10668 H 1018.38 2.68856 1.41245 0
M  V30 10669 H 1015.96 1.35187 0.635984 0
M  V30 10670 H 1017.84 1.93123 3.74542 0
M  V30 10671 H 1016.52 0.922742 3.10269 0
M  V30 10672 H 1015.43 3.04531 2.17282 0
M  V30 10673 H 1016.76 3.99523 2.87476 0
M  V30 10674 N 1018.41 -0.709066 1.40748 0
M  V30 10675 C 1019.34 -1.83583 1.4429 0
M  V30 10676 C 1020.32 -1.67378 0.303067 0
M  V30 10677 O 1021.51 -1.87312 0.512612 0
M  V30 10678 C 1018.64 -3.21599 1.31116 0
M  V30 10679 C 1017.59 -3.52486 2.4277 0
M  V30 10680 C 1016.92 -4.89716 2.14668 0
M  V30 10681 C 1018.22 -3.52824 3.85113 0
M  V30 10682 H 1019.91 -1.80876 2.38588 0
M  V30 10683 H 1017.46 -0.868795 1.14839 0
M  V30 10684 H 1019.41 -4.00123 1.32209 0
M  V30 10685 H 1018.13 -3.24898 0.332965 0
M  V30 10686 H 1016.79 -2.76305 2.40937 0
M  V30 10687 H 1016.44 -4.89625 1.15224 0
M  V30 10688 H 1016.14 -5.11347 2.89478 0
M  V30 10689 H 1017.66 -5.70566 2.17455 0
M  V30 10690 H 1019.08 -4.21377 3.88734 0
M  V30 10691 H 1017.48 -3.85984 4.59496 0
M  V30 10692 H 1018.55 -2.52073 4.14231 0
M  V30 10693 N 1019.89 -1.26353 -0.941956 0
M  V30 10694 C 1020.82 -1.10341 -2.05784 0
M  V30 10695 C 1021.8 -0.00881565 -1.70098 0
M  V30 10696 O 1022.99 -0.180699 -1.93357 0
M  V30 10697 C 1020.12 -0.734788 -3.39438 0
M  V30 10698 C 1019.07 -1.78103 -3.89183 0
M  V30 10699 C 1018.4 -1.26675 -5.19478 0
M  V30 10700 C 1019.7 -3.1824 -4.14151 0
M  V30 10701 H 1021.39 -2.03684 -2.19438 0
M  V30 10702 H 1018.94 -0.980698 -1.05443 0
M  V30 10703 H 1020.89 -0.609653 -4.16967 0
M  V30 10704 H 1019.61 0.234354 -3.25758 0
M  V30 10705 H 1018.27 -1.89482 -3.13835 0
M  V30 10706 H 1017.92 -0.287472 -5.02178 0
M  V30 10707 H 1017.62 -1.96612 -5.53731 0
M  V30 10708 H 1019.14 -1.15427 -5.99591 0
M  V30 10709 H 1020.56 -3.09942 -4.82296 0
M  V30 10710 H 1018.95 -3.8576 -4.59684 0
M  V30 10711 H 1020.02 -3.64354 -3.19959 0
M  V30 10712 N 1021.37 1.14642 -1.08144 0
M  V30 10713 C 1022.3 2.19283 -0.6669 0
M  V30 10714 C 1023.31 1.60292 0.284668 0
M  V30 10715 O 1024.5 1.78352 0.0727383 0
M  V30 10716 C 1021.6 3.38877 0.0398572 0
M  V30 10717 C 1020.77 4.274 -0.929929 0
M  V30 10718 C 1019.83 5.25562 -0.258991 0
M  V30 10719 O 1018.86 5.61999 -0.902563 0
M  V30 10720 N 1020.06 5.71958 0.992177 0
M  V30 10721 H 1022.83 2.55464 -1.5671 0
M  V30 10722 H 1020.39 1.29836 -0.96717 0
M  V30 10723 H 1022.38 4.01605 0.499583 0
M  V30 10724 H 1020.95 3.01043 0.842118 0
M  V30 10725 H 1020.17 3.61649 -1.56857 0
M  V30 10726 H 1021.46 4.83411 -1.58717 0
M  V30 10727 H 1020.86 5.44481 1.53484 0
M  V30 10728 H 1019.41 6.36687 1.39544 0
M  V30 10729 N 1022.85 0.866709 1.31628 0
M  V30 10730 C 1023.76 0.323408 2.3236 0
M  V30 10731 C 1024.77 -0.564995 1.64572 0
M  V30 10732 O 1025.95 -0.462489 1.96018 0
M  V30 10733 C 1023.01 -0.469045 3.43513 0
M  V30 10734 C 1022.07 0.446928 4.26967 0
M  V30 10735 C 1021.31 -0.307799 5.32812 0
M  V30 10736 O 1021.53 -1.5363 5.49321 0
M  V30 10737 O 1020.46 0.332653 6.0098 0
M  V30 10738 H 1024.29 1.15827 2.80745 0
M  V30 10739 H 1021.87 0.629987 1.35468 0
M  V30 10740 H 1023.76 -0.918405 4.1127 0
M  V30 10741 H 1022.43 -1.28051 2.97296 0
M  V30 10742 H 1021.34 0.944719 3.61975 0
M  V30 10743 H 1022.67 1.2239 4.76741 0
M  V30 10744 N 1024.32 -1.44642 0.625825 0
M  V30 10745 C 1025.55 -2.06971 0.133373 0
M  V30 10746 C 1025.97 -1.46421 -1.18078 0
M  V30 10747 O 1025.33 -0.563676 -1.72315 0
M  V30 10748 C 1025.38 -3.6059 0.0265097 0
M  V30 10749 O 1024.48 -3.99615 -1.01889 0
M  V30 10750 H 1023.82 -0.658873 0.0823568 0
M  V30 10751 H 1026.35 -1.85601 0.861002 0
M  V30 10752 H 1026.36 -4.07663 -0.1658 0
M  V30 10753 H 1025.04 -4.04043 0.985986 0
M  V30 10754 H 1023.62 -3.64183 -0.801577 0
M  V30 10755 N 1025.8 -0.366053 -1.5329 0
M  V30 10756 C 1026.73 0.514916 -2.23341 0
M  V30 10757 C 1027.75 1.04579 -1.24768 0
M  V30 10758 O 1028.94 0.952084 -1.50989 0
M  V30 10759 C 1026.04 1.72374 -2.91788 0
M  V30 10760 C 1025.21 1.32429 -4.16871 0
M  V30 10761 C 1024.27 2.39524 -4.68524 0
M  V30 10762 O 1023.29 2.01895 -5.32191 0
M  V30 10763 N 1024.5 3.71116 -4.46378 0
M  V30 10764 H 1027.26 -0.0851272 -2.99579 0
M  V30 10765 H 1024.82 -0.191255 -1.60766 0
M  V30 10766 H 1026.81 2.43496 -3.23252 0
M  V30 10767 H 1025.38 2.23064 -2.19 0
M  V30 10768 H 1024.6 0.442901 -3.91704 0
M  V30 10769 H 1025.89 1.03372 -4.98188 0
M  V30 10770 H 1025.29 4.04463 -3.95508 0
M  V30 10771 H 1023.85 4.38341 -4.82391 0
M  V30 10772 N 1027.28 1.57312 -0.0952337 0
M  V30 10773 C 1028.19 2.17556 0.877877 0
M  V30 10774 C 1029.21 1.14505 1.31014 0
M  V30 10775 O 1030.38 1.46876 1.37802 0
M  V30 10776 C 1027.45 2.74413 2.11892 0
M  V30 10777 C 1026.51 3.92419 1.74085 0
M  V30 10778 C 1025.74 4.46556 2.92273 0
M  V30 10779 O 1025.96 3.99631 4.07002 0
M  V30 10780 O 1024.9 5.37576 2.70732 0
M  V30 10781 H 1028.72 3.01116 0.395312 0
M  V30 10782 H 1026.31 1.48841 0.129123 0
M  V30 10783 H 1028.19 3.10754 2.84622 0
M  V30 10784 H 1026.87 1.93899 2.59201 0
M  V30 10785 H 1025.77 3.6089 0.985346 0
M  V30 10786 H 1027.11 4.74298 1.31539 0
M  V30 10787 N 1028.76 -0.17846 1.56586 0
M  V30 10788 C 1029.67 -1.24115 1.9908 0
M  V30 10789 C 1030.68 -1.48854 0.901031 0
M  V30 10790 O 1031.86 -1.61142 1.2081 0
M  V30 10791 C 1028.92 -2.56187 2.33601 0
M  V30 10792 C 1027.99 -2.39373 3.56369 0
M  V30 10793 C 1027.22 -3.65147 3.89234 0
M  V30 10794 O 1027.44 -4.70024 3.23162 0
M  V30 10795 O 1026.38 -3.59683 4.82609 0
M  V30 10796 H 1030.2 -0.910482 2.89731 0
M  V30 10797 H 1027.79 -0.38477 1.4436 0
M  V30 10798 H 1029.67 -3.34109 2.56806 0
M  V30 10799 H 1028.34 -2.88847 1.46113 0
M  V30 10800 H 1027.25 -1.59506 3.38391 0
M  V30 10801 H 1028.58 -2.1164 4.44375 0
M  V30 10802 N 1030.24 -1.51135 -0.446768 0
M  V30 10803 C 1031.15 -1.74595 -1.56696 0
M  V30 10804 C 1032.16 -0.629816 -1.62201 0
M  V30 10805 O 1033.34 -0.910987 -1.79619 0
M  V30 10806 C 1030.4 -1.85738 -2.9275 0
M  V30 10807 C 1029.46 -3.09564 -2.97437 0
M  V30 10808 C 1028.7 -3.20165 -4.27001 0
M  V30 10809 O 1028.92 -2.36939 -5.1886 0
M  V30 10810 O 1027.85 -4.13077 -4.3778 0
M  V30 10811 H 1031.68 -2.69601 -1.39817 0
M  V30 10812 H 1029.26 -1.35523 -0.628805 0
M  V30 10813 H 1031.15 -1.95107 -3.73512 0
M  V30 10814 H 1029.82 -0.939184 -3.09776 0
M  V30 10815 H 1028.73 -3.05679 -2.15664 0
M  V30 10816 H 1030.06 -4.01041 -2.85353 0
M  V30 10817 N 1031.71 0.701592 -1.41122 0
M  V30 10818 C 1032.62 1.84548 -1.44841 0
M  V30 10819 C 1033.64 1.70654 -0.339594 0
M  V30 10820 O 1034.82 1.92675 -0.586378 0
M  V30 10821 C 1031.88 3.20477 -1.3227 0
M  V30 10822 C 1030.94 3.46524 -2.53415 0
M  V30 10823 C 1030.17 4.75968 -2.41434 0
M  V30 10824 O 1030.4 5.52037 -1.43566 0
M  V30 10825 O 1029.33 5.02664 -3.31078 0
M  V30 10826 H 1033.16 1.84367 -2.41335 0
M  V30 10827 H 1030.74 0.853863 -1.22595 0
M  V30 10828 H 1032.62 4.01642 -1.2752 0
M  V30 10829 H 1031.3 3.21355 -0.388889 0
M  V30 10830 H 1030.21 2.65313 -2.63742 0
M  V30 10831 H 1031.54 3.50455 -3.45604 0
M  V30 10832 N 1033.19 1.2685 0.935242 0
M  V30 10833 C 1034.1 1.10716 2.06831 0
M  V30 10834 C 1035.12 0.0391222 1.73956 0
M  V30 10835 O 1036.29 0.244071 1.99916 0
M  V30 10836 C 1033.36 0.748093 3.38533 0
M  V30 10837 C 1032.42 1.89619 3.85153 0
M  V30 10838 C 1031.65 1.55416 5.1057 0
M  V30 10839 O 1031.88 0.458596 5.68553 0
M  V30 10840 O 1030.81 2.39087 5.52378 0
M  V30 10841 H 1034.64 2.05785 2.23352 0
M  V30 10842 H 1032.22 1.05967 1.05315 0
M  V30 10843 H 1034.1 0.560841 4.17651 0
M  V30 10844 H 1032.78 -0.173142 3.23237 0
M  V30 10845 H 1031.68 2.13845 3.06954 0
M  V30 10846 H 1033.02 2.79737 4.04979 0
M  V30 10847 N 1034.67 -1.14067 1.0875 0
M  V30 10848 C 1035.58 -2.22871 0.732498 0
M  V30 10849 C 1036.6 -1.72008 -0.26253 0
M  V30 10850 O 1037.77 -2.01123 -0.105601 0
M  V30 10851 C 1034.84 -3.46371 0.150913 0
M  V30 10852 C 1033.9 -4.12158 1.201 0
M  V30 10853 C 1033.13 -5.29763 0.647075 0
M  V30 10854 O 1033.35 -5.67911 -0.532307 0
M  V30 10855 O 1032.29 -5.8542 1.3988 0
M  V30 10856 H 1036.11 -2.55596 1.64025 0
M  V30 10857 H 1033.7 -1.22065 0.861417 0
M  V30 10858 H 1035.58 -4.21055 -0.170442 0
M  V30 10859 H 1034.26 -3.15362 -0.729948 0
M  V30 10860 H 1033.16 -3.39332 1.57494 0
M  V30 10861 H 1034.5 -4.47282 2.05426 0
M  V30 10862 N 1036.15 -0.873678 -1.31166 0
M  V30 10863 C 1037.06 -0.335726 -2.32185 0
M  V30 10864 C 1038.07 0.556259 -1.64869 0
M  V30 10865 O 1039.25 0.452087 -1.9626 0
M  V30 10866 C 1036.32 0.450822 -3.43756 0
M  V30 10867 C 1035.38 -0.469565 -4.26724 0
M  V30 10868 C 1034.61 0.279538 -5.32967 0
M  V30 10869 O 1034.83 1.50715 -5.50128 0
M  V30 10870 O 1033.77 -0.36452 -6.00795 0
M  V30 10871 H 1037.59 -1.17314 -2.80127 0
M  V30 10872 H 1035.18 -0.637163 -1.35132 0
M  V30 10873 H 1037.06 0.896582 -4.11752 0
M  V30 10874 H 1035.73 1.26472 -2.9797 0
M  V30 10875 H 1034.64 -0.963902 -3.61469 0
M  V30 10876 H 1035.97 -1.24916 -4.76085 0
M  V30 10877 N 1037.63 1.44308 -0.633487 0
M  V30 10878 C 1038.54 2.34492 0.0711787 0
M  V30 10879 C 1039.55 1.52754 0.8332 0
M  V30 10880 O 1040.73 1.85475 0.784929 0
M  V30 10881 C 1037.79 3.30767 1.03895 0
M  V30 10882 C 1036.85 4.28412 0.276043 0
M  V30 10883 C 1036.09 5.20087 1.19772 0
M  V30 10884 O 1036.31 5.15743 2.4365 0
M  V30 10885 O 1035.24 5.98038 0.680764 0
M  V30 10886 H 1039.07 2.96203 -0.67063 0
M  V30 10887 H 1036.66 1.4412 -0.393678 0
M  V30 10888 H 1038.54 3.90021 1.59566 0
M  V30 10889 H 1037.21 2.71586 1.76133 0
M  V30 10890 H 1036.12 3.72696 -0.32377 0
M  V30 10891 H 1037.45 4.9052 -0.406364 0
M  V30 10892 N 1039.1 0.374177 1.53094 0
M  V30 10893 C 1040.01 -0.475935 2.29722 0
M  V30 10894 C 1041.03 -1.085 1.36029 0
M  V30 10895 O 1042.21 -1.09408 1.69091 0
M  V30 10896 C 1039.27 -1.59572 3.07795 0
M  V30 10897 C 1038.33 -1.01332 4.17169 0
M  V30 10898 C 1037.57 -2.07975 4.9151 0
M  V30 10899 O 1037.79 -3.29232 4.65793 0
M  V30 10900 O 1036.72 -1.7055 5.77232 0
M  V30 10901 H 1040.55 0.147877 3.0334 0
M  V30 10902 H 1038.13 0.138312 1.48758 0
M  V30 10903 H 1040.02 -2.24658 3.5652 0
M  V30 10904 H 1038.69 -2.20478 2.37005 0
M  V30 10905 H 1037.6 -0.326133 3.72676 0
M  V30 10906 H 1038.93 -0.4487 4.90151 0
M  V30 10907 N 1040.58 -1.57259 0.103575 0
M  V30 10908 C 1041.52 -2.10165 -0.889141 0
M  V30 10909 C 1042.49 -1.01426 -1.27089 0
M  V30 10910 O 1043.68 -1.2898 -1.37465 0
M  V30 10911 C 1040.8 -2.58564 -2.18774 0
M  V30 10912 C 1039.85 -3.79043 -1.95522 0
M  V30 10913 S 1040.68 -5.22213 -1.18551 0
M  V30 10914 C 1041.84 -5.73968 -2.49623 0
M  V30 10915 H 1042.07 -2.9404 -0.439083 0
M  V30 10916 H 1039.61 -1.54008 -0.10989 0
M  V30 10917 H 1041.56 -2.87106 -2.93395 0
M  V30 10918 H 1040.22 -1.749 -2.609 0
M  V30 10919 H 1039.42 -4.11004 -2.91705 0
M  V30 10920 H 1039.02 -3.51038 -1.29028 0
M  V30 10921 H 1041.31 -5.82752 -3.45553 0
M  V30 10922 H 1042.25 -6.72324 -2.22229 0
M  V30 10923 H 1042.66 -5.01946 -2.58284 0
M  V30 10924 N 1042.06 0.170153 -1.56679 0
M  V30 10925 C 1043.47 0.732502 -1.7173 0
M  V30 10926 C 1043.82 1.82736 -0.71428 0
M  V30 10927 O 1042.95 2.16044 0.124102 0
M  V30 10928 C 1043.54 1.33548 -3.11368 0
M  V30 10929 C 1042.1 1.84464 -3.281 0
M  V30 10930 C 1041.25 0.724069 -2.6768 0
M  V30 10931 H 1044.2 -0.0552543 -1.58604 0
M  V30 10932 H 1044.22 2.20519 -3.10083 0
M  V30 10933 H 1043.73 0.5384 -3.84347 0
M  V30 10934 H 1041.83 2.66813 -2.6008 0
M  V30 10935 H 1041.95 1.98928 -4.35849 0
M  V30 10936 H 1040.31 1.14481 -2.27522 0
M  V30 10937 H 1041.09 -0.0611861 -3.43245 0
M  V30 10938 N 1043.54 1.5137 0.438746 0
M  V30 10939 C 1044.76 1.68058 1.21537 0
M  V30 10940 C 1045.19 0.376787 1.84288 0
M  V30 10941 O 1044.55 -0.662911 1.68746 0
M  V30 10942 C 1044.59 2.79684 2.27616 0
M  V30 10943 O 1043.7 2.43189 3.33066 0
M  V30 10944 H 1043.04 0.560408 0.356144 0
M  V30 10945 H 1045.57 1.97926 0.518311 0
M  V30 10946 H 1045.58 3.03726 2.72423 0
M  V30 10947 H 1044.25 3.74293 1.81321 0
M  V30 10948 H 1042.83 2.29713 2.93746 0
M  V30 10949 N 1045.02 -0.694098 1.41492 0
M  V30 10950 C 1045.96 -1.80801 1.43456 0
M  V30 10951 C 1046.93 -1.63571 0.288757 0
M  V30 10952 O 1048.12 -1.844 0.490017 0
M  V30 10953 C 1045.26 -3.18694 1.32394 0
M  V30 10954 C 1044.37 -3.47346 2.56855 0
M  V30 10955 C 1043.51 -4.74862 2.38075 0
M  V30 10956 C 1042.55 -4.96486 3.58005 0
M  V30 10957 N 1041.68 -6.15229 3.38287 0
M  V30 10958 H 1046.52 -1.78457 2.38657 0
M  V30 10959 H 1044.06 -0.871455 1.18508 0
M  V30 10960 H 1046.02 -3.98352 1.23982 0
M  V30 10961 H 1044.65 -3.20211 0.407999 0
M  V30 10962 H 1043.7 -2.62083 2.75711 0
M  V30 10963 H 1045.01 -3.59226 3.4606 0
M  V30 10964 H 1044.17 -5.62577 2.27139 0
M  V30 10965 H 1042.9 -4.6523 1.46329 0
M  V30 10966 H 1041.91 -4.07219 3.69395 0
M  V30 10967 H 1043.13 -5.07976 4.50708 0
M  V30 10968 H 1041.08 -6.06807 2.49242 0
M  V30 10969 H 1041 -6.27883 4.21069 0
M  V30 10970 H 1042.27 -7.05674 3.31126 0
M  V30 10971 N 1046.49 -1.27344 -0.928501 0
M  V30 10972 C 1047.77 -1.04362 -1.65433 0
M  V30 10973 C 1048.15 0.421896 -2.06841 0
M  V30 10974 O 1047.5 1.40496 -1.80203 0
M  V30 10975 C 1047.71 -2.00442 -2.85699 0
M  V30 10976 C 1049.06 -2.29767 -3.57061 0
M  V30 10977 O 1050.08 -1.98409 -2.95825 0
M  V30 10978 O 1048.94 -2.83217 -4.67387 0
M  V30 10979 H 1046.03 -0.397783 -0.72505 0
M  V30 10980 H 1048.58 -1.38606 -0.979109 0
M  V30 10981 H 1047.35 -2.99281 -2.52085 0
M  V30 10982 H 1046.98 -1.66755 -3.60941 0
M  V30 10983 N 1047.97 1.13488 -1.09353 0
M  V30 10984 C 1049.38 1.66299 -0.848609 0
M  V30 10985 C 1049.73 1.86044 0.623051 0
M  V30 10986 O 1048.86 1.57871 1.48005 0
M  V30 10987 C 1049.45 3.02087 -1.53391 0
M  V30 10988 C 1048.01 3.51893 -1.33598 0
M  V30 10989 C 1047.16 2.27154 -1.59048 0
M  V30 10990 H 1050.11 0.974208 -1.25279 0
M  V30 10991 H 1050.13 3.68018 -0.966587 0
M  V30 10992 H 1049.64 2.87684 -2.60498 0
M  V30 10993 H 1047.75 3.715 -0.286045 0
M  V30 10994 H 1047.86 4.32059 -2.0703 0
M  V30 10995 H 1046.22 2.33708 -1.01256 0
M  V30 10996 H 1047.01 2.15317 -2.67383 0
M  V30 10997 N 1049.45 0.880621 1.30701 0
M  V30 10998 C 1050.68 0.510909 2.01009 0
M  V30 10999 C 1051.1 -0.892041 1.65603 0
M  V30 11000 O 1050.46 -1.59045 0.870309 0
M  V30 11001 C 1050.51 0.687759 3.53981 0
M  V30 11002 O 1049.61 -0.268275 4.11526 0
M  V30 11003 H 1048.95 0.201864 0.632572 0
M  V30 11004 H 1051.48 1.18697 1.6665 0
M  V30 11005 H 1051.49 0.585095 4.03783 0
M  V30 11006 H 1050.17 1.71068 3.79089 0
M  V30 11007 H 1048.74 -0.119673 3.72708 0
M  V30 11008 N 1050.93 -1.4397 0.641131 0
M  V30 11009 C 1052.34 -1.85267 0.230838 0
M  V30 11010 C 1052.69 -1.53659 -1.21998 0
M  V30 11011 O 1051.82 -0.979572 -1.92959 0
M  V30 11012 C 1052.41 -3.36284 0.412171 0
M  V30 11013 C 1050.97 -3.76358 0.0563004 0
M  V30 11014 C 1050.12 -2.67768 0.720809 0
M  V30 11015 H 1053.07 -1.34294 0.845624 0
M  V30 11016 H 1053.09 -3.78924 -0.345936 0
M  V30 11017 H 1052.6 -3.59258 1.46818 0
M  V30 11018 H 1050.7 -3.58997 -0.997582 0
M  V30 11019 H 1050.82 -4.76756 0.473335 0
M  V30 11020 H 1049.18 -2.54227 0.155164 0
M  V30 11021 H 1049.96 -2.93573 1.77961 0
M  V30 11022 N 1052.41 -0.382291 -1.52893 0
M  V30 11023 C 1053.32 0.463745 -2.29971 0
M  V30 11024 C 1054.33 1.07777 -1.36602 0
M  V30 11025 O 1055.51 1.0851 -1.69669 0
M  V30 11026 C 1052.57 1.57938 -3.08637 0
M  V30 11027 C 1051.64 0.991182 -4.17701 0
M  V30 11028 C 1050.87 2.05365 -4.92606 0
M  V30 11029 O 1051.09 3.26757 -4.67532 0
M  V30 11030 O 1050.03 1.67487 -5.78128 0
M  V30 11031 H 1053.85 -0.163962 -3.03257 0
M  V30 11032 H 1051.44 -0.146199 -1.48683 0
M  V30 11033 H 1053.32 2.22765 -3.57706 0
M  V30 11034 H 1051.99 2.19218 -2.3817 0
M  V30 11035 H 1050.9 0.306364 -3.72843 0
M  V30 11036 H 1052.23 0.422699 -4.90382 0
M  V30 11037 N 1053.89 1.57202 -0.111913 0
M  V30 11038 C 1055.3 1.82039 0.414591 0
M  V30 11039 C 1055.65 1.02863 1.67074 0
M  V30 11040 O 1054.77 0.263068 2.14795 0
M  V30 11041 C 1055.37 3.3019 0.758953 0
M  V30 11042 C 1053.93 3.55732 1.23012 0
M  V30 11043 C 1053.07 2.76301 0.235226 0
M  V30 11044 H 1056.02 1.55078 -0.337142 0
M  V30 11045 H 1056.05 3.44431 1.61701 0
M  V30 11046 H 1055.56 3.87788 -0.155473 0
M  V30 11047 H 1053.66 3.03483 2.16169 0
M  V30 11048 H 1053.77 4.64333 1.18034 0
M  V30 11049 H 1052.14 2.44287 0.720822 0
M  V30 11050 H 1052.92 3.36655 -0.672173 0
M  V30 11051 N 1055.36 -0.161842 1.56767 0
M  V30 11052 C 1056.77 -0.723385 1.72116 0
M  V30 11053 C 1057.13 -1.82355 0.723961 0
M  V30 11054 O 1056.25 -2.16107 -0.112643 0
M  V30 11055 C 1056.85 -1.31895 3.12072 0
M  V30 11056 C 1055.4 -1.82722 3.29074 0
M  V30 11057 C 1054.55 -0.709863 2.6806 0
M  V30 11058 H 1057.5 0.0636647 1.58572 0
M  V30 11059 H 1057.52 -2.18871 3.11249 0
M  V30 11060 H 1057.04 -0.51801 3.84627 0
M  V30 11061 H 1055.14 -2.6543 2.61491 0
M  V30 11062 H 1055.25 -1.96614 4.36898 0
M  V30 11063 H 1053.61 -1.13273 2.28126 0
M  V30 11064 H 1054.4 0.0793884 3.43208 0
M  V30 11065 N 1056.84 -1.516 -0.430713 0
M  V30 11066 C 1058.07 -1.687 -1.20644 0
M  V30 11067 C 1058.49 -0.386555 -1.84085 0
M  V30 11068 O 1057.85 0.653952 -1.69095 0
M  V30 11069 C 1057.9 -2.80887 -2.2613 0
M  V30 11070 O 1057 -2.44952 -3.31772 0
M  V30 11071 H 1056.34 -0.562289 -0.353167 0
M  V30 11072 H 1058.87 -1.98198 -0.507807 0
M  V30 11073 H 1058.88 -3.05167 -2.70809 0
M  V30 11074 H 1057.56 -3.75249 -1.79334 0
M  V30 11075 H 1056.13 -2.31267 -2.92523 0
M  V30 11076 N 1058.32 0.686584 -1.41858 0
M  V30 11077 C 1059.74 0.998283 -1.24525 0
M  V30 11078 C 1059.94 2.01006 -0.141007 0
M  V30 11079 O 1058.99 2.47667 0.491648 0
M  V30 11080 C 1060.3 1.51432 -2.59786 0
M  V30 11081 C 1061.85 1.6327 -2.67043 0
M  V30 11082 C 1062.33 2.18274 -4.02642 0
M  V30 11083 N 1063.82 2.25622 -4.04535 0
M  V30 11084 C 1064.55 2.69229 -5.06264 0
M  V30 11085 N 1064.05 3.12375 -6.1838 0
M  V30 11086 N 1065.84 2.68873 -4.93623 0
M  V30 11087 H 1057.99 0.0164825 -2.12394 0
M  V30 11088 H 1060.26 0.0698613 -0.945422 0
M  V30 11089 H 1059.96 0.845426 -3.41388 0
M  V30 11090 H 1059.84 2.49502 -2.82894 0
M  V30 11091 H 1062.22 2.29269 -1.85794 0
M  V30 11092 H 1062.3 0.637221 -2.47736 0
M  V30 11093 H 1061.95 1.52887 -4.84343 0
M  V30 11094 H 1061.88 3.18591 -4.19294 0
M  V30 11095 H 1064.37 1.95186 -3.23591 0
M  V30 11096 H 1064.68 3.44301 -6.91864 0
M  V30 11097 H 1063.03 3.10262 -6.21902 0
M  V30 11098 H 1066.22 2.34521 -4.05114 0
M  V30 11099 H 1066.39 3.02539 -5.7304 0
M  V30 11100 N 1059.8 1.27835 0.921735 0
M  V30 11101 C 1061.21 1.05369 1.19873 0
M  V30 11102 C 1061.41 -0.208997 2.00413 0
M  V30 11103 O 1060.47 -0.912861 2.35421 0
M  V30 11104 C 1061.78 2.29658 1.94108 0
M  V30 11105 C 1063.33 2.34756 2.07023 0
M  V30 11106 C 1063.81 3.5879 2.84664 0
M  V30 11107 N 1065.3 3.59383 2.9223 0
M  V30 11108 C 1066.03 4.52029 3.52785 0
M  V30 11109 N 1065.53 5.54986 4.14683 0
M  V30 11110 N 1067.32 4.39641 3.50246 0
M  V30 11111 H 1059.47 2.08903 0.383819 0
M  V30 11112 H 1061.73 0.919065 0.232429 0
M  V30 11113 H 1061.44 3.21604 1.4235 0
M  V30 11114 H 1061.31 2.35444 2.94696 0
M  V30 11115 H 1063.7 1.43312 2.57965 0
M  V30 11116 H 1063.78 2.32969 1.05636 0
M  V30 11117 H 1063.43 4.50574 2.34404 0
M  V30 11118 H 1063.36 3.57829 3.86349 0
M  V30 11119 H 1065.85 2.84927 2.48244 0
M  V30 11120 H 1066.16 6.21837 4.58845 0
M  V30 11121 H 1064.51 5.58822 4.13211 0
M  V30 11122 H 1067.7 3.58413 3.01094 0
M  V30 11123 H 1067.87 5.12033 3.97148 0
M  V30 11124 N 1061.28 -1.12907 1.09954 0
M  V30 11125 C 1062.23 -2.16558 0.713204 0
M  V30 11126 C 1063.21 -1.5853 -0.27515 0
M  V30 11127 O 1064.4 -1.76797 -0.0846643 0
M  V30 11128 C 1061.53 -3.43009 0.141224 0
M  V30 11129 C 1060.62 -4.08032 1.15632 0
M  V30 11130 N 1061.01 -4.48139 2.34531 0
M  V30 11131 C 1059.31 -4.34743 0.995701 0
M  V30 11132 C 1060.01 -4.98885 2.99147 0
M  V30 11133 N 1058.98 -4.9408 2.26684 0
M  V30 11134 H 1062.78 -2.45328 1.61838 0
M  V30 11135 H 1060.3 -1.29759 0.976539 0
M  V30 11136 H 1062.3 -4.16617 -0.153598 0
M  V30 11137 H 1060.96 -3.15711 -0.758729 0
M  V30 11138 H 1061.97 -4.40668 2.72089 0
M  V30 11139 H 1058.64 -4.17227 0.150888 0
M  V30 11140 H 1060.03 -5.3967 4.00257 0
M  V30 11141 N 1062.75 -0.88754 -1.30232 0
M  V30 11142 C 1063.69 -0.313488 -2.27046 0
M  V30 11143 C 1064.7 0.533383 -1.53814 0
M  V30 11144 O 1065.89 0.352516 -1.74984 0
M  V30 11145 C 1062.99 0.572674 -3.34026 0
M  V30 11146 C 1062.16 -0.245712 -4.36709 0
M  V30 11147 C 1061.22 0.57135 -5.23089 0
M  V30 11148 O 1060.25 -0.00685948 -5.692 0
M  V30 11149 N 1061.45 1.87994 -5.49216 0
M  V30 11150 H 1064.21 -1.14553 -2.76943 0
M  V30 11151 H 1061.77 -0.750785 -1.43439 0
M  V30 11152 H 1063.77 1.12539 -3.88738 0
M  V30 11153 H 1062.34 1.3054 -2.84039 0
M  V30 11154 H 1061.56 -0.979869 -3.81827 0
M  V30 11155 H 1062.84 -0.806618 -5.02366 0
M  V30 11156 H 1062.24 2.3726 -5.13541 0
M  V30 11157 H 1060.8 2.38005 -6.06792 0
M  V30 11158 N 1064.23 1.43628 -0.648757 0
M  V30 11159 C 1065.65 1.56442 -0.315921 0
M  V30 11160 C 1065.85 1.63322 1.18018 0
M  V30 11161 O 1064.9 1.58585 1.96487 0
M  V30 11162 C 1066.22 2.82751 -1.02335 0
M  V30 11163 C 1067.77 2.96488 -1.00318 0
M  V30 11164 C 1068.24 4.25623 -1.69142 0
M  V30 11165 N 1069.73 4.32477 -1.65885 0
M  V30 11166 C 1070.47 5.31154 -2.16016 0
M  V30 11167 N 1069.96 6.36135 -2.74415 0
M  V30 11168 N 1071.76 5.22778 -2.06541 0
M  V30 11169 H 1063.91 1.37405 -1.61968 0
M  V30 11170 H 1066.17 0.65962 -0.680886 0
M  V30 11171 H 1065.88 2.83714 -2.07844 0
M  V30 11172 H 1065.75 3.72836 -0.572114 0
M  V30 11173 H 1068.14 2.95068 0.0434919 0
M  V30 11174 H 1068.22 2.07704 -1.49307 0
M  V30 11175 H 1067.86 4.27804 -2.73763 0
M  V30 11176 H 1067.79 5.13296 -1.17622 0
M  V30 11177 H 1070.28 3.57232 -1.23264 0
M  V30 11178 H 1070.6 7.07743 -3.10355 0
M  V30 11179 H 1068.94 6.36771 -2.78474 0
M  V30 11180 H 1072.13 4.39678 -1.60625 0
M  V30 11181 H 1072.3 5.99523 -2.45919 0
M  V30 11182 N 1065.71 0.390394 1.52688 0
M  V30 11183 C 1066.96 -0.191729 2.01892 0
M  V30 11184 C 1067.29 -1.4637 1.27631 0
M  V30 11185 O 1066.56 -1.90809 0.377094 0
M  V30 11186 C 1066.85 -0.458535 3.57169 0
M  V30 11187 C 1066.7 0.828796 4.42098 0
M  V30 11188 C 1068.02 -1.2487 4.22014 0
M  V30 11189 H 1065.14 -0.0682091 0.733837 0
M  V30 11190 H 1067.78 0.520176 1.82741 0
M  V30 11191 H 1065.93 -1.06498 3.73618 0
M  V30 11192 H 1067.6 1.46562 4.37398 0
M  V30 11193 H 1065.85 1.44388 4.09066 0
M  V30 11194 H 1066.52 0.596746 5.48765 0
M  V30 11195 H 1068.99 -0.735452 4.09549 0
M  V30 11196 H 1067.87 -1.40412 5.30637 0
M  V30 11197 H 1068.13 -2.2642 3.79719 0
M  V30 11198 N 1067.19 -1.57141 0.120249 0
M  V30 11199 C 1068.12 -2.12454 -0.859987 0
M  V30 11200 C 1069.13 -1.06755 -1.22911 0
M  V30 11201 O 1070.32 -1.34124 -1.17784 0
M  V30 11202 C 1067.42 -2.61024 -2.16147 0
M  V30 11203 C 1066.6 -3.90835 -1.96385 0
M  V30 11204 C 1065.65 -4.2499 -3.10274 0
M  V30 11205 O 1064.68 -4.93786 -2.83133 0
M  V30 11206 N 1065.88 -3.82411 -4.36741 0
M  V30 11207 H 1068.65 -2.97186 -0.387402 0
M  V30 11208 H 1066.21 -1.61773 -0.0641376 0
M  V30 11209 H 1068.2 -2.80903 -2.91334 0
M  V30 11210 H 1066.77 -1.81166 -2.5475 0
M  V30 11211 H 1065.99 -3.79853 -1.05383 0
M  V30 11212 H 1067.28 -4.75712 -1.80487 0
M  V30 11213 H 1066.68 -3.26926 -4.61666 0
M  V30 11214 H 1065.23 -4.07395 -5.08795 0
M  V30 11215 N 1068.67 0.153526 -1.5685 0
M  V30 11216 C 1069.94 0.895545 -1.73895 0
M  V30 11217 C 1070.32 1.99625 -0.686504 0
M  V30 11218 O 1069.67 2.26579 0.2957 0
M  V30 11219 C 1069.88 1.44399 -3.17726 0
M  V30 11220 C 1071.23 1.90996 -3.79217 0
M  V30 11221 O 1072.25 1.54155 -3.21115 0
M  V30 11222 O 1071.11 2.58917 -4.81274 0
M  V30 11223 H 1068.21 0.422755 -0.710779 0
M  V30 11224 H 1070.75 0.139961 -1.69122 0
M  V30 11225 H 1069.52 0.652635 -3.85819 0
M  V30 11226 H 1069.15 2.26326 -3.26898 0
M  V30 11227 N 1070.14 1.51827 0.422667 0
M  V30 11228 C 1071.09 1.74198 1.51406 0
M  V30 11229 C 1072.06 0.584013 1.55494 0
M  V30 11230 O 1073.25 0.820079 1.72277 0
M  V30 11231 C 1070.39 1.88627 2.88988 0
M  V30 11232 C 1069.5 3.16233 2.94314 0
M  V30 11233 C 1068.63 3.21172 4.2311 0
M  V30 11234 C 1067.67 4.43033 4.2236 0
M  V30 11235 N 1066.81 4.4544 5.42704 0
M  V30 11236 H 1071.65 2.67352 1.31632 0
M  V30 11237 H 1069.19 1.32487 0.63919 0
M  V30 11238 H 1071.15 1.94976 3.68837 0
M  V30 11239 H 1069.78 0.988673 3.07287 0
M  V30 11240 H 1068.83 3.19123 2.07039 0
M  V30 11241 H 1070.14 4.06104 2.89623 0
M  V30 11242 H 1069.29 3.26517 5.11343 0
M  V30 11243 H 1068.03 2.29216 4.30478 0
M  V30 11244 H 1067.04 4.37849 3.32518 0
M  V30 11245 H 1068.26 5.3627 4.16643 0
M  V30 11246 H 1066.21 3.56361 5.50766 0
M  V30 11247 H 1066.13 5.29138 5.39953 0
M  V30 11248 H 1067.39 4.54997 6.32928 0
M  V30 11249 N 1071.62 -0.679052 1.4222 0
M  V30 11250 C 1072.85 -1.46747 1.45852 0
M  V30 11251 C 1073.27 -1.88675 0.0685937 0
M  V30 11252 O 1072.62 -1.57861 -0.915757 0
M  V30 11253 C 1072.67 -2.71935 2.38188 0
M  V30 11254 O 1072.39 -2.31768 3.71773 0
M  V30 11255 C 1073.9 -3.65536 2.50796 0
M  V30 11256 H 1071.12 -0.451682 0.49621 0
M  V30 11257 H 1073.66 -0.834723 1.86689 0
M  V30 11258 H 1071.81 -3.31409 2.00616 0
M  V30 11259 H 1072.23 -3.12579 4.21182 0
M  V30 11260 H 1073.7 -4.50113 3.19535 0
M  V30 11261 H 1074.18 -4.11148 1.54447 0
M  V30 11262 H 1074.79 -3.11957 2.89072 0
M  V30 11263 N 1073.1 -1.28322 -0.914942 0
M  V30 11264 C 1074.35 -1.15179 -1.66067 0
M  V30 11265 C 1074.67 0.300279 -1.92674 0
M  V30 11266 O 1073.94 1.20821 -1.54205 0
M  V30 11267 H 1072.52 -0.423264 -0.615513 0
M  V30 11268 H 1075.18 -1.61034 -1.09791 0
M  V30 11269 H 1074.28 -1.69048 -2.62353 0
M  V30 11270 N 1074.58 1.12322 -1.10551 0
M  V30 11271 C 1075.99 1.35858 -0.837543 0
M  V30 11272 C 1076.19 1.94062 0.54241 0
M  V30 11273 O 1075.25 2.1676 1.29505 0
M  V30 11274 C 1076.56 2.299 -1.9382 0
M  V30 11275 C 1078.11 2.43488 -1.96679 0
M  V30 11276 C 1078.59 3.40846 -3.05922 0
M  V30 11277 N 1080.08 3.48404 -3.05236 0
M  V30 11278 C 1080.81 4.2365 -3.86405 0
M  V30 11279 N 1080.31 5.01951 -4.77512 0
M  V30 11280 N 1082.1 4.19068 -3.74618 0
M  V30 11281 H 1074.25 0.729002 -1.99498 0
M  V30 11282 H 1076.52 0.38339 -0.867016 0
M  V30 11283 H 1076.22 1.94309 -2.9315 0
M  V30 11284 H 1076.1 3.30033 -1.82641 0
M  V30 11285 H 1078.48 2.78359 -0.979813 0
M  V30 11286 H 1078.56 1.43239 -2.11934 0
M  V30 11287 H 1078.21 3.06704 -4.04839 0
M  V30 11288 H 1078.14 4.40927 -2.87907 0
M  V30 11289 H 1080.63 2.92545 -2.39219 0
M  V30 11290 H 1080.94 5.56707 -5.36002 0
M  V30 11291 H 1079.29 5.01143 -4.8154 0
M  V30 11292 H 1082.48 3.5698 -3.02792 0
M  V30 11293 H 1082.65 4.77455 -4.38111 0
M  V30 11294 N 1076.06 0.894434 1.2976 0
M  V30 11295 C 1077.02 0.373094 2.26143 0
M  V30 11296 C 1078.02 -0.489756 1.5316 0
M  V30 11297 O 1079.21 -0.29556 1.71674 0
M  V30 11298 C 1076.34 -0.467234 3.37683 0
M  V30 11299 H 1077.53 1.22427 2.73773 0
M  V30 11300 H 1075.09 0.672112 1.41111 0
M  V30 11301 H 1075.82 -1.33861 2.95384 0
M  V30 11302 H 1075.61 0.150954 3.91809 0
M  V30 11303 H 1077.1 -0.823469 4.094 0
M  V30 11304 N 1077.53 -1.43282 0.656365 0
M  V30 11305 C 1078.95 -1.85012 0.250475 0
M  V30 11306 C 1079.3 -1.54944 -1.20361 0
M  V30 11307 O 1078.42 -0.999983 -1.9191 0
M  V30 11308 C 1079.02 -3.35827 0.447815 0
M  V30 11309 C 1077.58 -3.76277 0.0962151 0
M  V30 11310 C 1076.72 -2.66988 0.749168 0
M  V30 11311 H 1079.67 -1.3339 0.85982 0
M  V30 11312 H 1079.69 -3.7927 -0.305726 0
M  V30 11313 H 1079.21 -3.5768 1.5062 0
M  V30 11314 H 1077.31 -3.60035 -0.959449 0
M  V30 11315 H 1077.42 -4.76227 0.523875 0
M  V30 11316 H 1075.78 -2.54048 0.18212 0
M  V30 11317 H 1076.57 -2.91669 1.81064 0
M  V30 11318 N 1079.01 -0.398486 -1.52479 0
M  V30 11319 C 1080.43 -0.0488635 -1.59525 0
M  V30 11320 C 1080.63 1.43756 -1.41197 0
M  V30 11321 O 1079.69 2.20317 -1.23357 0
M  V30 11322 C 1081 -0.534262 -2.95916 0
M  V30 11323 C 1082.55 -0.491314 -3.0912 0
M  V30 11324 C 1083.02 -0.953049 -4.47974 0
M  V30 11325 N 1084.51 -0.909434 -4.54184 0
M  V30 11326 C 1085.25 -1.23801 -5.59876 0
M  V30 11327 N 1084.74 -1.63752 -6.73169 0
M  V30 11328 N 1086.54 -1.15867 -5.50028 0
M  V30 11329 H 1078.69 -1.36608 -1.62641 0
M  V30 11330 H 1080.95 -0.560515 -0.764544 0
M  V30 11331 H 1080.66 -1.57277 -3.14574 0
M  V30 11332 H 1080.53 0.0617787 -3.77149 0
M  V30 11333 H 1082.92 0.538123 -2.90152 0
M  V30 11334 H 1083 -1.12327 -2.29818 0
M  V30 11335 H 1082.64 -1.98076 -4.67684 0
M  V30 11336 H 1082.57 -0.298007 -5.25756 0
M  V30 11337 H 1085.06 -0.615569 -3.72853 0
M  V30 11338 H 1085.38 -1.87163 -7.49793 0
M  V30 11339 H 1083.72 -1.67647 -6.74477 0
M  V30 11340 H 1086.91 -0.845502 -4.60401 0
M  V30 11341 H 1087.09 -1.41805 -6.32294 0
M  V30 11342 N 1080.49 1.57075 -0.12858 0
M  V30 11343 C 1081.74 1.9581 0.527868 0
M  V30 11344 C 1082.07 1.01253 1.65715 0
M  V30 11345 O 1081.35 0.0514853 1.94432 0
M  V30 11346 C 1081.63 3.44406 1.05151 0
M  V30 11347 C 1081.48 4.49737 -0.0750113 0
M  V30 11348 C 1082.8 3.95069 1.9393 0
M  V30 11349 H 1079.92 0.711978 0.19041 0
M  V30 11350 H 1082.56 1.88879 -0.206081 0
M  V30 11351 H 1080.71 3.50443 1.67697 0
M  V30 11352 H 1082.38 4.55793 -0.710685 0
M  V30 11353 H 1080.63 4.27497 -0.736809 0
M  V30 11354 H 1081.3 5.50996 0.332779 0
M  V30 11355 H 1083.77 3.91395 1.41241 0
M  V30 11356 H 1082.65 4.99542 2.27484 0
M  V30 11357 H 1082.91 3.36329 2.86941 0
M  V30 11358 N 1081.97 -0.145205 1.5693 0
M  V30 11359 C 1083.39 -0.497905 1.51635 0
M  V30 11360 C 1083.59 -1.8328 0.837301 0
M  V30 11361 O 1082.64 -2.49172 0.408584 0
M  V30 11362 C 1083.95 -0.506557 2.96403 0
M  V30 11363 C 1085.5 -0.591947 3.07352 0
M  V30 11364 C 1085.98 -0.631244 4.53629 0
M  V30 11365 N 1087.47 -0.693417 4.5798 0
M  V30 11366 C 1088.2 -0.744836 5.68542 0
M  V30 11367 N 1087.7 -0.755492 6.88668 0
M  V30 11368 N 1089.49 -0.785854 5.5658 0
M  V30 11369 H 1081.64 0.729779 1.99469 0
M  V30 11370 H 1083.91 0.266295 0.90983 0
M  V30 11371 H 1083.61 0.406127 3.49347 0
M  V30 11372 H 1083.49 -1.34383 3.5245 0
M  V30 11373 H 1085.87 -1.49505 2.54425 0
M  V30 11374 H 1085.95 0.272507 2.54344 0
M  V30 11375 H 1085.6 0.26771 5.07194 0
M  V30 11376 H 1085.53 -1.51221 5.0442 0
M  V30 11377 H 1088.02 -0.692408 3.71503 0
M  V30 11378 H 1088.33 -0.796624 7.68683 0
M  V30 11379 H 1086.68 -0.723339 6.91226 0
M  V30 11380 H 1089.87 -0.774712 4.61645 0
M  V30 11381 H 1090.04 -0.822461 6.42759 0
M  V30 11382 N 1083.45 -1.52049 -0.414609 0
M  V30 11383 C 1084.36 -1.7788 -1.52958 0
M  V30 11384 C 1085.37 -0.66408 -1.60829 0
M  V30 11385 O 1086.55 -0.948882 -1.77646 0
M  V30 11386 C 1083.61 -1.91906 -2.88744 0
M  V30 11387 C 1082.68 -3.15803 -2.90804 0
M  V30 11388 C 1081.91 -3.29151 -4.20114 0
M  V30 11389 O 1082.13 -2.47892 -5.13718 0
M  V30 11390 O 1081.07 -4.2227 -4.28919 0
M  V30 11391 H 1084.89 -2.72506 -1.34067 0
M  V30 11392 H 1082.48 -1.36826 -0.599918 0
M  V30 11393 H 1084.36 -2.02986 -3.6929 0
M  V30 11394 H 1083.03 -1.00468 -3.07714 0
M  V30 11395 H 1081.94 -3.10185 -2.09131 0
M  V30 11396 H 1083.27 -4.07004 -2.76783 0
M  V30 11397 N 1084.93 0.6715 -1.42579 0
M  V30 11398 C 1085.84 1.81435 -1.48723 0
M  V30 11399 C 1086.85 1.69895 -0.375716 0
M  V30 11400 O 1088.03 1.91388 -0.627115 0
M  V30 11401 C 1085.09 3.17599 -1.39038 0
M  V30 11402 C 1084.15 3.41071 -2.60709 0
M  V30 11403 C 1083.39 4.7074 -2.51476 0
M  V30 11404 O 1083.61 5.48868 -1.55243 0
M  V30 11405 O 1082.54 4.95528 -3.41666 0
M  V30 11406 H 1086.37 1.79206 -2.45191 0
M  V30 11407 H 1083.95 0.827666 -1.24379 0
M  V30 11408 H 1085.84 3.98847 -1.3601 0
M  V30 11409 H 1084.51 3.20458 -0.456966 0
M  V30 11410 H 1083.42 2.59659 -2.69311 0
M  V30 11411 H 1084.75 3.43045 -3.5296 0
M  V30 11412 N 1086.4 1.28806 0.908124 0
M  V30 11413 C 1087.33 1.15758 2.02787 0
M  V30 11414 C 1088.31 0.053911 1.70015 0
M  V30 11415 O 1089.5 0.231901 1.9281 0
M  V30 11416 C 1086.63 0.824526 3.37371 0
M  V30 11417 C 1085.58 1.88359 3.84324 0
M  V30 11418 C 1084.91 1.40404 5.15937 0
M  V30 11419 C 1086.21 3.29108 4.05568 0
M  V30 11420 H 1087.9 2.09431 2.13961 0
M  V30 11421 H 1085.45 1.00831 1.02806 0
M  V30 11422 H 1087.4 0.71999 4.15204 0
M  V30 11423 H 1086.13 -0.147902 3.26265 0
M  V30 11424 H 1084.79 1.97736 3.087 0
M  V30 11425 H 1084.43 0.420515 5.01239 0
M  V30 11426 H 1084.13 2.11224 5.48323 0
M  V30 11427 H 1085.66 1.31283 5.9632 0
M  V30 11428 H 1087.07 3.2262 4.73909 0
M  V30 11429 H 1085.47 3.97812 4.49294 0
M  V30 11430 H 1086.54 3.72709 3.10187 0
M  V30 11431 O 1087.92 -1.04325 1.23282 0
M  V30 11432 H 1088.61 -1.65689 1.00334 0
M  V30 END ATOM
M  V30 BEGIN BOND
M  V30 END BOND
M  V30 END CTAB
M  END
$$$$
