drugbank_target|Q8IVS2 Malonyl-CoA-acyl carrier protein transacylase, mitochondrial (DB07344)
 OpenBabel12092120423D

  0  0  0     0  0            999 V3000
M  V30 BEGIN CTAB
M  V30 COUNTS 6050 6124 0 0 0
M  V30 BEGIN ATOM
M  V30 1 H -0.908 1.98254 -0.117106 0
M  V30 2 N 0 1.576 0 0
M  V30 3 C 0.933 2.03868 1.02534 0
M  V30 4 C 1.911 0.928543 1.3348 0
M  V30 5 O 3.095 1.19667 1.45644 0
M  V30 6 C 0.222 2.43627 2.35294 0
M  V30 7 C -0.732 3.65373 2.2001 0
M  V30 8 S 0.101 5.13292 1.52614 0
M  V30 9 C 1.257 5.56322 2.86805 0
M  V30 10 H 1.49 2.90518 0.631377 0
M  V30 11 H -0.977 1.52953 0.210867 0
M  V30 12 H 0.981 2.67203 3.11629 0
M  V30 13 H -0.358 1.57376 2.7183 0
M  V30 14 H -1.165 3.90944 3.18086 0
M  V30 15 H -1.563 3.418 1.51819 0
M  V30 16 H 0.729 5.58782 3.83104 0
M  V30 17 H 1.672 6.56266 2.65933 0
M  V30 18 H 2.08 4.83886 2.90714 0
M  V30 19 N 1.4781 -0.272755 1.55222 0
M  V30 20 C 2.7031 -1.02683 1.80197 0
M  V30 21 C 3.1281 -1.79142 0.573551 0
M  V30 22 O 2.4861 -1.74917 -0.476849 0
M  V30 23 C 2.5341 -1.9609 3.02624 0
M  V30 24 O 1.6381 -3.04863 2.77727 0
M  V30 25 H 0.9791 -0.293557 0.595584 0
M  V30 26 H 3.5091 -0.30159 2.02365 0
M  V30 27 H 3.5191 -2.38039 3.31363 0
M  V30 28 H 2.1941 -1.39851 3.91682 0
M  V30 29 H 0.7711 -2.67228 2.60084 0
M  V30 30 N 2.9562 -1.48159 -0.537278 0
M  V30 31 C 4.2022 -1.56035 -1.29541 0
M  V30 32 C 4.5352 -0.230377 -1.92829 0
M  V30 33 O 3.8102 0.762952 -1.78911 0
M  V30 34 C 4.0932 -2.69323 -2.39034 0
M  V30 35 C 3.9462 -4.12002 -1.80485 0
M  V30 36 C 5.2652 -2.78408 -3.40847 0
M  V30 37 H 2.3842 -0.567992 -0.469632 0
M  V30 38 H 5.0262 -1.80302 -0.599277 0
M  V30 39 H 3.1762 -2.48763 -2.98412 0
M  V30 40 H 4.8482 -4.43981 -1.25215 0
M  V30 41 H 3.0912 -4.19344 -1.11055 0
M  V30 42 H 3.7622 -4.87077 -2.59731 0
M  V30 43 H 6.2382 -2.97012 -2.91416 0
M  V30 44 H 5.1142 -3.59416 -4.14863 0
M  V30 45 H 5.3752 -1.86269 -4.00944 0
M  V30 46 N 4.4343 0.785586 -1.36625 0
M  V30 47 C 5.8503 1.08419 -1.17122 0
M  V30 48 C 6.0503 2.015 0.00208491 0
M  V30 49 O 5.1063 2.43551 0.666278 0
M  V30 50 C 6.4193 1.69498 -2.48377 0
M  V30 51 C 7.9673 1.81821 -2.54775 0
M  V30 52 C 8.4423 2.46315 -3.86126 0
M  V30 53 N 9.9333 2.53779 -3.87492 0
M  V30 54 C 10.6683 3.045 -4.85868 0
M  V30 55 N 10.1643 3.55499 -5.94637 0
M  V30 56 N 11.9573 3.03247 -4.73284 0
M  V30 57 H 4.1083 0.167264 -2.1174 0
M  V30 58 H 6.3713 0.13682 -0.938075 0
M  V30 59 H 6.0773 1.08571 -3.34522 0
M  V30 60 H 5.9513 2.6896 -2.64462 0
M  V30 61 H 8.3383 2.41884 -1.69045 0
M  V30 62 H 8.4193 0.811532 -2.42586 0
M  V30 63 H 8.0633 1.86895 -4.72263 0
M  V30 64 H 7.9933 3.47561 -3.95612 0
M  V30 65 H 10.4843 2.17672 -3.08913 0
M  V30 66 H 10.7973 3.92562 -6.65669 0
M  V30 67 H 9.1423 3.5364 -5.98301 0
M  V30 68 H 12.3333 2.62696 -3.87438 0
M  V30 69 H 12.5063 3.42467 -5.50109 0
M  V30 70 N 5.9124 1.20967 1.01018 0
M  V30 71 C 7.1584 1.02526 1.74975 0
M  V30 72 C 7.4914 -0.4408 1.89131 0
M  V30 73 O 6.7664 -1.32718 1.42184 0
M  V30 74 C 7.0494 1.71699 3.1653 0
M  V30 75 C 6.9024 3.25791 3.10129 0
M  V30 76 C 8.2214 1.45531 4.15342 0
M  V30 77 H 5.3404 0.373863 0.635134 0
M  V30 78 H 7.9824 1.49071 1.17805 0
M  V30 79 H 6.1324 1.32128 3.65341 0
M  V30 80 H 7.8044 3.74697 2.69072 0
M  V30 81 H 6.0474 3.56363 2.47362 0
M  V30 82 H 6.7184 3.69353 4.10222 0
M  V30 83 H 9.1944 1.79872 3.75213 0
M  V30 84 H 8.0704 1.96453 5.1254 0
M  V30 85 H 8.3314 0.384237 4.40427 0
M  V30 86 N 7.3905 -1.2043 1.01659 0
M  V30 87 C 8.3535 -2.21433 0.591616 0
M  V30 88 C 9.3535 -1.57203 -0.338226 0
M  V30 89 O 10.5435 -1.73737 -0.126918 0
M  V30 90 C 7.6755 -3.40628 -0.136058 0
M  V30 91 H 8.8685 -2.60545 1.48514 0
M  V30 92 H 6.4215 -1.33893 0.806379 0
M  V30 93 H 7.1565 -3.07019 -1.04449 0
M  V30 94 H 6.9415 -3.88475 0.531917 0
M  V30 95 H 8.4315 -4.15475 -0.420735 0
M  V30 96 N 8.8686 -0.792821 -1.36206 0
M  V30 97 C 10.2846 -0.474903 -1.52371 0
M  V30 98 C 10.4846 1.00622 -1.74578 0
M  V30 99 O 9.5406 1.79162 -1.77924 0
M  V30 100 C 10.8536 -1.3083 -2.70747 0
M  V30 101 C 12.4016 -1.30234 -2.84619 0
M  V30 102 C 12.8766 -2.11956 -4.06004 0
M  V30 103 N 14.3676 -2.09419 -4.13156 0
M  V30 104 C 15.1026 -2.69419 -5.06163 0
M  V30 105 N 14.5986 -3.3829 -6.04592 0
M  V30 106 N 16.3916 -2.59134 -4.98804 0
M  V30 107 H 8.5426 -1.75222 -1.20046 0
M  V30 108 H 10.8056 -0.745024 -0.586211 0
M  V30 109 H 10.5116 -2.35881 -2.6087 0
M  V30 110 H 10.3856 -0.95196 -3.6499 0
M  V30 111 H 12.7726 -0.259748 -2.93955 0
M  V30 112 H 12.8536 -1.69847 -1.91274 0
M  V30 113 H 12.4976 -3.16248 -3.97429 0
M  V30 114 H 12.4276 -1.69711 -4.98503 0
M  V30 115 H 14.9186 -1.59297 -3.42685 0
M  V30 116 H 15.2316 -3.81394 -6.7213 0
M  V30 117 H 13.5766 -3.42393 -6.04807 0
M  V30 118 H 16.7676 -2.04927 -4.20859 0
M  V30 119 H 16.9406 -3.06185 -5.711 0
M  V30 120 N 10.3467 1.47872 -0.545128 0
M  V30 121 C 11.5927 2.02793 -0.0166104 0
M  V30 122 C 11.9257 1.41987 1.32489 0
M  V30 123 O 11.2007 0.571045 1.85928 0
M  V30 124 C 11.4837 3.59989 0.0893294 0
M  V30 125 C 11.3367 4.3125 -1.27841 0
M  V30 126 C 12.6557 4.32606 0.808724 0
M  V30 127 H 9.7747 0.736962 -0.00751035 0
M  V30 128 H 12.4167 1.76433 -0.705085 0
M  V30 129 H 10.5667 3.82579 0.675681 0
M  V30 130 H 12.2387 4.20035 -1.90704 0
M  V30 131 H 10.4817 3.92076 -1.85632 0
M  V30 132 H 11.1527 5.39736 -1.15713 0
M  V30 133 H 13.6287 4.14936 0.310992 0
M  V30 134 H 12.5047 5.42251 0.851782 0
M  V30 135 H 12.7657 4.00963 1.86229 0
M  V30 136 N 11.8248 0.280983 1.55075 0
M  V30 137 C 12.7878 -0.590896 2.21452 0
M  V30 138 C 13.7878 -1.07682 1.19421 0
M  V30 139 O 14.9778 -0.97605 1.44288 0
M  V30 140 C 12.1098 -1.81587 2.88511 0
M  V30 141 H 13.3028 -0.0112554 2.99898 0
M  V30 142 H 10.8558 0.0316438 1.56268 0
M  V30 143 H 11.5908 -2.43587 2.14093 0
M  V30 144 H 11.3758 -1.4753 3.63287 0
M  V30 145 H 12.8658 -2.43575 3.39206 0
M  V30 146 N 13.3029 -1.57598 0.00835791 0
M  V30 147 C 14.5489 -1.92046 -0.670055 0
M  V30 148 C 14.9039 -0.88351 -1.70915 0
M  V30 149 O 14.1969 0.103223 -1.91322 0
M  V30 150 C 14.3909 -3.3101 -1.34787 0
M  V30 151 C 14.2199 -4.48126 -0.375945 0
M  V30 152 C 12.9899 -5.05297 0.0166914 0
M  V30 153 C 15.1879 -5.1303 0.361272 0
M  V30 154 N 13.1699 -6.05931 0.985952 0
M  V30 155 C 14.5409 -6.08571 1.18495 0
M  V30 156 C 16.5959 -4.9609 0.42421 0
M  V30 157 C 15.2989 -6.88996 2.06584 0
M  V30 158 C 17.3249 -5.77107 1.29236 0
M  V30 159 C 16.6869 -6.72248 2.10386 0
M  V30 160 H 12.7859 -0.75096 -0.218136 0
M  V30 161 H 15.3699 -1.94572 0.0706669 0
M  V30 162 H 13.5409 -3.29342 -2.05884 0
M  V30 163 H 15.2729 -3.52864 -1.98164 0
M  V30 164 H 12.0279 -4.72279 -0.353435 0
M  V30 165 H 12.4519 -6.60932 1.4662 0
M  V30 166 H 17.0939 -4.22378 -0.188915 0
M  V30 167 H 14.8119 -7.62028 2.6896 0
M  V30 168 H 18.3979 -5.66038 1.34508 0
M  V30 169 H 17.2779 -7.33846 2.76476 0
M  V30 170 N 14.781 0.264519 -1.55364 0
M  V30 171 C 16.027 0.99646 -1.76631 0
M  V30 172 C 16.36 1.85632 -0.570478 0
M  V30 173 O 15.635 1.89647 0.43175 0
M  V30 174 C 15.918 1.87187 -3.07625 0
M  V30 175 C 15.771 1.04138 -4.37579 0
M  V30 176 C 17.09 2.85749 -3.34717 0
M  V30 177 H 14.209 0.360841 -0.642622 0
M  V30 178 H 16.851 0.268218 -1.88097 0
M  V30 179 H 15.001 2.49279 -2.9798 0
M  V30 180 H 16.673 0.440517 -4.59192 0
M  V30 181 H 14.916 0.345115 -4.32425 0
M  V30 182 H 15.587 1.68729 -5.2558 0
M  V30 183 H 18.063 2.33793 -3.4421 0
M  V30 184 H 16.939 3.44136 -4.27623 0
M  V30 185 H 17.2 3.61311 -2.54768 0
M  V30 186 N 16.2591 1.48442 0.529413 0
M  V30 187 C 17.6751 1.34575 0.858004 0
M  V30 188 C 17.8751 0.3572 1.98309 0
M  V30 189 O 16.9311 -0.221379 2.51528 0
M  V30 190 C 18.2441 2.74617 1.22499 0
M  V30 191 C 19.7921 2.83109 1.33484 0
M  V30 192 C 20.2671 4.23854 1.73526 0
M  V30 193 N 21.7581 4.2653 1.80628 0
M  V30 194 C 22.4931 5.32372 2.12997 0
M  V30 195 N 21.9891 6.48491 2.43786 0
M  V30 196 N 23.7821 5.19766 2.14008 0
M  V30 197 H 15.9331 2.1133 -0.212925 0
M  V30 198 H 18.1961 0.947439 -0.0326199 0
M  V30 199 H 17.9021 3.4852 0.471905 0
M  V30 200 H 17.7761 3.08177 2.17501 0
M  V30 201 H 20.1631 2.09462 2.0787 0
M  V30 202 H 20.2441 2.53168 0.366027 0
M  V30 203 H 19.8881 4.98018 0.997013 0
M  V30 204 H 19.8181 4.5124 2.71459 0
M  V30 205 H 22.3091 3.42772 1.59108 0
M  V30 206 H 22.6221 7.24993 2.67592 0
M  V30 207 H 20.9671 6.51765 2.41304 0
M  V30 208 H 24.1581 4.28066 1.89412 0
M  V30 209 H 24.3311 6.02354 2.38902 0
M  V30 210 N 17.7372 -0.778329 1.37039 0
M  V30 211 C 18.9852 -1.53361 1.31623 0
M  V30 212 C 19.3062 -1.94739 -0.100831 0
M  V30 213 O 18.5762 -1.65797 -1.04347 0
M  V30 214 H 17.1562 -0.568794 0.484234 0
M  V30 215 H 19.8182 -0.926742 1.71457 0
M  V30 216 H 18.9142 -2.43606 1.95096 0
M  V30 217 N 19.2153 -1.21501 -1.00376 0
M  V30 218 C 20.1453 -0.999478 -2.11028 0
M  V30 219 C 21.1263 0.0759671 -1.6993 0
M  V30 220 O 22.3113 -0.0841106 -1.94018 0
M  V30 221 C 19.4413 -0.564709 -3.42678 0
M  V30 222 C 18.3953 -1.58486 -3.97576 0
M  V30 223 C 17.7213 -1.00628 -5.25146 0
M  V30 224 C 19.0213 -2.97204 -4.29496 0
M  V30 225 H 20.7153 -1.92495 -2.29317 0
M  V30 226 H 18.2613 -0.92693 -1.102 0
M  V30 227 H 20.2143 -0.401091 -4.19487 0
M  V30 228 H 18.9383 0.396411 -3.24185 0
M  V30 229 H 17.5973 -1.73606 -3.22888 0
M  V30 230 H 17.2453 -0.0368439 -5.02987 0
M  V30 231 H 16.9453 -1.68771 -5.62841 0
M  V30 232 H 18.4693 -0.854015 -6.04598 0
M  V30 233 H 19.8833 -2.8552 -4.97143 0
M  V30 234 H 18.2803 -3.62372 -4.78338 0
M  V30 235 H 19.3503 -3.47956 -3.3772 0
M  V30 236 N 20.6934 1.19889 -1.02296 0
M  V30 237 C 21.9414 1.89046 -0.714558 0
M  V30 238 C 22.2624 1.79636 0.758681 0
M  V30 239 O 21.5324 1.20292 1.54618 0
M  V30 240 H 20.1124 0.699802 -0.261317 0
M  V30 241 H 22.7744 1.45574 -1.29592 0
M  V30 242 H 21.8704 2.95524 -1.0036 0
M  V30 243 N 22.1715 0.800033 1.35784 0
M  V30 244 C 23.1345 0.211565 2.28221 0
M  V30 245 C 24.1345 -0.59728 1.49296 0
M  V30 246 O 25.3245 -0.416721 1.69142 0
M  V30 247 C 22.4565 -0.705846 3.33513 0
M  V30 248 H 23.6495 1.02677 2.81776 0
M  V30 249 H 21.2025 0.570211 1.45528 0
M  V30 250 H 21.9375 -1.54498 2.85133 0
M  V30 251 H 21.7225 -0.127655 3.91892 0
M  V30 252 H 23.2125 -1.11211 4.02519 0
M  V30 253 N 23.6496 -1.47581 0.552962 0
M  V30 254 C 24.8746 -2.07378 0.0300593 0
M  V30 255 C 25.2996 -1.40355 -1.25229 0
M  V30 256 O 24.6576 -0.477099 -1.7491 0
M  V30 257 C 24.7056 -3.60274 -0.153231 0
M  V30 258 O 23.8096 -3.94041 -1.21678 0
M  V30 259 H 23.1506 -0.662158 0.0494182 0
M  V30 260 H 25.6806 -1.89662 0.767434 0
M  V30 261 H 25.6906 -4.0633 -0.368761 0
M  V30 262 H 24.3656 -4.08455 0.783397 0
M  V30 263 H 22.9426 -3.59735 -0.982079 0
M  V30 264 N 25.1277 -0.289203 -1.54924 0
M  V30 265 C 26.3577 0.325989 -2.04012 0
M  V30 266 C 26.7657 1.48961 -1.1665 0
M  V30 267 O 26.1087 1.82794 -0.1822 0
M  V30 268 C 26.1707 0.856112 -3.49158 0
M  V30 269 C 25.8347 -0.180697 -4.56643 0
M  V30 270 C 26.8317 -1.0051 -5.10092 0
M  V30 271 C 24.5167 -0.318998 -5.01286 0
M  V30 272 C 26.5107 -1.95385 -6.06715 0
M  V30 273 C 24.1977 -1.27121 -5.97732 0
M  V30 274 C 25.1957 -2.08713 -6.50329 0
M  V30 275 O 24.8837 -3.02322 -7.44887 0
M  V30 276 H 24.6157 0.0765276 -0.671654 0
M  V30 277 H 27.1697 -0.423254 -2.00992 0
M  V30 278 H 25.3997 1.65567 -3.49463 0
M  V30 279 H 27.0887 1.38591 -3.81507 0
M  V30 280 H 27.8547 -0.90906 -4.76404 0
M  V30 281 H 23.7337 0.306108 -4.59983 0
M  V30 282 H 27.2777 -2.59111 -6.47694 0
M  V30 283 H 23.1747 -1.36801 -6.30837 0
M  V30 284 H 23.9427 -2.97165 -7.6265 0
M  V30 285 N 26.6058 1.57591 -0.0167156 0
M  V30 286 C 28.0218 1.55946 0.339557 0
M  V30 287 C 28.2218 1.02109 1.73713 0
M  V30 288 O 27.2778 0.662303 2.43659 0
M  V30 289 C 28.5908 3.00037 0.199499 0
M  V30 290 C 30.1388 3.11805 0.273193 0
M  V30 291 C 30.6138 4.57713 0.162068 0
M  V30 292 N 32.1048 4.6268 0.219444 0
M  V30 293 C 32.8398 5.73185 0.157054 0
M  V30 294 N 32.3358 6.92786 0.0442936 0
M  V30 295 N 34.1288 5.61707 0.21014 0
M  V30 296 H 26.2798 1.90921 -0.930758 0
M  V30 297 H 28.5428 0.877674 -0.358319 0
M  V30 298 H 28.2488 3.4333 -0.76273 0
M  V30 299 H 28.1228 3.64387 0.974786 0
M  V30 300 H 30.5098 2.68433 1.22587 0
M  V30 301 H 30.5908 2.50201 -0.532256 0
M  V30 302 H 30.2348 5.01763 -0.78714 0
M  V30 303 H 30.1648 5.17283 0.986222 0
M  V30 304 H 32.6558 3.76649 0.307246 0
M  V30 305 H 32.9688 7.728 0.00304069 0
M  V30 306 H 31.3138 6.94999 0.00968457 0
M  V30 307 H 34.5048 4.6716 0.296546 0
M  V30 308 H 34.6778 6.47807 0.158054 0
M  V30 309 N 28.0839 -0.256276 1.55502 0
M  V30 310 C 29.4999 -0.604325 1.47716 0
M  V30 311 C 29.6999 -1.88763 0.705039 0
M  V30 312 O 28.7559 -2.51445 0.230613 0
M  V30 313 C 30.0689 -0.715756 2.92057 0
M  V30 314 C 31.6169 -0.808706 3.02372 0
M  V30 315 C 32.0919 -0.951777 4.48001 0
M  V30 316 N 33.5829 -1.01688 4.519 0
M  V30 317 C 34.3179 -1.14668 5.61817 0
M  V30 318 N 33.8139 -1.24261 6.81565 0
M  V30 319 N 35.6069 -1.1791 5.49594 0
M  V30 320 H 27.7579 0.586291 2.04148 0
M  V30 321 H 30.0209 0.201015 0.926443 0
M  V30 322 H 29.7269 0.157027 3.51349 0
M  V30 323 H 29.6009 -1.59071 3.42018 0
M  V30 324 H 31.9879 -1.67195 2.43166 0
M  V30 325 H 32.0689 0.0912063 2.55637 0
M  V30 326 H 31.7129 -0.0931291 5.07815 0
M  V30 327 H 31.6429 -1.86659 4.92408 0
M  V30 328 H 34.1339 -0.954468 3.65648 0
M  V30 329 H 34.4469 -1.34046 7.61086 0
M  V30 330 H 32.7919 -1.21236 6.84344 0
M  V30 331 H 35.9829 -1.10057 4.54978 0
M  V30 332 H 36.1559 -1.27681 6.35296 0
M  V30 333 N 29.562 -1.4872 -0.521534 0
M  V30 334 C 30.81 -1.56857 -1.27437 0
M  V30 335 C 31.131 -0.247982 -1.93417 0
M  V30 336 O 30.401 0.731151 -1.81744 0
M  V30 337 H 28.981 -0.577885 -0.473347 0
M  V30 338 H 31.643 -1.85233 -0.606205 0
M  V30 339 H 30.739 -2.35402 -2.0492 0
M  V30 340 N 31.0401 0.771051 -1.3745 0
M  V30 341 C 32.0031 1.86598 -1.33093 0
M  V30 342 C 33.0031 1.59076 -0.234845 0
M  V30 343 O 34.1931 1.67145 -0.490732 0
M  V30 344 C 31.3251 3.23747 -1.06773 0
M  V30 345 H 32.5181 1.91873 -2.30488 0
M  V30 346 H 30.0711 0.970876 -1.2249 0
M  V30 347 H 30.8061 3.24148 -0.099129 0
M  V30 348 H 30.5911 3.45115 -1.86112 0
M  V30 349 H 32.0811 4.03824 -1.06377 0
M  V30 350 N 32.5182 1.22032 0.997298 0
M  V30 351 C 33.7432 1.06921 1.77715 0
M  V30 352 C 34.1682 -0.376226 1.84299 0
M  V30 353 O 33.5262 -1.27165 1.29223 0
M  V30 354 C 33.5742 1.67996 3.19076 0
M  V30 355 O 32.6782 0.930653 4.01762 0
M  V30 356 H 32.0192 0.375814 0.547412 0
M  V30 357 H 34.5492 1.61737 1.25309 0
M  V30 358 H 34.5592 1.72538 3.69723 0
M  V30 359 H 33.2342 2.73182 3.13599 0
M  V30 360 H 31.8112 0.960917 3.60307 0
M  V30 361 N 33.9963 -1.19345 1.0293 0
M  V30 362 C 35.2213 -1.93538 0.745511 0
M  V30 363 C 35.6463 -1.75007 -0.689511 0
M  V30 364 O 35.0043 -1.05265 -1.47611 0
M  V30 365 C 35.0523 -3.43336 1.10239 0
M  V30 366 O 34.1563 -4.11806 0.221289 0
M  V30 367 H 33.4973 -0.604193 0.275404 0
M  V30 368 H 36.0273 -1.5141 1.37609 0
M  V30 369 H 36.0373 -3.94004 1.05947 0
M  V30 370 H 34.7123 -3.56146 2.14786 0
M  V30 371 H 33.2893 -3.715 0.322842 0
M  V30 372 N 35.4744 -0.807222 -1.35358 0
M  V30 373 C 36.7214 -0.387888 -1.9875 0
M  V30 374 C 37.0494 1.04509 -1.64037 0
M  V30 375 O 36.3044 1.73986 -0.895946 0
M  V30 376 C 36.6034 -0.519036 -3.53611 0
M  V30 377 C 36.2694 -1.91542 -4.08194 0
M  V30 378 C 34.9314 -2.29745 -4.22813 0
M  V30 379 C 37.2834 -2.82896 -4.37744 0
M  V30 380 C 34.6114 -3.58668 -4.643 0
M  V30 381 C 36.9634 -4.11265 -4.8067 0
M  V30 382 C 35.6274 -4.49466 -4.93494 0
M  V30 383 H 34.8974 -0.141938 -0.727279 0
M  V30 384 H 37.5444 -1.02814 -1.6156 0
M  V30 385 H 35.8494 0.204658 -3.91265 0
M  V30 386 H 37.5464 -0.175345 -4.00616 0
M  V30 387 H 34.1364 -1.60862 -3.97268 0
M  V30 388 H 38.3204 -2.54629 -4.26002 0
M  V30 389 H 33.5764 -3.88113 -4.72418 0
M  V30 390 H 37.7504 -4.82153 -5.02496 0
M  V30 391 H 35.3774 -5.49418 -5.25399 0
M  V30 392 N 36.9525 1.47285 -0.560781 0
M  V30 393 C 38.3635 1.86258 -0.128343 0
M  V30 394 C 38.7145 1.46699 1.30284 0
M  V30 395 O 37.8395 0.871698 1.98067 0
M  V30 396 C 38.4345 3.38044 -0.22614 0
M  V30 397 C 36.9935 3.76096 0.151283 0
M  V30 398 C 36.1405 2.71335 -0.572084 0
M  V30 399 H 39.0915 1.38752 -0.770297 0
M  V30 400 H 39.1125 3.76441 0.554322 0
M  V30 401 H 38.6245 3.66806 -1.26788 0
M  V30 402 H 36.7255 3.52951 1.19399 0
M  V30 403 H 36.8385 4.78641 -0.209765 0
M  V30 404 H 35.2025 2.54696 -0.0147653 0
M  V30 405 H 35.9855 3.02938 -1.61504 0
M  V30 406 N 38.4306 0.297415 1.54768 0
M  V30 407 C 39.6766 -0.313376 2.00364 0
M  V30 408 C 40.0096 -1.53815 1.18553 0
M  V30 409 O 39.2846 -1.92739 0.261103 0
M  V30 410 C 39.5676 -0.673525 3.53745 0
M  V30 411 C 39.4206 0.560133 4.46299 0
M  V30 412 C 40.7396 -1.50143 4.13697 0
M  V30 413 H 37.8586 -0.112428 0.728374 0
M  V30 414 H 40.5006 0.4088 1.8555 0
M  V30 415 H 38.6506 -1.28881 3.665 0
M  V30 416 H 40.3226 1.19863 4.45455 0
M  V30 417 H 38.5656 1.19405 4.17043 0
M  V30 418 H 39.2366 0.26405 5.51368 0
M  V30 419 H 41.7126 -0.981588 4.04356 0
M  V30 420 H 40.5886 -1.72221 5.21182 0
M  V30 421 H 40.8496 -2.48952 3.65343 0
M  V30 422 N 39.9087 -1.5758 0.0250728 0
M  V30 423 C 41.3197 -1.79476 -0.514323 0
M  V30 424 C 41.6707 -0.934956 -1.72491 0
M  V30 425 O 40.7957 -0.144245 -2.15919 0
M  V30 426 C 41.3907 -3.25503 -0.939842 0
M  V30 427 C 39.9497 -3.48408 -1.42438 0
M  V30 428 C 39.0967 -2.74583 -0.387201 0
M  V30 429 H 42.0477 -1.567 0.25113 0
M  V30 430 H 42.0687 -3.34992 -1.80445 0
M  V30 431 H 41.5807 -3.88056 -0.0585628 0
M  V30 432 H 39.6817 -2.91103 -2.32572 0
M  V30 433 H 39.7947 -4.57119 -1.43455 0
M  V30 434 H 38.1587 -2.39942 -0.854409 0
M  V30 435 H 38.9417 -3.39849 0.485543 0
M  V30 436 N 41.3868 0.248026 -1.55636 0
M  V30 437 C 42.7978 0.817177 -1.67866 0
M  V30 438 C 43.1488 1.86069 -0.622322 0
M  V30 439 O 42.2738 2.15157 0.231618 0
M  V30 440 C 42.8688 1.489 -3.04326 0
M  V30 441 C 41.4278 2.00587 -3.185 0
M  V30 442 C 40.5748 0.856573 -2.63739 0
M  V30 443 H 43.5258 0.0238579 -1.58682 0
M  V30 444 H 43.5468 2.35698 -2.98708 0
M  V30 445 H 43.0588 0.729279 -3.81186 0
M  V30 446 H 41.1598 2.79443 -2.4646 0
M  V30 447 H 41.2728 2.20402 -4.25393 0
M  V30 448 H 39.6368 1.25678 -2.21534 0
M  V30 449 H 40.4198 0.109953 -3.43124 0
M  V30 450 N 42.8649 1.48995 0.513639 0
M  V30 451 C 44.2759 1.5119 1.09537 0
M  V30 452 C 44.6269 0.290906 1.94031 0
M  V30 453 O 43.7519 -0.60049 2.07902 0
M  V30 454 C 44.3469 2.73964 1.99322 0
M  V30 455 C 42.9059 2.78978 2.52682 0
M  V30 456 C 42.0529 2.44934 1.30009 0
M  V30 457 H 45.0039 1.55875 0.298125 0
M  V30 458 H 45.0249 2.53409 2.83838 0
M  V30 459 H 44.5369 3.62813 1.37799 0
M  V30 460 H 42.6379 1.94378 3.1788 0
M  V30 461 H 42.7509 3.8083 2.90698 0
M  V30 462 H 41.1149 1.9644 1.62122 0
M  V30 463 H 41.8979 3.36043 0.702131 0
M  V30 464 N 44.343 -0.763751 1.37857 0
M  V30 465 C 45.591 -1.51957 1.33243 0
M  V30 466 C 45.912 -1.94835 -0.0801709 0
M  V30 467 O 45.182 -1.66894 -1.02582 0
M  V30 468 H 43.762 -0.563626 0.49024 0
M  V30 469 H 46.424 -0.908504 1.7243 0
M  V30 470 H 45.52 -2.41523 1.97669 0
M  V30 471 N 45.8211 -1.22559 -0.990812 0
M  V30 472 C 46.7841 -0.998863 -2.0629 0
M  V30 473 C 47.7841 0.0354834 -1.60761 0
M  V30 474 O 48.9741 -0.203231 -1.7301 0
M  V30 475 C 46.1061 -0.509203 -3.37076 0
M  V30 476 H 47.2991 -1.95014 -2.27837 0
M  V30 477 H 44.8521 -1.04456 -1.16269 0
M  V30 478 H 45.5871 0.446335 -3.21214 0
M  V30 479 H 45.3721 -1.25547 -3.71457 0
M  V30 480 H 46.8621 -0.370888 -4.1595 0
M  V30 481 N 47.2992 1.18797 -1.03562 0
M  V30 482 C 48.2312 2.21731 -0.580337 0
M  V30 483 C 49.2442 1.59051 0.347349 0
M  V30 484 O 50.4332 1.77929 0.142669 0
M  V30 485 C 47.5332 3.38459 0.172805 0
M  V30 486 C 46.7062 4.3072 -0.761496 0
M  V30 487 C 45.7652 5.26174 -0.0525547 0
M  V30 488 O 44.7912 5.65108 -0.681333 0
M  V30 489 N 45.9932 5.67624 1.21586 0
M  V30 490 H 48.7582 2.61417 -1.46565 0
M  V30 491 H 46.3192 1.33531 -0.915476 0
M  V30 492 H 48.3112 3.99335 0.656793 0
M  V30 493 H 46.8812 2.97507 0.959602 0
M  V30 494 H 46.1012 3.67525 -1.42544 0
M  V30 495 H 47.3892 4.89267 -1.39626 0
M  V30 496 H 46.7872 5.38038 1.74732 0
M  V30 497 H 45.3442 6.30721 1.64421 0
M  V30 498 N 48.7773 0.814389 1.34928 0
M  V30 499 C 50.0253 0.397636 1.9815 0
M  V30 500 C 50.3463 -1.04069 1.64908 0
M  V30 501 O 49.6163 -1.72121 0.93548 0
M  V30 502 H 48.1963 0.144043 0.732981 0
M  V30 503 H 50.8583 1.04195 1.6471 0
M  V30 504 H 49.9543 0.509688 3.0791 0
M  V30 505 N 50.2554 -1.46986 0.568584 0
M  V30 506 C 51.5014 -2.02741 0.0488709 0
M  V30 507 C 51.8344 -1.44077 -1.30214 0
M  V30 508 O 51.1094 -0.600552 -1.84996 0
M  V30 509 C 51.3924 -3.60086 -0.032047 0
M  V30 510 C 51.2454 -4.29162 1.34686 0
M  V30 511 C 52.5644 -4.33838 -0.739798 0
M  V30 512 H 49.6834 -0.736749 0.0192338 0
M  V30 513 H 52.3254 -1.75289 0.733065 0
M  V30 514 H 50.4754 -3.83606 -0.61473 0
M  V30 515 H 52.1474 -4.16948 1.97362 0
M  V30 516 H 50.3904 -3.89073 1.91846 0
M  V30 517 H 51.0614 -5.37826 1.24285 0
M  V30 518 H 53.5374 -4.15378 -0.244939 0
M  V30 519 H 52.4134 -5.43537 -0.765406 0
M  V30 520 H 52.6744 -4.03875 -1.79827 0
M  V30 521 N 51.7335 -0.305618 -1.54608 0
M  V30 522 C 52.6965 0.555591 -2.22364 0
M  V30 523 C 53.6965 1.05768 -1.21119 0
M  V30 524 O 54.8865 0.952972 -1.45822 0
M  V30 525 C 52.0185 1.76974 -2.91364 0
M  V30 526 H 53.2115 -0.0364572 -2.99878 0
M  V30 527 H 50.7645 -0.0565007 -1.56198 0
M  V30 528 H 51.4995 2.40151 -2.17941 0
M  V30 529 H 51.2845 1.41732 -3.65588 0
M  V30 530 H 52.7745 2.38148 -3.43038 0
M  V30 531 N 53.2116 1.57565 -0.0334293 0
M  V30 532 C 54.1216 2.13943 0.962572 0
M  V30 533 C 55.1376 1.09276 1.35406 0
M  V30 534 O 56.3136 1.41355 1.4346 0
M  V30 535 C 53.3786 2.65887 2.22497 0
M  V30 536 C 52.4396 3.85286 1.8935 0
M  V30 537 C 51.6726 4.34743 3.09571 0
M  V30 538 O 51.8956 3.83352 4.22371 0
M  V30 539 O 50.8296 5.26538 2.91618 0
M  V30 540 H 54.6556 2.99333 0.513169 0
M  V30 541 H 52.2406 1.4822 0.18743 0
M  V30 542 H 54.1226 2.99346 2.96598 0
M  V30 543 H 52.7976 1.83578 2.6661 0
M  V30 544 H 51.7046 3.56746 1.1262 0
M  V30 545 H 53.0376 4.68771 1.5005 0
M  V30 546 N 54.6897 -0.239769 1.55765 0
M  V30 547 C 55.6197 -1.30052 1.9393 0
M  V30 548 C 56.6007 -1.49839 0.805132 0
M  V30 549 O 57.7857 -1.62328 1.06599 0
M  V30 550 C 54.9157 -2.65391 2.2402 0
M  V30 551 C 53.8697 -2.60289 3.39755 0
M  V30 552 C 53.1957 -3.99489 3.55405 0
M  V30 553 C 54.4957 -2.16654 4.75246 0
M  V30 554 H 56.1897 -0.983573 2.82783 0
M  V30 555 H 53.7357 -0.471701 1.36055 0
M  V30 556 H 55.6887 -3.3974 2.49308 0
M  V30 557 H 54.4127 -2.98736 1.32 0
M  V30 558 H 53.0717 -1.88398 3.14487 0
M  V30 559 H 52.7197 -4.30112 2.60793 0
M  V30 560 H 52.4197 -3.96962 4.33238 0
M  V30 561 H 53.9437 -4.75528 3.83022 0
M  V30 562 H 55.3577 -2.80737 4.99859 0
M  V30 563 H 53.7547 -2.25223 5.56232 0
M  V30 564 H 54.8247 -1.11835 4.71827 0
M  V30 565 N 56.1678 -1.49265 -0.50573 0
M  V30 566 C 57.0978 -1.68495 -1.61653 0
M  V30 567 C 58.0788 -0.53366 -1.61512 0
M  V30 568 O 59.2638 -0.76897 -1.78327 0
M  V30 569 C 56.3938 -1.74709 -3.00157 0
M  V30 570 C 55.3478 -2.89581 -3.15162 0
M  V30 571 C 54.6738 -2.80903 -4.5497 0
M  V30 572 C 55.9738 -4.30578 -2.95634 0
M  V30 573 H 57.6678 -2.61493 -1.45814 0
M  V30 574 H 55.2138 -1.25838 -0.70005 0
M  V30 575 H 57.1668 -1.86748 -3.77761 0
M  V30 576 H 55.8908 -0.783067 -3.17074 0
M  V30 577 H 54.5498 -2.77136 -2.39982 0
M  V30 578 H 54.1978 -1.82419 -4.68756 0
M  V30 579 H 53.8978 -3.57999 -4.65951 0
M  V30 580 H 55.4218 -2.94944 -5.34641 0
M  V30 581 H 56.8358 -4.4373 -3.63011 0
M  V30 582 H 55.2328 -5.0886 -3.18091 0
M  V30 583 H 56.3028 -4.45352 -1.91806 0
M  V30 584 N 57.6459 0.756429 -1.3826 0
M  V30 585 C 59.0619 1.0591 -1.19395 0
M  V30 586 C 59.2619 2.01459 -0.0406567 0
M  V30 587 O 58.3179 2.44909 0.614467 0
M  V30 588 C 59.6309 1.64191 -2.51916 0
M  V30 589 C 61.1789 1.76376 -2.58574 0
M  V30 590 C 61.6539 2.38069 -3.91264 0
M  V30 591 N 63.1449 2.45503 -3.92788 0
M  V30 592 C 63.8799 2.94126 -4.92217 0
M  V30 593 N 63.3759 3.42805 -6.02043 0
M  V30 594 N 65.1689 2.9314 -4.7961 0
M  V30 595 H 57.3199 0.122313 -2.12048 0
M  V30 596 H 59.5829 0.116892 -0.940766 0
M  V30 597 H 59.2889 1.01451 -3.3675 0
M  V30 598 H 59.1629 2.6329 -2.70108 0
M  V30 599 H 61.5499 2.38244 -1.74137 0
M  V30 600 H 61.6309 0.759894 -2.44252 0
M  V30 601 H 61.2749 1.76835 -4.76121 0
M  V30 602 H 61.2049 3.39091 -4.02895 0
M  V30 603 H 63.6959 2.1107 -3.13461 0
M  V30 604 H 64.0089 3.78354 -6.73846 0
M  V30 605 H 62.3539 3.4087 -6.05667 0
M  V30 606 H 65.5449 2.54419 -3.92923 0
M  V30 607 H 65.7179 3.30721 -5.5725 0
M  V30 608 N 59.124 1.23083 0.984299 0
M  V30 609 C 60.401 0.9689 1.69917 0
M  V30 610 C 60.781 -0.513604 2.04757 0
M  V30 611 O 60.129 -1.48383 1.73767 0
M  V30 612 C 60.339 1.87518 2.94343 0
M  V30 613 C 61.687 2.13636 3.6694 0
M  V30 614 O 62.711 1.85036 3.04368 0
M  V30 615 O 61.57 2.62119 4.79537 0
M  V30 616 H 58.664 0.365095 0.742048 0
M  V30 617 H 61.21 1.34107 1.03987 0
M  V30 618 H 59.982 2.87756 2.65164 0
M  V30 619 H 59.605 1.50514 3.6801 0
M  V30 620 N 60.6021 -1.18246 1.0419 0
M  V30 621 C 61.5651 -2.20128 0.638452 0
M  V30 622 C 62.5651 -1.57885 -0.304805 0
M  V30 623 O 63.7551 -1.73967 -0.0900369 0
M  V30 624 C 60.8871 -3.4084 -0.0637751 0
M  V30 625 H 62.0801 -2.57336 1.54007 0
M  V30 626 H 59.6331 -1.32152 0.834598 0
M  V30 627 H 60.3681 -3.09166 -0.979136 0
M  V30 628 H 60.1531 -3.8726 0.614198 0
M  V30 629 H 61.6431 -4.16274 -0.332512 0
M  V30 630 N 62.0802 -0.821533 -1.34494 0
M  V30 631 C 63.3082 -0.421884 -2.02553 0
M  V30 632 C 63.7232 0.971745 -1.61872 0
M  V30 633 O 63.0802 1.62864 -0.823496 0
M  V30 634 C 63.1312 -0.51285 -3.57844 0
M  V30 635 O 62.8522 -1.85155 -3.97051 0
M  V30 636 C 64.3532 -0.107921 -4.43169 0
M  V30 637 H 61.5732 -0.169482 -0.649243 0
M  V30 638 H 64.1172 -1.1093 -1.71798 0
M  V30 639 H 62.2722 0.126474 -3.87193 0
M  V30 640 H 62.6862 -1.82482 -4.91732 0
M  V30 641 H 64.1602 -0.222657 -5.51551 0
M  V30 642 H 64.6372 0.948401 -4.28838 0
M  V30 643 H 65.2432 -0.720989 -4.19144 0
M  V30 644 N 63.5583 1.46682 -0.576371 0
M  V30 645 C 64.8063 2.02013 -0.0594163 0
M  V30 646 C 65.1273 1.45101 1.30271 0
M  V30 647 O 64.3973 0.633317 1.8538 0
M  V30 648 H 62.9773 0.746759 -0.0189745 0
M  V30 649 H 65.6393 1.79862 -0.750717 0
M  V30 650 H 64.7353 3.12097 0.014345 0
M  V30 651 N 65.0364 0.313813 1.54444 0
M  V30 652 C 65.9994 -0.54379 2.22656 0
M  V30 653 C 66.9994 -1.05124 1.21678 0
M  V30 654 O 68.1894 -0.945225 1.46325 0
M  V30 655 C 65.3214 -1.75427 2.92298 0
M  V30 656 H 66.5144 0.0523599 2.99854 0
M  V30 657 H 64.0674 0.0647834 1.56166 0
M  V30 658 H 64.8024 -2.38991 2.19211 0
M  V30 659 H 64.5874 -1.39791 3.66334 0
M  V30 660 H 66.0774 -2.36325 3.44297 0
M  V30 661 N 66.5145 -1.57545 0.0417849 0
M  V30 662 C 67.4245 -2.14451 -0.951213 0
M  V30 663 C 68.4405 -1.09992 -1.34825 0
M  V30 664 O 69.6165 -1.42114 -1.42708 0
M  V30 665 C 66.6815 -2.67063 -2.21084 0
M  V30 666 C 65.7425 -3.86284 -1.87304 0
M  V30 667 C 64.9755 -4.36378 -3.07261 0
M  V30 668 O 65.1985 -3.85587 -4.20332 0
M  V30 669 O 64.1325 -5.28077 -2.88822 0
M  V30 670 H 67.9585 -2.99601 -0.497287 0
M  V30 671 H 65.5435 -1.48317 -0.179567 0
M  V30 672 H 67.4255 -3.00914 -2.95006 0
M  V30 673 H 66.1005 -1.84989 -2.65633 0
M  V30 674 H 65.0075 -3.57338 -1.10727 0
M  V30 675 H 66.3405 -4.6956 -1.47562 0
M  V30 676 N 67.9926 0.231505 -1.5589 0
M  V30 677 C 68.9026 1.308 -1.94752 0
M  V30 678 C 69.9186 1.51826 -0.849989 0
M  V30 679 O 71.0946 1.6515 -1.15271 0
M  V30 680 C 68.1596 2.63968 -2.24771 0
M  V30 681 C 67.2206 2.51331 -3.48039 0
M  V30 682 C 66.4536 3.78148 -3.76616 0
M  V30 683 O 66.6766 4.80722 -3.07022 0
M  V30 684 O 65.6106 3.75857 -4.70123 0
M  V30 685 H 69.4366 1.0083 -2.86474 0
M  V30 686 H 67.0216 0.433547 -1.42971 0
M  V30 687 H 68.9036 3.42633 -2.45318 0
M  V30 688 H 67.5786 2.9364 -1.36225 0
M  V30 689 H 66.4856 1.709 -3.32782 0
M  V30 690 H 67.8186 2.26601 -4.36936 0
M  V30 691 N 69.4707 1.49531 0.497807 0
M  V30 692 C 70.3807 1.69176 1.62532 0
M  V30 693 C 71.3967 0.5744 1.64246 0
M  V30 694 O 72.5727 0.849497 1.82608 0
M  V30 695 C 69.6377 1.75695 2.98885 0
M  V30 696 C 68.6987 2.9929 3.07773 0
M  V30 697 C 67.9317 3.05488 4.37622 0
M  V30 698 O 68.1547 2.19192 5.26603 0
M  V30 699 O 67.0887 3.9798 4.51548 0
M  V30 700 H 70.9147 2.647 1.48887 0
M  V30 701 H 68.4997 1.3331 0.674441 0
M  V30 702 H 70.3817 1.82317 3.79919 0
M  V30 703 H 69.0567 0.8335 3.12785 0
M  V30 704 H 67.9637 2.98183 2.25915 0
M  V30 705 H 69.2967 3.91125 2.98801 0
M  V30 706 N 70.9488 -0.749086 1.3866 0
M  V30 707 C 71.9118 -1.84457 1.36045 0
M  V30 708 C 72.9118 -1.58682 0.260122 0
M  V30 709 O 74.1018 -1.66343 0.517261 0
M  V30 710 C 71.2338 -3.22008 1.11911 0
M  V30 711 H 72.4268 -1.88182 2.33512 0
M  V30 712 H 69.9798 -0.951266 1.24019 0
M  V30 713 H 70.7148 -3.2395 0.150686 0
M  V30 714 H 70.4998 -3.42111 1.91579 0
M  V30 715 H 71.9898 -4.0208 1.12788 0
M  V30 716 N 72.4269 -1.23603 -0.977757 0
M  V30 717 C 73.8379 -1.06424 -1.53398 0
M  V30 718 C 74.1889 0.367578 -1.92726 0
M  V30 719 O 73.3139 1.25465 -1.76316 0
M  V30 720 C 73.9089 -1.92568 -2.78753 0
M  V30 721 C 72.4679 -1.79642 -3.30765 0
M  V30 722 C 71.6149 -1.88111 -2.03739 0
M  V30 723 H 74.5659 -1.37227 -0.797152 0
M  V30 724 H 74.5869 -1.45203 -3.51705 0
M  V30 725 H 74.0989 -2.96771 -2.50098 0
M  V30 726 H 72.1999 -0.782325 -3.64294 0
M  V30 727 H 72.3129 -2.63174 -4.00345 0
M  V30 728 H 70.6769 -1.31723 -2.17994 0
M  V30 729 H 71.4599 -2.93875 -1.77461 0
M  V30 730 N 73.905 1.17692 -1.04816 0
M  V30 731 C 75.151 1.88389 -0.766892 0
M  V30 732 C 75.506 1.79282 0.698269 0
M  V30 733 O 74.799 1.18739 1.50372 0
M  V30 734 C 74.993 3.37462 -1.17703 0
M  V30 735 C 74.822 3.6108 -2.68051 0
M  V30 736 C 73.592 3.78018 -3.35307 0
M  V30 737 C 75.79 3.61039 -3.66273 0
M  V30 738 N 73.772 3.89444 -4.74559 0
M  V30 739 C 75.143 3.78269 -4.91235 0
M  V30 740 C 77.198 3.44168 -3.59796 0
M  V30 741 C 75.901 3.80376 -6.10497 0
M  V30 742 C 77.927 3.4756 -4.78493 0
M  V30 743 C 77.289 3.65295 -6.02278 0
M  V30 744 H 73.388 0.707651 -0.332798 0
M  V30 745 H 75.972 1.41314 -1.33934 0
M  V30 746 H 74.143 3.83214 -0.63257 0
M  V30 747 H 75.875 3.95759 -0.845989 0
M  V30 748 H 72.63 3.77714 -2.85708 0
M  V30 749 H 73.054 3.98962 -5.46954 0
M  V30 750 H 77.696 3.29396 -2.65062 0
M  V30 751 H 75.414 3.93933 -7.05579 0
M  V30 752 H 79 3.3577 -4.75131 0
M  V30 753 H 77.88 3.6782 -6.92588 0
M  V30 754 N 75.3831 0.828654 1.34056 0
M  V30 755 C 76.3461 0.259927 2.27721 0
M  V30 756 C 77.3461 -0.565478 1.50529 0
M  V30 757 O 78.5361 -0.38075 1.69988 0
M  V30 758 C 75.6681 -0.634944 3.34935 0
M  V30 759 H 76.8611 1.0863 2.79534 0
M  V30 760 H 74.4141 0.600951 1.44285 0
M  V30 761 H 75.1491 -1.48416 2.88346 0
M  V30 762 H 74.9341 -0.0444999 3.92075 0
M  V30 763 H 76.4241 -1.02648 4.04788 0
M  V30 764 N 76.8612 -1.46375 0.584142 0
M  V30 765 C 77.8242 -2.28784 -0.138108 0
M  V30 766 C 78.8242 -1.38471 -0.817462 0
M  V30 767 O 80.0142 -1.60833 -0.669199 0
M  V30 768 C 77.1462 -3.18892 -1.20503 0
M  V30 769 H 78.3392 -2.94117 0.586127 0
M  V30 770 H 75.8922 -1.52509 0.342171 0
M  V30 771 H 76.6272 -2.58309 -1.96079 0
M  V30 772 H 76.4122 -3.85388 -0.722384 0
M  V30 773 H 77.9022 -3.80914 -1.71155 0
M  V30 774 N 78.3393 -0.321999 -1.54275 0
M  V30 775 C 79.5673 0.283052 -2.04955 0
M  V30 776 C 79.9823 1.45904 -1.19823 0
M  V30 777 O 79.3393 1.81063 -0.228545 0
M  V30 778 C 79.3903 0.719028 -3.54277 0
M  V30 779 O 79.1113 -0.410175 -4.36176 0
M  V30 780 C 80.6123 1.38705 -4.21041 0
M  V30 781 H 77.8323 0.0584616 -0.668448 0
M  V30 782 H 80.3763 -0.467734 -1.99079 0
M  V30 783 H 78.5313 1.41979 -3.60445 0
M  V30 784 H 78.9453 -0.0669416 -5.24457 0
M  V30 785 H 80.4193 1.64306 -5.2698 0
M  V30 786 H 80.8963 2.33385 -3.72059 0
M  V30 787 H 81.5023 0.728906 -4.19007 0
M  V30 788 N 79.8174 1.5752 -0.0501392 0
M  V30 789 C 80.7274 2.14952 0.939827 0
M  V30 790 C 81.7434 1.10706 1.34239 0
M  V30 791 O 82.9194 1.42869 1.41952 0
M  V30 792 C 79.9844 2.68232 2.19665 0
M  V30 793 C 79.0454 3.87272 1.85253 0
M  V30 794 C 78.2784 4.38002 3.04943 0
M  V30 795 O 78.5014 3.87811 4.18281 0
M  V30 796 O 77.4354 5.29602 2.86017 0
M  V30 797 H 81.2614 2.9986 0.481392 0
M  V30 798 H 78.8464 1.4841 0.171699 0
M  V30 799 H 80.7284 3.02475 2.93406 0
M  V30 800 H 79.4034 1.86395 2.64648 0
M  V30 801 H 78.3104 3.5792 1.0883 0
M  V30 802 H 79.6434 4.70336 1.4507 0
M  V30 803 N 81.2955 -0.223234 1.56011 0
M  V30 804 C 82.7115 -0.572856 1.48965 0
M  V30 805 C 82.9115 -1.87225 0.74492 0
M  V30 806 O 81.9675 -2.50899 0.283896 0
M  V30 807 C 83.2805 -0.653646 2.9351 0
M  V30 808 C 84.8285 -0.744386 3.0402 0
M  V30 809 C 85.3035 -0.856535 4.49919 0
M  V30 810 N 86.7945 -0.9208 4.53955 0
M  V30 811 C 87.5295 -1.02726 5.64123 0
M  V30 812 N 87.0255 -1.09777 6.84047 0
M  V30 813 N 88.8185 -1.06226 5.51971 0
M  V30 814 H 80.9695 0.629462 2.02858 0
M  V30 815 H 83.2325 0.220621 0.921971 0
M  V30 816 H 82.9385 0.231518 3.50937 0
M  V30 817 H 82.8125 -1.51781 3.45315 0
M  V30 818 H 85.1995 -1.61999 2.46658 0
M  V30 819 H 85.2805 0.14541 2.55386 0
M  V30 820 H 84.9245 0.0146069 5.07898 0
M  V30 821 H 84.8545 -1.76172 4.96257 0
M  V30 822 H 87.3455 -0.876694 3.6759 0
M  V30 823 H 87.6585 -1.17872 7.63758 0
M  V30 824 H 86.0035 -1.06693 6.86762 0
M  V30 825 H 89.1945 -1.00382 4.5721 0
M  V30 826 H 89.3675 -1.14177 6.37862 0
M  V30 827 N 82.7736 -1.49793 -0.48987 0
M  V30 828 C 84.1896 -1.36803 -0.822022 0
M  V30 829 C 84.3896 -0.409652 -1.97292 0
M  V30 830 O 83.4456 0.154614 -2.52026 0
M  V30 831 C 84.7586 -2.77768 -1.15175 0
M  V30 832 C 86.3066 -2.86549 -1.25931 0
M  V30 833 C 86.7816 -4.28306 -1.62228 0
M  V30 834 N 88.2726 -4.31169 -1.69256 0
M  V30 835 C 89.0076 -5.37832 -1.98807 0
M  V30 836 N 88.5036 -6.54726 -2.26507 0
M  V30 837 N 90.2966 -5.25258 -2.00152 0
M  V30 838 H 82.4476 -2.10691 0.268881 0
M  V30 839 H 84.7106 -0.946241 0.057728 0
M  V30 840 H 84.4166 -3.49648 -0.379335 0
M  V30 841 H 84.2906 -3.13836 -2.09253 0
M  V30 842 H 86.6776 -2.14899 -2.02243 0
M  V30 843 H 86.7586 -2.54049 -0.298776 0
M  V30 844 H 86.4026 -5.00486 -0.864622 0
M  V30 845 H 86.3326 -4.58279 -2.594 0
M  V30 846 H 88.8236 -3.4687 -1.49965 0
M  V30 847 H 89.1366 -7.31833 -2.48276 0
M  V30 848 H 87.4816 -6.57933 -2.23939 0
M  V30 849 H 90.6726 -4.32938 -1.77996 0
M  V30 850 H 90.8456 -6.08476 -2.22848 0
M  V30 851 N 84.2517 0.741722 -1.39055 0
M  V30 852 C 85.1847 1.86416 -1.31622 0
M  V30 853 C 86.1627 1.61473 -0.191076 0
M  V30 854 O 87.3467 1.84825 -0.370399 0
M  V30 855 C 84.4737 3.22266 -1.04221 0
M  V30 856 C 83.5197 3.66079 -2.18834 0
M  V30 857 S 84.3527 3.7623 -3.81066 0
M  V30 858 C 85.5087 5.14881 -3.55877 0
M  V30 859 H 85.7417 1.92437 -2.26617 0
M  V30 860 H 83.2747 0.905907 -1.25031 0
M  V30 861 H 85.2327 4.00714 -0.890964 0
M  V30 862 H 83.8937 3.1391 -0.109237 0
M  V30 863 H 83.0867 4.64648 -1.95238 0
M  V30 864 H 82.6887 2.94817 -2.30128 0
M  V30 865 H 84.9807 6.01006 -3.12726 0
M  V30 866 H 85.9237 5.43503 -4.53884 0
M  V30 867 H 86.3317 4.84239 -2.90126 0
M  V30 868 N 85.7298 1.2412 0.971189 0
M  V30 869 C 87.1408 1.07236 1.52831 0
M  V30 870 C 87.4918 -0.357352 1.92918 0
M  V30 871 O 86.6168 -1.24528 1.76979 0
M  V30 872 C 87.2118 1.94043 2.77728 0
M  V30 873 C 85.7708 1.81394 3.29808 0
M  V30 874 C 84.9178 1.89189 2.02738 0
M  V30 875 H 87.8688 1.37648 0.789864 0
M  V30 876 H 87.8898 1.47066 3.5093 0
M  V30 877 H 87.4018 2.98093 2.4852 0
M  V30 878 H 85.5028 0.801634 3.63874 0
M  V30 879 H 85.6158 2.65294 3.98944 0
M  V30 880 H 83.9798 1.32877 2.17292 0
M  V30 881 H 84.7628 2.94812 1.759 0
M  V30 882 N 87.2079 -1.17134 1.05439 0
M  V30 883 C 88.4559 -1.87085 0.764429 0
M  V30 884 C 88.7769 -1.81584 -0.710787 0
M  V30 885 O 88.0469 -1.24349 -1.51374 0
M  V30 886 H 86.6269 -0.692627 0.279779 0
M  V30 887 H 89.2889 -1.42087 1.33406 0
M  V30 888 H 88.3849 -2.92759 1.0816 0
M  V30 889 N 88.686 -0.835752 -1.33615 0
M  V30 890 C 89.618 -0.224151 -2.28101 0
M  V30 891 C 90.631 0.593331 -1.51603 0
M  V30 892 O 91.82 0.420911 -1.73466 0
M  V30 893 C 88.92 0.703309 -3.31522 0
M  V30 894 C 88.093 -0.0741528 -4.37337 0
M  V30 895 C 87.152 0.776176 -5.20444 0
M  V30 896 O 86.178 0.216506 -5.68788 0
M  V30 897 N 87.38 2.09401 -5.41416 0
M  V30 898 H 90.145 -1.03598 -2.81225 0
M  V30 899 H 87.706 -0.69392 -1.46275 0
M  V30 900 H 89.698 1.27707 -3.84022 0
M  V30 901 H 88.268 1.41585 -2.78698 0
M  V30 902 H 87.488 -0.82928 -3.85378 0
M  V30 903 H 88.776 -0.608863 -5.05144 0
M  V30 904 H 88.174 2.57229 -5.03835 0
M  V30 905 H 86.731 2.61633 -5.96985 0
M  V30 906 N 90.1641 1.46063 -0.591896 0
M  V30 907 C 91.4041 2.04228 -0.0838014 0
M  V30 908 C 91.7681 1.45231 1.25587 0
M  V30 909 O 92.9691 1.94653 1.85375 0
M  V30 910 C 91.2401 3.57389 -0.0286282 0
M  V30 911 S 92.7991 4.3678 0.420557 0
M  V30 912 H 89.6171 0.709762 -0.0419319 0
M  V30 913 H 92.2191 1.78983 -0.786465 0
M  V30 914 H 90.9231 3.97843 -1.00743 0
M  V30 915 H 90.4541 3.87185 0.69652 0
M  V30 916 H 92.4691 4.67131 1.67341 0
M  V30 917 N 91.6422 0.330177 1.54103 0
M  V30 918 C 92.8672 -0.274893 2.0557 0
M  V30 919 C 93.2922 -1.44487 1.20437 0
M  V30 920 O 92.6502 -1.80021 0.214991 0
M  V30 921 C 92.6982 -0.68079 3.54115 0
M  V30 922 O 91.8022 -1.7824 3.71893 0
M  V30 923 H 91.1432 -0.0483849 0.662235 0
M  V30 924 H 93.6732 0.480508 1.98878 0
M  V30 925 H 93.6832 -0.961635 3.96505 0
M  V30 926 H 92.3582 0.174903 4.15532 0
M  V30 927 H 90.9352 -1.49985 3.41407 0
M  V30 928 N 93.1203 -1.57491 0.0584922 0
M  V30 929 C 94.3663 -1.93264 -0.614558 0
M  V30 930 C 94.6993 -0.937717 -1.7006 0
M  V30 931 O 93.9743 0.0351652 -1.94468 0
M  V30 932 C 94.2573 -3.3938 -1.20386 0
M  V30 933 C 94.1103 -4.49625 -0.125375 0
M  V30 934 C 95.4293 -3.86039 -2.11334 0
M  V30 935 H 92.5483 -0.702791 -0.221933 0
M  V30 936 H 95.1903 -1.8961 0.12175 0
M  V30 937 H 93.3403 -3.42626 -1.83139 0
M  V30 938 H 95.0123 -4.58506 0.506971 0
M  V30 939 H 93.2553 -4.30354 0.545672 0
M  V30 940 H 93.9263 -5.48967 -0.577861 0
M  V30 941 H 96.4023 -3.84716 -1.58534 0
M  V30 942 H 95.2783 -4.88914 -2.49507 0
M  V30 943 H 95.5393 -3.23215 -3.01636 0
M  V30 944 N 94.5984 0.214957 -1.56127 0
M  V30 945 C 95.5284 1.2695 -1.95974 0
M  V30 946 C 96.5094 1.48539 -0.828868 0
M  V30 947 O 97.6944 1.60611 -1.09168 0
M  V30 948 C 94.8244 2.61794 -2.28214 0
M  V30 949 C 93.7784 2.54851 -3.43853 0
M  V30 950 C 93.1044 3.93785 -3.61715 0
M  V30 951 C 94.4044 2.09065 -4.78632 0
M  V30 952 H 96.0984 0.93846 -2.84312 0
M  V30 953 H 93.6444 0.449996 -1.36788 0
M  V30 954 H 95.5974 3.35731 -2.54682 0
M  V30 955 H 94.3214 2.96599 -1.36736 0
M  V30 956 H 92.9804 1.8337 -3.17444 0
M  V30 957 H 92.6284 4.25908 -2.67602 0
M  V30 958 H 92.3284 3.90019 -4.39498 0
M  V30 959 H 93.8524 4.69374 -3.90539 0
M  V30 960 H 95.2664 2.7275 -5.04262 0
M  V30 961 H 93.6634 2.16346 -5.59745 0
M  V30 962 H 94.7334 1.04315 -4.73547 0
M  V30 963 N 96.0765 1.50051 0.48192 0
M  V30 964 C 97.0065 1.71046 1.58951 0
M  V30 965 C 97.9875 0.559288 1.60642 0
M  V30 966 O 99.1725 0.797243 1.77081 0
M  V30 967 C 96.3025 1.79462 2.97339 0
M  V30 968 C 95.2565 2.94558 3.10515 0
M  V30 969 C 94.5825 2.88105 4.50444 0
M  V30 970 C 95.8825 4.35227 2.88747 0
M  V30 971 H 97.5765 2.6378 1.41635 0
M  V30 972 H 95.1225 1.26936 0.679942 0
M  V30 973 H 97.0755 1.92734 3.74742 0
M  V30 974 H 95.7995 0.833412 3.15788 0
M  V30 975 H 94.4585 2.80918 2.35543 0
M  V30 976 H 94.1065 1.89853 4.65795 0
M  V30 977 H 93.8065 3.65366 4.60197 0
M  V30 978 H 95.3305 3.03412 5.29881 0
M  V30 979 H 96.7445 4.49449 3.55905 0
M  V30 980 H 95.1415 5.13856 3.09955 0
M  V30 981 H 96.2115 4.48347 1.84696 0
M  V30 982 N 97.5546 -0.734337 1.39446 0
M  V30 983 C 98.8016 -1.49391 1.36706 0
M  V30 984 C 99.1296 -1.94465 -0.0367813 0
M  V30 985 O 98.3846 -1.67154 -1.01774 0
M  V30 986 C 98.6836 -2.74711 2.28623 0
M  V30 987 C 98.3496 -2.48501 3.76242 0
M  V30 988 C 97.0116 -2.41062 4.16464 0
M  V30 989 C 99.3636 -2.26098 4.69606 0
M  V30 990 C 96.6916 -2.09262 5.48112 0
M  V30 991 C 99.0436 -1.95814 6.01531 0
M  V30 992 C 97.7076 -1.86845 6.40816 0
M  V30 993 H 96.9776 -0.546661 0.500243 0
M  V30 994 H 99.6246 -0.842788 1.71957 0
M  V30 995 H 97.9296 -3.44569 1.86492 0
M  V30 996 H 99.6266 -3.32741 2.23796 0
M  V30 997 H 96.2166 -2.55169 3.44364 0
M  V30 998 H 100.401 -2.30812 4.39363 0
M  V30 999 H 95.6566 -2.00841 5.77471 0
M  V30 1000 H 99.8306 -1.77488 6.73403 0
M  V30 1001 H 97.4576 -1.6197 7.42745 0
M  V30 1002 N 99.0327 -1.24633 -0.964593 0
M  V30 1003 C 100.444 -1.08045 -1.5226 0
M  V30 1004 C 100.795 0.347116 -1.93105 0
M  V30 1005 O 99.9197 1.23588 -1.77637 0
M  V30 1006 C 100.515 -1.95514 -2.76695 0
M  V30 1007 C 99.0737 -1.8314 -3.28841 0
M  V30 1008 C 98.2207 -1.90262 -2.01732 0
M  V30 1009 H 101.172 -1.38064 -0.782553 0
M  V30 1010 H 101.193 -1.48925 -3.50145 0
M  V30 1011 H 100.705 -2.99407 -2.46936 0
M  V30 1012 H 98.8057 -0.82092 -3.63444 0
M  V30 1013 H 98.9187 -2.67406 -3.97531 0
M  V30 1014 H 97.2827 -1.34027 -2.16584 0
M  V30 1015 H 98.0657 -2.9574 -1.74334 0
M  V30 1016 N 100.511 1.16574 -1.06058 0
M  V30 1017 C 101.759 1.86677 -0.77434 0
M  V30 1018 C 102.08 1.81959 0.701147 0
M  V30 1019 O 101.35 1.2515 1.50713 0
M  V30 1020 H 99.9298 0.691134 -0.283449 0
M  V30 1021 H 102.592 1.41378 -1.34158 0
M  V30 1022 H 101.688 2.92181 -1.09711 0
M  V30 1023 N 101.989 0.842826 1.3317 0
M  V30 1024 C 102.921 0.236245 2.27979 0
M  V30 1025 C 103.934 -0.585282 1.51915 0
M  V30 1026 O 105.123 -0.411705 1.73687 0
M  V30 1027 C 102.223 -0.685717 3.3189 0
M  V30 1028 C 101.396 0.0973448 4.37292 0
M  V30 1029 C 100.455 -0.748565 5.20848 0
M  V30 1030 O 99.4809 -0.186339 5.68895 0
M  V30 1031 N 100.683 -2.06527 5.42519 0
M  V30 1032 H 103.448 1.05088 2.80672 0
M  V30 1033 H 101.009 0.701667 1.45905 0
M  V30 1034 H 103.001 -1.25669 3.84694 0
M  V30 1035 H 101.571 -1.40105 2.79445 0
M  V30 1036 H 100.791 0.849706 3.84933 0
M  V30 1037 H 102.079 0.635643 5.04814 0
M  V30 1038 H 101.477 -2.54554 5.05192 0
M  V30 1039 H 100.034 -2.58464 5.98364 0
M  V30 1040 N 103.467 -1.45747 0.599634 0
M  V30 1041 C 104.715 -2.01893 0.0915472 0
M  V30 1042 C 105.036 -1.47155 -1.27946 0
M  V30 1043 O 104.306 -0.66273 -1.84349 0
M  V30 1044 H 102.886 -0.746363 0.0308524 0
M  V30 1045 H 105.548 -1.78645 0.779237 0
M  V30 1046 H 104.644 -3.1208 0.0353086 0
M  V30 1047 N 104.945 -0.338344 -1.53925 0
M  V30 1048 C 106.17 0.263987 -2.05713 0
M  V30 1049 C 106.595 1.43847 -1.21201 0
M  V30 1050 O 105.953 1.79904 -0.224535 0
M  V30 1051 C 106.001 0.662 -3.54471 0
M  V30 1052 O 105.105 1.76265 -3.72833 0
M  V30 1053 H 104.446 0.0448722 -0.662482 0
M  V30 1054 H 106.976 -0.491048 -1.9862 0
M  V30 1055 H 106.986 0.940594 -3.9701 0
M  V30 1056 H 105.661 -0.196937 -4.15433 0
M  V30 1057 H 104.238 1.48173 -3.42198 0
M  V30 1058 N 106.423 1.57458 -0.0668435 0
M  V30 1059 C 107.355 2.09413 0.931601 0
M  V30 1060 C 108.368 1.02522 1.26464 0
M  V30 1061 O 109.557 1.30049 1.22269 0
M  V30 1062 C 106.657 2.53537 2.24882 0
M  V30 1063 C 105.83 3.83944 2.09537 0
M  V30 1064 C 104.889 4.14214 3.2452 0
M  V30 1065 O 103.915 4.83891 2.9973 0
M  V30 1066 N 105.117 3.67367 4.49469 0
M  V30 1067 H 107.882 2.95699 0.488048 0
M  V30 1068 H 105.443 1.61462 0.119009 0
M  V30 1069 H 107.435 2.70853 3.00701 0
M  V30 1070 H 106.005 1.72415 2.60753 0
M  V30 1071 H 105.225 3.76057 1.18215 0
M  V30 1072 H 106.513 4.69312 1.96529 0
M  V30 1073 H 105.911 3.11068 4.72497 0
M  V30 1074 H 104.468 3.89891 5.2233 0
M  V30 1075 N 107.901 -0.206675 1.56239 0
M  V30 1076 C 109.147 -0.930218 1.80208 0
M  V30 1077 C 109.48 -1.83387 0.638981 0
M  V30 1078 O 108.755 -1.91119 -0.361066 0
M  V30 1079 C 109.038 -1.75641 3.1436 0
M  V30 1080 C 108.891 -0.878257 4.41142 0
M  V30 1081 C 110.21 -2.73129 3.45092 0
M  V30 1082 H 107.329 -0.336742 0.655571 0
M  V30 1083 H 109.971 -0.198222 1.88963 0
M  V30 1084 H 108.121 -2.38048 3.07027 0
M  V30 1085 H 109.793 -0.269787 4.6051 0
M  V30 1086 H 108.036 -0.184385 4.33408 0
M  V30 1087 H 108.707 -1.49106 5.3148 0
M  V30 1088 H 111.183 -2.20856 3.52649 0
M  V30 1089 H 110.059 -3.28028 4.40101 0
M  V30 1090 H 110.32 -3.51606 2.68003 0
M  V30 1091 N 109.379 -1.50304 -0.473955 0
M  V30 1092 C 110.625 -1.61389 -1.22806 0
M  V30 1093 C 110.958 -0.311955 -1.91678 0
M  V30 1094 O 110.233 0.686384 -1.81986 0
M  V30 1095 C 110.516 -2.79219 -2.27396 0
M  V30 1096 C 110.369 -4.19286 -1.62848 0
M  V30 1097 C 111.688 -2.92614 -3.28732 0
M  V30 1098 H 108.807 -0.587399 -0.445119 0
M  V30 1099 H 111.449 -1.82681 -0.522265 0
M  V30 1100 H 109.599 -2.61195 -2.87592 0
M  V30 1101 H 111.271 -4.48892 -1.06271 0
M  V30 1102 H 109.514 -4.23677 -0.931693 0
M  V30 1103 H 110.185 -4.97655 -2.38838 0
M  V30 1104 H 112.661 -3.09105 -2.78556 0
M  V30 1105 H 111.537 -3.76688 -3.99246 0
M  V30 1106 H 111.798 -2.03107 -3.92683 0
M  V30 1107 N 110.857 0.726932 -1.39834 0
M  V30 1108 C 112.105 1.4837 -1.37225 0
M  V30 1109 C 112.426 1.94979 0.0284857 0
M  V30 1110 O 111.696 1.69555 0.981213 0
M  V30 1111 H 110.276 0.55043 -0.505011 0
M  V30 1112 H 112.938 0.862468 -1.74778 0
M  V30 1113 H 112.034 2.36198 -2.04003 0
M  V30 1114 N 112.336 1.25143 0.95797 0
M  V30 1115 C 113.269 0.995565 2.05338 0
M  V30 1116 C 114.247 -0.0740423 1.62431 0
M  V30 1117 O 115.431 0.0649212 1.88388 0
M  V30 1118 C 112.558 0.504298 3.34925 0
M  V30 1119 C 111.604 1.56393 3.96792 0
M  V30 1120 S 112.437 3.14815 4.33188 0
M  V30 1121 C 113.593 2.67415 5.65898 0
M  V30 1122 H 113.826 1.92309 2.26726 0
M  V30 1123 H 111.359 1.08635 1.09716 0
M  V30 1124 H 113.317 0.227497 4.09869 0
M  V30 1125 H 111.978 -0.402671 3.11508 0
M  V30 1126 H 111.171 1.17082 4.90212 0
M  V30 1127 H 110.773 1.79124 3.28315 0
M  V30 1128 H 113.065 2.10833 6.4386 0
M  V30 1129 H 114.008 3.59463 6.10076 0
M  V30 1130 H 114.416 2.07521 5.24972 0
M  V30 1131 N 113.814 -1.1601 1.06675 0
M  V30 1132 C 115.062 -1.86264 0.784229 0
M  V30 1133 C 115.383 -1.82328 -0.691488 0
M  V30 1134 O 114.653 -1.25947 -1.50047 0
M  V30 1135 H 113.233 -0.689621 0.28711 0
M  V30 1136 H 115.895 -1.40664 1.34906 0
M  V30 1137 H 114.991 -2.91595 1.11259 0
M  V30 1138 N 115.292 -0.849877 -1.32721 0
M  V30 1139 C 116.708 -0.539102 -1.50219 0
M  V30 1140 C 116.908 0.931271 -1.78689 0
M  V30 1141 O 115.964 1.71455 -1.85363 0
M  V30 1142 C 117.277 -1.42196 -2.64954 0
M  V30 1143 C 118.825 -1.42189 -2.78839 0
M  V30 1144 C 119.3 -2.28985 -3.96648 0
M  V30 1145 N 120.791 -2.26754 -4.03902 0
M  V30 1146 C 121.526 -2.90644 -4.94281 0
M  V30 1147 N 121.022 -3.63629 -5.897 0
M  V30 1148 N 122.815 -2.80057 -4.87365 0
M  V30 1149 H 114.966 -1.80156 -1.12506 0
M  V30 1150 H 117.229 -0.769217 -0.554085 0
M  V30 1151 H 116.935 -2.46733 -2.50631 0
M  V30 1152 H 116.809 -1.10591 -3.60624 0
M  V30 1153 H 119.196 -0.38419 -2.92588 0
M  V30 1154 H 119.277 -1.77807 -1.83898 0
M  V30 1155 H 118.921 -3.32819 -3.83658 0
M  V30 1156 H 118.851 -1.90702 -4.90857 0
M  V30 1157 H 121.342 -1.73688 -3.3562 0
M  V30 1158 H 121.655 -4.09558 -6.55349 0
M  V30 1159 H 120 -3.67737 -5.89741 0
M  V30 1160 H 123.191 -2.22593 -4.11789 0
M  V30 1161 H 123.364 -3.30132 -5.57599 0
M  V30 1162 N 116.77 1.45427 -0.607355 0
M  V30 1163 C 118.018 2.01841 -0.102253 0
M  V30 1164 C 118.339 1.47832 1.27164 0
M  V30 1165 O 117.609 0.672497 1.83995 0
M  V30 1166 H 116.189 0.746188 -0.0348101 0
M  V30 1167 H 118.851 1.78229 -0.7887 0
M  V30 1168 H 117.947 3.12057 -0.0518585 0
M  V30 1169 N 118.248 0.346503 1.53744 0
M  V30 1170 C 119.178 -0.501193 2.28058 0
M  V30 1171 C 120.159 -1.10014 1.29734 0
M  V30 1172 O 121.344 -1.12097 1.58581 0
M  V30 1173 C 118.474 -1.65078 3.05559 0
M  V30 1174 C 117.428 -1.18003 4.11411 0
M  V30 1175 C 116.754 -2.41837 4.76884 0
M  V30 1176 C 118.054 -0.278394 5.21558 0
M  V30 1177 H 119.748 0.11875 2.99164 0
M  V30 1178 H 117.294 0.0585531 1.43881 0
M  V30 1179 H 119.247 -2.25028 3.56287 0
M  V30 1180 H 117.971 -2.29767 2.32109 0
M  V30 1181 H 116.63 -0.603331 3.61601 0
M  V30 1182 H 116.278 -3.0494 4.00026 0
M  V30 1183 H 115.978 -2.1102 5.48402 0
M  V30 1184 H 117.502 -3.02508 5.30397 0
M  V30 1185 H 118.916 -0.784823 5.67903 0
M  V30 1186 H 117.313 -0.0619707 6.00068 0
M  V30 1187 H 118.383 0.684677 4.80042 0
M  V30 1188 N 119.726 -1.57421 0.075193 0
M  V30 1189 C 120.656 -2.15942 -0.888324 0
M  V30 1190 C 121.637 -1.08737 -1.30806 0
M  V30 1191 O 122.822 -1.36787 -1.37851 0
M  V30 1192 C 119.952 -2.72379 -2.1547 0
M  V30 1193 C 118.906 -3.8478 -1.87425 0
M  V30 1194 C 118.232 -4.27834 -3.20721 0
M  V30 1195 C 119.532 -5.08869 -1.17684 0
M  V30 1196 H 121.226 -2.96705 -0.400799 0
M  V30 1197 H 118.772 -1.42723 -0.191342 0
M  V30 1198 H 120.725 -3.11965 -2.83295 0
M  V30 1199 H 119.449 -1.88841 -2.6647 0
M  V30 1200 H 118.108 -3.45703 -1.22004 0
M  V30 1201 H 117.756 -3.41214 -3.6957 0
M  V30 1202 H 117.456 -5.03605 -3.02746 0
M  V30 1203 H 118.98 -4.70039 -3.89738 0
M  V30 1204 H 120.394 -5.4575 -1.75584 0
M  V30 1205 H 118.791 -5.8994 -1.09956 0
M  V30 1206 H 119.861 -4.84648 -0.156453 0
M  V30 1207 N 121.204 0.198386 -1.56346 0
M  V30 1208 C 122.152 1.26538 -1.95169 0
M  V30 1209 C 123.146 1.47295 -0.836685 0
M  V30 1210 O 124.352 1.48195 -1.02167 0
M  V30 1211 H 120.727 0.424744 -0.620561 0
M  V30 1212 H 122.698 0.910904 -2.84157 0
M  V30 1213 C 121.447 2.6035 -2.30463 0
M  V30 1214 H 120.77 2.45192 -3.15786 0
M  V30 1215 H 122.21 3.33762 -2.61494 0
M  V30 1216 C 120.669 3.17096 -1.13806 0
M  V30 1217 O 121.199 3.99588 -0.41135 0
M  V30 1218 N 119.405 2.75795 -0.915736 0
M  V30 1219 H 118.952 2.08816 -1.50843 0
M  V30 1220 H 118.91 3.14101 -0.136979 0
M  V30 1221 N 122.682 1.50554 0.465978 0
M  V30 1222 C 123.912 1.65323 1.23903 0
M  V30 1223 C 124.32 0.338051 1.86155 0
M  V30 1224 O 123.663 -0.690518 1.70228 0
M  V30 1225 C 123.725 2.69048 2.3844 0
M  V30 1226 C 123.389 4.12462 1.96784 0
M  V30 1227 C 124.386 4.98168 1.48745 0
M  V30 1228 C 122.071 4.58407 2.05349 0
M  V30 1229 C 124.065 6.27868 1.0982 0
M  V30 1230 C 121.752 5.88112 1.66035 0
M  V30 1231 C 122.75 6.72668 1.18349 0
M  V30 1232 O 122.438 7.99951 0.795825 0
M  V30 1233 H 122.17 0.558629 0.38067 0
M  V30 1234 H 124.724 1.97561 0.562022 0
M  V30 1235 H 122.954 2.32062 3.09328 0
M  V30 1236 H 124.643 2.72985 3.0039 0
M  V30 1237 H 125.409 4.63885 1.41546 0
M  V30 1238 H 121.288 3.92735 2.41414 0
M  V30 1239 H 124.832 6.93819 0.725293 0
M  V30 1240 H 120.729 6.21914 1.72895 0
M  V30 1241 H 121.497 8.13265 0.924222 0
M  V30 1242 N 124.16 -0.719506 1.40217 0
M  V30 1243 C 125.571 -1.29848 1.34151 0
M  V30 1244 C 125.922 -1.96196 0.0131349 0
M  V30 1245 O 125.047 -1.973 -0.88892 0
M  V30 1246 C 125.642 -2.36118 2.42968 0
M  V30 1247 C 124.201 -2.8965 2.40374 0
M  V30 1248 C 123.348 -1.63393 2.24049 0
M  V30 1249 H 126.299 -0.51591 1.5008 0
M  V30 1250 H 126.32 -3.16871 2.10649 0
M  V30 1251 H 125.832 -1.878 3.39636 0
M  V30 1252 H 123.933 -3.42208 1.47392 0
M  V30 1253 H 124.046 -3.4171 3.35814 0
M  V30 1254 H 122.41 -1.88312 1.71495 0
M  V30 1255 H 123.193 -1.17104 3.2271 0
M  V30 1256 N 125.638 -1.25649 -0.95132 0
M  V30 1257 C 127.054 -1.02542 -1.223 0
M  V30 1258 C 127.254 0.255715 -1.99871 0
M  V30 1259 O 126.31 0.967558 -2.33226 0
M  V30 1260 C 127.623 -2.25065 -1.99415 0
M  V30 1261 C 129.171 -2.29861 -2.12446 0
M  V30 1262 C 129.646 -3.52048 -2.92961 0
M  V30 1263 N 131.137 -3.52465 -3.00538 0
M  V30 1264 C 131.872 -4.43672 -3.63239 0
M  V30 1265 N 131.368 -5.45157 -4.27523 0
M  V30 1266 N 133.161 -4.31346 -3.60412 0
M  V30 1267 H 125.312 -2.07951 -0.432471 0
M  V30 1268 H 127.575 -0.91339 -0.253816 0
M  V30 1269 H 127.281 -3.18194 -1.49817 0
M  V30 1270 H 127.155 -2.28502 -3.00111 0
M  V30 1271 H 129.542 -1.37252 -2.61239 0
M  V30 1272 H 129.623 -2.3044 -1.11044 0
M  V30 1273 H 129.267 -4.44981 -2.44856 0
M  V30 1274 H 129.197 -3.48715 -3.94596 0
M  V30 1275 H 131.688 -2.79056 -2.54826 0
M  V30 1276 H 132.001 -6.10958 -4.73234 0
M  V30 1277 H 130.346 -5.49025 -4.26141 0
M  V30 1278 H 133.537 -3.51288 -3.09377 0
M  V30 1279 H 133.71 -5.02624 -4.0899 0
M  V30 1280 N 127.117 1.15442 -1.07289 0
M  V30 1281 C 128.363 1.86489 -0.796846 0
M  V30 1282 C 128.696 1.82078 0.675371 0
M  V30 1283 O 127.971 1.24346 1.4956 0
M  V30 1284 C 128.254 3.35626 -1.30489 0
M  V30 1285 C 128.107 3.48673 -2.84161 0
M  V30 1286 C 129.426 4.30357 -0.920907 0
M  V30 1287 H 126.545 0.677144 -0.290939 0
M  V30 1288 H 129.187 1.35633 -1.33056 0
M  V30 1289 H 127.337 3.79068 -0.850883 0
M  V30 1290 H 129.009 3.14099 -3.37846 0
M  V30 1291 H 127.252 2.90253 -3.22391 0
M  V30 1292 H 127.923 4.53453 -3.14777 0
M  V30 1293 H 130.399 3.94871 -1.3121 0
M  V30 1294 H 129.275 5.33193 -1.30372 0
M  V30 1295 H 129.536 4.4176 0.173226 0
M  V30 1296 N 128.595 0.856903 1.32268 0
M  V30 1297 C 130.011 0.547061 1.49931 0
M  V30 1298 C 130.211 -0.921781 1.7918 0
M  V30 1299 O 129.267 -1.70469 1.8627 0
M  V30 1300 C 130.58 1.43599 2.64196 0
M  V30 1301 C 132.128 1.43665 2.78081 0
M  V30 1302 C 132.603 2.31085 3.95428 0
M  V30 1303 N 134.094 2.28893 4.02694 0
M  V30 1304 C 134.829 2.93262 4.92732 0
M  V30 1305 N 134.325 3.66751 5.87763 0
M  V30 1306 N 136.118 2.82638 4.85873 0
M  V30 1307 H 128.269 1.8075 1.11549 0
M  V30 1308 H 130.532 0.772144 0.549997 0
M  V30 1309 H 130.238 2.48058 2.49319 0
M  V30 1310 H 130.112 1.12502 3.60032 0
M  V30 1311 H 132.499 0.399701 2.92381 0
M  V30 1312 H 132.58 1.7878 1.82952 0
M  V30 1313 H 132.224 3.34849 3.81888 0
M  V30 1314 H 132.154 1.93302 4.89839 0
M  V30 1315 H 134.645 1.75466 3.34694 0
M  V30 1316 H 134.958 4.13027 6.53168 0
M  V30 1317 H 133.303 3.70859 5.87783 0
M  V30 1318 H 136.494 2.24774 4.10602 0
M  V30 1319 H 136.667 3.33084 5.55841 0
M  V30 1320 N 130.073 -1.45103 0.615059 0
M  V30 1321 C 130.983 -2.34382 -0.101034 0
M  V30 1322 C 131.999 -1.51681 -0.852585 0
M  V30 1323 O 133.175 -1.8446 -0.808484 0
M  V30 1324 C 130.24 -3.29417 -1.08099 0
M  V30 1325 C 129.301 -4.28025 -0.330577 0
M  V30 1326 C 128.534 -5.1852 -1.26385 0
M  V30 1327 O 128.757 -5.12598 -2.50198 0
M  V30 1328 O 127.691 -5.97122 -0.756866 0
M  V30 1329 H 131.517 -2.97033 0.632855 0
M  V30 1330 H 129.102 -1.4461 0.375293 0
M  V30 1331 H 130.984 -3.87958 -1.6452 0
M  V30 1332 H 129.659 -2.69321 -1.79577 0
M  V30 1333 H 128.566 -3.73078 0.276283 0
M  V30 1334 H 129.899 -4.90997 0.343866 0
M  V30 1335 N 131.551 -0.354651 -1.53558 0
M  V30 1336 C 132.481 0.489091 -2.2832 0
M  V30 1337 C 133.462 1.09324 -1.30316 0
M  V30 1338 O 134.647 1.11255 -1.59173 0
M  V30 1339 C 131.777 1.63456 -3.0643 0
M  V30 1340 C 130.731 1.1582 -4.12031 0
M  V30 1341 C 130.057 2.39305 -4.7816 0
M  V30 1342 C 131.357 0.250731 -5.21698 0
M  V30 1343 H 133.051 -0.134614 -2.99097 0
M  V30 1344 H 130.597 -0.0661826 -1.43848 0
M  V30 1345 H 132.55 2.23136 -3.57475 0
M  V30 1346 H 131.274 2.28533 -2.33325 0
M  V30 1347 H 129.933 0.584146 -3.61916 0
M  V30 1348 H 129.581 3.02814 -4.01637 0
M  V30 1349 H 129.281 2.08109 -5.49513 0
M  V30 1350 H 130.805 2.99691 -5.31994 0
M  V30 1351 H 132.219 0.754695 -5.68311 0
M  V30 1352 H 130.616 0.0301468 -6.00092 0
M  V30 1353 H 131.686 -0.710125 -4.79672 0
M  V30 1354 N 133.029 1.57378 -0.0835403 0
M  V30 1355 C 134.259 1.97975 0.590713 0
M  V30 1356 C 134.667 0.961083 1.62972 0
M  V30 1357 O 134.01 -0.0590879 1.83605 0
M  V30 1358 C 134.072 3.34915 1.3066 0
M  V30 1359 C 133.736 4.55069 0.419698 0
M  V30 1360 C 134.733 5.18868 -0.32749 0
M  V30 1361 C 132.418 5.0114 0.341137 0
M  V30 1362 C 134.412 6.27098 -1.14134 0
M  V30 1363 C 132.099 6.0924 -0.476374 0
M  V30 1364 C 133.097 6.72083 -1.21627 0
M  V30 1365 O 132.785 7.781 -2.02028 0
M  V30 1366 H 132.517 0.655818 0.163947 0
M  V30 1367 H 135.071 2.04807 -0.156021 0
M  V30 1368 H 133.301 3.24733 2.09966 0
M  V30 1369 H 134.99 3.60037 1.87424 0
M  V30 1370 H 135.756 4.84211 -0.276459 0
M  V30 1371 H 131.635 4.51996 0.90668 0
M  V30 1372 H 135.179 6.7608 -1.71935 0
M  V30 1373 H 131.076 6.43329 -0.528927 0
M  V30 1374 H 131.844 7.95034 -1.94586 0
M  V30 1375 N 134.507 -0.190092 1.56449 0
M  V30 1376 C 135.47 -1.21925 1.9408 0
M  V30 1377 C 136.47 -1.38176 0.822431 0
M  V30 1378 O 137.66 -1.35903 1.08977 0
M  V30 1379 C 134.792 -2.58773 2.21922 0
M  V30 1380 H 135.985 -0.897464 2.86157 0
M  V30 1381 H 133.538 -0.43181 1.50217 0
M  V30 1382 H 134.273 -2.95998 1.32499 0
M  V30 1383 H 134.058 -2.48348 3.03424 0
M  V30 1384 H 135.548 -3.32978 2.52022 0
M  V30 1385 N 135.985 -1.50799 -0.457987 0
M  V30 1386 C 136.948 -1.7005 -1.53674 0
M  V30 1387 C 137.948 -0.570881 -1.50325 0
M  V30 1388 O 139.138 -0.838126 -1.52712 0
M  V30 1389 C 136.27 -1.73788 -2.93276 0
M  V30 1390 H 137.463 -2.66306 -1.37917 0
M  V30 1391 H 135.016 -1.40477 -0.685271 0
M  V30 1392 H 135.751 -0.792717 -3.14462 0
M  V30 1393 H 135.536 -2.55864 -2.97113 0
M  V30 1394 H 137.026 -1.90591 -3.71571 0
M  V30 1395 N 137.463 0.71206 -1.40597 0
M  V30 1396 C 138.426 1.80785 -1.40888 0
M  V30 1397 C 139.426 1.57937 -0.302103 0
M  V30 1398 O 140.616 1.64913 -0.561182 0
M  V30 1399 C 137.748 3.18927 -1.20409 0
M  V30 1400 H 138.941 1.81924 -2.38419 0
M  V30 1401 H 136.494 0.91805 -1.26497 0
M  V30 1402 H 137.229 3.23436 -0.236522 0
M  V30 1403 H 137.014 3.36911 -2.00582 0
M  V30 1404 H 138.504 3.98949 -1.23408 0
M  V30 1405 N 138.941 1.26152 0.944643 0
M  V30 1406 C 140.357 1.03189 1.21754 0
M  V30 1407 C 140.557 -0.245112 2.00004 0
M  V30 1408 O 139.613 -0.955176 2.33736 0
M  V30 1409 C 140.926 2.26119 1.98219 0
M  V30 1410 C 142.474 2.30984 2.11224 0
M  V30 1411 C 142.949 3.53597 2.91089 0
M  V30 1412 N 144.44 3.54053 2.98664 0
M  V30 1413 C 145.175 4.45593 3.60881 0
M  V30 1414 N 144.671 5.47416 4.24626 0
M  V30 1415 N 146.464 4.33252 3.58119 0
M  V30 1416 H 138.615 2.08177 0.421437 0
M  V30 1417 H 140.878 0.914723 0.248969 0
M  V30 1418 H 140.584 3.18984 1.48128 0
M  V30 1419 H 140.458 2.3009 2.98895 0
M  V30 1420 H 142.845 1.38635 2.60508 0
M  V30 1421 H 142.926 2.31026 1.09821 0
M  V30 1422 H 142.57 4.46273 2.42493 0
M  V30 1423 H 142.5 3.50802 3.92741 0
M  V30 1424 H 144.991 2.80403 2.53343 0
M  V30 1425 H 145.304 6.13459 4.69987 0
M  V30 1426 H 143.649 5.51278 4.23223 0
M  V30 1427 H 146.84 3.52924 3.0751 0
M  V30 1428 H 147.013 5.04786 4.06319 0
M  V30 1429 N 140.419 -1.14872 1.07899 0
M  V30 1430 C 141.835 -1.37776 0.805606 0
M  V30 1431 C 142.035 -1.92743 -0.587555 0
M  V30 1432 O 141.091 -2.13678 -1.34528 0
M  V30 1433 C 142.404 -2.34361 1.88402 0
M  V30 1434 C 143.952 -2.48012 1.90942 0
M  V30 1435 C 144.427 -3.47893 2.97883 0
M  V30 1436 N 145.918 -3.55433 2.97021 0
M  V30 1437 C 146.653 -4.32553 3.76412 0
M  V30 1438 N 146.149 -5.12959 4.65666 0
M  V30 1439 N 147.942 -4.27697 3.64735 0
M  V30 1440 H 140.093 -0.775365 1.97742 0
M  V30 1441 H 142.356 -0.403521 0.857831 0
M  V30 1442 H 142.062 -2.01098 2.88535 0
M  V30 1443 H 141.936 -3.34206 1.74889 0
M  V30 1444 H 144.323 -2.8057 0.914579 0
M  V30 1445 H 144.404 -1.48147 2.08534 0
M  V30 1446 H 144.048 -3.16069 3.97571 0
M  V30 1447 H 143.978 -4.47527 2.77538 0
M  V30 1448 H 146.469 -2.98048 2.32326 0
M  V30 1449 H 146.782 -5.69065 5.22862 0
M  V30 1450 H 145.127 -5.12245 4.69712 0
M  V30 1451 H 148.318 -3.63949 2.94378 0
M  V30 1452 H 148.491 -4.8755 4.26848 0
M  V30 1453 N 141.898 -0.863906 -1.31812 0
M  V30 1454 C 143.144 -0.472535 -1.97218 0
M  V30 1455 C 143.477 0.971394 -1.68159 0
M  V30 1456 O 142.752 1.68309 -0.974798 0
M  V30 1457 C 143.035 -0.723054 -3.52766 0
M  V30 1458 C 142.888 -2.21608 -3.91421 0
M  V30 1459 C 144.207 -0.185522 -4.39709 0
M  V30 1460 H 141.326 -0.173158 -0.71637 0
M  V30 1461 H 143.968 -1.08403 -1.56041 0
M  V30 1462 H 142.118 -0.202577 -3.87971 0
M  V30 1463 H 143.79 -2.80334 -3.66347 0
M  V30 1464 H 142.033 -2.691 -3.40246 0
M  V30 1465 H 142.704 -2.34203 -4.99853 0
M  V30 1466 H 145.18 -0.630726 -4.11292 0
M  V30 1467 H 144.056 -0.390306 -5.47511 0
M  V30 1468 H 144.317 0.912229 -4.32586 0
M  V30 1469 N 143.376 1.44774 -0.622745 0
M  V30 1470 C 144.306 2.33382 0.0741861 0
M  V30 1471 C 145.287 1.47719 0.843387 0
M  V30 1472 O 146.472 1.76458 0.810934 0
M  V30 1473 C 143.602 3.30663 1.06204 0
M  V30 1474 C 142.556 4.26079 0.405037 0
M  V30 1475 C 141.882 5.13165 1.5022 0
M  V30 1476 C 143.182 5.1781 -0.683414 0
M  V30 1477 H 144.876 2.91905 -0.665713 0
M  V30 1478 H 142.422 1.40363 -0.321587 0
M  V30 1479 H 144.375 3.9153 1.55827 0
M  V30 1480 H 143.099 2.70331 1.83272 0
M  V30 1481 H 141.758 3.66532 -0.0704683 0
M  V30 1482 H 141.406 4.49191 2.26355 0
M  V30 1483 H 141.106 5.77812 1.06803 0
M  V30 1484 H 142.63 5.76902 2.00041 0
M  V30 1485 H 144.044 5.72661 -0.270631 0
M  V30 1486 H 142.441 5.91015 -1.04023 0
M  V30 1487 H 143.511 4.59326 -1.55395 0
M  V30 1488 N 144.854 0.36279 1.53368 0
M  V30 1489 C 146.102 -0.227326 2.00817 0
M  V30 1490 C 146.423 -1.49511 1.25186 0
M  V30 1491 O 145.693 -1.92482 0.364348 0
M  V30 1492 H 144.273 -0.0869923 0.741917 0
M  V30 1493 H 146.935 0.488381 1.88682 0
M  V30 1494 H 146.031 -0.456273 3.08747 0
M  V30 1495 N 146.332 -1.57332 0.0918853 0
M  V30 1496 C 147.562 -1.98286 -0.580205 0
M  V30 1497 C 147.97 -0.969713 -1.6246 0
M  V30 1498 O 147.313 0.0493501 -1.83634 0
M  V30 1499 C 147.375 -3.35603 -1.28882 0
M  V30 1500 C 147.039 -4.55285 -0.395559 0
M  V30 1501 C 148.036 -5.18687 0.355002 0
M  V30 1502 C 145.721 -5.01314 -0.314556 0
M  V30 1503 C 147.715 -6.26484 1.17458 0
M  V30 1504 C 145.402 -6.08979 0.508677 0
M  V30 1505 C 146.4 -6.71429 1.2519 0
M  V30 1506 O 146.088 -7.77018 2.06151 0
M  V30 1507 H 145.82 -0.656678 -0.160466 0
M  V30 1508 H 148.374 -2.04721 0.16688 0
M  V30 1509 H 146.604 -3.25842 -2.08241 0
M  V30 1510 H 148.293 -3.61026 -1.85512 0
M  V30 1511 H 149.059 -4.84058 0.302134 0
M  V30 1512 H 144.938 -4.5247 -0.882697 0
M  V30 1513 H 148.482 -6.75159 1.75518 0
M  V30 1514 H 144.379 -6.4304 0.563037 0
M  V30 1515 H 145.147 -7.93991 1.98799 0
M  V30 1516 N 147.81 0.181792 -1.56548 0
M  V30 1517 C 149.087 0.926765 -1.72251 0
M  V30 1518 C 149.467 2.00831 -0.650386 0
M  V30 1519 O 148.815 2.26008 0.336521 0
M  V30 1520 C 149.025 1.50106 -3.1507 0
M  V30 1521 C 150.373 1.97805 -3.75711 0
M  V30 1522 O 151.397 1.59922 -3.18282 0
M  V30 1523 O 150.256 2.67555 -4.76525 0
M  V30 1524 H 147.35 0.435506 -0.703039 0
M  V30 1525 H 149.896 0.170443 -1.68842 0
M  V30 1526 H 148.668 0.72212 -3.84579 0
M  V30 1527 H 148.291 2.32186 -3.22763 0
M  V30 1528 N 149.288 1.51039 0.449983 0
M  V30 1529 C 150.218 1.74379 1.55288 0
M  V30 1530 C 151.199 0.593236 1.5942 0
M  V30 1531 O 152.384 0.834625 1.7535 0
M  V30 1532 C 149.514 1.85728 2.93466 0
M  V30 1533 C 148.468 3.01078 3.04197 0
M  V30 1534 C 147.794 2.97595 4.44231 0
M  V30 1535 C 149.094 4.41254 2.7945 0
M  V30 1536 H 150.788 2.66725 1.36008 0
M  V30 1537 H 148.334 1.2835 0.652864 0
M  V30 1538 H 150.287 2.0064 3.70569 0
M  V30 1539 H 149.011 0.900207 3.13949 0
M  V30 1540 H 147.67 2.85851 2.29531 0
M  V30 1541 H 147.318 1.99691 4.61663 0
M  V30 1542 H 147.018 3.75046 4.52343 0
M  V30 1543 H 148.542 3.14583 5.23326 0
M  V30 1544 H 149.956 4.56897 3.46292 0
M  V30 1545 H 148.353 5.20315 2.98985 0
M  V30 1546 H 149.423 4.52164 1.75144 0
M  V30 1547 N 150.766 -0.704594 1.40972 0
M  V30 1548 C 151.696 -1.83124 1.44872 0
M  V30 1549 C 152.677 -1.67281 0.30838 0
M  V30 1550 O 153.862 -1.87149 0.518556 0
M  V30 1551 C 150.992 -3.21181 1.32136 0
M  V30 1552 C 149.946 -3.51714 2.43888 0
M  V30 1553 C 149.272 -4.89032 2.16222 0
M  V30 1554 C 150.572 -3.516 3.86232 0
M  V30 1555 H 152.266 -1.80117 2.39161 0
M  V30 1556 H 149.812 -0.865145 1.15114 0
M  V30 1557 H 151.765 -3.99702 1.33479 0
M  V30 1558 H 150.489 -3.24791 0.343279 0
M  V30 1559 H 149.148 -2.75539 2.41813 0
M  V30 1560 H 148.796 -4.89256 1.16778 0
M  V30 1561 H 148.496 -5.10426 2.911 0
M  V30 1562 H 150.02 -5.69873 2.19265 0
M  V30 1563 H 151.434 -4.2014 3.9007 0
M  V30 1564 H 149.831 -3.84523 4.60719 0
M  V30 1565 H 150.901 -2.50757 4.15029 0
M  V30 1566 N 152.244 -1.26651 -0.937939 0
M  V30 1567 C 153.154 -1.10276 -2.07066 0
M  V30 1568 C 154.17 -0.0354197 -1.73964 0
M  V30 1569 O 155.346 -0.239816 -1.99967 0
M  V30 1570 C 152.411 -0.740887 -3.38691 0
M  V30 1571 C 151.472 -1.88799 -3.85556 0
M  V30 1572 C 150.705 -1.54329 -5.10899 0
M  V30 1573 O 150.928 -0.446494 -5.6865 0
M  V30 1574 O 149.862 -2.37911 -5.52885 0
M  V30 1575 H 153.688 -2.05309 -2.23789 0
M  V30 1576 H 151.273 -1.05743 -1.0554 0
M  V30 1577 H 153.155 -0.55195 -4.1777 0
M  V30 1578 H 151.83 0.180022 -3.23199 0
M  V30 1579 H 150.737 -2.13191 -3.07409 0
M  V30 1580 H 152.07 -2.78874 -4.05574 0
M  V30 1581 N 153.722 1.14298 -1.08507 0
M  V30 1582 C 154.652 2.21542 -0.737646 0
M  V30 1583 C 155.633 1.67773 0.280377 0
M  V30 1584 O 156.818 1.93616 0.150521 0
M  V30 1585 C 153.948 3.46988 -0.147259 0
M  V30 1586 C 152.902 4.13789 -1.09374 0
M  V30 1587 C 152.228 5.33449 -0.365524 0
M  V30 1588 C 153.528 4.62208 -2.4323 0
M  V30 1589 H 155.222 2.5086 -1.6343 0
M  V30 1590 H 152.768 1.20576 -0.787243 0
M  V30 1591 H 154.721 4.21262 0.107808 0
M  V30 1592 H 153.445 3.17037 0.784538 0
M  V30 1593 H 152.104 3.4147 -1.33393 0
M  V30 1594 H 151.752 4.99759 0.57011 0
M  V30 1595 H 151.452 5.79088 -0.996512 0
M  V30 1596 H 152.976 6.10485 -0.118534 0
M  V30 1597 H 154.39 5.27952 -2.23472 0
M  V30 1598 H 152.787 5.18553 -3.02031 0
M  V30 1599 H 153.857 3.77224 -3.04681 0
M  V30 1600 N 155.201 0.870884 1.31352 0
M  V30 1601 C 156.426 0.495957 2.01383 0
M  V30 1602 C 156.851 -0.904324 1.64935 0
M  V30 1603 O 156.209 -1.59687 0.858466 0
M  V30 1604 C 156.257 0.661433 3.54482 0
M  V30 1605 O 155.361 -0.298851 4.11316 0
M  V30 1606 H 154.702 0.197158 0.634054 0
M  V30 1607 H 157.232 1.17455 1.67527 0
M  V30 1608 H 157.242 0.555072 4.04207 0
M  V30 1609 H 155.917 1.68246 3.8035 0
M  V30 1610 H 154.494 -0.147368 3.72609 0
M  V30 1611 N 156.679 -1.44442 0.630414 0
M  V30 1612 C 157.609 -2.33418 -0.0618083 0
M  V30 1613 C 158.59 -1.48165 -0.835541 0
M  V30 1614 O 159.775 -1.76886 -0.801564 0
M  V30 1615 C 156.905 -3.31222 -1.04449 0
M  V30 1616 C 155.859 -4.26288 -0.382436 0
M  V30 1617 C 155.185 -5.13954 -1.47497 0
M  V30 1618 C 156.485 -5.1744 0.710865 0
M  V30 1619 H 158.179 -2.91548 0.681184 0
M  V30 1620 H 155.725 -1.40191 0.329026 0
M  V30 1621 H 157.678 -3.92351 -1.53748 0
M  V30 1622 H 156.402 -2.71299 -1.81836 0
M  V30 1623 H 155.061 -3.6649 0.0899054 0
M  V30 1624 H 154.709 -4.50385 -2.2397 0
M  V30 1625 H 154.409 -5.7837 -1.03737 0
M  V30 1626 H 155.933 -5.77955 -1.96979 0
M  V30 1627 H 157.347 -5.72509 0.300996 0
M  V30 1628 H 155.744 -5.90455 1.07156 0
M  V30 1629 H 156.814 -4.58496 1.57829 0
M  V30 1630 N 158.157 -0.370918 -1.53173 0
M  V30 1631 C 159.107 0.489588 -2.22681 0
M  V30 1632 C 160.091 1.04442 -1.22395 0
M  V30 1633 O 161.283 0.973578 -1.47819 0
M  V30 1634 C 158.412 1.626 -3.02351 0
M  V30 1635 C 157.498 1.08379 -4.10018 0
M  V30 1636 N 157.889 0.265004 -5.05105 0
M  V30 1637 C 156.187 1.35809 -4.2482 0
M  V30 1638 C 156.888 -0.0324755 -5.81691 0
M  V30 1639 N 155.864 0.566581 -5.40639 0
M  V30 1640 H 159.666 -0.142729 -2.93553 0
M  V30 1641 H 157.18 -0.179221 -1.61408 0
M  V30 1642 H 159.177 2.2547 -3.50669 0
M  V30 1643 H 157.837 2.26132 -2.33011 0
M  V30 1644 H 158.848 -0.0962352 -5.17811 0
M  V30 1645 H 155.525 1.9958 -3.66707 0
M  V30 1646 H 156.915 -0.69473 -6.68299 0
M  V30 1647 N 159.635 1.57281 -0.100228 0
M  V30 1648 C 160.883 1.94153 0.561157 0
M  V30 1649 C 161.204 0.983157 1.68401 0
M  V30 1650 O 160.474 0.0361132 1.95867 0
M  V30 1651 H 159.054 0.716791 0.210283 0
M  V30 1652 H 161.716 1.94202 -0.164765 0
M  V30 1653 H 160.812 2.96709 0.968008 0
M  V30 1654 N 161.113 -0.173488 1.56642 0
M  V30 1655 C 162.524 -0.736155 1.71574 0
M  V30 1656 C 162.875 -1.82888 0.710389 0
M  V30 1657 O 162 -2.16017 -0.1287 0
M  V30 1658 C 162.595 -1.34211 3.11083 0
M  V30 1659 C 161.154 -1.85162 3.27707 0
M  V30 1660 C 160.301 -0.729765 2.67525 0
M  V30 1661 H 163.252 0.0518786 1.58615 0
M  V30 1662 H 163.273 -2.21178 3.09613 0
M  V30 1663 H 162.785 -0.546579 3.84232 0
M  V30 1664 H 160.886 -2.67366 2.59512 0
M  V30 1665 H 160.999 -1.99855 4.35425 0
M  V30 1666 H 159.363 -1.14965 2.27278 0
M  V30 1667 H 160.146 0.0538806 3.43258 0
M  V30 1668 N 162.591 -1.51276 -0.441967 0
M  V30 1669 C 163.523 -1.68444 -1.55433 0
M  V30 1670 C 164.536 -0.565187 -1.52674 0
M  V30 1671 O 165.725 -0.839356 -1.57534 0
M  V30 1672 C 162.825 -1.67966 -2.94348 0
M  V30 1673 C 161.998 -2.964 -3.21661 0
M  V30 1674 C 161.057 -2.88171 -4.40277 0
M  V30 1675 O 160.083 -3.62119 -4.39157 0
M  V30 1676 N 161.285 -2.03706 -5.43584 0
M  V30 1677 H 164.05 -2.644 -1.41112 0
M  V30 1678 H 161.611 -1.49104 -0.630838 0
M  V30 1679 H 163.603 -1.60035 -3.71713 0
M  V30 1680 H 162.173 -0.796225 -3.0229 0
M  V30 1681 H 161.393 -3.18234 -2.32638 0
M  V30 1682 H 162.681 -3.81427 -3.36736 0
M  V30 1683 H 162.079 -1.42995 -5.47329 0
M  V30 1684 H 160.636 -2.01658 -6.1982 0
M  V30 1685 N 164.069 0.697108 -1.41344 0
M  V30 1686 C 164.979 1.84088 -1.45427 0
M  V30 1687 C 165.995 1.70545 -0.34501 0
M  V30 1688 O 167.171 1.92488 -0.592492 0
M  V30 1689 C 164.236 3.20056 -1.33286 0
M  V30 1690 C 163.297 3.45718 -2.54514 0
M  V30 1691 C 162.53 4.75199 -2.42944 0
M  V30 1692 O 162.753 5.51579 -1.45318 0
M  V30 1693 O 161.687 5.0161 -3.32672 0
M  V30 1694 H 165.513 1.836 -2.41919 0
M  V30 1695 H 163.098 0.849966 -1.22866 0
M  V30 1696 H 164.98 4.01236 -1.28794 0
M  V30 1697 H 163.655 3.2123 -0.39909 0
M  V30 1698 H 162.562 2.64474 -2.64583 0
M  V30 1699 H 163.895 3.49356 -3.46715 0
M  V30 1700 N 165.547 1.27147 0.931209 0
M  V30 1701 C 166.775 1.16082 1.71267 0
M  V30 1702 C 167.19 -0.282772 1.8667 0
M  V30 1703 O 166.547 -1.19283 1.38122 0
M  V30 1704 C 166.598 1.8358 3.11417 0
M  V30 1705 O 166.319 3.22299 2.96741 0
M  V30 1706 C 167.82 1.78597 4.05732 0
M  V30 1707 H 165.04 0.403758 0.535929 0
M  V30 1708 H 167.584 1.67953 1.16671 0
M  V30 1709 H 165.739 1.35623 3.62885 0
M  V30 1710 H 166.153 3.55851 3.85319 0
M  V30 1711 H 167.627 2.30444 5.01597 0
M  V30 1712 H 168.104 0.754564 4.3267 0
M  V30 1713 H 168.71 2.26152 3.60188 0
M  V30 1714 N 167.025 -1.13721 1.09112 0
M  V30 1715 C 167.955 -2.21148 0.749385 0
M  V30 1716 C 168.936 -1.6792 -0.271475 0
M  V30 1717 O 170.121 -1.93693 -0.140251 0
M  V30 1718 C 167.251 -3.46905 0.165659 0
M  V30 1719 C 166.205 -4.13203 1.11567 0
M  V30 1720 C 165.531 -5.33248 0.393809 0
M  V30 1721 C 166.831 -4.60912 2.45678 0
M  V30 1722 H 168.525 -2.4999 1.64758 0
M  V30 1723 H 166.071 -1.20156 0.793626 0
M  V30 1724 H 168.024 -4.21313 -0.085466 0
M  V30 1725 H 166.748 -3.17449 -0.767714 0
M  V30 1726 H 165.407 -3.40758 1.35202 0
M  V30 1727 H 165.055 -5.00054 -0.543599 0
M  V30 1728 H 164.755 -5.78552 1.02721 0
M  V30 1729 H 166.279 -6.10413 0.150908 0
M  V30 1730 H 167.693 -5.26759 2.26269 0
M  V30 1731 H 166.09 -5.16944 3.04776 0
M  V30 1732 H 167.16 -3.75603 3.06677 0
M  V30 1733 N 168.503 -0.877838 -1.30888 0
M  V30 1734 C 169.78 -0.413052 -1.91189 0
M  V30 1735 C 170.16 1.1056 -1.79832 0
M  V30 1736 O 169.508 1.93771 -1.21099 0
M  V30 1737 C 169.718 -0.903191 -3.3711 0
M  V30 1738 C 171.066 -0.93395 -4.14201 0
M  V30 1739 O 172.09 -0.849373 -3.45925 0
M  V30 1740 O 170.949 -1.05772 -5.36167 0
M  V30 1741 H 168.043 -0.125035 -0.817493 0
M  V30 1742 H 170.589 -0.966269 -1.39504 0
M  V30 1743 H 169.361 -1.94692 -3.39427 0
M  V30 1744 H 168.984 -0.328732 -3.96239 0
M  V30 1745 N 169.982 1.44106 -0.638065 0
M  V30 1746 C 171.398 1.56672 -0.304286 0
M  V30 1747 C 171.598 1.6244 1.19228 0
M  V30 1748 O 170.654 1.57121 1.9766 0
M  V30 1749 C 171.967 2.83503 -1.00231 0
M  V30 1750 C 173.515 2.97226 -0.981116 0
M  V30 1751 C 173.99 4.26868 -1.65974 0
M  V30 1752 N 175.481 4.33698 -1.62666 0
M  V30 1753 C 176.216 5.32745 -2.12063 0
M  V30 1754 N 175.712 6.38157 -2.6968 0
M  V30 1755 N 177.505 5.24299 -2.02651 0
M  V30 1756 H 169.656 1.38605 -1.60942 0
M  V30 1757 H 171.919 0.664661 -0.675965 0
M  V30 1758 H 171.625 2.85251 -2.0573 0
M  V30 1759 H 171.499 3.73251 -0.54439 0
M  V30 1760 H 173.886 2.95027 0.0654188 0
M  V30 1761 H 173.967 2.08808 -1.47759 0
M  V30 1762 H 173.611 4.29826 -2.70576 0
M  V30 1763 H 173.541 5.14156 -1.13804 0
M  V30 1764 H 176.032 3.58138 -1.20606 0
M  V30 1765 H 176.345 7.10029 -3.05087 0
M  V30 1766 H 174.69 6.38823 -2.73734 0
M  V30 1767 H 177.881 4.4086 -1.57353 0
M  V30 1768 H 178.054 6.01334 -2.41457 0
M  V30 1769 N 171.46 0.379036 1.52974 0
M  V30 1770 C 172.688 -0.20679 2.05864 0
M  V30 1771 C 173.103 -1.41356 1.25155 0
M  V30 1772 O 172.46 -1.8009 0.295588 0
M  V30 1773 C 172.511 -0.587045 3.56702 0
M  V30 1774 O 172.232 0.571776 4.34353 0
M  V30 1775 C 173.733 -1.22983 4.25899 0
M  V30 1776 H 170.953 -0.0336123 0.670158 0
M  V30 1777 H 173.497 0.541298 1.97206 0
M  V30 1778 H 171.652 -1.28504 3.65466 0
M  V30 1779 H 172.066 0.261544 5.23847 0
M  V30 1780 H 173.54 -1.44635 5.32715 0
M  V30 1781 H 174.017 -2.19416 3.80465 0
M  V30 1782 H 174.623 -0.572892 4.21424 0
M  V30 1783 N 172.938 -1.57226 0.108567 0
M  V30 1784 C 174.184 -1.95121 -0.552761 0
M  V30 1785 C 174.517 -0.991345 -1.66991 0
M  V30 1786 O 173.792 -0.0267211 -1.94482 0
M  V30 1787 C 174.075 -3.43039 -1.09528 0
M  V30 1788 C 173.928 -4.49797 0.0177332 0
M  V30 1789 C 175.247 -3.92567 -1.98945 0
M  V30 1790 H 172.366 -0.709496 -0.199461 0
M  V30 1791 H 175.008 -1.89126 0.182011 0
M  V30 1792 H 173.158 -3.48279 -1.72146 0
M  V30 1793 H 174.83 -4.56661 0.652584 0
M  V30 1794 H 173.073 -4.284 0.682309 0
M  V30 1795 H 173.744 -5.50528 -0.402919 0
M  V30 1796 H 176.22 -3.89565 -1.46214 0
M  V30 1797 H 175.096 -4.96605 -2.33827 0
M  V30 1798 H 175.357 -3.32648 -2.91201 0
M  V30 1799 N 174.416 0.165178 -1.56732 0
M  V30 1800 C 175.366 1.20917 -1.93295 0
M  V30 1801 C 176.35 1.39488 -0.801985 0
M  V30 1802 O 177.542 1.41356 -1.06525 0
M  V30 1803 C 174.671 2.54718 -2.3016 0
M  V30 1804 C 173.757 2.39815 -3.49785 0
M  V30 1805 N 174.148 1.94637 -4.66851 0
M  V30 1806 C 172.446 2.70623 -3.54513 0
M  V30 1807 C 173.147 1.92344 -5.4898 0
M  V30 1808 N 172.123 2.34978 -4.9019 0
M  V30 1809 H 175.925 0.851675 -2.81289 0
M  V30 1810 H 173.439 0.373399 -1.58049 0
M  V30 1811 H 175.436 3.30165 -2.54552 0
M  V30 1812 H 174.096 2.91265 -1.43508 0
M  V30 1813 H 175.107 1.6488 -4.90953 0
M  V30 1814 H 171.784 3.11167 -2.78354 0
M  V30 1815 H 173.174 1.5906 -6.52801 0
M  V30 1816 N 175.894 1.51508 0.433938 0
M  V30 1817 C 177.134 1.66006 1.19253 0
M  V30 1818 C 177.498 0.369868 1.88404 0
M  V30 1819 O 178.699 0.39066 2.65946 0
M  V30 1820 C 176.97 2.83229 2.17981 0
M  V30 1821 S 178.529 3.18075 3.02281 0
M  V30 1822 H 175.347 0.584821 0.404358 0
M  V30 1823 H 177.949 1.89425 0.48357 0
M  V30 1824 H 176.653 3.75407 1.65824 0
M  V30 1825 H 176.184 2.6201 2.93453 0
M  V30 1826 H 178.199 2.64772 4.19655 0
M  V30 1827 N 177.372 -0.689602 1.41712 0
M  V30 1828 C 178.304 -1.815 1.39966 0
M  V30 1829 C 179.317 -1.59995 0.300917 0
M  V30 1830 O 180.506 -1.69387 0.563039 0
M  V30 1831 C 177.606 -3.18364 1.16179 0
M  V30 1832 C 176.779 -3.66847 2.38206 0
M  V30 1833 C 175.838 -4.82398 2.10186 0
M  V30 1834 O 174.864 -4.93706 2.83272 0
M  V30 1835 N 176.066 -5.70064 1.0958 0
M  V30 1836 H 178.831 -1.83488 2.36965 0
M  V30 1837 H 176.392 -0.872149 1.36401 0
M  V30 1838 H 178.384 -3.93301 0.953756 0
M  V30 1839 H 176.954 -3.11365 0.27756 0
M  V30 1840 H 176.174 -2.82751 2.74673 0
M  V30 1841 H 177.462 -3.95978 3.19498 0
M  V30 1842 H 176.86 -5.63565 0.491019 0
M  V30 1843 H 175.417 -6.44874 0.947656 0
M  V30 1844 N 178.85 -1.27639 -0.924453 0
M  V30 1845 C 180.261 -1.12834 -1.48746 0
M  V30 1846 C 180.612 0.285505 -1.94112 0
M  V30 1847 O 179.737 1.17874 -1.81479 0
M  V30 1848 C 180.332 -2.04217 -2.70334 0
M  V30 1849 C 178.891 -1.93509 -3.22848 0
M  V30 1850 C 178.038 -1.96583 -1.95577 0
M  V30 1851 H 180.989 -1.40484 -0.738233 0
M  V30 1852 H 181.01 -1.59989 -3.4523 0
M  V30 1853 H 180.522 -3.07111 -2.37285 0
M  V30 1854 H 178.623 -0.936131 -3.60649 0
M  V30 1855 H 178.736 -2.79917 -3.88823 0
M  V30 1856 H 177.1 -1.4085 -2.12211 0
M  V30 1857 H 177.883 -3.01137 -1.64837 0
M  V30 1858 N 180.328 1.1314 -1.09713 0
M  V30 1859 C 181.291 2.16831 -0.742751 0
M  V30 1860 C 182.291 1.59159 0.229129 0
M  V30 1861 O 183.481 1.74199 0.00693237 0
M  V30 1862 C 180.613 3.40756 -0.0989168 0
M  V30 1863 H 181.806 2.49695 -1.66109 0
M  V30 1864 H 179.359 1.2802 -0.896699 0
M  V30 1865 H 180.094 3.13485 0.830514 0
M  V30 1866 H 179.879 3.83888 -0.798265 0
M  V30 1867 H 181.369 4.17386 0.133524 0
M  V30 1868 N 181.806 0.884767 1.30421 0
M  V30 1869 C 183.055 0.499164 1.95426 0
M  V30 1870 C 183.368 -0.95645 1.70621 0
M  V30 1871 O 184.574 -1.44889 2.29607 0
M  V30 1872 C 183.03 0.84177 3.49917 0
M  V30 1873 C 182.638 2.31514 3.83543 0
M  V30 1874 C 184.382 0.525355 4.21237 0
M  V30 1875 C 182.289 2.59939 5.31212 0
M  V30 1876 H 181.219 0.182944 0.73147 0
M  V30 1877 H 183.87 1.07971 1.48373 0
M  V30 1878 H 182.252 0.190311 3.95542 0
M  V30 1879 H 183.426 3.0109 3.48829 0
M  V30 1880 H 181.741 2.59907 3.25326 0
M  V30 1881 H 184.338 0.714762 5.29901 0
M  V30 1882 H 184.681 -0.535222 4.12845 0
M  V30 1883 H 185.214 1.134 3.81294 0
M  V30 1884 H 181.953 3.64736 5.44654 0
M  V30 1885 H 181.473 1.94972 5.67227 0
M  V30 1886 H 183.152 2.45429 5.98643 0
M  V30 1887 N 183.284 -1.43765 0.645699 0
M  V30 1888 C 184.531 -2.01898 0.15604 0
M  V30 1889 C 184.859 -1.50887 -1.22733 0
M  V30 1890 O 184.114 -0.689271 -1.8316 0
M  V30 1891 C 184.413 -3.57238 0.107679 0
M  V30 1892 C 184.079 -4.27564 1.43178 0
M  V30 1893 C 182.741 -4.46492 1.7944 0
M  V30 1894 C 185.093 -4.67454 2.30513 0
M  V30 1895 C 182.421 -5.02573 3.02716 0
M  V30 1896 C 184.773 -5.24901 3.53074 0
M  V30 1897 C 183.437 -5.42046 3.89541 0
M  V30 1898 H 182.707 -0.738797 0.057099 0
M  V30 1899 H 185.354 -1.72341 0.834912 0
M  V30 1900 H 183.659 -3.86293 -0.654618 0
M  V30 1901 H 185.356 -3.99965 -0.287938 0
M  V30 1902 H 181.946 -4.13171 1.13963 0
M  V30 1903 H 186.13 -4.5253 2.0379 0
M  V30 1904 H 181.386 -5.14033 3.31028 0
M  V30 1905 H 185.56 -5.54758 4.20971 0
M  V30 1906 H 183.187 -5.85268 4.85145 0
M  V30 1907 N 184.763 -0.387143 -1.52771 0
M  V30 1908 C 186.009 0.196025 -2.0185 0
M  V30 1909 C 186.342 1.46641 -1.27319 0
M  V30 1910 O 185.617 1.90889 -0.373032 0
M  V30 1911 C 185.9 0.466136 -3.5707 0
M  V30 1912 C 185.753 -0.819385 -4.42274 0
M  V30 1913 C 187.072 1.25768 -4.21747 0
M  V30 1914 H 184.191 0.0697708 -0.73369 0
M  V30 1915 H 186.833 -0.516286 -1.82851 0
M  V30 1916 H 184.983 1.07293 -3.7339 0
M  V30 1917 H 186.655 -1.4563 -4.37709 0
M  V30 1918 H 184.898 -1.43517 -4.09372 0
M  V30 1919 H 185.569 -0.585065 -5.48891 0
M  V30 1920 H 188.045 0.744167 -4.09391 0
M  V30 1921 H 186.921 1.41541 -5.30337 0
M  V30 1922 H 187.182 2.27228 -3.79236 0
M  V30 1923 N 186.241 1.57166 -0.116904 0
M  V30 1924 C 187.204 2.14039 0.819742 0
M  V30 1925 C 188.204 1.07477 1.19605 0
M  V30 1926 O 189.394 1.33263 1.1219 0
M  V30 1927 C 186.526 2.67891 2.10826 0
M  V30 1928 H 187.719 2.98128 0.325511 0
M  V30 1929 H 185.272 1.55739 0.132312 0
M  V30 1930 H 186.007 1.87384 2.64685 0
M  V30 1931 H 185.792 3.45823 1.84793 0
M  V30 1932 H 187.282 3.11809 2.77785 0
M  V30 1933 N 187.719 -0.156864 1.56817 0
M  V30 1934 C 188.944 -0.890331 1.87318 0
M  V30 1935 C 189.369 -1.74394 0.704855 0
M  V30 1936 O 188.727 -1.77972 -0.345786 0
M  V30 1937 C 188.775 -1.73102 3.16336 0
M  V30 1938 O 187.879 -2.83422 2.99576 0
M  V30 1939 H 187.22 -0.24857 0.615718 0
M  V30 1940 H 189.75 -0.150649 2.04045 0
M  V30 1941 H 189.76 -2.12803 3.48107 0
M  V30 1942 H 188.435 -1.10412 4.00976 0
M  V30 1943 H 187.012 -2.47199 2.7919 0
M  V30 1944 N 189.197 -1.51736 -0.425897 0
M  V30 1945 C 190.127 -1.76827 -1.52494 0
M  V30 1946 C 191.108 -0.618524 -1.58456 0
M  V30 1947 O 192.293 -0.862416 -1.74 0
M  V30 1948 C 189.423 -1.90374 -2.90474 0
M  V30 1949 C 188.377 -3.0588 -2.99369 0
M  V30 1950 C 187.703 -3.04625 -4.3944 0
M  V30 1951 C 189.003 -4.45644 -2.72394 0
M  V30 1952 H 190.697 -2.68855 -1.31748 0
M  V30 1953 H 188.243 -1.29372 -0.632362 0
M  V30 1954 H 190.196 -2.0651 -3.6733 0
M  V30 1955 H 188.92 -0.95004 -3.12477 0
M  V30 1956 H 187.579 -2.89467 -2.24954 0
M  V30 1957 H 187.227 -2.0701 -4.58428 0
M  V30 1958 H 186.927 -3.82195 -4.46319 0
M  V30 1959 H 188.451 -3.22869 -5.18255 0
M  V30 1960 H 189.865 -4.62348 -3.38979 0
M  V30 1961 H 188.262 -5.25006 -2.9067 0
M  V30 1962 H 189.332 -4.54893 -1.67929 0
M  V30 1963 N 190.675 0.682077 -1.42076 0
M  V30 1964 C 191.638 1.77756 -1.44691 0
M  V30 1965 C 192.638 1.5726 -0.335535 0
M  V30 1966 O 193.828 1.63686 -0.596037 0
M  V30 1967 C 190.96 3.16301 -1.27146 0
M  V30 1968 H 192.153 1.76826 -2.42224 0
M  V30 1969 H 189.706 0.891012 -1.28416 0
M  V30 1970 H 190.441 3.22862 -0.305075 0
M  V30 1971 H 190.226 3.32581 -2.07683 0
M  V30 1972 H 191.716 3.96241 -1.31843 0
M  V30 1973 N 192.153 1.28127 0.917671 0
M  V30 1974 C 193.116 1.11744 2.00115 0
M  V30 1975 C 194.116 0.0583052 1.60694 0
M  V30 1976 O 195.306 0.303755 1.71531 0
M  V30 1977 C 192.438 0.704862 3.33533 0
M  V30 1978 H 193.631 2.07966 2.16079 0
M  V30 1979 H 191.184 1.11058 1.09981 0
M  V30 1980 H 191.919 -0.258299 3.2327 0
M  V30 1981 H 191.704 1.4699 3.63505 0
M  V30 1982 H 193.194 0.612768 4.1308 0
M  V30 1983 N 193.631 -1.12557 1.10312 0
M  V30 1984 C 194.877 -1.84311 0.846011 0
M  V30 1985 C 195.21 -1.83805 -0.626859 0
M  V30 1986 O 194.485 -1.28268 -1.46211 0
M  V30 1987 C 194.768 -3.32048 1.39341 0
M  V30 1988 C 194.621 -3.41016 2.93305 0
M  V30 1989 C 195.94 -4.27764 1.03468 0
M  V30 1990 H 193.059 -0.669192 0.30879 0
M  V30 1991 H 195.701 -1.32057 1.36605 0
M  V30 1992 H 193.851 -3.76678 0.951087 0
M  V30 1993 H 195.523 -3.05031 3.46055 0
M  V30 1994 H 193.766 -2.81603 3.29973 0
M  V30 1995 H 194.437 -4.44948 3.26689 0
M  V30 1996 H 196.913 -3.91253 1.41633 0
M  V30 1997 H 195.789 -5.29549 1.44463 0
M  V30 1998 H 196.05 -4.42064 -0.0560404 0
M  V30 1999 N 195.109 -0.891671 -1.2995 0
M  V30 2000 C 196.019 -0.367691 -2.31701 0
M  V30 2001 C 197.035 0.533486 -1.6562 0
M  V30 2002 O 198.211 0.424997 -1.96865 0
M  V30 2003 C 195.276 0.403406 -3.44345 0
M  V30 2004 C 194.337 -0.528328 -4.26037 0
M  V30 2005 C 193.57 0.206063 -5.33302 0
M  V30 2006 O 193.793 1.43119 -5.52153 0
M  V30 2007 O 192.727 -0.447281 -6.00236 0
M  V30 2008 H 196.553 -1.21163 -2.78484 0
M  V30 2009 H 194.138 -0.655725 -1.34241 0
M  V30 2010 H 196.02 0.839753 -4.12948 0
M  V30 2011 H 194.695 1.22354 -2.99685 0
M  V30 2012 H 193.602 -1.01362 -3.60106 0
M  V30 2013 H 194.935 -1.31465 -4.74318 0
M  V30 2014 N 196.587 1.43421 -0.653314 0
M  V30 2015 C 197.534 2.30768 0.0382271 0
M  V30 2016 C 198.504 1.44755 0.814576 0
M  V30 2017 O 199.689 1.73624 0.791162 0
M  V30 2018 C 196.829 3.30336 0.998599 0
M  V30 2019 C 195.942 4.31448 0.218342 0
M  V30 2020 C 195.077 5.18098 1.17252 0
M  V30 2021 C 194.116 6.10902 0.382702 0
M  V30 2022 N 193.253 6.90176 1.28848 0
M  V30 2023 H 198.093 2.89357 -0.712511 0
M  V30 2024 H 195.63 1.42548 -0.363128 0
M  V30 2025 H 197.588 3.86572 1.56901 0
M  V30 2026 H 196.218 2.73397 1.71621 0
M  V30 2027 H 195.27 3.77506 -0.46836 0
M  V30 2028 H 196.582 4.97227 -0.395812 0
M  V30 2029 H 195.736 5.7896 1.81356 0
M  V30 2030 H 194.475 4.52444 1.82058 0
M  V30 2031 H 193.48 5.49128 -0.27169 0
M  V30 2032 H 194.705 6.78598 -0.260957 0
M  V30 2033 H 192.651 6.27171 1.92334 0
M  V30 2034 H 192.568 7.52478 0.728887 0
M  V30 2035 H 193.836 7.55543 1.91766 0
M  V30 2036 N 198.065 0.39524 1.52563 0
M  V30 2037 C 198.995 -0.428384 2.29537 0
M  V30 2038 C 199.976 -1.05831 1.33169 0
M  V30 2039 O 201.161 -1.06995 1.62067 0
M  V30 2040 C 198.291 -1.55274 3.10656 0
M  V30 2041 C 197.245 -1.04855 4.14957 0
M  V30 2042 C 196.571 -2.26543 4.84337 0
M  V30 2043 C 197.871 -0.112324 5.22179 0
M  V30 2044 H 199.565 0.213867 2.98635 0
M  V30 2045 H 197.111 0.104298 1.43622 0
M  V30 2046 H 199.064 -2.1358 3.63265 0
M  V30 2047 H 197.788 -2.22266 2.39302 0
M  V30 2048 H 196.447 -0.487985 3.63338 0
M  V30 2049 H 196.095 -2.92059 4.09525 0
M  V30 2050 H 195.795 -1.93466 5.54837 0
M  V30 2051 H 197.319 -2.85481 5.39753 0
M  V30 2052 H 198.733 -0.603752 5.70112 0
M  V30 2053 H 197.13 0.128968 5.99961 0
M  V30 2054 H 198.2 0.837052 4.77621 0
M  V30 2055 N 199.544 -1.57102 0.125237 0
M  V30 2056 C 200.494 -2.12202 -0.833936 0
M  V30 2057 C 201.478 -1.04433 -1.22403 0
M  V30 2058 O 202.67 -1.30655 -1.19408 0
M  V30 2059 C 199.799 -2.72994 -2.08157 0
M  V30 2060 C 198.885 -3.87852 -1.71556 0
M  V30 2061 N 199.276 -4.9464 -1.05662 0
M  V30 2062 C 197.574 -3.98153 -2.00973 0
M  V30 2063 C 198.275 -5.74953 -0.883376 0
M  V30 2064 N 197.251 -5.24985 -1.41036 0
M  V30 2065 H 201.053 -2.92141 -0.321035 0
M  V30 2066 H 198.567 -1.62217 -0.0770315 0
M  V30 2067 H 200.564 -3.10816 -2.77847 0
M  V30 2068 H 199.224 -1.9452 -2.59985 0
M  V30 2069 H 200.235 -5.12872 -0.719878 0
M  V30 2070 H 196.912 -3.30728 -2.54804 0
M  V30 2071 H 198.302 -6.70904 -0.365675 0
M  V30 2072 N 201.022 0.148545 -1.56898 0
M  V30 2073 C 201.972 1.1886 -1.94567 0
M  V30 2074 C 202.956 1.3863 -0.816735 0
M  V30 2075 O 204.148 1.40218 -1.08018 0
M  V30 2076 C 201.277 2.52262 -2.32849 0
M  V30 2077 C 200.363 2.36092 -3.52309 0
M  V30 2078 N 200.754 1.89674 -4.6889 0
M  V30 2079 C 199.052 2.66848 -3.57363 0
M  V30 2080 C 199.753 1.86511 -5.50989 0
M  V30 2081 N 198.729 2.29766 -4.92655 0
M  V30 2082 H 202.531 0.821793 -2.82177 0
M  V30 2083 H 200.045 0.356615 -1.58436 0
M  V30 2084 H 202.042 3.27447 -2.58039 0
M  V30 2085 H 200.702 2.89727 -1.46589 0
M  V30 2086 H 201.713 1.59663 -4.92674 0
M  V30 2087 H 198.39 3.08198 -2.81639 0
M  V30 2088 H 199.78 1.52128 -6.54452 0
M  V30 2089 N 202.5 1.5196 0.417844 0
M  V30 2090 C 203.43 1.77634 1.51554 0
M  V30 2091 C 204.411 0.626918 1.58126 0
M  V30 2092 O 205.596 0.871632 1.7354 0
M  V30 2093 C 202.726 1.91911 2.8946 0
M  V30 2094 C 201.68 3.07463 2.97743 0
M  V30 2095 C 201.006 3.06951 4.37819 0
M  V30 2096 C 202.306 4.47082 2.70027 0
M  V30 2097 H 204 2.6955 1.3032 0
M  V30 2098 H 201.546 1.29706 0.625492 0
M  V30 2099 H 203.499 2.08455 3.6623 0
M  V30 2100 H 202.223 0.966598 3.11969 0
M  V30 2101 H 200.882 2.90656 2.23416 0
M  V30 2102 H 200.53 2.09438 4.57323 0
M  V30 2103 H 200.23 3.84556 4.44286 0
M  V30 2104 H 201.754 3.25613 5.16535 0
M  V30 2105 H 203.168 4.6414 3.36522 0
M  V30 2106 H 201.565 5.2654 2.87881 0
M  V30 2107 H 202.635 4.55777 1.65514 0
M  V30 2108 N 203.978 -0.674533 1.42435 0
M  V30 2109 C 204.91 -1.80005 1.41883 0
M  V30 2110 C 205.923 -1.59667 0.31787 0
M  V30 2111 O 207.112 -1.68781 0.580973 0
M  V30 2112 C 204.212 -3.17114 1.19549 0
M  V30 2113 C 203.385 -3.64299 2.42084 0
M  V30 2114 C 202.444 -4.80142 2.15291 0
M  V30 2115 O 201.47 -4.90673 2.88493 0
M  V30 2116 N 202.672 -5.68869 1.1562 0
M  V30 2117 H 205.437 -1.80964 2.38898 0
M  V30 2118 H 202.998 -0.857633 1.37318 0
M  V30 2119 H 204.99 -3.92267 0.995417 0
M  V30 2120 H 203.56 -3.11053 0.310569 0
M  V30 2121 H 202.78 -2.79822 2.77657 0
M  V30 2122 H 204.068 -3.92567 3.23679 0
M  V30 2123 H 203.466 -5.63012 0.550765 0
M  V30 2124 H 202.023 -6.43833 1.016 0
M  V30 2125 N 205.456 -1.28612 -0.910864 0
M  V30 2126 C 206.867 -1.14406 -1.47541 0
M  V30 2127 C 207.218 0.264901 -1.94403 0
M  V30 2128 O 206.343 1.15942 -1.82719 0
M  V30 2129 C 206.938 -2.07073 -2.68153 0
M  V30 2130 C 205.497 -1.96923 -3.20778 0
M  V30 2131 C 204.644 -1.98646 -1.93481 0
M  V30 2132 H 207.595 -1.41259 -0.723291 0
M  V30 2133 H 207.616 -1.63642 -3.43514 0
M  V30 2134 H 207.128 -3.09611 -2.34015 0
M  V30 2135 H 205.229 -0.97433 -3.59635 0
M  V30 2136 H 205.342 -2.84026 -3.85832 0
M  V30 2137 H 203.706 -1.43093 -2.10705 0
M  V30 2138 H 204.489 -3.02868 -1.61634 0
M  V30 2139 N 206.934 1.1197 -1.10907 0
M  V30 2140 C 208.159 1.87942 -0.877064 0
M  V30 2141 C 208.584 1.79341 0.567314 0
M  V30 2142 O 207.942 1.15184 1.40009 0
M  V30 2143 C 207.99 3.34926 -1.33629 0
M  V30 2144 O 207.094 4.09303 -0.504447 0
M  V30 2145 H 206.435 0.583785 -0.316371 0
M  V30 2146 H 208.965 1.4157 -1.47712 0
M  V30 2147 H 208.975 3.8577 -1.32837 0
M  V30 2148 H 207.65 3.40504 -2.3881 0
M  V30 2149 H 206.227 3.68393 -0.577993 0
M  V30 2150 N 208.412 0.89855 1.29475 0
M  V30 2151 C 209.658 0.524658 1.95896 0
M  V30 2152 C 209.991 -0.926468 1.70676 0
M  V30 2153 O 209.266 -1.65665 1.01908 0
M  V30 2154 C 209.549 0.81633 3.50725 0
M  V30 2155 C 209.402 2.31907 3.85408 0
M  V30 2156 C 210.721 0.302038 4.39062 0
M  V30 2157 H 207.84 0.19209 0.711527 0
M  V30 2158 H 210.482 1.12502 1.53112 0
M  V30 2159 H 208.632 0.305369 3.87298 0
M  V30 2160 H 210.304 2.89949 3.58786 0
M  V30 2161 H 208.547 2.78027 3.32992 0
M  V30 2162 H 209.218 2.47373 4.93468 0
M  V30 2163 H 211.694 0.739551 4.09475 0
M  V30 2164 H 210.57 0.535331 5.46283 0
M  V30 2165 H 210.831 -0.797216 4.34853 0
M  V30 2166 N 209.89 -1.43072 0.660911 0
M  V30 2167 C 211.139 -2.00942 0.174735 0
M  V30 2168 C 211.452 -1.52797 -1.22117 0
M  V30 2169 O 212.658 -2.02991 -1.80297 0
M  V30 2170 C 211.114 -3.58948 0.261559 0
M  V30 2171 C 210.722 -4.16085 1.66064 0
M  V30 2172 C 212.466 -4.24173 -0.166617 0
M  V30 2173 C 210.373 -5.6641 1.70098 0
M  V30 2174 H 209.303 -0.751483 0.0615631 0
M  V30 2175 H 211.954 -1.63955 0.824069 0
M  V30 2176 H 210.336 -3.93372 -0.455421 0
M  V30 2177 H 211.51 -3.93147 2.40359 0
M  V30 2178 H 209.825 -3.6326 2.03546 0
M  V30 2179 H 212.422 -5.34471 -0.156433 0
M  V30 2180 H 212.765 -3.98647 -1.19943 0
M  V30 2181 H 213.298 -3.94659 0.498875 0
M  V30 2182 H 210.037 -5.96715 2.71315 0
M  V30 2183 H 209.557 -5.91382 1.00139 0
M  V30 2184 H 211.236 -6.30585 1.44816 0
M  V30 2185 N 211.368 -0.403325 -1.52352 0
M  V30 2186 C 212.278 0.432009 -2.30588 0
M  V30 2187 C 213.294 1.05884 -1.38075 0
M  V30 2188 O 214.47 1.06161 -1.71148 0
M  V30 2189 C 211.535 1.53669 -3.10784 0
M  V30 2190 C 210.596 0.933525 -4.19027 0
M  V30 2191 C 209.829 1.98557 -4.9539 0
M  V30 2192 O 210.052 3.20283 -4.71991 0
M  V30 2193 O 208.986 1.59504 -5.80381 0
M  V30 2194 H 212.812 -0.205739 -3.03002 0
M  V30 2195 H 210.397 -0.166675 -1.48467 0
M  V30 2196 H 212.279 2.17814 -3.60742 0
M  V30 2197 H 210.954 2.15915 -2.41169 0
M  V30 2198 H 209.861 0.254954 -3.7323 0
M  V30 2199 H 211.194 0.35508 -4.90918 0
M  V30 2200 N 212.846 1.57033 -0.133567 0
M  V30 2201 C 213.794 2.17348 0.828412 0
M  V30 2202 C 214.788 1.12671 1.26498 0
M  V30 2203 O 215.994 1.30947 1.23502 0
M  V30 2204 H 212.369 0.695775 0.285309 0
M  V30 2205 H 214.34 2.96935 0.295372 0
M  V30 2206 C 213.089 2.79893 2.06289 0
M  V30 2207 H 212.412 3.60147 1.73592 0
M  V30 2208 H 213.852 3.25615 2.71572 0
M  V30 2209 C 212.311 1.77713 2.86216 0
M  V30 2210 O 212.841 1.23937 3.82103 0
M  V30 2211 N 211.047 1.47321 2.50489 0
M  V30 2212 H 210.594 1.91243 1.7258 0
M  V30 2213 H 210.552 0.79199 3.04261 0
M  V30 2214 N 214.325 -0.140222 1.56975 0
M  V30 2215 C 215.565 -0.857823 1.85528 0
M  V30 2216 C 215.929 -1.78039 0.718768 0
M  V30 2217 O 217.13 -2.53795 0.885521 0
M  V30 2218 C 215.401 -1.60615 3.19277 0
M  V30 2219 S 216.96 -2.36824 3.69405 0
M  V30 2220 H 213.778 -0.286727 0.650622 0
M  V30 2221 H 216.38 -0.117408 1.95147 0
M  V30 2222 H 215.084 -0.919994 3.99955 0
M  V30 2223 H 214.615 -2.38735 3.12681 0
M  V30 2224 H 216.63 -3.62148 3.3921 0
M  V30 2225 N 215.803 -1.52179 -0.40978 0
M  V30 2226 C 217.049 -1.66453 -1.15851 0
M  V30 2227 C 217.382 -0.392972 -1.90182 0
M  V30 2228 O 216.657 0.608579 -1.84734 0
M  V30 2229 C 216.94 -2.88612 -2.15349 0
M  V30 2230 C 216.793 -4.25815 -1.44918 0
M  V30 2231 C 218.112 -3.06294 -3.16026 0
M  V30 2232 H 215.231 -0.60575 -0.419805 0
M  V30 2233 H 217.873 -1.84732 -0.444314 0
M  V30 2234 H 216.023 -2.73158 -2.76255 0
M  V30 2235 H 217.695 -4.52995 -0.871365 0
M  V30 2236 H 215.938 -4.27247 -0.751159 0
M  V30 2237 H 216.609 -5.07337 -2.17516 0
M  V30 2238 H 219.085 -3.20641 -2.65195 0
M  V30 2239 H 217.961 -3.93283 -3.8291 0
M  V30 2240 H 218.222 -2.19579 -3.83715 0
M  V30 2241 N 217.281 0.66697 -1.42791 0
M  V30 2242 C 218.244 1.76211 -1.46568 0
M  V30 2243 C 219.244 1.56896 -0.352196 0
M  V30 2244 O 220.434 1.63044 -0.613364 0
M  V30 2245 C 217.566 3.14935 -1.30494 0
M  V30 2246 H 218.759 1.74247 -2.44086 0
M  V30 2247 H 216.312 0.877342 -1.29354 0
M  V30 2248 H 217.047 3.2252 -0.339301 0
M  V30 2249 H 216.832 3.30359 -2.11199 0
M  V30 2250 H 218.322 3.94821 -1.36038 0
M  V30 2251 N 218.759 1.29093 0.90403 0
M  V30 2252 C 219.722 1.1386 1.98919 0
M  V30 2253 C 220.722 0.0753457 1.60623 0
M  V30 2254 O 221.912 0.321931 1.71199 0
M  V30 2255 C 219.044 0.740198 3.32767 0
M  V30 2256 H 220.237 2.10246 2.13861 0
M  V30 2257 H 217.79 1.12218 1.08797 0
M  V30 2258 H 218.525 -0.223997 3.23525 0
M  V30 2259 H 218.31 1.50838 3.61926 0
M  V30 2260 H 219.8 0.656546 4.12407 0
M  V30 2261 N 220.237 -1.11381 1.11499 0
M  V30 2262 C 221.2 -2.15622 0.777153 0
M  V30 2263 C 222.2 -1.59504 -0.203779 0
M  V30 2264 O 223.39 -1.74188 0.020782 0
M  V30 2265 C 220.522 -3.40556 0.153116 0
M  V30 2266 H 221.715 -2.47021 1.70061 0
M  V30 2267 H 219.268 -1.26577 0.916952 0
M  V30 2268 H 220.003 -3.14767 -0.780536 0
M  V30 2269 H 219.788 -3.8257 0.859238 0
M  V30 2270 H 221.278 -4.17546 -0.0671044 0
M  V30 2271 N 221.715 -0.905404 -1.28997 0
M  V30 2272 C 222.963 -0.533192 -1.9494 0
M  V30 2273 C 223.284 0.924618 -1.71685 0
M  V30 2274 O 222.554 1.65268 -1.05183 0
M  V30 2275 H 221.134 -0.194194 -0.721317 0
M  V30 2276 H 223.796 -1.15294 -1.57141 0
M  V30 2277 H 222.892 -0.72059 -3.03667 0
M  V30 2278 N 223.193 1.4272 -0.668489 0
M  V30 2279 C 224.44 2.01624 -0.18814 0
M  V30 2280 C 224.768 1.5282 1.20317 0
M  V30 2281 O 224.023 0.718323 1.8204 0
M  V30 2282 C 224.322 3.57021 -0.164499 0
M  V30 2283 C 223.988 4.25232 -1.49962 0
M  V30 2284 C 222.65 4.4358 -1.8652 0
M  V30 2285 C 225.002 4.63727 -2.37921 0
M  V30 2286 C 222.33 4.97694 -3.10674 0
M  V30 2287 C 224.682 5.19218 -3.6138 0
M  V30 2288 C 223.346 5.3578 -3.98115 0
M  V30 2289 H 222.616 0.737795 -0.0688454 0
M  V30 2290 H 225.263 1.70991 -0.862225 0
M  V30 2291 H 223.568 3.87285 0.593079 0
M  V30 2292 H 225.265 4.00372 0.224271 0
M  V30 2293 H 221.855 4.11306 -1.20522 0
M  V30 2294 H 226.039 4.4923 -2.10964 0
M  V30 2295 H 221.295 5.08702 -3.39164 0
M  V30 2296 H 225.469 5.4799 -4.29743 0
M  V30 2297 H 223.096 5.77475 -4.94395 0
M  V30 2298 N 224.671 0.411399 1.52136 0
M  V30 2299 C 225.896 -0.165538 2.06738 0
M  V30 2300 C 226.321 -1.379 1.27926 0
M  V30 2301 O 225.679 -1.78628 0.310114 0
M  V30 2302 C 225.727 -0.492124 3.57226 0
M  V30 2303 O 224.831 -1.58276 3.80818 0
M  V30 2304 H 224.172 -0.0132132 0.663869 0
M  V30 2305 H 226.702 0.585253 1.96051 0
M  V30 2306 H 226.712 -0.750104 4.01045 0
M  V30 2307 H 225.387 0.394922 4.14021 0
M  V30 2308 H 223.964 -1.31677 3.48877 0
M  V30 2309 N 226.149 -1.5696 0.141893 0
M  V30 2310 C 227.395 -1.9625 -0.511248 0
M  V30 2311 C 227.728 -1.02654 -1.64851 0
M  V30 2312 O 227.003 -0.0679676 -1.94381 0
M  V30 2313 C 227.286 -3.45285 -1.02227 0
M  V30 2314 C 227.139 -4.49658 0.113138 0
M  V30 2315 C 228.458 -3.96698 -1.90574 0
M  V30 2316 H 225.577 -0.713567 -0.184367 0
M  V30 2317 H 228.219 -1.88698 0.222087 0
M  V30 2318 H 226.369 -3.51852 -1.64719 0
M  V30 2319 H 228.041 -4.55174 0.749302 0
M  V30 2320 H 226.284 -4.26857 0.773026 0
M  V30 2321 H 226.955 -5.51258 -0.286053 0
M  V30 2322 H 229.431 -3.92578 -1.37918 0
M  V30 2323 H 228.307 -5.01453 -2.2324 0
M  V30 2324 H 228.568 -3.3875 -2.84079 0
M  V30 2325 N 227.627 0.131896 -1.57047 0
M  V30 2326 C 228.875 0.840269 -1.83804 0
M  V30 2327 C 229.196 1.81017 -0.72512 0
M  V30 2328 O 228.466 1.94272 0.251995 0
M  V30 2329 H 227.046 0.313294 -0.678127 0
M  V30 2330 H 229.708 0.122294 -1.94516 0
M  V30 2331 H 228.804 1.39335 -2.79271 0
M  V30 2332 N 229.106 1.52395 0.401703 0
M  V30 2333 C 230.016 1.7917 1.51444 0
M  V30 2334 C 231.032 0.677691 1.6026 0
M  V30 2335 O 232.208 0.963909 1.76835 0
M  V30 2336 C 229.273 1.94347 2.87107 0
M  V30 2337 C 228.334 3.18257 2.88116 0
M  V30 2338 C 227.567 3.32701 4.17308 0
M  V30 2339 O 227.79 2.52238 5.11598 0
M  V30 2340 O 226.724 4.25891 4.25324 0
M  V30 2341 H 230.55 2.73633 1.31752 0
M  V30 2342 H 228.135 1.3733 0.588296 0
M  V30 2343 H 230.017 2.06109 3.67555 0
M  V30 2344 H 228.692 1.03073 3.06851 0
M  V30 2345 H 227.599 3.11947 2.06494 0
M  V30 2346 H 228.932 4.09336 2.73322 0
M  V30 2347 N 230.584 -0.659388 1.43143 0
M  V30 2348 C 231.831 -1.41935 1.44433 0
M  V30 2349 C 232.159 -1.94387 0.0663522 0
M  V30 2350 O 231.414 -1.72314 -0.927706 0
M  V30 2351 C 231.713 -2.62206 2.42864 0
M  V30 2352 C 231.379 -2.28208 3.88886 0
M  V30 2353 C 230.041 -2.18647 4.28657 0
M  V30 2354 C 232.393 -2.00887 4.8093 0
M  V30 2355 C 229.721 -1.79914 5.58433 0
M  V30 2356 C 232.073 -1.63653 6.11065 0
M  V30 2357 C 230.737 -1.52614 6.49819 0
M  V30 2358 H 230.007 -0.519376 0.528517 0
M  V30 2359 H 232.654 -0.750453 1.76183 0
M  V30 2360 H 230.959 -3.34199 2.04495 0
M  V30 2361 H 232.656 -3.2041 2.41119 0
M  V30 2362 H 229.246 -2.36557 3.57406 0
M  V30 2363 H 233.43 -2.07198 4.5098 0
M  V30 2364 H 228.686 -1.69948 5.87305 0
M  V30 2365 H 232.86 -1.41543 6.81864 0
M  V30 2366 H 230.487 -1.22371 7.50286 0
M  V30 2367 N 232.062 -1.29571 -0.897171 0
M  V30 2368 C 233.025 -1.14913 -1.98312 0
M  V30 2369 C 234.025 -0.0838629 -1.60581 0
M  V30 2370 O 235.215 -0.331006 -1.71026 0
M  V30 2371 C 232.347 -0.757835 -3.3237 0
M  V30 2372 H 233.54 -2.11377 -2.12743 0
M  V30 2373 H 231.093 -1.12793 -1.08201 0
M  V30 2374 H 231.828 0.206837 -3.2364 0
M  V30 2375 H 231.613 -1.52755 -3.61121 0
M  V30 2376 H 233.103 -0.678408 -4.12053 0
M  V30 2377 N 233.54 1.10788 -1.12088 0
M  V30 2378 C 234.503 2.15207 -0.788577 0
M  V30 2379 C 235.503 1.59609 0.195317 0
M  V30 2380 O 236.693 1.74174 -0.0300193 0
M  V30 2381 C 233.825 3.4047 -0.171174 0
M  V30 2382 H 235.018 2.46116 -1.71368 0
M  V30 2383 H 232.571 1.26089 -0.923652 0
M  V30 2384 H 233.306 3.15176 0.763832 0
M  V30 2385 H 233.091 3.82109 -0.879514 0
M  V30 2386 H 234.581 4.17576 0.04496 0
M  V30 2387 N 235.018 0.912232 1.28515 0
M  V30 2388 C 235.948 0.416403 2.29757 0
M  V30 2389 C 236.929 -0.515194 1.6211 0
M  V30 2390 O 238.114 -0.423253 1.89532 0
M  V30 2391 C 235.244 -0.34572 3.45575 0
M  V30 2392 C 234.198 0.496599 4.25109 0
M  V30 2393 C 233.524 -0.393771 5.33248 0
M  V30 2394 C 234.824 1.75307 4.92001 0
M  V30 2395 H 236.518 1.26249 2.7148 0
M  V30 2396 H 234.064 0.608515 1.30511 0
M  V30 2397 H 236.017 -0.703422 4.15488 0
M  V30 2398 H 234.741 -1.2257 3.02728 0
M  V30 2399 H 233.4 0.8368 3.56922 0
M  V30 2400 H 233.048 -1.27225 4.86644 0
M  V30 2401 H 232.748 0.166209 5.87365 0
M  V30 2402 H 234.272 -0.747389 6.06009 0
M  V30 2403 H 235.686 1.46437 5.54283 0
M  V30 2404 H 234.083 2.25534 5.56106 0
M  V30 2405 H 235.153 2.48176 4.16577 0
M  V30 2406 N 236.496 -1.42363 0.676048 0
M  V30 2407 C 237.742 -2.0182 0.199125 0
M  V30 2408 C 238.075 -1.53339 -1.19168 0
M  V30 2409 O 237.35 -0.736124 -1.80032 0
M  V30 2410 C 237.633 -3.59331 0.235144 0
M  V30 2411 C 237.486 -4.17989 1.66149 0
M  V30 2412 C 238.805 -4.3813 -0.41595 0
M  V30 2413 H 235.924 -0.733293 0.0738311 0
M  V30 2414 H 238.566 -1.69368 0.86107 0
M  V30 2415 H 236.716 -3.87109 -0.328487 0
M  V30 2416 H 238.388 -4.0116 2.27747 0
M  V30 2417 H 236.631 -3.7377 2.20178 0
M  V30 2418 H 237.302 -5.27126 1.63837 0
M  V30 2419 H 239.778 -4.16051 0.0638529 0
M  V30 2420 H 238.654 -5.47717 -0.360115 0
M  V30 2421 H 238.915 -4.16101 -1.49373 0
M  V30 2422 N 237.974 -0.419461 -1.51915 0
M  V30 2423 C 239.221 0.152939 -2.01922 0
M  V30 2424 C 239.549 1.4426 -1.30458 0
M  V30 2425 O 238.804 1.91514 -0.402593 0
M  V30 2426 C 239.103 0.437067 -3.54717 0
M  V30 2427 C 238.769 -0.764632 -4.44369 0
M  V30 2428 C 237.431 -1.09423 -4.68594 0
M  V30 2429 C 239.783 -1.56713 -4.97082 0
M  V30 2430 C 237.111 -2.22732 -5.42777 0
M  V30 2431 C 239.463 -2.69107 -5.72507 0
M  V30 2432 C 238.127 -3.02541 -5.95 0
M  V30 2433 H 237.397 0.0559644 -0.738884 0
M  V30 2434 H 240.044 -0.562998 -1.83037 0
M  V30 2435 H 238.349 1.23469 -3.71837 0
M  V30 2436 H 240.046 0.893083 -3.90928 0
M  V30 2437 H 236.636 -0.497775 -4.257 0
M  V30 2438 H 240.82 -1.32571 -4.78266 0
M  V30 2439 H 236.076 -2.48971 -5.58411 0
M  V30 2440 H 240.25 -3.31671 -6.12346 0
M  V30 2441 H 237.877 -3.90457 -6.52264 0
M  V30 2442 N 239.452 1.56882 -0.150215 0
M  V30 2443 C 240.415 2.1573 0.774157 0
M  V30 2444 C 241.415 1.0999 1.17298 0
M  V30 2445 O 242.605 1.35613 1.09338 0
M  V30 2446 C 239.737 2.72302 2.05096 0
M  V30 2447 H 240.93 2.98752 0.262201 0
M  V30 2448 H 238.483 1.55985 0.099248 0
M  V30 2449 H 239.218 1.92956 2.6065 0
M  V30 2450 H 239.003 3.49665 1.77416 0
M  V30 2451 H 240.493 3.17632 2.71109 0
M  V30 2452 N 240.93 -0.123565 1.57115 0
M  V30 2453 C 242.178 -0.83051 1.84247 0
M  V30 2454 C 242.499 -1.80629 0.73471 0
M  V30 2455 O 241.769 -1.94403 -0.241688 0
M  V30 2456 H 240.349 -0.309694 0.679778 0
M  V30 2457 H 243.011 -0.111976 1.94578 0
M  V30 2458 H 242.107 -1.37852 2.80006 0
M  V30 2459 N 242.408 -1.52605 -0.393616 0
M  V30 2460 C 243.371 -1.76415 -1.46323 0
M  V30 2461 C 244.371 -0.634126 -1.47768 0
M  V30 2462 O 245.561 -0.902142 -1.4902 0
M  V30 2463 C 242.693 -1.8607 -2.85641 0
M  V30 2464 H 243.886 -2.71916 -1.26498 0
M  V30 2465 H 241.439 -1.43257 -0.625073 0
M  V30 2466 H 242.174 -0.925378 -3.10817 0
M  V30 2467 H 241.959 -2.68235 -2.85993 0
M  V30 2468 H 243.449 -2.06179 -3.63153 0
M  V30 2469 N 243.887 0.651787 -1.4349 0
M  V30 2470 C 244.82 1.77668 -1.43211 0
M  V30 2471 C 245.798 1.59931 -0.29338 0
M  V30 2472 O 246.982 1.82095 -0.487191 0
M  V30 2473 C 244.109 3.14986 -1.24505 0
M  V30 2474 C 243.155 3.51421 -2.41673 0
M  V30 2475 S 243.988 3.51234 -4.04222 0
M  V30 2476 C 245.144 4.91206 -3.87902 0
M  V30 2477 H 245.377 1.77635 -2.38397 0
M  V30 2478 H 242.91 0.824558 -1.30539 0
M  V30 2479 H 244.868 3.94237 -1.144 0
M  V30 2480 H 243.529 3.1258 -0.308651 0
M  V30 2481 H 242.722 4.51291 -2.24393 0
M  V30 2482 H 242.324 2.79585 -2.48411 0
M  V30 2483 H 244.616 5.79902 -3.50315 0
M  V30 2484 H 245.559 5.13537 -4.8753 0
M  V30 2485 H 245.967 4.64808 -3.20334 0
M  V30 2486 N 245.365 1.30045 0.890287 0
M  V30 2487 C 246.275 1.17885 2.02831 0
M  V30 2488 C 247.291 0.0999609 1.73713 0
M  V30 2489 O 248.467 0.313867 1.98939 0
M  V30 2490 C 245.532 0.866079 3.35708 0
M  V30 2491 C 244.593 2.02979 3.78283 0
M  V30 2492 C 243.826 1.73184 5.0482 0
M  V30 2493 O 244.049 0.657237 5.66601 0
M  V30 2494 O 242.983 2.58267 5.43674 0
M  V30 2495 H 246.809 2.13474 2.16015 0
M  V30 2496 H 244.394 1.09587 1.01543 0
M  V30 2497 H 246.276 0.706623 4.15433 0
M  V30 2498 H 244.951 -0.0599443 3.23644 0
M  V30 2499 H 243.858 2.24454 2.99285 0
M  V30 2500 H 245.191 2.93734 3.94944 0
M  V30 2501 N 246.843 -1.10192 1.12674 0
M  V30 2502 C 248.09 -1.82205 0.883606 0
M  V30 2503 C 248.418 -1.8532 -0.590492 0
M  V30 2504 O 247.673 -1.31137 -1.45264 0
M  V30 2505 C 247.972 -3.28552 1.4067 0
M  V30 2506 C 247.638 -3.45582 2.89627 0
M  V30 2507 C 246.3 -3.49937 3.30299 0
M  V30 2508 C 248.652 -3.50768 3.85501 0
M  V30 2509 C 245.98 -3.57049 4.65546 0
M  V30 2510 C 248.332 -3.59414 5.20581 0
M  V30 2511 C 246.996 -3.62034 5.60792 0
M  V30 2512 H 246.266 -0.666735 0.323334 0
M  V30 2513 H 248.913 -1.29868 1.40736 0
M  V30 2514 H 247.218 -3.83473 0.80347 0
M  V30 2515 H 248.915 -3.82788 1.19475 0
M  V30 2516 H 245.505 -3.42871 2.57172 0
M  V30 2517 H 249.689 -3.46651 3.55171 0
M  V30 2518 H 244.945 -3.57361 4.96088 0
M  V30 2519 H 249.119 -3.62371 5.94693 0
M  V30 2520 H 246.746 -3.67298 6.6558 0
M  V30 2521 N 248.321 -0.919034 -1.28029 0
M  V30 2522 C 249.284 -0.416182 -2.2539 0
M  V30 2523 C 250.284 0.460438 -1.54067 0
M  V30 2524 O 251.474 0.262744 -1.72207 0
M  V30 2525 C 248.606 0.402707 -3.38513 0
M  V30 2526 H 249.799 -1.27629 -2.71387 0
M  V30 2527 H 247.352 -0.698919 -1.39803 0
M  V30 2528 H 248.087 1.282 -2.97885 0
M  V30 2529 H 247.872 -0.225698 -3.9145 0
M  V30 2530 H 249.362 0.745191 -4.10897 0
M  V30 2531 N 249.799 1.42003 -0.683588 0
M  V30 2532 C 250.709 2.34597 -0.0109075 0
M  V30 2533 C 251.725 1.55576 0.779245 0
M  V30 2534 O 252.901 1.88107 0.719555 0
M  V30 2535 C 249.966 3.34199 0.922588 0
M  V30 2536 C 249.027 4.29115 0.125984 0
M  V30 2537 C 248.26 5.23959 1.01502 0
M  V30 2538 O 248.483 5.23952 2.25456 0
M  V30 2539 O 247.417 6.00053 0.47111 0
M  V30 2540 H 251.243 2.93675 -0.773853 0
M  V30 2541 H 248.828 1.42654 -0.443861 0
M  V30 2542 H 250.71 3.95365 1.45823 0
M  V30 2543 H 249.385 2.77582 1.66523 0
M  V30 2544 H 248.292 3.71335 -0.453969 0
M  V30 2545 H 249.625 4.88798 -0.577736 0
M  V30 2546 N 251.277 0.427512 1.51691 0
M  V30 2547 C 252.525 -0.141948 2.01601 0
M  V30 2548 C 252.846 -1.44067 1.31414 0
M  V30 2549 O 252.116 -1.90763 0.445658 0
M  V30 2550 H 250.696 -0.0554468 0.744939 0
M  V30 2551 H 253.358 0.567968 1.86441 0
M  V30 2552 H 252.454 -0.324913 3.10404 0
M  V30 2553 N 252.755 -1.56801 0.158532 0
M  V30 2554 C 253.685 -2.20347 -0.772609 0
M  V30 2555 C 254.666 -1.15518 -1.24859 0
M  V30 2556 O 255.851 -1.43902 -1.30406 0
M  V30 2557 C 252.981 -2.83417 -2.00729 0
M  V30 2558 C 251.935 -3.94174 -1.66765 0
M  V30 2559 C 251.261 -4.44233 -2.97592 0
M  V30 2560 C 252.561 -5.14392 -0.905447 0
M  V30 2561 H 254.255 -2.98413 -0.242959 0
M  V30 2562 H 251.801 -1.43537 -0.115419 0
M  V30 2563 H 253.754 -3.26543 -2.6636 0
M  V30 2564 H 252.478 -2.02701 -2.56086 0
M  V30 2565 H 251.137 -3.51684 -1.03508 0
M  V30 2566 H 250.785 -3.60325 -3.50963 0
M  V30 2567 H 250.485 -5.18945 -2.75626 0
M  V30 2568 H 252.009 -4.90037 -3.64274 0
M  V30 2569 H 253.423 -5.5429 -1.46408 0
M  V30 2570 H 251.82 -5.9494 -0.7853 0
M  V30 2571 H 252.89 -4.84795 0.100668 0
M  V30 2572 N 254.233 0.115231 -1.57178 0
M  V30 2573 C 255.463 0.835224 -1.88964 0
M  V30 2574 C 255.871 1.73774 -0.74829 0
M  V30 2575 O 255.214 1.81401 0.289739 0
M  V30 2576 C 255.276 1.7178 -3.15804 0
M  V30 2577 C 254.94 0.989198 -4.46166 0
M  V30 2578 C 255.937 0.328263 -5.18863 0
M  V30 2579 C 253.622 0.969256 -4.9286 0
M  V30 2580 C 255.616 -0.342873 -6.36477 0
M  V30 2581 C 253.303 0.294324 -6.10391 0
M  V30 2582 C 254.301 -0.360582 -6.82048 0
M  V30 2583 O 253.989 -1.02474 -7.97342 0
M  V30 2584 H 253.721 0.245197 -0.629964 0
M  V30 2585 H 256.275 0.10303 -2.05141 0
M  V30 2586 H 254.505 2.49173 -2.95719 0
M  V30 2587 H 256.194 2.31255 -3.33581 0
M  V30 2588 H 256.96 0.335263 -4.8384 0
M  V30 2589 H 252.839 1.46844 -4.36987 0
M  V30 2590 H 256.383 -0.854629 -6.92345 0
M  V30 2591 H 252.28 0.285099 -6.4487 0
M  V30 2592 H 253.048 -0.929594 -8.13204 0
M  V30 2593 N 255.711 1.52812 0.385517 0
M  V30 2594 C 256.674 1.77188 1.45386 0
M  V30 2595 C 257.674 0.641953 1.4743 0
M  V30 2596 O 258.864 0.910033 1.4854 0
M  V30 2597 C 255.996 1.87582 2.8465 0
M  V30 2598 H 257.189 2.72583 1.25054 0
M  V30 2599 H 254.742 1.43586 0.617467 0
M  V30 2600 H 255.477 0.941849 3.10322 0
M  V30 2601 H 255.262 2.69748 2.84567 0
M  V30 2602 H 256.752 2.08102 3.62054 0
M  V30 2603 N 257.189 -0.644168 1.43834 0
M  V30 2604 C 258.435 -1.40603 1.46146 0
M  V30 2605 C 258.768 -1.93997 0.0887717 0
M  V30 2606 O 258.043 -1.72854 -0.891724 0
M  V30 2607 C 258.326 -2.58086 2.51124 0
M  V30 2608 C 258.179 -2.10126 3.97702 0
M  V30 2609 C 259.498 -3.60291 2.52742 0
M  V30 2610 H 256.617 -0.509905 0.532134 0
M  V30 2611 H 259.259 -0.729502 1.75437 0
M  V30 2612 H 257.409 -3.15801 2.26278 0
M  V30 2613 H 259.081 -1.57342 4.33637 0
M  V30 2614 H 257.324 -1.41419 4.10101 0
M  V30 2615 H 257.995 -2.94649 4.66783 0
M  V30 2616 H 260.471 -3.12352 2.7491 0
M  V30 2617 H 259.347 -4.40032 3.28121 0
M  V30 2618 H 259.608 -4.1349 1.56455 0
M  V30 2619 N 258.668 -1.30515 -0.883378 0
M  V30 2620 C 259.615 -1.17032 -1.98927 0
M  V30 2621 C 260.585 -0.0594241 -1.65994 0
M  V30 2622 O 261.77 -0.229895 -1.8941 0
M  V30 2623 C 258.91 -0.869777 -3.33959 0
M  V30 2624 C 258.023 -2.06271 -3.79574 0
M  V30 2625 C 257.158 -1.70011 -5.03259 0
M  V30 2626 C 256.197 -2.8579 -5.41286 0
M  V30 2627 N 255.334 -2.49816 -6.56153 0
M  V30 2628 H 260.174 -2.1164 -2.09792 0
M  V30 2629 H 257.711 -1.05296 -1.02719 0
M  V30 2630 H 259.669 -0.676138 -4.11685 0
M  V30 2631 H 258.299 0.0394332 -3.22776 0
M  V30 2632 H 257.351 -2.36755 -2.97744 0
M  V30 2633 H 258.663 -2.92971 -4.03694 0
M  V30 2634 H 257.817 -1.47032 -5.88614 0
M  V30 2635 H 256.556 -0.804829 -4.81013 0
M  V30 2636 H 255.561 -3.09434 -4.54456 0
M  V30 2637 H 256.786 -3.76008 -5.65504 0
M  V30 2638 H 254.732 -1.62795 -6.35479 0
M  V30 2639 H 254.649 -3.30048 -6.8015 0
M  V30 2640 H 255.917 -2.30197 -7.44735 0
M  V30 2641 N 260.146 1.09593 -1.13257 0
M  V30 2642 C 261.395 1.81105 -0.887917 0
M  V30 2643 C 261.708 1.86563 0.587672 0
M  V30 2644 O 262.914 2.54367 0.949204 0
M  V30 2645 C 261.37 3.25338 -1.53895 0
M  V30 2646 C 260.978 3.28151 -3.04994 0
M  V30 2647 C 262.722 4.01617 -1.37492 0
M  V30 2648 C 260.629 4.66897 -3.6299 0
M  V30 2649 H 259.559 0.678661 -0.328534 0
M  V30 2650 H 262.21 1.23183 -1.36008 0
M  V30 2651 H 260.592 3.8331 -0.994446 0
M  V30 2652 H 261.766 2.79953 -3.66009 0
M  V30 2653 H 260.081 2.65361 -3.20893 0
M  V30 2654 H 262.678 5.04119 -1.78235 0
M  V30 2655 H 263.021 4.15072 -0.31957 0
M  V30 2656 H 263.554 3.50082 -1.88912 0
M  V30 2657 H 260.293 4.58643 -4.68323 0
M  V30 2658 H 259.813 5.15426 -3.06752 0
M  V30 2659 H 261.492 5.3587 -3.62563 0
M  V30 2660 N 261.624 0.925811 1.2754 0
M  V30 2661 C 263.04 0.625767 1.46821 0
M  V30 2662 C 263.24 -0.825506 1.83814 0
M  V30 2663 O 262.296 -1.60356 1.95044 0
M  V30 2664 C 263.609 1.57402 2.56213 0
M  V30 2665 C 265.157 1.58204 2.70075 0
M  V30 2666 C 265.632 2.51721 3.82623 0
M  V30 2667 N 267.123 2.49917 3.89994 0
M  V30 2668 C 267.858 3.18968 4.76494 0
M  V30 2669 N 267.354 3.97391 5.67496 0
M  V30 2670 N 269.147 3.07996 4.70208 0
M  V30 2671 H 261.298 1.86409 1.01811 0
M  V30 2672 H 263.561 0.800213 0.508295 0
M  V30 2673 H 263.267 2.60925 2.35819 0
M  V30 2674 H 263.141 1.31428 3.53563 0
M  V30 2675 H 265.528 0.554124 2.89851 0
M  V30 2676 H 265.609 1.88226 1.73218 0
M  V30 2677 H 265.253 3.54622 3.63601 0
M  V30 2678 H 265.183 2.18996 4.78903 0
M  V30 2679 H 267.674 1.9296 3.24923 0
M  V30 2680 H 267.987 4.4707 6.30356 0
M  V30 2681 H 266.332 4.01495 5.67298 0
M  V30 2682 H 269.523 2.46223 3.9811 0
M  V30 2683 H 269.696 3.6208 5.37403 0
M  V30 2684 N 263.102 -1.41638 0.69111 0
M  V30 2685 C 264.065 -2.29178 0.0319786 0
M  V30 2686 C 265.065 -1.44153 -0.712496 0
M  V30 2687 O 266.255 -1.65354 -0.548053 0
M  V30 2688 C 263.387 -3.26952 -0.965161 0
M  V30 2689 H 264.58 -2.88959 0.802681 0
M  V30 2690 H 262.133 -1.4955 0.454356 0
M  V30 2691 H 262.868 -2.72142 -1.76378 0
M  V30 2692 H 262.653 -3.89685 -0.434522 0
M  V30 2693 H 264.143 -3.92561 -1.42428 0
M  V30 2694 N 264.58 -0.43555 -1.51462 0
M  V30 2695 C 265.49 0.383001 -2.31453 0
M  V30 2696 C 266.506 1.02931 -1.4029 0
M  V30 2697 O 267.682 1.02507 -1.73362 0
M  V30 2698 C 264.747 1.47043 -3.13973 0
M  V30 2699 C 263.808 0.844433 -4.20913 0
M  V30 2700 C 263.041 1.88004 -4.9949 0
M  V30 2701 O 263.264 3.10199 -4.78678 0
M  V30 2702 O 262.198 1.47157 -5.83634 0
M  V30 2703 H 266.024 -0.269964 -3.02498 0
M  V30 2704 H 263.609 -0.19813 -1.4808 0
M  V30 2705 H 265.491 2.10113 -3.65281 0
M  V30 2706 H 264.166 2.10751 -2.45695 0
M  V30 2707 H 263.073 0.175729 -3.73687 0
M  V30 2708 H 264.406 0.250869 -4.9156 0
M  V30 2709 N 266.058 1.56714 -0.166846 0
M  V30 2710 C 267.021 2.16539 0.751232 0
M  V30 2711 C 268.021 1.11228 1.16125 0
M  V30 2712 O 269.211 1.36765 1.07894 0
M  V30 2713 C 266.343 2.74462 2.02196 0
M  V30 2714 H 267.536 2.99013 0.230499 0
M  V30 2715 H 265.089 1.56081 0.0826982 0
M  V30 2716 H 265.824 1.95709 2.58589 0
M  V30 2717 H 265.609 3.51527 1.73698 0
M  V30 2718 H 267.099 3.20489 2.67725 0
M  V30 2719 N 267.536 -0.106894 1.57237 0
M  V30 2720 C 268.469 -1.16125 1.96444 0
M  V30 2721 C 269.447 -1.3947 0.835871 0
M  V30 2722 O 270.631 -1.53425 1.09513 0
M  V30 2723 C 267.758 -2.51277 2.27107 0
M  V30 2724 C 266.804 -2.44285 3.4961 0
M  V30 2725 S 267.637 -1.87077 5.01759 0
M  V30 2726 C 268.793 -3.23877 5.35588 0
M  V30 2727 H 269.026 -0.826971 2.85567 0
M  V30 2728 H 266.559 -0.314124 1.51171 0
M  V30 2729 H 268.517 -3.29035 2.45451 0
M  V30 2730 H 267.178 -2.81879 1.38576 0
M  V30 2731 H 266.371 -3.4387 3.68469 0
M  V30 2732 H 265.973 -1.74652 3.30715 0
M  V30 2733 H 268.265 -4.20122 5.31511 0
M  V30 2734 H 269.208 -3.09833 6.36717 0
M  V30 2735 H 269.616 -3.22864 4.63054 0
M  V30 2736 N 269.014 -1.53014 -0.377408 0
M  V30 2737 C 269.946 -1.74884 -1.48149 0
M  V30 2738 C 270.959 -0.629433 -1.5014 0
M  V30 2739 O 272.148 -0.905416 -1.53833 0
M  V30 2740 C 269.248 -1.80299 -2.86959 0
M  V30 2741 C 268.421 -3.09776 -3.08801 0
M  V30 2742 C 267.48 -3.06586 -4.27658 0
M  V30 2743 O 266.506 -3.80419 -4.23403 0
M  V30 2744 N 267.708 -2.26578 -5.34455 0
M  V30 2745 H 270.473 -2.70147 -1.29771 0
M  V30 2746 H 268.034 -1.51646 -0.56703 0
M  V30 2747 H 270.026 -1.75657 -3.64591 0
M  V30 2748 H 268.596 -0.92372 -2.98641 0
M  V30 2749 H 267.816 -3.27815 -2.18931 0
M  V30 2750 H 269.104 -3.95366 -3.20255 0
M  V30 2751 H 268.502 -1.66081 -5.40771 0
M  V30 2752 H 267.059 -2.27766 -6.10709 0
M  V30 2753 N 270.492 0.636531 -1.44174 0
M  V30 2754 C 271.402 1.77754 -1.53103 0
M  V30 2755 C 272.418 1.68928 -0.417034 0
M  V30 2756 O 273.594 1.89801 -0.6736 0
M  V30 2757 C 270.659 3.14115 -1.46741 0
M  V30 2758 C 269.72 3.34612 -2.68948 0
M  V30 2759 C 268.953 4.64467 -2.6288 0
M  V30 2760 O 269.176 5.44919 -1.68581 0
M  V30 2761 O 268.11 4.87049 -3.53648 0
M  V30 2762 H 271.936 1.73174 -2.49489 0
M  V30 2763 H 269.521 0.79709 -1.2636 0
M  V30 2764 H 271.403 3.95412 -1.45696 0
M  V30 2765 H 270.078 3.19249 -0.534975 0
M  V30 2766 H 268.985 2.53014 -2.75562 0
M  V30 2767 H 270.318 3.34336 -3.61221 0
M  V30 2768 N 271.97 1.30982 0.876444 0
M  V30 2769 C 272.933 1.18054 1.96459 0
M  V30 2770 C 273.933 0.109399 1.60427 0
M  V30 2771 O 275.123 0.358173 1.70478 0
M  V30 2772 C 272.255 0.810616 3.31122 0
M  V30 2773 H 273.448 2.14735 2.09354 0
M  V30 2774 H 271.001 1.145 1.06392 0
M  V30 2775 H 271.736 -0.155322 3.23928 0
M  V30 2776 H 271.521 1.58481 3.58645 0
M  V30 2777 H 273.011 0.743876 4.10921 0
M  V30 2778 N 273.449 -1.08991 1.13837 0
M  V30 2779 C 274.674 -1.85551 0.926585 0
M  V30 2780 C 275.099 -1.80782 -0.519566 0
M  V30 2781 O 274.457 -1.18855 -1.36906 0
M  V30 2782 C 274.505 -3.31266 1.42462 0
M  V30 2783 O 273.609 -4.07822 0.612789 0
M  V30 2784 H 272.95 -0.575192 0.331738 0
M  V30 2785 H 275.48 -1.37604 1.51414 0
M  V30 2786 H 275.49 -3.82112 1.43019 0
M  V30 2787 H 274.165 -3.34052 2.47754 0
M  V30 2788 H 272.742 -3.66731 0.675463 0
M  V30 2789 N 274.927 -0.932562 -1.27047 0
M  V30 2790 C 275.837 -0.441219 -2.30414 0
M  V30 2791 C 276.853 0.480525 -1.67233 0
M  V30 2792 O 278.029 0.362151 -1.98117 0
M  V30 2793 C 275.094 0.293651 -3.45454 0
M  V30 2794 C 274.155 -0.663601 -4.2414 0
M  V30 2795 C 273.388 0.0362932 -5.33688 0
M  V30 2796 O 273.611 1.2548 -5.56427 0
M  V30 2797 O 272.545 -0.638015 -5.98509 0
M  V30 2798 H 276.371 -1.29962 -2.74488 0
M  V30 2799 H 273.956 -0.6981 -1.32087 0
M  V30 2800 H 275.838 0.707951 -4.15411 0
M  V30 2801 H 274.513 1.12758 -3.03426 0
M  V30 2802 H 273.42 -1.12768 -3.56699 0
M  V30 2803 H 274.753 -1.46489 -4.69896 0
M  V30 2804 N 276.405 1.4127 -0.698611 0
M  V30 2805 C 277.368 2.29158 -0.044132 0
M  V30 2806 C 278.368 1.44529 0.704841 0
M  V30 2807 O 279.558 1.65643 0.539276 0
M  V30 2808 C 276.69 3.27459 0.947809 0
M  V30 2809 H 277.883 2.88529 -0.817994 0
M  V30 2810 H 275.436 1.49307 -0.46228 0
M  V30 2811 H 276.171 2.73073 1.74933 0
M  V30 2812 H 275.956 3.8991 0.41385 0
M  V30 2813 H 277.446 3.93311 1.40344 0
M  V30 2814 N 277.883 0.443576 1.51229 0
M  V30 2815 C 279.129 -0.120975 2.02439 0
M  V30 2816 C 279.462 -1.41815 1.32674 0
M  V30 2817 O 278.737 -1.89373 0.443622 0
M  V30 2818 C 279.02 -0.333291 3.58554 0
M  V30 2819 C 278.873 0.982968 4.38928 0
M  V30 2820 C 280.192 -1.10028 4.26124 0
M  V30 2821 H 277.311 -0.0424923 0.735774 0
M  V30 2822 H 279.953 0.583794 1.80809 0
M  V30 2823 H 278.103 -0.933614 3.77115 0
M  V30 2824 H 279.775 1.61775 4.32003 0
M  V30 2825 H 278.018 1.58611 4.03763 0
M  V30 2826 H 278.689 0.788379 5.46341 0
M  V30 2827 H 281.165 -0.591711 4.11871 0
M  V30 2828 H 280.041 -1.21761 5.35225 0
M  V30 2829 H 280.302 -2.12996 3.87408 0
M  V30 2830 N 279.361 -1.56624 0.175154 0
M  V30 2831 C 280.772 -1.83561 -0.340916 0
M  V30 2832 C 281.123 -1.09511 -1.62794 0
M  V30 2833 O 280.248 -0.349389 -2.13561 0
M  V30 2834 C 280.843 -3.32979 -0.625313 0
M  V30 2835 C 279.402 -3.60399 -1.08581 0
M  V30 2836 C 278.549 -2.77024 -0.123722 0
M  V30 2837 H 281.5 -1.53593 0.399344 0
M  V30 2838 H 281.521 -3.50666 -1.47694 0
M  V30 2839 H 281.033 -3.86847 0.311575 0
M  V30 2840 H 279.134 -3.11945 -2.03767 0
M  V30 2841 H 279.247 -4.68711 -0.992317 0
M  V30 2842 H 277.611 -2.46993 -0.621821 0
M  V30 2843 H 278.394 -3.33674 0.807256 0
M  V30 2844 N 280.839 0.0985539 -1.57292 0
M  V30 2845 C 282.064 0.820196 -1.90493 0
M  V30 2846 C 282.489 1.71658 -0.769094 0
M  V30 2847 O 281.847 1.79133 0.279495 0
M  V30 2848 C 281.895 1.61242 -3.22542 0
M  V30 2849 O 280.999 2.72108 -3.09888 0
M  V30 2850 H 280.34 0.225547 -0.62452 0
M  V30 2851 H 282.87 0.0748159 -2.04463 0
M  V30 2852 H 282.88 1.99737 -3.55766 0
M  V30 2853 H 281.555 0.954535 -4.04798 0
M  V30 2854 H 280.132 2.36667 -2.88172 0
M  V30 2855 N 282.317 1.53212 0.369288 0
M  V30 2856 C 283.565 1.68881 1.11012 0
M  V30 2857 C 283.886 0.441285 1.89941 0
M  V30 2858 O 283.156 -0.544623 1.88177 0
M  V30 2859 H 281.736 0.622569 0.412816 0
M  V30 2860 H 284.398 1.90391 0.416802 0
M  V30 2861 H 283.494 2.54822 1.80201 0
M  V30 2862 N 283.795 -0.628877 1.44509 0
M  V30 2863 C 284.728 -1.75367 1.46019 0
M  V30 2864 C 285.706 -1.59444 0.318787 0
M  V30 2865 O 286.89 -1.81297 0.516099 0
M  V30 2866 C 284.017 -3.12965 1.29501 0
M  V30 2867 C 283.063 -3.47532 2.47233 0
M  V30 2868 S 283.896 -3.44758 4.09758 0
M  V30 2869 C 285.052 -4.84973 3.95667 0
M  V30 2870 H 285.285 -1.7382 2.41193 0
M  V30 2871 H 282.818 -0.803686 1.31834 0
M  V30 2872 H 284.776 -3.92367 1.20658 0
M  V30 2873 H 283.437 -3.12049 0.358341 0
M  V30 2874 H 282.63 -4.47664 2.31544 0
M  V30 2875 H 282.232 -2.75598 2.52828 0
M  V30 2876 H 284.524 -5.74255 3.59496 0
M  V30 2877 H 285.467 -5.05716 4.95638 0
M  V30 2878 H 285.875 -4.59653 3.27688 0
M  V30 2879 N 285.273 -1.31445 -0.869486 0
M  V30 2880 C 286.203 -1.21727 -1.99261 0
M  V30 2881 C 287.184 -0.104359 -1.6978 0
M  V30 2882 O 288.369 -0.289038 -1.92037 0
M  V30 2883 C 285.499 -0.924317 -3.34774 0
M  V30 2884 C 284.453 -1.99685 -3.78563 0
M  V30 2885 C 283.779 -1.55658 -5.11541 0
M  V30 2886 C 285.079 -3.41003 -3.95619 0
M  V30 2887 H 286.773 -2.1569 -2.07649 0
M  V30 2888 H 284.319 -1.03839 -0.997675 0
M  V30 2889 H 286.272 -0.842934 -4.12883 0
M  V30 2890 H 284.996 0.0509793 -3.2656 0
M  V30 2891 H 283.655 -2.06813 -3.02694 0
M  V30 2892 H 283.303 -0.569132 -4.9977 0
M  V30 2893 H 283.003 -2.27409 -5.41811 0
M  V30 2894 H 284.527 -1.48928 -5.92159 0
M  V30 2895 H 285.941 -3.36547 -4.64122 0
M  V30 2896 H 284.338 -4.10975 -4.37286 0
M  V30 2897 H 285.408 -3.81754 -2.98985 0
M  V30 2898 N 286.751 1.08385 -1.14413 0
M  V30 2899 C 287.976 1.85057 -0.936413 0
M  V30 2900 C 288.401 1.81055 0.509971 0
M  V30 2901 O 287.759 1.1958 1.36273 0
M  V30 2902 C 287.807 3.30505 -1.44217 0
M  V30 2903 O 286.911 4.07491 -0.634409 0
M  V30 2904 H 286.252 0.573425 -0.334784 0
M  V30 2905 H 288.782 1.36799 -1.52142 0
M  V30 2906 H 288.792 3.81348 -1.45043 0
M  V30 2907 H 287.467 3.32734 -2.49522 0
M  V30 2908 H 286.044 3.66368 -0.694902 0
M  V30 2909 N 288.23 0.939286 1.26551 0
M  V30 2910 C 289.476 0.586715 1.94128 0
M  V30 2911 C 289.809 -0.8717 1.73537 0
M  V30 2912 O 289.084 -1.62339 1.07127 0
M  V30 2913 C 289.367 0.927497 3.4795 0
M  V30 2914 C 289.22 2.44052 3.77834 0
M  V30 2915 C 290.539 0.441569 4.37879 0
M  V30 2916 H 287.658 0.21463 0.705055 0
M  V30 2917 H 290.3 1.17316 1.49455 0
M  V30 2918 H 288.45 0.428431 3.8613 0
M  V30 2919 H 290.122 3.01216 3.4938 0
M  V30 2920 H 288.365 2.8848 3.23978 0
M  V30 2921 H 289.036 2.62947 4.85348 0
M  V30 2922 H 291.512 0.869448 4.06915 0
M  V30 2923 H 290.388 0.708856 5.44304 0
M  V30 2924 H 290.649 -0.658467 4.37169 0
M  V30 2925 N 289.708 -1.40897 0.706093 0
M  V30 2926 C 290.638 -2.33418 0.0620085 0
M  V30 2927 C 291.619 -1.52385 -0.755827 0
M  V30 2928 O 292.804 -1.80886 -0.706674 0
M  V30 2929 C 289.934 -3.36293 -0.867445 0
M  V30 2930 C 288.888 -4.27716 -0.155932 0
M  V30 2931 C 288.214 -5.2105 -1.20046 0
M  V30 2932 C 289.514 -5.12944 0.984149 0
M  V30 2933 H 291.208 -2.87527 0.83477 0
M  V30 2934 H 288.754 -1.38249 0.402875 0
M  V30 2935 H 290.707 -3.99949 -1.32735 0
M  V30 2936 H 289.431 -2.80556 -1.67199 0
M  V30 2937 H 288.09 -3.65498 0.284047 0
M  V30 2938 H 287.738 -4.61624 -1.99781 0
M  V30 2939 H 287.438 -5.83056 -0.729328 0
M  V30 2940 H 288.962 -5.87584 -1.66066 0
M  V30 2941 H 290.376 -5.70109 0.604048 0
M  V30 2942 H 288.773 -5.83945 1.38304 0
M  V30 2943 H 289.843 -4.49485 1.81911 0
M  V30 2944 N 291.186 -0.45159 -1.50991 0
M  V30 2945 C 292.434 0.109857 -2.01801 0
M  V30 2946 C 292.755 1.41958 -1.3369 0
M  V30 2947 O 292.025 1.9003 -0.475951 0
M  V30 2948 H 290.605 0.0435884 -0.745727 0
M  V30 2949 H 293.267 -0.597557 -1.85514 0
M  V30 2950 H 292.363 0.275489 -3.10882 0
M  V30 2951 N 292.664 1.56529 -0.183458 0
M  V30 2952 C 293.596 2.15747 0.773697 0
M  V30 2953 C 294.609 1.1162 1.1851 0
M  V30 2954 O 295.798 1.3876 1.12285 0
M  V30 2955 C 292.898 2.6952 2.05456 0
M  V30 2956 C 292.071 3.98429 1.8048 0
M  V30 2957 C 291.13 4.37145 2.92901 0
M  V30 2958 O 290.156 5.04791 2.6301 0
M  V30 2959 N 291.358 3.99695 4.2098 0
M  V30 2960 H 294.123 2.98505 0.26736 0
M  V30 2961 H 291.684 1.619 -0.0010878 0
M  V30 2962 H 293.676 2.92412 2.79781 0
M  V30 2963 H 292.246 1.91282 2.47245 0
M  V30 2964 H 291.466 3.8379 0.899947 0
M  V30 2965 H 292.754 4.82597 1.61175 0
M  V30 2966 H 292.152 3.4526 4.48121 0
M  V30 2967 H 290.709 4.27562 4.9197 0
M  V30 2968 N 294.142 -0.090211 1.57342 0
M  V30 2969 C 295.553 -0.644173 1.75235 0
M  V30 2970 C 295.904 -1.78865 0.806335 0
M  V30 2971 O 295.029 -2.16395 -0.0140128 0
M  V30 2972 C 295.624 -1.17532 3.1776 0
M  V30 2973 C 294.183 -1.67531 3.37061 0
M  V30 2974 C 293.33 -0.58693 2.71017 0
M  V30 2975 H 296.281 0.135884 1.58117 0
M  V30 2976 H 296.302 -2.04455 3.20902 0
M  V30 2977 H 295.814 -0.342138 3.86589 0
M  V30 2978 H 293.915 -2.53234 2.73319 0
M  V30 2979 H 294.028 -1.76493 4.45406 0
M  V30 2980 H 292.392 -1.02756 2.33052 0
M  V30 2981 H 293.175 0.235758 3.4249 0
M  V30 2982 N 295.62 -1.53406 -0.361157 0
M  V30 2983 C 296.552 -1.76446 -1.46286 0
M  V30 2984 C 297.565 -0.645322 -1.49464 0
M  V30 2985 O 298.754 -0.921681 -1.52864 0
M  V30 2986 C 295.854 -1.83332 -2.85031 0
M  V30 2987 C 295.027 -3.13033 -3.05498 0
M  V30 2988 C 294.086 -3.11104 -4.24383 0
M  V30 2989 O 293.112 -3.84888 -4.19344 0
M  V30 2990 N 294.314 -2.32234 -5.32022 0
M  V30 2991 H 297.079 -2.71508 -1.26899 0
M  V30 2992 H 294.64 -1.52238 -0.550915 0
M  V30 2993 H 296.632 -1.79514 -3.62708 0
M  V30 2994 H 295.202 -0.955342 -2.97644 0
M  V30 2995 H 294.422 -3.30119 -2.15442 0
M  V30 2996 H 295.71 -3.9874 -3.16044 0
M  V30 2997 H 295.108 -1.71807 -5.38979 0
M  V30 2998 H 293.665 -2.3423 -6.08259 0
M  V30 2999 N 297.098 0.621204 -1.44841 0
M  V30 3000 C 298.323 1.41244 -1.51871 0
M  V30 3001 C 298.748 1.87519 -0.147764 0
M  V30 3002 O 298.106 1.59334 0.865 0
M  V30 3003 C 298.154 2.60221 -2.49634 0
M  V30 3004 O 297.258 3.60395 -2.00473 0
M  V30 3005 H 296.599 0.42223 -0.512463 0
M  V30 3006 H 299.129 0.757305 -1.90069 0
M  V30 3007 H 299.139 3.0764 -2.67996 0
M  V30 3008 H 297.814 2.25887 -3.4921 0
M  V30 3009 H 296.391 3.19717 -1.91925 0
M  V30 3010 N 298.576 1.31904 0.862503 0
M  V30 3011 C 299.523 1.20182 1.9704 0
M  V30 3012 C 300.493 0.0858247 1.65878 0
M  V30 3013 O 301.678 0.26 1.8902 0
M  V30 3014 C 298.818 0.922797 3.32533 0
M  V30 3015 C 297.931 2.12284 3.76244 0
M  V30 3016 C 297.066 1.77996 5.00491 0
M  V30 3017 C 296.105 2.94366 5.36671 0
M  V30 3018 N 295.242 2.60223 6.52095 0
M  V30 3019 H 300.082 2.14951 2.06398 0
M  V30 3020 H 297.619 1.06917 1.01031 0
M  V30 3021 H 299.577 0.741548 4.10557 0
M  V30 3022 H 298.207 0.0119227 3.22798 0
M  V30 3023 H 297.259 2.41461 2.9394 0
M  V30 3024 H 298.571 2.99357 3.98982 0
M  V30 3025 H 297.725 1.56377 5.862 0
M  V30 3026 H 296.464 0.881252 4.79672 0
M  V30 3027 H 295.469 3.16625 4.49476 0
M  V30 3028 H 296.694 3.84957 5.59451 0
M  V30 3029 H 294.64 1.72884 6.32809 0
M  V30 3030 H 294.557 3.40827 6.74814 0
M  V30 3031 H 295.825 2.42016 7.40978 0
M  V30 3032 N 300.054 -1.07777 1.14986 0
M  V30 3033 C 301.301 -1.8029 0.922056 0
M  V30 3034 C 301.629 -1.86531 -0.55105 0
M  V30 3035 O 300.884 -1.34189 -1.42449 0
M  V30 3036 C 301.183 -3.25495 1.47608 0
M  V30 3037 C 300.849 -3.39361 2.96893 0
M  V30 3038 C 299.511 -3.42852 3.37647 0
M  V30 3039 C 301.863 -3.42512 3.92854 0
M  V30 3040 C 299.191 -3.47094 4.73015 0
M  V30 3041 C 301.543 -3.4829 5.28088 0
M  V30 3042 C 300.207 -3.50058 5.68345 0
M  V30 3043 H 299.477 -0.659727 0.337404 0
M  V30 3044 H 302.124 -1.26854 1.43459 0
M  V30 3045 H 300.429 -3.81683 0.88463 0
M  V30 3046 H 302.126 -3.80168 1.27568 0
M  V30 3047 H 298.716 -3.37339 2.64387 0
M  V30 3048 H 302.9 -3.3904 3.62444 0
M  V30 3049 H 298.156 -3.46758 5.03556 0
M  V30 3050 H 302.33 -3.49675 6.02246 0
M  V30 3051 H 299.957 -3.53097 6.73221 0
M  V30 3052 N 301.532 -0.945985 -1.26051 0
M  V30 3053 C 302.48 -0.450259 -2.282 0
M  V30 3054 C 303.474 0.47497 -1.62605 0
M  V30 3055 O 304.68 0.352653 -1.76512 0
M  V30 3056 H 301.055 -0.127081 -0.741184 0
M  V30 3057 H 303.026 -1.32422 -2.67408 0
M  V30 3058 C 301.775 0.26467 -3.46691 0
M  V30 3059 H 301.098 -0.438123 -3.97392 0
M  V30 3060 H 302.538 0.575678 -4.20074 0
M  V30 3061 C 300.997 1.48416 -3.02447 0
M  V30 3062 O 301.527 2.58227 -3.07704 0
M  V30 3063 N 299.733 1.34243 -2.57735 0
M  V30 3064 H 299.28 0.448994 -2.53657 0
M  V30 3065 H 299.238 2.15957 -2.28495 0
M  V30 3066 N 303.011 1.40521 -0.713556 0
M  V30 3067 C 304.258 2.00923 -0.25219 0
M  V30 3068 C 304.586 1.56571 1.15395 0
M  V30 3069 O 303.841 0.775874 1.79663 0
M  V30 3070 C 304.14 3.56317 -0.278 0
M  V30 3071 C 303.806 4.20246 -1.63415 0
M  V30 3072 C 302.468 4.37422 -2.00538 0
M  V30 3073 C 304.82 4.55923 -2.52554 0
M  V30 3074 C 302.148 4.87558 -3.2635 0
M  V30 3075 C 304.5 5.07458 -3.77716 0
M  V30 3076 C 303.164 5.22843 -4.14959 0
M  V30 3077 H 302.434 0.735231 -0.0922829 0
M  V30 3078 H 305.081 1.68161 -0.916188 0
M  V30 3079 H 303.386 3.88976 0.469567 0
M  V30 3080 H 305.083 4.00883 0.0967819 0
M  V30 3081 H 301.673 4.07263 -1.33546 0
M  V30 3082 H 305.857 4.42291 -2.25149 0
M  V30 3083 H 301.113 4.97654 -3.55176 0
M  V30 3084 H 305.287 5.34041 -4.4696 0
M  V30 3085 H 302.914 5.61454 -5.12516 0
M  V30 3086 N 304.489 0.459591 1.5075 0
M  V30 3087 C 305.452 -0.329093 2.26825 0
M  V30 3088 C 306.452 -0.930481 1.31144 0
M  V30 3089 O 307.642 -0.801453 1.54669 0
M  V30 3090 C 304.774 -1.46768 3.07688 0
M  V30 3091 H 305.967 0.337924 2.9799 0
M  V30 3092 H 303.52 0.213336 1.54837 0
M  V30 3093 H 304.255 -2.17009 2.40993 0
M  V30 3094 H 304.04 -1.04238 3.77991 0
M  V30 3095 H 305.53 -2.02433 3.65254 0
M  V30 3096 N 305.967 -1.56429 0.191757 0
M  V30 3097 C 307.207 -1.99383 -0.450099 0
M  V30 3098 C 307.571 -1.07581 -1.59029 0
M  V30 3099 O 308.772 -1.39758 -2.29611 0
M  V30 3100 C 307.043 -3.45841 -0.901611 0
M  V30 3101 S 308.602 -4.10822 -1.54177 0
M  V30 3102 H 305.42 -0.696253 -0.144057 0
M  V30 3103 H 308.022 -1.93276 0.294036 0
M  V30 3104 H 306.726 -4.10354 -0.0616596 0
M  V30 3105 H 306.257 -3.55757 -1.67929 0
M  V30 3106 H 308.272 -4.07553 -2.83046 0
M  V30 3107 N 307.445 0.0818655 -1.57387 0
M  V30 3108 C 308.375 1.09885 -2.06028 0
M  V30 3109 C 309.356 1.4098 -0.951774 0
M  V30 3110 O 310.541 1.50781 -1.22387 0
M  V30 3111 C 307.671 2.4151 -2.4958 0
M  V30 3112 C 306.625 2.24792 -3.64215 0
M  V30 3113 C 305.951 3.61712 -3.93787 0
M  V30 3114 C 307.251 1.67749 -4.94629 0
M  V30 3115 H 308.945 0.694128 -2.91243 0
M  V30 3116 H 306.491 0.332448 -1.4011 0
M  V30 3117 H 308.444 3.12939 -2.82219 0
M  V30 3118 H 307.168 2.83943 -1.61381 0
M  V30 3119 H 305.827 1.55807 -3.31843 0
M  V30 3120 H 305.475 4.01697 -3.02735 0
M  V30 3121 H 305.175 3.51368 -4.70971 0
M  V30 3122 H 306.699 4.34587 -4.28913 0
M  V30 3123 H 308.113 2.29032 -5.25564 0
M  V30 3124 H 306.51 1.68128 -5.76067 0
M  V30 3125 H 307.58 0.638059 -4.80684 0
M  V30 3126 N 308.923 1.53595 0.353017 0
M  V30 3127 C 309.833 1.83897 1.45667 0
M  V30 3128 C 310.849 0.728334 1.58023 0
M  V30 3129 O 312.025 1.01968 1.73679 0
M  V30 3130 C 309.09 2.03383 2.80778 0
M  V30 3131 C 308.151 3.27262 2.77845 0
M  V30 3132 C 307.384 3.45809 4.06512 0
M  V30 3133 O 307.607 2.68387 5.03314 0
M  V30 3134 O 306.541 4.39207 4.11559 0
M  V30 3135 H 310.367 2.77686 1.2298 0
M  V30 3136 H 307.952 1.39132 0.544308 0
M  V30 3137 H 309.834 2.17698 3.60812 0
M  V30 3138 H 308.509 1.12783 3.03417 0
M  V30 3139 H 307.416 3.18359 1.96465 0
M  V30 3140 H 308.749 4.17824 2.60161 0
M  V30 3141 N 310.401 -0.613514 1.45168 0
M  V30 3142 C 311.364 -1.7065 1.53007 0
M  V30 3143 C 312.364 -1.5548 0.410184 0
M  V30 3144 O 313.554 -1.60656 0.673455 0
M  V30 3145 C 310.686 -3.09875 1.42093 0
M  V30 3146 H 311.879 -1.65068 2.50385 0
M  V30 3147 H 309.432 -0.828728 1.32521 0
M  V30 3148 H 310.167 -3.21039 0.458769 0
M  V30 3149 H 309.952 -3.22293 2.23315 0
M  V30 3150 H 311.442 -3.895 1.50598 0
M  V30 3151 N 311.879 -1.3236 -0.855495 0
M  V30 3152 C 313.295 -1.11332 -1.14356 0
M  V30 3153 C 313.495 0.106751 -2.01217 0
M  V30 3154 O 312.551 0.791891 -2.39761 0
M  V30 3155 C 313.864 -2.39237 -1.82171 0
M  V30 3156 C 315.412 -2.44986 -1.9481 0
M  V30 3157 C 315.887 -3.7281 -2.66039 0
M  V30 3158 N 317.378 -3.73787 -2.73565 0
M  V30 3159 C 318.113 -4.69394 -3.29327 0
M  V30 3160 N 317.609 -5.75367 -3.85907 0
M  V30 3161 N 319.402 -4.56893 -3.27423 0
M  V30 3162 H 311.553 -2.10586 -0.277027 0
M  V30 3163 H 313.816 -0.929701 -0.185364 0
M  V30 3164 H 313.522 -3.28431 -1.25802 0
M  V30 3165 H 313.396 -2.50134 -2.82335 0
M  V30 3166 H 315.783 -1.56252 -2.50338 0
M  V30 3167 H 315.864 -2.38043 -0.936448 0
M  V30 3168 H 315.508 -4.61918 -2.11174 0
M  V30 3169 H 315.438 -3.77024 -3.67642 0
M  V30 3170 H 317.929 -2.97189 -2.33424 0
M  V30 3171 H 318.242 -6.44378 -4.26611 0
M  V30 3172 H 316.587 -5.79123 -3.84242 0
M  V30 3173 H 319.778 -3.73269 -2.82467 0
M  V30 3174 H 319.951 -5.31577 -3.7058 0
M  V30 3175 N 313.357 1.07166 -1.15556 0
M  V30 3176 C 314.267 2.17947 -0.868116 0
M  V30 3177 C 315.283 1.73297 0.156297 0
M  V30 3178 O 316.459 2.01392 -0.0182327 0
M  V30 3179 C 313.524 3.44789 -0.36355 0
M  V30 3180 C 312.585 4.03996 -1.45209 0
M  V30 3181 C 311.818 5.24783 -0.971508 0
M  V30 3182 O 312.041 5.70109 0.182194 0
M  V30 3183 O 310.975 5.75715 -1.75603 0
M  V30 3184 H 314.801 2.4503 -1.79427 0
M  V30 3185 H 312.386 1.16539 -0.934824 0
M  V30 3186 H 314.268 4.21307 -0.0887113 0
M  V30 3187 H 312.943 3.19253 0.534708 0
M  V30 3188 H 311.85 3.29009 -1.78056 0
M  V30 3189 H 313.183 4.33808 -2.32533 0
M  V30 3190 N 314.835 0.952656 1.25548 0
M  V30 3191 C 315.785 0.442033 2.23674 0
M  V30 3192 C 316.769 -0.467632 1.53955 0
M  V30 3193 O 317.961 -0.301006 1.74422 0
M  V30 3194 C 315.09 -0.280816 3.4215 0
M  V30 3195 C 314.176 0.646803 4.19139 0
M  V30 3196 N 314.567 1.77759 4.73535 0
M  V30 3197 C 312.865 0.454617 4.43677 0
M  V30 3198 C 313.566 2.35658 5.31827 0
M  V30 3199 N 312.542 1.64333 5.18166 0
M  V30 3200 H 316.344 1.30505 2.63336 0
M  V30 3201 H 313.858 0.809904 1.40763 0
M  V30 3202 H 315.855 -0.663747 4.11582 0
M  V30 3203 H 314.515 -1.14046 3.04012 0
M  V30 3204 H 315.526 2.15949 4.7073 0
M  V30 3205 H 312.203 -0.362312 4.15925 0
M  V30 3206 H 313.593 3.30998 5.84713 0
M  V30 3207 N 316.313 -1.40141 0.720998 0
M  V30 3208 C 317.553 -2.02644 0.267335 0
M  V30 3209 C 317.917 -1.55948 -1.12001 0
M  V30 3210 O 319.118 -2.10552 -1.67097 0
M  V30 3211 C 317.389 -3.55679 0.350281 0
M  V30 3212 S 318.948 -4.38793 -0.0256004 0
M  V30 3213 H 315.766 -0.703105 0.105664 0
M  V30 3214 H 318.368 -1.71175 0.944416 0
M  V30 3215 H 317.072 -3.87157 1.36153 0
M  V30 3216 H 316.603 -3.91883 -0.345096 0
M  V30 3217 H 318.618 -4.803 -1.24604 0
M  V30 3218 N 317.792 -0.46758 -1.50504 0
M  V30 3219 C 318.739 0.328413 -2.28452 0
M  V30 3220 C 319.709 0.990313 -1.33349 0
M  V30 3221 O 320.894 1.00343 -1.62284 0
M  V30 3222 C 318.034 1.40648 -3.15138 0
M  V30 3223 C 317.147 0.759709 -4.25267 0
M  V30 3224 C 316.282 1.81537 -4.99217 0
M  V30 3225 C 315.321 1.14866 -6.01226 0
M  V30 3226 N 314.458 2.14702 -6.68467 0
M  V30 3227 H 319.298 -0.342603 -2.96024 0
M  V30 3228 H 316.835 -0.180801 -1.45985 0
M  V30 3229 H 318.793 2.04315 -3.63746 0
M  V30 3230 H 317.423 2.04671 -2.49619 0
M  V30 3231 H 316.475 0.0105671 -3.80399 0
M  V30 3232 H 317.787 0.233243 -4.98254 0
M  V30 3233 H 316.941 2.52793 -5.51526 0
M  V30 3234 H 315.68 2.37564 -4.25928 0
M  V30 3235 H 314.685 0.42171 -5.4818 0
M  V30 3236 H 315.91 0.595334 -6.76485 0
M  V30 3237 H 313.856 2.69752 -5.97972 0
M  V30 3238 H 313.773 1.6703 -7.37317 0
M  V30 3239 H 315.041 2.85348 -7.25394 0
M  V30 3240 N 319.27 1.56325 -0.20005 0
M  V30 3241 C 320.495 2.02548 0.44597 0
M  V30 3242 C 320.92 1.07922 1.5406 0
M  V30 3243 O 320.278 0.0635775 1.81188 0
M  V30 3244 C 320.326 3.47175 0.974761 0
M  V30 3245 O 319.43 3.55671 2.08739 0
M  V30 3246 H 318.771 0.655862 0.103638 0
M  V30 3247 H 321.301 2.02201 -0.312381 0
M  V30 3248 H 321.311 3.87067 1.2901 0
M  V30 3249 H 319.986 4.15538 0.17347 0
M  V30 3250 H 318.563 3.27657 1.78032 0
M  V30 3251 N 320.748 -0.0735177 1.57428 0
M  V30 3252 C 321.678 -1.0879 2.06608 0
M  V30 3253 C 322.659 -1.40473 0.959237 0
M  V30 3254 O 323.844 -1.5013 1.23185 0
M  V30 3255 C 320.974 -2.40183 2.50857 0
M  V30 3256 C 319.928 -2.22858 3.65402 0
M  V30 3257 C 319.254 -3.59619 3.957 0
M  V30 3258 C 320.554 -1.65123 4.95511 0
M  V30 3259 H 322.248 -0.678673 2.91607 0
M  V30 3260 H 319.794 -0.325013 1.40284 0
M  V30 3261 H 321.747 -3.11437 2.83874 0
M  V30 3262 H 320.471 -2.83083 1.62885 0
M  V30 3263 H 319.13 -1.54045 3.32664 0
M  V30 3264 H 318.778 -4.00086 3.04861 0
M  V30 3265 H 318.478 -3.48866 4.72828 0
M  V30 3266 H 320.002 -4.32306 4.31212 0
M  V30 3267 H 321.416 -2.26241 5.26771 0
M  V30 3268 H 319.813 -1.65071 5.7695 0
M  V30 3269 H 320.883 -0.612559 4.81015 0
M  V30 3270 N 322.226 -1.5378 -0.344866 0
M  V30 3271 C 323.474 -1.70625 -1.08311 0
M  V30 3272 C 323.795 -0.471447 -1.89215 0
M  V30 3273 O 323.065 0.514616 -1.8902 0
M  V30 3274 H 321.645 -0.629058 -0.402859 0
M  V30 3275 H 324.307 -1.9103 -0.386459 0
M  V30 3276 H 323.403 -2.57656 -1.76124 0
M  V30 3277 N 323.704 0.605807 -1.45491 0
M  V30 3278 C 324.953 1.36086 -1.48874 0
M  V30 3279 C 325.266 1.95131 -0.135333 0
M  V30 3280 O 326.472 2.7146 -0.0468144 0
M  V30 3281 C 324.928 2.46518 -2.62215 0
M  V30 3282 C 324.536 1.93877 -4.03876 0
M  V30 3283 C 326.28 3.23512 -2.74846 0
M  V30 3284 C 324.187 3.01801 -5.08596 0
M  V30 3285 H 323.117 0.511497 -0.553974 0
M  V30 3286 H 325.768 0.649089 -1.71636 0
M  V30 3287 H 324.15 3.20388 -2.32739 0
M  V30 3288 H 325.324 1.26704 -4.43038 0
M  V30 3289 H 323.639 1.29622 -3.95711 0
M  V30 3290 H 326.236 4.04013 -3.50253 0
M  V30 3291 H 326.579 3.74631 -1.81542 0
M  V30 3292 H 327.112 2.56742 -3.03856 0
M  V30 3293 H 323.851 2.55597 -6.03614 0
M  V30 3294 H 323.371 3.67535 -4.74002 0
M  V30 3295 H 325.05 3.66152 -5.33424 0
M  V30 3296 N 325.182 1.32811 0.848464 0
M  V30 3297 C 326.092 1.24278 1.98978 0
M  V30 3298 C 327.108 0.155176 1.73307 0
M  V30 3299 O 328.284 0.376999 1.9784 0
M  V30 3300 C 325.349 0.972444 3.32783 0
M  V30 3301 C 324.41 2.14911 3.71634 0
M  V30 3302 C 323.643 1.89157 4.99054 0
M  V30 3303 O 323.866 0.837165 5.64223 0
M  V30 3304 O 322.8 2.75433 5.35183 0
M  V30 3305 H 326.626 2.20238 2.09115 0
M  V30 3306 H 324.211 1.12762 0.980052 0
M  V30 3307 H 326.093 0.838432 4.12975 0
M  V30 3308 H 324.768 0.043051 3.23671 0
M  V30 3309 H 323.675 2.33862 2.91992 0
M  V30 3310 H 325.008 3.06151 3.85399 0
M  V30 3311 N 326.66 -1.06551 1.16123 0
M  V30 3312 C 327.608 -2.16063 0.861371 0
M  V30 3313 C 328.602 -1.6856 -0.168517 0
M  V30 3314 O 329.808 -1.79986 -0.0227579 0
M  V30 3315 H 326.183 -0.705278 0.260934 0
M  V30 3316 H 328.154 -2.38567 1.79244 0
M  V30 3317 C 326.903 -3.45661 0.376018 0
M  V30 3318 H 326.226 -3.82604 1.15992 0
M  V30 3319 H 327.666 -4.23504 0.204951 0
M  V30 3320 C 326.125 -3.24546 -0.903954 0
M  V30 3321 O 326.655 -3.49865 -1.97377 0
M  V30 3322 N 324.861 -2.77992 -0.846679 0
M  V30 3323 H 324.408 -2.57589 0.0241017 0
M  V30 3324 H 324.366 -2.64244 -1.70359 0
M  V30 3325 N 328.138 -0.959301 -1.25041 0
M  V30 3326 C 329.549 -0.65667 -1.74771 0
M  V30 3327 C 329.9 0.827852 -1.77879 0
M  V30 3328 O 329.025 1.64783 -1.40269 0
M  V30 3329 C 329.62 -1.1853 -3.1739 0
M  V30 3330 C 328.179 -0.932734 -3.6466 0
M  V30 3331 C 327.326 -1.32558 -2.43564 0
M  V30 3332 H 330.277 -1.13558 -1.10862 0
M  V30 3333 H 330.298 -0.547582 -3.76539 0
M  V30 3334 H 329.81 -2.26576 -3.15095 0
M  V30 3335 H 327.911 0.13257 -3.72364 0
M  V30 3336 H 328.024 -1.57248 -4.52559 0
M  V30 3337 H 326.388 -0.743956 -2.43593 0
M  V30 3338 H 327.171 -2.41537 -2.43957 0
M  V30 3339 N 329.616 1.39756 -0.72842 0
M  V30 3340 C 330.862 2.00942 -0.273892 0
M  V30 3341 C 331.195 1.57656 1.13394 0
M  V30 3342 O 330.47 0.802434 1.77176 0
M  V30 3343 C 330.753 3.58211 -0.368346 0
M  V30 3344 C 330.606 4.11534 -1.81548 0
M  V30 3345 C 331.925 4.39372 0.253054 0
M  V30 3346 H 329.044 0.730047 -0.100996 0
M  V30 3347 H 331.686 1.66056 -0.923337 0
M  V30 3348 H 329.836 3.88061 0.184588 0
M  V30 3349 H 331.508 3.92431 -2.42478 0
M  V30 3350 H 329.751 3.65341 -2.33898 0
M  V30 3351 H 330.422 5.20682 -1.83288 0
M  V30 3352 H 332.898 4.15527 -0.218224 0
M  V30 3353 H 331.774 5.48677 0.156585 0
M  V30 3354 H 332.035 4.21358 1.33826 0
M  V30 3355 N 331.094 0.475555 1.50254 0
M  V30 3356 C 332.334 -0.0765802 2.04256 0
M  V30 3357 C 332.698 -1.36587 1.34937 0
M  V30 3358 O 333.899 -2.00066 1.79519 0
M  V30 3359 C 332.17 -0.251668 3.56513 0
M  V30 3360 S 333.729 -0.761716 4.32138 0
M  V30 3361 H 330.547 -0.0138456 0.710865 0
M  V30 3362 H 333.149 0.643714 1.84598 0
M  V30 3363 H 331.853 0.692404 4.04517 0
M  V30 3364 H 331.384 -0.997946 3.80532 0
M  V30 3365 H 333.399 -2.03451 4.52573 0
M  V30 3366 N 332.573 -1.56217 0.208337 0
M  V30 3367 C 333.483 -2.23316 -0.718836 0
M  V30 3368 C 334.499 -1.23648 -1.22422 0
M  V30 3369 O 335.675 -1.56423 -1.26861 0
M  V30 3370 C 332.74 -2.88968 -1.91568 0
M  V30 3371 C 331.801 -4.03943 -1.45357 0
M  V30 3372 C 331.034 -4.66455 -2.59337 0
M  V30 3373 O 331.257 -4.27919 -3.77149 0
M  V30 3374 O 330.191 -5.55686 -2.31293 0
M  V30 3375 H 334.017 -3.03182 -0.177315 0
M  V30 3376 H 331.602 -1.49384 -0.0215402 0
M  V30 3377 H 333.484 -3.30455 -2.61491 0
M  V30 3378 H 332.159 -2.12071 -2.44556 0
M  V30 3379 H 331.066 -3.67052 -0.722746 0
M  V30 3380 H 332.399 -4.82543 -0.970219 0
M  V30 3381 N 334.051 0.0651679 -1.57465 0
M  V30 3382 C 335.297 0.764193 -1.87851 0
M  V30 3383 C 335.63 1.76889 -0.801495 0
M  V30 3384 O 334.905 1.93594 0.187528 0
M  V30 3385 C 335.188 1.46625 -3.28897 0
M  V30 3386 C 335.041 0.477515 -4.47258 0
M  V30 3387 C 336.36 2.4095 -3.68281 0
M  V30 3388 H 333.479 0.276351 -0.683227 0
M  V30 3389 H 336.121 0.0272868 -1.8998 0
M  V30 3390 H 334.271 2.09438 -3.27212 0
M  V30 3391 H 335.943 -0.145922 -4.61069 0
M  V30 3392 H 334.186 -0.206576 -4.33308 0
M  V30 3393 H 334.857 1.0065 -5.42746 0
M  V30 3394 H 337.333 1.88209 -3.71102 0
M  V30 3395 H 336.209 2.87072 -4.67847 0
M  V30 3396 H 336.47 3.26049 -2.98571 0
M  V30 3397 N 335.529 1.53961 0.336706 0
M  V30 3398 C 336.754 1.75797 1.10046 0
M  V30 3399 C 337.179 0.498985 1.81361 0
M  V30 3400 O 336.537 -0.548769 1.72795 0
M  V30 3401 C 336.585 2.94257 2.08436 0
M  V30 3402 O 335.689 2.64883 3.16087 0
M  V30 3403 H 335.03 0.582936 0.317934 0
M  V30 3404 H 337.56 2.00945 0.38501 0
M  V30 3405 H 337.57 3.21237 2.51537 0
M  V30 3406 H 336.245 3.85564 1.55927 0
M  V30 3407 H 334.822 2.48812 2.77753 0
M  V30 3408 N 337.007 -0.598083 1.45811 0
M  V30 3409 C 337.955 -1.72932 1.55555 0
M  V30 3410 C 338.949 -1.63984 0.424921 0
M  V30 3411 O 340.155 -1.69663 0.601205 0
M  V30 3412 H 336.53 -0.571489 0.488779 0
M  V30 3413 H 338.501 -1.61842 2.50699 0
M  V30 3414 C 337.25 -3.11318 1.54843 0
M  V30 3415 H 336.573 -3.18867 2.41172 0
M  V30 3416 H 338.013 -3.90274 1.65717 0
M  V30 3417 C 336.472 -3.3578 0.274427 0
M  V30 3418 O 337.002 -3.9654 -0.641778 0
M  V30 3419 N 335.208 -2.90119 0.167139 0
M  V30 3420 H 334.755 -2.40855 0.913596 0
M  V30 3421 H 334.713 -3.0686 -0.684435 0
M  V30 3422 N 338.485 -1.33259 -0.841409 0
M  V30 3423 C 339.715 -1.2742 -1.62628 0
M  V30 3424 C 340.123 0.157604 -1.88542 0
M  V30 3425 O 339.466 1.10938 -1.46419 0
M  V30 3426 C 339.528 -1.97797 -3.00194 0
M  V30 3427 C 339.192 -3.47109 -2.97261 0
M  V30 3428 C 340.189 -4.42358 -2.73159 0
M  V30 3429 C 337.874 -3.89247 -3.17478 0
M  V30 3430 C 339.868 -5.77718 -2.69296 0
M  V30 3431 C 337.555 -5.24713 -3.13241 0
M  V30 3432 C 338.553 -6.1876 -2.89181 0
M  V30 3433 O 338.241 -7.51745 -2.84843 0
M  V30 3434 H 337.973 -0.440436 -0.512827 0
M  V30 3435 H 340.527 -1.76153 -1.05638 0
M  V30 3436 H 338.757 -1.43652 -3.59028 0
M  V30 3437 H 340.446 -1.8549 -3.61038 0
M  V30 3438 H 341.212 -4.11127 -2.57294 0
M  V30 3439 H 337.091 -3.16456 -3.35226 0
M  V30 3440 H 340.635 -6.51097 -2.50436 0
M  V30 3441 H 336.532 -5.55569 -3.28654 0
M  V30 3442 H 337.3 -7.61262 -3.00702 0
M  V30 3443 N 339.963 1.05934 -1.16686 0
M  V30 3444 C 340.893 2.1546 -0.899949 0
M  V30 3445 C 341.874 1.69391 0.155154 0
M  V30 3446 O 343.059 1.94199 0.00648693 0
M  V30 3447 C 340.189 3.44939 -0.404241 0
M  V30 3448 C 339.143 4.04536 -1.39767 0
M  V30 3449 C 338.469 5.29268 -0.760216 0
M  V30 3450 C 339.769 4.42893 -2.76845 0
M  V30 3451 H 341.463 2.38046 -1.81588 0
M  V30 3452 H 339.009 1.14404 -0.874514 0
M  V30 3453 H 340.962 4.20901 -0.204971 0
M  V30 3454 H 339.686 3.21983 0.547206 0
M  V30 3455 H 338.345 3.30635 -1.58355 0
M  V30 3456 H 337.993 5.02611 0.197831 0
M  V30 3457 H 337.693 5.70101 -1.42332 0
M  V30 3458 H 339.217 6.07924 -0.57105 0
M  V30 3459 H 340.631 5.09921 -2.62019 0
M  V30 3460 H 339.028 4.94721 -3.39663 0
M  V30 3461 H 340.098 3.53584 -3.31823 0
M  V30 3462 N 341.441 0.965919 1.2453 0
M  V30 3463 C 342.688 0.626831 1.92554 0
M  V30 3464 C 343.016 -0.837739 1.75534 0
M  V30 3465 O 342.271 -1.61793 1.10098 0
M  V30 3466 C 342.57 0.945428 3.44669 0
M  V30 3467 C 342.236 2.39785 3.81856 0
M  V30 3468 C 340.898 2.79483 3.91718 0
M  V30 3469 C 343.25 3.34055 4.00071 0
M  V30 3470 C 340.578 4.12496 4.1721 0
M  V30 3471 C 342.93 4.66694 4.27059 0
M  V30 3472 C 341.594 5.06172 4.3514 0
M  V30 3473 H 340.864 0.229374 0.704605 0
M  V30 3474 H 343.511 1.21707 1.4785 0
M  V30 3475 H 341.816 0.272926 3.90848 0
M  V30 3476 H 343.513 0.661484 3.95507 0
M  V30 3477 H 340.103 2.08003 3.74743 0
M  V30 3478 H 344.287 3.04571 3.91855 0
M  V30 3479 H 339.543 4.42709 4.21685 0
M  V30 3480 H 343.717 5.3971 4.40097 0
M  V30 3481 H 341.344 6.09262 4.54646 0
M  V30 3482 N 342.919 -1.39368 0.735821 0
M  V30 3483 C 344.33 -1.83313 0.354015 0
M  V30 3484 C 344.681 -1.61461 -1.11466 0
M  V30 3485 O 343.806 -1.10621 -1.85989 0
M  V30 3486 C 344.401 -3.32781 0.635769 0
M  V30 3487 C 342.96 -3.75142 0.307448 0
M  V30 3488 C 342.107 -2.62358 0.897974 0
M  V30 3489 H 345.058 -1.28349 0.933398 0
M  V30 3490 H 345.079 -3.80388 -0.0921773 0
M  V30 3491 H 344.591 -3.48654 1.70476 0
M  V30 3492 H 342.692 -3.64857 -0.755674 0
M  V30 3493 H 342.805 -4.72532 0.790583 0
M  V30 3494 H 341.169 -2.52624 0.324551 0
M  V30 3495 H 341.952 -2.81036 1.97164 0
M  V30 3496 N 344.397 -0.483516 -1.5 0
M  V30 3497 C 345.674 0.129337 -1.95172 0
M  V30 3498 C 346.054 1.55802 -1.4244 0
M  V30 3499 O 345.402 2.19625 -0.630649 0
M  V30 3500 C 345.612 0.0599251 -3.48949 0
M  V30 3501 C 346.96 0.242617 -4.23906 0
M  V30 3502 O 347.984 0.135933 -3.55941 0
M  V30 3503 O 346.843 0.459454 -5.44565 0
M  V30 3504 H 343.937 0.104887 -0.820322 0
M  V30 3505 H 346.483 -0.544807 -1.60717 0
M  V30 3506 H 345.255 -0.937079 -3.79914 0
M  V30 3507 H 344.878 0.774984 -3.89974 0
M  V30 3508 N 345.875 1.56104 -0.216619 0
M  V30 3509 C 347.115 2.00074 0.418322 0
M  V30 3510 C 347.479 1.10098 1.57297 0
M  V30 3511 O 348.68 1.43393 2.27359 0
M  V30 3512 C 346.951 3.47231 0.846477 0
M  V30 3513 S 348.51 4.13223 1.47622 0
M  V30 3514 H 345.328 0.698457 0.132962 0
M  V30 3515 H 347.93 1.92784 -0.324748 0
M  V30 3516 H 346.634 4.104 -0.0036319 0
M  V30 3517 H 346.165 3.58384 1.62248 0
M  V30 3518 H 348.18 4.12005 2.76526 0
M  V30 3519 N 347.353 -0.0568162 1.57498 0
M  V30 3520 C 348.769 -0.411933 1.54192 0
M  V30 3521 C 348.969 -1.78287 0.938942 0
M  V30 3522 O 348.025 -2.46483 0.547919 0
M  V30 3523 C 349.338 -0.339244 2.9878 0
M  V30 3524 C 350.886 -0.418348 3.10192 0
M  V30 3525 C 351.361 -0.375407 4.56459 0
M  V30 3526 N 352.852 -0.435038 4.61153 0
M  V30 3527 C 353.587 -0.424265 5.71828 0
M  V30 3528 N 353.083 -0.367418 6.91825 0
M  V30 3529 N 354.876 -0.471938 5.60115 0
M  V30 3530 H 347.027 0.840684 1.95055 0
M  V30 3531 H 349.29 0.316987 0.893433 0
M  V30 3532 H 348.996 0.601742 3.46514 0
M  V30 3533 H 348.87 -1.14371 3.59443 0
M  V30 3534 H 351.257 -1.34976 2.62422 0
M  V30 3535 H 351.338 0.414962 2.52412 0
M  V30 3536 H 350.982 0.552219 5.04889 0
M  V30 3537 H 350.912 -1.22645 5.12119 0
M  V30 3538 H 353.403 -0.482612 3.74806 0
M  V30 3539 H 353.716 -0.363535 7.71944 0
M  V30 3540 H 352.061 -0.333879 6.94198 0
M  V30 3541 H 355.252 -0.514145 4.65268 0
M  V30 3542 H 355.425 -0.460073 6.46365 0
M  V30 3543 N 348.832 -1.54138 -0.328536 0
M  V30 3544 C 350.078 -1.7236 -1.06865 0
M  V30 3545 C 350.411 -0.493231 -1.87832 0
M  V30 3546 O 349.686 0.5098 -1.877 0
M  V30 3547 C 349.969 -2.99621 -1.99747 0
M  V30 3548 C 349.822 -4.32899 -1.22143 0
M  V30 3549 C 351.141 -3.22615 -2.99345 0
M  V30 3550 H 348.26 -0.627151 -0.387105 0
M  V30 3551 H 350.902 -1.86827 -0.345767 0
M  V30 3552 H 349.052 -2.87418 -2.61387 0
M  V30 3553 H 350.724 -4.56978 -0.630017 0
M  V30 3554 H 348.967 -4.30628 -0.523628 0
M  V30 3555 H 349.638 -5.18154 -1.90318 0
M  V30 3556 H 352.114 -3.34248 -2.47826 0
M  V30 3557 H 350.99 -4.13027 -3.61524 0
M  V30 3558 H 351.251 -2.3961 -3.71536 0
M  V30 3559 N 350.31 0.590341 -1.46126 0
M  V30 3560 C 351.559 1.34499 -1.50309 0
M  V30 3561 C 351.872 1.94977 -0.156021 0
M  V30 3562 O 353.078 2.71395 -0.0756037 0
M  V30 3563 C 351.534 2.43723 -2.64815 0
M  V30 3564 C 351.142 1.89582 -4.0591 0
M  V30 3565 C 352.886 3.20579 -2.78262 0
M  V30 3566 C 350.793 2.9639 -5.11769 0
M  V30 3567 H 349.723 0.505593 -0.559368 0
M  V30 3568 H 352.374 0.630848 -1.72315 0
M  V30 3569 H 350.756 3.17902 -2.36124 0
M  V30 3570 H 351.93 1.21997 -4.44357 0
M  V30 3571 H 350.245 1.25418 -3.97063 0
M  V30 3572 H 352.842 4.00276 -3.54519 0
M  V30 3573 H 353.185 3.72684 -1.85505 0
M  V30 3574 H 353.718 2.53505 -3.06562 0
M  V30 3575 H 350.457 2.49181 -6.06291 0
M  V30 3576 H 349.977 3.62487 -4.77873 0
M  V30 3577 H 351.656 3.60474 -5.37278 0
M  V30 3578 N 351.788 1.33704 0.83433 0
M  V30 3579 C 353.013 1.28615 1.62705 0
M  V30 3580 C 353.438 -0.139242 1.87584 0
M  V30 3581 O 352.796 -1.09734 1.4432 0
M  V30 3582 C 352.844 2.07139 2.95171 0
M  V30 3583 O 351.948 1.4331 3.86699 0
M  V30 3584 H 351.289 0.44226 0.49528 0
M  V30 3585 H 353.819 1.76335 1.03766 0
M  V30 3586 H 353.829 2.18073 3.44831 0
M  V30 3587 H 352.504 3.10779 2.76386 0
M  V30 3588 H 351.081 1.4105 3.45195 0
M  V30 3589 N 353.266 -1.05314 1.17247 0
M  V30 3590 C 354.514 -1.77941 0.958194 0
M  V30 3591 C 354.835 -1.88089 -0.514556 0
M  V30 3592 O 354.105 -1.39676 -1.37359 0
M  V30 3593 H 352.685 -0.659116 0.351533 0
M  V30 3594 H 355.347 -1.27166 1.47699 0
M  V30 3595 H 354.443 -2.79663 1.38546 0
M  V30 3596 N 354.744 -0.972509 -1.24016 0
M  V30 3597 C 355.694 -0.477561 -2.22942 0
M  V30 3598 C 356.678 0.44308 -1.54679 0
M  V30 3599 O 357.87 0.273219 -1.74879 0
M  V30 3600 C 354.999 0.226348 -3.42553 0
M  V30 3601 C 354.085 -0.713403 -4.18057 0
M  V30 3602 N 354.476 -1.8527 -4.70647 0
M  V30 3603 C 352.774 -0.525145 -4.42898 0
M  V30 3604 C 353.475 -2.44089 -5.28011 0
M  V30 3605 N 352.451 -1.72556 -5.15486 0
M  V30 3606 H 356.253 -1.34678 -2.61226 0
M  V30 3607 H 353.767 -0.832196 -1.39457 0
M  V30 3608 H 355.764 0.598184 -4.12586 0
M  V30 3609 H 354.424 1.09195 -3.05788 0
M  V30 3610 H 355.435 -2.2341 -4.67235 0
M  V30 3611 H 352.112 0.296096 -4.16449 0
M  V30 3612 H 353.502 -3.40259 -5.79374 0
M  V30 3613 N 356.222 1.38976 -0.743202 0
M  V30 3614 C 357.154 2.29096 -0.0689228 0
M  V30 3615 C 358.167 1.47229 0.694791 0
M  V30 3616 O 359.356 1.70212 0.537597 0
M  V30 3617 C 356.456 3.25988 0.926548 0
M  V30 3618 C 355.629 4.36833 0.222647 0
M  V30 3619 C 354.688 5.13981 1.12739 0
M  V30 3620 O 353.714 5.6601 0.601795 0
M  V30 3621 N 354.916 5.25966 2.45641 0
M  V30 3622 H 357.681 2.87604 -0.842846 0
M  V30 3623 H 355.242 1.50645 -0.593109 0
M  V30 3624 H 357.234 3.74476 1.5346 0
M  V30 3625 H 355.804 2.68453 1.60162 0
M  V30 3626 H 355.024 3.90116 -0.565983 0
M  V30 3627 H 356.312 5.0811 -0.264841 0
M  V30 3628 H 355.71 4.85228 2.9081 0
M  V30 3629 H 354.267 5.77865 3.01522 0
M  V30 3630 N 357.7 0.491464 1.49741 0
M  V30 3631 C 358.61 -0.296835 2.32715 0
M  V30 3632 C 359.626 -0.976536 1.44013 0
M  V30 3633 O 360.802 -0.960023 1.77047 0
M  V30 3634 C 357.867 -1.35288 3.19215 0
M  V30 3635 C 356.928 -0.687632 4.23757 0
M  V30 3636 C 356.161 -1.69336 5.06123 0
M  V30 3637 O 356.384 -2.92219 4.89861 0
M  V30 3638 O 355.318 -1.25394 5.88693 0
M  V30 3639 H 359.144 0.382048 3.01287 0
M  V30 3640 H 356.729 0.252953 1.47243 0
M  V30 3641 H 358.611 -1.96411 3.72828 0
M  V30 3642 H 357.286 -2.01487 2.53347 0
M  V30 3643 H 356.193 -0.0369159 3.74082 0
M  V30 3644 H 357.526 -0.0682566 4.92153 0
M  V30 3645 N 359.178 -1.55987 0.224894 0
M  V30 3646 C 360.141 -2.19178 -0.670348 0
M  V30 3647 C 361.141 -1.15461 -1.11917 0
M  V30 3648 O 362.331 -1.40675 -1.02743 0
M  V30 3649 C 359.463 -2.81777 -1.9187 0
M  V30 3650 H 360.656 -2.99662 -0.119364 0
M  V30 3651 H 358.209 -1.5628 -0.0247128 0
M  V30 3652 H 358.944 -2.05172 -2.51147 0
M  V30 3653 H 358.729 -3.57732 -1.60531 0
M  V30 3654 H 360.219 -3.30205 -2.55645 0
M  V30 3655 N 360.656 0.0484629 -1.57525 0
M  V30 3656 C 361.586 1.0549 -2.08313 0
M  V30 3657 C 362.567 1.38929 -0.981463 0
M  V30 3658 O 363.752 1.48151 -1.25558 0
M  V30 3659 C 360.882 2.36162 -2.54646 0
M  V30 3660 C 359.836 2.17016 -3.68901 0
M  V30 3661 C 359.162 3.53278 -4.01371 0
M  V30 3662 C 360.462 1.57219 -4.98076 0
M  V30 3663 H 362.156 0.632195 -2.92649 0
M  V30 3664 H 359.702 0.302654 -1.40784 0
M  V30 3665 H 361.655 3.06882 -2.88793 0
M  V30 3666 H 360.379 2.80456 -1.67368 0
M  V30 3667 H 359.038 1.48733 -3.35073 0
M  V30 3668 H 358.686 3.95185 -3.11188 0
M  V30 3669 H 358.386 3.41299 -4.78318 0
M  V30 3670 H 359.91 4.25391 -4.38035 0
M  V30 3671 H 361.324 2.17832 -5.30304 0
M  V30 3672 H 359.721 1.55871 -5.79503 0
M  V30 3673 H 360.791 0.535956 -4.81929 0
M  V30 3674 N 362.134 1.5431 0.320358 0
M  V30 3675 C 363.55 1.45091 0.664889 0
M  V30 3676 C 363.75 0.626382 1.91517 0
M  V30 3677 O 362.806 0.126443 2.52183 0
M  V30 3678 C 364.119 2.88848 0.83591 0
M  V30 3679 C 365.667 2.9877 0.933046 0
M  V30 3680 C 366.142 4.43683 1.13621 0
M  V30 3681 N 367.633 4.47309 1.20287 0
M  V30 3682 C 368.368 5.56595 1.37801 0
M  V30 3683 N 367.864 6.75844 1.52338 0
M  V30 3684 N 369.657 5.44248 1.40535 0
M  V30 3685 H 361.808 2.06398 -0.501374 0
M  V30 3686 H 364.071 0.933963 -0.162534 0
M  V30 3687 H 363.777 3.51698 -0.0116092 0
M  V30 3688 H 363.651 3.35148 1.73078 0
M  V30 3689 H 366.038 2.36045 1.77107 0
M  V30 3690 H 366.119 2.55796 0.0145782 0
M  V30 3691 H 365.763 5.06995 0.303032 0
M  V30 3692 H 365.693 4.84269 2.0686 0
M  V30 3693 H 368.184 3.61388 1.10485 0
M  V30 3694 H 368.497 7.54892 1.65403 0
M  V30 3695 H 366.842 6.78746 1.4943 0
M  V30 3696 H 370.033 4.50038 1.28777 0
M  V30 3697 H 370.206 6.29473 1.53842 0
M  V30 3698 N 363.613 -0.582584 1.46437 0
M  V30 3699 C 364.86 -1.34079 1.51753 0
M  V30 3700 C 365.188 -1.93762 0.169299 0
M  V30 3701 O 364.443 -1.76989 -0.835062 0
M  V30 3702 C 364.742 -2.48964 2.56421 0
M  V30 3703 C 364.408 -2.07273 4.00436 0
M  V30 3704 C 363.07 -1.95618 4.39644 0
M  V30 3705 C 365.422 -1.75111 4.90903 0
M  V30 3706 C 362.75 -1.5006 5.67185 0
M  V30 3707 C 365.102 -1.31032 6.18881 0
M  V30 3708 C 363.766 -1.17954 6.56996 0
M  V30 3709 H 363.036 -0.49063 0.555304 0
M  V30 3710 H 365.683 -0.656007 1.79913 0
M  V30 3711 H 363.988 -3.22889 2.21923 0
M  V30 3712 H 365.685 -3.07178 2.57765 0
M  V30 3713 H 362.275 -2.17279 3.69443 0
M  V30 3714 H 366.459 -1.83001 4.61329 0
M  V30 3715 H 361.715 -1.38577 5.95488 0
M  V30 3716 H 365.889 -1.052 6.88408 0
M  V30 3717 H 363.516 -0.824279 7.55718 0
M  V30 3718 N 365.091 -1.34144 -0.827227 0
M  V30 3719 C 366.021 -1.28005 -1.95287 0
M  V30 3720 C 367.002 -0.158321 -1.69362 0
M  V30 3721 O 368.187 -0.349987 -1.9102 0
M  V30 3722 C 365.317 -1.03036 -3.31664 0
M  V30 3723 C 364.271 -2.11628 -3.72019 0
M  V30 3724 C 363.597 -1.71854 -5.0633 0
M  V30 3725 C 364.897 -3.53417 -3.8457 0
M  V30 3726 H 366.591 -2.22187 -2.00682 0
M  V30 3727 H 364.137 -1.0696 -0.964135 0
M  V30 3728 H 366.09 -0.973863 -4.09993 0
M  V30 3729 H 364.814 -0.0529391 -3.26557 0
M  V30 3730 H 363.473 -2.16339 -2.95961 0
M  V30 3731 H 363.121 -0.727841 -4.97706 0
M  V30 3732 H 362.821 -2.44531 -5.34302 0
M  V30 3733 H 364.345 -1.67692 -5.87122 0
M  V30 3734 H 365.759 -3.51142 -4.5318 0
M  V30 3735 H 364.156 -4.24679 -4.2399 0
M  V30 3736 H 365.226 -3.91072 -2.86689 0
M  V30 3737 N 366.569 1.04691 -1.17803 0
M  V30 3738 C 367.501 2.12571 -0.857097 0
M  V30 3739 C 368.514 1.62174 0.142647 0
M  V30 3740 O 369.703 1.78301 -0.0843387 0
M  V30 3741 C 366.803 3.37915 -0.258216 0
M  V30 3742 C 365.976 4.1757 -1.30207 0
M  V30 3743 C 365.035 5.2125 -0.720029 0
M  V30 3744 O 364.061 5.51888 -1.39314 0
M  V30 3745 N 365.263 5.78466 0.485507 0
M  V30 3746 H 368.028 2.40698 -1.78562 0
M  V30 3747 H 365.589 1.20831 -1.07757 0
M  V30 3748 H 367.581 4.04442 0.144584 0
M  V30 3749 H 366.151 3.07281 0.574199 0
M  V30 3750 H 365.371 3.46458 -1.88043 0
M  V30 3751 H 366.659 4.67586 -2.00601 0
M  V30 3752 H 366.057 5.55866 1.05022 0
M  V30 3753 H 364.614 6.4649 0.830307 0
M  V30 3754 N 368.047 0.979072 1.23499 0
M  V30 3755 C 368.994 0.517904 2.24914 0
M  V30 3756 C 369.964 -0.442525 1.60097 0
M  V30 3757 O 371.149 -0.350365 1.87556 0
M  V30 3758 C 368.289 -0.174813 3.44657 0
M  V30 3759 C 367.402 0.825721 4.24035 0
M  V30 3760 C 366.537 0.107946 5.3109 0
M  V30 3761 C 365.576 1.09778 6.02175 0
M  V30 3762 N 364.713 0.40925 7.00906 0
M  V30 3763 H 369.553 1.38751 2.63727 0
M  V30 3764 H 367.09 0.695303 1.2963 0
M  V30 3765 H 369.048 -0.593233 4.12961 0
M  V30 3766 H 367.678 -1.0083 3.06648 0
M  V30 3767 H 366.73 1.36253 3.55161 0
M  V30 3768 H 368.042 1.58005 4.73113 0
M  V30 3769 H 367.196 -0.367904 6.05583 0
M  V30 3770 H 365.935 -0.678994 4.8295 0
M  V30 3771 H 364.94 1.5844 5.26476 0
M  V30 3772 H 366.165 1.88536 6.52404 0
M  V30 3773 H 364.111 -0.358506 6.5502 0
M  V30 3774 H 364.028 1.10226 7.47921 0
M  V30 3775 H 365.296 -0.0442557 7.79487 0
M  V30 3776 N 369.525 -1.3858 0.750561 0
M  V30 3777 C 370.473 -2.32339 0.110162 0
M  V30 3778 C 371.467 -1.53864 -0.708674 0
M  V30 3779 O 372.673 -1.69417 -0.608112 0
M  V30 3780 H 369.048 -0.751812 0.0168275 0
M  V30 3781 H 371.019 -2.83959 0.917053 0
M  V30 3782 C 369.768 -3.39043 -0.771067 0
M  V30 3783 H 369.091 -3.99517 -0.150374 0
M  V30 3784 H 370.531 -4.07061 -1.1865 0
M  V30 3785 C 368.99 -2.77365 -1.91234 0
M  V30 3786 O 369.52 -2.66434 -3.00626 0
M  V30 3787 N 367.726 -2.35219 -1.70646 0
M  V30 3788 H 367.273 -2.4431 -0.81673 0
M  V30 3789 H 367.231 -1.94294 -2.47178 0
M  V30 3790 N 371.003 -0.499398 -1.49478 0
M  V30 3791 C 372.228 0.044722 -2.07352 0
M  V30 3792 C 372.653 1.30207 -1.35749 0
M  V30 3793 O 372.011 1.76516 -0.413732 0
M  V30 3794 C 372.059 0.283013 -3.59488 0
M  V30 3795 O 371.163 1.35804 -3.89398 0
M  V30 3796 H 370.504 -0.0255147 -0.66351 0
M  V30 3797 H 373.034 -0.698561 -1.92305 0
M  V30 3798 H 373.044 0.515007 -4.04737 0
M  V30 3799 H 371.719 -0.635636 -4.11014 0
M  V30 3800 H 370.296 1.11113 -3.55961 0
M  V30 3801 N 372.481 1.55866 -0.233164 0
M  V30 3802 C 373.706 2.03449 0.402906 0
M  V30 3803 C 374.131 1.11166 1.51736 0
M  V30 3804 O 373.489 0.101996 1.81013 0
M  V30 3805 C 373.537 3.49165 0.9009 0
M  V30 3806 O 372.641 3.60019 2.01147 0
M  V30 3807 H 371.982 0.657913 0.0897025 0
M  V30 3808 H 374.512 2.01493 -0.355201 0
M  V30 3809 H 374.522 3.89716 1.2077 0
M  V30 3810 H 373.197 4.15813 0.0852889 0
M  V30 3811 H 371.774 3.3136 1.71042 0
M  V30 3812 N 373.959 -0.0401083 1.57549 0
M  V30 3813 C 374.906 -1.04413 2.05831 0
M  V30 3814 C 375.876 -1.36585 0.945184 0
M  V30 3815 O 377.061 -1.47112 1.21502 0
M  V30 3816 C 374.201 -2.34336 2.53339 0
M  V30 3817 C 373.314 -2.08419 3.78398 0
M  V30 3818 C 372.449 -3.32133 4.14561 0
M  V30 3819 C 371.488 -3.01721 5.3257 0
M  V30 3820 N 370.625 -4.17855 5.64218 0
M  V30 3821 H 375.465 -0.625442 2.91363 0
M  V30 3822 H 373.002 -0.297218 1.44066 0
M  V30 3823 H 374.96 -3.10234 2.78946 0
M  V30 3824 H 373.59 -2.73948 1.7074 0
M  V30 3825 H 372.642 -1.23069 3.59942 0
M  V30 3826 H 373.954 -1.81978 4.64419 0
M  V30 3827 H 373.108 -4.16406 4.41238 0
M  V30 3828 H 371.847 -3.61678 3.2717 0
M  V30 3829 H 370.852 -2.15849 5.05657 0
M  V30 3830 H 372.077 -2.73466 6.21605 0
M  V30 3831 H 370.023 -4.47372 4.79786 0
M  V30 3832 H 369.94 -3.94798 6.44725 0
M  V30 3833 H 371.208 -5.03033 5.95465 0
M  V30 3834 N 375.437 -1.54477 -0.31217 0
M  V30 3835 C 376.684 -1.73227 -1.04875 0
M  V30 3836 C 377.012 -0.512042 -1.87639 0
M  V30 3837 O 376.267 0.506131 -1.89042 0
M  V30 3838 C 376.566 -2.967 -1.99258 0
M  V30 3839 C 376.232 -4.30974 -1.32559 0
M  V30 3840 C 374.894 -4.67477 -1.141 0
M  V30 3841 C 377.246 -5.14258 -0.847835 0
M  V30 3842 C 374.574 -5.84852 -0.465326 0
M  V30 3843 C 376.926 -6.32327 -0.185931 0
M  V30 3844 C 375.59 -6.67499 0.0107077 0
M  V30 3845 H 374.86 -0.633881 -0.383765 0
M  V30 3846 H 377.507 -1.88727 -0.324731 0
M  V30 3847 H 375.812 -2.75935 -2.7815 0
M  V30 3848 H 377.509 -3.08401 -2.563 0
M  V30 3849 H 374.099 -4.02262 -1.4793 0
M  V30 3850 H 378.283 -4.86565 -0.978192 0
M  V30 3851 H 373.539 -6.10654 -0.301883 0
M  V30 3852 H 377.713 -6.96135 0.192211 0
M  V30 3853 H 375.34 -7.58306 0.536287 0
M  V30 3854 N 376.915 0.57481 -1.46744 0
M  V30 3855 C 377.865 1.67838 -1.54319 0
M  V30 3856 C 378.849 1.55759 -0.40346 0
M  V30 3857 O 380.041 1.6454 -0.652347 0
M  V30 3858 C 377.17 3.06624 -1.5439 0
M  V30 3859 C 376.256 3.23971 -2.73685 0
M  V30 3860 N 376.647 3.11447 -3.9854 0
M  V30 3861 C 374.945 3.5493 -2.70075 0
M  V30 3862 C 375.646 3.31011 -4.78337 0
M  V30 3863 N 374.622 3.56533 -4.10348 0
M  V30 3864 H 378.424 1.56698 -2.48642 0
M  V30 3865 H 375.938 0.779071 -1.42493 0
M  V30 3866 H 377.935 3.85839 -1.57905 0
M  V30 3867 H 376.595 3.1889 -0.611493 0
M  V30 3868 H 377.606 2.89145 -4.29669 0
M  V30 3869 H 374.283 3.73832 -1.85893 0
M  V30 3870 H 375.673 3.26445 -5.87268 0
M  V30 3871 N 378.394 1.34581 0.820102 0
M  V30 3872 C 379.641 1.27096 1.57648 0
M  V30 3873 C 379.969 -0.158317 1.93855 0
M  V30 3874 O 379.224 -1.12028 1.60463 0
M  V30 3875 C 379.523 2.10997 2.8847 0
M  V30 3876 C 379.189 3.59966 2.71543 0
M  V30 3877 C 377.851 4.00575 2.66634 0
M  V30 3878 C 380.203 4.54548 2.55021 0
M  V30 3879 C 377.531 5.33953 2.43128 0
M  V30 3880 C 379.883 5.88109 2.33047 0
M  V30 3881 C 378.547 6.27878 2.26552 0
M  V30 3882 H 377.817 0.465078 0.576874 0
M  V30 3883 H 380.464 1.6635 0.948671 0
M  V30 3884 H 378.769 1.6458 3.55557 0
M  V30 3885 H 380.466 2.0255 3.46084 0
M  V30 3886 H 377.056 3.27733 2.76205 0
M  V30 3887 H 381.24 4.24069 2.57835 0
M  V30 3888 H 376.496 5.63781 2.3656 0
M  V30 3889 H 380.67 6.60985 2.19251 0
M  V30 3890 H 378.297 7.31162 2.081 0
M  V30 3891 N 379.872 -1.04064 1.18357 0
M  V30 3892 C 381.288 -1.2947 0.933258 0
M  V30 3893 C 381.488 -1.97466 -0.401169 0
M  V30 3894 O 380.544 -2.25528 -1.13549 0
M  V30 3895 C 381.857 -2.15337 2.09882 0
M  V30 3896 C 383.405 -2.28683 2.13712 0
M  V30 3897 C 383.88 -3.17917 3.29686 0
M  V30 3898 N 385.371 -3.25504 3.29547 0
M  V30 3899 C 386.106 -3.94706 4.15926 0
M  V30 3900 N 385.602 -4.66239 5.12439 0
M  V30 3901 N 387.395 -3.90986 4.0384 0
M  V30 3902 H 379.546 -0.583359 2.04232 0
M  V30 3903 H 381.809 -0.319921 0.892387 0
M  V30 3904 H 381.515 -1.72682 3.06389 0
M  V30 3905 H 381.389 -3.16015 2.05947 0
M  V30 3906 H 383.776 -2.70575 1.17784 0
M  V30 3907 H 383.857 -1.27596 2.21705 0
M  V30 3908 H 383.501 -2.76736 4.25887 0
M  V30 3909 H 383.431 -4.19036 3.1893 0
M  V30 3910 H 385.922 -2.74547 2.59677 0
M  V30 3911 H 386.235 -5.16638 5.74722 0
M  V30 3912 H 384.58 -4.65143 5.16398 0
M  V30 3913 H 387.771 -3.34234 3.27727 0
M  V30 3914 H 387.944 -4.44646 4.71375 0
M  V30 3915 N 381.35 -0.985608 -1.22978 0
M  V30 3916 C 382.766 -0.695104 -1.43668 0
M  V30 3917 C 382.966 0.736866 -1.87543 0
M  V30 3918 O 382.022 1.50868 -2.02473 0
M  V30 3919 C 383.335 -1.69447 -2.48412 0
M  V30 3920 C 384.883 -1.70909 -2.62219 0
M  V30 3921 C 385.358 -2.6969 -3.70178 0
M  V30 3922 N 386.849 -2.6824 -3.77626 0
M  V30 3923 C 387.584 -3.41339 -4.60733 0
M  V30 3924 N 387.08 -4.24015 -5.4789 0
M  V30 3925 N 388.873 -3.30079 -4.54977 0
M  V30 3926 H 381.024 -1.91054 -0.928016 0
M  V30 3927 H 383.287 -0.823553 -0.469536 0
M  V30 3928 H 382.993 -2.7188 -2.23102 0
M  V30 3929 H 382.867 -1.48147 -3.46889 0
M  V30 3930 H 385.254 -0.691785 -2.86877 0
M  V30 3931 H 385.335 -1.96276 -1.6404 0
M  V30 3932 H 384.979 -3.71566 -3.46268 0
M  V30 3933 H 384.909 -2.41595 -4.67909 0
M  V30 3934 H 387.4 -2.08243 -3.15346 0
M  V30 3935 H 387.713 -4.76636 -6.08308 0
M  V30 3936 H 386.058 -4.28104 -5.47496 0
M  V30 3937 H 389.249 -2.64937 -3.85909 0
M  V30 3938 H 389.422 -3.87308 -5.19516 0
M  V30 3939 N 382.828 1.3818 -0.7579 0
M  V30 3940 C 384.056 2.04301 -0.326937 0
M  V30 3941 C 384.471 1.57163 1.0462 0
M  V30 3942 O 383.828 0.746626 1.66529 0
M  V30 3943 C 383.879 3.59846 -0.345363 0
M  V30 3944 O 383.6 4.05256 -1.66432 0
M  V30 3945 C 385.101 4.4319 0.098927 0
M  V30 3946 H 382.321 0.656443 -0.139012 0
M  V30 3947 H 384.865 1.76786 -1.02796 0
M  V30 3948 H 383.02 3.86182 0.306955 0
M  V30 3949 H 383.434 4.99709 -1.59345 0
M  V30 3950 H 384.908 5.51989 0.0348745 0
M  V30 3951 H 385.385 4.23947 1.14741 0
M  V30 3952 H 385.991 4.22051 -0.52468 0
M  V30 3953 N 384.306 0.507319 1.49211 0
M  V30 3954 C 385.722 0.163682 1.58758 0
M  V30 3955 C 385.922 -1.33208 1.51188 0
M  V30 3956 O 384.978 -2.10855 1.38911 0
M  V30 3957 C 386.291 0.746095 2.91297 0
M  V30 3958 C 387.839 0.712773 3.04776 0
M  V30 3959 C 388.314 1.27336 4.39943 0
M  V30 3960 N 389.805 1.23433 4.46451 0
M  V30 3961 C 390.54 1.63821 5.495 0
M  V30 3962 N 390.036 2.11832 6.5962 0
M  V30 3963 N 391.829 1.55198 5.4025 0
M  V30 3964 H 383.98 1.47972 1.52375 0
M  V30 3965 H 386.243 0.614147 0.722168 0
M  V30 3966 H 385.949 1.79534 3.02424 0
M  V30 3967 H 385.823 0.210137 3.76614 0
M  V30 3968 H 388.21 -0.327656 2.93275 0
M  V30 3969 H 388.291 1.28595 2.21127 0
M  V30 3970 H 387.935 2.3126 4.52196 0
M  V30 3971 H 387.865 0.676066 5.22242 0
M  V30 3972 H 390.356 0.882627 3.67448 0
M  V30 3973 H 390.669 2.40703 7.34358 0
M  V30 3974 H 389.014 2.1581 6.60644 0
M  V30 3975 H 392.205 1.17505 4.53112 0
M  V30 3976 H 392.378 1.86997 6.20432 0
M  V30 3977 N 385.784 -1.5574 0.241426 0
M  V30 3978 C 386.717 -2.17168 -0.700935 0
M  V30 3979 C 387.695 -1.12206 -1.1768 0
M  V30 3980 O 388.879 -1.40565 -1.25593 0
M  V30 3981 C 386.006 -2.76796 -1.95196 0
M  V30 3982 C 385.052 -3.94764 -1.61442 0
M  V30 3983 S 385.885 -5.30613 -0.72182 0
M  V30 3984 C 387.041 -5.93691 -1.98197 0
M  V30 3985 H 387.274 -2.96761 -0.178882 0
M  V30 3986 H 384.807 -1.54378 0.0259299 0
M  V30 3987 H 386.765 -3.11787 -2.67019 0
M  V30 3988 H 385.426 -1.9716 -2.44514 0
M  V30 3989 H 384.619 -4.35057 -2.54443 0
M  V30 3990 H 384.221 -3.61022 -0.976672 0
M  V30 3991 H 386.513 -6.10874 -2.92983 0
M  V30 3992 H 387.456 -6.89258 -1.62262 0
M  V30 3993 H 387.864 -5.22709 -2.13156 0
M  V30 3994 N 387.262 0.0317525 -1.57568 0
M  V30 3995 C 388.192 1.03274 -2.0942 0
M  V30 3996 C 389.173 1.3788 -0.996143 0
M  V30 3997 O 390.358 1.46811 -1.27122 0
M  V30 3998 C 387.488 2.33448 -2.57137 0
M  V30 3999 C 386.442 2.13091 -3.71182 0
M  V30 4000 C 385.768 3.49001 -4.05095 0
M  V30 4001 C 387.068 1.51928 -4.99715 0
M  V30 4002 H 388.762 0.60112 -2.93303 0
M  V30 4003 H 386.308 0.287705 -1.41097 0
M  V30 4004 H 388.261 3.03802 -2.92032 0
M  V30 4005 H 386.985 2.78665 -1.70333 0
M  V30 4006 H 385.644 1.45171 -3.36632 0
M  V30 4007 H 385.292 3.91862 -3.15362 0
M  V30 4008 H 384.992 3.36207 -4.81911 0
M  V30 4009 H 386.516 4.20721 -4.42522 0
M  V30 4010 H 387.93 2.12196 -5.32584 0
M  V30 4011 H 386.327 1.49716 -5.81124 0
M  V30 4012 H 387.397 0.484811 -4.8247 0
M  V30 4013 N 388.74 1.54641 0.303973 0
M  V30 4014 C 390.151 1.64811 0.877163 0
M  V30 4015 C 390.502 0.554838 1.88191 0
M  V30 4016 O 389.627 -0.309033 2.14182 0
M  V30 4017 C 390.222 2.9876 1.59775 0
M  V30 4018 C 388.781 3.11061 2.11938 0
M  V30 4019 C 387.928 2.60479 0.951097 0
M  V30 4020 H 390.879 1.58493 0.0810486 0
M  V30 4021 H 390.9 2.90017 2.46314 0
M  V30 4022 H 390.412 3.7831 0.866226 0
M  V30 4023 H 388.513 2.36225 2.88146 0
M  V30 4024 H 388.626 4.17171 2.35595 0
M  V30 4025 H 386.99 2.16859 1.33583 0
M  V30 4026 H 387.773 3.42504 0.233581 0
M  V30 4027 N 390.218 -0.567019 1.47046 0
M  V30 4028 C 391.464 -1.32658 1.53394 0
M  V30 4029 C 391.797 -1.93254 0.19148 0
M  V30 4030 O 391.072 -1.77338 -0.798844 0
M  V30 4031 C 391.355 -2.44412 2.64452 0
M  V30 4032 C 391.208 -1.88749 4.08282 0
M  V30 4033 C 392.527 -3.46387 2.71485 0
M  V30 4034 H 389.646 -0.48098 0.558415 0
M  V30 4035 H 392.288 -0.635481 1.79058 0
M  V30 4036 H 390.438 -3.03363 2.427 0
M  V30 4037 H 392.11 -1.34134 4.41368 0
M  V30 4038 H 390.353 -1.19481 4.17021 0
M  V30 4039 H 391.024 -2.69491 4.81745 0
M  V30 4040 H 393.5 -2.9734 2.91081 0
M  V30 4041 H 392.376 -4.2202 3.50985 0
M  V30 4042 H 392.637 -4.04616 1.78153 0
M  V30 4043 N 391.696 -1.35014 -0.812953 0
M  V30 4044 C 392.921 -1.31187 -1.60639 0
M  V30 4045 C 393.346 0.109382 -1.87782 0
M  V30 4046 O 392.704 1.07424 -1.46047 0
M  V30 4047 C 392.752 -2.11809 -2.91838 0
M  V30 4048 O 391.856 -1.49444 -3.8437 0
M  V30 4049 H 391.197 -0.450084 -0.488181 0
M  V30 4050 H 393.727 -1.77963 -1.00947 0
M  V30 4051 H 393.737 -2.23531 -3.41318 0
M  V30 4052 H 392.412 -3.15137 -2.71407 0
M  V30 4053 H 390.989 -1.46524 -3.42907 0
M  V30 4054 N 393.175 1.03435 -1.18907 0
M  V30 4055 C 394.423 1.76394 -0.986382 0
M  V30 4056 C 394.744 1.88883 0.484567 0
M  V30 4057 O 394.014 1.41843 1.3512 0
M  V30 4058 H 392.594 0.65344 -0.361975 0
M  V30 4059 H 395.256 1.248 -1.49703 0
M  V30 4060 H 394.352 2.77424 -1.42978 0
M  V30 4061 N 394.653 0.992116 1.22453 0
M  V30 4062 C 395.616 0.546883 2.2258 0
M  V30 4063 C 396.616 -0.369829 1.56489 0
M  V30 4064 O 397.806 -0.161896 1.73446 0
M  V30 4065 C 394.938 -0.204659 3.40285 0
M  V30 4066 H 396.131 1.43234 2.63484 0
M  V30 4067 H 393.684 0.779239 1.3549 0
M  V30 4068 H 394.419 -1.10614 3.04853 0
M  V30 4069 H 394.204 0.45354 3.89468 0
M  V30 4070 H 395.694 -0.504358 4.14543 0
M  V30 4071 N 396.131 -1.37776 0.765217 0
M  V30 4072 C 397.378 -1.99849 0.326588 0
M  V30 4073 C 397.706 -1.60746 -1.09504 0
M  V30 4074 O 396.961 -0.84202 -1.76659 0
M  V30 4075 C 397.26 -3.5504 0.410053 0
M  V30 4076 C 396.926 -4.13891 1.78899 0
M  V30 4077 C 395.588 -4.29678 2.16635 0
M  V30 4078 C 397.94 -4.46236 2.69301 0
M  V30 4079 C 395.268 -4.7511 3.44221 0
M  V30 4080 C 397.62 -4.93089 3.9629 0
M  V30 4081 C 396.284 -5.07082 4.34078 0
M  V30 4082 H 395.554 -0.7313 0.119507 0
M  V30 4083 H 398.201 -1.64645 0.977968 0
M  V30 4084 H 396.506 -3.90451 -0.324878 0
M  V30 4085 H 398.203 -4.00966 0.0520699 0
M  V30 4086 H 394.793 -4.02026 1.48569 0
M  V30 4087 H 398.977 -4.3363 2.41409 0
M  V30 4088 H 394.233 -4.84129 3.73402 0
M  V30 4089 H 398.407 -5.17084 4.66472 0
M  V30 4090 H 396.034 -5.42046 5.33001 0
M  V30 4091 N 397.609 -0.515225 -1.4894 0
M  V30 4092 C 398.559 0.275113 -2.26334 0
M  V30 4093 C 399.543 0.923007 -1.31793 0
M  V30 4094 O 400.735 0.828254 -1.56426 0
M  V30 4095 C 397.864 1.33041 -3.16473 0
M  V30 4096 C 396.95 0.688051 -4.18481 0
M  V30 4097 N 397.341 -0.217638 -5.05332 0
M  V30 4098 C 395.639 0.94699 -4.3583 0
M  V30 4099 C 396.34 -0.58676 -5.78733 0
M  V30 4100 N 395.316 0.0486966 -5.43578 0
M  V30 4101 H 399.118 -0.421876 -2.90856 0
M  V30 4102 H 396.632 -0.332249 -1.58965 0
M  V30 4103 H 398.629 1.9102 -3.70563 0
M  V30 4104 H 397.289 2.02894 -2.53504 0
M  V30 4105 H 398.3 -0.589343 -5.14536 0
M  V30 4106 H 394.977 1.63719 -3.8406 0
M  V30 4107 H 396.367 -1.32855 -6.58634 0
M  V30 4108 N 399.087 1.5561 -0.249682 0
M  V30 4109 C 400.315 2.03411 0.378352 0
M  V30 4110 C 400.73 1.12886 1.51335 0
M  V30 4111 O 400.087 0.143833 1.81932 0
M  V30 4112 C 400.138 3.50537 0.88351 0
M  V30 4113 O 399.859 4.37614 -0.20626 0
M  V30 4114 C 401.36 4.14113 1.58195 0
M  V30 4115 H 398.58 0.664994 0.08958 0
M  V30 4116 H 401.124 2.01044 -0.374357 0
M  V30 4117 H 399.279 3.5343 1.58639 0
M  V30 4118 H 399.693 5.24199 0.177782 0
M  V30 4119 H 401.167 5.18741 1.8871 0
M  V30 4120 H 401.644 3.60767 2.50487 0
M  V30 4121 H 402.25 4.15151 0.923573 0
M  V30 4122 N 400.565 -0.0233959 1.57583 0
M  V30 4123 C 401.981 -0.379134 1.55031 0
M  V30 4124 C 402.181 -1.76255 0.976548 0
M  V30 4125 O 401.237 -2.45266 0.600078 0
M  V30 4126 C 402.55 -0.275792 2.99433 0
M  V30 4127 C 404.098 -0.352458 3.11009 0
M  V30 4128 C 404.573 -0.278501 4.57152 0
M  V30 4129 N 406.064 -0.337123 4.61972 0
M  V30 4130 C 406.799 -0.302876 5.726 0
M  V30 4131 N 406.295 -0.220589 6.92449 0
M  V30 4132 N 408.088 -0.353023 5.6099 0
M  V30 4133 H 400.239 0.881869 1.93227 0
M  V30 4134 H 402.502 0.335867 0.886509 0
M  V30 4135 H 402.208 0.675108 3.4516 0
M  V30 4136 H 402.082 -1.06721 3.61788 0
M  V30 4137 H 404.469 -1.29379 2.65226 0
M  V30 4138 H 404.55 0.468409 2.51475 0
M  V30 4139 H 404.194 0.659189 5.03604 0
M  V30 4140 H 404.124 -1.11755 5.14605 0
M  V30 4141 H 406.615 -0.403002 3.75745 0
M  V30 4142 H 406.928 -0.199713 7.72542 0
M  V30 4143 H 405.273 -0.186555 6.9475 0
M  V30 4144 H 408.464 -0.415339 4.66254 0
M  V30 4145 H 408.637 -0.322866 6.47195 0
M  V30 4146 N 402.043 -1.548 -0.295768 0
M  V30 4147 C 402.973 -1.89115 -1.36959 0
M  V30 4148 C 403.954 -0.75059 -1.52644 0
M  V30 4149 O 405.139 -1.00678 -1.66065 0
M  V30 4150 C 402.269 -2.14307 -2.73295 0
M  V30 4151 C 401.223 -3.30151 -2.72368 0
M  V30 4152 C 400.549 -3.40772 -4.12042 0
M  V30 4153 C 401.849 -4.67126 -2.33646 0
M  V30 4154 H 403.543 -2.79053 -1.08488 0
M  V30 4155 H 401.089 -1.34266 -0.520443 0
M  V30 4156 H 403.042 -2.36898 -3.48507 0
M  V30 4157 H 401.766 -1.21145 -3.03301 0
M  V30 4158 H 400.425 -3.0749 -1.99613 0
M  V30 4159 H 400.073 -2.45117 -4.39234 0
M  V30 4160 H 399.773 -4.18645 -4.12322 0
M  V30 4161 H 401.297 -3.6563 -4.89027 0
M  V30 4162 H 402.711 -4.89414 -2.98575 0
M  V30 4163 H 401.108 -5.47751 -2.45129 0
M  V30 4164 H 402.178 -4.67489 -1.28772 0
M  V30 4165 N 403.521 0.559213 -1.47345 0
M  V30 4166 C 404.454 1.68201 -1.5422 0
M  V30 4167 C 405.432 1.57742 -0.394497 0
M  V30 4168 O 406.616 1.78628 -0.60201 0
M  V30 4169 C 403.743 3.0643 -1.44285 0
M  V30 4170 C 402.789 3.3534 -2.63532 0
M  V30 4171 S 403.622 3.24816 -4.25741 0
M  V30 4172 C 404.778 4.65542 -4.18355 0
M  V30 4173 H 405.011 1.62114 -2.49211 0
M  V30 4174 H 402.544 0.739871 -1.35519 0
M  V30 4175 H 404.502 3.86164 -1.3924 0
M  V30 4176 H 403.163 3.09984 -0.506816 0
M  V30 4177 H 402.356 4.36107 -2.52639 0
M  V30 4178 H 401.958 2.63221 -2.65689 0
M  V30 4179 H 404.25 5.56449 -3.86485 0
M  V30 4180 H 405.193 4.81493 -5.19202 0
M  V30 4181 H 405.601 4.43495 -3.49246 0
M  V30 4182 N 404.999 1.35443 0.805782 0
M  V30 4183 C 405.909 1.30546 1.94923 0
M  V30 4184 C 406.925 0.210233 1.72725 0
M  V30 4185 O 408.101 0.43975 1.9654 0
M  V30 4186 C 405.166 1.07782 3.29521 0
M  V30 4187 C 404.227 2.26625 3.64609 0
M  V30 4188 C 403.46 2.04938 4.92784 0
M  V30 4189 O 403.683 1.01624 5.61274 0
M  V30 4190 O 402.617 2.9232 5.26149 0
M  V30 4191 H 406.443 2.26779 2.02002 0
M  V30 4192 H 404.028 1.15823 0.943682 0
M  V30 4193 H 405.91 0.969392 4.10098 0
M  V30 4194 H 404.585 0.146003 3.23371 0
M  V30 4195 H 403.492 2.43033 2.84404 0
M  V30 4196 H 404.825 3.18257 3.75464 0
M  V30 4197 N 406.477 -1.02803 1.19454 0
M  V30 4198 C 407.888 -1.57667 0.999899 0
M  V30 4199 C 408.239 -1.91041 -0.446956 0
M  V30 4200 O 407.364 -1.70978 -1.32648 0
M  V30 4201 C 407.959 -2.86477 1.80877 0
M  V30 4202 C 406.518 -3.37911 1.65811 0
M  V30 4203 C 405.665 -2.11343 1.79526 0
M  V30 4204 H 408.616 -0.853214 1.33813 0
M  V30 4205 H 408.637 -3.57408 1.30536 0
M  V30 4206 H 408.149 -2.62155 2.86175 0
M  V30 4207 H 406.25 -3.67218 0.63102 0
M  V30 4208 H 406.363 -4.10885 2.46395 0
M  V30 4209 H 404.727 -2.23254 1.22596 0
M  V30 4210 H 405.51 -1.89461 2.86285 0
M  V30 4211 N 407.956 -0.998596 -1.21925 0
M  V30 4212 C 408.919 -0.558679 -2.22287 0
M  V30 4213 C 409.919 0.361525 -1.56683 0
M  V30 4214 O 411.109 0.152695 -1.73529 0
M  V30 4215 C 408.241 0.18661 -3.40389 0
M  V30 4216 H 409.434 -1.4463 -2.62721 0
M  V30 4217 H 406.987 -0.786413 -1.35075 0
M  V30 4218 H 407.722 1.08996 -3.05435 0
M  V30 4219 H 407.507 -0.474188 -3.89222 0
M  V30 4220 H 408.997 0.482367 -4.14805 0
M  V30 4221 N 409.434 1.37368 -0.772513 0
M  V30 4222 C 410.68 1.99969 -0.337681 0
M  V30 4223 C 411.013 1.61184 1.08321 0
M  V30 4224 O 410.288 0.858395 1.74533 0
M  V30 4225 C 410.571 3.56858 -0.482121 0
M  V30 4226 C 410.424 4.0555 -1.94549 0
M  V30 4227 C 411.743 4.39955 0.113143 0
M  V30 4228 H 408.862 0.726464 -0.124171 0
M  V30 4229 H 411.504 1.63034 -0.975699 0
M  V30 4230 H 409.654 3.88452 0.0610361 0
M  V30 4231 H 411.326 3.84518 -2.54841 0
M  V30 4232 H 409.569 3.57715 -2.45403 0
M  V30 4233 H 410.24 5.14587 -1.9976 0
M  V30 4234 H 412.716 4.14623 -0.35031 0
M  V30 4235 H 411.592 5.48897 -0.0180514 0
M  V30 4236 H 411.853 4.25403 1.20354 0
M  V30 4237 N 410.912 0.523116 1.48665 0
M  V30 4238 C 411.822 -0.247406 2.33292 0
M  V30 4239 C 412.838 -0.945769 1.46052 0
M  V30 4240 O 414.014 -0.922253 1.79043 0
M  V30 4241 C 411.079 -1.28487 3.22012 0
M  V30 4242 C 410.14 -0.597592 4.2512 0
M  V30 4243 C 409.373 -1.58563 5.09601 0
M  V30 4244 O 409.596 -2.81763 4.95949 0
M  V30 4245 O 408.53 -1.12879 5.91221 0
M  V30 4246 H 412.356 0.445869 3.00409 0
M  V30 4247 H 409.941 0.284128 1.46673 0
M  V30 4248 H 411.823 -1.88459 3.7691 0
M  V30 4249 H 410.498 -1.96068 2.57564 0
M  V30 4250 H 409.405 0.0424407 3.74076 0
M  V30 4251 H 410.738 0.0361517 4.92187 0
M  V30 4252 N 412.39 -1.55475 0.257931 0
M  V30 4253 C 413.801 -1.8511 -0.243135 0
M  V30 4254 C 414.152 -1.17986 -1.5676 0
M  V30 4255 O 413.277 -0.462102 -2.11409 0
M  V30 4256 C 413.872 -3.35826 -0.447929 0
M  V30 4257 C 412.431 -3.65647 -0.893245 0
M  V30 4258 C 411.578 -2.7729 0.0232965 0
M  V30 4259 H 414.529 -1.51261 0.480199 0
M  V30 4260 H 414.55 -3.58002 -1.28898 0
M  V30 4261 H 414.062 -3.84652 0.516196 0
M  V30 4262 H 412.163 -3.22308 -1.86945 0
M  V30 4263 H 412.276 -4.73312 -0.742469 0
M  V30 4264 H 410.64 -2.49942 -0.490021 0
M  V30 4265 H 411.423 -3.28926 0.982994 0
M  V30 4266 N 413.868 0.0150385 -1.57593 0
M  V30 4267 C 414.798 1.01047 -2.10503 0
M  V30 4268 C 415.779 1.36816 -1.01071 0
M  V30 4269 O 416.964 1.45455 -1.28672 0
M  V30 4270 C 414.094 2.30708 -2.59598 0
M  V30 4271 C 413.048 2.09142 -3.73421 0
M  V30 4272 C 412.374 3.44685 -4.08774 0
M  V30 4273 C 413.674 1.46619 -5.01298 0
M  V30 4274 H 415.368 0.569978 -2.93925 0
M  V30 4275 H 412.914 0.272724 -1.41394 0
M  V30 4276 H 414.867 3.00687 -2.95238 0
M  V30 4277 H 413.591 2.76843 -1.73279 0
M  V30 4278 H 412.25 1.41592 -3.38153 0
M  V30 4279 H 411.898 3.88495 -3.195 0
M  V30 4280 H 411.598 3.31077 -4.8545 0
M  V30 4281 H 413.122 4.16004 -4.4696 0
M  V30 4282 H 414.536 2.06535 -5.34805 0
M  V30 4283 H 412.933 1.43544 -5.82679 0
M  V30 4284 H 414.003 0.433611 -4.82957 0
M  V30 4285 N 415.346 1.54954 0.287554 0
M  V30 4286 C 416.574 1.78881 1.03967 0
M  V30 4287 C 416.989 0.554894 1.80462 0
M  V30 4288 O 416.346 -0.475676 1.76192 0
M  V30 4289 C 416.397 3.00488 2.0097 0
M  V30 4290 O 416.118 4.19113 1.27577 0
M  V30 4291 C 417.619 3.36907 2.88112 0
M  V30 4292 H 414.839 0.596259 0.307761 0
M  V30 4293 H 417.383 2.01937 0.322749 0
M  V30 4294 H 415.538 2.79601 2.68145 0
M  V30 4295 H 415.952 4.87765 1.92835 0
M  V30 4296 H 417.426 4.25205 3.52001 0
M  V30 4297 H 417.903 2.55659 3.57121 0
M  V30 4298 H 418.509 3.60001 2.26449 0
M  V30 4299 N 416.824 -0.551391 1.4764 0
M  V30 4300 C 417.756 -1.67333 1.56628 0
M  V30 4301 C 418.769 -1.56398 0.452045 0
M  V30 4302 O 419.958 -1.6325 0.721926 0
M  V30 4303 C 417.058 -3.05841 1.45994 0
M  V30 4304 C 416.231 -3.42472 2.72088 0
M  V30 4305 C 415.29 -4.60168 2.55209 0
M  V30 4306 O 414.316 -4.64458 3.2904 0
M  V30 4307 N 415.518 -5.57024 1.63416 0
M  V30 4308 H 418.283 -1.60066 2.53375 0
M  V30 4309 H 415.844 -0.738169 1.44093 0
M  V30 4310 H 417.836 -3.8242 1.32428 0
M  V30 4311 H 416.406 -3.07302 0.573071 0
M  V30 4312 H 415.626 -2.55284 3.00373 0
M  V30 4313 H 416.914 -3.63723 3.55785 0
M  V30 4314 H 416.312 -5.56319 1.02594 0
M  V30 4315 H 414.869 -6.32906 1.558 0
M  V30 4316 N 418.302 -1.35869 -0.798587 0
M  V30 4317 C 419.265 -1.29307 -1.89242 0
M  V30 4318 C 420.265 -0.202747 -1.59517 0
M  V30 4319 O 421.455 -0.456957 -1.681 0
M  V30 4320 C 418.587 -1.00229 -3.25833 0
M  V30 4321 H 419.78 -2.26576 -1.96478 0
M  V30 4322 H 417.333 -1.20509 -0.995358 0
M  V30 4323 H 418.068 -0.033801 -3.24282 0
M  V30 4324 H 417.853 -1.79121 -3.48795 0
M  V30 4325 H 419.343 -0.98219 -4.05885 0
M  V30 4326 N 419.78 1.02168 -1.19998 0
M  V30 4327 C 420.71 2.12488 -0.96804 0
M  V30 4328 C 421.691 1.69799 0.101185 0
M  V30 4329 O 422.876 1.94121 -0.0552993 0
M  V30 4330 C 420.006 3.43479 -0.513776 0
M  V30 4331 C 418.96 3.99884 -1.52566 0
M  V30 4332 C 418.286 5.26582 -0.928214 0
M  V30 4333 C 419.586 4.33861 -2.90795 0
M  V30 4334 H 421.28 2.32149 -1.89069 0
M  V30 4335 H 418.826 1.11564 -0.910468 0
M  V30 4336 H 420.779 4.20036 -0.338774 0
M  V30 4337 H 419.503 3.23561 0.444493 0
M  V30 4338 H 418.162 3.25429 -1.68794 0
M  V30 4339 H 417.81 5.02986 0.0378289 0
M  V30 4340 H 417.51 5.65284 -1.60397 0
M  V30 4341 H 419.034 6.05799 -0.764167 0
M  V30 4342 H 420.448 5.01327 -2.78109 0
M  V30 4343 H 418.845 4.83664 -3.55231 0
M  V30 4344 H 419.915 3.42848 -3.42904 0
M  V30 4345 N 421.258 1.00505 1.21394 0
M  V30 4346 C 422.205 0.565496 2.23765 0
M  V30 4347 C 423.175 -0.408466 1.60999 0
M  V30 4348 O 424.36 -0.310503 1.88257 0
M  V30 4349 C 421.5 -0.101667 3.4495 0
M  V30 4350 C 420.613 0.915479 4.22188 0
M  V30 4351 C 419.748 0.220574 5.30742 0
M  V30 4352 C 418.787 1.22527 5.99711 0
M  V30 4353 N 417.924 0.557831 6.9988 0
M  V30 4354 H 422.764 1.44314 2.60725 0
M  V30 4355 H 420.301 0.722643 1.28126 0
M  V30 4356 H 422.259 -0.505504 4.14126 0
M  V30 4357 H 420.889 -0.94303 3.08718 0
M  V30 4358 H 419.941 1.43756 3.52191 0
M  V30 4359 H 421.253 1.68005 4.69655 0
M  V30 4360 H 420.407 -0.239368 6.06228 0
M  V30 4361 H 419.146 -0.576401 4.84282 0
M  V30 4362 H 418.151 1.69571 5.22997 0
M  V30 4363 H 419.376 2.02332 6.48258 0
M  V30 4364 H 417.322 -0.219486 6.55633 0
M  V30 4365 H 417.239 1.26065 7.45415 0
M  V30 4366 H 418.507 0.121095 7.79406 0
M  V30 4367 N 422.737 -1.36956 0.779787 0
M  V30 4368 C 423.7 -2.2851 0.177662 0
M  V30 4369 C 424.7 -1.48393 -0.619377 0
M  V30 4370 O 425.89 -1.68505 -0.441785 0
M  V30 4371 C 423.022 -3.32428 -0.755279 0
M  V30 4372 H 424.215 -2.83269 0.984823 0
M  V30 4373 H 421.768 -1.46358 0.548544 0
M  V30 4374 H 422.503 -2.82808 -1.58714 0
M  V30 4375 H 422.288 -3.91659 -0.185817 0
M  V30 4376 H 423.778 -4.00824 -1.17174 0
M  V30 4377 N 424.215 -0.530993 -1.48385 0
M  V30 4378 C 425.461 0.00274135 -2.028 0
M  V30 4379 C 425.794 1.33838 -1.40716 0
M  V30 4380 O 425.069 1.86465 -0.553277 0
M  V30 4381 C 425.352 0.123676 -3.59888 0
M  V30 4382 C 425.205 -1.2372 -4.3245 0
M  V30 4383 C 426.524 0.849967 -4.31814 0
M  V30 4384 H 423.643 -0.000477758 -0.737 0
M  V30 4385 H 426.285 -0.688217 -1.77098 0
M  V30 4386 H 424.435 0.712157 -3.81917 0
M  V30 4387 H 426.107 -1.86687 -4.21836 0
M  V30 4388 H 424.35 -1.81882 -3.93829 0
M  V30 4389 H 425.021 -1.10557 -5.40815 0
M  V30 4390 H 427.497 0.350572 -4.14621 0
M  V30 4391 H 426.373 0.903486 -5.41413 0
M  V30 4392 H 426.634 1.90047 -3.99167 0
M  V30 4393 N 425.693 1.55336 -0.266172 0
M  V30 4394 C 426.97 1.91372 0.404486 0
M  V30 4395 C 427.35 1.18935 1.74407 0
M  V30 4396 O 426.698 0.3132 2.26343 0
M  V30 4397 C 426.908 3.44581 0.553593 0
M  V30 4398 C 428.256 4.16196 0.840618 0
M  V30 4399 O 429.28 3.50426 0.638739 0
M  V30 4400 O 428.139 5.32567 1.22618 0
M  V30 4401 H 425.233 0.797194 0.220025 0
M  V30 4402 H 427.779 1.66813 -0.311664 0
M  V30 4403 H 426.551 3.89357 -0.389498 0
M  V30 4404 H 426.174 3.75065 1.31955 0
M  V30 4405 N 427.171 -0.0066808 1.57599 0
M  V30 4406 C 428.42 -0.692078 1.89455 0
M  V30 4407 C 428.733 -1.75306 0.867586 0
M  V30 4408 O 429.939 -2.49262 1.07614 0
M  V30 4409 C 428.395 -1.2821 3.36289 0
M  V30 4410 C 428.003 -0.256291 4.47266 0
M  V30 4411 C 429.747 -1.94608 3.77264 0
M  V30 4412 C 427.654 -0.855927 5.85173 0
M  V30 4413 H 426.584 -0.262252 0.706923 0
M  V30 4414 H 429.235 0.052769 1.83424 0
M  V30 4415 H 427.617 -2.0774 3.37135 0
M  V30 4416 H 428.791 0.513923 4.57925 0
M  V30 4417 H 427.106 0.306862 4.15268 0
M  V30 4418 H 429.703 -2.40364 4.77629 0
M  V30 4419 H 430.046 -2.77382 3.10427 0
M  V30 4420 H 430.579 -1.21822 3.78688 0
M  V30 4421 H 427.318 -0.0671161 6.55466 0
M  V30 4422 H 426.838 -1.59546 5.78191 0
M  V30 4423 H 428.517 -1.35658 6.32618 0
M  V30 4424 N 428.649 -1.55105 -0.279332 0
M  V30 4425 C 429.596 -1.8755 -1.34513 0
M  V30 4426 C 430.566 -0.726384 -1.49375 0
M  V30 4427 O 431.751 -0.977063 -1.63884 0
M  V30 4428 C 428.891 -2.14738 -2.70151 0
M  V30 4429 C 428.004 -3.42285 -2.63562 0
M  V30 4430 C 427.139 -3.59206 -3.91337 0
M  V30 4431 C 426.178 -4.80467 -3.79233 0
M  V30 4432 N 425.315 -4.94079 -4.98829 0
M  V30 4433 H 430.155 -2.78456 -1.06143 0
M  V30 4434 H 427.692 -1.37867 -0.512936 0
M  V30 4435 H 429.65 -2.28501 -3.49061 0
M  V30 4436 H 428.28 -1.27075 -2.96735 0
M  V30 4437 H 427.332 -3.37029 -1.76397 0
M  V30 4438 H 428.644 -4.31328 -2.50515 0
M  V30 4439 H 427.798 -3.72751 -4.78687 0
M  V30 4440 H 426.537 -2.68337 -4.07243 0
M  V30 4441 H 425.542 -4.66932 -2.90266 0
M  V30 4442 H 426.767 -5.72765 -3.64852 0
M  V30 4443 H 424.713 -4.06139 -5.15158 0
M  V30 4444 H 424.63 -5.77156 -4.8829 0
M  V30 4445 H 425.898 -5.12003 -5.8777 0
M  V30 4446 N 430.127 0.543554 -1.4793 0
M  V30 4447 C 431.074 1.64942 -1.6144 0
M  V30 4448 C 432.044 1.59692 -0.456903 0
M  V30 4449 O 433.229 1.78321 -0.678688 0
M  V30 4450 C 430.369 3.03238 -1.64744 0
M  V30 4451 C 429.482 3.18823 -2.91506 0
M  V30 4452 C 428.617 4.47599 -2.86057 0
M  V30 4453 C 427.656 4.56664 -4.07584 0
M  V30 4454 N 426.793 5.76811 -4.00292 0
M  V30 4455 H 431.633 1.52733 -2.55884 0
M  V30 4456 H 429.17 0.7438 -1.2691 0
M  V30 4457 H 431.128 3.83339 -1.64641 0
M  V30 4458 H 429.758 3.1425 -0.738017 0
M  V30 4459 H 428.81 2.32064 -3.01414 0
M  V30 4460 H 430.122 3.21384 -3.81463 0
M  V30 4461 H 429.276 5.35975 -2.84281 0
M  V30 4462 H 428.015 4.47538 -1.93807 0
M  V30 4463 H 427.02 3.66697 -4.09651 0
M  V30 4464 H 428.245 4.58474 -5.00978 0
M  V30 4465 H 426.191 5.77673 -3.10853 0
M  V30 4466 H 426.108 5.80808 -4.8394 0
M  V30 4467 H 427.376 6.67512 -4.02553 0
M  V30 4468 N 431.605 1.3629 0.791371 0
M  V30 4469 C 433.016 1.27225 1.36641 0
M  V30 4470 C 433.367 -0.0887968 1.95999 0
M  V30 4471 O 432.492 -0.990207 1.92416 0
M  V30 4472 C 433.087 2.30375 2.48421 0
M  V30 4473 C 431.646 2.25004 3.01746 0
M  V30 4474 C 430.793 2.15259 1.7481 0
M  V30 4475 H 433.744 1.47198 0.593173 0
M  V30 4476 H 433.765 1.93905 3.27385 0
M  V30 4477 H 433.277 3.29422 2.05189 0
M  V30 4478 H 431.378 1.29417 3.49403 0
M  V30 4479 H 431.491 3.1761 3.58693 0
M  V30 4480 H 429.855 1.61482 1.96966 0
M  V30 4481 H 430.638 3.16191 1.33709 0
M  V30 4482 N 433.083 -1.0153 1.20538 0
M  V30 4483 C 434.013 -2.11972 0.979295 0
M  V30 4484 C 434.994 -1.6985 -0.0921787 0
M  V30 4485 O 436.179 -1.94089 0.0655932 0
M  V30 4486 C 433.309 -3.43201 0.531984 0
M  V30 4487 C 432.263 -3.9907 1.54685 0
M  V30 4488 C 431.589 -5.26082 0.956127 0
M  V30 4489 C 432.889 -4.32313 2.93092 0
M  V30 4490 H 434.583 -2.31143 1.90298 0
M  V30 4491 H 432.129 -1.11079 0.916372 0
M  V30 4492 H 434.082 -4.1985 0.361044 0
M  V30 4493 H 432.806 -3.23792 -0.427327 0
M  V30 4494 H 431.465 -3.2453 1.70517 0
M  V30 4495 H 431.113 -5.02999 -0.0111538 0
M  V30 4496 H 430.813 -5.64426 1.63393 0
M  V30 4497 H 432.337 -6.05386 0.796284 0
M  V30 4498 H 433.751 -4.99845 2.80763 0
M  V30 4499 H 432.148 -4.81774 3.57791 0
M  V30 4500 H 433.218 -3.41025 3.44717 0
M  V30 4501 N 434.561 -1.01147 -1.20859 0
M  V30 4502 C 435.807 -0.698899 -1.90377 0
M  V30 4503 C 436.14 0.76904 -1.78324 0
M  V30 4504 O 435.415 1.55817 -1.16409 0
M  V30 4505 C 435.698 -1.12878 -3.41951 0
M  V30 4506 C 435.551 -2.65665 -3.62963 0
M  V30 4507 C 436.87 -0.696114 -4.3456 0
M  V30 4508 H 433.989 -0.255372 -0.691342 0
M  V30 4509 H 436.631 -1.25831 -1.42361 0
M  V30 4510 H 434.781 -0.652827 -3.82976 0
M  V30 4511 H 436.453 -3.21074 -3.31224 0
M  V30 4512 H 434.696 -3.06878 -3.06608 0
M  V30 4513 H 435.367 -2.90797 -4.69192 0
M  V30 4514 H 437.843 -1.10521 -4.01154 0
M  V30 4515 H 436.719 -1.025 -5.39245 0
M  V30 4516 H 436.98 0.402465 -4.40264 0
M  V30 4517 N 436.039 1.36541 -0.78704 0
M  V30 4518 C 437.264 2.0409 -0.369053 0
M  V30 4519 C 437.689 1.58957 1.00569 0
M  V30 4520 O 437.047 0.756926 1.64743 0
M  V30 4521 C 437.095 3.57924 -0.438466 0
M  V30 4522 O 436.199 4.08642 0.555479 0
M  V30 4523 H 435.54 0.645142 -0.157122 0
M  V30 4524 H 438.07 1.74545 -1.06749 0
M  V30 4525 H 438.08 4.06887 -0.301218 0
M  V30 4526 H 436.755 3.90127 -1.44132 0
M  V30 4527 H 435.332 3.70958 0.380088 0
M  V30 4528 N 437.518 0.538854 1.48102 0
M  V30 4529 C 438.764 0.00801365 2.02798 0
M  V30 4530 C 439.097 -1.3309 1.41424 0
M  V30 4531 O 438.372 -1.86169 0.563158 0
M  V30 4532 C 438.655 -0.104589 3.59948 0
M  V30 4533 C 438.508 1.26012 4.31788 0
M  V30 4534 C 439.827 -0.827055 4.32259 0
M  V30 4535 H 436.946 0.00438624 0.736987 0
M  V30 4536 H 439.588 0.6976 1.7673 0
M  V30 4537 H 437.738 -0.691893 3.82289 0
M  V30 4538 H 439.41 1.88922 4.2084 0
M  V30 4539 H 437.653 1.83968 3.92859 0
M  V30 4540 H 438.324 1.13424 5.40221 0
M  V30 4541 H 440.8 -0.328578 4.14801 0
M  V30 4542 H 439.676 -0.87476 5.41885 0
M  V30 4543 H 439.937 -1.87927 4.0017 0
M  V30 4544 N 438.996 -1.55193 0.274407 0
M  V30 4545 C 440.226 -2.03692 -0.345442 0
M  V30 4546 C 440.634 -1.15224 -1.50067 0
M  V30 4547 O 439.977 -0.164749 -1.8296 0
M  V30 4548 C 440.039 -3.48325 -0.88939 0
M  V30 4549 C 439.703 -4.56794 0.137115 0
M  V30 4550 C 440.7 -5.11028 0.956378 0
M  V30 4551 C 438.385 -5.01568 0.27115 0
M  V30 4552 C 440.379 -6.08552 1.89587 0
M  V30 4553 C 438.066 -5.98918 1.21412 0
M  V30 4554 C 439.064 -6.52291 2.02498 0
M  V30 4555 O 438.752 -7.47738 2.952 0
M  V30 4556 H 438.484 -0.670893 -0.0829332 0
M  V30 4557 H 441.038 -2.01387 0.404056 0
M  V30 4558 H 439.268 -3.47867 -1.68895 0
M  V30 4559 H 440.957 -3.80167 -1.42225 0
M  V30 4560 H 441.723 -4.7725 0.863559 0
M  V30 4561 H 437.602 -4.5967 -0.349987 0
M  V30 4562 H 441.146 -6.50137 2.52918 0
M  V30 4563 H 437.043 -6.32114 1.30776 0
M  V30 4564 H 437.811 -7.65451 2.89874 0
M  V30 4565 N 440.474 -0.00167713 -1.576 0
M  V30 4566 C 441.699 0.69739 -1.95323 0
M  V30 4567 C 442.124 1.6642 -0.876706 0
M  V30 4568 O 441.482 1.80548 0.165007 0
M  V30 4569 C 441.53 1.40403 -3.32144 0
M  V30 4570 O 440.634 2.5185 -3.26566 0
M  V30 4571 H 439.975 0.185373 -0.637599 0
M  V30 4572 H 442.505 -0.0553665 -2.04525 0
M  V30 4573 H 442.515 1.76707 -3.67748 0
M  V30 4574 H 441.19 0.695167 -4.10049 0
M  V30 4575 H 439.767 2.17861 -3.0264 0
M  V30 4576 N 441.952 1.55251 0.271103 0
M  V30 4577 C 442.9 1.89054 1.35504 0
M  V30 4578 C 443.894 0.767064 1.51038 0
M  V30 4579 O 445.1 0.951429 1.528 0
M  V30 4580 H 441.475 0.600072 0.45323 0
M  V30 4581 H 443.446 2.79598 1.04247 0
M  V30 4582 C 442.195 2.18068 2.70817 0
M  V30 4583 H 441.518 3.04005 2.59656 0
M  V30 4584 H 442.958 2.4564 3.45597 0
M  V30 4585 C 441.417 0.988901 3.2206 0
M  V30 4586 O 441.947 0.224501 4.01072 0
M  V30 4587 N 440.153 0.786085 2.79766 0
M  V30 4588 H 439.7 1.40937 2.15626 0
M  V30 4589 H 439.658 -0.00969349 3.14399 0
M  V30 4590 N 443.43 -0.535701 1.48216 0
M  V30 4591 C 444.676 -1.29375 1.56173 0
M  V30 4592 C 445.009 -1.92804 0.232429 0
M  V30 4593 O 444.284 -1.78992 -0.761048 0
M  V30 4594 C 444.567 -2.38747 2.69577 0
M  V30 4595 C 444.42 -1.80046 4.12193 0
M  V30 4596 C 445.739 -3.40551 2.78771 0
M  V30 4597 H 442.858 -0.469027 0.568491 0
M  V30 4598 H 445.5 -0.597358 1.80365 0
M  V30 4599 H 443.65 -2.98147 2.4908 0
M  V30 4600 H 445.322 -1.24742 4.44114 0
M  V30 4601 H 443.565 -1.10609 4.19462 0
M  V30 4602 H 444.236 -2.59212 4.87353 0
M  V30 4603 H 446.712 -2.91099 2.97322 0
M  V30 4604 H 445.588 -4.1448 3.59857 0
M  V30 4605 H 445.849 -4.00746 1.86696 0
M  V30 4606 N 444.908 -1.36708 -0.784132 0
M  V30 4607 C 445.858 -1.2799 -1.88686 0
M  V30 4608 C 446.842 -0.170282 -1.59996 0
M  V30 4609 O 448.034 -0.403571 -1.72338 0
M  V30 4610 C 445.163 -1.07674 -3.25977 0
M  V30 4611 C 444.249 -2.23127 -3.60659 0
M  V30 4612 N 444.64 -3.48467 -3.66612 0
M  V30 4613 C 442.938 -2.15009 -3.90752 0
M  V30 4614 C 443.639 -4.24525 -3.97685 0
M  V30 4615 N 442.615 -3.53524 -4.12943 0
M  V30 4616 H 446.417 -2.22927 -1.91522 0
M  V30 4617 H 443.931 -1.29503 -0.979933 0
M  V30 4618 H 445.928 -0.995151 -4.04849 0
M  V30 4619 H 444.588 -0.13643 -3.24413 0
M  V30 4620 H 445.599 -3.82534 -3.49125 0
M  V30 4621 H 442.276 -1.28963 -3.97083 0
M  V30 4622 H 443.666 -5.32944 -4.0917 0
M  V30 4623 N 446.386 1.0089 -1.21074 0
M  V30 4624 C 447.349 2.0775 -0.968129 0
M  V30 4625 C 448.349 1.6069 0.0593445 0
M  V30 4626 O 449.539 1.73293 -0.177525 0
M  V30 4627 C 446.671 3.37794 -0.459108 0
M  V30 4628 H 447.864 2.30707 -1.9161 0
M  V30 4629 H 445.417 1.17807 -1.02719 0
M  V30 4630 H 446.152 3.20516 0.49397 0
M  V30 4631 H 445.937 3.7328 -1.20019 0
M  V30 4632 H 447.427 4.16454 -0.309099 0
M  V30 4633 N 447.864 1.01787 1.20321 0
M  V30 4634 C 448.814 0.559976 2.21016 0
M  V30 4635 C 449.798 -0.385366 1.56217 0
M  V30 4636 O 450.99 -0.208126 1.75772 0
M  V30 4637 C 448.119 -0.0990553 3.43157 0
M  V30 4638 C 447.205 0.86807 4.15121 0
M  V30 4639 N 447.596 2.0261 4.63447 0
M  V30 4640 C 445.894 0.689162 4.40643 0
M  V30 4641 C 446.595 2.63518 5.18588 0
M  V30 4642 N 445.571 1.91569 5.08726 0
M  V30 4643 H 449.373 1.44281 2.56048 0
M  V30 4644 H 446.887 0.883381 1.36272 0
M  V30 4645 H 448.884 -0.444643 4.14522 0
M  V30 4646 H 447.544 -0.977709 3.0963 0
M  V30 4647 H 448.555 2.40598 4.58621 0
M  V30 4648 H 445.232 -0.14133 4.17261 0
M  V30 4649 H 446.622 3.61527 5.66346 0
M  V30 4650 N 449.342 -1.36122 0.79427 0
M  V30 4651 C 450.758 -1.5232 0.476525 0
M  V30 4652 C 450.958 -1.74685 -1.00436 0
M  V30 4653 O 450.014 -1.78115 -1.78973 0
M  V30 4654 C 451.327 -2.70607 1.31119 0
M  V30 4655 C 452.875 -2.8448 1.30537 0
M  V30 4656 C 453.35 -4.05778 2.12387 0
M  V30 4657 N 454.841 -4.12933 2.09859 0
M  V30 4658 C 455.576 -5.05876 2.69957 0
M  V30 4659 N 455.072 -6.04232 3.38934 0
M  V30 4660 N 456.865 -4.98528 2.59665 0
M  V30 4661 H 449.016 -1.1986 1.75349 0
M  V30 4662 H 451.279 -0.585418 0.745647 0
M  V30 4663 H 450.985 -2.60619 2.36158 0
M  V30 4664 H 450.859 -3.64888 0.955843 0
M  V30 4665 H 453.246 -2.93927 0.262876 0
M  V30 4666 H 453.327 -1.91093 1.70051 0
M  V30 4667 H 452.971 -3.97092 3.1667 0
M  V30 4668 H 452.901 -4.98323 1.70242 0
M  V30 4669 H 455.392 -3.42515 1.59662 0
M  V30 4670 H 455.705 -6.71724 3.82109 0
M  V30 4671 H 454.05 -6.04443 3.43036 0
M  V30 4672 H 457.241 -4.20641 2.05375 0
M  V30 4673 H 457.414 -5.70773 3.06793 0
M  V30 4674 N 450.82 -0.546701 -1.47814 0
M  V30 4675 C 452.05 -0.0232519 -2.06587 0
M  V30 4676 C 452.458 1.2712 -1.40133 0
M  V30 4677 O 451.801 1.77091 -0.488305 0
M  V30 4678 C 451.863 0.254117 -3.58601 0
M  V30 4679 C 451.527 -0.949331 -4.47031 0
M  V30 4680 C 452.524 -1.85216 -4.85789 0
M  V30 4681 C 450.209 -1.16104 -4.88697 0
M  V30 4682 C 452.203 -2.95047 -5.65001 0
M  V30 4683 C 449.89 -2.26247 -5.67676 0
M  V30 4684 C 450.888 -3.1555 -6.05737 0
M  V30 4685 O 450.576 -4.23784 -6.83127 0
M  V30 4686 H 450.308 -0.0380082 -0.674931 0
M  V30 4687 H 452.862 -0.756631 -1.90956 0
M  V30 4688 H 451.092 1.04168 -3.72406 0
M  V30 4689 H 452.781 0.72167 -3.99433 0
M  V30 4690 H 453.547 -1.70061 -4.54207 0
M  V30 4691 H 449.426 -0.475159 -4.58545 0
M  V30 4692 H 452.97 -3.64778 -5.94628 0
M  V30 4693 H 448.867 -2.41379 -5.98671 0
M  V30 4694 H 449.635 -4.21701 -7.01506 0
M  V30 4695 N 452.299 1.55045 -0.282633 0
M  V30 4696 C 453.715 1.59441 0.0712997 0
M  V30 4697 C 453.915 1.2998 1.53972 0
M  V30 4698 O 452.971 1.06431 2.28973 0
M  V30 4699 C 454.284 2.99097 -0.310104 0
M  V30 4700 C 455.832 3.1194 -0.257343 0
M  V30 4701 C 456.307 4.53875 -0.613297 0
M  V30 4702 N 457.798 4.5974 -0.565134 0
M  V30 4703 C 458.533 5.67603 -0.81326 0
M  V30 4704 N 458.029 6.83582 -1.1264 0
M  V30 4705 N 459.822 5.57187 -0.741553 0
M  V30 4706 H 451.973 1.72458 -1.23984 0
M  V30 4707 H 454.236 0.804549 -0.501403 0
M  V30 4708 H 453.942 3.25516 -1.33163 0
M  V30 4709 H 453.816 3.75616 0.345366 0
M  V30 4710 H 456.203 2.85281 0.754905 0
M  V30 4711 H 456.284 2.37618 -0.947178 0
M  V30 4712 H 455.928 4.81261 -1.62327 0
M  V30 4713 H 455.858 5.26508 0.09841 0
M  V30 4714 H 458.349 3.76427 -0.333294 0
M  V30 4715 H 458.662 7.6175 -1.30219 0
M  V30 4716 H 457.007 6.85179 -1.16425 0
M  V30 4717 H 460.198 4.65457 -0.496705 0
M  V30 4718 H 460.371 6.41171 -0.938306 0
M  V30 4719 N 453.777 0.010035 1.57597 0
M  V30 4720 C 454.727 -0.986858 2.05536 0
M  V30 4721 C 455.711 -1.29711 0.952042 0
M  V30 4722 O 456.903 -1.28641 1.21575 0
M  V30 4723 C 454.032 -2.2756 2.57043 0
M  V30 4724 C 453.118 -1.99455 3.74271 0
M  V30 4725 N 453.509 -1.41546 4.85591 0
M  V30 4726 C 451.807 -2.29547 3.82393 0
M  V30 4727 C 452.508 -1.3014 5.66956 0
M  V30 4728 N 451.484 -1.79044 5.13268 0
M  V30 4729 H 455.286 -0.533778 2.89012 0
M  V30 4730 H 452.8 -0.195432 1.6122 0
M  V30 4731 H 454.797 -2.99829 2.89669 0
M  V30 4732 H 453.457 -2.73512 1.7499 0
M  V30 4733 H 454.468 -1.09294 5.06236 0
M  V30 4734 H 451.145 -2.78304 3.11213 0
M  V30 4735 H 452.535 -0.855237 6.66435 0
M  V30 4736 N 455.255 -1.55392 -0.262866 0
M  V30 4737 C 456.666 -1.67079 -0.833158 0
M  V30 4738 C 457.017 -0.604539 -1.86654 0
M  V30 4739 O 456.142 0.252138 -2.14926 0
M  V30 4740 C 456.737 -3.02891 -1.51797 0
M  V30 4741 C 455.296 -3.16571 -2.03617 0
M  V30 4742 C 454.443 -2.62909 -0.881701 0
M  V30 4743 H 457.394 -1.58652 -0.0389986 0
M  V30 4744 H 457.415 -2.96445 -2.38538 0
M  V30 4745 H 456.927 -3.80473 -0.765619 0
M  V30 4746 H 455.028 -2.43782 -2.81782 0
M  V30 4747 H 455.141 -4.23271 -2.24452 0
M  V30 4748 H 453.505 -2.20324 -1.27786 0
M  V30 4749 H 454.288 -3.43003 -0.14269 0
M  V30 4750 N 456.733 0.527833 -1.48498 0
M  V30 4751 C 457.981 1.28101 -1.56316 0
M  V30 4752 C 458.302 1.9352 -0.239781 0
M  V30 4753 O 457.572 1.81433 0.738849 0
M  V30 4754 H 456.152 0.475793 -0.575873 0
M  V30 4755 H 458.814 0.614052 -1.84974 0
M  V30 4756 H 457.91 2.05916 -2.34532 0
M  V30 4757 N 458.211 1.37122 0.776871 0
M  V30 4758 C 459.161 1.28989 1.88005 0
M  V30 4759 C 460.145 0.178765 1.59904 0
M  V30 4760 O 461.337 0.412705 1.72121 0
M  V30 4761 C 458.466 1.09402 3.25402 0
M  V30 4762 C 457.552 2.25036 3.59471 0
M  V30 4763 N 457.943 3.50407 3.64759 0
M  V30 4764 C 456.241 2.17078 3.89607 0
M  V30 4765 C 456.942 4.26628 3.95428 0
M  V30 4766 N 455.918 3.55709 4.11062 0
M  V30 4767 H 459.72 2.2394 1.90337 0
M  V30 4768 H 457.234 1.30021 0.973052 0
M  V30 4769 H 459.231 1.01661 4.04315 0
M  V30 4770 H 457.891 0.153632 3.24336 0
M  V30 4771 H 458.902 3.8438 3.47091 0
M  V30 4772 H 455.579 1.31067 3.96393 0
M  V30 4773 H 456.969 5.35107 4.06338 0
M  V30 4774 N 459.689 -1.00246 1.21608 0
M  V30 4775 C 460.938 -1.73476 1.02902 0
M  V30 4776 C 461.251 -1.90643 -0.437561 0
M  V30 4777 O 462.457 -2.61105 -0.74407 0
M  V30 4778 C 460.913 -3.12079 1.79261 0
M  V30 4779 C 460.521 -3.02877 3.30106 0
M  V30 4780 C 462.265 -3.89421 1.68972 0
M  V30 4781 C 460.172 -4.36575 3.98944 0
M  V30 4782 H 459.102 -0.650408 0.381425 0
M  V30 4783 H 461.753 -1.11985 1.45367 0
M  V30 4784 H 460.135 -3.74196 1.2959 0
M  V30 4785 H 461.309 -2.49983 3.87098 0
M  V30 4786 H 459.624 -2.39022 3.40965 0
M  V30 4787 H 462.221 -4.88362 2.17731 0
M  V30 4788 H 462.564 -4.1122 0.648397 0
M  V30 4789 H 463.097 -3.33963 2.16133 0
M  V30 4790 H 459.836 -4.19978 5.03288 0
M  V30 4791 H 459.356 -4.8942 3.4674 0
M  V30 4792 H 461.035 -5.05364 4.04 0
M  V30 4793 N 461.167 -1.02423 -1.1978 0
M  V30 4794 C 462.117 -0.571689 -2.20716 0
M  V30 4795 C 463.101 0.377077 -1.56419 0
M  V30 4796 O 464.293 0.198801 -1.7588 0
M  V30 4797 C 461.422 0.0808555 -3.43205 0
M  V30 4798 C 460.508 -0.890073 -4.14655 0
M  V30 4799 N 460.899 -2.05065 -4.62366 0
M  V30 4800 C 459.197 -0.71252 -4.40272 0
M  V30 4801 C 459.898 -2.66264 -5.17183 0
M  V30 4802 N 458.874 -1.94264 -5.07703 0
M  V30 4803 H 462.676 -1.45636 -2.55279 0
M  V30 4804 H 460.19 -0.890596 -1.35802 0
M  V30 4805 H 462.187 0.422654 -4.14752 0
M  V30 4806 H 460.847 0.961274 -3.10144 0
M  V30 4807 H 461.858 -2.43026 -4.57339 0
M  V30 4808 H 458.535 0.119199 -4.1733 0
M  V30 4809 H 459.925 -3.64526 -5.64421 0
M  V30 4810 N 462.645 1.35699 -0.801477 0
M  V30 4811 C 463.592 2.29876 -0.206294 0
M  V30 4812 C 464.562 1.52565 0.656752 0
M  V30 4813 O 465.747 1.81024 0.602906 0
M  V30 4814 C 462.887 3.39052 0.643272 0
M  V30 4815 C 462 4.31335 -0.239644 0
M  V30 4816 C 461.135 5.27599 0.61744 0
M  V30 4817 C 460.174 6.11521 -0.26619 0
M  V30 4818 N 459.311 6.99938 0.550571 0
M  V30 4819 H 464.151 2.80187 -1.01484 0
M  V30 4820 H 461.688 1.37902 -0.511997 0
M  V30 4821 H 463.646 4.0101 1.15094 0
M  V30 4822 H 462.276 2.9003 1.41713 0
M  V30 4823 H 461.328 3.70426 -0.865381 0
M  V30 4824 H 462.64 4.90243 -0.919985 0
M  V30 4825 H 461.794 5.94906 1.19045 0
M  V30 4826 H 460.533 4.69176 1.33137 0
M  V30 4827 H 459.538 5.43166 -0.851507 0
M  V30 4828 H 460.763 6.72022 -0.9779 0
M  V30 4829 H 458.709 6.44008 1.24856 0
M  V30 4830 H 458.626 7.55966 -0.071832 0
M  V30 4831 H 459.894 7.71599 1.10702 0
M  V30 4832 N 464.123 0.554532 1.47522 0
M  V30 4833 C 465.053 -0.182974 2.32782 0
M  V30 4834 C 466.034 -0.911377 1.43624 0
M  V30 4835 O 467.219 -0.892366 1.72483 0
M  V30 4836 C 464.349 -1.21513 3.25349 0
M  V30 4837 C 463.303 -0.603355 4.23726 0
M  V30 4838 C 462.629 -1.73995 5.05598 0
M  V30 4839 C 463.929 0.441121 5.20434 0
M  V30 4840 H 465.623 0.52882 2.94693 0
M  V30 4841 H 463.169 0.255759 1.41711 0
M  V30 4842 H 465.122 -1.73922 3.83835 0
M  V30 4843 H 463.846 -1.95683 2.61487 0
M  V30 4844 H 462.505 -0.10059 3.66462 0
M  V30 4845 H 462.153 -2.47063 4.38143 0
M  V30 4846 H 461.853 -1.3364 5.72201 0
M  V30 4847 H 463.377 -2.26735 5.66942 0
M  V30 4848 H 464.791 0.00319931 5.733 0
M  V30 4849 H 463.188 0.763402 5.95224 0
M  V30 4850 H 464.258 1.33799 4.66075 0
M  V30 4851 N 465.601 -1.54893 0.290851 0
M  V30 4852 C 466.531 -2.26103 -0.583084 0
M  V30 4853 C 467.512 -1.25684 -1.14619 0
M  V30 4854 O 468.697 -1.54436 -1.17741 0
M  V30 4855 C 465.827 -2.99409 -1.75987 0
M  V30 4856 C 464.781 -4.0689 -1.32758 0
M  V30 4857 C 464.107 -4.67856 -2.58872 0
M  V30 4858 C 465.407 -5.20215 -0.46624 0
M  V30 4859 H 467.101 -2.99398 0.0108214 0
M  V30 4860 H 464.647 -1.43998 0.00664468 0
M  V30 4861 H 466.6 -3.47943 -2.37727 0
M  V30 4862 H 465.324 -2.23675 -2.37985 0
M  V30 4863 H 463.983 -3.59191 -0.733299 0
M  V30 4864 H 463.631 -3.88772 -3.19163 0
M  V30 4865 H 463.331 -5.40438 -2.30653 0
M  V30 4866 H 464.855 -5.19147 -3.21433 0
M  V30 4867 H 466.269 -5.64704 -0.989047 0
M  V30 4868 H 464.666 -5.99455 -0.27826 0
M  V30 4869 H 465.736 -4.82198 0.511173 0
M  V30 4870 N 467.08 -0.0183926 -1.57589 0
M  V30 4871 C 468.043 0.951986 -2.08494 0
M  V30 4872 C 469.043 1.26092 -0.997874 0
M  V30 4873 O 470.233 1.20304 -1.25987 0
M  V30 4874 C 467.365 2.27165 -2.54182 0
M  V30 4875 H 468.558 0.511307 -2.95509 0
M  V30 4876 H 466.111 0.229444 -1.54607 0
M  V30 4877 H 466.846 2.75884 -1.70465 0
M  V30 4878 H 466.631 2.06057 -3.33591 0
M  V30 4879 H 468.121 2.9674 -2.93828 0
M  V30 4880 N 468.558 1.5553 0.254621 0
M  V30 4881 C 469.49 1.86104 1.33783 0
M  V30 4882 C 470.503 0.746752 1.44663 0
M  V30 4883 O 471.692 1.0248 1.46151 0
M  V30 4884 C 468.792 2.02532 2.71724 0
M  V30 4885 C 467.965 3.33335 2.83208 0
M  V30 4886 C 467.024 3.396 4.01943 0
M  V30 4887 O 466.05 4.12862 3.91834 0
M  V30 4888 N 467.252 2.68332 5.1476 0
M  V30 4889 H 470.017 2.79605 1.07893 0
M  V30 4890 H 467.578 1.55672 0.444732 0
M  V30 4891 H 469.57 2.04074 3.4948 0
M  V30 4892 H 468.14 1.15811 2.90356 0
M  V30 4893 H 467.36 3.44176 1.92189 0
M  V30 4894 H 468.648 4.19565 2.87824 0
M  V30 4895 H 468.046 2.08528 5.25864 0
M  V30 4896 H 466.603 2.75575 5.90679 0
M  V30 4897 N 470.036 -0.519951 1.48776 0
M  V30 4898 C 470.968 -1.63973 1.60142 0
M  V30 4899 C 471.981 -1.55404 0.485117 0
M  V30 4900 O 473.17 -1.61682 0.756391 0
M  V30 4901 C 470.27 -3.02676 1.52449 0
M  V30 4902 C 469.443 -3.36624 2.79291 0
M  V30 4903 C 468.502 -4.54652 2.64912 0
M  V30 4904 O 467.528 -4.57374 3.38818 0
M  V30 4905 N 468.73 -5.53432 1.75195 0
M  V30 4906 H 471.495 -1.54656 2.56713 0
M  V30 4907 H 469.056 -0.707439 1.45626 0
M  V30 4908 H 471.048 -3.79525 1.4051 0
M  V30 4909 H 469.618 -3.06018 0.638125 0
M  V30 4910 H 468.838 -2.48855 3.0572 0
M  V30 4911 H 470.126 -3.56094 3.6342 0
M  V30 4912 H 469.524 -5.54018 1.14371 0
M  V30 4913 H 468.081 -6.29459 1.69189 0
M  V30 4914 N 471.514 -1.37532 -0.769588 0
M  V30 4915 C 472.444 -1.36172 -1.89682 0
M  V30 4916 C 473.425 -0.23001 -1.68538 0
M  V30 4917 O 474.61 -0.43069 -1.89364 0
M  V30 4918 C 471.74 -1.1701 -3.26995 0
M  V30 4919 C 470.694 -2.27216 -3.62708 0
M  V30 4920 C 470.02 -1.93174 -4.98586 0
M  V30 4921 C 471.32 -3.6941 -3.69234 0
M  V30 4922 H 473.014 -2.30499 -1.91078 0
M  V30 4923 H 470.56 -1.10953 -0.917902 0
M  V30 4924 H 472.513 -1.14688 -4.05493 0
M  V30 4925 H 471.237 -0.191395 -3.26039 0
M  V30 4926 H 469.896 -2.28697 -2.86519 0
M  V30 4927 H 469.544 -0.938281 -4.94171 0
M  V30 4928 H 469.244 -2.66973 -5.23449 0
M  V30 4929 H 470.768 -1.92443 -5.79481 0
M  V30 4930 H 472.182 -3.70047 -4.37879 0
M  V30 4931 H 470.579 -4.4228 -4.05597 0
M  V30 4932 H 471.649 -4.0288 -2.69844 0
M  V30 4933 N 472.992 0.995999 -1.22138 0
M  V30 4934 C 474.238 1.73767 -1.04561 0
M  V30 4935 C 474.571 1.89633 0.418698 0
M  V30 4936 O 473.846 1.43723 1.3105 0
M  V30 4937 C 474.129 3.14505 -1.75382 0
M  V30 4938 C 473.982 3.06306 -3.29388 0
M  V30 4939 C 475.301 4.13615 -1.50369 0
M  V30 4940 H 472.42 0.630728 -0.38125 0
M  V30 4941 H 475.062 1.16057 -1.50435 0
M  V30 4942 H 473.212 3.63775 -1.36383 0
M  V30 4943 H 474.884 2.64681 -3.77812 0
M  V30 4944 H 473.127 2.43186 -3.59226 0
M  V30 4945 H 473.798 4.05884 -3.74116 0
M  V30 4946 H 476.274 3.73089 -1.84239 0
M  V30 4947 H 475.15 5.10212 -2.02421 0
M  V30 4948 H 475.411 4.39949 -0.435611 0
M  V30 4949 N 474.47 1.03057 1.19235 0
M  V30 4950 C 475.695 0.74757 1.93458 0
M  V30 4951 C 476.12 -0.687648 1.7508 0
M  V30 4952 O 475.478 -1.47499 1.05422 0
M  V30 4953 C 475.526 1.10604 3.43219 0
M  V30 4954 O 474.63 0.225671 4.11782 0
M  V30 4955 H 473.971 0.276047 0.603899 0
M  V30 4956 H 476.501 1.3777 1.51263 0
M  V30 4957 H 476.511 1.06366 3.93891 0
M  V30 4958 H 475.186 2.15165 3.55917 0
M  V30 4959 H 473.763 0.326795 3.71465 0
M  V30 4960 N 475.948 -1.35272 0.808662 0
M  V30 4961 C 477.359 -1.81179 0.450688 0
M  V30 4962 C 477.71 -1.67143 -1.02751 0
M  V30 4963 O 476.835 -1.20325 -1.79864 0
M  V30 4964 C 477.43 -3.28943 0.811275 0
M  V30 4965 C 475.989 -3.72985 0.505871 0
M  V30 4966 C 475.136 -2.57229 1.03578 0
M  V30 4967 H 478.087 -1.2322 1.00012 0
M  V30 4968 H 478.108 -3.80342 0.109588 0
M  V30 4969 H 477.62 -3.39127 1.88718 0
M  V30 4970 H 475.721 -3.68349 -0.561209 0
M  V30 4971 H 475.834 -4.67677 1.03995 0
M  V30 4972 H 474.198 -2.50548 0.458005 0
M  V30 4973 H 474.981 -2.7019 2.11784 0
M  V30 4974 N 477.426 -0.562348 -1.47226 0
M  V30 4975 C 478.672 -0.0402761 -2.0276 0
M  V30 4976 C 479.005 1.30823 -1.43523 0
M  V30 4977 O 478.28 1.85249 -0.592705 0
M  V30 4978 C 478.563 0.047311 -3.60069 0
M  V30 4979 C 478.416 -1.32865 -4.29729 0
M  V30 4980 C 479.735 0.758182 -4.3352 0
M  V30 4981 H 476.854 -0.0161105 -0.736824 0
M  V30 4982 H 479.496 -0.725628 -1.75598 0
M  V30 4983 H 477.646 0.630986 -3.83342 0
M  V30 4984 H 479.318 -1.95593 -4.17781 0
M  V30 4985 H 477.561 -1.90195 -3.89882 0
M  V30 4986 H 478.232 -1.22004 -5.38349 0
M  V30 4987 H 480.708 0.262546 -4.15271 0
M  V30 4988 H 479.584 0.78844 -5.43208 0
M  V30 4989 H 479.845 1.81537 -4.03109 0
M  V30 4990 N 478.904 1.54736 -0.299062 0
M  V30 4991 C 479.851 2.23448 0.577899 0
M  V30 4992 C 480.821 1.21637 1.13109 0
M  V30 4993 O 482.006 1.50252 1.17597 0
M  V30 4994 C 479.146 2.9774 1.74484 0
M  V30 4995 C 478.259 4.1432 1.22323 0
M  V30 4996 C 477.394 4.76199 2.35388 0
M  V30 4997 C 476.433 5.84927 1.80351 0
M  V30 4998 N 475.57 6.4077 2.86982 0
M  V30 4999 H 480.41 2.97996 -0.0146545 0
M  V30 5000 H 477.947 1.47088 -0.0190013 0
M  V30 5001 H 479.905 3.39045 2.43114 0
M  V30 5002 H 478.535 2.25572 2.30905 0
M  V30 5003 H 477.587 3.7797 0.429249 0
M  V30 5004 H 478.899 4.92659 0.780309 0
M  V30 5005 H 478.053 5.20346 3.11969 0
M  V30 5006 H 476.792 3.97188 2.83006 0
M  V30 5007 H 475.797 5.40207 1.02259 0
M  V30 5008 H 477.022 6.65821 1.3364 0
M  V30 5009 H 474.968 5.64643 3.33938 0
M  V30 5010 H 474.885 7.1445 2.4718 0
M  V30 5011 H 476.153 6.89574 3.63466 0
M  V30 5012 N 480.382 0.0267497 1.57577 0
M  V30 5013 C 481.628 -0.647596 1.92815 0
M  V30 5014 C 481.983 -1.69872 0.903396 0
M  V30 5015 O 481.276 -1.91429 -0.0808881 0
M  V30 5016 C 481.47 -1.30914 3.3256 0
M  V30 5017 C 481.299 -0.323621 4.48534 0
M  V30 5018 C 480.069 0.0756607 5.05243 0
M  V30 5019 C 482.267 0.42112 5.12573 0
M  V30 5020 N 480.249 1.0566 6.04739 0
M  V30 5021 C 481.62 1.25589 6.07147 0
M  V30 5022 C 483.675 0.482077 4.95561 0
M  V30 5023 C 482.378 2.1461 6.86538 0
M  V30 5024 C 484.404 1.35962 5.75559 0
M  V30 5025 C 483.766 2.18217 6.69747 0
M  V30 5026 H 479.865 -0.209357 0.753454 0
M  V30 5027 H 482.449 0.0933695 1.94476 0
M  V30 5028 H 480.62 -2.02026 3.31723 0
M  V30 5029 H 482.352 -1.94033 3.55153 0
M  V30 5030 H 479.107 -0.298294 4.7266 0
M  V30 5031 H 479.531 1.54324 6.59176 0
M  V30 5032 H 484.173 -0.139609 4.22569 0
M  V30 5033 H 481.891 2.77835 7.58837 0
M  V30 5034 H 485.477 1.41105 5.6443 0
M  V30 5035 H 484.357 2.85022 7.3057 0
M  V30 5036 N 481.861 -1.55662 -0.24637 0
M  V30 5037 C 482.771 -1.93495 -1.32653 0
M  V30 5038 C 483.787 -0.835462 -1.5263 0
M  V30 5039 O 484.963 -1.1369 -1.66242 0
M  V30 5040 C 482.028 -2.22242 -2.66101 0
M  V30 5041 C 481.089 -3.45625 -2.54641 0
M  V30 5042 C 480.322 -3.72991 -3.81724 0
M  V30 5043 O 480.545 -3.02421 -4.8363 0
M  V30 5044 O 479.479 -4.66515 -3.80325 0
M  V30 5045 H 483.305 -2.85498 -1.03559 0
M  V30 5046 H 480.89 -1.42551 -0.44717 0
M  V30 5047 H 482.772 -2.42037 -3.44958 0
M  V30 5048 H 481.447 -1.33417 -2.94926 0
M  V30 5049 H 480.354 -3.31136 -1.74067 0
M  V30 5050 H 481.687 -4.34754 -2.3076 0
M  V30 5051 N 483.339 0.512053 -1.4905 0
M  V30 5052 C 484.271 1.63121 -1.6101 0
M  V30 5053 C 485.284 1.55145 -0.493352 0
M  V30 5054 O 486.473 1.61278 -0.764955 0
M  V30 5055 C 483.573 3.01863 -1.54052 0
M  V30 5056 C 482.746 3.35138 -2.81072 0
M  V30 5057 C 481.805 4.5324 -2.67319 0
M  V30 5058 O 480.831 4.55571 -3.41238 0
M  V30 5059 N 482.033 5.52495 -1.78127 0
M  V30 5060 H 484.798 1.53292 -2.5753 0
M  V30 5061 H 482.359 0.699706 -1.45999 0
M  V30 5062 H 484.351 3.78774 -1.42521 0
M  V30 5063 H 482.921 3.05675 -0.654345 0
M  V30 5064 H 482.141 2.4723 -3.07036 0
M  V30 5065 H 483.429 3.54162 -3.65304 0
M  V30 5066 H 482.827 5.53403 -1.17308 0
M  V30 5067 H 481.384 6.28553 -1.72525 0
M  V30 5068 N 484.817 1.37938 0.762283 0
M  V30 5069 C 486.045 1.36883 1.55147 0
M  V30 5070 C 486.46 -0.0435348 1.8875 0
M  V30 5071 O 485.817 -1.00786 1.52146 0
M  V30 5072 C 485.868 2.21624 2.85596 0
M  V30 5073 O 485.589 3.57358 2.5343 0
M  V30 5074 C 487.09 2.28653 3.7978 0
M  V30 5075 H 484.31 0.468521 0.480343 0
M  V30 5076 H 486.854 1.81404 0.944079 0
M  V30 5077 H 485.009 1.80588 3.42734 0
M  V30 5078 H 485.423 4.01883 3.37032 0
M  V30 5079 H 486.897 2.9225 4.68288 0
M  V30 5080 H 487.374 1.29767 4.19592 0
M  V30 5081 H 487.98 2.70043 3.28568 0
M  V30 5082 N 486.295 -0.989507 1.22664 0
M  V30 5083 C 487.228 -2.07805 0.942985 0
M  V30 5084 C 488.206 -1.6219 -0.115356 0
M  V30 5085 O 489.39 -1.88492 0.0169565 0
M  V30 5086 C 486.517 -3.361 0.418898 0
M  V30 5087 C 485.563 -4.00643 1.46244 0
M  V30 5088 S 486.396 -4.41059 3.03689 0
M  V30 5089 C 487.552 -5.7252 2.52927 0
M  V30 5090 H 487.785 -2.31547 1.86476 0
M  V30 5091 H 485.318 -1.12446 1.05808 0
M  V30 5092 H 487.276 -4.10315 0.123114 0
M  V30 5093 H 485.937 -3.10383 -0.481818 0
M  V30 5094 H 485.13 -4.93033 1.04569 0
M  V30 5095 H 484.732 -3.32767 1.7071 0
M  V30 5096 H 487.024 -6.49017 1.94379 0
M  V30 5097 H 487.967 -6.19026 3.4382 0
M  V30 5098 H 488.375 -5.30083 1.94094 0
M  V30 5099 N 487.773 -1.03688 -1.18687 0
M  V30 5100 C 488.723 -0.595067 -2.20098 0
M  V30 5101 C 489.707 0.360465 -1.5681 0
M  V30 5102 O 490.899 0.180136 -1.76081 0
M  V30 5103 C 488.028 0.0444495 -3.43271 0
M  V30 5104 C 487.114 -0.934002 -4.13687 0
M  V30 5105 N 487.505 -2.09957 -4.60165 0
M  V30 5106 C 485.803 -0.759177 -4.39491 0
M  V30 5107 C 486.504 -2.71735 -5.1433 0
M  V30 5108 N 485.48 -1.99638 -5.05614 0
M  V30 5109 H 489.282 -1.48336 -2.5372 0
M  V30 5110 H 486.796 -0.904949 -1.3485 0
M  V30 5111 H 488.793 0.37864 -4.15177 0
M  V30 5112 H 487.453 0.928325 -3.11147 0
M  V30 5113 H 488.464 -2.47863 -4.54735 0
M  V30 5114 H 485.141 0.0749292 -4.17433 0
M  V30 5115 H 486.531 -3.70492 -5.60523 0
M  V30 5116 N 489.251 1.34841 -0.815825 0
M  V30 5117 C 490.214 2.27959 -0.238185 0
M  V30 5118 C 491.214 1.49983 0.579816 0
M  V30 5119 O 492.404 1.69617 0.396953 0
M  V30 5120 C 489.536 3.34314 0.666876 0
M  V30 5121 H 490.729 2.80558 -1.05958 0
M  V30 5122 H 488.282 1.44852 -0.587156 0
M  V30 5123 H 489.017 2.86916 1.5116 0
M  V30 5124 H 488.802 3.92014 0.0819106 0
M  V30 5125 H 490.292 4.0379 1.06506 0
M  V30 5126 N 490.729 0.570148 1.46925 0
M  V30 5127 C 491.978 0.0487352 2.01641 0
M  V30 5128 C 492.291 -1.31433 1.44861 0
M  V30 5129 O 493.497 -1.92638 1.91318 0
M  V30 5130 C 491.953 0.0365817 3.59881 0
M  V30 5131 C 491.561 1.39719 4.25655 0
M  V30 5132 C 493.305 -0.431545 4.22301 0
M  V30 5133 C 491.212 1.34345 5.75939 0
M  V30 5134 H 490.142 0.0144492 0.753862 0
M  V30 5135 H 492.793 0.719928 1.68788 0
M  V30 5136 H 491.175 -0.700522 3.89755 0
M  V30 5137 H 492.349 2.15303 4.07408 0
M  V30 5138 H 490.664 1.80431 3.75278 0
M  V30 5139 H 493.261 -0.490354 5.32447 0
M  V30 5140 H 493.604 -1.44638 3.90366 0
M  V30 5141 H 494.137 0.251102 3.97007 0
M  V30 5142 H 490.876 2.33469 6.12513 0
M  V30 5143 H 490.396 0.629615 5.96486 0
M  V30 5144 H 492.075 1.051 6.38407 0
M  V30 5145 N 492.207 -1.54576 0.307264 0
M  V30 5146 C 493.437 -2.04378 -0.302158 0
M  V30 5147 C 493.845 -1.18381 -1.47589 0
M  V30 5148 O 493.188 -0.20352 -1.82569 0
M  V30 5149 C 493.25 -3.50133 -0.815305 0
M  V30 5150 C 492.914 -4.56401 0.233977 0
M  V30 5151 C 493.911 -5.08884 1.06456 0
M  V30 5152 C 491.596 -5.0088 0.377478 0
M  V30 5153 C 493.59 -6.04394 2.02452 0
M  V30 5154 C 491.277 -5.96208 1.34088 0
M  V30 5155 C 492.275 -6.47849 2.16288 0
M  V30 5156 O 491.963 -7.41308 3.10994 0
M  V30 5157 H 491.695 -0.672502 -0.0686839 0
M  V30 5158 H 494.249 -2.00484 0.446682 0
M  V30 5159 H 492.479 -3.51371 -1.61478 0
M  V30 5160 H 494.168 -3.83098 -1.34129 0
M  V30 5161 H 494.934 -4.75311 0.964596 0
M  V30 5162 H 490.813 -4.60309 -0.252405 0
M  V30 5163 H 494.357 -6.44626 2.66652 0
M  V30 5164 H 490.254 -6.29198 1.44154 0
M  V30 5165 H 491.022 -7.5913 3.06045 0
M  V30 5166 N 493.685 -0.035106 -1.57561 0
M  V30 5167 C 494.595 0.960295 -2.14046 0
M  V30 5168 C 495.611 1.3529 -1.0942 0
M  V30 5169 O 496.787 1.43309 -1.41508 0
M  V30 5170 C 493.852 2.22214 -2.66124 0
M  V30 5171 C 492.913 1.8894 -3.85487 0
M  V30 5172 C 492.146 3.09109 -4.35072 0
M  V30 5173 O 492.369 4.21963 -3.83802 0
M  V30 5174 O 491.303 2.91058 -5.26848 0
M  V30 5175 H 495.129 0.509983 -2.99387 0
M  V30 5176 H 492.714 0.185853 -1.48239 0
M  V30 5177 H 494.596 2.96279 -2.99661 0
M  V30 5178 H 493.271 2.66414 -1.83862 0
M  V30 5179 H 492.178 1.12241 -3.56865 0
M  V30 5180 H 493.511 1.49551 -4.6893 0
M  V30 5181 N 495.163 1.55791 0.238111 0
M  V30 5182 C 496.579 1.48411 0.587045 0
M  V30 5183 C 496.779 0.72702 1.87927 0
M  V30 5184 O 495.835 0.259942 2.51158 0
M  V30 5185 C 497.148 2.92873 0.681623 0
M  V30 5186 C 498.696 3.03295 0.773363 0
M  V30 5187 C 499.171 4.49082 0.899428 0
M  V30 5188 N 500.662 4.53056 0.964075 0
M  V30 5189 C 501.397 5.63117 1.08104 0
M  V30 5190 N 500.893 6.82969 1.16299 0
M  V30 5191 N 502.686 5.50933 1.11488 0
M  V30 5192 H 494.837 2.0345 -0.610076 0
M  V30 5193 H 497.1 0.924034 -0.211813 0
M  V30 5194 H 496.806 3.51142 -0.19802 0
M  V30 5195 H 496.68 3.43851 1.55069 0
M  V30 5196 H 499.067 2.45101 1.64346 0
M  V30 5197 H 499.148 2.55513 -0.121034 0
M  V30 5198 H 498.792 5.07889 0.0338586 0
M  V30 5199 H 498.722 4.94553 1.809 0
M  V30 5200 H 501.213 3.66737 0.91173 0
M  V30 5201 H 501.526 7.62598 1.25155 0
M  V30 5202 H 499.871 6.85712 1.13241 0
M  V30 5203 H 503.062 4.56231 1.0474 0
M  V30 5204 H 503.235 6.36743 1.20259 0
M  V30 5205 N 496.642 -0.504142 1.49319 0
M  V30 5206 C 497.589 -1.60603 1.65756 0
M  V30 5207 C 498.559 -1.58425 0.499082 0
M  V30 5208 O 499.744 -1.76459 0.725728 0
M  V30 5209 C 496.884 -2.98764 1.72726 0
M  V30 5210 C 495.997 -3.10982 2.99857 0
M  V30 5211 C 495.132 -4.39857 2.97824 0
M  V30 5212 C 494.171 -4.45697 4.19548 0
M  V30 5213 N 493.308 -5.65995 4.15444 0
M  V30 5214 H 498.148 -1.45895 2.59843 0
M  V30 5215 H 495.685 -0.709891 1.28837 0
M  V30 5216 H 497.643 -3.78839 1.74747 0
M  V30 5217 H 496.273 -3.12183 0.821075 0
M  V30 5218 H 495.325 -2.23991 3.07461 0
M  V30 5219 H 496.637 -3.11157 3.89849 0
M  V30 5220 H 495.791 -5.2825 2.98391 0
M  V30 5221 H 494.53 -4.42242 2.05604 0
M  V30 5222 H 493.535 -3.55707 4.19229 0
M  V30 5223 H 494.76 -4.4503 5.12957 0
M  V30 5224 H 492.706 -5.69229 3.26059 0
M  V30 5225 H 492.623 -5.67773 4.99169 0
M  V30 5226 H 493.891 -6.56604 4.20109 0
M  V30 5227 N 498.12 -1.38341 -0.754957 0
M  V30 5228 C 499.067 -1.3546 -1.86867 0
M  V30 5229 C 500.037 -0.217369 -1.64672 0
M  V30 5230 O 501.222 -0.409383 -1.86356 0
M  V30 5231 C 498.362 -1.18413 -3.24149 0
M  V30 5232 C 497.475 -2.41511 -3.58185 0
M  V30 5233 C 496.61 -2.17205 -4.84763 0
M  V30 5234 C 495.649 -3.36081 -5.11582 0
M  V30 5235 N 494.786 -3.11219 -6.29354 0
M  V30 5236 H 499.626 -2.30672 -1.88664 0
M  V30 5237 H 497.163 -1.14607 -0.922154 0
M  V30 5238 H 499.121 -1.06545 -4.03366 0
M  V30 5239 H 497.751 -0.268397 -3.21682 0
M  V30 5240 H 496.803 -2.64056 -2.73822 0
M  V30 5241 H 498.115 -3.30115 -3.73932 0
M  V30 5242 H 497.269 -2.02465 -5.7192 0
M  V30 5243 H 496.008 -1.25964 -4.71152 0
M  V30 5244 H 495.013 -3.51341 -4.22894 0
M  V30 5245 H 496.238 -4.28196 -5.27091 0
M  V30 5246 H 494.184 -2.22624 -6.17069 0
M  V30 5247 H 494.101 -3.93373 -6.45596 0
M  V30 5248 H 495.369 -3.00132 -7.19403 0
M  V30 5249 N 499.598 0.982988 -1.23187 0
M  V30 5250 C 500.846 1.72052 -1.06031 0
M  V30 5251 C 501.167 1.90769 0.404019 0
M  V30 5252 O 500.437 1.47446 1.28982 0
M  V30 5253 H 499.017 0.637499 -0.389363 0
M  V30 5254 H 501.679 1.18338 -1.54862 0
M  V30 5255 H 500.775 2.7111 -1.54615 0
M  V30 5256 N 501.076 1.04316 1.18135 0
M  V30 5257 C 502.492 0.762858 1.40188 0
M  V30 5258 C 502.692 -0.646547 1.90846 0
M  V30 5259 O 501.748 -1.41036 2.0944 0
M  V30 5260 C 503.061 1.81106 2.40044 0
M  V30 5261 C 504.609 1.83226 2.53766 0
M  V30 5262 C 505.084 2.87044 3.56889 0
M  V30 5263 N 506.575 2.85951 3.64398 0
M  V30 5264 C 507.31 3.62932 4.43923 0
M  V30 5265 N 506.806 4.49672 5.27036 0
M  V30 5266 N 508.599 3.51411 4.38711 0
M  V30 5267 H 500.75 1.95264 0.835805 0
M  V30 5268 H 503.013 0.845017 0.429709 0
M  V30 5269 H 502.719 2.82214 2.09876 0
M  V30 5270 H 502.593 1.64529 3.39426 0
M  V30 5271 H 504.98 0.827869 2.8325 0
M  V30 5272 H 505.061 2.03879 1.54489 0
M  V30 5273 H 504.705 3.87663 3.28145 0
M  V30 5274 H 504.635 2.63645 4.5585 0
M  V30 5275 H 507.126 2.23051 3.05052 0
M  V30 5276 H 507.439 5.05116 5.84874 0
M  V30 5277 H 505.784 4.53738 5.26447 0
M  V30 5278 H 508.975 2.83047 3.72829 0
M  V30 5279 H 509.148 4.11654 5.00445 0
M  V30 5280 N 502.554 -1.34406 0.822964 0
M  V30 5281 C 503.802 -1.97892 0.410245 0
M  V30 5282 C 504.123 -1.65567 -1.03017 0
M  V30 5283 O 503.393 -0.94642 -1.71522 0
M  V30 5284 H 501.973 -0.732049 0.148707 0
M  V30 5285 H 504.635 -1.64043 1.05242 0
M  V30 5286 H 503.731 -3.07579 0.529284 0
M  V30 5287 N 504.032 -0.577932 -1.46621 0
M  V30 5288 C 505.279 -0.0616879 -2.02406 0
M  V30 5289 C 505.607 1.29638 -1.44997 0
M  V30 5290 O 504.862 1.86176 -0.60308 0
M  V30 5291 C 505.161 0.0590832 -3.57351 0
M  V30 5292 C 504.827 -1.23077 -4.33777 0
M  V30 5293 C 503.489 -1.58416 -4.54376 0
M  V30 5294 C 505.841 -2.08457 -4.77698 0
M  V30 5295 C 503.169 -2.78943 -5.16147 0
M  V30 5296 C 505.521 -3.28204 -5.408 0
M  V30 5297 C 504.185 -3.63832 -5.59627 0
M  V30 5298 H 503.455 -0.0225732 -0.740656 0
M  V30 5299 H 506.102 -0.753609 -1.76048 0
M  V30 5300 H 504.407 0.834104 -3.82818 0
M  V30 5301 H 506.104 0.474202 -3.98186 0
M  V30 5302 H 502.694 -0.945652 -4.18038 0
M  V30 5303 H 506.878 -1.82459 -4.61544 0
M  V30 5304 H 502.134 -3.06689 -5.28916 0
M  V30 5305 H 506.308 -3.94634 -5.73792 0
M  V30 5306 H 503.935 -4.57315 -6.07262 0
M  V30 5307 N 505.51 1.54411 -0.315457 0
M  V30 5308 C 506.921 1.85885 0.174265 0
M  V30 5309 C 507.272 1.23723 1.52273 0
M  V30 5310 O 506.397 0.540246 2.09548 0
M  V30 5311 C 506.992 3.37257 0.322981 0
M  V30 5312 C 505.551 3.68711 0.756922 0
M  V30 5313 C 504.698 2.77013 -0.126195 0
M  V30 5314 H 507.649 1.49374 -0.536007 0
M  V30 5315 H 507.67 3.62539 1.15522 0
M  V30 5316 H 507.182 3.82471 -0.658602 0
M  V30 5317 H 505.283 3.29024 1.74854 0
M  V30 5318 H 505.396 4.75741 0.566291 0
M  V30 5319 H 503.76 2.51588 0.39692 0
M  V30 5320 H 504.543 3.25051 -1.1044 0
M  V30 5321 N 506.988 0.0434614 1.5754 0
M  V30 5322 C 507.92 -0.962586 2.08007 0
M  V30 5323 C 508.933 -1.27972 1.00634 0
M  V30 5324 O 510.122 -1.24186 1.28219 0
M  V30 5325 C 507.222 -2.28621 2.50171 0
M  V30 5326 C 506.395 -2.15214 3.80791 0
M  V30 5327 C 505.454 -3.30633 4.09351 0
M  V30 5328 O 504.48 -3.0688 4.79388 0
M  V30 5329 N 505.682 -4.54873 3.60654 0
M  V30 5330 H 508.447 -0.531891 2.94942 0
M  V30 5331 H 506.008 -0.142965 1.61268 0
M  V30 5332 H 508 -3.04689 2.66359 0
M  V30 5333 H 506.57 -2.63283 1.68525 0
M  V30 5334 H 505.79 -1.23785 3.74261 0
M  V30 5335 H 507.078 -2.03475 4.66343 0
M  V30 5336 H 506.476 -4.77063 3.04019 0
M  V30 5337 H 505.033 -5.2806 3.82094 0
M  V30 5338 N 508.466 -1.55915 -0.229846 0
M  V30 5339 C 509.694 -1.82617 -0.972562 0
M  V30 5340 C 510.109 -0.621488 -1.78278 0
M  V30 5341 O 509.466 0.409956 -1.77836 0
M  V30 5342 C 509.517 -3.0774 -1.89679 0
M  V30 5343 O 509.238 -4.23559 -1.11934 0
M  V30 5344 C 510.739 -3.47368 -2.75409 0
M  V30 5345 H 507.959 -0.60727 -0.285419 0
M  V30 5346 H 510.503 -2.02996 -0.247579 0
M  V30 5347 H 508.658 -2.89361 -2.57583 0
M  V30 5348 H 509.072 -4.94586 -1.74599 0
M  V30 5349 H 510.546 -4.37977 -3.35977 0
M  V30 5350 H 511.023 -2.68737 -3.47386 0
M  V30 5351 H 511.629 -3.68158 -2.12931 0
M  V30 5352 N 509.944 0.496216 -1.49584 0
M  V30 5353 C 511.191 1.25003 -1.59312 0
M  V30 5354 C 511.519 1.92445 -0.28198 0
M  V30 5355 O 510.774 1.81557 0.730452 0
M  V30 5356 C 511.073 2.3359 -2.705 0
M  V30 5357 C 510.739 1.83574 -4.11839 0
M  V30 5358 C 509.401 1.69653 -4.50302 0
M  V30 5359 C 511.753 1.46193 -5.00277 0
M  V30 5360 C 509.081 1.16736 -5.74969 0
M  V30 5361 C 511.433 0.947265 -6.25468 0
M  V30 5362 C 510.097 0.794485 -6.62755 0
M  V30 5363 H 509.367 0.45742 -0.582965 0
M  V30 5364 H 512.014 0.549996 -1.83432 0
M  V30 5365 H 510.319 3.09401 -2.40371 0
M  V30 5366 H 512.016 2.91627 -2.75235 0
M  V30 5367 H 508.606 1.9537 -3.81482 0
M  V30 5368 H 512.79 1.55793 -4.71214 0
M  V30 5369 H 508.046 1.03623 -6.02555 0
M  V30 5370 H 512.22 0.648846 -6.93371 0
M  V30 5371 H 509.847 0.382271 -7.59238 0
M  V30 5372 N 511.423 1.38739 0.74761 0
M  V30 5373 C 512.333 1.38696 1.89211 0
M  V30 5374 C 513.349 0.283303 1.71678 0
M  V30 5375 O 514.525 0.522713 1.94498 0
M  V30 5376 C 511.59 1.21662 3.24653 0
M  V30 5377 C 510.651 2.41886 3.54669 0
M  V30 5378 C 509.884 2.25655 4.83648 0
M  V30 5379 O 510.107 1.25339 5.56459 0
M  V30 5380 O 509.041 3.14372 5.13277 0
M  V30 5381 H 512.867 2.35143 1.92202 0
M  V30 5382 H 510.452 1.19721 0.893708 0
M  V30 5383 H 512.334 1.14246 4.05618 0
M  V30 5384 H 511.009 0.283024 3.2246 0
M  V30 5385 H 509.916 2.54877 2.73841 0
M  V30 5386 H 511.249 3.33895 3.61628 0
M  V30 5387 N 512.901 -0.976442 1.23707 0
M  V30 5388 C 514.147 -1.72081 1.07312 0
M  V30 5389 C 514.48 -1.90275 -0.388476 0
M  V30 5390 O 513.755 -1.4579 -1.28746 0
M  V30 5391 C 514.038 -3.11675 1.80363 0
M  V30 5392 C 513.891 -3.01027 3.3422 0
M  V30 5393 C 515.21 -4.1117 1.5693 0
M  V30 5394 H 512.329 -0.624583 0.391236 0
M  V30 5395 H 514.971 -1.13649 1.52263 0
M  V30 5396 H 513.121 -3.61559 1.42153 0
M  V30 5397 H 514.793 -2.58637 3.81975 0
M  V30 5398 H 513.036 -2.3744 3.63049 0
M  V30 5399 H 513.707 -3.9988 3.80525 0
M  V30 5400 H 516.183 -3.7011 1.90151 0
M  V30 5401 H 515.059 -5.06928 2.10513 0
M  V30 5402 H 515.32 -4.392 0.505548 0
M  V30 5403 N 514.379 -1.04941 -1.1758 0
M  V30 5404 C 515.627 -0.756492 -1.87408 0
M  V30 5405 C 515.948 0.718478 -1.81281 0
M  V30 5406 O 515.218 1.519 -1.23706 0
M  V30 5407 H 513.798 -0.276841 -0.693807 0
M  V30 5408 H 516.46 -1.32803 -1.42652 0
M  V30 5409 H 515.556 -1.06918 -2.93215 0
M  V30 5410 N 515.857 1.33968 -0.830081 0
M  V30 5411 C 517.268 1.80439 -0.479455 0
M  V30 5412 C 517.619 1.68756 1.00079 0
M  V30 5413 O 516.744 1.23171 1.77927 0
M  V30 5414 C 517.339 3.27611 -0.863505 0
M  V30 5415 C 515.898 3.72133 -0.565145 0
M  V30 5416 C 515.045 2.55549 -1.07657 0
M  V30 5417 H 517.996 1.21614 -1.0196 0
M  V30 5418 H 518.017 3.8012 -0.170083 0
M  V30 5419 H 517.529 3.36082 -1.94089 0
M  V30 5420 H 515.63 3.69196 0.502536 0
M  V30 5421 H 515.743 4.65963 -1.11422 0
M  V30 5422 H 514.107 2.49788 -0.497807 0
M  V30 5423 H 514.89 2.66786 -2.16055 0
M  V30 5424 N 517.335 0.585699 1.46312 0
M  V30 5425 C 518.583 0.072278 2.01971 0
M  V30 5426 C 518.904 -1.29345 1.45928 0
M  V30 5427 O 518.174 -1.84973 0.645109 0
M  V30 5428 H 516.754 0.023729 0.746623 0
M  V30 5429 H 519.416 0.762155 1.7938 0
M  V30 5430 H 518.512 0.00552767 3.121 0
M  V30 5431 N 518.813 -1.54241 0.323641 0
M  V30 5432 C 520.229 -1.59574 -0.0290018 0
M  V30 5433 C 520.429 -1.34017 -1.50472 0
M  V30 5434 O 519.485 -1.12464 -2.26071 0
M  V30 5435 C 520.798 -2.98169 0.389295 0
M  V30 5436 C 522.346 -3.11148 0.339958 0
M  V30 5437 C 522.821 -4.5209 0.733418 0
M  V30 5438 N 524.312 -4.5808 0.686827 0
M  V30 5439 C 525.047 -5.65248 0.963464 0
M  V30 5440 N 524.543 -6.80355 1.30724 0
M  V30 5441 N 526.336 -5.55025 0.88902 0
M  V30 5442 H 518.487 -1.6911 1.28512 0
M  V30 5443 H 520.75 -0.790972 0.522558 0
M  V30 5444 H 520.456 -3.21871 1.41746 0
M  V30 5445 H 520.33 -3.76399 -0.245657 0
M  V30 5446 H 522.717 -2.87182 -0.679002 0
M  V30 5447 H 522.798 -2.35023 1.00985 0
M  V30 5448 H 522.442 -4.76788 1.75029 0
M  V30 5449 H 522.372 -5.26584 0.0412189 0
M  V30 5450 H 524.863 -3.75411 0.43298 0
M  V30 5451 H 525.176 -7.58029 1.5037 0
M  V30 5452 H 523.521 -6.81851 1.3455 0
M  V30 5453 H 526.712 -4.63977 0.619939 0
M  V30 5454 H 526.885 -6.38458 1.10797 0
M  V30 5455 N 520.291 -0.0518155 -1.57515 0
M  V30 5456 C 521.223 0.951542 -2.08515 0
M  V30 5457 C 522.236 1.27436 -1.01311 0
M  V30 5458 O 523.425 1.23504 -1.28876 0
M  V30 5459 C 520.525 2.27291 -2.5138 0
M  V30 5460 C 519.698 2.13191 -3.81927 0
M  V30 5461 C 518.757 3.28458 -4.11098 0
M  V30 5462 O 517.783 3.04334 -4.81009 0
M  V30 5463 N 518.985 4.52954 -3.63061 0
M  V30 5464 H 521.75 0.516242 -2.9522 0
M  V30 5465 H 519.311 0.13441 -1.61341 0
M  V30 5466 H 521.303 3.03272 -2.67971 0
M  V30 5467 H 519.873 2.62386 -1.69919 0
M  V30 5468 H 519.093 1.21798 -3.74912 0
M  V30 5469 H 520.381 2.00999 -4.67415 0
M  V30 5470 H 519.779 4.75444 -3.06545 0
M  V30 5471 H 518.336 5.26026 -3.84889 0
M  V30 5472 N 521.769 1.56035 0.221574 0
M  V30 5473 C 522.699 1.95434 1.2778 0
M  V30 5474 C 523.68 0.822564 1.48889 0
M  V30 5475 O 524.865 1.08486 1.61072 0
M  V30 5476 C 521.995 2.27102 2.62759 0
M  V30 5477 C 520.949 3.4277 2.56306 0
M  V30 5478 C 520.275 3.60043 3.95314 0
M  V30 5479 C 521.575 4.77742 2.11093 0
M  V30 5480 H 523.269 2.83912 0.950504 0
M  V30 5481 H 520.815 1.36596 0.455791 0
M  V30 5482 H 522.768 2.53256 3.36807 0
M  V30 5483 H 521.492 1.35478 2.97176 0
M  V30 5484 H 520.151 3.16664 1.84715 0
M  V30 5485 H 519.799 2.65794 4.27039 0
M  V30 5486 H 519.499 4.37841 3.91879 0
M  V30 5487 H 521.023 3.88545 4.71025 0
M  V30 5488 H 522.437 5.03102 2.74885 0
M  V30 5489 H 520.834 5.58823 2.18716 0
M  V30 5490 H 521.904 4.731 1.06321 0
M  V30 5491 N 523.247 -0.488276 1.49845 0
M  V30 5492 C 524.495 -1.23911 1.59657 0
M  V30 5493 C 524.816 -1.92816 0.291005 0
M  V30 5494 O 524.086 -1.83328 -0.690485 0
M  V30 5495 H 522.666 -0.460357 0.588286 0
M  V30 5496 H 525.328 -0.564794 1.86537 0
M  V30 5497 H 524.424 -1.99625 2.39909 0
M  V30 5498 N 524.725 -1.39134 -0.740242 0
M  V30 5499 C 525.688 -1.37217 -1.83587 0
M  V30 5500 C 526.688 -0.270221 -1.58513 0
M  V30 5501 O 527.878 -0.527843 -1.6601 0
M  V30 5502 C 525.01 -1.13959 -3.21288 0
M  V30 5503 H 526.203 -2.34705 -1.86691 0
M  V30 5504 H 523.756 -1.24622 -0.94335 0
M  V30 5505 H 524.491 -0.17131 -3.23847 0
M  V30 5506 H 524.276 -1.93754 -3.40884 0
M  V30 5507 H 525.766 -1.15346 -4.01354 0
M  V30 5508 N 526.204 0.969867 -1.24223 0
M  V30 5509 C 527.453 1.70687 -1.07466 0
M  V30 5510 C 527.766 1.91736 0.386861 0
M  V30 5511 O 528.972 2.62986 0.674581 0
M  V30 5512 C 527.428 3.07217 -1.87472 0
M  V30 5513 C 527.036 2.94018 -3.3802 0
M  V30 5514 C 528.78 3.84804 -1.79237 0
M  V30 5515 C 526.687 4.25844 -4.10379 0
M  V30 5516 H 525.617 0.640067 -0.398536 0
M  V30 5517 H 528.268 1.08092 -1.48285 0
M  V30 5518 H 526.65 3.70628 -1.39466 0
M  V30 5519 H 527.824 2.39632 -3.9359 0
M  V30 5520 H 526.139 2.29898 -3.47183 0
M  V30 5521 H 528.736 4.82417 -2.30603 0
M  V30 5522 H 529.079 4.09356 -0.757197 0
M  V30 5523 H 529.612 3.28115 -2.24912 0
M  V30 5524 H 526.351 4.06486 -5.14246 0
M  V30 5525 H 525.871 4.80054 -3.59594 0
M  V30 5526 H 527.55 4.94475 -4.17257 0
M  V30 5527 N 527.682 1.05563 1.17022 0
M  V30 5528 C 528.612 0.681026 2.23348 0
M  V30 5529 C 529.593 -0.322983 1.67005 0
M  V30 5530 O 530.778 -0.199746 1.9317 0
M  V30 5531 C 527.908 0.0589053 3.4725 0
M  V30 5532 C 526.862 0.988082 4.16438 0
M  V30 5533 C 526.188 0.229646 5.34207 0
M  V30 5534 C 527.488 2.31388 4.68249 0
M  V30 5535 H 529.182 1.56993 2.54938 0
M  V30 5536 H 526.728 0.756302 1.2254 0
M  V30 5537 H 528.681 -0.214982 4.20851 0
M  V30 5538 H 527.405 -0.864968 3.14938 0
M  V30 5539 H 526.064 1.24659 3.44754 0
M  V30 5540 H 525.712 -0.697111 4.98146 0
M  V30 5541 H 525.412 0.848815 5.81437 0
M  V30 5542 H 526.936 -0.0368694 6.10589 0
M  V30 5543 H 528.35 2.09964 5.33468 0
M  V30 5544 H 526.747 2.88736 5.26072 0
M  V30 5545 H 527.817 2.94982 3.84855 0
M  V30 5546 N 529.16 -1.33526 0.837174 0
M  V30 5547 C 530.107 -2.29248 0.267169 0
M  V30 5548 C 531.077 -1.54252 -0.616071 0
M  V30 5549 O 532.262 -1.82559 -0.554699 0
M  V30 5550 C 529.402 -3.40638 -0.553152 0
M  V30 5551 C 528.515 -4.30548 0.353921 0
M  V30 5552 C 527.65 -5.29051 -0.477339 0
M  V30 5553 C 526.689 -6.106 0.42823 0
M  V30 5554 N 525.826 -7.01152 -0.364801 0
M  V30 5555 H 530.666 -2.77398 1.08877 0
M  V30 5556 H 528.203 -1.36496 0.54838 0
M  V30 5557 H 530.161 -4.03921 -1.04422 0
M  V30 5558 H 528.791 -2.93685 -1.33973 0
M  V30 5559 H 527.843 -3.68001 0.963289 0
M  V30 5560 H 529.155 -4.87631 1.04964 0
M  V30 5561 H 528.309 -5.97853 -1.0323 0
M  V30 5562 H 527.048 -4.72541 -1.2065 0
M  V30 5563 H 526.053 -5.40718 0.995219 0
M  V30 5564 H 527.278 -6.69193 1.15573 0
M  V30 5565 H 525.224 -6.47092 -1.07738 0
M  V30 5566 H 525.141 -7.5551 0.272238 0
M  V30 5567 H 526.409 -7.74263 -0.902054 0
M  V30 5568 N 530.638 -0.59345 -1.46 0
M  V30 5569 C 531.863 -0.0872365 -2.07216 0
M  V30 5570 C 532.288 1.2131 -1.43755 0
M  V30 5571 O 531.646 1.73528 -0.525152 0
M  V30 5572 C 531.694 0.0538197 -3.6056 0
M  V30 5573 O 530.798 1.10765 -3.97247 0
M  V30 5574 H 530.139 -0.0676598 -0.660544 0
M  V30 5575 H 532.669 -0.819445 -1.87473 0
M  V30 5576 H 532.679 0.256567 -4.07193 0
M  V30 5577 H 531.354 -0.895739 -4.0614 0
M  V30 5578 H 529.931 0.882501 -3.62307 0
M  V30 5579 N 532.116 1.54067 -0.331816 0
M  V30 5580 C 533.356 2.02625 0.26876 0
M  V30 5581 C 533.72 1.21462 1.48697 0
M  V30 5582 O 534.921 1.59863 2.16096 0
M  V30 5583 C 533.192 3.52554 0.586577 0
M  V30 5584 S 534.751 4.23035 1.16563 0
M  V30 5585 H 531.569 0.706395 0.0807862 0
M  V30 5586 H 534.171 1.89844 -0.466856 0
M  V30 5587 H 532.875 4.09242 -0.308046 0
M  V30 5588 H 532.406 3.69432 1.35217 0
M  V30 5589 H 534.421 4.31382 2.45203 0
M  V30 5590 N 533.594 0.0601682 1.57485 0
M  V30 5591 C 534.542 -0.928899 2.13247 0
M  V30 5592 C 535.536 -1.31616 1.06647 0
M  V30 5593 O 536.742 -1.29476 1.25043 0
M  V30 5594 H 533.117 -0.317455 0.681708 0
M  V30 5595 H 535.088 -0.433566 2.95233 0
M  V30 5596 C 533.837 -2.19121 2.69965 0
M  V30 5597 H 533.16 -1.90204 3.51657 0
M  V30 5598 H 534.6 -2.86465 3.12592 0
M  V30 5599 C 533.059 -2.94195 1.64168 0
M  V30 5600 O 533.589 -3.87468 1.05978 0
M  V30 5601 N 531.795 -2.57089 1.35476 0
M  V30 5602 H 531.342 -1.81314 1.82984 0
M  V30 5603 H 531.3 -3.07624 0.649196 0
M  V30 5604 N 535.072 -1.5615 -0.213296 0
M  V30 5605 C 536.005 -1.88115 -1.29182 0
M  V30 5606 C 536.983 -0.739348 -1.44819 0
M  V30 5607 O 538.167 -0.988541 -1.605 0
M  V30 5608 C 535.294 -2.09541 -2.66102 0
M  V30 5609 C 534.34 -3.32236 -2.67436 0
M  V30 5610 S 535.173 -4.87915 -2.20679 0
M  V30 5611 C 536.329 -5.12387 -3.59458 0
M  V30 5612 H 536.562 -2.793 -1.01876 0
M  V30 5613 H 534.095 -1.48692 -0.415934 0
M  V30 5614 H 536.053 -2.22568 -3.44925 0
M  V30 5615 H 534.714 -1.19138 -2.90628 0
M  V30 5616 H 533.907 -3.44297 -3.6807 0
M  V30 5617 H 533.509 -3.18108 -1.96681 0
M  V30 5618 H 535.801 -5.01791 -4.55205 0
M  V30 5619 H 536.744 -6.14236 -3.52306 0
M  V30 5620 H 537.152 -4.40089 -3.53528 0
M  V30 5621 N 536.55 0.480323 -1.50102 0
M  V30 5622 C 537.482 1.59669 -1.64433 0
M  V30 5623 C 538.495 1.54063 -0.52615 0
M  V30 5624 O 539.684 1.59619 -0.798992 0
M  V30 5625 C 536.784 2.98527 -1.6042 0
M  V30 5626 C 535.957 3.291 -2.88117 0
M  V30 5627 C 535.016 4.47468 -2.76873 0
M  V30 5628 O 534.042 4.4823 -3.50825 0
M  V30 5629 N 535.244 5.48593 -1.89806 0
M  V30 5630 H 538.009 1.47795 -2.60723 0
M  V30 5631 H 535.57 0.66858 -1.4745 0
M  V30 5632 H 537.562 3.75666 -1.50523 0
M  V30 5633 H 536.132 3.04218 -0.719036 0
M  V30 5634 H 535.352 2.40662 -3.12211 0
M  V30 5635 H 536.64 3.46334 -3.72734 0
M  V30 5636 H 536.038 5.50791 -1.2902 0
M  V30 5637 H 534.595 6.24752 -1.85819 0
M  V30 5638 N 538.028 1.39524 0.732853 0
M  V30 5639 C 538.991 1.38189 1.82857 0
M  V30 5640 C 539.991 0.278624 1.58368 0
M  V30 5641 O 541.181 0.536639 1.65728 0
M  V30 5642 C 538.313 1.15661 3.2068 0
M  V30 5643 H 539.506 2.35692 1.85444 0
M  V30 5644 H 537.059 1.2512 0.936728 0
M  V30 5645 H 537.794 0.188482 3.23752 0
M  V30 5646 H 537.579 1.95559 3.39852 0
M  V30 5647 H 539.069 1.17472 4.00737 0
M  V30 5648 N 539.506 -0.963266 1.24736 0
M  V30 5649 C 540.752 -1.71 1.10139 0
M  V30 5650 C 541.107 -1.89089 -0.35541 0
M  V30 5651 O 540.4 -1.44451 -1.25875 0
M  V30 5652 C 540.594 -3.09944 1.7796 0
M  V30 5653 C 540.423 -3.05408 3.30085 0
M  V30 5654 C 539.193 -3.09643 3.99311 0
M  V30 5655 C 541.391 -2.87241 4.26611 0
M  V30 5656 N 539.373 -2.95174 5.3828 0
M  V30 5657 C 540.744 -2.81114 5.52607 0
M  V30 5658 C 542.799 -2.71856 4.17132 0
M  V30 5659 C 541.502 -2.61174 6.70209 0
M  V30 5660 C 543.528 -2.53284 5.34417 0
M  V30 5661 C 542.89 -2.4787 6.59348 0
M  V30 5662 H 538.989 -0.634078 0.457678 0
M  V30 5663 H 541.573 -1.14169 1.57713 0
M  V30 5664 H 539.744 -3.64958 1.32893 0
M  V30 5665 H 541.476 -3.73348 1.56183 0
M  V30 5666 H 538.231 -3.18498 3.50508 0
M  V30 5667 H 538.655 -2.91168 6.11188 0
M  V30 5668 H 543.297 -2.74821 3.21299 0
M  V30 5669 H 541.015 -2.56952 7.6616 0
M  V30 5670 H 544.601 -2.42317 5.28936 0
M  V30 5671 H 543.481 -2.33685 7.48573 0
M  V30 5672 N 540.985 -1.06182 -1.16461 0
M  V30 5673 C 541.932 -0.671613 -2.20812 0
M  V30 5674 C 542.902 0.331186 -1.62765 0
M  V30 5675 O 544.087 0.22033 -1.89524 0
M  V30 5676 C 541.227 -0.063029 -3.45042 0
M  V30 5677 C 540.34 -1.11587 -4.1734 0
M  V30 5678 C 539.475 -0.473546 -5.29085 0
M  V30 5679 C 538.514 -1.51 -5.93182 0
M  V30 5680 N 537.651 -0.891118 -6.96422 0
M  V30 5681 H 542.491 -1.56589 -2.53542 0
M  V30 5682 H 540.028 -0.782951 -1.24532 0
M  V30 5683 H 541.986 0.307344 -4.16066 0
M  V30 5684 H 540.616 0.794663 -3.12866 0
M  V30 5685 H 539.668 -1.60396 -3.44931 0
M  V30 5686 H 540.98 -1.90221 -4.61104 0
M  V30 5687 H 540.134 -0.0501432 -6.06679 0
M  V30 5688 H 538.873 0.344687 -4.8648 0
M  V30 5689 H 537.878 -1.94331 -5.14311 0
M  V30 5690 H 539.103 -2.33031 -6.37866 0
M  V30 5691 H 537.049 -0.0935753 -6.55933 0
M  V30 5692 H 536.966 -1.61486 -7.38551 0
M  V30 5693 H 538.234 -0.492822 -7.77941 0
M  V30 5694 N 542.463 1.3308 -0.844243 0
M  V30 5695 C 543.688 2.02341 -0.455282 0
M  V30 5696 C 544.113 1.6308 0.93737 0
M  V30 5697 O 543.471 0.826118 1.61385 0
M  V30 5698 C 543.519 3.55743 -0.58988 0
M  V30 5699 O 542.623 4.1063 0.38166 0
M  V30 5700 H 541.964 0.637898 -0.184343 0
M  V30 5701 H 544.494 1.6986 -1.14056 0
M  V30 5702 H 544.504 4.05243 -0.473522 0
M  V30 5703 H 543.179 3.83662 -1.60549 0
M  V30 5704 H 541.756 3.72236 0.22241 0
M  V30 5705 N 543.941 0.601185 1.45683 0
M  V30 5706 C 545.171 0.0999093 2.06358 0
M  V30 5707 C 545.579 -1.21831 1.44754 0
M  V30 5708 O 544.922 -1.75157 0.553695 0
M  V30 5709 C 544.984 -0.12085 3.59297 0
M  V30 5710 C 544.648 1.11459 4.432 0
M  V30 5711 C 545.645 2.03118 4.7858 0
M  V30 5712 C 543.33 1.34162 4.84051 0
M  V30 5713 C 545.324 3.15814 5.53661 0
M  V30 5714 C 543.011 2.4716 5.58888 0
M  V30 5715 C 544.009 3.37814 5.93608 0
M  V30 5716 O 543.697 4.48846 6.66928 0
M  V30 5717 H 543.429 0.0630316 0.673055 0
M  V30 5718 H 545.983 0.826982 1.88016 0
M  V30 5719 H 544.213 -0.902744 3.76015 0
M  V30 5720 H 545.902 -0.572925 4.01836 0
M  V30 5721 H 546.668 1.86801 4.47583 0
M  V30 5722 H 542.547 0.645018 4.56465 0
M  V30 5723 H 546.091 3.86596 5.8068 0
M  V30 5724 H 541.988 2.63432 5.89299 0
M  V30 5725 H 542.756 4.47446 6.85371 0
M  V30 5726 N 545.419 -1.53889 0.339982 0
M  V30 5727 C 546.644 -2.05741 -0.261798 0
M  V30 5728 C 547.069 -1.21354 -1.43718 0
M  V30 5729 O 546.427 -0.22645 -1.7988 0
M  V30 5730 C 546.475 -3.54542 -0.658228 0
M  V30 5731 O 545.579 -3.7302 -1.75869 0
M  V30 5732 H 544.92 -0.662529 -0.0441672 0
M  V30 5733 H 547.45 -1.98568 0.493161 0
M  V30 5734 H 547.46 -3.9711 -0.936368 0
M  V30 5735 H 546.135 -4.15412 0.201358 0
M  V30 5736 H 544.712 -3.42355 -1.47809 0
M  V30 5737 N 546.897 -0.0685191 -1.57451 0
M  V30 5738 C 547.86 0.885173 -2.11417 0
M  V30 5739 C 548.86 1.22853 -1.03748 0
M  V30 5740 O 550.05 1.16235 -1.2975 0
M  V30 5741 C 547.182 2.18964 -2.61281 0
M  V30 5742 H 548.375 0.417034 -2.96986 0
M  V30 5743 H 545.928 0.18014 -1.55258 0
M  V30 5744 H 546.663 2.70321 -1.79156 0
M  V30 5745 H 546.448 1.9534 -3.39977 0
M  V30 5746 H 547.938 2.87242 -3.0312 0
M  V30 5747 N 548.375 1.56261 0.205012 0
M  V30 5748 C 549.621 1.80306 0.9283 0
M  V30 5749 C 549.954 0.640932 1.83319 0
M  V30 5750 O 549.229 -0.359032 1.91158 0
M  V30 5751 C 549.512 3.14547 1.75306 0
M  V30 5752 C 549.365 4.41236 0.873562 0
M  V30 5753 C 550.684 3.45382 2.72762 0
M  V30 5754 H 547.803 0.655929 0.336044 0
M  V30 5755 H 550.445 1.88984 0.196211 0
M  V30 5756 H 548.595 3.0728 2.37721 0
M  V30 5757 H 550.267 4.60539 0.264887 0
M  V30 5758 H 548.51 4.33427 0.179773 0
M  V30 5759 H 549.181 5.31639 1.48541 0
M  V30 5760 H 551.657 3.52884 2.20481 0
M  V30 5761 H 550.533 4.40449 3.2756 0
M  V30 5762 H 550.794 2.68377 3.51321 0
M  V30 5763 N 549.853 -0.472356 1.50355 0
M  V30 5764 C 551.13 -1.23356 1.51798 0
M  V30 5765 C 551.51 -2.09469 0.26193 0
M  V30 5766 O 550.858 -2.15677 -0.754691 0
M  V30 5767 C 551.068 -2.06568 2.81302 0
M  V30 5768 C 552.416 -2.648 3.31913 0
M  V30 5769 O 553.44 -2.16812 2.82614 0
M  V30 5770 O 552.299 -3.52231 4.17846 0
M  V30 5771 H 549.393 -0.559707 0.608816 0
M  V30 5772 H 551.939 -0.48428 1.62643 0
M  V30 5773 H 550.711 -1.43103 3.64194 0
M  V30 5774 H 550.334 -2.88633 2.73454 0
M  V30 5775 N 551.331 -1.39911 -0.725443 0
M  V30 5776 C 552.577 -1.37858 -1.48738 0
M  V30 5777 C 552.91 0.0224187 -1.94187 0
M  V30 5778 O 552.185 0.989204 -1.67466 0
M  V30 5779 C 552.468 -2.3594 -2.72038 0
M  V30 5780 C 552.321 -3.85023 -2.32546 0
M  V30 5781 C 553.64 -2.31704 -3.74167 0
M  V30 5782 H 550.759 -0.502074 -0.539528 0
M  V30 5783 H 553.401 -1.70974 -0.828728 0
M  V30 5784 H 551.551 -2.0783 -3.28236 0
M  V30 5785 H 553.223 -4.2392 -1.81905 0
M  V30 5786 H 551.466 -4.01334 -1.64661 0
M  V30 5787 H 552.137 -4.49152 -3.20884 0
M  V30 5788 H 554.613 -2.5658 -3.27576 0
M  V30 5789 H 553.489 -3.02395 -4.58092 0
M  V30 5790 H 553.75 -1.3253 -4.21768 0
M  V30 5791 N 552.809 0.956637 -1.25245 0
M  V30 5792 C 553.739 2.07058 -1.07931 0
M  V30 5793 C 554.72 1.70096 0.0110361 0
M  V30 5794 O 555.905 1.93555 -0.158121 0
M  V30 5795 C 553.035 3.40272 -0.695124 0
M  V30 5796 C 551.989 3.91235 -1.73549 0
M  V30 5797 C 551.315 5.20921 -1.20604 0
M  V30 5798 C 552.615 4.17837 -3.13385 0
M  V30 5799 H 554.309 2.218 -2.01109 0
M  V30 5800 H 551.855 1.06581 -0.968326 0
M  V30 5801 H 553.808 4.1765 -0.560949 0
M  V30 5802 H 552.532 3.25462 0.272355 0
M  V30 5803 H 551.191 3.16025 -1.85807 0
M  V30 5804 H 550.839 5.02479 -0.228846 0
M  V30 5805 H 550.539 5.55987 -1.90136 0
M  V30 5806 H 552.063 6.00897 -1.08421 0
M  V30 5807 H 553.477 4.8588 -3.04292 0
M  V30 5808 H 551.874 4.64154 -3.80369 0
M  V30 5809 H 552.944 3.2419 -3.60595 0
M  V30 5810 N 554.287 1.06798 1.15896 0
M  V30 5811 C 555.219 0.641263 2.20046 0
M  V30 5812 C 556.232 -0.303355 1.59949 0
M  V30 5813 O 557.421 -0.0935478 1.78255 0
M  V30 5814 C 554.521 -0.0794029 3.38807 0
M  V30 5815 C 553.694 0.879986 4.28457 0
M  V30 5816 C 552.753 0.197638 5.25829 0
M  V30 5817 O 551.779 0.836913 5.63014 0
M  V30 5818 N 552.981 -1.05886 5.70761 0
M  V30 5819 H 555.746 1.53718 2.57276 0
M  V30 5820 H 553.307 0.951951 1.30956 0
M  V30 5821 H 555.299 -0.546418 4.00994 0
M  V30 5822 H 553.869 -0.877193 3.0004 0
M  V30 5823 H 553.089 1.52625 3.63454 0
M  V30 5824 H 554.377 1.53065 4.8523 0
M  V30 5825 H 553.775 -1.59828 5.42652 0
M  V30 5826 H 552.332 -1.46965 6.35015 0
M  V30 5827 N 555.766 -1.3263 0.851289 0
M  V30 5828 C 556.994 -2.01563 0.466899 0
M  V30 5829 C 557.409 -1.63996 -0.935447 0
M  V30 5830 O 556.766 -0.85957 -1.6099 0
M  V30 5831 C 556.817 -3.56613 0.592433 0
M  V30 5832 O 556.538 -3.92828 1.93954 0
M  V30 5833 C 558.039 -4.42818 0.206612 0
M  V30 5834 H 555.259 -0.645307 0.183902 0
M  V30 5835 H 557.803 -1.69285 1.1473 0
M  V30 5836 H 555.958 -3.87379 -0.0401936 0
M  V30 5837 H 556.372 -4.87545 1.9339 0
M  V30 5838 H 557.846 -5.50918 0.345462 0
M  V30 5839 H 558.323 -4.30844 -0.85264 0
M  V30 5840 H 558.929 -4.17434 0.814176 0
M  V30 5841 N 557.244 -0.608902 -1.45362 0
M  V30 5842 C 558.174 0.0964526 -2.33301 0
M  V30 5843 C 559.155 0.857444 -1.46908 0
M  V30 5844 O 560.34 0.827735 -1.75676 0
M  V30 5845 C 557.47 1.09354 -3.29635 0
M  V30 5846 C 556.424 0.445676 -4.25673 0
M  V30 5847 C 555.75 1.5511 -5.11708 0
M  V30 5848 C 557.05 -0.633972 -5.18438 0
M  V30 5849 H 558.744 -0.637829 -2.92527 0
M  V30 5850 H 556.29 -0.308178 -1.40664 0
M  V30 5851 H 558.243 1.59556 -3.90025 0
M  V30 5852 H 556.967 1.85843 -2.6857 0
M  V30 5853 H 555.626 -0.0354897 -3.66583 0
M  V30 5854 H 555.274 2.30631 -4.4701 0
M  V30 5855 H 554.974 1.12311 -5.76767 0
M  V30 5856 H 556.498 2.05537 -5.74967 0
M  V30 5857 H 557.912 -0.215974 -5.72893 0
M  V30 5858 H 556.309 -0.983789 -5.91981 0
M  V30 5859 H 557.379 -1.51005 -4.60788 0
M  V30 5860 N 558.722 1.53707 -0.348139 0
M  V30 5861 C 559.632 2.28881 0.514857 0
M  V30 5862 C 560.648 1.34168 1.10793 0
M  V30 5863 O 561.824 1.6721 1.12262 0
M  V30 5864 C 558.889 3.05042 1.64774 0
M  V30 5865 C 557.95 4.15389 1.08398 0
M  V30 5866 C 557.183 4.87909 2.16287 0
M  V30 5867 O 557.406 4.60137 3.3709 0
M  V30 5868 O 556.34 5.74254 1.80323 0
M  V30 5869 H 560.166 3.03547 -0.0963699 0
M  V30 5870 H 557.751 1.48972 -0.113043 0
M  V30 5871 H 559.633 3.52656 2.30677 0
M  V30 5872 H 558.308 2.33228 2.24469 0
M  V30 5873 H 557.215 3.72068 0.389341 0
M  V30 5874 H 558.548 4.89318 0.531829 0
M  V30 5875 N 560.2 0.0768682 1.57412 0
M  V30 5876 C 561.15 -0.898795 2.09537 0
M  V30 5877 C 562.134 -1.25556 1.0062 0
M  V30 5878 O 563.326 -1.23369 1.26921 0
M  V30 5879 C 560.455 -2.16453 2.66464 0
M  V30 5880 C 559.541 -1.83401 3.82393 0
M  V30 5881 N 559.932 -1.20823 4.91157 0
M  V30 5882 C 558.23 -2.13121 3.91785 0
M  V30 5883 C 558.931 -1.05976 5.71965 0
M  V30 5884 N 557.907 -1.57113 5.204 0
M  V30 5885 H 561.709 -0.410718 2.91016 0
M  V30 5886 H 559.223 -0.126878 1.61904 0
M  V30 5887 H 561.22 -2.87274 3.02125 0
M  V30 5888 H 559.88 -2.65844 1.86433 0
M  V30 5889 H 560.891 -0.877249 5.10416 0
M  V30 5890 H 557.568 -2.64854 3.22736 0
M  V30 5891 H 558.958 -0.571809 6.69462 0
M  V30 5892 N 561.678 -1.56367 -0.196722 0
M  V30 5893 C 562.924 -1.80796 -0.918725 0
M  V30 5894 C 563.257 -0.650645 -1.82976 0
M  V30 5895 O 562.532 0.348889 -1.91345 0
M  V30 5896 C 562.815 -3.15472 -1.73636 0
M  V30 5897 C 562.668 -4.41693 -0.85015 0
M  V30 5898 C 563.987 -3.46824 -2.70927 0
M  V30 5899 H 561.106 -0.657702 -0.332561 0
M  V30 5900 H 563.748 -1.89086 -0.186186 0
M  V30 5901 H 561.898 -3.08536 -2.36088 0
M  V30 5902 H 563.57 -4.60673 -0.240459 0
M  V30 5903 H 561.813 -4.33517 -0.156785 0
M  V30 5904 H 562.484 -5.32419 -1.45719 0
M  V30 5905 H 564.96 -3.54049 -2.18607 0
M  V30 5906 H 563.836 -4.4218 -3.25219 0
M  V30 5907 H 564.097 -2.70236 -3.49893 0
M  V30 5908 N 563.156 0.464375 -1.50603 0
M  V30 5909 C 564.433 1.22549 -1.5245 0
M  V30 5910 C 564.813 2.09327 -0.273035 0
M  V30 5911 O 564.161 2.16074 0.743242 0
M  V30 5912 C 564.371 2.05074 -2.82393 0
M  V30 5913 C 565.719 2.63036 -3.33313 0
M  V30 5914 O 566.743 2.1531 -2.8376 0
M  V30 5915 O 565.602 3.5001 -4.19709 0
M  V30 5916 H 562.696 0.556471 -0.611775 0
M  V30 5917 H 565.242 0.475648 -1.62898 0
M  V30 5918 H 564.014 1.41169 -3.64948 0
M  V30 5919 H 563.637 2.87179 -2.7498 0
M  V30 5920 N 564.634 1.40294 0.718013 0
M  V30 5921 C 565.564 1.43118 1.84498 0
M  V30 5922 C 566.545 0.292403 1.67568 0
M  V30 5923 O 567.73 0.500675 1.87635 0
M  V30 5924 C 564.86 1.29065 3.22427 0
M  V30 5925 C 563.814 2.40521 3.54025 0
M  V30 5926 C 563.14 2.11546 4.91073 0
M  V30 5927 C 564.44 3.82859 3.55269 0
M  V30 5928 H 566.134 2.37432 1.82391 0
M  V30 5929 H 563.68 1.14283 0.87609 0
M  V30 5930 H 565.633 1.29658 4.00957 0
M  V30 5931 H 564.357 0.312271 3.25104 0
M  V30 5932 H 563.016 2.39173 2.77834 0
M  V30 5933 H 562.664 1.12104 4.90348 0
M  V30 5934 H 562.364 2.86216 5.1318 0
M  V30 5935 H 563.888 2.13817 5.71939 0
M  V30 5936 H 565.302 3.86044 4.23843 0
M  V30 5937 H 563.699 4.57029 3.88902 0
M  V30 5938 H 564.769 4.12617 2.54706 0
M  V30 5939 N 566.112 -0.949982 1.2575 0
M  V30 5940 C 567.389 -1.6718 1.01539 0
M  V30 5941 C 567.769 -2.06095 -0.456942 0
M  V30 5942 O 567.117 -1.77792 -1.43534 0
M  V30 5943 C 567.327 -2.8906 1.95564 0
M  V30 5944 C 568.675 -3.60909 2.23673 0
M  V30 5945 O 569.699 -2.9915 1.9336 0
M  V30 5946 O 568.558 -4.72127 2.75243 0
M  V30 5947 H 565.652 -0.731697 0.385419 0
M  V30 5948 H 568.198 -1.00249 1.36924 0
M  V30 5949 H 566.97 -2.57128 2.94959 0
M  V30 5950 H 566.593 -3.63719 1.60605 0
M  V30 5951 N 567.59 -1.07411 -1.15328 0
M  V30 5952 C 569.001 -0.820261 -1.67716 0
M  V30 5953 C 569.352 0.654539 -1.8496 0
M  V30 5954 O 568.477 1.50664 -1.55337 0
M  V30 5955 C 569.072 -1.48242 -3.04647 0
M  V30 5956 C 567.631 -1.27606 -3.5411 0
M  V30 5957 C 566.778 -1.5517 -2.29821 0
M  V30 5958 H 569.729 -1.23608 -0.995332 0
M  V30 5959 H 569.75 -0.903984 -3.69606 0
M  V30 5960 H 569.262 -2.55578 -2.92064 0
M  V30 5961 H 567.363 -0.222948 -3.71932 0
M  V30 5962 H 567.476 -1.99667 -4.35511 0
M  V30 5963 H 565.84 -0.972747 -2.35393 0
M  V30 5964 H 566.623 -2.63689 -2.19824 0
M  V30 5965 N 569.068 1.32177 -0.85831 0
M  V30 5966 C 570 2.27688 -0.262835 0
M  V30 5967 C 571.013 1.52588 0.567513 0
M  V30 5968 O 572.202 1.74156 0.391407 0
M  V30 5969 C 569.302 3.32668 0.646937 0
M  V30 5970 C 568.475 4.37148 -0.148372 0
M  V30 5971 C 567.534 5.21686 0.687728 0
M  V30 5972 O 566.56 5.69074 0.119934 0
M  V30 5973 N 567.762 5.44892 2.00182 0
M  V30 5974 H 570.527 2.79426 -1.08356 0
M  V30 5975 H 568.088 1.45076 -0.718647 0
M  V30 5976 H 570.08 3.86134 1.2117 0
M  V30 5977 H 568.65 2.81061 1.36834 0
M  V30 5978 H 567.87 3.83915 -0.894572 0
M  V30 5979 H 569.158 5.04038 -0.694514 0
M  V30 5980 H 568.556 5.08128 2.4864 0
M  V30 5981 H 567.113 6.0134 2.51463 0
M  V30 5982 N 570.547 0.616602 1.45037 0
M  V30 5983 C 571.457 -0.0985401 2.34393 0
M  V30 5984 C 572.473 -0.850971 1.51771 0
M  V30 5985 O 573.649 -0.806521 1.84546 0
M  V30 5986 C 570.714 -1.07748 3.29532 0
M  V30 5987 C 569.775 -0.326022 4.2806 0
M  V30 5988 C 569.008 -1.25833 5.18654 0
M  V30 5989 O 569.231 -2.49652 5.12864 0
M  V30 5990 O 568.165 -0.750512 5.97203 0
M  V30 5991 H 571.991 0.636016 2.96966 0
M  V30 5992 H 569.576 0.376832 1.44569 0
M  V30 5993 H 571.458 -1.64107 3.88133 0
M  V30 5994 H 570.133 -1.79291 2.69512 0
M  V30 5995 H 569.04 0.280253 3.73049 0
M  V30 5996 H 570.373 0.349091 4.9096 0
M  V30 5997 N 572.025 -1.5352 0.356285 0
M  V30 5998 C 573.436 -1.86282 -0.12492 0
M  V30 5999 C 573.787 -1.27717 -1.48939 0
M  V30 6000 O 572.912 -0.595614 -2.08042 0
M  V30 6001 C 573.507 -3.37995 -0.23345 0
M  V30 6002 C 572.066 -3.70588 -0.658899 0
M  V30 6003 C 571.213 -2.76581 0.199596 0
M  V30 6004 H 574.164 -1.47901 0.575423 0
M  V30 6005 H 574.185 -3.65475 -1.0587 0
M  V30 6006 H 573.697 -3.8059 0.759776 0
M  V30 6007 H 571.798 -3.33544 -1.66069 0
M  V30 6008 H 571.911 -4.77076 -0.439957 0
M  V30 6009 H 570.275 -2.52552 -0.330076 0
M  V30 6010 H 571.058 -3.22008 1.19019 0
M  V30 6011 N 573.503 -0.0852151 -1.57369 0
M  V30 6012 C 574.914 0.445428 -1.81309 0
M  V30 6013 C 575.265 1.68795 -1.00013 0
M  V30 6014 O 574.39 2.15211 -0.226573 0
M  V30 6015 C 574.985 0.814887 -3.28854 0
M  V30 6016 C 573.544 1.29032 -3.53592 0
M  V30 6017 C 572.691 0.282089 -2.75861 0
M  V30 6018 H 575.642 -0.310771 -1.55627 0
M  V30 6019 H 575.663 1.67524 -3.41637 0
M  V30 6020 H 575.175 -0.0896309 -3.87996 0
M  V30 6021 H 573.276 2.21289 -2.9977 0
M  V30 6022 H 573.389 1.25898 -4.62262 0
M  V30 6023 H 571.753 0.762182 -2.43029 0
M  V30 6024 H 572.536 -0.614936 -3.37748 0
M  V30 6025 N 574.981 1.5647 0.188427 0
M  V30 6026 C 576.397 1.50204 0.539532 0
M  V30 6027 C 576.597 0.78644 1.85519 0
M  V30 6028 O 575.653 0.339714 2.50204 0
M  V30 6029 C 576.966 2.94893 0.588103 0
M  V30 6030 C 578.514 3.05602 0.67648 0
M  V30 6031 C 578.989 4.51716 0.756101 0
M  V30 6032 N 580.48 4.55894 0.819451 0
M  V30 6033 C 581.215 5.66272 0.90134 0
M  V30 6034 N 580.711 6.86323 0.945118 0
M  V30 6035 N 582.504 5.54201 0.939043 0
M  V30 6036 H 574.655 2.01406 -0.674493 0
M  V30 6037 H 576.918 0.916828 -0.241103 0
M  V30 6038 H 576.624 3.50334 -0.309633 0
M  V30 6039 H 576.498 3.4861 1.44051 0
M  V30 6040 H 578.885 2.50206 1.56465 0
M  V30 6041 H 578.966 2.54999 -0.202262 0
M  V30 6042 H 578.61 5.07739 -0.12774 0
M  V30 6043 H 578.54 5.00058 1.65074 0
M  V30 6044 H 581.031 3.69452 0.794594 0
M  V30 6045 H 581.344 7.66194 1.0083 0
M  V30 6046 H 579.689 6.88968 0.913683 0
M  V30 6047 H 582.88 4.59333 0.901725 0
M  V30 6048 H 583.053 6.40247 0.999402 0
M  V30 6049 O 576.498 -0.333583 1.58017 0
M  V30 6050 H 577.189 -0.982643 1.66925 0
M  V30 END ATOM
M  V30 BEGIN BOND
M  V30 END BOND
M  V30 END CTAB
M  END
$$$$
