drugbank_target|Q8IW54 Phosphodiesterase 2A, cGMP-stimulated (DB05142; DB09273)
 OpenBabel12092120313D

  0  0  0     0  0            999 V3000
M  V30 BEGIN CTAB
M  V30 COUNTS 14730 14876 0 0 0
M  V30 BEGIN ATOM
M  V30 1 H -0.908 1.98254 -0.117106 0
M  V30 2 N 0 1.576 0 0
M  V30 3 C 0.933 2.03868 1.02534 0
M  V30 4 C 1.911 0.928543 1.3348 0
M  V30 5 O 3.095 1.19667 1.45644 0
M  V30 6 C 0.222 2.43627 2.35294 0
M  V30 7 C -0.732 3.65373 2.2001 0
M  V30 8 S 0.101 5.13292 1.52614 0
M  V30 9 C 1.257 5.56322 2.86805 0
M  V30 10 H 1.49 2.90518 0.631377 0
M  V30 11 H -0.977 1.52953 0.210867 0
M  V30 12 H 0.981 2.67203 3.11629 0
M  V30 13 H -0.358 1.57376 2.7183 0
M  V30 14 H -1.165 3.90944 3.18086 0
M  V30 15 H -1.563 3.418 1.51819 0
M  V30 16 H 0.729 5.58782 3.83104 0
M  V30 17 H 1.672 6.56266 2.65933 0
M  V30 18 H 2.08 4.83886 2.90714 0
M  V30 19 N 1.4781 -0.272755 1.55222 0
M  V30 20 C 2.7261 -1.00234 1.75492 0
M  V30 21 C 3.0471 -1.8681 0.5592 0
M  V30 22 O 2.3171 -1.91215 -0.425882 0
M  V30 23 H 0.8971 -0.373076 0.647166 0
M  V30 24 H 3.5591 -0.296926 1.92625 0
M  V30 25 H 2.6551 -1.63913 2.65592 0
M  V30 26 N 2.9562 -1.48159 -0.537278 0
M  V30 27 C 3.8882 -1.58218 -1.65831 0
M  V30 28 C 4.9012 -0.466948 -1.5596 0
M  V30 29 O 6.0902 -0.73747 -1.62553 0
M  V30 30 C 3.1902 -1.48906 -3.04434 0
M  V30 31 C 2.3632 -2.75343 -3.3986 0
M  V30 32 C 1.4222 -2.59588 -4.57712 0
M  V30 33 O 0.4482 -3.33457 -4.61297 0
M  V30 34 N 1.6502 -1.68724 -5.55439 0
M  V30 35 H 4.4152 -2.54891 -1.57641 0
M  V30 36 H 1.9762 -1.4479 -0.724386 0
M  V30 37 H 3.9682 -1.36072 -3.81139 0
M  V30 38 H 2.5382 -0.602368 -3.06741 0
M  V30 39 H 1.7582 -3.02795 -2.52406 0
M  V30 40 H 3.0462 -3.5924 -3.60311 0
M  V30 41 H 2.4442 -1.07898 -5.55315 0
M  V30 42 H 1.0012 -1.61832 -6.3139 0
M  V30 43 N 4.4343 0.785586 -1.36625 0
M  V30 44 C 5.3973 1.87999 -1.31107 0
M  V30 45 C 6.3973 1.59316 -0.217959 0
M  V30 46 O 7.5873 1.67656 -0.472977 0
M  V30 47 C 4.7193 3.24861 -1.03334 0
M  V30 48 H 5.9123 1.94307 -2.2844 0
M  V30 49 H 3.4653 0.983813 -1.21453 0
M  V30 50 H 4.2003 3.24235 -0.0647432 0
M  V30 51 H 3.9853 3.4707 -1.82441 0
M  V30 52 H 5.4753 4.04929 -1.02088 0
M  V30 53 N 5.9124 1.20967 1.01018 0
M  V30 54 C 7.1524 1.03511 1.76252 0
M  V30 55 C 7.5164 -0.42458 1.87247 0
M  V30 56 O 8.7174 -0.719508 2.58991 0
M  V30 57 C 6.9884 1.70726 3.13986 0
M  V30 58 S 8.5474 1.68458 4.05176 0
M  V30 59 H 5.3654 0.371037 0.606508 0
M  V30 60 H 7.9674 1.53628 1.20908 0
M  V30 61 H 6.6714 2.76128 3.03614 0
M  V30 62 H 6.2024 1.20767 3.74405 0
M  V30 63 H 8.2174 0.721987 4.90919 0
M  V30 64 N 7.3905 -1.2043 1.01659 0
M  V30 65 C 8.6385 -1.89423 0.704522 0
M  V30 66 C 8.9595 -1.79231 -0.768197 0
M  V30 67 O 8.2295 -1.1947 -1.55254 0
M  V30 68 H 6.8095 -0.701178 0.257602 0
M  V30 69 H 9.4715 -1.4626 1.28818 0
M  V30 70 H 8.5675 -2.96052 0.987916 0
M  V30 71 N 8.8686 -0.792821 -1.36206 0
M  V30 72 C 9.8186 -0.166598 -2.27391 0
M  V30 73 C 10.8026 0.651479 -1.47121 0
M  V30 74 O 11.9946 0.510994 -1.69463 0
M  V30 75 C 9.1236 0.695033 -3.36191 0
M  V30 76 C 8.2096 -0.132019 -4.23894 0
M  V30 77 N 8.6006 -1.18822 -4.91645 0
M  V30 78 C 6.8986 0.0885952 -4.45912 0
M  V30 79 C 7.5996 -1.69198 -5.56549 0
M  V30 80 N 6.5756 -1.00065 -5.34311 0
M  V30 81 H 10.3776 -0.974947 -2.77258 0
M  V30 82 H 7.8916 -0.632616 -1.49572 0
M  V30 83 H 9.8886 1.1596 -4.00448 0
M  V30 84 H 8.5486 1.50189 -2.87877 0
M  V30 85 H 9.5596 -1.57069 -4.93507 0
M  V30 86 H 6.2366 0.865688 -4.08426 0
M  V30 87 H 7.6266 -2.57395 -6.20643 0
M  V30 88 N 10.3467 1.47872 -0.545128 0
M  V30 89 C 11.5717 2.07391 -0.0190611 0
M  V30 90 C 11.9967 1.39688 1.25971 0
M  V30 91 O 11.3547 0.467816 1.7516 0
M  V30 92 C 11.4027 3.60188 0.172335 0
M  V30 93 O 10.5067 3.9339 1.23766 0
M  V30 94 H 9.8477 0.662411 -0.0459059 0
M  V30 95 H 12.3777 1.90066 -0.757365 0
M  V30 96 H 12.3877 4.06129 0.390305 0
M  V30 97 H 11.0627 4.08865 -0.761725 0
M  V30 98 H 9.6397 3.5921 1.00114 0
M  V30 99 N 11.8248 0.280983 1.55075 0
M  V30 100 C 13.0738 -0.334784 1.98902 0
M  V30 101 C 13.3868 -1.56534 1.17288 0
M  V30 102 O 14.5928 -2.25443 1.51287 0
M  V30 103 C 13.0488 -0.646994 3.54037 0
M  V30 104 C 12.6568 0.564085 4.44435 0
M  V30 105 C 14.4008 -1.22506 4.06439 0
M  V30 106 C 12.3078 0.226137 5.90967 0
M  V30 107 H 11.2378 -0.128866 0.742906 0
M  V30 108 H 13.8888 0.386556 1.79382 0
M  V30 109 H 12.2708 -1.42739 3.6938 0
M  V30 110 H 13.4448 1.34082 4.40861 0
M  V30 111 H 11.7598 1.0594 4.02698 0
M  V30 112 H 14.3568 -1.49182 5.13468 0
M  V30 113 H 14.6998 -2.16085 3.55827 0
M  V30 114 H 15.2328 -0.50682 3.94558 0
M  V30 115 H 11.9718 1.12996 6.45687 0
M  V30 116 H 11.4918 -0.513717 5.97596 0
M  V30 117 H 13.1708 -0.179539 6.46751 0
M  V30 118 N 13.3029 -1.57598 0.00835791 0
M  V30 119 C 14.2329 -2.1198 -0.979113 0
M  V30 120 C 15.2139 -1.03091 -1.35301 0
M  V30 121 O 16.3989 -1.30818 -1.43528 0
M  V30 122 C 13.5289 -2.62995 -2.26828 0
M  V30 123 C 12.4829 -3.76485 -2.03576 0
M  V30 124 C 11.8089 -4.13846 -3.38579 0
M  V30 125 C 13.1089 -5.0342 -1.39161 0
M  V30 126 H 14.8029 -2.94738 -0.526281 0
M  V30 127 H 12.3489 -1.41783 -0.251704 0
M  V30 128 H 14.3019 -2.99669 -2.96271 0
M  V30 129 H 13.0259 -1.7737 -2.7424 0
M  V30 130 H 11.6849 -3.40217 -1.36557 0
M  V30 131 H 11.3329 -3.25232 -3.83709 0
M  V30 132 H 11.0329 -4.90312 -3.23834 0
M  V30 133 H 12.5569 -4.53086 -4.09323 0
M  V30 134 H 13.9709 -5.37812 -1.98573 0
M  V30 135 H 12.3679 -5.84746 -1.34878 0
M  V30 136 H 13.4379 -4.83548 -0.361868 0
M  V30 137 N 14.781 0.264519 -1.55364 0
M  V30 138 C 16.021 1.00254 -1.78125 0
M  V30 139 C 16.385 1.83187 -0.575017 0
M  V30 140 O 17.586 2.60029 -0.681042 0
M  V30 141 C 15.857 1.85478 -3.05504 0
M  V30 142 S 17.416 2.6543 -3.49417 0
M  V30 143 H 14.234 0.337522 -0.625779 0
M  V30 144 H 16.836 0.272111 -1.93597 0
M  V30 145 H 15.54 1.23491 -3.9138 0
M  V30 146 H 15.071 2.62827 -2.92721 0
M  V30 147 H 17.086 3.87958 -3.09359 0
M  V30 148 N 16.2591 1.48442 0.529413 0
M  V30 149 C 17.6751 1.34575 0.858004 0
M  V30 150 C 17.8751 0.3572 1.98309 0
M  V30 151 O 16.9311 -0.221379 2.51528 0
M  V30 152 C 18.2441 2.74617 1.22499 0
M  V30 153 C 19.7921 2.83109 1.33484 0
M  V30 154 C 20.2671 4.23854 1.73526 0
M  V30 155 N 21.7581 4.2653 1.80628 0
M  V30 156 C 22.4931 5.32372 2.12997 0
M  V30 157 N 21.9891 6.48491 2.43786 0
M  V30 158 N 23.7821 5.19766 2.14008 0
M  V30 159 H 15.9331 2.1133 -0.212925 0
M  V30 160 H 18.1961 0.947439 -0.0326199 0
M  V30 161 H 17.9021 3.4852 0.471905 0
M  V30 162 H 17.7761 3.08177 2.17501 0
M  V30 163 H 20.1631 2.09462 2.0787 0
M  V30 164 H 20.2441 2.53168 0.366027 0
M  V30 165 H 19.8881 4.98018 0.997013 0
M  V30 166 H 19.8181 4.5124 2.71459 0
M  V30 167 H 22.3091 3.42772 1.59108 0
M  V30 168 H 22.6221 7.24993 2.67592 0
M  V30 169 H 20.9671 6.51765 2.41304 0
M  V30 170 H 24.1581 4.28066 1.89412 0
M  V30 171 H 24.3311 6.02354 2.38902 0
M  V30 172 N 17.7372 -0.778329 1.37039 0
M  V30 173 C 18.9622 -1.57248 1.35233 0
M  V30 174 C 19.3872 -1.87999 -0.0615568 0
M  V30 175 O 18.7452 -1.48734 -1.03672 0
M  V30 176 C 18.7932 -2.86353 2.19167 0
M  V30 177 O 17.8972 -3.80442 1.59178 0
M  V30 178 H 17.2382 -0.476569 0.462362 0
M  V30 179 H 19.7682 -0.963853 1.80474 0
M  V30 180 H 19.7782 -3.35519 2.32145 0
M  V30 181 H 18.4532 -2.63299 3.21942 0
M  V30 182 H 17.0302 -3.39067 1.55203 0
M  V30 183 N 19.2153 -1.21501 -1.00376 0
M  V30 184 C 20.1473 -0.933174 -2.09343 0
M  V30 185 C 21.1603 0.0840896 -1.62583 0
M  V30 186 O 22.3493 -0.148563 -1.77881 0
M  V30 187 C 19.4493 -0.379869 -3.36764 0
M  V30 188 C 18.6223 -1.45176 -4.12605 0
M  V30 189 C 17.6813 -0.907476 -5.18316 0
M  V30 190 O 16.7073 -1.5912 -5.46507 0
M  V30 191 N 17.9093 0.276649 -5.7984 0
M  V30 192 H 20.6743 -1.87124 -2.34104 0
M  V30 193 H 18.2353 -1.12043 -1.16867 0
M  V30 194 H 20.2273 -0.00131488 -4.047 0
M  V30 195 H 18.7973 0.463048 -3.09151 0
M  V30 196 H 18.0173 -2.00411 -3.39454 0
M  V30 197 H 19.3053 -2.17328 -4.6005 0
M  V30 198 H 18.7033 0.849147 -5.59291 0
M  V30 199 H 17.2603 0.596702 -6.49063 0
M  V30 200 N 20.6934 1.19889 -1.02296 0
M  V30 201 C 21.6254 2.22334 -0.556787 0
M  V30 202 C 22.6384 1.58674 0.364199 0
M  V30 203 O 23.8274 1.77768 0.161533 0
M  V30 204 C 20.9274 3.38257 0.208694 0
M  V30 205 C 20.1004 4.31504 -0.71577 0
M  V30 206 C 19.1594 5.262 0.00325597 0
M  V30 207 O 18.1854 5.65798 -0.621357 0
M  V30 208 N 19.3874 5.66303 1.27599 0
M  V30 209 H 22.1524 2.62957 -1.43784 0
M  V30 210 H 19.7134 1.34495 -0.901261 0
M  V30 211 H 21.7054 3.98616 0.699111 0
M  V30 212 H 20.2754 2.96472 0.991102 0
M  V30 213 H 19.4954 3.69016 -1.38638 0
M  V30 214 H 20.7834 4.9072 -1.34428 0
M  V30 215 H 20.1814 5.36155 1.80429 0
M  V30 216 H 18.7384 6.28942 1.71102 0
M  V30 217 N 22.1715 0.800033 1.35784 0
M  V30 218 C 23.4015 0.389041 2.02904 0
M  V30 219 C 23.8095 -1.0027 1.60445 0
M  V30 220 O 23.1525 -1.65633 0.794453 0
M  V30 221 C 23.2145 0.385495 3.57427 0
M  V30 222 C 22.8785 1.72662 4.23127 0
M  V30 223 C 23.8755 2.68385 4.4527 0
M  V30 224 C 21.5605 2.00883 4.60381 0
M  V30 225 C 23.5545 3.90517 5.03761 0
M  V30 226 C 21.2415 3.2328 5.18588 0
M  V30 227 C 22.2395 4.17915 5.40218 0
M  V30 228 O 21.9275 5.38153 5.97199 0
M  V30 229 H 21.6595 0.157032 0.657508 0
M  V30 230 H 24.2135 1.08311 1.74522 0
M  V30 231 H 22.4435 -0.365128 3.84972 0
M  V30 232 H 24.1325 -0.00228296 4.059 0
M  V30 233 H 24.8985 2.47872 4.16874 0
M  V30 234 H 20.7775 1.28037 4.42863 0
M  V30 235 H 24.3215 4.64395 5.2056 0
M  V30 236 H 20.2185 3.43667 5.4641 0
M  V30 237 H 20.9865 5.3936 6.15656 0
M  V30 238 N 23.6496 -1.47581 0.552962 0
M  V30 239 C 25.0606 -1.86324 0.118463 0
M  V30 240 C 25.4116 -1.46006 -1.3106 0
M  V30 241 O 24.5366 -0.861182 -1.98526 0
M  V30 242 C 25.1316 -3.3816 0.20821 0
M  V30 243 C 23.6906 -3.7601 -0.171226 0
M  V30 244 C 22.8376 -2.71634 0.557686 0
M  V30 245 H 25.7886 -1.39159 0.762928 0
M  V30 246 H 25.8096 -3.76141 -0.574278 0
M  V30 247 H 25.3216 -3.67473 1.24841 0
M  V30 248 H 23.4226 -3.52313 -1.21269 0
M  V30 249 H 23.5356 -4.78745 0.184379 0
M  V30 250 H 21.8996 -2.547 0.00125792 0
M  V30 251 H 22.6826 -3.0379 1.59896 0
M  V30 252 N 25.1277 -0.289203 -1.54924 0
M  V30 253 C 26.0907 0.579144 -2.21762 0
M  V30 254 C 27.0907 1.07047 -1.1999 0
M  V30 255 O 28.2807 0.968384 -1.44803 0
M  V30 256 C 25.4127 1.80055 -2.8947 0
M  V30 257 H 26.6057 -0.00464908 -2.999 0
M  V30 258 H 24.1587 -0.0399306 -1.56249 0
M  V30 259 H 24.8937 2.42449 -2.15381 0
M  V30 260 H 24.6787 1.45602 -3.64064 0
M  V30 261 H 26.1687 2.41773 -3.40493 0
M  V30 262 N 26.6058 1.57591 -0.0167156 0
M  V30 263 C 27.5688 2.08393 0.954204 0
M  V30 264 C 28.5688 0.996531 1.26198 0
M  V30 265 O 29.7588 1.25858 1.20438 0
M  V30 266 C 26.8908 2.5394 2.27436 0
M  V30 267 H 28.0838 2.95455 0.514451 0
M  V30 268 H 25.6368 1.54582 0.231089 0
M  V30 269 H 26.3718 1.70171 2.76066 0
M  V30 270 H 26.1568 3.33371 2.06412 0
M  V30 271 H 27.6468 2.93512 2.97053 0
M  V30 272 N 28.0839 -0.256276 1.55502 0
M  V30 273 C 29.4999 -0.604325 1.47716 0
M  V30 274 C 29.6999 -1.88763 0.705039 0
M  V30 275 O 28.7559 -2.51445 0.230613 0
M  V30 276 C 30.0689 -0.715756 2.92057 0
M  V30 277 C 31.6169 -0.808706 3.02372 0
M  V30 278 C 32.0919 -0.951777 4.48001 0
M  V30 279 N 33.5829 -1.01688 4.519 0
M  V30 280 C 34.3179 -1.14668 5.61817 0
M  V30 281 N 33.8139 -1.24261 6.81565 0
M  V30 282 N 35.6069 -1.1791 5.49594 0
M  V30 283 H 27.7579 0.586291 2.04148 0
M  V30 284 H 30.0209 0.201015 0.926443 0
M  V30 285 H 29.7269 0.157027 3.51349 0
M  V30 286 H 29.6009 -1.59071 3.42018 0
M  V30 287 H 31.9879 -1.67195 2.43166 0
M  V30 288 H 32.0689 0.0912063 2.55637 0
M  V30 289 H 31.7129 -0.0931291 5.07815 0
M  V30 290 H 31.6429 -1.86659 4.92408 0
M  V30 291 H 34.1339 -0.954468 3.65648 0
M  V30 292 H 34.4469 -1.34046 7.61086 0
M  V30 293 H 32.7919 -1.21236 6.84344 0
M  V30 294 H 35.9829 -1.10057 4.54978 0
M  V30 295 H 36.1559 -1.27681 6.35296 0
M  V30 296 N 29.562 -1.4872 -0.521534 0
M  V30 297 C 30.973 -1.50607 -1.10337 0
M  V30 298 C 31.324 -0.280612 -1.94183 0
M  V30 299 O 30.449 0.611507 -2.0758 0
M  V30 300 C 31.044 -2.72903 -2.00772 0
M  V30 301 C 29.603 -2.77634 -2.54158 0
M  V30 302 C 28.75 -2.44241 -1.31307 0
M  V30 303 H 31.701 -1.55714 -0.306388 0
M  V30 304 H 31.722 -2.519 -2.85178 0
M  V30 305 H 31.234 -3.62077 -1.39721 0
M  V30 306 H 29.335 -1.92689 -3.18907 0
M  V30 307 H 29.448 -3.79283 -2.92714 0
M  V30 308 H 27.812 -1.95577 -1.63161 0
M  V30 309 H 28.595 -3.35666 -0.719943 0
M  V30 310 N 31.0401 0.771051 -1.3745 0
M  V30 311 C 32.0031 1.86598 -1.33093 0
M  V30 312 C 33.0031 1.59076 -0.234845 0
M  V30 313 O 34.1931 1.67145 -0.490732 0
M  V30 314 C 31.3251 3.23747 -1.06773 0
M  V30 315 H 32.5181 1.91873 -2.30488 0
M  V30 316 H 30.0711 0.970876 -1.2249 0
M  V30 317 H 30.8061 3.24148 -0.099129 0
M  V30 318 H 30.5911 3.45115 -1.86112 0
M  V30 319 H 32.0811 4.03824 -1.06377 0
M  V30 320 N 32.5182 1.22032 0.997298 0
M  V30 321 C 33.4282 1.00271 2.12092 0
M  V30 322 C 34.4442 -0.047621 1.73935 0
M  V30 323 O 35.6202 0.144136 2.00884 0
M  V30 324 C 32.6852 0.578449 3.4184 0
M  V30 325 C 31.7462 1.70189 3.94125 0
M  V30 326 C 30.9792 1.29778 5.17681 0
M  V30 327 O 31.2022 0.174676 5.70132 0
M  V30 328 O 30.1362 2.11261 5.63607 0
M  V30 329 H 33.9622 1.94398 2.3333 0
M  V30 330 H 31.5472 1.00587 1.10465 0
M  V30 331 H 33.4292 0.351998 4.19927 0
M  V30 332 H 32.1042 -0.334019 3.21972 0
M  V30 333 H 31.0112 1.98282 3.1723 0
M  V30 334 H 32.3442 2.59206 4.18417 0
M  V30 335 N 33.9963 -1.19345 1.0293 0
M  V30 336 C 35.4073 -1.70725 0.755633 0
M  V30 337 C 35.7583 -1.82326 -0.724676 0
M  V30 338 O 34.8833 -1.49471 -1.56484 0
M  V30 339 C 35.4783 -3.10084 1.36503 0
M  V30 340 C 34.0373 -3.58723 1.13994 0
M  V30 341 C 33.1843 -2.35577 1.46283 0
M  V30 342 H 36.1353 -1.0418 1.19718 0
M  V30 343 H 36.1563 -3.72787 0.762217 0
M  V30 344 H 35.6683 -3.01609 2.44241 0
M  V30 345 H 33.7693 -3.72512 0.0807901 0
M  V30 346 H 33.8823 -4.42816 1.82894 0
M  V30 347 H 32.2463 -2.38935 0.88217 0
M  V30 348 H 33.0293 -2.29731 2.55105 0
M  V30 349 N 35.4744 -0.807222 -1.35358 0
M  V30 350 C 36.8904 -0.491038 -1.51858 0
M  V30 351 C 37.0904 0.987648 -1.75635 0
M  V30 352 O 36.1464 1.77265 -1.79815 0
M  V30 353 C 37.4594 -1.33695 -2.69344 0
M  V30 354 C 39.0074 -1.33246 -2.83222 0
M  V30 355 C 39.4824 -2.1625 -4.03733 0
M  V30 356 N 40.9734 -2.1379 -4.10911 0
M  V30 357 C 41.7084 -2.74772 -5.03277 0
M  V30 358 N 41.2044 -3.44684 -6.0097 0
M  V30 359 N 42.9974 -2.6441 -4.96028 0
M  V30 360 H 35.1484 -1.76485 -1.18181 0
M  V30 361 H 37.4114 -0.751199 -0.578276 0
M  V30 362 H 37.1174 -2.38634 -2.58354 0
M  V30 363 H 36.9914 -0.990618 -3.6396 0
M  V30 364 H 39.3784 -0.290911 -2.93663 0
M  V30 365 H 39.4594 -1.71866 -1.89461 0
M  V30 366 H 39.1034 -3.20445 -3.94052 0
M  V30 367 H 39.0334 -1.74989 -4.96675 0
M  V30 368 H 41.5244 -1.62923 -3.40976 0
M  V30 369 H 41.8374 -3.88501 -6.68047 0
M  V30 370 H 40.1824 -3.48788 -6.01142 0
M  V30 371 H 43.3734 -2.0938 -4.18662 0
M  V30 372 H 43.5464 -3.12225 -5.6782 0
M  V30 373 N 36.9525 1.47285 -0.560781 0
M  V30 374 C 38.2005 2.02064 -0.0379868 0
M  V30 375 C 38.5215 1.43711 1.31803 0
M  V30 376 O 37.7915 0.61362 1.86042 0
M  V30 377 H 36.3715 0.746918 -0.0110531 0
M  V30 378 H 39.0335 1.80648 -0.731598 0
M  V30 379 H 38.1295 3.12064 0.0474463 0
M  V30 380 N 38.4306 0.297415 1.54768 0
M  V30 381 C 39.3626 -0.613881 2.20826 0
M  V30 382 C 40.3756 -1.10032 1.19987 0
M  V30 383 O 41.5646 -1.01839 1.46598 0
M  V30 384 C 38.6646 -1.852 2.83821 0
M  V30 385 C 37.8376 -1.50865 4.10559 0
M  V30 386 C 36.8966 -2.60154 4.57391 0
M  V30 387 O 35.9226 -2.25398 5.2267 0
M  V30 388 N 37.1246 -3.90629 4.29406 0
M  V30 389 H 39.8896 -0.048389 2.99661 0
M  V30 390 H 37.4506 0.11946 1.61459 0
M  V30 391 H 39.4426 -2.57652 3.12086 0
M  V30 392 H 38.0126 -2.32597 2.08847 0
M  V30 393 H 37.2326 -0.616925 3.89343 0
M  V30 394 H 38.5206 -1.25458 4.9309 0
M  V30 395 H 37.9186 -4.21677 3.77101 0
M  V30 396 H 36.4756 -4.59391 4.62388 0
M  V30 397 N 39.9087 -1.5758 0.0250728 0
M  V30 398 C 40.8407 -2.06869 -0.986796 0
M  V30 399 C 41.8537 -0.991332 -1.29137 0
M  V30 400 O 43.0427 -1.26761 -1.25674 0
M  V30 401 C 40.1427 -2.47486 -2.31525 0
M  V30 402 C 39.3157 -3.78253 -2.19643 0
M  V30 403 C 38.3747 -4.05464 -3.35388 0
M  V30 404 O 37.4007 -4.75774 -3.12454 0
M  V30 405 N 38.6027 -3.55321 -4.59051 0
M  V30 406 H 41.3677 -2.94302 -0.566276 0
M  V30 407 H 38.9287 -1.6109 -0.161776 0
M  V30 408 H 40.9207 -2.62785 -3.07776 0
M  V30 409 H 39.4907 -1.65441 -2.65232 0
M  V30 410 H 38.7107 -3.7279 -1.28144 0
M  V30 411 H 39.9987 -4.63936 -2.08903 0
M  V30 412 H 39.3967 -2.98431 -4.80578 0
M  V30 413 H 37.9537 -3.75905 -5.32483 0
M  V30 414 N 41.3868 0.248026 -1.55636 0
M  V30 415 C 42.6328 0.97767 -1.77678 0
M  V30 416 C 42.9658 1.85016 -0.590135 0
M  V30 417 O 42.2408 1.90095 0.411611 0
M  V30 418 C 42.5238 1.83914 -3.09593 0
M  V30 419 C 42.3768 0.99491 -4.38659 0
M  V30 420 C 43.6958 2.82183 -3.37729 0
M  V30 421 H 40.8148 0.354005 -0.646413 0
M  V30 422 H 43.4568 0.248253 -1.88371 0
M  V30 423 H 41.6068 2.46104 -3.00608 0
M  V30 424 H 43.2788 0.391789 -4.59633 0
M  V30 425 H 41.5218 0.299231 -4.32767 0
M  V30 426 H 42.1928 1.63145 -5.2734 0
M  V30 427 H 44.6688 2.30129 -3.4667 0
M  V30 428 H 43.5448 3.39582 -4.31249 0
M  V30 429 H 43.8058 3.58588 -2.58586 0
M  V30 430 N 42.8649 1.48995 0.513639 0
M  V30 431 C 44.1119 1.57843 1.26854 0
M  V30 432 C 44.4399 0.259501 1.92761 0
M  V30 433 O 43.6949 -0.75159 1.80692 0
M  V30 434 C 43.9939 2.67756 2.36731 0
M  V30 435 C 43.6599 4.09669 1.88368 0
M  V30 436 C 42.3219 4.48291 1.74896 0
M  V30 437 C 44.6739 4.98537 1.52021 0
M  V30 438 C 42.0019 5.73568 1.23438 0
M  V30 439 C 44.3539 6.24319 1.0202 0
M  V30 440 C 43.0179 6.61783 0.871778 0
M  V30 441 H 42.2879 0.577587 0.464192 0
M  V30 442 H 44.9349 1.82778 0.571366 0
M  V30 443 H 43.2399 2.36743 3.12185 0
M  V30 444 H 44.9369 2.71813 2.9482 0
M  V30 445 H 41.5269 3.79176 1.99808 0
M  V30 446 H 45.7109 4.69363 1.61281 0
M  V30 447 H 40.9669 6.01304 1.10648 0
M  V30 448 H 45.1409 6.92566 0.729722 0
M  V30 449 H 42.7679 7.5874 0.470852 0
M  V30 450 N 44.343 -0.763751 1.37857 0
M  V30 451 C 45.273 -1.89103 1.36975 0
M  V30 452 C 46.254 -1.68439 0.237152 0
M  V30 453 O 47.439 -1.8918 0.438713 0
M  V30 454 C 44.569 -3.26496 1.18395 0
M  V30 455 C 43.523 -3.61741 2.28751 0
M  V30 456 C 42.849 -4.97762 1.95286 0
M  V30 457 C 44.149 -3.67665 3.70972 0
M  V30 458 H 45.843 -1.90099 2.31307 0
M  V30 459 H 43.389 -0.91319 1.11341 0
M  V30 460 H 45.342 -4.05003 1.16406 0
M  V30 461 H 44.066 -3.25955 0.205215 0
M  V30 462 H 42.725 -2.85547 2.29909 0
M  V30 463 H 42.373 -4.93769 0.959221 0
M  V30 464 H 42.073 -5.22313 2.69189 0
M  V30 465 H 43.597 -5.7866 1.94898 0
M  V30 466 H 45.011 -4.36307 3.719 0
M  V30 467 H 43.408 -4.03718 4.43995 0
M  V30 468 H 44.478 -2.68134 4.0402 0
M  V30 469 N 45.8211 -1.22559 -0.990812 0
M  V30 470 C 46.7681 -0.997519 -2.0813 0
M  V30 471 C 47.7381 0.0814702 -1.659 0
M  V30 472 O 48.9231 -0.0685424 -1.90677 0
M  V30 473 C 46.0631 -0.583615 -3.40129 0
M  V30 474 C 45.1761 -1.7336 -3.9569 0
M  V30 475 C 44.3111 -1.26748 -5.15857 0
M  V30 476 C 43.3501 -2.38888 -5.63559 0
M  V30 477 N 42.4871 -1.93308 -6.74964 0
M  V30 478 H 47.3271 -1.93099 -2.26973 0
M  V30 479 H 44.8641 -0.962114 -1.11273 0
M  V30 480 H 46.8221 -0.324801 -4.15934 0
M  V30 481 H 45.4521 0.312845 -3.2128 0
M  V30 482 H 44.5041 -2.10669 -3.16738 0
M  V30 483 H 45.8161 -2.57704 -4.27071 0
M  V30 484 H 44.9701 -0.966173 -5.98957 0
M  V30 485 H 43.7091 -0.394272 -4.86104 0
M  V30 486 H 42.7141 -2.69805 -4.79046 0
M  V30 487 H 43.9391 -3.26728 -5.95336 0
M  V30 488 H 41.8851 -1.08352 -6.4699 0
M  V30 489 H 41.8021 -2.71217 -7.05675 0
M  V30 490 H 43.0701 -1.66252 -7.61564 0
M  V30 491 N 47.2992 1.18797 -1.03562 0
M  V30 492 C 48.7102 1.70322 -0.764676 0
M  V30 493 C 49.0612 1.82708 0.714996 0
M  V30 494 O 48.1862 1.50299 1.55689 0
M  V30 495 C 48.7812 3.09356 -1.38145 0
M  V30 496 C 47.3402 3.58114 -1.15895 0
M  V30 497 C 46.4872 2.34798 -1.4753 0
M  V30 498 H 49.4382 1.03543 -1.20268 0
M  V30 499 H 49.4592 3.72378 -0.781977 0
M  V30 500 H 48.9712 3.00309 -2.45837 0
M  V30 501 H 47.0722 3.72464 -0.100544 0
M  V30 502 H 47.1852 4.4184 -1.8524 0
M  V30 503 H 45.5492 2.38464 -0.894829 0
M  V30 504 H 46.3322 2.28375 -2.56319 0
M  V30 505 N 48.7773 0.814389 1.34928 0
M  V30 506 C 50.0543 0.321363 1.92942 0
M  V30 507 C 50.4343 -1.19014 1.74353 0
M  V30 508 O 49.7823 -1.99328 1.11716 0
M  V30 509 C 49.9923 0.741323 3.41036 0
M  V30 510 C 51.3403 0.735266 4.18185 0
M  V30 511 O 52.3643 0.68336 3.49584 0
M  V30 512 O 51.2233 0.800703 5.40602 0
M  V30 513 H 48.3173 0.0858893 0.822528 0
M  V30 514 H 50.8633 0.898609 1.43955 0
M  V30 515 H 49.6353 1.78276 3.4833 0
M  V30 516 H 49.2583 0.139307 3.97356 0
M  V30 517 N 50.2554 -1.46986 0.568584 0
M  V30 518 C 51.1654 -2.33942 -0.17555 0
M  V30 519 C 52.1814 -1.48891 -0.90041 0
M  V30 520 O 53.3574 -1.81794 -0.86676 0
M  V30 521 C 50.4224 -3.25811 -1.18524 0
M  V30 522 C 49.4834 -4.26757 -0.466582 0
M  V30 523 C 48.7164 -5.14236 -1.42817 0
M  V30 524 O 48.9394 -5.04379 -2.66379 0
M  V30 525 O 47.8734 -5.94412 -0.946453 0
M  V30 526 H 51.6994 -2.98896 0.538036 0
M  V30 527 H 49.2844 -1.4573 0.329097 0
M  V30 528 H 51.1664 -3.82527 -1.76779 0
M  V30 529 H 49.8414 -2.63471 -1.88055 0
M  V30 530 H 48.7484 -3.73769 0.157451 0
M  V30 531 H 50.0814 -4.91843 0.187485 0
M  V30 532 N 51.7335 -0.305618 -1.54608 0
M  V30 533 C 53.1445 0.186098 -1.8577 0
M  V30 534 C 53.4955 1.53058 -1.22751 0
M  V30 535 O 52.6205 2.09888 -0.526893 0
M  V30 536 C 53.2155 0.344449 -3.37044 0
M  V30 537 C 51.7745 0.780384 -3.68221 0
M  V30 538 C 50.9215 -0.108554 -2.77087 0
M  V30 539 H 53.8725 -0.526485 -1.49712 0
M  V30 540 H 53.8935 1.17828 -3.61796 0
M  V30 541 H 53.4055 -0.634235 -3.82883 0
M  V30 542 H 51.5065 1.76945 -3.27904 0
M  V30 543 H 51.6195 0.596572 -4.75371 0
M  V30 544 H 49.9835 0.412931 -2.5133 0
M  V30 545 H 50.7665 -1.08368 -3.25747 0
M  V30 546 N 53.2116 1.57565 -0.0334293 0
M  V30 547 C 54.6226 1.79746 0.504798 0
M  V30 548 C 54.9736 0.944091 1.71992 0
M  V30 549 O 54.0986 0.155694 2.15839 0
M  V30 550 C 54.6936 3.25997 0.922567 0
M  V30 551 C 53.2526 3.49159 1.40588 0
M  V30 552 C 52.3996 2.74785 0.372633 0
M  V30 553 H 55.3506 1.56565 -0.259436 0
M  V30 554 H 55.3716 3.35945 1.78666 0
M  V30 555 H 54.8836 3.88081 0.0379825 0
M  V30 556 H 52.9846 2.92332 2.31025 0
M  V30 557 H 53.0976 4.57873 1.41028 0
M  V30 558 H 51.4616 2.40391 0.841672 0
M  V30 559 H 52.2446 3.39587 -0.503559 0
M  V30 560 N 54.6897 -0.239769 1.55765 0
M  V30 561 C 56.1007 -0.808263 1.68297 0
M  V30 562 C 56.4517 -1.85736 0.632181 0
M  V30 563 O 55.5767 -2.15277 -0.220204 0
M  V30 564 C 56.1717 -1.47284 3.05111 0
M  V30 565 C 54.7307 -1.98895 3.19559 0
M  V30 566 C 53.8777 -0.842575 2.64189 0
M  V30 567 H 56.8287 -0.0154422 1.58692 0
M  V30 568 H 56.8497 -2.34111 2.99954 0
M  V30 569 H 56.3617 -0.709053 3.81568 0
M  V30 570 H 54.4627 -2.78132 2.47938 0
M  V30 571 H 54.5757 -2.18143 4.26556 0
M  V30 572 H 52.9397 -1.24501 2.22197 0
M  V30 573 H 53.7227 -0.0917552 3.43177 0
M  V30 574 N 56.1678 -1.49265 -0.50573 0
M  V30 575 C 57.5788 -1.51769 -1.08734 0
M  V30 576 C 57.9298 -0.301192 -1.93874 0
M  V30 577 O 57.0548 0.589456 -2.08217 0
M  V30 578 C 57.6498 -2.75017 -1.97867 0
M  V30 579 C 56.2088 -2.80314 -2.51199 0
M  V30 580 C 55.3558 -2.4562 -1.28709 0
M  V30 581 H 58.3068 -1.56031 -0.289855 0
M  V30 582 H 58.3278 -2.5491 -2.82491 0
M  V30 583 H 57.8398 -3.63539 -1.35873 0
M  V30 584 H 55.9408 -1.96061 -3.16845 0
M  V30 585 H 56.0538 -3.82366 -2.88675 0
M  V30 586 H 54.4178 -1.97297 -1.61078 0
M  V30 587 H 55.2008 -3.36411 -0.6843 0
M  V30 588 N 57.6459 0.756429 -1.3826 0
M  V30 589 C 59.0569 1.33359 -1.30661 0
M  V30 590 C 59.4079 1.96161 0.0388875 0
M  V30 591 O 58.5329 1.94874 0.940918 0
M  V30 592 C 59.1279 2.42477 -2.36622 0
M  V30 593 C 57.6869 2.95922 -2.3261 0
M  V30 594 C 56.8339 1.69275 -2.19639 0
M  V30 595 H 59.7849 0.55552 -1.4866 0
M  V30 596 H 59.8059 3.22345 -2.02174 0
M  V30 597 H 59.3179 1.96739 -3.34538 0
M  V30 598 H 57.4189 3.45996 -1.38267 0
M  V30 599 H 57.5319 3.50494 -3.26636 0
M  V30 600 H 55.8959 1.92793 -1.66442 0
M  V30 601 H 56.6789 1.25619 -3.19491 0
M  V30 602 N 59.124 1.23083 0.984299 0
M  V30 603 C 60.056 0.96636 2.07832 0
M  V30 604 C 61.069 -0.0582135 1.62696 0
M  V30 605 O 62.258 0.176843 1.77622 0
M  V30 606 C 59.358 0.433397 3.36117 0
M  V30 607 C 58.531 1.51722 4.10243 0
M  V30 608 C 57.59 0.989821 5.16807 0
M  V30 609 O 56.616 1.67794 5.43906 0
M  V30 610 N 57.818 -0.184367 5.80207 0
M  V30 611 H 60.583 1.90824 2.31098 0
M  V30 612 H 58.144 1.13888 1.1507 0
M  V30 613 H 60.136 0.065699 4.04647 0
M  V30 614 H 58.706 -0.413806 3.09849 0
M  V30 615 H 57.926 2.05786 3.36223 0
M  V30 616 H 59.214 2.24619 4.56534 0
M  V30 617 H 58.612 -0.760062 5.60571 0
M  V30 618 H 57.169 -0.493366 6.4993 0
M  V30 619 N 60.6021 -1.18246 1.0419 0
M  V30 620 C 61.5341 -2.2142 0.592088 0
M  V30 621 C 62.5471 -1.59233 -0.338909 0
M  V30 622 O 63.7361 -1.78002 -0.133231 0
M  V30 623 C 60.8361 -3.38546 -0.154854 0
M  V30 624 C 60.0091 -4.3031 0.784328 0
M  V30 625 C 59.0681 -5.26138 0.0804583 0
M  V30 626 O 58.0941 -5.64738 0.711292 0
M  V30 627 N 59.2961 -5.68261 -1.18574 0
M  V30 628 H 62.0611 -2.60636 1.47949 0
M  V30 629 H 59.6221 -1.33044 0.922544 0
M  V30 630 H 61.6141 -3.99678 -0.635606 0
M  V30 631 H 60.1841 -2.98012 -0.943811 0
M  V30 632 H 59.4041 -3.66764 1.44491 0
M  V30 633 H 60.6921 -4.8852 1.42218 0
M  V30 634 H 60.0901 -5.38957 -1.71876 0
M  V30 635 H 58.6471 -6.31584 -1.61074 0
M  V30 636 N 62.0802 -0.821533 -1.34494 0
M  V30 637 C 63.3202 -0.414785 -2.00147 0
M  V30 638 C 63.6842 1.00299 -1.6372 0
M  V30 639 O 64.8852 1.51255 -2.22206 0
M  V30 640 C 63.1562 -0.609403 -3.52166 0
M  V30 641 S 64.7152 -0.295297 -4.37805 0
M  V30 642 H 61.5332 -0.15679 -0.693497 0
M  V30 643 H 64.1352 -1.06705 -1.63812 0
M  V30 644 H 62.8392 -1.64096 -3.76166 0
M  V30 645 H 62.3702 0.0576414 -3.93358 0
M  V30 646 H 64.3852 0.891531 -4.88125 0
M  V30 647 N 63.5583 1.46682 -0.576371 0
M  V30 648 C 64.5213 2.28707 0.150239 0
M  V30 649 C 65.5213 1.38035 0.824794 0
M  V30 650 O 66.7113 1.60476 0.677719 0
M  V30 651 C 63.8433 3.18248 1.22192 0
M  V30 652 H 65.0363 2.94423 -0.570521 0
M  V30 653 H 62.5893 1.52688 -0.334078 0
M  V30 654 H 63.3243 2.57265 1.97447 0
M  V30 655 H 63.1093 3.85 0.742812 0
M  V30 656 H 64.5993 3.80001 1.73172 0
M  V30 657 N 65.0364 0.313813 1.54444 0
M  V30 658 C 66.3134 -0.345447 1.92525 0
M  V30 659 C 66.6934 -1.70667 1.24242 0
M  V30 660 O 66.0414 -2.25273 0.382654 0
M  V30 661 C 66.2514 -0.44737 3.46121 0
M  V30 662 C 67.5994 -0.712238 4.18584 0
M  V30 663 O 68.6234 -0.530678 3.52225 0
M  V30 664 O 67.4824 -1.06183 5.36085 0
M  V30 665 H 64.5764 -0.195407 0.803583 0
M  V30 666 H 67.1224 0.362813 1.65776 0
M  V30 667 H 65.8944 0.509043 3.87975 0
M  V30 668 H 65.5174 -1.20359 3.78945 0
M  V30 669 N 66.5145 -1.57545 0.0417849 0
M  V30 670 C 67.7395 -1.97035 -0.647455 0
M  V30 671 C 68.1645 -0.918775 -1.64135 0
M  V30 672 O 67.5225 0.119006 -1.80909 0
M  V30 673 C 67.5705 -3.35609 -1.31905 0
M  V30 674 O 66.6745 -3.3287 -2.43457 0
M  V30 675 H 66.0155 -0.64211 -0.169086 0
M  V30 676 H 68.5455 -2.04318 0.107399 0
M  V30 677 H 68.5555 -3.72126 -1.67291 0
M  V30 678 H 67.2305 -4.11685 -0.590586 0
M  V30 679 H 65.8075 -3.08087 -2.10088 0
M  V30 680 N 67.9926 0.231505 -1.5589 0
M  V30 681 C 68.9226 1.29022 -1.94617 0
M  V30 682 C 69.9036 1.4941 -0.813067 0
M  V30 683 O 71.0886 1.6176 -1.07459 0
M  V30 684 C 68.2186 2.64199 -2.25424 0
M  V30 685 C 67.1726 2.58484 -3.41131 0
M  V30 686 C 66.4986 3.97599 -3.57518 0
M  V30 687 C 67.7986 2.1413 -4.76388 0
M  V30 688 H 69.4926 0.968563 -2.83301 0
M  V30 689 H 67.0386 0.464479 -1.36303 0
M  V30 690 H 68.9916 3.38413 -2.51107 0
M  V30 691 H 67.7156 2.98032 -1.33583 0
M  V30 692 H 66.3746 1.86727 -3.15481 0
M  V30 693 H 66.0226 4.28723 -2.6307 0
M  V30 694 H 65.7226 3.94659 -4.35337 0
M  V30 695 H 67.2466 4.7349 -3.85538 0
M  V30 696 H 68.6606 2.78083 -5.01341 0
M  V30 697 H 67.0576 2.2227 -5.57419 0
M  V30 698 H 68.1276 1.09331 -4.72414 0
M  V30 699 N 69.4707 1.49531 0.497807 0
M  V30 700 C 70.4027 1.62559 1.61578 0
M  V30 701 C 71.4157 0.508134 1.54667 0
M  V30 702 O 72.6047 0.780309 1.60541 0
M  V30 703 C 69.7047 1.56925 3.00379 0
M  V30 704 C 68.8777 2.84257 3.3244 0
M  V30 705 C 67.9367 2.71632 4.50669 0
M  V30 706 O 66.9627 3.4557 4.52294 0
M  V30 707 N 68.1647 1.83391 5.5077 0
M  V30 708 H 70.9297 2.58981 1.50828 0
M  V30 709 H 68.4907 1.4666 0.685743 0
M  V30 710 H 70.4827 1.46129 3.77397 0
M  V30 711 H 69.0527 0.683483 3.05037 0
M  V30 712 H 68.2727 3.09381 2.44289 0
M  V30 713 H 69.5607 3.68666 3.5066 0
M  V30 714 H 68.9587 1.22583 5.52259 0
M  V30 715 H 67.5157 1.78515 6.26878 0
M  V30 716 N 70.9488 -0.749086 1.3866 0
M  V30 717 C 72.2258 -1.4992 1.25632 0
M  V30 718 C 72.6058 -2.10633 -0.140317 0
M  V30 719 O 71.9538 -1.97437 -1.15025 0
M  V30 720 C 72.1638 -2.56195 2.36992 0
M  V30 721 C 73.5118 -3.22972 2.75634 0
M  V30 722 O 74.5358 -2.66502 2.36337 0
M  V30 723 O 73.3948 -4.25122 3.43415 0
M  V30 724 H 70.4888 -0.665067 0.491544 0
M  V30 725 H 73.0348 -0.784113 1.50498 0
M  V30 726 H 71.8068 -2.09612 3.30422 0
M  V30 727 H 71.4298 -3.35279 2.13714 0
M  V30 728 N 72.4269 -1.23603 -0.977757 0
M  V30 729 C 73.3899 -1.02069 -2.05218 0
M  V30 730 C 74.3899 0.0184305 -1.60789 0
M  V30 731 O 75.5799 -0.221569 -1.72785 0
M  V30 732 C 72.7119 -0.544926 -3.36517 0
M  V30 733 H 73.9049 -1.9742 -2.25755 0
M  V30 734 H 71.4579 -1.05684 -1.15155 0
M  V30 735 H 72.1929 0.412241 -3.21669 0
M  V30 736 H 71.9779 -1.2948 -3.70105 0
M  V30 737 H 73.4679 -0.414985 -4.15533 0
M  V30 738 N 73.905 1.17692 -1.04816 0
M  V30 739 C 74.835 2.23777 -0.666791 0
M  V30 740 C 75.816 1.66796 0.33361 0
M  V30 741 O 77.001 1.93039 0.212042 0
M  V30 742 C 74.131 3.47281 -0.0367933 0
M  V30 743 C 73.085 4.17059 -0.961546 0
M  V30 744 C 72.411 5.34342 -0.195626 0
M  V30 745 C 73.711 4.69713 -2.28402 0
M  V30 746 H 75.405 2.55933 -1.55367 0
M  V30 747 H 72.951 1.23019 -0.748484 0
M  V30 748 H 74.904 4.20706 0.241775 0
M  V30 749 H 73.628 3.14381 0.885004 0
M  V30 750 H 72.287 3.45541 -1.22462 0
M  V30 751 H 71.935 4.97692 0.728816 0
M  V30 752 H 71.635 5.81966 -0.811775 0
M  V30 753 H 73.159 6.10553 0.0757473 0
M  V30 754 H 74.573 5.34794 -2.06563 0
M  V30 755 H 72.97 5.279 -2.8538 0
M  V30 756 H 74.04 3.86726 -2.92525 0
M  V30 757 N 75.3831 0.828654 1.34056 0
M  V30 758 C 76.3131 0.269443 2.3194 0
M  V30 759 C 77.2941 -0.617247 1.58506 0
M  V30 760 O 78.4791 -0.542931 1.86456 0
M  V30 761 C 75.6091 -0.564793 3.42677 0
M  V30 762 C 74.5631 0.225241 4.27407 0
M  V30 763 C 73.8891 -0.7321 5.29664 0
M  V30 764 C 75.1891 1.43663 5.02154 0
M  V30 765 H 76.8831 1.08728 2.7896 0
M  V30 766 H 74.4291 0.524283 1.34117 0
M  V30 767 H 76.3821 -0.966233 4.10173 0
M  V30 768 H 75.1061 -1.41574 2.9432 0
M  V30 769 H 73.7651 0.608117 3.61521 0
M  V30 770 H 73.4131 -1.57916 4.77568 0
M  V30 771 H 73.1131 -0.20767 5.87233 0
M  V30 772 H 74.6371 -1.13128 6.00029 0
M  V30 773 H 76.0511 1.1089 5.62473 0
M  V30 774 H 74.4481 1.89711 5.69324 0
M  V30 775 H 75.5181 2.21181 4.31517 0
M  V30 776 N 76.8612 -1.46375 0.584142 0
M  V30 777 C 78.0862 -2.07268 0.0740405 0
M  V30 778 C 78.5112 -1.42979 -1.22223 0
M  V30 779 O 77.8692 -0.514092 -1.73859 0
M  V30 780 C 77.9172 -3.60518 -0.0767769 0
M  V30 781 O 77.0212 -3.96533 -1.13292 0
M  V30 782 H 76.3622 -0.660961 0.0634524 0
M  V30 783 H 78.8922 -1.87991 0.807492 0
M  V30 784 H 78.9022 -4.07021 -0.282489 0
M  V30 785 H 77.5772 -4.06702 0.86986 0
M  V30 786 H 76.1542 -3.61738 -0.905553 0
M  V30 787 N 78.3393 -0.321999 -1.54275 0
M  V30 788 C 79.2693 0.537411 -2.27231 0
M  V30 789 C 80.2503 1.12064 -1.27968 0
M  V30 790 O 81.4353 1.14606 -1.56777 0
M  V30 791 C 78.5653 1.69919 -3.02894 0
M  V30 792 C 77.5193 1.24534 -4.09482 0
M  V30 793 C 76.8453 2.49394 -4.72977 0
M  V30 794 C 78.1453 0.361335 -5.21049 0
M  V30 795 H 79.8393 -0.0711406 -2.99315 0
M  V30 796 H 77.3853 -0.0356555 -1.43956 0
M  V30 797 H 79.3383 2.30668 -3.52662 0
M  V30 798 H 78.0623 2.33431 -2.28424 0
M  V30 799 H 76.7213 0.660782 -3.60596 0
M  V30 800 H 76.3693 3.11265 -3.95124 0
M  V30 801 H 76.0693 2.19718 -5.44975 0
M  V30 802 H 77.5933 3.10908 -5.25517 0
M  V30 803 H 79.0073 0.875072 -5.66582 0
M  V30 804 H 77.4043 0.157428 -5.99893 0
M  V30 805 H 78.4743 -0.60822 -4.8107 0
M  V30 806 N 79.8174 1.5752 -0.0501392 0
M  V30 807 C 81.0654 1.9227 0.622642 0
M  V30 808 C 81.3864 0.929083 1.71444 0
M  V30 809 O 80.6564 -0.0262186 1.95882 0
M  V30 810 H 79.2364 0.709739 0.232981 0
M  V30 811 H 81.8984 1.94628 -0.102898 0
M  V30 812 H 80.9944 2.93479 1.06191 0
M  V30 813 N 81.2955 -0.223234 1.56011 0
M  V30 814 C 82.5205 -0.968978 1.83373 0
M  V30 815 C 82.9455 -1.77227 0.630254 0
M  V30 816 O 82.3035 -1.76345 -0.420959 0
M  V30 817 C 82.3515 -1.86363 3.08709 0
M  V30 818 O 81.4555 -2.95873 2.87285 0
M  V30 819 H 80.7965 -0.274461 0.604622 0
M  V30 820 H 83.3265 -0.237056 2.03222 0
M  V30 821 H 83.3365 -2.27376 3.38768 0
M  V30 822 H 82.0115 -1.27319 3.95933 0
M  V30 823 H 80.5885 -2.58818 2.68454 0
M  V30 824 N 82.7736 -1.49793 -0.48987 0
M  V30 825 C 84.0196 -1.60078 -1.24511 0
M  V30 826 C 84.3526 -0.291608 -1.91998 0
M  V30 827 O 83.6276 0.705647 -1.81248 0
M  V30 828 C 83.9106 -2.76791 -2.30345 0
M  V30 829 C 83.7636 -4.17535 -1.67286 0
M  V30 830 C 85.0826 -2.89111 -3.31817 0
M  V30 831 H 82.2016 -0.582645 -0.451324 0
M  V30 832 H 84.8436 -1.82117 -0.541612 0
M  V30 833 H 82.9936 -2.5813 -2.90346 0
M  V30 834 H 84.6656 -4.4774 -1.11026 0
M  V30 835 H 82.9086 -4.22665 -0.976577 0
M  V30 836 H 83.5796 -4.95094 -2.44103 0
M  V30 837 H 86.0556 -3.06133 -2.81819 0
M  V30 838 H 84.9316 -3.72433 -4.03219 0
M  V30 839 H 85.1926 -1.9893 -3.94815 0
M  V30 840 N 84.2517 0.741722 -1.39055 0
M  V30 841 C 85.5007 1.49656 -1.35225 0
M  V30 842 C 85.8137 1.95533 0.0512708 0
M  V30 843 O 87.0197 2.7067 0.212138 0
M  V30 844 C 85.4757 2.70389 -2.37525 0
M  V30 845 C 85.0837 2.31489 -3.83558 0
M  V30 846 C 86.8277 3.48236 -2.42759 0
M  V30 847 C 84.7347 3.48903 -4.77515 0
M  V30 848 H 83.6647 0.56197 -0.502699 0
M  V30 849 H 86.3157 0.809727 -1.64668 0
M  V30 850 H 84.6977 3.41113 -2.01142 0
M  V30 851 H 85.8717 1.68354 -4.28945 0
M  V30 852 H 84.1867 1.66749 -3.81554 0
M  V30 853 H 86.7837 4.35558 -3.1015 0
M  V30 854 H 87.1267 3.90229 -1.45008 0
M  V30 855 H 87.6597 2.84535 -2.78002 0
M  V30 856 H 84.3987 3.11966 -5.76504 0
M  V30 857 H 83.9187 4.11041 -4.36813 0
M  V30 858 H 85.5977 4.15328 -4.96096 0
M  V30 859 N 85.7298 1.2412 0.971189 0
M  V30 860 C 87.0068 0.986867 1.6888 0
M  V30 861 C 87.3868 -0.491857 2.0529 0
M  V30 862 O 86.7348 -1.46531 1.75331 0
M  V30 863 C 86.9448 1.9063 2.92338 0
M  V30 864 C 88.2928 2.17515 3.64654 0
M  V30 865 O 89.3168 1.88254 3.02388 0
M  V30 866 O 88.1758 2.6719 4.7673 0
M  V30 867 H 85.2698 0.372944 0.738134 0
M  V30 868 H 87.8158 1.35203 1.02559 0
M  V30 869 H 86.5878 2.90552 2.62097 0
M  V30 870 H 86.2108 1.54408 3.66393 0
M  V30 871 N 87.2079 -1.17134 1.05439 0
M  V30 872 C 88.4569 -1.86791 0.761049 0
M  V30 873 C 88.7699 -1.82072 -0.714795 0
M  V30 874 O 89.9759 -2.47223 -1.12218 0
M  V30 875 C 88.4319 -3.35166 1.31117 0
M  V30 876 C 88.0399 -3.48381 2.81664 0
M  V30 877 C 89.7839 -4.10134 1.09499 0
M  V30 878 C 87.6909 -4.90793 3.29964 0
M  V30 879 H 86.6209 -0.699681 0.281002 0
M  V30 880 H 89.2719 -1.3226 1.27199 0
M  V30 881 H 87.6539 -3.8925 0.72803 0
M  V30 882 H 88.8279 -3.04502 3.45855 0
M  V30 883 H 87.1429 -2.86836 3.01851 0
M  V30 884 H 89.7399 -5.152 1.43084 0
M  V30 885 H 90.0829 -4.16287 0.0328772 0
M  V30 886 H 90.6159 -3.62264 1.64346 0
M  V30 887 H 87.3549 -4.89816 4.35616 0
M  V30 888 H 86.8749 -5.35333 2.70516 0
M  V30 889 H 88.5539 -5.59573 3.24787 0
M  V30 890 N 88.686 -0.835752 -1.33615 0
M  V30 891 C 89.911 -0.442389 -2.02627 0
M  V30 892 C 90.336 0.947735 -1.62479 0
M  V30 893 O 89.694 1.61907 -0.815826 0
M  V30 894 C 89.742 -0.567216 -3.56111 0
M  V30 895 O 88.846 0.407799 -4.10379 0
M  V30 896 H 88.187 -0.180278 -0.639059 0
M  V30 897 H 90.717 -1.12972 -1.70583 0
M  V30 898 H 90.727 -0.447708 -4.05536 0
M  V30 899 H 89.402 -1.58103 -3.84677 0
M  V30 900 H 87.979 0.246107 -3.72087 0
M  V30 901 N 90.1641 1.46063 -0.591896 0
M  V30 902 C 91.4121 2.01938 -0.0808391 0
M  V30 903 C 91.7331 1.46475 1.28725 0
M  V30 904 O 91.0031 0.652944 1.84698 0
M  V30 905 H 89.5831 0.746516 -0.0268938 0
M  V30 906 H 92.2451 1.79055 -0.769752 0
M  V30 907 H 91.3411 3.12094 -0.0187578 0
M  V30 908 N 91.6422 0.330177 1.54103 0
M  V30 909 C 92.5722 -0.525353 2.27513 0
M  V30 910 C 93.5532 -1.11383 1.2856 0
M  V30 911 O 94.7382 -1.13773 1.57383 0
M  V30 912 C 91.8682 -1.6831 3.03791 0
M  V30 913 C 90.8222 -1.2236 4.10137 0
M  V30 914 C 90.1482 -2.46882 4.74293 0
M  V30 915 C 91.4482 -0.333697 5.21233 0
M  V30 916 H 93.1422 0.087013 2.99274 0
M  V30 917 H 90.6882 0.0432893 1.43935 0
M  V30 918 H 92.6412 -2.28795 3.5388 0
M  V30 919 H 91.3652 -2.32216 2.29659 0
M  V30 920 H 90.0242 -0.64165 3.60941 0
M  V30 921 H 89.6722 -3.09165 3.96769 0
M  V30 922 H 89.3722 -2.16825 5.46133 0
M  V30 923 H 90.8962 -3.08117 5.27159 0
M  V30 924 H 92.3102 -0.845013 5.67038 0
M  V30 925 H 90.7072 -0.125612 5.99969 0
M  V30 926 H 91.7772 0.633724 4.80741 0
M  V30 927 N 93.1203 -1.57491 0.0584922 0
M  V30 928 C 94.0523 -2.08916 -0.942694 0
M  V30 929 C 95.0653 -1.0185 -1.27006 0
M  V30 930 O 96.2543 -1.29398 -1.22957 0
M  V30 931 C 93.3543 -2.52341 -2.26224 0
M  V30 932 C 92.5273 -3.82827 -2.1157 0
M  V30 933 C 91.5863 -4.12487 -3.26712 0
M  V30 934 O 90.6123 -4.82295 -3.02292 0
M  V30 935 N 91.8143 -3.64978 -4.5141 0
M  V30 936 H 94.5793 -2.95437 -0.503722 0
M  V30 937 H 92.1403 -1.61397 -0.12757 0
M  V30 938 H 94.1323 -2.69254 -3.02133 0
M  V30 939 H 92.7023 -1.7103 -2.61663 0
M  V30 940 H 91.9223 -3.75425 -1.20208 0
M  V30 941 H 93.2103 -4.68263 -1.99015 0
M  V30 942 H 92.6083 -3.08558 -4.7414 0
M  V30 943 H 91.1653 -3.87115 -5.2439 0
M  V30 944 N 94.5984 0.214957 -1.56127 0
M  V30 945 C 96.0144 0.564948 -1.49267 0
M  V30 946 C 96.2144 1.86827 -0.754838 0
M  V30 947 O 95.2704 2.50745 -0.297198 0
M  V30 948 C 96.5834 0.638071 -2.93852 0
M  V30 949 C 98.1314 0.728253 -3.0441 0
M  V30 950 C 98.6064 0.832663 -4.50367 0
M  V30 951 N 100.097 0.896712 -4.54437 0
M  V30 952 C 100.832 0.997324 -5.6466 0
M  V30 953 N 100.328 1.06147 -6.8462 0
M  V30 954 N 102.121 1.03297 -5.52527 0
M  V30 955 H 94.2724 -0.640211 -2.02522 0
M  V30 956 H 96.5354 -0.225507 -0.920788 0
M  V30 957 H 96.2414 -0.250126 -3.50809 0
M  V30 958 H 96.1154 1.49947 -3.46115 0
M  V30 959 H 98.5024 1.60689 -2.47514 0
M  V30 960 H 98.5834 -0.158952 -2.55306 0
M  V30 961 H 98.2274 -0.0415417 -5.07883 0
M  V30 962 H 98.1574 1.73538 -4.97184 0
M  V30 963 H 100.648 0.857188 -3.6805 0
M  V30 964 H 100.961 1.1382 -7.64372 0
M  V30 965 H 99.3064 1.03049 -6.87318 0
M  V30 966 H 102.497 0.979558 -4.57736 0
M  V30 967 H 102.67 1.10793 -6.38458 0
M  V30 968 N 96.0765 1.50051 0.48192 0
M  V30 969 C 97.0395 1.67584 1.5636 0
M  V30 970 C 98.0395 0.546894 1.51214 0
M  V30 971 O 99.2295 0.813725 1.54026 0
M  V30 972 C 96.3615 1.691 2.96003 0
M  V30 973 H 97.5545 2.64078 1.42136 0
M  V30 974 H 95.1075 1.39369 0.707533 0
M  V30 975 H 95.8425 0.742589 3.15684 0
M  V30 976 H 95.6275 2.51105 3.01146 0
M  V30 977 H 97.1175 1.84656 3.74556 0
M  V30 978 N 97.5546 -0.734337 1.39446 0
M  V30 979 C 98.8006 -1.49613 1.36908 0
M  V30 980 C 99.1336 -1.94169 -0.0347829 0
M  V30 981 O 98.4086 -1.66833 -0.999847 0
M  V30 982 C 98.6916 -2.73534 2.34203 0
M  V30 983 C 98.5446 -2.34993 3.83534 0
M  V30 984 C 99.8636 -3.75635 2.29317 0
M  V30 985 H 96.9826 -0.542714 0.498629 0
M  V30 986 H 99.6246 -0.839597 1.70443 0
M  V30 987 H 97.7746 -3.29553 2.05736 0
M  V30 988 H 99.4466 -1.84601 4.22753 0
M  V30 989 H 97.6896 -1.67213 4.00278 0
M  V30 990 H 98.3606 -3.23738 4.47099 0
M  V30 991 H 100.837 -3.29203 2.54489 0
M  V30 992 H 99.7126 -4.60008 2.99472 0
M  V30 993 H 99.9736 -4.22603 1.29842 0
M  V30 994 N 99.0327 -1.24633 -0.964593 0
M  V30 995 C 99.9797 -1.04144 -2.05968 0
M  V30 996 C 100.95 0.046262 -1.66036 0
M  V30 997 O 102.135 -0.108972 -1.90489 0
M  V30 998 C 99.2747 -0.65563 -3.38815 0
M  V30 999 C 98.3877 -1.81714 -3.91923 0
M  V30 1000 C 97.5227 -1.37662 -5.13052 0
M  V30 1001 C 96.5617 -2.50788 -5.58365 0
M  V30 1002 N 95.6987 -2.07582 -6.70712 0
M  V30 1003 H 100.539 -1.9787 -2.22827 0
M  V30 1004 H 98.0757 -0.9855 -1.09208 0
M  V30 1005 H 100.034 -0.412954 -4.15151 0
M  V30 1006 H 98.6637 0.244627 -3.21872 0
M  V30 1007 H 97.7157 -2.1734 -3.12198 0
M  V30 1008 H 99.0277 -2.66705 -4.21509 0
M  V30 1009 H 98.1817 -1.093 -5.96773 0
M  V30 1010 H 96.9207 -0.497293 -4.85158 0
M  V30 1011 H 95.9257 -2.79906 -4.73215 0
M  V30 1012 H 97.1507 -3.39283 -5.88272 0
M  V30 1013 H 95.0967 -1.22051 -6.44546 0
M  V30 1014 H 95.0137 -2.86125 -6.99763 0
M  V30 1015 H 96.2817 -1.82369 -7.57867 0
M  V30 1016 N 100.511 1.16574 -1.06058 0
M  V30 1017 C 101.421 2.2452 -0.680282 0
M  V30 1018 C 102.437 1.71348 0.302604 0
M  V30 1019 O 103.613 2.00822 0.152513 0
M  V30 1020 C 100.678 3.46629 -0.0700315 0
M  V30 1021 C 99.7388 4.14849 -1.10448 0
M  V30 1022 C 98.9718 5.31129 -0.523256 0
M  V30 1023 O 99.1948 5.66514 0.664709 0
M  V30 1024 O 98.1288 5.88526 -1.26179 0
M  V30 1025 H 101.955 2.59355 -1.58015 0
M  V30 1026 H 99.5398 1.24043 -0.832694 0
M  V30 1027 H 101.422 4.20543 0.268667 0
M  V30 1028 H 100.097 3.13573 0.803353 0
M  V30 1029 H 99.0038 3.42916 -1.49532 0
M  V30 1030 H 100.337 4.51954 -1.94931 0
M  V30 1031 N 101.989 0.842826 1.3317 0
M  V30 1032 C 102.952 0.284065 2.27433 0
M  V30 1033 C 103.952 -0.54948 1.5112 0
M  V30 1034 O 105.142 -0.362699 1.70382 0
M  V30 1035 C 102.274 -0.599384 3.35589 0
M  V30 1036 H 103.467 1.11589 2.78366 0
M  V30 1037 H 101.02 0.616221 1.4364 0
M  V30 1038 H 101.755 -1.45349 2.89904 0
M  V30 1039 H 101.54 -0.00291266 3.921 0
M  V30 1040 H 103.03 -0.983488 4.05854 0
M  V30 1041 N 103.467 -1.45747 0.599634 0
M  V30 1042 C 104.397 -2.33235 -0.111306 0
M  V30 1043 C 105.378 -1.46359 -0.866781 0
M  V30 1044 O 106.563 -1.75146 -0.838904 0
M  V30 1045 C 103.693 -3.28932 -1.11451 0
M  V30 1046 C 102.647 -4.25381 -0.472772 0
M  V30 1047 C 101.973 -5.1071 -1.58365 0
M  V30 1048 C 103.273 -5.18831 0.600948 0
M  V30 1049 H 104.967 -2.92927 0.61919 0
M  V30 1050 H 102.513 -1.40857 0.299215 0
M  V30 1051 H 104.466 -3.89002 -1.62036 0
M  V30 1052 H 103.19 -2.67381 -1.8755 0
M  V30 1053 H 101.849 -3.66598 0.0121472 0
M  V30 1054 H 101.497 -4.45533 -2.33473 0
M  V30 1055 H 101.197 -5.7604 -1.15982 0
M  V30 1056 H 102.721 -5.73647 -2.09194 0
M  V30 1057 H 104.135 -5.73019 0.179491 0
M  V30 1058 H 102.532 -5.92595 0.946076 0
M  V30 1059 H 103.602 -4.6174 1.48068 0
M  V30 1060 N 104.945 -0.338344 -1.53925 0
M  V30 1061 C 106.17 0.263987 -2.05713 0
M  V30 1062 C 106.595 1.43847 -1.21201 0
M  V30 1063 O 105.953 1.79904 -0.224535 0
M  V30 1064 C 106.001 0.662 -3.54471 0
M  V30 1065 O 105.105 1.76265 -3.72833 0
M  V30 1066 H 104.446 0.0448722 -0.662482 0
M  V30 1067 H 106.976 -0.491048 -1.9862 0
M  V30 1068 H 106.986 0.940594 -3.9701 0
M  V30 1069 H 105.661 -0.196937 -4.15433 0
M  V30 1070 H 104.238 1.48173 -3.42198 0
M  V30 1071 N 106.423 1.57458 -0.0668435 0
M  V30 1072 C 107.386 2.11323 0.887422 0
M  V30 1073 C 108.386 1.03618 1.22964 0
M  V30 1074 O 109.576 1.29626 1.16373 0
M  V30 1075 C 106.708 2.61048 2.19242 0
M  V30 1076 H 107.901 2.96942 0.420194 0
M  V30 1077 H 105.454 1.55239 0.181793 0
M  V30 1078 H 106.189 1.78868 2.70512 0
M  V30 1079 H 105.974 3.39769 1.95702 0
M  V30 1080 H 107.464 3.02814 2.87565 0
M  V30 1081 N 107.901 -0.206675 1.56239 0
M  V30 1082 C 109.147 -0.930218 1.80208 0
M  V30 1083 C 109.48 -1.83387 0.638981 0
M  V30 1084 O 108.755 -1.91119 -0.361066 0
M  V30 1085 C 109.038 -1.75641 3.1436 0
M  V30 1086 C 108.891 -0.878257 4.41142 0
M  V30 1087 C 110.21 -2.73129 3.45092 0
M  V30 1088 H 107.329 -0.336742 0.655571 0
M  V30 1089 H 109.971 -0.198222 1.88963 0
M  V30 1090 H 108.121 -2.38048 3.07027 0
M  V30 1091 H 109.793 -0.269787 4.6051 0
M  V30 1092 H 108.036 -0.184385 4.33408 0
M  V30 1093 H 108.707 -1.49106 5.3148 0
M  V30 1094 H 111.183 -2.20856 3.52649 0
M  V30 1095 H 110.059 -3.28028 4.40101 0
M  V30 1096 H 110.32 -3.51606 2.68003 0
M  V30 1097 N 109.379 -1.50304 -0.473955 0
M  V30 1098 C 110.309 -1.71886 -1.58042 0
M  V30 1099 C 111.29 -0.567799 -1.60344 0
M  V30 1100 O 112.475 -0.806623 -1.76656 0
M  V30 1101 C 109.605 -1.81036 -2.96384 0
M  V30 1102 C 108.559 -2.962 -3.08949 0
M  V30 1103 C 107.885 -2.9049 -4.48909 0
M  V30 1104 C 109.185 -4.36752 -2.86434 0
M  V30 1105 H 110.879 -2.64527 -1.40234 0
M  V30 1106 H 108.425 -1.27295 -0.673201 0
M  V30 1107 H 110.378 -1.94719 -3.73714 0
M  V30 1108 H 109.102 -0.850147 -3.15341 0
M  V30 1109 H 107.761 -2.82164 -2.3405 0
M  V30 1110 H 107.409 -1.92321 -4.64781 0
M  V30 1111 H 107.109 -3.67802 -4.58253 0
M  V30 1112 H 108.633 -3.06218 -5.28264 0
M  V30 1113 H 110.047 -4.5133 -3.53517 0
M  V30 1114 H 108.444 -5.15493 -3.07225 0
M  V30 1115 H 109.514 -4.49321 -1.82316 0
M  V30 1116 N 110.857 0.726932 -1.39834 0
M  V30 1117 C 112.268 1.30558 -1.3346 0
M  V30 1118 C 112.619 1.962 -0.00273003 0
M  V30 1119 O 111.744 1.96826 0.899371 0
M  V30 1120 C 112.339 2.37404 -2.41713 0
M  V30 1121 C 110.898 2.90921 -2.38835 0
M  V30 1122 C 110.045 1.64578 -2.2318 0
M  V30 1123 H 112.996 0.523862 -1.49804 0
M  V30 1124 H 113.017 3.17984 -2.08966 0
M  V30 1125 H 112.529 1.89599 -3.38635 0
M  V30 1126 H 110.63 3.42985 -1.45575 0
M  V30 1127 H 110.743 3.43487 -3.33997 0
M  V30 1128 H 109.107 1.89219 -1.70494 0
M  V30 1129 H 109.89 1.18814 -3.22084 0
M  V30 1130 N 112.336 1.25143 0.95797 0
M  V30 1131 C 113.752 1.01892 1.22842 0
M  V30 1132 C 113.952 -0.266311 1.99732 0
M  V30 1133 O 113.008 -0.979913 2.3271 0
M  V30 1134 C 114.321 2.24004 2.00606 0
M  V30 1135 C 115.869 2.28731 2.13662 0
M  V30 1136 C 116.344 3.5049 2.94823 0
M  V30 1137 N 117.835 3.50866 3.02403 0
M  V30 1138 C 118.57 4.4174 3.65586 0
M  V30 1139 N 118.066 5.42882 4.30408 0
M  V30 1140 N 119.859 4.29429 3.62694 0
M  V30 1141 H 112.01 2.07718 0.443493 0
M  V30 1142 H 114.273 0.912031 0.258657 0
M  V30 1143 H 113.979 3.17395 1.51503 0
M  V30 1144 H 113.853 2.26907 3.01319 0
M  V30 1145 H 116.24 1.35865 2.61963 0
M  V30 1146 H 116.321 2.29848 1.12265 0
M  V30 1147 H 115.965 4.43676 2.47213 0
M  V30 1148 H 115.895 3.46617 3.96439 0
M  V30 1149 H 118.386 2.777 2.56302 0
M  V30 1150 H 118.699 6.0844 4.76467 0
M  V30 1151 H 117.044 5.46758 4.29047 0
M  V30 1152 H 120.235 3.49643 3.11236 0
M  V30 1153 H 120.408 5.00448 4.1165 0
M  V30 1154 N 113.814 -1.1601 1.06675 0
M  V30 1155 C 115.06 -1.86909 0.786945 0
M  V30 1156 C 115.393 -1.81717 -0.685018 0
M  V30 1157 O 114.668 -1.23551 -1.50218 0
M  V30 1158 C 114.951 -3.36313 1.28707 0
M  V30 1159 C 114.804 -3.50175 2.82308 0
M  V30 1160 C 116.123 -4.3084 0.898071 0
M  V30 1161 H 113.242 -0.678677 0.287343 0
M  V30 1162 H 115.884 -1.36336 1.32334 0
M  V30 1163 H 114.034 -3.79513 0.830768 0
M  V30 1164 H 115.706 -3.15886 3.36175 0
M  V30 1165 H 113.949 -2.91959 3.20847 0
M  V30 1166 H 114.62 -4.55116 3.12368 0
M  V30 1167 H 117.096 -3.95561 1.29114 0
M  V30 1168 H 115.972 -5.33876 1.27543 0
M  V30 1169 H 116.233 -4.41662 -0.196651 0
M  V30 1170 N 115.292 -0.849877 -1.32721 0
M  V30 1171 C 116.202 -0.293791 -2.32753 0
M  V30 1172 C 117.218 0.585906 -1.63839 0
M  V30 1173 O 118.394 0.487413 -1.95413 0
M  V30 1174 C 115.459 0.512752 -3.42887 0
M  V30 1175 C 114.52 -0.39252 -4.27502 0
M  V30 1176 C 113.753 0.375625 -5.32377 0
M  V30 1177 O 113.976 1.60613 -5.4732 0
M  V30 1178 O 112.91 -0.256094 -6.01355 0
M  V30 1179 H 116.736 -1.12242 -2.82197 0
M  V30 1180 H 114.321 -0.612685 -1.36259 0
M  V30 1181 H 116.203 0.970704 -4.10067 0
M  V30 1182 H 114.878 1.31826 -2.95641 0
M  V30 1183 H 113.785 -0.898547 -3.63149 0
M  V30 1184 H 115.118 -1.16309 -4.7826 0
M  V30 1185 N 116.77 1.45427 -0.607355 0
M  V30 1186 C 117.998 2.06614 -0.108814 0
M  V30 1187 C 118.413 1.45204 1.2067 0
M  V30 1188 O 117.77 0.566132 1.73497 0
M  V30 1189 C 117.821 3.61481 0.0375347 0
M  V30 1190 O 117.542 4.20598 -1.22593 0
M  V30 1191 C 119.043 4.39652 0.567561 0
M  V30 1192 H 116.263 0.66747 -0.0687351 0
M  V30 1193 H 118.807 1.86675 -0.835022 0
M  V30 1194 H 116.962 3.80762 0.714068 0
M  V30 1195 H 117.376 5.1377 -1.05547 0
M  V30 1196 H 118.85 5.48518 0.61905 0
M  V30 1197 H 119.327 4.09417 1.58978 0
M  V30 1198 H 119.933 4.25234 -0.0749202 0
M  V30 1199 N 118.248 0.346503 1.53744 0
M  V30 1200 C 119.494 -0.249473 2.0126 0
M  V30 1201 C 119.827 -1.49965 1.23386 0
M  V30 1202 O 119.102 -1.91811 0.32229 0
M  V30 1203 C 119.385 -0.560643 3.55709 0
M  V30 1204 C 119.238 0.701836 4.44291 0
M  V30 1205 C 120.557 -1.36905 4.18264 0
M  V30 1206 H 117.676 -0.0891987 0.731582 0
M  V30 1207 H 120.318 0.467624 1.84156 0
M  V30 1208 H 118.468 -1.17156 3.70414 0
M  V30 1209 H 120.14 1.33974 4.41417 0
M  V30 1210 H 118.383 1.32612 4.13033 0
M  V30 1211 H 119.054 0.43933 5.50249 0
M  V30 1212 H 121.53 -0.852448 4.07275 0
M  V30 1213 H 120.406 -1.55553 5.26398 0
M  V30 1214 H 120.667 -2.37203 3.73078 0
M  V30 1215 N 119.726 -1.57421 0.075193 0
M  V30 1216 C 120.956 -1.97659 -0.601203 0
M  V30 1217 C 121.364 -0.952427 -1.63479 0
M  V30 1218 O 120.707 0.0688241 -1.83571 0
M  V30 1219 C 120.769 -3.34218 -1.32434 0
M  V30 1220 C 120.433 -4.5484 -0.443826 0
M  V30 1221 C 121.43 -5.19034 0.299969 0
M  V30 1222 C 119.115 -5.00952 -0.367709 0
M  V30 1223 C 121.109 -6.27695 1.10807 0
M  V30 1224 C 118.796 -6.09484 0.444058 0
M  V30 1225 C 119.794 -6.72719 1.18061 0
M  V30 1226 O 119.482 -7.79161 1.97898 0
M  V30 1227 H 119.214 -0.65494 -0.167422 0
M  V30 1228 H 121.768 -2.04886 0.145157 0
M  V30 1229 H 119.998 -3.23615 -2.11685 0
M  V30 1230 H 121.687 -3.59038 -1.89331 0
M  V30 1231 H 122.453 -4.84351 0.250776 0
M  V30 1232 H 118.332 -4.51509 -0.930638 0
M  V30 1233 H 121.876 -6.76982 1.68347 0
M  V30 1234 H 117.773 -6.43601 0.494803 0
M  V30 1235 H 118.541 -7.96055 1.90367 0
M  V30 1236 N 121.204 0.198386 -1.56346 0
M  V30 1237 C 122.432 0.935572 -1.84539 0
M  V30 1238 C 122.847 1.76989 -0.657281 0
M  V30 1239 O 122.204 1.78626 0.374043 0
M  V30 1240 C 122.255 1.8344 -3.11499 0
M  V30 1241 O 121.976 1.03377 -4.25728 0
M  V30 1242 C 123.477 2.68355 -3.52846 0
M  V30 1243 H 120.697 0.273126 -0.612897 0
M  V30 1244 H 123.241 0.20663 -2.03453 0
M  V30 1245 H 121.396 2.51701 -2.94492 0
M  V30 1246 H 121.81 1.64599 -4.98003 0
M  V30 1247 H 123.284 3.27085 -4.44657 0
M  V30 1248 H 123.761 3.41901 -2.75681 0
M  V30 1249 H 124.367 2.05471 -3.72373 0
M  V30 1250 N 122.682 1.50554 0.465978 0
M  V30 1251 C 123.912 1.65323 1.23903 0
M  V30 1252 C 124.32 0.338051 1.86155 0
M  V30 1253 O 123.663 -0.690518 1.70228 0
M  V30 1254 C 123.725 2.69048 2.3844 0
M  V30 1255 C 123.389 4.12462 1.96784 0
M  V30 1256 C 124.386 4.98168 1.48745 0
M  V30 1257 C 122.071 4.58407 2.05349 0
M  V30 1258 C 124.065 6.27868 1.0982 0
M  V30 1259 C 121.752 5.88112 1.66035 0
M  V30 1260 C 122.75 6.72668 1.18349 0
M  V30 1261 O 122.438 7.99951 0.795825 0
M  V30 1262 H 122.17 0.558629 0.38067 0
M  V30 1263 H 124.724 1.97561 0.562022 0
M  V30 1264 H 122.954 2.32062 3.09328 0
M  V30 1265 H 124.643 2.72985 3.0039 0
M  V30 1266 H 125.409 4.63885 1.41546 0
M  V30 1267 H 121.288 3.92735 2.41414 0
M  V30 1268 H 124.832 6.93819 0.725293 0
M  V30 1269 H 120.729 6.21914 1.72895 0
M  V30 1270 H 121.497 8.13265 0.924222 0
M  V30 1271 N 124.16 -0.719506 1.40217 0
M  V30 1272 C 125.09 -1.8465 1.42922 0
M  V30 1273 C 126.071 -1.67599 0.29062 0
M  V30 1274 O 127.256 -1.87688 0.498677 0
M  V30 1275 C 124.386 -3.22565 1.28722 0
M  V30 1276 C 123.34 -3.54281 2.40144 0
M  V30 1277 C 122.666 -4.91298 2.11023 0
M  V30 1278 C 123.966 -3.55676 3.82481 0
M  V30 1279 H 125.66 -1.82644 2.37237 0
M  V30 1280 H 123.206 -0.877305 1.1419 0
M  V30 1281 H 125.159 -4.01095 1.29232 0
M  V30 1282 H 123.883 -3.25137 0.308811 0
M  V30 1283 H 122.542 -2.78088 2.38877 0
M  V30 1284 H 122.19 -4.90468 1.11582 0
M  V30 1285 H 121.89 -5.13485 2.8567 0
M  V30 1286 H 123.414 -5.72166 2.13209 0
M  V30 1287 H 124.828 -4.24254 3.85592 0
M  V30 1288 H 123.225 -3.89388 4.56614 0
M  V30 1289 H 124.295 -2.55144 4.12346 0
M  V30 1290 N 125.638 -1.25649 -0.95132 0
M  V30 1291 C 126.568 -1.08808 -2.06599 0
M  V30 1292 C 127.549 0.00382547 -1.701 0
M  V30 1293 O 128.734 -0.166325 -1.93486 0
M  V30 1294 C 125.864 -0.709542 -3.39975 0
M  V30 1295 C 124.818 -1.75206 -3.90496 0
M  V30 1296 C 124.144 -1.22811 -5.20405 0
M  V30 1297 C 125.444 -3.15153 -4.16504 0
M  V30 1298 H 127.138 -2.02048 -2.20946 0
M  V30 1299 H 124.684 -0.972835 -1.06169 0
M  V30 1300 H 126.637 -0.578649 -4.17408 0
M  V30 1301 H 125.361 0.258556 -3.25575 0
M  V30 1302 H 124.02 -1.87145 -3.15234 0
M  V30 1303 H 123.668 -0.250145 -5.02378 0
M  V30 1304 H 123.368 -1.92492 -5.55176 0
M  V30 1305 H 124.892 -1.10968 -6.00432 0
M  V30 1306 H 126.306 -3.06349 -4.84586 0
M  V30 1307 H 124.703 -3.82333 -4.62538 0
M  V30 1308 H 125.773 -3.61966 -3.22658 0
M  V30 1309 N 127.117 1.15442 -1.07289 0
M  V30 1310 C 128.394 1.82306 -0.708792 0
M  V30 1311 C 128.774 1.94991 0.808807 0
M  V30 1312 O 128.122 1.50085 1.72298 0
M  V30 1313 C 128.332 3.18695 -1.42247 0
M  V30 1314 C 129.68 3.94341 -1.57417 0
M  V30 1315 O 130.704 3.28247 -1.38319 0
M  V30 1316 O 129.563 5.12839 -1.88834 0
M  V30 1317 H 126.657 0.787628 -0.252132 0
M  V30 1318 H 129.203 1.22559 -1.17377 0
M  V30 1319 H 127.975 3.04557 -2.45684 0
M  V30 1320 H 127.598 3.86128 -0.948223 0
M  V30 1321 N 128.595 0.856903 1.32268 0
M  V30 1322 C 129.843 0.460474 1.96784 0
M  V30 1323 C 130.164 -0.987701 1.68135 0
M  V30 1324 O 129.434 -1.69058 0.989765 0
M  V30 1325 H 128.014 0.167289 0.728027 0
M  V30 1326 H 130.676 1.09383 1.61312 0
M  V30 1327 H 129.772 0.60739 3.06133 0
M  V30 1328 N 130.073 -1.45103 0.615059 0
M  V30 1329 C 130.983 -2.34382 -0.101034 0
M  V30 1330 C 131.999 -1.51681 -0.852585 0
M  V30 1331 O 133.175 -1.8446 -0.808484 0
M  V30 1332 C 130.24 -3.29417 -1.08099 0
M  V30 1333 C 129.301 -4.28025 -0.330577 0
M  V30 1334 C 128.534 -5.1852 -1.26385 0
M  V30 1335 O 128.757 -5.12598 -2.50198 0
M  V30 1336 O 127.691 -5.97122 -0.756866 0
M  V30 1337 H 131.517 -2.97033 0.632855 0
M  V30 1338 H 129.102 -1.4461 0.375293 0
M  V30 1339 H 130.984 -3.87958 -1.6452 0
M  V30 1340 H 129.659 -2.69321 -1.79577 0
M  V30 1341 H 128.566 -3.73078 0.276283 0
M  V30 1342 H 129.899 -4.90997 0.343866 0
M  V30 1343 N 131.551 -0.354651 -1.53558 0
M  V30 1344 C 132.776 0.242153 -2.05981 0
M  V30 1345 C 133.201 1.42553 -1.2272 0
M  V30 1346 O 132.559 1.79656 -0.243604 0
M  V30 1347 C 132.607 0.624367 -3.55154 0
M  V30 1348 O 131.711 1.72301 -3.74681 0
M  V30 1349 H 131.052 0.0378432 -0.662921 0
M  V30 1350 H 133.582 -0.512087 -1.98088 0
M  V30 1351 H 133.592 0.898433 -3.97985 0
M  V30 1352 H 132.267 -0.240989 -4.15201 0
M  V30 1353 H 130.844 1.44535 -3.4375 0
M  V30 1354 N 133.029 1.57378 -0.0835403 0
M  V30 1355 C 133.961 2.10389 0.909338 0
M  V30 1356 C 134.974 1.03858 1.25369 0
M  V30 1357 O 136.163 1.31338 1.20882 0
M  V30 1358 C 133.263 2.55908 2.2218 0
M  V30 1359 C 132.436 3.86145 2.05453 0
M  V30 1360 C 131.495 4.17633 3.20108 0
M  V30 1361 O 130.521 4.87043 2.94581 0
M  V30 1362 N 131.723 3.72113 4.45547 0
M  V30 1363 H 134.488 2.962 0.456657 0
M  V30 1364 H 132.049 1.61579 0.101877 0
M  V30 1365 H 134.041 2.74027 2.97811 0
M  V30 1366 H 132.611 1.75171 2.58909 0
M  V30 1367 H 131.831 3.7729 1.1422 0
M  V30 1368 H 133.119 4.7137 1.91541 0
M  V30 1369 H 132.517 3.16062 4.69171 0
M  V30 1370 H 131.074 3.95409 5.18165 0
M  V30 1371 N 134.507 -0.190092 1.56449 0
M  V30 1372 C 135.437 -1.23816 1.97969 0
M  V30 1373 C 136.418 -1.47201 0.852395 0
M  V30 1374 O 137.603 -1.58854 1.1171 0
M  V30 1375 C 134.733 -2.5813 2.3235 0
M  V30 1376 C 133.687 -2.49348 3.47864 0
M  V30 1377 C 133.013 -3.8798 3.67934 0
M  V30 1378 C 134.313 -2.01424 4.81898 0
M  V30 1379 H 136.007 -0.89311 2.85769 0
M  V30 1380 H 133.553 -0.428177 1.37487 0
M  V30 1381 H 135.506 -3.31637 2.59991 0
M  V30 1382 H 134.23 -2.94386 1.41438 0
M  V30 1383 H 132.889 -1.78297 3.20321 0
M  V30 1384 H 132.537 -4.21597 2.74344 0
M  V30 1385 H 132.237 -3.82978 4.45648 0
M  V30 1386 H 133.761 -4.63101 3.97957 0
M  V30 1387 H 135.175 -2.64693 5.08538 0
M  V30 1388 H 133.572 -2.07413 5.63116 0
M  V30 1389 H 134.642 -0.967677 4.75146 0
M  V30 1390 N 135.985 -1.50799 -0.457987 0
M  V30 1391 C 137.231 -1.62683 -1.21088 0
M  V30 1392 C 137.564 -0.332268 -1.91336 0
M  V30 1393 O 136.839 0.667043 -1.82704 0
M  V30 1394 C 137.122 -2.81615 -2.24422 0
M  V30 1395 C 136.975 -4.20989 -1.58392 0
M  V30 1396 C 138.294 -2.96085 -3.2561 0
M  V30 1397 H 135.413 -0.592087 -0.438864 0
M  V30 1398 H 138.055 -1.83225 -0.50286 0
M  V30 1399 H 136.205 -2.64231 -2.84806 0
M  V30 1400 H 137.877 -4.49994 -1.01504 0
M  V30 1401 H 136.12 -4.24641 -0.886704 0
M  V30 1402 H 136.791 -5.0016 -2.33547 0
M  V30 1403 H 139.267 -3.12042 -2.75262 0
M  V30 1404 H 138.143 -3.80902 -3.95228 0
M  V30 1405 H 138.404 -2.0726 -3.90507 0
M  V30 1406 N 137.463 0.71206 -1.40597 0
M  V30 1407 C 138.703 1.48438 -1.40519 0
M  V30 1408 C 139.067 1.91998 -0.00767611 0
M  V30 1409 O 140.268 2.6854 0.118239 0
M  V30 1410 C 138.539 2.67514 -2.37004 0
M  V30 1411 S 140.098 3.56875 -2.55315 0
M  V30 1412 H 136.916 0.507457 -0.498005 0
M  V30 1413 H 139.518 0.832355 -1.76896 0
M  V30 1414 H 138.222 2.33689 -3.37368 0
M  V30 1415 H 137.753 3.37625 -2.01923 0
M  V30 1416 H 139.768 4.62081 -1.8082 0
M  V30 1417 N 138.941 1.26152 0.944643 0
M  V30 1418 C 139.851 1.09176 2.07648 0
M  V30 1419 C 140.867 0.0261935 1.7398 0
M  V30 1420 O 142.043 0.229208 2.00091 0
M  V30 1421 C 139.108 0.722915 3.39079 0
M  V30 1422 C 138.169 1.86752 3.86552 0
M  V30 1423 C 137.402 1.51617 5.11711 0
M  V30 1424 O 137.625 0.416331 5.68879 0
M  V30 1425 O 136.559 2.34975 5.54139 0
M  V30 1426 H 140.385 2.0412 2.24875 0
M  V30 1427 H 137.97 1.05182 1.061 0
M  V30 1428 H 139.852 0.529787 4.18056 0
M  V30 1429 H 138.527 -0.197159 3.23099 0
M  V30 1430 H 137.434 2.11558 3.08535 0
M  V30 1431 H 138.767 2.76719 4.07047 0
M  V30 1432 N 140.419 -1.14872 1.07899 0
M  V30 1433 C 141.696 -1.81928 0.71845 0
M  V30 1434 C 142.076 -1.95417 -0.798455 0
M  V30 1435 O 141.424 -1.50997 -1.715 0
M  V30 1436 C 141.634 -3.17937 1.43935 0
M  V30 1437 C 142.982 -3.93501 1.59506 0
M  V30 1438 O 144.006 -3.27509 1.40058 0
M  V30 1439 O 142.865 -5.1183 1.91551 0
M  V30 1440 H 139.959 -0.78628 0.256305 0
M  V30 1441 H 142.505 -1.21934 1.18026 0
M  V30 1442 H 141.277 -3.0325 2.47295 0
M  V30 1443 H 140.9 -3.85619 0.968687 0
M  V30 1444 N 141.898 -0.863906 -1.31812 0
M  V30 1445 C 143.309 -0.52522 -1.7916 0
M  V30 1446 C 143.66 0.957518 -1.71248 0
M  V30 1447 O 142.785 1.74734 -1.27659 0
M  V30 1448 C 143.38 -0.9466 -3.25307 0
M  V30 1449 C 141.939 -0.659668 -3.70574 0
M  V30 1450 C 141.086 -1.14126 -2.52726 0
M  V30 1451 H 144.037 -1.05022 -1.1898 0
M  V30 1452 H 144.058 -0.266766 -3.79564 0
M  V30 1453 H 143.57 -2.02579 -3.31034 0
M  V30 1454 H 141.671 0.408416 -3.70355 0
M  V30 1455 H 141.784 -1.23245 -4.62977 0
M  V30 1456 H 140.148 -0.561216 -2.4844 0
M  V30 1457 H 140.931 -2.22775 -2.61201 0
M  V30 1458 N 143.376 1.44774 -0.622745 0
M  V30 1459 C 144.787 1.85546 -0.207226 0
M  V30 1460 C 145.138 1.52093 1.23944 0
M  V30 1461 O 144.263 0.95492 1.94191 0
M  V30 1462 C 144.858 3.36781 -0.369313 0
M  V30 1463 C 143.417 3.76399 -0.00836847 0
M  V30 1464 C 142.564 2.68664 -0.686651 0
M  V30 1465 H 145.515 1.3536 -0.828454 0
M  V30 1466 H 145.536 3.78453 0.394162 0
M  V30 1467 H 145.048 3.61098 -1.42231 0
M  V30 1468 H 143.149 3.57698 1.04322 0
M  V30 1469 H 143.262 4.7732 -0.412584 0
M  V30 1470 H 141.626 2.54404 -0.122777 0
M  V30 1471 H 142.409 2.95815 -1.74208 0
M  V30 1472 N 144.854 0.36279 1.53368 0
M  V30 1473 C 145.804 -0.501391 2.22419 0
M  V30 1474 C 146.788 -1.0509 1.2184 0
M  V30 1475 O 147.98 -0.981404 1.47301 0
M  V30 1476 C 145.109 -1.64201 3.01484 0
M  V30 1477 C 144.195 -1.10552 4.09438 0
M  V30 1478 N 144.586 -0.291788 5.04958 0
M  V30 1479 C 142.884 -1.3806 4.24094 0
M  V30 1480 C 143.585 0.00162655 5.817 0
M  V30 1481 N 142.561 -0.595244 5.40331 0
M  V30 1482 H 146.363 0.127159 2.93625 0
M  V30 1483 H 143.877 0.170658 1.61501 0
M  V30 1484 H 145.874 -2.27326 3.49469 0
M  V30 1485 H 144.534 -2.27365 2.31809 0
M  V30 1486 H 145.545 0.0687731 5.17854 0
M  V30 1487 H 142.222 -2.01522 3.65644 0
M  V30 1488 H 143.612 0.659278 6.68658 0
M  V30 1489 N 146.332 -1.57332 0.0918853 0
M  V30 1490 C 147.242 -2.17368 -0.882505 0
M  V30 1491 C 148.258 -1.14226 -1.31257 0
M  V30 1492 O 149.434 -1.46582 -1.38115 0
M  V30 1493 C 146.499 -2.73962 -2.12476 0
M  V30 1494 C 145.56 -3.92048 -1.7492 0
M  V30 1495 C 144.793 -4.45933 -2.93223 0
M  V30 1496 O 145.016 -3.98764 -4.07852 0
M  V30 1497 O 143.95 -5.36999 -2.71875 0
M  V30 1498 H 147.776 -3.01031 -0.40172 0
M  V30 1499 H 145.361 -1.48813 -0.132291 0
M  V30 1500 H 147.243 -3.10147 -2.85283 0
M  V30 1501 H 145.918 -1.93347 -2.59613 0
M  V30 1502 H 144.825 -3.6068 -0.993025 0
M  V30 1503 H 146.158 -4.74017 -1.32548 0
M  V30 1504 N 147.81 0.181792 -1.56548 0
M  V30 1505 C 148.74 1.22765 -1.98623 0
M  V30 1506 C 149.721 1.46747 -0.860189 0
M  V30 1507 O 150.906 1.58259 -1.12551 0
M  V30 1508 C 148.036 2.56894 -2.33715 0
M  V30 1509 C 146.99 2.475 -3.49182 0
M  V30 1510 C 146.316 3.86023 -3.69986 0
M  V30 1511 C 147.616 1.98866 -4.82959 0
M  V30 1512 H 149.31 0.877942 -2.86239 0
M  V30 1513 H 146.856 0.42088 -1.37712 0
M  V30 1514 H 148.809 3.30253 -2.61746 0
M  V30 1515 H 147.533 2.93632 -1.42997 0
M  V30 1516 H 146.192 1.76596 -3.21262 0
M  V30 1517 H 145.84 4.20136 -2.76576 0
M  V30 1518 H 145.54 3.80609 -4.47672 0
M  V30 1519 H 147.064 4.60984 -4.00407 0
M  V30 1520 H 148.478 2.61992 -5.09934 0
M  V30 1521 H 146.875 2.04424 -5.64208 0
M  V30 1522 H 147.945 0.942465 -4.75653 0
M  V30 1523 N 149.288 1.51039 0.449983 0
M  V30 1524 C 150.699 1.557 1.03026 0
M  V30 1525 C 151.05 0.372939 1.92623 0
M  V30 1526 O 150.175 -0.511771 2.10261 0
M  V30 1527 C 150.77 2.82171 1.87523 0
M  V30 1528 C 149.329 2.89444 2.40622 0
M  V30 1529 C 148.476 2.50228 1.19504 0
M  V30 1530 H 151.427 1.56999 0.231745 0
M  V30 1531 H 151.448 2.65219 2.72835 0
M  V30 1532 H 150.96 3.68331 1.22286 0
M  V30 1533 H 149.061 2.07685 3.0935 0
M  V30 1534 H 149.174 3.92816 2.74285 0
M  V30 1535 H 147.538 2.03139 1.53644 0
M  V30 1536 H 148.321 3.38719 0.558972 0
M  V30 1537 N 150.766 -0.704594 1.40972 0
M  V30 1538 C 151.698 -1.82974 1.38033 0
M  V30 1539 C 152.711 -1.60305 0.283931 0
M  V30 1540 O 153.9 -1.69975 0.545042 0
M  V30 1541 C 151 -3.19578 1.12795 0
M  V30 1542 C 150.173 -3.69352 2.34302 0
M  V30 1543 C 149.232 -4.84601 2.05058 0
M  V30 1544 O 148.258 -4.96682 2.7802 0
M  V30 1545 N 149.46 -5.71194 1.03528 0
M  V30 1546 H 152.225 -1.85991 2.35005 0
M  V30 1547 H 149.786 -0.886567 1.35468 0
M  V30 1548 H 151.778 -3.9429 0.911987 0
M  V30 1549 H 150.348 -3.11642 0.24452 0
M  V30 1550 H 149.568 -2.85649 2.71659 0
M  V30 1551 H 150.856 -3.99345 3.1528 0
M  V30 1552 H 150.254 -5.64054 0.431217 0
M  V30 1553 H 148.811 -6.45843 0.879205 0
M  V30 1554 N 152.244 -1.26651 -0.937939 0
M  V30 1555 C 153.154 -1.10276 -2.07066 0
M  V30 1556 C 154.17 -0.0354197 -1.73964 0
M  V30 1557 O 155.346 -0.239816 -1.99967 0
M  V30 1558 C 152.411 -0.740887 -3.38691 0
M  V30 1559 C 151.472 -1.88799 -3.85556 0
M  V30 1560 C 150.705 -1.54329 -5.10899 0
M  V30 1561 O 150.928 -0.446494 -5.6865 0
M  V30 1562 O 149.862 -2.37911 -5.52885 0
M  V30 1563 H 153.688 -2.05309 -2.23789 0
M  V30 1564 H 151.273 -1.05743 -1.0554 0
M  V30 1565 H 153.155 -0.55195 -4.1777 0
M  V30 1566 H 151.83 0.180022 -3.23199 0
M  V30 1567 H 150.737 -2.13191 -3.07409 0
M  V30 1568 H 152.07 -2.78874 -4.05574 0
M  V30 1569 N 153.722 1.14298 -1.08507 0
M  V30 1570 C 154.97 1.84993 -0.813763 0
M  V30 1571 C 155.291 1.83405 0.662393 0
M  V30 1572 O 154.561 1.28319 1.48024 0
M  V30 1573 H 153.141 0.684966 -0.298045 0
M  V30 1574 H 155.803 1.385 -1.37126 0
M  V30 1575 H 154.899 2.89788 -1.15884 0
M  V30 1576 N 155.201 0.870884 1.31352 0
M  V30 1577 C 156.148 0.325425 2.28494 0
M  V30 1578 C 157.118 -0.576615 1.5577 0
M  V30 1579 O 158.303 -0.508059 1.83911 0
M  V30 1580 C 155.443 -0.466283 3.41935 0
M  V30 1581 C 154.556 0.463378 4.29508 0
M  V30 1582 C 153.691 -0.342544 5.30094 0
M  V30 1583 C 152.73 0.583486 6.09313 0
M  V30 1584 N 151.867 -0.186244 7.01853 0
M  V30 1585 H 156.707 1.15901 2.74538 0
M  V30 1586 H 154.244 0.58294 1.35056 0
M  V30 1587 H 156.202 -0.941085 4.06447 0
M  V30 1588 H 154.832 -1.26456 2.97 0
M  V30 1589 H 153.884 1.05663 3.65431 0
M  V30 1590 H 155.196 1.1734 4.84802 0
M  V30 1591 H 154.35 -0.879816 6.00287 0
M  V30 1592 H 153.089 -1.08585 4.75458 0
M  V30 1593 H 152.094 1.13251 5.3801 0
M  V30 1594 H 153.319 1.32566 6.66035 0
M  V30 1595 H 151.265 -0.912348 6.49625 0
M  V30 1596 H 151.182 0.464422 7.54572 0
M  V30 1597 H 152.45 -0.704716 7.76308 0
M  V30 1598 N 156.679 -1.44442 0.630414 0
M  V30 1599 C 157.925 -2.02351 0.134816 0
M  V30 1600 C 158.258 -1.4947 -1.23986 0
M  V30 1601 O 157.533 -0.678475 -1.82283 0
M  V30 1602 C 157.816 -3.59898 0.120707 0
M  V30 1603 C 157.669 -4.23063 1.52767 0
M  V30 1604 C 158.988 -4.36585 -0.555127 0
M  V30 1605 H 156.107 -0.73527 0.0504646 0
M  V30 1606 H 158.749 -1.72022 0.806751 0
M  V30 1607 H 156.899 -3.85868 -0.451477 0
M  V30 1608 H 158.571 -4.08202 2.14869 0
M  V30 1609 H 156.814 -3.80586 2.08175 0
M  V30 1610 H 157.485 -5.32071 1.46984 0
M  V30 1611 H 159.961 -4.16044 -0.0685429 0
M  V30 1612 H 158.837 -5.46294 -0.534185 0
M  V30 1613 H 159.098 -4.11138 -1.62535 0
M  V30 1614 N 158.157 -0.370918 -1.53173 0
M  V30 1615 C 159.573 -0.0200818 -1.59587 0
M  V30 1616 C 159.773 1.46279 -1.38581 0
M  V30 1617 O 158.829 2.22506 -1.19363 0
M  V30 1618 C 160.142 -0.4808 -2.96831 0
M  V30 1619 C 161.69 -0.435477 -3.09956 0
M  V30 1620 C 162.165 -0.872092 -4.4962 0
M  V30 1621 N 163.656 -0.827364 -4.55751 0
M  V30 1622 C 164.391 -1.13683 -5.62018 0
M  V30 1623 N 163.887 -1.51584 -6.76014 0
M  V30 1624 N 165.68 -1.05927 -5.52029 0
M  V30 1625 H 157.831 -1.33652 -1.65079 0
M  V30 1626 H 160.094 -0.546634 -0.774529 0
M  V30 1627 H 159.8 -1.51577 -3.1736 0
M  V30 1628 H 159.674 0.129796 -3.76977 0
M  V30 1629 H 162.061 0.590371 -2.89134 0
M  V30 1630 H 162.142 -1.08164 -2.31806 0
M  V30 1631 H 161.786 -1.89608 -4.71181 0
M  V30 1632 H 161.716 -0.203127 -5.26208 0
M  V30 1633 H 164.207 -0.548216 -3.73902 0
M  V30 1634 H 164.52 -1.73609 -7.53047 0
M  V30 1635 H 162.865 -1.55454 -6.77391 0
M  V30 1636 H 166.056 -0.762321 -4.61851 0
M  V30 1637 H 166.229 -1.30378 -6.34749 0
M  V30 1638 N 159.635 1.57281 -0.100228 0
M  V30 1639 C 160.545 2.17833 0.870965 0
M  V30 1640 C 161.561 1.14921 1.30649 0
M  V30 1641 O 162.737 1.47313 1.37335 0
M  V30 1642 C 159.802 2.75085 2.1102 0
M  V30 1643 C 158.863 3.9297 1.72838 0
M  V30 1644 C 158.096 4.47482 2.90854 0
M  V30 1645 O 158.319 4.00922 4.05731 0
M  V30 1646 O 157.253 5.38433 2.69023 0
M  V30 1647 H 161.079 3.0124 0.38575 0
M  V30 1648 H 158.664 1.48881 0.124397 0
M  V30 1649 H 160.546 3.11656 2.83634 0
M  V30 1650 H 159.221 1.94721 2.58584 0
M  V30 1651 H 158.128 3.61201 0.973883 0
M  V30 1652 H 159.461 4.74713 1.30033 0
M  V30 1653 N 161.113 -0.173488 1.56642 0
M  V30 1654 C 162.076 -1.19859 1.95362 0
M  V30 1655 C 163.076 -1.37296 0.83704 0
M  V30 1656 O 164.266 -1.34739 1.10413 0
M  V30 1657 C 161.398 -2.56405 2.24654 0
M  V30 1658 H 162.591 -0.867062 2.87092 0
M  V30 1659 H 160.144 -0.415853 1.50666 0
M  V30 1660 H 160.879 -2.94576 1.35631 0
M  V30 1661 H 160.664 -2.45115 3.06041 0
M  V30 1662 H 162.154 -3.30287 2.5554 0
M  V30 1663 N 162.591 -1.51276 -0.441967 0
M  V30 1664 C 163.84 -1.6295 -1.18871 0
M  V30 1665 C 164.153 -0.349312 -1.92456 0
M  V30 1666 O 165.359 -0.345355 -2.69295 0
M  V30 1667 C 163.815 -2.87759 -2.16155 0
M  V30 1668 C 163.423 -4.22764 -1.48239 0
M  V30 1669 C 165.167 -3.08788 -2.91291 0
M  V30 1670 C 163.074 -5.38728 -2.4398 0
M  V30 1671 H 162.004 -0.606913 -0.447406 0
M  V30 1672 H 164.655 -1.77739 -0.456205 0
M  V30 1673 H 163.037 -2.66593 -2.92821 0
M  V30 1674 H 164.211 -4.54293 -0.771635 0
M  V30 1675 H 162.526 -4.07575 -0.852741 0
M  V30 1676 H 165.123 -3.92599 -3.63002 0
M  V30 1677 H 165.466 -2.21679 -3.5237 0
M  V30 1678 H 165.999 -3.30272 -2.21733 0
M  V30 1679 H 162.738 -6.28082 -1.87598 0
M  V30 1680 H 162.258 -5.1158 -3.13123 0
M  V30 1681 H 163.937 -5.70489 -3.05207 0
M  V30 1682 N 164.069 0.697108 -1.41344 0
M  V30 1683 C 165.318 1.45279 -1.39918 0
M  V30 1684 C 165.631 1.95597 -0.0109624 0
M  V30 1685 O 166.837 2.71208 0.125919 0
M  V30 1686 C 165.293 2.62695 -2.46007 0
M  V30 1687 C 164.901 2.19169 -3.90729 0
M  V30 1688 C 166.645 3.40336 -2.53715 0
M  V30 1689 C 164.552 3.33535 -4.88373 0
M  V30 1690 H 163.482 0.545692 -0.520323 0
M  V30 1691 H 166.133 0.756929 -1.67161 0
M  V30 1692 H 164.515 3.34541 -2.11892 0
M  V30 1693 H 165.689 1.54623 -4.34083 0
M  V30 1694 H 164.004 1.54525 -3.86666 0
M  V30 1695 H 166.601 4.2547 -3.2385 0
M  V30 1696 H 166.944 3.85418 -1.5735 0
M  V30 1697 H 167.477 2.75546 -2.86913 0
M  V30 1698 H 164.216 2.93468 -5.86137 0
M  V30 1699 H 163.736 3.96936 -4.49668 0
M  V30 1700 H 165.415 3.99335 -5.09059 0
M  V30 1701 N 165.547 1.27147 0.931209 0
M  V30 1702 C 166.772 1.16191 1.71797 0
M  V30 1703 C 167.197 -0.278004 1.86034 0
M  V30 1704 O 166.555 -1.20137 1.35782 0
M  V30 1705 C 166.603 1.84673 3.09723 0
M  V30 1706 O 165.707 1.14231 3.96264 0
M  V30 1707 H 165.048 0.404303 0.526721 0
M  V30 1708 H 167.578 1.68152 1.1656 0
M  V30 1709 H 167.588 1.91893 3.60057 0
M  V30 1710 H 166.263 2.89421 2.98677 0
M  V30 1711 H 164.84 1.15056 3.54706 0
M  V30 1712 N 167.025 -1.13721 1.09112 0
M  V30 1713 C 167.957 -2.1871 0.685467 0
M  V30 1714 C 168.97 -1.60527 -0.271068 0
M  V30 1715 O 170.159 -1.78407 -0.0576148 0
M  V30 1716 C 167.259 -3.38898 -0.0111255 0
M  V30 1717 C 166.432 -4.26597 0.966131 0
M  V30 1718 C 165.491 -5.25324 0.303539 0
M  V30 1719 O 164.517 -5.61213 0.950177 0
M  V30 1720 N 165.719 -5.72779 -0.943651 0
M  V30 1721 H 168.484 -2.54126 1.58871 0
M  V30 1722 H 166.045 -1.29012 0.978143 0
M  V30 1723 H 168.037 -4.02014 -0.465517 0
M  V30 1724 H 166.607 -3.01747 -0.816565 0
M  V30 1725 H 165.827 -3.60306 1.59917 0
M  V30 1726 H 167.115 -4.82048 1.6281 0
M  V30 1727 H 166.513 -5.45762 -1.48862 0
M  V30 1728 H 165.07 -6.37847 -1.34142 0
M  V30 1729 N 168.503 -0.877838 -1.30888 0
M  V30 1730 C 169.45 -0.337538 -2.28318 0
M  V30 1731 C 170.42 0.568346 -1.56074 0
M  V30 1732 O 171.605 0.498298 -1.84178 0
M  V30 1733 C 168.745 0.448142 -3.42178 0
M  V30 1734 C 167.858 -0.48615 -4.29256 0
M  V30 1735 C 166.993 0.314427 -5.30269 0
M  V30 1736 C 166.032 -0.615791 -6.08995 0
M  V30 1737 N 165.169 0.14902 -7.01942 0
M  V30 1738 H 170.009 -1.17356 -2.73919 0
M  V30 1739 H 167.546 -0.590094 -1.34745 0
M  V30 1740 H 169.504 0.919517 -4.06941 0
M  V30 1741 H 168.134 1.24879 -2.97666 0
M  V30 1742 H 167.186 -1.076 -3.64865 0
M  V30 1743 H 168.498 -1.19909 -4.84173 0
M  V30 1744 H 167.652 0.847969 -6.00745 0
M  V30 1745 H 166.391 1.06062 -4.76027 0
M  V30 1746 H 165.396 -1.16102 -5.37401 0
M  V30 1747 H 166.621 -1.36097 -6.65323 0
M  V30 1748 H 164.567 0.877884 -6.50099 0
M  V30 1749 H 164.484 -0.504433 -7.54315 0
M  V30 1750 H 165.752 0.663537 -7.76671 0
M  V30 1751 N 169.982 1.44106 -0.638065 0
M  V30 1752 C 171.398 1.56672 -0.304286 0
M  V30 1753 C 171.598 1.6244 1.19228 0
M  V30 1754 O 170.654 1.57121 1.9766 0
M  V30 1755 C 171.967 2.83503 -1.00231 0
M  V30 1756 C 173.515 2.97226 -0.981116 0
M  V30 1757 C 173.99 4.26868 -1.65974 0
M  V30 1758 N 175.481 4.33698 -1.62666 0
M  V30 1759 C 176.216 5.32745 -2.12063 0
M  V30 1760 N 175.712 6.38157 -2.6968 0
M  V30 1761 N 177.505 5.24299 -2.02651 0
M  V30 1762 H 169.656 1.38605 -1.60942 0
M  V30 1763 H 171.919 0.664661 -0.675965 0
M  V30 1764 H 171.625 2.85251 -2.0573 0
M  V30 1765 H 171.499 3.73251 -0.54439 0
M  V30 1766 H 173.886 2.95027 0.0654188 0
M  V30 1767 H 173.967 2.08808 -1.47759 0
M  V30 1768 H 173.611 4.29826 -2.70576 0
M  V30 1769 H 173.541 5.14156 -1.13804 0
M  V30 1770 H 176.032 3.58138 -1.20606 0
M  V30 1771 H 176.345 7.10029 -3.05087 0
M  V30 1772 H 174.69 6.38823 -2.73734 0
M  V30 1773 H 177.881 4.4086 -1.57353 0
M  V30 1774 H 178.054 6.01334 -2.41457 0
M  V30 1775 N 171.46 0.379036 1.52974 0
M  V30 1776 C 172.39 -0.452706 2.29069 0
M  V30 1777 C 173.371 -1.07237 1.32039 0
M  V30 1778 O 174.556 -1.08708 1.60923 0
M  V30 1779 C 171.686 -1.5856 3.08992 0
M  V30 1780 C 170.64 -1.0925 4.13822 0
M  V30 1781 C 169.966 -2.31668 4.81907 0
M  V30 1782 C 171.266 -0.167702 5.22031 0
M  V30 1783 H 172.96 0.182181 2.98845 0
M  V30 1784 H 170.506 0.0890592 1.43724 0
M  V30 1785 H 172.459 -2.1742 3.6098 0
M  V30 1786 H 171.183 -2.24792 2.36931 0
M  V30 1787 H 169.842 -0.526494 3.628 0
M  V30 1788 H 169.49 -2.96386 4.06404 0
M  V30 1789 H 169.19 -1.9934 5.52754 0
M  V30 1790 H 170.714 -2.91189 5.36695 0
M  V30 1791 H 172.128 -0.664186 5.6944 0
M  V30 1792 H 170.525 0.0653265 6.00064 0
M  V30 1793 H 171.595 0.786347 4.78482 0
M  V30 1794 N 172.938 -1.57226 0.108567 0
M  V30 1795 C 174.186 -1.94448 -0.550853 0
M  V30 1796 C 174.507 -0.992074 -1.67878 0
M  V30 1797 O 173.777 -0.0465 -1.95845 0
M  V30 1798 H 172.357 -0.717897 -0.206479 0
M  V30 1799 H 175.019 -1.94112 0.175062 0
M  V30 1800 H 174.115 -2.97218 -0.952259 0
M  V30 1801 N 174.416 0.165178 -1.56732 0
M  V30 1802 C 175.656 0.887231 -1.8414 0
M  V30 1803 C 176.02 1.79159 -0.690353 0
M  V30 1804 O 177.221 2.55172 -0.845032 0
M  V30 1805 C 175.492 1.65674 -3.16681 0
M  V30 1806 S 177.051 2.42671 -3.6559 0
M  V30 1807 H 173.869 0.297042 -0.645978 0
M  V30 1808 H 176.471 0.148439 -1.94936 0
M  V30 1809 H 175.175 0.983507 -3.98441 0
M  V30 1810 H 174.706 2.43679 -3.08843 0
M  V30 1811 H 176.721 3.67499 -3.33406 0
M  V30 1812 N 175.894 1.51508 0.433938 0
M  V30 1813 C 176.842 1.73646 1.54757 0
M  V30 1814 C 177.836 0.602854 1.5831 0
M  V30 1815 O 179.042 0.784318 1.62014 0
M  V30 1816 H 175.417 0.548718 0.51421 0
M  V30 1817 H 177.388 2.66991 1.33261 0
M  V30 1818 C 176.137 1.88172 2.92381 0
M  V30 1819 H 175.46 2.74808 2.90381 0
M  V30 1820 H 176.9 2.07672 3.6966 0
M  V30 1821 C 175.359 0.64239 3.30719 0
M  V30 1822 O 175.889 -0.201362 4.01195 0
M  V30 1823 N 174.095 0.485489 2.86516 0
M  V30 1824 H 173.642 1.17318 2.29334 0
M  V30 1825 H 173.6 -0.342482 3.12529 0
M  V30 1826 N 177.372 -0.689602 1.41712 0
M  V30 1827 C 178.62 -1.4468 1.4111 0
M  V30 1828 C 178.941 -1.94986 0.0232196 0
M  V30 1829 O 178.211 -1.72097 -0.935913 0
M  V30 1830 H 176.791 -0.536847 0.519427 0
M  V30 1831 H 179.453 -0.815825 1.77004 0
M  V30 1832 H 178.549 -2.30706 2.10193 0
M  V30 1833 N 178.85 -1.27639 -0.924453 0
M  V30 1834 C 179.78 -1.13166 -2.04244 0
M  V30 1835 C 180.761 -0.032256 -1.70069 0
M  V30 1836 O 181.946 -0.207328 -1.9309 0
M  V30 1837 C 179.076 -0.781496 -3.38393 0
M  V30 1838 C 178.03 -1.83449 -3.86692 0
M  V30 1839 C 177.356 -1.33822 -5.17683 0
M  V30 1840 C 178.656 -3.23917 -4.09726 0
M  V30 1841 H 180.35 -2.06689 -2.1661 0
M  V30 1842 H 177.896 -0.995136 -1.04082 0
M  V30 1843 H 179.849 -0.667057 -4.16087 0
M  V30 1844 H 178.573 0.189439 -3.2605 0
M  V30 1845 H 177.232 -1.93789 -3.11193 0
M  V30 1846 H 176.88 -0.35665 -5.01734 0
M  V30 1847 H 176.58 -2.04224 -5.50968 0
M  V30 1848 H 178.104 -1.23679 -5.97943 0
M  V30 1849 H 179.518 -3.16559 -4.77978 0
M  V30 1850 H 177.915 -3.92059 -4.54324 0
M  V30 1851 H 178.985 -3.68729 -3.14908 0
M  V30 1852 N 180.328 1.1314 -1.09713 0
M  V30 1853 C 181.576 1.84119 -0.833338 0
M  V30 1854 C 181.897 1.84097 0.642904 0
M  V30 1855 O 181.167 1.29881 1.46655 0
M  V30 1856 H 179.747 0.681766 -0.305293 0
M  V30 1857 H 182.409 1.37038 -1.38588 0
M  V30 1858 H 181.505 2.88543 -1.18951 0
M  V30 1859 N 181.806 0.884767 1.30421 0
M  V30 1860 C 183.053 0.503105 1.96151 0
M  V30 1861 C 183.381 -0.947676 1.69851 0
M  V30 1862 O 182.636 -1.68467 0.995861 0
M  V30 1863 C 182.935 0.724318 3.49983 0
M  V30 1864 C 182.601 2.15015 3.96332 0
M  V30 1865 C 181.263 2.54005 4.08699 0
M  V30 1866 C 183.615 3.07936 4.20505 0
M  V30 1867 C 180.943 3.85128 4.42599 0
M  V30 1868 C 183.295 4.3859 4.55874 0
M  V30 1869 C 181.959 4.77474 4.66449 0
M  V30 1870 H 181.229 0.184099 0.717766 0
M  V30 1871 H 183.876 1.12058 1.55291 0
M  V30 1872 H 182.181 0.0238086 3.91793 0
M  V30 1873 H 183.878 0.408617 3.98913 0
M  V30 1874 H 180.468 1.8375 3.87213 0
M  V30 1875 H 184.652 2.79033 4.10431 0
M  V30 1876 H 179.908 4.14996 4.48986 0
M  V30 1877 H 184.082 5.10629 4.7353 0
M  V30 1878 H 181.709 5.79115 4.92473 0
M  V30 1879 N 183.284 -1.43765 0.645699 0
M  V30 1880 C 184.509 -2.06767 0.161883 0
M  V30 1881 C 184.934 -1.48034 -1.16049 0
M  V30 1882 O 184.292 -0.587369 -1.71522 0
M  V30 1883 C 184.34 -3.60519 0.0762003 0
M  V30 1884 O 183.444 -4.00982 -0.963721 0
M  V30 1885 H 182.785 -0.657675 0.091429 0
M  V30 1886 H 185.315 -1.84397 0.886499 0
M  V30 1887 H 185.325 -4.07853 -0.109604 0
M  V30 1888 H 184 -4.02646 1.04157 0
M  V30 1889 H 182.577 -3.65253 -0.751312 0
M  V30 1890 N 184.763 -0.387143 -1.52771 0
M  V30 1891 C 186.04 0.253197 -1.93954 0
M  V30 1892 C 186.42 1.64545 -1.32243 0
M  V30 1893 O 185.768 2.23191 -0.489699 0
M  V30 1894 C 185.978 0.281722 -3.47861 0
M  V30 1895 C 187.326 0.511715 -4.21505 0
M  V30 1896 O 188.35 0.362023 -3.54356 0
M  V30 1897 O 187.209 0.804847 -5.40541 0
M  V30 1898 H 184.303 0.156845 -0.811991 0
M  V30 1899 H 186.849 -0.441494 -1.63856 0
M  V30 1900 H 185.621 -0.693571 -3.85104 0
M  V30 1901 H 185.244 1.02142 -3.84256 0
M  V30 1902 N 186.241 1.57166 -0.116904 0
M  V30 1903 C 187.171 2.18222 0.830759 0
M  V30 1904 C 188.152 1.12167 1.27877 0
M  V30 1905 O 189.337 1.40394 1.34176 0
M  V30 1906 C 186.467 2.77996 2.08172 0
M  V30 1907 C 185.421 3.89614 1.77157 0
M  V30 1908 C 184.747 4.36187 3.09265 0
M  V30 1909 C 186.047 5.1181 1.04151 0
M  V30 1910 H 187.741 2.97664 0.321992 0
M  V30 1911 H 185.287 1.4318 0.153434 0
M  V30 1912 H 187.24 3.19366 2.74924 0
M  V30 1913 H 185.964 1.9584 2.6137 0
M  V30 1914 H 184.623 3.48816 1.12796 0
M  V30 1915 H 184.271 3.50893 3.60393 0
M  V30 1916 H 183.971 5.11455 2.89288 0
M  V30 1917 H 185.495 4.80207 3.77139 0
M  V30 1918 H 186.909 5.50214 1.61052 0
M  V30 1919 H 185.306 5.92648 0.942762 0
M  V30 1920 H 186.376 4.84892 0.0279022 0
M  V30 1921 N 187.719 -0.156864 1.56817 0
M  V30 1922 C 189.13 -0.717916 1.72345 0
M  V30 1923 C 189.481 -1.82124 0.729747 0
M  V30 1924 O 188.606 -2.16141 -0.105781 0
M  V30 1925 C 189.201 -1.30904 3.12489 0
M  V30 1926 C 187.76 -1.81676 3.29653 0
M  V30 1927 C 186.907 -0.701349 2.68284 0
M  V30 1928 H 189.858 0.0686989 1.58551 0
M  V30 1929 H 189.879 -2.17882 3.11942 0
M  V30 1930 H 189.391 -0.505796 3.8479 0
M  V30 1931 H 187.492 -2.64598 2.62333 0
M  V30 1932 H 187.605 -1.95226 4.3752 0
M  V30 1933 H 185.969 -1.12548 2.28484 0
M  V30 1934 H 186.752 0.0902846 3.43181 0
M  V30 1935 N 189.197 -1.51736 -0.425897 0
M  V30 1936 C 190.445 -1.64644 -1.17204 0
M  V30 1937 C 190.766 -0.370486 -1.91448 0
M  V30 1938 O 190.036 0.614088 -1.86026 0
M  V30 1939 H 188.616 -0.606819 -0.435638 0
M  V30 1940 H 191.278 -1.88713 -0.487177 0
M  V30 1941 H 190.374 -2.47958 -1.89534 0
M  V30 1942 N 190.675 0.682077 -1.42076 0
M  V30 1943 C 191.622 1.79578 -1.44984 0
M  V30 1944 C 192.592 1.6332 -0.302614 0
M  V30 1945 O 193.777 1.83978 -0.505633 0
M  V30 1946 C 190.917 3.1756 -1.35091 0
M  V30 1947 C 190.03 3.45156 -2.59791 0
M  V30 1948 C 189.165 4.72826 -2.42093 0
M  V30 1949 C 188.204 4.93433 -3.62202 0
M  V30 1950 N 187.341 6.12338 -3.43491 0
M  V30 1951 H 192.181 1.76427 -2.40161 0
M  V30 1952 H 189.718 0.861376 -1.19242 0
M  V30 1953 H 191.676 3.97287 -1.27354 0
M  V30 1954 H 190.306 3.19854 -0.435133 0
M  V30 1955 H 189.358 2.59736 -2.77923 0
M  V30 1956 H 190.67 3.5628 -3.49094 0
M  V30 1957 H 189.824 5.60631 -2.319 0
M  V30 1958 H 188.563 4.63973 -1.50268 0
M  V30 1959 H 187.568 4.04073 -3.72834 0
M  V30 1960 H 188.793 5.04136 -4.54998 0
M  V30 1961 H 186.739 6.04672 -2.54377 0
M  V30 1962 H 186.656 6.2429 -4.26377 0
M  V30 1963 H 187.924 7.02841 -3.37097 0
M  V30 1964 N 192.153 1.28127 0.917671 0
M  V30 1965 C 193.564 1.13622 1.48145 0
M  V30 1966 C 193.915 -0.275207 1.9426 0
M  V30 1967 O 193.04 -1.1691 1.82102 0
M  V30 1968 C 193.635 2.05648 2.69248 0
M  V30 1969 C 192.194 1.95219 3.21818 0
M  V30 1970 C 191.341 1.97618 1.94532 0
M  V30 1971 H 194.292 1.40874 0.730772 0
M  V30 1972 H 194.313 1.61818 3.44377 0
M  V30 1973 H 193.825 3.08365 2.35653 0
M  V30 1974 H 191.926 0.955244 3.60147 0
M  V30 1975 H 192.039 2.81976 3.87333 0
M  V30 1976 H 190.403 1.41973 2.11461 0
M  V30 1977 H 191.186 3.02007 1.63238 0
M  V30 1978 N 193.631 -1.12557 1.10312 0
M  V30 1979 C 194.561 -2.20341 0.772798 0
M  V30 1980 C 195.542 -1.68198 -0.25365 0
M  V30 1981 O 196.727 -1.93831 -0.119699 0
M  V30 1982 C 193.857 -3.46709 0.202443 0
M  V30 1983 C 192.811 -4.11996 1.15943 0
M  V30 1984 C 192.137 -5.328 0.450345 0
M  V30 1985 C 193.437 -4.5828 2.50552 0
M  V30 1986 H 195.131 -2.48229 1.674 0
M  V30 1987 H 192.677 -1.19308 0.806326 0
M  V30 1988 H 194.63 -4.2138 -0.0407752 0
M  V30 1989 H 193.354 -3.18245 -0.734001 0
M  V30 1990 H 192.013 -3.39305 1.38808 0
M  V30 1991 H 191.661 -5.00602 -0.490531 0
M  V30 1992 H 191.361 -5.7743 1.08851 0
M  V30 1993 H 192.885 -6.10219 0.215642 0
M  V30 1994 H 194.299 -5.2433 2.31843 0
M  V30 1995 H 192.696 -5.13683 3.10242 0
M  V30 1996 H 193.766 -3.72329 3.10643 0
M  V30 1997 N 195.109 -0.891671 -1.2995 0
M  V30 1998 C 196.072 -0.36828 -2.26222 0
M  V30 1999 C 197.072 0.493014 -1.53056 0
M  V30 2000 O 198.262 0.299213 -1.71611 0
M  V30 2001 C 195.394 0.47442 -3.37583 0
M  V30 2002 H 196.587 -1.21844 -2.74033 0
M  V30 2003 H 194.14 -0.669107 -1.41254 0
M  V30 2004 H 194.875 1.34489 -2.95099 0
M  V30 2005 H 194.66 -0.142615 -3.91841 0
M  V30 2006 H 196.15 0.83218 -4.09224 0
M  V30 2007 N 196.587 1.43421 -0.653314 0
M  V30 2008 C 198.003 1.56341 -0.320886 0
M  V30 2009 C 198.203 1.63696 1.17499 0
M  V30 2010 O 197.259 1.59208 1.95982 0
M  V30 2011 C 198.572 2.82424 -1.03233 0
M  V30 2012 C 200.12 2.96168 -1.01259 0
M  V30 2013 C 200.595 4.25084 -1.70492 0
M  V30 2014 N 202.086 4.31948 -1.67257 0
M  V30 2015 C 202.821 5.30466 -2.17701 0
M  V30 2016 N 202.317 6.35261 -2.76434 0
M  V30 2017 N 204.11 5.2212 -2.082 0
M  V30 2018 H 196.261 1.3689 -1.62403 0
M  V30 2019 H 198.524 0.657455 -0.682977 0
M  V30 2020 H 198.23 2.83053 -2.08744 0
M  V30 2021 H 198.104 3.72653 -0.583948 0
M  V30 2022 H 200.491 2.9508 0.0341235 0
M  V30 2023 H 200.572 2.07229 -1.49966 0
M  V30 2024 H 200.216 4.26932 -2.7512 0
M  V30 2025 H 200.146 5.1292 -1.19251 0
M  V30 2026 H 202.637 3.56838 -1.24398 0
M  V30 2027 H 202.95 7.06754 -3.12601 0
M  V30 2028 H 201.295 6.35884 -2.80495 0
M  V30 2029 H 204.486 4.39166 -1.62021 0
M  V30 2030 H 204.659 5.98739 -2.47822 0
M  V30 2031 N 198.065 0.39524 1.52563 0
M  V30 2032 C 198.995 -0.428384 2.29537 0
M  V30 2033 C 199.976 -1.05831 1.33169 0
M  V30 2034 O 201.161 -1.06995 1.62067 0
M  V30 2035 C 198.291 -1.55274 3.10656 0
M  V30 2036 C 197.245 -1.04855 4.14957 0
M  V30 2037 C 196.571 -2.26543 4.84337 0
M  V30 2038 C 197.871 -0.112324 5.22179 0
M  V30 2039 H 199.565 0.213867 2.98635 0
M  V30 2040 H 197.111 0.104298 1.43622 0
M  V30 2041 H 199.064 -2.1358 3.63265 0
M  V30 2042 H 197.788 -2.22266 2.39302 0
M  V30 2043 H 196.447 -0.487985 3.63338 0
M  V30 2044 H 196.095 -2.92059 4.09525 0
M  V30 2045 H 195.795 -1.93466 5.54837 0
M  V30 2046 H 197.319 -2.85481 5.39753 0
M  V30 2047 H 198.733 -0.603752 5.70112 0
M  V30 2048 H 197.13 0.128968 5.99961 0
M  V30 2049 H 198.2 0.837052 4.77621 0
M  V30 2050 N 199.544 -1.57102 0.125237 0
M  V30 2051 C 200.79 -1.95697 -0.532035 0
M  V30 2052 C 201.123 -1.009 -1.6593 0
M  V30 2053 O 200.398 -0.047347 -1.94442 0
M  V30 2054 C 200.681 -3.44181 -1.05884 0
M  V30 2055 C 200.534 -4.49752 0.0654392 0
M  V30 2056 C 201.853 -3.94655 -1.9477 0
M  V30 2057 H 198.972 -0.711571 -0.191925 0
M  V30 2058 H 201.614 -1.88923 0.20206 0
M  V30 2059 H 199.764 -3.50085 -1.68442 0
M  V30 2060 H 201.436 -4.55943 0.700982 0
M  V30 2061 H 199.679 -4.27653 0.727709 0
M  V30 2062 H 200.35 -5.50924 -0.344505 0
M  V30 2063 H 202.826 -3.91094 -1.42074 0
M  V30 2064 H 201.702 -4.99057 -2.28546 0
M  V30 2065 H 201.963 -3.35718 -2.87656 0
M  V30 2066 N 201.022 0.148545 -1.56898 0
M  V30 2067 C 201.985 1.16736 -1.97244 0
M  V30 2068 C 202.985 1.35947 -0.858777 0
M  V30 2069 O 204.175 1.32966 -1.12542 0
M  V30 2070 C 201.307 2.52798 -2.28705 0
M  V30 2071 H 202.5 0.821279 -2.88435 0
M  V30 2072 H 200.053 0.391831 -1.51309 0
M  V30 2073 H 200.788 2.92381 -1.403 0
M  V30 2074 H 200.573 2.40216 -3.09901 0
M  V30 2075 H 202.063 3.26179 -2.60762 0
M  V30 2076 N 202.5 1.5196 0.417844 0
M  V30 2077 C 203.911 1.57851 0.997 0
M  V30 2078 C 204.262 0.413714 1.91789 0
M  V30 2079 O 203.387 -0.467057 2.113 0
M  V30 2080 C 203.982 2.86085 1.81496 0
M  V30 2081 C 202.541 2.94483 2.34428 0
M  V30 2082 C 201.688 2.52707 1.14169 0
M  V30 2083 H 204.639 1.57455 0.198392 0
M  V30 2084 H 204.66 2.70947 2.67148 0
M  V30 2085 H 204.172 3.70842 1.14446 0
M  V30 2086 H 202.273 2.142 3.04875 0
M  V30 2087 H 202.386 3.98546 2.65891 0
M  V30 2088 H 200.75 2.06353 1.49301 0
M  V30 2089 H 201.533 3.39828 0.486999 0
M  V30 2090 N 203.978 -0.674533 1.42435 0
M  V30 2091 C 204.908 -1.80009 1.48724 0
M  V30 2092 C 205.889 -1.6659 0.343793 0
M  V30 2093 O 207.074 -1.86007 0.558137 0
M  V30 2094 C 204.204 -3.18306 1.38919 0
M  V30 2095 C 203.158 -3.46461 2.51294 0
M  V30 2096 C 202.484 -4.84335 2.26547 0
M  V30 2097 C 203.784 -3.43328 3.93603 0
M  V30 2098 H 205.478 -1.75004 2.42928 0
M  V30 2099 H 203.024 -0.840533 1.16923 0
M  V30 2100 H 204.977 -3.9678 1.41927 0
M  V30 2101 H 203.701 -3.2399 0.412094 0
M  V30 2102 H 202.36 -2.70348 2.47604 0
M  V30 2103 H 202.008 -4.86669 1.2713 0
M  V30 2104 H 201.708 -5.04136 3.01861 0
M  V30 2105 H 203.232 -5.65094 2.31304 0
M  V30 2106 H 204.646 -4.11772 3.98894 0
M  V30 2107 H 203.043 -3.74664 4.68771 0
M  V30 2108 H 204.113 -2.41897 4.20255 0
M  V30 2109 N 205.456 -1.28612 -0.910864 0
M  V30 2110 C 206.419 -1.12803 -1.9952 0
M  V30 2111 C 207.419 -0.0668264 -1.60661 0
M  V30 2112 O 208.609 -0.312847 -1.71368 0
M  V30 2113 C 205.741 -0.72254 -3.33155 0
M  V30 2114 H 206.934 -2.09109 -2.14973 0
M  V30 2115 H 204.487 -1.11639 -1.09391 0
M  V30 2116 H 205.222 0.241152 -3.23402 0
M  V30 2117 H 205.007 -1.48916 -3.62721 0
M  V30 2118 H 206.497 -0.634666 -4.12749 0
M  V30 2119 N 206.934 1.1197 -1.10907 0
M  V30 2120 C 208.345 1.65114 -0.871446 0
M  V30 2121 C 208.696 1.86885 0.597353 0
M  V30 2122 O 207.821 1.59896 1.45816 0
M  V30 2123 C 208.416 2.99944 -1.5754 0
M  V30 2124 C 206.975 3.50018 -1.38435 0
M  V30 2125 C 206.122 2.24941 -1.62164 0
M  V30 2126 H 209.073 0.956851 -1.2661 0
M  V30 2127 H 209.094 3.66651 -1.01721 0
M  V30 2128 H 208.606 2.84067 -2.64438 0
M  V30 2129 H 206.707 3.71071 -0.337214 0
M  V30 2130 H 206.82 4.29165 -2.12965 0
M  V30 2131 H 205.184 2.3229 -1.04467 0
M  V30 2132 H 205.967 2.11612 -2.70324 0
M  V30 2133 N 208.412 0.89855 1.29475 0
M  V30 2134 C 209.689 0.443416 1.90508 0
M  V30 2135 C 210.069 -1.07685 1.81569 0
M  V30 2136 O 209.417 -1.9182 1.24166 0
M  V30 2137 C 209.627 0.956708 3.35631 0
M  V30 2138 C 210.975 0.999728 4.12663 0
M  V30 2139 O 211.999 0.904299 3.4453 0
M  V30 2140 O 210.858 1.14289 5.34416 0
M  V30 2141 H 207.952 0.138025 0.815401 0
M  V30 2142 H 210.498 0.98834 1.37949 0
M  V30 2143 H 209.27 2.00067 3.36287 0
M  V30 2144 H 208.893 0.391728 3.95666 0
M  V30 2145 N 209.89 -1.43072 0.660911 0
M  V30 2146 C 211.118 -2.06067 0.185422 0
M  V30 2147 C 211.533 -1.49582 -1.15198 0
M  V30 2148 O 210.89 -0.630134 -1.71276 0
M  V30 2149 C 210.941 -3.61371 0.0966523 0
M  V30 2150 O 210.662 -4.15758 1.38119 0
M  V30 2151 C 212.163 -4.41455 -0.403996 0
M  V30 2152 H 209.383 -0.664459 0.0934604 0
M  V30 2153 H 211.927 -1.83447 0.90373 0
M  V30 2154 H 210.082 -3.8315 -0.572259 0
M  V30 2155 H 210.496 -5.09499 1.24542 0
M  V30 2156 H 211.97 -5.50437 -0.415045 0
M  V30 2157 H 212.447 -4.15036 -1.43674 0
M  V30 2158 H 213.053 -4.24663 0.232691 0
M  V30 2159 N 211.368 -0.403325 -1.52352 0
M  V30 2160 C 212.3 0.4603 -2.2453 0
M  V30 2161 C 213.313 1.01505 -1.27282 0
M  V30 2162 O 214.502 0.914982 -1.53266 0
M  V30 2163 C 211.602 1.65208 -2.95905 0
M  V30 2164 C 210.775 1.22224 -4.19976 0
M  V30 2165 C 209.834 2.28028 -4.74226 0
M  V30 2166 O 208.86 1.88857 -5.36956 0
M  V30 2167 N 210.062 3.6012 -4.55295 0
M  V30 2168 H 212.827 -0.158156 -2.99282 0
M  V30 2169 H 210.388 -0.230402 -1.60252 0
M  V30 2170 H 212.38 2.35541 -3.29093 0
M  V30 2171 H 210.95 2.17658 -2.24374 0
M  V30 2172 H 210.17 0.34725 -3.92668 0
M  V30 2173 H 211.458 0.911924 -5.00561 0
M  V30 2174 H 210.856 3.94698 -4.05253 0
M  V30 2175 H 209.413 4.26447 -4.92936 0
M  V30 2176 N 212.846 1.57033 -0.133567 0
M  V30 2177 C 214.092 1.95976 0.521649 0
M  V30 2178 C 214.425 1.01779 1.65393 0
M  V30 2179 O 213.7 0.0576581 1.94415 0
M  V30 2180 C 213.983 3.44738 1.04057 0
M  V30 2181 C 213.836 4.49711 -0.0892897 0
M  V30 2182 C 215.155 3.95682 1.92675 0
M  V30 2183 H 212.274 0.712579 0.188149 0
M  V30 2184 H 214.916 1.88813 -0.212076 0
M  V30 2185 H 213.066 3.50973 1.66583 0
M  V30 2186 H 214.738 4.55565 -0.725152 0
M  V30 2187 H 212.981 4.27261 -0.750378 0
M  V30 2188 H 213.652 5.51099 0.315284 0
M  V30 2189 H 216.128 3.91841 1.39998 0
M  V30 2190 H 215.004 5.00262 2.25897 0
M  V30 2191 H 215.265 3.37239 2.85872 0
M  V30 2192 N 214.325 -0.140222 1.56975 0
M  V30 2193 C 215.255 -1.17456 2.01808 0
M  V30 2194 C 216.236 -1.44415 0.898794 0
M  V30 2195 O 217.421 -1.5522 1.16707 0
M  V30 2196 C 214.551 -2.50607 2.40444 0
M  V30 2197 C 213.505 -2.38155 3.55621 0
M  V30 2198 C 212.831 -3.76078 3.80091 0
M  V30 2199 C 214.131 -1.85991 4.88062 0
M  V30 2200 H 215.825 -0.801743 2.88466 0
M  V30 2201 H 213.371 -0.38422 1.38779 0
M  V30 2202 H 215.324 -3.23197 2.7041 0
M  V30 2203 H 214.048 -2.89737 1.50732 0
M  V30 2204 H 212.707 -1.68016 3.25832 0
M  V30 2205 H 212.355 -4.12656 2.87618 0
M  V30 2206 H 212.055 -3.68606 4.57606 0
M  V30 2207 H 213.579 -4.50206 4.12488 0
M  V30 2208 H 214.993 -2.4838 5.16701 0
M  V30 2209 H 213.39 -1.89393 5.6943 0
M  V30 2210 H 214.46 -0.816023 4.77984 0
M  V30 2211 N 215.803 -1.52179 -0.40978 0
M  V30 2212 C 217.049 -1.66453 -1.15851 0
M  V30 2213 C 217.382 -0.392972 -1.90182 0
M  V30 2214 O 216.657 0.608579 -1.84734 0
M  V30 2215 C 216.94 -2.88612 -2.15349 0
M  V30 2216 C 216.793 -4.25815 -1.44918 0
M  V30 2217 C 218.112 -3.06294 -3.16026 0
M  V30 2218 H 215.231 -0.60575 -0.419805 0
M  V30 2219 H 217.873 -1.84732 -0.444314 0
M  V30 2220 H 216.023 -2.73158 -2.76255 0
M  V30 2221 H 217.695 -4.52995 -0.871365 0
M  V30 2222 H 215.938 -4.27247 -0.751159 0
M  V30 2223 H 216.609 -5.07337 -2.17516 0
M  V30 2224 H 219.085 -3.20641 -2.65195 0
M  V30 2225 H 217.961 -3.93283 -3.8291 0
M  V30 2226 H 218.222 -2.19579 -3.83715 0
M  V30 2227 N 217.281 0.66697 -1.42791 0
M  V30 2228 C 218.214 1.79177 -1.41318 0
M  V30 2229 C 219.192 1.60234 -0.276401 0
M  V30 2230 O 220.376 1.82602 -0.46785 0
M  V30 2231 C 217.503 3.16289 -1.21157 0
M  V30 2232 C 216.549 3.53964 -2.37932 0
M  V30 2233 S 217.382 3.55501 -4.00474 0
M  V30 2234 C 218.538 4.95292 -3.8267 0
M  V30 2235 H 218.771 1.80153 -2.365 0
M  V30 2236 H 216.304 0.838357 -1.29657 0
M  V30 2237 H 218.262 3.95428 -1.10212 0
M  V30 2238 H 216.923 3.1289 -0.275481 0
M  V30 2239 H 216.116 4.53646 -2.19594 0
M  V30 2240 H 215.718 2.82204 -2.45432 0
M  V30 2241 H 218.01 5.83584 -3.44145 0
M  V30 2242 H 218.953 5.18679 -4.82055 0
M  V30 2243 H 219.361 4.68179 -3.15386 0
M  V30 2244 N 218.759 1.29093 0.90403 0
M  V30 2245 C 220.17 1.15186 1.46932 0
M  V30 2246 C 220.521 -0.254587 1.94541 0
M  V30 2247 O 219.646 -1.14972 1.83332 0
M  V30 2248 C 220.241 2.08492 2.67051 0
M  V30 2249 C 218.8 1.98621 3.19729 0
M  V30 2250 C 217.947 1.9967 1.92425 0
M  V30 2251 H 220.898 1.41641 0.715789 0
M  V30 2252 H 220.919 1.65461 3.42641 0
M  V30 2253 H 220.431 3.10847 2.3237 0
M  V30 2254 H 218.532 0.993389 3.59114 0
M  V30 2255 H 218.645 2.86068 3.8432 0
M  V30 2256 H 217.009 1.44208 2.09943 0
M  V30 2257 H 217.792 3.03721 1.60026 0
M  V30 2258 N 220.237 -1.11381 1.11499 0
M  V30 2259 C 221.167 -2.19509 0.796125 0
M  V30 2260 C 222.148 -1.68458 -0.235796 0
M  V30 2261 O 223.333 -1.93947 -0.0991344 0
M  V30 2262 C 220.463 -3.46475 0.239205 0
M  V30 2263 C 219.417 -4.10744 1.20307 0
M  V30 2264 C 218.743 -5.32293 0.50683 0
M  V30 2265 C 220.043 -4.55597 2.55399 0
M  V30 2266 H 221.737 -2.46439 1.70024 0
M  V30 2267 H 219.283 -1.18446 0.818935 0
M  V30 2268 H 221.236 -4.214 0.00392006 0
M  V30 2269 H 219.96 -3.19006 -0.700206 0
M  V30 2270 H 218.619 -3.37813 1.42399 0
M  V30 2271 H 218.267 -5.01095 -0.437408 0
M  V30 2272 H 217.967 -5.76243 1.1497 0
M  V30 2273 H 219.491 -6.09956 0.280351 0
M  V30 2274 H 220.905 -5.21841 2.37391 0
M  V30 2275 H 219.302 -5.10363 3.15673 0
M  V30 2276 H 220.372 -3.69013 3.14575 0
M  V30 2277 N 221.715 -0.905404 -1.28997 0
M  V30 2278 C 222.678 -0.392253 -2.25819 0
M  V30 2279 C 223.678 0.476753 -1.5357 0
M  V30 2280 O 224.868 0.280994 -1.71919 0
M  V30 2281 C 222 0.438588 -3.38067 0
M  V30 2282 H 223.193 -1.24743 -2.72725 0
M  V30 2283 H 220.746 -0.684051 -1.40536 0
M  V30 2284 H 221.481 1.31352 -2.96508 0
M  V30 2285 H 221.266 -0.184167 -3.91667 0
M  V30 2286 H 222.756 0.78873 -4.10084 0
M  V30 2287 N 223.193 1.4272 -0.668489 0
M  V30 2288 C 224.47 1.95248 -0.117373 0
M  V30 2289 C 224.85 1.60919 1.36632 0
M  V30 2290 O 224.198 0.902095 2.09939 0
M  V30 2291 C 224.408 3.46927 -0.379806 0
M  V30 2292 C 225.756 4.23588 -0.292923 0
M  V30 2293 O 226.78 3.5482 -0.313204 0
M  V30 2294 O 225.639 5.46017 -0.229697 0
M  V30 2295 H 222.733 0.827 0.00079152 0
M  V30 2296 H 225.279 1.52581 -0.742783 0
M  V30 2297 H 224.051 3.65096 -1.40786 0
M  V30 2298 H 223.674 3.96627 0.277923 0
M  V30 2299 N 224.671 0.411399 1.52136 0
M  V30 2300 C 225.618 -0.412975 2.27075 0
M  V30 2301 C 226.588 -1.03912 1.29582 0
M  V30 2302 O 227.773 -1.06296 1.58448 0
M  V30 2303 C 224.913 -1.52247 3.09701 0
M  V30 2304 C 224.026 -0.917021 4.22155 0
M  V30 2305 C 223.161 -1.9994 4.92135 0
M  V30 2306 C 222.2 -1.37101 5.96548 0
M  V30 2307 N 221.337 -2.39364 6.60038 0
M  V30 2308 H 226.177 0.232499 2.97092 0
M  V30 2309 H 223.714 0.126496 1.46555 0
M  V30 2310 H 225.672 -2.17674 3.55913 0
M  V30 2311 H 224.302 -2.13794 2.41851 0
M  V30 2312 H 223.354 -0.151742 3.80097 0
M  V30 2313 H 224.666 -0.418006 4.97045 0
M  V30 2314 H 223.82 -2.73088 5.41763 0
M  V30 2315 H 222.559 -2.53208 4.16818 0
M  V30 2316 H 221.564 -0.624873 5.46237 0
M  V30 2317 H 222.789 -0.845998 6.7381 0
M  V30 2318 H 220.735 -2.91759 5.87548 0
M  V30 2319 H 220.652 -1.9428 7.3061 0
M  V30 2320 H 221.92 -3.12074 7.14304 0
M  V30 2321 N 226.149 -1.5696 0.141893 0
M  V30 2322 C 227.059 -2.20066 -0.812905 0
M  V30 2323 C 228.075 -1.18344 -1.27557 0
M  V30 2324 O 229.251 -1.50902 -1.33381 0
M  V30 2325 C 226.316 -2.80583 -2.03652 0
M  V30 2326 C 225.377 -3.97414 -1.62359 0
M  V30 2327 C 224.61 -4.55036 -2.78887 0
M  V30 2328 O 224.833 -4.11538 -3.94959 0
M  V30 2329 O 223.767 -5.45376 -2.54653 0
M  V30 2330 H 227.593 -3.02157 -0.305746 0
M  V30 2331 H 225.178 -1.49159 -0.0848799 0
M  V30 2332 H 227.06 -3.19067 -2.75272 0
M  V30 2333 H 225.735 -2.01508 -2.5333 0
M  V30 2334 H 224.642 -3.63656 -0.877775 0
M  V30 2335 H 225.975 -4.77994 -1.17401 0
M  V30 2336 N 227.627 0.131896 -1.57047 0
M  V30 2337 C 228.59 1.14638 -1.98471 0
M  V30 2338 C 229.59 1.35029 -0.873148 0
M  V30 2339 O 230.78 1.31764 -1.13946 0
M  V30 2340 C 227.912 2.50358 -2.31373 0
M  V30 2341 H 229.105 0.79064 -2.8929 0
M  V30 2342 H 226.658 0.375761 -1.51716 0
M  V30 2343 H 227.393 2.90876 -1.43393 0
M  V30 2344 H 227.178 2.36915 -3.12432 0
M  V30 2345 H 228.668 3.23395 -2.64207 0
M  V30 2346 N 229.106 1.52395 0.401703 0
M  V30 2347 C 230.354 1.66488 1.14569 0
M  V30 2348 C 230.675 0.400897 1.90835 0
M  V30 2349 O 229.945 -0.584415 1.8698 0
M  V30 2350 H 228.525 0.613672 0.425929 0
M  V30 2351 H 231.187 1.89464 0.457093 0
M  V30 2352 H 230.283 2.50942 1.85566 0
M  V30 2353 N 230.584 -0.659388 1.43143 0
M  V30 2354 C 231.547 -1.75432 1.47501 0
M  V30 2355 C 232.547 -1.56707 0.360512 0
M  V30 2356 O 233.737 -1.62717 0.622002 0
M  V30 2357 C 230.869 -3.14239 1.32162 0
M  V30 2358 H 232.062 -1.7295 2.45006 0
M  V30 2359 H 229.615 -0.870469 1.29817 0
M  V30 2360 H 230.35 -3.22336 0.356401 0
M  V30 2361 H 230.135 -3.29235 2.12948 0
M  V30 2362 H 231.625 -3.94094 1.3813 0
M  V30 2363 N 232.062 -1.29571 -0.897171 0
M  V30 2364 C 233.308 -1.17863 -1.65034 0
M  V30 2365 C 233.641 0.268729 -1.92332 0
M  V30 2366 O 232.916 1.19378 -1.53555 0
M  V30 2367 C 233.199 -1.995 -2.99786 0
M  V30 2368 C 233.052 -3.5239 -2.79538 0
M  V30 2369 C 234.371 -1.82335 -4.00552 0
M  V30 2370 H 231.49 -0.429528 -0.598895 0
M  V30 2371 H 234.132 -1.59072 -1.03905 0
M  V30 2372 H 232.282 -1.64485 -3.51962 0
M  V30 2373 H 233.954 -3.97401 -2.34244 0
M  V30 2374 H 232.197 -3.77187 -2.14273 0
M  V30 2375 H 232.868 -4.04787 -3.75302 0
M  V30 2376 H 235.344 -2.12924 -3.57495 0
M  V30 2377 H 234.22 -2.41801 -4.92771 0
M  V30 2378 H 234.481 -0.779209 -4.35179 0
M  V30 2379 N 233.54 1.10788 -1.12088 0
M  V30 2380 C 234.503 2.15207 -0.788577 0
M  V30 2381 C 235.503 1.59609 0.195317 0
M  V30 2382 O 236.693 1.74174 -0.0300193 0
M  V30 2383 C 233.825 3.4047 -0.171174 0
M  V30 2384 H 235.018 2.46116 -1.71368 0
M  V30 2385 H 232.571 1.26089 -0.923652 0
M  V30 2386 H 233.306 3.15176 0.763832 0
M  V30 2387 H 233.091 3.82109 -0.879514 0
M  V30 2388 H 234.581 4.17576 0.04496 0
M  V30 2389 N 235.018 0.912232 1.28515 0
M  V30 2390 C 235.981 0.404223 2.25607 0
M  V30 2391 C 236.981 -0.468602 1.53821 0
M  V30 2392 O 238.171 -0.271873 1.72065 0
M  V30 2393 C 235.303 -0.420653 3.38295 0
M  V30 2394 H 236.496 1.26188 2.7206 0
M  V30 2395 H 234.049 0.691495 1.40171 0
M  V30 2396 H 234.784 -1.29777 2.97201 0
M  V30 2397 H 234.569 0.204935 3.91564 0
M  V30 2398 H 236.059 -0.766971 4.10496 0
M  V30 2399 N 236.496 -1.42363 0.676048 0
M  V30 2400 C 237.742 -2.0182 0.199125 0
M  V30 2401 C 238.075 -1.53339 -1.19168 0
M  V30 2402 O 237.35 -0.736124 -1.80032 0
M  V30 2403 C 237.633 -3.59331 0.235144 0
M  V30 2404 C 237.486 -4.17989 1.66149 0
M  V30 2405 C 238.805 -4.3813 -0.41595 0
M  V30 2406 H 235.924 -0.733293 0.0738311 0
M  V30 2407 H 238.566 -1.69368 0.86107 0
M  V30 2408 H 236.716 -3.87109 -0.328487 0
M  V30 2409 H 238.388 -4.0116 2.27747 0
M  V30 2410 H 236.631 -3.7377 2.20178 0
M  V30 2411 H 237.302 -5.27126 1.63837 0
M  V30 2412 H 239.778 -4.16051 0.0638529 0
M  V30 2413 H 238.654 -5.47717 -0.360115 0
M  V30 2414 H 238.915 -4.16101 -1.49373 0
M  V30 2415 N 237.974 -0.419461 -1.51915 0
M  V30 2416 C 239.223 0.154346 -2.01109 0
M  V30 2417 C 239.536 1.45338 -1.30905 0
M  V30 2418 O 240.742 2.10906 -1.7097 0
M  V30 2419 C 239.198 0.325615 -3.58424 0
M  V30 2420 C 238.806 -0.961934 -4.37551 0
M  V30 2421 C 240.55 0.854155 -4.15818 0
M  V30 2422 C 238.457 -0.757287 -5.86531 0
M  V30 2423 H 237.387 0.0614563 -0.751491 0
M  V30 2424 H 240.038 -0.54649 -1.75173 0
M  V30 2425 H 238.42 1.08903 -3.80731 0
M  V30 2426 H 239.594 -1.7323 -4.26999 0
M  V30 2427 H 237.909 -1.41766 -3.91524 0
M  V30 2428 H 240.506 1.02346 -5.24814 0
M  V30 2429 H 240.849 1.83172 -3.73837 0
M  V30 2430 H 241.382 0.149528 -3.97519 0
M  V30 2431 H 238.121 -1.70671 -6.32892 0
M  V30 2432 H 237.641 -0.0264061 -5.99794 0
M  V30 2433 H 239.32 -0.403482 -6.45741 0
M  V30 2434 N 239.452 1.56882 -0.150215 0
M  V30 2435 C 240.382 2.19935 0.784284 0
M  V30 2436 C 241.363 1.14854 1.25469 0
M  V30 2437 O 242.548 1.43209 1.31168 0
M  V30 2438 C 239.678 2.82349 2.02229 0
M  V30 2439 C 238.632 3.93285 1.68853 0
M  V30 2440 C 237.958 4.42649 2.99944 0
M  V30 2441 C 239.258 5.13904 0.932714 0
M  V30 2442 H 240.952 2.9828 0.258781 0
M  V30 2443 H 238.498 1.43473 0.123029 0
M  V30 2444 H 240.451 3.25126 2.68088 0
M  V30 2445 H 239.175 2.0134 2.57157 0
M  V30 2446 H 237.834 3.5113 1.05371 0
M  V30 2447 H 237.482 3.58458 3.52869 0
M  V30 2448 H 237.182 5.17476 2.78374 0
M  V30 2449 H 238.706 4.88099 3.66868 0
M  V30 2450 H 240.12 5.53506 1.49345 0
M  V30 2451 H 238.517 5.94515 0.81684 0
M  V30 2452 H 239.587 4.84842 -0.0749568 0
M  V30 2453 N 240.93 -0.123565 1.57115 0
M  V30 2454 C 242.176 -0.833386 1.84885 0
M  V30 2455 C 242.509 -1.79742 0.735292 0
M  V30 2456 O 241.784 -1.92764 -0.25925 0
M  V30 2457 C 242.067 -1.5873 3.23228 0
M  V30 2458 C 241.92 -0.643183 4.45178 0
M  V30 2459 C 243.239 -2.54453 3.59085 0
M  V30 2460 H 240.358 -0.301518 0.6725 0
M  V30 2461 H 243 -0.097778 1.89748 0
M  V30 2462 H 241.15 -2.21438 3.19214 0
M  V30 2463 H 242.822 -0.0253015 4.61293 0
M  V30 2464 H 241.065 0.0456139 4.33776 0
M  V30 2465 H 241.736 -1.20724 5.38637 0
M  V30 2466 H 244.212 -2.01853 3.63861 0
M  V30 2467 H 243.088 -3.04238 4.5687 0
M  V30 2468 H 243.349 -3.36906 2.86264 0
M  V30 2469 N 242.408 -1.52605 -0.393616 0
M  V30 2470 C 243.358 -1.73436 -1.48 0
M  V30 2471 C 244.342 -0.588386 -1.49756 0
M  V30 2472 O 245.534 -0.846047 -1.5547 0
M  V30 2473 C 242.663 -1.90247 -2.85764 0
M  V30 2474 C 241.749 -3.10763 -2.88595 0
M  V30 2475 N 242.14 -4.33196 -2.61103 0
M  V30 2476 C 240.438 -3.10914 -3.19763 0
M  V30 2477 C 241.139 -5.1477 -2.70899 0
M  V30 2478 N 240.115 -4.50356 -3.04435 0
M  V30 2479 H 243.917 -2.65727 -1.25563 0
M  V30 2480 H 241.431 -1.5085 -0.601513 0
M  V30 2481 H 243.428 -2.03291 -3.63976 0
M  V30 2482 H 242.088 -0.991663 -3.09186 0
M  V30 2483 H 243.099 -4.61408 -2.35209 0
M  V30 2484 H 239.776 -2.29626 -3.4868 0
M  V30 2485 H 241.166 -6.22355 -2.53227 0
M  V30 2486 N 243.887 0.651787 -1.4349 0
M  V30 2487 C 245.127 1.42345 -1.46688 0
M  V30 2488 C 245.491 1.91793 -0.0891023 0
M  V30 2489 O 246.692 2.688 0.00423594 0
M  V30 2490 C 244.963 2.57221 -2.48137 0
M  V30 2491 S 246.522 3.45725 -2.70221 0
M  V30 2492 H 243.34 0.485878 -0.51908 0
M  V30 2493 H 245.942 0.756578 -1.80267 0
M  V30 2494 H 244.646 2.1917 -3.46976 0
M  V30 2495 H 244.177 3.28757 -2.16061 0
M  V30 2496 H 246.192 4.53996 -2.00255 0
M  V30 2497 N 245.365 1.30045 0.890287 0
M  V30 2498 C 246.613 1.18327 1.63839 0
M  V30 2499 C 246.934 -0.263455 1.93212 0
M  V30 2500 O 246.204 -1.17856 1.56482 0
M  V30 2501 H 244.784 0.434933 0.607324 0
M  V30 2502 H 247.446 1.631 1.06698 0
M  V30 2503 H 246.542 1.74024 2.59079 0
M  V30 2504 N 246.843 -1.10192 1.12674 0
M  V30 2505 C 247.775 -2.16418 0.754701 0
M  V30 2506 C 248.788 -1.61309 -0.21986 0
M  V30 2507 O 249.977 -1.785 -0.000826841 0
M  V30 2508 C 247.077 -3.38762 0.096698 0
M  V30 2509 C 246.25 -4.23307 1.10136 0
M  V30 2510 C 245.309 -5.24092 0.470513 0
M  V30 2511 O 244.335 -5.57906 1.12824 0
M  V30 2512 N 245.537 -5.75491 -0.760948 0
M  V30 2513 H 248.302 -2.48943 1.66875 0
M  V30 2514 H 245.863 -1.25834 1.01869 0
M  V30 2515 H 247.855 -4.03291 -0.337384 0
M  V30 2516 H 246.425 -3.04192 -0.720153 0
M  V30 2517 H 245.645 -3.55036 1.71299 0
M  V30 2518 H 246.933 -4.76624 1.78064 0
M  V30 2519 H 246.331 -5.50222 -1.31424 0
M  V30 2520 H 244.888 -6.41792 -1.13781 0
M  V30 2521 N 248.321 -0.919034 -1.28029 0
M  V30 2522 C 249.251 -0.428581 -2.29533 0
M  V30 2523 C 250.232 0.50659 -1.62381 0
M  V30 2524 O 251.417 0.413195 -1.89753 0
M  V30 2525 C 248.547 0.327388 -3.45753 0
M  V30 2526 C 247.501 -0.519137 -4.2484 0
M  V30 2527 C 246.827 0.365486 -5.33449 0
M  V30 2528 C 248.127 -1.77914 -4.91064 0
M  V30 2529 H 249.821 -1.27687 -2.70807 0
M  V30 2530 H 247.367 -0.615428 -1.30186 0
M  V30 2531 H 249.32 0.681378 -4.15855 0
M  V30 2532 H 248.044 1.20963 -3.03374 0
M  V30 2533 H 246.703 -0.855717 -3.56473 0
M  V30 2534 H 246.351 1.24642 -4.87312 0
M  V30 2535 H 246.051 -0.197356 -5.87268 0
M  V30 2536 H 247.575 0.715241 -6.06396 0
M  V30 2537 H 248.989 -1.49374 -5.53498 0
M  V30 2538 H 247.386 -2.2848 -5.54903 0
M  V30 2539 H 248.456 -2.50382 -4.15255 0
M  V30 2540 N 249.799 1.42003 -0.683588 0
M  V30 2541 C 251.024 2.06265 -0.216647 0
M  V30 2542 C 251.449 1.51059 1.12083 0
M  V30 2543 O 250.807 0.632638 1.69904 0
M  V30 2544 C 250.855 3.60191 -0.171759 0
M  V30 2545 O 249.959 4.03396 0.857069 0
M  V30 2546 H 249.3 0.65502 -0.108834 0
M  V30 2547 H 251.83 1.81982 -0.935077 0
M  V30 2548 H 251.84 4.08 0.0014303 0
M  V30 2549 H 250.515 3.99743 -1.14796 0
M  V30 2550 H 249.092 3.67117 0.654208 0
M  V30 2551 N 251.277 0.427512 1.51691 0
M  V30 2552 C 252.554 -0.201684 1.94557 0
M  V30 2553 C 252.934 -1.60981 1.36559 0
M  V30 2554 O 252.282 -2.21814 0.548702 0
M  V30 2555 C 252.492 -0.189394 3.48486 0
M  V30 2556 C 253.84 -0.39978 4.22714 0
M  V30 2557 O 254.864 -0.267945 3.55191 0
M  V30 2558 O 253.723 -0.661249 5.42485 0
M  V30 2559 H 250.817 -0.135261 0.815864 0
M  V30 2560 H 253.363 0.484782 1.62628 0
M  V30 2561 H 252.135 0.795431 3.8313 0
M  V30 2562 H 251.758 -0.919187 3.86829 0
M  V30 2563 N 252.755 -1.56801 0.158532 0
M  V30 2564 C 253.703 -2.18638 -0.793729 0
M  V30 2565 C 254.697 -1.14669 -1.24689 0
M  V30 2566 O 255.903 -1.32895 -1.21403 0
M  V30 2567 H 252.278 -0.700226 -0.274204 0
M  V30 2568 H 254.249 -2.97367 -0.248095 0
M  V30 2569 C 252.998 -2.83139 -2.0181 0
M  V30 2570 H 252.321 -3.62863 -1.67841 0
M  V30 2571 H 253.761 -3.29894 -2.66357 0
M  V30 2572 C 252.22 -1.82244 -2.83353 0
M  V30 2573 O 252.75 -1.3 -3.80083 0
M  V30 2574 N 250.956 -1.51288 -2.48114 0
M  V30 2575 H 250.503 -1.93964 -1.69516 0
M  V30 2576 H 250.461 -0.840296 -3.02963 0
M  V30 2577 N 254.233 0.115231 -1.57178 0
M  V30 2578 C 255.143 1.15994 -2.03918 0
M  V30 2579 C 256.159 1.45103 -0.960268 0
M  V30 2580 O 257.335 1.56144 -1.27204 0
M  V30 2581 C 254.4 2.46568 -2.43732 0
M  V30 2582 C 253.461 2.24822 -3.65723 0
M  V30 2583 C 252.694 3.4917 -4.03629 0
M  V30 2584 O 252.917 4.56623 -3.41835 0
M  V30 2585 O 251.851 3.39949 -4.96708 0
M  V30 2586 H 255.677 0.793019 -2.93164 0
M  V30 2587 H 253.262 0.3263 -1.45793 0
M  V30 2588 H 255.144 3.23492 -2.70057 0
M  V30 2589 H 253.819 2.82726 -1.57631 0
M  V30 2590 H 252.726 1.45744 -3.44542 0
M  V30 2591 H 254.059 1.93566 -4.52541 0
M  V30 2592 N 255.711 1.52812 0.385517 0
M  V30 2593 C 256.621 1.80766 1.49535 0
M  V30 2594 C 257.637 0.694651 1.59532 0
M  V30 2595 O 258.813 0.982611 1.75803 0
M  V30 2596 C 255.878 1.97381 2.85029 0
M  V30 2597 C 254.939 3.21295 2.84724 0
M  V30 2598 C 254.172 3.37108 4.13756 0
M  V30 2599 O 254.395 2.5765 5.08893 0
M  V30 2600 O 253.329 4.30378 4.20783 0
M  V30 2601 H 257.155 2.75015 1.28842 0
M  V30 2602 H 254.74 1.37946 0.573697 0
M  V30 2603 H 256.622 2.09996 3.65349 0
M  V30 2604 H 255.297 1.06322 3.05741 0
M  V30 2605 H 254.204 3.1412 2.03174 0
M  V30 2606 H 255.537 4.12212 2.68965 0
M  V30 2607 N 257.189 -0.644168 1.43834 0
M  V30 2608 C 258.435 -1.40431 1.47141 0
M  V30 2609 C 258.79 -1.92153 0.0975577 0
M  V30 2610 O 258.083 -1.69924 -0.885232 0
M  V30 2611 C 258.277 -2.59615 2.45631 0
M  V30 2612 C 258.106 -2.1956 3.92458 0
M  V30 2613 C 256.876 -2.07456 4.60749 0
M  V30 2614 C 259.074 -1.79281 4.8204 0
M  V30 2615 N 257.056 -1.60827 5.92459 0
M  V30 2616 C 258.427 -1.43801 6.03093 0
M  V30 2617 C 260.482 -1.66545 4.6922 0
M  V30 2618 C 259.185 -0.968599 7.12749 0
M  V30 2619 C 261.211 -1.21008 5.78888 0
M  V30 2620 C 260.573 -0.864711 6.99072 0
M  V30 2621 H 256.672 -0.509182 0.593513 0
M  V30 2622 H 259.256 -0.740351 1.80075 0
M  V30 2623 H 257.427 -3.23658 2.1471 0
M  V30 2624 H 259.159 -3.26357 2.39318 0
M  V30 2625 H 255.914 -2.275 4.1538 0
M  V30 2626 H 256.338 -1.39848 6.62398 0
M  V30 2627 H 260.98 -1.91883 3.7675 0
M  V30 2628 H 258.698 -0.702715 8.05039 0
M  V30 2629 H 262.284 -1.11631 5.7099 0
M  V30 2630 H 261.164 -0.517736 7.82489 0
M  V30 2631 N 258.668 -1.30515 -0.883378 0
M  V30 2632 C 259.893 -1.22487 -1.67367 0
M  V30 2633 C 260.318 0.208767 -1.86938 0
M  V30 2634 O 259.676 1.15015 -1.40148 0
M  V30 2635 C 259.724 -1.96041 -3.02655 0
M  V30 2636 O 258.828 -1.28859 -3.91751 0
M  V30 2637 H 258.169 -0.423573 -0.511353 0
M  V30 2638 H 260.699 -1.72362 -1.10239 0
M  V30 2639 H 260.709 -2.05124 -3.52687 0
M  V30 2640 H 259.384 -3.00307 -2.8773 0
M  V30 2641 H 257.961 -1.28141 -3.50192 0
M  V30 2642 N 260.146 1.09593 -1.13257 0
M  V30 2643 C 261.076 2.18214 -0.830946 0
M  V30 2644 C 262.057 1.68812 0.208966 0
M  V30 2645 O 263.242 1.9408 0.0682666 0
M  V30 2646 C 260.372 3.46051 -0.294296 0
M  V30 2647 C 259.326 4.08778 -1.26826 0
M  V30 2648 C 258.652 5.31419 -0.591449 0
M  V30 2649 C 259.952 4.51476 -2.62615 0
M  V30 2650 H 261.646 2.43703 -1.73923 0
M  V30 2651 H 259.192 1.17128 -0.837675 0
M  V30 2652 H 261.145 4.2134 -0.0709606 0
M  V30 2653 H 259.869 3.20079 0.649366 0
M  V30 2654 H 258.528 3.35505 -1.47756 0
M  V30 2655 H 258.176 5.01727 0.357633 0
M  V30 2656 H 257.876 5.74341 -1.24123 0
M  V30 2657 H 259.4 6.09433 -0.377355 0
M  V30 2658 H 260.814 5.17999 -2.45663 0
M  V30 2659 H 259.211 5.05277 -3.23752 0
M  V30 2660 H 260.281 3.63962 -3.20406 0
M  V30 2661 N 261.624 0.925811 1.2754 0
M  V30 2662 C 262.556 0.380753 2.26015 0
M  V30 2663 C 263.569 -0.487485 1.5533 0
M  V30 2664 O 264.758 -0.300413 1.75954 0
M  V30 2665 C 261.858 -0.473259 3.35579 0
M  V30 2666 C 261.031 0.375249 4.35787 0
M  V30 2667 C 260.09 -0.415809 5.24555 0
M  V30 2668 O 259.116 0.175834 5.68928 0
M  V30 2669 N 260.318 -1.71607 5.54555 0
M  V30 2670 H 263.083 1.22725 2.73421 0
M  V30 2671 H 260.644 0.793037 1.41147 0
M  V30 2672 H 262.636 -1.00949 3.91907 0
M  V30 2673 H 261.206 -1.2205 2.87789 0
M  V30 2674 H 260.426 1.09279 3.7875 0
M  V30 2675 H 261.714 0.955399 4.99749 0
M  V30 2676 H 261.112 -2.2191 5.20358 0
M  V30 2677 H 259.669 -2.19887 6.1359 0
M  V30 2678 N 263.102 -1.41638 0.69111 0
M  V30 2679 C 264.065 -2.29178 0.0319786 0
M  V30 2680 C 265.065 -1.44153 -0.712496 0
M  V30 2681 O 266.255 -1.65354 -0.548053 0
M  V30 2682 C 263.387 -3.26952 -0.965161 0
M  V30 2683 H 264.58 -2.88959 0.802681 0
M  V30 2684 H 262.133 -1.4955 0.454356 0
M  V30 2685 H 262.868 -2.72142 -1.76378 0
M  V30 2686 H 262.653 -3.89685 -0.434522 0
M  V30 2687 H 264.143 -3.92561 -1.42428 0
M  V30 2688 N 264.58 -0.43555 -1.51462 0
M  V30 2689 C 265.826 0.131709 -2.02372 0
M  V30 2690 C 266.159 1.42516 -1.3192 0
M  V30 2691 O 265.434 1.89606 -0.433573 0
M  V30 2692 C 265.717 0.352301 -3.58373 0
M  V30 2693 C 265.57 -0.959676 -4.39443 0
M  V30 2694 C 266.889 1.12286 -4.25535 0
M  V30 2695 H 264.008 0.0463936 -0.735538 0
M  V30 2696 H 266.65 -0.574197 -1.81116 0
M  V30 2697 H 264.8 0.9536 -3.76615 0
M  V30 2698 H 266.472 -1.59482 -4.32855 0
M  V30 2699 H 264.715 -1.56468 -4.04599 0
M  V30 2700 H 265.386 -0.759394 -5.46752 0
M  V30 2701 H 267.862 0.613545 -4.11552 0
M  V30 2702 H 266.738 1.24598 -5.34571 0
M  V30 2703 H 266.999 2.15048 -3.86273 0
M  V30 2704 N 266.058 1.56714 -0.166846 0
M  V30 2705 C 266.968 2.21331 0.777791 0
M  V30 2706 C 267.984 1.20358 1.25658 0
M  V30 2707 O 269.16 1.53005 1.30964 0
M  V30 2708 C 266.225 2.83787 1.99163 0
M  V30 2709 C 265.286 3.99947 1.56016 0
M  V30 2710 C 264.519 4.59415 2.71613 0
M  V30 2711 O 264.742 4.17769 3.88362 0
M  V30 2712 O 263.676 5.49359 2.45945 0
M  V30 2713 H 267.502 3.02605 0.257636 0
M  V30 2714 H 265.087 1.49275 0.0611393 0
M  V30 2715 H 266.969 3.23405 2.70161 0
M  V30 2716 H 265.644 2.05513 2.50092 0
M  V30 2717 H 264.551 3.65007 0.819809 0
M  V30 2718 H 265.884 4.79801 1.09782 0
M  V30 2719 N 267.536 -0.106894 1.57237 0
M  V30 2720 C 268.483 -1.13049 2.01217 0
M  V30 2721 C 269.453 -1.40471 0.886403 0
M  V30 2722 O 270.638 -1.52133 1.15153 0
M  V30 2723 C 267.778 -2.4487 2.43172 0
M  V30 2724 C 266.891 -2.24281 3.69218 0
M  V30 2725 C 266.026 -3.49417 4.00101 0
M  V30 2726 C 265.065 -3.24038 5.19294 0
M  V30 2727 N 264.202 -4.41409 5.45988 0
M  V30 2728 H 269.042 -0.748456 2.88448 0
M  V30 2729 H 266.579 -0.358054 1.42676 0
M  V30 2730 H 268.537 -3.21786 2.65537 0
M  V30 2731 H 267.167 -2.80944 1.58967 0
M  V30 2732 H 266.219 -1.38224 3.54398 0
M  V30 2733 H 267.531 -2.01512 4.56283 0
M  V30 2734 H 266.685 -4.34746 4.2318 0
M  V30 2735 H 265.424 -3.75229 3.11535 0
M  V30 2736 H 264.429 -2.37102 4.96047 0
M  V30 2737 H 265.654 -2.99584 6.09447 0
M  V30 2738 H 263.6 -4.67319 4.60379 0
M  V30 2739 H 263.517 -4.21788 6.274 0
M  V30 2740 H 264.785 -5.27836 5.73593 0
M  V30 2741 N 269.014 -1.53014 -0.377408 0
M  V30 2742 C 269.964 -1.74996 -1.46152 0
M  V30 2743 C 270.948 -0.604236 -1.49123 0
M  V30 2744 O 272.14 -0.862489 -1.54564 0
M  V30 2745 C 269.269 -1.93267 -2.8373 0
M  V30 2746 C 268.355 -3.13807 -2.85283 0
M  V30 2747 N 268.746 -4.35941 -2.56493 0
M  V30 2748 C 267.044 -3.14288 -3.16448 0
M  V30 2749 C 267.745 -5.17615 -2.65424 0
M  V30 2750 N 266.721 -4.53559 -2.99641 0
M  V30 2751 H 270.523 -2.67044 -1.22738 0
M  V30 2752 H 268.037 -1.51479 -0.585479 0
M  V30 2753 H 270.034 -2.0714 -3.61799 0
M  V30 2754 H 268.694 -1.0244 -3.08117 0
M  V30 2755 H 269.705 -4.63876 -2.30302 0
M  V30 2756 H 266.382 -2.33312 -3.46225 0
M  V30 2757 H 267.772 -6.25006 -2.46612 0
M  V30 2758 N 270.492 0.636531 -1.44174 0
M  V30 2759 C 271.72 1.42353 -1.50144 0
M  V30 2760 C 272.135 1.88389 -0.124575 0
M  V30 2761 O 271.492 1.6051 0.868489 0
M  V30 2762 C 271.543 2.64744 -2.46156 0
M  V30 2763 O 271.264 2.20629 -3.7849 0
M  V30 2764 C 272.765 3.57929 -2.61537 0
M  V30 2765 H 269.985 0.436752 -0.5094 0
M  V30 2766 H 272.529 0.778933 -1.89084 0
M  V30 2767 H 270.684 3.25307 -2.10366 0
M  V30 2768 H 271.098 2.99938 -4.30276 0
M  V30 2769 H 272.572 4.40428 -3.32757 0
M  V30 2770 H 273.049 4.06382 -1.66585 0
M  V30 2771 H 273.655 3.03238 -2.98206 0
M  V30 2772 N 271.97 1.30982 0.876444 0
M  V30 2773 C 272.9 1.20668 1.99903 0
M  V30 2774 C 273.881 0.095354 1.69833 0
M  V30 2775 O 275.066 0.27885 1.92188 0
M  V30 2776 C 272.196 0.90655 3.3526 0
M  V30 2777 C 271.15 1.97675 3.79617 0
M  V30 2778 C 270.476 1.52943 5.1236 0
M  V30 2779 C 271.776 3.389 3.97422 0
M  V30 2780 H 273.47 2.14586 2.0879 0
M  V30 2781 H 271.016 1.03308 1.00317 0
M  V30 2782 H 272.969 0.821025 4.13324 0
M  V30 2783 H 271.693 -0.0682969 3.26529 0
M  V30 2784 H 270.352 2.05205 3.03787 0
M  V30 2785 H 270 0.54262 5.00065 0
M  V30 2786 H 269.7 2.24532 5.43009 0
M  V30 2787 H 271.224 1.45786 5.92941 0
M  V30 2788 H 272.638 3.34081 4.659 0
M  V30 2789 H 271.035 4.0865 4.3946 0
M  V30 2790 H 272.105 3.80163 3.01006 0
M  V30 2791 N 273.449 -1.08991 1.13837 0
M  V30 2792 C 274.695 -1.81526 0.90422 0
M  V30 2793 C 275.028 -1.85706 -0.568066 0
M  V30 2794 O 274.303 -1.32855 -1.42056 0
M  V30 2795 C 274.586 -3.27447 1.49835 0
M  V30 2796 C 274.439 -3.31512 3.04006 0
M  V30 2797 C 275.758 -4.24256 1.17025 0
M  V30 2798 H 272.877 -0.659029 0.329923 0
M  V30 2799 H 275.519 -1.27644 1.40737 0
M  V30 2800 H 273.669 -3.73462 1.07044 0
M  V30 2801 H 275.341 -2.93867 3.55584 0
M  V30 2802 H 273.584 -2.70963 3.38765 0
M  V30 2803 H 274.255 -4.34329 3.40679 0
M  V30 2804 H 276.731 -3.86549 1.54009 0
M  V30 2805 H 275.607 -5.24684 1.61237 0
M  V30 2806 H 275.868 -4.42019 0.0846274 0
M  V30 2807 N 274.927 -0.932562 -1.27047 0
M  V30 2808 C 275.89 -0.440064 -2.24936 0
M  V30 2809 C 276.89 0.444071 -1.54547 0
M  V30 2810 O 278.08 0.244465 -1.72476 0
M  V30 2811 C 275.212 0.36678 -3.38921 0
M  V30 2812 H 276.405 -1.305 -2.70018 0
M  V30 2813 H 273.958 -0.713707 -1.39054 0
M  V30 2814 H 274.693 1.25033 -2.99228 0
M  V30 2815 H 274.478 -0.267204 -3.91188 0
M  V30 2816 H 275.968 0.701567 -4.11665 0
M  V30 2817 N 276.405 1.4127 -0.698611 0
M  V30 2818 C 277.335 2.33447 -0.049629 0
M  V30 2819 C 278.316 1.51982 0.763898 0
M  V30 2820 O 279.501 1.80509 0.716257 0
M  V30 2821 C 276.631 3.35828 0.885267 0
M  V30 2822 C 275.585 4.27627 0.178613 0
M  V30 2823 C 274.911 5.20406 1.22807 0
M  V30 2824 C 276.211 5.13459 -0.956933 0
M  V30 2825 H 277.905 2.87966 -0.81951 0
M  V30 2826 H 275.451 1.38461 -0.395538 0
M  V30 2827 H 277.404 3.9924 1.34854 0
M  V30 2828 H 276.128 2.79666 1.68685 0
M  V30 2829 H 274.787 3.65643 -0.26466 0
M  V30 2830 H 274.435 4.60558 2.02226 0
M  V30 2831 H 274.135 5.82661 0.760239 0
M  V30 2832 H 275.659 5.86695 1.69179 0
M  V30 2833 H 277.073 5.70421 -0.573805 0
M  V30 2834 H 275.47 5.8467 -1.35205 0
M  V30 2835 H 276.54 4.50443 -1.79524 0
M  V30 2836 N 277.883 0.443576 1.51229 0
M  V30 2837 C 279.299 0.0962001 1.5931 0
M  V30 2838 C 279.499 -1.39501 1.45402 0
M  V30 2839 O 278.555 -2.16557 1.29843 0
M  V30 2840 C 279.868 0.621875 2.94199 0
M  V30 2841 C 281.416 0.582865 3.07525 0
M  V30 2842 C 281.891 1.08562 4.44948 0
M  V30 2843 N 283.382 1.04387 4.51284 0
M  V30 2844 C 284.117 1.40368 5.55954 0
M  V30 2845 N 283.613 1.83664 6.68011 0
M  V30 2846 N 285.406 1.32145 5.46346 0
M  V30 2847 H 277.557 1.41376 1.58514 0
M  V30 2848 H 279.82 0.582965 0.747567 0
M  V30 2849 H 279.526 1.66546 3.09767 0
M  V30 2850 H 279.4 0.0502125 3.77167 0
M  V30 2851 H 281.787 -0.451749 2.91622 0
M  V30 2852 H 281.868 1.191 2.26382 0
M  V30 2853 H 281.512 2.11873 4.61598 0
M  V30 2854 H 281.442 0.453956 5.2464 0
M  V30 2855 H 283.933 0.725986 3.70861 0
M  V30 2856 H 284.246 2.0934 7.43906 0
M  V30 2857 H 282.591 1.87596 6.69203 0
M  V30 2858 H 285.782 0.981808 4.57688 0
M  V30 2859 H 285.955 1.60514 6.27805 0
M  V30 2860 N 279.361 -1.56624 0.175154 0
M  V30 2861 C 280.777 -1.58571 -0.180966 0
M  V30 2862 C 280.977 -1.19065 -1.6256 0
M  V30 2863 O 280.033 -0.904044 -2.35761 0
M  V30 2864 C 281.346 -3.00522 0.103326 0
M  V30 2865 C 282.894 -3.12972 0.0418426 0
M  V30 2866 C 283.369 -4.57022 0.299175 0
M  V30 2867 N 284.86 -4.62541 0.247086 0
M  V30 2868 C 285.595 -5.71857 0.420318 0
M  V30 2869 N 285.091 -6.89717 0.652816 0
M  V30 2870 N 286.884 -5.60972 0.355957 0
M  V30 2871 H 279.035 -1.80589 1.11809 0
M  V30 2872 H 281.298 -0.837178 0.444788 0
M  V30 2873 H 281.004 -3.33916 1.10422 0
M  V30 2874 H 280.878 -3.72344 -0.603299 0
M  V30 2875 H 283.265 -2.79403 -0.949636 0
M  V30 2876 H 283.346 -2.43578 0.781238 0
M  V30 2877 H 282.99 -4.913 1.28788 0
M  V30 2878 H 282.92 -5.24579 -0.460876 0
M  V30 2879 H 285.411 -3.77829 0.0731895 0
M  V30 2880 H 285.724 -7.68911 0.774347 0
M  V30 2881 H 284.069 -6.91572 0.689476 0
M  V30 2882 H 287.26 -4.67773 0.174882 0
M  V30 2883 H 287.433 -6.46111 0.494388 0
M  V30 2884 N 280.839 0.0985539 -1.57292 0
M  V30 2885 C 282.085 0.803867 -1.86188 0
M  V30 2886 C 282.418 1.78549 -0.763794 0
M  V30 2887 O 281.693 1.93153 0.22855 0
M  V30 2888 C 281.976 1.53568 -3.25713 0
M  V30 2889 C 281.829 0.572277 -4.46145 0
M  V30 2890 C 283.148 2.48708 -3.63087 0
M  V30 2891 H 280.267 0.290781 -0.677211 0
M  V30 2892 H 282.909 0.0675783 -1.8988 0
M  V30 2893 H 281.059 2.16332 -3.22696 0
M  V30 2894 H 282.731 -0.0480894 -4.61275 0
M  V30 2895 H 280.974 -0.114618 -4.33649 0
M  V30 2896 H 281.645 1.12139 -5.40489 0
M  V30 2897 H 284.121 1.96039 -3.67026 0
M  V30 2898 H 282.997 2.96932 -4.61652 0
M  V30 2899 H 283.258 3.32309 -2.91588 0
M  V30 2900 N 282.317 1.53212 0.369288 0
M  V30 2901 C 283.249 1.75668 1.47219 0
M  V30 2902 C 284.262 0.637387 1.49804 0
M  V30 2903 O 285.451 0.913561 1.5335 0
M  V30 2904 C 282.551 1.81818 2.85999 0
M  V30 2905 C 281.724 3.11409 3.07153 0
M  V30 2906 C 280.783 3.08849 4.26026 0
M  V30 2907 O 279.809 3.82659 4.2138 0
M  V30 2908 N 281.011 2.29409 5.33246 0
M  V30 2909 H 283.776 2.70832 1.28337 0
M  V30 2910 H 281.337 1.51944 0.55898 0
M  V30 2911 H 283.329 1.77588 3.63655 0
M  V30 2912 H 281.899 0.939544 2.98146 0
M  V30 2913 H 281.119 3.28971 2.1719 0
M  V30 2914 H 282.407 3.97059 3.18154 0
M  V30 2915 H 281.805 1.68946 5.39883 0
M  V30 2916 H 280.362 2.31001 6.09493 0
M  V30 2917 N 283.795 -0.628877 1.44509 0
M  V30 2918 C 285.041 -1.39045 1.47629 0
M  V30 2919 C 285.374 -1.93892 0.109343 0
M  V30 2920 O 284.649 -1.7379 -0.87334 0
M  V30 2921 C 284.932 -2.55408 2.53848 0
M  V30 2922 C 284.785 -2.05896 3.99909 0
M  V30 2923 C 286.104 -3.5759 2.56549 0
M  V30 2924 H 283.223 -0.504232 0.537512 0
M  V30 2925 H 285.865 -0.710854 1.76201 0
M  V30 2926 H 284.015 -3.13384 2.29615 0
M  V30 2927 H 285.687 -1.52734 4.35282 0
M  V30 2928 H 283.93 -1.37061 4.11578 0
M  V30 2929 H 284.601 -2.89681 4.69882 0
M  V30 2930 H 287.077 -3.09419 2.78207 0
M  V30 2931 H 285.953 -4.36527 3.32769 0
M  V30 2932 H 286.214 -4.11808 1.60832 0
M  V30 2933 N 285.273 -1.31445 -0.869486 0
M  V30 2934 C 286.203 -1.21727 -1.99261 0
M  V30 2935 C 287.184 -0.104359 -1.6978 0
M  V30 2936 O 288.369 -0.289038 -1.92037 0
M  V30 2937 C 285.499 -0.924317 -3.34774 0
M  V30 2938 C 284.453 -1.99685 -3.78563 0
M  V30 2939 C 283.779 -1.55658 -5.11541 0
M  V30 2940 C 285.079 -3.41003 -3.95619 0
M  V30 2941 H 286.773 -2.1569 -2.07649 0
M  V30 2942 H 284.319 -1.03839 -0.997675 0
M  V30 2943 H 286.272 -0.842934 -4.12883 0
M  V30 2944 H 284.996 0.0509793 -3.2656 0
M  V30 2945 H 283.655 -2.06813 -3.02694 0
M  V30 2946 H 283.303 -0.569132 -4.9977 0
M  V30 2947 H 283.003 -2.27409 -5.41811 0
M  V30 2948 H 284.527 -1.48928 -5.92159 0
M  V30 2949 H 285.941 -3.36547 -4.64122 0
M  V30 2950 H 284.338 -4.10975 -4.37286 0
M  V30 2951 H 285.408 -3.81754 -2.98985 0
M  V30 2952 N 286.751 1.08385 -1.14413 0
M  V30 2953 C 287.683 2.1519 -0.789036 0
M  V30 2954 C 288.696 1.61638 0.19417 0
M  V30 2955 O 289.885 1.78479 -0.0275711 0
M  V30 2956 C 286.985 3.38565 -0.15058 0
M  V30 2957 C 286.158 4.21501 -1.16857 0
M  V30 2958 C 285.217 5.23277 -0.553832 0
M  V30 2959 O 284.243 5.56041 -1.21686 0
M  V30 2960 N 285.445 5.76629 0.669296 0
M  V30 2961 H 288.21 2.46257 -1.70814 0
M  V30 2962 H 285.771 1.24198 -1.03858 0
M  V30 2963 H 287.763 4.03777 0.273181 0
M  V30 2964 H 286.333 3.05299 0.671667 0
M  V30 2965 H 285.553 3.52265 -1.76926 0
M  V30 2966 H 286.841 4.73731 -1.85624 0
M  V30 2967 H 286.239 5.52243 1.22654 0
M  V30 2968 H 284.796 6.43521 1.03556 0
M  V30 2969 N 288.23 0.939286 1.26551 0
M  V30 2970 C 289.162 0.404704 2.25599 0
M  V30 2971 C 290.175 -0.470983 1.55838 0
M  V30 2972 O 291.364 -0.281734 1.76263 0
M  V30 2973 C 288.464 -0.43764 3.36062 0
M  V30 2974 C 287.637 0.421449 4.35365 0
M  V30 2975 C 286.696 -0.36015 5.24966 0
M  V30 2976 O 285.722 0.236167 5.6871 0
M  V30 2977 N 286.924 -1.65715 5.56344 0
M  V30 2978 H 289.689 1.25618 2.72103 0
M  V30 2979 H 287.25 0.807963 1.40298 0
M  V30 2980 H 289.242 -0.967866 3.92956 0
M  V30 2981 H 287.812 -1.18991 2.89067 0
M  V30 2982 H 287.032 1.1329 3.7757 0
M  V30 2983 H 288.32 1.00835 4.98708 0
M  V30 2984 H 287.718 -2.16378 5.22682 0
M  V30 2985 H 286.275 -2.13366 6.15888 0
M  V30 2986 N 289.708 -1.40897 0.706093 0
M  V30 2987 C 291.124 -1.55042 0.37869 0
M  V30 2988 C 291.324 -1.67944 -1.11342 0
M  V30 2989 O 290.38 -1.66372 -1.89938 0
M  V30 2990 C 291.693 -2.78398 1.13643 0
M  V30 2991 C 293.241 -2.92206 1.12181 0
M  V30 2992 C 293.716 -4.18463 1.86152 0
M  V30 2993 N 295.207 -4.25443 1.83173 0
M  V30 2994 C 295.942 -5.2202 2.37239 0
M  V30 2995 N 295.438 -6.24563 2.99821 0
M  V30 2996 N 297.231 -5.14033 2.27435 0
M  V30 2997 H 289.382 -1.30769 1.67372 0
M  V30 2998 H 291.645 -0.631653 0.706907 0
M  V30 2999 H 291.351 -2.7511 2.19106 0
M  V30 3000 H 291.225 -3.70228 0.721853 0
M  V30 3001 H 293.612 -2.95004 0.0754171 0
M  V30 3002 H 293.693 -2.01521 1.57554 0
M  V30 3003 H 293.337 -4.16427 2.90776 0
M  V30 3004 H 293.267 -5.08141 1.38206 0
M  V30 3005 H 295.758 -3.51976 1.37556 0
M  V30 3006 H 296.071 -6.94665 3.38616 0
M  V30 3007 H 294.416 -6.25035 3.03902 0
M  V30 3008 H 297.607 -4.3285 1.78208 0
M  V30 3009 H 297.78 -5.89129 2.69873 0
M  V30 3010 N 291.186 -0.45159 -1.50991 0
M  V30 3011 C 292.434 0.109857 -2.01801 0
M  V30 3012 C 292.755 1.41958 -1.3369 0
M  V30 3013 O 292.025 1.9003 -0.475951 0
M  V30 3014 H 290.605 0.0435884 -0.745727 0
M  V30 3015 H 293.267 -0.597557 -1.85514 0
M  V30 3016 H 292.363 0.275489 -3.10882 0
M  V30 3017 N 292.664 1.56529 -0.183458 0
M  V30 3018 C 294.075 1.83739 0.331177 0
M  V30 3019 C 294.426 1.10373 1.62211 0
M  V30 3020 O 293.551 0.36071 2.13373 0
M  V30 3021 C 294.146 3.33306 0.607646 0
M  V30 3022 C 292.705 3.60969 1.06668 0
M  V30 3023 C 291.852 2.77086 0.109029 0
M  V30 3024 H 294.803 1.53379 -0.407484 0
M  V30 3025 H 294.824 3.51444 1.45832 0
M  V30 3026 H 294.336 3.86677 -0.332086 0
M  V30 3027 H 292.437 3.13021 2.0211 0
M  V30 3028 H 292.55 4.69231 0.967447 0
M  V30 3029 H 290.914 2.47319 0.608714 0
M  V30 3030 H 291.697 3.33241 -0.82494 0
M  V30 3031 N 294.142 -0.090211 1.57342 0
M  V30 3032 C 295.558 -0.444547 1.53284 0
M  V30 3033 C 295.758 -1.80238 0.900914 0
M  V30 3034 O 294.814 -2.4759 0.495513 0
M  V30 3035 C 296.127 -0.402543 2.97993 0
M  V30 3036 C 297.675 -0.48405 3.09234 0
M  V30 3037 C 298.15 -0.472144 4.5556 0
M  V30 3038 N 299.641 -0.532757 4.60126 0
M  V30 3039 C 300.376 -0.545462 5.708 0
M  V30 3040 N 299.872 -0.514082 6.9089 0
M  V30 3041 N 301.665 -0.59064 5.58988 0
M  V30 3042 H 293.816 0.799121 1.96794 0
M  V30 3043 H 296.079 0.297965 0.899956 0
M  V30 3044 H 295.785 0.528106 3.47712 0
M  V30 3045 H 295.659 -1.21969 3.56936 0
M  V30 3046 H 298.046 -1.40512 2.595 0
M  V30 3047 H 298.127 0.361328 2.53235 0
M  V30 3048 H 297.771 0.445 5.05947 0
M  V30 3049 H 297.701 -1.3348 5.09402 0
M  V30 3050 H 300.192 -0.562006 3.73698 0
M  V30 3051 H 300.505 -0.527195 7.71 0
M  V30 3052 H 298.85 -0.481054 6.93333 0
M  V30 3053 H 302.041 -0.61272 4.64073 0
M  V30 3054 H 302.214 -0.597073 6.45243 0
M  V30 3055 N 295.62 -1.53406 -0.361157 0
M  V30 3056 C 296.53 -1.83122 -1.4664 0
M  V30 3057 C 297.546 -0.719943 -1.58407 0
M  V30 3058 O 298.722 -1.01046 -1.74218 0
M  V30 3059 C 295.787 -2.01891 -2.81853 0
M  V30 3060 C 294.848 -3.25784 -2.79577 0
M  V30 3061 C 294.081 -3.43648 -4.0834 0
M  V30 3062 O 294.304 -2.65714 -5.0473 0
M  V30 3063 O 293.238 -4.37018 -4.13883 0
M  V30 3064 H 297.064 -2.7703 -1.24451 0
M  V30 3065 H 294.649 -1.38841 -0.551678 0
M  V30 3066 H 296.531 -2.15782 -3.61962 0
M  V30 3067 H 295.206 -1.11173 -3.0401 0
M  V30 3068 H 294.113 -3.17312 -1.98151 0
M  V30 3069 H 295.446 -4.16439 -2.62373 0
M  V30 3070 N 297.098 0.621204 -1.44841 0
M  V30 3071 C 298.061 1.71459 -1.521 0
M  V30 3072 C 299.061 1.55696 -0.401933 0
M  V30 3073 O 300.251 1.61011 -0.664925 0
M  V30 3074 C 297.383 3.10624 -1.40447 0
M  V30 3075 H 298.576 1.66394 -2.49506 0
M  V30 3076 H 296.129 0.835745 -1.3208 0
M  V30 3077 H 296.864 3.21277 -0.441737 0
M  V30 3078 H 296.649 3.23473 -2.21602 0
M  V30 3079 H 298.139 3.90293 -1.4853 0
M  V30 3080 N 298.576 1.31904 0.862503 0
M  V30 3081 C 299.987 1.19803 1.43193 0
M  V30 3082 C 300.338 -0.192567 1.95253 0
M  V30 3083 O 299.463 -1.09081 1.86896 0
M  V30 3084 C 300.058 2.16883 2.60283 0
M  V30 3085 C 298.617 2.08692 3.13248 0
M  V30 3086 C 297.764 2.05691 1.85975 0
M  V30 3087 H 300.715 1.43846 0.670365 0
M  V30 3088 H 300.736 1.76278 3.37204 0
M  V30 3089 H 300.248 3.18083 2.22363 0
M  V30 3090 H 298.349 1.10713 3.55771 0
M  V30 3091 H 298.462 2.9815 3.75025 0
M  V30 3092 H 296.826 1.50814 2.05249 0
M  V30 3093 H 297.609 3.08659 1.50282 0
M  V30 3094 N 300.054 -1.07777 1.14986 0
M  V30 3095 C 301.47 -1.32373 0.891596 0
M  V30 3096 C 301.67 -1.9609 -0.463788 0
M  V30 3097 O 300.726 -2.21801 -1.20667 0
M  V30 3098 C 302.039 -2.21905 2.02925 0
M  V30 3099 C 303.587 -2.35367 2.06329 0
M  V30 3100 C 304.062 -3.28245 3.19405 0
M  V30 3101 N 305.553 -3.35824 3.19024 0
M  V30 3102 C 306.288 -4.07739 4.03158 0
M  V30 3103 N 305.784 -4.82306 4.97346 0
M  V30 3104 N 307.577 -4.03635 3.91197 0
M  V30 3105 H 299.728 -0.648039 2.02273 0
M  V30 3106 H 301.991 -0.348149 0.881757 0
M  V30 3107 H 301.697 -1.82342 3.0074 0
M  V30 3108 H 301.571 -3.22407 1.95789 0
M  V30 3109 H 303.958 -2.74186 1.09116 0
M  V30 3110 H 304.039 -1.34585 2.17533 0
M  V30 3111 H 303.683 -2.90146 4.16867 0
M  V30 3112 H 303.613 -4.28971 3.05437 0
M  V30 3113 H 306.104 -2.8267 2.50811 0
M  V30 3114 H 306.417 -5.34661 5.57994 0
M  V30 3115 H 304.762 -4.81337 5.01338 0
M  V30 3116 H 307.953 -3.44491 3.16928 0
M  V30 3117 H 308.126 -4.59417 4.5699 0
M  V30 3118 N 301.532 -0.945985 -1.26051 0
M  V30 3119 C 302.495 -0.463897 -2.24456 0
M  V30 3120 C 303.495 0.427655 -1.55009 0
M  V30 3121 O 304.685 0.226157 -1.72726 0
M  V30 3122 C 301.817 0.330812 -3.39291 0
M  V30 3123 H 303.01 -1.33357 -2.68619 0
M  V30 3124 H 300.563 -0.728416 -1.38289 0
M  V30 3125 H 301.298 1.21852 -3.00537 0
M  V30 3126 H 301.083 -0.308679 -3.90883 0
M  V30 3127 H 302.573 0.657865 -4.12386 0
M  V30 3128 N 303.011 1.40521 -0.713556 0
M  V30 3129 C 304.257 2.01221 -0.252564 0
M  V30 3130 C 304.59 1.56444 1.1506 0
M  V30 3131 O 303.865 0.783597 1.78017 0
M  V30 3132 C 304.148 3.58582 -0.330332 0
M  V30 3133 C 304.001 4.13437 -1.77173 0
M  V30 3134 C 305.32 4.39079 0.299641 0
M  V30 3135 H 302.439 0.731077 -0.0932471 0
M  V30 3136 H 305.081 1.67026 -0.905673 0
M  V30 3137 H 303.231 3.87844 0.225737 0
M  V30 3138 H 304.903 3.9498 -2.38303 0
M  V30 3139 H 303.146 3.67801 -2.3001 0
M  V30 3140 H 303.817 5.22597 -1.77755 0
M  V30 3141 H 306.293 4.15735 -0.174139 0
M  V30 3142 H 305.169 5.4848 0.214771 0
M  V30 3143 H 305.43 4.19915 1.38288 0
M  V30 3144 N 304.489 0.459591 1.5075 0
M  V30 3145 C 305.421 -0.37665 2.26084 0
M  V30 3146 C 306.434 -0.967109 1.30961 0
M  V30 3147 O 307.623 -0.857468 1.56556 0
M  V30 3148 C 304.723 -1.54112 3.01832 0
M  V30 3149 C 303.896 -1.06553 4.24223 0
M  V30 3150 C 302.955 -2.1027 4.82362 0
M  V30 3151 O 301.981 -1.68798 5.43595 0
M  V30 3152 N 303.183 -3.42974 4.68347 0
M  V30 3153 H 305.948 0.269124 2.98489 0
M  V30 3154 H 303.509 0.28972 1.59287 0
M  V30 3155 H 305.501 -2.23165 3.37608 0
M  V30 3156 H 304.071 -2.0918 2.32298 0
M  V30 3157 H 303.291 -0.201274 3.93686 0
M  V30 3158 H 304.579 -0.725516 5.03601 0
M  V30 3159 H 303.977 -3.79385 4.19623 0
M  V30 3160 H 302.534 -4.07858 5.08424 0
M  V30 3161 N 305.967 -1.56429 0.191757 0
M  V30 3162 C 306.915 -2.20273 -0.747174 0
M  V30 3163 C 307.909 -1.17288 -1.22229 0
M  V30 3164 O 309.115 -1.35441 -1.18557 0
M  V30 3165 H 305.49 -0.705885 -0.259289 0
M  V30 3166 H 307.461 -2.97826 -0.184963 0
M  V30 3167 C 306.21 -2.87356 -1.95759 0
M  V30 3168 H 305.533 -3.66341 -1.60106 0
M  V30 3169 H 306.973 -3.3547 -2.59299 0
M  V30 3170 C 305.432 -1.88213 -2.79423 0
M  V30 3171 O 305.962 -1.38033 -3.7724 0
M  V30 3172 N 304.168 -1.56516 -2.44849 0
M  V30 3173 H 303.715 -1.97516 -1.65364 0
M  V30 3174 H 303.673 -0.904369 -3.01112 0
M  V30 3175 N 307.445 0.0818655 -1.57387 0
M  V30 3176 C 308.856 0.634871 -1.75574 0
M  V30 3177 C 309.207 1.78435 -0.815809 0
M  V30 3178 O 308.332 2.164 0.0025366 0
M  V30 3179 C 308.927 1.15845 -3.18379 0
M  V30 3180 C 307.486 1.65741 -3.37945 0
M  V30 3181 C 306.633 0.572549 -2.71325 0
M  V30 3182 H 309.584 -0.144268 -1.58043 0
M  V30 3183 H 309.605 2.02751 -3.21982 0
M  V30 3184 H 309.117 0.321631 -3.86765 0
M  V30 3185 H 307.218 2.51781 -2.74658 0
M  V30 3186 H 307.331 1.74129 -4.46336 0
M  V30 3187 H 305.695 1.01518 -2.33594 0
M  V30 3188 H 306.478 -0.253918 -3.4236 0
M  V30 3189 N 308.923 1.53595 0.353017 0
M  V30 3190 C 310.334 1.61937 0.929153 0
M  V30 3191 C 310.685 0.494686 1.89861 0
M  V30 3192 O 309.81 -0.377017 2.1309 0
M  V30 3193 C 310.405 2.93526 1.69199 0
M  V30 3194 C 308.964 3.04161 2.21727 0
M  V30 3195 C 308.111 2.57322 1.03348 0
M  V30 3196 H 311.062 1.58155 0.131431 0
M  V30 3197 H 311.083 2.82034 2.55416 0
M  V30 3198 H 310.595 3.75362 0.986144 0
M  V30 3199 H 308.696 2.26938 2.95516 0
M  V30 3200 H 308.809 4.09465 2.48748 0
M  V30 3201 H 307.173 2.12499 1.40414 0
M  V30 3202 H 307.956 3.41588 0.342428 0
M  V30 3203 N 310.401 -0.613514 1.45168 0
M  V30 3204 C 311.311 -1.75296 1.55912 0
M  V30 3205 C 312.327 -1.68244 0.443856 0
M  V30 3206 O 313.503 -1.88706 0.70371 0
M  V30 3207 C 310.568 -3.1174 1.5172 0
M  V30 3208 C 309.629 -3.30291 2.74238 0
M  V30 3209 C 308.862 -4.60226 2.70236 0
M  V30 3210 O 309.085 -5.42168 1.77229 0
M  V30 3211 O 308.019 -4.81361 3.61352 0
M  V30 3212 H 311.845 -1.69183 2.52212 0
M  V30 3213 H 309.43 -0.776886 1.27612 0
M  V30 3214 H 311.312 -3.93044 1.51968 0
M  V30 3215 H 309.987 -3.18357 0.585697 0
M  V30 3216 H 308.894 -2.48598 2.79553 0
M  V30 3217 H 310.227 -3.28547 3.66494 0
M  V30 3218 N 311.879 -1.3236 -0.855495 0
M  V30 3219 C 313.127 -1.22629 -1.60644 0
M  V30 3220 C 313.448 0.212136 -1.93843 0
M  V30 3221 O 312.718 1.13666 -1.59552 0
M  V30 3222 H 311.298 -0.450882 -0.595579 0
M  V30 3223 H 313.96 -1.65871 -1.02337 0
M  V30 3224 H 313.056 -1.80832 -2.54374 0
M  V30 3225 N 313.357 1.07166 -1.15556 0
M  V30 3226 C 314.585 1.83514 -0.955519 0
M  V30 3227 C 315 1.82163 0.49621 0
M  V30 3228 O 314.357 1.23441 1.34419 0
M  V30 3229 C 314.408 3.30515 -1.46432 0
M  V30 3230 O 314.129 3.31937 -2.85918 0
M  V30 3231 C 315.63 4.23625 -1.30603 0
M  V30 3232 H 312.85 0.578926 -0.339244 0
M  V30 3233 H 315.394 1.35265 -1.53374 0
M  V30 3234 H 313.549 3.76106 -0.928584 0
M  V30 3235 H 313.963 4.23794 -3.09029 0
M  V30 3236 H 315.437 5.24831 -1.71047 0
M  V30 3237 H 315.914 4.38485 -0.250441 0
M  V30 3238 H 316.52 3.83871 -1.83094 0
M  V30 3239 N 314.835 0.952656 1.25548 0
M  V30 3240 C 315.798 0.475794 2.24207 0
M  V30 3241 C 316.798 -0.419428 1.55234 0
M  V30 3242 O 317.988 -0.216994 1.72843 0
M  V30 3243 C 315.12 -0.312814 3.39462 0
M  V30 3244 H 316.313 1.34779 2.67908 0
M  V30 3245 H 313.866 0.735739 1.37901 0
M  V30 3246 H 314.601 -1.20257 3.01179 0
M  V30 3247 H 314.386 0.329404 3.90714 0
M  V30 3248 H 315.876 -0.635986 4.12729 0
M  V30 3249 N 316.313 -1.40141 0.720998 0
M  V30 3250 C 317.223 -2.34486 0.0731031 0
M  V30 3251 C 318.239 -1.57587 -0.737723 0
M  V30 3252 O 319.415 -1.89949 -0.669429 0
M  V30 3253 C 316.48 -3.36528 -0.833656 0
M  V30 3254 C 315.541 -4.29298 -0.0121673 0
M  V30 3255 C 314.774 -5.26466 -0.875742 0
M  V30 3256 O 314.997 -5.29745 -2.11485 0
M  V30 3257 O 313.931 -6.01092 -0.31185 0
M  V30 3258 H 317.757 -2.9152 0.851444 0
M  V30 3259 H 315.342 -1.41427 0.481527 0
M  V30 3260 H 317.224 -3.99093 -1.35289 0
M  V30 3261 H 315.899 -2.81899 -1.59105 0
M  V30 3262 H 314.806 -3.70001 0.552262 0
M  V30 3263 H 316.139 -4.87094 0.707129 0
M  V30 3264 N 317.792 -0.46758 -1.50504 0
M  V30 3265 C 319.069 0.15003 -1.95024 0
M  V30 3266 C 319.449 1.57304 -1.40779 0
M  V30 3267 O 318.797 2.20281 -0.607319 0
M  V30 3268 C 319.007 0.0969324 -3.48865 0
M  V30 3269 C 320.355 0.287565 -4.23625 0
M  V30 3270 O 321.379 0.173678 -3.55776 0
M  V30 3271 O 320.238 0.517186 -5.44047 0
M  V30 3272 H 317.332 0.113582 -0.819163 0
M  V30 3273 H 319.878 -0.52773 -1.61286 0
M  V30 3274 H 318.65 -0.896732 -3.80886 0
M  V30 3275 H 318.273 0.816303 -3.8913 0
M  V30 3276 N 319.27 1.56325 -0.20005 0
M  V30 3277 C 320.202 2.16555 0.750771 0
M  V30 3278 C 321.215 1.12871 1.1732 0
M  V30 3279 O 322.404 1.39943 1.10807 0
M  V30 3280 C 319.504 2.71684 2.02586 0
M  V30 3281 C 318.677 4.00321 1.76244 0
M  V30 3282 C 317.736 4.40227 2.88248 0
M  V30 3283 O 316.762 5.07552 2.57642 0
M  V30 3284 N 317.964 4.04138 4.16717 0
M  V30 3285 H 320.729 2.98772 0.235685 0
M  V30 3286 H 318.29 1.6189 -0.0182594 0
M  V30 3287 H 320.282 2.95363 2.76664 0
M  V30 3288 H 318.852 1.93893 2.45202 0
M  V30 3289 H 318.072 3.84723 0.85919 0
M  V30 3290 H 319.36 4.84279 1.56048 0
M  V30 3291 H 318.758 3.49993 4.44434 0
M  V30 3292 H 317.315 4.32756 4.87407 0
M  V30 3293 N 320.748 -0.0735177 1.57428 0
M  V30 3294 C 321.695 -1.08756 2.0357 0
M  V30 3295 C 322.665 -1.38559 0.916 0
M  V30 3296 O 323.85 -1.49656 1.18354 0
M  V30 3297 C 320.99 -2.39657 2.48311 0
M  V30 3298 C 320.103 -2.16399 3.73892 0
M  V30 3299 C 319.238 -3.40852 4.07423 0
M  V30 3300 C 318.277 -3.1295 5.2605 0
M  V30 3301 N 317.414 -4.29729 5.55228 0
M  V30 3302 H 322.254 -0.687104 2.8997 0
M  V30 3303 H 319.791 -0.327709 1.43403 0
M  V30 3304 H 321.749 -3.16081 2.72303 0
M  V30 3305 H 320.379 -2.77508 1.64891 0
M  V30 3306 H 319.431 -1.30676 3.57251 0
M  V30 3307 H 320.743 -1.91788 4.60455 0
M  V30 3308 H 319.897 -4.25671 4.32306 0
M  V30 3309 H 318.636 -3.68537 3.19425 0
M  V30 3310 H 317.641 -2.26526 5.00965 0
M  V30 3311 H 318.866 -2.86589 6.15665 0
M  V30 3312 H 316.812 -4.57448 4.70188 0
M  V30 3313 H 316.729 -4.08385 6.36206 0
M  V30 3314 H 317.997 -5.1555 5.84661 0
M  V30 3315 N 322.226 -1.5378 -0.344866 0
M  V30 3316 C 323.474 -1.70625 -1.08311 0
M  V30 3317 C 323.795 -0.471447 -1.89215 0
M  V30 3318 O 323.065 0.514616 -1.8902 0
M  V30 3319 H 321.645 -0.629058 -0.402859 0
M  V30 3320 H 324.307 -1.9103 -0.386459 0
M  V30 3321 H 323.403 -2.57656 -1.76124 0
M  V30 3322 N 323.704 0.605807 -1.45491 0
M  V30 3323 C 324.952 1.36207 -1.49305 0
M  V30 3324 C 325.273 1.94519 -0.136863 0
M  V30 3325 O 324.543 1.77261 0.833983 0
M  V30 3326 H 323.123 0.50565 -0.549843 0
M  V30 3327 H 325.785 0.711239 -1.81459 0
M  V30 3328 H 324.881 2.18058 -2.23287 0
M  V30 3329 N 325.182 1.32811 0.848464 0
M  V30 3330 C 326.145 1.22194 1.9391 0
M  V30 3331 C 327.145 0.143404 1.60159 0
M  V30 3332 O 328.335 0.394253 1.6968 0
M  V30 3333 C 325.467 0.88067 3.29328 0
M  V30 3334 H 326.66 2.19127 2.04752 0
M  V30 3335 H 324.213 1.16731 1.0394 0
M  V30 3336 H 324.948 -0.0865776 3.24184 0
M  V30 3337 H 324.733 1.66052 3.55203 0
M  V30 3338 H 326.223 0.830871 4.09251 0
M  V30 3339 N 326.66 -1.06551 1.16123 0
M  V30 3340 C 327.623 -2.12132 0.867906 0
M  V30 3341 C 328.623 -1.60224 -0.135944 0
M  V30 3342 O 329.813 -1.73943 0.0946422 0
M  V30 3343 C 326.945 -3.396 0.297419 0
M  V30 3344 H 328.138 -2.39586 1.80385 0
M  V30 3345 H 325.691 -1.22574 0.969812 0
M  V30 3346 H 326.426 -3.17794 -0.64633 0
M  V30 3347 H 326.211 -3.78581 1.02073 0
M  V30 3348 H 327.701 -4.17455 0.110052 0
M  V30 3349 N 328.138 -0.959301 -1.25041 0
M  V30 3350 C 329.368 -0.63303 -1.96663 0
M  V30 3351 C 329.776 0.800031 -1.71453 0
M  V30 3352 O 329.119 1.54736 -0.99008 0
M  V30 3353 C 329.181 -0.817523 -3.50081 0
M  V30 3354 C 328.845 -2.22863 -3.98975 0
M  V30 3355 C 329.842 -3.20569 -4.09306 0
M  V30 3356 C 327.527 -2.55407 -4.32519 0
M  V30 3357 C 329.521 -4.4891 -4.52503 0
M  V30 3358 C 327.208 -3.83976 -4.754 0
M  V30 3359 C 328.206 -4.8054 -4.85356 0
M  V30 3360 O 327.894 -6.06817 -5.27284 0
M  V30 3361 H 327.626 -0.235866 -0.633516 0
M  V30 3362 H 330.18 -1.2874 -1.60047 0
M  V30 3363 H 328.41 -0.105992 -3.86555 0
M  V30 3364 H 330.099 -0.491604 -4.02912 0
M  V30 3365 H 330.865 -2.96753 -3.83618 0
M  V30 3366 H 326.744 -1.8097 -4.23994 0
M  V30 3367 H 330.288 -5.24283 -4.60188 0
M  V30 3368 H 326.185 -4.07596 -5.00535 0
M  V30 3369 H 326.953 -6.10262 -5.45457 0
M  V30 3370 N 329.616 1.39756 -0.72842 0
M  V30 3371 C 330.844 2.04948 -0.283528 0
M  V30 3372 C 331.259 1.54908 1.0793 0
M  V30 3373 O 330.616 0.711135 1.68075 0
M  V30 3374 C 330.667 3.60498 -0.268957 0
M  V30 3375 O 330.388 4.08695 -1.57798 0
M  V30 3376 C 331.889 4.4288 0.192912 0
M  V30 3377 H 329.109 0.659243 -0.125056 0
M  V30 3378 H 331.653 1.78927 -0.990226 0
M  V30 3379 H 329.808 3.85444 0.388801 0
M  V30 3380 H 330.222 5.02977 -1.48709 0
M  V30 3381 H 331.696 5.51791 0.151952 0
M  V30 3382 H 332.173 4.21418 1.23708 0
M  V30 3383 H 332.779 4.23069 -0.435039 0
M  V30 3384 N 331.094 0.475555 1.50254 0
M  V30 3385 C 332.371 -0.139685 1.95101 0
M  V30 3386 C 332.751 -1.56555 1.41611 0
M  V30 3387 O 332.099 -2.19956 0.618993 0
M  V30 3388 C 332.309 -0.0784298 3.48912 0
M  V30 3389 C 333.657 -0.265095 4.23772 0
M  V30 3390 O 334.681 -0.154808 3.55863 0
M  V30 3391 O 333.54 -0.488327 5.44314 0
M  V30 3392 H 330.634 -0.109236 0.819754 0
M  V30 3393 H 333.18 0.536276 1.61004 0
M  V30 3394 H 331.952 0.916918 3.80405 0
M  V30 3395 H 331.575 -0.795655 3.89558 0
M  V30 3396 N 332.573 -1.56217 0.208337 0
M  V30 3397 C 333.989 -1.58919 -0.14729 0
M  V30 3398 C 334.189 -1.22486 -1.59998 0
M  V30 3399 O 333.245 -0.953849 -2.3379 0
M  V30 3400 C 334.558 -3.00236 0.167048 0
M  V30 3401 C 336.106 -3.12813 0.108219 0
M  V30 3402 C 336.581 -4.56284 0.396049 0
M  V30 3403 N 338.072 -4.61912 0.345142 0
M  V30 3404 C 338.807 -5.70837 0.541523 0
M  V30 3405 N 338.303 -6.88178 0.798968 0
M  V30 3406 N 340.096 -5.60091 0.474867 0
M  V30 3407 H 332.247 -1.78177 1.15614 0
M  V30 3408 H 334.51 -0.827555 0.462446 0
M  V30 3409 H 334.216 -3.31499 1.1748 0
M  V30 3410 H 334.09 -3.7354 -0.524184 0
M  V30 3411 H 336.477 -2.81354 -0.890157 0
M  V30 3412 H 336.558 -2.41866 0.832729 0
M  V30 3413 H 336.202 -4.88458 1.3918 0
M  V30 3414 H 336.132 -5.25439 -0.349502 0
M  V30 3415 H 338.623 -3.77589 0.153316 0
M  V30 3416 H 338.936 -7.67095 0.93727 0
M  V30 3417 H 337.281 -6.89953 0.836013 0
M  V30 3418 H 340.472 -4.67297 0.274064 0
M  V30 3419 H 340.645 -6.44917 0.631326 0
M  V30 3420 N 334.051 0.0651679 -1.57465 0
M  V30 3421 C 335.328 0.79644 -1.78651 0
M  V30 3422 C 335.708 1.95454 -0.797566 0
M  V30 3423 O 335.056 2.27882 0.167946 0
M  V30 3424 C 335.266 1.26322 -3.25337 0
M  V30 3425 C 336.614 1.6939 -3.89348 0
M  V30 3426 O 337.638 1.35872 -3.29268 0
M  V30 3427 O 336.497 2.31471 -4.95059 0
M  V30 3428 H 333.591 0.382157 -0.733407 0
M  V30 3429 H 336.137 0.0447311 -1.69641 0
M  V30 3430 H 334.909 0.434859 -3.88876 0
M  V30 3431 H 334.532 2.07604 -3.39096 0
M  V30 3432 N 335.529 1.53961 0.336706 0
M  V30 3433 C 336.945 1.44378 0.680241 0
M  V30 3434 C 337.145 0.606034 1.9217 0
M  V30 3435 O 336.201 0.099688 2.52303 0
M  V30 3436 C 337.514 2.87945 0.8665 0
M  V30 3437 C 339.062 2.97763 0.964682 0
M  V30 3438 C 339.537 4.42453 1.18321 0
M  V30 3439 N 341.028 4.46008 1.25025 0
M  V30 3440 C 341.763 5.55102 1.43697 0
M  V30 3441 N 341.259 6.7419 1.59498 0
M  V30 3442 N 343.052 5.42727 1.463 0
M  V30 3443 H 335.203 2.06918 -0.479455 0
M  V30 3444 H 337.466 0.935634 -0.152619 0
M  V30 3445 H 337.172 3.51691 0.0256937 0
M  V30 3446 H 337.046 3.33293 1.76623 0
M  V30 3447 H 339.433 2.34153 1.796 0
M  V30 3448 H 339.514 2.55766 0.041708 0
M  V30 3449 H 339.158 5.06645 0.356788 0
M  V30 3450 H 339.088 4.82048 2.11985 0
M  V30 3451 H 341.579 3.60196 1.14312 0
M  V30 3452 H 341.892 7.53095 1.734 0
M  V30 3453 H 340.237 6.77123 1.56621 0
M  V30 3454 H 343.428 4.48647 1.33543 0
M  V30 3455 H 343.601 6.27806 1.6051 0
M  V30 3456 N 337.007 -0.598083 1.45811 0
M  V30 3457 C 337.954 -1.7082 1.55207 0
M  V30 3458 C 338.924 -1.61278 0.39732 0
M  V30 3459 O 340.109 -1.80717 0.612038 0
M  V30 3460 C 337.249 -3.09144 1.53376 0
M  V30 3461 C 336.362 -3.29423 2.79472 0
M  V30 3462 C 335.497 -4.57907 2.69248 0
M  V30 3463 C 334.536 -4.71476 3.90354 0
M  V30 3464 N 333.673 -5.9127 3.78608 0
M  V30 3465 H 338.513 -1.62125 2.50039 0
M  V30 3466 H 336.05 -0.790389 1.24062 0
M  V30 3467 H 338.008 -3.89186 1.50301 0
M  V30 3468 H 336.638 -3.16773 0.620876 0
M  V30 3469 H 335.69 -2.43091 2.92594 0
M  V30 3470 H 337.002 -3.3532 3.69272 0
M  V30 3471 H 336.156 -5.46157 2.64192 0
M  V30 3472 H 334.895 -4.54423 1.77063 0
M  V30 3473 H 333.9 -3.81648 3.95759 0
M  V30 3474 H 335.125 -4.76751 4.83617 0
M  V30 3475 H 333.071 -5.88813 2.89199 0
M  V30 3476 H 332.988 -5.98369 4.6205 0
M  V30 3477 H 334.256 -6.81992 3.77501 0
M  V30 3478 N 338.485 -1.33259 -0.841409 0
M  V30 3479 C 339.734 -1.23921 -1.59143 0
M  V30 3480 C 340.047 0.1941 -1.94635 0
M  V30 3481 O 341.253 0.409474 -2.68394 0
M  V30 3482 C 339.709 -2.17119 -2.87032 0
M  V30 3483 C 339.317 -3.65606 -2.58914 0
M  V30 3484 C 341.061 -2.16648 -3.65053 0
M  V30 3485 C 338.968 -4.50726 -3.82884 0
M  V30 3486 H 337.898 -0.460264 -0.597221 0
M  V30 3487 H 340.549 -1.58307 -0.927959 0
M  V30 3488 H 338.931 -1.75663 -3.54906 0
M  V30 3489 H 340.105 -4.15487 -1.99267 0
M  V30 3490 H 338.42 -3.68341 -1.942 0
M  V30 3491 H 341.017 -2.77474 -4.57069 0
M  V30 3492 H 341.36 -1.16088 -3.99787 0
M  V30 3493 H 341.893 -2.56453 -3.041 0
M  V30 3494 H 338.632 -5.52151 -3.53283 0
M  V30 3495 H 338.152 -4.0559 -4.41879 0
M  V30 3496 H 339.831 -4.64401 -4.50489 0
M  V30 3497 N 339.963 1.05934 -1.16686 0
M  V30 3498 C 340.893 2.1546 -0.899949 0
M  V30 3499 C 341.874 1.69391 0.155154 0
M  V30 3500 O 343.059 1.94199 0.00648693 0
M  V30 3501 C 340.189 3.44939 -0.404241 0
M  V30 3502 C 339.143 4.04536 -1.39767 0
M  V30 3503 C 338.469 5.29268 -0.760216 0
M  V30 3504 C 339.769 4.42893 -2.76845 0
M  V30 3505 H 341.463 2.38046 -1.81588 0
M  V30 3506 H 339.009 1.14404 -0.874514 0
M  V30 3507 H 340.962 4.20901 -0.204971 0
M  V30 3508 H 339.686 3.21983 0.547206 0
M  V30 3509 H 338.345 3.30635 -1.58355 0
M  V30 3510 H 337.993 5.02611 0.197831 0
M  V30 3511 H 337.693 5.70101 -1.42332 0
M  V30 3512 H 339.217 6.07924 -0.57105 0
M  V30 3513 H 340.631 5.09921 -2.62019 0
M  V30 3514 H 339.028 4.94721 -3.39663 0
M  V30 3515 H 340.098 3.53584 -3.31823 0
M  V30 3516 N 341.441 0.965919 1.2453 0
M  V30 3517 C 342.373 0.452465 2.2469 0
M  V30 3518 C 343.386 -0.437821 1.56802 0
M  V30 3519 O 344.575 -0.244283 1.76821 0
M  V30 3520 C 341.675 -0.366258 3.36915 0
M  V30 3521 C 340.848 0.513701 4.34373 0
M  V30 3522 C 339.907 -0.248716 5.25612 0
M  V30 3523 O 338.933 0.356745 5.68081 0
M  V30 3524 N 340.135 -1.53877 5.59734 0
M  V30 3525 H 342.9 1.31361 2.69378 0
M  V30 3526 H 340.461 0.837541 1.38553 0
M  V30 3527 H 342.453 -0.884297 3.94921 0
M  V30 3528 H 341.023 -1.12832 2.91526 0
M  V30 3529 H 340.243 1.21273 3.75082 0
M  V30 3530 H 341.531 1.11391 4.96457 0
M  V30 3531 H 340.929 -2.05243 5.27154 0
M  V30 3532 H 339.486 -2.00254 6.20275 0
M  V30 3533 N 342.919 -1.39368 0.735821 0
M  V30 3534 C 343.849 -2.33234 0.111506 0
M  V30 3535 C 344.83 -1.53954 -0.723334 0
M  V30 3536 O 346.015 -1.82344 -0.668147 0
M  V30 3537 C 343.145 -3.38057 -0.795917 0
M  V30 3538 C 342.099 -4.2795 -0.065172 0
M  V30 3539 C 341.425 -5.23479 -1.08967 0
M  V30 3540 C 342.725 -5.10741 1.09273 0
M  V30 3541 H 344.419 -2.85692 0.895571 0
M  V30 3542 H 341.965 -1.37364 0.432109 0
M  V30 3543 H 343.918 -4.02675 -1.24221 0
M  V30 3544 H 342.642 -2.8404 -1.61211 0
M  V30 3545 H 341.301 -3.64813 0.361511 0
M  V30 3546 H 340.949 -4.65758 -1.89944 0
M  V30 3547 H 340.649 -5.84472 -0.605489 0
M  V30 3548 H 342.173 -5.90974 -1.53565 0
M  V30 3549 H 343.587 -5.68699 0.724841 0
M  V30 3550 H 341.984 -5.8088 1.50659 0
M  V30 3551 H 343.054 -4.45525 1.91404 0
M  V30 3552 N 344.397 -0.483516 -1.5 0
M  V30 3553 C 345.637 0.0657469 -2.04294 0
M  V30 3554 C 346.001 1.35869 -1.35659 0
M  V30 3555 O 347.202 1.99111 -1.80578 0
M  V30 3556 C 345.473 0.232758 -3.56641 0
M  V30 3557 S 347.032 0.738788 -4.32536 0
M  V30 3558 H 343.85 0.0100755 -0.710929 0
M  V30 3559 H 346.452 -0.653494 -1.84254 0
M  V30 3560 H 345.156 -0.713847 -4.04144 0
M  V30 3561 H 344.687 0.977751 -3.81056 0
M  V30 3562 H 346.702 2.01048 -4.53645 0
M  V30 3563 N 345.875 1.56104 -0.216619 0
M  V30 3564 C 347.123 1.97781 0.415593 0
M  V30 3565 C 347.444 1.10536 1.60645 0
M  V30 3566 O 346.714 0.181303 1.95059 0
M  V30 3567 H 345.294 0.730415 0.156534 0
M  V30 3568 H 347.956 1.92445 -0.308366 0
M  V30 3569 H 347.052 3.03072 0.74525 0
M  V30 3570 N 347.353 -0.0568162 1.57498 0
M  V30 3571 C 348.263 -1.08346 2.08083 0
M  V30 3572 C 349.279 -1.41439 1.01346 0
M  V30 3573 O 350.455 -1.51316 1.32912 0
M  V30 3574 C 347.52 -2.37352 2.52715 0
M  V30 3575 C 346.581 -2.11093 3.73816 0
M  V30 3576 C 345.814 -3.33949 4.1631 0
M  V30 3577 O 346.037 -4.43622 3.58547 0
M  V30 3578 O 344.971 -3.21279 5.08983 0
M  V30 3579 H 348.797 -0.683667 2.95905 0
M  V30 3580 H 346.382 -0.271965 1.46904 0
M  V30 3581 H 348.264 -3.13246 2.81877 0
M  V30 3582 H 346.939 -2.76681 1.68016 0
M  V30 3583 H 345.846 -1.32856 3.49714 0
M  V30 3584 H 347.179 -1.76637 4.59413 0
M  V30 3585 N 348.832 -1.54138 -0.328536 0
M  V30 3586 C 349.762 -1.86167 -1.40939 0
M  V30 3587 C 350.743 -0.718044 -1.54202 0
M  V30 3588 O 351.928 -0.971328 -1.68163 0
M  V30 3589 C 349.058 -2.08461 -2.77779 0
M  V30 3590 C 348.012 -3.24299 -2.7931 0
M  V30 3591 C 347.338 -3.31955 -4.19178 0
M  V30 3592 C 348.638 -4.62065 -2.43502 0
M  V30 3593 H 350.332 -2.76689 -1.14383 0
M  V30 3594 H 347.878 -1.33132 -0.548806 0
M  V30 3595 H 349.831 -2.29453 -3.53454 0
M  V30 3596 H 348.555 -1.14684 -3.05802 0
M  V30 3597 H 347.214 -3.03187 -2.0609 0
M  V30 3598 H 346.862 -2.35745 -4.44335 0
M  V30 3599 H 346.562 -4.09805 -4.2111 0
M  V30 3600 H 348.086 -3.55175 -4.96672 0
M  V30 3601 H 349.5 -4.8297 -3.08889 0
M  V30 3602 H 347.897 -5.42429 -2.56693 0
M  V30 3603 H 348.967 -4.64652 -1.38659 0
M  V30 3604 N 350.31 0.590341 -1.46126 0
M  V30 3605 C 351.54 1.37304 -1.54373 0
M  V30 3606 C 351.948 1.88332 -0.181071 0
M  V30 3607 O 351.291 1.63852 0.830559 0
M  V30 3608 C 351.353 2.6012 -2.48149 0
M  V30 3609 C 351.017 2.30613 -3.94546 0
M  V30 3610 C 352.014 1.89915 -4.83971 0
M  V30 3611 C 349.699 2.42993 -4.39613 0
M  V30 3612 C 351.693 1.61981 -6.16475 0
M  V30 3613 C 349.38 2.14672 -5.72153 0
M  V30 3614 C 350.378 1.7423 -6.60404 0
M  V30 3615 O 350.066 1.46251 -7.90485 0
M  V30 3616 H 349.798 0.426086 -0.524811 0
M  V30 3617 H 352.352 0.72539 -1.92165 0
M  V30 3618 H 350.582 3.27664 -2.05361 0
M  V30 3619 H 352.271 3.22182 -2.46887 0
M  V30 3620 H 353.037 1.79872 -4.50412 0
M  V30 3621 H 348.916 2.73435 -3.71153 0
M  V30 3622 H 352.46 1.30341 -6.85315 0
M  V30 3623 H 348.357 2.24337 -6.05263 0
M  V30 3624 H 349.125 1.6016 -8.02677 0
M  V30 3625 N 351.788 1.33704 0.83433 0
M  V30 3626 C 353.065 1.16011 1.57483 0
M  V30 3627 C 353.445 -0.27176 2.09343 0
M  V30 3628 O 352.793 -1.27146 1.89858 0
M  V30 3629 C 353.003 2.20507 2.70514 0
M  V30 3630 C 354.351 2.54898 3.39577 0
M  V30 3631 O 355.375 2.19209 2.80759 0
M  V30 3632 O 354.234 3.16158 4.45765 0
M  V30 3633 H 351.328 0.448992 0.694503 0
M  V30 3634 H 353.874 1.453 0.876691 0
M  V30 3635 H 352.646 3.16667 2.29865 0
M  V30 3636 H 352.269 1.92329 3.47987 0
M  V30 3637 N 353.266 -1.05314 1.17247 0
M  V30 3638 C 354.196 -2.1498 0.911362 0
M  V30 3639 C 355.177 -1.69471 -0.146169 0
M  V30 3640 O 356.362 -1.942 0.003812 0
M  V30 3641 C 353.492 -3.4472 0.422528 0
M  V30 3642 C 352.446 -4.03789 1.4191 0
M  V30 3643 C 351.772 -5.28858 0.788274 0
M  V30 3644 C 353.072 -4.41418 2.7919 0
M  V30 3645 H 354.766 -2.3708 1.82848 0
M  V30 3646 H 352.312 -1.13938 0.880569 0
M  V30 3647 H 354.265 -4.20787 0.227289 0
M  V30 3648 H 352.989 -3.22269 -0.530123 0
M  V30 3649 H 351.648 -3.2979 1.60106 0
M  V30 3650 H 351.296 -5.02709 -0.171173 0
M  V30 3651 H 350.996 -5.69338 1.45353 0
M  V30 3652 H 352.52 -6.07612 0.603282 0
M  V30 3653 H 353.934 -5.08524 2.64719 0
M  V30 3654 H 352.331 -4.92913 3.42282 0
M  V30 3655 H 353.401 -3.51819 3.33693 0
M  V30 3656 N 354.744 -0.972509 -1.24016 0
M  V30 3657 C 356.021 -0.553733 -1.87598 0
M  V30 3658 C 356.401 0.969158 -1.87538 0
M  V30 3659 O 355.749 1.84255 -1.35139 0
M  V30 3660 C 355.959 -1.15076 -3.29482 0
M  V30 3661 C 357.307 -1.23862 -4.06132 0
M  V30 3662 O 358.331 -1.10363 -3.38672 0
M  V30 3663 O 357.19 -1.45252 -5.26844 0
M  V30 3664 H 354.284 -0.185331 -0.805966 0
M  V30 3665 H 356.83 -1.06709 -1.31952 0
M  V30 3666 H 355.602 -2.19333 -3.2405 0
M  V30 3667 H 355.225 -0.621746 -3.92709 0
M  V30 3668 N 356.222 1.38976 -0.743202 0
M  V30 3669 C 357.185 2.28901 -0.117014 0
M  V30 3670 C 358.185 1.46698 0.658503 0
M  V30 3671 O 359.375 1.67274 0.486305 0
M  V30 3672 C 356.507 3.30309 0.84315 0
M  V30 3673 H 357.7 2.8578 -0.909373 0
M  V30 3674 H 355.253 1.47761 -0.509547 0
M  V30 3675 H 355.988 2.785 1.66157 0
M  V30 3676 H 355.773 3.91029 0.289594 0
M  V30 3677 H 357.263 3.97577 1.2776 0
M  V30 3678 N 357.7 0.491464 1.49741 0
M  V30 3679 C 358.925 -0.0557177 2.07325 0
M  V30 3680 C 359.35 -1.30925 1.35056 0
M  V30 3681 O 358.708 -1.76733 0.404365 0
M  V30 3682 C 358.756 -0.302074 3.59333 0
M  V30 3683 O 357.86 -1.37868 3.88672 0
M  V30 3684 H 357.201 0.0219956 0.663636 0
M  V30 3685 H 359.731 0.688352 1.92673 0
M  V30 3686 H 359.741 -0.536464 4.04458 0
M  V30 3687 H 358.416 0.61383 4.11345 0
M  V30 3688 H 356.993 -1.12999 3.55367 0
M  V30 3689 N 359.178 -1.55987 0.224894 0
M  V30 3690 C 360.403 -2.03232 -0.41369 0
M  V30 3691 C 360.828 -1.10359 -1.52323 0
M  V30 3692 O 360.186 -0.092395 -1.81064 0
M  V30 3693 C 360.234 -3.48682 -0.919405 0
M  V30 3694 O 359.338 -3.58947 -2.03054 0
M  V30 3695 H 358.679 -0.657428 -0.0931903 0
M  V30 3696 H 361.209 -2.01679 0.34451 0
M  V30 3697 H 361.219 -3.8907 -1.22835 0
M  V30 3698 H 359.894 -4.15761 -0.107339 0
M  V30 3699 H 358.471 -3.30448 -1.72796 0
M  V30 3700 N 360.656 0.0484629 -1.57525 0
M  V30 3701 C 361.586 1.0549 -2.08313 0
M  V30 3702 C 362.567 1.38929 -0.981463 0
M  V30 3703 O 363.752 1.48151 -1.25558 0
M  V30 3704 C 360.882 2.36162 -2.54646 0
M  V30 3705 C 359.836 2.17016 -3.68901 0
M  V30 3706 C 359.162 3.53278 -4.01371 0
M  V30 3707 C 360.462 1.57219 -4.98076 0
M  V30 3708 H 362.156 0.632195 -2.92649 0
M  V30 3709 H 359.702 0.302654 -1.40784 0
M  V30 3710 H 361.655 3.06882 -2.88793 0
M  V30 3711 H 360.379 2.80456 -1.67368 0
M  V30 3712 H 359.038 1.48733 -3.35073 0
M  V30 3713 H 358.686 3.95185 -3.11188 0
M  V30 3714 H 358.386 3.41299 -4.78318 0
M  V30 3715 H 359.91 4.25391 -4.38035 0
M  V30 3716 H 361.324 2.17832 -5.30304 0
M  V30 3717 H 359.721 1.55871 -5.79503 0
M  V30 3718 H 360.791 0.535956 -4.81929 0
M  V30 3719 N 362.134 1.5431 0.320358 0
M  V30 3720 C 363.066 1.80262 1.41556 0
M  V30 3721 C 364.079 0.684723 1.477 0
M  V30 3722 O 365.268 0.961886 1.50366 0
M  V30 3723 C 362.368 1.90825 2.8007 0
M  V30 3724 C 361.541 3.21023 2.97091 0
M  V30 3725 C 360.6 3.22247 4.15985 0
M  V30 3726 O 359.626 3.95871 4.08992 0
M  V30 3727 N 360.828 2.46258 5.25678 0
M  V30 3728 H 363.593 2.74778 1.19655 0
M  V30 3729 H 361.154 1.53646 0.510358 0
M  V30 3730 H 363.146 1.89067 3.57821 0
M  V30 3731 H 361.716 1.03392 2.95006 0
M  V30 3732 H 360.936 3.35715 2.06614 0
M  V30 3733 H 362.224 4.0698 3.05361 0
M  V30 3734 H 361.622 1.86037 5.34235 0
M  V30 3735 H 360.179 2.50275 6.01835 0
M  V30 3736 N 363.613 -0.582584 1.46437 0
M  V30 3737 C 364.543 -1.70187 1.59871 0
M  V30 3738 C 365.524 -1.64066 0.449042 0
M  V30 3739 O 366.709 -1.82081 0.6753 0
M  V30 3740 C 363.839 -3.08827 1.58881 0
M  V30 3741 C 362.793 -3.29779 2.72819 0
M  V30 3742 C 362.119 -4.68947 2.5689 0
M  V30 3743 C 363.419 -3.17601 4.1464 0
M  V30 3744 H 365.113 -1.592 2.53566 0
M  V30 3745 H 362.659 -0.764472 1.22032 0
M  V30 3746 H 364.612 -3.86951 1.66873 0
M  V30 3747 H 363.336 -3.20713 0.617306 0
M  V30 3748 H 361.995 -2.54054 2.64296 0
M  V30 3749 H 361.643 -4.77599 1.57823 0
M  V30 3750 H 361.343 -4.83919 3.33312 0
M  V30 3751 H 362.867 -5.4924 2.66773 0
M  V30 3752 H 364.281 -3.8557 4.24274 0
M  V30 3753 H 362.678 -3.44094 4.9165 0
M  V30 3754 H 363.748 -2.14681 4.34788 0
M  V30 3755 N 365.091 -1.34144 -0.827227 0
M  V30 3756 C 366.038 -1.25364 -1.93785 0
M  V30 3757 C 367.008 -0.129774 -1.65592 0
M  V30 3758 O 368.193 -0.310024 -1.88264 0
M  V30 3759 C 365.333 -1.01064 -3.2997 0
M  V30 3760 C 364.446 -2.22185 -3.70484 0
M  V30 3761 C 363.581 -1.91203 -4.95595 0
M  V30 3762 C 362.62 -3.08491 -5.28677 0
M  V30 3763 N 361.757 -2.77421 -6.44967 0
M  V30 3764 H 366.597 -2.20347 -2.00627 0
M  V30 3765 H 364.134 -1.09558 -0.981608 0
M  V30 3766 H 366.092 -0.850139 -4.08446 0
M  V30 3767 H 364.722 -0.0975026 -3.22653 0
M  V30 3768 H 363.774 -2.4917 -2.87434 0
M  V30 3769 H 365.086 -3.0983 -3.90905 0
M  V30 3770 H 364.24 -1.71864 -5.81848 0
M  V30 3771 H 362.979 -1.00812 -4.77167 0
M  V30 3772 H 361.984 -3.28431 -4.40923 0
M  V30 3773 H 363.209 -3.99655 -5.49047 0
M  V30 3774 H 361.155 -1.89601 -6.28003 0
M  V30 3775 H 361.072 -3.58598 -6.6554 0
M  V30 3776 H 362.34 -2.61577 -7.34301 0
M  V30 3777 N 366.569 1.04691 -1.17803 0
M  V30 3778 C 367.815 1.78045 -0.970969 0
M  V30 3779 C 368.148 1.87686 0.498751 0
M  V30 3780 O 367.423 1.38035 1.37027 0
M  V30 3781 C 367.706 3.2166 -1.61884 0
M  V30 3782 C 367.559 3.20001 -3.161 0
M  V30 3783 C 368.878 4.1962 -1.3269 0
M  V30 3784 H 365.997 0.64633 -0.354155 0
M  V30 3785 H 368.639 1.22333 -1.45378 0
M  V30 3786 H 366.789 3.69232 -1.20831 0
M  V30 3787 H 368.461 2.80467 -3.66246 0
M  V30 3788 H 366.704 2.58203 -3.48588 0
M  V30 3789 H 367.375 4.21386 -3.56564 0
M  V30 3790 H 369.851 3.80567 -1.68249 0
M  V30 3791 H 368.727 5.18339 -1.80599 0
M  V30 3792 H 368.988 4.414 -0.248622 0
M  V30 3793 N 368.047 0.979072 1.23499 0
M  V30 3794 C 368.977 0.537606 2.27227 0
M  V30 3795 C 369.958 -0.428539 1.64613 0
M  V30 3796 O 371.143 -0.322191 1.91509 0
M  V30 3797 C 368.273 -0.162052 3.46922 0
M  V30 3798 C 367.227 0.721242 4.21879 0
M  V30 3799 C 366.553 -0.110555 5.34586 0
M  V30 3800 C 367.853 2.01141 4.82016 0
M  V30 3801 H 369.547 1.40462 2.64406 0
M  V30 3802 H 367.093 0.67684 1.27102 0
M  V30 3803 H 369.046 -0.482192 4.18632 0
M  V30 3804 H 367.77 -1.06351 3.08799 0
M  V30 3805 H 366.429 1.02482 3.51984 0
M  V30 3806 H 366.077 -1.0125 4.92704 0
M  V30 3807 H 365.777 0.477325 5.85658 0
M  V30 3808 H 367.301 -0.425107 6.09118 0
M  V30 3809 H 368.715 1.75612 5.45741 0
M  V30 3810 H 367.112 2.54695 5.43369 0
M  V30 3811 H 368.182 2.69909 4.02836 0
M  V30 3812 N 369.525 -1.3858 0.750561 0
M  V30 3813 C 370.457 -2.29057 0.0810714 0
M  V30 3814 C 371.47 -1.47596 -0.686973 0
M  V30 3815 O 372.659 -1.70495 -0.528563 0
M  V30 3816 C 369.759 -3.26475 -0.909247 0
M  V30 3817 C 368.932 -4.36945 -0.199478 0
M  V30 3818 C 367.991 -5.14572 -1.10011 0
M  V30 3819 O 367.017 -5.66321 -0.57177 0
M  V30 3820 N 368.219 -5.27262 -2.42849 0
M  V30 3821 H 370.984 -2.87153 0.858087 0
M  V30 3822 H 368.545 -1.50328 0.60109 0
M  V30 3823 H 370.537 -3.75285 -1.51471 0
M  V30 3824 H 369.107 -2.69298 -1.58736 0
M  V30 3825 H 368.327 -3.8981 0.586664 0
M  V30 3826 H 369.615 -5.07963 0.291783 0
M  V30 3827 H 369.013 -4.86763 -2.88233 0
M  V30 3828 H 367.57 -5.79456 -2.98453 0
M  V30 3829 N 371.003 -0.499398 -1.49478 0
M  V30 3830 C 372.233 0.0424839 -2.06556 0
M  V30 3831 C 372.641 1.31514 -1.36018 0
M  V30 3832 O 371.984 1.78555 -0.431718 0
M  V30 3833 C 372.046 0.368074 -3.57611 0
M  V30 3834 C 371.71 -0.806631 -4.49825 0
M  V30 3835 C 372.707 -1.69667 -4.91436 0
M  V30 3836 C 370.392 -1.00498 -4.92144 0
M  V30 3837 C 372.386 -2.76923 -5.74101 0
M  V30 3838 C 370.073 -2.08072 -5.74586 0
M  V30 3839 C 371.071 -2.96119 -6.15469 0
M  V30 3840 O 370.759 -4.01836 -6.96264 0
M  V30 3841 H 370.491 -0.0165165 -0.675798 0
M  V30 3842 H 373.045 -0.695497 -1.93267 0
M  V30 3843 H 371.275 1.15963 -3.68903 0
M  V30 3844 H 372.964 0.848381 -3.96935 0
M  V30 3845 H 373.73 -1.55524 -4.59388 0
M  V30 3846 H 369.609 -0.329036 -4.59824 0
M  V30 3847 H 373.153 -3.45676 -6.05932 0
M  V30 3848 H 369.05 -2.22211 -6.06047 0
M  V30 3849 H 369.818 -3.9917 -7.14567 0
M  V30 3850 N 372.481 1.55866 -0.233164 0
M  V30 3851 C 373.411 2.23783 0.666599 0
M  V30 3852 C 374.392 1.21343 1.19205 0
M  V30 3853 O 375.577 1.4996 1.23392 0
M  V30 3854 C 372.707 2.92671 1.86978 0
M  V30 3855 C 371.661 4.01682 1.47768 0
M  V30 3856 C 370.987 4.57926 2.76058 0
M  V30 3857 C 372.287 5.18126 0.658993 0
M  V30 3858 H 373.981 2.99232 0.100306 0
M  V30 3859 H 371.527 1.43924 0.046804 0
M  V30 3860 H 373.48 3.3888 2.50476 0
M  V30 3861 H 372.204 2.14688 2.46123 0
M  V30 3862 H 370.863 3.56222 0.866106 0
M  V30 3863 H 370.511 3.76659 3.33372 0
M  V30 3864 H 370.211 5.31505 2.50552 0
M  V30 3865 H 371.735 5.06859 3.40479 0
M  V30 3866 H 373.149 5.60644 1.19795 0
M  V30 3867 H 371.546 5.98009 0.500552 0
M  V30 3868 H 372.616 4.83763 -0.331856 0
M  V30 3869 N 373.959 -0.0401083 1.57549 0
M  V30 3870 C 374.891 -1.07149 2.02612 0
M  V30 3871 C 375.904 -1.33126 0.937085 0
M  V30 3872 O 377.093 -1.30808 1.21456 0
M  V30 3873 C 374.193 -2.41561 2.37701 0
M  V30 3874 C 373.366 -2.35096 3.68848 0
M  V30 3875 C 372.425 -3.51867 3.91249 0
M  V30 3876 O 371.451 -3.3186 4.62447 0
M  V30 3877 N 372.653 -4.73351 3.36035 0
M  V30 3878 H 375.418 -0.687485 2.91708 0
M  V30 3879 H 372.979 -0.228248 1.60283 0
M  V30 3880 H 374.971 -3.18379 2.49833 0
M  V30 3881 H 373.541 -2.71846 1.54332 0
M  V30 3882 H 372.761 -1.4345 3.67173 0
M  V30 3883 H 374.049 -2.27908 4.54901 0
M  V30 3884 H 373.447 -4.92507 2.78304 0
M  V30 3885 H 372.004 -5.47572 3.53565 0
M  V30 3886 N 375.437 -1.54477 -0.31217 0
M  V30 3887 C 376.369 -1.81011 -1.40598 0
M  V30 3888 C 377.382 -0.692546 -1.47335 0
M  V30 3889 O 378.571 -0.969847 -1.49854 0
M  V30 3890 C 375.671 -1.92307 -2.79054 0
M  V30 3891 C 374.844 -3.22594 -2.95384 0
M  V30 3892 C 373.903 -3.24448 -4.1427 0
M  V30 3893 O 372.929 -3.98035 -4.06887 0
M  V30 3894 N 374.131 -2.49042 -5.24365 0
M  V30 3895 H 376.896 -2.75408 -1.18196 0
M  V30 3896 H 374.457 -1.53914 -0.502202 0
M  V30 3897 H 376.449 -1.90962 -3.56813 0
M  V30 3898 H 375.019 -1.04955 -2.94454 0
M  V30 3899 H 374.239 -3.36806 -2.04831 0
M  V30 3900 H 375.527 -4.08593 -3.03198 0
M  V30 3901 H 374.925 -1.88867 -5.33241 0
M  V30 3902 H 373.482 -2.53463 -6.005 0
M  V30 3903 N 376.915 0.57481 -1.46744 0
M  V30 3904 C 377.825 1.711 -1.60505 0
M  V30 3905 C 378.841 1.67008 -0.488307 0
M  V30 3906 O 380.017 1.86774 -0.753495 0
M  V30 3907 C 377.082 3.07608 -1.59932 0
M  V30 3908 C 376.143 3.22904 -2.82898 0
M  V30 3909 C 375.376 4.529 -2.82343 0
M  V30 3910 O 375.599 5.37278 -1.91542 0
M  V30 3911 O 374.533 4.71611 -3.73987 0
M  V30 3912 H 378.359 1.62436 -2.56609 0
M  V30 3913 H 375.944 0.742779 -1.29627 0
M  V30 3914 H 377.826 3.88877 -1.62336 0
M  V30 3915 H 376.501 3.16692 -0.669898 0
M  V30 3916 H 375.408 2.41099 -2.86046 0
M  V30 3917 H 376.741 3.18715 -3.75076 0
M  V30 3918 N 378.394 1.34581 0.820102 0
M  V30 3919 C 379.622 1.3018 1.60813 0
M  V30 3920 C 380.037 -0.123551 1.88395 0
M  V30 3921 O 379.394 -1.07148 1.47735 0
M  V30 3922 C 379.445 2.09312 2.94739 0
M  V30 3923 O 379.166 3.46288 2.68358 0
M  V30 3924 C 380.667 2.1234 3.89136 0
M  V30 3925 H 377.887 0.447726 0.499782 0
M  V30 3926 H 380.431 1.77237 1.02017 0
M  V30 3927 H 378.586 1.65889 3.50085 0
M  V30 3928 H 379 3.87227 3.53774 0
M  V30 3929 H 380.474 2.72126 4.80262 0
M  V30 3930 H 380.951 1.11854 4.24718 0
M  V30 3931 H 381.557 2.55864 3.39726 0
M  V30 3932 N 379.872 -1.04064 1.18357 0
M  V30 3933 C 381.288 -1.2947 0.933258 0
M  V30 3934 C 381.488 -1.97466 -0.401169 0
M  V30 3935 O 380.544 -2.25528 -1.13549 0
M  V30 3936 C 381.857 -2.15337 2.09882 0
M  V30 3937 C 383.405 -2.28683 2.13712 0
M  V30 3938 C 383.88 -3.17917 3.29686 0
M  V30 3939 N 385.371 -3.25504 3.29547 0
M  V30 3940 C 386.106 -3.94706 4.15926 0
M  V30 3941 N 385.602 -4.66239 5.12439 0
M  V30 3942 N 387.395 -3.90986 4.0384 0
M  V30 3943 H 379.546 -0.583359 2.04232 0
M  V30 3944 H 381.809 -0.319921 0.892387 0
M  V30 3945 H 381.515 -1.72682 3.06389 0
M  V30 3946 H 381.389 -3.16015 2.05947 0
M  V30 3947 H 383.776 -2.70575 1.17784 0
M  V30 3948 H 383.857 -1.27596 2.21705 0
M  V30 3949 H 383.501 -2.76736 4.25887 0
M  V30 3950 H 383.431 -4.19036 3.1893 0
M  V30 3951 H 385.922 -2.74547 2.59677 0
M  V30 3952 H 386.235 -5.16638 5.74722 0
M  V30 3953 H 384.58 -4.65143 5.16398 0
M  V30 3954 H 387.771 -3.34234 3.27727 0
M  V30 3955 H 387.944 -4.44646 4.71375 0
M  V30 3956 N 381.35 -0.985608 -1.22978 0
M  V30 3957 C 382.313 -0.535071 -2.22867 0
M  V30 3958 C 383.313 0.378123 -1.56291 0
M  V30 3959 O 384.503 0.171092 -1.73358 0
M  V30 3960 C 381.635 0.222702 -3.40172 0
M  V30 3961 H 382.828 -1.41835 -2.6424 0
M  V30 3962 H 380.381 -0.772042 -1.35901 0
M  V30 3963 H 381.116 1.12229 -3.04262 0
M  V30 3964 H 380.901 -0.43288 -3.89703 0
M  V30 3965 H 382.391 0.526335 -4.1427 0
M  V30 3966 N 382.828 1.3818 -0.7579 0
M  V30 3967 C 384.053 2.04827 -0.325679 0
M  V30 3968 C 384.478 1.56788 1.03919 0
M  V30 3969 O 383.836 0.721811 1.66312 0
M  V30 3970 C 383.884 3.58774 -0.362447 0
M  V30 3971 O 382.988 4.07372 0.642033 0
M  V30 3972 H 382.329 0.64833 -0.143402 0
M  V30 3973 H 384.859 1.7677 -1.03023 0
M  V30 3974 H 384.869 4.07434 -0.214844 0
M  V30 3975 H 383.544 3.93096 -1.35824 0
M  V30 3976 H 382.121 3.70068 0.458688 0
M  V30 3977 N 384.306 0.507319 1.49211 0
M  V30 3978 C 385.722 0.163682 1.58758 0
M  V30 3979 C 385.922 -1.33208 1.51188 0
M  V30 3980 O 384.978 -2.10855 1.38911 0
M  V30 3981 C 386.291 0.746095 2.91297 0
M  V30 3982 C 387.839 0.712773 3.04776 0
M  V30 3983 C 388.314 1.27336 4.39943 0
M  V30 3984 N 389.805 1.23433 4.46451 0
M  V30 3985 C 390.54 1.63821 5.495 0
M  V30 3986 N 390.036 2.11832 6.5962 0
M  V30 3987 N 391.829 1.55198 5.4025 0
M  V30 3988 H 383.98 1.47972 1.52375 0
M  V30 3989 H 386.243 0.614147 0.722168 0
M  V30 3990 H 385.949 1.79534 3.02424 0
M  V30 3991 H 385.823 0.210137 3.76614 0
M  V30 3992 H 388.21 -0.327656 2.93275 0
M  V30 3993 H 388.291 1.28595 2.21127 0
M  V30 3994 H 387.935 2.3126 4.52196 0
M  V30 3995 H 387.865 0.676066 5.22242 0
M  V30 3996 H 390.356 0.882627 3.67448 0
M  V30 3997 H 390.669 2.40703 7.34358 0
M  V30 3998 H 389.014 2.1581 6.60644 0
M  V30 3999 H 392.205 1.17505 4.53112 0
M  V30 4000 H 392.378 1.86997 6.20432 0
M  V30 4001 N 385.784 -1.5574 0.241426 0
M  V30 4002 C 387.024 -2.00714 -0.38644 0
M  V30 4003 C 387.388 -1.12586 -1.55526 0
M  V30 4004 O 388.589 -1.46992 -2.25048 0
M  V30 4005 C 386.86 -3.48534 -0.791128 0
M  V30 4006 S 388.419 -4.15519 -1.41029 0
M  V30 4007 H 385.237 -0.700484 -0.121834 0
M  V30 4008 H 387.839 -1.92243 0.355377 0
M  V30 4009 H 386.543 -4.10342 0.0689225 0
M  V30 4010 H 386.074 -3.6092 -1.56526 0
M  V30 4011 H 388.089 -4.16352 -2.69936 0
M  V30 4012 N 387.262 0.0317525 -1.57568 0
M  V30 4013 C 388.502 0.727979 -1.90997 0
M  V30 4014 C 388.866 1.72664 -0.839708 0
M  V30 4015 O 390.067 2.47092 -1.05825 0
M  V30 4016 C 388.338 1.38239 -3.29583 0
M  V30 4017 S 389.897 2.10814 -3.84841 0
M  V30 4018 H 386.715 0.241226 -0.668828 0
M  V30 4019 H 389.317 -0.0173037 -1.95492 0
M  V30 4020 H 388.021 0.642288 -4.05343 0
M  V30 4021 H 387.552 2.16628 -3.28384 0
M  V30 4022 H 389.567 3.3792 -3.63352 0
M  V30 4023 N 388.74 1.54641 0.303973 0
M  V30 4024 C 389.67 1.88386 1.3796 0
M  V30 4025 C 390.651 0.742485 1.5304 0
M  V30 4026 O 391.836 0.997959 1.66597 0
M  V30 4027 C 388.966 2.12854 2.74427 0
M  V30 4028 C 387.92 3.28702 2.74115 0
M  V30 4029 C 387.246 3.38582 4.13844 0
M  V30 4030 C 388.546 4.65881 2.3612 0
M  V30 4031 H 390.24 2.78474 1.09966 0
M  V30 4032 H 387.786 1.33988 0.527556 0
M  V30 4033 H 389.739 2.35047 3.49758 0
M  V30 4034 H 388.463 1.19535 3.03939 0
M  V30 4035 H 387.122 3.06428 2.0124 0
M  V30 4036 H 386.77 2.42784 4.40528 0
M  V30 4037 H 386.47 4.16453 4.14537 0
M  V30 4038 H 387.994 3.63031 4.90959 0
M  V30 4039 H 389.408 4.87823 3.01167 0
M  V30 4040 H 387.805 5.46444 2.48031 0
M  V30 4041 H 388.875 4.66799 1.3125 0
M  V30 4042 N 390.218 -0.567019 1.47046 0
M  V30 4043 C 391.148 -1.68482 1.61667 0
M  V30 4044 C 392.129 -1.6358 0.466418 0
M  V30 4045 O 393.314 -1.81354 0.694574 0
M  V30 4046 C 390.444 -3.07124 1.62148 0
M  V30 4047 C 389.398 -3.26867 2.76301 0
M  V30 4048 C 388.724 -4.66196 2.61849 0
M  V30 4049 C 390.024 -3.13186 4.17986 0
M  V30 4050 H 391.718 -1.56502 2.5524 0
M  V30 4051 H 389.264 -0.751486 1.22836 0
M  V30 4052 H 391.217 -3.8516 1.70968 0
M  V30 4053 H 389.941 -3.2004 0.651287 0
M  V30 4054 H 388.6 -2.51237 2.66975 0
M  V30 4055 H 388.248 -4.75898 1.62879 0
M  V30 4056 H 387.948 -4.80356 3.38425 0
M  V30 4057 H 389.472 -5.46379 2.72584 0
M  V30 4058 H 390.886 -3.81049 4.2834 0
M  V30 4059 H 389.283 -3.3886 4.95272 0
M  V30 4060 H 390.353 -2.10057 4.3704 0
M  V30 4061 N 391.696 -1.35014 -0.812953 0
M  V30 4062 C 392.626 -1.30069 -1.93919 0
M  V30 4063 C 393.607 -0.176275 -1.69184 0
M  V30 4064 O 394.792 -0.370227 -1.90638 0
M  V30 4065 C 391.922 -1.06547 -3.30552 0
M  V30 4066 C 390.876 -2.15561 -3.69753 0
M  V30 4067 C 390.202 -1.77214 -5.04479 0
M  V30 4068 C 391.502 -3.57476 -3.808 0
M  V30 4069 H 393.196 -2.24303 -1.98314 0
M  V30 4070 H 390.742 -1.07977 -0.952736 0
M  V30 4071 H 392.695 -1.01729 -4.08937 0
M  V30 4072 H 391.419 -0.0875719 -3.26483 0
M  V30 4073 H 390.078 -2.19466 -2.9365 0
M  V30 4074 H 389.726 -0.780589 -4.96906 0
M  V30 4075 H 389.426 -2.50184 -5.31678 0
M  V30 4076 H 390.95 -1.7391 -5.8531 0
M  V30 4077 H 392.364 -3.55929 -4.4943 0
M  V30 4078 H 390.761 -4.29152 -4.19462 0
M  V30 4079 H 391.831 -3.94091 -2.82525 0
M  V30 4080 N 393.175 1.03435 -1.18907 0
M  V30 4081 C 394.421 1.77005 -0.989798 0
M  V30 4082 C 394.754 1.88205 0.478816 0
M  V30 4083 O 394.029 1.39481 1.35556 0
M  V30 4084 C 394.312 3.19925 -1.65287 0
M  V30 4085 C 394.165 3.1663 -3.19477 0
M  V30 4086 C 395.484 4.18189 -1.37134 0
M  V30 4087 H 392.603 0.642538 -0.360991 0
M  V30 4088 H 395.245 1.20784 -1.46667 0
M  V30 4089 H 393.395 3.67929 -1.24741 0
M  V30 4090 H 395.067 2.76567 -3.692 0
M  V30 4091 H 393.31 2.54491 -3.51307 0
M  V30 4092 H 393.981 4.1758 -3.61013 0
M  V30 4093 H 396.457 3.78761 -1.72276 0
M  V30 4094 H 395.333 5.16394 -1.86087 0
M  V30 4095 H 395.594 4.41112 -0.295424 0
M  V30 4096 N 394.653 0.992116 1.22453 0
M  V30 4097 C 395.878 0.685644 1.95739 0
M  V30 4098 C 396.303 -0.743 1.72804 0
M  V30 4099 O 395.661 -1.50778 1.00676 0
M  V30 4100 C 395.709 0.996293 3.46564 0
M  V30 4101 O 394.813 0.0945512 4.12292 0
M  V30 4102 H 394.154 0.256694 0.612376 0
M  V30 4103 H 396.684 1.32888 1.5557 0
M  V30 4104 H 396.694 0.93781 3.97076 0
M  V30 4105 H 395.369 2.03733 3.62582 0
M  V30 4106 H 393.946 0.208451 3.72317 0
M  V30 4107 N 396.131 -1.37776 0.765217 0
M  V30 4108 C 397.041 -2.34135 0.147666 0
M  V30 4109 C 398.057 -1.59854 -0.687215 0
M  V30 4110 O 399.233 -1.91983 -0.608659 0
M  V30 4111 C 396.298 -3.3901 -0.72617 0
M  V30 4112 C 395.359 -4.2912 0.124417 0
M  V30 4113 C 394.592 -5.28986 -0.707807 0
M  V30 4114 O 394.815 -5.36205 -1.94525 0
M  V30 4115 O 393.749 -6.01779 -0.12046 0
M  V30 4116 H 397.575 -2.88664 0.943758 0
M  V30 4117 H 395.16 -1.39824 0.526277 0
M  V30 4118 H 397.042 -4.03195 -1.22524 0
M  V30 4119 H 395.717 -2.86819 -1.50056 0
M  V30 4120 H 394.624 -3.68057 0.669696 0
M  V30 4121 H 395.957 -4.84598 0.861736 0
M  V30 4122 N 397.609 -0.515225 -1.4894 0
M  V30 4123 C 398.886 0.0879088 -1.95402 0
M  V30 4124 C 399.266 1.52745 -1.45712 0
M  V30 4125 O 398.614 2.18238 -0.677093 0
M  V30 4126 C 398.824 -0.0141055 -3.48997 0
M  V30 4127 C 400.172 0.152646 -4.24326 0
M  V30 4128 O 401.196 0.0604025 -3.56149 0
M  V30 4129 O 400.055 0.34384 -5.45417 0
M  V30 4130 H 397.149 0.0874636 -0.822362 0
M  V30 4131 H 399.695 -0.578775 -1.59525 0
M  V30 4132 H 398.467 -1.01745 -3.77841 0
M  V30 4133 H 398.09 0.692091 -3.9153 0
M  V30 4134 N 399.087 1.5561 -0.249682 0
M  V30 4135 C 400.035 2.22894 0.664906 0
M  V30 4136 C 401.029 1.21743 1.17792 0
M  V30 4137 O 402.235 1.39748 1.13449 0
M  V30 4138 H 398.61 0.715022 0.232912 0
M  V30 4139 H 400.581 2.98307 0.0742998 0
M  V30 4140 C 399.33 2.94424 1.84959 0
M  V30 4141 H 398.653 3.72031 1.46399 0
M  V30 4142 H 400.093 3.44862 2.4667 0
M  V30 4143 C 398.552 1.98454 2.72245 0
M  V30 4144 O 399.082 1.51939 3.71857 0
M  V30 4145 N 397.288 1.65496 2.38871 0
M  V30 4146 H 396.835 2.03517 1.57919 0
M  V30 4147 H 396.793 1.0155 2.97548 0
M  V30 4148 N 400.565 -0.0233959 1.57583 0
M  V30 4149 C 401.495 -1.02162 2.09965 0
M  V30 4150 C 402.476 -1.3735 1.00344 0
M  V30 4151 O 403.661 -1.46135 1.27899 0
M  V30 4152 C 400.791 -2.32081 2.58371 0
M  V30 4153 C 399.745 -2.1112 3.72307 0
M  V30 4154 C 399.071 -3.46848 4.06941 0
M  V30 4155 C 400.371 -1.49276 5.00514 0
M  V30 4156 H 402.065 -0.585557 2.93618 0
M  V30 4157 H 399.611 -0.280218 1.41247 0
M  V30 4158 H 401.564 -3.02249 2.93639 0
M  V30 4159 H 400.288 -2.77758 1.71808 0
M  V30 4160 H 398.947 -1.43384 3.37397 0
M  V30 4161 H 398.595 -3.90184 3.17436 0
M  V30 4162 H 398.295 -3.33646 4.83688 0
M  V30 4163 H 399.819 -4.18369 4.44747 0
M  V30 4164 H 401.233 -2.09368 5.33702 0
M  V30 4165 H 399.63 -1.46632 5.8191 0
M  V30 4166 H 400.7 -0.459217 4.82721 0
M  V30 4167 N 402.043 -1.548 -0.295768 0
M  V30 4168 C 402.975 -1.82492 -1.3867 0
M  V30 4169 C 403.988 -0.708134 -1.46592 0
M  V30 4170 O 405.177 -0.985686 -1.48817 0
M  V30 4171 C 402.277 -1.95256 -2.76999 0
M  V30 4172 C 401.45 -3.25709 -2.91946 0
M  V30 4173 C 400.509 -3.28824 -4.10806 0
M  V30 4174 O 399.535 -4.02328 -4.02643 0
M  V30 4175 N 400.737 -2.5459 -5.21694 0
M  V30 4176 H 403.502 -2.76646 -1.15269 0
M  V30 4177 H 401.063 -1.54438 -0.485849 0
M  V30 4178 H 403.055 -1.94736 -3.54768 0
M  V30 4179 H 401.625 -1.08072 -2.93324 0
M  V30 4180 H 400.845 -3.38959 -2.01247 0
M  V30 4181 H 402.133 -4.11786 -2.98847 0
M  V30 4182 H 401.531 -1.94512 -5.31208 0
M  V30 4183 H 400.088 -2.59818 -5.97778 0
M  V30 4184 N 403.521 0.559213 -1.47345 0
M  V30 4185 C 404.451 1.67622 -1.62558 0
M  V30 4186 C 405.432 1.63331 -0.475087 0
M  V30 4187 O 406.617 1.80983 -0.704182 0
M  V30 4188 C 403.747 3.0626 -1.63774 0
M  V30 4189 C 402.701 3.25397 -2.7803 0
M  V30 4190 C 402.027 4.64801 -2.64318 0
M  V30 4191 C 403.327 3.10965 -4.19641 0
M  V30 4192 H 405.021 1.55146 -2.56067 0
M  V30 4193 H 402.567 0.744961 -1.23233 0
M  V30 4194 H 404.52 3.84247 -1.73008 0
M  V30 4195 H 403.244 3.1969 -0.66825 0
M  V30 4196 H 401.903 2.49817 -2.68304 0
M  V30 4197 H 401.551 4.75028 -1.65401 0
M  V30 4198 H 401.251 4.78555 -3.40968 0
M  V30 4199 H 402.775 5.44926 -2.75478 0
M  V30 4200 H 404.189 3.78772 -4.30354 0
M  V30 4201 H 402.586 3.36229 -4.97062 0
M  V30 4202 H 403.656 2.07736 -4.38148 0
M  V30 4203 N 404.999 1.35443 0.805782 0
M  V30 4204 C 406.224 1.32037 1.59941 0
M  V30 4205 C 406.649 -0.0994215 1.87837 0
M  V30 4206 O 406.007 -1.06648 1.46615 0
M  V30 4207 C 406.055 2.13354 2.90711 0
M  V30 4208 O 405.159 1.5148 3.83572 0
M  V30 4209 H 404.5 0.452666 0.485787 0
M  V30 4210 H 407.03 1.78496 1.00002 0
M  V30 4211 H 407.04 2.25338 3.40128 0
M  V30 4212 H 405.715 3.16572 2.69732 0
M  V30 4213 H 404.292 1.4834 3.42125 0
M  V30 4214 N 406.477 -1.02803 1.19454 0
M  V30 4215 C 407.717 -1.77769 1.00883 0
M  V30 4216 C 408.081 -1.86596 -0.45233 0
M  V30 4217 O 409.282 -2.57895 -0.757877 0
M  V30 4218 C 407.553 -3.16486 1.66046 0
M  V30 4219 S 409.112 -4.07632 1.62424 0
M  V30 4220 H 405.93 -0.611949 0.361993 0
M  V30 4221 H 408.532 -1.23175 1.51816 0
M  V30 4222 H 407.236 -3.0768 2.7159 0
M  V30 4223 H 406.767 -3.76156 1.15196 0
M  V30 4224 H 408.782 -4.91937 0.64903 0
M  V30 4225 N 407.956 -0.998596 -1.21925 0
M  V30 4226 C 408.903 -0.553621 -2.24062 0
M  V30 4227 C 409.873 0.416999 -1.6078 0
M  V30 4228 O 411.058 0.320482 -1.88089 0
M  V30 4229 C 408.198 0.119959 -3.44891 0
M  V30 4230 C 407.311 -0.893077 -4.22668 0
M  V30 4231 C 406.446 -0.192424 -5.30851 0
M  V30 4232 C 405.485 -1.19344 -6.00353 0
M  V30 4233 N 404.622 -0.520707 -7.00166 0
M  V30 4234 H 409.462 -1.4293 -2.61486 0
M  V30 4235 H 406.999 -0.715838 -1.28507 0
M  V30 4236 H 408.957 0.527459 -4.13852 0
M  V30 4237 H 407.587 0.959389 -3.08214 0
M  V30 4238 H 406.639 -1.41886 -3.52948 0
M  V30 4239 H 407.951 -1.65512 -4.70539 0
M  V30 4240 H 407.105 0.271515 -6.06092 0
M  V30 4241 H 405.844 0.602075 -4.83969 0
M  V30 4242 H 404.849 -1.66795 -5.23889 0
M  V30 4243 H 406.074 -1.98891 -6.49322 0
M  V30 4244 H 404.02 0.254252 -6.55507 0
M  V30 4245 H 403.937 -1.2211 -7.46073 0
M  V30 4246 H 405.205 -0.0797596 -7.79459 0
M  V30 4247 N 409.434 1.37368 -0.772513 0
M  V30 4248 C 410.68 1.99969 -0.337681 0
M  V30 4249 C 411.013 1.61184 1.08321 0
M  V30 4250 O 410.288 0.858395 1.74533 0
M  V30 4251 C 410.571 3.56858 -0.482121 0
M  V30 4252 C 410.424 4.0555 -1.94549 0
M  V30 4253 C 411.743 4.39955 0.113143 0
M  V30 4254 H 408.862 0.726464 -0.124171 0
M  V30 4255 H 411.504 1.63034 -0.975699 0
M  V30 4256 H 409.654 3.88452 0.0610361 0
M  V30 4257 H 411.326 3.84518 -2.54841 0
M  V30 4258 H 409.569 3.57715 -2.45403 0
M  V30 4259 H 410.24 5.14587 -1.9976 0
M  V30 4260 H 412.716 4.14623 -0.35031 0
M  V30 4261 H 411.592 5.48897 -0.0180514 0
M  V30 4262 H 411.853 4.25403 1.20354 0
M  V30 4263 N 410.912 0.523116 1.48665 0
M  V30 4264 C 412.161 -0.01544 2.01694 0
M  V30 4265 C 412.474 -1.35975 1.40606 0
M  V30 4266 O 413.68 -1.98627 1.85093 0
M  V30 4267 C 412.136 -0.0779303 3.59816 0
M  V30 4268 C 411.744 1.26107 4.29885 0
M  V30 4269 C 413.488 -0.565678 4.20714 0
M  V30 4270 C 411.395 1.15954 5.79921 0
M  V30 4271 H 410.325 -0.00954163 0.75394 0
M  V30 4272 H 412.976 0.665865 1.70993 0
M  V30 4273 H 411.358 -0.824165 3.87329 0
M  V30 4274 H 412.532 2.02233 4.14051 0
M  V30 4275 H 410.847 1.68401 3.80828 0
M  V30 4276 H 413.444 -0.6595 5.30617 0
M  V30 4277 H 413.787 -1.56984 3.85567 0
M  V30 4278 H 414.32 0.12467 3.97605 0
M  V30 4279 H 411.059 2.13864 6.19631 0
M  V30 4280 H 410.579 0.439529 5.98187 0
M  V30 4281 H 412.258 0.847361 6.41427 0
M  V30 4282 N 412.39 -1.55475 0.257931 0
M  V30 4283 C 413.638 -1.98813 -0.363009 0
M  V30 4284 C 413.959 -1.14757 -1.57657 0
M  V30 4285 O 413.229 -0.232956 -1.9451 0
M  V30 4286 H 411.809 -0.734308 -0.137113 0
M  V30 4287 H 414.471 -1.9156 0.359281 0
M  V30 4288 H 413.567 -3.04941 -0.664634 0
M  V30 4289 N 413.868 0.0150385 -1.57593 0
M  V30 4290 C 415.145 0.7392 -1.81094 0
M  V30 4291 C 415.525 1.92817 -0.859344 0
M  V30 4292 O 414.873 2.28301 0.095362 0
M  V30 4293 C 415.083 1.15907 -3.29191 0
M  V30 4294 C 416.431 1.56918 -3.9454 0
M  V30 4295 O 417.455 1.25328 -3.33424 0
M  V30 4296 O 416.314 2.15604 -5.02173 0
M  V30 4297 H 413.408 0.358631 -0.745193 0
M  V30 4298 H 415.954 -0.00926156 -1.69697 0
M  V30 4299 H 414.726 0.310921 -3.90063 0
M  V30 4300 H 414.349 1.96711 -3.45529 0
M  V30 4301 N 415.346 1.54954 0.287554 0
M  V30 4302 C 416.293 1.86834 1.35505 0
M  V30 4303 C 417.263 0.718452 1.49758 0
M  V30 4304 O 418.448 0.968358 1.644 0
M  V30 4305 C 415.588 2.13303 2.71286 0
M  V30 4306 C 414.701 3.40883 2.65373 0
M  V30 4307 C 413.836 3.57125 3.93236 0
M  V30 4308 C 412.875 4.78449 3.81776 0
M  V30 4309 N 412.012 4.91426 5.01443 0
M  V30 4310 H 416.852 2.77889 1.07619 0
M  V30 4311 H 414.389 1.37593 0.520241 0
M  V30 4312 H 416.347 2.26646 3.50267 0
M  V30 4313 H 414.977 1.25499 2.97405 0
M  V30 4314 H 414.029 3.36088 1.78182 0
M  V30 4315 H 415.341 4.29993 2.52799 0
M  V30 4316 H 414.495 3.70207 4.80658 0
M  V30 4317 H 413.234 2.66173 4.0866 0
M  V30 4318 H 412.239 4.65386 2.92738 0
M  V30 4319 H 413.464 5.70822 3.67884 0
M  V30 4320 H 411.41 4.03401 5.17304 0
M  V30 4321 H 411.327 5.74559 4.91343 0
M  V30 4322 H 412.595 5.08879 5.90477 0
M  V30 4323 N 416.824 -0.551391 1.4764 0
M  V30 4324 C 418.07 -1.31024 1.54792 0
M  V30 4325 C 418.403 -1.9304 0.211967 0
M  V30 4326 O 417.678 -1.78175 -0.77999 0
M  V30 4327 C 417.961 -2.41593 2.67029 0
M  V30 4328 C 417.814 -1.84408 4.10261 0
M  V30 4329 C 419.133 -3.43488 2.75143 0
M  V30 4330 H 416.252 -0.475031 0.563485 0
M  V30 4331 H 418.894 -0.616454 1.79722 0
M  V30 4332 H 417.044 -3.00772 2.45904 0
M  V30 4333 H 418.716 -1.29445 4.42766 0
M  V30 4334 H 416.959 -1.15051 4.18265 0
M  V30 4335 H 417.63 -2.64367 4.84576 0
M  V30 4336 H 420.106 -2.94236 2.94218 0
M  V30 4337 H 418.982 -4.18274 3.55441 0
M  V30 4338 H 419.243 -4.02703 1.82435 0
M  V30 4339 N 418.302 -1.35869 -0.798587 0
M  V30 4340 C 419.232 -1.32118 -1.92528 0
M  V30 4341 C 420.213 -0.194209 -1.68988 0
M  V30 4342 O 421.398 -0.390426 -1.90235 0
M  V30 4343 C 418.528 -1.10047 -3.29404 0
M  V30 4344 C 417.482 -2.19471 -3.67446 0
M  V30 4345 C 416.808 -1.82555 -5.02571 0
M  V30 4346 C 418.108 -3.61495 -3.76987 0
M  V30 4347 H 419.802 -2.26394 -1.95924 0
M  V30 4348 H 417.348 -1.08981 -0.94123 0
M  V30 4349 H 419.301 -1.06061 -4.07835 0
M  V30 4350 H 418.025 -0.122195 -3.26371 0
M  V30 4351 H 416.684 -2.22568 -2.91306 0
M  V30 4352 H 416.332 -0.833249 -4.9605 0
M  V30 4353 H 416.032 -2.5581 -5.28995 0
M  V30 4354 H 417.556 -1.80108 -5.83432 0
M  V30 4355 H 418.97 -3.60676 -4.4563 0
M  V30 4356 H 417.367 -4.33577 -4.14887 0
M  V30 4357 H 418.437 -3.97065 -2.78329 0
M  V30 4358 N 419.78 1.02168 -1.19998 0
M  V30 4359 C 421.028 1.75338 -1.00504 0
M  V30 4360 C 421.349 1.89387 0.464506 0
M  V30 4361 O 420.619 1.43268 1.33608 0
M  V30 4362 H 419.199 0.649564 -0.368885 0
M  V30 4363 H 421.861 1.23205 -1.51018 0
M  V30 4364 H 420.957 2.75892 -1.45912 0
M  V30 4365 N 421.258 1.00505 1.21394 0
M  V30 4366 C 422.168 0.574806 2.27449 0
M  V30 4367 C 423.184 -0.382206 1.6975 0
M  V30 4368 O 424.36 -0.246027 1.99892 0
M  V30 4369 C 421.425 -0.0917414 3.46579 0
M  V30 4370 C 420.486 0.909758 4.1955 0
M  V30 4371 C 419.719 0.274924 5.32991 0
M  V30 4372 O 419.942 -0.928254 5.62796 0
M  V30 4373 O 418.876 0.985877 5.93771 0
M  V30 4374 H 422.702 1.45744 2.66444 0
M  V30 4375 H 420.287 0.773923 1.27792 0
M  V30 4376 H 422.169 -0.464551 4.18832 0
M  V30 4377 H 420.844 -0.948755 3.09484 0
M  V30 4378 H 419.751 1.33372 3.49518 0
M  V30 4379 H 421.084 1.73636 4.60555 0
M  V30 4380 N 422.737 -1.36956 0.779787 0
M  V30 4381 C 423.647 -2.33965 0.172491 0
M  V30 4382 C 424.663 -1.60574 -0.670222 0
M  V30 4383 O 425.839 -1.92617 -0.588263 0
M  V30 4384 C 422.904 -3.39761 -0.690173 0
M  V30 4385 C 421.965 -4.28964 0.169924 0
M  V30 4386 C 421.198 -5.29707 -0.651662 0
M  V30 4387 O 421.421 -5.38238 -1.88827 0
M  V30 4388 O 420.355 -6.01873 -0.0566264 0
M  V30 4389 H 424.181 -2.87647 0.974321 0
M  V30 4390 H 421.766 -1.39258 0.541078 0
M  V30 4391 H 423.648 -4.04471 -1.1824 0
M  V30 4392 H 422.323 -2.88394 -1.47006 0
M  V30 4393 H 421.23 -3.67326 0.708696 0
M  V30 4394 H 422.563 -4.83656 0.913085 0
M  V30 4395 N 424.215 -0.530993 -1.48385 0
M  V30 4396 C 425.461 0.00274135 -2.028 0
M  V30 4397 C 425.794 1.33838 -1.40716 0
M  V30 4398 O 425.069 1.86465 -0.553277 0
M  V30 4399 C 425.352 0.123676 -3.59888 0
M  V30 4400 C 425.205 -1.2372 -4.3245 0
M  V30 4401 C 426.524 0.849967 -4.31814 0
M  V30 4402 H 423.643 -0.000477758 -0.737 0
M  V30 4403 H 426.285 -0.688217 -1.77098 0
M  V30 4404 H 424.435 0.712157 -3.81917 0
M  V30 4405 H 426.107 -1.86687 -4.21836 0
M  V30 4406 H 424.35 -1.81882 -3.93829 0
M  V30 4407 H 425.021 -1.10557 -5.40815 0
M  V30 4408 H 427.497 0.350572 -4.14621 0
M  V30 4409 H 426.373 0.903486 -5.41413 0
M  V30 4410 H 426.634 1.90047 -3.99167 0
M  V30 4411 N 425.693 1.55336 -0.266172 0
M  V30 4412 C 426.918 2.04258 0.359661 0
M  V30 4413 C 427.343 1.14359 1.49344 0
M  V30 4414 O 426.701 0.140369 1.80756 0
M  V30 4415 C 426.749 3.50997 0.826635 0
M  V30 4416 O 425.853 3.64204 1.93466 0
M  V30 4417 H 425.194 0.659668 0.075727 0
M  V30 4418 H 427.724 2.00694 -0.39786 0
M  V30 4419 H 427.734 3.9219 1.12477 0
M  V30 4420 H 426.409 4.159 -0.00293032 0
M  V30 4421 H 424.986 3.34913 1.63974 0
M  V30 4422 N 427.171 -0.0066808 1.57599 0
M  V30 4423 C 428.418 -0.69292 1.90276 0
M  V30 4424 C 428.746 -1.74148 0.866192 0
M  V30 4425 O 428.001 -1.95268 -0.129933 0
M  V30 4426 C 428.3 -1.37939 3.29708 0
M  V30 4427 C 427.966 -0.464679 4.48499 0
M  V30 4428 C 426.628 -0.212809 4.80729 0
M  V30 4429 C 428.98 0.16551 5.20937 0
M  V30 4430 C 426.308 0.677653 5.82773 0
M  V30 4431 C 428.66 1.04381 6.23929 0
M  V30 4432 C 427.324 1.30492 6.54621 0
M  V30 4433 H 426.594 -0.253558 0.696268 0
M  V30 4434 H 429.241 0.0474123 1.91441 0
M  V30 4435 H 427.546 -2.1936 3.24636 0
M  V30 4436 H 429.243 -1.9163 3.52249 0
M  V30 4437 H 425.833 -0.671153 4.23313 0
M  V30 4438 H 430.017 -0.0160756 4.96297 0
M  V30 4439 H 425.273 0.88803 6.04917 0
M  V30 4440 H 429.447 1.53851 6.79193 0
M  V30 4441 H 427.074 1.99662 7.33512 0
M  V30 4442 N 428.649 -1.55105 -0.279332 0
M  V30 4443 C 430.06 -1.66186 -0.850832 0
M  V30 4444 C 430.411 -0.584707 -1.87285 0
M  V30 4445 O 429.536 0.274919 -2.14647 0
M  V30 4446 C 430.131 -3.01264 -1.55001 0
M  V30 4447 C 428.69 -3.14394 -2.06963 0
M  V30 4448 C 427.837 -2.61959 -0.909536 0
M  V30 4449 H 430.788 -1.58602 -0.0558235 0
M  V30 4450 H 430.809 -2.93899 -2.41669 0
M  V30 4451 H 430.321 -3.7964 -0.805931 0
M  V30 4452 H 428.422 -2.4078 -2.84352 0
M  V30 4453 H 428.535 -4.20867 -2.28928 0
M  V30 4454 H 426.899 -2.18957 -1.30116 0
M  V30 4455 H 427.682 -3.42833 -0.179062 0
M  V30 4456 N 430.127 0.543554 -1.4793 0
M  V30 4457 C 431.057 1.65888 -1.64327 0
M  V30 4458 C 432.038 1.62818 -0.492383 0
M  V30 4459 O 433.223 1.80226 -0.723338 0
M  V30 4460 C 430.353 3.04506 -1.67013 0
M  V30 4461 C 429.307 3.2243 -2.81466 0
M  V30 4462 C 428.633 4.61972 -2.69233 0
M  V30 4463 C 429.933 3.06496 -4.22915 0
M  V30 4464 H 431.627 1.52421 -2.57698 0
M  V30 4465 H 429.173 0.731849 -1.24016 0
M  V30 4466 H 431.126 3.82391 -1.77074 0
M  V30 4467 H 429.85 3.18964 -0.70212 0
M  V30 4468 H 428.509 2.46957 -2.70938 0
M  V30 4469 H 428.157 4.73247 -1.7043 0
M  V30 4470 H 427.857 4.74911 -3.46025 0
M  V30 4471 H 429.381 5.41974 -2.81242 0
M  V30 4472 H 430.795 3.74186 -4.34348 0
M  V30 4473 H 429.192 3.30938 -5.006 0
M  V30 4474 H 430.262 2.03077 -4.40327 0
M  V30 4475 N 431.605 1.3629 0.791371 0
M  V30 4476 C 432.833 1.33562 1.58016 0
M  V30 4477 C 433.248 -0.0835616 1.88615 0
M  V30 4478 O 432.605 -1.0399 1.49974 0
M  V30 4479 C 432.656 2.15517 2.90232 0
M  V30 4480 O 432.377 3.51902 2.60953 0
M  V30 4481 C 433.878 2.20546 3.84544 0
M  V30 4482 H 431.098 0.458226 0.490173 0
M  V30 4483 H 433.642 1.79361 0.982345 0
M  V30 4484 H 431.797 1.73278 3.46487 0
M  V30 4485 H 432.211 3.94644 3.4548 0
M  V30 4486 H 433.685 2.82252 4.74382 0
M  V30 4487 H 434.162 1.20838 4.2225 0
M  V30 4488 H 434.768 2.63013 3.34222 0
M  V30 4489 N 433.083 -1.0153 1.20538 0
M  V30 4490 C 434.331 -1.74803 1.01432 0
M  V30 4491 C 434.652 -1.8963 -0.454456 0
M  V30 4492 O 433.922 -1.43975 -1.32846 0
M  V30 4493 H 432.502 -0.647598 0.372324 0
M  V30 4494 H 435.164 -1.22402 1.5167 0
M  V30 4495 H 434.26 -2.75114 1.47373 0
M  V30 4496 N 434.561 -1.01147 -1.20859 0
M  V30 4497 C 435.801 -0.706331 -1.91808 0
M  V30 4498 C 436.165 0.749736 -1.76757 0
M  V30 4499 O 437.366 1.16716 -2.42138 0
M  V30 4500 C 435.637 -1.12371 -3.39275 0
M  V30 4501 S 437.196 -0.939764 -4.28619 0
M  V30 4502 H 434.014 -0.257665 -0.662669 0
M  V30 4503 H 436.616 -1.29766 -1.46223 0
M  V30 4504 H 435.32 -2.17943 -3.47749 0
M  V30 4505 H 434.851 -0.524952 -3.89882 0
M  V30 4506 H 436.866 0.159556 -4.95943 0
M  V30 4507 N 436.039 1.36541 -0.78704 0
M  V30 4508 C 436.969 2.32659 -0.197992 0
M  V30 4509 C 437.95 1.56533 0.665697 0
M  V30 4510 O 439.135 1.84698 0.60001 0
M  V30 4511 C 436.265 3.40778 0.669901 0
M  V30 4512 C 435.219 4.27897 -0.0937039 0
M  V30 4513 C 434.545 5.27163 0.894629 0
M  V30 4514 C 435.845 5.06334 -1.28154 0
M  V30 4515 H 437.539 2.82171 -1.00099 0
M  V30 4516 H 435.085 1.35665 -0.482793 0
M  V30 4517 H 437.038 4.07008 1.09191 0
M  V30 4518 H 435.762 2.89827 1.50558 0
M  V30 4519 H 434.421 3.6322 -0.49666 0
M  V30 4520 H 434.069 4.72486 1.72527 0
M  V30 4521 H 433.769 5.86317 0.388149 0
M  V30 4522 H 435.293 5.96266 1.31525 0
M  V30 4523 H 436.707 5.65617 -0.93541 0
M  V30 4524 H 435.104 5.74888 -1.72115 0
M  V30 4525 H 436.174 4.38114 -2.07807 0
M  V30 4526 N 437.518 0.538854 1.48102 0
M  V30 4527 C 438.766 0.00798599 2.02098 0
M  V30 4528 C 439.087 -1.33922 1.41739 0
M  V30 4529 O 438.357 -1.86932 0.585934 0
M  V30 4530 H 436.937 -3.62179e-05 0.747 0
M  V30 4531 H 439.599 0.7047 1.81714 0
M  V30 4532 H 438.695 -0.0937672 3.11959 0
M  V30 4533 N 438.996 -1.55193 0.274407 0
M  V30 4534 C 439.928 -2.1989 -0.646595 0
M  V30 4535 C 440.941 -1.1834 -1.11801 0
M  V30 4536 O 442.13 -1.4507 -1.04004 0
M  V30 4537 C 439.23 -2.8104 -1.89393 0
M  V30 4538 C 438.403 -4.08274 -1.56943 0
M  V30 4539 C 437.462 -4.53478 -2.66916 0
M  V30 4540 O 436.488 -5.19267 -2.33132 0
M  V30 4541 N 437.69 -4.2356 -3.9696 0
M  V30 4542 H 440.455 -2.99556 -0.0928686 0
M  V30 4543 H 438.016 -1.61618 0.0954783 0
M  V30 4544 H 440.008 -3.08226 -2.62257 0
M  V30 4545 H 438.578 -2.05372 -2.35672 0
M  V30 4546 H 437.798 -3.88384 -0.674655 0
M  V30 4547 H 439.086 -4.91173 -1.32764 0
M  V30 4548 H 438.484 -3.70799 -4.27229 0
M  V30 4549 H 437.041 -4.55518 -4.66205 0
M  V30 4550 N 440.474 -0.00167713 -1.576 0
M  V30 4551 C 441.72 0.683832 -1.90923 0
M  V30 4552 C 442.053 1.7333 -0.875799 0
M  V30 4553 O 441.328 1.94215 0.10525 0
M  V30 4554 C 441.611 1.32543 -3.3482 0
M  V30 4555 C 441.464 0.287387 -4.48881 0
M  V30 4556 C 442.783 2.25114 -3.78169 0
M  V30 4557 H 439.902 0.247125 -0.694333 0
M  V30 4558 H 442.544 -0.0533149 -1.89925 0
M  V30 4559 H 440.694 1.95372 -3.35801 0
M  V30 4560 H 442.366 -0.341346 -4.60035 0
M  V30 4561 H 440.609 -0.39017 -4.32042 0
M  V30 4562 H 441.28 0.775393 -5.46527 0
M  V30 4563 H 443.756 1.723 -3.7875 0
M  V30 4564 H 442.632 2.66971 -4.79602 0
M  V30 4565 H 442.893 3.13092 -3.12131 0
M  V30 4566 N 441.952 1.55251 0.271103 0
M  V30 4567 C 443.198 1.76207 1.00394 0
M  V30 4568 C 443.531 0.562604 1.85872 0
M  V30 4569 O 442.806 -0.439785 1.89463 0
M  V30 4570 C 443.089 3.06828 1.8849 0
M  V30 4571 C 442.942 4.37134 1.05992 0
M  V30 4572 C 444.261 3.33503 2.87165 0
M  V30 4573 H 441.38 0.641086 0.363562 0
M  V30 4574 H 444.022 1.87982 0.276189 0
M  V30 4575 H 442.172 2.96921 2.5054 0
M  V30 4576 H 443.844 4.59001 0.459978 0
M  V30 4577 H 442.087 4.32275 0.363443 0
M  V30 4578 H 442.758 5.2486 1.70955 0
M  V30 4579 H 445.234 3.43215 2.3525 0
M  V30 4580 H 444.11 4.2616 3.45946 0
M  V30 4581 H 444.371 2.53235 3.62387 0
M  V30 4582 N 443.43 -0.535701 1.48216 0
M  V30 4583 C 444.34 -1.66785 1.64985 0
M  V30 4584 C 445.356 -1.65654 0.532414 0
M  V30 4585 O 446.532 -1.8471 0.80275 0
M  V30 4586 C 443.597 -3.0326 1.68031 0
M  V30 4587 C 442.658 -3.1529 2.9136 0
M  V30 4588 C 441.891 -4.45255 2.94252 0
M  V30 4589 O 442.114 -5.32011 2.05719 0
M  V30 4590 O 441.048 -4.6153 3.86359 0
M  V30 4591 H 444.874 -1.55576 2.60825 0
M  V30 4592 H 442.459 -0.70815 1.31551 0
M  V30 4593 H 444.341 -3.84436 1.72589 0
M  V30 4594 H 443.016 -3.14805 0.753628 0
M  V30 4595 H 441.923 -2.3343 2.92337 0
M  V30 4596 H 443.256 -3.08658 3.83394 0
M  V30 4597 N 444.908 -1.36708 -0.784132 0
M  V30 4598 C 446.185 -1.21776 -1.53069 0
M  V30 4599 C 446.565 0.193876 -2.10208 0
M  V30 4600 O 445.913 1.20012 -1.94446 0
M  V30 4601 C 446.123 -2.30395 -2.62143 0
M  V30 4602 C 447.471 -2.67325 -3.29882 0
M  V30 4603 O 448.495 -2.29478 -2.7243 0
M  V30 4604 O 447.354 -3.32485 -4.33724 0
M  V30 4605 H 444.448 -0.474459 -0.677361 0
M  V30 4606 H 446.994 -1.48454 -0.82216 0
M  V30 4607 H 445.766 -3.2498 -2.17953 0
M  V30 4608 H 445.389 -2.05112 -3.40609 0
M  V30 4609 N 446.386 1.0089 -1.21074 0
M  V30 4610 C 447.333 2.09588 -0.966512 0
M  V30 4611 C 448.303 1.65761 0.106089 0
M  V30 4612 O 449.488 1.90758 -0.0402287 0
M  V30 4613 C 446.628 3.40958 -0.533058 0
M  V30 4614 C 445.741 3.9822 -1.67467 0
M  V30 4615 C 444.876 5.17682 -1.19076 0
M  V30 4616 C 443.915 5.67043 -2.30496 0
M  V30 4617 N 443.052 6.77759 -1.83267 0
M  V30 4618 H 447.892 2.29815 -1.89708 0
M  V30 4619 H 445.429 1.12689 -0.945489 0
M  V30 4620 H 447.387 4.1637 -0.263019 0
M  V30 4621 H 446.017 3.20781 0.360505 0
M  V30 4622 H 445.069 3.1983 -2.05944 0
M  V30 4623 H 446.381 4.3085 -2.51336 0
M  V30 4624 H 445.535 6.00326 -0.877151 0
M  V30 4625 H 444.274 4.86635 -0.322066 0
M  V30 4626 H 443.279 4.82999 -2.62664 0
M  V30 4627 H 444.504 6.00121 -3.17855 0
M  V30 4628 H 442.45 6.48527 -0.987356 0
M  V30 4629 H 442.367 7.09624 -2.60711 0
M  V30 4630 H 443.635 7.63949 -1.54928 0
M  V30 4631 N 447.864 1.01787 1.20321 0
M  V30 4632 C 448.811 0.589197 2.23153 0
M  V30 4633 C 449.781 -0.391367 1.61423 0
M  V30 4634 O 450.966 -0.290518 1.88575 0
M  V30 4635 C 448.106 -0.0650747 3.45039 0
M  V30 4636 C 447.219 0.960207 4.21194 0
M  V30 4637 C 446.354 0.276854 5.30478 0
M  V30 4638 C 445.393 1.2888 5.98378 0
M  V30 4639 N 444.53 0.632031 6.99249 0
M  V30 4640 H 449.37 1.47071 2.59179 0
M  V30 4641 H 446.907 0.736192 1.27352 0
M  V30 4642 H 448.865 -0.461552 4.14639 0
M  V30 4643 H 447.495 -0.910233 3.09701 0
M  V30 4644 H 446.547 1.47484 3.50646 0
M  V30 4645 H 447.859 1.72977 4.67847 0
M  V30 4646 H 447.013 -0.175056 6.06447 0
M  V30 4647 H 445.752 -0.525004 4.84866 0
M  V30 4648 H 444.757 1.75109 5.21169 0
M  V30 4649 H 445.982 2.09196 6.46076 0
M  V30 4650 H 443.928 -0.149935 6.55829 0
M  V30 4651 H 443.845 1.33964 7.44036 0
M  V30 4652 H 445.113 0.203755 7.79234 0
M  V30 4653 N 449.342 -1.36122 0.79427 0
M  V30 4654 C 450.567 -2.03891 0.379871 0
M  V30 4655 C 450.992 -1.59488 -0.997251 0
M  V30 4656 O 450.35 -0.765652 -1.64339 0
M  V30 4657 C 450.398 -3.57687 0.457442 0
M  V30 4658 O 449.502 -4.08931 -0.5338 0
M  V30 4659 H 448.843 -0.6443 0.160541 0
M  V30 4660 H 451.373 -1.73976 1.07673 0
M  V30 4661 H 451.383 -4.06721 0.322792 0
M  V30 4662 H 450.058 -3.89357 1.46199 0
M  V30 4663 H 448.635 -3.71154 -0.360409 0
M  V30 4664 N 450.82 -0.546701 -1.47814 0
M  V30 4665 C 452.069 -0.0166497 -2.01693 0
M  V30 4666 C 452.382 1.33721 -1.42752 0
M  V30 4667 O 453.588 1.95658 -1.8823 0
M  V30 4668 C 452.044 0.0206769 -3.59894 0
M  V30 4669 C 451.652 -1.3293 -4.27824 0
M  V30 4670 C 453.396 0.498674 -4.21561 0
M  V30 4671 C 451.303 -1.25165 -5.78003 0
M  V30 4672 H 450.233 -0.0024541 -0.753996 0
M  V30 4673 H 452.884 -0.692984 -1.69912 0
M  V30 4674 H 451.266 0.76244 -3.88591 0
M  V30 4675 H 452.44 -2.08795 -4.10781 0
M  V30 4676 H 450.755 -1.74438 -3.78101 0
M  V30 4677 H 453.352 0.575 -5.31599 0
M  V30 4678 H 453.695 1.5083 -3.88016 0
M  V30 4679 H 454.228 -0.18791 -3.97356 0
M  V30 4680 H 450.967 -2.23695 -6.1615 0
M  V30 4681 H 450.487 -0.53464 -5.97412 0
M  V30 4682 H 452.166 -0.949299 -6.39998 0
M  V30 4683 N 452.299 1.55045 -0.282633 0
M  V30 4684 C 453.231 2.2023 0.634924 0
M  V30 4685 C 454.244 1.18931 1.11172 0
M  V30 4686 O 455.433 1.4562 1.03233 0
M  V30 4687 C 452.533 2.82041 1.87899 0
M  V30 4688 C 451.706 4.091 1.54776 0
M  V30 4689 C 450.765 4.54887 2.64507 0
M  V30 4690 O 449.791 5.20496 2.30375 0
M  V30 4691 N 450.993 4.25659 3.94709 0
M  V30 4692 H 453.758 2.99601 0.0769811 0
M  V30 4693 H 451.319 1.61565 -0.104048 0
M  V30 4694 H 453.311 3.09613 2.60619 0
M  V30 4695 H 451.881 2.06618 2.3458 0
M  V30 4696 H 451.101 3.88736 0.654049 0
M  V30 4697 H 452.389 4.9187 1.30158 0
M  V30 4698 H 451.787 3.7306 4.25256 0
M  V30 4699 H 450.344 4.57984 4.63782 0
M  V30 4700 N 453.777 0.010035 1.57597 0
M  V30 4701 C 454.707 -0.976857 2.12084 0
M  V30 4702 C 455.688 -1.35191 1.03235 0
M  V30 4703 O 456.873 -1.43389 1.3097 0
M  V30 4704 C 454.003 -2.26548 2.63236 0
M  V30 4705 C 452.957 -2.03175 3.76701 0
M  V30 4706 C 452.283 -3.38138 4.14206 0
M  V30 4707 C 453.583 -1.38625 5.03568 0
M  V30 4708 H 455.277 -0.523145 2.94794 0
M  V30 4709 H 452.823 -0.250195 1.4181 0
M  V30 4710 H 454.776 -2.95952 2.99984 0
M  V30 4711 H 453.5 -2.74051 1.77661 0
M  V30 4712 H 452.159 -1.36195 3.40362 0
M  V30 4713 H 451.807 -3.83363 3.25641 0
M  V30 4714 H 451.507 -3.23312 4.90656 0
M  V30 4715 H 453.031 -4.08841 4.53521 0
M  V30 4716 H 454.445 -1.98 5.38023 0
M  V30 4717 H 452.842 -1.34256 5.84889 0
M  V30 4718 H 453.912 -0.356722 4.83586 0
M  V30 4719 N 455.255 -1.55392 -0.262866 0
M  V30 4720 C 456.202 -1.88966 -1.32516 0
M  V30 4721 C 457.172 -0.742187 -1.48596 0
M  V30 4722 O 458.357 -0.99439 -1.62839 0
M  V30 4723 C 455.497 -2.17592 -2.67858 0
M  V30 4724 C 454.61 -3.45061 -2.59917 0
M  V30 4725 C 453.745 -3.63336 -3.87505 0
M  V30 4726 C 452.784 -4.84462 -3.74116 0
M  V30 4727 N 451.921 -4.99342 -4.93561 0
M  V30 4728 H 456.761 -2.79566 -1.03184 0
M  V30 4729 H 454.298 -1.38404 -0.498285 0
M  V30 4730 H 456.256 -2.3219 -3.46617 0
M  V30 4731 H 454.886 -1.30215 -2.95371 0
M  V30 4732 H 453.938 -3.38881 -1.72812 0
M  V30 4733 H 455.25 -4.3396 -2.45926 0
M  V30 4734 H 454.404 -3.77807 -4.74707 0
M  V30 4735 H 453.143 -2.72641 -4.04374 0
M  V30 4736 H 452.148 -4.69985 -2.85297 0
M  V30 4737 H 453.373 -5.76603 -3.58757 0
M  V30 4738 H 451.319 -4.1158 -5.10821 0
M  V30 4739 H 451.236 -5.82303 -4.82141 0
M  V30 4740 H 452.504 -5.18208 -5.82306 0
M  V30 4741 N 456.733 0.527833 -1.48498 0
M  V30 4742 C 458.01 1.28905 -1.47115 0
M  V30 4743 C 458.39 2.10297 -0.184007 0
M  V30 4744 O 457.738 2.12728 0.834218 0
M  V30 4745 C 457.948 2.16866 -2.73441 0
M  V30 4746 C 459.296 2.76936 -3.21857 0
M  V30 4747 O 460.32 2.27152 -2.74373 0
M  V30 4748 O 459.179 3.67496 -4.04486 0
M  V30 4749 H 456.273 0.581918 -0.587623 0
M  V30 4750 H 458.819 0.544311 -1.60734 0
M  V30 4751 H 457.591 1.56521 -3.58632 0
M  V30 4752 H 457.214 2.98583 -2.62553 0
M  V30 4753 N 458.211 1.37122 0.776871 0
M  V30 4754 C 459.141 1.35164 1.90402 0
M  V30 4755 C 460.122 0.221069 1.68657 0
M  V30 4756 O 461.307 0.420642 1.8959 0
M  V30 4757 C 458.437 1.15274 3.27611 0
M  V30 4758 C 457.391 2.25289 3.63908 0
M  V30 4759 C 456.717 1.90527 4.99603 0
M  V30 4760 C 458.017 3.67446 3.71188 0
M  V30 4761 H 459.711 2.29482 1.92297 0
M  V30 4762 H 457.257 1.10465 0.923773 0
M  V30 4763 H 459.21 1.12536 4.06096 0
M  V30 4764 H 457.934 0.174102 3.26136 0
M  V30 4765 H 456.593 2.27174 2.87728 0
M  V30 4766 H 456.241 0.91206 4.94662 0
M  V30 4767 H 455.941 2.64193 5.24858 0
M  V30 4768 H 457.465 1.89367 5.80493 0
M  V30 4769 H 458.879 3.67719 4.39836 0
M  V30 4770 H 457.276 4.40123 4.07936 0
M  V30 4771 H 458.346 4.01443 2.71977 0
M  V30 4772 N 459.689 -1.00246 1.21608 0
M  V30 4773 C 460.917 -1.77631 1.06089 0
M  V30 4774 C 461.332 -1.84746 -0.38916 0
M  V30 4775 O 460.689 -1.31068 -1.26994 0
M  V30 4776 C 460.74 -3.21415 1.65453 0
M  V30 4777 O 460.461 -3.14703 3.04785 0
M  V30 4778 C 461.962 -4.15289 1.55079 0
M  V30 4779 H 459.182 -0.558162 0.37242 0
M  V30 4780 H 461.726 -1.26093 1.60999 0
M  V30 4781 H 459.881 -3.70053 1.14629 0
M  V30 4782 H 460.295 -4.05056 3.33212 0
M  V30 4783 H 461.769 -5.13965 2.01355 0
M  V30 4784 H 462.246 -4.36279 0.505665 0
M  V30 4785 H 462.852 -3.72543 2.05163 0
M  V30 4786 N 461.167 -1.02423 -1.1978 0
M  V30 4787 C 462.392 -0.7373 -1.93852 0
M  V30 4788 C 462.817 0.696923 -1.74713 0
M  V30 4789 O 462.175 1.48056 -1.04638 0
M  V30 4790 C 462.223 -1.08783 -3.438 0
M  V30 4791 O 461.327 -0.20383 -4.11896 0
M  V30 4792 H 460.668 -0.27284 -0.605355 0
M  V30 4793 H 463.198 -1.36966 -1.51992 0
M  V30 4794 H 463.208 -1.04276 -3.9445 0
M  V30 4795 H 461.883 -2.13274 -3.57053 0
M  V30 4796 H 460.46 -0.307091 -3.71633 0
M  V30 4797 N 462.645 1.35699 -0.801477 0
M  V30 4798 C 463.555 2.33661 -0.209691 0
M  V30 4799 C 464.571 1.6162 0.644591 0
M  V30 4800 O 465.747 1.93529 0.557545 0
M  V30 4801 C 462.812 3.40816 0.636033 0
M  V30 4802 C 461.873 4.28639 -0.238147 0
M  V30 4803 C 461.106 5.30676 0.567307 0
M  V30 4804 O 461.329 5.41174 1.8024 0
M  V30 4805 O 460.263 6.01887 -0.0391336 0
M  V30 4806 H 464.089 2.8606 -1.01996 0
M  V30 4807 H 461.674 1.38379 -0.563164 0
M  V30 4808 H 463.556 4.06301 1.11791 0
M  V30 4809 H 462.231 2.90696 1.42399 0
M  V30 4810 H 461.138 3.66152 -0.767044 0
M  V30 4811 H 462.471 4.82143 -0.989915 0
M  V30 4812 N 464.123 0.554532 1.47522 0
M  V30 4813 C 465.4 -0.0360704 1.95567 0
M  V30 4814 C 465.78 -1.48828 1.49711 0
M  V30 4815 O 465.128 -2.16366 0.734717 0
M  V30 4816 C 465.338 0.106631 3.48837 0
M  V30 4817 C 466.686 -0.0400899 4.24581 0
M  V30 4818 O 467.71 0.0340453 3.56184 0
M  V30 4819 O 466.569 -0.199111 5.46137 0
M  V30 4820 H 463.663 -0.0656294 0.824392 0
M  V30 4821 H 466.209 0.620867 1.57935 0
M  V30 4822 H 464.981 1.11727 3.7501 0
M  V30 4823 H 464.604 -0.58804 3.93227 0
M  V30 4824 N 465.601 -1.54893 0.290851 0
M  V30 4825 C 466.847 -2.0023 -0.321867 0
M  V30 4826 C 467.18 -1.179 -1.54316 0
M  V30 4827 O 466.455 -0.25293 -1.92848 0
M  V30 4828 C 466.738 -3.53456 -0.688515 0
M  V30 4829 C 466.591 -4.46532 0.541209 0
M  V30 4830 C 467.91 -4.13057 -1.51895 0
M  V30 4831 H 465.029 -0.727891 -0.115515 0
M  V30 4832 H 467.671 -1.85722 0.400931 0
M  V30 4833 H 465.821 -3.6595 -1.30433 0
M  V30 4834 H 467.493 -4.4596 1.17973 0
M  V30 4835 H 465.736 -4.17545 1.17636 0
M  V30 4836 H 466.407 -5.51475 0.240675 0
M  V30 4837 H 468.883 -4.03937 -0.99872 0
M  V30 4838 H 467.759 -5.20448 -1.74429 0
M  V30 4839 H 468.02 -3.64284 -2.50498 0
M  V30 4840 N 467.08 -0.0183926 -1.57589 0
M  V30 4841 C 468.012 0.995557 -2.06449 0
M  V30 4842 C 469.025 1.29556 -0.985849 0
M  V30 4843 O 470.214 1.2621 -1.26227 0
M  V30 4844 C 467.314 2.32572 -2.46502 0
M  V30 4845 C 466.487 2.21245 -3.77319 0
M  V30 4846 C 465.546 3.37104 -4.04039 0
M  V30 4847 O 464.572 3.14468 -4.74445 0
M  V30 4848 N 465.774 4.60553 -3.53372 0
M  V30 4849 H 468.539 0.578746 -2.94059 0
M  V30 4850 H 466.1 0.168603 -1.6102 0
M  V30 4851 H 468.092 3.08887 -2.61478 0
M  V30 4852 H 466.662 2.65931 -1.64315 0
M  V30 4853 H 465.882 1.29723 -3.72244 0
M  V30 4854 H 467.17 2.10868 -4.63047 0
M  V30 4855 H 466.568 4.81839 -2.96391 0
M  V30 4856 H 465.125 5.34072 -3.73644 0
M  V30 4857 N 468.558 1.5553 0.254621 0
M  V30 4858 C 469.49 1.86104 1.33783 0
M  V30 4859 C 470.503 0.746752 1.44663 0
M  V30 4860 O 471.692 1.0248 1.46151 0
M  V30 4861 C 468.792 2.02532 2.71724 0
M  V30 4862 C 467.965 3.33335 2.83208 0
M  V30 4863 C 467.024 3.396 4.01943 0
M  V30 4864 O 466.05 4.12862 3.91834 0
M  V30 4865 N 467.252 2.68332 5.1476 0
M  V30 4866 H 470.017 2.79605 1.07893 0
M  V30 4867 H 467.578 1.55672 0.444732 0
M  V30 4868 H 469.57 2.04074 3.4948 0
M  V30 4869 H 468.14 1.15811 2.90356 0
M  V30 4870 H 467.36 3.44176 1.92189 0
M  V30 4871 H 468.648 4.19565 2.87824 0
M  V30 4872 H 468.046 2.08528 5.25864 0
M  V30 4873 H 466.603 2.75575 5.90679 0
M  V30 4874 N 470.036 -0.519951 1.48776 0
M  V30 4875 C 470.966 -1.63253 1.66945 0
M  V30 4876 C 471.947 -1.62014 0.518224 0
M  V30 4877 O 473.132 -1.79053 0.751919 0
M  V30 4878 C 470.262 -3.0181 1.71836 0
M  V30 4879 C 469.216 -3.17911 2.8656 0
M  V30 4880 C 468.542 -4.5763 2.76548 0
M  V30 4881 C 469.842 -2.99729 4.27738 0
M  V30 4882 H 471.536 -1.48302 2.6009 0
M  V30 4883 H 469.082 -0.712026 1.25165 0
M  V30 4884 H 471.035 -3.79525 1.83135 0
M  V30 4885 H 469.759 -3.17806 0.752775 0
M  V30 4886 H 468.418 -2.42616 2.74833 0
M  V30 4887 H 468.066 -4.70476 1.77937 0
M  V30 4888 H 467.766 -4.69346 3.53536 0
M  V30 4889 H 469.29 -5.37431 2.89828 0
M  V30 4890 H 470.704 -3.67228 4.40246 0
M  V30 4891 H 469.101 -3.22932 5.05801 0
M  V30 4892 H 470.171 -1.96047 4.43502 0
M  V30 4893 N 471.514 -1.37532 -0.769588 0
M  V30 4894 C 472.446 -1.29347 -1.89214 0
M  V30 4895 C 473.459 -0.208842 -1.61455 0
M  V30 4896 O 474.648 -0.465158 -1.72333 0
M  V30 4897 C 471.748 -0.977649 -3.24492 0
M  V30 4898 C 470.921 -2.16817 -3.7988 0
M  V30 4899 C 469.98 -1.82229 -4.93639 0
M  V30 4900 O 469.006 -2.54548 -5.09111 0
M  V30 4901 N 470.208 -0.767696 -5.75401 0
M  V30 4902 H 472.973 -2.26073 -1.96751 0
M  V30 4903 H 470.534 -1.31185 -0.948795 0
M  V30 4904 H 472.526 -0.727065 -3.98115 0
M  V30 4905 H 471.096 -0.0988777 -3.12444 0
M  V30 4906 H 470.316 -2.58038 -2.9801 0
M  V30 4907 H 471.604 -2.96308 -4.13617 0
M  V30 4908 H 471.002 -0.167626 -5.65452 0
M  V30 4909 H 469.559 -0.576973 -6.49241 0
M  V30 4910 N 472.992 0.995999 -1.22138 0
M  V30 4911 C 474.217 1.77601 -1.0711 0
M  V30 4912 C 474.642 1.84339 0.374264 0
M  V30 4913 O 474 1.29359 1.27028 0
M  V30 4914 C 474.048 3.18897 -1.68336 0
M  V30 4915 O 473.152 4.01663 -0.934928 0
M  V30 4916 H 472.493 0.547011 -0.376397 0
M  V30 4917 H 475.023 1.25137 -1.6187 0
M  V30 4918 H 475.033 3.69539 -1.72931 0
M  V30 4919 H 473.708 3.13308 -2.73516 0
M  V30 4920 H 472.285 3.60204 -0.964751 0
M  V30 4921 N 474.47 1.03057 1.19235 0
M  V30 4922 C 475.403 0.557384 2.21288 0
M  V30 4923 C 476.381 -0.402675 1.57535 0
M  V30 4924 O 477.565 -0.319376 1.85775 0
M  V30 4925 C 474.692 -0.187041 3.38183 0
M  V30 4926 C 473.738 0.72471 4.20298 0
M  V30 4927 S 474.571 2.20187 4.88137 0
M  V30 4928 C 475.727 1.46801 6.08441 0
M  V30 4929 H 475.96 1.42207 2.61083 0
M  V30 4930 H 473.493 0.840651 1.29508 0
M  V30 4931 H 475.451 -0.610405 4.05936 0
M  V30 4932 H 474.112 -1.02748 2.96819 0
M  V30 4933 H 473.305 0.149911 5.03777 0
M  V30 4934 H 472.907 1.08647 3.57871 0
M  V30 4935 H 475.199 0.755522 6.73274 0
M  V30 4936 H 476.142 2.27946 6.70407 0
M  V30 4937 H 476.55 0.964762 5.56195 0
M  V30 4938 N 475.948 -1.35272 0.808662 0
M  V30 4939 C 476.878 -2.32315 0.234981 0
M  V30 4940 C 477.859 -1.57572 -0.64071 0
M  V30 4941 O 479.044 -1.8563 -0.570551 0
M  V30 4942 C 476.174 -3.41801 -0.615601 0
M  V30 4943 C 475.128 -4.27694 0.161767 0
M  V30 4944 C 474.454 -5.28519 -0.810649 0
M  V30 4945 C 475.754 -5.04231 1.36193 0
M  V30 4946 H 477.448 -2.80543 1.04575 0
M  V30 4947 H 474.994 -1.3488 0.504315 0
M  V30 4948 H 476.947 -4.08693 -1.02702 0
M  V30 4949 H 475.671 -2.92186 -1.45928 0
M  V30 4950 H 474.33 -3.62384 0.554382 0
M  V30 4951 H 473.978 -4.75171 -1.64988 0
M  V30 4952 H 473.678 -5.8686 -0.294822 0
M  V30 4953 H 475.202 -5.98283 -1.22023 0
M  V30 4954 H 476.616 -5.64058 1.02528 0
M  V30 4955 H 475.013 -5.72077 1.81239 0
M  V30 4956 H 476.083 -4.34753 2.14751 0
M  V30 4957 N 477.426 -0.562348 -1.47226 0
M  V30 4958 C 478.674 -0.0401371 -2.0206 0
M  V30 4959 C 478.995 1.3165 -1.43852 0
M  V30 4960 O 478.265 1.85976 -0.615599 0
M  V30 4961 H 476.845 -0.0118479 -0.746906 0
M  V30 4962 H 479.507 -0.73352 -1.8057 0
M  V30 4963 H 478.603 0.0441254 -3.12069 0
M  V30 4964 N 478.904 1.54736 -0.299062 0
M  V30 4965 C 480.144 2.0201 0.31168 0
M  V30 4966 C 480.508 1.18281 1.5124 0
M  V30 4967 O 481.709 1.55243 2.19438 0
M  V30 4968 C 479.98 3.5123 0.661227 0
M  V30 4969 S 481.539 4.20467 1.2551 0
M  V30 4970 H 478.357 0.704523 0.0957517 0
M  V30 4971 H 480.959 1.90791 -0.426482 0
M  V30 4972 H 479.663 4.09804 -0.221171 0
M  V30 4973 H 479.194 3.66481 1.43023 0
M  V30 4974 H 481.209 4.26083 2.54298 0
M  V30 4975 N 480.382 0.0267497 1.57577 0
M  V30 4976 C 481.292 -0.971633 2.13533 0
M  V30 4977 C 482.308 -1.35868 1.08701 0
M  V30 4978 O 483.484 -1.44058 1.40746 0
M  V30 4979 C 480.549 -2.23622 2.64941 0
M  V30 4980 C 479.61 -1.90982 3.8448 0
M  V30 4981 C 478.843 -3.11411 4.33427 0
M  V30 4982 O 479.066 -4.23992 3.81558 0
M  V30 4983 O 478 -2.93848 5.25297 0
M  V30 4984 H 481.826 -0.525853 2.99113 0
M  V30 4985 H 479.411 -0.193712 1.48139 0
M  V30 4986 H 481.293 -2.97864 2.98086 0
M  V30 4987 H 479.968 -2.67386 1.82446 0
M  V30 4988 H 478.875 -1.14132 3.56265 0
M  V30 4989 H 480.208 -1.52036 4.6813 0
M  V30 4990 N 481.861 -1.55662 -0.24637 0
M  V30 4991 C 482.791 -1.93377 -1.30873 0
M  V30 4992 C 483.772 -0.798773 -1.50179 0
M  V30 4993 O 484.957 -1.0591 -1.62778 0
M  V30 4994 C 482.087 -2.22893 -2.66338 0
M  V30 4995 C 481.041 -3.38649 -2.61727 0
M  V30 4996 C 480.367 -3.53708 -4.00992 0
M  V30 4997 C 481.667 -4.74323 -2.18666 0
M  V30 4998 H 483.361 -2.82363 -0.995552 0
M  V30 4999 H 480.907 -1.35854 -0.477464 0
M  V30 5000 H 482.86 -2.47866 -3.40794 0
M  V30 5001 H 481.584 -1.30733 -2.99293 0
M  V30 5002 H 480.243 -3.13685 -1.89729 0
M  V30 5003 H 479.891 -2.58967 -4.31214 0
M  V30 5004 H 479.591 -4.31551 -3.98795 0
M  V30 5005 H 481.115 -3.81003 -4.77147 0
M  V30 5006 H 482.529 -4.98665 -2.82854 0
M  V30 5007 H 480.926 -5.55273 -2.27579 0
M  V30 5008 H 481.996 -4.71349 -1.13834 0
M  V30 5009 N 483.339 0.512053 -1.4905 0
M  V30 5010 C 484.271 1.63121 -1.6101 0
M  V30 5011 C 485.284 1.55145 -0.493352 0
M  V30 5012 O 486.473 1.61278 -0.764955 0
M  V30 5013 C 483.573 3.01863 -1.54052 0
M  V30 5014 C 482.746 3.35138 -2.81072 0
M  V30 5015 C 481.805 4.5324 -2.67319 0
M  V30 5016 O 480.831 4.55571 -3.41238 0
M  V30 5017 N 482.033 5.52495 -1.78127 0
M  V30 5018 H 484.798 1.53292 -2.5753 0
M  V30 5019 H 482.359 0.699706 -1.45999 0
M  V30 5020 H 484.351 3.78774 -1.42521 0
M  V30 5021 H 482.921 3.05675 -0.654345 0
M  V30 5022 H 482.141 2.4723 -3.07036 0
M  V30 5023 H 483.429 3.54162 -3.65304 0
M  V30 5024 H 482.827 5.53403 -1.17308 0
M  V30 5025 H 481.384 6.28553 -1.72525 0
M  V30 5026 N 484.817 1.37938 0.762283 0
M  V30 5027 C 485.78 1.34279 1.85747 0
M  V30 5028 C 486.78 0.244969 1.58923 0
M  V30 5029 O 487.97 0.501365 1.66829 0
M  V30 5030 C 485.102 1.08833 3.23061 0
M  V30 5031 H 486.295 2.31705 1.90401 0
M  V30 5032 H 483.848 1.23105 0.963057 0
M  V30 5033 H 484.583 0.119767 3.24079 0
M  V30 5034 H 484.368 1.88306 3.43923 0
M  V30 5035 H 485.858 1.08946 4.03138 0
M  V30 5036 N 486.295 -0.989507 1.22664 0
M  V30 5037 C 487.228 -2.07805 0.942985 0
M  V30 5038 C 488.206 -1.6219 -0.115356 0
M  V30 5039 O 489.39 -1.88492 0.0169565 0
M  V30 5040 C 486.517 -3.361 0.418898 0
M  V30 5041 C 485.563 -4.00643 1.46244 0
M  V30 5042 S 486.396 -4.41059 3.03689 0
M  V30 5043 C 487.552 -5.7252 2.52927 0
M  V30 5044 H 487.785 -2.31547 1.86476 0
M  V30 5045 H 485.318 -1.12446 1.05808 0
M  V30 5046 H 487.276 -4.10315 0.123114 0
M  V30 5047 H 485.937 -3.10383 -0.481818 0
M  V30 5048 H 485.13 -4.93033 1.04569 0
M  V30 5049 H 484.732 -3.32767 1.7071 0
M  V30 5050 H 487.024 -6.49017 1.94379 0
M  V30 5051 H 487.967 -6.19026 3.4382 0
M  V30 5052 H 488.375 -5.30083 1.94094 0
M  V30 5053 N 487.773 -1.03688 -1.18687 0
M  V30 5054 C 488.703 -0.645407 -2.24403 0
M  V30 5055 C 489.684 0.349511 -1.66471 0
M  V30 5056 O 490.869 0.230453 -1.92828 0
M  V30 5057 C 487.999 -0.00365337 -3.473 0
M  V30 5058 C 486.953 -0.921705 -4.17958 0
M  V30 5059 C 486.279 -0.144629 -5.34504 0
M  V30 5060 C 487.579 -2.23909 -4.71871 0
M  V30 5061 H 489.273 -1.52917 -2.57404 0
M  V30 5062 H 486.819 -0.736711 -1.23728 0
M  V30 5063 H 488.772 0.281908 -4.20456 0
M  V30 5064 H 487.496 0.914963 -3.13522 0
M  V30 5065 H 486.155 -1.19159 -3.46694 0
M  V30 5066 H 485.803 0.776274 -4.96974 0
M  V30 5067 H 485.503 -0.756206 -5.82714 0
M  V30 5068 H 487.027 0.134004 -6.10453 0
M  V30 5069 H 488.441 -2.0145 -5.36741 0
M  V30 5070 H 486.838 -2.8033 -5.30599 0
M  V30 5071 H 487.908 -2.88822 -3.895 0
M  V30 5072 N 489.251 1.34841 -0.815825 0
M  V30 5073 C 490.491 2.00321 -0.406297 0
M  V30 5074 C 490.855 1.63293 1.00992 0
M  V30 5075 O 492.056 2.21563 1.52195 0
M  V30 5076 C 490.327 3.52421 -0.594469 0
M  V30 5077 S 491.886 4.37926 -0.276735 0
M  V30 5078 H 488.704 0.694155 -0.153848 0
M  V30 5079 H 491.306 1.64263 -1.06009 0
M  V30 5080 H 490.01 3.76858 -1.625 0
M  V30 5081 H 489.541 3.9333 0.0743157 0
M  V30 5082 H 491.556 4.87743 0.912215 0
M  V30 5083 N 490.729 0.570148 1.46925 0
M  V30 5084 C 491.975 0.0510284 2.02736 0
M  V30 5085 C 492.308 -1.3006 1.44215 0
M  V30 5086 O 491.583 -1.84932 0.602521 0
M  V30 5087 C 491.866 -0.028215 3.60089 0
M  V30 5088 C 491.719 1.35142 4.29018 0
M  V30 5089 C 493.038 -0.735181 4.33916 0
M  V30 5090 H 490.157 0.0200178 0.736728 0
M  V30 5091 H 492.799 0.73493 1.75211 0
M  V30 5092 H 490.949 -0.610648 3.83671 0
M  V30 5093 H 492.621 1.97806 4.16738 0
M  V30 5094 H 490.864 1.9226 3.88868 0
M  V30 5095 H 491.535 1.24857 5.37694 0
M  V30 5096 H 494.011 -0.240519 4.15404 0
M  V30 5097 H 492.887 -0.759622 5.43618 0
M  V30 5098 H 493.148 -1.79397 4.04066 0
M  V30 5099 N 492.207 -1.54576 0.307264 0
M  V30 5100 C 493.618 -1.8579 -0.184121 0
M  V30 5101 C 493.969 -1.22914 -1.52927 0
M  V30 5102 O 493.094 -0.529126 -2.09831 0
M  V30 5103 C 493.689 -3.37081 -0.340862 0
M  V30 5104 C 492.248 -3.68304 -0.776465 0
M  V30 5105 C 491.395 -2.77076 0.111503 0
M  V30 5106 H 494.346 -1.49656 0.528078 0
M  V30 5107 H 494.367 -3.61922 -1.17443 0
M  V30 5108 H 493.879 -3.82815 0.638309 0
M  V30 5109 H 491.98 -3.28092 -1.76596 0
M  V30 5110 H 492.093 -4.75434 -0.591512 0
M  V30 5111 H 490.457 -2.51374 -0.410256 0
M  V30 5112 H 491.24 -3.25632 1.08714 0
M  V30 5113 N 493.685 -0.035106 -1.57561 0
M  V30 5114 C 494.931 0.64318 -1.92331 0
M  V30 5115 C 495.264 1.71434 -0.912368 0
M  V30 5116 O 494.539 1.94395 0.0640303 0
M  V30 5117 C 494.822 1.25411 -3.37556 0
M  V30 5118 C 494.675 0.192109 -4.4939 0
M  V30 5119 C 495.994 2.17041 -3.82859 0
M  V30 5120 H 493.113 0.232341 -0.699419 0
M  V30 5121 H 495.755 -0.0935889 -1.89769 0
M  V30 5122 H 493.905 1.88205 -3.39869 0
M  V30 5123 H 495.577 -0.438849 -4.59208 0
M  V30 5124 H 493.82 -0.481725 -4.31117 0
M  V30 5125 H 494.491 0.659292 -5.48049 0
M  V30 5126 H 496.967 1.64228 -3.8232 0
M  V30 5127 H 495.843 2.56738 -4.85157 0
M  V30 5128 H 496.104 3.06401 -3.18702 0
M  V30 5129 N 495.163 1.55791 0.238111 0
M  V30 5130 C 496.412 1.77234 0.962868 0
M  V30 5131 C 496.725 0.600661 1.86149 0
M  V30 5132 O 497.931 0.698315 2.62366 0
M  V30 5133 C 496.387 3.13808 1.76218 0
M  V30 5134 C 495.995 4.3865 0.910518 0
M  V30 5135 C 497.739 3.44585 2.47914 0
M  V30 5136 C 495.646 5.66252 1.70623 0
M  V30 5137 H 494.576 0.660731 0.36325 0
M  V30 5138 H 497.227 1.8221 0.217242 0
M  V30 5139 H 495.609 3.02963 2.55009 0
M  V30 5140 H 496.783 4.60507 0.164316 0
M  V30 5141 H 495.098 4.15271 0.30647 0
M  V30 5142 H 497.695 4.3714 3.07917 0
M  V30 5143 H 498.038 2.66314 3.19973 0
M  V30 5144 H 498.571 3.56685 1.76127 0
M  V30 5145 H 495.31 6.47369 1.02923 0
M  V30 5146 H 494.83 5.48483 2.42748 0
M  V30 5147 H 496.509 6.05829 2.27114 0
M  V30 5148 N 496.642 -0.504142 1.49319 0
M  V30 5149 C 497.867 -1.28729 1.62615 0
M  V30 5150 C 498.292 -1.85752 0.296309 0
M  V30 5151 O 497.65 -1.65704 -0.735649 0
M  V30 5152 C 497.698 -2.39561 2.69524 0
M  V30 5153 O 496.802 -3.43324 2.28478 0
M  V30 5154 H 496.143 -0.380172 0.544395 0
M  V30 5155 H 498.673 -0.603872 1.95485 0
M  V30 5156 H 498.683 -2.8537 2.91595 0
M  V30 5157 H 497.358 -1.97423 3.66056 0
M  V30 5158 H 495.935 -3.03455 2.16725 0
M  V30 5159 N 498.12 -1.38341 -0.754957 0
M  V30 5160 C 499.536 -1.19508 -1.05783 0
M  V30 5161 C 499.736 -0.0428005 -2.01455 0
M  V30 5162 O 498.792 0.611861 -2.44975 0
M  V30 5163 C 500.105 -2.52091 -1.63923 0
M  V30 5164 C 501.653 -2.58762 -1.76101 0
M  V30 5165 C 502.128 -3.91517 -2.37652 0
M  V30 5166 N 503.619 -3.93049 -2.45085 0
M  V30 5167 C 504.354 -4.9253 -2.93602 0
M  V30 5168 N 503.85 -6.02408 -3.42165 0
M  V30 5169 N 505.643 -4.79921 -2.92629 0
M  V30 5170 H 497.794 -2.1206 -0.120056 0
M  V30 5171 H 500.057 -0.94089 -0.11589 0
M  V30 5172 H 499.763 -3.36858 -1.01093 0
M  V30 5173 H 499.637 -2.70388 -2.63003 0
M  V30 5174 H 502.024 -1.74391 -2.38058 0
M  V30 5175 H 502.105 -2.44333 -0.757294 0
M  V30 5176 H 501.749 -4.76309 -1.76329 0
M  V30 5177 H 501.679 -4.03256 -3.38662 0
M  V30 5178 H 504.17 -3.13685 -2.10736 0
M  V30 5179 H 504.483 -6.74248 -3.77637 0
M  V30 5180 H 502.828 -6.0603 -3.40225 0
M  V30 5181 H 506.019 -3.93194 -2.54001 0
M  V30 5182 H 506.192 -5.57601 -3.30128 0
M  V30 5183 N 499.598 0.982988 -1.23187 0
M  V30 5184 C 500.561 2.05649 -1.01198 0
M  V30 5185 C 501.561 1.6078 0.0252464 0
M  V30 5186 O 502.751 1.72878 -0.214243 0
M  V30 5187 C 499.883 3.36744 -0.530656 0
M  V30 5188 H 501.076 2.2659 -1.96461 0
M  V30 5189 H 498.629 1.15602 -1.05195 0
M  V30 5190 H 499.364 3.21492 0.425873 0
M  V30 5191 H 499.149 3.7065 -1.2791 0
M  V30 5192 H 500.639 4.15705 -0.397366 0
M  V30 5193 N 501.076 1.04316 1.18135 0
M  V30 5194 C 502.304 0.768117 1.92113 0
M  V30 5195 C 502.719 -0.675057 1.76319 0
M  V30 5196 O 502.076 -1.46038 1.09449 0
M  V30 5197 C 502.127 1.12808 3.43448 0
M  V30 5198 O 501.848 2.5146 3.58747 0
M  V30 5199 C 503.349 0.8779 4.3452 0
M  V30 5200 H 500.569 0.279937 0.609817 0
M  V30 5201 H 503.113 1.39149 1.49859 0
M  V30 5202 H 501.268 0.549623 3.83481 0
M  V30 5203 H 501.682 2.65313 4.52448 0
M  V30 5204 H 503.156 1.17959 5.39249 0
M  V30 5205 H 503.633 -0.187239 4.38801 0
M  V30 5206 H 504.239 1.43977 4.00188 0
M  V30 5207 N 502.554 -1.34406 0.822964 0
M  V30 5208 C 503.831 -1.92733 0.333641 0
M  V30 5209 C 504.211 -1.75107 -1.17901 0
M  V30 5210 O 503.559 -1.12983 -1.98613 0
M  V30 5211 C 503.769 -3.40557 0.763023 0
M  V30 5212 C 505.117 -4.17709 0.761879 0
M  V30 5213 O 506.141 -3.49141 0.705606 0
M  V30 5214 O 505 -5.40082 0.835109 0
M  V30 5215 H 502.094 -0.821964 0.0911249 0
M  V30 5216 H 504.64 -1.4338 0.907757 0
M  V30 5217 H 503.412 -3.47187 1.8049 0
M  V30 5218 H 503.035 -3.97259 0.164605 0
M  V30 5219 N 504.032 -0.577932 -1.46621 0
M  V30 5220 C 504.964 0.195801 -2.28362 0
M  V30 5221 C 505.977 0.859983 -1.38232 0
M  V30 5222 O 507.166 0.730349 -1.62875 0
M  V30 5223 C 504.266 1.29639 -3.13124 0
M  V30 5224 C 503.439 0.725049 -4.31349 0
M  V30 5225 C 502.498 1.71274 -4.97546 0
M  V30 5226 O 501.524 1.25067 -5.5529 0
M  V30 5227 N 502.726 3.04672 -4.94121 0
M  V30 5228 H 505.491 -0.505468 -2.95407 0
M  V30 5229 H 503.052 -0.415381 -1.56481 0
M  V30 5230 H 505.044 1.95631 -3.54275 0
M  V30 5231 H 503.614 1.90059 -2.48186 0
M  V30 5232 H 502.834 -0.112205 -3.9404 0
M  V30 5233 H 504.122 0.323034 -5.07774 0
M  V30 5234 H 503.52 3.4484 -4.48444 0
M  V30 5235 H 502.077 3.66166 -5.39227 0
M  V30 5236 N 505.51 1.54411 -0.315457 0
M  V30 5237 C 506.756 2.00716 0.289972 0
M  V30 5238 C 507.089 1.2034 1.5242 0
M  V30 5239 O 506.364 0.283579 1.92422 0
M  V30 5240 C 506.647 3.54507 0.632196 0
M  V30 5241 C 506.5 4.45615 -0.61218 0
M  V30 5242 C 507.819 4.15421 1.45305 0
M  V30 5243 H 504.938 0.729637 0.10392 0
M  V30 5244 H 507.58 1.8506 -0.430427 0
M  V30 5245 H 505.73 3.67979 1.24595 0
M  V30 5246 H 507.402 4.44026 -1.25053 0
M  V30 5247 H 505.645 4.15621 -1.24264 0
M  V30 5248 H 506.316 5.51022 -0.328379 0
M  V30 5249 H 508.792 4.05474 0.934331 0
M  V30 5250 H 507.668 5.23157 1.66127 0
M  V30 5251 H 507.929 3.68223 2.44671 0
M  V30 5252 N 506.988 0.0434614 1.5754 0
M  V30 5253 C 508.234 -0.632971 1.92669 0
M  V30 5254 C 508.567 -1.70947 0.921446 0
M  V30 5255 O 507.842 -1.94426 -0.0537202 0
M  V30 5256 C 508.125 -1.23619 3.38216 0
M  V30 5257 C 507.978 -0.168274 4.49485 0
M  V30 5258 C 509.297 -2.15008 3.84005 0
M  V30 5259 H 506.416 -0.228629 0.700641 0
M  V30 5260 H 509.058 0.103651 1.89717 0
M  V30 5261 H 507.208 -1.864 3.40863 0
M  V30 5262 H 508.88 0.463196 4.58969 0
M  V30 5263 H 507.123 0.504581 4.30855 0
M  V30 5264 H 507.794 -0.630218 5.48391 0
M  V30 5265 H 510.27 -1.62198 3.83185 0
M  V30 5266 H 509.146 -2.54161 4.86511 0
M  V30 5267 H 509.407 -3.04707 3.20322 0
M  V30 5268 N 508.466 -1.55915 -0.229846 0
M  V30 5269 C 509.429 -1.90914 -1.26824 0
M  V30 5270 C 510.429 -0.786999 -1.40225 0
M  V30 5271 O 511.619 -1.05484 -1.38632 0
M  V30 5272 C 508.751 -2.15264 -2.64337 0
M  V30 5273 H 509.944 -2.8378 -0.969998 0
M  V30 5274 H 507.497 -1.49069 -0.4699 0
M  V30 5275 H 508.232 -1.24923 -2.99274 0
M  V30 5276 H 508.017 -2.97005 -2.55989 0
M  V30 5277 H 509.507 -2.43467 -3.39284 0
M  V30 5278 N 509.944 0.496216 -1.49584 0
M  V30 5279 C 510.874 1.60576 -1.69521 0
M  V30 5280 C 511.855 1.61169 -0.543933 0
M  V30 5281 O 513.04 1.77834 -0.78031 0
M  V30 5282 C 510.17 2.99038 -1.76616 0
M  V30 5283 C 509.124 3.13312 -2.91581 0
M  V30 5284 C 508.45 4.53172 -2.83794 0
M  V30 5285 C 509.75 2.92886 -4.32452 0
M  V30 5286 H 511.444 1.44146 -2.62416 0
M  V30 5287 H 508.99 0.692024 -1.26282 0
M  V30 5288 H 510.943 3.76564 -1.8915 0
M  V30 5289 H 509.667 3.16568 -0.80324 0
M  V30 5290 H 508.326 2.38213 -2.78658 0
M  V30 5291 H 507.974 4.67585 -1.854 0
M  V30 5292 H 507.674 4.63662 -3.60958 0
M  V30 5293 H 509.198 5.32752 -2.98342 0
M  V30 5294 H 510.612 3.60178 -4.46032 0
M  V30 5295 H 509.009 3.14844 -5.10875 0
M  V30 5296 H 510.079 1.88966 -4.46565 0
M  V30 5297 N 511.423 1.38739 0.74761 0
M  V30 5298 C 512.386 1.36241 1.84312 0
M  V30 5299 C 513.386 0.261811 1.58654 0
M  V30 5300 O 514.576 0.519031 1.66288 0
M  V30 5301 C 511.708 1.12253 3.21888 0
M  V30 5302 H 512.901 2.33712 1.87933 0
M  V30 5303 H 510.454 1.2412 0.949946 0
M  V30 5304 H 511.189 0.154133 3.23934 0
M  V30 5305 H 510.974 1.91943 3.41907 0
M  V30 5306 H 512.464 1.13215 4.0196 0
M  V30 5307 N 512.901 -0.976442 1.23707 0
M  V30 5308 C 514.141 -1.73331 1.08332 0
M  V30 5309 C 514.505 -1.88346 -0.372781 0
M  V30 5310 O 515.706 -2.60877 -0.647813 0
M  V30 5311 C 513.977 -3.09159 1.7932 0
M  V30 5312 S 515.536 -4.00376 1.79567 0
M  V30 5313 H 512.354 -0.596045 0.387622 0
M  V30 5314 H 514.956 -1.16625 1.56904 0
M  V30 5315 H 513.66 -2.95884 2.84395 0
M  V30 5316 H 513.191 -3.70932 1.31046 0
M  V30 5317 H 515.206 -4.88742 0.857094 0
M  V30 5318 N 514.379 -1.04941 -1.1758 0
M  V30 5319 C 515.342 -0.652456 -2.19717 0
M  V30 5320 C 516.342 0.294745 -1.58076 0
M  V30 5321 O 517.532 0.0789579 -1.74021 0
M  V30 5322 C 514.664 0.0420712 -3.40874 0
M  V30 5323 H 515.857 -1.55642 -2.5635 0
M  V30 5324 H 513.41 -0.842995 -1.31618 0
M  V30 5325 H 514.145 0.95943 -3.09783 0
M  V30 5326 H 513.93 -0.638844 -3.86861 0
M  V30 5327 H 515.42 0.306 -4.16477 0
M  V30 5328 N 515.857 1.33968 -0.830081 0
M  V30 5329 C 517.104 1.98063 -0.421566 0
M  V30 5330 C 517.432 1.65787 1.0171 0
M  V30 5331 O 516.687 0.925348 1.72441 0
M  V30 5332 C 516.986 3.52679 -0.57898 0
M  V30 5333 C 516.652 4.04884 -1.98443 0
M  V30 5334 C 515.314 4.18852 -2.36888 0
M  V30 5335 C 517.666 4.32879 -2.90285 0
M  V30 5336 C 514.994 4.58145 -3.66497 0
M  V30 5337 C 517.346 4.7362 -4.19364 0
M  V30 5338 C 516.01 4.85794 -4.57778 0
M  V30 5339 H 515.28 0.724765 -0.154262 0
M  V30 5340 H 517.927 1.59792 -1.05541 0
M  V30 5341 H 516.232 3.91556 0.138219 0
M  V30 5342 H 517.929 4.00261 -0.243317 0
M  V30 5343 H 514.519 3.9448 -1.67581 0
M  V30 5344 H 518.703 4.21619 -2.61823 0
M  V30 5345 H 513.959 4.65762 -3.96075 0
M  V30 5346 H 518.133 4.9424 -4.90612 0
M  V30 5347 H 515.76 5.15998 -5.58256 0
M  V30 5348 N 517.335 0.585699 1.46312 0
M  V30 5349 C 518.283 -0.158577 2.32059 0
M  V30 5350 C 519.277 -0.881427 1.44662 0
M  V30 5351 O 520.483 -0.799476 1.61271 0
M  V30 5352 H 516.858 -0.0700066 0.748734 0
M  V30 5353 H 518.829 0.583383 2.92642 0
M  V30 5354 C 517.578 -1.15701 3.27885 0
M  V30 5355 H 516.901 -0.610215 3.95116 0
M  V30 5356 H 518.341 -1.64812 3.90657 0
M  V30 5357 C 516.8 -2.21951 2.53455 0
M  V30 5358 O 517.33 -3.29352 2.29978 0
M  V30 5359 N 515.536 -1.9664 2.13965 0
M  V30 5360 H 515.083 -1.09309 2.33258 0
M  V30 5361 H 515.041 -2.6794 1.64485 0
M  V30 5362 N 518.813 -1.54241 0.323641 0
M  V30 5363 C 519.76 -2.24339 -0.542277 0
M  V30 5364 C 520.73 -1.23421 -1.11159 0
M  V30 5365 O 521.915 -1.52104 -1.15192 0
M  V30 5366 C 519.055 -3.00479 -1.69725 0
M  V30 5367 C 518.168 -4.16214 -1.15716 0
M  V30 5368 C 517.303 -4.79884 -2.27783 0
M  V30 5369 C 516.342 -5.87722 -1.71023 0
M  V30 5370 N 515.479 -6.45254 -2.76752 0
M  V30 5371 H 520.319 -2.97935 0.0620613 0
M  V30 5372 H 517.856 -1.47039 0.0423993 0
M  V30 5373 H 519.814 -3.42869 -2.3769 0
M  V30 5374 H 518.444 -2.29217 -2.27288 0
M  V30 5375 H 517.496 -3.78605 -0.369063 0
M  V30 5376 H 518.808 -4.93838 -0.701832 0
M  V30 5377 H 517.962 -5.25243 -3.03651 0
M  V30 5378 H 516.701 -4.01641 -2.76652 0
M  V30 5379 H 515.706 -5.41765 -0.936518 0
M  V30 5380 H 516.931 -6.67863 -1.2303 0
M  V30 5381 H 514.877 -5.69884 -3.24912 0
M  V30 5382 H 514.794 -7.18292 -2.35782 0
M  V30 5383 H 516.062 -6.95269 -3.5245 0
M  V30 5384 N 520.291 -0.0518155 -1.57515 0
M  V30 5385 C 521.221 0.920283 -2.146 0
M  V30 5386 C 522.202 1.32406 -1.06783 0
M  V30 5387 O 523.387 1.39866 -1.34726 0
M  V30 5388 C 520.517 2.1949 -2.6915 0
M  V30 5389 C 519.471 1.93116 -3.81956 0
M  V30 5390 C 518.797 3.27037 -4.23026 0
M  V30 5391 C 520.097 1.25225 -5.07066 0
M  V30 5392 H 521.791 0.444801 -2.96077 0
M  V30 5393 H 519.337 0.212508 -1.42423 0
M  V30 5394 H 521.29 2.87894 -3.07725 0
M  V30 5395 H 520.014 2.69244 -1.84865 0
M  V30 5396 H 518.673 1.27123 -3.43854 0
M  V30 5397 H 518.321 3.74595 -3.3569 0
M  V30 5398 H 518.021 3.10189 -4.99056 0
M  V30 5399 H 519.545 3.96673 -4.64202 0
M  V30 5400 H 520.959 1.83666 -5.43083 0
M  V30 5401 H 519.356 1.18702 -5.88243 0
M  V30 5402 H 520.426 0.228382 -4.84362 0
M  V30 5403 N 521.769 1.56035 0.221574 0
M  V30 5404 C 522.679 1.95581 1.29558 0
M  V30 5405 C 523.695 0.859639 1.51282 0
M  V30 5406 O 524.871 1.16321 1.64413 0
M  V30 5407 C 521.936 2.26447 2.62531 0
M  V30 5408 C 520.997 3.49632 2.4911 0
M  V30 5409 C 520.23 3.79017 3.75742 0
M  V30 5410 O 520.453 3.10077 4.78757 0
M  V30 5411 O 519.387 4.72507 3.72855 0
M  V30 5412 H 523.213 2.8711 0.990035 0
M  V30 5413 H 520.798 1.43244 0.424434 0
M  V30 5414 H 522.68 2.47494 3.41064 0
M  V30 5415 H 521.355 1.38092 2.92766 0
M  V30 5416 H 520.262 3.33864 1.68777 0
M  V30 5417 H 521.595 4.3837 2.23814 0
M  V30 5418 N 523.247 -0.488276 1.49845 0
M  V30 5419 C 524.495 -1.23911 1.59657 0
M  V30 5420 C 524.816 -1.92816 0.291005 0
M  V30 5421 O 524.086 -1.83328 -0.690485 0
M  V30 5422 H 522.666 -0.460357 0.588286 0
M  V30 5423 H 525.328 -0.564794 1.86537 0
M  V30 5424 H 524.424 -1.99625 2.39909 0
M  V30 5425 N 524.725 -1.39134 -0.740242 0
M  V30 5426 C 526.002 -1.26584 -1.49117 0
M  V30 5427 C 526.382 0.126902 -2.10718 0
M  V30 5428 O 525.73 1.13765 -1.98166 0
M  V30 5429 C 525.94 -2.38619 -2.54681 0
M  V30 5430 C 527.288 -2.77685 -3.21211 0
M  V30 5431 O 528.312 -2.38029 -2.64991 0
M  V30 5432 O 527.171 -3.46115 -4.22926 0
M  V30 5433 H 524.265 -0.495769 -0.661923 0
M  V30 5434 H 526.811 -1.50995 -0.774514 0
M  V30 5435 H 525.583 -3.3175 -2.07504 0
M  V30 5436 H 525.206 -2.15845 -3.33911 0
M  V30 5437 N 526.204 0.969867 -1.24223 0
M  V30 5438 C 527.134 2.08191 -1.05729 0
M  V30 5439 C 528.115 1.70075 0.0290765 0
M  V30 5440 O 529.3 1.93712 -0.137583 0
M  V30 5441 C 526.43 3.40991 -0.658995 0
M  V30 5442 C 525.384 3.93054 -1.69389 0
M  V30 5443 C 524.71 5.22171 -1.15072 0
M  V30 5444 C 526.01 4.21137 -3.08935 0
M  V30 5445 H 527.704 2.23921 -1.98746 0
M  V30 5446 H 525.25 1.07602 -0.956967 0
M  V30 5447 H 527.203 4.18221 -0.51662 0
M  V30 5448 H 525.927 3.25155 0.30686 0
M  V30 5449 H 524.586 3.17977 -1.82444 0
M  V30 5450 H 524.234 5.02694 -0.175539 0
M  V30 5451 H 523.934 5.57973 -1.84229 0
M  V30 5452 H 525.458 6.02013 -1.02042 0
M  V30 5453 H 526.872 4.8908 -2.99121 0
M  V30 5454 H 525.269 4.68163 -3.75425 0
M  V30 5455 H 526.339 3.27996 -3.57137 0
M  V30 5456 N 527.682 1.05563 1.17022 0
M  V30 5457 C 528.929 0.767937 1.87374 0
M  V30 5458 C 529.257 -0.705224 1.81265 0
M  V30 5459 O 528.512 -1.5318 1.21796 0
M  V30 5460 C 528.811 1.19849 3.36706 0
M  V30 5461 C 528.477 2.6745 3.63017 0
M  V30 5462 C 527.139 3.0777 3.69907 0
M  V30 5463 C 529.491 3.62811 3.74189 0
M  V30 5464 C 526.819 4.42307 3.85463 0
M  V30 5465 C 529.171 4.97087 3.91264 0
M  V30 5466 C 527.835 5.37055 3.96394 0
M  V30 5467 H 527.105 0.281008 0.68565 0
M  V30 5468 H 529.752 1.32339 1.38415 0
M  V30 5469 H 528.057 0.562096 3.87747 0
M  V30 5470 H 529.754 0.953038 3.8951 0
M  V30 5471 H 526.344 2.35228 3.58282 0
M  V30 5472 H 530.528 3.32798 3.68183 0
M  V30 5473 H 525.784 4.72769 3.87684 0
M  V30 5474 H 529.958 5.70869 3.9885 0
M  V30 5475 H 527.585 6.41308 4.082 0
M  V30 5476 N 529.16 -1.33526 0.837174 0
M  V30 5477 C 530.388 -2.02047 0.445494 0
M  V30 5478 C 530.803 -1.62995 -0.952788 0
M  V30 5479 O 530.16 -0.842447 -1.61892 0
M  V30 5480 C 530.211 -3.57221 0.554577 0
M  V30 5481 O 529.932 -3.94863 1.89776 0
M  V30 5482 C 531.433 -4.43012 0.159634 0
M  V30 5483 H 528.653 -0.647221 0.177048 0
M  V30 5484 H 531.197 -1.70492 1.12928 0
M  V30 5485 H 529.352 -3.87315 -0.0812781 0
M  V30 5486 H 529.766 -4.89569 1.88208 0
M  V30 5487 H 531.24 -5.51253 0.28701 0
M  V30 5488 H 531.717 -4.29916 -0.898289 0
M  V30 5489 H 532.323 -4.18274 0.769855 0
M  V30 5490 N 530.638 -0.59345 -1.46 0
M  V30 5491 C 531.915 -0.0157933 -1.95594 0
M  V30 5492 C 532.295 1.44807 -1.53604 0
M  V30 5493 O 531.643 2.14342 -0.791824 0
M  V30 5494 C 531.853 -0.199081 -3.48432 0
M  V30 5495 C 533.201 -0.0724943 -4.24538 0
M  V30 5496 O 534.225 -0.128469 -3.55968 0
M  V30 5497 O 533.084 0.0542426 -5.46473 0
M  V30 5498 H 530.178 0.043749 -0.825842 0
M  V30 5499 H 532.724 -0.662522 -1.56233 0
M  V30 5500 H 531.496 -1.21631 -3.71916 0
M  V30 5501 H 531.119 0.483576 -3.94648 0
M  V30 5502 N 532.116 1.54067 -0.331816 0
M  V30 5503 C 533.026 2.28322 0.539104 0
M  V30 5504 C 534.042 1.32985 1.1221 0
M  V30 5505 O 535.218 1.6601 1.1403 0
M  V30 5506 C 532.283 3.03277 1.68 0
M  V30 5507 C 531.344 4.14216 1.12798 0
M  V30 5508 C 530.577 4.85588 2.2145 0
M  V30 5509 O 530.8 4.56536 3.41952 0
M  V30 5510 O 529.734 5.72309 1.86404 0
M  V30 5511 H 533.56 3.03632 -0.0641692 0
M  V30 5512 H 531.145 1.49083 -0.0972365 0
M  V30 5513 H 533.027 3.50189 2.34405 0
M  V30 5514 H 531.702 2.30834 2.2693 0
M  V30 5515 H 530.609 3.71635 0.428782 0
M  V30 5516 H 531.942 4.88727 0.583698 0
M  V30 5517 N 533.594 0.0601682 1.57485 0
M  V30 5518 C 534.871 -0.651956 1.84415 0
M  V30 5519 C 535.251 -1.88498 0.950361 0
M  V30 5520 O 534.599 -2.28496 0.0136719 0
M  V30 5521 C 534.809 -1.00069 3.34346 0
M  V30 5522 C 536.157 -1.37915 4.01578 0
M  V30 5523 O 537.181 -1.09277 3.39024 0
M  V30 5524 O 536.04 -1.91399 5.11887 0
M  V30 5525 H 533.134 -0.322668 0.761455 0
M  V30 5526 H 535.68 0.0902159 1.6946 0
M  V30 5527 H 534.452 -0.124463 3.91102 0
M  V30 5528 H 534.075 -1.80001 3.54521 0
M  V30 5529 N 535.072 -1.5615 -0.213296 0
M  V30 5530 C 535.982 -1.96265 -1.28519 0
M  V30 5531 C 536.998 -0.86765 -1.50824 0
M  V30 5532 O 538.174 -1.17191 -1.63793 0
M  V30 5533 C 535.239 -2.27836 -2.61327 0
M  V30 5534 C 534.3 -3.50949 -2.47252 0
M  V30 5535 C 533.533 -3.81004 -3.73727 0
M  V30 5536 O 533.756 -3.12612 -4.77106 0
M  V30 5537 O 532.69 -4.74477 -3.70344 0
M  V30 5538 H 536.516 -2.87631 -0.974795 0
M  V30 5539 H 534.101 -1.43467 -0.416832 0
M  V30 5540 H 535.983 -2.49299 -3.39747 0
M  V30 5541 H 534.658 -1.39643 -2.9203 0
M  V30 5542 H 533.565 -3.34754 -1.67004 0
M  V30 5543 H 534.898 -4.39551 -2.21486 0
M  V30 5544 N 536.55 0.480323 -1.50102 0
M  V30 5545 C 537.5 1.57685 -1.6468 0
M  V30 5546 C 538.484 1.52878 -0.5017 0
M  V30 5547 O 539.676 1.60058 -0.755668 0
M  V30 5548 C 536.805 2.96185 -1.73578 0
M  V30 5549 C 535.891 3.0591 -2.93734 0
M  V30 5550 N 536.282 2.85471 -4.1754 0
M  V30 5551 C 534.58 3.37036 -2.92101 0
M  V30 5552 C 535.281 2.99921 -4.9842 0
M  V30 5553 N 534.257 3.29715 -4.32191 0
M  V30 5554 H 538.059 1.40568 -2.58104 0
M  V30 5555 H 535.573 0.686874 -1.47159 0
M  V30 5556 H 537.57 3.75015 -1.82124 0
M  V30 5557 H 536.23 3.14356 -0.813057 0
M  V30 5558 H 537.241 2.61235 -4.47188 0
M  V30 5559 H 533.918 3.61253 -2.09291 0
M  V30 5560 H 535.308 2.88436 -6.06839 0
M  V30 5561 N 538.028 1.39524 0.732853 0
M  V30 5562 C 539.274 1.37068 1.49467 0
M  V30 5563 C 539.607 -0.0327166 1.94172 0
M  V30 5564 O 538.882 -0.998071 1.66939 0
M  V30 5565 C 539.165 2.34494 2.73285 0
M  V30 5566 C 539.018 3.83784 2.34585 0
M  V30 5567 C 540.337 2.29717 3.75391 0
M  V30 5568 H 537.456 0.499206 0.542183 0
M  V30 5569 H 540.098 1.70532 0.837783 0
M  V30 5570 H 538.248 2.06087 3.29333 0
M  V30 5571 H 539.92 4.22949 1.84151 0
M  V30 5572 H 538.163 4.00455 1.66787 0
M  V30 5573 H 538.834 4.47444 3.23262 0
M  V30 5574 H 541.31 2.54839 3.28932 0
M  V30 5575 H 540.186 2.99962 4.59689 0
M  V30 5576 H 540.447 1.30291 4.22465 0
M  V30 5577 N 539.506 -0.963266 1.24736 0
M  V30 5578 C 540.755 -1.70115 1.08369 0
M  V30 5579 C 541.068 -1.91939 -0.376688 0
M  V30 5580 O 542.274 -2.6334 -0.660624 0
M  V30 5581 C 540.73 -3.06218 1.89099 0
M  V30 5582 C 540.338 -2.92221 3.39574 0
M  V30 5583 C 542.082 -3.83848 1.81275 0
M  V30 5584 C 539.989 -4.23662 4.12631 0
M  V30 5585 H 538.919 -0.637944 0.401924 0
M  V30 5586 H 541.57 -1.07304 1.48856 0
M  V30 5587 H 539.952 -3.69884 1.41429 0
M  V30 5588 H 541.126 -2.37541 3.94856 0
M  V30 5589 H 539.441 -2.28054 3.48397 0
M  V30 5590 H 542.038 -4.81188 2.33158 0
M  V30 5591 H 542.381 -4.08949 0.778895 0
M  V30 5592 H 542.914 -3.26918 2.26649 0
M  V30 5593 H 539.653 -4.03753 5.16395 0
M  V30 5594 H 539.173 -4.78141 3.62135 0
M  V30 5595 H 540.852 -4.92256 4.19873 0
M  V30 5596 N 540.985 -1.06182 -1.16461 0
M  V30 5597 C 541.917 -0.629584 -2.20383 0
M  V30 5598 C 542.93 0.311834 -1.59786 0
M  V30 5599 O 544.119 0.103 -1.78203 0
M  V30 5600 C 541.219 0.0973695 -3.3876 0
M  V30 5601 C 540.392 -0.857252 -4.28917 0
M  V30 5602 C 539.451 -0.169749 -5.25926 0
M  V30 5603 O 538.477 -0.807044 -5.6345 0
M  V30 5604 N 539.679 1.08911 -5.70192 0
M  V30 5605 H 542.444 -1.52352 -2.58087 0
M  V30 5606 H 540.005 -0.944993 -1.31459 0
M  V30 5607 H 541.997 0.567676 -4.00699 0
M  V30 5608 H 540.567 0.893093 -2.99571 0
M  V30 5609 H 539.787 -1.50696 -3.64259 0
M  V30 5610 H 541.075 -1.50489 -4.86035 0
M  V30 5611 H 540.473 1.62703 -5.41797 0
M  V30 5612 H 539.03 1.50331 -6.34227 0
M  V30 5613 N 542.463 1.3308 -0.844243 0
M  V30 5614 C 543.413 2.26589 -0.253289 0
M  V30 5615 C 544.397 1.49501 0.594836 0
M  V30 5616 O 545.589 1.71291 0.445924 0
M  V30 5617 C 542.718 3.38599 0.566176 0
M  V30 5618 C 541.804 4.23081 -0.293756 0
M  V30 5619 N 542.195 4.86751 -1.37505 0
M  V30 5620 C 540.493 4.45925 -0.0817086 0
M  V30 5621 C 541.194 5.49684 -1.90323 0
M  V30 5622 N 540.17 5.30101 -1.20391 0
M  V30 5623 H 543.972 2.73334 -1.08009 0
M  V30 5624 H 541.486 1.47048 -0.689258 0
M  V30 5625 H 543.483 4.04584 1.00587 0
M  V30 5626 H 542.143 2.93401 1.39089 0
M  V30 5627 H 543.154 4.87151 -1.75796 0
M  V30 5628 H 539.831 4.11434 0.709129 0
M  V30 5629 H 541.221 6.10363 -2.80902 0
M  V30 5630 N 543.941 0.601185 1.45683 0
M  V30 5631 C 545.181 0.0968037 2.04171 0
M  V30 5632 C 545.545 -1.2466 1.46027 0
M  V30 5633 O 546.746 -1.84132 1.95829 0
M  V30 5634 C 545.017 0.051384 3.57363 0
M  V30 5635 S 546.576 -0.392737 4.37039 0
M  V30 5636 H 543.394 0.0464504 0.709481 0
M  V30 5637 H 545.996 0.797846 1.78479 0
M  V30 5638 H 544.7 1.03274 3.97193 0
M  V30 5639 H 544.231 -0.671853 3.87621 0
M  V30 5640 H 546.246 -1.64364 4.68187 0
M  V30 5641 N 545.419 -1.53889 0.339982 0
M  V30 5642 C 546.666 -2.00855 -0.257621 0
M  V30 5643 C 546.994 -1.22788 -1.50842 0
M  V30 5644 O 546.249 -0.302567 -1.93347 0
M  V30 5645 C 546.548 -3.51968 -0.620735 0
M  V30 5646 C 546.214 -4.47741 0.532771 0
M  V30 5647 C 544.876 -4.73645 0.849339 0
M  V30 5648 C 547.228 -5.04551 1.3068 0
M  V30 5649 C 544.556 -5.53614 1.94237 0
M  V30 5650 C 546.908 -5.85713 2.39005 0
M  V30 5651 C 545.572 -6.09912 2.71225 0
M  V30 5652 H 544.842 -0.734979 -0.0942703 0
M  V30 5653 H 547.489 -1.85714 0.467159 0
M  V30 5654 H 545.794 -3.64921 -1.42618 0
M  V30 5655 H 547.491 -3.85762 -1.09495 0
M  V30 5656 H 544.081 -4.27711 0.275973 0
M  V30 5657 H 548.265 -4.84507 1.07549 0
M  V30 5658 H 543.521 -5.7059 2.19628 0
M  V30 5659 H 547.695 -6.28748 2.99415 0
M  V30 5660 H 545.322 -6.71665 3.56047 0
M  V30 5661 N 546.897 -0.0685191 -1.57451 0
M  V30 5662 C 547.847 0.909895 -2.09057 0
M  V30 5663 C 548.831 1.26088 -0.999528 0
M  V30 5664 O 550.023 1.24041 -1.26265 0
M  V30 5665 C 547.152 2.17863 -2.65312 0
M  V30 5666 C 546.238 1.85427 -3.81415 0
M  V30 5667 N 546.629 1.23426 -4.9051 0
M  V30 5668 C 544.927 2.15196 -3.90649 0
M  V30 5669 C 545.628 1.09008 -5.71395 0
M  V30 5670 N 544.604 1.59871 -5.1956 0
M  V30 5671 H 548.406 0.426145 -2.90794 0
M  V30 5672 H 545.92 0.135462 -1.61834 0
M  V30 5673 H 547.917 2.88872 -3.00597 0
M  V30 5674 H 546.577 2.66829 -1.85021 0
M  V30 5675 H 547.588 0.904305 -5.09944 0
M  V30 5676 H 544.265 2.66562 -3.21327 0
M  V30 5677 H 545.655 0.607305 -6.6915 0
M  V30 5678 N 548.375 1.56261 0.205012 0
M  V30 5679 C 549.605 1.83874 0.942018 0
M  V30 5680 C 550.013 0.647595 1.77772 0
M  V30 5681 O 549.356 -0.393098 1.79445 0
M  V30 5682 C 549.418 3.05453 1.89575 0
M  V30 5683 C 549.082 4.39772 1.24296 0
M  V30 5684 C 550.079 5.16133 0.624724 0
M  V30 5685 C 547.764 4.86504 1.24978 0
M  V30 5686 C 549.758 6.37396 0.0220117 0
M  V30 5687 C 547.445 6.07705 0.643232 0
M  V30 5688 C 548.443 6.82993 0.0304164 0
M  V30 5689 O 548.131 8.019 -0.566654 0
M  V30 5690 H 547.863 0.614896 0.280854 0
M  V30 5691 H 550.417 2.04215 0.220285 0
M  V30 5692 H 548.647 2.80972 2.65691 0
M  V30 5693 H 550.336 3.19797 2.4997 0
M  V30 5694 H 551.102 4.81127 0.611666 0
M  V30 5695 H 546.981 4.27865 1.71616 0
M  V30 5696 H 550.525 6.96102 -0.456926 0
M  V30 5697 H 546.422 6.42181 0.653759 0
M  V30 5698 H 547.19 8.17192 -0.462588 0
M  V30 5699 N 549.853 -0.472356 1.50355 0
M  V30 5700 C 551.081 -1.24784 1.65035 0
M  V30 5701 C 551.496 -1.85837 0.333176 0
M  V30 5702 O 550.853 -1.69168 -0.68472 0
M  V30 5703 C 550.904 -2.35747 2.74054 0
M  V30 5704 O 550.625 -1.77197 4.00665 0
M  V30 5705 C 552.126 -3.26645 2.99696 0
M  V30 5706 H 549.346 -0.377432 0.554785 0
M  V30 5707 H 551.89 -0.563962 1.9657 0
M  V30 5708 H 550.045 -2.99912 2.45217 0
M  V30 5709 H 550.459 -2.5026 4.60945 0
M  V30 5710 H 551.933 -4.00718 3.79644 0
M  V30 5711 H 552.41 -3.8535 2.10718 0
M  V30 5712 H 553.016 -2.68218 3.3006 0
M  V30 5713 N 551.331 -1.39911 -0.725443 0
M  V30 5714 C 552.556 -1.41137 -1.5197 0
M  V30 5715 C 552.981 -0.010262 -1.88097 0
M  V30 5716 O 552.339 0.979184 -1.52583 0
M  V30 5717 C 552.387 -2.2994 -2.77777 0
M  V30 5718 O 551.491 -1.73586 -3.74088 0
M  V30 5719 H 550.832 -0.480219 -0.458569 0
M  V30 5720 H 553.362 -1.84023 -0.894249 0
M  V30 5721 H 553.372 -2.44785 -3.26411 0
M  V30 5722 H 552.047 -3.31759 -2.50816 0
M  V30 5723 H 550.624 -1.68035 -3.32894 0
M  V30 5724 N 552.809 0.956637 -1.25245 0
M  V30 5725 C 554.037 1.73571 -1.12608 0
M  V30 5726 C 554.452 1.86063 0.320324 0
M  V30 5727 O 553.809 1.35691 1.22042 0
M  V30 5728 C 553.86 3.15053 -1.77268 0
M  V30 5729 O 553.581 3.03174 -3.16255 0
M  V30 5730 C 555.082 4.09248 -1.70386 0
M  V30 5731 H 552.302 0.543955 -0.392879 0
M  V30 5732 H 554.846 1.20031 -1.65568 0
M  V30 5733 H 553.001 3.65543 -1.28284 0
M  V30 5734 H 553.415 3.9241 -3.48015 0
M  V30 5735 H 554.889 5.06138 -2.20291 0
M  V30 5736 H 555.366 4.34102 -0.667239 0
M  V30 5737 H 555.972 3.64672 -2.18849 0
M  V30 5738 N 554.287 1.06798 1.15896 0
M  V30 5739 C 555.533 0.788934 1.86825 0
M  V30 5740 C 555.866 -0.683084 1.8179 0
M  V30 5741 O 555.141 -1.50086 1.23711 0
M  V30 5742 C 555.424 1.29065 3.36176 0
M  V30 5743 C 555.277 2.8268 3.49874 0
M  V30 5744 C 556.596 0.902655 4.30744 0
M  V30 5745 H 553.715 0.288066 0.678371 0
M  V30 5746 H 556.357 1.32479 1.36195 0
M  V30 5747 H 554.507 0.834806 3.79425 0
M  V30 5748 H 556.179 3.36511 3.15528 0
M  V30 5749 H 554.422 3.21157 2.91617 0
M  V30 5750 H 555.093 3.12852 4.54783 0
M  V30 5751 H 557.569 1.29535 3.95424 0
M  V30 5752 H 556.445 1.28111 5.3374 0
M  V30 5753 H 556.706 -0.191951 4.41683 0
M  V30 5754 N 555.766 -1.3263 0.851289 0
M  V30 5755 C 556.696 -2.31449 0.308771 0
M  V30 5756 C 557.677 -1.59531 -0.590255 0
M  V30 5757 O 558.862 -1.87351 -0.511205 0
M  V30 5758 C 555.992 -3.43586 -0.506548 0
M  V30 5759 C 554.946 -4.26963 0.297753 0
M  V30 5760 C 554.272 -5.30831 -0.642094 0
M  V30 5761 C 555.572 -4.99643 1.52166 0
M  V30 5762 H 557.266 -2.77074 1.13447 0
M  V30 5763 H 554.812 -1.33207 0.546971 0
M  V30 5764 H 556.765 -4.11754 -0.896474 0
M  V30 5765 H 555.489 -2.96681 -1.36558 0
M  V30 5766 H 554.148 -3.60437 0.669391 0
M  V30 5767 H 553.796 -4.8018 -1.49788 0
M  V30 5768 H 553.496 -5.87501 -0.107968 0
M  V30 5769 H 555.02 -6.01862 -1.02927 0
M  V30 5770 H 556.434 -5.6051 1.20421 0
M  V30 5771 H 554.831 -5.66022 1.99347 0
M  V30 5772 H 555.901 -4.27701 2.28474 0
M  V30 5773 N 557.244 -0.608902 -1.45362 0
M  V30 5774 C 558.472 -0.111013 -2.06602 0
M  V30 5775 C 558.887 1.20516 -1.45332 0
M  V30 5776 O 558.244 1.73437 -0.567978 0
M  V30 5777 C 558.295 0.033688 -3.61484 0
M  V30 5778 O 558.016 -1.23041 -4.20467 0
M  V30 5779 C 559.517 0.562882 -4.39712 0
M  V30 5780 H 556.737 -0.0694453 -0.667397 0
M  V30 5781 H 559.281 -0.837008 -1.86586 0
M  V30 5782 H 557.436 0.710016 -3.80838 0
M  V30 5783 H 557.85 -1.06094 -5.13658 0
M  V30 5784 H 559.324 0.613213 -5.48583 0
M  V30 5785 H 559.801 1.58543 -4.09586 0
M  V30 5786 H 560.407 -0.0794454 -4.25226 0
M  V30 5787 N 558.722 1.53707 -0.348139 0
M  V30 5788 C 559.947 2.05877 0.250883 0
M  V30 5789 C 560.372 1.22115 1.43072 0
M  V30 5790 O 559.73 0.235986 1.79758 0
M  V30 5791 C 559.778 3.54886 0.639416 0
M  V30 5792 O 558.882 3.73948 1.73888 0
M  V30 5793 H 558.223 0.662754 0.040653 0
M  V30 5794 H 560.753 1.98303 -0.503685 0
M  V30 5795 H 560.763 3.97601 0.915295 0
M  V30 5796 H 559.438 4.153 -0.223386 0
M  V30 5797 H 558.015 3.43134 1.45991 0
M  V30 5798 N 560.2 0.0768682 1.57412 0
M  V30 5799 C 561.428 -0.59997 1.9801 0
M  V30 5800 C 561.843 -1.62842 0.955408 0
M  V30 5801 O 561.2 -1.8241 -0.057314 0
M  V30 5802 C 561.251 -1.26401 3.38681 0
M  V30 5803 O 560.972 -0.276723 4.37225 0
M  V30 5804 C 562.473 -2.0282 3.94182 0
M  V30 5805 H 559.693 -0.162239 0.651091 0
M  V30 5806 H 562.237 0.150771 2.03943 0
M  V30 5807 H 560.392 -1.96581 3.33819 0
M  V30 5808 H 560.806 -0.753744 5.19056 0
M  V30 5809 H 562.28 -2.44667 4.94815 0
M  V30 5810 H 562.757 -2.88678 3.31001 0
M  V30 5811 H 563.363 -1.37496 4.02461 0
M  V30 5812 N 561.678 -1.56367 -0.196722 0
M  V30 5813 C 562.608 -1.97442 -1.24655 0
M  V30 5814 C 563.589 -0.846147 -1.47561 0
M  V30 5815 O 564.774 -1.11035 -1.59326 0
M  V30 5816 C 561.904 -2.31253 -2.59112 0
M  V30 5817 C 560.858 -3.46804 -2.50821 0
M  V30 5818 C 560.184 -3.66286 -3.89536 0
M  V30 5819 C 561.484 -4.8104 -2.03465 0
M  V30 5820 H 563.178 -2.85388 -0.905216 0
M  V30 5821 H 560.724 -1.37304 -0.434002 0
M  V30 5822 H 562.677 -2.58583 -3.32736 0
M  V30 5823 H 561.401 -1.40188 -2.94983 0
M  V30 5824 H 560.06 -3.19563 -1.79653 0
M  V30 5825 H 559.708 -2.72555 -4.22756 0
M  V30 5826 H 559.408 -4.4402 -3.84864 0
M  V30 5827 H 560.932 -3.9599 -4.64784 0
M  V30 5828 H 562.346 -5.07411 -2.66846 0
M  V30 5829 H 560.743 -5.62232 -2.09798 0
M  V30 5830 H 561.813 -4.74732 -0.98781 0
M  V30 5831 N 563.156 0.464375 -1.50603 0
M  V30 5832 C 564.119 1.54393 -1.69397 0
M  V30 5833 C 565.119 1.50566 -0.564504 0
M  V30 5834 O 566.309 1.53066 -0.831645 0
M  V30 5835 C 563.441 2.9401 -1.72543 0
M  V30 5836 H 564.634 1.39044 -2.65719 0
M  V30 5837 H 562.187 0.69122 -1.40185 0
M  V30 5838 H 562.922 3.14795 -0.77938 0
M  V30 5839 H 562.707 2.98195 -2.54602 0
M  V30 5840 H 564.197 3.72375 -1.89015 0
M  V30 5841 N 564.634 1.40294 0.718013 0
M  V30 5842 C 565.881 1.3844 1.47786 0
M  V30 5843 C 566.209 -0.0140838 1.94495 0
M  V30 5844 O 565.464 -0.998165 1.68331 0
M  V30 5845 C 565.763 2.31814 2.72024 0
M  V30 5846 C 565.429 3.79117 2.44093 0
M  V30 5847 C 564.091 4.19249 2.36185 0
M  V30 5848 C 566.443 4.72212 2.20602 0
M  V30 5849 C 563.771 5.50516 2.02851 0
M  V30 5850 C 566.123 6.03775 1.88781 0
M  V30 5851 C 564.787 6.42953 1.79354 0
M  V30 5852 H 564.057 0.506588 0.540786 0
M  V30 5853 H 566.704 1.72929 0.822663 0
M  V30 5854 H 565.009 1.90501 3.42369 0
M  V30 5855 H 566.706 2.27664 3.30106 0
M  V30 5856 H 563.296 3.47318 2.51133 0
M  V30 5857 H 567.48 4.42026 2.25669 0
M  V30 5858 H 562.736 5.79776 1.94088 0
M  V30 5859 H 566.91 6.75428 1.69617 0
M  V30 5860 H 564.537 7.44584 1.53291 0
M  V30 5861 N 566.112 -0.949982 1.2575 0
M  V30 5862 C 567.044 -2.05088 1.02331 0
M  V30 5863 C 568.057 -1.62795 -0.0133247 0
M  V30 5864 O 569.246 -1.77067 0.225759 0
M  V30 5865 C 566.346 -3.34794 0.525924 0
M  V30 5866 C 565.519 -4.05903 1.62978 0
M  V30 5867 C 564.578 -5.1388 1.13196 0
M  V30 5868 O 563.604 -5.39072 1.82729 0
M  V30 5869 N 564.806 -5.80495 -0.0242926 0
M  V30 5870 H 567.571 -2.25747 1.97125 0
M  V30 5871 H 565.132 -1.11886 1.17018 0
M  V30 5872 H 567.124 -4.04312 0.177263 0
M  V30 5873 H 565.694 -3.10872 -0.328202 0
M  V30 5874 H 564.914 -3.3042 2.1498 0
M  V30 5875 H 566.202 -4.50166 2.37124 0
M  V30 5876 H 565.6 -5.62454 -0.605184 0
M  V30 5877 H 564.157 -6.51043 -0.313947 0
M  V30 5878 N 567.59 -1.07411 -1.15328 0
M  V30 5879 C 568.537 -0.694995 -2.20087 0
M  V30 5880 C 569.507 0.313904 -1.63107 0
M  V30 5881 O 570.692 0.200216 -1.89747 0
M  V30 5882 C 567.832 -0.0996218 -3.44956 0
M  V30 5883 C 566.945 -1.16007 -4.16133 0
M  V30 5884 C 566.08 -0.529636 -5.28553 0
M  V30 5885 C 565.119 -1.57283 -5.91548 0
M  V30 5886 N 564.256 -0.964932 -6.95438 0
M  V30 5887 H 569.096 -1.5927 -2.51867 0
M  V30 5888 H 566.633 -0.796115 -1.23695 0
M  V30 5889 H 568.591 0.263197 -4.16369 0
M  V30 5890 H 567.221 0.761435 -3.13691 0
M  V30 5891 H 566.273 -1.64045 -3.4321 0
M  V30 5892 H 567.585 -1.95101 -4.59061 0
M  V30 5893 H 566.739 -0.114487 -6.06592 0
M  V30 5894 H 565.478 0.29307 -4.86819 0
M  V30 5895 H 564.483 -1.99775 -5.12221 0
M  V30 5896 H 565.708 -2.39783 -6.35359 0
M  V30 5897 H 563.654 -0.16314 -6.55797 0
M  V30 5898 H 563.571 -1.69311 -7.36797 0
M  V30 5899 H 564.839 -0.575305 -7.77374 0
M  V30 5900 N 569.068 1.32177 -0.85831 0
M  V30 5901 C 569.978 2.32561 -0.308606 0
M  V30 5902 C 570.994 1.64209 0.575462 0
M  V30 5903 O 572.17 1.95719 0.474961 0
M  V30 5904 C 569.235 3.43207 0.490909 0
M  V30 5905 C 568.296 4.27243 -0.419733 0
M  V30 5906 C 567.529 5.32605 0.341719 0
M  V30 5907 O 567.752 5.48332 1.57125 0
M  V30 5908 O 566.686 6.0118 -0.294379 0
M  V30 5909 H 570.512 2.81477 -1.14037 0
M  V30 5910 H 568.097 1.35866 -0.621349 0
M  V30 5911 H 569.979 4.10677 0.944574 0
M  V30 5912 H 568.654 2.96474 1.29941 0
M  V30 5913 H 567.561 3.62569 -0.921652 0
M  V30 5914 H 568.894 4.7751 -1.19352 0
M  V30 5915 N 570.547 0.616602 1.45037 0
M  V30 5916 C 571.479 -0.135186 2.28801 0
M  V30 5917 C 572.492 -0.82303 1.40464 0
M  V30 5918 O 573.681 -0.686909 1.64754 0
M  V30 5919 C 570.781 -1.21292 3.16451 0
M  V30 5920 C 569.954 -0.61043 4.3312 0
M  V30 5921 C 569.013 -1.58022 5.01912 0
M  V30 5922 O 568.039 -1.10301 5.58411 0
M  V30 5923 N 569.241 -2.91464 5.02025 0
M  V30 5924 H 572.006 0.583612 2.93963 0
M  V30 5925 H 569.567 0.456723 1.55324 0
M  V30 5926 H 571.559 -1.86169 3.59337 0
M  V30 5927 H 570.129 -1.83412 2.53138 0
M  V30 5928 H 569.349 0.216638 3.93604 0
M  V30 5929 H 570.637 -0.188293 5.08451 0
M  V30 5930 H 570.035 -3.32829 4.57429 0
M  V30 5931 H 568.592 -3.51741 5.48745 0
M  V30 5932 N 572.025 -1.5352 0.356285 0
M  V30 5933 C 572.972 -2.25439 -0.494569 0
M  V30 5934 C 573.942 -1.25752 -1.08516 0
M  V30 5935 O 575.127 -1.54513 -1.1194 0
M  V30 5936 C 572.267 -3.04011 -1.63313 0
M  V30 5937 C 571.38 -4.18574 -1.06862 0
M  V30 5938 C 570.515 -4.84607 -2.17552 0
M  V30 5939 C 569.554 -5.91218 -1.58518 0
M  V30 5940 N 568.691 -6.50979 -2.63003 0
M  V30 5941 H 573.531 -2.97737 0.125244 0
M  V30 5942 H 571.068 -1.46916 0.0735789 0
M  V30 5943 H 573.026 -3.47834 -2.30363 0
M  V30 5944 H 571.656 -2.33986 -2.22374 0
M  V30 5945 H 570.708 -3.79303 -0.288672 0
M  V30 5946 H 572.02 -4.95215 -0.596924 0
M  V30 5947 H 571.174 -5.31566 -2.92442 0
M  V30 5948 H 569.913 -4.07418 -2.6807 0
M  V30 5949 H 568.918 -5.4363 -0.821391 0
M  V30 5950 H 570.143 -6.70322 -1.08836 0
M  V30 5951 H 568.089 -5.76648 -3.12751 0
M  V30 5952 H 568.006 -7.23131 -2.20493 0
M  V30 5953 H 569.274 -7.02589 -3.37623 0
M  V30 5954 N 573.503 -0.0852151 -1.57369 0
M  V30 5955 C 574.433 0.874556 -2.16503 0
M  V30 5956 C 575.414 1.30111 -1.09568 0
M  V30 5957 O 576.599 1.36977 -1.37662 0
M  V30 5958 C 573.729 2.13731 -2.73745 0
M  V30 5959 C 572.683 1.84971 -3.85966 0
M  V30 5960 C 572.009 3.17991 -4.29867 0
M  V30 5961 C 573.309 1.14442 -5.09608 0
M  V30 5962 H 575.003 0.381899 -2.96954 0
M  V30 5963 H 572.549 0.18225 -1.42842 0
M  V30 5964 H 574.502 2.81302 -3.13763 0
M  V30 5965 H 573.226 2.65263 -1.90534 0
M  V30 5966 H 571.885 1.19801 -3.46473 0
M  V30 5967 H 571.533 3.6739 -3.4356 0
M  V30 5968 H 571.233 2.99534 -5.05523 0
M  V30 5969 H 572.757 3.86737 -4.72511 0
M  V30 5970 H 574.171 1.72105 -5.46857 0
M  V30 5971 H 572.568 1.06197 -5.90629 0
M  V30 5972 H 573.638 0.12559 -4.84737 0
M  V30 5973 N 574.981 1.5647 0.188427 0
M  V30 5974 C 575.928 1.95073 1.23349 0
M  V30 5975 C 576.898 0.812238 1.44886 0
M  V30 5976 O 578.083 1.07095 1.57909 0
M  V30 5977 C 575.223 2.30124 2.57171 0
M  V30 5978 C 574.336 3.57069 2.43157 0
M  V30 5979 C 573.471 3.81411 3.69729 0
M  V30 5980 C 572.51 5.0176 3.50575 0
M  V30 5981 N 571.647 5.22321 4.69175 0
M  V30 5982 H 576.487 2.84171 0.89728 0
M  V30 5983 H 574.024 1.40623 0.431683 0
M  V30 5984 H 575.982 2.48463 3.35145 0
M  V30 5985 H 574.612 1.44159 2.88822 0
M  V30 5986 H 573.664 3.4674 1.56447 0
M  V30 5987 H 574.976 4.452 2.24942 0
M  V30 5988 H 574.13 4.00026 4.56141 0
M  V30 5989 H 572.869 2.91624 3.90905 0
M  V30 5990 H 571.874 4.83061 2.62549 0
M  V30 5991 H 573.099 5.93063 3.30837 0
M  V30 5992 H 571.045 4.35483 4.90602 0
M  V30 5993 H 570.962 6.04643 4.53809 0
M  V30 5994 H 572.23 5.45401 5.56919 0
M  V30 5995 N 576.459 -0.456382 1.50847 0
M  V30 5996 C 577.699 -1.21704 1.64218 0
M  V30 5997 C 578.063 -1.88932 0.341859 0
M  V30 5998 O 579.264 -2.66497 0.351137 0
M  V30 5999 C 577.535 -2.22162 2.79962 0
M  V30 6000 S 579.094 -3.0697 3.13552 0
M  V30 6001 H 575.912 -0.412995 0.578754 0
M  V30 6002 H 578.514 -0.511637 1.88686 0
M  V30 6003 H 577.218 -1.71379 3.72904 0
M  V30 6004 H 576.749 -2.9731 2.57624 0
M  V30 6005 H 578.764 -4.23539 2.58513 0
M  V30 6006 N 577.937 -1.40673 -0.710563 0
M  V30 6007 C 578.847 -1.43663 -1.85467 0
M  V30 6008 C 579.863 -0.328721 -1.70867 0
M  V30 6009 O 581.039 -0.574098 -1.93044 0
M  V30 6010 C 578.104 -1.30226 -3.21313 0
M  V30 6011 C 577.165 -2.51204 -3.48131 0
M  V30 6012 C 576.398 -2.38398 -4.77495 0
M  V30 6013 O 576.621 -1.40048 -5.5294 0
M  V30 6014 O 575.555 -3.2787 -5.04762 0
M  V30 6015 H 579.381 -2.40156 -1.859 0
M  V30 6016 H 576.966 -1.22049 -0.861652 0
M  V30 6017 H 578.848 -1.2496 -4.02446 0
M  V30 6018 H 577.523 -0.368419 -3.21597 0
M  V30 6019 H 576.43 -2.62048 -2.66987 0
M  V30 6020 H 577.763 -3.43366 -3.52648 0
M  V30 6021 N 579.415 0.9433 -1.26252 0
M  V30 6022 C 580.655 1.70397 -1.1289 0
M  V30 6023 C 581.019 1.89268 0.322713 0
M  V30 6024 O 582.22 2.62503 0.578418 0
M  V30 6025 C 580.491 3.04296 -1.87453 0
M  V30 6026 S 582.05 3.95475 -1.90119 0
M  V30 6027 H 578.868 0.585559 -0.403289 0
M  V30 6028 H 581.47 1.12424 -1.59941 0
M  V30 6029 H 580.174 2.8824 -2.9214 0
M  V30 6030 H 579.705 3.67327 -1.40835 0
M  V30 6031 H 581.72 4.86297 -0.986373 0
M  V30 6032 N 580.893 1.08022 1.14757 0
M  V30 6033 C 581.825 0.664566 2.19354 0
M  V30 6034 C 582.838 -0.286374 1.60261 0
M  V30 6035 O 584.027 -0.0746362 1.78344 0
M  V30 6036 C 581.127 -0.0434634 3.38872 0
M  V30 6037 C 580.3 0.925381 4.27499 0
M  V30 6038 C 579.359 0.253398 5.2559 0
M  V30 6039 O 578.385 0.896581 5.62094 0
M  V30 6040 N 579.587 -0.998263 5.71852 0
M  V30 6041 H 582.352 1.56438 2.55631 0
M  V30 6042 H 579.913 0.965788 1.29939 0
M  V30 6043 H 581.905 -0.503857 4.01551 0
M  V30 6044 H 580.475 -0.845321 3.00954 0
M  V30 6045 H 579.695 1.56472 3.61815 0
M  V30 6046 H 580.983 1.58203 4.8358 0
M  V30 6047 H 580.381 -1.54063 5.44317 0
M  V30 6048 H 578.938 -1.40222 6.36538 0
M  V30 6049 N 582.371 -1.3172 0.865308 0
M  V30 6050 C 583.334 -2.26918 0.322627 0
M  V30 6051 C 584.334 -1.52031 -0.523751 0
M  V30 6052 O 585.524 -1.70973 -0.333727 0
M  V30 6053 C 582.656 -3.36558 -0.542338 0
M  V30 6054 H 583.849 -2.76432 1.16298 0
M  V30 6055 H 581.402 -1.42573 0.640512 0
M  V30 6056 H 582.137 -2.92329 -1.40407 0
M  V30 6057 H 581.922 -3.92048 0.0636395 0
M  V30 6058 H 583.412 -4.07465 -0.91446 0
M  V30 6059 N 583.85 -0.624285 -1.44708 0
M  V30 6060 C 584.779 0.0717025 -2.3339 0
M  V30 6061 C 585.76 0.841814 -1.47809 0
M  V30 6062 O 586.946 0.809056 -1.76544 0
M  V30 6063 C 584.076 1.05852 -3.30776 0
M  V30 6064 C 583.029 0.400503 -4.26122 0
M  V30 6065 C 582.356 1.49674 -5.13324 0
M  V30 6066 C 583.656 -0.688924 -5.17737 0
M  V30 6067 H 585.35 -0.668819 -2.91834 0
M  V30 6068 H 582.896 -0.32308 -1.40329 0
M  V30 6069 H 584.849 1.5541 -3.91696 0
M  V30 6070 H 583.572 1.82984 -2.70526 0
M  V30 6071 H 582.231 -0.0743687 -3.66525 0
M  V30 6072 H 581.88 2.25877 -4.49431 0
M  V30 6073 H 581.58 1.06188 -5.77926 0
M  V30 6074 H 583.104 1.99427 -5.77115 0
M  V30 6075 H 584.518 -0.276724 -5.72632 0
M  V30 6076 H 582.915 -1.04652 -5.90904 0
M  V30 6077 H 583.985 -1.55884 -4.5916 0
M  V30 6078 N 585.328 1.53329 -0.364422 0
M  V30 6079 C 586.258 2.28627 0.474543 0
M  V30 6080 C 587.239 1.31009 1.08492 0
M  V30 6081 O 588.424 1.59878 1.10239 0
M  V30 6082 C 585.554 3.07465 1.61501 0
M  V30 6083 C 584.508 4.1276 1.13194 0
M  V30 6084 C 583.834 4.79674 2.36255 0
M  V30 6085 C 585.134 5.21847 0.217507 0
M  V30 6086 H 586.828 2.99005 -0.153656 0
M  V30 6087 H 584.374 1.43803 -0.0753406 0
M  V30 6088 H 586.327 3.58889 2.20855 0
M  V30 6089 H 585.051 2.34775 2.27042 0
M  V30 6090 H 583.71 3.62281 0.56109 0
M  V30 6091 H 583.358 4.03557 3.00251 0
M  V30 6092 H 583.058 5.50827 2.04606 0
M  V30 6093 H 584.582 5.33892 2.96297 0
M  V30 6094 H 585.996 5.6878 0.718493 0
M  V30 6095 H 584.393 6.00099 -0.00806408 0
M  V30 6096 H 585.463 4.7921 -0.740653 0
M  V30 6097 N 586.806 0.0935595 1.57322 0
M  V30 6098 C 587.738 -0.895923 2.10964 0
M  V30 6099 C 588.751 -1.24705 1.04654 0
M  V30 6100 O 589.94 -1.20044 1.32105 0
M  V30 6101 C 587.04 -2.20546 2.57318 0
M  V30 6102 C 586.213 -2.0299 3.87445 0
M  V30 6103 C 585.272 -3.17443 4.19662 0
M  V30 6104 O 584.298 -2.91474 4.88909 0
M  V30 6105 N 585.5 -4.43168 3.74943 0
M  V30 6106 H 588.265 -0.437788 2.96485 0
M  V30 6107 H 585.826 -0.0915863 1.61641 0
M  V30 6108 H 587.818 -2.9606 2.75917 0
M  V30 6109 H 586.388 -2.57789 1.76816 0
M  V30 6110 H 585.608 -1.11815 3.78009 0
M  V30 6111 H 586.896 -1.88535 4.7258 0
M  V30 6112 H 586.294 -4.67149 3.19043 0
M  V30 6113 H 584.851 -5.15637 3.987 0
M  V30 6114 N 588.284 -1.56567 -0.180126 0
M  V30 6115 C 589.53 -1.81761 -0.899497 0
M  V30 6116 C 589.863 -0.670015 -1.82276 0
M  V30 6117 O 589.138 0.328575 -1.91705 0
M  V30 6118 C 589.421 -3.17296 -1.7028 0
M  V30 6119 C 589.274 -4.4257 -0.803255 0
M  V30 6120 C 590.593 -3.49678 -2.67233 0
M  V30 6121 H 587.712 -0.661192 -0.325567 0
M  V30 6122 H 590.354 -1.89272 -0.16612 0
M  V30 6123 H 588.504 -3.11023 -2.32802 0
M  V30 6124 H 590.176 -4.60902 -0.191585 0
M  V30 6125 H 588.419 -4.33658 -0.110796 0
M  V30 6126 H 589.09 -5.33935 -1.40064 0
M  V30 6127 H 591.566 -3.56347 -2.14839 0
M  V30 6128 H 590.442 -4.45605 -3.20511 0
M  V30 6129 H 590.703 -2.73932 -3.47007 0
M  V30 6130 N 589.762 0.448376 -1.51087 0
M  V30 6131 C 590.725 1.52588 -1.71025 0
M  V30 6132 C 591.725 1.49958 -0.580442 0
M  V30 6133 O 592.915 1.52176 -0.847833 0
M  V30 6134 C 590.047 2.92163 -1.75652 0
M  V30 6135 H 591.24 1.36218 -2.67179 0
M  V30 6136 H 588.793 0.676313 -1.4091 0
M  V30 6137 H 589.528 3.13951 -0.812724 0
M  V30 6138 H 589.313 2.95478 -2.57751 0
M  V30 6139 H 590.803 3.70349 -1.92953 0
M  V30 6140 N 591.24 1.41047 0.703093 0
M  V30 6141 C 592.187 1.42302 1.81711 0
M  V30 6142 C 593.157 0.278336 1.63751 0
M  V30 6143 O 594.342 0.478266 1.84709 0
M  V30 6144 C 591.482 1.30362 3.19531 0
M  V30 6145 C 590.595 2.54638 3.48975 0
M  V30 6146 C 589.73 2.35047 4.76368 0
M  V30 6147 C 588.769 3.54837 4.98756 0
M  V30 6148 N 587.906 3.34363 6.1737 0
M  V30 6149 H 592.746 2.37516 1.79973 0
M  V30 6150 H 590.283 1.1795 0.878983 0
M  V30 6151 H 592.241 1.21443 3.99134 0
M  V30 6152 H 590.871 0.387602 3.20464 0
M  V30 6153 H 589.923 2.74037 2.63833 0
M  V30 6154 H 591.235 3.43766 3.61423 0
M  V30 6155 H 590.389 2.23552 5.64012 0
M  V30 6156 H 589.128 1.43363 4.66153 0
M  V30 6157 H 588.133 3.66795 4.09563 0
M  V30 6158 H 589.358 4.47464 5.10835 0
M  V30 6159 H 587.304 2.45373 6.08382 0
M  V30 6160 H 587.221 4.17063 6.30551 0
M  V30 6161 H 588.489 3.26626 7.07768 0
M  V30 6162 N 592.718 -0.936591 1.26751 0
M  V30 6163 C 593.666 -2.0573 1.08527 0
M  V30 6164 C 594.66 -1.69397 0.0108784 0
M  V30 6165 O 595.866 -1.79215 0.167915 0
M  V30 6166 H 592.241 -0.673691 0.334133 0
M  V30 6167 H 594.212 -2.1825 2.03493 0
M  V30 6168 C 592.961 -3.39738 0.739845 0
M  V30 6169 H 592.284 -3.68174 1.55845 0
M  V30 6170 H 593.724 -4.18955 0.652149 0
M  V30 6171 C 592.183 -3.32292 -0.555288 0
M  V30 6172 O 592.713 -3.68794 -1.59229 0
M  V30 6173 N 590.919 -2.85394 -0.54762 0
M  V30 6174 H 590.466 -2.55886 0.296667 0
M  V30 6175 H 590.424 -2.80795 -1.41427 0
M  V30 6176 N 594.196 -1.08629 -1.14182 0
M  V30 6177 C 595.126 -0.740003 -2.21464 0
M  V30 6178 C 596.107 0.278591 -1.67803 0
M  V30 6179 O 597.292 0.148461 -1.93632 0
M  V30 6180 C 594.422 -0.150952 -3.46972 0
M  V30 6181 C 593.376 -1.09815 -4.13672 0
M  V30 6182 C 592.702 -0.3712 -5.3341 0
M  V30 6183 C 594.002 -2.43722 -4.61949 0
M  V30 6184 H 595.696 -1.63697 -2.50686 0
M  V30 6185 H 593.242 -0.788526 -1.20492 0
M  V30 6186 H 595.195 0.103325 -4.21273 0
M  V30 6187 H 593.919 0.781164 -3.1712 0
M  V30 6188 H 592.578 -1.33756 -3.41328 0
M  V30 6189 H 592.226 0.564792 -4.99819 0
M  V30 6190 H 591.926 -1.00267 -5.78982 0
M  V30 6191 H 593.45 -0.12503 -6.10472 0
M  V30 6192 H 594.864 -2.24034 -5.27714 0
M  V30 6193 H 593.261 -3.02582 -5.18232 0
M  V30 6194 H 594.331 -3.05082 -3.76899 0
M  V30 6195 N 595.674 1.31259 -0.872281 0
M  V30 6196 C 596.921 1.96622 -0.484365 0
M  V30 6197 C 597.249 1.68939 0.963841 0
M  V30 6198 O 596.504 0.97974 1.6941 0
M  V30 6199 C 596.803 3.50659 -0.690889 0
M  V30 6200 C 596.469 3.98366 -2.11224 0
M  V30 6201 C 595.131 4.11104 -2.50094 0
M  V30 6202 C 597.483 4.23425 -3.0391 0
M  V30 6203 C 594.811 4.46254 -3.80887 0
M  V30 6204 C 597.163 4.60039 -4.3422 0
M  V30 6205 C 595.827 4.70984 -4.73001 0
M  V30 6206 H 595.097 0.71949 -0.177242 0
M  V30 6207 H 597.744 1.56353 -1.10571 0
M  V30 6208 H 596.049 3.91798 0.0135782 0
M  V30 6209 H 597.746 3.99284 -0.370534 0
M  V30 6210 H 594.336 3.88949 -1.80047 0
M  V30 6211 H 598.52 4.13075 -2.75104 0
M  V30 6212 H 593.776 4.52926 -4.10692 0
M  V30 6213 H 597.95 4.78381 -5.06088 0
M  V30 6214 H 595.577 4.97977 -5.7439 0
M  V30 6215 N 597.152 0.631951 1.44375 0
M  V30 6216 C 598.38 0.143867 2.06399 0
M  V30 6217 C 598.795 -1.18188 1.47231 0
M  V30 6218 O 598.152 -1.72511 0.595498 0
M  V30 6219 C 598.203 0.0238253 3.61492 0
M  V30 6220 O 597.924 1.29715 4.18456 0
M  V30 6221 C 599.425 -0.492856 4.40552 0
M  V30 6222 H 596.645 0.0800542 0.666207 0
M  V30 6223 H 599.189 0.866586 1.85231 0
M  V30 6224 H 597.344 -0.649338 3.81919 0
M  V30 6225 H 597.758 1.14252 5.11905 0
M  V30 6226 H 599.232 -0.525861 5.49489 0
M  V30 6227 H 599.709 -1.52006 4.12057 0
M  V30 6228 H 600.315 0.147085 4.25046 0
M  V30 6229 N 598.631 -1.53133 0.372548 0
M  V30 6230 C 599.581 -2.22733 -0.487218 0
M  V30 6231 C 600.565 -1.22506 -1.04312 0
M  V30 6232 O 601.757 -1.47923 -0.972005 0
M  V30 6233 C 598.886 -3.02524 -1.62278 0
M  V30 6234 C 597.972 -4.10133 -1.07943 0
M  V30 6235 N 598.363 -5.05133 -0.259629 0
M  V30 6236 C 596.661 -4.24964 -1.35356 0
M  V30 6237 C 597.362 -5.81687 0.0386656 0
M  V30 6238 N 596.338 -5.40699 -0.560827 0
M  V30 6239 H 600.14 -2.93538 0.145853 0
M  V30 6240 H 597.654 -1.61389 0.180938 0
M  V30 6241 H 599.651 -3.50909 -2.25096 0
M  V30 6242 H 598.311 -2.33252 -2.25884 0
M  V30 6243 H 599.322 -5.178 0.101746 0
M  V30 6244 H 595.999 -3.66919 -1.9919 0
M  V30 6245 H 597.389 -6.68224 0.701841 0
M  V30 6246 N 600.109 -0.101901 -1.5727 0
M  V30 6247 C 601.039 0.851544 -2.17419 0
M  V30 6248 C 602.02 1.28942 -1.10941 0
M  V30 6249 O 603.205 1.35509 -1.39107 0
M  V30 6250 C 600.335 2.10816 -2.75996 0
M  V30 6251 C 599.289 1.80867 -3.87906 0
M  V30 6252 C 598.615 3.13413 -4.33216 0
M  V30 6253 C 599.915 1.0903 -5.10793 0
M  V30 6254 H 601.609 0.350381 -2.97343 0
M  V30 6255 H 599.155 0.16709 -1.43027 0
M  V30 6256 H 601.108 2.77959 -3.16729 0
M  V30 6257 H 599.832 2.63227 -1.93337 0
M  V30 6258 H 598.491 1.16119 -3.47724 0
M  V30 6259 H 598.139 3.63725 -3.47438 0
M  V30 6260 H 597.839 2.94155 -5.08671 0
M  V30 6261 H 599.363 3.81704 -4.76586 0
M  V30 6262 H 600.777 1.66295 -5.48652 0
M  V30 6263 H 599.174 0.99927 -5.91722 0
M  V30 6264 H 600.244 0.0741704 -4.84843 0
M  V30 6265 N 601.587 1.56661 0.17182 0
M  V30 6266 C 602.864 1.72838 0.915778 0
M  V30 6267 C 603.244 0.66316 2.00413 0
M  V30 6268 O 602.592 -0.322123 2.26218 0
M  V30 6269 C 602.802 3.16019 1.48097 0
M  V30 6270 C 604.15 3.76962 1.95408 0
M  V30 6271 O 605.174 3.19294 1.57892 0
M  V30 6272 O 604.033 4.78219 2.64516 0
M  V30 6273 H 601.127 0.705797 0.431021 0
M  V30 6274 H 603.673 1.68947 0.159689 0
M  V30 6275 H 602.445 3.85031 0.697618 0
M  V30 6276 H 602.068 3.24234 2.30126 0
M  V30 6277 N 603.065 -0.440357 1.51323 0
M  V30 6278 C 604.342 -1.20109 1.5438 0
M  V30 6279 C 604.722 -2.08866 0.306303 0
M  V30 6280 O 604.07 -2.1723 -0.708773 0
M  V30 6281 C 604.28 -2.00555 2.8562 0
M  V30 6282 C 605.628 -2.577 3.37455 0
M  V30 6283 O 606.652 -2.10769 2.8715 0
M  V30 6284 O 605.511 -3.43289 4.25224 0
M  V30 6285 H 602.605 -0.546668 0.620551 0
M  V30 6286 H 605.151 -0.449672 1.63634 0
M  V30 6287 H 603.923 -1.35346 3.67147 0
M  V30 6288 H 603.546 -2.82768 2.79514 0
M  V30 6289 N 604.543 -1.41418 -0.695603 0
M  V30 6290 C 605.789 -1.40982 -1.4578 0
M  V30 6291 C 606.122 -0.0187763 -1.94191 0
M  V30 6292 O 605.397 0.95346 -1.69527 0
M  V30 6293 C 605.68 -2.41657 -2.66972 0
M  V30 6294 C 605.533 -3.89869 -2.24327 0
M  V30 6295 C 606.852 -2.39589 -3.69168 0
M  V30 6296 H 603.971 -0.513405 -0.528757 0
M  V30 6297 H 606.613 -1.72693 -0.792275 0
M  V30 6298 H 604.763 -2.14746 -3.23754 0
M  V30 6299 H 606.435 -4.27683 -1.72872 0
M  V30 6300 H 604.678 -4.04737 -1.56111 0
M  V30 6301 H 605.349 -4.55857 -3.11285 0
M  V30 6302 H 607.825 -2.63471 -3.2206 0
M  V30 6303 H 606.701 -3.12044 -4.51575 0
M  V30 6304 H 606.962 -1.41447 -4.18862 0
M  V30 6305 N 606.021 0.929856 -1.27246 0
M  V30 6306 C 607.246 1.71674 -1.16374 0
M  V30 6307 C 607.671 1.86064 0.276024 0
M  V30 6308 O 607.029 1.3591 1.19992 0
M  V30 6309 C 607.077 3.09526 -1.85003 0
M  V30 6310 O 606.181 3.96142 -1.14653 0
M  V30 6311 H 605.522 0.52629 -0.404863 0
M  V30 6312 H 608.052 1.16381 -1.68276 0
M  V30 6313 H 608.062 3.59852 -1.92276 0
M  V30 6314 H 606.737 2.98369 -2.89739 0
M  V30 6315 H 605.314 3.54584 -1.15433 0
M  V30 6316 N 607.499 1.09233 1.13605 0
M  V30 6317 C 608.745 0.828385 1.8511 0
M  V30 6318 C 609.078 -0.64437 1.83198 0
M  V30 6319 O 608.353 -1.47428 1.26867 0
M  V30 6320 C 608.636 1.36167 3.33363 0
M  V30 6321 C 608.489 2.90038 3.438 0
M  V30 6322 C 609.808 0.993819 4.28732 0
M  V30 6323 H 606.927 0.30239 0.672108 0
M  V30 6324 H 609.569 1.35339 1.33355 0
M  V30 6325 H 607.719 0.9151 3.77569 0
M  V30 6326 H 609.391 3.43128 3.08319 0
M  V30 6327 H 607.634 3.27271 2.84739 0
M  V30 6328 H 608.305 3.22428 4.48045 0
M  V30 6329 H 610.781 1.37893 3.92587 0
M  V30 6330 H 609.657 1.39403 5.30903 0
M  V30 6331 H 609.918 -0.0982206 4.41991 0
M  V30 6332 N 608.977 -1.30795 0.87923 0
M  V30 6333 C 609.907 -2.30742 0.357796 0
M  V30 6334 C 610.888 -1.60747 -0.556283 0
M  V30 6335 O 612.073 -1.88393 -0.47135 0
M  V30 6336 C 609.203 -3.44583 -0.433555 0
M  V30 6337 C 608.157 -4.26235 0.388251 0
M  V30 6338 C 607.483 -5.32073 -0.529352 0
M  V30 6339 C 608.783 -4.96303 1.62729 0
M  V30 6340 H 610.477 -2.74605 1.19299 0
M  V30 6341 H 608.023 -1.32017 0.575104 0
M  V30 6342 H 609.976 -4.13563 -0.808934 0
M  V30 6343 H 608.7 -2.99511 -1.30234 0
M  V30 6344 H 607.359 -3.58936 0.745695 0
M  V30 6345 H 607.007 -4.83249 -1.39569 0
M  V30 6346 H 606.707 -5.87598 0.0166741 0
M  V30 6347 H 608.231 -6.0391 -0.901373 0
M  V30 6348 H 609.645 -5.5783 1.32283 0
M  V30 6349 H 608.042 -5.61666 2.11309 0
M  V30 6350 H 609.112 -4.22758 2.37494 0
M  V30 6351 N 610.455 -0.639598 -1.44038 0
M  V30 6352 C 611.385 0.0469443 -2.33453 0
M  V30 6353 C 612.366 0.82609 -1.48694 0
M  V30 6354 O 613.551 0.790285 -1.77393 0
M  V30 6355 C 610.681 1.02338 -3.3188 0
M  V30 6356 C 609.635 0.355284 -4.26523 0
M  V30 6357 C 608.961 1.44221 -5.14883 0
M  V30 6358 C 610.261 -0.743798 -5.16977 0
M  V30 6359 H 611.955 -0.699735 -2.91108 0
M  V30 6360 H 609.501 -0.337946 -1.39978 0
M  V30 6361 H 611.454 1.51247 -3.93322 0
M  V30 6362 H 610.178 1.80105 -2.72451 0
M  V30 6363 H 608.837 -0.113239 -3.66425 0
M  V30 6364 H 608.485 2.21097 -4.51802 0
M  V30 6365 H 608.185 1.00052 -5.79019 0
M  V30 6366 H 609.709 1.93295 -5.79197 0
M  V30 6367 H 611.123 -0.337444 -5.72306 0
M  V30 6368 H 609.52 -1.10914 -5.89761 0
M  V30 6369 H 610.59 -1.60745 -4.57481 0
M  V30 6370 N 611.933 1.52934 -0.380664 0
M  V30 6371 C 612.865 2.23822 0.493581 0
M  V30 6372 C 613.878 1.25761 1.03383 0
M  V30 6373 O 615.067 1.5189 0.937633 0
M  V30 6374 C 612.167 2.9342 1.69582 0
M  V30 6375 C 611.34 4.18115 1.28445 0
M  V30 6376 C 610.399 4.70788 2.35042 0
M  V30 6377 O 609.425 5.34093 1.96807 0
M  V30 6378 N 610.627 4.49899 3.66839 0
M  V30 6379 H 613.392 2.99484 -0.11371 0
M  V30 6380 H 610.953 1.60577 -0.206587 0
M  V30 6381 H 612.945 3.2556 2.40401 0
M  V30 6382 H 611.515 2.21119 2.20965 0
M  V30 6383 H 610.735 3.92109 0.405503 0
M  V30 6384 H 612.023 4.99152 0.986132 0
M  V30 6385 H 611.421 3.99349 4.0067 0
M  V30 6386 H 609.978 4.86551 4.33718 0
M  V30 6387 N 613.412 0.11024 1.57214 0
M  V30 6388 C 614.322 -0.857077 2.18383 0
M  V30 6389 C 615.338 -1.29915 1.1575 0
M  V30 6390 O 616.514 -1.36394 1.48184 0
M  V30 6391 C 613.579 -2.09264 2.76423 0
M  V30 6392 C 612.64 -1.70333 3.94063 0
M  V30 6393 C 611.873 -2.87999 4.49324 0
M  V30 6394 O 612.096 -4.0317 4.03497 0
M  V30 6395 O 611.03 -2.6559 5.40135 0
M  V30 6396 H 614.856 -0.366561 3.0148 0
M  V30 6397 H 612.441 -0.114914 1.48957 0
M  V30 6398 H 614.323 -2.81644 3.13456 0
M  V30 6399 H 612.998 -2.57339 1.96363 0
M  V30 6400 H 611.905 -0.950864 3.61814 0
M  V30 6401 H 613.238 -1.27007 4.75531 0
M  V30 6402 N 614.89 -1.56749 -0.16351 0
M  V30 6403 C 616.139 -1.81626 -0.877211 0
M  V30 6404 C 616.452 -0.688791 -1.83071 0
M  V30 6405 O 617.658 -0.822697 -2.58735 0
M  V30 6406 C 616.114 -3.21858 -1.61045 0
M  V30 6407 C 615.722 -4.42494 -0.700195 0
M  V30 6408 C 617.466 -3.56021 -2.31192 0
M  V30 6409 C 615.373 -5.73748 -1.43412 0
M  V30 6410 H 614.303 -0.67731 -0.331312 0
M  V30 6411 H 616.954 -1.83039 -0.13006 0
M  V30 6412 H 615.336 -3.14784 -2.40264 0
M  V30 6413 H 616.51 -4.60766 0.0555849 0
M  V30 6414 H 614.825 -4.1626 -0.10799 0
M  V30 6415 H 617.422 -4.51333 -2.8671 0
M  V30 6416 H 617.765 -2.81277 -3.06902 0
M  V30 6417 H 618.298 -3.64682 -1.58909 0
M  V30 6418 H 615.037 -6.51543 -0.719186 0
M  V30 6419 H 614.557 -5.5944 -2.16302 0
M  V30 6420 H 616.236 -6.15975 -1.9795 0
M  V30 6421 N 616.368 0.432326 -1.51554 0
M  V30 6422 C 617.617 1.17831 -1.63703 0
M  V30 6423 C 617.93 1.92229 -0.36156 0
M  V30 6424 O 619.136 2.69069 -0.362495 0
M  V30 6425 C 617.592 2.14318 -2.89129 0
M  V30 6426 C 617.2 1.45544 -4.23699 0
M  V30 6427 C 618.944 2.89319 -3.10636 0
M  V30 6428 C 616.851 2.40545 -5.4027 0
M  V30 6429 H 615.781 0.443533 -0.60975 0
M  V30 6430 H 618.432 0.444878 -1.78026 0
M  V30 6431 H 616.814 2.91117 -2.68452 0
M  V30 6432 H 617.988 0.742693 -4.54775 0
M  V30 6433 H 616.303 0.826772 -4.0811 0
M  V30 6434 H 618.9 3.60495 -3.94902 0
M  V30 6435 H 619.243 3.50951 -2.23918 0
M  V30 6436 H 619.776 2.19625 -3.31677 0
M  V30 6437 H 616.515 1.83594 -6.29264 0
M  V30 6438 H 616.035 3.09859 -5.13563 0
M  V30 6439 H 617.714 3.01569 -5.72421 0
M  V30 6440 N 617.846 1.41785 0.688094 0
M  V30 6441 C 619.074 1.44915 1.47673 0
M  V30 6442 C 619.489 0.0565786 1.88715 0
M  V30 6443 O 618.846 -0.92579 1.57275 0
M  V30 6444 C 618.897 2.36452 2.73446 0
M  V30 6445 O 618.618 3.7029 2.34131 0
M  V30 6446 C 620.119 2.48463 3.67125 0
M  V30 6447 H 617.339 0.493324 0.454832 0
M  V30 6448 H 619.883 1.86153 0.846594 0
M  V30 6449 H 618.038 1.98502 3.3268 0
M  V30 6450 H 618.452 4.19183 3.15255 0
M  V30 6451 H 619.926 3.16662 4.52138 0
M  V30 6452 H 620.403 1.51826 4.12123 0
M  V30 6453 H 621.009 2.8708 3.13792 0
M  V30 6454 N 619.324 -0.923095 1.27737 0
M  V30 6455 C 620.234 -2.05765 1.12685 0
M  V30 6456 C 621.25 -1.73911 0.0557197 0
M  V30 6457 O 622.426 -1.99674 0.263137 0
M  V30 6458 C 619.491 -3.37804 0.780363 0
M  V30 6459 C 618.552 -3.83326 1.93286 0
M  V30 6460 C 617.785 -5.09064 1.60281 0
M  V30 6461 O 618.008 -5.6809 0.512828 0
M  V30 6462 O 616.942 -5.50071 2.44347 0
M  V30 6463 H 620.768 -2.21378 2.07907 0
M  V30 6464 H 618.353 -1.04299 1.06968 0
M  V30 6465 H 620.235 -4.17097 0.600668 0
M  V30 6466 H 618.91 -3.23387 -0.142291 0
M  V30 6467 H 617.817 -3.049 2.16764 0
M  V30 6468 H 619.15 -4.02292 2.83588 0
M  V30 6469 N 620.802 -1.09834 -1.13024 0
M  V30 6470 C 621.765 -0.745058 -2.16752 0
M  V30 6471 C 622.765 0.227435 -1.59183 0
M  V30 6472 O 623.955 0.0050786 -1.74199 0
M  V30 6473 C 621.087 -0.102543 -3.40746 0
M  V30 6474 H 622.28 -1.66375 -2.49518 0
M  V30 6475 H 619.833 -0.898061 -1.27924 0
M  V30 6476 H 620.568 0.827177 -3.13573 0
M  V30 6477 H 620.353 -0.80235 -3.83803 0
M  V30 6478 H 621.843 0.129082 -4.174 0
M  V30 6479 N 622.28 1.30327 -0.886154 0
M  V30 6480 C 623.696 1.48676 -0.580323 0
M  V30 6481 C 623.896 1.81189 0.881639 0
M  V30 6482 O 622.952 1.90021 1.66278 0
M  V30 6483 C 624.265 2.60932 -1.49449 0
M  V30 6484 C 625.813 2.74812 -1.49824 0
M  V30 6485 C 626.288 3.90183 -2.39836 0
M  V30 6486 N 627.779 3.97495 -2.37806 0
M  V30 6487 C 628.514 4.86078 -3.04165 0
M  V30 6488 N 628.01 5.79448 -3.79753 0
M  V30 6489 N 629.803 4.79456 -2.93391 0
M  V30 6490 H 621.954 1.07495 -1.8319 0
M  V30 6491 H 624.217 0.532661 -0.784204 0
M  V30 6492 H 623.923 2.43731 -2.5355 0
M  V30 6493 H 623.797 3.57437 -1.20494 0
M  V30 6494 H 626.184 2.91418 -0.464731 0
M  V30 6495 H 626.265 1.78924 -1.82811 0
M  V30 6496 H 625.909 3.74334 -3.43273 0
M  V30 6497 H 625.839 4.85411 -2.04166 0
M  V30 6498 H 628.33 3.30703 -1.82877 0
M  V30 6499 H 628.643 6.43805 -4.27475 0
M  V30 6500 H 626.988 5.79376 -3.8386 0
M  V30 6501 H 630.179 4.05494 -2.33864 0
M  V30 6502 H 630.352 5.48283 -3.45383 0
M  V30 6503 N 623.758 0.647228 1.43697 0
M  V30 6504 C 624.706 -0.0600105 2.32523 0
M  V30 6505 C 625.7 -0.819277 1.48271 0
M  V30 6506 O 626.906 -0.730356 1.64517 0
M  V30 6507 H 623.281 -0.0381872 0.75103 0
M  V30 6508 H 625.252 0.706978 2.89904 0
M  V30 6509 C 624.001 -1.0169 3.32497 0
M  V30 6510 H 623.324 -0.442083 3.97348 0
M  V30 6511 H 624.764 -1.48095 3.97296 0
M  V30 6512 C 623.223 -2.11002 2.6264 0
M  V30 6513 O 623.753 -3.19302 2.4374 0
M  V30 6514 N 621.959 -1.87388 2.22113 0
M  V30 6515 H 621.506 -0.993174 2.37684 0
M  V30 6516 H 621.464 -2.60723 1.75701 0
M  V30 6517 N 625.236 -1.5273 0.388769 0
M  V30 6518 C 626.166 -2.29353 -0.438111 0
M  V30 6519 C 627.147 -1.32719 -1.06394 0
M  V30 6520 O 628.332 -1.61612 -1.07681 0
M  V30 6521 C 625.462 -3.09995 -1.56589 0
M  V30 6522 C 624.416 -4.14509 -1.06613 0
M  V30 6523 C 623.742 -4.83372 -2.28594 0
M  V30 6524 C 625.042 -5.22127 -0.134459 0
M  V30 6525 H 626.736 -2.98723 0.201206 0
M  V30 6526 H 624.282 -1.43665 0.0982089 0
M  V30 6527 H 626.235 -3.62357 -2.15118 0
M  V30 6528 H 624.959 -2.38357 -2.23279 0
M  V30 6529 H 623.618 -3.63128 -0.503383 0
M  V30 6530 H 623.266 -4.08283 -2.93792 0
M  V30 6531 H 622.966 -5.54012 -1.95817 0
M  V30 6532 H 624.49 -5.38538 -2.87766 0
M  V30 6533 H 625.904 -5.69851 -0.627914 0
M  V30 6534 H 624.301 -6.00011 0.103534 0
M  V30 6535 H 625.371 -4.77971 0.816798 0
M  V30 6536 N 626.714 -0.118576 -1.57153 0
M  V30 6537 C 627.939 0.550582 -1.99958 0
M  V30 6538 C 628.364 1.59458 -0.997736 0
M  V30 6539 O 627.722 1.81274 0.0306269 0
M  V30 6540 C 627.77 1.15379 -3.41643 0
M  V30 6541 O 626.874 2.26932 -3.44348 0
M  V30 6542 H 626.215 0.137567 -0.649593 0
M  V30 6543 H 628.745 -0.206926 -2.03551 0
M  V30 6544 H 628.755 1.48942 -3.79843 0
M  V30 6545 H 627.43 0.389087 -4.14076 0
M  V30 6546 H 626.007 1.94812 -3.17967 0
M  V30 6547 N 628.193 1.56834 0.155195 0
M  V30 6548 C 629.141 1.98584 1.21107 0
M  V30 6549 C 630.135 0.876987 1.44932 0
M  V30 6550 O 631.341 1.06215 1.45322 0
M  V30 6551 H 627.716 0.632039 0.407469 0
M  V30 6552 H 629.687 2.86561 0.832195 0
M  V30 6553 C 628.436 2.37555 2.53895 0
M  V30 6554 H 627.759 3.22428 2.3639 0
M  V30 6555 H 629.199 2.70598 3.26424 0
M  V30 6556 C 627.658 1.22507 3.13837 0
M  V30 6557 O 628.188 0.521388 3.98302 0
M  V30 6558 N 626.394 0.991444 2.73164 0
M  V30 6559 H 625.941 1.56544 2.04577 0
M  V30 6560 H 625.899 0.223546 3.13604 0
M  V30 6561 N 629.671 -0.424282 1.51781 0
M  V30 6562 C 630.634 -1.49848 1.73431 0
M  V30 6563 C 631.634 -1.49016 0.604225 0
M  V30 6564 O 632.824 -1.50808 0.871935 0
M  V30 6565 C 629.956 -2.89332 1.80277 0
M  V30 6566 H 631.149 -1.3195 2.69312 0
M  V30 6567 H 628.702 -0.653809 1.41968 0
M  V30 6568 H 629.437 -3.12618 0.862568 0
M  V30 6569 H 629.222 -2.9134 2.62419 0
M  V30 6570 H 630.712 -3.67233 1.98821 0
M  V30 6571 N 631.149 -1.42148 -0.680565 0
M  V30 6572 C 632.059 -1.47565 -1.82378 0
M  V30 6573 C 633.075 -0.36489 -1.70131 0
M  V30 6574 O 634.251 -0.614916 -1.91783 0
M  V30 6575 C 631.316 -1.37013 -3.18478 0
M  V30 6576 C 630.377 -2.58532 -3.42724 0
M  V30 6577 C 629.61 -2.48473 -4.72331 0
M  V30 6578 O 629.833 -1.51745 -5.49845 0
M  V30 6579 O 628.767 -3.38503 -4.97694 0
M  V30 6580 H 632.593 -2.44045 -1.80764 0
M  V30 6581 H 630.178 -1.23849 -0.835569 0
M  V30 6582 H 632.06 -1.33468 -3.99705 0
M  V30 6583 H 630.735 -0.436552 -3.20743 0
M  V30 6584 H 629.642 -2.67652 -2.61368 0
M  V30 6585 H 630.975 -3.50769 -3.45286 0
M  V30 6586 N 632.627 0.916307 -1.28225 0
M  V30 6587 C 633.876 1.65975 -1.14608 0
M  V30 6588 C 634.189 1.93204 0.305191 0
M  V30 6589 O 635.395 2.65611 0.562432 0
M  V30 6590 C 633.851 2.98989 -2.00333 0
M  V30 6591 C 633.459 2.79417 -3.50186 0
M  V30 6592 C 635.203 3.76856 -1.95397 0
M  V30 6593 C 633.11 4.08056 -4.28071 0
M  V30 6594 H 632.04 0.622587 -0.425324 0
M  V30 6595 H 634.691 1.01705 -1.52736 0
M  V30 6596 H 633.073 3.6438 -1.5506 0
M  V30 6597 H 634.247 2.22723 -4.034 0
M  V30 6598 H 632.562 2.14966 -3.56621 0
M  V30 6599 H 635.159 4.72203 -2.50856 0
M  V30 6600 H 635.502 4.05776 -0.930137 0
M  V30 6601 H 636.035 3.1828 -2.38626 0
M  V30 6602 H 632.774 3.8431 -5.31024 0
M  V30 6603 H 632.294 4.64371 -3.79631 0
M  V30 6604 H 633.973 4.76333 -4.37854 0
M  V30 6605 N 634.105 1.10431 1.1244 0
M  V30 6606 C 635.345 0.856518 1.85589 0
M  V30 6607 C 635.709 -0.606905 1.82156 0
M  V30 6608 O 636.91 -0.97105 2.50647 0
M  V30 6609 C 635.181 1.38977 3.29272 0
M  V30 6610 S 636.74 1.27739 4.19795 0
M  V30 6611 H 633.558 0.309509 0.640098 0
M  V30 6612 H 636.16 1.40975 1.35449 0
M  V30 6613 H 634.864 2.44887 3.2933 0
M  V30 6614 H 634.395 0.833112 3.84477 0
M  V30 6615 H 636.41 0.235051 4.95643 0
M  V30 6616 N 635.583 -1.29855 0.893053 0
M  V30 6617 C 636.808 -2.00512 0.530066 0
M  V30 6618 C 637.233 -1.66446 -0.876199 0
M  V30 6619 O 636.591 -0.885446 -1.58207 0
M  V30 6620 C 636.639 -3.53308 0.721505 0
M  V30 6621 O 635.743 -4.11764 -0.228994 0
M  V30 6622 H 635.084 -0.630617 0.207891 0
M  V30 6623 H 637.614 -1.6551 1.20282 0
M  V30 6624 H 637.624 -4.03206 0.623599 0
M  V30 6625 H 636.299 -3.77439 1.74678 0
M  V30 6626 H 634.876 -3.72805 -0.0841034 0
M  V30 6627 N 637.061 -0.65484 -1.43351 0
M  V30 6628 C 638.307 -0.169142 -2.02093 0
M  V30 6629 C 638.64 1.21431 -1.51553 0
M  V30 6630 O 637.915 1.81105 -0.709317 0
M  V30 6631 C 638.198 -0.181775 -3.59641 0
M  V30 6632 C 638.051 -1.59926 -4.20409 0
M  V30 6633 C 639.37 0.480945 -4.37464 0
M  V30 6634 H 636.489 -0.0629371 -0.734308 0
M  V30 6635 H 639.131 -0.835833 -1.70628 0
M  V30 6636 H 637.281 0.385918 -3.86578 0
M  V30 6637 H 638.953 -2.21766 -4.04497 0
M  V30 6638 H 637.196 -2.14605 -3.76998 0
M  V30 6639 H 637.867 -1.55994 -5.295 0
M  V30 6640 H 640.343 -0.00208273 -4.161 0
M  V30 6641 H 639.219 0.441384 -5.47122 0
M  V30 6642 H 639.48 1.55533 -4.13838 0
M  V30 6643 N 638.539 1.52521 -0.396863 0
M  V30 6644 C 639.786 2.01672 0.182898 0
M  V30 6645 C 640.114 1.28302 1.46181 0
M  V30 6646 O 639.369 0.374118 1.92091 0
M  V30 6647 C 639.668 3.5403 0.489677 0
M  V30 6648 C 639.334 4.45456 -0.698581 0
M  V30 6649 C 637.996 4.70166 -1.02454 0
M  V30 6650 C 640.348 4.99354 -1.49316 0
M  V30 6651 C 637.676 5.46024 -2.1465 0
M  V30 6652 C 640.028 5.76439 -2.60579 0
M  V30 6653 C 638.692 5.99426 -2.93675 0
M  V30 6654 H 637.962 0.737971 0.066927 0
M  V30 6655 H 640.609 1.83853 -0.535764 0
M  V30 6656 H 638.914 3.69963 1.28976 0
M  V30 6657 H 640.611 3.8956 0.951018 0
M  V30 6658 H 637.201 4.26392 -0.434525 0
M  V30 6659 H 641.385 4.80182 -1.25457 0
M  V30 6660 H 636.641 5.62046 -2.40654 0
M  V30 6661 H 640.815 6.17202 -3.22544 0
M  V30 6662 H 638.442 6.57988 -3.80731 0
M  V30 6663 N 640.017 0.126909 1.57088 0
M  V30 6664 C 640.947 -0.816847 2.18746 0
M  V30 6665 C 641.928 -1.27161 1.12979 0
M  V30 6666 O 643.113 -1.33279 1.41246 0
M  V30 6667 C 640.243 -2.06398 2.79315 0
M  V30 6668 C 639.197 -1.74673 3.90735 0
M  V30 6669 C 638.523 -3.06482 4.38147 0
M  V30 6670 C 639.823 -1.0089 5.12463 0
M  V30 6671 H 641.517 -0.303032 2.97863 0
M  V30 6672 H 639.063 -0.144314 1.43275 0
M  V30 6673 H 641.016 -2.72885 3.2111 0
M  V30 6674 H 639.74 -2.60118 1.975 0
M  V30 6675 H 638.399 -1.10572 3.49527 0
M  V30 6676 H 638.047 -3.58152 3.5318 0
M  V30 6677 H 637.747 -2.86025 5.13287 0
M  V30 6678 H 639.271 -3.74073 4.82599 0
M  V30 6679 H 640.685 -1.57546 5.51228 0
M  V30 6680 H 639.082 -0.905006 5.93237 0
M  V30 6681 H 640.152 0.00297335 4.849 0
M  V30 6682 N 641.495 -1.56914 -0.146875 0
M  V30 6683 C 642.425 -2.01308 -1.1831 0
M  V30 6684 C 643.406 -0.892664 -1.44795 0
M  V30 6685 O 644.591 -1.16048 -1.55713 0
M  V30 6686 C 641.721 -2.3938 -2.51624 0
M  V30 6687 C 640.675 -3.54608 -2.3966 0
M  V30 6688 C 640.001 -3.78493 -3.77686 0
M  V30 6689 C 641.301 -4.87269 -1.88058 0
M  V30 6690 H 642.995 -2.88123 -0.813964 0
M  V30 6691 H 640.541 -1.38615 -0.3901 0
M  V30 6692 H 642.494 -2.69037 -3.24341 0
M  V30 6693 H 641.218 -1.49502 -2.90373 0
M  V30 6694 H 639.877 -3.25116 -1.69396 0
M  V30 6695 H 639.525 -2.85866 -4.13871 0
M  V30 6696 H 639.225 -4.56039 -3.70543 0
M  V30 6697 H 640.749 -4.10576 -4.51951 0
M  V30 6698 H 642.163 -5.15644 -2.50568 0
M  V30 6699 H 640.56 -5.68622 -1.91805 0
M  V30 6700 H 641.63 -4.77634 -0.836277 0
M  V30 6701 N 642.974 0.416227 -1.52004 0
M  V30 6702 C 644.251 1.17637 -1.56272 0
M  V30 6703 C 644.631 2.08352 -0.339493 0
M  V30 6704 O 643.979 2.1833 0.674124 0
M  V30 6705 C 644.189 1.95986 -2.88774 0
M  V30 6706 C 645.537 2.52299 -3.41512 0
M  V30 6707 O 646.561 2.06174 -2.90467 0
M  V30 6708 O 645.42 3.3648 -4.30631 0
M  V30 6709 H 642.514 0.536726 -0.629169 0
M  V30 6710 H 645.06 0.423583 -1.64329 0
M  V30 6711 H 643.832 1.29487 -3.69254 0
M  V30 6712 H 643.455 2.78285 -2.83978 0
M  V30 6713 N 644.452 1.42507 0.673017 0
M  V30 6714 C 645.384 1.42074 1.79854 0
M  V30 6715 C 646.397 0.319569 1.59633 0
M  V30 6716 O 647.586 0.582769 1.68719 0
M  V30 6717 C 644.686 1.19886 3.16987 0
M  V30 6718 C 643.859 2.42471 3.64042 0
M  V30 6719 C 642.918 2.15802 4.79913 0
M  V30 6720 O 641.944 2.89015 4.90366 0
M  V30 6721 N 643.146 1.16225 5.68746 0
M  V30 6722 H 645.911 2.3909 1.8071 0
M  V30 6723 H 643.472 1.37409 0.856171 0
M  V30 6724 H 645.464 0.999591 3.92161 0
M  V30 6725 H 644.034 0.313879 3.1102 0
M  V30 6726 H 643.254 2.77954 2.79526 0
M  V30 6727 H 644.542 3.24097 3.92223 0
M  V30 6728 H 643.94 0.556756 5.62954 0
M  V30 6729 H 642.497 1.02285 6.43724 0
M  V30 6730 N 645.93 -0.909495 1.28709 0
M  V30 6731 C 646.878 -2.03381 1.12866 0
M  V30 6732 C 647.872 -1.69335 0.0468074 0
M  V30 6733 O 649.078 -1.78819 0.205891 0
M  V30 6734 H 645.453 -0.666452 0.348348 0
M  V30 6735 H 647.424 -2.13885 2.08077 0
M  V30 6736 C 646.173 -3.38092 0.811742 0
M  V30 6737 H 645.496 -3.64786 1.63619 0
M  V30 6738 H 646.936 -4.17477 0.740869 0
M  V30 6739 C 645.395 -3.33395 -0.484679 0
M  V30 6740 O 645.925 -3.72089 -1.5137 0
M  V30 6741 N 644.131 -2.86491 -0.486961 0
M  V30 6742 H 643.678 -2.55199 0.350877 0
M  V30 6743 H 643.636 -2.83731 -1.3544 0
M  V30 6744 N 647.408 -1.11026 -1.11852 0
M  V30 6745 C 648.318 -0.777252 -2.2135 0
M  V30 6746 C 649.334 0.227821 -1.72502 0
M  V30 6747 O 650.51 0.0650587 -2.01295 0
M  V30 6748 C 647.575 -0.220668 -3.45997 0
M  V30 6749 C 646.636 -1.2838 -4.09655 0
M  V30 6750 C 645.869 -0.753678 -5.28352 0
M  V30 6751 O 646.092 0.417779 -5.68868 0
M  V30 6752 O 645.026 -1.51647 -5.82483 0
M  V30 6753 H 648.852 -1.69141 -2.5224 0
M  V30 6754 H 646.437 -0.885836 -1.20305 0
M  V30 6755 H 648.319 0.0855756 -4.21313 0
M  V30 6756 H 646.994 0.666262 -3.16769 0
M  V30 6757 H 645.901 -1.64299 -3.3609 0
M  V30 6758 H 647.234 -2.14396 -4.43052 0
M  V30 6759 N 648.886 1.2938 -0.899927 0
M  V30 6760 C 649.816 2.30144 -0.39446 0
M  V30 6761 C 650.797 1.61611 0.530639 0
M  V30 6762 O 651.982 1.89119 0.441319 0
M  V30 6763 C 649.112 3.45229 0.37868 0
M  V30 6764 C 648.066 4.25564 -0.456012 0
M  V30 6765 C 647.392 5.32848 0.444637 0
M  V30 6766 C 648.692 4.93651 -1.70605 0
M  V30 6767 H 650.386 2.72673 -1.23653 0
M  V30 6768 H 647.932 1.31086 -0.596034 0
M  V30 6769 H 649.885 4.14797 0.743037 0
M  V30 6770 H 648.609 3.01545 1.25453 0
M  V30 6771 H 647.268 3.57704 -0.802704 0
M  V30 6772 H 646.916 4.85408 1.31863 0
M  V30 6773 H 646.616 5.87497 -0.110154 0
M  V30 6774 H 648.14 6.05268 0.805182 0
M  V30 6775 H 649.554 5.55655 -1.41141 0
M  V30 6776 H 647.951 5.58233 -2.20217 0
M  V30 6777 H 649.021 4.18926 -2.4419 0
M  V30 6778 N 650.364 0.662433 1.43002 0
M  V30 6779 C 651.61 0.179857 2.02001 0
M  V30 6780 C 651.943 -1.20625 1.52195 0
M  V30 6781 O 651.218 -1.80726 0.718911 0
M  V30 6782 C 651.501 0.200845 3.59539 0
M  V30 6783 C 651.354 1.62153 4.19555 0
M  V30 6784 C 652.673 -0.457738 4.37713 0
M  V30 6785 H 649.792 0.0668305 0.733964 0
M  V30 6786 H 652.434 0.84487 1.70182 0
M  V30 6787 H 650.584 -0.365411 3.86778 0
M  V30 6788 H 652.256 2.23908 4.03315 0
M  V30 6789 H 650.499 2.16601 3.75854 0
M  V30 6790 H 651.17 1.58799 5.28665 0
M  V30 6791 H 653.646 0.0241495 4.16093 0
M  V30 6792 H 652.522 -0.412363 5.47349 0
M  V30 6793 H 652.783 -1.53336 4.14657 0
M  V30 6794 N 651.842 -1.52309 0.404946 0
M  V30 6795 C 652.805 -2.25491 -0.410651 0
M  V30 6796 C 653.805 -1.27704 -0.977154 0
M  V30 6797 O 654.995 -1.51679 -0.856691 0
M  V30 6798 C 652.127 -3.02197 -1.57765 0
M  V30 6799 H 653.32 -2.99015 0.230277 0
M  V30 6800 H 650.873 -1.55506 0.157377 0
M  V30 6801 H 651.608 -2.33013 -2.25556 0
M  V30 6802 H 651.393 -3.73987 -1.17797 0
M  V30 6803 H 652.883 -3.57719 -2.15469 0
M  V30 6804 N 653.32 -0.135238 -1.57019 0
M  V30 6805 C 654.267 0.808908 -2.1616 0
M  V30 6806 C 655.237 1.25234 -1.09113 0
M  V30 6807 O 656.422 1.32697 -1.37099 0
M  V30 6808 C 653.562 2.04729 -2.77813 0
M  V30 6809 C 652.675 1.65074 -3.99218 0
M  V30 6810 C 651.81 2.84002 -4.48906 0
M  V30 6811 C 650.849 2.40663 -5.62803 0
M  V30 6812 N 649.986 3.5256 -6.07162 0
M  V30 6813 H 654.826 0.297751 -2.96509 0
M  V30 6814 H 652.363 0.135264 -1.46477 0
M  V30 6815 H 654.321 2.7731 -3.11697 0
M  V30 6816 H 652.951 2.53275 -2.00128 0
M  V30 6817 H 652.003 0.823029 -3.7139 0
M  V30 6818 H 653.315 1.29236 -4.81767 0
M  V30 6819 H 652.469 3.64788 -4.84783 0
M  V30 6820 H 651.208 3.23076 -3.65339 0
M  V30 6821 H 650.213 1.58314 -5.26514 0
M  V30 6822 H 651.438 2.02687 -6.48147 0
M  V30 6823 H 649.384 3.91278 -5.26534 0
M  V30 6824 H 649.301 3.20699 -6.84608 0
M  V30 6825 H 650.569 4.33738 -6.47682 0
M  V30 6826 N 654.798 1.5699 0.138552 0
M  V30 6827 C 656.044 1.84081 0.85099 0
M  V30 6828 C 656.377 0.718107 1.80435 0
M  V30 6829 O 655.652 -0.277633 1.92508 0
M  V30 6830 C 655.935 3.21699 1.61808 0
M  V30 6831 C 655.788 4.44544 0.685633 0
M  V30 6832 C 657.107 3.5664 2.57868 0
M  V30 6833 H 654.226 0.669592 0.307922 0
M  V30 6834 H 656.868 1.89646 0.11588 0
M  V30 6835 H 655.018 3.17086 2.24474 0
M  V30 6836 H 656.69 4.61248 0.0693179 0
M  V30 6837 H 654.933 4.338 -0.00421993 0
M  V30 6838 H 655.604 5.3746 1.25858 0
M  V30 6839 H 658.08 3.61918 2.05316 0
M  V30 6840 H 656.956 4.53946 3.08584 0
M  V30 6841 H 657.217 2.83036 3.39622 0
M  V30 6842 N 656.276 -0.40816 1.52223 0
M  V30 6843 C 657.523 -1.15502 1.66329 0
M  V30 6844 C 657.851 -1.90474 0.393701 0
M  V30 6845 O 657.106 -1.85507 -0.623356 0
M  V30 6846 C 657.405 -2.17422 2.83659 0
M  V30 6847 C 657.071 -1.5925 4.21841 0
M  V30 6848 C 655.733 -1.4311 4.59427 0
M  V30 6849 C 658.085 -1.16776 5.0795 0
M  V30 6850 C 655.413 -0.830148 5.80797 0
M  V30 6851 C 657.765 -0.580988 6.29926 0
M  V30 6852 C 656.429 -0.406729 6.6626 0
M  V30 6853 H 655.699 -0.422653 0.608642 0
M  V30 6854 H 658.346 -0.442114 1.86327 0
M  V30 6855 H 656.651 -2.94861 2.58001 0
M  V30 6856 H 658.348 -2.75084 2.9177 0
M  V30 6857 H 654.938 -1.72796 3.92224 0
M  V30 6858 H 659.122 -1.28055 4.79495 0
M  V30 6859 H 654.378 -0.68316 6.07571 0
M  V30 6860 H 658.552 -0.243488 6.95974 0
M  V30 6861 H 656.179 0.0610366 7.60175 0
M  V30 6862 N 657.755 -1.42862 -0.66545 0
M  V30 6863 C 659.032 -1.3431 -1.42197 0
M  V30 6864 C 659.412 0.0150265 -2.11095 0
M  V30 6865 O 658.76 1.03101 -2.03918 0
M  V30 6866 C 658.97 -2.51783 -2.41674 0
M  V30 6867 C 660.318 -2.94321 -3.0604 0
M  V30 6868 O 661.342 -2.51741 -2.52001 0
M  V30 6869 O 660.201 -3.68047 -4.03985 0
M  V30 6870 H 657.295 -0.530159 -0.634713 0
M  V30 6871 H 659.841 -1.54888 -0.693386 0
M  V30 6872 H 658.613 -3.42282 -1.89627 0
M  V30 6873 H 658.236 -2.33241 -3.22001 0
M  V30 6874 N 659.233 0.902656 -1.29189 0
M  V30 6875 C 660.481 1.6496 -1.16758 0
M  V30 6876 C 660.802 1.92952 0.28188 0
M  V30 6877 O 660.072 1.55351 1.19344 0
M  V30 6878 H 658.652 0.611447 -0.429118 0
M  V30 6879 H 661.314 1.0825 -1.62074 0
M  V30 6880 H 660.41 2.60728 -1.71544 0
M  V30 6881 N 660.711 1.11618 1.11262 0
M  V30 6882 C 661.959 0.864469 1.82678 0
M  V30 6883 C 662.28 -0.611564 1.85162 0
M  V30 6884 O 661.55 -1.44429 1.32352 0
M  V30 6885 H 660.13 0.316821 0.676486 0
M  V30 6886 H 662.792 1.40894 1.34666 0
M  V30 6887 H 661.888 1.23832 2.86482 0
M  V30 6888 N 662.189 -1.289 0.906776 0
M  V30 6889 C 663.435 -1.95558 0.53712 0
M  V30 6890 C 663.768 -1.71262 -0.915582 0
M  V30 6891 O 663.043 -1.02961 -1.65013 0
M  V30 6892 C 663.326 -3.50198 0.838645 0
M  V30 6893 C 663.179 -3.83923 2.34357 0
M  V30 6894 C 664.498 -4.38861 0.329988 0
M  V30 6895 H 661.617 -0.710289 0.196617 0
M  V30 6896 H 664.259 -1.52392 1.13475 0
M  V30 6897 H 662.409 -3.87096 0.330024 0
M  V30 6898 H 664.081 -3.56933 2.92227 0
M  V30 6899 H 662.324 -3.31215 2.80141 0
M  V30 6900 H 662.995 -4.91883 2.5051 0
M  V30 6901 H 665.471 -4.08996 0.765609 0
M  V30 6902 H 664.347 -5.45931 0.570105 0
M  V30 6903 H 664.608 -4.35352 -0.769511 0
M  V30 6904 N 663.667 -0.670007 -1.42649 0
M  V30 6905 C 664.913 -0.190568 -2.01903 0
M  V30 6906 C 665.246 1.19817 -1.52832 0
M  V30 6907 O 664.521 1.80342 -0.728485 0
M  V30 6908 C 664.804 -0.21991 -3.59428 0
M  V30 6909 C 664.657 -1.64376 -4.18689 0
M  V30 6910 C 665.976 0.434519 -4.3795 0
M  V30 6911 H 663.095 -0.0707219 -0.733599 0
M  V30 6912 H 665.737 -0.853883 -1.69732 0
M  V30 6913 H 663.887 0.344894 -3.86966 0
M  V30 6914 H 665.559 -2.26044 -4.02122 0
M  V30 6915 H 663.802 -2.18591 -3.747 0
M  V30 6916 H 664.473 -1.61601 -5.27815 0
M  V30 6917 H 666.949 -0.0462156 -4.16074 0
M  V30 6918 H 665.825 0.38333 -5.4756 0
M  V30 6919 H 666.086 1.51135 -4.15464 0
M  V30 6920 N 665.145 1.52092 -0.413018 0
M  V30 6921 C 666.422 1.94356 0.22024 0
M  V30 6922 C 666.802 1.35017 1.62277 0
M  V30 6923 O 666.15 0.527511 2.22328 0
M  V30 6924 C 666.36 3.48289 0.222638 0
M  V30 6925 C 667.708 4.22313 0.440098 0
M  V30 6926 O 668.732 3.54919 0.301826 0
M  V30 6927 O 667.591 5.41829 0.712984 0
M  V30 6928 H 664.685 0.814536 0.14304 0
M  V30 6929 H 667.231 1.63083 -0.469242 0
M  V30 6930 H 666.003 3.83872 -0.758836 0
M  V30 6931 H 665.626 3.85934 0.956057 0
M  V30 6932 N 666.623 0.143563 1.56945 0
M  V30 6933 C 667.9 -0.553285 1.87612 0
M  V30 6934 C 668.28 -1.83195 1.04894 0
M  V30 6935 O 667.628 -2.28102 0.134773 0
M  V30 6936 C 667.838 -0.822055 3.3918 0
M  V30 6937 C 669.186 -1.16435 4.08324 0
M  V30 6938 O 670.21 -0.911522 3.4434 0
M  V30 6939 O 669.069 -1.63996 5.21313 0
M  V30 6940 H 666.163 -0.281851 0.777489 0
M  V30 6941 H 668.709 0.179916 1.68744 0
M  V30 6942 H 667.481 0.0830265 3.91212 0
M  V30 6943 H 667.104 -1.60956 3.63564 0
M  V30 6944 N 668.101 -1.57061 -0.130224 0
M  V30 6945 C 669.011 -2.02802 -1.17934 0
M  V30 6946 C 670.027 -0.946378 -1.46013 0
M  V30 6947 O 671.203 -1.25708 -1.57351 0
M  V30 6948 C 668.268 -2.41368 -2.48882 0
M  V30 6949 C 667.329 -3.63561 -2.28301 0
M  V30 6950 C 666.562 -4.00279 -3.53005 0
M  V30 6951 O 666.785 -3.37463 -4.59864 0
M  V30 6952 O 665.719 -4.93441 -3.44673 0
M  V30 6953 H 669.545 -2.92394 -0.820958 0
M  V30 6954 H 667.13 -1.45475 -0.340197 0
M  V30 6955 H 669.012 -2.66958 -3.26054 0
M  V30 6956 H 667.687 -1.54926 -2.84217 0
M  V30 6957 H 666.594 -3.43136 -1.49025 0
M  V30 6958 H 667.927 -4.50673 -1.97875 0
M  V30 6959 N 669.579 0.400081 -1.52437 0
M  V30 6960 C 670.804 1.17221 -1.71096 0
M  V30 6961 C 671.229 1.83269 -0.423565 0
M  V30 6962 O 670.587 1.70378 0.619751 0
M  V30 6963 C 670.635 2.20425 -2.85386 0
M  V30 6964 O 669.739 3.26769 -2.51586 0
M  V30 6965 H 669.08 0.341766 -0.569291 0
M  V30 6966 H 671.61 0.467772 -1.99181 0
M  V30 6967 H 671.62 2.64605 -3.10561 0
M  V30 6968 H 670.295 1.71737 -3.78786 0
M  V30 6969 H 668.872 2.87804 -2.37114 0
M  V30 6970 N 671.057 1.43213 0.657864 0
M  V30 6971 C 672.287 1.478 1.44356 0
M  V30 6972 C 672.695 0.0930206 1.88971 0
M  V30 6973 O 672.038 -0.906089 1.59799 0
M  V30 6974 C 672.1 2.35745 2.71412 0
M  V30 6975 C 671.764 3.83359 2.48767 0
M  V30 6976 C 672.761 4.74585 2.12285 0
M  V30 6977 C 670.446 4.27799 2.63235 0
M  V30 6978 C 672.44 6.08247 1.90562 0
M  V30 6979 C 670.127 5.61516 2.41128 0
M  V30 6980 C 671.125 6.51557 2.04847 0
M  V30 6981 O 670.813 7.82802 1.82967 0
M  V30 6982 H 670.545 0.504363 0.450104 0
M  V30 6983 H 673.099 1.88572 0.814241 0
M  V30 6984 H 671.329 1.89852 3.36887 0
M  V30 6985 H 673.018 2.31589 3.33348 0
M  V30 6986 H 673.784 4.41531 2.00687 0
M  V30 6987 H 669.663 3.57993 2.90451 0
M  V30 6988 H 673.207 6.78489 1.62168 0
M  V30 6989 H 669.104 5.94139 2.52327 0
M  V30 6990 H 669.872 7.94332 1.97429 0
M  V30 6991 N 672.536 -0.895792 1.29666 0
M  V30 6992 C 673.446 -2.03329 1.17024 0
M  V30 6993 C 674.462 -1.73753 0.0925962 0
M  V30 6994 O 675.638 -1.99071 0.305431 0
M  V30 6995 C 672.703 -3.36072 0.851841 0
M  V30 6996 C 671.764 -3.7914 2.01373 0
M  V30 6997 C 670.997 -5.05549 1.71043 0
M  V30 6998 O 671.22 -5.66874 0.633213 0
M  V30 6999 O 670.154 -5.44764 2.5596 0
M  V30 7000 H 673.98 -2.16918 2.12556 0
M  V30 7001 H 671.565 -1.02007 1.09156 0
M  V30 7002 H 673.447 -4.15729 0.689006 0
M  V30 7003 H 672.122 -3.23616 -0.0736634 0
M  V30 7004 H 671.029 -3.00233 2.23183 0
M  V30 7005 H 672.362 -3.96186 2.92058 0
M  V30 7006 N 674.014 -1.12206 -1.10668 0
M  V30 7007 C 675.263 -0.870595 -1.81944 0
M  V30 7008 C 675.576 0.605447 -1.85994 0
M  V30 7009 O 676.782 0.973433 -2.53449 0
M  V30 7010 C 675.238 -1.50783 -3.26791 0
M  V30 7011 C 674.846 -3.01849 -3.31046 0
M  V30 7012 C 676.59 -1.33653 -4.02911 0
M  V30 7013 C 674.497 -3.58518 -4.70339 0
M  V30 7014 H 673.427 -0.322043 -0.681765 0
M  V30 7015 H 676.078 -1.34827 -1.24475 0
M  V30 7016 H 674.46 -0.957825 -3.84242 0
M  V30 7017 H 675.634 -3.63321 -2.83433 0
M  V30 7018 H 673.949 -3.18346 -2.68411 0
M  V30 7019 H 676.546 -1.73416 -5.05797 0
M  V30 7020 H 676.889 -0.279949 -4.15358 0
M  V30 7021 H 677.422 -1.85562 -3.51868 0
M  V30 7022 H 674.161 -4.63925 -4.63091 0
M  V30 7023 H 673.681 -3.01819 -5.18329 0
M  V30 7024 H 675.36 -3.57434 -5.39305 0
M  V30 7025 N 675.492 1.28418 -0.913599 0
M  V30 7026 C 676.908 1.47411 -0.611728 0
M  V30 7027 C 677.108 1.83018 0.843008 0
M  V30 7028 O 676.164 1.93505 1.6221 0
M  V30 7029 C 677.477 2.57703 -1.5495 0
M  V30 7030 C 679.025 2.71572 -1.5562 0
M  V30 7031 C 679.5 3.85008 -2.48058 0
M  V30 7032 N 680.991 3.92361 -2.46184 0
M  V30 7033 C 681.726 4.79516 -3.14407 0
M  V30 7034 N 681.222 5.71262 -3.91958 0
M  V30 7035 N 683.015 4.73125 -3.03495 0
M  V30 7036 H 675.166 1.03585 -1.85429 0
M  V30 7037 H 677.429 0.515907 -0.795326 0
M  V30 7038 H 677.135 2.38298 -2.58663 0
M  V30 7039 H 677.009 3.54801 -1.28048 0
M  V30 7040 H 679.396 2.90366 -0.526441 0
M  V30 7041 H 679.477 1.75006 -1.86565 0
M  V30 7042 H 679.121 3.66969 -3.51136 0
M  V30 7043 H 679.051 4.80971 -2.14416 0
M  V30 7044 H 681.542 3.26749 -1.89851 0
M  V30 7045 H 681.855 6.34593 -4.41034 0
M  V30 7046 H 680.2 5.71103 -3.96063 0
M  V30 7047 H 683.391 4.00442 -2.42413 0
M  V30 7048 H 683.564 5.40834 -3.56935 0
M  V30 7049 N 676.97 0.677563 1.42291 0
M  V30 7050 C 678.219 0.198173 2.00724 0
M  V30 7051 C 678.532 -1.20325 1.54211 0
M  V30 7052 O 679.738 -1.77916 2.05081 0
M  V30 7053 C 678.194 0.303432 3.58619 0
M  V30 7054 C 677.802 1.70909 4.14119 0
M  V30 7055 C 679.546 -0.117103 4.24338 0
M  V30 7056 C 677.453 1.76696 5.64387 0
M  V30 7057 H 676.383 0.070329 0.750713 0
M  V30 7058 H 679.034 0.843147 1.62982 0
M  V30 7059 H 677.416 -0.409482 3.93877 0
M  V30 7060 H 678.59 2.44931 3.90315 0
M  V30 7061 H 676.905 2.07771 3.6086 0
M  V30 7062 H 679.502 -0.0940471 5.34617 0
M  V30 7063 H 679.845 -1.15283 4.00019 0
M  V30 7064 H 680.378 0.5449 3.9405 0
M  V30 7065 H 677.117 2.7826 5.93508 0
M  V30 7066 H 676.637 1.07034 5.90173 0
M  V30 7067 H 678.316 1.52166 6.28852 0
M  V30 7068 N 678.448 -1.51871 0.421078 0
M  V30 7069 C 679.859 -1.86644 -0.0457991 0
M  V30 7070 C 680.21 -1.33919 -1.43388 0
M  V30 7071 O 679.335 -0.683316 -2.05328 0
M  V30 7072 C 679.93 -3.38681 -0.0898844 0
M  V30 7073 C 678.489 -3.73049 -0.501127 0
M  V30 7074 C 677.636 -2.75485 0.316723 0
M  V30 7075 H 680.587 -1.45327 0.637635 0
M  V30 7076 H 680.608 -3.69636 -0.902734 0
M  V30 7077 H 680.12 -3.77025 0.920513 0
M  V30 7078 H 678.221 -3.40288 -1.51773 0
M  V30 7079 H 678.334 -4.78512 -0.237217 0
M  V30 7080 H 676.698 -2.53725 -0.222663 0
M  V30 7081 H 677.481 -3.16671 1.32569 0
M  V30 7082 N 679.926 -0.151884 -1.56866 0
M  V30 7083 C 680.889 0.771861 -2.15812 0
M  V30 7084 C 681.889 1.17181 -1.10115 0
M  V30 7085 O 683.079 1.09194 -1.35729 0
M  V30 7086 C 680.211 2.04806 -2.7252 0
M  V30 7087 H 681.404 0.259021 -2.98779 0
M  V30 7088 H 678.957 0.097588 -1.55995 0
M  V30 7089 H 679.692 2.60445 -1.93233 0
M  V30 7090 H 679.477 1.77044 -3.49854 0
M  V30 7091 H 680.967 2.70771 -3.1792 0
M  V30 7092 N 681.404 1.57128 0.121893 0
M  V30 7093 C 682.681 1.75664 0.860327 0
M  V30 7094 C 683.061 0.726585 1.98202 0
M  V30 7095 O 682.409 -0.24999 2.27128 0
M  V30 7096 C 682.619 3.20571 1.37968 0
M  V30 7097 C 683.967 3.82988 1.83317 0
M  V30 7098 O 684.991 3.24156 1.47654 0
M  V30 7099 O 683.85 4.86393 2.49168 0
M  V30 7100 H 680.944 0.719153 0.408348 0
M  V30 7101 H 683.49 1.6937 0.105859 0
M  V30 7102 H 682.262 3.87056 0.57477 0
M  V30 7103 H 681.885 3.31392 2.19694 0
M  V30 7104 N 682.882 -0.391992 1.52647 0
M  V30 7105 C 683.814 -1.49811 1.73463 0
M  V30 7106 C 684.827 -1.50734 0.615078 0
M  V30 7107 O 686.016 -1.5469 0.890696 0
M  V30 7108 C 683.116 -2.88667 1.77552 0
M  V30 7109 C 682.289 -3.11743 3.06815 0
M  V30 7110 C 681.348 -4.30564 3.02491 0
M  V30 7111 O 680.374 -4.27014 3.76361 0
M  V30 7112 N 681.576 -5.36593 2.21468 0
M  V30 7113 H 684.341 -1.32343 2.68897 0
M  V30 7114 H 681.902 -0.581475 1.51098 0
M  V30 7115 H 683.894 -3.66251 1.7217 0
M  V30 7116 H 682.464 -2.99508 0.895181 0
M  V30 7117 H 681.684 -2.2205 3.25711 0
M  V30 7118 H 682.972 -3.24013 3.92292 0
M  V30 7119 H 682.37 -5.42332 1.60913 0
M  V30 7120 H 680.927 -6.12855 2.21928 0
M  V30 7121 N 684.36 -1.4356 -0.65026 0
M  V30 7122 C 685.608 -1.45046 -1.40734 0
M  V30 7123 C 685.929 -0.0769822 -1.94848 0
M  V30 7124 O 685.199 0.888098 -1.74613 0
M  V30 7125 H 683.779 -0.534034 -0.522318 0
M  V30 7126 H 686.441 -1.79186 -0.766703 0
M  V30 7127 H 685.537 -2.16476 -2.24822 0
M  V30 7128 N 685.838 0.888903 -1.30139 0
M  V30 7129 C 687.087 1.63507 -1.18103 0
M  V30 7130 C 687.4 1.93808 0.264141 0
M  V30 7131 O 688.606 2.66744 0.505966 0
M  V30 7132 C 687.062 2.94673 -2.0663 0
M  V30 7133 C 686.67 2.71926 -3.56034 0
M  V30 7134 C 688.414 3.72626 -2.03346 0
M  V30 7135 C 686.321 3.98884 -4.3663 0
M  V30 7136 H 685.251 0.613426 -0.438435 0
M  V30 7137 H 687.902 0.984427 -1.54859 0
M  V30 7138 H 686.284 3.61009 -1.62754 0
M  V30 7139 H 687.458 2.14116 -4.08033 0
M  V30 7140 H 685.773 2.07353 -3.61101 0
M  V30 7141 H 688.37 4.66775 -2.60816 0
M  V30 7142 H 688.713 4.03712 -1.016 0
M  V30 7143 H 689.246 3.13147 -2.45324 0
M  V30 7144 H 685.985 3.72959 -5.39056 0
M  V30 7145 H 685.505 4.56214 -3.89396 0
M  V30 7146 H 687.184 4.66938 -4.47859 0
M  V30 7147 N 687.317 1.12792 1.10072 0
M  V30 7148 C 688.28 0.802264 2.14701 0
M  V30 7149 C 689.28 -0.18515 1.59731 0
M  V30 7150 O 690.47 0.041109 1.74151 0
M  V30 7151 C 687.602 0.19285 3.40354 0
M  V30 7152 H 688.795 1.72932 2.45019 0
M  V30 7153 H 686.348 0.931662 1.25498 0
M  V30 7154 H 687.083 -0.743748 3.15656 0
M  V30 7155 H 686.868 0.903827 3.81541 0
M  V30 7156 H 688.358 -0.0183704 4.17596 0
M  V30 7157 N 688.795 -1.27931 0.920396 0
M  V30 7158 C 690.043 -1.94304 0.555906 0
M  V30 7159 C 690.364 -1.72753 -0.904519 0
M  V30 7160 O 689.634 -1.07104 -1.64029 0
M  V30 7161 H 688.214 -0.719001 0.202599 0
M  V30 7162 H 690.876 -1.55785 1.1712 0
M  V30 7163 H 689.972 -3.02806 0.755981 0
M  V30 7164 N 690.273 -0.685099 -1.4193 0
M  V30 7165 C 691.223 0.00977295 -2.27998 0
M  V30 7166 C 692.207 0.763315 -1.41641 0
M  V30 7167 O 693.399 0.640532 -1.65004 0
M  V30 7168 C 690.528 0.952972 -3.29808 0
M  V30 7169 C 689.614 0.196231 -4.23646 0
M  V30 7170 N 690.005 -0.804401 -4.99363 0
M  V30 7171 C 688.303 0.433213 -4.43891 0
M  V30 7172 C 689.004 -1.25646 -5.67968 0
M  V30 7173 N 687.98 -0.5844 -5.4045 0
M  V30 7174 H 691.782 -0.757586 -2.83968 0
M  V30 7175 H 689.296 -0.515037 -1.54017 0
M  V30 7176 H 691.293 1.46585 -3.9028 0
M  V30 7177 H 689.953 1.72004 -2.75399 0
M  V30 7178 H 690.964 -1.18429 -5.04177 0
M  V30 7179 H 687.641 1.17899 -4.00507 0
M  V30 7180 H 689.031 -2.08622 -6.38691 0
M  V30 7181 N 691.751 1.51645 -0.429126 0
M  V30 7182 C 692.997 2.02314 0.140286 0
M  V30 7183 C 693.33 1.31314 1.43074 0
M  V30 7184 O 692.605 0.425531 1.89788 0
M  V30 7185 C 692.888 3.5822 0.36749 0
M  V30 7186 C 692.741 4.39846 -0.941039 0
M  V30 7187 C 694.06 4.25055 1.14089 0
M  V30 7188 H 691.179 0.735335 0.0495112 0
M  V30 7189 H 693.821 1.81358 -0.566514 0
M  V30 7190 H 691.971 3.76207 0.969556 0
M  V30 7191 H 693.643 4.33527 -1.57646 0
M  V30 7192 H 691.886 4.05259 -1.54751 0
M  V30 7193 H 692.557 5.47069 -0.73621 0
M  V30 7194 H 695.033 4.11288 0.630986 0
M  V30 7195 H 693.909 5.34038 1.26863 0
M  V30 7196 H 694.17 3.85358 2.16683 0
M  V30 7197 N 693.229 0.160201 1.56784 0
M  V30 7198 C 694.192 -0.760405 2.16219 0
M  V30 7199 C 695.192 -1.16595 1.10735 0
M  V30 7200 O 696.382 -1.08472 1.36306 0
M  V30 7201 C 693.514 -2.03358 2.73603 0
M  V30 7202 H 694.707 -0.243173 2.98912 0
M  V30 7203 H 692.26 -0.0893139 1.56045 0
M  V30 7204 H 692.995 -2.59416 1.94612 0
M  V30 7205 H 692.78 -1.75186 3.50788 0
M  V30 7206 H 694.27 -2.69081 3.19351 0
M  V30 7207 N 694.707 -1.5719 -0.113559 0
M  V30 7208 C 695.935 -1.89328 -0.834422 0
M  V30 7209 C 696.35 -0.752018 -1.73177 0
M  V30 7210 O 695.707 0.276912 -1.80387 0
M  V30 7211 C 695.758 -3.20962 -1.66329 0
M  V30 7212 O 695.479 -4.30695 -0.802069 0
M  V30 7213 C 696.98 -3.6684 -2.48884 0
M  V30 7214 H 694.2 -0.626769 -0.239587 0
M  V30 7215 H 696.744 -2.04273 -0.0963195 0
M  V30 7216 H 694.899 -3.0767 -2.35409 0
M  V30 7217 H 695.313 -5.06175 -1.37431 0
M  V30 7218 H 696.787 -4.61692 -3.02563 0
M  V30 7219 H 697.264 -2.93765 -3.26495 0
M  V30 7220 H 697.87 -3.82938 -1.85036 0
M  V30 7221 N 696.185 0.383891 -1.52853 0
M  V30 7222 C 697.413 1.1495 -1.7203 0
M  V30 7223 C 697.828 1.83578 -0.440957 0
M  V30 7224 O 697.185 1.72872 0.584925 0
M  V30 7225 C 697.236 2.19368 -2.87333 0
M  V30 7226 O 696.957 1.53536 -4.10315 0
M  V30 7227 C 698.458 3.08616 -3.18231 0
M  V30 7228 H 695.678 0.344445 -0.575846 0
M  V30 7229 H 698.222 0.448397 -1.99524 0
M  V30 7230 H 696.377 2.85105 -2.62286 0
M  V30 7231 H 696.791 2.2296 -4.74752 0
M  V30 7232 H 698.265 3.77902 -4.02361 0
M  V30 7233 H 698.742 3.72409 -2.32826 0
M  V30 7234 H 699.348 2.48518 -3.45136 0
M  V30 7235 N 697.663 1.43903 0.642637 0
M  V30 7236 C 698.911 1.45791 1.39962 0
M  V30 7237 C 699.232 0.0873144 1.94804 0
M  V30 7238 O 698.502 -0.878825 1.75081 0
M  V30 7239 H 697.082 0.536797 0.519479 0
M  V30 7240 H 699.744 1.7959 0.757189 0
M  V30 7241 H 698.84 2.17665 2.2367 0
M  V30 7242 N 699.141 -0.881989 1.30609 0
M  V30 7243 C 700.073 -1.99375 1.13058 0
M  V30 7244 C 701.086 -1.62636 0.0729879 0
M  V30 7245 O 702.275 -1.75621 0.319301 0
M  V30 7246 C 699.375 -3.31536 0.702651 0
M  V30 7247 C 698.548 -3.96693 1.84265 0
M  V30 7248 C 697.607 -5.07158 1.40277 0
M  V30 7249 O 696.633 -5.28628 2.11048 0
M  V30 7250 N 697.835 -5.79808 0.283449 0
M  V30 7251 H 700.6 -2.14981 2.08814 0
M  V30 7252 H 698.161 -1.05526 1.22784 0
M  V30 7253 H 700.153 -4.02804 0.391331 0
M  V30 7254 H 698.723 -3.12175 -0.162954 0
M  V30 7255 H 697.943 -3.1856 2.32192 0
M  V30 7256 H 699.231 -4.36964 2.60653 0
M  V30 7257 H 698.629 -5.64871 -0.306189 0
M  V30 7258 H 697.186 -6.51792 0.0315985 0
M  V30 7259 N 700.619 -1.13374 -1.09472 0
M  V30 7260 C 701.868 -0.889844 -1.8101 0
M  V30 7261 C 702.181 0.585686 -1.86625 0
M  V30 7262 O 703.387 0.946497 -2.54467 0
M  V30 7263 C 701.843 -1.54241 -3.25174 0
M  V30 7264 C 701.451 -3.05343 -3.27826 0
M  V30 7265 C 703.195 -1.37919 -4.0147 0
M  V30 7266 C 701.102 -3.63486 -4.6651 0
M  V30 7267 H 700.032 -0.329256 -0.678311 0
M  V30 7268 H 702.683 -1.36139 -1.23038 0
M  V30 7269 H 701.065 -0.998525 -3.83204 0
M  V30 7270 H 702.239 -3.66307 -2.79563 0
M  V30 7271 H 700.554 -3.21175 -2.65019 0
M  V30 7272 H 703.151 -1.78771 -5.03929 0
M  V30 7273 H 703.494 -0.323987 -4.15037 0
M  V30 7274 H 704.027 -1.89284 -3.49881 0
M  V30 7275 H 700.766 -4.68811 -4.58145 0
M  V30 7276 H 700.286 -3.073 -5.15099 0
M  V30 7277 H 701.965 -3.63134 -5.35484 0
M  V30 7278 N 702.098 1.27442 -0.927168 0
M  V30 7279 C 703.028 2.29256 -0.443188 0
M  V30 7280 C 704.009 1.62701 0.49624 0
M  V30 7281 O 705.194 1.90013 0.401105 0
M  V30 7282 C 702.324 3.45955 0.305366 0
M  V30 7283 C 701.278 4.24501 -0.546178 0
M  V30 7284 C 700.604 5.33671 0.331512 0
M  V30 7285 C 701.904 4.89921 -1.81037 0
M  V30 7286 H 703.598 2.69988 -1.29409 0
M  V30 7287 H 701.144 1.29792 -0.623705 0
M  V30 7288 H 703.097 4.1628 0.654885 0
M  V30 7289 H 701.821 3.04138 1.19029 0
M  V30 7290 H 700.48 3.55921 -0.878398 0
M  V30 7291 H 700.128 4.88096 1.21537 0
M  V30 7292 H 699.828 5.87131 -0.234746 0
M  V30 7293 H 701.352 6.0684 0.676614 0
M  V30 7294 H 702.766 5.52536 -1.52895 0
M  V30 7295 H 701.163 5.53436 -2.32009 0
M  V30 7296 H 702.233 4.13652 -2.53021 0
M  V30 7297 N 703.576 0.692616 1.41565 0
M  V30 7298 C 704.524 0.0139952 2.32596 0
M  V30 7299 C 705.518 -0.771691 1.50802 0
M  V30 7300 O 706.724 -0.677646 1.66757 0
M  V30 7301 H 703.099 -0.0142745 0.751865 0
M  V30 7302 H 705.07 0.798851 2.87508 0
M  V30 7303 C 703.819 -0.910602 3.35564 0
M  V30 7304 H 703.142 -0.315446 3.98554 0
M  V30 7305 H 704.582 -1.3538 4.01806 0
M  V30 7306 C 703.041 -2.02539 2.6922 0
M  V30 7307 O 703.571 -3.11386 2.53775 0
M  V30 7308 N 701.777 -1.80227 2.27962 0
M  V30 7309 H 701.324 -0.917054 2.40724 0
M  V30 7310 H 701.282 -2.55001 1.83907 0
M  V30 7311 N 705.054 -1.51416 0.437162 0
M  V30 7312 C 706.303 -2.01275 -0.130865 0
M  V30 7313 C 706.616 -1.32593 -1.438 0
M  V30 7314 O 707.822 -1.7342 -2.08897 0
M  V30 7315 C 706.278 -3.5878 -0.283763 0
M  V30 7316 C 705.886 -4.36399 1.01293 0
M  V30 7317 C 707.63 -4.16786 -0.805569 0
M  V30 7318 C 705.537 -5.85608 0.825687 0
M  V30 7319 H 704.467 -0.752157 -0.0526818 0
M  V30 7320 H 707.118 -1.74524 0.566896 0
M  V30 7321 H 705.5 -3.81976 -1.04452 0
M  V30 7322 H 706.674 -4.24948 1.78201 0
M  V30 7323 H 704.989 -3.89843 1.46326 0
M  V30 7324 H 707.586 -5.25972 -0.962146 0
M  V30 7325 H 707.929 -3.75949 -1.78796 0
M  V30 7326 H 708.462 -3.97666 -0.103125 0
M  V30 7327 H 705.201 -6.30857 1.78045 0
M  V30 7328 H 704.721 -5.99723 0.0964029 0
M  V30 7329 H 706.4 -6.45226 0.478815 0
M  V30 7330 N 706.532 -0.168513 -1.56696 0
M  V30 7331 C 707.943 0.348694 -1.83415 0
M  V30 7332 C 708.294 1.63257 -1.0882 0
M  V30 7333 O 707.419 2.13707 -0.340333 0
M  V30 7334 C 708.014 0.639423 -3.32711 0
M  V30 7335 C 706.573 1.10108 -3.59935 0
M  V30 7336 C 705.72 0.135464 -2.76969 0
M  V30 7337 H 708.671 -0.392829 -1.53761 0
M  V30 7338 H 708.692 1.49179 -3.50037 0
M  V30 7339 H 708.204 -0.295173 -3.86976 0
M  V30 7340 H 706.305 2.05088 -3.11079 0
M  V30 7341 H 706.418 1.01218 -4.68286 0
M  V30 7342 H 704.782 0.632286 -2.46727 0
M  V30 7343 H 705.565 -0.793104 -3.34013 0
M  V30 7344 N 708.01 1.57248 0.105221 0
M  V30 7345 C 709.287 1.76566 0.841647 0
M  V30 7346 C 709.667 0.747566 1.9742 0
M  V30 7347 O 709.015 -0.225886 2.27381 0
M  V30 7348 C 709.225 3.22016 1.3456 0
M  V30 7349 C 710.573 3.84911 1.79244 0
M  V30 7350 O 711.597 3.25703 1.44207 0
M  V30 7351 O 710.456 4.89008 2.43995 0
M  V30 7352 H 707.55 0.723443 0.400698 0
M  V30 7353 H 710.096 1.69472 0.0878893 0
M  V30 7354 H 708.868 3.87644 0.533685 0
M  V30 7355 H 708.491 3.33703 2.16167 0
M  V30 7356 N 709.488 -0.375779 1.53054 0
M  V30 7357 C 710.451 -1.44254 1.7811 0
M  V30 7358 C 711.451 -1.47018 0.651328 0
M  V30 7359 O 712.641 -1.47957 0.919472 0
M  V30 7360 C 709.773 -2.8345 1.89391 0
M  V30 7361 H 710.966 -1.23316 2.73374 0
M  V30 7362 H 708.519 -0.608312 1.43977 0
M  V30 7363 H 709.254 -3.09716 0.961589 0
M  V30 7364 H 709.039 -2.82844 2.71555 0
M  V30 7365 H 710.529 -3.60722 2.10404 0
M  V30 7366 N 710.966 -1.44241 -0.634997 0
M  V30 7367 C 712.196 -1.50078 -1.41987 0
M  V30 7368 C 712.604 -0.123072 -1.88799 0
M  V30 7369 O 711.947 0.880552 -1.6122 0
M  V30 7370 C 712.009 -2.40033 -2.67628 0
M  V30 7371 C 711.673 -3.87268 -2.42637 0
M  V30 7372 C 712.67 -4.77902 -2.04708 0
M  V30 7373 C 710.355 -4.31933 -2.56396 0
M  V30 7374 C 712.349 -6.11202 -1.80862 0
M  V30 7375 C 710.036 -5.65281 -2.32164 0
M  V30 7376 C 711.034 -6.54734 -1.94455 0
M  V30 7377 O 710.722 -7.85613 -1.7049 0
M  V30 7378 H 710.454 -0.51146 -0.442023 0
M  V30 7379 H 713.008 -1.89843 -0.784138 0
M  V30 7380 H 711.238 -1.95188 -3.33824 0
M  V30 7381 H 712.927 -2.36863 -3.29622 0
M  V30 7382 H 713.693 -4.44668 -1.93638 0
M  V30 7383 H 709.572 -3.62569 -2.84719 0
M  V30 7384 H 713.116 -6.80983 -1.51353 0
M  V30 7385 H 709.013 -5.98078 -2.42843 0
M  V30 7386 H 709.781 -7.97373 -1.84767 0
M  V30 7387 N 712.444 0.87505 -1.31075 0
M  V30 7388 C 713.407 1.96333 -1.18263 0
M  V30 7389 C 714.407 1.60416 -0.111106 0
M  V30 7390 O 715.597 1.7044 -0.359987 0
M  V30 7391 C 712.729 3.31036 -0.81414 0
M  V30 7392 H 713.922 2.09125 -2.14958 0
M  V30 7393 H 711.475 1.06271 -1.14614 0
M  V30 7394 H 712.21 3.23944 0.151875 0
M  V30 7395 H 711.995 3.58476 -1.58862 0
M  V30 7396 H 713.485 4.10842 -0.748249 0
M  V30 7397 N 713.922 1.13953 1.08869 0
M  V30 7398 C 714.872 0.790812 2.13846 0
M  V30 7399 C 715.856 -0.217819 1.59419 0
M  V30 7400 O 717.048 -0.0208723 1.76988 0
M  V30 7401 C 714.177 0.26479 3.42277 0
M  V30 7402 C 713.263 1.30267 4.03598 0
M  V30 7403 N 713.654 2.50535 4.39393 0
M  V30 7404 C 711.952 1.15178 4.30871 0
M  V30 7405 C 712.653 3.16938 4.87776 0
M  V30 7406 N 711.629 2.44349 4.85587 0
M  V30 7407 H 715.431 1.70577 2.39334 0
M  V30 7408 H 712.945 1.02268 1.26154 0
M  V30 7409 H 714.942 -0.00330398 4.169 0
M  V30 7410 H 713.602 -0.644419 3.18241 0
M  V30 7411 H 714.613 2.87798 4.30572 0
M  V30 7412 H 711.29 0.301204 4.16412 0
M  V30 7413 H 712.68 4.19453 5.2489 0
M  V30 7414 N 715.4 -1.26948 0.933913 0
M  V30 7415 C 716.811 -1.76058 0.621324 0
M  V30 7416 C 717.162 -1.76175 -0.863522 0
M  V30 7417 O 716.287 -1.36921 -1.67576 0
M  V30 7418 C 716.882 -3.19713 1.12111 0
M  V30 7419 C 715.441 -3.66465 0.859074 0
M  V30 7420 C 714.588 -2.46186 1.27624 0
M  V30 7421 H 717.539 -1.13127 1.11301 0
M  V30 7422 H 717.56 -3.77566 0.471608 0
M  V30 7423 H 717.072 -3.19596 2.20182 0
M  V30 7424 H 715.173 -3.72021 -0.207566 0
M  V30 7425 H 715.286 -4.55636 1.48098 0
M  V30 7426 H 713.65 -2.45042 0.694727 0
M  V30 7427 H 714.433 -2.48774 2.36572 0
M  V30 7428 N 716.879 -0.700114 -1.41195 0
M  V30 7429 C 717.809 -0.0521132 -2.33442 0
M  V30 7430 C 718.79 0.76228 -1.52063 0
M  V30 7431 O 719.975 0.714336 -1.80585 0
M  V30 7432 C 717.105 0.881693 -3.35922 0
M  V30 7433 C 716.059 0.174062 -4.27646 0
M  V30 7434 C 715.385 1.22254 -5.20536 0
M  V30 7435 C 716.685 -0.962396 -5.13357 0
M  V30 7436 H 718.379 -0.822574 -2.87879 0
M  V30 7437 H 715.925 -0.397011 -1.38419 0
M  V30 7438 H 717.878 1.34429 -3.99383 0
M  V30 7439 H 716.602 1.68387 -2.79845 0
M  V30 7440 H 715.261 -0.268551 -3.65615 0
M  V30 7441 H 714.909 2.01736 -4.60773 0
M  V30 7442 H 714.609 0.754038 -5.82742 0
M  V30 7443 H 716.133 1.68555 -5.86874 0
M  V30 7444 H 717.547 -0.579875 -5.7036 0
M  V30 7445 H 715.944 -1.35828 -5.84526 0
M  V30 7446 H 717.014 -1.80003 -4.50252 0
M  V30 7447 N 718.357 1.51182 -0.445186 0
M  V30 7448 C 719.604 2.02152 0.118645 0
M  V30 7449 C 719.932 1.32888 1.42025 0
M  V30 7450 O 719.187 0.435041 1.90803 0
M  V30 7451 C 719.486 3.55408 0.376797 0
M  V30 7452 C 719.152 4.43008 -0.839945 0
M  V30 7453 C 717.814 4.66669 -1.17361 0
M  V30 7454 C 720.166 4.9435 -1.65127 0
M  V30 7455 C 717.494 5.38919 -2.31913 0
M  V30 7456 C 719.846 5.67857 -2.78786 0
M  V30 7457 C 718.51 5.89779 -3.12597 0
M  V30 7458 H 717.78 0.739727 0.0434152 0
M  V30 7459 H 720.427 1.82055 -0.593984 0
M  V30 7460 H 718.732 3.73879 1.1714 0
M  V30 7461 H 720.429 3.92388 0.826602 0
M  V30 7462 H 717.019 4.24793 -0.569958 0
M  V30 7463 H 721.203 4.75947 -1.4067 0
M  V30 7464 H 716.459 5.54105 -2.58413 0
M  V30 7465 H 720.633 6.06628 -3.42017 0
M  V30 7466 H 718.26 6.45542 -4.01471 0
M  V30 7467 N 719.835 0.176821 1.56605 0
M  V30 7468 C 721.065 -0.472142 2.01133 0
M  V30 7469 C 721.473 -1.56979 1.05614 0
M  V30 7470 O 720.816 -1.83632 0.0500137 0
M  V30 7471 C 720.878 -1.10547 3.42081 0
M  V30 7472 C 720.542 -0.148806 4.56758 0
M  V30 7473 C 721.539 0.634939 5.16008 0
M  V30 7474 C 719.224 -0.0430325 5.02282 0
M  V30 7475 C 721.218 1.5116 6.19217 0
M  V30 7476 C 718.905 0.83721 6.05338 0
M  V30 7477 C 719.903 1.61311 6.63677 0
M  V30 7478 O 719.591 2.47863 7.64735 0
M  V30 7479 H 719.323 -0.124725 0.664394 0
M  V30 7480 H 721.877 0.277329 2.03519 0
M  V30 7481 H 720.107 -1.90318 3.36625 0
M  V30 7482 H 721.796 -1.6572 3.70529 0
M  V30 7483 H 722.562 0.563424 4.81716 0
M  V30 7484 H 718.441 -0.636753 4.56581 0
M  V30 7485 H 721.985 2.11767 6.64681 0
M  V30 7486 H 717.882 0.909908 6.39055 0
M  V30 7487 H 718.65 2.4144 7.8208 0
M  V30 7488 N 721.313 -1.57302 -0.09688 0
M  V30 7489 C 722.729 -1.53094 -0.451041 0
M  V30 7490 C 722.929 -0.893265 -1.80618 0
M  V30 7491 O 721.985 -0.485013 -2.47798 0
M  V30 7492 C 723.298 -2.9782 -0.415172 0
M  V30 7493 C 724.846 -3.09026 -0.497155 0
M  V30 7494 C 725.321 -4.55356 -0.491452 0
M  V30 7495 N 726.812 -4.59896 -0.552258 0
M  V30 7496 C 727.547 -5.70563 -0.569654 0
M  V30 7497 N 727.043 -6.90666 -0.543365 0
M  V30 7498 N 728.836 -5.58733 -0.614331 0
M  V30 7499 H 720.987 -1.97131 0.790771 0
M  V30 7500 H 723.25 -0.901211 0.294147 0
M  V30 7501 H 722.956 -3.47933 0.513362 0
M  V30 7502 H 722.83 -3.56416 -1.23481 0
M  V30 7503 H 725.217 -2.58902 -1.41611 0
M  V30 7504 H 725.298 -2.53386 0.35059 0
M  V30 7505 H 724.942 -5.06131 0.423549 0
M  V30 7506 H 724.872 -5.08832 -1.35639 0
M  V30 7507 H 727.363 -3.73456 -0.577842 0
M  V30 7508 H 727.676 -7.70769 -0.559873 0
M  V30 7509 H 726.021 -6.93123 -0.510441 0
M  V30 7510 H 729.212 -4.63809 -0.632387 0
M  V30 7511 H 729.385 -6.44984 -0.62442 0
M  V30 7512 N 722.791 0.367657 -1.53252 0
M  V30 7513 C 724.039 1.10832 -1.68999 0
M  V30 7514 C 724.36 1.89894 -0.443306 0
M  V30 7515 O 723.63 1.88235 0.54262 0
M  V30 7516 H 722.21 0.412153 -0.623008 0
M  V30 7517 H 724.872 0.414775 -1.90435 0
M  V30 7518 H 723.968 1.7993 -2.55013 0
M  V30 7519 N 724.269 1.44576 0.627338 0
M  V30 7520 C 725.515 1.47777 1.38888 0
M  V30 7521 C 725.848 0.111406 1.9388 0
M  V30 7522 O 725.123 -0.87149 1.73883 0
M  V30 7523 C 725.406 2.54119 2.55138 0
M  V30 7524 C 725.259 4.00128 2.0547 0
M  V30 7525 C 726.578 2.56929 3.57317 0
M  V30 7526 H 723.697 0.538048 0.50366 0
M  V30 7527 H 726.339 1.76277 0.708978 0
M  V30 7528 H 724.489 2.29948 3.13139 0
M  V30 7529 H 726.161 4.35444 1.5227 0
M  V30 7530 H 724.404 4.11724 1.36623 0
M  V30 7531 H 725.075 4.7019 2.89181 0
M  V30 7532 H 727.551 2.78536 3.09122 0
M  V30 7533 H 726.427 3.33234 4.36173 0
M  V30 7534 H 726.688 1.6127 4.11636 0
M  V30 7535 N 725.747 -0.868086 1.31537 0
M  V30 7536 C 727.024 -1.60384 1.11965 0
M  V30 7537 C 727.404 -2.08584 -0.324949 0
M  V30 7538 O 726.752 -1.86561 -1.31937 0
M  V30 7539 C 726.962 -2.76038 2.13551 0
M  V30 7540 C 728.31 -3.45954 2.46173 0
M  V30 7541 O 729.334 -2.86247 2.11993 0
M  V30 7542 O 728.193 -4.53666 3.04711 0
M  V30 7543 H 725.287 -0.705705 0.431172 0
M  V30 7544 H 727.833 -0.913385 1.43022 0
M  V30 7545 H 726.605 -2.37849 3.10714 0
M  V30 7546 H 726.228 -3.52769 1.83411 0
M  V30 7547 N 727.225 -1.14528 -1.08264 0
M  V30 7548 C 728.502 -0.825185 -1.77342 0
M  V30 7549 C 728.882 0.681037 -1.99813 0
M  V30 7550 O 728.23 1.62234 -1.60912 0
M  V30 7551 C 728.44 -1.62556 -3.08831 0
M  V30 7552 C 729.788 -1.82585 -3.83338 0
M  V30 7553 O 730.812 -1.59254 -3.18617 0
M  V30 7554 O 729.671 -2.21598 -4.99556 0
M  V30 7555 H 726.765 -0.302531 -0.769678 0
M  V30 7556 H 729.311 -1.25056 -1.14713 0
M  V30 7557 H 728.083 -2.64862 -2.88035 0
M  V30 7558 H 727.706 -1.1959 -3.79189 0
M  V30 7559 N 728.703 1.26451 -0.940633 0
M  V30 7560 C 729.928 1.98407 -0.60412 0
M  V30 7561 C 730.353 1.69584 0.81382 0
M  V30 7562 O 729.711 0.943553 1.54812 0
M  V30 7563 C 729.759 3.50387 -0.852136 0
M  V30 7564 O 728.863 4.1233 0.076013 0
M  V30 7565 H 728.204 0.622466 -0.231153 0
M  V30 7566 H 730.734 1.60932 -1.26342 0
M  V30 7567 H 730.744 4.00614 -0.772816 0
M  V30 7568 H 729.419 3.70696 -1.88566 0
M  V30 7569 H 727.996 3.7286 -0.0543187 0
M  V30 7570 N 730.181 0.707592 1.40822 0
M  V30 7571 C 731.409 0.253073 2.05346 0
M  V30 7572 C 731.824 -1.10218 1.53289 0
M  V30 7573 O 731.181 -1.69112 0.686105 0
M  V30 7574 C 731.232 0.215411 3.60858 0
M  V30 7575 O 730.953 1.51714 4.10992 0
M  V30 7576 C 732.454 -0.258636 4.42545 0
M  V30 7577 H 729.674 0.115256 0.661027 0
M  V30 7578 H 732.218 0.963555 1.80377 0
M  V30 7579 H 730.373 -0.445978 3.84824 0
M  V30 7580 H 730.787 1.41226 5.05129 0
M  V30 7581 H 732.261 -0.233849 5.51504 0
M  V30 7582 H 732.738 -1.2995 4.19535 0
M  V30 7583 H 733.344 0.372186 4.23668 0
M  V30 7584 N 731.66 -1.50943 0.453197 0
M  V30 7585 C 732.908 -2.01813 -0.107709 0
M  V30 7586 C 733.229 -1.33841 -1.41816 0
M  V30 7587 O 732.499 -0.477973 -1.8998 0
M  V30 7588 H 731.079 -0.745773 -0.0427948 0
M  V30 7589 H 733.741 -1.8545 0.599531 0
M  V30 7590 H 732.837 -3.10911 -0.27218 0
M  V30 7591 N 733.138 -0.185124 -1.56509 0
M  V30 7592 C 734.385 0.456258 -1.97293 0
M  V30 7593 C 734.713 1.62314 -1.07165 0
M  V30 7594 O 733.968 1.95398 -0.108621 0
M  V30 7595 C 734.267 0.967977 -3.44042 0
M  V30 7596 C 733.933 -0.084476 -4.50821 0
M  V30 7597 C 732.595 -0.373689 -4.79747 0
M  V30 7598 C 734.947 -0.79812 -5.15053 0
M  V30 7599 C 732.275 -1.3817 -5.70198 0
M  V30 7600 C 734.627 -1.79521 -6.06593 0
M  V30 7601 C 733.291 -2.09172 -6.3388 0
M  V30 7602 H 732.561 0.166957 -0.721946 0
M  V30 7603 H 735.208 -0.279992 -1.89442 0
M  V30 7604 H 733.513 1.78231 -3.48914 0
M  V30 7605 H 735.21 1.47347 -3.72948 0
M  V30 7606 H 731.8 0.15111 -4.28334 0
M  V30 7607 H 735.984 -0.587903 -4.92806 0
M  V30 7608 H 731.24 -1.61745 -5.89617 0
M  V30 7609 H 735.414 -2.35347 -6.55427 0
M  V30 7610 H 733.041 -2.87427 -7.03768 0
M  V30 7611 N 734.616 1.57351 0.0885366 0
M  V30 7612 C 736.032 1.53331 0.442916 0
M  V30 7613 C 736.232 0.902831 1.80142 0
M  V30 7614 O 735.288 0.498147 2.47537 0
M  V30 7615 C 736.601 2.98036 0.399372 0
M  V30 7616 C 738.149 3.09286 0.480759 0
M  V30 7617 C 738.624 4.5561 0.467296 0
M  V30 7618 N 740.115 4.60182 0.52786 0
M  V30 7619 C 740.85 5.70857 0.539388 0
M  V30 7620 N 740.346 6.90944 0.506729 0
M  V30 7621 N 742.139 5.59051 0.584691 0
M  V30 7622 H 734.29 1.96709 -0.801215 0
M  V30 7623 H 736.553 0.899639 -0.298922 0
M  V30 7624 H 736.259 3.47656 -0.531806 0
M  V30 7625 H 736.133 3.57066 1.21589 0
M  V30 7626 H 738.52 2.5965 1.40236 0
M  V30 7627 H 738.601 2.53197 -0.364023 0
M  V30 7628 H 738.245 5.05899 -0.450384 0
M  V30 7629 H 738.175 5.09544 1.32938 0
M  V30 7630 H 740.666 3.73757 0.558028 0
M  V30 7631 H 740.979 7.71055 0.518989 0
M  V30 7632 H 739.324 6.93384 0.473675 0
M  V30 7633 H 742.515 4.64138 0.607781 0
M  V30 7634 H 742.688 6.45307 0.590206 0
M  V30 7635 N 736.094 -0.359525 1.53444 0
M  V30 7636 C 737.322 -1.12198 1.73837 0
M  V30 7637 C 737.737 -1.82854 0.470107 0
M  V30 7638 O 737.094 -1.73781 -0.557349 0
M  V30 7639 C 737.145 -2.14769 2.90786 0
M  V30 7640 O 736.866 -1.46989 4.12706 0
M  V30 7641 C 738.367 -3.03514 3.231 0
M  V30 7642 H 735.587 -0.33524 0.581253 0
M  V30 7643 H 738.131 -0.416598 2.00212 0
M  V30 7644 H 736.286 -2.80896 2.66788 0
M  V30 7645 H 736.7 -2.15378 4.78239 0
M  V30 7646 H 738.174 -3.71453 4.08322 0
M  V30 7647 H 738.651 -3.68658 2.38721 0
M  V30 7648 H 739.257 -2.42996 3.49046 0
M  V30 7649 N 737.572 -1.44907 -0.619662 0
M  V30 7650 C 738.988 -1.29046 -0.939107 0
M  V30 7651 C 739.188 -0.23462 -2.00129 0
M  V30 7652 O 738.244 0.37558 -2.49691 0
M  V30 7653 C 739.557 -2.66567 -1.39149 0
M  V30 7654 C 741.105 -2.74368 -1.50635 0
M  V30 7655 C 741.58 -4.12386 -1.99253 0
M  V30 7656 N 743.071 -4.1462 -2.06506 0
M  V30 7657 C 743.806 -5.18272 -2.4532 0
M  V30 7658 N 743.302 -6.32278 -2.83189 0
M  V30 7659 N 745.095 -5.05628 -2.45554 0
M  V30 7660 H 737.246 -2.12239 0.0826135 0
M  V30 7661 H 739.509 -0.947652 -0.0256829 0
M  V30 7662 H 739.215 -3.4496 -0.685254 0
M  V30 7663 H 739.089 -2.94224 -2.36034 0
M  V30 7664 H 741.476 -1.96287 -2.20353 0
M  V30 7665 H 741.557 -2.50439 -0.520963 0
M  V30 7666 H 741.201 -4.90947 -1.30127 0
M  V30 7667 H 741.131 -4.33699 -2.98684 0
M  V30 7668 H 743.622 -3.32343 -1.79878 0
M  V30 7669 H 743.935 -7.07172 -3.11652 0
M  V30 7670 H 742.28 -6.35699 -2.80913 0
M  V30 7671 H 745.471 -4.15613 -2.15367 0
M  V30 7672 H 745.644 -5.86529 -2.75478 0
M  V30 7673 N 739.05 0.861098 -1.31996 0
M  V30 7674 C 739.998 1.99052 -1.20337 0
M  V30 7675 C 740.992 1.69045 -0.109623 0
M  V30 7676 O 742.198 1.77931 -0.272117 0
M  V30 7677 H 738.573 0.653064 -0.372843 0
M  V30 7678 H 740.544 2.06015 -2.15872 0
M  V30 7679 C 739.293 3.34846 -0.936663 0
M  V30 7680 H 738.616 3.58462 -1.77045 0
M  V30 7681 H 740.056 4.1444 -0.895302 0
M  V30 7682 C 738.515 3.34965 0.360607 0
M  V30 7683 O 739.045 3.7745 1.37456 0
M  V30 7684 N 737.251 2.88101 0.380296 0
M  V30 7685 H 736.798 2.53721 -0.445351 0
M  V30 7686 H 736.756 2.88563 1.24816 0
M  V30 7687 N 740.528 1.15101 1.07655 0
M  V30 7688 C 741.777 0.918528 1.79572 0
M  V30 7689 C 742.09 -0.555922 1.87534 0
M  V30 7690 O 743.296 -0.905893 2.55941 0
M  V30 7691 C 741.752 1.59394 3.22679 0
M  V30 7692 C 741.36 3.1052 3.22927 0
M  V30 7693 C 743.104 1.44289 3.99225 0
M  V30 7694 C 741.011 3.70862 4.60668 0
M  V30 7695 H 739.941 0.340006 0.672987 0
M  V30 7696 H 742.592 1.38079 1.20857 0
M  V30 7697 H 740.974 1.05936 3.81567 0
M  V30 7698 H 742.148 3.70708 2.737 0
M  V30 7699 H 740.463 3.25351 2.59876 0
M  V30 7700 H 743.06 1.86766 5.01022 0
M  V30 7701 H 743.403 0.389975 4.14469 0
M  V30 7702 H 743.936 1.94826 3.46825 0
M  V30 7703 H 740.675 4.7604 4.50628 0
M  V30 7704 H 740.195 3.15456 5.10145 0
M  V30 7705 H 741.874 3.71607 5.29639 0
M  V30 7706 N 742.006 -1.2595 0.947325 0
M  V30 7707 C 742.936 -2.28521 0.479604 0
M  V30 7708 C 743.917 -1.63469 -0.470293 0
M  V30 7709 O 745.102 -1.90627 -0.370824 0
M  V30 7710 C 742.232 -3.46397 -0.250289 0
M  V30 7711 C 741.186 -4.23578 0.613643 0
M  V30 7712 C 740.512 -5.34131 -0.246568 0
M  V30 7713 C 741.812 -4.86979 1.88809 0
M  V30 7714 H 743.506 -2.67895 1.33688 0
M  V30 7715 H 741.052 -1.28783 0.644274 0
M  V30 7716 H 743.005 -4.17269 -0.588576 0
M  V30 7717 H 741.729 -3.05993 -1.14175 0
M  V30 7718 H 740.388 -3.54478 0.93491 0
M  V30 7719 H 740.036 -4.89968 -1.13756 0
M  V30 7720 H 739.736 -5.86683 0.328123 0
M  V30 7721 H 741.26 -6.07839 -0.579986 0
M  V30 7722 H 742.674 -5.50034 1.61666 0
M  V30 7723 H 741.071 -5.49675 2.40784 0
M  V30 7724 H 742.141 -4.09575 2.5957 0
M  V30 7725 N 743.484 -0.715051 -1.40445 0
M  V30 7726 C 744.724 -0.258742 -2.02756 0
M  V30 7727 C 745.088 1.12661 -1.55472 0
M  V30 7728 O 746.289 1.67988 -2.09842 0
M  V30 7729 C 744.56 -0.335201 -3.55825 0
M  V30 7730 S 746.119 0.044201 -4.38778 0
M  V30 7731 H 742.937 -0.102683 -0.703546 0
M  V30 7732 H 745.539 -0.937151 -1.71574 0
M  V30 7733 H 744.243 -1.34511 -3.87731 0
M  V30 7734 H 743.774 0.361705 -3.91734 0
M  V30 7735 H 745.789 1.26639 -4.79768 0
M  V30 7736 N 744.962 1.50701 -0.461195 0
M  V30 7737 C 746.209 2.02267 0.0971971 0
M  V30 7738 C 746.537 1.34387 1.40608 0
M  V30 7739 O 745.792 0.455254 1.90331 0
M  V30 7740 C 746.091 3.55788 0.33908 0
M  V30 7741 C 745.757 4.42092 -0.886885 0
M  V30 7742 C 744.419 4.65398 -1.22304 0
M  V30 7743 C 746.771 4.92571 -1.70361 0
M  V30 7744 C 744.099 5.36429 -2.37616 0
M  V30 7745 C 746.451 5.64868 -2.84793 0
M  V30 7746 C 745.115 5.86431 -3.18834 0
M  V30 7747 H 744.385 0.740146 0.0355669 0
M  V30 7748 H 747.032 1.81415 -0.61326 0
M  V30 7749 H 745.337 3.751 1.13168 0
M  V30 7750 H 747.034 3.93243 0.784937 0
M  V30 7751 H 743.624 4.24165 -0.614981 0
M  V30 7752 H 747.808 4.74428 -1.4571 0
M  V30 7753 H 743.064 5.51333 -2.64276 0
M  V30 7754 H 747.238 6.02966 -3.48432 0
M  V30 7755 H 744.865 6.41248 -4.08296 0
M  V30 7756 N 746.441 0.193421 1.56409 0
M  V30 7757 C 747.852 -0.319471 1.83946 0
M  V30 7758 C 748.203 -1.61505 1.11403 0
M  V30 7759 O 747.328 -2.13139 0.374289 0
M  V30 7760 C 747.923 -0.586411 3.33686 0
M  V30 7761 C 746.482 -1.04368 3.61641 0
M  V30 7762 C 745.629 -0.0913834 2.77149 0
M  V30 7763 H 748.58 0.417242 1.53117 0
M  V30 7764 H 748.601 -1.43591 3.52366 0
M  V30 7765 H 748.113 0.356701 3.86457 0
M  V30 7766 H 746.214 -2.00113 3.14302 0
M  V30 7767 H 746.327 -0.937549 4.69837 0
M  V30 7768 H 744.691 -0.592954 2.47702 0
M  V30 7769 H 745.474 0.846142 3.32709 0
M  V30 7770 N 747.919 -1.57396 -0.0801906 0
M  V30 7771 C 749.168 -1.8602 -0.779702 0
M  V30 7772 C 749.481 -0.784864 -1.79163 0
M  V30 7773 O 750.687 -0.958691 -2.54011 0
M  V30 7774 C 749.143 -3.29942 -1.43758 0
M  V30 7775 C 748.751 -4.45584 -0.464654 0
M  V30 7776 C 750.495 -3.67775 -2.11995 0
M  V30 7777 C 748.402 -5.80544 -1.12797 0
M  V30 7778 H 747.332 -0.69392 -0.294943 0
M  V30 7779 H 749.983 -1.83471 -0.0328527 0
M  V30 7780 H 748.365 -3.27078 -2.2324 0
M  V30 7781 H 749.539 -4.59824 0.299749 0
M  V30 7782 H 747.854 -4.16247 0.112813 0
M  V30 7783 H 750.451 -4.65896 -2.62383 0
M  V30 7784 H 750.794 -2.9715 -2.91561 0
M  V30 7785 H 751.327 -3.72593 -1.39354 0
M  V30 7786 H 748.066 -6.54439 -0.372807 0
M  V30 7787 H 747.586 -5.70119 -1.86344 0
M  V30 7788 H 749.265 -6.25602 -1.6502 0
M  V30 7789 N 749.397 0.351382 -1.53633 0
M  V30 7790 C 750.344 1.43115 -1.81071 0
M  V30 7791 C 751.314 1.52601 -0.655913 0
M  V30 7792 O 752.499 1.68264 -0.89955 0
M  V30 7793 C 749.639 2.79874 -2.01903 0
M  V30 7794 C 748.752 2.79242 -3.29618 0
M  V30 7795 C 747.887 4.07667 -3.40559 0
M  V30 7796 C 746.926 4.01233 -4.62254 0
M  V30 7797 N 746.063 5.21334 -4.70271 0
M  V30 7798 H 750.903 1.19017 -2.73201 0
M  V30 7799 H 748.44 0.576691 -1.35324 0
M  V30 7800 H 750.398 3.5934 -2.11969 0
M  V30 7801 H 749.028 3.0234 -1.13094 0
M  V30 7802 H 748.08 1.91927 -3.28433 0
M  V30 7803 H 749.392 2.70363 -4.19172 0
M  V30 7804 H 748.546 4.95555 -3.50015 0
M  V30 7805 H 747.285 4.19317 -2.49047 0
M  V30 7806 H 746.29 3.11732 -4.52884 0
M  V30 7807 H 747.515 3.91173 -5.55122 0
M  V30 7808 H 745.461 5.33543 -3.81665 0
M  V30 7809 H 745.378 5.14681 -5.5375 0
M  V30 7810 H 746.646 6.11014 -4.84027 0
M  V30 7811 N 750.875 1.45233 0.611969 0
M  V30 7812 C 751.823 1.53898 1.74408 0
M  V30 7813 C 752.817 0.409254 1.64382 0
M  V30 7814 O 754.023 0.584988 1.70229 0
M  V30 7815 H 750.398 0.483303 0.576127 0
M  V30 7816 H 752.369 2.49143 1.64227 0
M  V30 7817 C 751.118 1.51865 3.12782 0
M  V30 7818 H 750.441 2.38118 3.21154 0
M  V30 7819 H 751.881 1.61986 3.91838 0
M  V30 7820 C 750.34 0.242374 3.36027 0
M  V30 7821 O 750.87 -0.679587 3.9591 0
M  V30 7822 N 749.076 0.139448 2.90265 0
M  V30 7823 H 748.623 0.890571 2.41716 0
M  V30 7824 H 748.581 -0.713686 3.06193 0
M  V30 7825 N 752.353 -0.854086 1.3245 0
M  V30 7826 C 753.263 -1.99503 1.23434 0
M  V30 7827 C 754.279 -1.73371 0.147828 0
M  V30 7828 O 755.455 -1.97998 0.368609 0
M  V30 7829 C 752.52 -3.33192 0.958328 0
M  V30 7830 C 751.581 -3.72542 2.13333 0
M  V30 7831 C 750.814 -4.99852 1.8704 0
M  V30 7832 O 751.037 -5.64573 0.813239 0
M  V30 7833 O 749.971 -5.36345 2.73161 0
M  V30 7834 H 753.797 -2.10046 2.1935 0
M  V30 7835 H 751.382 -0.984823 1.12346 0
M  V30 7836 H 753.264 -4.13327 0.820918 0
M  V30 7837 H 751.939 -3.23687 0.0293299 0
M  V30 7838 H 750.846 -2.92981 2.32622 0
M  V30 7839 H 752.179 -3.86694 3.04514 0
M  V30 7840 N 753.831 -1.1567 -1.07043 0
M  V30 7841 C 754.779 -0.852204 -2.16426 0
M  V30 7842 C 755.773 0.175661 -1.68487 0
M  V30 7843 O 756.979 0.0303874 -1.79974 0
M  V30 7844 H 753.354 -0.257942 -0.706378 0
M  V30 7845 H 755.325 -1.78231 -2.39324 0
M  V30 7846 C 754.074 -0.361362 -3.45817 0
M  V30 7847 H 753.397 -1.14369 -3.83092 0
M  V30 7848 H 754.837 -0.186997 -4.23587 0
M  V30 7849 C 753.296 0.917703 -3.2416 0
M  V30 7850 O 753.826 1.98858 -3.49025 0
M  V30 7851 N 752.032 0.858456 -2.77631 0
M  V30 7852 H 751.579 -0.0131821 -2.57597 0
M  V30 7853 H 751.537 1.71478 -2.6352 0
M  V30 7854 N 755.309 1.25446 -0.953992 0
M  V30 7855 C 756.241 2.25111 -0.431004 0
M  V30 7856 C 757.254 1.56377 0.452764 0
M  V30 7857 O 758.443 1.76579 0.261144 0
M  V30 7858 C 755.543 3.3655 0.39839 0
M  V30 7859 C 754.716 4.34843 -0.472229 0
M  V30 7860 C 753.775 5.25351 0.29886 0
M  V30 7861 O 752.801 5.68396 -0.302522 0
M  V30 7862 N 754.003 5.5824 1.59211 0
M  V30 7863 H 756.768 2.70619 -1.28785 0
M  V30 7864 H 754.329 1.39346 -0.824281 0
M  V30 7865 H 756.321 3.94059 0.921941 0
M  V30 7866 H 754.891 2.90436 1.15609 0
M  V30 7867 H 754.111 3.76222 -1.17689 0
M  V30 7868 H 755.399 4.97497 -1.06648 0
M  V30 7869 H 754.797 5.25172 2.10264 0
M  V30 7870 H 753.354 6.18336 2.06164 0
M  V30 7871 N 756.787 0.722489 1.40064 0
M  V30 7872 C 757.697 0.0755984 2.34478 0
M  V30 7873 C 758.713 -0.736046 1.57665 0
M  V30 7874 O 759.889 -0.667407 1.9002 0
M  V30 7875 C 756.954 -0.830075 3.36616 0
M  V30 7876 C 756.015 -0.00759884 4.29299 0
M  V30 7877 C 755.248 -0.870139 5.26559 0
M  V30 7878 O 755.471 -2.10921 5.2997 0
M  V30 7879 O 754.405 -0.305454 6.01124 0
M  V30 7880 H 758.231 0.854545 2.9143 0
M  V30 7881 H 755.816 0.483032 1.41376 0
M  V30 7882 H 757.698 -1.34864 3.99236 0
M  V30 7883 H 756.373 -1.58805 2.82069 0
M  V30 7884 H 755.28 0.556199 3.69942 0
M  V30 7885 H 756.613 0.712312 4.87018 0
M  V30 7886 N 758.265 -1.50454 0.469181 0
M  V30 7887 C 759.511 -2.02615 -0.0865971 0
M  V30 7888 C 759.844 -1.35062 -1.39542 0
M  V30 7889 O 759.119 -0.475701 -1.88593 0
M  V30 7890 C 759.402 -3.59068 -0.272385 0
M  V30 7891 C 759.255 -4.37196 1.05733 0
M  V30 7892 C 760.574 -4.2793 -1.0278 0
M  V30 7893 H 757.693 -0.736389 -0.0299977 0
M  V30 7894 H 760.335 -1.79792 0.614399 0
M  V30 7895 H 758.485 -3.78646 -0.869471 0
M  V30 7896 H 760.157 -4.29195 1.69084 0
M  V30 7897 H 758.4 -4.01013 1.65442 0
M  V30 7898 H 759.071 -5.44924 0.880997 0
M  V30 7899 H 761.547 -4.12816 -0.521718 0
M  V30 7900 H 760.423 -5.37214 -1.12659 0
M  V30 7901 H 760.684 -3.90968 -2.0639 0
M  V30 7902 N 759.743 -0.201713 -1.56304 0
M  V30 7903 C 760.992 0.435557 -1.96941 0
M  V30 7904 C 761.305 1.62299 -1.09172 0
M  V30 7905 O 762.511 2.32849 -1.3962 0
M  V30 7906 C 760.967 0.826298 -3.50286 0
M  V30 7907 C 760.575 -0.337216 -4.46729 0
M  V30 7908 C 762.319 1.43028 -3.99679 0
M  V30 7909 C 760.226 0.0748539 -5.91353 0
M  V30 7910 H 759.156 0.1665 -0.735387 0
M  V30 7911 H 761.807 -0.294781 -1.81117 0
M  V30 7912 H 760.189 1.61349 -3.61639 0
M  V30 7913 H 761.363 -1.11476 -4.47113 0
M  V30 7914 H 759.678 -0.853126 -4.07567 0
M  V30 7915 H 762.275 1.75115 -5.05212 0
M  V30 7916 H 762.618 2.33911 -3.44371 0
M  V30 7917 H 763.151 0.706924 -3.91468 0
M  V30 7918 H 759.89 -0.799957 -6.506 0
M  V30 7919 H 759.41 0.817122 -5.94208 0
M  V30 7920 H 761.089 0.508389 -6.45 0
M  V30 7921 N 761.222 1.57436 0.0718424 0
M  V30 7922 C 762.47 1.86878 0.769484 0
M  V30 7923 C 762.791 0.7937 1.78116 0
M  V30 7924 O 762.061 -0.177642 1.95093 0
M  V30 7925 H 760.641 0.689593 0.287177 0
M  V30 7926 H 763.303 1.94841 0.0479427 0
M  V30 7927 H 762.399 2.84387 1.28572 0
M  V30 7928 N 762.7 -0.34323 1.53817 0
M  V30 7929 C 763.946 -1.08504 1.71332 0
M  V30 7930 C 764.279 -1.88294 0.475285 0
M  V30 7931 O 763.554 -1.87205 -0.527688 0
M  V30 7932 C 763.837 -2.02597 2.97702 0
M  V30 7933 C 763.69 -1.26268 4.31713 0
M  V30 7934 C 765.009 -3.0241 3.19744 0
M  V30 7935 H 762.128 -0.393072 0.623429 0
M  V30 7936 H 764.77 -0.363579 1.86489 0
M  V30 7937 H 762.92 -2.64118 2.8491 0
M  V30 7938 H 764.592 -0.673594 4.56356 0
M  V30 7939 H 762.835 -0.564696 4.30109 0
M  V30 7940 H 763.506 -1.95253 5.16314 0
M  V30 7941 H 765.982 -2.51004 3.31868 0
M  V30 7942 H 764.858 -3.65449 4.09558 0
M  V30 7943 H 765.119 -3.73806 2.36054 0
M  V30 7944 N 764.178 -1.45556 -0.604258 0
M  V30 7945 C 765.141 -1.54091 -1.69672 0
M  V30 7946 C 766.141 -0.420076 -1.55216 0
M  V30 7947 O 767.331 -0.683671 -1.60224 0
M  V30 7948 C 764.463 -1.44063 -3.08964 0
M  V30 7949 H 765.656 -2.51431 -1.6347 0
M  V30 7950 H 763.209 -1.33046 -0.820273 0
M  V30 7951 H 763.944 -0.479201 -3.2074 0
M  V30 7952 H 763.729 -2.25362 -3.20865 0
M  V30 7953 H 765.219 -1.53075 -3.88533 0
M  V30 7954 N 765.656 0.84705 -1.32902 0
M  V30 7955 C 766.566 1.98845 -1.2449 0
M  V30 7956 C 767.582 1.7329 -0.15702 0
M  V30 7957 O 768.758 1.978 -0.379104 0
M  V30 7958 C 765.823 3.32679 -0.975985 0
M  V30 7959 C 764.884 3.71405 -2.15306 0
M  V30 7960 C 764.117 4.98853 -1.89688 0
M  V30 7961 O 764.34 5.64134 -0.843168 0
M  V30 7962 O 763.274 5.34889 -2.76002 0
M  V30 7963 H 767.1 2.0888 -2.2046 0
M  V30 7964 H 764.685 0.978852 -1.12867 0
M  V30 7965 H 766.567 4.12885 -0.842826 0
M  V30 7966 H 765.242 3.23667 -0.0464954 0
M  V30 7967 H 764.149 2.91743 -2.34172 0
M  V30 7968 H 765.482 3.85073 -3.06561 0
M  V30 7969 N 767.134 1.16236 1.06428 0
M  V30 7970 C 768.064 0.890807 2.1584 0
M  V30 7971 C 769.045 -0.162333 1.69324 0
M  V30 7972 O 770.23 -0.0147191 1.94194 0
M  V30 7973 C 767.36 0.389615 3.45108 0
M  V30 7974 C 766.314 1.38051 4.05125 0
M  V30 7975 C 765.64 0.737773 5.29586 0
M  V30 7976 C 766.94 2.74965 4.44062 0
M  V30 7977 H 768.634 1.80577 2.38814 0
M  V30 7978 H 766.18 0.869657 1.14774 0
M  V30 7979 H 768.133 0.187127 4.20984 0
M  V30 7980 H 766.857 -0.560851 3.21748 0
M  V30 7981 H 765.516 1.56952 3.31303 0
M  V30 7982 H 765.164 -0.219135 5.02522 0
M  V30 7983 H 764.864 1.39914 5.70699 0
M  V30 7984 H 766.388 0.545275 6.0816 0
M  V30 7985 H 767.802 2.59855 5.11027 0
M  V30 7986 H 766.199 3.37563 4.96156 0
M  V30 7987 H 767.269 3.30321 3.54987 0
M  V30 7988 N 768.612 -1.24939 0.960631 0
M  V30 7989 C 769.858 -1.93104 0.61958 0
M  V30 7990 C 770.191 -1.74991 -0.84212 0
M  V30 7991 O 769.466 -1.09867 -1.60498 0
M  V30 7992 C 769.749 -3.46326 0.986422 0
M  V30 7993 C 769.602 -3.73638 2.50429 0
M  V30 7994 C 770.921 -4.37067 0.515827 0
M  V30 7995 H 768.04 -0.701311 0.226566 0
M  V30 7996 H 770.682 -1.47442 1.19836 0
M  V30 7997 H 768.832 -3.85348 0.493907 0
M  V30 7998 H 770.504 -3.44217 3.07103 0
M  V30 7999 H 768.747 -3.19035 2.93937 0
M  V30 8000 H 769.418 -4.80815 2.71147 0
M  V30 8001 H 771.894 -4.05381 0.938389 0
M  V30 8002 H 770.77 -5.43022 0.80114 0
M  V30 8003 H 771.031 -4.38224 -0.584171 0
M  V30 8004 N 770.09 -0.729906 -1.39679 0
M  V30 8005 C 771.038 -0.0756589 -2.32477 0
M  V30 8006 C 772.032 0.731438 -1.52795 0
M  V30 8007 O 773.238 0.633195 -1.68495 0
M  V30 8008 H 769.613 -0.00566492 -0.751979 0
M  V30 8009 H 771.584 -0.874797 -2.85289 0
M  V30 8010 C 770.333 0.821313 -3.37861 0
M  V30 8011 H 769.656 0.209666 -3.9925 0
M  V30 8012 H 771.096 1.24679 -4.05254 0
M  V30 8013 C 769.555 1.9533 -2.74495 0
M  V30 8014 O 770.085 3.04548 -2.61942 0
M  V30 8015 N 768.291 1.74119 -2.3266 0
M  V30 8016 H 767.838 0.852908 -2.4307 0
M  V30 8017 H 767.796 2.50036 -1.90603 0
M  V30 8018 N 771.568 1.50203 -0.477153 0
M  V30 8019 C 772.515 2.28656 0.31386 0
M  V30 8020 C 773.485 1.33977 0.981802 0
M  V30 8021 O 774.67 1.62919 0.993072 0
M  V30 8022 C 771.81 3.16027 1.38639 0
M  V30 8023 C 770.923 4.25743 0.732615 0
M  V30 8024 C 770.058 5.00363 1.78355 0
M  V30 8025 C 769.097 6.01945 1.11035 0
M  V30 8026 N 768.234 6.6982 2.10441 0
M  V30 8027 H 773.074 2.958 -0.361445 0
M  V30 8028 H 770.611 1.45867 -0.190093 0
M  V30 8029 H 772.569 3.6504 2.01994 0
M  V30 8030 H 771.199 2.50917 2.03077 0
M  V30 8031 H 770.251 3.80398 -0.0136546 0
M  V30 8032 H 771.563 4.98393 0.201513 0
M  V30 8033 H 770.717 5.53124 2.49276 0
M  V30 8034 H 769.456 4.27432 2.34847 0
M  V30 8035 H 768.461 5.48438 0.386797 0
M  V30 8036 H 769.686 6.76851 0.552248 0
M  V30 8037 H 767.632 5.99677 2.65939 0
M  V30 8038 H 767.549 7.38366 1.62332 0
M  V30 8039 H 768.817 7.27196 2.80724 0
M  V30 8040 N 773.046 0.209999 1.56195 0
M  V30 8041 C 774.295 -0.425106 1.97169 0
M  V30 8042 C 774.608 -1.61718 1.10031 0
M  V30 8043 O 775.814 -2.32105 1.40853 0
M  V30 8044 C 774.27 -0.80771 3.50719 0
M  V30 8045 C 773.878 0.360902 4.46544 0
M  V30 8046 C 775.622 -1.40906 4.00432 0
M  V30 8047 C 773.529 -0.0434919 5.91384 0
M  V30 8048 H 772.459 -0.162598 0.736259 0
M  V30 8049 H 775.11 0.304382 1.80958 0
M  V30 8050 H 773.492 -1.59429 3.62489 0
M  V30 8051 H 774.666 1.13846 4.46515 0
M  V30 8052 H 772.981 0.874729 4.07109 0
M  V30 8053 H 775.578 -1.72433 5.06133 0
M  V30 8054 H 775.921 -2.32081 3.45607 0
M  V30 8055 H 776.454 -0.686154 3.91838 0
M  V30 8056 H 773.193 0.834448 6.50167 0
M  V30 8057 H 772.713 -0.785598 5.94633 0
M  V30 8058 H 774.392 -0.474176 6.4526 0
M  V30 8059 N 774.524 -1.57472 -0.0634922 0
M  V30 8060 C 775.472 -2.05307 -1.09323 0
M  V30 8061 C 776.466 -0.959995 -1.39572 0
M  V30 8062 O 777.672 -1.14507 -1.38882 0
M  V30 8063 H 774.047 -0.65472 -0.369927 0
M  V30 8064 H 776.018 -2.90925 -0.663707 0
M  V30 8065 C 774.767 -2.51954 -2.39613 0
M  V30 8066 H 774.09 -3.35662 -2.1719 0
M  V30 8067 H 775.53 -2.89169 -3.10092 0
M  V30 8068 C 773.989 -1.40596 -3.06161 0
M  V30 8069 O 774.519 -0.752722 -3.94585 0
M  V30 8070 N 772.725 -1.14902 -2.66919 0
M  V30 8071 H 772.272 -1.68205 -1.95102 0
M  V30 8072 H 772.23 -0.406006 -3.11767 0
M  V30 8073 N 776.003 0.335068 -1.53997 0
M  V30 8074 C 777.251 1.07223 -1.71312 0
M  V30 8075 C 777.572 1.88911 -0.483486 0
M  V30 8076 O 776.842 1.89344 0.50257 0
M  V30 8077 H 775.422 0.398846 -0.63161 0
M  V30 8078 H 778.084 0.374288 -1.91272 0
M  V30 8079 H 777.18 1.7448 -2.58772 0
M  V30 8080 N 777.481 1.45874 0.596531 0
M  V30 8081 C 778.892 1.44798 1.17857 0
M  V30 8082 C 779.243 0.181443 1.95359 0
M  V30 8083 O 778.368 -0.716336 2.042 0
M  V30 8084 C 778.963 2.62333 2.14398 0
M  V30 8085 C 777.522 2.64342 2.67955 0
M  V30 8086 C 776.669 2.37244 1.43564 0
M  V30 8087 H 779.62 1.53954 0.385222 0
M  V30 8088 H 779.641 2.37063 2.97626 0
M  V30 8089 H 779.153 3.54499 1.57963 0
M  V30 8090 H 777.254 1.76213 3.28298 0
M  V30 8091 H 777.367 3.63897 3.11634 0
M  V30 8092 H 775.731 1.87022 1.72901 0
M  V30 8093 H 776.514 3.31568 0.889805 0
M  V30 8094 N 778.959 -0.83999 1.33349 0
M  V30 8095 C 780.205 -1.59724 1.25936 0
M  V30 8096 C 780.56 -1.91616 -0.173563 0
M  V30 8097 O 779.853 -1.55791 -1.11534 0
M  V30 8098 C 780.047 -2.91571 2.06691 0
M  V30 8099 C 779.876 -2.72556 3.57691 0
M  V30 8100 C 778.646 -2.70174 4.27006 0
M  V30 8101 C 780.844 -2.45272 4.52047 0
M  V30 8102 N 778.826 -2.42525 5.63964 0
M  V30 8103 C 780.197 -2.27163 5.76885 0
M  V30 8104 C 782.252 -2.30859 4.41144 0
M  V30 8105 C 780.955 -1.96105 6.92052 0
M  V30 8106 C 782.981 -2.01194 5.56125 0
M  V30 8107 C 782.343 -1.83897 6.79972 0
M  V30 8108 H 778.442 -0.587568 0.516031 0
M  V30 8109 H 781.026 -0.986169 1.67877 0
M  V30 8110 H 779.197 -3.5063 1.67073 0
M  V30 8111 H 780.929 -3.56762 1.91057 0
M  V30 8112 H 777.684 -2.8364 3.7927 0
M  V30 8113 H 778.108 -2.31588 6.36157 0
M  V30 8114 H 782.75 -2.42946 3.46031 0
M  V30 8115 H 780.468 -1.82756 7.87163 0
M  V30 8116 H 784.054 -1.90799 5.49624 0
M  V30 8117 H 782.934 -1.61271 7.67438 0
M  V30 8118 N 780.437 -1.16799 -1.0581 0
M  V30 8119 C 781.684 -0.952524 -1.78699 0
M  V30 8120 C 782.012 0.51931 -1.87439 0
M  V30 8121 O 781.267 1.40151 -1.36587 0
M  V30 8122 C 781.566 -1.53111 -3.22942 0
M  V30 8123 C 781.232 -3.0261 -3.34273 0
M  V30 8124 C 779.894 -3.43418 -3.37072 0
M  V30 8125 C 782.246 -3.98611 -3.35795 0
M  V30 8126 C 779.574 -4.78838 -3.39015 0
M  V30 8127 C 781.926 -5.33923 -3.39277 0
M  V30 8128 C 780.59 -5.74205 -3.40361 0
M  V30 8129 H 779.86 -0.348553 -0.653905 0
M  V30 8130 H 782.507 -1.45591 -1.244 0
M  V30 8131 H 780.812 -0.949286 -3.80126 0
M  V30 8132 H 782.509 -1.34002 -3.77948 0
M  V30 8133 H 779.099 -2.70075 -3.32803 0
M  V30 8134 H 783.283 -3.68146 -3.32839 0
M  V30 8135 H 778.539 -5.09369 -3.38161 0
M  V30 8136 H 782.713 -6.08094 -3.39403 0
M  V30 8137 H 780.34 -6.79117 -3.4162 0
M  V30 8138 N 781.915 1.24427 -0.967243 0
M  V30 8139 C 783.14 1.9708 -0.646069 0
M  V30 8140 C 783.565 1.71272 0.777665 0
M  V30 8141 O 782.923 0.976179 1.52776 0
M  V30 8142 C 782.971 3.48501 -0.926266 0
M  V30 8143 O 782.075 4.12398 -0.0114653 0
M  V30 8144 H 781.416 0.617423 -0.244304 0
M  V30 8145 H 783.946 1.58215 -1.29727 0
M  V30 8146 H 783.956 3.98885 -0.857619 0
M  V30 8147 H 782.631 3.66613 -1.96386 0
M  V30 8148 H 781.208 3.72661 -0.133396 0
M  V30 8149 N 783.393 0.737304 1.3929 0
M  V30 8150 C 784.34 0.0988364 2.30588 0
M  V30 8151 C 785.31 -0.727206 1.49335 0
M  V30 8152 O 786.495 -0.686694 1.78014 0
M  V30 8153 C 783.635 -0.800734 3.35682 0
M  V30 8154 C 782.748 0.0381731 4.31983 0
M  V30 8155 C 781.883 -0.862884 5.24145 0
M  V30 8156 C 780.922 -0.0193639 6.12097 0
M  V30 8157 N 780.059 -0.87648 6.96608 0
M  V30 8158 H 784.899 0.883031 2.84617 0
M  V30 8159 H 782.436 0.447111 1.4014 0
M  V30 8160 H 784.394 -1.33676 3.95205 0
M  V30 8161 H 783.024 -1.55088 2.83103 0
M  V30 8162 H 782.076 0.691641 3.74059 0
M  V30 8163 H 783.388 0.690294 4.94 0
M  V30 8164 H 782.542 -1.46667 5.88705 0
M  V30 8165 H 781.281 -1.54878 4.62454 0
M  V30 8166 H 780.286 0.597202 5.46547 0
M  V30 8167 H 781.511 0.663348 6.75852 0
M  V30 8168 H 779.457 -1.54762 6.37483 0
M  V30 8169 H 779.374 -0.280892 7.55478 0
M  V30 8170 H 780.642 -1.46575 7.65595 0
M  V30 8171 N 784.871 -1.49948 0.485112 0
M  V30 8172 C 786.118 -2.02396 -0.0650059 0
M  V30 8173 C 786.446 -1.36606 -1.38452 0
M  V30 8174 O 785.701 -0.485476 -1.89583 0
M  V30 8175 C 786 -3.56282 -0.282434 0
M  V30 8176 C 785.666 -4.40625 0.957106 0
M  V30 8177 C 784.328 -4.63393 1.29692 0
M  V30 8178 C 786.68 -4.89799 1.78176 0
M  V30 8179 C 784.008 -5.3258 2.4612 0
M  V30 8180 C 786.36 -5.60266 2.93743 0
M  V30 8181 C 785.024 -5.81284 3.28124 0
M  V30 8182 H 784.294 -0.740618 -0.0237873 0
M  V30 8183 H 786.941 -1.80416 0.642044 0
M  V30 8184 H 785.246 -3.76853 -1.07186 0
M  V30 8185 H 786.943 -3.94442 -0.722276 0
M  V30 8186 H 783.533 -4.23133 0.682384 0
M  V30 8187 H 787.717 -4.7205 1.53239 0
M  V30 8188 H 782.973 -5.47059 2.73014 0
M  V30 8189 H 787.147 -5.97347 3.5798 0
M  V30 8190 H 784.774 -6.34671 4.18446 0
M  V30 8191 N 786.349 -0.21828 -1.56081 0
M  V30 8192 C 787.626 0.463143 -1.90038 0
M  V30 8193 C 788.006 1.77982 -1.13515 0
M  V30 8194 O 787.354 2.27199 -0.24345 0
M  V30 8195 C 787.564 0.659292 -3.42716 0
M  V30 8196 C 788.912 0.968203 -4.13414 0
M  V30 8197 O 789.936 0.746195 -3.48296 0
M  V30 8198 O 788.795 1.38936 -5.28544 0
M  V30 8199 H 785.889 0.244435 -0.790051 0
M  V30 8200 H 788.435 -0.260221 -1.67693 0
M  V30 8201 H 787.207 -0.269584 -3.9037 0
M  V30 8202 H 786.83 1.43426 -3.7083 0
M  V30 8203 N 787.827 1.57504 0.0551401 0
M  V30 8204 C 788.737 2.08198 1.08124 0
M  V30 8205 C 789.753 1.01496 1.41331 0
M  V30 8206 O 790.929 1.33073 1.51174 0
M  V30 8207 C 787.994 2.52968 2.37083 0
M  V30 8208 C 787.055 3.7404 2.10696 0
M  V30 8209 C 786.288 4.16665 3.33505 0
M  V30 8210 O 786.511 3.59019 4.4324 0
M  V30 8211 O 785.445 5.09324 3.20737 0
M  V30 8212 H 789.271 2.95977 0.680518 0
M  V30 8213 H 786.856 1.46933 0.270401 0
M  V30 8214 H 788.738 2.82211 3.12946 0
M  V30 8215 H 787.413 1.6831 2.76502 0
M  V30 8216 H 786.32 3.49855 1.32484 0
M  V30 8217 H 787.653 4.59601 1.76148 0
M  V30 8218 N 789.305 -0.326896 1.54172 0
M  V30 8219 C 790.582 -1.08326 1.62864 0
M  V30 8220 C 790.962 -2.06018 0.46039 0
M  V30 8221 O 790.31 -2.21889 -0.545685 0
M  V30 8222 C 790.52 -1.78816 2.9971 0
M  V30 8223 C 791.868 -2.31958 3.55641 0
M  V30 8224 O 792.892 -1.88888 3.01993 0
M  V30 8225 O 791.751 -3.10801 4.49517 0
M  V30 8226 H 788.845 -0.499131 0.659392 0
M  V30 8227 H 791.391 -0.327054 1.66519 0
M  V30 8228 H 790.163 -1.07739 3.76176 0
M  V30 8229 H 789.786 -2.61255 2.99719 0
M  V30 8230 N 790.784 -1.46188 -0.588786 0
M  V30 8231 C 791.714 -1.59148 -1.70863 0
M  V30 8232 C 792.695 -0.442083 -1.64255 0
M  V30 8233 O 793.88 -0.667575 -1.82365 0
M  V30 8234 C 791.01 -1.5757 -3.09498 0
M  V30 8235 C 789.964 -2.71418 -3.30932 0
M  V30 8236 C 789.29 -2.549 -4.70032 0
M  V30 8237 C 790.59 -4.1329 -3.19356 0
M  V30 8238 H 792.284 -2.52889 -1.60274 0
M  V30 8239 H 789.83 -1.21707 -0.769638 0
M  V30 8240 H 791.783 -1.65231 -3.87655 0
M  V30 8241 H 790.507 -0.603705 -3.20972 0
M  V30 8242 H 789.166 -2.63216 -2.55172 0
M  V30 8243 H 788.814 -1.55797 -4.78264 0
M  V30 8244 H 788.514 -3.31257 -4.85327 0
M  V30 8245 H 790.038 -2.64443 -5.50366 0
M  V30 8246 H 791.452 -4.22636 -3.87365 0
M  V30 8247 H 789.849 -4.90187 -3.46175 0
M  V30 8248 H 790.919 -4.33874 -2.16522 0
M  V30 8249 N 792.262 0.832906 -1.33792 0
M  V30 8250 C 793.225 1.92471 -1.24449 0
M  V30 8251 C 794.225 1.59981 -0.162085 0
M  V30 8252 O 795.415 1.69208 -0.414029 0
M  V30 8253 C 792.547 3.28278 -0.919044 0
M  V30 8254 H 793.74 2.0218 -2.21502 0
M  V30 8255 H 791.293 1.0257 -1.17936 0
M  V30 8256 H 792.028 3.24263 0.048738 0
M  V30 8257 H 791.813 3.53241 -1.70187 0
M  V30 8258 H 793.303 4.08253 -0.878576 0
M  V30 8259 N 793.74 1.17359 1.05189 0
M  V30 8260 C 794.968 0.986529 1.81866 0
M  V30 8261 C 795.383 -0.46522 1.82979 0
M  V30 8262 O 794.74 -1.32305 1.25705 0
M  V30 8263 C 794.791 1.52021 3.27982 0
M  V30 8264 O 794.512 2.91511 3.27037 0
M  V30 8265 C 796.013 1.37774 4.21347 0
M  V30 8266 H 793.233 0.349021 0.573084 0
M  V30 8267 H 795.777 1.55648 1.32643 0
M  V30 8268 H 793.932 0.992287 3.74476 0
M  V30 8269 H 794.346 3.16178 4.18488 0
M  V30 8270 H 795.82 1.7993 5.21852 0
M  V30 8271 H 796.297 0.32483 4.37997 0
M  V30 8272 H 796.903 1.89583 3.80708 0
M  V30 8273 N 795.218 -1.23913 0.973828 0
M  V30 8274 C 796.181 -2.23367 0.51378 0
M  V30 8275 C 797.181 -1.55923 -0.39302 0
M  V30 8276 O 798.371 -1.73187 -0.187626 0
M  V30 8277 C 795.503 -3.39944 -0.255152 0
M  V30 8278 H 796.696 -2.65581 1.39307 0
M  V30 8279 H 794.249 -1.36632 0.759039 0
M  V30 8280 H 794.984 -3.03177 -1.15127 0
M  V30 8281 H 794.769 -3.90098 0.395673 0
M  V30 8282 H 796.259 -4.13749 -0.565842 0
M  V30 8283 N 796.696 -0.74468 -1.38897 0
M  V30 8284 C 797.943 -0.296884 -2.00312 0
M  V30 8285 C 798.271 1.11878 -1.59102 0
M  V30 8286 O 797.526 1.7789 -0.815702 0
M  V30 8287 C 797.825 -0.357302 -3.55609 0
M  V30 8288 C 797.491 -1.72736 -4.16501 0
M  V30 8289 C 796.153 -2.10232 -4.32846 0
M  V30 8290 C 798.505 -2.62647 -4.50184 0
M  V30 8291 C 795.833 -3.3713 -4.80167 0
M  V30 8292 C 798.185 -3.88926 -4.98918 0
M  V30 8293 C 796.849 -4.26503 -5.1347 0
M  V30 8294 H 796.119 -0.108638 -0.732993 0
M  V30 8295 H 798.766 -0.953419 -1.66079 0
M  V30 8296 H 797.071 0.382805 -3.89925 0
M  V30 8297 H 798.768 0.0074596 -4.00999 0
M  V30 8298 H 795.358 -1.42585 -4.04187 0
M  V30 8299 H 799.542 -2.34945 -4.37166 0
M  V30 8300 H 794.798 -3.66174 -4.89619 0
M  V30 8301 H 798.972 -4.58745 -5.23952 0
M  V30 8302 H 796.599 -5.24896 -5.49898 0
M  V30 8303 N 798.174 1.49689 -0.493057 0
M  V30 8304 C 799.399 2.07331 0.0535114 0
M  V30 8305 C 799.824 1.35196 1.30781 0
M  V30 8306 O 799.182 0.406246 1.7669 0
M  V30 8307 C 799.23 3.59364 0.29825 0
M  V30 8308 O 798.334 3.88819 1.37454 0
M  V30 8309 H 797.675 0.663612 -0.0227018 0
M  V30 8310 H 800.205 1.926 -0.690402 0
M  V30 8311 H 800.215 4.04515 0.532159 0
M  V30 8312 H 798.89 4.1128 -0.618207 0
M  V30 8313 H 797.467 3.55487 1.12621 0
M  V30 8314 N 799.652 0.226554 1.55963 0
M  V30 8315 C 800.901 -0.40417 1.97609 0
M  V30 8316 C 801.214 -1.60541 1.1174 0
M  V30 8317 O 802.42 -2.30598 1.43307 0
M  V30 8318 C 800.876 -0.770466 3.51556 0
M  V30 8319 C 800.484 0.408244 4.46136 0
M  V30 8320 C 802.228 -1.36651 4.01904 0
M  V30 8321 C 800.135 0.0192347 5.91397 0
M  V30 8322 H 799.065 -0.15478 0.737943 0
M  V30 8323 H 801.716 0.323558 1.80625 0
M  V30 8324 H 800.098 -1.55575 3.6416 0
M  V30 8325 H 801.272 1.18575 4.45283 0
M  V30 8326 H 799.587 0.917859 4.06158 0
M  V30 8327 H 802.184 -1.67055 5.07934 0
M  V30 8328 H 802.527 -2.28403 3.48049 0
M  V30 8329 H 803.06 -0.644556 3.92543 0
M  V30 8330 H 799.799 0.90336 6.49245 0
M  V30 8331 H 799.319 -0.722485 5.95433 0
M  V30 8332 H 800.998 -0.405711 6.45727 0
M  V30 8333 N 801.13 -1.57531 -0.0467866 0
M  V30 8334 C 802.36 -1.92417 -0.752279 0
M  V30 8335 C 802.768 -0.823134 -1.70356 0
M  V30 8336 O 802.111 0.210598 -1.82489 0
M  V30 8337 C 802.173 -3.22974 -1.57887 0
M  V30 8338 C 801.837 -4.50045 -0.794285 0
M  V30 8339 C 802.834 -5.19799 -0.102368 0
M  V30 8340 C 800.519 -4.96608 -0.754061 0
M  V30 8341 C 802.513 -6.34385 0.619267 0
M  V30 8342 C 800.2 -6.11093 -0.0286682 0
M  V30 8343 C 801.198 -6.79835 0.656772 0
M  V30 8344 O 800.886 -7.92133 1.37042 0
M  V30 8345 H 800.618 -0.640029 -0.217576 0
M  V30 8346 H 803.172 -2.05395 -0.0137438 0
M  V30 8347 H 801.402 -3.06273 -2.3608 0
M  V30 8348 H 803.091 -3.43319 -2.16533 0
M  V30 8349 H 803.857 -4.8484 -0.124589 0
M  V30 8350 H 799.736 -4.42958 -1.27706 0
M  V30 8351 H 803.28 -6.87975 1.15483 0
M  V30 8352 H 799.177 -6.455 -0.00446214 0
M  V30 8353 H 799.945 -8.08394 1.28227 0
M  V30 8354 N 802.608 0.318715 -1.54344 0
M  V30 8355 C 803.848 1.06425 -1.74508 0
M  V30 8356 C 804.212 1.85087 -0.510572 0
M  V30 8357 O 805.413 2.62253 -0.589647 0
M  V30 8358 C 803.684 1.96054 -2.98827 0
M  V30 8359 S 805.243 2.77493 -3.39916 0
M  V30 8360 H 802.061 0.35921 -0.613587 0
M  V30 8361 H 804.663 0.339679 -1.92526 0
M  V30 8362 H 803.367 1.37109 -3.8682 0
M  V30 8363 H 802.898 2.72908 -2.83346 0
M  V30 8364 H 804.913 3.98544 -2.95596 0
M  V30 8365 N 804.086 1.46499 0.581025 0
M  V30 8366 C 805.334 1.51596 1.33653 0
M  V30 8367 C 805.655 0.169859 1.94259 0
M  V30 8368 O 804.925 -0.803776 1.78651 0
M  V30 8369 H 803.505 0.558346 0.496244 0
M  V30 8370 H 806.167 1.8264 0.680338 0
M  V30 8371 H 805.263 2.26956 2.14237 0
M  V30 8372 N 805.565 -0.825799 1.34232 0
M  V30 8373 C 806.814 -1.57686 1.2577 0
M  V30 8374 C 807.127 -1.94848 -0.171372 0
M  V30 8375 O 808.333 -2.68854 -0.378123 0
M  V30 8376 C 806.789 -2.84478 2.20454 0
M  V30 8377 C 806.397 -2.54629 3.68603 0
M  V30 8378 C 808.141 -3.625 2.20893 0
M  V30 8379 C 806.048 -3.77597 4.55164 0
M  V30 8380 H 804.978 -0.591809 0.467203 0
M  V30 8381 H 807.629 -0.909421 1.59379 0
M  V30 8382 H 806.011 -3.52832 1.79793 0
M  V30 8383 H 807.185 -1.94404 4.17784 0
M  V30 8384 H 805.5 -1.89888 3.70582 0
M  V30 8385 H 808.097 -4.538 2.82789 0
M  V30 8386 H 808.44 -3.98404 1.20746 0
M  V30 8387 H 808.973 -3.01086 2.59985 0
M  V30 8388 H 805.712 -3.46815 5.56237 0
M  V30 8389 H 805.232 -4.37116 4.10719 0
M  V30 8390 H 806.911 -4.45039 4.69627 0
M  V30 8391 N 807.043 -1.17915 -1.04565 0
M  V30 8392 C 808.268 -0.996749 -1.81878 0
M  V30 8393 C 808.693 0.450169 -1.82634 0
M  V30 8394 O 808.051 1.32268 -1.23995 0
M  V30 8395 C 808.099 -1.55005 -3.25585 0
M  V30 8396 O 807.203 -0.76804 -4.05185 0
M  V30 8397 H 806.544 -0.353456 -0.562108 0
M  V30 8398 H 809.074 -1.56557 -1.31723 0
M  V30 8399 H 809.084 -1.57503 -3.76373 0
M  V30 8400 H 807.759 -2.60327 -3.2435 0
M  V30 8401 H 806.336 -0.81498 -3.63885 0
M  V30 8402 N 808.521 1.23394 -0.980386 0
M  V30 8403 C 809.77 1.91116 -0.644785 0
M  V30 8404 C 810.083 1.77333 0.825367 0
M  V30 8405 O 811.289 2.39858 1.27203 0
M  V30 8406 C 809.745 3.42592 -1.10266 0
M  V30 8407 C 809.353 3.65037 -2.59715 0
M  V30 8408 C 811.097 4.1609 -0.8408 0
M  V30 8409 C 809.004 5.10148 -2.9917 0
M  V30 8410 H 807.934 0.715632 -0.23746 0
M  V30 8411 H 810.585 1.39829 -1.18828 0
M  V30 8412 H 808.967 3.92989 -0.487372 0
M  V30 8413 H 810.141 3.25186 -3.26482 0
M  V30 8414 H 808.456 3.04849 -2.83647 0
M  V30 8415 H 811.053 5.23021 -1.11143 0
M  V30 8416 H 811.396 4.15702 0.223085 0
M  V30 8417 H 811.929 3.71681 -1.41767 0
M  V30 8418 H 808.668 5.15668 -4.04682 0
M  V30 8419 H 808.188 5.50949 -2.37097 0
M  V30 8420 H 809.867 5.7848 -2.89775 0
M  V30 8421 N 809.999 0.752036 1.385 0
M  V30 8422 C 810.962 0.131587 2.28822 0
M  V30 8423 C 811.962 -0.649149 1.47115 0
M  V30 8424 O 813.152 -0.475645 1.67581 0
M  V30 8425 C 810.284 -0.822101 3.30839 0
M  V30 8426 H 811.477 0.927551 2.85196 0
M  V30 8427 H 809.03 0.518945 1.47434 0
M  V30 8428 H 809.765 -1.6438 2.79553 0
M  V30 8429 H 809.55 -0.264689 3.91206 0
M  V30 8430 H 811.04 -1.25226 3.98382 0
M  V30 8431 N 811.477 -1.49425 0.500989 0
M  V30 8432 C 812.427 -2.26061 -0.296698 0
M  V30 8433 C 813.411 -1.30906 -0.935541 0
M  V30 8434 O 814.603 -1.55628 -0.843142 0
M  V30 8435 C 811.732 -3.15189 -1.36055 0
M  V30 8436 C 810.818 -4.17806 -0.727952 0
M  V30 8437 N 811.209 -5.05516 0.169408 0
M  V30 8438 C 809.507 -4.34907 -0.988535 0
M  V30 8439 C 810.208 -5.79267 0.531509 0
M  V30 8440 N 809.184 -5.43507 -0.100564 0
M  V30 8441 H 812.986 -2.91246 0.394103 0
M  V30 8442 H 810.5 -1.59275 0.317065 0
M  V30 8443 H 812.497 -3.68724 -1.94547 0
M  V30 8444 H 811.157 -2.51556 -2.05303 0
M  V30 8445 H 812.168 -5.15075 0.540218 0
M  V30 8446 H 808.845 -3.82481 -1.67376 0
M  V30 8447 H 810.235 -6.59872 1.26564 0
M  V30 8448 N 812.955 -0.234822 -1.55841 0
M  V30 8449 C 814.18 0.400741 -2.03492 0
M  V30 8450 C 814.605 1.51618 -1.11327 0
M  V30 8451 O 813.963 1.81002 -0.103922 0
M  V30 8452 C 814.011 0.897184 -3.49261 0
M  V30 8453 O 813.115 2.00764 -3.60233 0
M  V30 8454 H 812.456 0.0890023 -0.658008 0
M  V30 8455 H 814.986 -0.357345 -2.01455 0
M  V30 8456 H 814.996 1.20356 -3.89844 0
M  V30 8457 H 813.671 0.0808639 -4.15821 0
M  V30 8458 H 812.248 1.70689 -3.31541 0
M  V30 8459 N 814.433 1.57553 0.0384317 0
M  V30 8460 C 815.363 2.0898 1.04161 0
M  V30 8461 C 816.344 0.99029 1.38301 0
M  V30 8462 O 817.529 1.26499 1.47349 0
M  V30 8463 C 814.659 2.56145 2.34536 0
M  V30 8464 C 813.613 3.70275 2.14663 0
M  V30 8465 C 812.939 4.03612 3.50715 0
M  V30 8466 C 814.239 4.99067 1.54045 0
M  V30 8467 H 815.933 2.93046 0.613548 0
M  V30 8468 H 813.479 1.40973 0.293684 0
M  V30 8469 H 815.432 2.90741 3.05037 0
M  V30 8470 H 814.156 1.6915 2.79385 0
M  V30 8471 H 812.815 3.36013 1.46597 0
M  V30 8472 H 812.463 3.13698 3.93195 0
M  V30 8473 H 812.163 4.80482 3.38247 0
M  V30 8474 H 813.687 4.40735 4.22593 0
M  V30 8475 H 815.101 5.3168 2.14451 0
M  V30 8476 H 813.498 5.80484 1.52178 0
M  V30 8477 H 814.568 4.8226 0.505259 0
M  V30 8478 N 815.911 -0.310526 1.54511 0
M  V30 8479 C 816.841 -1.38757 1.878 0
M  V30 8480 C 817.822 -1.53353 0.735991 0
M  V30 8481 O 819.007 -1.67018 0.990887 0
M  V30 8482 C 816.137 -2.75327 2.11689 0
M  V30 8483 C 815.091 -2.75506 3.27537 0
M  V30 8484 C 814.417 -4.15275 3.36824 0
M  V30 8485 C 815.717 -2.38093 4.64875 0
M  V30 8486 H 817.411 -1.11146 2.78005 0
M  V30 8487 H 814.957 -0.533232 1.33763 0
M  V30 8488 H 816.91 -3.50752 2.33562 0
M  V30 8489 H 815.634 -3.04443 1.18245 0
M  V30 8490 H 814.293 -2.02538 3.05572 0
M  V30 8491 H 813.941 -4.41553 2.40915 0
M  V30 8492 H 813.641 -4.16299 4.14692 0
M  V30 8493 H 815.165 -4.92493 3.60947 0
M  V30 8494 H 816.579 -3.03232 4.86542 0
M  V30 8495 H 814.976 -2.50345 5.45387 0
M  V30 8496 H 816.046 -1.33227 4.66239 0
M  V30 8497 N 817.389 -1.46805 -0.573248 0
M  V30 8498 C 818.619 -1.55965 -1.35494 0
M  V30 8499 C 819.027 -0.203038 -1.88107 0
M  V30 8500 O 818.37 0.81138 -1.6481 0
M  V30 8501 C 818.432 -2.51168 -2.57206 0
M  V30 8502 C 818.096 -3.97211 -2.25993 0
M  V30 8503 C 819.093 -4.86155 -1.84254 0
M  V30 8504 C 816.778 -4.42419 -2.37846 0
M  V30 8505 C 818.772 -6.18323 -1.54776 0
M  V30 8506 C 816.459 -5.74619 -2.0798 0
M  V30 8507 C 817.457 -6.62392 -1.66511 0
M  V30 8508 O 817.145 -7.92137 -1.37016 0
M  V30 8509 H 816.877 -0.529748 -0.419932 0
M  V30 8510 H 819.431 -1.92998 -0.702914 0
M  V30 8511 H 817.661 -2.09171 -3.25245 0
M  V30 8512 H 819.35 -2.50631 -3.19279 0
M  V30 8513 H 820.116 -4.52481 -1.74603 0
M  V30 8514 H 815.995 -3.74319 -2.69085 0
M  V30 8515 H 819.539 -6.8679 -1.22334 0
M  V30 8516 H 815.436 -6.0784 -2.17258 0
M  V30 8517 H 816.204 -8.04492 -1.50782 0
M  V30 8518 N 818.867 0.818669 -1.34668 0
M  V30 8519 C 819.814 1.92983 -1.26595 0
M  V30 8520 C 820.784 1.65506 -0.140315 0
M  V30 8521 O 821.969 1.88063 -0.322005 0
M  V30 8522 C 819.109 3.2932 -1.03163 0
M  V30 8523 C 818.222 3.69061 -2.24539 0
M  V30 8524 C 817.357 4.94368 -1.94355 0
M  V30 8525 C 816.396 5.26702 -3.11851 0
M  V30 8526 N 815.533 6.43187 -2.81522 0
M  V30 8527 H 820.373 1.99219 -2.2162 0
M  V30 8528 H 817.91 0.974612 -1.1018 0
M  V30 8529 H 819.868 4.07897 -0.87613 0
M  V30 8530 H 818.498 3.22584 -0.118045 0
M  V30 8531 H 817.55 2.85842 -2.50995 0
M  V30 8532 H 818.862 3.88924 -3.12313 0
M  V30 8533 H 818.016 5.80742 -1.75566 0
M  V30 8534 H 816.755 4.76515 -1.03848 0
M  V30 8535 H 815.76 4.38823 -3.31231 0
M  V30 8536 H 816.985 5.46492 -4.03142 0
M  V30 8537 H 814.931 6.26783 -1.93596 0
M  V30 8538 H 814.848 6.63243 -3.62829 0
M  V30 8539 H 816.116 7.32621 -2.66247 0
M  V30 8540 N 820.346 1.18468 1.03938 0
M  V30 8541 C 821.293 0.912859 2.1198 0
M  V30 8542 C 822.263 -0.14824 1.65437 0
M  V30 8543 O 823.448 -0.008331 1.90798 0
M  V30 8544 C 820.588 0.446114 3.42204 0
M  V30 8545 C 819.701 1.57278 4.02353 0
M  V30 8546 C 818.836 1.05863 5.20544 0
M  V30 8547 C 817.875 2.1599 5.72726 0
M  V30 8548 N 817.012 1.65959 6.82204 0
M  V30 8549 H 821.852 1.83798 2.34569 0
M  V30 8550 H 819.389 0.916504 1.15059 0
M  V30 8551 H 821.347 0.15697 4.16905 0
M  V30 8552 H 819.977 -0.442025 3.19759 0
M  V30 8553 H 819.029 1.97737 3.24968 0
M  V30 8554 H 820.341 2.40289 4.37107 0
M  V30 8555 H 819.495 0.724087 6.02364 0
M  V30 8556 H 818.234 0.198116 4.87297 0
M  V30 8557 H 817.239 2.50287 4.89527 0
M  V30 8558 H 818.464 3.02479 6.08016 0
M  V30 8559 H 816.41 0.82199 6.5083 0
M  V30 8560 H 816.327 2.42567 7.16029 0
M  V30 8561 H 817.595 1.35436 7.67644 0
M  V30 8562 N 821.824 -1.22873 0.986916 0
M  V30 8563 C 823.07 -1.91746 0.660401 0
M  V30 8564 C 823.403 -1.76738 -0.804812 0
M  V30 8565 O 822.678 -1.13246 -1.58131 0
M  V30 8566 C 822.961 -3.44156 1.05966 0
M  V30 8567 C 822.814 -3.68242 2.58298 0
M  V30 8568 C 824.133 -4.35874 0.60842 0
M  V30 8569 H 821.252 -0.696347 0.241391 0
M  V30 8570 H 823.894 -1.44867 1.22937 0
M  V30 8571 H 822.044 -3.84213 0.575534 0
M  V30 8572 H 823.716 -3.37626 3.14335 0
M  V30 8573 H 821.959 -3.12728 3.00638 0
M  V30 8574 H 822.63 -4.74956 2.81285 0
M  V30 8575 H 825.106 -4.03299 1.02417 0
M  V30 8576 H 823.982 -5.41201 0.916142 0
M  V30 8577 H 824.243 -4.39364 -0.491086 0
M  V30 8578 N 823.302 -0.75937 -1.38099 0
M  V30 8579 C 824.25 -0.124954 -2.32264 0
M  V30 8580 C 825.244 0.698863 -1.54312 0
M  V30 8581 O 826.45 0.597312 -1.698 0
M  V30 8582 H 822.825 -0.0216142 -0.751689 0
M  V30 8583 H 824.796 -0.935115 -2.83369 0
M  V30 8584 C 823.545 0.749463 -3.39527 0
M  V30 8585 H 822.868 0.124932 -3.99605 0
M  V30 8586 H 824.308 1.16055 -4.07808 0
M  V30 8587 C 822.767 1.89464 -2.78577 0
M  V30 8588 O 823.297 2.98923 -2.68343 0
M  V30 8589 N 821.503 1.69145 -2.36301 0
M  V30 8590 H 821.05 0.801157 -2.44825 0
M  V30 8591 H 821.008 2.45936 -1.95864 0
M  V30 8592 N 824.78 1.49157 -0.508906 0
M  V30 8593 C 825.69 2.33045 0.269656 0
M  V30 8594 C 826.706 1.45143 0.959662 0
M  V30 8595 O 827.882 1.78155 0.939295 0
M  V30 8596 C 824.947 3.20772 1.31554 0
M  V30 8597 C 824.008 4.24531 0.638131 0
M  V30 8598 C 823.241 5.08065 1.63418 0
M  V30 8599 O 823.464 4.93238 2.86483 0
M  V30 8600 O 822.398 5.90117 1.18516 0
M  V30 8601 H 826.224 3.00821 -0.417183 0
M  V30 8602 H 823.809 1.46938 -0.270119 0
M  V30 8603 H 825.691 3.75095 1.92047 0
M  V30 8604 H 824.366 2.55681 1.98516 0
M  V30 8605 H 823.273 3.74099 -0.00674357 0
M  V30 8606 H 824.606 4.92199 0.0108155 0
M  V30 8607 N 826.258 0.243083 1.55714 0
M  V30 8608 C 827.221 -0.644723 2.19945 0
M  V30 8609 C 828.221 -1.10562 1.16759 0
M  V30 8610 O 829.411 -1.01095 1.41865 0
M  V30 8611 C 826.543 -1.88569 2.83997 0
M  V30 8612 H 827.736 -0.0843839 2.99781 0
M  V30 8613 H 825.289 -0.00647246 1.56299 0
M  V30 8614 H 826.024 -2.48736 2.08089 0
M  V30 8615 H 825.809 -1.56345 3.59581 0
M  V30 8616 H 827.299 -2.51774 3.33166 0
M  V30 8617 N 827.736 -1.57571 -0.0300757 0
M  V30 8618 C 828.668 -2.0329 -1.05857 0
M  V30 8619 C 829.681 -0.945543 -1.32527 0
M  V30 8620 O 830.87 -1.22287 -1.30032 0
M  V30 8621 C 827.97 -2.39234 -2.40042 0
M  V30 8622 C 827.143 -3.70337 -2.32743 0
M  V30 8623 C 826.202 -3.93482 -3.49369 0
M  V30 8624 O 825.228 -4.64551 -3.28909 0
M  V30 8625 N 826.43 -3.39042 -4.71201 0
M  V30 8626 H 829.195 -2.9214 -0.668897 0
M  V30 8627 H 826.756 -1.60425 -0.218038 0
M  V30 8628 H 828.748 -2.51856 -3.16782 0
M  V30 8629 H 827.318 -1.5606 -2.70858 0
M  V30 8630 H 826.538 -3.68079 -1.41109 0
M  V30 8631 H 827.826 -4.56343 -2.25007 0
M  V30 8632 H 827.224 -2.81434 -4.90725 0
M  V30 8633 H 825.781 -3.57045 -5.45309 0
M  V30 8634 N 829.214 0.302327 -1.54673 0
M  V30 8635 C 830.444 1.05516 -1.77623 0
M  V30 8636 C 830.852 1.81474 -0.535159 0
M  V30 8637 O 830.195 1.76635 0.504543 0
M  V30 8638 C 830.257 2.08305 -2.93001 0
M  V30 8639 C 829.921 1.51554 -4.31139 0
M  V30 8640 C 830.918 0.946261 -5.11216 0
M  V30 8641 C 828.603 1.55157 -4.77736 0
M  V30 8642 C 830.597 0.420559 -6.36011 0
M  V30 8643 C 828.284 1.022 -6.02494 0
M  V30 8644 C 829.282 0.457461 -6.81466 0
M  V30 8645 O 828.97 -0.064083 -8.03874 0
M  V30 8646 H 828.702 0.318756 -0.59613 0
M  V30 8647 H 831.256 0.347558 -2.02438 0
M  V30 8648 H 829.486 2.82742 -2.63807 0
M  V30 8649 H 831.175 2.69479 -3.03539 0
M  V30 8650 H 831.941 0.911338 -4.76361 0
M  V30 8651 H 827.82 1.98037 -4.16296 0
M  V30 8652 H 831.364 -0.0207298 -6.97597 0
M  V30 8653 H 827.261 1.05406 -6.36836 0
M  V30 8654 H 828.029 0.0493422 -8.18485 0
M  V30 8655 N 830.692 1.47107 0.565454 0
M  V30 8656 C 832.108 1.32443 0.890566 0
M  V30 8657 C 832.308 0.308735 1.99121 0
M  V30 8658 O 831.364 -0.28265 2.50913 0
M  V30 8659 C 832.677 2.71548 1.2916 0
M  V30 8660 C 834.225 2.7977 1.40349 0
M  V30 8661 C 834.7 4.19497 1.83811 0
M  V30 8662 N 836.191 4.21998 1.90975 0
M  V30 8663 C 836.926 5.2702 2.25916 0
M  V30 8664 N 836.422 6.42353 2.59527 0
M  V30 8665 N 838.215 5.14393 2.26619 0
M  V30 8666 H 830.366 2.11786 -0.161328 0
M  V30 8667 H 832.629 0.947952 -0.00950631 0
M  V30 8668 H 832.335 3.47265 0.556753 0
M  V30 8669 H 832.209 3.02782 2.24951 0
M  V30 8670 H 834.596 2.0433 2.12916 0
M  V30 8671 H 834.677 2.522 0.427655 0
M  V30 8672 H 834.321 4.95439 1.11816 0
M  V30 8673 H 834.251 4.44486 2.82382 0
M  V30 8674 H 836.742 3.38791 1.6742 0
M  V30 8675 H 837.055 7.18252 2.85191 0
M  V30 8676 H 835.4 6.45687 2.57126 0
M  V30 8677 H 838.591 4.2332 1.99794 0
M  V30 8678 H 838.764 5.96349 2.5352 0
M  V30 8679 N 832.17 -0.811516 1.35101 0
M  V30 8680 C 833.395 -1.60499 1.31358 0
M  V30 8681 C 833.82 -1.87793 -0.107383 0
M  V30 8682 O 833.178 -1.46161 -1.07268 0
M  V30 8683 C 833.226 -2.91612 2.12119 0
M  V30 8684 O 832.33 -3.84211 1.49853 0
M  V30 8685 H 831.671 -0.487702 0.450603 0
M  V30 8686 H 834.201 -1.00758 1.7807 0
M  V30 8687 H 834.211 -3.4108 2.23894 0
M  V30 8688 H 832.886 -2.71071 3.15426 0
M  V30 8689 H 831.463 -3.42751 1.46889 0
M  V30 8690 N 833.648 -1.19017 -1.03309 0
M  V30 8691 C 834.598 -0.89194 -2.0983 0
M  V30 8692 C 835.582 0.14151 -1.60277 0
M  V30 8693 O 836.774 -0.0635946 -1.76886 0
M  V30 8694 C 833.903 -0.427793 -3.40624 0
M  V30 8695 C 832.989 -1.49374 -3.96923 0
M  V30 8696 N 833.38 -2.71213 -4.26939 0
M  V30 8697 C 831.678 -1.35605 -4.24885 0
M  V30 8698 C 832.379 -3.39849 -4.72099 0
M  V30 8699 N 831.355 -2.67239 -4.73375 0
M  V30 8700 H 835.157 -1.81801 -2.30923 0
M  V30 8701 H 832.671 -1.08171 -1.21131 0
M  V30 8702 H 834.668 -0.195608 -4.16441 0
M  V30 8703 H 833.328 0.491848 -3.20953 0
M  V30 8704 H 834.339 -3.08014 -4.16351 0
M  V30 8705 H 831.016 -0.499537 -4.14501 0
M  V30 8706 H 832.406 -4.44018 -5.04279 0
M  V30 8707 N 835.127 1.22348 -0.993418 0
M  V30 8708 C 836.057 2.26584 -0.564088 0
M  V30 8709 C 837.038 1.65102 0.409298 0
M  V30 8710 O 838.223 1.91872 0.299819 0
M  V30 8711 C 835.353 3.47087 0.121554 0
M  V30 8712 C 834.307 4.21009 -0.770429 0
M  V30 8713 C 833.633 5.34678 0.0481586 0
M  V30 8714 C 834.933 4.79636 -2.06752 0
M  V30 8715 H 836.627 2.62749 -1.43538 0
M  V30 8716 H 834.173 1.26303 -0.691628 0
M  V30 8717 H 836.126 4.19166 0.433303 0
M  V30 8718 H 834.85 3.1002 1.0274 0
M  V30 8719 H 833.509 3.50764 -1.06583 0
M  V30 8720 H 833.157 4.93852 0.954933 0
M  V30 8721 H 832.857 5.85061 -0.545641 0
M  V30 8722 H 834.381 6.09573 0.353991 0
M  V30 8723 H 835.795 5.43654 -1.81969 0
M  V30 8724 H 834.192 5.4036 -2.61019 0
M  V30 8725 H 835.262 3.99659 -2.74592 0
M  V30 8726 N 836.605 0.766683 1.37694 0
M  V30 8727 C 837.568 0.155849 2.2867 0
M  V30 8728 C 838.568 -0.633509 1.47795 0
M  V30 8729 O 839.758 -0.457844 1.68076 0
M  V30 8730 C 836.89 -0.786965 3.31692 0
M  V30 8731 H 838.083 0.957748 2.84196 0
M  V30 8732 H 835.636 0.534554 1.46875 0
M  V30 8733 H 836.371 -1.61406 2.8128 0
M  V30 8734 H 836.156 -0.223182 3.91464 0
M  V30 8735 H 837.646 -1.20994 3.99688 0
M  V30 8736 N 838.083 -1.48885 0.516809 0
M  V30 8737 C 839.031 -2.31066 -0.266656 0
M  V30 8738 C 840.025 -1.40393 -0.94795 0
M  V30 8739 O 841.231 -1.57366 -0.873836 0
M  V30 8740 H 837.606 -0.744654 -0.104858 0
M  V30 8741 H 839.577 -2.95045 0.446236 0
M  V30 8742 C 838.326 -3.22131 -1.3087 0
M  V30 8743 H 837.649 -3.91839 -0.793865 0
M  V30 8744 H 839.089 -3.82544 -1.82856 0
M  V30 8745 C 837.548 -2.42825 -2.33533 0
M  V30 8746 O 838.078 -2.14364 -3.39722 0
M  V30 8747 N 836.284 -2.04559 -2.06407 0
M  V30 8748 H 835.831 -2.27905 -1.20071 0
M  V30 8749 H 835.789 -1.51807 -2.75322 0
M  V30 8750 N 839.561 -0.251338 -1.55583 0
M  V30 8751 C 840.471 0.656978 -2.25213 0
M  V30 8752 C 841.487 1.18966 -1.26977 0
M  V30 8753 O 842.663 1.22499 -1.59862 0
M  V30 8754 C 839.728 1.83527 -2.94141 0
M  V30 8755 C 838.789 1.34162 -4.07798 0
M  V30 8756 C 838.022 2.46375 -4.73429 0
M  V30 8757 O 838.245 3.65205 -4.38157 0
M  V30 8758 O 837.179 2.15881 -5.61853 0
M  V30 8759 H 841.005 0.0936395 -3.03556 0
M  V30 8760 H 838.59 -0.0196638 -1.49387 0
M  V30 8761 H 840.472 2.52279 -3.3754 0
M  V30 8762 H 839.147 2.38614 -2.18735 0
M  V30 8763 H 838.054 0.621249 -3.68906 0
M  V30 8764 H 839.387 0.836779 -4.85035 0
M  V30 8765 N 841.039 1.57585 0.0217189 0
M  V30 8766 C 841.972 2.02435 1.05334 0
M  V30 8767 C 842.95 0.91006 1.34747 0
M  V30 8768 O 844.134 1.17648 1.47279 0
M  V30 8769 C 841.261 2.40362 2.38629 0
M  V30 8770 C 840.307 3.62307 2.25025 0
M  V30 8771 S 841.14 5.11141 1.59673 0
M  V30 8772 C 842.296 5.52316 2.94444 0
M  V30 8773 H 842.529 2.89621 0.671354 0
M  V30 8774 H 840.062 1.52648 0.231925 0
M  V30 8775 H 842.02 2.62883 3.15282 0
M  V30 8776 H 840.681 1.53615 2.73973 0
M  V30 8777 H 839.874 3.86523 3.23443 0
M  V30 8778 H 839.476 3.39675 1.56515 0
M  V30 8779 H 841.768 5.53449 3.90768 0
M  V30 8780 H 842.711 6.52539 2.74952 0
M  V30 8781 H 843.119 4.79834 2.97355 0
M  V30 8782 N 842.517 -0.29412 1.54831 0
M  V30 8783 C 843.45 -1.38779 1.81151 0
M  V30 8784 C 844.428 -1.48464 0.663124 0
M  V30 8785 O 845.612 -1.65418 0.903835 0
M  V30 8786 C 842.739 -2.76627 1.95436 0
M  V30 8787 C 841.785 -2.84333 3.17895 0
M  V30 8788 S 842.618 -2.45726 4.75793 0
M  V30 8789 C 843.774 -3.85589 4.93023 0
M  V30 8790 H 844.007 -1.16246 2.73631 0
M  V30 8791 H 841.54 -0.492611 1.46331 0
M  V30 8792 H 843.498 -3.56021 2.04351 0
M  V30 8793 H 842.159 -2.96425 1.03881 0
M  V30 8794 H 841.352 -3.85457 3.24713 0
M  V30 8795 H 840.954 -2.1294 3.07461 0
M  V30 8796 H 843.246 -4.80656 4.77468 0
M  V30 8797 H 844.189 -3.83737 5.95107 0
M  V30 8798 H 844.597 -3.75911 4.21131 0
M  V30 8799 N 843.995 -1.47404 -0.557645 0
M  V30 8800 C 844.928 -1.54399 -1.68036 0
M  V30 8801 C 845.906 -0.396175 -1.577 0
M  V30 8802 O 847.09 -0.603911 -1.78564 0
M  V30 8803 C 844.217 -1.44611 -3.06277 0
M  V30 8804 C 843.263 -2.63889 -3.35059 0
M  V30 8805 S 844.096 -4.26086 -3.24362 0
M  V30 8806 C 845.252 -4.1885 -4.65097 0
M  V30 8807 H 845.485 -2.49384 -1.61849 0
M  V30 8808 H 843.018 -1.35597 -0.738429 0
M  V30 8809 H 844.976 -1.39651 -3.86015 0
M  V30 8810 H 843.637 -0.510114 -3.0993 0
M  V30 8811 H 842.83 -2.53103 -4.35838 0
M  V30 8812 H 842.432 -2.65969 -2.62938 0
M  V30 8813 H 844.724 -3.87077 -5.56037 0
M  V30 8814 H 845.667 -5.19714 -4.8094 0
M  V30 8815 H 846.075 -3.49717 -4.43123 0
M  V30 8816 N 845.473 0.80434 -1.35529 0
M  V30 8817 C 846.703 1.59052 -1.31856 0
M  V30 8818 C 847.111 1.88905 0.105549 0
M  V30 8819 O 846.454 1.49422 1.06858 0
M  V30 8820 C 846.516 2.94626 -2.06 0
M  V30 8821 C 846.18 2.87576 -3.55175 0
M  V30 8822 C 847.177 2.60856 -4.49722 0
M  V30 8823 C 844.862 3.06623 -3.97854 0
M  V30 8824 C 846.856 2.53262 -5.84925 0
M  V30 8825 C 844.543 2.98652 -5.33151 0
M  V30 8826 C 845.541 2.72007 -6.26499 0
M  V30 8827 O 845.229 2.64003 -7.59314 0
M  V30 8828 H 844.961 0.500486 -0.454411 0
M  V30 8829 H 847.515 1.0074 -1.78999 0
M  V30 8830 H 845.745 3.5493 -1.53498 0
M  V30 8831 H 847.434 3.55785 -1.95376 0
M  V30 8832 H 848.2 2.45858 -4.18066 0
M  V30 8833 H 844.079 3.26372 -3.2558 0
M  V30 8834 H 847.623 2.32386 -6.57756 0
M  V30 8835 H 843.52 3.13208 -5.64421 0
M  V30 8836 H 844.288 2.79595 -7.69265 0
M  V30 8837 N 846.951 1.19563 1.02676 0
M  V30 8838 C 847.901 0.903055 2.09354 0
M  V30 8839 C 848.885 -0.133009 1.60349 0
M  V30 8840 O 850.077 0.0729744 1.7685 0
M  V30 8841 C 847.206 0.445852 3.40392 0
M  V30 8842 C 846.292 1.51477 3.96126 0
M  V30 8843 N 846.683 2.73474 4.25495 0
M  V30 8844 C 844.981 1.37856 4.2416 0
M  V30 8845 C 845.682 3.42348 4.7029 0
M  V30 8846 N 844.658 2.69746 4.71952 0
M  V30 8847 H 848.46 1.83023 2.29956 0
M  V30 8848 H 845.974 1.08812 1.20556 0
M  V30 8849 H 847.971 0.21769 4.16331 0
M  V30 8850 H 846.631 -0.47482 3.2121 0
M  V30 8851 H 847.642 3.10217 4.14711 0
M  V30 8852 H 844.319 0.521512 4.1423 0
M  V30 8853 H 845.709 4.46686 5.01917 0
M  V30 8854 N 848.429 -1.21819 0.999893 0
M  V30 8855 C 849.362 -2.22635 0.500887 0
M  V30 8856 C 850.34 -1.56459 -0.442636 0
M  V30 8857 O 851.524 -1.84902 -0.366551 0
M  V30 8858 C 848.651 -3.37598 -0.273046 0
M  V30 8859 C 847.697 -4.22006 0.617511 0
M  V30 8860 S 848.53 -4.93583 2.07693 0
M  V30 8861 C 849.686 -6.1198 1.31269 0
M  V30 8862 H 849.919 -2.64618 1.35516 0
M  V30 8863 H 847.452 -1.31606 0.807419 0
M  V30 8864 H 849.41 -4.04251 -0.713515 0
M  V30 8865 H 848.071 -2.94108 -1.10268 0
M  V30 8866 H 847.264 -5.03995 0.0216543 0
M  V30 8867 H 846.866 -3.6052 0.99504 0
M  V30 8868 H 849.158 -6.74979 0.583933 0
M  V30 8869 H 850.101 -6.75991 2.10811 0
M  V30 8870 H 850.509 -5.5847 0.822901 0
M  V30 8871 N 849.908 -0.773975 -1.37286 0
M  V30 8872 C 850.855 -0.159938 -2.30245 0
M  V30 8873 C 851.825 0.687356 -1.51211 0
M  V30 8874 O 853.01 0.639255 -1.79773 0
M  V30 8875 C 850.15 0.711452 -3.37687 0
M  V30 8876 C 849.263 -0.152692 -4.3173 0
M  V30 8877 C 848.398 0.723613 -5.26248 0
M  V30 8878 C 847.437 -0.14293 -6.11933 0
M  V30 8879 N 846.574 0.691479 -6.98687 0
M  V30 8880 H 851.414 -0.958182 -2.82175 0
M  V30 8881 H 848.951 -0.48411 -1.38906 0
M  V30 8882 H 850.909 1.2315 -3.9861 0
M  V30 8883 H 849.539 1.47528 -2.87116 0
M  V30 8884 H 848.591 -0.790574 -3.72094 0
M  V30 8885 H 849.903 -0.821027 -4.91997 0
M  V30 8886 H 849.057 1.31006 -5.92387 0
M  V30 8887 H 847.796 1.42562 -4.66398 0
M  V30 8888 H 846.801 -0.7419 -5.44771 0
M  V30 8889 H 848.026 -0.842305 -6.73856 0
M  V30 8890 H 845.972 1.37806 -6.41362 0
M  V30 8891 H 845.889 0.0804911 -7.55957 0
M  V30 8892 H 847.157 1.26225 -7.69212 0
M  V30 8893 N 851.386 1.48609 -0.524698 0
M  V30 8894 C 852.632 2.02797 0.0113382 0
M  V30 8895 C 852.965 1.40147 1.34433 0
M  V30 8896 O 852.24 0.545368 1.86698 0
M  V30 8897 C 852.523 3.59832 0.138931 0
M  V30 8898 C 852.376 4.32971 -1.21886 0
M  V30 8899 C 853.695 4.3145 0.868265 0
M  V30 8900 H 850.814 0.736995 0.00264645 0
M  V30 8901 H 853.456 1.77388 -0.680704 0
M  V30 8902 H 851.606 3.81612 0.72834 0
M  V30 8903 H 853.278 4.22624 -1.84897 0
M  V30 8904 H 851.521 3.94597 -1.80211 0
M  V30 8905 H 852.192 5.41279 -1.08263 0
M  V30 8906 H 854.668 4.14468 0.368145 0
M  V30 8907 H 853.544 5.41025 0.926428 0
M  V30 8908 H 853.805 3.98358 1.91737 0
M  V30 8909 N 852.864 0.259585 1.55447 0
M  V30 8910 C 854.089 -0.368317 2.04103 0
M  V30 8911 C 854.514 -1.49827 1.13725 0
M  V30 8912 O 853.872 -1.80814 0.132705 0
M  V30 8913 C 853.92 -0.841506 3.50644 0
M  V30 8914 O 853.024 -1.95008 3.63381 0
M  V30 8915 H 852.365 -0.0785227 0.659341 0
M  V30 8916 H 854.895 0.389349 2.00861 0
M  V30 8917 H 854.905 -1.14138 3.9171 0
M  V30 8918 H 853.58 -0.0147001 4.15897 0
M  V30 8919 H 852.157 -1.65393 3.34215 0
M  V30 8920 N 854.342 -1.57594 -0.0133615 0
M  V30 8921 C 855.619 -1.81173 -0.737273 0
M  V30 8922 C 855.999 -0.861395 -1.92726 0
M  V30 8923 O 855.347 0.0929324 -2.28311 0
M  V30 8924 C 855.557 -3.29314 -1.15557 0
M  V30 8925 C 856.905 -3.94707 -1.56498 0
M  V30 8926 O 857.929 -3.33557 -1.24973 0
M  V30 8927 O 856.788 -5.02402 -2.15069 0
M  V30 8928 H 853.882 -0.745575 -0.357837 0
M  V30 8929 H 856.428 -1.69696 0.0110674 0
M  V30 8930 H 855.2 -3.90096 -0.30677 0
M  V30 8931 H 854.823 -3.45739 -1.96343 0
M  V30 8932 N 855.82 0.285905 -1.54985 0
M  V30 8933 C 857.097 1.0397 -1.65679 0
M  V30 8934 C 857.477 2.04725 -0.514851 0
M  V30 8935 O 856.825 2.23257 0.486663 0
M  V30 8936 C 857.035 1.70807 -3.04345 0
M  V30 8937 C 858.383 2.22447 -3.61666 0
M  V30 8938 O 859.407 1.80815 -3.06895 0
M  V30 8939 O 858.266 2.98773 -4.57599 0
M  V30 8940 H 855.36 0.481473 -0.672394 0
M  V30 8941 H 857.906 0.282789 -1.67327 0
M  V30 8942 H 856.678 0.977271 -3.789 0
M  V30 8943 H 856.301 2.53217 -3.06541 0
M  V30 8944 N 857.298 1.47698 0.54982 0
M  V30 8945 C 858.208 1.63386 1.68351 0
M  V30 8946 C 859.224 0.516583 1.66155 0
M  V30 8947 O 860.4 0.785088 1.85468 0
M  V30 8948 C 857.465 1.6513 3.04849 0
M  V30 8949 C 856.526 2.88338 3.18056 0
M  V30 8950 C 855.759 2.8999 4.48042 0
M  V30 8951 O 855.982 2.00633 5.3395 0
M  V30 8952 O 854.916 3.81938 4.65196 0
M  V30 8953 H 858.742 2.59329 1.58057 0
M  V30 8954 H 856.327 1.30869 0.72067 0
M  V30 8955 H 858.209 1.68913 3.86065 0
M  V30 8956 H 856.884 0.723555 3.1551 0
M  V30 8957 H 855.791 2.90097 2.36209 0
M  V30 8958 H 857.124 3.80431 3.12302 0
M  V30 8959 N 858.776 -0.797141 1.35954 0
M  V30 8960 C 860.006 -1.5835 1.32698 0
M  V30 8961 C 860.414 -1.88959 -0.0955298 0
M  V30 8962 O 859.757 -1.49987 -1.06064 0
M  V30 8963 C 859.819 -2.93529 2.0756 0
M  V30 8964 C 859.483 -2.85688 3.56695 0
M  V30 8965 C 860.48 -2.58467 4.51099 0
M  V30 8966 C 858.165 -3.04508 3.99475 0
M  V30 8967 C 860.159 -2.50157 5.8626 0
M  V30 8968 C 857.846 -2.9582 5.34728 0
M  V30 8969 C 858.844 -2.68681 6.27933 0
M  V30 8970 O 858.532 -2.59973 7.60703 0
M  V30 8971 H 858.264 -0.49807 0.457059 0
M  V30 8972 H 860.818 -0.997889 1.79531 0
M  V30 8973 H 859.048 -3.54111 1.55378 0
M  V30 8974 H 860.737 -3.54744 1.9726 0
M  V30 8975 H 861.503 -2.43638 4.19363 0
M  V30 8976 H 857.382 -3.24641 3.27306 0
M  V30 8977 H 860.926 -2.28894 6.58979 0
M  V30 8978 H 856.823 -3.10211 5.66074 0
M  V30 8979 H 857.591 -2.75511 7.70737 0
M  V30 8980 N 860.254 -1.20106 -1.0204 0
M  V30 8981 C 861.482 -1.0344 -1.79186 0
M  V30 8982 C 861.897 0.416542 -1.84148 0
M  V30 8983 O 861.254 1.28925 -1.29168 0
M  V30 8984 C 861.305 -1.60663 -3.23836 0
M  V30 8985 O 861.026 -3.00079 -3.19193 0
M  V30 8986 C 862.527 -1.48897 -4.17546 0
M  V30 8987 H 859.747 -0.364093 -0.563629 0
M  V30 8988 H 862.291 -1.5911 -1.28469 0
M  V30 8989 H 860.446 -1.09122 -3.71714 0
M  V30 8990 H 860.86 -3.27162 -4.09958 0
M  V30 8991 H 862.334 -1.93703 -5.16898 0
M  V30 8992 H 862.811 -0.440843 -4.36982 0
M  V30 8993 H 863.417 -1.9961 -3.75547 0
M  V30 8994 N 861.732 1.21287 -1.00634 0
M  V30 8995 C 862.679 2.23705 -0.567876 0
M  V30 8996 C 863.649 1.61043 0.406753 0
M  V30 8997 O 864.834 1.88289 0.308499 0
M  V30 8998 C 861.974 3.44961 0.097996 0
M  V30 8999 C 861.087 4.22091 -0.919972 0
M  V30 9000 C 860.222 5.30718 -0.226222 0
M  V30 9001 C 859.261 5.99581 -1.23165 0
M  V30 9002 N 858.398 6.99821 -0.565278 0
M  V30 9003 H 863.238 2.60571 -1.44592 0
M  V30 9004 H 860.775 1.28049 -0.724006 0
M  V30 9005 H 862.733 4.1418 0.501097 0
M  V30 9006 H 861.363 3.08818 0.939744 0
M  V30 9007 H 860.415 3.52038 -1.44131 0
M  V30 9008 H 861.727 4.69476 -1.68505 0
M  V30 9009 H 860.881 6.06253 0.232917 0
M  V30 9010 H 859.62 4.84343 0.571247 0
M  V30 9011 H 858.625 5.22816 -1.70128 0
M  V30 9012 H 859.85 6.48042 -2.03022 0
M  V30 9013 H 857.796 6.55656 0.212508 0
M  V30 9014 H 857.713 7.4528 -1.26858 0
M  V30 9015 H 858.981 7.79393 -0.129389 0
M  V30 9016 N 863.21 0.781244 1.36873 0
M  V30 9017 C 864.14 0.188128 2.32741 0
M  V30 9018 C 865.121 -0.672326 1.56249 0
M  V30 9019 O 866.306 -0.607835 1.84442 0
M  V30 9020 C 863.436 -0.684341 3.40491 0
M  V30 9021 C 862.39 0.0755641 4.27933 0
M  V30 9022 C 861.716 -0.916968 5.26779 0
M  V30 9023 C 863.016 1.26006 5.06873 0
M  V30 9024 H 864.71 0.989016 2.82593 0
M  V30 9025 H 862.256 0.477038 1.35869 0
M  V30 9026 H 864.209 -1.10915 4.06541 0
M  V30 9027 H 862.933 -1.51785 2.89187 0
M  V30 9028 H 861.592 0.481258 3.63427 0
M  V30 9029 H 861.24 -1.74528 4.71751 0
M  V30 9030 H 860.94 -0.413 5.86147 0
M  V30 9031 H 862.464 -1.34052 5.95703 0
M  V30 9032 H 863.878 0.911425 5.66009 0
M  V30 9033 H 862.275 1.69676 5.75613 0
M  V30 9034 H 863.345 2.05948 4.38991 0
M  V30 9035 N 864.689 -1.48329 0.532571 0
M  V30 9036 C 865.619 -2.32485 -0.217511 0
M  V30 9037 C 866.6 -1.42255 -0.932598 0
M  V30 9038 O 867.785 -1.7114 -0.917873 0
M  V30 9039 C 864.915 -3.23509 -1.26329 0
M  V30 9040 C 863.869 -4.22784 -0.666191 0
M  V30 9041 C 863.195 -5.0296 -1.81482 0
M  V30 9042 C 864.495 -5.21031 0.363813 0
M  V30 9043 H 866.189 -2.95445 0.485014 0
M  V30 9044 H 863.735 -1.42075 0.234694 0
M  V30 9045 H 865.688 -3.81211 -1.79601 0
M  V30 9046 H 864.412 -2.58554 -1.99543 0
M  V30 9047 H 863.071 -3.66272 -0.15498 0
M  V30 9048 H 862.719 -4.34427 -2.5354 0
M  V30 9049 H 862.419 -5.70154 -1.4212 0
M  V30 9050 H 863.943 -5.63514 -2.35126 0
M  V30 9051 H 865.357 -5.73241 -0.0819079 0
M  V30 9052 H 863.754 -5.96292 0.674956 0
M  V30 9053 H 864.824 -4.6801 1.26865 0
M  V30 9054 N 866.167 -0.267825 -1.55308 0
M  V30 9055 C 867.117 0.637168 -2.18916 0
M  V30 9056 C 868.101 1.12381 -1.15149 0
M  V30 9057 O 869.293 1.0701 -1.40989 0
M  V30 9058 C 866.422 1.82423 -2.90821 0
M  V30 9059 C 865.508 1.35512 -4.01867 0
M  V30 9060 N 865.899 0.601644 -5.02209 0
M  V30 9061 C 864.197 1.63868 -4.14805 0
M  V30 9062 C 864.898 0.35596 -5.8061 0
M  V30 9063 N 863.874 0.926271 -5.3565 0
M  V30 9064 H 867.676 0.0535787 -2.93851 0
M  V30 9065 H 865.19 -0.0710577 -1.62244 0
M  V30 9066 H 867.187 2.48379 -3.34834 0
M  V30 9067 H 865.847 2.41185 -2.17394 0
M  V30 9068 H 866.858 0.249693 -5.17298 0
M  V30 9069 H 863.535 2.23618 -3.52564 0
M  V30 9070 H 864.925 -0.246994 -6.71446 0
M  V30 9071 N 867.645 1.57599 0.00500368 0
M  V30 9072 C 868.922 1.81561 0.727654 0
M  V30 9073 C 869.302 0.871604 1.92266 0
M  V30 9074 O 868.65 -0.0808232 2.28357 0
M  V30 9075 C 868.86 3.29922 1.13809 0
M  V30 9076 C 870.208 3.95531 1.54403 0
M  V30 9077 O 871.232 3.34215 1.23202 0
M  V30 9078 O 870.091 5.03535 2.12402 0
M  V30 9079 H 867.185 0.747462 0.353878 0
M  V30 9080 H 869.731 1.69688 -0.0200667 0
M  V30 9081 H 868.503 3.90253 0.286078 0
M  V30 9082 H 868.126 3.46775 1.94507 0
M  V30 9083 N 869.123 -0.277682 1.55134 0
M  V30 9084 C 870.371 -1.00791 1.75173 0
M  V30 9085 C 870.692 -1.86987 0.553266 0
M  V30 9086 O 869.962 -1.91079 -0.43195 0
M  V30 9087 H 868.542 -0.375129 0.645978 0
M  V30 9088 H 871.204 -0.303041 1.9253 0
M  V30 9089 H 870.3 -1.64756 2.6507 0
M  V30 9090 N 870.601 -1.47988 -0.541979 0
M  V30 9091 C 871.85 -1.5465 -1.29485 0
M  V30 9092 C 872.163 -0.220041 -1.94358 0
M  V30 9093 O 873.369 -0.164792 -2.70999 0
M  V30 9094 C 871.825 -2.72685 -2.34885 0
M  V30 9095 C 871.433 -4.11923 -1.76134 0
M  V30 9096 C 873.177 -2.88651 -3.11257 0
M  V30 9097 C 871.084 -5.21237 -2.79404 0
M  V30 9098 H 870.014 -0.575688 -0.486928 0
M  V30 9099 H 872.665 -1.74296 -0.573853 0
M  V30 9100 H 871.047 -2.46448 -3.09966 0
M  V30 9101 H 872.221 -4.48128 -1.07322 0
M  V30 9102 H 870.536 -4.00972 -1.12295 0
M  V30 9103 H 873.133 -3.67487 -3.88404 0
M  V30 9104 H 873.476 -1.97658 -3.66384 0
M  V30 9105 H 874.009 -3.14731 -2.43288 0
M  V30 9106 H 870.748 -6.14156 -2.29113 0
M  V30 9107 H 870.268 -4.89533 -3.4658 0
M  V30 9108 H 871.947 -5.48839 -3.42615 0
M  V30 9109 N 872.079 0.78992 -1.36375 0
M  V30 9110 C 873.011 1.91113 -1.26524 0
M  V30 9111 C 874.024 1.61747 -0.184851 0
M  V30 9112 O 875.213 1.73004 -0.439524 0
M  V30 9113 C 872.313 3.25908 -0.92937 0
M  V30 9114 C 871.486 3.83057 -2.11154 0
M  V30 9115 C 870.545 4.96289 -1.74881 0
M  V30 9116 O 869.571 5.12834 -2.46962 0
M  V30 9117 N 870.773 5.76478 -0.682193 0
M  V30 9118 H 873.538 2.00085 -2.23128 0
M  V30 9119 H 871.099 0.968165 -1.29762 0
M  V30 9120 H 873.091 3.99151 -0.667884 0
M  V30 9121 H 871.661 3.12556 -0.0524843 0
M  V30 9122 H 870.881 3.01808 -2.53586 0
M  V30 9123 H 872.169 4.1797 -2.90135 0
M  V30 9124 H 871.567 5.65638 -0.0836661 0
M  V30 9125 H 870.124 6.50026 -0.480529 0
M  V30 9126 N 873.557 1.20646 1.01402 0
M  V30 9127 C 874.968 1.01823 1.56489 0
M  V30 9128 C 875.319 -0.42463 1.9155 0
M  V30 9129 O 874.444 -1.30644 1.72514 0
M  V30 9130 C 875.039 1.84208 2.84347 0
M  V30 9131 C 873.598 1.69743 3.35953 0
M  V30 9132 C 872.745 1.8198 2.09233 0
M  V30 9133 H 875.696 1.348 0.837539 0
M  V30 9134 H 875.717 1.34698 3.55861 0
M  V30 9135 H 875.229 2.89215 2.58798 0
M  V30 9136 H 873.33 0.673833 3.66456 0
M  V30 9137 H 873.443 2.51173 4.07981 0
M  V30 9138 H 871.807 1.25193 2.21808 0
M  V30 9139 H 872.59 2.88477 1.86107 0
M  V30 9140 N 875.035 -1.20752 1.01276 0
M  V30 9141 C 876.281 -1.90302 0.700924 0
M  V30 9142 C 876.614 -1.78406 -0.767142 0
M  V30 9143 O 875.889 -1.16575 -1.55694 0
M  V30 9144 C 876.172 -3.41831 1.13242 0
M  V30 9145 C 876.025 -3.6268 2.66051 0
M  V30 9146 C 877.344 -4.34486 0.700738 0
M  V30 9147 H 874.463 -0.69107 0.256107 0
M  V30 9148 H 877.105 -1.42227 1.25982 0
M  V30 9149 H 875.255 -3.82906 0.656902 0
M  V30 9150 H 876.927 -3.30882 3.21426 0
M  V30 9151 H 875.17 -3.06281 3.07204 0
M  V30 9152 H 875.841 -4.68882 2.91296 0
M  V30 9153 H 878.317 -4.01036 1.10948 0
M  V30 9154 H 877.193 -5.39136 1.03073 0
M  V30 9155 H 877.454 -4.40307 -0.39778 0
M  V30 9156 N 876.513 -0.788492 -1.36457 0
M  V30 9157 C 877.476 -0.192209 -2.28393 0
M  V30 9158 C 878.476 0.609916 -1.48784 0
M  V30 9159 O 879.666 0.431046 -1.68783 0
M  V30 9160 C 876.798 0.734096 -3.32902 0
M  V30 9161 H 877.991 -1.00284 -2.82636 0
M  V30 9162 H 875.544 -0.557852 -1.46006 0
M  V30 9163 H 876.279 1.5691 -2.83813 0
M  V30 9164 H 876.064 0.160875 -3.9177 0
M  V30 9165 H 877.554 1.1462 -4.01562 0
M  V30 9166 N 877.991 1.48044 -0.54043 0
M  V30 9167 C 878.954 2.28273 0.205966 0
M  V30 9168 C 879.954 1.35983 0.858209 0
M  V30 9169 O 881.144 1.58776 0.716651 0
M  V30 9170 C 878.276 3.15174 1.29917 0
M  V30 9171 H 879.469 2.95727 -0.498555 0
M  V30 9172 H 877.022 1.53457 -0.296745 0
M  V30 9173 H 877.757 2.52374 2.03661 0
M  V30 9174 H 877.542 3.83074 0.836475 0
M  V30 9175 H 879.032 3.75666 1.82387 0
M  V30 9176 N 879.47 0.276058 1.55163 0
M  V30 9177 C 880.719 -0.341098 1.98795 0
M  V30 9178 C 881.032 -1.56905 1.16791 0
M  V30 9179 O 882.238 -2.25922 1.50571 0
M  V30 9180 C 880.694 -0.658231 3.5383 0
M  V30 9181 C 880.302 0.549972 4.44611 0
M  V30 9182 C 882.046 -1.23796 4.06048 0
M  V30 9183 C 879.953 0.207373 5.91036 0
M  V30 9184 H 878.883 -0.131224 0.742493 0
M  V30 9185 H 881.534 0.380858 1.79504 0
M  V30 9186 H 879.916 -1.43911 3.68925 0
M  V30 9187 H 881.09 1.32681 4.41285 0
M  V30 9188 H 879.405 1.04661 4.03032 0
M  V30 9189 H 882.002 -1.50811 5.12991 0
M  V30 9190 H 882.345 -2.17214 3.55139 0
M  V30 9191 H 882.878 -0.519345 3.94395 0
M  V30 9192 H 879.617 1.10946 6.46043 0
M  V30 9193 H 879.137 -0.532687 5.9743 0
M  V30 9194 H 880.816 -0.200072 6.46691 0
M  V30 9195 N 880.948 -1.576 0.00335426 0
M  V30 9196 C 882.225 -1.81945 -0.718015 0
M  V30 9197 C 882.605 -0.881788 -1.91801 0
M  V30 9198 O 881.953 0.0687118 -2.28397 0
M  V30 9199 C 882.163 -3.30521 -1.12058 0
M  V30 9200 C 883.511 -3.96345 -1.52303 0
M  V30 9201 O 884.535 -3.34864 -1.21428 0
M  V30 9202 O 883.394 -5.04655 -2.09728 0
M  V30 9203 H 880.488 -0.749328 -0.34991 0
M  V30 9204 H 883.034 -1.69675 0.0290654 0
M  V30 9205 H 881.806 -3.90399 -0.265378 0
M  V30 9206 H 881.429 -3.47802 -1.92665 0
M  V30 9207 N 882.426 0.269451 -1.5528 0
M  V30 9208 C 883.651 1.02299 -1.80415 0
M  V30 9209 C 884.076 1.7902 -0.577363 0
M  V30 9210 O 883.434 1.75018 0.473125 0
M  V30 9211 C 883.482 1.95445 -3.0304 0
M  V30 9212 O 882.586 3.04271 -2.78375 0
M  V30 9213 H 881.927 0.292289 -0.596207 0
M  V30 9214 H 884.457 0.297282 -2.02429 0
M  V30 9215 H 884.467 2.37333 -3.31869 0
M  V30 9216 H 883.142 1.39017 -3.91978 0
M  V30 9217 H 881.719 2.66673 -2.60653 0
M  V30 9218 N 883.904 1.48273 0.534124 0
M  V30 9219 C 884.852 1.62926 1.66005 0
M  V30 9220 C 885.846 0.495814 1.61982 0
M  V30 9221 O 887.052 0.6744 1.66889 0
M  V30 9222 H 883.427 0.513163 0.549698 0
M  V30 9223 H 885.398 2.57498 1.50789 0
M  V30 9224 C 884.147 1.68231 3.04292 0
M  V30 9225 H 883.47 2.54807 3.0808 0
M  V30 9226 H 884.91 1.82528 3.827 0
M  V30 9227 C 883.369 0.420154 3.3427 0
M  V30 9228 O 883.899 -0.468769 3.98955 0
M  V30 9229 N 882.105 0.293115 2.89118 0
M  V30 9230 H 881.652 1.01745 2.36655 0
M  V30 9231 H 881.61 -0.550376 3.09545 0
M  V30 9232 N 885.382 -0.782676 1.36792 0
M  V30 9233 C 886.629 -1.54083 1.31395 0
M  V30 9234 C 886.957 -1.94217 -0.104797 0
M  V30 9235 O 886.212 -1.63491 -1.0756 0
M  V30 9236 C 886.511 -2.82542 2.18872 0
M  V30 9237 C 886.177 -2.61512 3.67317 0
M  V30 9238 C 884.839 -2.55486 4.07775 0
M  V30 9239 C 887.191 -2.42389 4.61407 0
M  V30 9240 C 884.519 -2.28311 5.40454 0
M  V30 9241 C 886.871 -2.1674 5.94312 0
M  V30 9242 C 885.535 -2.09151 6.33887 0
M  V30 9243 H 884.805 -0.563829 0.48081 0
M  V30 9244 H 887.452 -0.902436 1.68903 0
M  V30 9245 H 885.757 -3.50883 1.74323 0
M  V30 9246 H 887.454 -3.40367 2.12017 0
M  V30 9247 H 884.044 -2.67062 3.35225 0
M  V30 9248 H 888.228 -2.46043 4.31018 0
M  V30 9249 H 883.484 -2.20922 5.70091 0
M  V30 9250 H 887.658 -2.0094 6.6678 0
M  V30 9251 H 885.285 -1.87857 7.36623 0
M  V30 9252 N 886.86 -1.21182 -1.00761 0
M  V30 9253 C 887.823 -0.970339 -2.07646 0
M  V30 9254 C 888.823 0.0576345 -1.60697 0
M  V30 9255 O 890.013 -0.179369 -1.73274 0
M  V30 9256 C 887.145 -0.462703 -3.37745 0
M  V30 9257 H 888.338 -1.91856 -2.30502 0
M  V30 9258 H 885.891 -1.02844 -1.17698 0
M  V30 9259 H 886.626 0.490559 -3.20568 0
M  V30 9260 H 886.411 -1.20416 -3.73152 0
M  V30 9261 H 887.901 -0.313531 -4.16421 0
M  V30 9262 N 888.338 1.20213 -1.01915 0
M  V30 9263 C 889.563 1.94163 -0.729076 0
M  V30 9264 C 889.988 1.74416 0.704323 0
M  V30 9265 O 889.346 1.0401 1.48498 0
M  V30 9266 C 889.394 3.44258 -1.07324 0
M  V30 9267 O 888.498 4.11979 -0.186367 0
M  V30 9268 H 887.839 0.606506 -0.270272 0
M  V30 9269 H 890.369 1.52571 -1.3632 0
M  V30 9270 H 890.379 3.94888 -1.02603 0
M  V30 9271 H 889.054 3.57954 -2.11759 0
M  V30 9272 H 887.631 3.7176 -0.291334 0
M  V30 9273 N 889.816 0.795718 1.36037 0
M  V30 9274 C 891.063 0.371024 1.99072 0
M  V30 9275 C 891.391 -1.05896 1.63145 0
M  V30 9276 O 890.646 -1.7474 0.881163 0
M  V30 9277 C 890.945 0.489038 3.54038 0
M  V30 9278 C 890.611 1.88075 4.09803 0
M  V30 9279 C 889.273 2.26152 4.24745 0
M  V30 9280 C 891.625 2.79174 4.40126 0
M  V30 9281 C 888.953 3.54718 4.67324 0
M  V30 9282 C 891.305 4.07175 4.8414 0
M  V30 9283 C 889.969 4.45266 4.97287 0
M  V30 9284 H 889.239 0.135767 0.728456 0
M  V30 9285 H 891.886 1.0144 1.62426 0
M  V30 9286 H 890.191 -0.237823 3.91078 0
M  V30 9287 H 891.888 0.141374 4.00751 0
M  V30 9288 H 888.478 1.57488 3.98617 0
M  V30 9289 H 892.662 2.51009 4.28145 0
M  V30 9290 H 887.918 3.84093 4.75691 0
M  V30 9291 H 892.092 4.77875 5.06565 0
M  V30 9292 H 889.719 5.44943 5.30038 0
M  V30 9293 N 891.294 -1.47756 0.548274 0
M  V30 9294 C 892.522 -2.06884 0.0254873 0
M  V30 9295 C 892.937 -1.40225 -1.26422 0
M  V30 9296 O 892.294 -0.495776 -1.75637 0
M  V30 9297 C 892.345 -3.61036 -0.183134 0
M  V30 9298 O 892.066 -4.25195 1.05549 0
M  V30 9299 C 893.567 -4.37008 -0.744222 0
M  V30 9300 H 890.787 -0.669697 0.041789 0
M  V30 9301 H 893.331 -1.89888 0.759138 0
M  V30 9302 H 891.486 -3.77576 -0.866886 0
M  V30 9303 H 891.9 -5.17606 0.847629 0
M  V30 9304 H 893.374 -5.45579 -0.839529 0
M  V30 9305 H 893.851 -4.0268 -1.75344 0
M  V30 9306 H 894.457 -4.25191 -0.0964542 0
M  V30 9307 N 892.772 -0.284283 -1.55015 0
M  V30 9308 C 894.002 0.332465 -2.03907 0
M  V30 9309 C 894.41 1.49331 -1.16177 0
M  V30 9310 O 893.753 1.82851 -0.176395 0
M  V30 9311 C 893.815 0.867193 -3.48884 0
M  V30 9312 C 893.479 -0.166198 -4.56698 0
M  V30 9313 C 894.476 -0.988898 -5.10408 0
M  V30 9314 C 892.161 -0.303081 -5.01385 0
M  V30 9315 C 894.155 -1.93458 -6.07333 0
M  V30 9316 C 891.842 -1.25223 -5.98133 0
M  V30 9317 C 892.84 -2.06647 -6.50988 0
M  V30 9318 O 892.528 -2.99955 -7.45843 0
M  V30 9319 H 892.26 0.0786597 -0.671408 0
M  V30 9320 H 894.814 -0.416871 -2.01125 0
M  V30 9321 H 893.044 1.66676 -3.48935 0
M  V30 9322 H 894.733 1.39802 -3.81065 0
M  V30 9323 H 895.499 -0.89393 -4.76691 0
M  V30 9324 H 891.378 0.320711 -4.59883 0
M  V30 9325 H 894.922 -2.57053 -6.48513 0
M  V30 9326 H 890.819 -1.34798 -6.31268 0
M  V30 9327 H 891.587 -2.94742 -7.6359 0
M  V30 9328 N 894.251 1.57596 -0.0117121 0
M  V30 9329 C 895.479 1.9536 0.681334 0
M  V30 9330 C 895.894 0.887255 1.66653 0
M  V30 9331 O 895.251 -0.132692 1.82017 0
M  V30 9332 C 895.302 3.33165 1.40298 0
M  V30 9333 O 895.023 4.35707 0.45728 0
M  V30 9334 C 896.524 3.85458 2.18946 0
M  V30 9335 H 893.744 0.643826 0.189023 0
M  V30 9336 H 896.288 2.04392 -0.066311 0
M  V30 9337 H 894.443 3.25404 2.10216 0
M  V30 9338 H 894.857 5.15495 0.96773 0
M  V30 9339 H 896.331 4.84275 2.64918 0
M  V30 9340 H 896.808 3.18781 3.02118 0
M  V30 9341 H 897.414 3.96431 1.5402 0
M  V30 9342 N 895.729 -0.261212 1.5542 0
M  V30 9343 C 897.14 -0.83138 1.67167 0
M  V30 9344 C 897.491 -1.8659 0.606525 0
M  V30 9345 O 896.616 -2.14953 -0.24985 0
M  V30 9346 C 897.211 -1.51475 3.03052 0
M  V30 9347 C 895.77 -2.0328 3.16787 0
M  V30 9348 C 894.917 -0.878903 2.63003 0
M  V30 9349 H 897.868 -0.0373102 1.58656 0
M  V30 9350 H 897.889 -2.38222 2.96699 0
M  V30 9351 H 897.401 -0.76157 3.80554 0
M  V30 9352 H 895.502 -2.81523 2.44082 0
M  V30 9353 H 895.615 -2.24001 4.2351 0
M  V30 9354 H 893.979 -1.27551 2.2046 0
M  V30 9355 H 894.762 -0.13904 3.43018 0
M  V30 9356 N 897.207 -1.48554 -0.526253 0
M  V30 9357 C 898.623 -1.34757 -0.855138 0
M  V30 9358 C 898.823 -0.36142 -1.98232 0
M  V30 9359 O 897.879 0.216026 -2.51574 0
M  V30 9360 C 899.192 -2.74877 -1.21915 0
M  V30 9361 C 900.74 -2.83393 -1.32882 0
M  V30 9362 C 901.215 -4.24223 -1.72624 0
M  V30 9363 N 902.706 -4.26913 -1.7972 0
M  V30 9364 C 903.441 -5.32824 -2.11863 0
M  V30 9365 N 902.937 -6.49008 -2.42405 0
M  V30 9366 N 904.73 -5.20221 -2.12901 0
M  V30 9367 H 896.881 -2.11284 0.217422 0
M  V30 9368 H 899.144 -0.947367 0.0346362 0
M  V30 9369 H 898.85 -3.48619 -0.464486 0
M  V30 9370 H 898.724 -3.0864 -2.16844 0
M  V30 9371 H 901.111 -2.09904 -2.07424 0
M  V30 9372 H 901.192 -2.53245 -0.360638 0
M  V30 9373 H 900.836 -4.98229 -0.986411 0
M  V30 9374 H 900.766 -4.51817 -2.70498 0
M  V30 9375 H 903.257 -3.4311 -1.58379 0
M  V30 9376 H 903.57 -7.25561 -2.66048 0
M  V30 9377 H 901.915 -6.52277 -2.39917 0
M  V30 9378 H 905.106 -4.28469 -1.885 0
M  V30 9379 H 905.279 -6.02861 -2.37619 0
M  V30 9380 N 898.685 0.775411 -1.37205 0
M  V30 9381 C 899.91 1.5696 -1.35567 0
M  V30 9382 C 900.335 1.88012 0.0575554 0
M  V30 9383 O 899.693 1.48954 1.03355 0
M  V30 9384 C 899.741 2.85886 -2.19776 0
M  V30 9385 O 898.845 3.80103 -1.59987 0
M  V30 9386 H 898.186 0.475583 -0.463375 0
M  V30 9387 H 900.716 0.96001 -1.80679 0
M  V30 9388 H 900.726 3.35024 -2.32859 0
M  V30 9389 H 899.401 2.62613 -3.22502 0
M  V30 9390 H 897.978 3.38736 -1.55924 0
M  V30 9391 N 900.163 1.21714 1.00117 0
M  V30 9392 C 901.093 1.00397 2.10815 0
M  V30 9393 C 902.074 -0.0723502 1.69946 0
M  V30 9394 O 903.259 0.0882398 1.93999 0
M  V30 9395 C 900.389 0.572001 3.42557 0
M  V30 9396 C 899.343 1.59331 3.97237 0
M  V30 9397 C 898.669 1.01746 5.2493 0
M  V30 9398 C 899.969 2.98117 4.28863 0
M  V30 9399 H 901.663 1.92983 2.28906 0
M  V30 9400 H 899.209 0.929273 1.10002 0
M  V30 9401 H 901.162 0.410018 4.19401 0
M  V30 9402 H 899.886 -0.38951 3.24269 0
M  V30 9403 H 898.545 1.74293 3.22518 0
M  V30 9404 H 898.193 0.0475491 5.02978 0
M  V30 9405 H 897.893 1.69969 5.62481 0
M  V30 9406 H 899.417 0.866881 6.04415 0
M  V30 9407 H 900.831 2.86578 4.96534 0
M  V30 9408 H 899.228 3.63389 4.77565 0
M  V30 9409 H 900.298 3.48674 3.36979 0
M  V30 9410 N 901.641 -1.19671 1.02551 0
M  V30 9411 C 903.052 -1.70964 0.750208 0
M  V30 9412 C 903.403 -1.82095 -0.730461 0
M  V30 9413 O 902.528 -1.48974 -1.56958 0
M  V30 9414 C 903.123 -3.10516 1.35518 0
M  V30 9415 C 901.682 -3.59083 1.12854 0
M  V30 9416 C 900.829 -2.36041 1.45534 0
M  V30 9417 H 903.78 -1.04559 1.19386 0
M  V30 9418 H 903.801 -3.73028 0.750378 0
M  V30 9419 H 903.313 -3.02383 2.43282 0
M  V30 9420 H 901.414 -3.72536 0.0689627 0
M  V30 9421 H 901.527 -4.43395 1.81488 0
M  V30 9422 H 899.891 -2.39214 0.87458 0
M  V30 9423 H 900.674 -2.3054 2.54374 0
M  V30 9424 N 903.119 -0.802921 -1.35613 0
M  V30 9425 C 904.029 -0.212177 -2.33639 0
M  V30 9426 C 905.045 0.642871 -1.61689 0
M  V30 9427 O 906.221 0.555485 -1.93588 0
M  V30 9428 C 903.286 0.632406 -3.40883 0
M  V30 9429 C 902.347 -0.242708 -4.28613 0
M  V30 9430 C 901.58 0.56166 -5.30736 0
M  V30 9431 O 901.803 1.79664 -5.41366 0
M  V30 9432 O 900.737 -0.0455387 -6.01883 0
M  V30 9433 H 904.563 -1.023 -2.85952 0
M  V30 9434 H 902.148 -0.564636 -1.38319 0
M  V30 9435 H 904.03 1.11358 -4.0642 0
M  V30 9436 H 902.705 1.42089 -2.90848 0
M  V30 9437 H 901.612 -0.77094 -3.6607 0
M  V30 9438 H 902.945 -0.995046 -4.82037 0
M  V30 9439 N 904.597 1.47463 -0.556102 0
M  V30 9440 C 905.874 1.9557 0.0339892 0
M  V30 9441 C 906.254 1.49869 1.48669 0
M  V30 9442 O 905.602 0.737019 2.16288 0
M  V30 9443 C 905.812 3.48826 -0.110343 0
M  V30 9444 C 907.16 4.24585 0.0355716 0
M  V30 9445 O 908.184 3.5618 -0.0378356 0
M  V30 9446 O 907.043 5.46158 0.193299 0
M  V30 9447 H 904.137 0.824461 0.0647521 0
M  V30 9448 H 906.683 1.57868 -0.622547 0
M  V30 9449 H 905.455 3.74891 -1.12126 0
M  V30 9450 H 905.078 3.9329 0.583855 0
M  V30 9451 N 906.075 0.2925 1.54862 0
M  V30 9452 C 907.352 -0.371946 1.92031 0
M  V30 9453 C 907.732 -1.72363 1.21878 0
M  V30 9454 O 907.08 -2.25779 0.351573 0
M  V30 9455 C 907.29 -0.495027 3.45471 0
M  V30 9456 C 908.638 -0.769855 4.17562 0
M  V30 9457 O 909.662 -0.579168 3.5146 0
M  V30 9458 O 908.521 -1.13561 5.34571 0
M  V30 9459 H 905.615 -0.206463 0.800813 0
M  V30 9460 H 908.161 0.339933 1.6626 0
M  V30 9461 H 906.933 0.455528 3.88639 0
M  V30 9462 H 906.556 -1.2557 3.7725 0
M  V30 9463 N 907.553 -1.57587 0.0200696 0
M  V30 9464 C 908.781 -1.95718 -0.670964 0
M  V30 9465 C 909.196 -0.896081 -1.6618 0
M  V30 9466 O 908.553 0.123037 -1.82085 0
M  V30 9467 C 908.604 -3.33904 -1.38529 0
M  V30 9468 O 908.325 -4.35943 -0.434167 0
M  V30 9469 C 909.826 -3.86614 -2.16898 0
M  V30 9470 H 907.046 -0.644819 -0.185606 0
M  V30 9471 H 909.59 -2.04354 0.0771495 0
M  V30 9472 H 907.745 -3.26515 -2.08487 0
M  V30 9473 H 908.159 -5.16001 -0.940378 0
M  V30 9474 H 909.633 -4.85673 -2.62346 0
M  V30 9475 H 910.11 -3.20379 -3.00423 0
M  V30 9476 H 910.716 -3.97243 -1.51916 0
M  V30 9477 N 909.032 0.252966 -1.55557 0
M  V30 9478 C 910.257 1.0038 -1.8149 0
M  V30 9479 C 910.682 1.78397 -0.596318 0
M  V30 9480 O 910.04 1.7551 0.454535 0
M  V30 9481 C 910.088 1.9222 -3.05096 0
M  V30 9482 O 909.192 3.01302 -2.81587 0
M  V30 9483 H 908.533 0.285949 -0.599274 0
M  V30 9484 H 911.063 0.275795 -2.02733 0
M  V30 9485 H 911.073 2.338 -3.34368 0
M  V30 9486 H 909.748 1.34852 -3.93431 0
M  V30 9487 H 908.325 2.63894 -2.63466 0
M  V30 9488 N 910.51 1.48831 0.518367 0
M  V30 9489 C 911.443 1.588 1.63884 0
M  V30 9490 C 912.421 0.437847 1.56594 0
M  V30 9491 O 913.605 0.651042 1.769 0
M  V30 9492 C 910.732 1.52681 3.02335 0
M  V30 9493 C 909.778 2.7268 3.27945 0
M  V30 9494 S 910.611 4.34536 3.12951 0
M  V30 9495 C 911.767 4.31034 4.53828 0
M  V30 9496 H 912 2.53587 1.5518 0
M  V30 9497 H 909.533 1.37507 0.702218 0
M  V30 9498 H 911.491 1.49837 3.82177 0
M  V30 9499 H 910.152 0.592107 3.08469 0
M  V30 9500 H 909.345 2.64569 4.28974 0
M  V30 9501 H 908.947 2.72847 2.55794 0
M  V30 9502 H 911.239 4.01683 5.45579 0
M  V30 9503 H 912.182 5.32282 4.66991 0
M  V30 9504 H 912.59 3.61343 4.33695 0
M  V30 9505 N 911.988 -0.768124 1.37614 0
M  V30 9506 C 912.951 -1.86314 1.3349 0
M  V30 9507 C 913.951 -1.59025 0.23823 0
M  V30 9508 O 915.141 -1.6704 0.494288 0
M  V30 9509 C 912.273 -3.23519 1.07462 0
M  V30 9510 H 913.466 -1.91382 2.30896 0
M  V30 9511 H 911.019 -0.968267 1.22696 0
M  V30 9512 H 911.754 -3.24127 0.106028 0
M  V30 9513 H 911.539 -3.44719 1.86846 0
M  V30 9514 H 913.029 -4.03597 1.07236 0
M  V30 9515 N 913.466 -1.22244 -0.994698 0
M  V30 9516 C 914.715 -1.04005 -1.72817 0
M  V30 9517 C 915.028 0.425413 -1.90918 0
M  V30 9518 O 916.234 0.727429 -2.61574 0
M  V30 9519 C 914.69 -1.81244 -3.10932 0
M  V30 9520 C 914.298 -3.32028 -3.00768 0
M  V30 9521 C 916.042 -1.71448 -3.88337 0
M  V30 9522 C 913.949 -4.01716 -4.34026 0
M  V30 9523 H 912.879 -0.385559 -0.647966 0
M  V30 9524 H 915.53 -1.46077 -1.11058 0
M  V30 9525 H 913.912 -1.3197 -3.73363 0
M  V30 9526 H 915.086 -3.88682 -2.47513 0
M  V30 9527 H 913.401 -3.4248 -2.36846 0
M  V30 9528 H 915.998 -2.20836 -4.86965 0
M  V30 9529 H 916.341 -0.674568 -4.10798 0
M  V30 9530 H 916.874 -2.18256 -3.3258 0
M  V30 9531 H 913.613 -5.05952 -4.16765 0
M  V30 9532 H 913.133 -3.49849 -4.87202 0
M  V30 9533 H 914.812 -4.0721 -5.02782 0
M  V30 9534 N 914.944 1.19125 -1.03184 0
M  V30 9535 C 915.874 2.24675 -0.635889 0
M  V30 9536 C 916.855 1.66321 0.356565 0
M  V30 9537 O 918.04 1.92728 0.238625 0
M  V30 9538 C 915.17 3.47298 0.011069 0
M  V30 9539 C 914.124 4.18345 -0.903979 0
M  V30 9540 C 913.45 5.34561 -0.12197 0
M  V30 9541 C 914.75 4.72816 -2.21907 0
M  V30 9542 H 916.444 2.5805 -1.51825 0
M  V30 9543 H 913.99 1.24039 -0.73146 0
M  V30 9544 H 915.943 4.20333 0.299729 0
M  V30 9545 H 914.667 3.13131 0.928245 0
M  V30 9546 H 913.326 3.47196 -1.17688 0
M  V30 9547 H 912.974 4.9664 0.797334 0
M  V30 9548 H 912.674 5.83029 -0.731498 0
M  V30 9549 H 914.198 6.10391 0.159881 0
M  V30 9550 H 915.612 5.3759 -1.99173 0
M  V30 9551 H 914.009 5.31782 -2.78078 0
M  V30 9552 H 915.079 3.9072 -2.87168 0
M  V30 9553 N 916.422 0.810101 1.35185 0
M  V30 9554 C 917.647 0.40364 2.03434 0
M  V30 9555 C 918.072 -0.97857 1.60641 0
M  V30 9556 O 917.43 -1.63435 0.784779 0
M  V30 9557 C 917.478 0.499154 3.57129 0
M  V30 9558 O 916.582 -0.486039 4.09526 0
M  V30 9559 H 915.923 0.168049 0.642383 0
M  V30 9560 H 918.453 1.09696 1.72708 0
M  V30 9561 H 918.463 0.370236 4.06317 0
M  V30 9562 H 917.138 1.50733 3.87624 0
M  V30 9563 H 915.715 -0.31707 3.7155 0
M  V30 9564 N 917.9 -1.47166 0.563914 0
M  V30 9565 C 918.833 -2.27058 -0.227989 0
M  V30 9566 C 919.811 -1.34468 -0.914179 0
M  V30 9567 O 920.995 -1.63857 -0.931829 0
M  V30 9568 C 918.122 -3.11689 -1.32543 0
M  V30 9569 C 917.168 -4.19906 -0.747084 0
M  V30 9570 S 918.001 -5.33916 0.41153 0
M  V30 9571 C 919.157 -6.22112 -0.687566 0
M  V30 9572 H 919.39 -2.93876 0.449939 0
M  V30 9573 H 916.923 -1.50372 0.350382 0
M  V30 9574 H 918.881 -3.61017 -1.95389 0
M  V30 9575 H 917.542 -2.44221 -1.97522 0
M  V30 9576 H 916.735 -4.78876 -1.57141 0
M  V30 9577 H 916.337 -3.73493 -0.194671 0
M  V30 9578 H 918.629 -6.58867 -1.578 0
M  V30 9579 H 919.572 -7.07971 -0.135058 0
M  V30 9580 H 919.98 -5.55871 -0.983255 0
M  V30 9581 N 919.378 -0.300708 -1.54705 0
M  V30 9582 C 920.308 0.568675 -2.26469 0
M  V30 9583 C 921.289 1.13817 -1.26411 0
M  V30 9584 O 922.474 1.16756 -1.55183 0
M  V30 9585 C 919.604 1.74077 -3.00524 0
M  V30 9586 C 918.558 1.30165 -4.07727 0
M  V30 9587 C 917.884 2.55888 -4.69495 0
M  V30 9588 C 919.184 0.433106 -5.20501 0
M  V30 9589 H 920.878 -0.0298851 -2.99385 0
M  V30 9590 H 918.424 -0.0158135 -1.43991 0
M  V30 9591 H 920.377 2.35506 -3.49449 0
M  V30 9592 H 919.101 2.36556 -2.25186 0
M  V30 9593 H 917.76 0.710414 -3.59651 0
M  V30 9594 H 917.408 3.16681 -3.90797 0
M  V30 9595 H 917.108 2.27207 -5.41895 0
M  V30 9596 H 918.632 3.18121 -5.21183 0
M  V30 9597 H 920.046 0.95307 -5.65322 0
M  V30 9598 H 918.443 0.240085 -5.9962 0
M  V30 9599 H 919.513 -0.541866 -4.81863 0
M  V30 9600 N 920.856 1.57574 -0.0284266 0
M  V30 9601 C 921.788 2.07079 0.982391 0
M  V30 9602 C 922.801 0.994078 1.28926 0
M  V30 9603 O 923.99 1.27028 1.25404 0
M  V30 9604 C 921.09 2.47978 2.30998 0
M  V30 9605 C 920.263 3.7872 2.18838 0
M  V30 9606 C 919.322 4.06177 3.34524 0
M  V30 9607 O 918.348 4.76438 3.11441 0
M  V30 9608 N 919.55 3.56297 4.58293 0
M  V30 9609 H 922.315 2.94421 0.560011 0
M  V30 9610 H 919.876 1.61124 0.158347 0
M  V30 9611 H 921.868 2.63439 3.07216 0
M  V30 9612 H 920.438 1.66005 2.64879 0
M  V30 9613 H 919.658 3.73062 1.27351 0
M  V30 9614 H 920.946 4.6438 2.07915 0
M  V30 9615 H 920.344 2.99453 4.79942 0
M  V30 9616 H 918.901 3.77038 5.31682 0
M  V30 9617 N 922.334 -0.244713 1.55689 0
M  V30 9618 C 923.611 -0.995407 1.68378 0
M  V30 9619 C 923.991 -2.03288 0.568949 0
M  V30 9620 O 923.339 -2.24469 -0.427299 0
M  V30 9621 C 923.549 -1.62678 3.08767 0
M  V30 9622 C 924.897 -2.1278 3.67437 0
M  V30 9623 O 925.921 -1.72614 3.11581 0
M  V30 9624 O 924.78 -2.86536 4.65359 0
M  V30 9625 H 921.874 -0.463476 0.684923 0
M  V30 9626 H 924.42 -0.238326 1.68018 0
M  V30 9627 H 923.192 -0.876469 3.81358 0
M  V30 9628 H 922.815 -2.45 3.13146 0
M  V30 9629 N 923.813 -1.49104 -0.510467 0
M  V30 9630 C 924.746 -1.59667 -1.63039 0
M  V30 9631 C 925.724 -0.446145 -1.5636 0
M  V30 9632 O 926.908 -0.660414 -1.76552 0
M  V30 9633 C 924.035 -1.54282 -3.01521 0
M  V30 9634 C 923.081 -2.74415 -3.26494 0
M  V30 9635 S 923.914 -4.3619 -3.10643 0
M  V30 9636 C 925.07 -4.33435 -4.51536 0
M  V30 9637 H 925.303 -2.54407 -1.53833 0
M  V30 9638 H 922.836 -1.37878 -0.694916 0
M  V30 9639 H 924.794 -1.51861 -3.81377 0
M  V30 9640 H 923.455 -0.608458 -3.0815 0
M  V30 9641 H 922.648 -2.66841 -4.27565 0
M  V30 9642 H 922.25 -2.74199 -2.54344 0
M  V30 9643 H 924.542 -4.04571 -5.43441 0
M  V30 9644 H 925.485 -5.34752 -4.64162 0
M  V30 9645 H 925.893 -3.63638 -4.31773 0
M  V30 9646 N 925.291 0.760815 -1.38019 0
M  V30 9647 C 926.239 1.89578 -1.34771 0
M  V30 9648 C 927.233 1.67766 -0.234714 0
M  V30 9649 O 928.439 1.75423 -0.403352 0
M  V30 9650 H 924.814 0.623608 -0.420258 0
M  V30 9651 H 926.785 1.89434 -2.30558 0
M  V30 9652 C 925.534 3.26976 -1.18246 0
M  V30 9653 H 924.857 3.44342 -2.03147 0
M  V30 9654 H 926.297 4.06657 -1.20026 0
M  V30 9655 C 924.756 3.36717 0.111145 0
M  V30 9656 O 925.286 3.86607 1.09079 0
M  V30 9657 N 923.492 2.90128 0.165542 0
M  V30 9658 H 923.039 2.49719 -0.632328 0
M  V30 9659 H 922.997 2.97026 1.03067 0
M  V30 9660 N 926.769 1.22769 0.988202 0
M  V30 9661 C 928.016 1.05509 1.72841 0
M  V30 9662 C 928.344 -0.409145 1.90148 0
M  V30 9663 O 927.599 -1.3195 1.44526 0
M  V30 9664 C 927.898 1.71679 3.13466 0
M  V30 9665 C 927.564 3.21584 3.16061 0
M  V30 9666 C 926.226 3.62486 3.16476 0
M  V30 9667 C 928.578 4.17511 3.11984 0
M  V30 9668 C 925.906 4.97789 3.10521 0
M  V30 9669 C 928.258 5.52796 3.0757 0
M  V30 9670 C 926.922 5.93072 3.06304 0
M  V30 9671 H 926.192 0.386085 0.632471 0
M  V30 9672 H 928.839 1.52596 1.157 0
M  V30 9673 H 927.144 1.1693 3.73945 0
M  V30 9674 H 928.841 1.55809 3.69492 0
M  V30 9675 H 925.431 2.89019 3.1649 0
M  V30 9676 H 929.615 3.86926 3.10809 0
M  V30 9677 H 924.871 5.28218 3.07888 0
M  V30 9678 H 929.045 6.26848 3.03372 0
M  V30 9679 H 926.672 6.97879 3.01444 0
M  V30 9680 N 928.247 -1.18576 1.03814 0
M  V30 9681 C 929.496 -1.87822 0.735235 0
M  V30 9682 C 929.809 -1.81069 -0.739819 0
M  V30 9683 O 931.015 -2.45654 -1.15614 0
M  V30 9684 C 929.471 -3.36941 1.26486 0
M  V30 9685 C 929.079 -3.5223 2.76836 0
M  V30 9686 C 930.823 -4.11604 1.03836 0
M  V30 9687 C 928.73 -4.95294 3.23169 0
M  V30 9688 H 927.66 -0.703487 0.271333 0
M  V30 9689 H 930.311 -1.34 1.25365 0
M  V30 9690 H 928.693 -3.90217 0.674318 0
M  V30 9691 H 929.867 -3.09239 3.41625 0
M  V30 9692 H 928.182 -2.90969 2.97869 0
M  V30 9693 H 930.779 -5.17123 1.3597 0
M  V30 9694 H 931.122 -4.16293 -0.0244945 0
M  V30 9695 H 931.655 -3.64494 1.59338 0
M  V30 9696 H 928.394 -4.95772 4.28824 0
M  V30 9697 H 927.914 -5.3901 2.63113 0
M  V30 9698 H 929.593 -5.63996 3.17045 0
M  V30 9699 N 929.725 -0.817259 -1.34754 0
M  V30 9700 C 930.673 -0.223352 -2.31525 0
M  V30 9701 C 931.667 0.632785 -1.57137 0
M  V30 9702 O 932.873 0.524757 -1.72181 0
M  V30 9703 H 929.248 -0.0534765 -0.750096 0
M  V30 9704 H 931.219 -1.05446 -2.79148 0
M  V30 9705 C 929.968 0.604784 -3.424 0
M  V30 9706 H 929.291 -0.0446664 -3.99775 0
M  V30 9707 H 930.731 0.986543 -4.12363 0
M  V30 9708 C 929.19 1.77478 -2.86362 0
M  V30 9709 O 929.72 2.87273 -2.8078 0
M  V30 9710 N 927.926 1.58971 -2.43263 0
M  V30 9711 H 927.473 0.696598 -2.48003 0
M  V30 9712 H 927.431 2.37408 -2.06119 0
M  V30 9713 N 931.203 1.46865 -0.571711 0
M  V30 9714 C 932.151 2.31897 0.180714 0
M  V30 9715 C 933.145 1.43815 0.895191 0
M  V30 9716 O 934.351 1.60501 0.814828 0
M  V30 9717 H 930.726 0.748032 0.077148 0
M  V30 9718 H 932.697 2.93185 -0.555432 0
M  V30 9719 C 931.446 3.26766 1.18824 0
M  V30 9720 H 930.769 3.94515 0.64789 0
M  V30 9721 H 932.209 3.89067 1.68532 0
M  V30 9722 C 930.668 2.51325 2.2436 0
M  V30 9723 O 931.198 2.26825 3.31532 0
M  V30 9724 N 929.404 2.12079 1.98673 0
M  V30 9725 H 928.951 2.32204 1.1153 0
M  V30 9726 H 928.909 1.61921 2.69498 0
M  V30 9727 N 932.681 0.308908 1.54543 0
M  V30 9728 C 933.911 -0.299983 2.04411 0
M  V30 9729 C 934.319 -1.47463 1.18538 0
M  V30 9730 O 933.662 -1.82547 0.205463 0
M  V30 9731 C 933.724 -0.811579 3.50219 0
M  V30 9732 C 933.388 0.238834 4.56375 0
M  V30 9733 C 934.385 1.06997 5.08771 0
M  V30 9734 C 932.07 0.382808 5.00839 0
M  V30 9735 C 934.064 2.03096 6.04178 0
M  V30 9736 C 931.751 1.34723 5.96065 0
M  V30 9737 C 932.749 2.16978 6.47618 0
M  V30 9738 O 932.437 3.11783 7.40977 0
M  V30 9739 H 932.169 -0.0679682 0.672574 0
M  V30 9740 H 934.723 0.448815 2.00437 0
M  V30 9741 H 932.953 -1.61104 3.51543 0
M  V30 9742 H 934.642 -1.33721 3.83241 0
M  V30 9743 H 935.408 0.969654 4.75208 0
M  V30 9744 H 931.287 -0.247507 4.60335 0
M  V30 9745 H 934.831 2.67338 6.44342 0
M  V30 9746 H 930.728 1.44824 6.29044 0
M  V30 9747 H 931.496 3.06853 7.58804 0
M  V30 9748 N 934.159 -1.57557 0.0367827 0
M  V30 9749 C 935.106 -2.10679 -0.942499 0
M  V30 9750 C 936.076 -1.01068 -1.31812 0
M  V30 9751 O 937.261 -1.28533 -1.41011 0
M  V30 9752 C 934.401 -2.64467 -2.21701 0
M  V30 9753 C 933.514 -3.88114 -1.89715 0
M  V30 9754 C 932.649 -4.30268 -3.11518 0
M  V30 9755 C 931.688 -5.46652 -2.75387 0
M  V30 9756 N 930.825 -5.83927 -3.89838 0
M  V30 9757 H 935.665 -2.94066 -0.482588 0
M  V30 9758 H 933.202 -1.45344 -0.226597 0
M  V30 9759 H 935.16 -2.93745 -2.96259 0
M  V30 9760 H 933.79 -1.83898 -2.65295 0
M  V30 9761 H 932.842 -3.65516 -1.05366 0
M  V30 9762 H 934.154 -4.72743 -1.5911 0
M  V30 9763 H 933.308 -4.61023 -3.94389 0
M  V30 9764 H 932.047 -3.44421 -3.4529 0
M  V30 9765 H 931.052 -5.15583 -1.90929 0
M  V30 9766 H 932.277 -6.34204 -2.42822 0
M  V30 9767 H 930.223 -5.01035 -4.23438 0
M  V30 9768 H 930.14 -6.63214 -3.62883 0
M  V30 9769 H 931.408 -6.19291 -4.73391 0
M  V30 9770 N 935.637 0.236453 -1.55816 0
M  V30 9771 C 936.886 0.960981 -1.77336 0
M  V30 9772 C 937.199 1.86085 -0.602641 0
M  V30 9773 O 938.405 2.62291 -0.701106 0
M  V30 9774 C 936.861 1.75884 -3.13995 0
M  V30 9775 C 936.469 0.905849 -4.38746 0
M  V30 9776 C 938.213 2.47548 -3.44848 0
M  V30 9777 C 936.12 1.7002 -5.66434 0
M  V30 9778 H 935.05 0.362547 -0.661117 0
M  V30 9779 H 937.701 0.215303 -1.82233 0
M  V30 9780 H 936.083 2.54687 -3.03234 0
M  V30 9781 H 937.257 0.159415 -4.60524 0
M  V30 9782 H 935.572 0.30205 -4.15303 0
M  V30 9783 H 938.169 3.07452 -4.37467 0
M  V30 9784 H 938.512 3.19689 -2.66655 0
M  V30 9785 H 939.045 1.75747 -3.56872 0
M  V30 9786 H 935.784 1.02234 -6.47479 0
M  V30 9787 H 935.304 2.42164 -5.48741 0
M  V30 9788 H 936.983 2.26469 -6.0607 0
M  V30 9789 N 937.115 1.49373 0.502552 0
M  V30 9790 C 938.392 1.49282 1.26389 0
M  V30 9791 C 938.772 0.219674 2.09954 0
M  V30 9792 O 938.12 -0.797991 2.14113 0
M  V30 9793 C 938.33 2.77083 2.12194 0
M  V30 9794 C 939.678 3.26511 2.71433 0
M  V30 9795 O 940.702 2.78189 2.22462 0
M  V30 9796 O 939.561 4.10665 3.60578 0
M  V30 9797 H 936.655 0.597415 0.57186 0
M  V30 9798 H 939.201 1.61634 0.516951 0
M  V30 9799 H 937.973 3.61237 1.50411 0
M  V30 9800 H 937.596 2.67583 2.94084 0
M  V30 9801 N 938.594 -0.753485 1.38421 0
M  V30 9802 C 939.834 -1.52544 1.3605 0
M  V30 9803 C 940.198 -1.91937 -0.0493257 0
M  V30 9804 O 941.399 -2.6807 -0.197908 0
M  V30 9805 C 939.67 -2.74432 2.28958 0
M  V30 9806 S 941.229 -3.64297 2.44607 0
M  V30 9807 H 938.047 -0.522017 0.48272 0
M  V30 9808 H 940.649 -0.884503 1.74347 0
M  V30 9809 H 939.353 -2.43602 3.30282 0
M  V30 9810 H 938.884 -3.43471 1.91811 0
M  V30 9811 H 940.899 -4.67245 1.67022 0
M  V30 9812 N 940.072 -1.23292 -0.981677 0
M  V30 9813 C 941.483 -1.05936 -1.53735 0
M  V30 9814 C 941.834 0.373695 -1.92608 0
M  V30 9815 O 940.959 1.26024 -1.75917 0
M  V30 9816 C 941.554 -1.91682 -2.79363 0
M  V30 9817 C 940.113 -1.78591 -3.31334 0
M  V30 9818 C 939.26 -1.87463 -2.04335 0
M  V30 9819 H 942.211 -1.36973 -0.801505 0
M  V30 9820 H 942.232 -1.44085 -3.52164 0
M  V30 9821 H 941.744 -2.95975 -2.51039 0
M  V30 9822 H 939.845 -0.770755 -3.64541 0
M  V30 9823 H 939.958 -2.61902 -4.01179 0
M  V30 9824 H 938.322 -1.3103 -2.18411 0
M  V30 9825 H 939.105 -2.9331 -1.78394 0
M  V30 9826 N 941.55 1.18024 -1.04442 0
M  V30 9827 C 942.778 1.92032 -0.770161 0
M  V30 9828 C 943.193 1.76391 0.673181 0
M  V30 9829 O 942.55 1.09604 1.45922 0
M  V30 9830 C 942.601 3.43328 -1.13173 0
M  V30 9831 O 942.322 3.5848 -2.51841 0
M  V30 9832 C 943.823 4.34427 -0.882523 0
M  V30 9833 H 941.043 0.609518 -0.280586 0
M  V30 9834 H 943.587 1.49711 -1.39308 0
M  V30 9835 H 941.742 3.83423 -0.553704 0
M  V30 9836 H 942.156 4.52166 -2.65794 0
M  V30 9837 H 943.63 5.39123 -1.18533 0
M  V30 9838 H 944.107 4.3882 0.18257 0
M  V30 9839 H 944.713 4.00035 -1.44403 0
M  V30 9840 N 943.028 0.824394 1.34319 0
M  V30 9841 C 943.958 0.262077 2.32025 0
M  V30 9842 C 944.939 -0.622277 1.58309 0
M  V30 9843 O 946.124 -0.548848 1.86283 0
M  V30 9844 C 943.254 -0.57567 3.42496 0
M  V30 9845 C 942.208 0.21167 4.27476 0
M  V30 9846 C 941.534 -0.748913 5.29429 0
M  V30 9847 C 942.834 1.42068 5.02607 0
M  V30 9848 H 944.528 1.07842 2.79304 0
M  V30 9849 H 942.074 0.520022 1.34282 0
M  V30 9850 H 944.027 -0.979251 4.09864 0
M  V30 9851 H 942.751 -1.42508 2.93869 0
M  V30 9852 H 941.41 0.596636 3.61712 0
M  V30 9853 H 941.058 -1.59432 4.77064 0
M  V30 9854 H 940.758 -0.226313 5.87164 0
M  V30 9855 H 942.282 -1.15032 5.99667 0
M  V30 9856 H 943.696 1.09103 5.62823 0
M  V30 9857 H 942.093 1.87903 5.69923 0
M  V30 9858 H 943.163 2.1981 4.32217 0
M  V30 9859 N 944.506 -1.46559 0.579492 0
M  V30 9860 C 945.469 -2.28739 -0.145371 0
M  V30 9861 C 946.469 -1.38211 -0.821854 0
M  V30 9862 O 947.659 -1.6062 -0.674302 0
M  V30 9863 C 944.791 -3.18507 -1.21515 0
M  V30 9864 H 945.984 -2.94301 0.576786 0
M  V30 9865 H 943.537 -1.52616 0.337327 0
M  V30 9866 H 944.272 -2.57685 -1.96899 0
M  V30 9867 H 944.057 -3.85157 -0.734616 0
M  V30 9868 H 945.547 -3.80369 -1.72363 0
M  V30 9869 N 945.984 -0.3171 -1.54377 0
M  V30 9870 C 947.4 0.035766 -1.5956 0
M  V30 9871 C 947.6 1.51038 -1.33378 0
M  V30 9872 O 946.656 2.26546 -1.11505 0
M  V30 9873 C 947.969 -0.376652 -2.98332 0
M  V30 9874 C 949.517 -0.326765 -3.1129 0
M  V30 9875 C 949.992 -0.714247 -4.52396 0
M  V30 9876 N 951.483 -0.667402 -4.58367 0
M  V30 9877 C 952.218 -0.939494 -5.65651 0
M  V30 9878 N 951.714 -1.27839 -6.80903 0
M  V30 9879 N 953.507 -0.865484 -5.55397 0
M  V30 9880 H 945.658 -1.27794 -1.69654 0
M  V30 9881 H 947.921 -0.5192 -0.79318 0
M  V30 9882 H 947.627 -1.40381 -3.22469 0
M  V30 9883 H 947.501 0.261611 -3.76292 0
M  V30 9884 H 949.888 0.69117 -2.86892 0
M  V30 9885 H 949.969 -0.999873 -2.35449 0
M  V30 9886 H 949.613 -1.73007 -4.77526 0
M  V30 9887 H 949.543 -0.0188962 -5.26597 0
M  V30 9888 H 952.034 -0.417062 -3.75592 0
M  V30 9889 H 952.347 -1.47155 -7.5866 0
M  V30 9890 H 950.692 -1.31658 -6.82416 0
M  V30 9891 H 953.883 -0.600265 -4.64235 0
M  V30 9892 H 954.056 -1.0809 -6.38921 0
M  V30 9893 N 947.462 1.57535 -0.0451378 0
M  V30 9894 C 948.709 1.92451 0.629987 0
M  V30 9895 C 949.037 0.92298 1.71206 0
M  V30 9896 O 948.292 -0.0656626 1.9559 0
M  V30 9897 C 948.591 3.34065 1.27024 0
M  V30 9898 C 948.257 4.49785 0.316971 0
M  V30 9899 C 946.919 4.81169 0.0546406 0
M  V30 9900 C 949.271 5.20111 -0.336693 0
M  V30 9901 C 946.599 5.8023 -0.86889 0
M  V30 9902 C 948.951 6.2016 -1.24838 0
M  V30 9903 C 947.615 6.49976 -1.51944 0
M  V30 9904 H 946.885 0.704228 0.230529 0
M  V30 9905 H 949.532 1.91182 -0.110328 0
M  V30 9906 H 947.837 3.31672 2.08568 0
M  V30 9907 H 949.534 3.58359 1.79945 0
M  V30 9908 H 946.124 4.2529 0.531614 0
M  V30 9909 H 950.308 4.96082 -0.147105 0
M  V30 9910 H 945.564 6.0167 -1.08643 0
M  V30 9911 H 949.738 6.73767 -1.76098 0
M  V30 9912 H 947.365 7.26551 -2.2367 0
M  V30 9913 N 948.94 -0.228186 1.55939 0
M  V30 9914 C 950.18 -0.960695 1.80416 0
M  V30 9915 C 950.544 -1.81795 0.617615 0
M  V30 9916 O 951.745 -2.58369 0.741545 0
M  V30 9917 C 950.016 -1.78298 3.09749 0
M  V30 9918 S 951.575 -2.57203 3.55517 0
M  V30 9919 H 948.393 -0.322825 0.633486 0
M  V30 9920 H 950.995 -0.226852 1.94179 0
M  V30 9921 H 949.699 -1.14323 3.94155 0
M  V30 9922 H 949.23 -2.55924 2.98775 0
M  V30 9923 H 951.245 -3.80632 3.1833 0
M  V30 9924 N 950.418 -1.49637 -0.494624 0
M  V30 9925 C 951.348 -1.69692 -1.60396 0
M  V30 9926 C 952.329 -0.545648 -1.61111 0
M  V30 9927 O 953.514 -0.782202 -1.77751 0
M  V30 9928 C 950.644 -1.76934 -2.9885 0
M  V30 9929 C 949.598 -2.91915 -3.13001 0
M  V30 9930 C 948.924 -2.84276 -4.5287 0
M  V30 9931 C 950.224 -4.32764 -2.92426 0
M  V30 9932 H 951.918 -2.6257 -1.43866 0
M  V30 9933 H 949.464 -1.26355 -0.690679 0
M  V30 9934 H 951.417 -1.8955 -3.76362 0
M  V30 9935 H 950.141 -0.806609 -3.16483 0
M  V30 9936 H 948.8 -2.78911 -2.37916 0
M  V30 9937 H 948.448 -1.85897 -4.67388 0
M  V30 9938 H 948.148 -3.61452 -4.63278 0
M  V30 9939 H 949.672 -2.98909 -5.32434 0
M  V30 9940 H 951.086 -4.46415 -3.59703 0
M  V30 9941 H 949.483 -5.1121 -3.143 0
M  V30 9942 H 950.553 -4.46765 -1.88491 0
M  V30 9943 N 951.896 0.746133 -1.38819 0
M  V30 9944 C 952.829 1.86833 -1.31029 0
M  V30 9945 C 953.807 1.61533 -0.185948 0
M  V30 9946 O 954.991 1.84942 -0.364529 0
M  V30 9947 C 952.118 3.22596 -1.03198 0
M  V30 9948 C 951.164 3.66772 -2.17671 0
M  V30 9949 S 951.997 3.77438 -3.7987 0
M  V30 9950 C 953.153 5.16008 -3.54241 0
M  V30 9951 H 953.386 1.93155 -2.26005 0
M  V30 9952 H 950.919 0.909872 -1.24742 0
M  V30 9953 H 952.877 4.00995 -0.878237 0
M  V30 9954 H 951.538 3.13943 -0.0992704 0
M  V30 9955 H 950.731 4.65266 -1.93762 0
M  V30 9956 H 950.333 2.95547 -2.2919 0
M  V30 9957 H 952.625 6.01996 -3.10816 0
M  V30 9958 H 953.568 5.44941 -4.52156 0
M  V30 9959 H 953.976 4.85158 -2.88587 0
M  V30 9960 N 953.375 1.23811 0.975125 0
M  V30 9961 C 954.621 1.07495 1.71967 0
M  V30 9962 C 954.954 -0.386451 1.90316 0
M  V30 9963 O 954.229 -1.28591 1.45927 0
M  V30 9964 C 954.512 1.80694 3.11483 0
M  V30 9965 C 954.365 3.3454 3.00671 0
M  V30 9966 C 955.684 1.57367 4.11003 0
M  V30 9967 H 952.803 0.3919 0.624166 0
M  V30 9968 H 955.445 1.52383 1.13487 0
M  V30 9969 H 953.595 1.42538 3.61407 0
M  V30 9970 H 955.267 3.8225 2.5823 0
M  V30 9971 H 953.51 3.63301 2.37054 0
M  V30 9972 H 954.181 3.80951 3.99475 0
M  V30 9973 H 956.657 1.90545 3.69908 0
M  V30 9974 H 955.533 2.11052 5.06703 0
M  V30 9975 H 955.794 0.510221 4.39146 0
M  V30 9976 N 954.853 -1.17469 1.05066 0
M  V30 9977 C 955.8 -2.21443 0.650512 0
M  V30 9978 C 956.77 -1.62441 -0.346702 0
M  V30 9979 O 957.955 -1.89305 -0.238404 0
M  V30 9980 C 955.095 -3.45087 0.0301014 0
M  V30 9981 C 954.208 -4.18385 1.07599 0
M  V30 9982 C 953.343 -5.29513 0.423038 0
M  V30 9983 C 952.382 -5.94596 1.45333 0
M  V30 9984 N 951.519 -6.97241 0.824623 0
M  V30 9985 H 956.359 -2.55025 1.54163 0
M  V30 9986 H 953.896 -1.25274 0.771032 0
M  V30 9987 H 955.854 -4.15754 -0.347032 0
M  V30 9988 H 954.484 -3.12093 -0.824481 0
M  V30 9989 H 953.536 -3.46446 1.57097 0
M  V30 9990 H 954.848 -4.62899 1.85813 0
M  V30 9991 H 954.002 -6.067 -0.00774975 0
M  V30 9992 H 952.741 -4.86129 -0.391092 0
M  V30 9993 H 951.746 -5.16142 1.89415 0
M  V30 9994 H 952.971 -6.40061 2.26934 0
M  V30 9995 H 950.917 -6.55993 0.0309804 0
M  V30 9996 H 950.834 -7.40059 1.54432 0
M  V30 9997 H 952.102 -7.78375 0.418567 0
M  V30 9998 N 956.331 -0.831506 -1.3388 0
M  V30 9999 C 957.278 -0.257449 -2.2936 0
M  V30 10000 C 958.248 0.622604 -1.5399 0
M  V30 10001 O 959.433 0.562432 -1.82322 0
M  V30 10002 C 956.573 0.567587 -3.404 0
M  V30 10003 C 955.686 -0.335666 -4.30694 0
M  V30 10004 C 954.821 0.499762 -5.28844 0
M  V30 10005 C 953.86 -0.402343 -6.10776 0
M  V30 10006 N 952.997 0.39452 -7.00991 0
M  V30 10007 H 957.837 -1.077 -2.77857 0
M  V30 10008 H 955.374 -0.542589 -1.36727 0
M  V30 10009 H 957.332 1.06133 -4.03474 0
M  V30 10010 H 955.962 1.35217 -2.93115 0
M  V30 10011 H 955.014 -0.94768 -3.68406 0
M  V30 10012 H 956.326 -1.02896 -4.88072 0
M  V30 10013 H 955.48 1.05763 -5.9741 0
M  V30 10014 H 954.219 1.22652 -4.72025 0
M  V30 10015 H 953.224 -0.972288 -5.41135 0
M  V30 10016 H 954.449 -1.12735 -6.69677 0
M  V30 10017 H 952.395 1.1048 -6.4663 0
M  V30 10018 H 952.312 -0.240209 -7.55618 0
M  V30 10019 H 953.58 0.934867 -7.73874 0
M  V30 10020 N 957.809 1.4625 -0.587256 0
M  V30 10021 C 959.057 2.01963 -0.0744273 0
M  V30 10022 C 959.378 1.46065 1.29189 0
M  V30 10023 O 958.648 0.647077 1.84905 0
M  V30 10024 H 957.228 0.746597 -0.0245236 0
M  V30 10025 H 959.89 1.79299 -0.764063 0
M  V30 10026 H 958.986 3.12099 -0.00884894 0
M  V30 10027 N 959.287 0.325282 1.54207 0
M  V30 10028 C 960.517 -0.278285 2.04717 0
M  V30 10029 C 960.925 -1.46198 1.20095 0
M  V30 10030 O 960.268 -1.82319 0.224813 0
M  V30 10031 C 960.33 -0.774387 3.51061 0
M  V30 10032 C 959.994 0.287225 4.56096 0
M  V30 10033 C 960.991 1.12388 5.07607 0
M  V30 10034 C 958.676 0.435908 5.00405 0
M  V30 10035 C 960.67 2.09492 6.0199 0
M  V30 10036 C 958.357 1.41037 5.94602 0
M  V30 10037 C 959.355 2.23834 6.45281 0
M  V30 10038 O 959.043 3.19625 7.37628 0
M  V30 10039 H 958.775 -0.0608309 0.673257 0
M  V30 10040 H 961.329 0.470049 1.99949 0
M  V30 10041 H 959.559 -1.57366 3.53232 0
M  V30 10042 H 961.248 -1.29649 3.84637 0
M  V30 10043 H 962.014 1.02 4.74153 0
M  V30 10044 H 957.893 -0.198668 4.60572 0
M  V30 10045 H 961.437 2.74157 6.4147 0
M  V30 10046 H 957.334 1.51487 6.27473 0
M  V30 10047 H 958.102 3.14884 7.55507 0
M  V30 10048 N 960.765 -1.57509 0.0534917 0
M  V30 10049 C 962.181 -1.56696 -0.303067 0
M  V30 10050 C 962.381 -1.06135 -1.71282 0
M  V30 10051 O 961.437 -0.71899 -2.42047 0
M  V30 10052 C 962.75 -3.00421 -0.129418 0
M  V30 10053 C 964.298 -3.12358 -0.200346 0
M  V30 10054 C 964.773 -4.57967 -0.0551971 0
M  V30 10055 N 966.264 -4.63066 -0.111398 0
M  V30 10056 C 966.999 -5.73395 -0.0232344 0
M  V30 10057 N 966.495 -6.92701 0.11741 0
M  V30 10058 N 968.288 -5.62045 -0.078984 0
M  V30 10059 H 960.439 -1.88696 0.975064 0
M  V30 10060 H 962.702 -0.869072 0.378706 0
M  V30 10061 H 962.408 -3.41456 0.842653 0
M  V30 10062 H 962.282 -3.66563 -0.889476 0
M  V30 10063 H 964.669 -2.71221 -1.16289 0
M  V30 10064 H 964.75 -2.48891 0.590506 0
M  V30 10065 H 964.394 -4.9979 0.904034 0
M  V30 10066 H 964.324 -5.19443 -0.865223 0
M  V30 10067 H 966.815 -3.77263 -0.219256 0
M  V30 10068 H 967.128 -7.72597 0.177326 0
M  V30 10069 H 965.473 -6.94833 0.152526 0
M  V30 10070 H 968.664 -4.67725 -0.187434 0
M  V30 10071 H 968.837 -6.48 -0.00681731 0
M  V30 10072 N 962.243 0.219913 -1.56058 0
M  V30 10073 C 963.52 0.968493 -1.6994 0
M  V30 10074 C 963.9 2.02358 -0.601219 0
M  V30 10075 O 963.248 2.25121 0.391534 0
M  V30 10076 C 963.458 1.57745 -3.11316 0
M  V30 10077 C 964.806 2.06908 -3.70775 0
M  V30 10078 O 965.83 1.67636 -3.14288 0
M  V30 10079 O 964.689 2.79096 -4.69859 0
M  V30 10080 H 961.783 0.452521 -0.692209 0
M  V30 10081 H 964.329 0.211566 -1.68376 0
M  V30 10082 H 963.101 0.815687 -3.82704 0
M  V30 10083 H 962.724 2.39987 -3.17005 0
M  V30 10084 N 963.721 1.49897 0.486681 0
M  V30 10085 C 965.132 1.53142 1.06792 0
M  V30 10086 C 965.483 0.325856 1.93475 0
M  V30 10087 O 964.608 -0.562893 2.08951 0
M  V30 10088 C 965.203 2.77514 1.94348 0
M  V30 10089 C 963.762 2.83491 2.47609 0
M  V30 10090 C 962.909 2.47239 1.2557 0
M  V30 10091 H 965.86 1.56387 0.269962 0
M  V30 10092 H 965.881 2.58487 2.79221 0
M  V30 10093 H 965.393 3.65239 1.31232 0
M  V30 10094 H 963.494 2.0008 3.14323 0
M  V30 10095 H 963.607 3.86011 2.83782 0
M  V30 10096 H 961.971 1.99332 1.58552 0
M  V30 10097 H 962.754 3.37255 0.641404 0
M  V30 10098 N 965.199 -0.738761 1.39212 0
M  V30 10099 C 966.61 -1.31684 1.32348 0
M  V30 10100 C 966.961 -1.96195 -0.0139041 0
M  V30 10101 O 966.086 -1.96056 -0.916025 0
M  V30 10102 C 966.681 -2.39444 2.39691 0
M  V30 10103 C 965.24 -2.92935 2.36359 0
M  V30 10104 C 964.387 -1.66465 2.21776 0
M  V30 10105 H 967.338 -0.536543 1.49355 0
M  V30 10106 H 967.359 -3.19744 2.06262 0
M  V30 10107 H 966.871 -1.92463 3.37016 0
M  V30 10108 H 964.972 -3.44207 1.42662 0
M  V30 10109 H 965.085 -3.46306 3.31073 0
M  V30 10110 H 963.449 -1.90657 1.68884 0
M  V30 10111 H 964.232 -1.21541 3.21065 0
M  V30 10112 N 966.677 -1.24326 -0.968545 0
M  V30 10113 C 967.907 -1.10786 -1.74385 0
M  V30 10114 C 968.315 0.342503 -1.86074 0
M  V30 10115 O 967.658 1.24817 -1.34782 0
M  V30 10116 C 967.72 -1.67274 -3.18213 0
M  V30 10117 C 967.384 -3.1615 -3.29998 0
M  V30 10118 C 968.381 -4.13309 -3.15392 0
M  V30 10119 C 966.066 -3.56092 -3.54265 0
M  V30 10120 C 968.06 -5.48392 -3.24878 0
M  V30 10121 C 965.747 -4.91316 -3.63389 0
M  V30 10122 C 966.745 -5.87275 -3.48707 0
M  V30 10123 O 966.433 -7.20041 -3.57485 0
M  V30 10124 H 966.165 -0.387795 -0.553706 0
M  V30 10125 H 968.719 -1.64894 -1.22471 0
M  V30 10126 H 966.949 -1.07598 -3.71429 0
M  V30 10127 H 968.638 -1.49036 -3.77549 0
M  V30 10128 H 969.404 -3.83792 -2.96528 0
M  V30 10129 H 965.283 -2.81907 -3.6476 0
M  V30 10130 H 968.827 -6.23271 -3.13335 0
M  V30 10131 H 964.724 -5.20505 -3.81766 0
M  V30 10132 H 965.492 -7.27951 -3.74205 0
M  V30 10133 N 968.156 1.1691 -1.05688 0
M  V30 10134 C 969.106 2.19056 -0.632339 0
M  V30 10135 C 970.09 1.574 0.333797 0
M  V30 10136 O 971.282 1.76361 0.150223 0
M  V30 10137 C 968.411 3.43297 -0.0138209 0
M  V30 10138 C 967.497 4.12042 -1.00408 0
M  V30 10139 N 967.888 4.56535 -2.17737 0
M  V30 10140 C 966.186 4.38139 -0.833663 0
M  V30 10141 C 966.887 5.09644 -2.80425 0
M  V30 10142 N 965.863 5.02153 -2.08191 0
M  V30 10143 H 969.665 2.51165 -1.52621 0
M  V30 10144 H 967.179 1.33294 -0.927707 0
M  V30 10145 H 969.176 4.1576 0.308117 0
M  V30 10146 H 967.836 3.12677 0.87538 0
M  V30 10147 H 968.847 4.50463 -2.55546 0
M  V30 10148 H 965.524 4.175 0.00406684 0
M  V30 10149 H 966.914 5.54153 -3.79952 0
M  V30 10150 N 969.634 0.838594 1.33437 0
M  V30 10151 C 970.582 0.260158 2.31141 0
M  V30 10152 C 971.576 -0.607706 1.58124 0
M  V30 10153 O 972.782 -0.497298 1.72994 0
M  V30 10154 H 969.157 0.0654031 0.74915 0
M  V30 10155 H 971.128 1.09874 2.77435 0
M  V30 10156 C 969.877 -0.550234 3.43319 0
M  V30 10157 H 969.2 0.108262 3.99653 0
M  V30 10158 H 970.64 -0.920815 4.1388 0
M  V30 10159 C 969.099 -1.729 2.89149 0
M  V30 10160 O 969.629 -2.82769 2.85315 0
M  V30 10161 N 967.835 -1.5508 2.45761 0
M  V30 10162 H 967.382 -0.657055 2.49079 0
M  V30 10163 H 967.34 -2.34099 2.0987 0
M  V30 10164 N 971.112 -1.45937 0.595003 0
M  V30 10165 C 972.358 -2.03184 0.0938125 0
M  V30 10166 C 972.713 -1.45675 -1.25684 0
M  V30 10167 O 972.006 -0.617122 -1.8139 0
M  V30 10168 C 972.2 -3.57396 -0.0173747 0
M  V30 10169 C 972.029 -4.29861 1.32096 0
M  V30 10170 C 970.799 -4.68285 1.89835 0
M  V30 10171 C 972.997 -4.6262 2.24693 0
M  V30 10172 N 970.979 -5.25554 3.17279 0
M  V30 10173 C 972.35 -5.20589 3.36729 0
M  V30 10174 C 974.405 -4.44555 2.24221 0
M  V30 10175 C 973.108 -5.62398 4.48443 0
M  V30 10176 C 975.134 -4.87388 3.34973 0
M  V30 10177 C 974.496 -5.45439 4.4573 0
M  V30 10178 H 970.595 -0.77816 0.0773994 0
M  V30 10179 H 973.179 -1.77926 0.790599 0
M  V30 10180 H 971.35 -3.82341 -0.683354 0
M  V30 10181 H 973.082 -4.01292 -0.524073 0
M  V30 10182 H 969.837 -4.51437 1.43185 0
M  V30 10183 H 970.261 -5.58699 3.8234 0
M  V30 10184 H 974.903 -3.98998 1.39857 0
M  V30 10185 H 972.621 -6.06927 5.3354 0
M  V30 10186 H 976.207 -4.75152 3.3574 0
M  V30 10187 H 975.087 -5.77975 5.30014 0
M  V30 10188 N 972.59 -0.333456 -1.54032 0
M  V30 10189 C 973.523 0.570776 -2.20947 0
M  V30 10190 C 974.501 1.10811 -1.18994 0
M  V30 10191 O 975.685 1.17027 -1.47773 0
M  V30 10192 C 972.812 1.7842 -2.87896 0
M  V30 10193 C 971.858 1.37722 -4.03652 0
M  V30 10194 S 972.691 0.405548 -5.33962 0
M  V30 10195 C 973.847 1.62603 -6.0441 0
M  V30 10196 H 974.08 0.0023936 -2.973 0
M  V30 10197 H 971.613 -0.117531 -1.53952 0
M  V30 10198 H 973.571 2.48038 -3.27089 0
M  V30 10199 H 972.232 2.32378 -2.11327 0
M  V30 10200 H 971.425 2.28167 -4.49395 0
M  V30 10201 H 971.027 0.760628 -3.66184 0
M  V30 10202 H 973.319 2.56202 -6.2719 0
M  V30 10203 H 974.262 1.21058 -6.97675 0
M  V30 10204 H 974.67 1.8175 -5.34441 0
M  V30 10205 N 974.068 1.57479 -0.061844 0
M  V30 10206 C 975.018 2.0867 0.918749 0
M  V30 10207 C 976.002 0.994174 1.26511 0
M  V30 10208 O 977.194 1.25738 1.24575 0
M  V30 10209 C 974.323 2.64386 2.18986 0
M  V30 10210 C 973.409 3.80626 1.87042 0
M  V30 10211 N 973.8 4.89982 1.25504 0
M  V30 10212 C 972.098 3.89733 2.1685 0
M  V30 10213 C 972.799 5.70928 1.11429 0
M  V30 10214 N 971.775 5.18877 1.62072 0
M  V30 10215 H 975.577 2.90611 0.438469 0
M  V30 10216 H 973.091 1.61775 0.142321 0
M  V30 10217 H 975.088 2.9937 2.90144 0
M  V30 10218 H 973.748 1.83888 2.67611 0
M  V30 10219 H 974.759 5.09556 0.925914 0
M  V30 10220 H 971.436 3.20194 2.67921 0
M  V30 10221 H 972.826 6.68886 0.635665 0
M  V30 10222 N 975.546 -0.211634 1.56173 0
M  V30 10223 C 976.509 -1.24588 1.92381 0
M  V30 10224 C 977.509 -1.39297 0.803311 0
M  V30 10225 O 978.699 -1.37392 1.07094 0
M  V30 10226 C 975.831 -2.61807 2.18335 0
M  V30 10227 H 977.024 -0.936814 2.84893 0
M  V30 10228 H 974.577 -0.452471 1.49607 0
M  V30 10229 H 975.312 -2.97795 1.28407 0
M  V30 10230 H 975.097 -2.52506 2.99972 0
M  V30 10231 H 976.587 -3.3642 2.4741 0
M  V30 10232 N 977.024 -1.50153 -0.478725 0
M  V30 10233 C 978.271 -1.6076 -1.23136 0
M  V30 10234 C 978.599 -0.30442 -1.92103 0
M  V30 10235 O 977.854 0.709213 -1.82397 0
M  V30 10236 C 978.153 -2.73208 -2.30417 0
M  V30 10237 C 977.819 -4.13953 -1.78755 0
M  V30 10238 C 976.481 -4.52251 -1.64386 0
M  V30 10239 C 978.833 -5.01949 -1.40344 0
M  V30 10240 C 976.161 -5.76292 -1.10018 0
M  V30 10241 C 978.513 -6.2653 -0.874206 0
M  V30 10242 C 977.177 -6.63637 -0.717085 0
M  V30 10243 H 976.447 -0.588264 -0.450585 0
M  V30 10244 H 979.094 -1.84061 -0.528551 0
M  V30 10245 H 977.399 -2.43965 -3.06575 0
M  V30 10246 H 979.096 -2.7862 -2.88395 0
M  V30 10247 H 975.686 -3.83736 -1.90904 0
M  V30 10248 H 979.87 -4.73 -1.50283 0
M  V30 10249 H 975.126 -6.03723 -0.965838 0
M  V30 10250 H 979.3 -6.94081 -0.567883 0
M  V30 10251 H 976.927 -7.59633 -0.293639 0
M  V30 10252 N 978.502 0.731368 -1.39602 0
M  V30 10253 C 979.727 1.52567 -1.40492 0
M  V30 10254 C 980.152 1.881 -0.00228828 0
M  V30 10255 O 979.51 1.52167 0.985643 0
M  V30 10256 C 979.558 2.78749 -2.2876 0
M  V30 10257 O 978.662 3.7482 -1.71999 0
M  V30 10258 H 978.003 0.460601 -0.478271 0
M  V30 10259 H 980.533 0.902042 -1.83642 0
M  V30 10260 H 980.543 3.27446 -2.43399 0
M  V30 10261 H 979.218 2.5222 -3.30693 0
M  V30 10262 H 977.795 3.33604 -1.66622 0
M  V30 10263 N 979.98 1.24838 0.961938 0
M  V30 10264 C 981.226 1.09313 1.70817 0
M  V30 10265 C 981.559 -0.366244 1.90715 0
M  V30 10266 O 980.834 -1.27036 1.47282 0
M  V30 10267 C 981.117 1.83988 3.09549 0
M  V30 10268 C 980.97 3.3771 2.97106 0
M  V30 10269 C 982.289 1.61718 4.09311 0
M  V30 10270 H 979.408 0.398498 0.619974 0
M  V30 10271 H 982.05 1.53579 1.11864 0
M  V30 10272 H 980.2 1.46363 3.59875 0
M  V30 10273 H 981.872 3.84967 2.54161 0
M  V30 10274 H 980.115 3.65795 2.33187 0
M  V30 10275 H 980.786 3.85166 3.95412 0
M  V30 10276 H 983.262 1.94458 3.67866 0
M  V30 10277 H 982.138 2.16415 5.04436 0
M  V30 10278 H 982.399 0.55677 4.3858 0
M  V30 10279 N 981.458 -1.16348 1.06306 0
M  V30 10280 C 982.683 -1.91323 0.800636 0
M  V30 10281 C 983.108 -1.7691 -0.639105 0
M  V30 10282 O 982.466 -1.0945 -1.44535 0
M  V30 10283 C 982.514 -3.40038 1.20027 0
M  V30 10284 O 981.618 -4.11003 0.339142 0
M  V30 10285 H 980.959 -0.596057 0.292595 0
M  V30 10286 H 983.489 -1.47406 1.41889 0
M  V30 10287 H 983.499 -3.90808 1.17188 0
M  V30 10288 H 982.174 -3.49848 2.24898 0
M  V30 10289 H 980.751 -3.70423 0.42911 0
M  V30 10290 N 982.937 -0.845659 -1.3299 0
M  V30 10291 C 983.887 -0.2557 -2.26562 0
M  V30 10292 C 984.871 0.593245 -1.49564 0
M  V30 10293 O 986.063 0.444101 -1.71338 0
M  V30 10294 C 983.192 0.562573 -3.38659 0
M  V30 10295 C 982.278 -0.298259 -4.2305 0
M  V30 10296 N 982.669 -1.38023 -4.86604 0
M  V30 10297 C 980.967 -0.0864539 -4.45916 0
M  V30 10298 C 981.668 -1.90907 -5.49481 0
M  V30 10299 N 980.644 -1.20955 -5.29973 0
M  V30 10300 H 984.446 -1.083 -2.73219 0
M  V30 10301 H 981.96 -0.690823 -1.46974 0
M  V30 10302 H 983.957 1.00157 -4.0469 0
M  V30 10303 H 982.617 1.38777 -2.93549 0
M  V30 10304 H 983.628 -1.76314 -4.86964 0
M  V30 10305 H 980.305 0.70475 -4.11509 0
M  V30 10306 H 981.695 -2.81552 -6.10064 0
M  V30 10307 N 984.415 1.45619 -0.602734 0
M  V30 10308 C 985.662 2.02272 -0.0960337 0
M  V30 10309 C 985.99 1.47177 1.27159 0
M  V30 10310 O 985.245 0.634593 1.85125 0
M  V30 10311 C 985.544 3.574 -0.00157909 0
M  V30 10312 C 985.21 4.31626 -1.30422 0
M  V30 10313 C 983.872 4.51622 -1.66106 0
M  V30 10314 C 986.224 4.74091 -2.16535 0
M  V30 10315 C 983.552 5.11338 -2.87663 0
M  V30 10316 C 985.904 5.35151 -3.37336 0
M  V30 10317 C 984.568 5.53371 -3.73278 0
M  V30 10318 H 983.838 0.740166 -0.0351412 0
M  V30 10319 H 986.485 1.74744 -0.783382 0
M  V30 10320 H 984.79 3.84179 0.769008 0
M  V30 10321 H 986.487 3.98934 0.406549 0
M  V30 10322 H 983.077 4.16372 -1.01647 0
M  V30 10323 H 987.261 4.5838 -1.90266 0
M  V30 10324 H 982.517 5.23634 -3.15622 0
M  V30 10325 H 986.691 5.67011 -4.04316 0
M  V30 10326 H 984.318 5.99412 -4.67556 0
M  V30 10327 N 985.893 0.34162 1.53853 0
M  V30 10328 C 987.133 -0.255853 2.02792 0
M  V30 10329 C 987.497 -1.47921 1.22407 0
M  V30 10330 O 988.698 -2.15073 1.61236 0
M  V30 10331 C 986.969 -0.564117 3.5292 0
M  V30 10332 S 988.528 -1.13868 4.23768 0
M  V30 10333 H 985.346 -0.0762867 0.706896 0
M  V30 10334 H 987.948 0.478934 1.89543 0
M  V30 10335 H 986.652 0.334098 4.09038 0
M  V30 10336 H 986.183 -1.32862 3.70285 0
M  V30 10337 H 988.198 -2.42451 4.32934 0
M  V30 10338 N 987.371 -1.57444 0.0701946 0
M  V30 10339 C 988.601 -1.97467 -0.607476 0
M  V30 10340 C 989.009 -0.947232 -1.63781 0
M  V30 10341 O 988.352 0.074652 -1.83548 0
M  V30 10342 C 988.414 -3.33795 -1.33495 0
M  V30 10343 C 988.078 -4.54697 -0.458265 0
M  V30 10344 C 989.075 -5.19127 0.283488 0
M  V30 10345 C 986.76 -5.00833 -0.383612 0
M  V30 10346 C 988.754 -6.28043 1.08813 0
M  V30 10347 C 986.441 -6.09622 0.424705 0
M  V30 10348 C 987.439 -6.7309 1.15925 0
M  V30 10349 O 987.127 -7.79785 1.95423 0
M  V30 10350 H 986.859 -0.654405 -0.169501 0
M  V30 10351 H 989.413 -2.04931 0.138651 0
M  V30 10352 H 987.643 -3.22941 -2.12711 0
M  V30 10353 H 989.332 -3.58435 -1.9047 0
M  V30 10354 H 990.098 -4.84428 0.235397 0
M  V30 10355 H 985.977 -4.51211 -0.944968 0
M  V30 10356 H 989.521 -6.77513 1.66197 0
M  V30 10357 H 985.418 -6.43755 0.474366 0
M  V30 10358 H 986.186 -7.96655 1.87838 0
M  V30 10359 N 988.849 0.203349 -1.56283 0
M  V30 10360 C 989.779 1.2549 -1.96912 0
M  V30 10361 C 990.76 1.47919 -0.839884 0
M  V30 10362 O 991.945 1.59795 -1.10359 0
M  V30 10363 C 989.075 2.6009 -2.30153 0
M  V30 10364 C 988.029 2.52289 -3.45738 0
M  V30 10365 C 987.355 3.91086 -3.64632 0
M  V30 10366 C 988.655 2.05503 -4.80173 0
M  V30 10367 H 990.349 0.917306 -2.85002 0
M  V30 10368 H 987.895 0.439818 -1.37119 0
M  V30 10369 H 989.848 3.33829 -2.5717 0
M  V30 10370 H 988.572 2.95574 -1.38937 0
M  V30 10371 H 987.231 1.81006 -3.18798 0
M  V30 10372 H 986.879 4.23908 -2.7076 0
M  V30 10373 H 986.579 3.86742 -4.42385 0
M  V30 10374 H 988.103 4.66459 -3.94016 0
M  V30 10375 H 989.517 2.68995 -5.06275 0
M  V30 10376 H 987.914 2.1218 -5.61337 0
M  V30 10377 H 988.984 1.00793 -4.74309 0
M  V30 10378 N 990.327 1.50405 0.470755 0
M  V30 10379 C 991.257 1.72222 1.57676 0
M  V30 10380 C 992.238 0.57121 1.60222 0
M  V30 10381 O 993.423 0.810381 1.76484 0
M  V30 10382 C 990.553 1.81666 2.95998 0
M  V30 10383 C 989.507 2.96857 3.08318 0
M  V30 10384 C 988.833 2.91445 4.4829 0
M  V30 10385 C 990.133 4.37361 2.85504 0
M  V30 10386 H 991.827 2.64825 1.39671 0
M  V30 10387 H 989.373 1.27438 0.67049 0
M  V30 10388 H 991.326 1.95514 3.73299 0
M  V30 10389 H 990.05 0.856856 3.1516 0
M  V30 10390 H 988.709 2.82661 2.33449 0
M  V30 10391 H 988.357 1.93309 4.64371 0
M  V30 10392 H 988.057 3.68776 4.57469 0
M  V30 10393 H 989.581 3.07341 5.27611 0
M  V30 10394 H 990.995 4.52081 3.52555 0
M  V30 10395 H 989.392 5.16145 3.06127 0
M  V30 10396 H 990.462 4.49708 1.81359 0
M  V30 10397 N 991.805 -0.723954 1.39988 0
M  V30 10398 C 993.035 -1.51094 1.40905 0
M  V30 10399 C 993.443 -1.89199 0.00476744 0
M  V30 10400 O 992.786 -1.55398 -0.979646 0
M  V30 10401 C 992.848 -2.82114 2.22827 0
M  V30 10402 C 992.512 -2.66379 3.71337 0
M  V30 10403 C 993.509 -2.34192 4.64166 0
M  V30 10404 C 991.194 -2.82905 4.15054 0
M  V30 10405 C 993.188 -2.18729 5.98696 0
M  V30 10406 C 990.875 -2.67059 5.49657 0
M  V30 10407 C 991.873 -2.35018 6.41292 0
M  V30 10408 O 991.561 -2.19284 7.73414 0
M  V30 10409 H 991.293 -0.473142 0.482818 0
M  V30 10410 H 993.847 -0.901321 1.84568 0
M  V30 10411 H 992.077 -3.45377 1.7393 0
M  V30 10412 H 993.766 -3.43789 2.15787 0
M  V30 10413 H 994.532 -2.21065 4.31689 0
M  V30 10414 H 990.411 -3.06834 3.44055 0
M  V30 10415 H 993.955 -1.93641 6.70186 0
M  V30 10416 H 989.852 -2.79768 5.81722 0
M  V30 10417 H 990.62 -2.34269 7.84258 0
M  V30 10418 N 993.283 -1.25346 -0.955304 0
M  V30 10419 C 994.23 -1.05672 -2.05188 0
M  V30 10420 C 995.2 0.0339217 -1.66065 0
M  V30 10421 O 996.385 -0.123126 -1.90402 0
M  V30 10422 C 993.525 -0.680791 -3.38318 0
M  V30 10423 C 992.638 -1.84622 -3.90562 0
M  V30 10424 C 991.773 -1.41471 -5.12015 0
M  V30 10425 C 990.812 -2.54931 -5.56486 0
M  V30 10426 N 989.949 -2.1256 -6.69151 0
M  V30 10427 H 994.789 -1.9952 -2.2135 0
M  V30 10428 H 992.326 -0.993588 -1.08472 0
M  V30 10429 H 994.284 -0.443794 -4.14833 0
M  V30 10430 H 992.914 0.2207 -3.22045 0
M  V30 10431 H 991.966 -2.19654 -3.10574 0
M  V30 10432 H 993.278 -2.6983 -4.19515 0
M  V30 10433 H 992.432 -1.13732 -5.95945 0
M  V30 10434 H 991.171 -0.533334 -4.84775 0
M  V30 10435 H 990.176 -2.83415 -4.71122 0
M  V30 10436 H 991.401 -3.43645 -5.85734 0
M  V30 10437 H 989.347 -1.26838 -6.43621 0
M  V30 10438 H 989.264 -2.91317 -6.97618 0
M  V30 10439 H 990.532 -1.87996 -7.5649 0
M  V30 10440 N 994.761 1.15782 -1.06922 0
M  V30 10441 C 995.709 2.22441 -0.679893 0
M  V30 10442 C 996.703 1.66591 0.307221 0
M  V30 10443 O 997.909 1.79182 0.171402 0
M  V30 10444 H 994.284 0.724427 -0.201765 0
M  V30 10445 H 996.255 2.52562 -1.58918 0
M  V30 10446 C 995.004 3.47586 -0.0891142 0
M  V30 10447 H 994.327 3.9088 -0.839805 0
M  V30 10448 H 995.767 4.2375 0.14569 0
M  V30 10449 C 994.226 3.15967 1.16903 0
M  V30 10450 O 994.756 3.32359 2.25611 0
M  V30 10451 N 992.962 2.70046 1.07349 0
M  V30 10452 H 992.509 2.56907 0.188825 0
M  V30 10453 H 992.467 2.49264 1.91611 0
M  V30 10454 N 996.239 0.8527 1.3254 0
M  V30 10455 C 997.169 0.311234 2.31416 0
M  V30 10456 C 998.15 -0.588557 1.59593 0
M  V30 10457 O 999.335 -0.509211 1.87405 0
M  V30 10458 C 996.465 -0.502892 3.4364 0
M  V30 10459 C 995.419 0.302296 4.26931 0
M  V30 10460 C 994.745 -0.636445 5.30899 0
M  V30 10461 C 996.045 1.52697 4.99481 0
M  V30 10462 H 997.739 1.13742 2.76953 0
M  V30 10463 H 995.285 0.548389 1.33149 0
M  V30 10464 H 997.238 -0.892092 4.11849 0
M  V30 10465 H 995.962 -1.36242 2.96826 0
M  V30 10466 H 994.621 0.673226 3.60365 0
M  V30 10467 H 994.269 -1.49277 4.80339 0
M  V30 10468 H 993.969 -0.101716 5.87512 0
M  V30 10469 H 995.493 -1.02286 6.01972 0
M  V30 10470 H 996.907 1.21017 5.60382 0
M  V30 10471 H 995.304 1.9995 5.65809 0
M  V30 10472 H 996.374 2.28929 4.27457 0
M  V30 10473 N 997.718 -1.45297 0.610449 0
M  V30 10474 C 998.628 -2.34349 -0.108475 0
M  V30 10475 C 999.644 -1.51409 -0.857397 0
M  V30 10476 O 1000.82 -1.84202 -0.814337 0
M  V30 10477 C 997.885 -3.29072 -1.09144 0
M  V30 10478 C 996.946 -4.27918 -0.344165 0
M  V30 10479 C 996.179 -5.18116 -1.28031 0
M  V30 10480 O 996.402 -5.11802 -2.51824 0
M  V30 10481 O 995.336 -5.96879 -0.775821 0
M  V30 10482 H 999.162 -2.97232 0.623421 0
M  V30 10483 H 996.747 -1.44728 0.3707 0
M  V30 10484 H 998.629 -3.87433 -1.65751 0
M  V30 10485 H 997.304 -2.68749 -1.80431 0
M  V30 10486 H 996.211 -3.73164 0.264437 0
M  V30 10487 H 997.544 -4.91104 0.328275 0
M  V30 10488 N 999.196 -0.349774 -1.5367 0
M  V30 10489 C 1000.13 0.496338 -2.28164 0
M  V30 10490 C 1001.11 1.09737 -1.29968 0
M  V30 10491 O 1002.29 1.11759 -1.58819 0
M  V30 10492 C 999.422 1.64428 -3.0591 0
M  V30 10493 C 998.376 1.17127 -4.11661 0
M  V30 10494 C 997.702 2.40822 -4.77398 0
M  V30 10495 C 999.002 0.267293 -5.21616 0
M  V30 10496 H 1000.7 -0.125117 -2.99138 0
M  V30 10497 H 998.242 -0.0616152 -1.43868 0
M  V30 10498 H 1000.19 2.2427 -3.56765 0
M  V30 10499 H 998.919 2.29272 -2.32598 0
M  V30 10500 H 997.578 0.595634 -3.61729 0
M  V30 10501 H 997.226 3.04088 -4.00674 0
M  V30 10502 H 996.926 2.09852 -5.48849 0
M  V30 10503 H 998.45 3.01378 -5.3104 0
M  V30 10504 H 999.864 0.772734 -5.68068 0
M  V30 10505 H 998.261 0.0491991 -6.0008 0
M  V30 10506 H 999.331 -0.694892 -4.79895 0
M  V30 10507 N 1000.67 1.57404 -0.0785433 0
M  V30 10508 C 1001.9 1.98074 0.597862 0
M  V30 10509 C 1002.32 0.95714 1.6274 0
M  V30 10510 O 1001.67 -0.0553728 1.82416 0
M  V30 10511 C 1001.72 3.38815 1.26041 0
M  V30 10512 O 1001.45 4.37254 0.27207 0
M  V30 10513 C 1002.95 3.94397 2.024 0
M  V30 10514 H 1000.17 0.651263 0.161546 0
M  V30 10515 H 1002.71 2.03927 -0.152941 0
M  V30 10516 H 1000.87 3.34028 1.96225 0
M  V30 10517 H 1001.28 5.19136 0.74822 0
M  V30 10518 H 1002.75 4.95075 2.4414 0
M  V30 10519 H 1003.23 3.31308 2.88326 0
M  V30 10520 H 1003.84 4.02607 1.37068 0
M  V30 10521 N 1002.15 -0.195058 1.56388 0
M  V30 10522 C 1003.1 -1.26122 1.95438 0
M  V30 10523 C 1004.09 -1.47117 0.839818 0
M  V30 10524 O 1005.3 -1.47978 1.02482 0
M  V30 10525 H 1001.67 -0.423422 0.621464 0
M  V30 10526 H 1003.65 -0.904854 2.8435 0
M  V30 10527 C 1002.39 -2.59858 2.31017 0
M  V30 10528 H 1001.72 -2.44519 3.16308 0
M  V30 10529 H 1003.16 -3.33205 2.62203 0
M  V30 10530 C 1001.62 -3.16853 1.14481 0
M  V30 10531 O 1002.15 -3.995 0.419853 0
M  V30 10532 N 1000.35 -2.75599 0.921604 0
M  V30 10533 H 999.9 -2.08495 1.51287 0
M  V30 10534 H 999.858 -3.14072 0.143663 0
M  V30 10535 N 1003.63 -1.50653 -0.462772 0
M  V30 10536 C 1004.86 -1.65586 -1.23551 0
M  V30 10537 C 1005.27 -0.342012 -1.86083 0
M  V30 10538 O 1004.61 0.686893 -1.70374 0
M  V30 10539 C 1004.67 -2.69555 -2.37867 0
M  V30 10540 C 1004.34 -4.1288 -1.95906 0
M  V30 10541 C 1005.33 -4.98483 -1.47685 0
M  V30 10542 C 1003.02 -4.58843 -2.04373 0
M  V30 10543 C 1005.01 -6.281 -1.08484 0
M  V30 10544 C 1002.7 -5.88464 -1.64783 0
M  V30 10545 C 1003.7 -6.72918 -1.16918 0
M  V30 10546 O 1003.39 -8.00119 -0.778798 0
M  V30 10547 H 1003.12 -0.559438 -0.37948 0
M  V30 10548 H 1005.67 -1.9768 -0.557816 0
M  V30 10549 H 1003.9 -2.3272 -3.08834 0
M  V30 10550 H 1005.59 -2.73624 -2.99808 0
M  V30 10551 H 1006.36 -4.64186 -1.40558 0
M  V30 10552 H 1002.24 -3.93247 -2.40577 0
M  V30 10553 H 1005.78 -6.93972 -0.710524 0
M  V30 10554 H 1001.68 -6.22281 -1.71571 0
M  V30 10555 H 1002.44 -8.1346 -0.906911 0
M  V30 10556 N 1005.11 0.71652 -1.4037 0
M  V30 10557 C 1006.04 1.84345 -1.43315 0
M  V30 10558 C 1007.02 1.67537 -0.294186 0
M  V30 10559 O 1008.2 1.87582 -0.502671 0
M  V30 10560 C 1005.33 3.2229 -1.29408 0
M  V30 10561 C 1004.29 3.53769 -2.40897 0
M  V30 10562 C 1003.61 4.90847 -2.12068 0
M  V30 10563 C 1004.91 3.54862 -3.83237 0
M  V30 10564 H 1006.61 1.82138 -2.37626 0
M  V30 10565 H 1004.15 0.874873 -1.14376 0
M  V30 10566 H 1006.11 4.00819 -1.30085 0
M  V30 10567 H 1004.83 3.2507 -0.31573 0
M  V30 10568 H 1003.49 2.77579 -2.39469 0
M  V30 10569 H 1003.14 4.90229 -1.12626 0
M  V30 10570 H 1002.84 5.12875 -2.86762 0
M  V30 10571 H 1004.36 5.71711 -2.14426 0
M  V30 10572 H 1005.78 4.23432 -3.86494 0
M  V30 10573 H 1004.17 3.88416 -4.57442 0
M  V30 10574 H 1005.24 2.54266 -4.12888 0
M  V30 10575 N 1006.59 1.25851 0.948643 0
M  V30 10576 C 1007.5 1.08516 2.07994 0
M  V30 10577 C 1008.51 0.0206696 1.73988 0
M  V30 10578 O 1009.69 0.222854 2.00163 0
M  V30 10579 C 1006.75 0.712145 3.39307 0
M  V30 10580 C 1005.81 1.85523 3.87143 0
M  V30 10581 C 1005.05 1.49992 5.1219 0
M  V30 10582 O 1005.27 0.398268 5.69008 0
M  V30 10583 O 1004.2 2.33215 5.54882 0
M  V30 10584 H 1008.03 2.03405 2.25522 0
M  V30 10585 H 1005.62 1.04844 1.06433 0
M  V30 10586 H 1007.5 0.516512 4.18223 0
M  V30 10587 H 1006.17 -0.207416 3.23035 0
M  V30 10588 H 1005.08 2.10578 3.09205 0
M  V30 10589 H 1006.41 2.75425 4.07924 0
M  V30 10590 N 1008.06 -1.15214 1.07534 0
M  V30 10591 C 1009.34 -1.82155 0.71267 0
M  V30 10592 C 1009.72 -1.95163 -0.804655 0
M  V30 10593 O 1009.07 -1.50451 -1.71979 0
M  V30 10594 C 1009.28 -3.18392 1.42925 0
M  V30 10595 C 1010.63 -3.94005 1.58256 0
M  V30 10596 O 1011.65 -3.27952 1.39018 0
M  V30 10597 O 1010.51 -5.12436 1.89925 0
M  V30 10598 H 1007.6 -0.78709 0.253808 0
M  V30 10599 H 1010.15 -1.22309 1.17638 0
M  V30 10600 H 1008.92 -3.04034 2.46331 0
M  V30 10601 H 1008.55 -3.85925 0.956439 0
M  V30 10602 N 1009.54 -0.859717 -1.32086 0
M  V30 10603 C 1010.79 -0.461779 -1.96343 0
M  V30 10604 C 1011.1 0.988837 -1.68764 0
M  V30 10605 O 1012.31 1.49244 -2.268 0
M  V30 10606 C 1010.77 -0.77484 -3.5146 0
M  V30 10607 C 1010.37 -2.24153 -3.87891 0
M  V30 10608 C 1012.12 -0.444873 -4.22162 0
M  V30 10609 C 1010.03 -2.49754 -5.36075 0
M  V30 10610 H 1008.96 -0.168951 -0.734828 0
M  V30 10611 H 1011.61 -1.0512 -1.50406 0
M  V30 10612 H 1009.99 -0.114792 -3.95834 0
M  V30 10613 H 1011.16 -2.94378 -3.54511 0
M  V30 10614 H 1009.48 -2.53651 -3.30227 0
M  V30 10615 H 1012.07 -0.613508 -5.31169 0
M  V30 10616 H 1012.42 0.61391 -4.11749 0
M  V30 10617 H 1012.95 -1.06103 -3.83389 0
M  V30 10618 H 1009.69 -3.54276 -5.51515 0
M  V30 10619 H 1009.21 -1.84112 -5.70844 0
M  V30 10620 H 1010.89 -2.3396 -6.03218 0
M  V30 10621 N 1011.02 1.44971 -0.618145 0
M  V30 10622 C 1011.93 2.34403 0.0960457 0
M  V30 10623 C 1012.95 1.51862 0.849355 0
M  V30 10624 O 1014.12 1.84632 0.804557 0
M  V30 10625 C 1011.19 3.29646 1.07397 0
M  V30 10626 C 1010.25 4.28095 0.321466 0
M  V30 10627 C 1009.48 5.18787 1.25281 0
M  V30 10628 O 1009.7 5.1313 2.49106 0
M  V30 10629 O 1008.64 5.97282 0.744156 0
M  V30 10630 H 1012.46 2.96898 -0.639176 0
M  V30 10631 H 1010.05 1.44529 -0.37837 0
M  V30 10632 H 1011.93 3.88307 1.63694 0
M  V30 10633 H 1010.61 2.69702 1.79004 0
M  V30 10634 H 1009.51 3.73019 -0.284223 0
M  V30 10635 H 1010.85 4.90923 -0.354315 0
M  V30 10636 N 1012.5 0.357919 1.53482 0
M  V30 10637 C 1013.75 -0.235241 2.00324 0
M  V30 10638 C 1014.06 -1.50494 1.24944 0
M  V30 10639 O 1015.27 -2.17623 1.62335 0
M  V30 10640 C 1013.72 -0.469748 3.56821 0
M  V30 10641 C 1013.33 0.784877 4.41071 0
M  V30 10642 C 1015.07 -1.02098 4.12039 0
M  V30 10643 C 1012.98 0.520377 5.89106 0
M  V30 10644 H 1011.91 -0.0916816 0.748405 0
M  V30 10645 H 1014.56 0.475474 1.77233 0
M  V30 10646 H 1012.94 -1.24153 3.76035 0
M  V30 10647 H 1014.12 1.55886 4.33631 0
M  V30 10648 H 1012.43 1.25878 3.96918 0
M  V30 10649 H 1015.03 -1.23406 5.20264 0
M  V30 10650 H 1015.37 -1.98084 3.66154 0
M  V30 10651 H 1015.91 -0.309554 3.96594 0
M  V30 10652 H 1012.65 1.45035 6.39254 0
M  V30 10653 H 1012.17 -0.215254 5.99414 0
M  V30 10654 H 1013.84 0.143006 6.46842 0
M  V30 10655 N 1013.98 -1.5736 0.0868897 0
M  V30 10656 C 1015.22 -1.94054 -0.578741 0
M  V30 10657 C 1015.55 -0.968047 -1.68698 0
M  V30 10658 O 1014.81 0.0137824 -1.95695 0
M  V30 10659 C 1015.11 -3.37316 -1.18123 0
M  V30 10660 C 1014.77 -4.50467 -0.197607 0
M  V30 10661 C 1013.43 -4.81145 0.072952 0
M  V30 10662 C 1015.79 -5.19036 0.474473 0
M  V30 10663 C 1013.11 -5.77723 1.02242 0
M  V30 10664 C 1015.47 -6.16632 1.41236 0
M  V30 10665 C 1014.13 -6.45719 1.69124 0
M  V30 10666 H 1013.4 -0.710093 -0.211776 0
M  V30 10667 H 1016.05 -1.90822 0.160978 0
M  V30 10668 H 1014.35 -3.37085 -1.99701 0
M  V30 10669 H 1016.05 -3.63003 -1.7038 0
M  V30 10670 H 1012.64 -4.2655 -0.418669 0
M  V30 10671 H 1016.82 -4.95518 0.278581 0
M  V30 10672 H 1012.08 -5.98578 1.24557 0
M  V30 10673 H 1016.25 -6.68862 1.939 0
M  V30 10674 H 1013.88 -7.20365 2.42855 0
M  V30 10675 N 1015.45 0.186762 -1.56489 0
M  V30 10676 C 1016.42 1.21511 -1.94339 0
M  V30 10677 C 1017.42 1.38001 -0.82537 0
M  V30 10678 O 1018.61 1.3567 -1.09266 0
M  V30 10679 C 1015.74 2.583 -2.22472 0
M  V30 10680 H 1016.93 0.891371 -2.86347 0
M  V30 10681 H 1014.49 0.428612 -1.50308 0
M  V30 10682 H 1015.22 2.95715 -1.33129 0
M  V30 10683 H 1015.01 2.47701 -3.03951 0
M  V30 10684 H 1016.5 3.32441 -2.5273 0
M  V30 10685 N 1016.93 1.50896 0.454776 0
M  V30 10686 C 1017.86 1.73885 1.5584 0
M  V30 10687 C 1018.84 0.588172 1.59607 0
M  V30 10688 O 1020.03 0.829054 1.75614 0
M  V30 10689 C 1017.16 1.84796 2.94054 0
M  V30 10690 C 1016.11 3.00111 3.05152 0
M  V30 10691 C 1015.44 2.96183 4.45174 0
M  V30 10692 C 1016.74 4.40365 2.80849 0
M  V30 10693 H 1018.43 2.66292 1.36854 0
M  V30 10694 H 1015.98 1.28142 0.656936 0
M  V30 10695 H 1017.93 1.99462 3.71204 0
M  V30 10696 H 1016.66 0.890235 3.14233 0
M  V30 10697 H 1015.31 2.85121 2.30438 0
M  V30 10698 H 1014.96 1.98224 4.62295 0
M  V30 10699 H 1014.66 3.73608 4.53532 0
M  V30 10700 H 1016.19 3.1292 5.24322 0
M  V30 10701 H 1017.6 4.55795 3.47741 0
M  V30 10702 H 1016 5.19363 3.00636 0
M  V30 10703 H 1017.07 4.51606 1.76579 0
M  V30 10704 N 1018.41 -0.709066 1.40748 0
M  V30 10705 C 1019.66 -1.46901 1.39378 0
M  V30 10706 C 1019.99 -1.945 -0.0016993 0
M  V30 10707 O 1019.24 -1.68963 -0.987426 0
M  V30 10708 C 1019.54 -2.70543 2.33541 0
M  V30 10709 C 1019.21 -2.41674 3.80663 0
M  V30 10710 C 1017.87 -2.33511 4.20745 0
M  V30 10711 C 1020.22 -2.1759 4.73607 0
M  V30 10712 C 1017.55 -1.99342 5.51797 0
M  V30 10713 C 1019.9 -1.84933 6.04965 0
M  V30 10714 C 1018.56 -1.75256 6.44082 0
M  V30 10715 H 1017.83 -0.537549 0.510021 0
M  V30 10716 H 1020.48 -0.811635 1.7345 0
M  V30 10717 H 1018.79 -3.41149 1.92677 0
M  V30 10718 H 1020.48 -3.2865 2.29761 0
M  V30 10719 H 1017.07 -2.48917 3.4891 0
M  V30 10720 H 1021.26 -2.22849 4.43454 0
M  V30 10721 H 1016.51 -1.90392 5.81 0
M  V30 10722 H 1020.69 -1.65313 6.76494 0
M  V30 10723 H 1018.31 -1.48547 7.45545 0
M  V30 10724 N 1019.89 -1.26353 -0.941956 0
M  V30 10725 C 1021.14 -1.11241 -1.68251 0
M  V30 10726 C 1021.45 0.344055 -1.9255 0
M  V30 10727 O 1022.66 0.615832 -2.64423 0
M  V30 10728 C 1021.11 -1.94269 -3.02965 0
M  V30 10729 C 1020.72 -3.44485 -2.86415 0
M  V30 10730 C 1022.47 -1.87764 -3.80716 0
M  V30 10731 C 1020.37 -4.19763 -4.16597 0
M  V30 10732 H 1019.3 -0.412694 -0.63103 0
M  V30 10733 H 1021.95 -1.50656 -1.04762 0
M  V30 10734 H 1020.34 -1.47687 -3.6743 0
M  V30 10735 H 1021.51 -3.9883 -2.30805 0
M  V30 10736 H 1019.82 -3.52218 -2.22107 0
M  V30 10737 H 1022.42 -2.41292 -4.77161 0
M  V30 10738 H 1022.76 -0.848195 -4.07568 0
M  V30 10739 H 1023.3 -2.32165 -3.23024 0
M  V30 10740 H 1020.04 -5.23173 -3.9493 0
M  V30 10741 H 1019.56 -3.70198 -4.71925 0
M  V30 10742 H 1021.24 -4.28168 -4.85058 0
M  V30 10743 N 1021.37 1.14642 -1.08144 0
M  V30 10744 C 1022.59 1.90025 -0.830972 0
M  V30 10745 C 1023.02 1.77904 0.610879 0
M  V30 10746 O 1022.38 1.11735 1.42776 0
M  V30 10747 C 1022.42 3.38085 -1.25422 0
M  V30 10748 O 1021.53 4.10412 -0.404486 0
M  V30 10749 H 1020.87 0.591327 -0.302041 0
M  V30 10750 H 1023.4 1.4513 -1.44216 0
M  V30 10751 H 1023.41 3.88894 -1.23391 0
M  V30 10752 H 1022.08 3.46226 -2.30435 0
M  V30 10753 H 1020.66 3.69693 -0.487987 0
M  V30 10754 N 1022.85 0.866709 1.31628 0
M  V30 10755 C 1024.09 0.482479 1.98624 0
M  V30 10756 C 1024.45 -0.946844 1.6703 0
M  V30 10757 O 1025.65 -1.43626 2.27212 0
M  V30 10758 C 1023.92 0.728582 3.49895 0
M  V30 10759 S 1025.48 0.443724 4.36551 0
M  V30 10760 H 1022.3 0.180238 0.687776 0
M  V30 10761 H 1024.9 1.12203 1.60096 0
M  V30 10762 H 1023.6 1.76769 3.70379 0
M  V30 10763 H 1023.14 0.075903 3.93327 0
M  V30 10764 H 1025.15 -0.72534 4.9087 0
M  V30 10765 N 1024.32 -1.44642 0.625825 0
M  V30 10766 C 1025.26 -2.27821 -0.131481 0
M  V30 10767 C 1026.23 -1.38224 -0.856324 0
M  V30 10768 O 1027.42 -1.67662 -0.861493 0
M  V30 10769 C 1024.55 -3.1703 -1.19204 0
M  V30 10770 C 1023.59 -4.22697 -0.568315 0
M  V30 10771 S 1024.42 -5.3169 0.637612 0
M  V30 10772 C 1025.58 -6.24468 -0.423088 0
M  V30 10773 H 1025.81 -2.91703 0.574177 0
M  V30 10774 H 1023.35 -1.4875 0.413844 0
M  V30 10775 H 1025.3 -3.6898 -1.79901 0
M  V30 10776 H 1023.97 -2.52379 -1.86986 0
M  V30 10777 H 1023.16 -4.8511 -1.36689 0
M  V30 10778 H 1022.76 -3.73983 -0.0360843 0
M  V30 10779 H 1025.05 -6.64967 -1.29713 0
M  V30 10780 H 1026 -7.07907 0.165338 0
M  V30 10781 H 1026.4 -5.59541 -0.746606 0
M  V30 10782 N 1025.8 -0.366053 -1.5329 0
M  V30 10783 C 1027.04 0.223558 -2.03174 0
M  V30 10784 C 1027.41 1.45955 -1.24745 0
M  V30 10785 O 1028.61 2.12481 -1.64637 0
M  V30 10786 C 1026.88 0.507899 -3.53773 0
M  V30 10787 S 1028.44 1.07111 -4.25526 0
M  V30 10788 H 1025.25 0.0650309 -0.70802 0
M  V30 10789 H 1027.86 -0.509028 -1.88757 0
M  V30 10790 H 1026.56 -0.39913 -4.08455 0
M  V30 10791 H 1026.09 1.26954 -3.72352 0
M  V30 10792 H 1028.11 2.35533 -4.36737 0
M  V30 10793 N 1027.28 1.57312 -0.0952337 0
M  V30 10794 C 1028.23 2.10571 0.87428 0
M  V30 10795 C 1029.21 1.02079 1.24374 0
M  V30 10796 O 1030.41 1.28353 1.2188 0
M  V30 10797 C 1027.53 2.68972 2.13329 0
M  V30 10798 C 1026.62 3.84508 1.78926 0
M  V30 10799 N 1027.01 4.92534 1.15082 0
M  V30 10800 C 1025.31 3.94245 2.08535 0
M  V30 10801 C 1026.01 5.73163 0.992937 0
M  V30 10802 N 1024.99 5.22198 1.51029 0
M  V30 10803 H 1028.79 2.91476 0.376727 0
M  V30 10804 H 1026.3 1.62041 0.107974 0
M  V30 10805 H 1028.3 3.05457 2.83728 0
M  V30 10806 H 1026.96 1.89523 2.6365 0
M  V30 10807 H 1027.97 5.11405 0.817621 0
M  V30 10808 H 1024.65 3.25805 2.61069 0
M  V30 10809 H 1026.04 6.70084 0.493641 0
M  V30 10810 N 1028.76 -0.17846 1.56586 0
M  V30 10811 C 1030.03 -0.923096 1.72448 0
M  V30 10812 C 1030.41 -2.00692 0.654659 0
M  V30 10813 O 1029.76 -2.26079 -0.33171 0
M  V30 10814 C 1029.97 -1.49435 3.15389 0
M  V30 10815 C 1031.32 -1.97005 3.76131 0
M  V30 10816 O 1032.34 -1.59244 3.18622 0
M  V30 10817 O 1031.2 -2.66541 4.77094 0
M  V30 10818 H 1028.3 -0.434009 0.703964 0
M  V30 10819 H 1030.84 -0.16685 1.68878 0
M  V30 10820 H 1029.62 -0.713933 3.84732 0
M  V30 10821 H 1029.24 -2.31498 3.23256 0
M  V30 10822 N 1030.24 -1.51135 -0.446768 0
M  V30 10823 C 1031.17 -1.74709 -1.54916 0
M  V30 10824 C 1032.15 -0.596628 -1.59293 0
M  V30 10825 O 1033.33 -0.838356 -1.75172 0
M  V30 10826 C 1030.46 -1.86353 -2.9307 0
M  V30 10827 C 1029.42 -3.01725 -3.03556 0
M  V30 10828 C 1028.74 -2.9854 -4.43597 0
M  V30 10829 C 1030.04 -4.41848 -2.7851 0
M  V30 10830 H 1031.74 -2.67014 -1.3544 0
M  V30 10831 H 1029.28 -1.28489 -0.650131 0
M  V30 10832 H 1031.23 -2.01428 -3.70141 0
M  V30 10833 H 1029.96 -0.906887 -3.13756 0
M  V30 10834 H 1028.62 -2.86339 -2.28922 0
M  V30 10835 H 1028.27 -2.00673 -4.61237 0
M  V30 10836 H 1027.97 -3.76008 -4.51544 0
M  V30 10837 H 1029.49 -3.15696 -5.22655 0
M  V30 10838 H 1030.9 -4.57633 -3.45319 0
M  V30 10839 H 1029.3 -5.2095 -2.97877 0
M  V30 10840 H 1030.37 -4.52536 -1.74182 0
M  V30 10841 N 1031.71 0.701592 -1.41122 0
M  V30 10842 C 1032.99 1.45569 -1.30648 0
M  V30 10843 C 1033.37 2.10988 0.068744 0
M  V30 10844 O 1032.72 2.01228 1.08257 0
M  V30 10845 C 1032.93 2.48003 -2.45551 0
M  V30 10846 C 1034.28 3.13431 -2.86437 0
M  V30 10847 O 1035.3 2.58327 -2.45247 0
M  V30 10848 O 1034.16 4.13221 -3.57646 0
M  V30 10849 H 1031.25 0.648 -0.513834 0
M  V30 10850 H 1033.8 0.73258 -1.53073 0
M  V30 10851 H 1032.57 1.98276 -3.37346 0
M  V30 10852 H 1032.19 3.27832 -2.24971 0
M  V30 10853 N 1033.19 1.2685 0.935242 0
M  V30 10854 C 1034.14 1.05586 2.02078 0
M  V30 10855 C 1035.13 -0.013699 1.60894 0
M  V30 10856 O 1036.32 0.203956 1.75821 0
M  V30 10857 C 1033.45 0.697118 3.36148 0
M  V30 10858 C 1032.53 1.80444 3.83798 0
M  V30 10859 N 1032.92 3.04283 4.04037 0
M  V30 10860 C 1031.22 1.68939 4.12766 0
M  V30 10861 C 1031.92 3.7629 4.436 0
M  V30 10862 N 1030.9 3.04011 4.50642 0
M  V30 10863 H 1034.7 1.99577 2.15746 0
M  V30 10864 H 1032.21 1.17455 1.12153 0
M  V30 10865 H 1034.21 0.525915 4.1357 0
M  V30 10866 H 1032.87 -0.235247 3.23847 0
M  V30 10867 H 1033.88 3.40125 3.90558 0
M  V30 10868 H 1030.56 0.827341 4.0922 0
M  V30 10869 H 1031.95 4.82687 4.67401 0
M  V30 10870 N 1034.67 -1.14067 1.0875 0
M  V30 10871 C 1036.09 -1.37173 0.815823 0
M  V30 10872 C 1036.29 -1.93175 -0.573215 0
M  V30 10873 O 1035.34 -2.14672 -1.32937 0
M  V30 10874 C 1036.66 -2.32955 1.90138 0
M  V30 10875 C 1038.2 -2.46586 1.9278 0
M  V30 10876 C 1038.68 -3.4567 3.0046 0
M  V30 10877 N 1040.17 -3.53216 2.99655 0
M  V30 10878 C 1040.9 -4.29743 3.79616 0
M  V30 10879 N 1040.4 -5.09484 4.69466 0
M  V30 10880 N 1042.19 -4.24975 3.67903 0
M  V30 10881 H 1034.34 -0.760648 1.98313 0
M  V30 10882 H 1036.61 -0.397135 0.860807 0
M  V30 10883 H 1036.31 -1.98949 2.90021 0
M  V30 10884 H 1036.19 -3.32897 1.77368 0
M  V30 10885 H 1038.57 -2.79882 0.935404 0
M  V30 10886 H 1038.66 -1.46593 2.09629 0
M  V30 10887 H 1038.3 -3.13106 3.99909 0
M  V30 10888 H 1038.23 -4.45452 2.80856 0
M  V30 10889 H 1040.72 -2.96314 2.34535 0
M  V30 10890 H 1041.03 -5.65163 5.27077 0
M  V30 10891 H 1039.38 -5.08741 4.73506 0
M  V30 10892 H 1042.57 -3.61751 2.97075 0
M  V30 10893 H 1042.74 -4.84364 4.30459 0
M  V30 10894 N 1036.15 -0.873678 -1.31166 0
M  V30 10895 C 1037.4 -0.485497 -1.96182 0
M  V30 10896 C 1037.72 0.96621 -1.69379 0
M  V30 10897 O 1036.99 1.67783 -1.01121 0
M  V30 10898 H 1035.57 -0.176547 -0.725838 0
M  V30 10899 H 1038.23 -1.11428 -1.59906 0
M  V30 10900 H 1037.33 -0.646325 -3.05334 0
M  V30 10901 N 1037.63 1.44308 -0.633487 0
M  V30 10902 C 1038.85 2.06384 -0.146063 0
M  V30 10903 C 1039.27 1.47357 1.18031 0
M  V30 10904 O 1038.63 0.597334 1.72448 0
M  V30 10905 C 1038.68 3.61489 -0.0276722 0
M  V30 10906 O 1038.4 4.18318 -1.3016 0
M  V30 10907 C 1039.9 4.40604 0.488168 0
M  V30 10908 H 1037.12 0.666122 -0.0807632 0
M  V30 10909 H 1039.66 1.85139 -0.868557 0
M  V30 10910 H 1037.82 3.81988 0.645273 0
M  V30 10911 H 1038.23 5.11783 -1.14797 0
M  V30 10912 H 1039.71 5.49545 0.520013 0
M  V30 10913 H 1040.18 4.12218 1.51568 0
M  V30 10914 H 1040.79 4.2503 -0.151608 0
M  V30 10915 N 1039.1 0.374177 1.53094 0
M  V30 10916 C 1040.05 -0.48326 2.27524 0
M  V30 10917 C 1041.05 -1.07606 1.30833 0
M  V30 10918 O 1042.25 -1.01827 1.48429 0
M  V30 10919 H 1038.63 -0.174578 0.731455 0
M  V30 10920 H 1040.6 0.166156 2.97937 0
M  V30 10921 C 1039.35 -1.6065 3.08362 0
M  V30 10922 H 1038.67 -1.15966 3.82612 0
M  V30 10923 H 1040.11 -2.18099 3.63606 0
M  V30 10924 C 1038.57 -2.55381 2.19732 0
M  V30 10925 O 1039.1 -3.58414 1.8139 0
M  V30 10926 N 1037.31 -2.24769 1.84194 0
M  V30 10927 H 1036.85 -1.41018 2.15573 0
M  V30 10928 H 1036.81 -2.88404 1.25181 0
M  V30 10929 N 1040.58 -1.57259 0.103575 0
M  V30 10930 C 1041.53 -2.15727 -0.869739 0
M  V30 10931 C 1042.52 -1.10236 -1.28625 0
M  V30 10932 O 1043.73 -1.28567 -1.25979 0
M  V30 10933 H 1040.11 -0.690204 -0.298535 0
M  V30 10934 H 1042.08 -2.96317 -0.351984 0
M  V30 10935 C 1040.83 -2.75905 -2.11593 0
M  V30 10936 H 1040.15 -3.56768 -1.80434 0
M  V30 10937 H 1041.59 -3.20373 -2.77736 0
M  V30 10938 C 1040.05 -1.72218 -2.89556 0
M  V30 10939 O 1040.58 -1.16623 -3.84398 0
M  V30 10940 N 1038.78 -1.42514 -2.53255 0
M  V30 10941 H 1038.33 -1.87914 -1.76198 0
M  V30 10942 H 1038.29 -0.733782 -3.05717 0
M  V30 10943 N 1042.06 0.170153 -1.56679 0
M  V30 10944 C 1043.29 0.90618 -1.86556 0
M  V30 10945 C 1043.71 1.74986 -0.690044 0
M  V30 10946 O 1043.07 1.77672 0.360862 0
M  V30 10947 C 1043.12 1.75777 -3.14857 0
M  V30 10948 O 1042.22 2.85952 -2.97162 0
M  V30 10949 H 1041.56 0.253781 -0.613589 0
M  V30 10950 H 1044.09 0.167943 -2.0391 0
M  V30 10951 H 1044.1 2.15747 -3.46291 0
M  V30 10952 H 1042.78 1.13807 -4.00026 0
M  V30 10953 H 1041.35 2.49557 -2.77084 0
M  V30 10954 N 1043.54 1.5137 0.438746 0
M  V30 10955 C 1044.79 1.63969 1.1883 0
M  V30 10956 C 1045.11 0.355245 1.91228 0
M  V30 10957 O 1044.37 -0.660605 1.84213 0
M  V30 10958 C 1044.67 2.79221 2.23093 0
M  V30 10959 C 1044.33 4.18547 1.67717 0
M  V30 10960 C 1043 4.5645 1.52337 0
M  V30 10961 C 1045.35 5.05494 1.26986 0
M  V30 10962 C 1042.68 5.79007 0.946996 0
M  V30 10963 C 1045.03 6.28628 0.707785 0
M  V30 10964 C 1043.69 6.65305 0.540881 0
M  V30 10965 H 1042.96 0.600003 0.43483 0
M  V30 10966 H 1045.61 1.85398 0.479565 0
M  V30 10967 H 1043.91 2.52008 2.99999 0
M  V30 10968 H 1045.61 2.86168 2.80907 0
M  V30 10969 H 1042.2 3.88663 1.80663 0
M  V30 10970 H 1046.38 4.76818 1.37689 0
M  V30 10971 H 1041.64 6.06072 0.805432 0
M  V30 10972 H 1045.81 6.95342 0.38366 0
M  V30 10973 H 1043.44 7.60144 0.0921324 0
M  V30 10974 N 1045.02 -0.694098 1.41492 0
M  V30 10975 C 1045.95 -1.81943 1.39389 0
M  V30 10976 C 1046.96 -1.6009 0.295836 0
M  V30 10977 O 1048.15 -1.69565 0.557658 0
M  V30 10978 C 1045.25 -3.18731 1.15167 0
M  V30 10979 C 1044.42 -3.67601 2.37041 0
M  V30 10980 C 1043.48 -4.83063 2.08654 0
M  V30 10981 O 1042.51 -4.94603 2.81704 0
M  V30 10982 N 1043.71 -5.70409 1.0777 0
M  V30 10983 H 1046.48 -1.84239 2.36381 0
M  V30 10984 H 1044.04 -0.876475 1.36123 0
M  V30 10985 H 1046.03 -3.93602 0.941264 0
M  V30 10986 H 1044.6 -3.11452 0.267673 0
M  V30 10987 H 1043.82 -2.83622 2.73774 0
M  V30 10988 H 1045.11 -3.96991 3.18239 0
M  V30 10989 H 1044.5 -5.63718 0.473123 0
M  V30 10990 H 1043.06 -6.45172 0.927177 0
M  V30 10991 N 1046.49 -1.27344 -0.928501 0
M  V30 10992 C 1047.74 -1.13804 -1.67859 0
M  V30 10993 C 1048.07 0.31555 -1.91619 0
M  V30 10994 O 1047.35 1.23087 -1.50599 0
M  V30 10995 C 1047.63 -1.9213 -3.04562 0
M  V30 10996 C 1047.48 -3.45468 -2.88048 0
M  V30 10997 C 1048.8 -1.72513 -4.04879 0
M  V30 10998 H 1045.92 -0.414796 -0.609191 0
M  V30 10999 H 1048.56 -1.5649 -1.07753 0
M  V30 11000 H 1046.71 -1.55853 -3.55868 0
M  V30 11001 H 1048.39 -3.9157 -2.43865 0
M  V30 11002 H 1046.63 -3.71849 -2.23407 0
M  V30 11003 H 1047.3 -3.95515 -3.85061 0
M  V30 11004 H 1049.78 -2.04143 -3.62581 0
M  V30 11005 H 1048.65 -2.29713 -4.98521 0
M  V30 11006 H 1048.91 -0.672856 -4.3695 0
M  V30 11007 N 1047.97 1.13488 -1.09353 0
M  V30 11008 C 1048.94 2.17066 -0.735863 0
M  V30 11009 C 1049.94 1.59086 0.234181 0
M  V30 11010 O 1051.13 1.74196 0.012463 0
M  V30 11011 C 1048.26 3.40786 -0.0880975 0
M  V30 11012 H 1049.45 2.50221 -1.65316 0
M  V30 11013 H 1047 1.28304 -0.89263 0
M  V30 11014 H 1047.74 3.1322 0.840462 0
M  V30 11015 H 1047.52 3.8414 -0.786073 0
M  V30 11016 H 1049.01 4.17342 0.146775 0
M  V30 11017 N 1049.45 0.880621 1.30701 0
M  V30 11018 C 1050.68 0.510909 2.01009 0
M  V30 11019 C 1051.1 -0.892041 1.65603 0
M  V30 11020 O 1050.46 -1.59045 0.870309 0
M  V30 11021 C 1050.51 0.687759 3.53981 0
M  V30 11022 O 1049.61 -0.268275 4.11526 0
M  V30 11023 H 1048.95 0.201864 0.632572 0
M  V30 11024 H 1051.48 1.18697 1.6665 0
M  V30 11025 H 1051.49 0.585095 4.03783 0
M  V30 11026 H 1050.17 1.71068 3.79089 0
M  V30 11027 H 1048.74 -0.119673 3.72708 0
M  V30 11028 N 1050.93 -1.4397 0.641131 0
M  V30 11029 C 1051.88 -2.30728 -0.0577905 0
M  V30 11030 C 1052.85 -1.44059 -0.826819 0
M  V30 11031 O 1054.03 -1.72947 -0.805853 0
M  V30 11032 C 1051.17 -3.29478 -1.02657 0
M  V30 11033 C 1050.28 -4.31247 -0.254913 0
M  V30 11034 C 1049.42 -5.17085 -1.2164 0
M  V30 11035 C 1048.46 -6.10556 -0.434481 0
M  V30 11036 N 1047.6 -6.89059 -1.34694 0
M  V30 11037 H 1052.44 -2.8995 0.687953 0
M  V30 11038 H 1049.97 -1.4285 0.351029 0
M  V30 11039 H 1051.93 -3.85228 -1.60173 0
M  V30 11040 H 1050.56 -2.71932 -1.73933 0
M  V30 11041 H 1049.61 -3.77889 0.436338 0
M  V30 11042 H 1050.92 -4.97545 0.353642 0
M  V30 11043 H 1050.08 -5.77402 -1.86258 0
M  V30 11044 H 1048.82 -4.50885 -1.85888 0
M  V30 11045 H 1047.82 -5.49339 0.225125 0
M  V30 11046 H 1049.05 -6.78795 0.203415 0
M  V30 11047 H 1046.99 -6.25518 -1.97644 0
M  V30 11048 H 1046.91 -7.51833 -0.792657 0
M  V30 11049 H 1048.18 -7.5389 -1.98165 0
M  V30 11050 N 1052.41 -0.382291 -1.52893 0
M  V30 11051 C 1053.63 0.204961 -2.06385 0
M  V30 11052 C 1054.06 1.40316 -1.25271 0
M  V30 11053 O 1053.42 1.79187 -0.275969 0
M  V30 11054 C 1053.46 0.560205 -3.56222 0
M  V30 11055 O 1052.57 1.65515 -3.77728 0
M  V30 11056 H 1051.91 0.0258798 -0.663495 0
M  V30 11057 H 1054.44 -0.547733 -1.97132 0
M  V30 11058 H 1054.45 0.826501 -3.99541 0
M  V30 11059 H 1053.12 -0.31584 -4.14699 0
M  V30 11060 H 1051.7 1.38311 -3.46301 0
M  V30 11061 N 1053.89 1.57202 -0.111913 0
M  V30 11062 C 1055.13 1.95239 0.548607 0
M  V30 11063 C 1055.46 0.994897 1.6678 0
M  V30 11064 O 1054.74 0.0308603 1.94476 0
M  V30 11065 C 1055.02 3.43271 1.08798 0
M  V30 11066 C 1054.88 4.49792 -0.0273064 0
M  V30 11067 C 1056.19 3.92989 1.98109 0
M  V30 11068 H 1053.31 0.709919 0.197951 0
M  V30 11069 H 1055.96 1.89087 -0.186036 0
M  V30 11070 H 1054.11 3.48644 1.71404 0
M  V30 11071 H 1055.78 4.56521 -0.662302 0
M  V30 11072 H 1054.02 4.28254 -0.691426 0
M  V30 11073 H 1054.69 5.50612 0.391201 0
M  V30 11074 H 1057.17 3.89875 1.45385 0
M  V30 11075 H 1056.04 4.97101 2.32769 0
M  V30 11076 H 1056.3 3.33267 2.90492 0
M  V30 11077 N 1055.36 -0.161842 1.56767 0
M  V30 11078 C 1056.29 -1.20226 2.0017 0
M  V30 11079 C 1057.27 -1.4564 0.878807 0
M  V30 11080 O 1058.46 -1.56813 1.14557 0
M  V30 11081 C 1055.59 -2.53897 2.36968 0
M  V30 11082 C 1054.54 -2.43033 3.52305 0
M  V30 11083 C 1053.87 -3.81281 3.74872 0
M  V30 11084 C 1055.17 -1.927 4.85453 0
M  V30 11085 H 1056.86 -0.84142 2.87333 0
M  V30 11086 H 1054.41 -0.403309 1.38237 0
M  V30 11087 H 1056.36 -3.26893 2.6593 0
M  V30 11088 H 1055.09 -2.91787 1.46724 0
M  V30 11089 H 1053.75 -1.7249 3.23485 0
M  V30 11090 H 1053.39 -4.1658 2.81904 0
M  V30 11091 H 1053.09 -3.74877 4.52483 0
M  V30 11092 H 1054.62 -4.55848 4.06245 0
M  V30 11093 H 1056.03 -2.55477 5.13229 0
M  V30 11094 H 1054.43 -1.97222 5.66766 0
M  V30 11095 H 1055.5 -0.881816 4.76814 0
M  V30 11096 N 1056.84 -1.516 -0.430713 0
M  V30 11097 C 1057.8 -1.72794 -1.50582 0
M  V30 11098 C 1058.8 -0.597903 -1.49271 0
M  V30 11099 O 1059.99 -0.865535 -1.51176 0
M  V30 11100 C 1057.13 -1.79049 -2.90093 0
M  V30 11101 H 1058.32 -2.68751 -1.33091 0
M  V30 11102 H 1055.87 -1.4169 -0.659822 0
M  V30 11103 H 1056.61 -0.849309 -3.12981 0
M  V30 11104 H 1056.39 -2.61181 -2.92449 0
M  V30 11105 H 1057.88 -1.97262 -3.68072 0
M  V30 11106 N 1058.32 0.686584 -1.41858 0
M  V30 11107 C 1059.28 1.78214 -1.44126 0
M  V30 11108 C 1060.28 1.57366 -0.330541 0
M  V30 11109 O 1061.47 1.63874 -0.590837 0
M  V30 11110 C 1058.6 3.16704 -1.26142 0
M  V30 11111 H 1059.8 1.77594 -2.41661 0
M  V30 11112 H 1057.35 0.895085 -1.28132 0
M  V30 11113 H 1058.09 3.22957 -0.294823 0
M  V30 11114 H 1057.87 3.33238 -2.06627 0
M  V30 11115 H 1059.36 3.96658 -1.30584 0
M  V30 11116 N 1059.8 1.27835 0.921735 0
M  V30 11117 C 1060.73 1.136 2.04003 0
M  V30 11118 C 1061.71 0.0358756 1.70062 0
M  V30 11119 O 1062.89 0.211438 1.93046 0
M  V30 11120 C 1060.02 0.788697 3.38226 0
M  V30 11121 C 1058.98 1.84272 3.863 0
M  V30 11122 C 1058.3 1.34923 5.17397 0
M  V30 11123 C 1059.6 3.24788 4.09035 0
M  V30 11124 H 1061.3 2.07149 2.1617 0
M  V30 11125 H 1058.84 0.997349 1.0387 0
M  V30 11126 H 1060.8 0.675911 4.15944 0
M  V30 11127 H 1059.52 -0.182499 3.2609 0
M  V30 11128 H 1058.18 1.94451 3.1078 0
M  V30 11129 H 1057.83 0.367328 5.01657 0
M  V30 11130 H 1057.53 2.05397 5.50532 0
M  V30 11131 H 1059.05 1.24951 5.97678 0
M  V30 11132 H 1060.47 3.17575 4.77304 0
M  V30 11133 H 1058.86 3.93025 4.53488 0
M  V30 11134 H 1059.93 3.69398 3.14122 0
M  V30 11135 N 1061.28 -1.12907 1.09954 0
M  V30 11136 C 1062.51 -1.87866 0.859656 0
M  V30 11137 C 1062.91 -1.79664 -0.593096 0
M  V30 11138 O 1062.26 -1.16499 -1.42034 0
M  V30 11139 C 1062.32 -3.38055 1.22308 0
M  V30 11140 C 1061.98 -3.70035 2.68185 0
M  V30 11141 C 1062.98 -3.68817 3.66428 0
M  V30 11142 C 1060.66 -3.99523 3.04444 0
M  V30 11143 C 1062.66 -3.96639 4.98955 0
M  V30 11144 C 1060.35 -4.27006 4.37161 0
M  V30 11145 C 1061.34 -4.25549 5.34225 0
M  V30 11146 O 1061.03 -4.52354 6.64553 0
M  V30 11147 H 1060.76 -0.601425 0.308649 0
M  V30 11148 H 1063.32 -1.43817 1.46649 0
M  V30 11149 H 1061.55 -3.82634 0.559322 0
M  V30 11150 H 1063.24 -3.94348 0.961479 0
M  V30 11151 H 1064 -3.46104 3.3976 0
M  V30 11152 H 1059.88 -3.99801 2.29521 0
M  V30 11153 H 1063.43 -3.95418 5.74709 0
M  V30 11154 H 1059.32 -4.49192 4.6357 0
M  V30 11155 H 1060.09 -4.69997 6.70108 0
M  V30 11156 N 1062.75 -0.88754 -1.30232 0
M  V30 11157 C 1063.98 -0.521562 -2.00735 0
M  V30 11158 C 1064.4 0.883247 -1.66073 0
M  V30 11159 O 1063.76 1.58581 -0.878731 0
M  V30 11160 C 1063.81 -0.706521 -3.53611 0
M  V30 11161 O 1062.91 0.246447 -4.11663 0
M  V30 11162 H 1062.25 -0.205216 -0.631492 0
M  V30 11163 H 1064.78 -1.19579 -1.66018 0
M  V30 11164 H 1064.79 -0.606501 -4.03467 0
M  V30 11165 H 1063.47 -1.73076 -3.78177 0
M  V30 11166 H 1062.05 0.0999062 -3.72766 0
M  V30 11167 N 1064.23 1.43628 -0.648757 0
M  V30 11168 C 1065.46 2.06732 -0.166284 0
M  V30 11169 C 1065.88 1.48281 1.15734 0
M  V30 11170 O 1065.24 0.591018 1.71396 0
M  V30 11171 C 1065.29 3.60502 -0.0838732 0
M  V30 11172 O 1064.39 4.01186 0.955185 0
M  V30 11173 H 1063.73 0.657479 -0.0928285 0
M  V30 11174 H 1066.26 1.84208 -0.890421 0
M  V30 11175 H 1066.27 4.07875 0.100923 0
M  V30 11176 H 1064.95 4.02424 -1.05014 0
M  V30 11177 H 1063.53 3.65412 0.743537 0
M  V30 11178 N 1065.71 0.390394 1.52688 0
M  V30 11179 C 1066.62 -0.451543 2.30213 0
M  V30 11180 C 1067.64 -1.07051 1.37172 0
M  V30 11181 O 1068.81 -1.07609 1.70242 0
M  V30 11182 C 1065.88 -1.56299 3.0947 0
M  V30 11183 C 1064.94 -0.969017 4.18221 0
M  V30 11184 C 1064.17 -2.0275 4.93688 0
M  V30 11185 O 1064.39 -3.24273 4.69258 0
M  V30 11186 O 1063.33 -1.64418 5.79008 0
M  V30 11187 H 1067.15 0.180042 3.03166 0
M  V30 11188 H 1064.74 0.154082 1.48603 0
M  V30 11189 H 1066.62 -2.20864 3.58883 0
M  V30 11190 H 1065.3 -2.17952 2.3933 0
M  V30 11191 H 1064.2 -0.286587 3.73001 0
M  V30 11192 H 1065.54 -0.396687 4.90599 0
M  V30 11193 N 1067.19 -1.57141 0.120249 0
M  V30 11194 C 1068.44 -1.94852 -0.536387 0
M  V30 11195 C 1068.76 -1.00452 -1.67136 0
M  V30 11196 O 1068.03 -0.061053 -1.95805 0
M  V30 11197 H 1066.61 -0.719411 -0.201138 0
M  V30 11198 H 1069.27 -1.93977 0.189482 0
M  V30 11199 H 1068.37 -2.97917 -0.930145 0
M  V30 11200 N 1068.67 0.153526 -1.5685 0
M  V30 11201 C 1069.89 0.886343 -1.87507 0
M  V30 11202 C 1070.32 1.74244 -0.708565 0
M  V30 11203 O 1069.67 1.78045 0.341997 0
M  V30 11204 C 1069.72 1.72428 -3.16703 0
M  V30 11205 O 1068.83 2.82784 -3.00178 0
M  V30 11206 H 1068.17 0.247259 -0.616246 0
M  V30 11207 H 1070.7 0.146306 -2.04076 0
M  V30 11208 H 1070.71 2.12062 -3.4856 0
M  V30 11209 H 1069.38 1.09558 -4.01211 0
M  V30 11210 H 1067.96 2.46604 -2.79716 0
M  V30 11211 N 1070.14 1.51827 0.422667 0
M  V30 11212 C 1071.39 1.65464 1.17258 0
M  V30 11213 C 1071.72 0.376834 1.90509 0
M  V30 11214 O 1071 -0.624219 1.84211 0
M  V30 11215 C 1071.28 2.86776 2.17788 0
M  V30 11216 C 1071.13 4.24571 1.48523 0
M  V30 11217 C 1072.45 3.03603 3.18611 0
M  V30 11218 H 1069.57 0.602169 0.424925 0
M  V30 11219 H 1072.21 1.84349 0.45996 0
M  V30 11220 H 1070.36 2.70806 2.78561 0
M  V30 11221 H 1072.04 4.5224 0.909739 0
M  V30 11222 H 1070.28 4.26595 0.787354 0
M  V30 11223 H 1070.95 5.05475 2.2181 0
M  V30 11224 H 1073.43 3.18381 2.67904 0
M  V30 11225 H 1072.3 3.90022 3.8623 0
M  V30 11226 H 1072.56 2.16318 3.85563 0
M  V30 11227 N 1071.62 -0.679052 1.4222 0
M  V30 11228 C 1072.56 -1.80369 1.39794 0
M  V30 11229 C 1073.53 -1.60462 0.262806 0
M  V30 11230 O 1074.72 -1.82992 0.452352 0
M  V30 11231 C 1071.84 -3.17305 1.18471 0
M  V30 11232 C 1070.89 -3.55969 2.34922 0
M  V30 11233 S 1071.72 -3.58884 3.97445 0
M  V30 11234 C 1072.88 -4.98519 3.78457 0
M  V30 11235 H 1073.11 -1.82152 2.34964 0
M  V30 11236 H 1070.65 -0.84932 1.28942 0
M  V30 11237 H 1072.6 -3.96348 1.06856 0
M  V30 11238 H 1071.26 -3.13112 0.248944 0
M  V30 11239 H 1070.46 -4.55491 2.1574 0
M  V30 11240 H 1070.06 -2.84275 2.4303 0
M  V30 11241 H 1072.35 -5.86481 3.39184 0
M  V30 11242 H 1073.29 -5.22748 4.77641 0
M  V30 11243 H 1073.7 -4.70836 3.11406 0
M  V30 11244 N 1073.1 -1.28322 -0.914942 0
M  V30 11245 C 1074.01 -1.13993 -2.05043 0
M  V30 11246 C 1075.03 -0.0667921 -1.73872 0
M  V30 11247 O 1076.2 -0.275845 -1.99502 0
M  V30 11248 C 1073.27 -0.801856 -3.373 0
M  V30 11249 C 1072.33 -1.95723 -3.82088 0
M  V30 11250 C 1071.56 -1.63519 -5.08033 0
M  V30 11251 O 1071.78 -0.54899 -5.67752 0
M  V30 11252 O 1070.72 -2.47844 -5.48504 0
M  V30 11253 H 1074.54 -2.09313 -2.2005 0
M  V30 11254 H 1072.13 -1.0763 -1.03616 0
M  V30 11255 H 1074.01 -0.627214 -4.16706 0
M  V30 11256 H 1072.69 0.121696 -3.23471 0
M  V30 11257 H 1071.59 -2.18702 -3.03514 0
M  V30 11258 H 1072.93 -2.86144 -4.00478 0
M  V30 11259 N 1074.58 1.12322 -1.10551 0
M  V30 11260 C 1075.99 1.35858 -0.837543 0
M  V30 11261 C 1076.19 1.94062 0.54241 0
M  V30 11262 O 1075.25 2.1676 1.29505 0
M  V30 11263 C 1076.56 2.299 -1.9382 0
M  V30 11264 C 1078.11 2.43488 -1.96679 0
M  V30 11265 C 1078.59 3.40846 -3.05922 0
M  V30 11266 N 1080.08 3.48404 -3.05236 0
M  V30 11267 C 1080.81 4.2365 -3.86405 0
M  V30 11268 N 1080.31 5.01951 -4.77512 0
M  V30 11269 N 1082.1 4.19068 -3.74618 0
M  V30 11270 H 1074.25 0.729002 -1.99498 0
M  V30 11271 H 1076.52 0.38339 -0.867016 0
M  V30 11272 H 1076.22 1.94309 -2.9315 0
M  V30 11273 H 1076.1 3.30033 -1.82641 0
M  V30 11274 H 1078.48 2.78359 -0.979813 0
M  V30 11275 H 1078.56 1.43239 -2.11934 0
M  V30 11276 H 1078.21 3.06704 -4.04839 0
M  V30 11277 H 1078.14 4.40927 -2.87907 0
M  V30 11278 H 1080.63 2.92545 -2.39219 0
M  V30 11279 H 1080.94 5.56707 -5.36002 0
M  V30 11280 H 1079.29 5.01143 -4.8154 0
M  V30 11281 H 1082.48 3.5698 -3.02792 0
M  V30 11282 H 1082.65 4.77455 -4.38111 0
M  V30 11283 N 1076.06 0.894434 1.2976 0
M  V30 11284 C 1077.01 0.339611 2.25457 0
M  V30 11285 C 1077.99 -0.537326 1.51663 0
M  V30 11286 O 1079.18 -0.380204 1.72868 0
M  V30 11287 C 1076.31 -0.436494 3.40514 0
M  V30 11288 C 1075.4 0.455065 4.21651 0
M  V30 11289 N 1075.79 1.55988 4.81146 0
M  V30 11290 C 1074.09 0.251893 4.45288 0
M  V30 11291 C 1074.79 2.1117 5.42017 0
M  V30 11292 N 1073.76 1.40541 5.25118 0
M  V30 11293 H 1077.57 1.18365 2.69011 0
M  V30 11294 H 1075.08 0.744895 1.44309 0
M  V30 11295 H 1077.08 -0.850678 4.08129 0
M  V30 11296 H 1075.74 -1.27786 2.98498 0
M  V30 11297 H 1076.75 1.94266 4.80084 0
M  V30 11298 H 1073.42 -0.551536 4.13841 0
M  V30 11299 H 1074.81 3.04 5.99194 0
M  V30 11300 N 1077.53 -1.43282 0.656365 0
M  V30 11301 C 1078.48 -2.27932 -0.0557069 0
M  V30 11302 C 1079.47 -1.40075 -0.791698 0
M  V30 11303 O 1080.66 -1.6368 -0.673646 0
M  V30 11304 C 1077.79 -3.27821 -1.01923 0
M  V30 11305 C 1076.88 -4.23164 -0.281545 0
M  V30 11306 N 1077.27 -5.00882 0.703629 0
M  V30 11307 C 1075.56 -4.42928 -0.522558 0
M  V30 11308 C 1076.27 -5.70384 1.14177 0
M  V30 11309 N 1075.24 -5.41517 0.475394 0
M  V30 11310 H 1079.04 -2.85437 0.70022 0
M  V30 11311 H 1076.56 -1.55023 0.483902 0
M  V30 11312 H 1078.55 -3.87248 -1.54418 0
M  V30 11313 H 1077.21 -2.71878 -1.77518 0
M  V30 11314 H 1078.23 -5.06461 1.08247 0
M  V30 11315 H 1074.9 -3.98051 -1.25944 0
M  V30 11316 H 1076.29 -6.42765 1.95711 0
M  V30 11317 N 1079.01 -0.398486 -1.52479 0
M  V30 11318 C 1080.26 0.180752 -2.01692 0
M  V30 11319 C 1080.59 1.46044 -1.28457 0
M  V30 11320 O 1079.84 1.92051 -0.376162 0
M  V30 11321 C 1080.14 0.485909 -3.54081 0
M  V30 11322 C 1079.81 -0.703321 -4.45381 0
M  V30 11323 C 1078.47 -1.02955 -4.70057 0
M  V30 11324 C 1080.82 -1.49848 -4.99194 0
M  V30 11325 C 1078.15 -2.15231 -5.45795 0
M  V30 11326 C 1080.5 -2.61192 -5.76161 0
M  V30 11327 C 1079.17 -2.94313 -5.99113 0
M  V30 11328 H 1078.44 0.0661417 -0.738042 0
M  V30 11329 H 1081.08 -0.53772 -1.83796 0
M  V30 11330 H 1079.39 1.28582 -3.701 0
M  V30 11331 H 1081.09 0.946872 -3.89661 0
M  V30 11332 H 1077.68 -0.439062 -4.26345 0
M  V30 11333 H 1081.86 -1.25968 -4.80048 0
M  V30 11334 H 1077.12 -2.41252 -5.61789 0
M  V30 11335 H 1081.29 -3.23201 -6.16858 0
M  V30 11336 H 1078.92 -3.81431 -6.57583 0
M  V30 11337 N 1080.49 1.57075 -0.12858 0
M  V30 11338 C 1081.45 2.14643 0.803813 0
M  V30 11339 C 1082.45 1.08363 1.18803 0
M  V30 11340 O 1083.64 1.34093 1.11197 0
M  V30 11341 C 1080.78 2.6945 2.08829 0
M  V30 11342 H 1081.97 2.98362 0.303347 0
M  V30 11343 H 1079.52 1.55833 0.120735 0
M  V30 11344 H 1080.26 1.89345 2.63285 0
M  V30 11345 H 1080.04 3.47187 1.82218 0
M  V30 11346 H 1081.53 3.13865 2.7546 0
M  V30 11347 N 1081.97 -0.145205 1.5693 0
M  V30 11348 C 1082.9 -1.20438 1.95006 0
M  V30 11349 C 1083.91 -1.39085 0.846114 0
M  V30 11350 O 1085.1 -1.38625 1.12452 0
M  V30 11351 C 1082.2 -2.56892 2.21043 0
M  V30 11352 C 1081.38 -2.59197 3.52329 0
M  V30 11353 C 1080.44 -3.77204 3.66884 0
M  V30 11354 O 1079.46 -3.61995 4.39259 0
M  V30 11355 N 1080.66 -4.9473 3.03682 0
M  V30 11356 H 1083.43 -0.880709 2.86467 0
M  V30 11357 H 1080.99 -0.334751 1.58401 0
M  V30 11358 H 1082.98 -3.34349 2.2802 0
M  V30 11359 H 1081.55 -2.81544 1.35838 0
M  V30 11360 H 1080.77 -1.67644 3.56776 0
M  V30 11361 H 1082.06 -2.57771 4.3867 0
M  V30 11362 H 1081.46 -5.09989 2.44801 0
M  V30 11363 H 1080.01 -5.69956 3.16218 0
M  V30 11364 N 1083.45 -1.52049 -0.414609 0
M  V30 11365 C 1084.41 -1.74382 -1.4874 0
M  V30 11366 C 1085.41 -0.613701 -1.48628 0
M  V30 11367 O 1086.6 -0.88152 -1.50249 0
M  V30 11368 C 1083.73 -1.82116 -2.88178 0
M  V30 11369 H 1084.93 -2.70147 -1.30233 0
M  V30 11370 H 1082.48 -1.42382 -0.644756 0
M  V30 11371 H 1083.21 -0.882457 -3.12063 0
M  V30 11372 H 1083 -2.64268 -2.89663 0
M  V30 11373 H 1084.49 -2.01155 -3.65959 0
M  V30 11374 N 1084.93 0.6715 -1.42579 0
M  V30 11375 C 1086.17 1.42731 -1.42516 0
M  V30 11376 C 1086.49 1.95545 -0.0462407 0
M  V30 11377 O 1087.69 2.71391 0.0769798 0
M  V30 11378 C 1086.15 2.58215 -2.50705 0
M  V30 11379 C 1085.76 2.12086 -3.94618 0
M  V30 11380 C 1087.5 3.35705 -2.59813 0
M  V30 11381 C 1085.41 3.24672 -4.9431 0
M  V30 11382 H 1084.34 0.536218 -0.530081 0
M  V30 11383 H 1086.99 0.726655 -1.68499 0
M  V30 11384 H 1085.37 3.30665 -2.17892 0
M  V30 11385 H 1086.55 1.46768 -4.36802 0
M  V30 11386 H 1084.86 1.47526 -3.89391 0
M  V30 11387 H 1087.46 4.1956 -3.31472 0
M  V30 11388 H 1087.8 3.82517 -1.64276 0
M  V30 11389 H 1088.33 2.70326 -2.91836 0
M  V30 11390 H 1085.07 2.82848 -5.91335 0
M  V30 11391 H 1084.59 3.88761 -4.56755 0
M  V30 11392 H 1086.27 3.90088 -5.16179 0
M  V30 11393 N 1086.4 1.28806 0.908124 0
M  V30 11394 C 1087.37 1.13228 1.99279 0
M  V30 11395 C 1088.37 0.0702456 1.60646 0
M  V30 11396 O 1089.56 0.316494 1.71301 0
M  V30 11397 C 1086.69 0.729629 3.33 0
M  V30 11398 H 1087.88 2.09566 2.14528 0
M  V30 11399 H 1085.43 1.11872 1.09153 0
M  V30 11400 H 1086.17 -0.234268 3.23453 0
M  V30 11401 H 1085.95 1.49688 3.62403 0
M  V30 11402 H 1087.44 0.643449 4.12613 0
M  V30 11403 N 1087.88 -1.11734 1.11145 0
M  V30 11404 C 1089.13 -1.82766 0.853194 0
M  V30 11405 C 1089.44 -1.85408 -0.623168 0
M  V30 11406 O 1090.65 -2.52509 -0.997574 0
M  V30 11407 C 1089.11 -3.28215 1.47658 0
M  V30 11408 C 1088.71 -3.33911 2.98676 0
M  V30 11409 C 1090.46 -4.04168 1.29803 0
M  V30 11410 C 1088.36 -4.73739 3.54013 0
M  V30 11411 H 1087.29 -0.684807 0.315523 0
M  V30 11412 H 1089.95 -1.25756 1.33633 0
M  V30 11413 H 1088.33 -3.85138 0.921116 0
M  V30 11414 H 1089.5 -2.86887 3.606 0
M  V30 11415 H 1087.82 -2.71437 3.15771 0
M  V30 11416 H 1090.41 -5.07429 1.68582 0
M  V30 11417 H 1090.76 -4.15606 0.240302 0
M  V30 11418 H 1091.29 -3.53623 1.82196 0
M  V30 11419 H 1088.03 -4.67497 4.59485 0
M  V30 11420 H 1087.55 -5.21186 2.9686 0
M  V30 11421 H 1089.23 -5.42691 3.52271 0
M  V30 11422 N 1089.36 -0.901303 -1.29284 0
M  V30 11423 C 1090.29 -0.396909 -2.30102 0
M  V30 11424 C 1091.27 0.528919 -1.61668 0
M  V30 11425 O 1092.46 0.439306 -1.89166 0
M  V30 11426 C 1089.59 0.375006 -3.45269 0
M  V30 11427 C 1088.54 -0.46054 -4.25515 0
M  V30 11428 C 1087.87 0.438967 -5.32895 0
M  V30 11429 C 1089.17 -1.7113 -4.93469 0
M  V30 11430 H 1090.86 -1.23943 -2.72541 0
M  V30 11431 H 1088.41 -0.597428 -1.31022 0
M  V30 11432 H 1090.36 0.738622 -4.14876 0
M  V30 11433 H 1089.08 1.25132 -3.01678 0
M  V30 11434 H 1087.74 -0.80651 -3.57618 0
M  V30 11435 H 1087.39 1.31346 -4.85548 0
M  V30 11436 H 1087.09 -0.116406 -5.87485 0
M  V30 11437 H 1088.61 0.79874 -6.05353 0
M  V30 11438 H 1090.03 -1.41732 -5.55504 0
M  V30 11439 H 1088.42 -2.20811 -5.57999 0
M  V30 11440 H 1089.49 -2.44636 -4.18666 0
M  V30 11441 N 1090.84 1.42931 -0.663954 0
M  V30 11442 C 1091.79 2.32577 0.03287 0
M  V30 11443 C 1092.78 1.49217 0.801918 0
M  V30 11444 O 1093.99 1.65358 0.711106 0
M  V30 11445 H 1090.36 0.751424 0.0294198 0
M  V30 11446 H 1092.33 2.89059 -0.740763 0
M  V30 11447 C 1091.08 3.33661 0.978025 0
M  V30 11448 H 1090.4 3.97837 0.395681 0
M  V30 11449 H 1091.84 3.98997 1.43448 0
M  V30 11450 C 1090.3 2.65085 2.07922 0
M  V30 11451 O 1090.83 2.4745 3.16435 0
M  V30 11452 N 1089.04 2.24285 1.84783 0
M  V30 11453 H 1088.59 2.38827 0.965368 0
M  V30 11454 H 1088.54 1.78732 2.58655 0
M  V30 11455 N 1092.32 0.406567 1.52266 0
M  V30 11456 C 1093.54 -0.169624 2.06204 0
M  V30 11457 C 1093.96 -1.39076 1.27684 0
M  V30 11458 O 1093.32 -1.79528 0.328023 0
M  V30 11459 C 1093.37 -0.522611 3.57702 0
M  V30 11460 O 1093.09 0.650028 4.33251 0
M  V30 11461 C 1094.59 -1.15281 4.28048 0
M  V30 11462 H 1091.81 -0.0215191 0.670655 0
M  V30 11463 H 1094.35 0.576781 1.96198 0
M  V30 11464 H 1092.51 -1.21891 3.67725 0
M  V30 11465 H 1092.92 0.355989 5.23291 0
M  V30 11466 H 1094.4 -1.35002 5.35237 0
M  V30 11467 H 1094.87 -2.12517 3.84361 0
M  V30 11468 H 1095.48 -0.496786 4.22389 0
M  V30 11469 N 1093.79 -1.57004 0.136909 0
M  V30 11470 C 1094.74 -2.12815 -0.818144 0
M  V30 11471 C 1095.73 -1.0534 -1.21623 0
M  V30 11472 O 1096.92 -1.31539 -1.18434 0
M  V30 11473 C 1094.05 -2.74533 -2.06122 0
M  V30 11474 C 1093.14 -3.89117 -1.68669 0
M  V30 11475 N 1093.53 -4.95412 -1.01983 0
M  V30 11476 C 1091.82 -3.99636 -1.98009 0
M  V30 11477 C 1092.53 -5.75594 -0.840624 0
M  V30 11478 N 1091.5 -5.26019 -1.37131 0
M  V30 11479 H 1095.3 -2.92372 -0.299315 0
M  V30 11480 H 1092.82 -1.6227 -0.0649741 0
M  V30 11481 H 1094.81 -3.12872 -2.7553 0
M  V30 11482 H 1093.47 -1.96446 -2.58532 0
M  V30 11483 H 1094.49 -5.13393 -0.681744 0
M  V30 11484 H 1091.16 -3.32613 -2.52339 0
M  V30 11485 H 1092.55 -6.71157 -0.315807 0
M  V30 11486 N 1095.27 0.136881 -1.57004 0
M  V30 11487 C 1096.52 0.8461 -1.83536 0
M  V30 11488 C 1096.84 1.81246 -0.71937 0
M  V30 11489 O 1096.11 1.94191 0.258161 0
M  V30 11490 H 1094.69 0.315446 -0.677128 0
M  V30 11491 H 1097.35 0.128469 -1.94476 0
M  V30 11492 H 1096.45 1.40221 -2.78827 0
M  V30 11493 N 1096.75 1.52266 0.40654 0
M  V30 11494 C 1097.99 1.6813 1.16239 0
M  V30 11495 C 1098.35 0.403791 1.87706 0
M  V30 11496 O 1099.56 0.438566 2.65198 0
M  V30 11497 C 1097.83 2.87115 2.12837 0
M  V30 11498 S 1099.39 3.23475 2.96495 0
M  V30 11499 H 1096.2 0.59202 0.393743 0
M  V30 11500 H 1098.81 1.90266 0.449325 0
M  V30 11501 H 1097.51 3.78337 1.59026 0
M  V30 11502 H 1097.04 2.6726 2.88679 0
M  V30 11503 H 1099.06 2.72299 4.14811 0
M  V30 11504 N 1098.23 -0.663929 1.42933 0
M  V30 11505 C 1099.18 -1.79843 1.4751 0
M  V30 11506 C 1100.17 -1.65751 0.349727 0
M  V30 11507 O 1101.38 -1.72227 0.523239 0
M  V30 11508 H 1097.75 -0.593176 0.462219 0
M  V30 11509 H 1099.72 -1.73102 2.4306 0
M  V30 11510 C 1098.47 -3.18053 1.4049 0
M  V30 11511 H 1097.79 -3.29529 2.26386 0
M  V30 11512 H 1099.23 -3.97423 1.47754 0
M  V30 11513 C 1097.69 -3.36682 0.121076 0
M  V30 11514 O 1098.22 -3.93202 -0.821874 0
M  V30 11515 N 1096.43 -2.90579 0.0347141 0
M  V30 11516 H 1095.98 -2.44769 0.802852 0
M  V30 11517 H 1095.93 -3.03421 -0.823607 0
M  V30 11518 N 1099.71 -1.29285 -0.901281 0
M  V30 11519 C 1100.96 -1.16538 -1.64626 0
M  V30 11520 C 1101.27 0.282623 -1.93547 0
M  V30 11521 O 1102.47 0.531396 -2.66249 0
M  V30 11522 C 1100.93 -2.03809 -2.96631 0
M  V30 11523 C 1100.54 -3.53423 -2.75311 0
M  V30 11524 C 1102.28 -1.99782 -3.7455 0
M  V30 11525 C 1100.19 -4.32804 -4.03032 0
M  V30 11526 H 1099.12 -0.432561 -0.617581 0
M  V30 11527 H 1101.77 -1.53912 -0.999159 0
M  V30 11528 H 1100.15 -1.59302 -3.62545 0
M  V30 11529 H 1101.33 -4.05971 -2.18 0
M  V30 11530 H 1099.64 -3.59106 -2.10789 0
M  V30 11531 H 1102.24 -2.5635 -4.69243 0
M  V30 11532 H 1102.58 -0.97743 -4.04663 0
M  V30 11533 H 1103.11 -2.42324 -3.15474 0
M  V30 11534 H 1099.85 -5.35473 -3.78086 0
M  V30 11535 H 1099.37 -3.85025 -4.59909 0
M  V30 11536 H 1101.05 -4.43383 -4.71191 0
M  V30 11537 N 1101.18 1.11143 -1.11736 0
M  V30 11538 C 1102.43 1.82948 -0.868127 0
M  V30 11539 C 1102.76 1.84813 0.606182 0
M  V30 11540 O 1102.01 1.29901 1.4637 0
M  V30 11541 C 1102.31 3.29733 -1.3788 0
M  V30 11542 C 1101.98 3.48025 -2.86687 0
M  V30 11543 C 1100.64 3.52725 -3.2732 0
M  V30 11544 C 1102.99 3.54024 -3.82513 0
M  V30 11545 C 1100.32 3.60983 -4.62502 0
M  V30 11546 C 1102.67 3.63814 -5.17515 0
M  V30 11547 C 1101.34 3.66776 -5.57702 0
M  V30 11548 H 1100.61 0.669452 -0.31767 0
M  V30 11549 H 1103.25 1.31057 -1.3963 0
M  V30 11550 H 1101.56 3.8414 -0.77093 0
M  V30 11551 H 1103.26 3.83787 -1.16225 0
M  V30 11552 H 1099.85 3.45039 -2.54256 0
M  V30 11553 H 1104.03 3.4965 -3.52219 0
M  V30 11554 H 1099.29 3.61554 -4.9304 0
M  V30 11555 H 1103.46 3.674 -5.916 0
M  V30 11556 H 1101.09 3.72927 -6.62442 0
M  V30 11557 N 1102.66 0.908147 1.28804 0
M  V30 11558 C 1103.94 0.457561 1.90173 0
M  V30 11559 C 1104.32 -1.06333 1.82364 0
M  V30 11560 O 1103.67 -1.90892 1.25589 0
M  V30 11561 C 1103.88 0.981624 3.34911 0
M  V30 11562 C 1105.23 1.03037 4.11908 0
M  V30 11563 O 1106.25 0.929878 3.43848 0
M  V30 11564 O 1105.11 1.18257 5.33552 0
M  V30 11565 H 1102.2 0.144081 0.814352 0
M  V30 11566 H 1104.75 0.998565 1.37211 0
M  V30 11567 H 1103.52 2.02561 3.34791 0
M  V30 11568 H 1103.14 0.421122 3.95364 0
M  V30 11569 N 1104.14 -1.42577 0.671525 0
M  V30 11570 C 1105.09 -2.27978 -0.0315286 0
M  V30 11571 C 1106.07 -1.40907 -0.776796 0
M  V30 11572 O 1107.27 -1.64385 -0.656248 0
M  V30 11573 C 1104.4 -3.28884 -0.9844 0
M  V30 11574 C 1103.48 -4.23439 -0.236647 0
M  V30 11575 N 1103.87 -5.00107 0.756714 0
M  V30 11576 C 1102.17 -4.43457 -0.475551 0
M  V30 11577 C 1102.87 -5.69141 1.20221 0
M  V30 11578 N 1101.85 -5.40983 0.532802 0
M  V30 11579 H 1105.65 -2.84678 0.730455 0
M  V30 11580 H 1103.16 -1.54501 0.500317 0
M  V30 11581 H 1105.16 -3.88864 -1.50302 0
M  V30 11582 H 1103.82 -2.73745 -1.74625 0
M  V30 11583 H 1104.83 -5.05285 1.13613 0
M  V30 11584 H 1101.51 -3.99364 -1.21715 0
M  V30 11585 H 1102.9 -6.40653 2.02517 0
M  V30 11586 N 1105.62 -0.414636 -1.52048 0
M  V30 11587 C 1106.87 0.159349 -2.01872 0
M  V30 11588 C 1107.19 1.44674 -1.29999 0
M  V30 11589 O 1106.45 1.91641 -0.396511 0
M  V30 11590 C 1106.75 0.448327 -3.54577 0
M  V30 11591 C 1106.41 -0.75052 -4.4461 0
M  V30 11592 C 1105.08 -1.07935 -4.68939 0
M  V30 11593 C 1107.43 -1.55134 -4.97577 0
M  V30 11594 C 1104.76 -2.21008 -5.43482 0
M  V30 11595 C 1107.11 -2.67288 -5.73358 0
M  V30 11596 C 1105.77 -3.00651 -5.95958 0
M  V30 11597 H 1105.04 0.05831 -0.738702 0
M  V30 11598 H 1107.69 -0.557184 -1.83215 0
M  V30 11599 H 1105.99 1.24649 -3.71443 0
M  V30 11600 H 1107.69 0.90549 -3.90643 0
M  V30 11601 H 1104.28 -0.484257 -4.25856 0
M  V30 11602 H 1108.46 -1.31052 -4.78685 0
M  V30 11603 H 1103.72 -2.47197 -5.59199 0
M  V30 11604 H 1107.89 -3.29725 -6.13396 0
M  V30 11605 H 1105.52 -3.88384 -6.535 0
M  V30 11606 N 1107.1 1.56929 -0.145233 0
M  V30 11607 C 1108.32 2.00864 0.516564 0
M  V30 11608 C 1108.75 1.02466 1.57741 0
M  V30 11609 O 1108.1 0.000145439 1.813 0
M  V30 11610 C 1108.15 3.43552 1.09563 0
M  V30 11611 O 1107.26 3.4815 2.21055 0
M  V30 11612 H 1106.6 0.651835 0.126521 0
M  V30 11613 H 1109.13 2.0317 -0.241445 0
M  V30 11614 H 1109.14 3.82316 1.42473 0
M  V30 11615 H 1107.81 4.14677 0.318749 0
M  V30 11616 H 1106.39 3.21228 1.89387 0
M  V30 11617 N 1108.58 -0.128553 1.57075 0
M  V30 11618 C 1109.99 -0.481794 1.52154 0
M  V30 11619 C 1110.19 -1.82381 0.856694 0
M  V30 11620 O 1109.25 -2.48725 0.434989 0
M  V30 11621 C 1110.56 -0.475091 2.96923 0
M  V30 11622 C 1112.11 -0.559315 3.07962 0
M  V30 11623 C 1112.58 -0.583095 4.54273 0
M  V30 11624 N 1114.07 -0.644803 4.5869 0
M  V30 11625 C 1114.81 -0.684493 5.693 0
M  V30 11626 N 1114.31 -0.682407 6.89431 0
M  V30 11627 N 1116.1 -0.726777 5.57382 0
M  V30 11628 H 1108.25 0.750894 1.98684 0
M  V30 11629 H 1110.51 0.27593 0.906955 0
M  V30 11630 H 1110.22 0.443157 3.48897 0
M  V30 11631 H 1110.09 -1.30637 3.53856 0
M  V30 11632 H 1112.48 -1.46798 2.55997 0
M  V30 11633 H 1112.56 0.299468 2.54041 0
M  V30 11634 H 1112.2 0.32149 5.06881 0
M  V30 11635 H 1112.13 -1.45863 5.05996 0
M  V30 11636 H 1114.63 -0.652967 3.72216 0
M  V30 11637 H 1114.94 -0.715051 7.69485 0
M  V30 11638 H 1113.28 -0.649984 6.91954 0
M  V30 11639 H 1116.47 -0.725704 4.6244 0
M  V30 11640 H 1116.65 -0.754242 6.43596 0
M  V30 11641 N 1110.05 -1.5248 -0.398459 0
M  V30 11642 C 1111 -1.76585 -1.48615 0
M  V30 11643 C 1111.97 -0.608677 -1.54546 0
M  V30 11644 O 1113.16 -0.847383 -1.7095 0
M  V30 11645 C 1110.3 -1.93201 -2.8595 0
M  V30 11646 C 1109.41 -3.20875 -2.89246 0
M  V30 11647 C 1108.54 -3.27862 -4.17947 0
M  V30 11648 C 1107.58 -4.49697 -4.15258 0
M  V30 11649 N 1106.72 -4.54017 -5.35549 0
M  V30 11650 H 1111.56 -2.69412 -1.27362 0
M  V30 11651 H 1109.1 -1.33487 -0.618031 0
M  V30 11652 H 1111.05 -2.00819 -3.65688 0
M  V30 11653 H 1109.68 -1.03743 -3.05675 0
M  V30 11654 H 1108.74 -3.22376 -2.01935 0
M  V30 11655 H 1110.05 -4.1066 -2.83125 0
M  V30 11656 H 1109.2 -3.34611 -5.06083 0
M  V30 11657 H 1107.94 -2.36035 -4.26777 0
M  V30 11658 H 1106.95 -4.43083 -3.25511 0
M  V30 11659 H 1108.17 -5.42831 -4.08059 0
M  V30 11660 H 1106.12 -3.65078 -5.45027 0
M  V30 11661 H 1106.03 -5.37661 -5.31466 0
M  V30 11662 H 1107.3 -4.65009 -6.25609 0
M  V30 11663 N 1111.53 0.65634 -1.43283 0
M  V30 11664 C 1112.81 1.41339 -1.35213 0
M  V30 11665 C 1113.19 2.111 0.00158494 0
M  V30 11666 O 1112.54 2.0457 1.018 0
M  V30 11667 C 1112.75 2.40066 -2.53317 0
M  V30 11668 C 1114.09 3.04159 -2.96264 0
M  V30 11669 O 1115.12 2.50393 -2.53341 0
M  V30 11670 O 1113.98 4.01633 -3.70612 0
M  V30 11671 H 1111.07 0.631325 -0.534189 0
M  V30 11672 H 1113.62 0.68351 -1.55326 0
M  V30 11673 H 1112.39 1.87444 -3.43483 0
M  V30 11674 H 1112.01 3.20509 -2.35287 0
M  V30 11675 N 1113.01 1.29761 0.894412 0
M  V30 11676 C 1114.24 1.20765 1.67629 0
M  V30 11677 C 1114.65 -0.233434 1.87754 0
M  V30 11678 O 1113.99 -1.16747 1.4183 0
M  V30 11679 C 1114.05 1.85542 3.07919 0
M  V30 11680 C 1113.72 3.34852 3.11004 0
M  V30 11681 C 1114.71 4.30994 2.90758 0
M  V30 11682 C 1112.4 3.76141 3.32901 0
M  V30 11683 C 1114.39 5.664 2.92352 0
M  V30 11684 C 1112.08 5.11667 3.34126 0
M  V30 11685 C 1113.08 6.06607 3.13874 0
M  V30 11686 O 1112.77 7.39659 3.14897 0
M  V30 11687 H 1112.5 0.419418 0.530155 0
M  V30 11688 H 1115.05 1.71754 1.12648 0
M  V30 11689 H 1113.28 1.29071 3.64524 0
M  V30 11690 H 1114.97 1.70795 3.68217 0
M  V30 11691 H 1115.74 4.00427 2.73648 0
M  V30 11692 H 1111.62 3.02694 3.47703 0
M  V30 11693 H 1115.16 6.40479 2.76464 0
M  V30 11694 H 1111.06 5.41877 3.50769 0
M  V30 11695 H 1111.82 7.4853 3.31127 0
M  V30 11696 N 1114.49 -1.10549 1.12324 0
M  V30 11697 C 1115.42 -2.16657 0.747826 0
M  V30 11698 C 1116.43 -1.61238 -0.224981 0
M  V30 11699 O 1117.62 -1.78499 -0.00649408 0
M  V30 11700 C 1114.72 -3.38791 0.0859421 0
M  V30 11701 C 1113.89 -4.23655 1.08792 0
M  V30 11702 C 1112.95 -5.24239 0.453871 0
M  V30 11703 O 1111.98 -5.58262 1.11052 0
M  V30 11704 N 1113.18 -5.75246 -0.779215 0
M  V30 11705 H 1115.95 -2.49472 1.66084 0
M  V30 11706 H 1113.51 -1.26157 1.01469 0
M  V30 11707 H 1115.5 -4.03182 -0.350186 0
M  V30 11708 H 1114.07 -3.03961 -0.729807 0
M  V30 11709 H 1113.29 -3.55578 1.70171 0
M  V30 11710 H 1114.58 -4.77187 1.76549 0
M  V30 11711 H 1113.98 -5.49802 -1.3317 0
M  V30 11712 H 1112.53 -6.41428 -1.15818 0
M  V30 11713 N 1115.97 -0.914965 -1.28321 0
M  V30 11714 C 1117.38 -0.613297 -1.47346 0
M  V30 11715 C 1117.58 0.84106 -1.83108 0
M  V30 11716 O 1116.64 1.62004 -1.93678 0
M  V30 11717 C 1117.95 -1.55224 -2.57538 0
M  V30 11718 C 1119.5 -1.55909 -2.71407 0
M  V30 11719 C 1119.97 -2.48468 -3.84744 0
M  V30 11720 N 1121.46 -2.46602 -3.92099 0
M  V30 11721 C 1122.2 -3.14917 -4.79182 0
M  V30 11722 N 1121.7 -3.92566 -5.70845 0
M  V30 11723 N 1123.49 -3.03998 -4.72802 0
M  V30 11724 H 1115.64 -1.85539 -1.03388 0
M  V30 11725 H 1117.9 -0.795875 -0.515061 0
M  V30 11726 H 1117.61 -2.58917 -2.38023 0
M  V30 11727 H 1117.48 -1.28426 -3.54664 0
M  V30 11728 H 1119.87 -0.52953 -2.9031 0
M  V30 11729 H 1119.95 -1.86751 -1.74808 0
M  V30 11730 H 1119.59 -3.51526 -3.66595 0
M  V30 11731 H 1119.52 -2.14928 -4.80743 0
M  V30 11732 H 1122.02 -1.90199 -3.26547 0
M  V30 11733 H 1122.33 -4.41709 -6.34123 0
M  V30 11734 H 1120.67 -3.96671 -5.70681 0
M  V30 11735 H 1123.86 -2.42839 -4.00184 0
M  V30 11736 H 1124.04 -3.57511 -5.40454 0
M  V30 11737 N 1117.44 1.42219 -0.679077 0
M  V30 11738 C 1118.38 2.28152 0.0468359 0
M  V30 11739 C 1119.35 1.41307 0.804433 0
M  V30 11740 O 1120.54 1.70744 0.798673 0
M  V30 11741 C 1117.67 3.21236 1.07355 0
M  V30 11742 C 1116.71 4.24515 0.411042 0
M  V30 11743 S 1117.54 5.28958 -0.834506 0
M  V30 11744 C 1118.7 6.25608 0.191029 0
M  V30 11745 H 1118.93 2.89371 -0.682045 0
M  V30 11746 H 1116.47 1.47112 -0.468767 0
M  V30 11747 H 1118.42 3.75402 1.66082 0
M  V30 11748 H 1117.09 2.59145 1.7749 0
M  V30 11749 H 1116.28 4.89849 1.1859 0
M  V30 11750 H 1115.88 3.73859 -0.102742 0
M  V30 11751 H 1118.17 6.69323 1.04944 0
M  V30 11752 H 1119.12 7.06806 -0.427959 0
M  V30 11753 H 1119.52 5.61926 0.538422 0
M  V30 11754 N 1118.92 0.422693 1.51826 0
M  V30 11755 C 1119.85 -0.386913 2.30272 0
M  V30 11756 C 1120.83 -1.03411 1.35056 0
M  V30 11757 O 1122.02 -1.04055 1.6397 0
M  V30 11758 C 1119.15 -1.49645 3.13407 0
M  V30 11759 C 1118.1 -0.973532 4.16781 0
M  V30 11760 C 1117.43 -2.1777 4.88344 0
M  V30 11761 C 1118.73 -0.0181194 5.22297 0
M  V30 11762 H 1120.42 0.267697 2.98201 0
M  V30 11763 H 1117.97 0.130186 1.4341 0
M  V30 11764 H 1119.92 -2.06993 3.67059 0
M  V30 11765 H 1118.64 -2.17914 2.43272 0
M  V30 11766 H 1117.3 -0.42237 3.64159 0
M  V30 11767 H 1116.95 -2.84625 4.14726 0
M  V30 11768 H 1116.65 -1.83427 5.58237 0
M  V30 11769 H 1118.18 -2.75699 5.44814 0
M  V30 11770 H 1119.59 -0.500822 5.71108 0
M  V30 11771 H 1117.99 0.237163 5.99631 0
M  V30 11772 H 1119.06 0.923065 4.76033 0
M  V30 11773 N 1120.4 -1.5685 0.153553 0
M  V30 11774 C 1121.68 -1.8796 -0.541328 0
M  V30 11775 C 1122.06 -1.06059 -1.82523 0
M  V30 11776 O 1121.4 -0.149295 -2.28012 0
M  V30 11777 C 1121.61 -3.39697 -0.800442 0
M  V30 11778 C 1122.96 -4.09057 -1.13832 0
M  V30 11779 O 1123.99 -3.44913 -0.889578 0
M  V30 11780 O 1122.85 -5.22347 -1.60673 0
M  V30 11781 H 1119.94 -0.779268 -0.276895 0
M  V30 11782 H 1122.49 -1.68626 0.190657 0
M  V30 11783 H 1121.26 -3.91151 0.107935 0
M  V30 11784 H 1120.88 -3.64582 -1.58638 0
M  V30 11785 N 1121.88 0.120221 -1.57141 0
M  V30 11786 C 1122.81 1.14876 -2.03287 0
M  V30 11787 C 1123.79 1.43259 -0.917112 0
M  V30 11788 O 1124.97 1.53721 -1.18674 0
M  V30 11789 C 1122.1 2.47525 -2.43616 0
M  V30 11790 C 1121.06 2.33607 -3.58625 0
M  V30 11791 C 1120.38 3.71207 -3.84849 0
M  V30 11792 C 1121.68 1.79761 -4.90391 0
M  V30 11793 H 1123.38 0.764943 -2.89463 0
M  V30 11794 H 1120.92 0.366516 -1.39258 0
M  V30 11795 H 1122.88 3.19728 -2.74504 0
M  V30 11796 H 1121.6 2.87794 -1.54409 0
M  V30 11797 H 1120.26 1.63853 -3.27945 0
M  V30 11798 H 1119.91 4.0896 -2.9285 0
M  V30 11799 H 1119.61 3.62749 -4.62263 0
M  V30 11800 H 1121.13 4.44917 -4.18188 0
M  V30 11801 H 1122.55 2.4178 -5.19822 0
M  V30 11802 H 1120.94 1.82126 -5.71795 0
M  V30 11803 H 1122.01 0.755087 -4.78985 0
M  V30 11804 N 1123.36 1.52689 0.390367 0
M  V30 11805 C 1124.29 1.72118 1.49836 0
M  V30 11806 C 1125.27 0.568986 1.5232 0
M  V30 11807 O 1126.45 0.798623 1.70746 0
M  V30 11808 C 1123.58 1.77754 2.88307 0
M  V30 11809 C 1122.62 2.99492 3.03655 0
M  V30 11810 S 1123.46 4.59496 2.74998 0
M  V30 11811 C 1124.61 4.67946 4.15665 0
M  V30 11812 H 1124.85 2.65826 1.3313 0
M  V30 11813 H 1122.38 1.42964 0.583153 0
M  V30 11814 H 1124.34 1.81687 3.68103 0
M  V30 11815 H 1123 0.851406 3.02341 0
M  V30 11816 H 1122.19 2.99973 4.05009 0
M  V30 11817 H 1121.79 2.93544 2.3175 0
M  V30 11818 H 1124.09 4.46476 5.09573 0
M  V30 11819 H 1125.03 5.69945 4.202 0
M  V30 11820 H 1125.44 3.96799 4.01511 0
M  V30 11821 N 1124.83 -0.648732 1.43629 0
M  V30 11822 C 1126.25 -0.964917 1.27128 0
M  V30 11823 C 1126.45 -2.00561 0.194251 0
M  V30 11824 O 1125.51 -2.48884 -0.42581 0
M  V30 11825 C 1126.82 -1.44491 2.6371 0
M  V30 11826 C 1128.37 -1.56133 2.71278 0
M  V30 11827 C 1128.84 -2.07521 4.08288 0
M  V30 11828 N 1130.33 -2.14817 4.10375 0
M  V30 11829 C 1131.07 -2.55712 5.13224 0
M  V30 11830 N 1130.56 -2.9587 6.26444 0
M  V30 11831 N 1132.36 -2.55691 5.00578 0
M  V30 11832 H 1124.51 0.0398357 2.12363 0
M  V30 11833 H 1126.77 -0.0447705 0.946942 0
M  V30 11834 H 1126.48 -0.754616 3.43509 0
M  V30 11835 H 1126.35 -2.41914 2.89409 0
M  V30 11836 H 1128.74 -2.24263 1.91808 0
M  V30 11837 H 1128.82 -0.571314 2.49338 0
M  V30 11838 H 1128.46 -1.39992 4.88226 0
M  V30 11839 H 1128.39 -3.07362 4.27594 0
M  V30 11840 H 1130.88 -1.86538 3.28652 0
M  V30 11841 H 1131.2 -3.25837 7.0075 0
M  V30 11842 H 1129.54 -2.93664 6.2991 0
M  V30 11843 H 1132.73 -2.23697 4.1119 0
M  V30 11844 H 1132.91 -2.87239 5.80859 0
M  V30 11845 N 1126.31 -1.30234 -0.887518 0
M  V30 11846 C 1127.59 -1.09572 -1.62029 0
M  V30 11847 C 1127.97 0.355877 -2.08079 0
M  V30 11848 O 1127.32 1.34692 -1.84582 0
M  V30 11849 C 1127.53 -2.0943 -2.79177 0
M  V30 11850 C 1128.88 -2.4101 -3.4957 0
M  V30 11851 O 1129.9 -2.0772 -2.89363 0
M  V30 11852 O 1128.76 -2.97943 -4.5814 0
M  V30 11853 H 1125.85 -0.420648 -0.712028 0
M  V30 11854 H 1128.4 -1.41651 -0.934517 0
M  V30 11855 H 1127.17 -3.07149 -2.42436 0
M  V30 11856 H 1126.79 -1.78154 -3.55453 0
M  V30 11857 N 1127.79 1.09952 -1.12909 0
M  V30 11858 C 1129.04 1.81386 -0.882163 0
M  V30 11859 C 1129.35 1.86376 0.593592 0
M  V30 11860 O 1130.56 2.54064 0.957275 0
M  V30 11861 C 1129.01 3.25824 -1.52861 0
M  V30 11862 C 1128.62 3.29117 -3.0395 0
M  V30 11863 C 1130.37 4.02051 -1.36216 0
M  V30 11864 C 1128.27 4.68047 -3.61505 0
M  V30 11865 H 1127.2 0.679701 -0.326378 0
M  V30 11866 H 1129.85 1.23614 -1.35616 0
M  V30 11867 H 1128.24 3.83624 -0.982271 0
M  V30 11868 H 1129.41 2.81114 -3.65119 0
M  V30 11869 H 1127.73 2.66379 -3.20049 0
M  V30 11870 H 1130.32 5.04683 -1.76633 0
M  V30 11871 H 1130.67 4.15171 -0.306391 0
M  V30 11872 H 1131.2 3.5068 -1.87799 0
M  V30 11873 H 1127.94 4.60128 -4.66865 0
M  V30 11874 H 1127.46 5.16397 -3.05114 0
M  V30 11875 H 1129.14 5.37018 -3.6086 0
M  V30 11876 N 1129.27 0.921757 1.27833 0
M  V30 11877 C 1130.52 0.55493 1.93916 0
M  V30 11878 C 1130.83 -0.907191 1.7329 0
M  V30 11879 O 1132.04 -1.38253 2.33663 0
M  V30 11880 C 1130.49 0.941644 3.47363 0
M  V30 11881 C 1130.1 2.42404 3.76755 0
M  V30 11882 C 1131.84 0.645785 4.19559 0
M  V30 11883 C 1129.75 2.75046 5.23549 0
M  V30 11884 H 1128.68 0.203818 0.72593 0
M  V30 11885 H 1131.33 1.12176 1.4522 0
M  V30 11886 H 1129.71 0.303519 3.94835 0
M  V30 11887 H 1130.89 3.10957 3.40062 0
M  V30 11888 H 1129.2 2.69118 3.17749 0
M  V30 11889 H 1131.8 0.866237 5.27637 0
M  V30 11890 H 1132.14 -0.41676 4.14209 0
M  V30 11891 H 1132.68 1.24274 3.7789 0
M  V30 11892 H 1129.42 3.80186 5.33984 0
M  V30 11893 H 1128.94 2.11138 5.6141 0
M  V30 11894 H 1130.61 2.62474 5.91368 0
M  V30 11895 N 1130.75 -1.41857 0.686609 0
M  V30 11896 C 1131.68 -2.33481 0.0298353 0
M  V30 11897 C 1132.66 -1.51329 -0.776756 0
M  V30 11898 O 1133.84 -1.79895 -0.731535 0
M  V30 11899 C 1130.97 -3.35065 -0.913707 0
M  V30 11900 C 1129.93 -4.2746 -0.214861 0
M  V30 11901 C 1129.25 -5.19346 -1.27215 0
M  V30 11902 C 1130.55 -5.14252 0.913367 0
M  V30 11903 H 1132.25 -2.8865 0.795067 0
M  V30 11904 H 1129.79 -1.38792 0.383785 0
M  V30 11905 H 1131.75 -3.98082 -1.38234 0
M  V30 11906 H 1130.47 -2.78226 -1.7105 0
M  V30 11907 H 1129.13 -3.65855 0.233651 0
M  V30 11908 H 1128.78 -4.58827 -2.06124 0
M  V30 11909 H 1128.48 -5.81996 -0.80961 0
M  V30 11910 H 1130 -5.85239 -1.74147 0
M  V30 11911 H 1131.41 -5.70887 0.525424 0
M  V30 11912 H 1129.81 -5.85796 1.30244 0
M  V30 11913 H 1130.88 -4.51949 1.75699 0
M  V30 11914 N 1132.22 -0.430739 -1.51599 0
M  V30 11915 C 1133.19 0.372319 -2.26156 0
M  V30 11916 C 1134.19 0.955338 -1.29344 0
M  V30 11917 O 1135.38 0.830823 -1.53111 0
M  V30 11918 C 1132.51 1.52613 -3.04831 0
M  V30 11919 H 1133.7 -0.280996 -2.98581 0
M  V30 11920 H 1131.26 -0.183749 -1.55216 0
M  V30 11921 H 1131.99 2.21569 -2.36807 0
M  V30 11922 H 1131.78 1.11433 -3.75932 0
M  V30 11923 H 1133.27 2.09366 -3.61325 0
M  V30 11924 N 1133.7 1.56767 -0.161869 0
M  V30 11925 C 1134.93 2.00964 0.492027 0
M  V30 11926 C 1135.35 1.04206 1.57437 0
M  V30 11927 O 1134.7 0.0413998 1.82453 0
M  V30 11928 C 1134.75 3.4502 1.07904 0
M  V30 11929 O 1134.47 4.38082 0.0399085 0
M  V30 11930 C 1135.98 4.04572 1.81209 0
M  V30 11931 H 1133.2 0.658911 0.126797 0
M  V30 11932 H 1135.74 2.0283 -0.260824 0
M  V30 11933 H 1133.89 3.43959 1.78243 0
M  V30 11934 H 1134.31 5.22372 0.471985 0
M  V30 11935 H 1135.78 5.07321 2.17554 0
M  V30 11936 H 1136.26 3.46126 2.70359 0
M  V30 11937 H 1136.87 4.09307 1.15534 0
M  V30 11938 N 1135.18 -0.111886 1.57202 0
M  V30 11939 C 1136.46 -0.849125 1.76208 0
M  V30 11940 C 1136.84 -1.97735 0.73919 0
M  V30 11941 O 1136.19 -2.27283 -0.235523 0
M  V30 11942 C 1136.4 -1.35924 3.21443 0
M  V30 11943 C 1137.74 -1.80874 3.84148 0
M  V30 11944 O 1138.77 -1.45587 3.25089 0
M  V30 11945 O 1137.63 -2.46065 4.87969 0
M  V30 11946 H 1134.72 -0.403761 0.721738 0
M  V30 11947 H 1137.27 -0.0950726 1.69433 0
M  V30 11948 H 1136.04 -0.550113 3.87414 0
M  V30 11949 H 1135.66 -2.17579 3.32784 0
M  V30 11950 N 1136.66 -1.52894 -0.382264 0
M  V30 11951 C 1137.59 -1.81122 -1.47367 0
M  V30 11952 C 1138.57 -0.663653 -1.56619 0
M  V30 11953 O 1139.75 -0.911898 -1.71459 0
M  V30 11954 C 1136.88 -1.98615 -2.84902 0
M  V30 11955 C 1135.84 -3.14328 -2.90485 0
M  V30 11956 C 1135.16 -3.17086 -4.30535 0
M  V30 11957 C 1136.46 -4.53263 -2.59519 0
M  V30 11958 H 1138.16 -2.72518 -1.23993 0
M  V30 11959 H 1135.7 -1.3113 -0.595049 0
M  V30 11960 H 1137.66 -2.16946 -3.61265 0
M  V30 11961 H 1136.38 -1.03915 -3.09628 0
M  V30 11962 H 1135.04 -2.95791 -2.16572 0
M  V30 11963 H 1134.69 -2.20055 -4.52311 0
M  V30 11964 H 1134.39 -3.94821 -4.3519 0
M  V30 11965 H 1135.91 -3.3758 -5.08795 0
M  V30 11966 H 1137.33 -4.71867 -3.25598 0
M  V30 11967 H 1135.72 -5.33115 -2.75514 0
M  V30 11968 H 1136.79 -4.59516 -1.54831 0
M  V30 11969 N 1138.14 0.641106 -1.43971 0
M  V30 11970 C 1139.1 1.73539 -1.49723 0
M  V30 11971 C 1140.1 1.56235 -0.380438 0
M  V30 11972 O 1141.29 1.61912 -0.642673 0
M  V30 11973 C 1138.42 3.1253 -1.36153 0
M  V30 11974 H 1139.62 1.69816 -2.47189 0
M  V30 11975 H 1137.17 0.853867 -1.30915 0
M  V30 11976 H 1137.9 3.21856 -0.39742 0
M  V30 11977 H 1137.69 3.26496 -2.17124 0
M  V30 11978 H 1139.18 3.92303 -1.43138 0
M  V30 11979 N 1139.62 1.30703 0.880598 0
M  V30 11980 C 1140.57 1.14062 1.97418 0
M  V30 11981 C 1141.55 0.0545541 1.60807 0
M  V30 11982 O 1142.74 0.278344 1.74798 0
M  V30 11983 C 1139.87 0.839062 3.32888 0
M  V30 11984 C 1138.96 1.96559 3.75799 0
M  V30 11985 N 1139.35 3.21145 3.90768 0
M  V30 11986 C 1137.65 1.86294 4.05229 0
M  V30 11987 C 1138.35 3.94766 4.27241 0
M  V30 11988 N 1137.32 3.2285 4.37343 0
M  V30 11989 H 1141.12 2.08548 2.07087 0
M  V30 11990 H 1138.64 1.22106 1.0707 0
M  V30 11991 H 1140.64 0.700851 4.10967 0
M  V30 11992 H 1139.3 -0.0976808 3.24553 0
M  V30 11993 H 1140.31 3.56384 3.75781 0
M  V30 11994 H 1136.98 1.00016 4.05343 0
M  V30 11995 H 1138.37 5.02076 4.46508 0
M  V30 11996 N 1141.09 -1.09351 1.1349 0
M  V30 11997 C 1142.04 -2.14179 0.781739 0
M  V30 11998 C 1143.03 -1.59325 -0.224575 0
M  V30 11999 O 1144.22 -1.76977 -0.0283747 0
M  V30 12000 C 1141.35 -3.42386 0.250278 0
M  V30 12001 C 1140.43 -4.04147 1.28555 0
M  V30 12002 N 1140.83 -4.40451 2.4867 0
M  V30 12003 C 1139.12 -4.31356 1.13351 0
M  V30 12004 C 1139.82 -4.89115 3.14867 0
M  V30 12005 N 1138.8 -4.86618 2.42289 0
M  V30 12006 H 1142.6 -2.40055 1.69561 0
M  V30 12007 H 1140.12 -1.26587 1.01733 0
M  V30 12008 H 1142.11 -4.16895 -0.0209767 0
M  V30 12009 H 1140.77 -3.17965 -0.657904 0
M  V30 12010 H 1141.78 -4.31789 2.8597 0
M  V30 12011 H 1138.46 -4.16536 0.28355 0
M  V30 12012 H 1139.85 -5.26663 4.17224 0
M  V30 12013 N 1142.57 -0.928524 -1.27343 0
M  V30 12014 C 1143.5 -0.445627 -2.29208 0
M  V30 12015 C 1144.48 0.494508 -1.62753 0
M  V30 12016 O 1145.67 0.399082 -1.90055 0
M  V30 12017 C 1142.8 0.301684 -3.45987 0
M  V30 12018 C 1141.75 -0.550695 -4.24442 0
M  V30 12019 C 1141.08 0.325833 -5.33706 0
M  V30 12020 C 1142.38 -1.81559 -4.89728 0
M  V30 12021 H 1144.07 -1.29696 -2.69851 0
M  V30 12022 H 1141.62 -0.625085 -1.29725 0
M  V30 12023 H 1143.57 0.650455 -4.1635 0
M  V30 12024 H 1142.29 1.18705 -3.04264 0
M  V30 12025 H 1140.95 -0.882185 -3.55827 0
M  V30 12026 H 1140.6 1.21018 -4.88225 0
M  V30 12027 H 1140.3 -0.240994 -5.87106 0
M  V30 12028 H 1141.83 0.670156 -6.06911 0
M  V30 12029 H 1143.24 -1.53483 -5.52373 0
M  V30 12030 H 1141.64 -2.32598 -5.53189 0
M  V30 12031 H 1142.71 -2.53461 -4.13383 0
M  V30 12032 N 1144.05 1.41491 -0.694123 0
M  V30 12033 C 1145.47 1.55358 -0.365532 0
M  V30 12034 C 1145.67 1.66994 1.12762 0
M  V30 12035 O 1144.72 1.64756 1.91342 0
M  V30 12036 C 1146.03 2.79352 -1.11279 0
M  V30 12037 C 1147.58 2.93147 -1.097 0
M  V30 12038 C 1148.06 4.20027 -1.82597 0
M  V30 12039 N 1149.55 4.26981 -1.7956 0
M  V30 12040 C 1150.28 5.24013 -2.32805 0
M  V30 12041 N 1149.78 6.27083 -2.94515 0
M  V30 12042 N 1151.57 5.15943 -2.23069 0
M  V30 12043 H 1143.72 1.32183 -1.66257 0
M  V30 12044 H 1145.99 0.637624 -0.701527 0
M  V30 12045 H 1145.69 2.76958 -2.16765 0
M  V30 12046 H 1145.57 3.70827 -0.690439 0
M  V30 12047 H 1147.95 2.95057 -0.0504037 0
M  V30 12048 H 1148.03 2.02849 -1.55839 0
M  V30 12049 H 1147.68 4.18878 -2.87235 0
M  V30 12050 H 1147.61 5.09294 -1.33893 0
M  V30 12051 H 1150.1 3.53129 -1.34567 0
M  V30 12052 H 1150.41 6.97511 -3.32714 0
M  V30 12053 H 1148.76 6.27589 -2.98592 0
M  V30 12054 H 1151.95 4.34346 -1.74532 0
M  V30 12055 H 1152.12 5.91396 -2.64868 0
M  V30 12056 N 1145.53 0.438773 1.51369 0
M  V30 12057 C 1146.78 -0.128723 2.01289 0
M  V30 12058 C 1147.09 -1.43659 1.32745 0
M  V30 12059 O 1148.3 -2.08712 1.73642 0
M  V30 12060 C 1146.75 -0.279945 3.5881 0
M  V30 12061 C 1146.36 1.01758 4.3629 0
M  V30 12062 C 1148.1 -0.801133 4.16872 0
M  V30 12063 C 1146.01 0.831918 5.85519 0
M  V30 12064 H 1144.94 -0.0518814 0.752213 0
M  V30 12065 H 1147.59 0.568753 1.74463 0
M  V30 12066 H 1145.97 -1.04046 3.82087 0
M  V30 12067 H 1147.15 1.78653 4.24758 0
M  V30 12068 H 1145.46 1.46741 3.89687 0
M  V30 12069 H 1148.06 -0.956548 5.26074 0
M  V30 12070 H 1148.4 -1.78396 3.76139 0
M  V30 12071 H 1148.94 -0.0988934 3.97677 0
M  V30 12072 H 1145.67 1.78716 6.30667 0
M  V30 12073 H 1145.19 0.102785 5.99712 0
M  V30 12074 H 1146.87 0.485681 6.45174 0
M  V30 12075 N 1147.01 -1.56678 0.170181 0
M  V30 12076 C 1148.25 -1.96849 -0.475064 0
M  V30 12077 C 1148.58 -1.05611 -1.6333 0
M  V30 12078 O 1147.84 -0.0899708 -1.95493 0
M  V30 12079 C 1148.13 -3.43103 -1.00076 0
M  V30 12080 C 1147.8 -4.50881 0.0414538 0
M  V30 12081 C 1146.46 -4.80082 0.327894 0
M  V30 12082 C 1148.81 -5.15791 0.748936 0
M  V30 12083 C 1146.14 -5.71491 1.32722 0
M  V30 12084 C 1148.49 -6.08278 1.73724 0
M  V30 12085 C 1147.16 -6.35847 2.03114 0
M  V30 12086 H 1146.43 -0.72032 -0.173838 0
M  V30 12087 H 1149.08 -1.89701 0.261903 0
M  V30 12088 H 1147.38 -3.47197 -1.81553 0
M  V30 12089 H 1149.08 -3.71525 -1.50899 0
M  V30 12090 H 1145.67 -4.2817 -0.191976 0
M  V30 12091 H 1149.85 -4.93344 0.540852 0
M  V30 12092 H 1145.11 -5.91134 1.56112 0
M  V30 12093 H 1149.28 -6.57643 2.29082 0
M  V30 12094 H 1146.91 -7.06479 2.80698 0
M  V30 12095 N 1148.48 0.103547 -1.57259 0
M  V30 12096 C 1149.43 1.12621 -2.01458 0
M  V30 12097 C 1150.4 1.40282 -0.889391 0
M  V30 12098 O 1151.59 1.51887 -1.15477 0
M  V30 12099 C 1148.73 2.44352 -2.43692 0
M  V30 12100 C 1147.84 2.23495 -3.69695 0
M  V30 12101 C 1146.97 3.48565 -4.00844 0
M  V30 12102 C 1146.01 3.22932 -5.19982 0
M  V30 12103 N 1145.15 4.40246 -5.46926 0
M  V30 12104 H 1149.99 0.742315 -2.88606 0
M  V30 12105 H 1147.53 0.355016 -1.42752 0
M  V30 12106 H 1149.48 3.2122 -2.66221 0
M  V30 12107 H 1148.11 2.80605 -1.59565 0
M  V30 12108 H 1147.17 1.3747 -3.54692 0
M  V30 12109 H 1148.48 2.0054 -4.56711 0
M  V30 12110 H 1147.63 4.33844 -4.24104 0
M  V30 12111 H 1146.37 3.74565 -3.12333 0
M  V30 12112 H 1145.38 2.36045 -4.96551 0
M  V30 12113 H 1146.6 2.98286 -6.10084 0
M  V30 12114 H 1144.55 4.66338 -4.61373 0
M  V30 12115 H 1144.46 4.20452 -6.28296 0
M  V30 12116 H 1145.73 5.26614 -5.74716 0
M  V30 12117 N 1149.96 1.53094 0.37415 0
M  V30 12118 C 1151.24 1.59456 1.13283 0
M  V30 12119 C 1151.62 0.396821 2.07337 0
M  V30 12120 O 1150.97 -0.613659 2.20106 0
M  V30 12121 C 1151.18 2.94069 1.87948 0
M  V30 12122 C 1152.52 3.4834 2.42785 0
M  V30 12123 O 1153.55 2.96042 1.98085 0
M  V30 12124 O 1152.41 4.39747 3.24477 0
M  V30 12125 H 1149.5 0.643731 0.519171 0
M  V30 12126 H 1152.05 1.65434 0.378105 0
M  V30 12127 H 1150.82 3.72685 1.19255 0
M  V30 12128 H 1150.44 2.91544 2.70348 0
M  V30 12129 N 1151.44 -0.633461 1.44309 0
M  V30 12130 C 1152.37 -1.75676 1.53819 0
M  V30 12131 C 1153.35 -1.65537 0.391365 0
M  V30 12132 O 1154.54 -1.84332 0.611181 0
M  V30 12133 C 1151.67 -3.14197 1.47979 0
M  V30 12134 C 1150.62 -3.39122 2.61113 0
M  V30 12135 C 1149.95 -4.77648 2.40325 0
M  V30 12136 C 1151.25 -3.31914 4.03274 0
M  V30 12137 H 1152.94 -1.67974 2.47841 0
M  V30 12138 H 1150.49 -0.8067 1.19283 0
M  V30 12139 H 1152.44 -3.92553 1.53233 0
M  V30 12140 H 1151.16 -3.22677 0.504718 0
M  V30 12141 H 1149.82 -2.63145 2.55245 0
M  V30 12142 H 1149.47 -4.82829 1.41016 0
M  V30 12143 H 1149.17 -4.95284 3.16177 0
M  V30 12144 H 1150.69 -5.58237 2.47394 0
M  V30 12145 H 1152.11 -4.00178 4.10524 0
M  V30 12146 H 1150.5 -3.61085 4.7931 0
M  V30 12147 H 1151.57 -2.29761 4.2701 0
M  V30 12148 N 1152.92 -1.31168 -0.873655 0
M  V30 12149 C 1153.85 -1.14325 -1.98651 0
M  V30 12150 C 1154.86 -0.0833421 -1.62587 0
M  V30 12151 O 1156.05 -0.330477 -1.75414 0
M  V30 12152 C 1153.15 -0.723747 -3.31082 0
M  V30 12153 C 1152.33 -1.86787 -3.95512 0
M  V30 12154 C 1151.38 -1.43503 -5.06254 0
M  V30 12155 O 1150.41 -2.14409 -5.27273 0
M  V30 12156 N 1151.61 -0.320362 -5.79615 0
M  V30 12157 H 1154.38 -2.10179 -2.13647 0
M  V30 12158 H 1151.94 -1.23454 -1.04742 0
M  V30 12159 H 1153.93 -0.416971 -4.02546 0
M  V30 12160 H 1152.5 0.143073 -3.12272 0
M  V30 12161 H 1151.72 -2.34216 -3.17075 0
M  V30 12162 H 1153.01 -2.6343 -4.35296 0
M  V30 12163 H 1152.41 0.270215 -5.65054 0
M  V30 12164 H 1150.96 -0.0731 -6.51759 0
M  V30 12165 N 1154.4 1.08748 -1.14068 0
M  V30 12166 C 1155.34 2.15573 -0.824425 0
M  V30 12167 C 1156.31 1.64683 0.216522 0
M  V30 12168 O 1157.5 1.90601 0.0872193 0
M  V30 12169 C 1154.64 3.43756 -0.30423 0
M  V30 12170 C 1153.75 4.08512 -1.40506 0
M  V30 12171 C 1152.89 5.24477 -0.842479 0
M  V30 12172 C 1151.93 5.81167 -1.92123 0
M  V30 12173 N 1151.06 6.88483 -1.37608 0
M  V30 12174 H 1155.9 2.41968 -1.73941 0
M  V30 12175 H 1153.44 1.18751 -0.868143 0
M  V30 12176 H 1155.4 4.17197 0.0155546 0
M  V30 12177 H 1154.03 3.17658 0.573868 0
M  V30 12178 H 1153.08 3.32866 -1.84131 0
M  V30 12179 H 1154.39 4.46669 -2.2201 0
M  V30 12180 H 1153.55 6.04842 -0.474389 0
M  V30 12181 H 1152.28 4.877 0.00355212 0
M  V30 12182 H 1151.29 4.99458 -2.29831 0
M  V30 12183 H 1152.51 6.20003 -2.77079 0
M  V30 12184 H 1150.46 6.53672 -0.552168 0
M  V30 12185 H 1150.38 7.25446 -2.12752 0
M  V30 12186 H 1151.65 7.72588 -1.03578 0
M  V30 12187 N 1155.87 0.935264 1.26849 0
M  V30 12188 C 1156.81 0.384563 2.24936 0
M  V30 12189 C 1157.79 -0.523311 1.53949 0
M  V30 12190 O 1158.97 -0.462103 1.82748 0
M  V30 12191 C 1156.1 -0.448043 3.35723 0
M  V30 12192 C 1155.14 0.397466 4.24644 0
M  V30 12193 S 1155.98 1.81773 5.03705 0
M  V30 12194 C 1157.13 0.99302 6.17972 0
M  V30 12195 H 1157.36 1.21588 2.713 0
M  V30 12196 H 1154.9 0.737966 1.35622 0
M  V30 12197 H 1156.86 -0.922541 3.99999 0
M  V30 12198 H 1155.52 -1.25397 2.87983 0
M  V30 12199 H 1154.71 -0.240176 5.03427 0
M  V30 12200 H 1154.31 0.806423 3.65202 0
M  V30 12201 H 1156.6 0.232526 6.77101 0
M  V30 12202 H 1157.55 1.75412 6.86029 0
M  V30 12203 H 1157.95 0.531692 5.6199 0
M  V30 12204 N 1157.35 -1.41121 0.701616 0
M  V30 12205 C 1158.32 -2.29148 0.0490091 0
M  V30 12206 C 1159.32 -1.44679 -0.701763 0
M  V30 12207 O 1160.51 -1.65757 -0.53575 0
M  V30 12208 C 1157.64 -3.2766 -0.940837 0
M  V30 12209 H 1158.83 -2.88354 0.824133 0
M  V30 12210 H 1156.38 -1.49209 0.465457 0
M  V30 12211 H 1157.12 -2.73445 -1.74351 0
M  V30 12212 H 1156.9 -3.89997 -0.405551 0
M  V30 12213 H 1158.39 -3.93609 -1.39507 0
M  V30 12214 N 1158.83 -0.446794 -1.51134 0
M  V30 12215 C 1159.74 0.36579 -2.31731 0
M  V30 12216 C 1160.76 1.01886 -1.41051 0
M  V30 12217 O 1161.93 1.01216 -1.74119 0
M  V30 12218 C 1159 1.44705 -3.15058 0
M  V30 12219 C 1158.06 0.813129 -4.21529 0
M  V30 12220 C 1157.29 1.84287 -5.00873 0
M  V30 12221 O 1157.51 3.06633 -4.8097 0
M  V30 12222 O 1156.45 1.42816 -5.84711 0
M  V30 12223 H 1160.27 -0.292436 -3.02289 0
M  V30 12224 H 1157.86 -0.209129 -1.47929 0
M  V30 12225 H 1159.74 2.07393 -3.66833 0
M  V30 12226 H 1158.42 2.08919 -2.47254 0
M  V30 12227 H 1157.32 0.147953 -3.73807 0
M  V30 12228 H 1158.66 0.214331 -4.91733 0
M  V30 12229 N 1160.31 1.56586 -0.178487 0
M  V30 12230 C 1161.55 1.9739 0.465306 0
M  V30 12231 C 1161.89 1.06474 1.6241 0
M  V30 12232 O 1161.16 0.113316 1.9417 0
M  V30 12233 C 1161.45 3.47577 0.941408 0
M  V30 12234 C 1161.3 4.49271 -0.218054 0
M  V30 12235 C 1162.62 4.01038 1.81263 0
M  V30 12236 H 1159.74 0.717676 0.167663 0
M  V30 12237 H 1162.38 1.88128 -0.266067 0
M  V30 12238 H 1160.53 3.556 1.56463 0
M  V30 12239 H 1162.2 4.53301 -0.855332 0
M  V30 12240 H 1160.44 4.24936 -0.872441 0
M  V30 12241 H 1161.11 5.51776 0.157315 0
M  V30 12242 H 1163.59 3.9569 1.28718 0
M  V30 12243 H 1162.47 5.06526 2.11476 0
M  V30 12244 H 1162.73 3.45288 2.76096 0
M  V30 12245 N 1161.79 -0.095206 1.57312 0
M  V30 12246 C 1163.03 -0.797142 1.85715 0
M  V30 12247 C 1163.36 -1.79275 0.767171 0
M  V30 12248 O 1162.63 -1.94808 -0.206584 0
M  V30 12249 H 1161.21 -0.297382 0.685254 0
M  V30 12250 H 1163.87 -0.0768617 1.94748 0
M  V30 12251 H 1162.96 -1.32779 2.82447 0
M  V30 12252 N 1163.26 -1.53291 -0.366026 0
M  V30 12253 C 1164.49 -1.73108 -1.1277 0
M  V30 12254 C 1164.9 -0.459662 -1.83531 0
M  V30 12255 O 1164.25 0.577151 -1.74398 0
M  V30 12256 C 1164.31 -2.84137 -2.20242 0
M  V30 12257 C 1163.97 -4.24503 -1.69252 0
M  V30 12258 C 1164.97 -5.06866 -1.15684 0
M  V30 12259 C 1162.65 -4.70912 -1.74778 0
M  V30 12260 C 1164.65 -6.33728 -0.683191 0
M  V30 12261 C 1162.33 -5.97752 -1.27025 0
M  V30 12262 C 1163.33 -6.78992 -0.738858 0
M  V30 12263 O 1163.02 -8.03452 -0.268375 0
M  V30 12264 H 1162.75 -0.582439 -0.343134 0
M  V30 12265 H 1165.31 -2.00828 -0.430969 0
M  V30 12266 H 1163.54 -2.5189 -2.93408 0
M  V30 12267 H 1165.23 -2.92136 -2.818 0
M  V30 12268 H 1165.99 -4.72185 -1.10753 0
M  V30 12269 H 1161.87 -4.07751 -2.15081 0
M  V30 12270 H 1165.41 -6.97086 -0.267746 0
M  V30 12271 H 1161.31 -6.31933 -1.31649 0
M  V30 12272 H 1162.08 -8.17581 -0.387745 0
M  V30 12273 N 1164.74 0.6258 -1.44643 0
M  V30 12274 C 1166.02 1.38439 -1.38181 0
M  V30 12275 C 1166.4 2.11056 -0.0431928 0
M  V30 12276 O 1165.75 2.06683 0.974383 0
M  V30 12277 C 1165.96 2.34639 -2.58352 0
M  V30 12278 C 1167.31 2.97807 -3.02649 0
M  V30 12279 O 1168.33 2.44963 -2.58595 0
M  V30 12280 O 1167.19 3.93682 -3.79048 0
M  V30 12281 H 1164.28 0.619852 -0.54746 0
M  V30 12282 H 1166.83 0.650409 -1.56741 0
M  V30 12283 H 1165.6 1.80116 -3.47382 0
M  V30 12284 H 1165.22 3.15446 -2.42032 0
M  V30 12285 N 1166.22 1.31629 0.866686 0
M  V30 12286 C 1167.64 1.10358 1.15296 0
M  V30 12287 C 1167.84 -0.123807 2.01119 0
M  V30 12288 O 1166.89 -0.81219 2.39081 0
M  V30 12289 C 1168.21 2.37684 1.84193 0
M  V30 12290 C 1169.75 2.43326 1.9688 0
M  V30 12291 C 1170.23 3.70541 2.69191 0
M  V30 12292 N 1171.72 3.71454 2.76724 0
M  V30 12293 C 1172.45 4.66585 3.33295 0
M  V30 12294 N 1171.95 5.72075 3.90771 0
M  V30 12295 N 1173.74 4.541 3.31284 0
M  V30 12296 H 1165.89 2.10343 0.29487 0
M  V30 12297 H 1168.16 0.928096 0.193239 0
M  V30 12298 H 1167.86 3.27352 1.28582 0
M  V30 12299 H 1167.74 2.47731 2.84445 0
M  V30 12300 H 1170.12 1.54124 2.51654 0
M  V30 12301 H 1170.21 2.3724 0.956596 0
M  V30 12302 H 1169.85 4.60111 2.15083 0
M  V30 12303 H 1169.78 3.73894 3.70825 0
M  V30 12304 H 1172.27 2.952 2.35936 0
M  V30 12305 H 1172.58 6.40738 4.32058 0
M  V30 12306 H 1170.93 5.75844 3.89138 0
M  V30 12307 H 1174.12 3.70861 2.85622 0
M  V30 12308 H 1174.29 5.28416 3.75074 0
M  V30 12309 N 1167.7 -1.08142 1.14644 0
M  V30 12310 C 1168.65 -2.17229 0.831513 0
M  V30 12311 C 1169.64 -1.68311 -0.19173 0
M  V30 12312 O 1170.85 -1.79937 -0.0475596 0
M  V30 12313 H 1167.22 -0.708807 0.25119 0
M  V30 12314 H 1169.19 -2.41014 1.75939 0
M  V30 12315 C 1167.94 -3.46146 0.328347 0
M  V30 12316 H 1167.27 -3.84166 1.10708 0
M  V30 12317 H 1168.71 -4.23747 0.146568 0
M  V30 12318 C 1167.16 -3.2327 -0.948594 0
M  V30 12319 O 1167.69 -3.47111 -2.0218 0
M  V30 12320 N 1165.9 -2.76799 -0.884909 0
M  V30 12321 H 1165.45 -2.57597 -0.011399 0
M  V30 12322 H 1165.41 -2.61871 -1.73985 0
M  V30 12323 N 1169.18 -0.941978 -1.26351 0
M  V30 12324 C 1170.13 -0.443011 -2.28342 0
M  V30 12325 C 1171.12 0.48013 -1.62453 0
M  V30 12326 O 1172.33 0.358255 -1.76399 0
M  V30 12327 H 1168.7 -0.124728 -0.741584 0
M  V30 12328 H 1170.67 -1.31573 -2.67827 0
M  V30 12329 C 1169.42 0.275675 -3.46605 0
M  V30 12330 H 1168.74 -0.425504 -3.97529 0
M  V30 12331 H 1170.18 0.589012 -4.19889 0
M  V30 12332 C 1168.64 1.49376 -3.01974 0
M  V30 12333 O 1169.17 2.59203 -3.06883 0
M  V30 12334 N 1167.38 1.35061 -2.57307 0
M  V30 12335 H 1166.93 0.457045 -2.53513 0
M  V30 12336 H 1166.88 2.16681 -2.27809 0
M  V30 12337 N 1170.66 1.40747 -0.709091 0
M  V30 12338 C 1171.6 2.30741 -0.0523584 0
M  V30 12339 C 1172.57 1.4784 0.757145 0
M  V30 12340 O 1173.76 1.76595 0.72242 0
M  V30 12341 C 1170.9 3.34 0.868203 0
M  V30 12342 C 1170.01 4.31972 0.0488686 0
M  V30 12343 C 1169.15 5.223 0.968311 0
M  V30 12344 C 1168.18 6.11934 0.142682 0
M  V30 12345 N 1167.32 6.947 1.01665 0
M  V30 12346 H 1172.16 2.86338 -0.825509 0
M  V30 12347 H 1169.7 1.41013 -0.418785 0
M  V30 12348 H 1171.66 3.92431 1.41611 0
M  V30 12349 H 1170.29 2.79921 1.6076 0
M  V30 12350 H 1169.34 3.75377 -0.616137 0
M  V30 12351 H 1170.65 4.95291 -0.590625 0
M  V30 12352 H 1169.8 5.85631 1.58498 0
M  V30 12353 H 1168.54 4.5924 1.64164 0
M  V30 12354 H 1167.55 5.47639 -0.486965 0
M  V30 12355 H 1168.77 6.77052 -0.527046 0
M  V30 12356 H 1166.72 6.34236 1.67575 0
M  V30 12357 H 1166.64 7.54759 0.433045 0
M  V30 12358 H 1167.9 7.62487 1.6197 0
M  V30 12359 N 1172.13 0.454803 1.50895 0
M  V30 12360 C 1173.07 -0.383826 2.25963 0
M  V30 12361 C 1174.08 -0.971263 1.30653 0
M  V30 12362 O 1175.27 -0.862434 1.56283 0
M  V30 12363 C 1172.37 -1.55069 3.01342 0
M  V30 12364 C 1171.54 -1.07899 4.23883 0
M  V30 12365 C 1170.6 -2.118 4.81692 0
M  V30 12366 O 1169.63 -1.70523 5.43057 0
M  V30 12367 N 1170.83 -3.44459 4.67256 0
M  V30 12368 H 1173.59 0.259646 2.98573 0
M  V30 12369 H 1171.15 0.284661 1.59378 0
M  V30 12370 H 1173.15 -2.24236 3.36898 0
M  V30 12371 H 1171.72 -2.09917 2.31633 0
M  V30 12372 H 1170.94 -0.213773 3.9362 0
M  V30 12373 H 1172.22 -0.741501 5.03368 0
M  V30 12374 H 1171.62 -3.80716 4.18416 0
M  V30 12375 H 1170.18 -4.0947 5.07127 0
M  V30 12376 N 1173.61 -1.56489 0.186789 0
M  V30 12377 C 1174.56 -2.15311 -0.750024 0
M  V30 12378 C 1175.55 -1.09156 -1.18211 0
M  V30 12379 O 1176.74 -1.3524 -1.14189 0
M  V30 12380 C 1173.87 -2.80952 -1.97284 0
M  V30 12381 C 1172.95 -3.94286 -1.56204 0
M  V30 12382 N 1173.34 -4.98406 -0.861705 0
M  V30 12383 C 1171.64 -4.05733 -1.85194 0
M  V30 12384 C 1172.34 -5.77977 -0.657078 0
M  V30 12385 N 1171.32 -5.30116 -1.20326 0
M  V30 12386 H 1175.12 -2.93176 -0.206148 0
M  V30 12387 H 1172.63 -1.62395 -0.0133163 0
M  V30 12388 H 1174.63 -3.21479 -2.65437 0
M  V30 12389 H 1173.29 -2.04572 -2.52152 0
M  V30 12390 H 1174.3 -5.15302 -0.518067 0
M  V30 12391 H 1170.98 -3.40472 -2.4163 0
M  V30 12392 H 1172.37 -6.71822 -0.102123 0
M  V30 12393 N 1175.09 0.086862 -1.5736 0
M  V30 12394 C 1176.04 1.11134 -1.99081 0
M  V30 12395 C 1177.02 1.35318 -0.870506 0
M  V30 12396 O 1178.22 1.35871 -1.13437 0
M  V30 12397 C 1175.34 2.42931 -2.42569 0
M  V30 12398 C 1174.43 2.22085 -3.61302 0
M  V30 12399 N 1174.82 1.71128 -4.75971 0
M  V30 12400 C 1173.12 2.52619 -3.67559 0
M  V30 12401 C 1173.82 1.64745 -5.57883 0
M  V30 12402 N 1172.8 2.10257 -5.01291 0
M  V30 12403 H 1176.6 0.710431 -2.85184 0
M  V30 12404 H 1174.11 0.294168 -1.59714 0
M  V30 12405 H 1176.11 3.17069 -2.7069 0
M  V30 12406 H 1174.77 2.83751 -1.57846 0
M  V30 12407 H 1175.78 1.40207 -4.9856 0
M  V30 12408 H 1172.46 2.96908 -2.93516 0
M  V30 12409 H 1173.85 1.26329 -6.59917 0
M  V30 12410 N 1176.57 1.53483 0.357892 0
M  V30 12411 C 1177.98 1.43426 0.700073 0
M  V30 12412 C 1178.18 0.579493 1.92987 0
M  V30 12413 O 1177.24 0.0649086 2.52417 0
M  V30 12414 C 1178.55 2.86723 0.906099 0
M  V30 12415 C 1180.1 2.96405 1.00563 0
M  V30 12416 C 1180.58 4.4078 1.24407 0
M  V30 12417 N 1182.07 4.44243 1.3116 0
M  V30 12418 C 1182.8 5.53069 1.51333 0
M  V30 12419 N 1182.3 6.71928 1.68774 0
M  V30 12420 N 1184.09 5.40659 1.53765 0
M  V30 12421 H 1176.24 2.07559 -0.450894 0
M  V30 12422 H 1178.5 0.937649 -0.139711 0
M  V30 12423 H 1178.21 3.51622 0.0741579 0
M  V30 12424 H 1178.08 3.30827 1.81199 0
M  V30 12425 H 1180.47 2.31656 1.8281 0
M  V30 12426 H 1180.55 2.55684 0.0769512 0
M  V30 12427 H 1180.2 5.06105 0.426575 0
M  V30 12428 H 1180.13 4.7908 2.18608 0
M  V30 12429 H 1182.62 3.58587 1.19265 0
M  V30 12430 H 1182.93 7.50634 1.83762 0
M  V30 12431 H 1181.28 6.749 1.65937 0
M  V30 12432 H 1184.47 4.46764 1.39713 0
M  V30 12433 H 1184.64 6.25535 1.69146 0
M  V30 12434 N 1178.05 -0.61812 1.44973 0
M  V30 12435 C 1178.98 -1.74035 1.55673 0
M  V30 12436 C 1179.96 -1.65112 0.4089 0
M  V30 12437 O 1181.14 -1.83673 0.630698 0
M  V30 12438 C 1178.27 -3.1261 1.51303 0
M  V30 12439 C 1177.23 -3.36334 2.64696 0
M  V30 12440 C 1176.55 -4.75072 2.45378 0
M  V30 12441 C 1177.85 -3.27618 4.06772 0
M  V30 12442 H 1179.55 -1.65336 2.49608 0
M  V30 12443 H 1177.09 -0.794003 1.20132 0
M  V30 12444 H 1179.04 -3.90906 1.57388 0
M  V30 12445 H 1177.77 -3.22123 0.538914 0
M  V30 12446 H 1176.43 -2.60423 2.58022 0
M  V30 12447 H 1176.08 -4.81306 1.46129 0
M  V30 12448 H 1175.78 -4.91903 3.21412 0
M  V30 12449 H 1177.3 -5.55582 2.53301 0
M  V30 12450 H 1178.71 -3.95802 4.14746 0
M  V30 12451 H 1177.11 -3.55981 4.83113 0
M  V30 12452 H 1178.18 -2.25219 4.29423 0
M  V30 12453 N 1179.52 -1.32087 -0.859693 0
M  V30 12454 C 1180.45 -1.23204 -1.98351 0
M  V30 12455 C 1181.43 -0.116974 -1.69697 0
M  V30 12456 O 1182.62 -0.303301 -1.91817 0
M  V30 12457 C 1179.75 -0.949171 -3.34078 0
M  V30 12458 C 1178.7 -2.02493 -3.77069 0
M  V30 12459 C 1178.03 -1.59455 -5.1037 0
M  V30 12460 C 1179.33 -3.43934 -3.93074 0
M  V30 12461 H 1181.02 -2.17227 -2.0604 0
M  V30 12462 H 1178.57 -1.04577 -0.989931 0
M  V30 12463 H 1180.52 -0.873594 -4.12245 0
M  V30 12464 H 1179.25 0.0267095 -3.26589 0
M  V30 12465 H 1177.91 -2.09057 -3.01149 0
M  V30 12466 H 1177.55 -0.606256 -4.99333 0
M  V30 12467 H 1177.25 -2.31429 -5.40106 0
M  V30 12468 H 1178.78 -1.53325 -5.91036 0
M  V30 12469 H 1180.19 -3.39986 -4.61608 0
M  V30 12470 H 1178.59 -4.14214 -4.3422 0
M  V30 12471 H 1179.66 -3.83965 -2.9614 0
M  V30 12472 N 1181 1.07532 -1.15215 0
M  V30 12473 C 1181.93 2.1668 -0.870171 0
M  V30 12474 C 1182.91 1.69161 0.178483 0
M  V30 12475 O 1184.1 1.94172 0.0332489 0
M  V30 12476 C 1181.23 3.45464 -0.356666 0
M  V30 12477 C 1180.18 4.06424 -1.34179 0
M  V30 12478 C 1179.51 5.30266 -0.687206 0
M  V30 12479 C 1180.81 4.46666 -2.70715 0
M  V30 12480 H 1182.5 2.40526 -1.7829 0
M  V30 12481 H 1180.05 1.15598 -0.858665 0
M  V30 12482 H 1182 4.21144 -0.146947 0
M  V30 12483 H 1180.72 3.21199 0.591527 0
M  V30 12484 H 1179.38 3.32786 -1.53783 0
M  V30 12485 H 1179.03 5.0229 0.267077 0
M  V30 12486 H 1178.73 5.72009 -1.34462 0
M  V30 12487 H 1180.26 6.08653 -0.487218 0
M  V30 12488 H 1181.67 5.13483 -2.54966 0
M  V30 12489 H 1180.07 4.99355 -3.32813 0
M  V30 12490 H 1181.14 3.58123 -3.26919 0
M  V30 12491 N 1182.48 0.948665 1.2585 0
M  V30 12492 C 1183.72 0.60782 1.95154 0
M  V30 12493 C 1184.08 -0.838703 1.72713 0
M  V30 12494 O 1185.29 -1.28885 2.35886 0
M  V30 12495 C 1183.56 0.949628 3.44553 0
M  V30 12496 S 1185.12 0.720456 4.32845 0
M  V30 12497 H 1181.93 0.223613 0.674921 0
M  V30 12498 H 1184.54 1.22157 1.52636 0
M  V30 12499 H 1183.24 1.99966 3.58388 0
M  V30 12500 H 1182.77 0.325891 3.92048 0
M  V30 12501 H 1184.79 -0.411697 4.94489 0
M  V30 12502 N 1183.96 -1.40369 0.716545 0
M  V30 12503 C 1184.89 -2.33365 0.0793533 0
M  V30 12504 C 1185.87 -1.52943 -0.744482 0
M  V30 12505 O 1187.05 -1.81406 -0.693212 0
M  V30 12506 C 1184.18 -3.36928 -0.842429 0
M  V30 12507 C 1183.14 -4.2782 -0.124142 0
M  V30 12508 C 1182.46 -5.21928 -1.1617 0
M  V30 12509 C 1183.76 -5.12199 1.02224 0
M  V30 12510 H 1185.46 -2.86899 0.856115 0
M  V30 12511 H 1183 -1.37946 0.413138 0
M  V30 12512 H 1184.96 -4.00925 -1.29759 0
M  V30 12513 H 1183.68 -2.81791 -1.6511 0
M  V30 12514 H 1182.34 -3.65277 0.311201 0
M  V30 12515 H 1181.99 -4.63096 -1.96345 0
M  V30 12516 H 1181.69 -5.83582 -0.685978 0
M  V30 12517 H 1183.21 -5.88802 -1.61694 0
M  V30 12518 H 1184.63 -5.69644 0.646399 0
M  V30 12519 H 1183.02 -5.82901 1.4264 0
M  V30 12520 H 1184.09 -4.4812 1.85246 0
M  V30 12521 N 1185.44 -0.462799 -1.50652 0
M  V30 12522 C 1186.37 0.325724 -2.31217 0
M  V30 12523 C 1187.35 0.997942 -1.3775 0
M  V30 12524 O 1188.53 0.996707 -1.66671 0
M  V30 12525 C 1185.66 1.41283 -3.17264 0
M  V30 12526 C 1184.62 0.862687 -4.19216 0
M  V30 12527 C 1183.94 2.04746 -4.93946 0
M  V30 12528 C 1185.24 -0.120365 -5.22161 0
M  V30 12529 H 1186.94 -0.346666 -2.97386 0
M  V30 12530 H 1184.48 -0.168163 -1.43015 0
M  V30 12531 H 1186.44 1.97188 -3.72418 0
M  V30 12532 H 1185.16 2.11387 -2.48964 0
M  V30 12533 H 1183.82 0.325671 -3.65151 0
M  V30 12534 H 1183.47 2.73529 -4.22127 0
M  V30 12535 H 1183.17 1.68562 -5.62904 0
M  V30 12536 H 1184.69 2.61157 -5.51932 0
M  V30 12537 H 1186.1 0.349226 -5.72235 0
M  V30 12538 H 1184.5 -0.396061 -5.98792 0
M  V30 12539 H 1185.57 -1.04895 -4.73418 0
M  V30 12540 N 1186.91 1.56388 -0.195085 0
M  V30 12541 C 1187.85 2.14992 0.765096 0
M  V30 12542 C 1188.83 1.08663 1.20959 0
M  V30 12543 O 1190.01 1.36775 1.29711 0
M  V30 12544 C 1187.14 2.7088 2.03327 0
M  V30 12545 C 1186.18 3.89797 1.7309 0
M  V30 12546 S 1187.02 5.28236 0.879025 0
M  V30 12547 C 1188.17 5.87545 2.15734 0
M  V30 12548 H 1188.4 2.961 0.266902 0
M  V30 12549 H 1185.94 1.54387 0.0199116 0
M  V30 12550 H 1187.9 3.03723 2.76157 0
M  V30 12551 H 1186.56 1.89814 2.50259 0
M  V30 12552 H 1185.75 4.27312 2.67246 0
M  V30 12553 H 1185.35 3.57964 1.08342 0
M  V30 12554 H 1187.64 6.01907 3.10989 0
M  V30 12555 H 1188.59 6.84137 1.82652 0
M  V30 12556 H 1188.99 5.16151 2.2858 0
M  V30 12557 N 1188.39 -0.0785156 1.57404 0
M  V30 12558 C 1189.62 -0.792042 1.9114 0
M  V30 12559 C 1190.04 -1.71458 0.790408 0
M  V30 12560 O 1189.39 -1.80959 -0.236662 0
M  V30 12561 C 1189.44 -1.59138 3.24588 0
M  V30 12562 O 1189.16 -0.705931 4.32375 0
M  V30 12563 C 1190.67 -2.4065 3.72293 0
M  V30 12564 H 1187.89 -0.225566 0.63195 0
M  V30 12565 H 1190.43 -0.0507929 2.04437 0
M  V30 12566 H 1188.58 -2.28498 3.12838 0
M  V30 12567 H 1189 -1.26121 5.09111 0
M  V30 12568 H 1190.47 -2.92204 4.68317 0
M  V30 12569 H 1190.95 -3.1987 3.00965 0
M  V30 12570 H 1191.56 -1.7646 3.86965 0
M  V30 12571 N 1189.87 -1.5367 -0.349747 0
M  V30 12572 C 1191.1 -1.74858 -1.11532 0
M  V30 12573 C 1191.52 -0.483591 -1.81777 0
M  V30 12574 O 1190.88 0.563399 -1.72324 0
M  V30 12575 C 1190.93 -2.92479 -2.10923 0
M  V30 12576 O 1190.03 -2.62194 -3.18321 0
M  V30 12577 H 1189.37 -0.580219 -0.322865 0
M  V30 12578 H 1191.9 -2.00611 -0.402033 0
M  V30 12579 H 1191.91 -3.19093 -2.54252 0
M  V30 12580 H 1190.59 -3.84228 -1.59191 0
M  V30 12581 H 1189.16 -2.46448 -2.79853 0
M  V30 12582 N 1191.35 0.610423 -1.45298 0
M  V30 12583 C 1192.59 1.38085 -1.50705 0
M  V30 12584 C 1192.95 1.91459 -0.143997 0
M  V30 12585 O 1194.15 2.68702 -0.0727521 0
M  V30 12586 C 1192.42 2.50009 -2.55402 0
M  V30 12587 S 1193.98 3.37844 -2.80012 0
M  V30 12588 H 1190.8 0.470812 -0.532783 0
M  V30 12589 H 1193.4 0.704638 -1.8236 0
M  V30 12590 H 1192.11 2.09143 -3.53111 0
M  V30 12591 H 1191.64 3.22434 -2.25388 0
M  V30 12592 H 1193.65 4.48074 -2.13176 0
M  V30 12593 N 1192.83 1.32541 0.852676 0
M  V30 12594 C 1194.1 1.1383 1.59067 0
M  V30 12595 C 1194.48 -0.300584 2.08949 0
M  V30 12596 O 1193.83 -1.29751 1.88088 0
M  V30 12597 C 1194.04 2.16758 2.73527 0
M  V30 12598 C 1195.39 2.50194 3.43057 0
M  V30 12599 O 1196.41 2.15319 2.83754 0
M  V30 12600 O 1195.27 3.09985 4.50079 0
M  V30 12601 H 1192.37 0.439379 0.700625 0
M  V30 12602 H 1194.91 1.44078 0.896632 0
M  V30 12603 H 1193.68 3.13469 2.34207 0
M  V30 12604 H 1193.31 1.87515 3.50605 0
M  V30 12605 N 1194.3 -1.0692 1.15784 0
M  V30 12606 C 1195.23 -2.16216 0.881649 0
M  V30 12607 C 1196.22 -1.69253 -0.16951 0
M  V30 12608 O 1197.4 -1.94186 -0.0229511 0
M  V30 12609 C 1194.53 -3.4527 0.374982 0
M  V30 12610 C 1193.48 -4.05706 1.36332 0
M  V30 12611 C 1192.81 -5.29894 0.715317 0
M  V30 12612 C 1194.11 -4.45224 2.7308 0
M  V30 12613 H 1195.8 -2.39577 1.79563 0
M  V30 12614 H 1193.35 -1.15141 0.864784 0
M  V30 12615 H 1195.3 -4.2106 0.169279 0
M  V30 12616 H 1194.03 -3.21508 -0.574485 0
M  V30 12617 H 1192.69 -3.31965 1.55546 0
M  V30 12618 H 1192.33 -5.02425 -0.240436 0
M  V30 12619 H 1192.03 -5.71287 1.37494 0
M  V30 12620 H 1193.56 -6.08386 0.519489 0
M  V30 12621 H 1194.97 -5.12124 2.57686 0
M  V30 12622 H 1193.37 -4.97583 3.35457 0
M  V30 12623 H 1194.44 -3.56384 3.28813 0
M  V30 12624 N 1195.78 -0.955326 -1.25345 0
M  V30 12625 C 1197.01 -0.627233 -1.97688 0
M  V30 12626 C 1197.43 0.793973 -1.70522 0
M  V30 12627 O 1196.79 1.537 -0.961556 0
M  V30 12628 C 1196.84 -0.892969 -3.49369 0
M  V30 12629 O 1195.94 0.0278871 -4.12391 0
M  V30 12630 H 1195.28 -0.238402 -0.619726 0
M  V30 12631 H 1197.81 -1.28211 -1.59446 0
M  V30 12632 H 1197.82 -0.819517 -3.99685 0
M  V30 12633 H 1196.5 -1.92879 -3.6847 0
M  V30 12634 H 1195.08 -0.0978295 -3.72772 0
M  V30 12635 N 1197.26 1.39987 -0.723979 0
M  V30 12636 C 1198.54 1.94637 -0.1939 0
M  V30 12637 C 1198.92 1.66156 1.30212 0
M  V30 12638 O 1198.27 0.983783 2.06238 0
M  V30 12639 C 1198.48 3.4517 -0.515652 0
M  V30 12640 C 1199.82 4.22113 -0.458919 0
M  V30 12641 O 1200.85 3.53318 -0.452198 0
M  V30 12642 O 1199.71 5.44695 -0.443783 0
M  V30 12643 H 1196.8 0.826394 -0.0316615 0
M  V30 12644 H 1199.35 1.49548 -0.802085 0
M  V30 12645 H 1198.12 3.5929 -1.55004 0
M  V30 12646 H 1197.74 3.97413 0.122067 0
M  V30 12647 N 1198.74 0.470782 1.50404 0
M  V30 12648 C 1199.67 -0.359838 2.26358 0
M  V30 12649 C 1200.68 -0.95735 1.31676 0
M  V30 12650 O 1201.87 -0.84581 1.57189 0
M  V30 12651 C 1198.97 -1.51864 3.02969 0
M  V30 12652 C 1198.15 -1.03397 4.25003 0
M  V30 12653 C 1197.21 -2.06679 4.83911 0
M  V30 12654 O 1196.23 -1.64754 5.44835 0
M  V30 12655 N 1197.43 -3.39484 4.70883 0
M  V30 12656 H 1200.2 0.291299 2.98281 0
M  V30 12657 H 1197.76 0.301549 1.59067 0
M  V30 12658 H 1199.75 -2.2065 3.39258 0
M  V30 12659 H 1198.32 -2.07448 2.33846 0
M  V30 12660 H 1197.54 -0.172012 3.93825 0
M  V30 12661 H 1198.83 -0.68807 5.04126 0
M  V30 12662 H 1198.23 -3.76256 4.22431 0
M  V30 12663 H 1196.78 -4.04068 5.11441 0
M  V30 12664 N 1200.22 -1.56282 0.203376 0
M  V30 12665 C 1201.45 -2.02198 -0.438572 0
M  V30 12666 C 1201.86 -1.08343 -1.54619 0
M  V30 12667 O 1201.22 -0.0897594 -1.82279 0
M  V30 12668 C 1201.27 -3.4776 -0.987184 0
M  V30 12669 O 1200.99 -4.38034 0.0762552 0
M  V30 12670 C 1202.49 -4.09234 -1.70419 0
M  V30 12671 H 1199.71 -0.662041 -0.109282 0
M  V30 12672 H 1202.25 -2.02067 0.314509 0
M  V30 12673 H 1200.41 -3.48564 -1.69061 0
M  V30 12674 H 1200.82 -5.2344 -0.333322 0
M  V30 12675 H 1202.3 -5.1291 -2.04027 0
M  V30 12676 H 1202.77 -3.53172 -2.61087 0
M  V30 12677 H 1203.38 -4.12226 -1.04641 0
M  V30 12678 N 1201.7 0.070167 -1.57444 0
M  V30 12679 C 1202.64 1.08322 -2.03801 0
M  V30 12680 C 1203.61 1.38364 -0.918946 0
M  V30 12681 O 1204.8 1.49404 -1.18672 0
M  V30 12682 C 1201.94 2.39128 -2.48821 0
M  V30 12683 C 1201.05 2.15603 -3.74352 0
M  V30 12684 C 1200.19 3.39984 -4.08148 0
M  V30 12685 C 1199.22 3.1183 -5.26715 0
M  V30 12686 N 1198.36 4.28546 -5.56141 0
M  V30 12687 H 1203.2 0.680931 -2.90116 0
M  V30 12688 H 1200.74 0.324657 -1.43473 0
M  V30 12689 H 1202.7 3.15501 -2.72975 0
M  V30 12690 H 1201.33 2.77157 -1.65481 0
M  V30 12691 H 1200.38 1.29915 -3.57528 0
M  V30 12692 H 1201.69 1.90808 -4.60862 0
M  V30 12693 H 1200.84 4.2475 -4.33211 0
M  V30 12694 H 1199.58 3.67856 -3.20208 0
M  V30 12695 H 1198.59 2.2546 -5.01446 0
M  V30 12696 H 1199.81 2.85278 -6.16273 0
M  V30 12697 H 1197.76 4.56447 -4.71161 0
M  V30 12698 H 1197.68 4.0703 -6.37073 0
M  V30 12699 H 1198.94 5.14305 -5.85757 0
M  V30 12700 N 1203.17 1.53854 0.341593 0
M  V30 12701 C 1204.42 1.70856 1.07948 0
M  V30 12702 C 1204.74 0.475474 1.89114 0
M  V30 12703 O 1204.01 -0.510592 1.89129 0
M  V30 12704 H 1202.59 0.629914 0.401519 0
M  V30 12705 H 1205.25 1.91112 0.382393 0
M  V30 12706 H 1204.35 2.5803 1.75575 0
M  V30 12707 N 1204.65 -0.602709 1.4562 0
M  V30 12708 C 1205.9 -1.36159 1.51103 0
M  V30 12709 C 1206.25 -1.91794 0.152552 0
M  V30 12710 O 1205.55 -1.7239 -0.836201 0
M  V30 12711 C 1205.74 -2.52474 2.52966 0
M  V30 12712 C 1205.57 -2.0823 3.98585 0
M  V30 12713 C 1204.34 -1.94175 4.66502 0
M  V30 12714 C 1206.54 -1.65402 4.86977 0
M  V30 12715 N 1204.52 -1.43792 5.96822 0
M  V30 12716 C 1205.89 -1.26469 6.06964 0
M  V30 12717 C 1207.94 -1.53038 4.73797 0
M  V30 12718 C 1206.65 -0.764065 7.1523 0
M  V30 12719 C 1208.67 -1.04379 5.82116 0
M  V30 12720 C 1208.04 -0.664136 7.01262 0
M  V30 12721 H 1204.13 -0.491974 0.607853 0
M  V30 12722 H 1206.72 -0.688472 1.82121 0
M  V30 12723 H 1204.89 -3.17375 2.23891 0
M  V30 12724 H 1206.62 -3.19369 2.48567 0
M  V30 12725 H 1203.38 -2.1551 4.21726 0
M  V30 12726 H 1203.8 -1.2082 6.66132 0
M  V30 12727 H 1208.44 -1.81014 3.82091 0
M  V30 12728 H 1206.16 -0.471858 8.06721 0
M  V30 12729 H 1209.75 -0.952316 5.73953 0
M  V30 12730 H 1208.63 -0.293412 7.83651 0
M  V30 12731 N 1206.13 -1.32992 -0.845635 0
M  V30 12732 C 1207.08 -1.22682 -1.95494 0
M  V30 12733 C 1208.05 -0.106942 -1.65755 0
M  V30 12734 O 1209.23 -0.28405 -1.88674 0
M  V30 12735 C 1206.37 -0.965068 -3.31331 0
M  V30 12736 C 1205.48 -2.17058 -3.7351 0
M  V30 12737 C 1204.62 -1.84355 -4.98183 0
M  V30 12738 C 1203.66 -3.01176 -5.32878 0
M  V30 12739 N 1202.8 -2.68506 -6.48729 0
M  V30 12740 H 1207.64 -2.17562 -2.03644 0
M  V30 12741 H 1205.17 -1.08194 -0.996613 0
M  V30 12742 H 1207.13 -0.793771 -4.09579 0
M  V30 12743 H 1205.76 -0.0530285 -3.22756 0
M  V30 12744 H 1204.81 -2.45185 -2.90841 0
M  V30 12745 H 1206.12 -3.04413 -3.95138 0
M  V30 12746 H 1205.28 -1.6383 -5.84162 0
M  V30 12747 H 1204.02 -0.942264 -4.78511 0
M  V30 12748 H 1203.02 -3.22323 -4.45408 0
M  V30 12749 H 1204.25 -3.9205 -5.54503 0
M  V30 12750 H 1202.19 -1.80929 -6.30556 0
M  V30 12751 H 1202.11 -3.49392 -6.70419 0
M  V30 12752 H 1203.38 -2.51432 -7.37836 0
M  V30 12753 N 1207.61 1.06304 -1.1635 0
M  V30 12754 C 1208.84 1.82799 -0.96913 0
M  V30 12755 C 1209.25 1.82526 0.482659 0
M  V30 12756 O 1208.61 1.24437 1.33498 0
M  V30 12757 C 1208.66 3.29417 -1.48884 0
M  V30 12758 O 1208.38 3.29803 -2.88377 0
M  V30 12759 C 1209.88 4.22642 -1.33748 0
M  V30 12760 H 1207.1 0.576388 -0.343537 0
M  V30 12761 H 1209.64 1.34122 -1.54375 0
M  V30 12762 H 1207.8 3.75406 -0.956509 0
M  V30 12763 H 1208.21 4.21486 -3.1217 0
M  V30 12764 H 1209.69 5.23545 -1.74942 0
M  V30 12765 H 1210.16 4.38287 -0.283021 0
M  V30 12766 H 1210.77 3.82499 -1.85942 0
M  V30 12767 N 1209.09 0.96196 1.24836 0
M  V30 12768 C 1210.31 0.63814 1.96813 0
M  V30 12769 C 1210.73 -0.79127 1.71419 0
M  V30 12770 O 1210.09 -1.5302 0.994546 0
M  V30 12771 C 1210.14 0.89626 3.50213 0
M  V30 12772 O 1209.86 2.26947 3.74735 0
M  V30 12773 C 1211.36 0.585836 4.39412 0
M  V30 12774 H 1208.58 0.238598 0.627146 0
M  V30 12775 H 1211.12 1.28833 1.58815 0
M  V30 12776 H 1209.28 0.292368 3.86295 0
M  V30 12777 H 1209.69 2.34514 4.69152 0
M  V30 12778 H 1211.17 0.816935 5.45921 0
M  V30 12779 H 1211.64 -0.479784 4.36572 0
M  V30 12780 H 1212.25 1.16938 4.08908 0
M  V30 12781 N 1210.56 -1.39601 0.731392 0
M  V30 12782 C 1211.98 -1.54334 0.406594 0
M  V30 12783 C 1212.18 -1.69925 -1.08295 0
M  V30 12784 O 1211.24 -1.69771 -1.86906 0
M  V30 12785 C 1212.55 -2.76303 1.18647 0
M  V30 12786 C 1214.1 -2.90135 1.17433 0
M  V30 12787 C 1214.57 -4.15038 1.93669 0
M  V30 12788 N 1216.06 -4.2207 1.90817 0
M  V30 12789 C 1216.8 -5.17656 2.46616 0
M  V30 12790 N 1216.29 -6.19054 3.11037 0
M  V30 12791 N 1218.09 -5.09847 2.3667 0
M  V30 12792 H 1210.24 -1.27728 1.69703 0
M  V30 12793 H 1212.5 -0.6188 0.718186 0
M  V30 12794 H 1212.21 -2.71113 2.24032 0
M  V30 12795 H 1212.08 -3.68866 0.788514 0
M  V30 12796 H 1214.47 -2.9482 0.128615 0
M  V30 12797 H 1214.55 -1.98646 1.61163 0
M  V30 12798 H 1214.19 -4.11115 2.9824 0
M  V30 12799 H 1214.12 -5.05565 1.47349 0
M  V30 12800 H 1216.61 -3.49437 1.43882 0
M  V30 12801 H 1216.93 -6.88444 3.51091 0
M  V30 12802 H 1215.27 -6.19452 3.15126 0
M  V30 12803 H 1218.46 -4.29566 1.85987 0
M  V30 12804 H 1218.64 -5.84165 2.80455 0
M  V30 12805 N 1212.04 -0.478751 -1.50152 0
M  V30 12806 C 1212.99 0.311426 -2.28689 0
M  V30 12807 C 1213.96 0.980375 -1.34082 0
M  V30 12808 O 1215.14 0.991337 -1.63025 0
M  V30 12809 C 1212.28 1.38302 -3.16175 0
M  V30 12810 C 1211.4 0.728084 -4.2582 0
M  V30 12811 C 1210.53 1.77822 -5.00552 0
M  V30 12812 C 1209.57 1.10395 -6.02063 0
M  V30 12813 N 1208.71 2.09728 -6.70044 0
M  V30 12814 H 1213.55 -0.364592 -2.95761 0
M  V30 12815 H 1211.09 -0.191645 -1.45846 0
M  V30 12816 H 1213.04 2.01606 -3.65255 0
M  V30 12817 H 1211.67 2.0281 -2.51133 0
M  V30 12818 H 1210.73 -0.0177026 -3.80396 0
M  V30 12819 H 1212.04 0.196209 -4.98414 0
M  V30 12820 H 1211.19 2.48687 -5.53389 0
M  V30 12821 H 1209.93 2.34392 -4.27682 0
M  V30 12822 H 1208.94 0.38096 -5.48479 0
M  V30 12823 H 1210.16 0.545045 -6.76909 0
M  V30 12824 H 1208.11 2.65301 -5.9996 0
M  V30 12825 H 1208.02 1.61546 -7.38538 0
M  V30 12826 H 1209.29 2.7995 -7.27495 0
M  V30 12827 N 1213.52 1.56172 -0.211661 0
M  V30 12828 C 1214.77 1.97214 0.423008 0
M  V30 12829 C 1215.08 1.10203 1.616 0
M  V30 12830 O 1216.29 1.411 2.31955 0
M  V30 12831 C 1214.74 3.50805 0.803977 0
M  V30 12832 C 1214.35 4.46505 -0.365654 0
M  V30 12833 C 1216.1 4.00582 1.4048 0
M  V30 12834 C 1214 5.91388 0.0371986 0
M  V30 12835 H 1212.93 0.736432 0.161814 0
M  V30 12836 H 1215.58 1.80925 -0.306307 0
M  V30 12837 H 1213.97 3.62659 1.59043 0
M  V30 12838 H 1215.14 4.46394 -1.14321 0
M  V30 12839 H 1213.46 4.07015 -0.879061 0
M  V30 12840 H 1216.05 5.06317 1.71894 0
M  V30 12841 H 1216.4 3.45853 2.31713 0
M  V30 12842 H 1216.93 3.9191 0.681984 0
M  V30 12843 H 1213.67 6.50078 -0.841367 0
M  V30 12844 H 1213.19 5.94716 0.77927 0
M  V30 12845 H 1214.87 6.4531 0.467309 0
M  V30 12846 N 1215 -0.0618163 1.57479 0
M  V30 12847 C 1215.96 -1.05684 2.0338 0
M  V30 12848 C 1216.96 -1.31006 0.932423 0
M  V30 12849 O 1218.15 -1.26559 1.19702 0
M  V30 12850 C 1215.28 -2.39805 2.42294 0
M  V30 12851 H 1216.48 -0.661006 2.92525 0
M  V30 12852 H 1214.03 -0.307814 1.53239 0
M  V30 12853 H 1214.76 -2.84201 1.56207 0
M  V30 12854 H 1214.55 -2.22764 3.22674 0
M  V30 12855 H 1216.04 -3.11307 2.78349 0
M  V30 12856 N 1216.48 -1.54033 -0.333429 0
M  V30 12857 C 1217.39 -1.85737 -1.43314 0
M  V30 12858 C 1218.4 -0.748398 -1.57083 0
M  V30 12859 O 1219.58 -1.04171 -1.72367 0
M  V30 12860 C 1216.64 -2.06942 -2.78165 0
M  V30 12861 C 1215.7 -3.30774 -2.73655 0
M  V30 12862 C 1214.94 -3.50957 -4.02075 0
M  V30 12863 O 1215.16 -2.74774 -4.99855 0
M  V30 12864 O 1214.09 -4.44412 -4.05933 0
M  V30 12865 H 1217.92 -2.7923 -1.19434 0
M  V30 12866 H 1215.51 -1.39814 -0.526546 0
M  V30 12867 H 1217.39 -2.22276 -3.58011 0
M  V30 12868 H 1216.06 -1.16638 -3.01956 0
M  V30 12869 H 1214.97 -3.20835 -1.92395 0
M  V30 12870 H 1216.3 -4.21103 -2.54819 0
M  V30 12871 N 1217.95 0.594978 -1.45938 0
M  V30 12872 C 1218.88 1.71536 -1.58422 0
M  V30 12873 C 1219.87 1.64441 -0.435116 0
M  V30 12874 O 1221.05 1.82647 -0.659839 0
M  V30 12875 C 1218.18 3.10163 -1.56257 0
M  V30 12876 C 1217.13 3.3208 -2.70013 0
M  V30 12877 C 1216.46 4.71108 -2.52905 0
M  V30 12878 C 1217.76 3.21105 -4.11933 0
M  V30 12879 H 1219.45 1.61344 -2.52207 0
M  V30 12880 H 1217 0.774791 -1.2138 0
M  V30 12881 H 1218.95 3.88352 -1.63587 0
M  V30 12882 H 1217.68 3.21225 -0.590093 0
M  V30 12883 H 1216.34 2.56286 -2.62132 0
M  V30 12884 H 1215.98 4.7892 -1.53768 0
M  V30 12885 H 1215.68 4.86727 -3.29197 0
M  V30 12886 H 1217.21 5.51482 -2.62107 0
M  V30 12887 H 1218.62 3.89153 -4.2099 0
M  V30 12888 H 1217.02 3.4825 -4.88715 0
M  V30 12889 H 1218.09 2.18359 -4.32952 0
M  V30 12890 N 1219.43 1.33438 0.838571 0
M  V30 12891 C 1220.68 1.24259 1.58879 0
M  V30 12892 C 1220.99 -0.189957 1.94675 0
M  V30 12893 O 1222.2 -0.40376 2.68481 0
M  V30 12894 C 1220.66 2.1773 2.86569 0
M  V30 12895 C 1220.26 3.66156 2.58135 0
M  V30 12896 C 1222.01 2.17424 3.64591 0
M  V30 12897 C 1219.92 4.5154 3.81923 0
M  V30 12898 H 1218.85 0.461534 0.59624 0
M  V30 12899 H 1221.5 1.58504 0.924588 0
M  V30 12900 H 1219.88 1.76418 3.54532 0
M  V30 12901 H 1221.05 4.1591 1.98382 0
M  V30 12902 H 1219.37 3.68754 1.93416 0
M  V30 12903 H 1221.96 2.78446 4.56478 0
M  V30 12904 H 1222.31 1.16939 3.99539 0
M  V30 12905 H 1222.84 2.571 3.03553 0
M  V30 12906 H 1219.58 5.52902 3.52107 0
M  V30 12907 H 1219.1 4.06529 4.41015 0
M  V30 12908 H 1220.78 4.65359 4.495 0
M  V30 12909 N 1220.91 -1.05686 1.16912 0
M  V30 12910 C 1222.14 -1.82018 0.977392 0
M  V30 12911 C 1222.55 -1.83072 -0.477636 0
M  V30 12912 O 1221.89 -1.25296 -1.34338 0
M  V30 12913 C 1221.95 -3.29592 1.4356 0
M  V30 12914 C 1221.62 -3.5223 2.91175 0
M  V30 12915 C 1222.61 -3.44767 3.89142 0
M  V30 12916 C 1220.3 -3.79353 3.29236 0
M  V30 12917 C 1222.29 -3.64104 5.2317 0
M  V30 12918 C 1219.98 -3.98339 4.63432 0
M  V30 12919 C 1220.98 -3.90713 5.60207 0
M  V30 12920 O 1220.67 -4.09175 6.91976 0
M  V30 12921 H 1220.4 -0.580578 0.346273 0
M  V30 12922 H 1222.95 -1.34199 1.55498 0
M  V30 12923 H 1221.18 -3.78302 0.80153 0
M  V30 12924 H 1222.87 -3.87435 1.21032 0
M  V30 12925 H 1223.64 -3.23796 3.61083 0
M  V30 12926 H 1219.52 -3.84395 2.54482 0
M  V30 12927 H 1223.06 -3.58068 5.98693 0
M  V30 12928 H 1218.96 -4.18801 4.91198 0
M  V30 12929 H 1219.73 -4.26429 6.98642 0
M  V30 12930 N 1222.39 -0.968567 -1.24324 0
M  V30 12931 C 1223.34 -0.498817 -2.25345 0
M  V30 12932 C 1224.31 0.456082 -1.59716 0
M  V30 12933 O 1225.49 0.366254 -1.87252 0
M  V30 12934 C 1222.63 0.204027 -3.44496 0
M  V30 12935 C 1221.74 -0.789741 -4.2472 0
M  V30 12936 C 1220.88 -0.0629156 -5.31163 0
M  V30 12937 C 1219.92 -1.04669 -6.03084 0
M  V30 12938 N 1219.05 -0.349812 -7.01228 0
M  V30 12939 H 1223.89 -1.36511 -2.64894 0
M  V30 12940 H 1221.43 -0.684288 -1.30215 0
M  V30 12941 H 1223.39 0.628223 -4.12443 0
M  V30 12942 H 1222.02 1.03426 -3.05782 0
M  V30 12943 H 1221.07 -1.33237 -3.56303 0
M  V30 12944 H 1222.38 -1.53988 -4.74436 0
M  V30 12945 H 1221.54 0.419233 -6.0525 0
M  V30 12946 H 1220.28 0.719915 -4.82357 0
M  V30 12947 H 1219.28 -1.53971 -5.278 0
M  V30 12948 H 1220.51 -1.82998 -6.53979 0
M  V30 12949 H 1218.45 0.414026 -6.54692 0
M  V30 12950 H 1218.37 -1.03881 -7.48829 0
M  V30 12951 H 1219.64 0.11034 -7.79422 0
M  V30 12952 N 1223.87 1.39211 -0.738786 0
M  V30 12953 C 1224.78 2.34374 -0.102958 0
M  V30 12954 C 1225.79 1.58514 0.717596 0
M  V30 12955 O 1226.97 1.90786 0.645186 0
M  V30 12956 C 1224.03 3.37562 0.790733 0
M  V30 12957 C 1223.09 4.29279 -0.0425028 0
M  V30 12958 C 1222.33 5.27539 0.808628 0
M  V30 12959 O 1222.55 5.32396 2.04722 0
M  V30 12960 O 1221.48 6.0144 0.235279 0
M  V30 12961 H 1225.31 2.90412 -0.888498 0
M  V30 12962 H 1222.9 1.40803 -0.499498 0
M  V30 12963 H 1224.78 4.00783 1.30196 0
M  V30 12964 H 1223.45 2.83903 1.55502 0
M  V30 12965 H 1222.36 3.69268 -0.599335 0
M  V30 12966 H 1223.69 4.86154 -0.7691 0
M  V30 12967 N 1225.34 0.486708 1.49896 0
M  V30 12968 C 1226.59 -0.062852 2.02402 0
M  V30 12969 C 1226.92 -1.38306 1.36754 0
M  V30 12970 O 1226.17 -1.89531 0.487493 0
M  V30 12971 C 1226.47 -0.278643 3.56312 0
M  V30 12972 C 1226.14 0.961794 4.40523 0
M  V30 12973 C 1224.8 1.30185 4.63255 0
M  V30 12974 C 1227.15 1.78697 4.89609 0
M  V30 12975 C 1224.48 2.46686 5.32318 0
M  V30 12976 C 1226.83 2.9434 5.59953 0
M  V30 12977 C 1225.5 3.28742 5.80935 0
M  V30 12978 H 1224.77 -0.0229992 0.740643 0
M  V30 12979 H 1227.41 0.643963 1.80348 0
M  V30 12980 H 1225.72 -1.06785 3.76967 0
M  V30 12981 H 1227.42 -0.718078 3.94518 0
M  V30 12982 H 1224.01 0.686887 4.2306 0
M  V30 12983 H 1228.19 1.53742 4.71887 0
M  V30 12984 H 1223.45 2.73596 5.46768 0
M  V30 12985 H 1227.62 3.58616 5.96965 0
M  V30 12986 H 1225.25 4.19121 6.34225 0
M  V30 12987 N 1226.82 -1.56058 0.219941 0
M  V30 12988 C 1228.07 -1.9826 -0.412197 0
M  V30 12989 C 1228.4 -1.10754 -1.59887 0
M  V30 12990 O 1227.65 -0.15212 -1.95108 0
M  V30 12991 C 1227.95 -3.46113 -0.8911 0
M  V30 12992 C 1227.62 -4.50521 0.184877 0
M  V30 12993 C 1226.28 -4.78795 0.480462 0
M  V30 12994 C 1228.63 -5.13147 0.912652 0
M  V30 12995 C 1225.96 -5.66979 1.50837 0
M  V30 12996 C 1228.31 -6.02444 1.92988 0
M  V30 12997 C 1226.98 -6.29063 2.2324 0
M  V30 12998 H 1226.25 -0.725486 -0.150834 0
M  V30 12999 H 1228.89 -1.88771 0.322122 0
M  V30 13000 H 1227.2 -3.52797 -1.70415 0
M  V30 13001 H 1228.9 -3.76137 -1.39003 0
M  V30 13002 H 1225.49 -4.28564 -0.0556594 0
M  V30 13003 H 1229.67 -4.91374 0.697532 0
M  V30 13004 H 1224.93 -5.85868 1.74839 0
M  V30 13005 H 1229.1 -6.50022 2.49889 0
M  V30 13006 H 1226.73 -6.97191 3.03032 0
M  V30 13007 N 1228.3 0.053464 -1.57509 0
M  V30 13008 C 1229.53 0.765301 -1.92764 0
M  V30 13009 C 1229.95 1.69385 -0.817943 0
M  V30 13010 O 1229.31 1.7986 0.228075 0
M  V30 13011 C 1229.36 1.51938 -3.27028 0
M  V30 13012 O 1228.46 2.63121 -3.17555 0
M  V30 13013 H 1227.8 0.207567 -0.630723 0
M  V30 13014 H 1230.33 0.0162254 -2.04594 0
M  V30 13015 H 1230.34 1.89466 -3.6134 0
M  V30 13016 H 1229.02 0.838207 -4.07366 0
M  V30 13017 H 1227.59 2.28316 -2.94832 0
M  V30 13018 N 1229.78 1.54207 0.325255 0
M  V30 13019 C 1230.71 1.79812 1.42128 0
M  V30 13020 C 1231.72 0.68003 1.47917 0
M  V30 13021 O 1232.91 0.957107 1.50671 0
M  V30 13022 C 1230.01 1.89935 2.80674 0
M  V30 13023 C 1229.19 3.20078 2.98108 0
M  V30 13024 C 1228.25 3.20924 4.17006 0
M  V30 13025 O 1227.27 3.94571 4.10247 0
M  V30 13026 N 1228.47 2.44588 5.26457 0
M  V30 13027 H 1231.24 2.74396 1.20527 0
M  V30 13028 H 1228.8 1.53483 0.515233 0
M  V30 13029 H 1230.79 1.8793 3.58419 0
M  V30 13030 H 1229.36 1.02455 2.95333 0
M  V30 13031 H 1228.58 3.35057 2.07679 0
M  V30 13032 H 1229.87 4.06008 3.06651 0
M  V30 13033 H 1229.27 1.8434 5.34823 0
M  V30 13034 H 1227.82 2.48363 6.02627 0
M  V30 13035 N 1231.26 -0.58723 1.46251 0
M  V30 13036 C 1232.51 -1.34294 1.51028 0
M  V30 13037 C 1232.83 -1.94329 0.161623 0
M  V30 13038 O 1232.1 -1.78309 -0.811342 0
M  V30 13039 H 1230.68 -0.498607 0.556238 0
M  V30 13040 H 1233.34 -0.688074 1.8235 0
M  V30 13041 H 1232.43 -2.15197 2.26045 0
M  V30 13042 N 1232.74 -1.33881 -0.831482 0
M  V30 13043 C 1234.01 -1.16346 -1.57236 0
M  V30 13044 C 1234.39 0.267304 -2.09401 0
M  V30 13045 O 1233.74 1.26742 -1.90128 0
M  V30 13046 C 1233.95 -2.21082 -2.70044 0
M  V30 13047 C 1235.3 -2.5562 -3.39033 0
M  V30 13048 O 1236.32 -2.19806 -2.80292 0
M  V30 13049 O 1235.18 -3.17106 -4.45091 0
M  V30 13050 H 1232.28 -0.450469 -0.693546 0
M  V30 13051 H 1234.82 -1.45487 -0.873597 0
M  V30 13052 H 1233.59 -3.17155 -2.2919 0
M  V30 13053 H 1233.22 -1.9307 -3.47577 0
M  V30 13054 N 1234.21 1.05064 -1.1747 0
M  V30 13055 C 1235.14 2.14786 -0.915936 0
M  V30 13056 C 1236.12 1.69502 0.142561 0
M  V30 13057 O 1237.31 1.94198 -0.00794522 0
M  V30 13058 C 1234.44 3.44629 -0.429864 0
M  V30 13059 C 1233.39 4.03486 -1.42769 0
M  V30 13060 C 1232.72 5.28689 -0.799528 0
M  V30 13061 C 1234.02 4.40823 -2.80129 0
M  V30 13062 H 1235.71 2.3669 -1.83352 0
M  V30 13063 H 1233.26 1.13751 -0.882992 0
M  V30 13064 H 1235.21 4.20737 -0.236245 0
M  V30 13065 H 1233.94 3.22381 0.523263 0
M  V30 13066 H 1232.6 3.29449 -1.60808 0
M  V30 13067 H 1232.24 5.02744 0.160474 0
M  V30 13068 H 1231.94 5.69028 -1.46565 0
M  V30 13069 H 1233.47 6.07483 -0.616212 0
M  V30 13070 H 1234.88 5.07959 -2.65801 0
M  V30 13071 H 1233.28 4.92183 -3.43331 0
M  V30 13072 H 1234.35 3.51108 -3.34441 0
M  V30 13073 N 1235.69 0.975146 1.23809 0
M  V30 13074 C 1236.6 0.51917 2.28783 0
M  V30 13075 C 1237.62 -0.423487 1.68768 0
M  V30 13076 O 1238.79 -0.294699 1.99232 0
M  V30 13077 C 1235.86 -0.176229 3.46252 0
M  V30 13078 C 1234.92 0.807177 4.21643 0
M  V30 13079 C 1234.15 0.144869 5.33503 0
M  V30 13080 O 1234.38 -1.06522 5.60365 0
M  V30 13081 O 1233.31 0.84079 5.95999 0
M  V30 13082 H 1237.14 1.39204 2.69919 0
M  V30 13083 H 1234.72 0.74253 1.29641 0
M  V30 13084 H 1236.6 -0.566547 4.17574 0
M  V30 13085 H 1235.28 -1.02394 3.07078 0
M  V30 13086 H 1234.18 1.2481 3.52666 0
M  V30 13087 H 1235.52 1.62354 4.64653 0
M  V30 13088 N 1237.17 -1.38817 0.746158 0
M  V30 13089 C 1238.12 -2.30521 0.113517 0
M  V30 13090 C 1239.09 -1.49795 -0.717682 0
M  V30 13091 O 1240.27 -1.78448 -0.675345 0
M  V30 13092 C 1237.41 -3.36185 -0.779343 0
M  V30 13093 C 1236.52 -4.3195 0.0656784 0
M  V30 13094 C 1235.66 -5.24684 -0.829492 0
M  V30 13095 C 1234.7 -6.12097 0.0196112 0
M  V30 13096 N 1233.84 -6.97152 -0.832107 0
M  V30 13097 H 1238.68 -2.84048 0.901136 0
M  V30 13098 H 1236.21 -1.39853 0.456025 0
M  V30 13099 H 1238.17 -3.96048 -1.31156 0
M  V30 13100 H 1236.8 -2.84085 -1.53282 0
M  V30 13101 H 1235.85 -3.73611 0.715445 0
M  V30 13102 H 1237.16 -4.93551 0.721735 0
M  V30 13103 H 1236.32 -5.89627 -1.42915 0
M  V30 13104 H 1235.06 -4.63431 -1.5193 0
M  V30 13105 H 1234.06 -5.46156 0.631991 0
M  V30 13106 H 1235.29 -6.75416 0.706369 0
M  V30 13107 H 1233.23 -6.38456 -1.507 0
M  V30 13108 H 1233.15 -7.55642 -0.232782 0
M  V30 13109 H 1234.42 -7.66513 -1.41697 0
M  V30 13110 N 1238.65 -0.49465 -1.49636 0
M  V30 13111 C 1239.61 0.276064 -2.27531 0
M  V30 13112 C 1240.61 0.899619 -1.3328 0
M  V30 13113 O 1241.8 0.765136 -1.56497 0
M  V30 13114 C 1238.93 1.39547 -3.1103 0
M  V30 13115 H 1240.13 -0.407381 -2.9712 0
M  V30 13116 H 1237.68 -0.249416 -1.54297 0
M  V30 13117 H 1238.41 2.11326 -2.45992 0
M  V30 13118 H 1238.2 0.953877 -3.8032 0
M  V30 13119 H 1239.69 1.93853 -3.69879 0
M  V30 13120 N 1240.13 1.55939 -0.228214 0
M  V30 13121 C 1241.06 2.16566 0.719321 0
M  V30 13122 C 1242.04 1.11204 1.18627 0
M  V30 13123 O 1243.22 1.39495 1.2678 0
M  V30 13124 C 1240.35 2.75132 1.97536 0
M  V30 13125 C 1239.39 3.93381 1.64783 0
M  V30 13126 S 1240.23 5.29982 0.76678 0
M  V30 13127 C 1241.38 5.91989 2.03223 0
M  V30 13128 H 1241.62 2.96599 0.204035 0
M  V30 13129 H 1239.15 1.54395 -0.0128406 0
M  V30 13130 H 1241.11 3.09512 2.69652 0
M  V30 13131 H 1239.77 1.95079 2.46176 0
M  V30 13132 H 1238.96 4.32884 2.58122 0
M  V30 13133 H 1238.56 3.60181 1.00724 0
M  V30 13134 H 1240.85 6.08368 2.98152 0
M  V30 13135 H 1241.8 6.87858 1.68099 0
M  V30 13136 H 1242.21 5.20883 2.1758 0
M  V30 13137 N 1241.6 -0.0451101 1.57535 0
M  V30 13138 C 1242.85 -0.737654 1.88157 0
M  V30 13139 C 1243.17 -1.76743 0.823817 0
M  V30 13140 O 1242.44 -1.95366 -0.144503 0
M  V30 13141 H 1241.02 -0.275431 0.694368 0
M  V30 13142 H 1243.69 -0.0148651 1.94894 0
M  V30 13143 H 1242.78 -1.23726 2.86528 0
M  V30 13144 N 1243.08 -1.54377 -0.317073 0
M  V30 13145 C 1244.03 -1.84948 -1.41057 0
M  V30 13146 C 1245.02 -0.721887 -1.53249 0
M  V30 13147 O 1246.23 -0.905648 -1.55557 0
M  V30 13148 H 1242.61 -0.586353 -0.470844 0
M  V30 13149 H 1244.58 -2.7638 -1.12501 0
M  V30 13150 C 1243.33 -2.09932 -2.77171 0
M  V30 13151 H 1242.65 -2.96162 -2.68566 0
M  V30 13152 H 1244.09 -2.35272 -3.52737 0
M  V30 13153 C 1242.55 -0.892855 -3.24853 0
M  V30 13154 O 1243.08 -0.105336 -4.01562 0
M  V30 13155 N 1241.28 -0.702685 -2.81976 0
M  V30 13156 H 1240.83 -1.34474 -2.19715 0
M  V30 13157 H 1240.79 0.103024 -3.14231 0
M  V30 13158 N 1244.56 0.579466 -1.4656 0
M  V30 13159 C 1245.98 0.903163 -1.31587 0
M  V30 13160 C 1246.18 1.99406 -0.28972 0
M  V30 13161 O 1245.23 2.50632 0.30658 0
M  V30 13162 C 1246.55 1.31745 -2.70303 0
M  V30 13163 C 1248.09 1.43012 -2.78418 0
M  V30 13164 C 1248.57 1.87805 -4.17724 0
M  V30 13165 N 1250.06 1.94993 -4.20157 0
M  V30 13166 C 1250.79 2.30934 -5.2484 0
M  V30 13167 N 1250.29 2.65645 -6.39847 0
M  V30 13168 N 1252.08 2.31517 -5.12207 0
M  V30 13169 H 1244.23 -0.141111 -2.11931 0
M  V30 13170 H 1246.5 -0.000460304 -0.948 0
M  V30 13171 H 1246.2 0.589864 -3.46718 0
M  V30 13172 H 1246.08 2.2783 -3.00622 0
M  V30 13173 H 1248.46 2.14856 -2.02289 0
M  V30 13174 H 1248.55 0.451701 -2.5178 0
M  V30 13175 H 1248.19 1.16539 -4.94349 0
M  V30 13176 H 1248.12 2.86611 -4.41771 0
M  V30 13177 H 1250.61 1.70645 -3.37178 0
M  V30 13178 H 1250.92 2.92032 -7.15498 0
M  V30 13179 H 1249.27 2.63276 -6.43204 0
M  V30 13180 H 1252.46 2.03824 -4.21394 0
M  V30 13181 H 1252.63 2.59199 -5.93902 0
M  V30 13182 N 1246.04 1.3432 0.824371 0
M  V30 13183 C 1247.45 1.23855 1.39703 0
M  V30 13184 C 1247.8 -0.136566 1.95724 0
M  V30 13185 O 1246.93 -1.03683 1.89944 0
M  V30 13186 C 1247.52 2.24249 2.53965 0
M  V30 13187 C 1246.08 2.17578 3.07143 0
M  V30 13188 C 1245.23 2.10933 1.80008 0
M  V30 13189 H 1248.18 1.45707 0.628891 0
M  V30 13190 H 1248.2 1.85864 3.32016 0
M  V30 13191 H 1247.71 3.24321 2.13161 0
M  V30 13192 H 1245.81 1.20858 3.52455 0
M  V30 13193 H 1245.92 3.08769 3.66331 0
M  V30 13194 H 1244.29 1.56631 2.00845 0
M  V30 13195 H 1245.07 3.12836 1.4138 0
M  V30 13196 N 1247.52 -1.0444 1.18026 0
M  V30 13197 C 1248.45 -2.11888 0.847277 0
M  V30 13198 C 1249.43 -1.61496 -0.189171 0
M  V30 13199 O 1250.61 -1.88374 -0.0689859 0
M  V30 13200 C 1247.74 -3.3766 0.26525 0
M  V30 13201 C 1246.78 -4.06893 1.27829 0
M  V30 13202 S 1247.62 -4.54445 2.83267 0
M  V30 13203 C 1248.77 -5.83454 2.26565 0
M  V30 13204 H 1249.01 -2.39806 1.75727 0
M  V30 13205 H 1246.54 -1.17152 1.00572 0
M  V30 13206 H 1248.5 -4.1045 -0.0640578 0
M  V30 13207 H 1247.16 -3.07864 -0.622806 0
M  V30 13208 H 1246.35 -4.97287 0.819849 0
M  V30 13209 H 1245.95 -3.40203 1.55364 0
M  V30 13210 H 1248.25 -6.57203 1.64591 0
M  V30 13211 H 1249.19 -6.34056 3.15244 0
M  V30 13212 H 1249.6 -5.3838 1.69728 0
M  V30 13213 N 1248.99 -0.981699 -1.2329 0
M  V30 13214 C 1249.9 -0.531296 -2.28505 0
M  V30 13215 C 1250.92 0.414531 -1.6899 0
M  V30 13216 O 1252.1 0.284129 -1.99386 0
M  V30 13217 C 1249.16 0.157864 -3.4634 0
M  V30 13218 C 1248.22 -0.829527 -4.21209 0
M  V30 13219 C 1247.46 -0.17316 -5.33419 0
M  V30 13220 O 1247.68 1.03549 -5.60922 0
M  V30 13221 O 1246.61 -0.872385 -5.95544 0
M  V30 13222 H 1250.44 -1.40633 -2.69177 0
M  V30 13223 H 1248.02 -0.749395 -1.29246 0
M  V30 13224 H 1249.91 0.544394 -4.17869 0
M  V30 13225 H 1248.58 1.00764 -3.07617 0
M  V30 13226 H 1247.49 -1.26678 -3.51999 0
M  V30 13227 H 1248.82 -1.64815 -4.63785 0
M  V30 13228 N 1250.47 1.3842 -0.753509 0
M  V30 13229 C 1251.41 2.28079 -0.0741683 0
M  V30 13230 C 1252.38 1.45372 0.728398 0
M  V30 13231 O 1253.57 1.74737 0.707043 0
M  V30 13232 C 1250.69 3.26475 0.901764 0
M  V30 13233 C 1249.74 4.26097 0.185438 0
M  V30 13234 S 1250.57 5.23791 -1.11372 0
M  V30 13235 C 1251.73 6.25741 -0.140861 0
M  V30 13236 H 1251.96 2.85349 -0.834475 0
M  V30 13237 H 1249.5 1.4442 -0.546089 0
M  V30 13238 H 1251.45 3.83678 1.4595 0
M  V30 13239 H 1250.11 2.68189 1.63504 0
M  V30 13240 H 1249.31 4.95447 0.924578 0
M  V30 13241 H 1248.91 3.72789 -0.300772 0
M  V30 13242 H 1251.2 6.73945 0.693174 0
M  V30 13243 H 1252.14 7.03543 -0.80202 0
M  V30 13244 H 1252.55 5.6399 0.2398 0
M  V30 13245 N 1251.95 0.502579 1.49372 0
M  V30 13246 C 1252.88 -0.321683 2.25921 0
M  V30 13247 C 1253.86 -0.968999 1.30572 0
M  V30 13248 O 1255.05 -0.998788 1.59864 0
M  V30 13249 C 1252.17 -1.45318 3.05942 0
M  V30 13250 C 1251.22 -0.920076 4.16457 0
M  V30 13251 S 1252.05 0.190402 5.35161 0
M  V30 13252 C 1253.21 -0.944222 6.18737 0
M  V30 13253 H 1253.44 0.328036 2.95485 0
M  V30 13254 H 1250.97 0.287903 1.51692 0
M  V30 13255 H 1252.93 -2.1015 3.52629 0
M  V30 13256 H 1251.59 -2.07452 2.35844 0
M  V30 13257 H 1250.79 -1.76808 4.71969 0
M  V30 13258 H 1250.39 -0.348944 3.72369 0
M  V30 13259 H 1252.68 -1.8491 6.51778 0
M  V30 13260 H 1253.62 -0.42769 7.06807 0
M  V30 13261 H 1254.03 -1.21227 5.5133 0
M  V30 13262 N 1253.43 -1.55816 0.23648 0
M  V30 13263 C 1254.71 -1.90565 -0.440933 0
M  V30 13264 C 1255.09 -1.15585 -1.76645 0
M  V30 13265 O 1254.43 -0.269949 -2.269 0
M  V30 13266 C 1254.64 -3.43462 -0.61925 0
M  V30 13267 C 1255.99 -4.14516 -0.91989 0
M  V30 13268 O 1257.02 -3.49144 -0.705496 0
M  V30 13269 O 1255.87 -5.3013 -1.32759 0
M  V30 13270 H 1252.97 -0.79285 -0.235199 0
M  V30 13271 H 1255.51 -1.67378 0.279774 0
M  V30 13272 H 1254.29 -3.90029 0.315124 0
M  V30 13273 H 1253.91 -3.72478 -1.39089 0
M  V30 13274 N 1254.91 0.036755 -1.57557 0
M  V30 13275 C 1256.32 0.392264 -1.54704 0
M  V30 13276 C 1256.52 1.77076 -0.96157 0
M  V30 13277 O 1255.58 2.45766 -0.579263 0
M  V30 13278 C 1256.89 0.301168 -2.99188 0
M  V30 13279 C 1258.44 0.378813 -3.10699 0
M  V30 13280 C 1258.91 0.317249 -4.569 0
M  V30 13281 N 1260.41 0.376277 -4.61669 0
M  V30 13282 C 1261.14 0.351411 -5.72322 0
M  V30 13283 N 1260.64 0.279288 -6.92237 0
M  V30 13284 N 1262.43 0.400571 -5.60671 0
M  V30 13285 H 1254.58 -0.865455 -1.93968 0
M  V30 13286 H 1256.84 -0.328339 -0.889324 0
M  V30 13287 H 1256.55 -0.64582 -3.4572 0
M  V30 13288 H 1256.42 1.09784 -3.6087 0
M  V30 13289 H 1258.81 1.31623 -2.6412 0
M  V30 13290 H 1258.89 -0.447072 -2.51863 0
M  V30 13291 H 1258.54 -0.616469 -5.04145 0
M  V30 13292 H 1258.47 1.16114 -5.13639 0
M  V30 13293 H 1260.96 0.434843 -3.7539 0
M  V30 13294 H 1261.27 0.265202 -7.72345 0
M  V30 13295 H 1259.61 0.24545 -6.94566 0
M  V30 13296 H 1262.81 0.454854 -4.65885 0
M  V30 13297 H 1262.98 0.377724 -6.46898 0
M  V30 13298 N 1256.39 1.54543 0.308881 0
M  V30 13299 C 1257.3 1.87994 1.4034 0
M  V30 13300 C 1258.31 0.773294 1.55872 0
M  V30 13301 O 1259.49 1.069 1.70688 0
M  V30 13302 C 1256.55 2.11341 2.74838 0
M  V30 13303 C 1255.61 3.35086 2.68358 0
M  V30 13304 C 1254.85 3.5731 3.96441 0
M  V30 13305 O 1255.07 2.82692 4.9542 0
M  V30 13306 O 1254 4.50814 3.98811 0
M  V30 13307 H 1257.83 2.81094 1.14976 0
M  V30 13308 H 1255.41 1.40634 0.504236 0
M  V30 13309 H 1257.3 2.27943 3.54429 0
M  V30 13310 H 1255.97 1.21427 3.00062 0
M  V30 13311 H 1254.88 3.23855 1.87267 0
M  V30 13312 H 1256.21 4.25104 2.48087 0
M  V30 13313 N 1257.86 -0.571685 1.46866 0
M  V30 13314 C 1258.81 -1.67992 1.58263 0
M  V30 13315 C 1259.78 -1.60535 0.426345 0
M  V30 13316 O 1260.97 -1.79584 0.644534 0
M  V30 13317 C 1258.11 -3.06327 1.58927 0
M  V30 13318 C 1257.22 -3.24328 2.85369 0
M  V30 13319 C 1256.35 -4.52976 2.77464 0
M  V30 13320 C 1255.39 -4.64359 3.98795 0
M  V30 13321 N 1254.53 -5.84345 3.89211 0
M  V30 13322 H 1259.37 -1.57589 2.52922 0
M  V30 13323 H 1256.91 -0.767883 1.25467 0
M  V30 13324 H 1258.86 -3.86411 1.57296 0
M  V30 13325 H 1257.49 -3.15601 0.677912 0
M  V30 13326 H 1256.55 -2.37774 2.96931 0
M  V30 13327 H 1257.86 -3.28605 3.7526 0
M  V30 13328 H 1257.01 -5.41303 2.74001 0
M  V30 13329 H 1255.75 -4.51155 1.85231 0
M  V30 13330 H 1254.76 -3.74448 4.02578 0
M  V30 13331 H 1255.98 -4.6795 4.92137 0
M  V30 13332 H 1253.93 -5.835 2.99772 0
M  V30 13333 H 1253.84 -5.89938 4.72768 0
M  V30 13334 H 1255.11 -6.75072 3.89741 0
M  V30 13335 N 1259.34 -1.34755 -0.817236 0
M  V30 13336 C 1260.3 -1.26687 -1.91006 0
M  V30 13337 C 1261.3 -0.180745 -1.59781 0
M  V30 13338 O 1262.49 -0.433748 -1.68714 0
M  V30 13339 C 1259.63 -0.957293 -3.27183 0
M  V30 13340 H 1260.82 -2.23846 -1.99582 0
M  V30 13341 H 1258.37 -1.19125 -1.01187 0
M  V30 13342 H 1259.11 0.0108917 -3.24298 0
M  V30 13343 H 1258.89 -1.74297 -3.5123 0
M  V30 13344 H 1260.38 -0.926161 -4.072 0
M  V30 13345 N 1260.82 1.03812 -1.18578 0
M  V30 13346 C 1262.05 1.8044 -1.00623 0
M  V30 13347 C 1262.46 1.83808 0.448451 0
M  V30 13348 O 1261.8 1.27417 1.32328 0
M  V30 13349 C 1261.86 3.27266 -1.48785 0
M  V30 13350 C 1261.53 3.47553 -2.96742 0
M  V30 13351 C 1262.52 3.38533 -3.94578 0
M  V30 13352 C 1260.21 3.74067 -3.3523 0
M  V30 13353 C 1262.2 3.55735 -5.28896 0
M  V30 13354 C 1259.89 3.90916 -4.6971 0
M  V30 13355 C 1260.89 3.81751 -5.66352 0
M  V30 13356 O 1260.58 3.98115 -6.98398 0
M  V30 13357 H 1260.31 0.574996 -0.355465 0
M  V30 13358 H 1262.86 1.31708 -1.57614 0
M  V30 13359 H 1261.09 3.76979 -0.861613 0
M  V30 13360 H 1262.78 3.85461 -1.27181 0
M  V30 13361 H 1263.55 3.18011 -3.66189 0
M  V30 13362 H 1259.43 3.80298 -2.60566 0
M  V30 13363 H 1262.97 3.48498 -6.04314 0
M  V30 13364 H 1258.87 4.10934 -4.97799 0
M  V30 13365 H 1259.63 4.1526 -7.05338 0
M  V30 13366 N 1262.3 0.988223 1.22768 0
M  V30 13367 C 1263.55 0.656941 1.90702 0
M  V30 13368 C 1263.86 -0.814058 1.77855 0
M  V30 13369 O 1265.07 -1.25673 2.40663 0
M  V30 13370 C 1263.52 1.12445 3.41883 0
M  V30 13371 C 1263.13 2.62034 3.63376 0
M  V30 13372 C 1264.87 0.867277 4.15546 0
M  V30 13373 C 1262.78 3.02412 5.08233 0
M  V30 13374 H 1261.71 0.242012 0.714105 0
M  V30 13375 H 1264.36 1.19716 1.39069 0
M  V30 13376 H 1262.74 0.512386 3.92671 0
M  V30 13377 H 1263.92 3.28546 3.23101 0
M  V30 13378 H 1262.23 2.85583 3.03037 0
M  V30 13379 H 1264.83 1.14471 5.22303 0
M  V30 13380 H 1265.17 -0.196611 4.15835 0
M  V30 13381 H 1265.71 1.4413 3.70771 0
M  V30 13382 H 1262.44 4.07957 5.1308 0
M  V30 13383 H 1261.96 2.406 5.49429 0
M  V30 13384 H 1263.64 2.93452 5.76624 0
M  V30 13385 N 1263.78 -1.38018 0.760839 0
M  V30 13386 C 1265.19 -1.82645 0.387022 0
M  V30 13387 C 1265.54 -1.63445 -1.08536 0
M  V30 13388 O 1264.66 -1.13958 -1.83963 0
M  V30 13389 C 1265.26 -3.3158 0.69569 0
M  V30 13390 C 1263.82 -3.74527 0.375063 0
M  V30 13391 C 1262.96 -2.60696 0.94515 0
M  V30 13392 H 1265.91 -1.26644 0.956396 0
M  V30 13393 H 1265.94 -3.80493 -0.0235511 0
M  V30 13394 H 1265.45 -3.45522 1.76737 0
M  V30 13395 H 1263.55 -3.6616 -0.689741 0
M  V30 13396 H 1263.66 -4.71029 0.875685 0
M  V30 13397 H 1262.03 -2.51997 0.370065 0
M  V30 13398 H 1262.81 -2.77434 2.02201 0
M  V30 13399 N 1265.25 -0.510493 -1.49103 0
M  V30 13400 C 1266.16 0.267176 -2.33074 0
M  V30 13401 C 1267.18 0.958117 -1.45245 0
M  V30 13402 O 1268.36 0.937399 -1.78255 0
M  V30 13403 C 1265.42 1.31212 -3.20911 0
M  V30 13404 C 1264.48 0.633613 -4.24598 0
M  V30 13405 C 1263.71 1.62878 -5.08239 0
M  V30 13406 O 1263.94 2.85958 -4.93543 0
M  V30 13407 O 1262.87 1.17887 -5.90242 0
M  V30 13408 H 1266.7 -0.420384 -3.00776 0
M  V30 13409 H 1264.28 -0.271683 -1.46909 0
M  V30 13410 H 1266.16 1.91647 -3.75299 0
M  V30 13411 H 1264.84 1.98244 -2.55892 0
M  V30 13412 H 1263.75 -0.0107246 -3.74098 0
M  V30 13413 H 1265.08 0.0055777 -4.922 0
M  V30 13414 N 1266.73 1.55688 -0.24474 0
M  V30 13415 C 1267.66 2.24272 0.64995 0
M  V30 13416 C 1268.64 1.22226 1.183 0
M  V30 13417 O 1269.83 1.50873 1.22274 0
M  V30 13418 C 1266.96 2.94053 1.84798 0
M  V30 13419 C 1265.91 4.02769 1.44779 0
M  V30 13420 C 1265.24 4.59965 2.72647 0
M  V30 13421 C 1266.54 5.18601 0.62047 0
M  V30 13422 H 1268.23 2.99298 0.0780654 0
M  V30 13423 H 1265.78 1.43955 0.0361069 0
M  V30 13424 H 1267.73 3.40732 2.47951 0
M  V30 13425 H 1266.45 2.16511 2.44521 0
M  V30 13426 H 1265.11 3.56856 0.839609 0
M  V30 13427 H 1264.76 3.79126 3.30564 0
M  V30 13428 H 1264.46 5.33352 2.46596 0
M  V30 13429 H 1265.99 5.09376 3.36703 0
M  V30 13430 H 1267.4 5.61519 1.15625 0
M  V30 13431 H 1265.8 5.98364 0.456097 0
M  V30 13432 H 1266.87 4.83503 -0.367798 0
M  V30 13433 N 1268.21 -0.0283989 1.57574 0
M  V30 13434 C 1269.14 -1.05641 2.03403 0
M  V30 13435 C 1270.15 -1.32426 0.946953 0
M  V30 13436 O 1271.34 -1.29902 1.22425 0
M  V30 13437 C 1268.44 -2.39788 2.39489 0
M  V30 13438 C 1267.62 -2.32348 3.70585 0
M  V30 13439 C 1266.68 -3.4895 3.93853 0
M  V30 13440 O 1265.7 -3.28414 4.64901 0
M  V30 13441 N 1266.9 -4.7084 3.39543 0
M  V30 13442 H 1269.67 -0.665788 2.92211 0
M  V30 13443 H 1267.23 -0.21633 1.60448 0
M  V30 13444 H 1269.22 -3.16514 2.52193 0
M  V30 13445 H 1267.79 -2.70692 1.56348 0
M  V30 13446 H 1267.01 -1.40717 3.68229 0
M  V30 13447 H 1268.3 -2.24521 4.56582 0
M  V30 13448 H 1267.7 -4.90425 2.81956 0
M  V30 13449 H 1266.25 -5.44929 3.57625 0
M  V30 13450 N 1269.69 -1.54705 -0.300681 0
M  V30 13451 C 1270.94 -1.73211 -1.03349 0
M  V30 13452 C 1271.25 -0.52518 -1.88418 0
M  V30 13453 O 1272.46 -0.592049 -2.64966 0
M  V30 13454 C 1270.91 -3.06453 -1.88717 0
M  V30 13455 C 1270.52 -4.34625 -1.0865 0
M  V30 13456 C 1272.26 -3.34317 -2.61595 0
M  V30 13457 C 1270.17 -5.58919 -1.93297 0
M  V30 13458 H 1269.1 -0.64556 -0.389574 0
M  V30 13459 H 1271.75 -1.81186 -0.290472 0
M  V30 13460 H 1270.13 -2.92443 -2.67008 0
M  V30 13461 H 1271.31 -4.59471 -0.349707 0
M  V30 13462 H 1269.62 -4.13699 -0.473521 0
M  V30 13463 H 1272.22 -4.2438 -3.25278 0
M  V30 13464 H 1272.56 -2.53207 -3.30442 0
M  V30 13465 H 1273.1 -3.493 -1.90354 0
M  V30 13466 H 1269.83 -6.42697 -1.2892 0
M  V30 13467 H 1269.35 -5.38258 -2.64647 0
M  V30 13468 H 1271.03 -5.96187 -2.51336 0
M  V30 13469 N 1271.17 0.563888 -1.47167 0
M  V30 13470 C 1272.39 1.35176 -1.57297 0
M  V30 13471 C 1272.82 1.86794 -0.221235 0
M  V30 13472 O 1272.17 1.62606 0.801809 0
M  V30 13473 C 1272.22 2.50225 -2.59654 0
M  V30 13474 O 1271.33 3.5225 -2.14461 0
M  V30 13475 H 1270.67 0.401795 -0.528637 0
M  V30 13476 H 1273.2 0.682137 -1.92894 0
M  V30 13477 H 1273.21 2.96886 -2.79862 0
M  V30 13478 H 1271.88 2.1201 -3.57805 0
M  V30 13479 H 1270.46 3.1194 -2.04323 0
M  V30 13480 N 1272.64 1.35187 0.810078 0
M  V30 13481 C 1273.89 1.28264 1.56699 0
M  V30 13482 C 1274.22 -0.143906 1.93967 0
M  V30 13483 O 1273.47 -1.10832 1.61291 0
M  V30 13484 C 1273.77 2.13135 2.86894 0
M  V30 13485 C 1273.44 3.61974 2.6886 0
M  V30 13486 C 1272.1 4.02545 2.63649 0
M  V30 13487 C 1274.45 4.5643 2.51636 0
M  V30 13488 C 1271.78 5.35745 2.39154 0
M  V30 13489 C 1274.13 5.89824 2.2867 0
M  V30 13490 C 1272.8 6.29544 2.2188 0
M  V30 13491 H 1272.07 0.469353 0.573401 0
M  V30 13492 H 1274.71 1.67051 0.936282 0
M  V30 13493 H 1273.02 1.67218 3.54324 0
M  V30 13494 H 1274.72 2.05117 3.44569 0
M  V30 13495 H 1271.31 3.29777 2.73761 0
M  V30 13496 H 1275.49 4.25974 2.54677 0
M  V30 13497 H 1270.75 5.65524 2.32363 0
M  V30 13498 H 1274.92 6.62597 2.14333 0
M  V30 13499 H 1272.55 7.32689 2.0266 0
M  V30 13500 N 1274.12 -1.03182 1.19127 0
M  V30 13501 C 1275.06 -2.10977 0.869702 0
M  V30 13502 C 1276.03 -1.61687 -0.172032 0
M  V30 13503 O 1277.22 -1.88436 -0.0490025 0
M  V30 13504 C 1274.34 -3.37359 0.301049 0
M  V30 13505 C 1273.39 -4.05515 1.32137 0
M  V30 13506 S 1274.22 -4.51415 2.88071 0
M  V30 13507 C 1275.38 -5.81018 2.32741 0
M  V30 13508 H 1275.61 -2.37929 1.78261 0
M  V30 13509 H 1273.15 -1.16079 1.01809 0
M  V30 13510 H 1275.1 -4.10495 -0.0205205 0
M  V30 13511 H 1273.76 -3.08507 -0.590118 0
M  V30 13512 H 1272.96 -4.9639 0.872547 0
M  V30 13513 H 1272.56 -3.38536 1.58963 0
M  V30 13514 H 1274.85 -6.5542 1.71552 0
M  V30 13515 H 1275.79 -6.30677 3.21951 0
M  V30 13516 H 1276.2 -5.36549 1.75429 0
M  V30 13517 N 1275.6 -0.99472 -1.22242 0
M  V30 13518 C 1276.51 -0.555502 -2.27928 0
M  V30 13519 C 1277.53 0.396584 -1.6942 0
M  V30 13520 O 1278.7 0.262965 -1.99676 0
M  V30 13521 C 1275.77 0.121121 -3.46488 0
M  V30 13522 C 1274.83 -0.874155 -4.20306 0
M  V30 13523 C 1274.06 -0.229726 -5.33205 0
M  V30 13524 O 1274.28 0.975935 -5.61989 0
M  V30 13525 O 1273.22 -0.935501 -5.94586 0
M  V30 13526 H 1277.04 -1.4348 -2.6767 0
M  V30 13527 H 1274.63 -0.763061 -1.28444 0
M  V30 13528 H 1276.51 0.500043 -4.18423 0
M  V30 13529 H 1275.19 0.974959 -3.08668 0
M  V30 13530 H 1274.09 -1.30404 -3.50636 0
M  V30 13531 H 1275.43 -1.69725 -4.62011 0
M  V30 13532 N 1277.08 1.37613 -0.768148 0
M  V30 13533 C 1278.03 2.27654 -0.125596 0
M  V30 13534 C 1279.01 1.45923 0.677883 0
M  V30 13535 O 1280.2 1.68515 0.541448 0
M  V30 13536 C 1277.33 3.34884 0.7555 0
M  V30 13537 C 1276.42 4.24064 -0.0556137 0
M  V30 13538 N 1276.81 4.93707 -1.09943 0
M  V30 13539 C 1275.11 4.4568 0.168932 0
M  V30 13540 C 1275.81 5.59508 -1.59142 0
M  V30 13541 N 1274.79 5.36027 -0.904208 0
M  V30 13542 H 1278.59 2.7897 -0.924828 0
M  V30 13543 H 1276.1 1.50687 -0.605561 0
M  V30 13544 H 1278.1 3.98294 1.23157 0
M  V30 13545 H 1276.76 2.85124 1.55352 0
M  V30 13546 H 1277.77 4.96258 -1.48151 0
M  V30 13547 H 1274.45 4.068 0.939144 0
M  V30 13548 H 1275.84 6.2518 -2.4617 0
M  V30 13549 N 1278.56 0.518393 1.4883 0
M  V30 13550 C 1279.81 -0.0218436 2.01688 0
M  V30 13551 C 1280.12 -1.36421 1.40174 0
M  V30 13552 O 1281.32 -1.99214 1.84461 0
M  V30 13553 C 1279.78 -0.0893538 3.59789 0
M  V30 13554 C 1279.39 1.24741 4.30283 0
M  V30 13555 C 1281.13 -0.579032 4.20532 0
M  V30 13556 C 1279.04 1.14112 5.80286 0
M  V30 13557 H 1277.97 -0.0119353 0.753906 0
M  V30 13558 H 1280.62 0.660432 1.71203 0
M  V30 13559 H 1279 -0.836458 3.87065 0
M  V30 13560 H 1280.18 2.00917 4.14691 0
M  V30 13561 H 1278.49 1.67191 3.81361 0
M  V30 13562 H 1281.09 -0.676343 5.30405 0
M  V30 13563 H 1281.43 -1.58207 3.85067 0
M  V30 13564 H 1281.96 0.112046 3.97642 0
M  V30 13565 H 1278.7 2.11895 6.20307 0
M  V30 13566 H 1278.22 0.420535 5.98324 0
M  V30 13567 H 1279.9 0.826992 6.41693 0
M  V30 13568 N 1280.03 -1.55556 0.252993 0
M  V30 13569 C 1281 -2.20351 -0.630705 0
M  V30 13570 C 1282 -1.17461 -1.09816 0
M  V30 13571 O 1283.19 -1.42505 -1.00189 0
M  V30 13572 C 1280.32 -2.85192 -1.86757 0
M  V30 13573 H 1281.51 -2.99829 -0.0652939 0
M  V30 13574 H 1279.07 -1.563 0.00347982 0
M  V30 13575 H 1279.8 -2.09669 -2.47406 0
M  V30 13576 H 1279.59 -3.60569 -1.54053 0
M  V30 13577 H 1281.08 -3.34762 -2.49648 0
M  V30 13578 N 1281.51 0.0200419 -1.57587 0
M  V30 13579 C 1282.45 1.05118 -2.02547 0
M  V30 13580 C 1283.42 1.3465 -0.911494 0
M  V30 13581 O 1284.61 1.47154 -1.17805 0
M  V30 13582 C 1281.73 2.38373 -2.40615 0
M  V30 13583 C 1280.78 2.24639 -3.62546 0
M  V30 13584 S 1281.61 1.59129 -5.1131 0
M  V30 13585 C 1282.77 2.93856 -5.5263 0
M  V30 13586 H 1283 0.668271 -2.89692 0
M  V30 13587 H 1280.54 0.230301 -1.52673 0
M  V30 13588 H 1282.49 3.15002 -2.63218 0
M  V30 13589 H 1281.15 2.7381 -1.53906 0
M  V30 13590 H 1280.35 3.23032 -3.86867 0
M  V30 13591 H 1279.95 1.56153 -3.39841 0
M  V30 13592 H 1282.24 3.90179 -5.53865 0
M  V30 13593 H 1283.18 2.74258 -6.52831 0
M  V30 13594 H 1283.59 2.96844 -4.8015 0
M  V30 13595 N 1282.99 1.54862 0.292472 0
M  V30 13596 C 1284.4 1.65459 0.864891 0
M  V30 13597 C 1284.75 0.568808 1.87774 0
M  V30 13598 O 1283.88 -0.293107 2.14406 0
M  V30 13599 C 1284.47 2.99939 1.5755 0
M  V30 13600 C 1283.03 3.12628 2.09621 0
M  V30 13601 C 1282.18 2.61179 0.931713 0
M  V30 13602 H 1285.13 1.58549 0.0692679 0
M  V30 13603 H 1285.15 2.91839 2.44152 0
M  V30 13604 H 1284.66 3.78943 0.838088 0
M  V30 13605 H 1282.76 2.3836 2.86383 0
M  V30 13606 H 1282.88 4.18911 2.32488 0
M  V30 13607 H 1281.24 2.17846 1.31967 0
M  V30 13608 H 1282.02 3.42669 0.208121 0
M  V30 13609 N 1284.47 -0.556076 1.47464 0
M  V30 13610 C 1285.72 -1.30955 1.53407 0
M  V30 13611 C 1286.03 -1.94559 0.201485 0
M  V30 13612 O 1287.24 -2.71144 0.138925 0
M  V30 13613 C 1285.69 -2.37476 2.70431 0
M  V30 13614 C 1285.3 -1.80057 4.10224 0
M  V30 13615 C 1287.04 -3.13997 2.85668 0
M  V30 13616 C 1284.95 -2.84365 5.18547 0
M  V30 13617 H 1283.88 -0.4924 0.571015 0
M  V30 13618 H 1286.53 -0.590459 1.73741 0
M  V30 13619 H 1284.91 -3.12304 2.43479 0
M  V30 13620 H 1286.09 -1.11593 4.47083 0
M  V30 13621 H 1284.4 -1.16116 3.99882 0
M  V30 13622 H 1287 -3.91892 3.63764 0
M  V30 13623 H 1287.34 -3.68253 1.94153 0
M  V30 13624 H 1287.88 -2.46281 3.12395 0
M  V30 13625 H 1284.62 -2.34963 6.11942 0
M  V30 13626 H 1284.14 -3.51235 4.86203 0
M  V30 13627 H 1285.81 -3.47836 5.45545 0
M  V30 13628 N 1285.95 -1.35615 -0.802897 0
M  V30 13629 C 1287.18 -1.32025 -1.58911 0
M  V30 13630 C 1287.59 0.103539 -1.88916 0
M  V30 13631 O 1286.93 1.06699 -1.49536 0
M  V30 13632 C 1286.99 -2.06313 -2.94406 0
M  V30 13633 C 1286.65 -3.5548 -2.87198 0
M  V30 13634 C 1287.65 -4.5 -2.60377 0
M  V30 13635 C 1285.34 -3.9818 -3.06199 0
M  V30 13636 C 1287.33 -5.85194 -2.5264 0
M  V30 13637 C 1285.02 -5.33469 -2.98084 0
M  V30 13638 C 1286.02 -6.26788 -2.71341 0
M  V30 13639 O 1285.7 -7.59594 -2.63195 0
M  V30 13640 H 1285.44 -0.454943 -0.500003 0
M  V30 13641 H 1287.99 -1.79106 -1.00549 0
M  V30 13642 H 1286.22 -1.53875 -3.54766 0
M  V30 13643 H 1287.91 -1.95755 -3.55577 0
M  V30 13644 H 1288.67 -4.18327 -2.45413 0
M  V30 13645 H 1284.55 -3.25927 -3.26025 0
M  V30 13646 H 1288.1 -6.58003 -2.31686 0
M  V30 13647 H 1283.99 -5.64754 -3.12607 0
M  V30 13648 H 1284.76 -7.69562 -2.78776 0
M  V30 13649 N 1287.43 1.02549 -1.19673 0
M  V30 13650 C 1288.37 2.109 -0.937536 0
M  V30 13651 C 1289.34 1.65599 0.128923 0
M  V30 13652 O 1290.53 1.90795 -0.0139366 0
M  V30 13653 C 1287.67 3.4166 -0.48602 0
M  V30 13654 C 1286.78 4.0049 -1.61963 0
M  V30 13655 C 1285.92 5.19273 -1.11931 0
M  V30 13656 C 1284.95 5.70166 -2.22659 0
M  V30 13657 N 1284.09 6.80221 -1.73909 0
M  V30 13658 H 1288.93 2.32408 -1.86523 0
M  V30 13659 H 1286.47 1.13982 -0.929869 0
M  V30 13660 H 1288.43 4.16693 -0.205614 0
M  V30 13661 H 1287.06 3.20253 0.404678 0
M  V30 13662 H 1286.11 3.22638 -2.01516 0
M  V30 13663 H 1287.42 4.34273 -2.45374 0
M  V30 13664 H 1286.57 6.01478 -0.794336 0
M  V30 13665 H 1285.31 4.87033 -0.254972 0
M  V30 13666 H 1284.32 4.86572 -2.55983 0
M  V30 13667 H 1285.54 6.04444 -3.09554 0
M  V30 13668 H 1283.49 6.49826 -0.897889 0
M  V30 13669 H 1283.41 7.13149 -2.50907 0
M  V30 13670 H 1284.67 7.66011 -1.44386 0
M  V30 13671 N 1288.9 1.00119 1.21713 0
M  V30 13672 C 1289.83 0.578504 2.2622 0
M  V30 13673 C 1290.81 -0.398777 1.6536 0
M  V30 13674 O 1292 -0.287596 1.92059 0
M  V30 13675 C 1289.13 -0.0994508 3.47158 0
M  V30 13676 C 1288.08 0.79722 4.2051 0
M  V30 13677 C 1287.41 -0.0141125 5.34698 0
M  V30 13678 C 1288.71 2.09802 4.7831 0
M  V30 13679 H 1290.4 1.45208 2.6183 0
M  V30 13680 H 1287.95 0.699656 1.2586 0
M  V30 13681 H 1289.9 -0.406605 4.19434 0
M  V30 13682 H 1288.63 -1.00763 3.10667 0
M  V30 13683 H 1287.29 1.08814 3.50079 0
M  V30 13684 H 1286.93 -0.923468 4.9445 0
M  V30 13685 H 1286.63 0.582883 5.84702 0
M  V30 13686 H 1288.16 -0.31517 6.09786 0
M  V30 13687 H 1289.57 1.85427 5.42485 0
M  V30 13688 H 1287.97 2.64455 5.38687 0
M  V30 13689 H 1289.04 2.77132 3.97902 0
M  V30 13690 N 1290.38 -1.37203 0.775435 0
M  V30 13691 C 1291.31 -2.32819 0.17826 0
M  V30 13692 C 1292.29 -1.55963 -0.678944 0
M  V30 13693 O 1293.48 -1.84183 -0.615648 0
M  V30 13694 C 1290.61 -3.40198 -0.698768 0
M  V30 13695 C 1289.56 -4.27961 0.057423 0
M  V30 13696 C 1288.89 -5.26385 -0.93929 0
M  V30 13697 C 1290.19 -5.07402 1.23856 0
M  V30 13698 H 1291.88 -2.8301 0.977028 0
M  V30 13699 H 1289.43 -1.3607 0.471274 0
M  V30 13700 H 1291.38 -4.06067 -1.12637 0
M  V30 13701 H 1290.1 -2.88541 -1.53009 0
M  V30 13702 H 1288.76 -3.63628 0.465848 0
M  V30 13703 H 1288.41 -4.71007 -1.76527 0
M  V30 13704 H 1288.11 -5.85966 -0.437844 0
M  V30 13705 H 1289.64 -5.9513 -1.36576 0
M  V30 13706 H 1291.05 -5.6639 0.887423 0
M  V30 13707 H 1289.45 -5.76327 1.67234 0
M  V30 13708 H 1290.52 -4.3986 2.04085 0
M  V30 13709 N 1291.86 -0.526279 -1.48553 0
M  V30 13710 C 1292.79 0.275579 -2.27537 0
M  V30 13711 C 1293.8 0.90782 -1.35139 0
M  V30 13712 O 1294.99 0.786887 -1.6022 0
M  V30 13713 C 1292.09 1.40515 -3.08397 0
M  V30 13714 C 1291.27 0.875523 -4.28548 0
M  V30 13715 C 1290.33 1.88577 -4.91249 0
M  V30 13716 O 1289.35 1.44419 -5.50574 0
M  V30 13717 N 1290.55 3.21774 -4.83158 0
M  V30 13718 H 1293.32 -0.401803 -2.96994 0
M  V30 13719 H 1290.88 -0.360378 -1.57838 0
M  V30 13720 H 1292.87 2.07907 -3.47213 0
M  V30 13721 H 1291.44 1.98626 -2.41384 0
M  V30 13722 H 1290.66 0.025728 -3.94192 0
M  V30 13723 H 1291.95 0.500493 -5.06332 0
M  V30 13724 H 1291.35 3.60319 -4.36104 0
M  V30 13725 H 1289.9 3.84808 -5.26085 0
M  V30 13726 N 1293.34 1.5542 -0.261239 0
M  V30 13727 C 1294.61 1.91243 0.41056 0
M  V30 13728 C 1294.99 1.1838 1.74784 0
M  V30 13729 O 1294.34 0.306013 2.26442 0
M  V30 13730 C 1294.55 3.44404 0.56453 0
M  V30 13731 C 1295.9 4.15927 0.853827 0
M  V30 13732 O 1296.92 3.50222 0.649861 0
M  V30 13733 O 1295.78 5.32175 1.24308 0
M  V30 13734 H 1292.88 0.796491 0.222555 0
M  V30 13735 H 1295.42 1.66912 -0.306367 0
M  V30 13736 H 1294.2 3.89478 -0.377134 0
M  V30 13737 H 1293.82 3.74644 1.33145 0
M  V30 13738 N 1294.82 -0.0116844 1.57596 0
M  V30 13739 C 1295.75 -1.00599 2.10718 0
M  V30 13740 C 1296.73 -1.36601 1.01362 0
M  V30 13741 O 1297.91 -1.4518 1.28982 0
M  V30 13742 C 1295.04 -2.30155 2.60089 0
M  V30 13743 C 1294 -2.08347 3.73866 0
M  V30 13744 C 1293.32 -3.43814 4.09507 0
M  V30 13745 C 1294.62 -1.45552 5.01609 0
M  V30 13746 H 1296.32 -0.563721 2.94045 0
M  V30 13747 H 1293.86 -0.269714 1.41452 0
M  V30 13748 H 1295.81 -3.00058 2.95877 0
M  V30 13749 H 1294.54 -2.76473 1.73868 0
M  V30 13750 H 1293.2 -1.40872 3.38453 0
M  V30 13751 H 1292.85 -3.87814 3.20326 0
M  V30 13752 H 1292.55 -3.30043 4.86154 0
M  V30 13753 H 1294.07 -4.15052 4.47844 0
M  V30 13754 H 1295.48 -2.05396 5.35243 0
M  V30 13755 H 1293.88 -1.42304 5.82983 0
M  V30 13756 H 1294.95 -0.423331 4.83049 0
M  V30 13757 N 1296.29 -1.55015 -0.284256 0
M  V30 13758 C 1297.54 -1.7509 -1.01733 0
M  V30 13759 C 1297.87 -0.545803 -1.86685 0
M  V30 13760 O 1297.12 0.471951 -1.89924 0
M  V30 13761 C 1297.42 -3.00246 -1.93874 0
M  V30 13762 C 1297.09 -4.33295 -1.24764 0
M  V30 13763 C 1295.75 -4.69459 -1.0565 0
M  V30 13764 C 1298.1 -5.15704 -0.754939 0
M  V30 13765 C 1295.43 -5.85596 -0.35976 0
M  V30 13766 C 1297.78 -6.32559 -0.0718473 0
M  V30 13767 C 1296.45 -6.67371 0.131104 0
M  V30 13768 H 1295.72 -0.6407 -0.372269 0
M  V30 13769 H 1298.36 -1.89282 -0.290638 0
M  V30 13770 H 1296.67 -2.80907 -2.73127 0
M  V30 13771 H 1298.37 -3.12974 -2.50696 0
M  V30 13772 H 1294.96 -4.04865 -1.4065 0
M  V30 13773 H 1299.14 -4.8825 -0.89027 0
M  V30 13774 H 1294.4 -6.11099 -0.19169 0
M  V30 13775 H 1298.57 -6.95675 0.317743 0
M  V30 13776 H 1296.2 -7.57215 0.672977 0
M  V30 13777 N 1297.77 0.548248 -1.47757 0
M  V30 13778 C 1299.18 1.13033 -1.48595 0
M  V30 13779 C 1299.53 1.94657 -0.245575 0
M  V30 13780 O 1298.66 2.06445 0.648813 0
M  V30 13781 C 1299.25 2.05657 -2.69241 0
M  V30 13782 C 1297.81 2.59119 -2.73009 0
M  V30 13783 C 1296.96 1.35686 -2.41836 0
M  V30 13784 H 1299.91 0.334397 -1.55137 0
M  V30 13785 H 1299.93 2.89671 -2.4672 0
M  V30 13786 H 1299.44 1.46222 -3.595 0
M  V30 13787 H 1297.54 3.22327 -1.86912 0
M  V30 13788 H 1297.66 2.99501 -3.73946 0
M  V30 13789 H 1296.02 1.66659 -1.92606 0
M  V30 13790 H 1296.8 0.780311 -3.34314 0
M  V30 13791 N 1299.25 1.36039 0.795694 0
M  V30 13792 C 1300.2 1.29853 1.90806 0
M  V30 13793 C 1301.17 0.168387 1.65244 0
M  V30 13794 O 1302.35 0.353879 1.8749 0
M  V30 13795 C 1299.49 1.08737 3.27521 0
M  V30 13796 C 1298.6 2.30771 3.65197 0
M  V30 13797 C 1297.74 2.02718 4.90998 0
M  V30 13798 C 1296.78 3.20746 5.21333 0
M  V30 13799 N 1295.92 2.92399 6.38316 0
M  V30 13800 H 1300.76 2.2497 1.95429 0
M  V30 13801 H 1298.29 1.11819 0.955771 0
M  V30 13802 H 1300.25 0.945236 4.06351 0
M  V30 13803 H 1298.88 0.172781 3.22337 0
M  V30 13804 H 1297.93 2.5581 2.81541 0
M  V30 13805 H 1299.24 3.18869 3.83568 0
M  V30 13806 H 1298.4 1.85398 5.77679 0
M  V30 13807 H 1297.14 1.11921 4.74684 0
M  V30 13808 H 1296.14 3.38632 4.33138 0
M  V30 13809 H 1297.37 4.1236 5.3957 0
M  V30 13810 H 1295.31 2.04207 6.23406 0
M  V30 13811 H 1295.23 3.74034 6.56989 0
M  V30 13812 H 1296.5 2.78643 7.27996 0
M  V30 13813 N 1300.73 -1.01913 1.20215 0
M  V30 13814 C 1301.69 -2.08563 0.950481 0
M  V30 13815 C 1302.69 -1.60634 -0.0729659 0
M  V30 13816 O 1303.88 -1.73437 0.162826 0
M  V30 13817 C 1301.01 -3.38171 0.430453 0
M  V30 13818 H 1302.21 -2.32323 1.89647 0
M  V30 13819 H 1299.76 -1.18674 1.01716 0
M  V30 13820 H 1300.49 -3.20086 -0.521126 0
M  V30 13821 H 1300.28 -3.74284 1.1685 0
M  V30 13822 H 1301.77 -4.16702 0.273781 0
M  V30 13823 N 1302.21 -1.00763 -1.2118 0
M  V30 13824 C 1303.17 -0.575183 -2.21865 0
M  V30 13825 C 1304.17 0.349871 -1.56948 0
M  V30 13826 O 1305.36 0.139795 -1.73638 0
M  V30 13827 C 1302.49 0.161308 -3.40518 0
M  V30 13828 H 1303.68 -1.46578 -2.61639 0
M  V30 13829 H 1301.24 -0.79643 -1.34487 0
M  V30 13830 H 1301.97 1.06723 -3.06236 0
M  V30 13831 H 1301.76 -0.503101 -3.88859 0
M  V30 13832 H 1303.25 0.451527 -4.15152 0
M  V30 13833 N 1303.68 1.3679 -0.7827 0
M  V30 13834 C 1304.59 2.33928 -0.17747 0
M  V30 13835 C 1305.61 1.60716 0.666802 0
M  V30 13836 O 1306.79 1.92742 0.584162 0
M  V30 13837 C 1303.85 3.39907 0.68294 0
M  V30 13838 C 1302.91 4.28926 -0.179053 0
M  V30 13839 C 1302.15 5.29844 0.640386 0
M  V30 13840 O 1302.37 5.38639 1.87681 0
M  V30 13841 O 1301.3 6.01884 0.0438164 0
M  V30 13842 H 1305.13 2.87439 -0.980441 0
M  V30 13843 H 1302.71 1.39142 -0.54404 0
M  V30 13844 H 1304.6 4.04722 1.17379 0
M  V30 13845 H 1303.27 2.88706 1.46391 0
M  V30 13846 H 1302.18 3.67174 -0.716512 0
M  V30 13847 H 1303.51 4.83461 -0.923377 0
M  V30 13848 N 1305.16 0.53415 1.48272 0
M  V30 13849 C 1306.09 -0.215037 2.32508 0
M  V30 13850 C 1307.07 -0.931083 1.42355 0
M  V30 13851 O 1308.26 -0.916051 1.71237 0
M  V30 13852 C 1305.39 -1.25985 3.23643 0
M  V30 13853 C 1304.34 -0.661692 4.22854 0
M  V30 13854 C 1303.67 -1.80946 5.03153 0
M  V30 13855 C 1304.97 0.369358 5.20992 0
M  V30 13856 H 1306.66 0.488158 2.95394 0
M  V30 13857 H 1304.21 0.236206 1.4205 0
M  V30 13858 H 1306.16 -1.79195 3.81402 0
M  V30 13859 H 1304.89 -1.99268 2.58766 0
M  V30 13860 H 1303.54 -0.151082 3.66289 0
M  V30 13861 H 1303.19 -2.53077 4.34696 0
M  V30 13862 H 1302.89 -1.41513 5.70305 0
M  V30 13863 H 1304.42 -2.34526 5.63764 0
M  V30 13864 H 1305.83 -0.0758076 5.7325 0
M  V30 13865 H 1304.23 0.681301 5.9622 0
M  V30 13866 H 1305.3 1.27363 4.67875 0
M  V30 13867 N 1306.64 -1.55279 0.269478 0
M  V30 13868 C 1307.87 -2.03581 -0.351907 0
M  V30 13869 C 1308.28 -1.14747 -1.50432 0
M  V30 13870 O 1307.62 -0.158939 -1.83011 0
M  V30 13871 C 1307.68 -3.48041 -0.900444 0
M  V30 13872 C 1307.35 -4.56835 0.122612 0
M  V30 13873 C 1308.34 -5.11329 0.940149 0
M  V30 13874 C 1306.03 -5.01651 0.255224 0
M  V30 13875 C 1308.02 -6.09151 1.87654 0
M  V30 13876 C 1305.71 -5.993 1.19509 0
M  V30 13877 C 1306.71 -6.52931 2.00426 0
M  V30 13878 O 1306.4 -7.48671 2.92825 0
M  V30 13879 H 1306.13 -0.670627 -0.0850629 0
M  V30 13880 H 1308.68 -2.01514 0.39766 0
M  V30 13881 H 1306.91 -3.47329 -1.69998 0
M  V30 13882 H 1308.6 -3.79713 -1.43431 0
M  V30 13883 H 1309.37 -4.77522 0.848402 0
M  V30 13884 H 1305.25 -4.59556 -0.364579 0
M  V30 13885 H 1308.79 -6.50937 2.50853 0
M  V30 13886 H 1304.69 -6.32526 1.28768 0
M  V30 13887 H 1305.46 -7.66368 2.87442 0
M  V30 13888 N 1308.12 0.00332656 -1.576 0
M  V30 13889 C 1309.03 1.01221 -2.1164 0
M  V30 13890 C 1310.04 1.37918 -1.06088 0
M  V30 13891 O 1311.22 1.46717 -1.37971 0
M  V30 13892 C 1308.29 2.28638 -2.60626 0
M  V30 13893 C 1307.35 1.98284 -3.80765 0
M  V30 13894 C 1306.58 3.19626 -4.27405 0
M  V30 13895 O 1306.8 4.31196 -3.73398 0
M  V30 13896 O 1305.74 3.03819 -5.19594 0
M  V30 13897 H 1309.56 0.582839 -2.98055 0
M  V30 13898 H 1307.15 0.221947 -1.47742 0
M  V30 13899 H 1309.03 3.03498 -2.92347 0
M  V30 13900 H 1307.7 2.70819 -1.7731 0
M  V30 13901 H 1306.61 1.2091 -3.54022 0
M  V30 13902 H 1307.94 1.60942 -4.65144 0
M  V30 13903 N 1309.6 1.55164 0.276031 0
M  V30 13904 C 1311.01 1.46936 0.623061 0
M  V30 13905 C 1311.21 0.680977 1.89644 0
M  V30 13906 O 1310.27 0.198618 2.51718 0
M  V30 13907 C 1311.58 2.91123 0.752839 0
M  V30 13908 C 1313.13 3.01319 0.847093 0
M  V30 13909 C 1313.6 4.46755 1.00867 0
M  V30 13910 N 1315.1 4.5057 1.07427 0
M  V30 13911 C 1315.83 5.60314 1.21804 0
M  V30 13912 N 1315.33 6.7993 1.32919 0
M  V30 13913 N 1317.12 5.4805 1.2489 0
M  V30 13914 H 1309.27 2.04877 -0.560282 0
M  V30 13915 H 1311.53 0.928925 -0.189217 0
M  V30 13916 H 1311.24 3.51521 -0.112333 0
M  V30 13917 H 1311.11 3.39967 1.63408 0
M  V30 13918 H 1313.5 2.41021 1.70274 0
M  V30 13919 H 1313.58 2.55733 -0.0586896 0
M  V30 13920 H 1313.23 5.07655 0.1577 0
M  V30 13921 H 1313.16 4.89995 1.92906 0
M  V30 13922 H 1315.65 3.64404 1.00089 0
M  V30 13923 H 1315.96 7.59319 1.43714 0
M  V30 13924 H 1314.3 6.82747 1.29929 0
M  V30 13925 H 1317.5 4.53542 1.15834 0
M  V30 13926 H 1317.67 6.33621 1.3575 0
M  V30 13927 N 1311.07 -0.540404 1.48045 0
M  V30 13928 C 1312.32 -1.2987 1.55762 0
M  V30 13929 C 1312.65 -1.92877 0.226307 0
M  V30 13930 O 1311.93 -1.7875 -0.766727 0
M  V30 13931 C 1312.21 -2.39602 2.68817 0
M  V30 13932 C 1312.06 -1.81354 4.1162 0
M  V30 13933 C 1313.38 -3.41434 2.77688 0
M  V30 13934 H 1310.5 -0.47083 0.566999 0
M  V30 13935 H 1313.14 -0.603081 1.80175 0
M  V30 13936 H 1311.29 -2.98936 2.48132 0
M  V30 13937 H 1312.97 -1.26151 4.43716 0
M  V30 13938 H 1311.21 -1.1194 4.19108 0
M  V30 13939 H 1311.88 -2.60758 4.86528 0
M  V30 13940 H 1314.36 -2.92042 2.96396 0
M  V30 13941 H 1313.23 -4.15621 3.5854 0
M  V30 13942 H 1313.49 -4.01336 1.85422 0
M  V30 13943 N 1312.55 -1.36459 -0.788468 0
M  V30 13944 C 1313.52 -1.3071 -1.88275 0
M  V30 13945 C 1314.52 -0.214596 -1.59362 0
M  V30 13946 O 1315.71 -0.469437 -1.67756 0
M  V30 13947 C 1312.84 -1.02648 -3.25079 0
M  V30 13948 H 1314.03 -2.28029 -1.94788 0
M  V30 13949 H 1311.58 -1.21245 -0.986375 0
M  V30 13950 H 1312.32 -0.0578992 -3.24248 0
M  V30 13951 H 1312.1 -1.81708 -3.47454 0
M  V30 13952 H 1313.59 -1.01233 -4.05144 0
M  V30 13953 N 1314.03 1.01274 -1.20754 0
M  V30 13954 C 1315.26 1.7906 -1.04653 0
M  V30 13955 C 1315.68 1.83806 0.399632 0
M  V30 13956 O 1315.04 1.27596 1.28798 0
M  V30 13957 C 1315.09 3.21187 -1.63925 0
M  V30 13958 O 1314.19 4.02913 -0.879486 0
M  V30 13959 H 1313.53 0.552147 -0.368823 0
M  V30 13960 H 1316.06 1.27356 -1.6013 0
M  V30 13961 H 1316.07 3.71887 -1.67822 0
M  V30 13962 H 1314.75 3.17048 -2.69172 0
M  V30 13963 H 1313.32 3.61499 -0.915019 0
M  V30 13964 N 1315.51 1.01404 1.20644 0
M  V30 13965 C 1316.46 0.575388 2.25371 0
M  V30 13966 C 1317.45 -0.384598 1.64976 0
M  V30 13967 O 1318.66 -0.2548 1.78187 0
M  V30 13968 H 1315.03 0.167752 0.733051 0
M  V30 13969 H 1317 1.46964 2.597 0
M  V30 13970 C 1315.75 -0.0731257 3.47623 0
M  V30 13971 H 1315.08 0.656551 3.94372 0
M  V30 13972 H 1316.52 -0.343203 4.22609 0
M  V30 13973 C 1314.97 -1.31515 3.1017 0
M  V30 13974 O 1315.5 -2.40869 3.21473 0
M  V30 13975 N 1313.71 -1.19829 2.64744 0
M  V30 13976 H 1313.26 -0.308463 2.55746 0
M  V30 13977 H 1313.22 -2.0303 2.40054 0
M  V30 13978 N 1316.99 -1.36373 0.789944 0
M  V30 13979 C 1318.24 -1.98834 0.361866 0
M  V30 13980 C 1318.56 -1.63006 -1.07024 0
M  V30 13981 O 1317.83 -0.904312 -1.73779 0
M  V30 13982 H 1316.41 -0.735457 0.130812 0
M  V30 13983 H 1319.07 -1.66561 1.0121 0
M  V30 13984 H 1318.16 -3.08778 0.454122 0
M  V30 13985 N 1318.47 -0.542005 -1.47987 0
M  V30 13986 C 1319.38 0.217677 -2.33588 0
M  V30 13987 C 1320.39 0.927093 -1.47245 0
M  V30 13988 O 1321.57 0.899378 -1.80203 0
M  V30 13989 C 1318.63 1.24376 -3.23622 0
M  V30 13990 C 1317.69 0.543407 -4.25847 0
M  V30 13991 C 1316.93 1.5206 -5.11579 0
M  V30 13992 O 1317.15 2.75425 -4.99497 0
M  V30 13993 O 1316.08 1.05341 -5.9261 0
M  V30 13994 H 1319.91 -0.484089 -2.99817 0
M  V30 13995 H 1317.49 -0.302783 -1.463 0
M  V30 13996 H 1319.38 1.83644 -3.7928 0
M  V30 13997 H 1318.05 1.92772 -2.6004 0
M  V30 13998 H 1316.96 -0.090074 -3.73992 0
M  V30 13999 H 1318.29 -0.0988264 -4.92101 0
M  V30 14000 N 1319.94 1.55134 -0.277709 0
M  V30 14001 C 1320.89 2.19317 0.623216 0
M  V30 14002 C 1321.88 1.15863 1.11645 0
M  V30 14003 O 1323.07 1.41668 1.0611 0
M  V30 14004 C 1320.2 2.91976 1.80568 0
M  V30 14005 C 1319.28 4.02722 1.3295 0
M  V30 14006 N 1319.68 5.02582 0.569654 0
M  V30 14007 C 1317.97 4.1584 1.61224 0
M  V30 14008 C 1318.67 5.80825 0.318983 0
M  V30 14009 N 1317.65 5.36229 0.892145 0
M  V30 14010 H 1321.45 2.93879 0.0348669 0
M  V30 14011 H 1318.97 1.62196 -0.0813871 0
M  V30 14012 H 1320.96 3.36408 2.46242 0
M  V30 14013 H 1319.62 2.18925 2.39796 0
M  V30 14014 H 1320.63 5.17446 0.216749 0
M  V30 14015 H 1317.31 3.53981 2.21368 0
M  V30 14016 H 1318.7 6.71275 -0.289742 0
M  V30 14017 N 1321.42 0.00503138 1.57599 0
M  V30 14018 C 1322.67 -0.674107 1.91905 0
M  V30 14019 C 1323.02 -1.71101 0.8799 0
M  V30 14020 O 1322.32 -1.913 -0.107261 0
M  V30 14021 C 1322.51 -1.35485 3.30724 0
M  V30 14022 C 1322.34 -0.385403 4.48045 0
M  V30 14023 C 1321.11 0.00602574 5.053 0
M  V30 14024 C 1323.31 0.350442 5.13105 0
M  V30 14025 N 1321.29 0.97316 6.06138 0
M  V30 14026 C 1322.66 1.1721 6.0882 0
M  V30 14027 C 1324.71 0.413738 4.96178 0
M  V30 14028 C 1323.42 2.05129 6.89431 0
M  V30 14029 C 1325.44 1.28018 5.77378 0
M  V30 14030 C 1324.81 2.08967 6.7269 0
M  V30 14031 H 1320.9 -0.219721 0.750498 0
M  V30 14032 H 1323.49 0.0665598 1.94586 0
M  V30 14033 H 1321.66 -2.06578 3.28907 0
M  V30 14034 H 1323.39 -1.98909 3.52445 0
M  V30 14035 H 1320.15 -0.363403 4.72204 0
M  V30 14036 H 1320.57 1.45225 6.6124 0
M  V30 14037 H 1325.21 -0.19783 4.22337 0
M  V30 14038 H 1322.93 2.67351 7.62594 0
M  V30 14039 H 1326.52 1.33313 5.66321 0
M  V30 14040 H 1325.4 2.74926 7.34428 0
M  V30 14041 N 1322.9 -1.55308 -0.267798 0
M  V30 14042 C 1324.13 -1.80191 -1.01681 0
M  V30 14043 C 1324.54 -0.57783 -1.7974 0
M  V30 14044 O 1323.9 0.4532 -1.76783 0
M  V30 14045 C 1323.95 -3.03023 -1.97127 0
M  V30 14046 O 1323.67 -4.20704 -1.22229 0
M  V30 14047 C 1325.17 -3.40549 -2.83798 0
M  V30 14048 H 1322.39 -0.60013 -0.300142 0
M  V30 14049 H 1324.94 -2.02332 -0.297007 0
M  V30 14050 H 1323.09 -2.82993 -2.64563 0
M  V30 14051 H 1323.51 -4.90181 -1.86608 0
M  V30 14052 H 1324.98 -4.29653 -3.46557 0
M  V30 14053 H 1325.46 -2.60186 -3.53836 0
M  V30 14054 H 1326.06 -3.62856 -2.21846 0
M  V30 14055 N 1324.38 0.532545 -1.4833 0
M  V30 14056 C 1325.32 1.63737 -1.62661 0
M  V30 14057 C 1326.29 1.59348 -0.468758 0
M  V30 14058 O 1327.48 1.77812 -0.691921 0
M  V30 14059 C 1324.62 3.02006 -1.66993 0
M  V30 14060 C 1323.73 3.16648 -2.93867 0
M  V30 14061 C 1322.87 4.4546 -2.89376 0
M  V30 14062 C 1321.91 4.53622 -4.10966 0
M  V30 14063 N 1321.04 5.7382 -4.04567 0
M  V30 14064 H 1325.88 1.50828 -2.57012 0
M  V30 14065 H 1323.42 0.734348 -1.27459 0
M  V30 14066 H 1325.38 3.82105 -1.67486 0
M  V30 14067 H 1324.01 3.13693 -0.76135 0
M  V30 14068 H 1323.06 2.29817 -3.0313 0
M  V30 14069 H 1324.37 3.1854 -3.8384 0
M  V30 14070 H 1323.53 5.33848 -2.88256 0
M  V30 14071 H 1322.27 4.46085 -1.97127 0
M  V30 14072 H 1321.27 3.63642 -4.12364 0
M  V30 14073 H 1322.5 4.54738 -5.04371 0
M  V30 14074 H 1320.44 5.75347 -3.15137 0
M  V30 14075 H 1320.36 5.77196 -4.88243 0
M  V30 14076 H 1321.63 6.64502 -4.07502 0
M  V30 14077 N 1325.86 1.36875 0.78122 0
M  V30 14078 C 1327.1 1.31754 1.54171 0
M  V30 14079 C 1327.43 -0.100632 1.93939 0
M  V30 14080 O 1326.71 -1.05587 1.63345 0
M  V30 14081 C 1326.99 2.24789 2.81322 0
M  V30 14082 C 1326.85 3.75342 2.47868 0
M  V30 14083 C 1328.16 2.16442 3.83198 0
M  V30 14084 H 1325.28 0.479931 0.559317 0
M  V30 14085 H 1327.93 1.67497 0.896935 0
M  V30 14086 H 1326.08 1.94438 3.36342 0
M  V30 14087 H 1327.75 4.16247 1.98836 0
M  V30 14088 H 1325.99 3.94375 1.80696 0
M  V30 14089 H 1326.66 4.3586 3.38719 0
M  V30 14090 H 1329.14 2.43175 3.37647 0
M  V30 14091 H 1328.01 2.83695 4.69903 0
M  V30 14092 H 1328.27 1.15431 4.26765 0
M  V30 14093 N 1327.33 -1.00632 1.21289 0
M  V30 14094 C 1328.56 -1.78503 1.05601 0
M  V30 14095 C 1328.98 -1.84015 -0.389879 0
M  V30 14096 O 1328.34 -1.28277 -1.2812 0
M  V30 14097 C 1328.39 -3.20313 1.65626 0
M  V30 14098 O 1327.49 -4.02441 0.900841 0
M  V30 14099 H 1326.83 -0.550183 0.371746 0
M  V30 14100 H 1329.36 -1.26505 1.60803 0
M  V30 14101 H 1329.37 -3.70992 1.69792 0
M  V30 14102 H 1328.05 -3.15616 2.7085 0
M  V30 14103 H 1326.63 -3.61009 0.934178 0
M  V30 14104 N 1328.81 -1.02043 -1.20104 0
M  V30 14105 C 1329.76 -0.564679 -2.20897 0
M  V30 14106 C 1330.75 0.382041 -1.56299 0
M  V30 14107 O 1331.94 0.204384 -1.75816 0
M  V30 14108 C 1329.07 0.0917516 -3.43177 0
M  V30 14109 C 1328.15 -0.876903 -4.14935 0
M  V30 14110 N 1328.54 -2.03596 -4.63014 0
M  V30 14111 C 1326.84 -0.698538 -4.40496 0
M  V30 14112 C 1327.54 -2.64621 -5.18026 0
M  V30 14113 N 1326.52 -1.92651 -5.08317 0
M  V30 14114 H 1330.32 -1.44825 -2.5574 0
M  V30 14115 H 1327.83 -0.88628 -1.36084 0
M  V30 14116 H 1329.83 0.43582 -4.14616 0
M  V30 14117 H 1328.49 0.971116 -3.09838 0
M  V30 14118 H 1329.5 -2.41573 -4.58108 0
M  V30 14119 H 1326.18 0.132449 -4.1729 0
M  V30 14120 H 1327.57 -3.62732 -5.65575 0
M  V30 14121 N 1330.29 1.35952 -0.797165 0
M  V30 14122 C 1331.24 2.29941 -0.198995 0
M  V30 14123 C 1332.21 1.52355 0.661592 0
M  V30 14124 O 1333.39 1.80832 0.60865 0
M  V30 14125 C 1330.53 3.38846 0.654033 0
M  V30 14126 C 1329.65 4.31409 -0.225949 0
M  V30 14127 C 1328.78 5.27401 0.634188 0
M  V30 14128 C 1327.82 6.11602 -0.246773 0
M  V30 14129 N 1326.96 6.9976 0.57279 0
M  V30 14130 H 1331.8 2.80508 -1.00594 0
M  V30 14131 H 1329.33 1.38064 -0.507617 0
M  V30 14132 H 1331.29 4.00643 1.16367 0
M  V30 14133 H 1329.92 2.89578 1.42633 0
M  V30 14134 H 1328.97 3.70699 -0.853616 0
M  V30 14135 H 1330.29 4.90532 -0.904416 0
M  V30 14136 H 1329.44 5.94525 1.20933 0
M  V30 14137 H 1328.18 4.68751 1.34625 0
M  V30 14138 H 1327.18 5.43434 -0.834258 0
M  V30 14139 H 1328.41 6.72329 -0.956559 0
M  V30 14140 H 1326.35 6.43609 1.26901 0
M  V30 14141 H 1326.27 7.55985 -0.0478303 0
M  V30 14142 H 1327.54 7.71244 1.13151 0
M  V30 14143 N 1331.77 0.549846 1.47697 0
M  V30 14144 C 1333.02 0.0230503 2.02487 0
M  V30 14145 C 1333.34 -1.32382 1.42497 0
M  V30 14146 O 1332.6 -1.87293 0.567441 0
M  V30 14147 C 1332.9 -0.127268 3.57173 0
M  V30 14148 C 1332.56 1.14777 4.36047 0
M  V30 14149 C 1331.23 1.49716 4.57317 0
M  V30 14150 C 1333.58 1.99302 4.81589 0
M  V30 14151 C 1330.91 2.69042 5.21376 0
M  V30 14152 C 1333.26 3.17824 5.46965 0
M  V30 14153 C 1331.92 3.53086 5.66469 0
M  V30 14154 H 1331.19 0.00843471 0.740952 0
M  V30 14155 H 1333.84 0.719876 1.77454 0
M  V30 14156 H 1332.14 -0.907008 3.81157 0
M  V30 14157 H 1333.84 -0.550103 3.97209 0
M  V30 14158 H 1330.43 0.865703 4.19766 0
M  V30 14159 H 1334.61 1.73618 4.64942 0
M  V30 14160 H 1329.87 2.9654 5.34672 0
M  V30 14161 H 1334.04 3.83612 5.81218 0
M  V30 14162 H 1331.67 4.45643 6.15878 0
M  V30 14163 N 1333.25 -1.54984 0.285932 0
M  V30 14164 C 1334.47 -2.04239 -0.330774 0
M  V30 14165 C 1334.89 -1.16387 -1.48659 0
M  V30 14166 O 1334.25 -0.186255 -1.81547 0
M  V30 14167 C 1334.3 -3.52504 -0.801456 0
M  V30 14168 O 1334.02 -4.37014 0.30834 0
M  V30 14169 C 1335.52 -4.17692 -1.48487 0
M  V30 14170 H 1332.74 -0.666903 -0.0740351 0
M  V30 14171 H 1335.28 -2.00116 0.421178 0
M  V30 14172 H 1333.44 -3.57036 -1.50347 0
M  V30 14173 H 1333.85 -5.24471 -0.0553891 0
M  V30 14174 H 1335.33 -5.23004 -1.76552 0
M  V30 14175 H 1335.8 -3.66515 -2.41999 0
M  V30 14176 H 1336.41 -4.17193 -0.826428 0
M  V30 14177 N 1334.72 -0.0133892 -1.57594 0
M  V30 14178 C 1335.97 0.667896 -1.90321 0
M  V30 14179 C 1336.29 1.74187 -0.88984 0
M  V30 14180 O 1337.49 2.47871 -1.10779 0
M  V30 14181 C 1335.95 1.23917 -3.37894 0
M  V30 14182 C 1335.56 0.199313 -4.47556 0
M  V30 14183 C 1337.3 1.89788 -3.79712 0
M  V30 14184 C 1335.21 0.781339 -5.86216 0
M  V30 14185 H 1334.14 0.253229 -0.710205 0
M  V30 14186 H 1336.79 -0.0761229 -1.83342 0
M  V30 14187 H 1335.17 2.03429 -3.39754 0
M  V30 14188 H 1336.34 -0.572196 -4.57234 0
M  V30 14189 H 1334.66 -0.359719 -4.14843 0
M  V30 14190 H 1337.26 2.34262 -4.80651 0
M  V30 14191 H 1337.6 2.73406 -3.13934 0
M  V30 14192 H 1338.13 1.16989 -3.80208 0
M  V30 14193 H 1334.87 -0.0163598 -6.55498 0
M  V30 14194 H 1334.39 1.5217 -5.80176 0
M  V30 14195 H 1336.07 1.2759 -6.34295 0
M  V30 14196 N 1336.2 1.55448 0.259558 0
M  V30 14197 C 1337.62 1.47588 0.607442 0
M  V30 14198 C 1337.82 0.701053 1.88911 0
M  V30 14199 O 1336.87 0.225305 2.51493 0
M  V30 14200 C 1338.19 2.91905 0.72192 0
M  V30 14201 C 1339.74 3.02201 0.815087 0
M  V30 14202 C 1340.21 4.47799 0.961231 0
M  V30 14203 N 1341.7 4.51684 1.02642 0
M  V30 14204 C 1342.44 5.61574 1.15854 0
M  V30 14205 N 1341.93 6.81301 1.257 0
M  V30 14206 N 1343.73 5.49344 1.1907 0
M  V30 14207 H 1335.88 2.04271 -0.581981 0
M  V30 14208 H 1338.14 0.926865 -0.199059 0
M  V30 14209 H 1337.85 3.51382 -0.149611 0
M  V30 14210 H 1337.72 3.41681 1.59793 0
M  V30 14211 H 1340.11 2.42813 1.67708 0
M  V30 14212 H 1340.19 2.55656 -0.0858102 0
M  V30 14213 H 1339.83 5.07794 0.103848 0
M  V30 14214 H 1339.76 4.92013 1.87698 0
M  V30 14215 H 1342.25 3.65446 0.962184 0
M  V30 14216 H 1342.57 7.60801 1.35652 0
M  V30 14217 H 1340.91 6.84087 1.2268 0
M  V30 14218 H 1344.1 4.54745 1.11018 0
M  V30 14219 H 1344.27 6.35025 1.29022 0
M  V30 14220 N 1337.68 -0.524672 1.4861 0
M  V30 14221 C 1338.93 -1.27768 1.56588 0
M  V30 14222 C 1339.25 -1.93469 0.243899 0
M  V30 14223 O 1338.52 -1.8159 -0.734985 0
M  V30 14224 H 1337.1 -0.474566 0.576885 0
M  V30 14225 H 1339.76 -0.610114 1.85104 0
M  V30 14226 H 1338.86 -2.05416 2.34969 0
M  V30 14227 N 1339.16 -1.37287 -0.77395 0
M  V30 14228 C 1340.41 -1.31698 -1.52769 0
M  V30 14229 C 1340.72 0.0968585 -1.9536 0
M  V30 14230 O 1341.93 0.275205 -2.70102 0
M  V30 14231 C 1340.38 -2.31154 -2.75854 0
M  V30 14232 C 1339.99 -3.78055 -2.40371 0
M  V30 14233 C 1341.73 -2.34572 -3.53803 0
M  V30 14234 C 1339.64 -4.69248 -3.59945 0
M  V30 14235 H 1338.57 -0.489456 -0.573541 0
M  V30 14236 H 1341.22 -1.62735 -0.84791 0
M  V30 14237 H 1339.6 -1.93132 -3.45711 0
M  V30 14238 H 1340.78 -4.24902 -1.78312 0
M  V30 14239 H 1339.09 -3.77562 -1.75602 0
M  V30 14240 H 1341.69 -2.99908 -4.42673 0
M  V30 14241 H 1342.03 -1.35868 -3.93504 0
M  V30 14242 H 1342.57 -2.7129 -2.90941 0
M  V30 14243 H 1339.31 -5.69072 -3.25327 0
M  V30 14244 H 1338.83 -4.27108 -4.21117 0
M  V30 14245 H 1340.5 -4.86275 -4.26785 0
M  V30 14246 N 1340.64 0.999871 -1.21821 0
M  V30 14247 C 1342.05 1.5529 -1.03642 0
M  V30 14248 C 1342.4 1.92032 0.402246 0
M  V30 14249 O 1341.52 1.74027 1.28622 0
M  V30 14250 C 1342.12 2.82177 -1.87514 0
M  V30 14251 C 1340.68 3.33949 -1.73653 0
M  V30 14252 C 1339.82 2.07095 -1.84409 0
M  V30 14253 H 1342.78 0.821751 -1.35768 0
M  V30 14254 H 1342.8 3.54264 -1.38842 0
M  V30 14255 H 1342.31 2.55405 -2.92216 0
M  V30 14256 H 1340.41 3.65645 -0.716554 0
M  V30 14257 H 1340.52 4.05022 -2.55918 0
M  V30 14258 H 1338.89 2.20332 -1.27773 0
M  V30 14259 H 1339.67 1.82728 -2.90629 0
M  V30 14260 N 1342.11 1.02678 1.19562 0
M  V30 14261 C 1343.34 0.741424 1.93695 0
M  V30 14262 C 1343.76 -0.693203 1.74861 0
M  V30 14263 O 1343.12 -1.47833 1.04953 0
M  V30 14264 C 1343.17 1.09514 3.43568 0
M  V30 14265 O 1342.27 0.212596 4.11852 0
M  V30 14266 H 1341.62 0.274128 0.604773 0
M  V30 14267 H 1344.15 1.37289 1.517 0
M  V30 14268 H 1344.16 1.05115 3.94227 0
M  V30 14269 H 1342.83 2.14034 3.56598 0
M  V30 14270 H 1341.41 0.315 3.71567 0
M  V30 14271 N 1343.59 -1.35528 0.804364 0
M  V30 14272 C 1344.54 -2.31728 0.20125 0
M  V30 14273 C 1345.53 -1.56527 -0.647751 0
M  V30 14274 O 1346.74 -1.71672 -0.541163 0
M  V30 14275 H 1343.12 -0.750572 0.0463165 0
M  V30 14276 H 1345.09 -2.80142 1.02777 0
M  V30 14277 C 1343.84 -3.41807 -0.637429 0
M  V30 14278 H 1343.16 -3.99799 0.00651699 0
M  V30 14279 H 1344.6 -4.11403 -1.02585 0
M  V30 14280 C 1343.06 -2.84655 -1.80202 0
M  V30 14281 O 1343.59 -2.78026 -2.89939 0
M  V30 14282 N 1341.79 -2.41735 -1.61285 0
M  V30 14283 H 1341.34 -2.47327 -0.720231 0
M  V30 14284 H 1341.3 -2.03844 -2.39364 0
M  V30 14285 N 1345.07 -0.557671 -1.47404 0
M  V30 14286 C 1346.02 0.202834 -2.31714 0
M  V30 14287 C 1347.01 0.908873 -1.42954 0
M  V30 14288 O 1348.22 0.830106 -1.59716 0
M  V30 14289 H 1344.59 0.0842824 -0.747262 0
M  V30 14290 H 1346.57 -0.527431 -2.93702 0
M  V30 14291 C 1345.31 1.21937 -3.25617 0
M  V30 14292 H 1344.64 0.685506 -3.93879 0
M  V30 14293 H 1346.08 1.72237 -3.87441 0
M  V30 14294 C 1344.54 2.26748 -2.49173 0
M  V30 14295 O 1345.07 3.33681 -2.23651 0
M  V30 14296 N 1343.27 2.00687 -2.10174 0
M  V30 14297 H 1342.82 1.13741 -2.3113 0
M  V30 14298 H 1342.78 2.71031 -1.59342 0
M  V30 14299 N 1346.55 1.54831 -0.294147 0
M  V30 14300 C 1347.77 2.04873 0.32276 0
M  V30 14301 C 1348.2 1.17034 1.47257 0
M  V30 14302 O 1347.56 0.172949 1.80473 0
M  V30 14303 C 1347.61 3.52431 0.76319 0
M  V30 14304 O 1346.71 3.67635 1.86865 0
M  V30 14305 H 1346.05 0.660926 0.0638162 0
M  V30 14306 H 1348.58 1.99944 -0.433995 0
M  V30 14307 H 1348.59 3.94155 1.05385 0
M  V30 14308 H 1347.27 4.15827 -0.0779464 0
M  V30 14309 H 1345.84 3.37816 1.57907 0
M  V30 14310 N 1348.03 0.0217466 1.57585 0
M  V30 14311 C 1348.96 -0.961069 2.12804 0
M  V30 14312 C 1349.94 -1.3442 1.04237 0
M  V30 14313 O 1351.12 -1.42412 1.32032 0
M  V30 14314 C 1348.25 -2.24586 2.64912 0
M  V30 14315 C 1347.21 -2.0037 3.78201 0
M  V30 14316 C 1346.53 -3.35051 4.16708 0
M  V30 14317 C 1347.83 -1.34879 5.04584 0
M  V30 14318 H 1349.53 -0.501222 2.95175 0
M  V30 14319 H 1347.07 -0.239649 1.41992 0
M  V30 14320 H 1349.03 -2.93715 3.02175 0
M  V30 14321 H 1347.75 -2.72723 1.79693 0
M  V30 14322 H 1346.41 -1.33662 3.41365 0
M  V30 14323 H 1346.06 -3.80932 3.28481 0
M  V30 14324 H 1345.76 -3.19656 4.93045 0
M  V30 14325 H 1347.28 -4.05459 4.56547 0
M  V30 14326 H 1348.7 -1.93997 5.3948 0
M  V30 14327 H 1347.09 -1.29906 5.85871 0
M  V30 14328 H 1348.16 -0.320774 4.83838 0
M  V30 14329 N 1349.51 -1.55583 -0.251311 0
M  V30 14330 C 1350.78 -1.67954 -1.00254 0
M  V30 14331 C 1351.16 -0.560326 -2.03528 0
M  V30 14332 O 1350.51 0.436811 -2.24286 0
M  V30 14333 C 1350.72 -3.08075 -1.63985 0
M  V30 14334 C 1352.07 -3.66531 -2.14336 0
M  V30 14335 O 1353.09 -3.10846 -1.73934 0
M  V30 14336 O 1351.95 -4.64141 -2.88506 0
M  V30 14337 H 1349.05 -0.682952 -0.466375 0
M  V30 14338 H 1351.59 -1.67916 -0.245447 0
M  V30 14339 H 1350.36 -3.80983 -0.892627 0
M  V30 14340 H 1349.99 -3.12105 -2.46325 0
M  V30 14341 N 1350.98 0.516783 -1.48886 0
M  V30 14342 C 1352.23 1.27187 -1.57574 0
M  V30 14343 C 1352.56 1.92815 -0.255432 0
M  V30 14344 O 1351.81 1.80533 0.755403 0
M  V30 14345 C 1352.11 2.37296 -2.67256 0
M  V30 14346 C 1351.78 1.89232 -4.0927 0
M  V30 14347 C 1350.44 1.75842 -4.47921 0
M  V30 14348 C 1352.79 1.53073 -4.98215 0
M  V30 14349 C 1350.12 1.24648 -5.73306 0
M  V30 14350 C 1352.47 1.03337 -6.24103 0
M  V30 14351 C 1351.14 0.885744 -6.61597 0
M  V30 14352 H 1350.41 0.46541 -0.576606 0
M  V30 14353 H 1353.05 0.575223 -1.82657 0
M  V30 14354 H 1351.36 3.12685 -2.36084 0
M  V30 14355 H 1353.06 2.95393 -2.7119 0
M  V30 14356 H 1349.65 2.00608 -3.78754 0
M  V30 14357 H 1353.83 1.62272 -4.69022 0
M  V30 14358 H 1349.09 1.11917 -6.0107 0
M  V30 14359 H 1353.26 0.744338 -6.92411 0
M  V30 14360 H 1350.89 0.486866 -7.58639 0
M  V30 14361 N 1352.46 1.37696 0.766659 0
M  V30 14362 C 1353.39 1.36576 1.89392 0
M  V30 14363 C 1354.37 0.233597 1.68488 0
M  V30 14364 O 1355.56 0.434719 1.89272 0
M  V30 14365 C 1352.69 1.17705 3.26746 0
M  V30 14366 C 1351.64 2.27987 3.62224 0
M  V30 14367 C 1350.97 1.94235 4.98174 0
M  V30 14368 C 1352.27 3.70195 3.68447 0
M  V30 14369 H 1353.96 2.30905 1.90587 0
M  V30 14370 H 1351.51 1.11148 0.915538 0
M  V30 14371 H 1353.46 1.15551 4.05248 0
M  V30 14372 H 1352.18 0.198334 3.25997 0
M  V30 14373 H 1350.84 2.29306 2.86032 0
M  V30 14374 H 1350.49 0.948796 4.93971 0
M  V30 14375 H 1350.19 2.68086 5.2288 0
M  V30 14376 H 1351.72 1.93676 5.7907 0
M  V30 14377 H 1353.13 3.70978 4.37091 0
M  V30 14378 H 1351.53 4.43142 4.04654 0
M  V30 14379 H 1352.6 4.03453 2.68986 0
M  V30 14380 N 1353.94 -0.993397 1.22349 0
M  V30 14381 C 1355.22 -1.7063 0.956275 0
M  V30 14382 C 1355.6 -2.0437 -0.52877 0
M  V30 14383 O 1354.94 -1.72662 -1.49667 0
M  V30 14384 C 1355.15 -2.95725 1.85331 0
M  V30 14385 C 1356.5 -3.68514 2.10909 0
M  V30 14386 O 1357.53 -3.05732 1.82775 0
M  V30 14387 O 1356.39 -4.81468 2.58556 0
M  V30 14388 H 1353.48 -0.744734 0.359583 0
M  V30 14389 H 1356.03 -1.04979 1.33333 0
M  V30 14390 H 1354.8 -2.6729 2.85782 0
M  V30 14391 H 1354.42 -3.69116 1.47781 0
M  V30 14392 N 1355.42 -1.03311 -1.19015 0
M  V30 14393 C 1356.33 -0.627735 -2.26046 0
M  V30 14394 C 1357.34 0.342483 -1.70596 0
M  V30 14395 O 1358.52 0.199307 -2.00411 0
M  V30 14396 C 1355.58 0.0108274 -3.46698 0
M  V30 14397 C 1354.65 -1.00743 -4.17312 0
M  V30 14398 C 1353.88 -0.399245 -5.32205 0
M  V30 14399 O 1354.1 0.796649 -5.64809 0
M  V30 14400 O 1353.04 -1.12419 -5.91308 0
M  V30 14401 H 1356.86 -1.51923 -2.6297 0
M  V30 14402 H 1354.45 -0.803538 -1.25951 0
M  V30 14403 H 1356.33 0.366672 -4.19802 0
M  V30 14404 H 1355 0.876265 -3.11614 0
M  V30 14405 H 1353.91 -1.41494 -3.4631 0
M  V30 14406 H 1355.24 -1.84338 -4.56377 0
M  V30 14407 N 1356.9 1.35099 -0.81154 0
M  V30 14408 C 1357.81 2.33499 -0.22705 0
M  V30 14409 C 1358.82 1.62095 0.632562 0
M  V30 14410 O 1360 1.93938 0.543147 0
M  V30 14411 C 1357.06 3.41279 0.610687 0
M  V30 14412 C 1356.12 4.2845 -0.269994 0
M  V30 14413 C 1355.36 5.31083 0.527854 0
M  V30 14414 O 1355.58 5.42499 1.76213 0
M  V30 14415 O 1354.51 6.01842 -0.083862 0
M  V30 14416 H 1358.34 2.85294 -1.04119 0
M  V30 14417 H 1355.92 1.37957 -0.573432 0
M  V30 14418 H 1357.81 4.07121 1.08768 0
M  V30 14419 H 1356.48 2.91746 1.40235 0
M  V30 14420 H 1355.39 3.65572 -0.794234 0
M  V30 14421 H 1356.72 4.81394 -1.02572 0
M  V30 14422 N 1358.37 0.56548 1.47106 0
M  V30 14423 C 1359.6 0.0495579 2.06541 0
M  V30 14424 C 1360.01 -1.25325 1.4174 0
M  V30 14425 O 1359.35 -1.76455 0.510818 0
M  V30 14426 C 1359.42 -0.20843 3.58895 0
M  V30 14427 C 1359.08 1.00618 4.45786 0
M  V30 14428 C 1360.08 1.91387 4.83391 0
M  V30 14429 C 1357.76 1.22318 4.87179 0
M  V30 14430 C 1359.76 3.02218 5.61198 0
M  V30 14431 C 1357.44 2.33457 5.64749 0
M  V30 14432 C 1358.44 3.23238 6.0167 0
M  V30 14433 O 1358.13 4.32449 6.77675 0
M  V30 14434 H 1357.86 0.0466 0.674392 0
M  V30 14435 H 1360.42 0.780887 1.89977 0
M  V30 14436 H 1358.65 -0.994169 3.73702 0
M  V30 14437 H 1360.33 -0.670745 4.0032 0
M  V30 14438 H 1361.1 1.75831 4.52005 0
M  V30 14439 H 1356.98 0.533514 4.57902 0
M  V30 14440 H 1360.52 3.72321 5.89935 0
M  V30 14441 H 1356.42 2.48983 5.95548 0
M  V30 14442 H 1357.19 4.306 6.96079 0
M  V30 14443 N 1359.85 -1.54672 0.302354 0
M  V30 14444 C 1360.76 -2.27251 -0.582578 0
M  V30 14445 C 1361.78 -1.30819 -1.14727 0
M  V30 14446 O 1362.95 -1.63803 -1.17177 0
M  V30 14447 C 1360.02 -3.00016 -1.73757 0
M  V30 14448 C 1359.08 -4.11988 -1.20682 0
M  V30 14449 C 1358.31 -4.81273 -2.30676 0
M  V30 14450 O 1358.54 -4.49927 -3.50602 0
M  V30 14451 O 1357.47 -5.68647 -1.97291 0
M  V30 14452 H 1361.3 -3.03699 0.00621365 0
M  V30 14453 H 1358.88 -1.49242 0.0687684 0
M  V30 14454 H 1360.76 -3.45652 -2.41045 0
M  V30 14455 H 1359.44 -2.26462 -2.31294 0
M  V30 14456 H 1358.35 -3.70749 -0.499625 0
M  V30 14457 H 1359.68 -4.87524 -0.676858 0
M  V30 14458 N 1361.33 -0.0301034 -1.57571 0
M  V30 14459 C 1362.58 0.649283 -1.92125 0
M  V30 14460 C 1362.91 1.71722 -0.90692 0
M  V30 14461 O 1362.18 1.94373 0.0702019 0
M  V30 14462 C 1362.47 1.26482 -3.37156 0
M  V30 14463 C 1362.32 0.206375 -4.49326 0
M  V30 14464 C 1363.64 2.18256 -3.82168 0
M  V30 14465 H 1360.76 0.234561 -0.698678 0
M  V30 14466 H 1363.4 -0.0875634 -1.89798 0
M  V30 14467 H 1361.55 1.89283 -3.3927 0
M  V30 14468 H 1363.22 -0.424268 -4.59345 0
M  V30 14469 H 1361.47 -0.468035 -4.31268 0
M  V30 14470 H 1362.14 0.676689 -5.47837 0
M  V30 14471 H 1364.61 1.65441 -3.81797 0
M  V30 14472 H 1363.49 2.58277 -4.84339 0
M  V30 14473 H 1363.75 3.07411 -3.17727 0
M  V30 14474 N 1362.81 1.55714 0.243056 0
M  V30 14475 C 1364.22 1.68126 0.811814 0
M  V30 14476 C 1364.57 0.628259 1.85869 0
M  V30 14477 O 1363.7 -0.224747 2.1523 0
M  V30 14478 C 1364.29 3.048 1.47928 0
M  V30 14479 C 1362.85 3.19138 1.99569 0
M  V30 14480 C 1362 2.64011 0.848149 0
M  V30 14481 H 1364.95 1.58689 0.0187918 0
M  V30 14482 H 1364.97 2.99459 2.34743 0
M  V30 14483 H 1364.48 3.81417 0.717106 0
M  V30 14484 H 1362.58 2.4735 2.78655 0
M  V30 14485 H 1362.69 4.26095 2.19043 0
M  V30 14486 H 1361.06 2.21934 1.2497 0
M  V30 14487 H 1361.84 3.43157 0.0989987 0
M  V30 14488 N 1364.29 -0.50888 1.49158 0
M  V30 14489 C 1365.56 -1.27021 1.48745 0
M  V30 14490 C 1365.94 -2.10045 0.210772 0
M  V30 14491 O 1365.29 -2.13773 -0.807061 0
M  V30 14492 C 1365.5 -2.13367 2.76181 0
M  V30 14493 C 1366.85 -2.72815 3.25357 0
M  V30 14494 O 1367.87 -2.23639 2.77243 0
M  V30 14495 O 1366.73 -3.62316 4.09133 0
M  V30 14496 H 1363.83 -0.574387 0.594986 0
M  V30 14497 H 1366.37 -0.523798 1.61414 0
M  V30 14498 H 1365.14 -1.51941 3.60596 0
M  V30 14499 H 1364.77 -2.95215 2.66334 0
M  V30 14500 N 1365.76 -1.381 -0.759346 0
M  V30 14501 C 1366.69 -1.37578 -1.88665 0
M  V30 14502 C 1367.68 -0.242529 -1.68362 0
M  V30 14503 O 1368.86 -0.444751 -1.89039 0
M  V30 14504 C 1365.99 -1.19437 -3.26117 0
M  V30 14505 C 1364.94 -2.29905 -3.61009 0
M  V30 14506 C 1364.27 -1.96874 -4.97136 0
M  V30 14507 C 1365.57 -3.72143 -3.66479 0
M  V30 14508 H 1367.26 -2.31912 -1.89359 0
M  V30 14509 H 1364.81 -1.11632 -0.909631 0
M  V30 14510 H 1366.76 -1.17698 -4.0463 0
M  V30 14511 H 1365.49 -0.21562 -3.25887 0
M  V30 14512 H 1364.15 -2.3082 -2.84812 0
M  V30 14513 H 1363.79 -0.974979 -4.9346 0
M  V30 14514 H 1363.49 -2.70855 -5.21451 0
M  V30 14515 H 1365.02 -1.96744 -5.78035 0
M  V30 14516 H 1366.43 -3.73291 -4.35117 0
M  V30 14517 H 1364.83 -4.45282 -4.02299 0
M  V30 14518 H 1365.9 -4.04874 -2.66843 0
M  V30 14519 N 1367.24 0.986894 -1.22875 0
M  V30 14520 C 1368.52 1.70121 -0.965311 0
M  V30 14521 C 1368.9 2.04648 0.517924 0
M  V30 14522 O 1368.25 1.73453 1.48749 0
M  V30 14523 C 1368.46 2.94738 -1.86897 0
M  V30 14524 C 1369.81 3.6739 -2.12861 0
M  V30 14525 O 1370.83 3.04758 -1.84394 0
M  V30 14526 O 1369.69 4.8009 -2.61106 0
M  V30 14527 H 1366.78 0.742817 -0.363527 0
M  V30 14528 H 1369.33 1.0427 -1.33887 0
M  V30 14529 H 1368.1 2.65771 -2.87196 0
M  V30 14530 H 1367.72 3.68327 -1.49736 0
M  V30 14531 N 1368.72 1.0394 1.18466 0
M  V30 14532 C 1369.97 0.740576 1.88042 0
M  V30 14533 C 1370.29 -0.733822 1.80666 0
M  V30 14534 O 1369.56 -1.52943 1.22414 0
M  V30 14535 H 1368.14 0.270949 0.696129 0
M  V30 14536 H 1370.8 1.31588 1.43772 0
M  V30 14537 H 1369.9 1.04429 2.94111 0
M  V30 14538 N 1370.2 -1.34667 0.818693 0
M  V30 14539 C 1371.43 -2.02642 0.417608 0
M  V30 14540 C 1371.84 -1.61667 -0.97516 0
M  V30 14541 O 1371.2 -0.820056 -1.63038 0
M  V30 14542 C 1371.25 -3.57951 0.505295 0
M  V30 14543 O 1370.97 -3.97441 1.84317 0
M  V30 14544 C 1372.47 -4.4319 0.0985667 0
M  V30 14545 H 1369.69 -0.6496 0.168111 0
M  V30 14546 H 1372.24 -1.72032 1.10568 0
M  V30 14547 H 1370.39 -3.87166 -0.134646 0
M  V30 14548 H 1370.8 -4.92116 1.81444 0
M  V30 14549 H 1372.28 -5.51597 0.211015 0
M  V30 14550 H 1372.76 -4.28637 -0.95745 0
M  V30 14551 H 1373.36 -4.19295 0.71214 0
M  V30 14552 N 1371.68 -0.573274 -1.46804 0
M  V30 14553 C 1373.09 -0.23423 -1.57872 0
M  V30 14554 C 1373.29 1.26342 -1.56971 0
M  V30 14555 O 1372.35 2.04459 -1.48165 0
M  V30 14556 C 1373.66 -0.875097 -2.87685 0
M  V30 14557 C 1375.21 -0.847812 -3.01299 0
M  V30 14558 C 1375.68 -1.46804 -4.33835 0
M  V30 14559 N 1377.18 -1.43196 -4.4051 0
M  V30 14560 C 1377.91 -1.88133 -5.41658 0
M  V30 14561 N 1377.41 -2.41001 -6.49531 0
M  V30 14562 N 1379.2 -1.79107 -5.32801 0
M  V30 14563 H 1371.35 -1.54612 -1.45633 0
M  V30 14564 H 1373.61 -0.645703 -0.694098 0
M  V30 14565 H 1373.32 -1.92826 -2.94127 0
M  V30 14566 H 1373.19 -0.377671 -3.75305 0
M  V30 14567 H 1375.58 0.196707 -2.94444 0
M  V30 14568 H 1375.66 -1.38316 -2.1518 0
M  V30 14569 H 1375.31 -2.51171 -4.41447 0
M  V30 14570 H 1375.24 -0.908 -5.18713 0
M  V30 14571 H 1377.73 -1.04541 -3.63152 0
M  V30 14572 H 1378.04 -2.73172 -7.22908 0
M  V30 14573 H 1376.38 -2.45021 -6.50377 0
M  V30 14574 H 1379.58 -1.37569 -4.47429 0
M  V30 14575 H 1379.75 -2.14445 -6.11488 0
M  V30 14576 N 1373.15 1.5451 -0.310553 0
M  V30 14577 C 1374.12 2.2254 0.548489 0
M  V30 14578 C 1375.12 1.21456 1.05381 0
M  V30 14579 O 1376.31 1.46126 0.948311 0
M  V30 14580 C 1373.44 2.91927 1.76043 0
M  V30 14581 H 1374.63 2.99865 -0.0460306 0
M  V30 14582 H 1372.19 1.56179 -0.061487 0
M  V30 14583 H 1372.92 2.18706 2.39454 0
M  V30 14584 H 1372.71 3.66038 1.40564 0
M  V30 14585 H 1374.2 3.43797 2.37051 0
M  V30 14586 N 1374.63 0.0384594 1.57553 0
M  V30 14587 C 1376.04 -0.499057 1.79906 0
M  V30 14588 C 1376.4 -1.7169 0.949577 0
M  V30 14589 O 1375.52 -2.15788 0.162584 0
M  V30 14590 C 1376.12 -0.912155 3.2629 0
M  V30 14591 C 1374.67 -1.39473 3.49606 0
M  V30 14592 C 1373.82 -0.363859 2.74902 0
M  V30 14593 H 1376.77 0.264433 1.56481 0
M  V30 14594 H 1376.79 -1.77592 3.36513 0
M  V30 14595 H 1376.31 -0.0255928 3.88092 0
M  V30 14596 H 1374.41 -2.3009 2.93068 0
M  V30 14597 H 1374.52 -1.39566 4.58321 0
M  V30 14598 H 1372.88 -0.833993 2.40659 0
M  V30 14599 H 1373.67 0.514398 3.39424 0
M  V30 14600 N 1376.11 -1.55841 -0.234795 0
M  V30 14601 C 1377.36 -1.77438 -0.959094 0
M  V30 14602 C 1377.67 -0.604621 -1.86021 0
M  V30 14603 O 1378.88 -0.703897 -2.62217 0
M  V30 14604 C 1377.34 -3.14182 -1.7555 0
M  V30 14605 C 1376.94 -4.38843 -0.90118 0
M  V30 14606 C 1378.69 -3.45112 -2.47181 0
M  V30 14607 C 1376.59 -5.66614 -1.69417 0
M  V30 14608 H 1375.52 -0.661503 -0.361843 0
M  V30 14609 H 1378.18 -1.82255 -0.213364 0
M  V30 14610 H 1376.56 -3.03505 -2.54364 0
M  V30 14611 H 1377.73 -4.60541 -0.154515 0
M  V30 14612 H 1376.05 -4.15335 -0.297631 0
M  V30 14613 H 1378.64 -4.37794 -3.06986 0
M  V30 14614 H 1378.99 -2.66995 -3.19405 0
M  V30 14615 H 1379.52 -3.57059 -1.75368 0
M  V30 14616 H 1376.26 -6.47587 -1.01545 0
M  V30 14617 H 1375.78 -5.48998 -2.4158 0
M  V30 14618 H 1377.46 -6.06311 -2.25824 0
M  V30 14619 N 1377.59 0.500963 -1.49426 0
M  V30 14620 C 1378.54 1.62335 -1.66584 0
M  V30 14621 C 1379.53 1.60837 -0.531773 0
M  V30 14622 O 1380.74 1.65345 -0.711408 0
M  V30 14623 H 1377.11 0.538131 -0.52528 0
M  V30 14624 H 1379.08 1.45016 -2.60793 0
M  V30 14625 C 1377.83 3.00469 -1.74968 0
M  V30 14626 H 1377.16 3.02328 -2.61607 0
M  V30 14627 H 1378.6 3.78539 -1.91008 0
M  V30 14628 C 1377.05 3.33251 -0.49451 0
M  V30 14629 O 1377.58 3.99901 0.379783 0
M  V30 14630 N 1375.79 2.88393 -0.357445 0
M  V30 14631 H 1375.34 2.3433 -1.06991 0
M  V30 14632 H 1375.3 3.10694 0.481287 0
M  V30 14633 N 1379.07 1.38501 0.752011 0
M  V30 14634 C 1380.32 1.34529 1.50819 0
M  V30 14635 C 1380.64 -0.0636155 1.94896 0
M  V30 14636 O 1379.91 -1.01161 1.6776 0
M  V30 14637 H 1378.49 0.49501 0.559441 0
M  V30 14638 H 1381.15 1.73196 0.893822 0
M  V30 14639 H 1380.24 1.99713 2.39835 0
M  V30 14640 N 1380.55 -0.980364 1.23396 0
M  V30 14641 C 1381.79 -1.73674 1.07781 0
M  V30 14642 C 1382.15 -1.88227 -0.378759 0
M  V30 14643 O 1383.35 -2.6067 -0.656092 0
M  V30 14644 C 1381.62 -3.09727 1.78337 0
M  V30 14645 S 1383.18 -4.00944 1.78295 0
M  V30 14646 H 1380 -0.597273 0.385728 0
M  V30 14647 H 1382.6 -1.17123 1.56533 0
M  V30 14648 H 1381.3 -2.96786 2.83455 0
M  V30 14649 H 1380.84 -3.71346 1.29868 0
M  V30 14650 H 1382.85 -4.89011 0.841572 0
M  V30 14651 N 1382.02 -1.04567 -1.17913 0
M  V30 14652 C 1383.26 -0.760977 -1.89706 0
M  V30 14653 C 1383.63 0.698804 -1.78832 0
M  V30 14654 O 1384.83 1.09733 -2.45382 0
M  V30 14655 C 1383.1 -1.22042 -3.35917 0
M  V30 14656 S 1384.66 -1.06214 -4.25751 0
M  V30 14657 H 1381.48 -0.276538 -0.655017 0
M  V30 14658 H 1384.08 -1.339 -1.42446 0
M  V30 14659 H 1382.78 -2.27813 -3.41364 0
M  V30 14660 H 1382.31 -0.636401 -3.88218 0
M  V30 14661 H 1384.33 0.0174486 -4.96197 0
M  V30 14662 N 1383.5 1.34231 -0.825823 0
M  V30 14663 C 1384.73 2.02949 -0.427354 0
M  V30 14664 C 1385.15 1.61772 0.959755 0
M  V30 14665 O 1384.51 0.803799 1.62508 0
M  V30 14666 C 1384.56 3.56522 -0.540799 0
M  V30 14667 O 1383.66 4.10065 0.438213 0
M  V30 14668 H 1383 0.640378 -0.175535 0
M  V30 14669 H 1385.53 1.71416 -1.11704 0
M  V30 14670 H 1385.54 4.05857 -0.41763 0
M  V30 14671 H 1384.22 3.85839 -1.55246 0
M  V30 14672 H 1382.79 3.71894 0.273687 0
M  V30 14673 N 1384.98 0.581051 1.46498 0
M  V30 14674 C 1385.91 -0.140957 2.33074 0
M  V30 14675 C 1386.89 -0.885323 1.45245 0
M  V30 14676 O 1388.08 -0.86111 1.74065 0
M  V30 14677 C 1385.21 -1.15625 3.27488 0
M  V30 14678 C 1384.16 -0.526829 4.24745 0
M  V30 14679 C 1383.49 -1.64847 5.08655 0
M  V30 14680 C 1384.79 0.53492 5.19554 0
M  V30 14681 H 1386.48 0.581888 2.93691 0
M  V30 14682 H 1384.03 0.281278 1.41226 0
M  V30 14683 H 1385.98 -1.6697 3.8691 0
M  V30 14684 H 1384.7 -1.90935 2.64974 0
M  V30 14685 H 1383.36 -0.0344738 3.66584 0
M  V30 14686 H 1383.01 -2.3912 4.42528 0
M  V30 14687 H 1382.71 -1.23298 5.74518 0
M  V30 14688 H 1384.23 -2.16472 5.7094 0
M  V30 14689 H 1385.65 0.106606 5.73201 0
M  V30 14690 H 1384.04 0.870639 5.93751 0
M  V30 14691 H 1385.11 1.42184 4.63586 0
M  V30 14692 N 1386.46 -1.54343 0.318742 0
M  V30 14693 C 1387.73 -1.92635 -0.339299 0
M  V30 14694 C 1388.11 -1.24786 -1.7027 0
M  V30 14695 O 1387.46 -0.389844 -2.2515 0
M  V30 14696 C 1387.67 -3.46262 -0.436318 0
M  V30 14697 C 1389.02 -4.18809 -0.698871 0
M  V30 14698 O 1390.04 -3.52392 -0.519431 0
M  V30 14699 O 1388.9 -5.36422 -1.04471 0
M  V30 14700 H 1386 -0.804202 -0.192841 0
M  V30 14701 H 1388.54 -1.6566 0.368104 0
M  V30 14702 H 1387.32 -3.8781 0.521427 0
M  V30 14703 H 1386.94 -3.79327 -1.19149 0
M  V30 14704 N 1387.94 -0.0468143 -1.5753 0
M  V30 14705 C 1388.9 0.914225 -2.10177 0
M  V30 14706 C 1389.9 1.24271 -1.02045 0
M  V30 14707 O 1391.09 1.18012 -1.28136 0
M  V30 14708 C 1388.22 2.22544 -2.58238 0
M  V30 14709 H 1389.41 0.457922 -2.96383 0
M  V30 14710 H 1386.97 0.20152 -1.54995 0
M  V30 14711 H 1387.7 2.72765 -1.75413 0
M  V30 14712 H 1387.49 2.00007 -3.37253 0
M  V30 14713 H 1388.98 2.91392 -2.99133 0
M  V30 14714 N 1389.41 1.55964 0.226527 0
M  V30 14715 C 1390.32 1.95169 1.30178 0
M  V30 14716 C 1391.34 0.854831 1.51554 0
M  V30 14717 O 1392.52 1.15798 1.64781 0
M  V30 14718 C 1389.58 2.25612 2.63249 0
M  V30 14719 C 1388.64 3.4884 2.50219 0
M  V30 14720 C 1387.88 3.77822 3.76944 0
M  V30 14721 O 1388.1 3.08556 4.79739 0
M  V30 14722 O 1387.03 4.7132 3.74354 0
M  V30 14723 H 1390.86 2.86794 0.999145 0
M  V30 14724 H 1388.44 1.43109 0.42898 0
M  V30 14725 H 1390.33 2.4641 3.41848 0
M  V30 14726 H 1389 1.37162 2.93203 0
M  V30 14727 H 1387.91 3.33326 1.69836 0
M  V30 14728 H 1389.24 4.37657 2.25205 0
M  V30 14729 O 1390.93 -0.372017 1.57157 0
M  V30 14730 H 1391.62 -1.02306 1.64479 0
M  V30 END ATOM
M  V30 BEGIN BOND
M  V30 END BOND
M  V30 END CTAB
M  END
$$$$
