drugbank_target|Q8IWL2 Pulmonary surfactant-associated protein A1 (DB03814)
 OpenBabel12092120543D

  0  0  0     0  0            999 V3000
M  V30 BEGIN CTAB
M  V30 COUNTS 3596 3646 0 0 0
M  V30 BEGIN ATOM
M  V30 1 H -0.908 1.98254 -0.117106 0
M  V30 2 N 0 1.576 0 0
M  V30 3 C 0.933 2.03868 1.02534 0
M  V30 4 C 1.911 0.928543 1.3348 0
M  V30 5 O 3.095 1.19667 1.45644 0
M  V30 6 C 0.222 2.43627 2.35294 0
M  V30 7 C -0.732 3.65373 2.2001 0
M  V30 8 S 0.101 5.13292 1.52614 0
M  V30 9 C 1.257 5.56322 2.86805 0
M  V30 10 H 1.49 2.90518 0.631377 0
M  V30 11 H -0.977 1.52953 0.210867 0
M  V30 12 H 0.981 2.67203 3.11629 0
M  V30 13 H -0.358 1.57376 2.7183 0
M  V30 14 H -1.165 3.90944 3.18086 0
M  V30 15 H -1.563 3.418 1.51819 0
M  V30 16 H 0.729 5.58782 3.83104 0
M  V30 17 H 1.672 6.56266 2.65933 0
M  V30 18 H 2.08 4.83886 2.90714 0
M  V30 19 N 1.4781 -0.272755 1.55222 0
M  V30 20 C 2.7241 -1.00172 1.77023 0
M  V30 21 C 3.0791 -1.83928 0.564633 0
M  V30 22 O 2.3721 -1.86416 -0.442674 0
M  V30 23 C 2.5661 -1.91642 3.01675 0
M  V30 24 C 2.3951 -1.16888 4.34243 0
M  V30 25 C 1.1651 -0.884464 4.97499 0
M  V30 26 C 3.3631 -0.55919 5.11251 0
M  V30 27 N 1.3451 -0.11015 6.13801 0
M  V30 28 C 2.7161 0.0809469 6.19947 0
M  V30 29 C 4.7711 -0.467058 4.95705 0
M  V30 30 C 3.4741 0.804335 7.14789 0
M  V30 31 C 5.5001 0.242739 5.90902 0
M  V30 32 C 4.8621 0.871613 6.98987 0
M  V30 33 H 0.9611 -0.348529 0.700037 0
M  V30 34 H 3.5451 -0.277365 1.92714 0
M  V30 35 H 1.7161 -2.61303 2.87359 0
M  V30 36 H 3.4481 -2.57901 3.1188 0
M  V30 37 H 0.2031 -1.18979 4.58411 0
M  V30 38 H 0.6271 0.264344 6.76484 0
M  V30 39 H 5.2691 -0.93894 4.12242 0
M  V30 40 H 2.9871 1.2879 7.97771 0
M  V30 41 H 6.5731 0.314347 5.8095 0
M  V30 42 H 5.4531 1.4121 7.71381 0
M  V30 43 N 2.9562 -1.48159 -0.537278 0
M  V30 44 C 3.8862 -1.65029 -1.6519 0
M  V30 45 C 4.8672 -0.499281 -1.62607 0
M  V30 46 O 6.0522 -0.730972 -1.79918 0
M  V30 47 C 3.1822 -1.68303 -3.03795 0
M  V30 48 C 2.1362 -2.8283 -3.21234 0
M  V30 49 C 1.4622 -2.71189 -4.60826 0
M  V30 50 C 2.7622 -4.24211 -3.04701 0
M  V30 51 H 4.4562 -2.58341 -1.51328 0
M  V30 52 H 2.0022 -1.24325 -0.726585 0
M  V30 53 H 3.9552 -1.78693 -3.81637 0
M  V30 54 H 2.6792 -0.715635 -3.18663 0
M  V30 55 H 1.3382 -2.71983 -2.45807 0
M  V30 56 H 0.9862 -1.72435 -4.7252 0
M  V30 57 H 0.6862 -3.48035 -4.7344 0
M  V30 58 H 2.2102 -2.83537 -5.40777 0
M  V30 59 H 3.6242 -4.3593 -3.72341 0
M  V30 60 H 2.0212 -5.01998 -3.28813 0
M  V30 61 H 3.0912 -4.41184 -2.01209 0
M  V30 62 N 4.4343 0.785586 -1.36625 0
M  V30 63 C 5.6743 1.55678 -1.32453 0
M  V30 64 C 6.0383 1.91769 0.0941089 0
M  V30 65 O 7.2393 2.67536 0.26042 0
M  V30 66 C 5.5103 2.79701 -2.22491 0
M  V30 67 S 7.0693 3.69907 -2.36038 0
M  V30 68 H 3.8873 0.533141 -0.470405 0
M  V30 69 H 6.4893 0.924953 -1.72235 0
M  V30 70 H 5.1933 2.51244 -3.24507 0
M  V30 71 H 4.7243 3.47854 -1.83742 0
M  V30 72 H 6.7393 4.71016 -1.56072 0
M  V30 73 N 5.9124 1.20967 1.01018 0
M  V30 74 C 7.3234 1.02319 1.56165 0
M  V30 75 C 7.6744 -0.418546 1.91684 0
M  V30 76 O 6.7994 -1.30096 1.72928 0
M  V30 77 C 7.3944 1.85109 2.8376 0
M  V30 78 C 5.9534 1.70809 3.35412 0
M  V30 79 C 5.1004 1.82643 2.08655 0
M  V30 80 H 8.0514 1.35065 0.833255 0
M  V30 81 H 8.0724 1.35827 3.55431 0
M  V30 82 H 7.5844 2.90035 2.57878 0
M  V30 83 H 5.6854 0.685464 3.66241 0
M  V30 84 H 5.7984 2.52467 4.07182 0
M  V30 85 H 4.1624 1.25896 2.21409 0
M  V30 86 H 4.9454 2.89066 1.85191 0
M  V30 87 N 7.3905 -1.2043 1.01659 0
M  V30 88 C 8.3205 -2.25466 0.607226 0
M  V30 89 C 9.3015 -1.65853 -0.377716 0
M  V30 90 O 10.4865 -1.92409 -0.263149 0
M  V30 91 C 7.6165 -3.47256 -0.0552949 0
M  V30 92 C 6.5705 -4.19462 0.850632 0
M  V30 93 C 5.8965 -5.34673 0.0538859 0
M  V30 94 C 7.1965 -4.75603 2.15868 0
M  V30 95 H 8.8905 -2.59962 1.48526 0
M  V30 96 H 6.4365 -1.2496 0.715605 0
M  V30 97 H 8.3895 -4.19917 -0.353233 0
M  V30 98 H 7.1135 -3.11924 -0.968045 0
M  V30 99 H 5.7725 -3.48667 1.13257 0
M  V30 100 H 5.4205 -4.95585 -0.860514 0
M  V30 101 H 5.1205 -5.83913 0.657192 0
M  V30 102 H 6.6445 -6.10138 -0.237598 0
M  V30 103 H 8.0585 -5.40083 1.92311 0
M  V30 104 H 6.4555 -5.3528 2.71284 0
M  V30 105 H 7.5255 -3.94346 2.82169 0
M  V30 106 N 8.8686 -0.792821 -1.36206 0
M  V30 107 C 9.8316 -0.199459 -2.2833 0
M  V30 108 C 10.8316 0.605189 -1.48977 0
M  V30 109 O 12.0216 0.425685 -1.68919 0
M  V30 110 C 9.1536 0.723523 -3.33134 0
M  V30 111 H 10.3466 -1.01181 -2.82316 0
M  V30 112 H 7.8996 -0.562485 -1.45828 0
M  V30 113 H 8.6346 1.56008 -2.84309 0
M  V30 114 H 8.4196 0.148436 -3.91819 0
M  V30 115 H 9.9096 1.13344 -4.01924 0
M  V30 116 N 10.3467 1.47872 -0.545128 0
M  V30 117 C 11.2767 2.32661 0.197793 0
M  V30 118 C 12.2577 1.43041 0.920504 0
M  V30 119 O 13.4427 1.71912 0.90333 0
M  V30 120 C 10.5727 3.24569 1.23582 0
M  V30 121 C 9.5267 4.23333 0.630323 0
M  V30 122 C 8.8527 5.0448 1.77211 0
M  V30 123 C 10.1527 5.20704 -0.407974 0
M  V30 124 H 11.8467 2.95024 -0.510045 0
M  V30 125 H 9.3927 1.4187 -0.246731 0
M  V30 126 H 11.3457 3.8272 1.76362 0
M  V30 127 H 10.0697 2.60236 1.97344 0
M  V30 128 H 8.7287 3.6639 0.123922 0
M  V30 129 H 8.3767 4.36561 2.49847 0
M  V30 130 H 8.0767 5.71339 1.37281 0
M  V30 131 H 9.6007 5.65487 2.3034 0
M  V30 132 H 11.0147 5.7329 0.033305 0
M  V30 133 H 9.4117 5.95699 -0.725486 0
M  V30 134 H 10.4817 4.66917 -1.30828 0
M  V30 135 N 11.8248 0.280983 1.55075 0
M  V30 136 C 12.7728 -0.619864 2.24188 0
M  V30 137 C 13.7668 -1.15315 1.24092 0
M  V30 138 O 14.9728 -1.1061 1.42005 0
M  V30 139 H 11.3478 -0.218459 0.719569 0
M  V30 140 H 13.3188 -0.0141831 2.98397 0
M  V30 141 C 12.0678 -1.7899 2.98091 0
M  V30 142 H 11.3908 -1.38874 3.74905 0
M  V30 143 H 12.8308 -2.39672 3.49762 0
M  V30 144 C 11.2898 -2.68192 2.03899 0
M  V30 145 O 11.8198 -3.6872 1.594 0
M  V30 146 N 10.0258 -2.35488 1.70275 0
M  V30 147 H 9.5728 -1.53787 2.06658 0
M  V30 148 H 9.5308 -2.95442 1.07524 0
M  V30 149 N 13.3029 -1.57598 0.00835791 0
M  V30 150 C 14.2329 -2.1198 -0.979113 0
M  V30 151 C 15.2139 -1.03091 -1.35301 0
M  V30 152 O 16.3989 -1.30818 -1.43528 0
M  V30 153 C 13.5289 -2.62995 -2.26828 0
M  V30 154 C 12.4829 -3.76485 -2.03576 0
M  V30 155 C 11.8089 -4.13846 -3.38579 0
M  V30 156 C 13.1089 -5.0342 -1.39161 0
M  V30 157 H 14.8029 -2.94738 -0.526281 0
M  V30 158 H 12.3489 -1.41783 -0.251704 0
M  V30 159 H 14.3019 -2.99669 -2.96271 0
M  V30 160 H 13.0259 -1.7737 -2.7424 0
M  V30 161 H 11.6849 -3.40217 -1.36557 0
M  V30 162 H 11.3329 -3.25232 -3.83709 0
M  V30 163 H 11.0329 -4.90312 -3.23834 0
M  V30 164 H 12.5569 -4.53086 -4.09323 0
M  V30 165 H 13.9709 -5.37812 -1.98573 0
M  V30 166 H 12.3679 -5.84746 -1.34878 0
M  V30 167 H 13.4379 -4.83548 -0.361868 0
M  V30 168 N 14.781 0.264519 -1.55364 0
M  V30 169 C 16.03 0.992812 -1.75574 0
M  V30 170 C 16.343 1.87142 -0.568979 0
M  V30 171 O 17.549 2.63513 -0.653682 0
M  V30 172 C 16.005 1.81519 -3.10771 0
M  V30 173 C 15.613 0.984839 -4.37041 0
M  V30 174 C 17.357 2.53727 -3.40327 0
M  V30 175 C 15.264 1.80209 -5.63275 0
M  V30 176 H 14.194 0.374412 -0.65447 0
M  V30 177 H 16.845 0.248138 -1.81815 0
M  V30 178 H 15.227 2.60115 -2.98591 0
M  V30 179 H 16.401 0.242455 -4.60162 0
M  V30 180 H 14.716 0.37691 -4.14691 0
M  V30 181 H 17.313 3.15292 -4.3185 0
M  V30 182 H 17.656 3.24447 -2.60845 0
M  V30 183 H 18.189 1.82156 -3.53644 0
M  V30 184 H 14.928 1.13896 -6.45529 0
M  V30 185 H 14.448 2.52022 -5.44284 0
M  V30 186 H 16.127 2.37364 -6.01887 0
M  V30 187 N 16.2591 1.48442 0.529413 0
M  V30 188 C 17.1891 1.65902 1.64313 0
M  V30 189 C 18.1701 0.507897 1.6234 0
M  V30 190 O 19.3551 0.740503 1.79528 0
M  V30 191 C 16.4851 1.69911 3.02898 0
M  V30 192 C 15.4391 2.8453 3.19729 0
M  V30 193 C 14.7651 2.73629 4.59381 0
M  V30 194 C 16.0651 4.25821 3.02447 0
M  V30 195 H 17.7591 2.5914 1.49955 0
M  V30 196 H 15.3051 1.24709 0.719982 0
M  V30 197 H 17.2581 1.80715 3.80684 0
M  V30 198 H 15.9821 0.732524 3.18279 0
M  V30 199 H 14.6411 2.73283 2.44361 0
M  V30 200 H 14.2891 1.74938 4.71599 0
M  V30 201 H 13.9891 3.50541 4.71588 0
M  V30 202 H 15.5131 2.86401 5.39265 0
M  V30 203 H 16.9271 4.37898 3.70024 0
M  V30 204 H 15.3241 5.03735 3.26146 0
M  V30 205 H 16.3941 4.42244 1.98867 0
M  V30 206 N 17.7372 -0.778329 1.37039 0
M  V30 207 C 18.6702 -1.8984 1.26633 0
M  V30 208 C 19.6482 -1.61923 0.148197 0
M  V30 209 O 20.8322 -1.85742 0.321265 0
M  V30 210 C 17.9592 -3.24916 0.956403 0
M  V30 211 C 17.0052 -3.71752 2.09051 0
M  V30 212 S 17.8382 -3.86201 3.70957 0
M  V30 213 C 18.9942 -5.24135 3.42101 0
M  V30 214 H 19.2272 -1.98377 2.21436 0
M  V30 215 H 16.7602 -0.938738 1.22585 0
M  V30 216 H 18.7182 -4.02936 0.784409 0
M  V30 217 H 17.3792 -3.14089 0.0259713 0
M  V30 218 H 16.5722 -4.69661 1.8285 0
M  V30 219 H 16.1742 -3.00815 2.2223 0
M  V30 220 H 18.4662 -6.09086 2.96682 0
M  V30 221 H 19.4092 -5.55346 4.39314 0
M  V30 222 H 19.8172 -4.91761 2.77185 0
M  V30 223 N 19.2153 -1.21501 -1.00376 0
M  V30 224 C 20.1783 -0.976927 -2.07337 0
M  V30 225 C 21.1783 0.0525322 -1.60714 0
M  V30 226 O 22.3683 -0.184869 -1.73216 0
M  V30 227 C 19.5003 -0.473423 -3.37597 0
M  V30 228 H 20.6933 -1.92587 -2.29892 0
M  V30 229 H 18.2463 -1.03217 -1.17371 0
M  V30 230 H 18.9813 0.480379 -3.20722 0
M  V30 231 H 18.7663 -1.216 -3.72768 0
M  V30 232 H 20.2563 -0.32675 -4.1632 0
M  V30 233 N 20.6934 1.19889 -1.02296 0
M  V30 234 C 21.6564 2.21116 -0.603351 0
M  V30 235 C 22.6564 1.5738 0.329884 0
M  V30 236 O 23.8464 1.73802 0.117702 0
M  V30 237 C 20.9784 3.40696 0.117992 0
M  V30 238 H 22.1714 2.59754 -1.49893 0
M  V30 239 H 19.7244 1.33463 -0.813468 0
M  V30 240 H 20.4594 3.07569 1.0282 0
M  V30 241 H 20.2444 3.88188 -0.552511 0
M  V30 242 H 21.7344 4.15692 0.398696 0
M  V30 243 N 22.1715 0.800033 1.35784 0
M  V30 244 C 23.3965 0.388511 2.03729 0
M  V30 245 C 23.8215 -0.990481 1.5991 0
M  V30 246 O 23.1795 -1.64013 0.772612 0
M  V30 247 C 23.2275 0.4726 3.5749 0
M  V30 248 O 22.3315 -0.51646 4.09153 0
M  V30 249 H 21.6725 0.163271 0.643614 0
M  V30 250 H 24.2025 1.0841 1.73518 0
M  V30 251 H 24.2125 0.34003 4.06581 0
M  V30 252 H 22.8875 1.47848 3.88734 0
M  V30 253 H 21.4645 -0.344673 3.71304 0
M  V30 254 N 23.6496 -1.47581 0.552962 0
M  V30 255 C 24.8976 -2.02082 0.0272703 0
M  V30 256 C 25.2186 -1.4301 -1.32563 0
M  V30 257 O 24.4886 -0.603745 -1.86365 0
M  V30 258 H 23.0686 -0.746966 0.00709182 0
M  V30 259 H 25.7306 -1.81033 0.722008 0
M  V30 260 H 24.8266 -3.12034 -0.0639951 0
M  V30 261 N 25.1277 -0.289203 -1.54924 0
M  V30 262 C 26.0907 0.579144 -2.21762 0
M  V30 263 C 27.0907 1.07047 -1.1999 0
M  V30 264 O 28.2807 0.968384 -1.44803 0
M  V30 265 C 25.4127 1.80055 -2.8947 0
M  V30 266 H 26.6057 -0.00464908 -2.999 0
M  V30 267 H 24.1587 -0.0399306 -1.56249 0
M  V30 268 H 24.8937 2.42449 -2.15381 0
M  V30 269 H 24.6787 1.45602 -3.64064 0
M  V30 270 H 26.1687 2.41773 -3.40493 0
M  V30 271 N 26.6058 1.57591 -0.0167156 0
M  V30 272 C 27.8518 1.91567 0.665582 0
M  V30 273 C 28.1848 0.892298 1.72487 0
M  V30 274 O 27.4598 -0.0867127 1.94307 0
M  V30 275 C 27.7428 3.36069 1.29342 0
M  V30 276 C 27.5958 4.49135 0.244541 0
M  V30 277 C 28.9148 3.803 2.21495 0
M  V30 278 H 26.0338 0.69666 0.240488 0
M  V30 279 H 28.6758 1.89866 -0.0714356 0
M  V30 280 H 26.8258 3.3765 1.92158 0
M  V30 281 H 28.4978 4.59689 -0.385228 0
M  V30 282 H 26.7408 4.3165 -0.431379 0
M  V30 283 H 27.4118 5.47242 0.723207 0
M  V30 284 H 29.8878 3.80377 1.68678 0
M  V30 285 H 28.7638 4.82127 2.62382 0
M  V30 286 H 29.0248 3.15104 3.101 0
M  V30 287 N 28.0839 -0.256276 1.55502 0
M  V30 288 C 29.3239 -0.993081 1.78654 0
M  V30 289 C 29.6879 -1.8288 0.584724 0
M  V30 290 O 30.8889 -2.59665 0.694822 0
M  V30 291 C 29.1599 -1.83856 3.06483 0
M  V30 292 S 30.7189 -2.63573 3.5082 0
M  V30 293 H 27.5369 -0.334199 0.62756 0
M  V30 294 H 30.1389 -0.26184 1.93739 0
M  V30 295 H 28.8429 -1.21414 3.92029 0
M  V30 296 H 28.3739 -2.61271 2.94111 0
M  V30 297 H 30.3889 -3.86312 3.11412 0
M  V30 298 N 29.562 -1.4872 -0.521534 0
M  V30 299 C 30.472 -1.66569 -1.65203 0
M  V30 300 C 31.488 -0.548197 -1.65139 0
M  V30 301 O 32.664 -0.820339 -1.83936 0
M  V30 302 C 29.729 -1.70917 -3.01642 0
M  V30 303 C 28.79 -2.94356 -3.12495 0
M  V30 304 C 28.023 -2.98487 -4.42426 0
M  V30 305 O 28.246 -2.10786 -5.30024 0
M  V30 306 O 27.18 -3.90746 -4.57822 0
M  V30 307 H 31.006 -2.62298 -1.5308 0
M  V30 308 H 28.591 -1.3222 -0.695565 0
M  V30 309 H 30.473 -1.7625 -3.82771 0
M  V30 310 H 29.148 -0.783633 -3.14071 0
M  V30 311 H 28.055 -2.94552 -2.3063 0
M  V30 312 H 29.388 -3.86322 -3.04986 0
M  V30 313 N 31.0401 0.771051 -1.3745 0
M  V30 314 C 32.2861 1.5319 -1.32894 0
M  V30 315 C 32.6191 1.94008 0.0862511 0
M  V30 316 O 31.8941 1.64124 1.04373 0
M  V30 317 C 32.1771 2.79648 -2.26868 0
M  V30 318 C 32.0301 2.45079 -3.77169 0
M  V30 319 C 33.3491 3.81583 -2.19277 0
M  V30 320 H 30.4681 0.555744 -0.484064 0
M  V30 321 H 33.1101 0.884492 -1.68157 0
M  V30 322 H 31.2601 3.34891 -1.96926 0
M  V30 323 H 32.9321 1.95745 -4.1771 0
M  V30 324 H 31.1751 1.77767 -3.95704 0
M  V30 325 H 31.8461 3.35478 -4.38359 0
M  V30 326 H 34.3221 3.35835 -2.45671 0
M  V30 327 H 33.1981 4.67787 -2.87171 0
M  V30 328 H 33.4591 4.25897 -1.18592 0
M  V30 329 N 32.5182 1.22032 0.997298 0
M  V30 330 C 33.4652 0.986467 2.08656 0
M  V30 331 C 34.4352 -0.0902671 1.65855 0
M  V30 332 O 35.6202 0.0584294 1.90711 0
M  V30 333 C 32.7602 0.565569 3.40434 0
M  V30 334 C 31.8732 1.71259 3.96604 0
M  V30 335 C 31.0082 1.24011 5.16522 0
M  V30 336 C 30.0472 2.35896 5.64818 0
M  V30 337 N 29.1842 1.89726 6.7598 0
M  V30 338 H 34.0242 1.91892 2.27994 0
M  V30 339 H 31.5612 0.956199 1.11782 0
M  V30 340 H 33.5192 0.302738 4.161 0
M  V30 341 H 32.1492 -0.329879 3.2111 0
M  V30 342 H 31.2012 2.08986 3.17851 0
M  V30 343 H 32.5132 2.55436 4.28432 0
M  V30 344 H 31.6672 0.934395 5.99461 0
M  V30 345 H 30.4062 0.368487 4.86306 0
M  V30 346 H 29.4112 2.67261 4.8047 0
M  V30 347 H 30.6362 3.23567 5.97061 0
M  V30 348 H 28.5822 1.0492 6.47555 0
M  V30 349 H 28.4992 2.67471 7.07103 0
M  V30 350 H 29.7672 1.62211 7.62435 0
M  V30 351 N 33.9963 -1.19345 1.0293 0
M  V30 352 C 35.2733 -1.84811 0.640642 0
M  V30 353 C 35.6533 -1.91855 -0.88062 0
M  V30 354 O 35.0013 -1.43587 -1.7775 0
M  V30 355 C 35.2113 -3.23755 1.30321 0
M  V30 356 C 36.5593 -3.99912 1.42673 0
M  V30 357 O 37.5833 -3.33155 1.26041 0
M  V30 358 O 36.4423 -5.19494 1.6967 0
M  V30 359 H 33.5363 -0.796443 0.222726 0
M  V30 360 H 36.0823 -1.26831 1.12748 0
M  V30 361 H 34.8543 -3.13466 2.34211 0
M  V30 362 H 34.4773 -3.89381 0.804261 0
M  V30 363 N 35.4744 -0.807222 -1.35358 0
M  V30 364 C 36.7204 -0.388463 -1.99045 0
M  V30 365 C 37.0534 1.04184 -1.63888 0
M  V30 366 O 36.3284 1.72292 -0.902535 0
M  V30 367 C 36.6114 -0.572783 -3.55515 0
M  V30 368 C 36.4644 -2.04807 -4.00468 0
M  V30 369 C 37.7834 0.00114064 -4.401 0
M  V30 370 H 34.9024 -0.142619 -0.723069 0
M  V30 371 H 37.5444 -1.01687 -1.60498 0
M  V30 372 H 35.6944 -0.0378425 -3.88482 0
M  V30 373 H 37.3664 -2.64544 -3.77908 0
M  V30 374 H 35.6094 -2.54427 -3.51353 0
M  V30 375 H 36.2804 -2.12792 -5.09337 0
M  V30 376 H 38.7564 -0.455716 -4.13597 0
M  V30 377 H 37.6324 -0.157737 -5.48673 0
M  V30 378 H 37.8934 1.09488 -4.28328 0
M  V30 379 N 36.9525 1.47285 -0.560781 0
M  V30 380 C 38.1925 2.0436 -0.0404627 0
M  V30 381 C 38.5565 1.42534 1.28639 0
M  V30 382 O 39.7575 1.90677 1.89462 0
M  V30 383 C 38.0285 3.57369 0.0471856 0
M  V30 384 S 39.5875 4.3579 0.513109 0
M  V30 385 H 36.4055 0.710492 -0.0268674 0
M  V30 386 H 39.0075 1.80611 -0.748323 0
M  V30 387 H 37.7115 3.9989 -0.922817 0
M  V30 388 H 37.2425 3.8562 0.778491 0
M  V30 389 H 39.2575 4.63476 1.77212 0
M  V30 390 N 38.4306 0.297415 1.54768 0
M  V30 391 C 39.6766 -0.313376 2.00364 0
M  V30 392 C 40.0096 -1.53815 1.18553 0
M  V30 393 O 39.2846 -1.92739 0.261103 0
M  V30 394 C 39.5676 -0.673525 3.53745 0
M  V30 395 C 39.4206 0.560133 4.46299 0
M  V30 396 C 40.7396 -1.50143 4.13697 0
M  V30 397 H 37.8586 -0.112428 0.728374 0
M  V30 398 H 40.5006 0.4088 1.8555 0
M  V30 399 H 38.6506 -1.28881 3.665 0
M  V30 400 H 40.3226 1.19863 4.45455 0
M  V30 401 H 38.5656 1.19405 4.17043 0
M  V30 402 H 39.2366 0.26405 5.51368 0
M  V30 403 H 41.7126 -0.981588 4.04356 0
M  V30 404 H 40.5886 -1.72221 5.21182 0
M  V30 405 H 40.8496 -2.48952 3.65343 0
M  V30 406 N 39.9087 -1.5758 0.0250728 0
M  V30 407 C 41.1567 -1.91255 -0.653151 0
M  V30 408 C 41.4777 -0.901691 -1.729 0
M  V30 409 O 40.7477 0.0573785 -1.95816 0
M  V30 410 H 39.3277 -0.705942 -0.244243 0
M  V30 411 H 41.9897 -1.94767 0.0719209 0
M  V30 412 H 41.0857 -2.91752 -1.10847 0
M  V30 413 N 41.3868 0.248026 -1.55636 0
M  V30 414 C 42.6118 0.998028 -1.81808 0
M  V30 415 C 43.0368 1.78207 -0.601979 0
M  V30 416 O 42.3948 1.75653 0.448961 0
M  V30 417 C 42.4428 1.9125 -3.05705 0
M  V30 418 O 41.5468 3.00406 -2.82542 0
M  V30 419 H 40.8878 0.284045 -0.600179 0
M  V30 420 H 43.4178 0.269357 -2.02819 0
M  V30 421 H 43.4278 2.32737 -3.35108 0
M  V30 422 H 42.1028 1.33602 -3.93857 0
M  V30 423 H 40.6798 2.63056 -2.64303 0
M  V30 424 N 42.8649 1.48995 0.513639 0
M  V30 425 C 44.2759 1.5119 1.09537 0
M  V30 426 C 44.6269 0.290906 1.94031 0
M  V30 427 O 43.7519 -0.60049 2.07902 0
M  V30 428 C 44.3469 2.73964 1.99322 0
M  V30 429 C 42.9059 2.78978 2.52682 0
M  V30 430 C 42.0529 2.44934 1.30009 0
M  V30 431 H 45.0039 1.55875 0.298125 0
M  V30 432 H 45.0249 2.53409 2.83838 0
M  V30 433 H 44.5369 3.62813 1.37799 0
M  V30 434 H 42.6379 1.94378 3.1788 0
M  V30 435 H 42.7509 3.8083 2.90698 0
M  V30 436 H 41.1149 1.9644 1.62122 0
M  V30 437 H 41.8979 3.36043 0.702131 0
M  V30 438 N 44.343 -0.763751 1.37857 0
M  V30 439 C 45.591 -1.51957 1.33243 0
M  V30 440 C 45.912 -1.94835 -0.0801709 0
M  V30 441 O 45.182 -1.66894 -1.02582 0
M  V30 442 H 43.762 -0.563626 0.49024 0
M  V30 443 H 46.424 -0.908504 1.7243 0
M  V30 444 H 45.52 -2.41523 1.97669 0
M  V30 445 N 45.8211 -1.22559 -0.990812 0
M  V30 446 C 47.0701 -1.04553 -1.72486 0
M  V30 447 C 47.3831 0.419349 -1.91052 0
M  V30 448 O 48.5891 0.719121 -2.61803 0
M  V30 449 C 47.0451 -1.82231 -3.10355 0
M  V30 450 C 46.6531 -3.32981 -2.99713 0
M  V30 451 C 48.3971 -1.7268 -3.87791 0
M  V30 452 C 46.3041 -4.03091 -4.32748 0
M  V30 453 H 45.2341 -0.387614 -0.646739 0
M  V30 454 H 47.8851 -1.46429 -1.10593 0
M  V30 455 H 46.2671 -1.33155 -3.72942 0
M  V30 456 H 47.4411 -3.89466 -2.46278 0
M  V30 457 H 45.7561 -3.43231 -2.35758 0
M  V30 458 H 48.3531 -2.22381 -4.86262 0
M  V30 459 H 48.6961 -0.687607 -4.10582 0
M  V30 460 H 49.2291 -2.1931 -3.31885 0
M  V30 461 H 45.9681 -5.07273 -4.15156 0
M  V30 462 H 45.4881 -3.51394 -4.86089 0
M  V30 463 H 47.1671 -4.08804 -5.01486 0
M  V30 464 N 47.2992 1.18797 -1.03562 0
M  V30 465 C 48.7102 1.70322 -0.764676 0
M  V30 466 C 49.0612 1.82708 0.714996 0
M  V30 467 O 48.1862 1.50299 1.55689 0
M  V30 468 C 48.7812 3.09356 -1.38145 0
M  V30 469 C 47.3402 3.58114 -1.15895 0
M  V30 470 C 46.4872 2.34798 -1.4753 0
M  V30 471 H 49.4382 1.03543 -1.20268 0
M  V30 472 H 49.4592 3.72378 -0.781977 0
M  V30 473 H 48.9712 3.00309 -2.45837 0
M  V30 474 H 47.0722 3.72464 -0.100544 0
M  V30 475 H 47.1852 4.4184 -1.8524 0
M  V30 476 H 45.5492 2.38464 -0.894829 0
M  V30 477 H 46.3322 2.28375 -2.56319 0
M  V30 478 N 48.7773 0.814389 1.34928 0
M  V30 479 C 50.0253 0.397636 1.9815 0
M  V30 480 C 50.3463 -1.04069 1.64908 0
M  V30 481 O 49.6163 -1.72121 0.93548 0
M  V30 482 H 48.1963 0.144043 0.732981 0
M  V30 483 H 50.8583 1.04195 1.6471 0
M  V30 484 H 49.9543 0.509688 3.0791 0
M  V30 485 N 50.2554 -1.46986 0.568584 0
M  V30 486 C 51.4834 -2.0683 0.0539956 0
M  V30 487 C 51.8984 -1.41953 -1.24478 0
M  V30 488 O 51.2554 -0.519933 -1.74937 0
M  V30 489 C 51.3064 -3.61254 -0.133362 0
M  V30 490 O 51.0274 -4.237 1.11399 0
M  V30 491 C 52.5284 -4.37992 -0.683927 0
M  V30 492 H 49.7484 -0.669058 0.0510141 0
M  V30 493 H 52.2924 -1.88824 0.785234 0
M  V30 494 H 50.4474 -3.78735 -0.81477 0
M  V30 495 H 50.8614 -5.16388 0.91888 0
M  V30 496 H 52.3354 -5.46684 -0.764263 0
M  V30 497 H 52.8124 -4.05058 -1.69778 0
M  V30 498 H 53.4184 -4.25283 -0.0378494 0
M  V30 499 N 51.7335 -0.305618 -1.54608 0
M  V30 500 C 53.1445 0.186098 -1.8577 0
M  V30 501 C 53.4955 1.53058 -1.22751 0
M  V30 502 O 52.6205 2.09888 -0.526893 0
M  V30 503 C 53.2155 0.344449 -3.37044 0
M  V30 504 C 51.7745 0.780384 -3.68221 0
M  V30 505 C 50.9215 -0.108554 -2.77087 0
M  V30 506 H 53.8725 -0.526485 -1.49712 0
M  V30 507 H 53.8935 1.17828 -3.61796 0
M  V30 508 H 53.4055 -0.634235 -3.82883 0
M  V30 509 H 51.5065 1.76945 -3.27904 0
M  V30 510 H 51.6195 0.596572 -4.75371 0
M  V30 511 H 49.9835 0.412931 -2.5133 0
M  V30 512 H 50.7665 -1.08368 -3.25747 0
M  V30 513 N 53.2116 1.57565 -0.0334293 0
M  V30 514 C 54.4596 1.91598 0.642999 0
M  V30 515 C 54.7806 0.910847 1.7242 0
M  V30 516 O 54.0506 -0.0469931 1.95844 0
M  V30 517 H 52.6306 0.707228 0.240496 0
M  V30 518 H 55.2926 1.94726 -0.0822488 0
M  V30 519 H 54.3886 2.92336 1.09298 0
M  V30 520 N 54.6897 -0.239769 1.55765 0
M  V30 521 C 55.9147 -0.988373 1.82335 0
M  V30 522 C 56.3397 -1.77886 0.611421 0
M  V30 523 O 55.6977 -1.75889 -0.439639 0
M  V30 524 C 55.7457 -1.89627 3.06715 0
M  V30 525 O 54.8497 -2.98904 2.84131 0
M  V30 526 H 54.1907 -0.280858 0.601677 0
M  V30 527 H 56.7207 -0.258597 2.02959 0
M  V30 528 H 56.7307 -2.30957 3.36338 0
M  V30 529 H 55.4057 -1.31511 3.9456 0
M  V30 530 H 53.9827 -2.61651 2.65694 0
M  V30 531 N 56.1678 -1.49265 -0.50573 0
M  V30 532 C 57.1178 -1.6198 -1.60457 0
M  V30 533 C 58.1018 -0.47568 -1.53708 0
M  V30 534 O 59.2938 -0.728392 -1.61318 0
M  V30 535 C 56.4228 -1.68526 -2.99089 0
M  V30 536 C 55.5088 -2.885 -3.10852 0
M  V30 537 N 55.8998 -4.12635 -2.92517 0
M  V30 538 C 54.1978 -2.86338 -3.41945 0
M  V30 539 C 54.8988 -4.93258 -3.08337 0
M  V30 540 N 53.8748 -4.26533 -3.37003 0
M  V30 541 H 57.6768 -2.55681 -1.44928 0
M  V30 542 H 55.1908 -1.45972 -0.711752 0
M  V30 543 H 57.1878 -1.75732 -3.78053 0
M  V30 544 H 55.8478 -0.759584 -3.1569 0
M  V30 545 H 56.8588 -4.42689 -2.68787 0
M  V30 546 H 53.5358 -2.03129 -3.64753 0
M  V30 547 H 54.9258 -6.01856 -2.98695 0
M  V30 548 N 57.6459 0.756429 -1.3826 0
M  V30 549 C 58.8939 1.51248 -1.34047 0
M  V30 550 C 59.2149 1.94875 0.0698372 0
M  V30 551 O 58.4849 1.67436 1.01696 0
M  V30 552 H 57.0649 0.561018 -0.493222 0
M  V30 553 H 59.7269 0.899347 -1.7291 0
M  V30 554 H 58.8229 2.40472 -1.98947 0
M  V30 555 N 59.124 1.23083 0.984299 0
M  V30 556 C 60.054 1.03292 2.09411 0
M  V30 557 C 61.035 -0.048923 1.7003 0
M  V30 558 O 62.22 0.114967 1.93859 0
M  V30 559 C 59.35 0.619155 3.41736 0
M  V30 560 C 58.304 1.64791 3.95004 0
M  V30 561 C 57.63 1.0897 5.23478 0
M  V30 562 C 58.93 3.03999 4.24714 0
M  V30 563 H 60.624 1.96119 2.26225 0
M  V30 564 H 58.17 0.944344 1.08711 0
M  V30 565 H 60.123 0.467777 4.18796 0
M  V30 566 H 58.847 -0.344786 3.24775 0
M  V30 567 H 57.506 1.78721 3.20085 0
M  V30 568 H 57.154 0.11686 5.02864 0
M  V30 569 H 56.854 1.77704 5.60085 0
M  V30 570 H 58.378 0.950093 6.03163 0
M  V30 571 H 59.792 2.93393 4.92538 0
M  V30 572 H 58.189 3.69936 4.72512 0
M  V30 573 H 59.259 3.53285 3.32142 0
M  V30 574 N 60.6021 -1.18246 1.0419 0
M  V30 575 C 62.0131 -1.69914 0.773698 0
M  V30 576 C 62.3641 -1.83085 -0.705297 0
M  V30 577 O 61.4891 -1.51123 -1.5489 0
M  V30 578 C 62.0841 -3.08619 1.39784 0
M  V30 579 C 60.6431 -3.57494 1.17792 0
M  V30 580 C 59.7901 -2.34013 1.48773 0
M  V30 581 H 62.7411 -1.02904 1.20816 0
M  V30 582 H 62.7621 -3.71958 0.801714 0
M  V30 583 H 62.2741 -2.99001 2.47426 0
M  V30 584 H 60.3751 -3.72406 0.120295 0
M  V30 585 H 60.4881 -4.40852 1.87581 0
M  V30 586 H 58.8521 -2.37986 0.907463 0
M  V30 587 H 59.6351 -2.27013 2.57527 0
M  V30 588 N 62.0802 -0.821533 -1.34494 0
M  V30 589 C 63.3282 -0.408139 -1.97936 0
M  V30 590 C 63.6492 1.03193 -1.65457 0
M  V30 591 O 62.9192 1.71622 -0.944595 0
M  V30 592 H 61.4992 -0.147928 -0.732206 0
M  V30 593 H 64.1612 -1.05067 -1.64155 0
M  V30 594 H 63.2572 -0.52601 -3.07635 0
M  V30 595 N 63.5583 1.46682 -0.576371 0
M  V30 596 C 64.9743 1.57822 -0.237562 0
M  V30 597 C 65.1743 1.57237 1.26011 0
M  V30 598 O 64.2303 1.48596 2.04146 0
M  V30 599 C 65.5433 2.87499 -0.881168 0
M  V30 600 C 67.0913 3.01119 -0.85417 0
M  V30 601 C 67.5663 4.33524 -1.4772 0
M  V30 602 N 69.0573 4.40207 -1.44125 0
M  V30 603 C 69.7923 5.4126 -1.89276 0
M  V30 604 N 69.2883 6.49021 -2.42371 0
M  V30 605 N 71.0813 5.32422 -1.80231 0
M  V30 606 H 63.2323 1.45306 -1.54919 0
M  V30 607 H 65.4953 0.692733 -0.647167 0
M  V30 608 H 65.2013 2.9372 -1.93447 0
M  V30 609 H 65.0753 3.75224 -0.385592 0
M  V30 610 H 67.4623 2.94485 0.190491 0
M  V30 611 H 67.5433 2.14887 -1.3877 0
M  V30 612 H 67.1873 4.40916 -2.52103 0
M  V30 613 H 67.1173 5.1852 -0.918947 0
M  V30 614 H 69.6083 3.62931 -1.05307 0
M  V30 615 H 69.9213 7.2233 -2.74698 0
M  V30 616 H 68.2663 6.49858 -2.46393 0
M  V30 617 H 71.4573 4.47137 -1.38514 0
M  V30 618 H 71.6303 6.11034 -2.15735 0
M  V30 619 N 65.0364 0.313813 1.54444 0
M  V30 620 C 66.3134 -0.345447 1.92525 0
M  V30 621 C 66.6934 -1.70667 1.24242 0
M  V30 622 O 66.0414 -2.25273 0.382654 0
M  V30 623 C 66.2514 -0.44737 3.46121 0
M  V30 624 C 67.5994 -0.712238 4.18584 0
M  V30 625 O 68.6234 -0.530678 3.52225 0
M  V30 626 O 67.4824 -1.06183 5.36085 0
M  V30 627 H 64.5764 -0.195407 0.803583 0
M  V30 628 H 67.1224 0.362813 1.65776 0
M  V30 629 H 65.8944 0.509043 3.87975 0
M  V30 630 H 65.5174 -1.20359 3.78945 0
M  V30 631 N 66.5145 -1.57545 0.0417849 0
M  V30 632 C 67.7625 -1.91937 -0.632829 0
M  V30 633 C 68.0835 -0.919978 -1.71934 0
M  V30 634 O 67.3535 0.0366064 -1.95866 0
M  V30 635 H 65.9335 -0.708493 -0.236742 0
M  V30 636 H 68.5955 -1.9468 0.0925745 0
M  V30 637 H 67.6915 -2.92912 -1.07746 0
M  V30 638 N 67.9926 0.231505 -1.5589 0
M  V30 639 C 69.4086 0.580748 -1.48659 0
M  V30 640 C 69.6086 1.87617 -0.73498 0
M  V30 641 O 68.6646 2.51046 -0.270586 0
M  V30 642 C 69.9776 0.669202 -2.93159 0
M  V30 643 C 71.5256 0.760499 -3.03621 0
M  V30 644 C 72.0006 0.880383 -4.49459 0
M  V30 645 N 73.4916 0.944861 -4.53461 0
M  V30 646 C 74.2266 1.05716 -5.63571 0
M  V30 647 N 73.7226 1.13403 -6.83456 0
M  V30 648 N 75.5156 1.09152 -5.514 0
M  V30 649 H 67.6666 -0.618695 -2.03189 0
M  V30 650 H 69.9296 -0.215728 -0.923128 0
M  V30 651 H 69.6356 -0.212904 -3.51055 0
M  V30 652 H 69.5096 1.5361 -3.44505 0
M  V30 653 H 71.8966 1.63305 -2.45796 0
M  V30 654 H 71.9776 -0.131864 -2.5546 0
M  V30 655 H 71.6216 0.0123284 -5.07899 0
M  V30 656 H 71.5516 1.78802 -4.95316 0
M  V30 657 H 74.0426 0.896176 -3.6712 0
M  V30 658 H 74.3556 1.21921 -7.63122 0
M  V30 659 H 72.7006 1.10333 -6.86186 0
M  V30 660 H 75.8916 1.02805 -4.56671 0
M  V30 661 H 76.0646 1.17558 -6.37247 0
M  V30 662 N 69.4707 1.49531 0.497807 0
M  V30 663 C 70.7477 1.49682 1.25915 0
M  V30 664 C 71.1277 0.226339 2.09883 0
M  V30 665 O 70.4757 -0.791189 2.14365 0
M  V30 666 C 70.6857 2.77755 2.11313 0
M  V30 667 C 72.0337 3.27371 2.70395 0
M  V30 668 O 73.0577 2.78894 2.21578 0
M  V30 669 O 71.9167 4.11808 3.59272 0
M  V30 670 H 69.0107 0.599228 0.56996 0
M  V30 671 H 71.5567 1.61798 0.511816 0
M  V30 672 H 70.3287 3.61713 1.49264 0
M  V30 673 H 69.9517 2.68515 2.93233 0
M  V30 674 N 70.9488 -0.749086 1.3866 0
M  V30 675 C 72.1968 -1.50535 1.34847 0
M  V30 676 C 72.5178 -1.94909 -0.0595016 0
M  V30 677 O 71.7878 -1.67973 -1.00806 0
M  V30 678 H 70.3678 -0.558395 0.49619 0
M  V30 679 H 73.0298 -0.890165 1.73384 0
M  V30 680 H 72.1258 -2.39413 2.00219 0
M  V30 681 N 72.4269 -1.23603 -0.977757 0
M  V30 682 C 73.3569 -1.04401 -2.0886 0
M  V30 683 C 74.3379 0.0399052 -1.70053 0
M  V30 684 O 75.5229 -0.125246 -1.93796 0
M  V30 685 C 72.6529 -0.637269 -3.41403 0
M  V30 686 C 71.6069 -1.66883 -3.94124 0
M  V30 687 C 70.9329 -1.11745 -5.22893 0
M  V30 688 C 72.2329 -3.06247 -4.23096 0
M  V30 689 H 73.9269 -1.97316 -2.25182 0
M  V30 690 H 71.4729 -0.950096 -1.08209 0
M  V30 691 H 73.4259 -0.48998 -4.18542 0
M  V30 692 H 72.1499 0.327557 -3.24953 0
M  V30 693 H 70.8089 -1.80416 -3.19133 0
M  V30 694 H 70.4569 -0.143527 -5.02795 0
M  V30 695 H 70.1569 -1.80672 -5.59134 0
M  V30 696 H 71.6809 -0.982067 -6.02651 0
M  V30 697 H 73.0949 -2.96001 -4.90975 0
M  V30 698 H 71.4919 -3.72436 -4.70544 0
M  V30 699 H 72.5619 -3.55041 -3.30263 0
M  V30 700 N 73.905 1.17692 -1.04816 0
M  V30 701 C 74.852 2.21581 -0.645797 0
M  V30 702 C 75.822 1.62367 0.350159 0
M  V30 703 O 77.007 1.89254 0.242433 0
M  V30 704 C 74.147 3.45092 -0.0227568 0
M  V30 705 C 73.26 4.18613 -1.06709 0
M  V30 706 C 72.395 5.29602 -0.411767 0
M  V30 707 C 71.434 5.94904 -1.44067 0
M  V30 708 N 70.571 6.97414 -0.809781 0
M  V30 709 H 75.411 2.55353 -1.5362 0
M  V30 710 H 72.948 1.25438 -0.768364 0
M  V30 711 H 74.906 4.15679 0.35588 0
M  V30 712 H 73.536 3.11917 0.831122 0
M  V30 713 H 72.588 3.46779 -1.5636 0
M  V30 714 H 73.9 4.63293 -1.84827 0
M  V30 715 H 73.054 6.06696 0.0206623 0
M  V30 716 H 71.793 4.86045 0.401438 0
M  V30 717 H 70.798 5.16544 -1.88316 0
M  V30 718 H 72.023 6.40542 -2.25571 0
M  V30 719 H 69.969 6.55998 -0.0170186 0
M  V30 720 H 69.886 7.40386 -1.52856 0
M  V30 721 H 71.154 7.78463 -0.401999 0
M  V30 722 N 75.3831 0.828654 1.34056 0
M  V30 723 C 76.6311 0.41863 1.97717 0
M  V30 724 C 76.9521 -1.02314 1.66002 0
M  V30 725 O 76.2221 -1.71119 0.953683 0
M  V30 726 H 74.8021 0.151809 0.731412 0
M  V30 727 H 77.4641 1.05936 1.63596 0
M  V30 728 H 76.5601 0.542318 3.07352 0
M  V30 729 N 76.8612 -1.46375 0.584142 0
M  V30 730 C 78.1382 -1.956 0.0033388 0
M  V30 731 C 78.5182 -1.52679 -1.45782 0
M  V30 732 O 77.8662 -0.77816 -2.14842 0
M  V30 733 C 78.0762 -3.48551 0.176891 0
M  V30 734 C 79.4242 -4.24576 0.0454609 0
M  V30 735 O 80.4482 -3.56043 0.105801 0
M  V30 736 O 79.3072 -5.46427 -0.0890376 0
M  V30 737 H 76.4012 -0.825547 -0.0490066 0
M  V30 738 H 78.9472 -1.56652 0.65256 0
M  V30 739 H 77.7192 -3.72683 1.1926 0
M  V30 740 H 77.3422 -3.94332 -0.508695 0
M  V30 741 N 78.3393 -0.321999 -1.54275 0
M  V30 742 C 79.7503 0.166384 -1.85957 0
M  V30 743 C 80.1013 1.51747 -1.24367 0
M  V30 744 O 79.2263 2.09317 -0.549124 0
M  V30 745 C 79.8213 0.308681 -3.37391 0
M  V30 746 C 78.3803 0.741286 -3.69028 0
M  V30 747 C 77.5273 -0.137937 -2.76957 0
M  V30 748 H 80.4783 -0.542335 -1.49146 0
M  V30 749 H 80.4993 1.13984 -3.63026 0
M  V30 750 H 80.0113 -0.674809 -3.82188 0
M  V30 751 H 78.1123 1.73458 -3.29762 0
M  V30 752 H 78.2253 0.546118 -4.75977 0
M  V30 753 H 76.5893 0.386251 -2.51754 0
M  V30 754 H 77.3723 -1.11816 -3.2458 0
M  V30 755 N 79.8174 1.5752 -0.0501392 0
M  V30 756 C 81.0654 1.9227 0.622642 0
M  V30 757 C 81.3864 0.929083 1.71444 0
M  V30 758 O 80.6564 -0.0262186 1.95882 0
M  V30 759 H 79.2364 0.709739 0.232981 0
M  V30 760 H 81.8984 1.94628 -0.102898 0
M  V30 761 H 80.9944 2.93479 1.06191 0
M  V30 762 N 81.2955 -0.223234 1.56011 0
M  V30 763 C 82.7065 -0.790368 1.69145 0
M  V30 764 C 83.0575 -1.85055 0.651845 0
M  V30 765 O 82.1825 -2.15498 -0.197359 0
M  V30 766 C 82.7775 -1.4404 3.06656 0
M  V30 767 C 81.3365 -1.95494 3.2165 0
M  V30 768 C 80.4835 -0.814506 2.65068 0
M  V30 769 H 83.4345 0.00139011 1.587 0
M  V30 770 H 83.4555 -2.30916 3.0242 0
M  V30 771 H 82.9675 -0.668543 3.82298 0
M  V30 772 H 81.0685 -2.75487 2.50874 0
M  V30 773 H 81.1815 -2.13607 4.28846 0
M  V30 774 H 79.5455 -1.22137 2.23505 0
M  V30 775 H 80.3285 -0.0553515 3.43255 0
M  V30 776 N 82.7736 -1.49793 -0.48987 0
M  V30 777 C 84.1846 -1.52914 -1.07118 0
M  V30 778 C 84.5356 -0.321738 -1.93544 0
M  V30 779 O 83.6606 0.567338 -2.08831 0
M  V30 780 C 84.2556 -2.771 -1.94938 0
M  V30 781 C 82.8146 -2.82963 -2.48212 0
M  V30 782 C 81.9616 -2.46972 -1.26096 0
M  V30 783 H 84.9126 -1.56329 -0.273289 0
M  V30 784 H 84.9336 -2.57892 -2.79771 0
M  V30 785 H 84.4456 -3.64959 -1.32009 0
M  V30 786 H 82.5466 -1.99411 -3.14748 0
M  V30 787 H 82.6596 -3.85406 -2.84603 0
M  V30 788 H 81.0236 -1.98994 -1.58976 0
M  V30 789 H 81.8066 -3.37118 -0.648581 0
M  V30 790 N 84.2517 0.741722 -1.39055 0
M  V30 791 C 85.4997 1.49818 -1.35643 0
M  V30 792 C 85.8207 1.94938 0.0491642 0
M  V30 793 O 85.0907 1.68505 0.999141 0
M  V30 794 H 83.6707 0.555755 -0.499144 0
M  V30 795 H 86.3327 0.880957 -1.73854 0
M  V30 796 H 85.4287 2.38348 -2.01486 0
M  V30 797 N 85.7298 1.2412 0.971189 0
M  V30 798 C 87.1408 1.07236 1.52831 0
M  V30 799 C 87.4918 -0.357352 1.92918 0
M  V30 800 O 86.6168 -1.24528 1.76979 0
M  V30 801 C 87.2118 1.94043 2.77728 0
M  V30 802 C 85.7708 1.81394 3.29808 0
M  V30 803 C 84.9178 1.89189 2.02738 0
M  V30 804 H 87.8688 1.37648 0.789864 0
M  V30 805 H 87.8898 1.47066 3.5093 0
M  V30 806 H 87.4018 2.98093 2.4852 0
M  V30 807 H 85.5028 0.801634 3.63874 0
M  V30 808 H 85.6158 2.65294 3.98944 0
M  V30 809 H 83.9798 1.32877 2.17292 0
M  V30 810 H 84.7628 2.94812 1.759 0
M  V30 811 N 87.2079 -1.17134 1.05439 0
M  V30 812 C 88.1409 -2.2012 0.601855 0
M  V30 813 C 89.1189 -1.58314 -0.370854 0
M  V30 814 O 90.3029 -1.8638 -0.281882 0
M  V30 815 C 87.4299 -3.38491 -0.118868 0
M  V30 816 C 86.4759 -4.18752 0.809242 0
M  V30 817 S 87.3089 -4.83602 2.29977 0
M  V30 818 C 88.4649 -6.0536 1.59029 0
M  V30 819 H 88.6979 -2.58165 1.47438 0
M  V30 820 H 86.2309 -1.27788 0.866573 0
M  V30 821 H 88.1889 -4.07084 -0.528495 0
M  V30 822 H 86.8499 -2.98829 -0.967465 0
M  V30 823 H 86.0429 -5.03373 0.251379 0
M  V30 824 H 85.6449 -3.5561 1.15835 0
M  V30 825 H 87.9369 -6.71615 0.891017 0
M  V30 826 H 88.8799 -6.65679 2.41407 0
M  V30 827 H 89.2879 -5.54138 1.07663 0
M  V30 828 N 88.686 -0.835752 -1.33615 0
M  V30 829 C 89.934 -0.429109 -1.97492 0
M  V30 830 C 90.255 1.01433 -1.66543 0
M  V30 831 O 89.525 1.70611 -0.962744 0
M  V30 832 H 88.105 -0.155686 -0.730596 0
M  V30 833 H 90.767 -1.06802 -1.63031 0
M  V30 834 H 89.863 -0.55861 -3.0706 0
M  V30 835 N 90.1641 1.46063 -0.591896 0
M  V30 836 C 91.5751 1.85944 -0.167822 0
M  V30 837 C 91.9261 1.49429 1.27143 0
M  V30 838 O 91.0511 0.913515 1.96173 0
M  V30 839 C 91.6461 3.37489 -0.297794 0
M  V30 840 C 90.2051 3.76332 0.0714732 0
M  V30 841 C 89.3521 2.7006 -0.629509 0
M  V30 842 H 92.3031 1.37087 -0.799555 0
M  V30 843 H 92.3241 3.77532 0.474349 0
M  V30 844 H 91.8361 3.64034 -1.3454 0
M  V30 845 H 89.9371 3.55405 1.11886 0
M  V30 846 H 90.0501 4.78088 -0.311245 0
M  V30 847 H 88.4141 2.54607 -0.0687867 0
M  V30 848 H 89.1971 2.99444 -1.67894 0
M  V30 849 N 91.6422 0.330177 1.54103 0
M  V30 850 C 93.0532 -0.15652 1.86043 0
M  V30 851 C 93.4042 -1.51086 1.2517 0
M  V30 852 O 92.5292 -2.09023 0.560217 0
M  V30 853 C 93.1242 -0.290784 3.3755 0
M  V30 854 C 91.6832 -0.721705 3.69416 0
M  V30 855 C 90.8302 0.152622 2.7688 0
M  V30 856 H 93.7812 0.550237 1.48856 0
M  V30 857 H 93.8022 -1.12058 3.63625 0
M  V30 858 H 93.3142 0.695068 3.81825 0
M  V30 859 H 91.4152 -1.71706 3.30678 0
M  V30 860 H 91.5282 -0.520869 4.7626 0
M  V30 861 H 89.8922 -0.372894 2.51956 0
M  V30 862 H 90.6752 1.13536 3.23982 0
M  V30 863 N 93.1203 -1.57491 0.0584922 0
M  V30 864 C 94.3683 -1.92597 -0.612436 0
M  V30 865 C 94.6893 -0.938162 -1.70949 0
M  V30 866 O 93.9593 0.0158301 -1.95894 0
M  V30 867 H 92.5393 -0.710964 -0.229214 0
M  V30 868 H 95.2013 -1.94571 0.113218 0
M  V30 869 H 94.2973 -2.94038 -1.04633 0
M  V30 870 N 94.5984 0.214957 -1.56127 0
M  V30 871 C 95.5084 1.28727 -1.96129 0
M  V30 872 C 96.5244 1.50916 -0.866044 0
M  V30 873 O 97.7004 1.63918 -1.17016 0
M  V30 874 C 94.7654 2.61569 -2.27558 0
M  V30 875 C 93.8264 2.47625 -3.50685 0
M  V30 876 C 93.0594 3.74132 -3.80606 0
M  V30 877 O 93.2824 4.77438 -3.12104 0
M  V30 878 O 92.2164 3.70849 -4.74083 0
M  V30 879 H 96.0424 0.977855 -2.87527 0
M  V30 880 H 93.6274 0.418358 -1.43423 0
M  V30 881 H 95.5094 3.40012 -2.48938 0
M  V30 882 H 94.1844 2.92178 -1.39332 0
M  V30 883 H 93.0914 1.67361 -3.34576 0
M  V30 884 H 94.4244 2.21954 -4.39315 0
M  V30 885 N 96.0765 1.50051 0.48192 0
M  V30 886 C 97.0095 1.62749 1.59963 0
M  V30 887 C 97.9875 0.475903 1.5548 0
M  V30 888 O 99.1715 0.693986 1.7526 0
M  V30 889 C 96.2985 1.60008 2.98522 0
M  V30 890 C 95.3445 2.80596 3.21198 0
M  V30 891 S 96.1775 4.42038 3.02262 0
M  V30 892 C 97.3335 4.41973 4.43182 0
M  V30 893 H 97.5665 2.57296 1.4895 0
M  V30 894 H 95.0995 1.39179 0.668477 0
M  V30 895 H 97.0575 1.59112 3.78409 0
M  V30 896 H 95.7185 0.667153 3.06933 0
M  V30 897 H 94.9115 2.74952 4.22395 0
M  V30 898 H 94.5135 2.79003 2.49065 0
M  V30 899 H 96.8055 4.14868 5.35622 0
M  V30 900 H 97.7485 5.43512 4.53873 0
M  V30 901 H 98.1565 3.71812 4.24755 0
M  V30 902 N 97.5546 -0.734337 1.39446 0
M  V30 903 C 98.9656 -1.31264 1.32766 0
M  V30 904 C 99.3166 -1.96198 -0.00767497 0
M  V30 905 O 98.4416 -1.96346 -0.909796 0
M  V30 906 C 99.0366 -2.38682 2.4045 0
M  V30 907 C 97.5956 -2.92184 2.37288 0
M  V30 908 C 96.7426 -1.6576 2.22304 0
M  V30 909 H 99.6936 -0.531799 1.49525 0
M  V30 910 H 99.7146 -3.19087 2.07276 0
M  V30 911 H 99.2266 -1.91392 3.37625 0
M  V30 912 H 97.3276 -3.43752 1.43754 0
M  V30 913 H 97.4406 -3.45253 3.3217 0
M  V30 914 H 95.8046 -1.9012 1.69489 0
M  V30 915 H 96.5876 -1.20521 3.21449 0
M  V30 916 N 99.0327 -1.24633 -0.964593 0
M  V30 917 C 100.273 -1.09981 -1.72289 0
M  V30 918 C 100.637 0.354792 -1.88693 0
M  V30 919 O 101.838 0.62289 -2.61483 0
M  V30 920 C 100.109 -1.82262 -3.07434 0
M  V30 921 S 101.668 -1.83379 -3.98645 0
M  V30 922 H 98.4857 -0.393292 -0.59232 0
M  V30 923 H 101.088 -1.58009 -1.15123 0
M  V30 924 H 99.7917 -2.87206 -2.93157 0
M  V30 925 H 99.3227 -1.3458 -3.69664 0
M  V30 926 H 101.338 -0.903691 -4.87901 0
M  V30 927 N 100.511 1.16574 -1.06058 0
M  V30 928 C 101.922 1.68662 -0.800632 0
M  V30 929 C 102.273 1.84184 0.67608 0
M  V30 930 O 101.398 1.53568 1.52466 0
M  V30 931 C 101.993 3.06356 -1.44676 0
M  V30 932 C 100.552 3.55575 -1.23465 0
M  V30 933 C 99.6988 2.31616 -1.52477 0
M  V30 934 H 102.65 1.00969 -1.22438 0
M  V30 935 H 102.671 3.70636 -0.860788 0
M  V30 936 H 102.183 2.95027 -2.52152 0
M  V30 937 H 100.284 3.72167 -0.179527 0
M  V30 938 H 100.397 4.37812 -1.94571 0
M  V30 939 H 98.7608 2.36512 -0.945209 0
M  V30 940 H 99.5438 2.22887 -2.61106 0
M  V30 941 N 101.989 0.842826 1.3317 0
M  V30 942 C 103.4 0.496651 1.79973 0
M  V30 943 C 103.751 -0.984641 1.69703 0
M  V30 944 O 102.876 -1.76743 1.24863 0
M  V30 945 C 103.471 0.894727 3.26772 0
M  V30 946 C 102.03 0.600629 3.71577 0
M  V30 947 C 101.177 1.10091 2.5451 0
M  V30 948 H 104.128 1.03116 1.20635 0
M  V30 949 H 104.149 0.206347 3.7994 0
M  V30 950 H 103.661 1.97287 3.34215 0
M  V30 951 H 101.762 -0.467284 3.69658 0
M  V30 952 H 101.875 1.15863 4.64879 0
M  V30 953 H 100.239 0.52162 2.49301 0
M  V30 954 H 101.022 2.18591 2.64713 0
M  V30 955 N 103.467 -1.45747 0.599634 0
M  V30 956 C 104.715 -2.01893 0.0915472 0
M  V30 957 C 105.036 -1.47155 -1.27946 0
M  V30 958 O 104.306 -0.66273 -1.84349 0
M  V30 959 H 102.886 -0.746363 0.0308524 0
M  V30 960 H 105.548 -1.78645 0.779237 0
M  V30 961 H 104.644 -3.1208 0.0353086 0
M  V30 962 N 104.945 -0.338344 -1.53925 0
M  V30 963 C 105.893 0.536231 -2.26335 0
M  V30 964 C 106.887 1.1063 -1.28286 0
M  V30 965 O 108.093 1.05264 -1.46012 0
M  V30 966 H 104.468 0.191602 -0.727181 0
M  V30 967 H 106.439 -0.0965747 -2.98244 0
M  V30 968 C 105.188 1.67803 -3.04528 0
M  V30 969 H 104.511 1.24864 -3.79801 0
M  V30 970 H 105.951 2.26526 -3.58416 0
M  V30 971 C 104.41 2.60439 -2.13712 0
M  V30 972 O 104.94 3.6255 -1.72975 0
M  V30 973 N 103.146 2.29006 -1.78898 0
M  V30 974 H 102.693 1.46011 -2.12223 0
M  V30 975 H 102.651 2.91248 -1.18416 0
M  V30 976 N 106.423 1.57458 -0.0668435 0
M  V30 977 C 107.7 1.8469 0.644132 0
M  V30 978 C 108.08 0.958343 1.88093 0
M  V30 979 O 107.428 0.0233579 2.28488 0
M  V30 980 C 107.638 3.34767 0.986509 0
M  V30 981 C 108.986 4.02159 1.36212 0
M  V30 982 O 110.01 3.39484 1.07839 0
M  V30 983 O 108.869 5.12694 1.89227 0
M  V30 984 H 105.963 0.762816 0.319437 0
M  V30 985 H 108.509 1.6942 -0.0973986 0
M  V30 986 H 107.281 3.91151 0.107883 0
M  V30 987 H 106.904 3.55281 1.78497 0
M  V30 988 N 107.901 -0.206675 1.56239 0
M  V30 989 C 109.149 -0.927007 1.79586 0
M  V30 990 C 109.47 -1.8427 0.637929 0
M  V30 991 O 108.74 -1.92849 -0.344398 0
M  V30 992 H 107.32 -0.345292 0.662407 0
M  V30 993 H 109.982 -0.21496 1.93711 0
M  V30 994 H 109.078 -1.52501 2.72305 0
M  V30 995 N 109.379 -1.50304 -0.473955 0
M  V30 996 C 110.309 -1.71886 -1.58042 0
M  V30 997 C 111.29 -0.567799 -1.60344 0
M  V30 998 O 112.475 -0.806623 -1.76656 0
M  V30 999 C 109.605 -1.81036 -2.96384 0
M  V30 1000 C 108.559 -2.962 -3.08949 0
M  V30 1001 C 107.885 -2.9049 -4.48909 0
M  V30 1002 C 109.185 -4.36752 -2.86434 0
M  V30 1003 H 110.879 -2.64527 -1.40234 0
M  V30 1004 H 108.425 -1.27295 -0.673201 0
M  V30 1005 H 110.378 -1.94719 -3.73714 0
M  V30 1006 H 109.102 -0.850147 -3.15341 0
M  V30 1007 H 107.761 -2.82164 -2.3405 0
M  V30 1008 H 107.409 -1.92321 -4.64781 0
M  V30 1009 H 107.109 -3.67802 -4.58253 0
M  V30 1010 H 108.633 -3.06218 -5.28264 0
M  V30 1011 H 110.047 -4.5133 -3.53517 0
M  V30 1012 H 108.444 -5.15493 -3.07225 0
M  V30 1013 H 109.514 -4.49321 -1.82316 0
M  V30 1014 N 110.857 0.726932 -1.39834 0
M  V30 1015 C 112.268 1.30558 -1.3346 0
M  V30 1016 C 112.619 1.962 -0.00273003 0
M  V30 1017 O 111.744 1.96826 0.899371 0
M  V30 1018 C 112.339 2.37404 -2.41713 0
M  V30 1019 C 110.898 2.90921 -2.38835 0
M  V30 1020 C 110.045 1.64578 -2.2318 0
M  V30 1021 H 112.996 0.523862 -1.49804 0
M  V30 1022 H 113.017 3.17984 -2.08966 0
M  V30 1023 H 112.529 1.89599 -3.38635 0
M  V30 1024 H 110.63 3.42985 -1.45575 0
M  V30 1025 H 110.743 3.43487 -3.33997 0
M  V30 1026 H 109.107 1.89219 -1.70494 0
M  V30 1027 H 109.89 1.18814 -3.22084 0
M  V30 1028 N 112.336 1.25143 0.95797 0
M  V30 1029 C 113.584 1.09476 1.69881 0
M  V30 1030 C 113.905 -0.365502 1.91544 0
M  V30 1031 O 113.175 -1.25985 1.50015 0
M  V30 1032 H 111.755 0.402128 0.629525 0
M  V30 1033 H 114.417 1.57214 1.15194 0
M  V30 1034 H 113.513 1.60046 2.6794 0
M  V30 1035 N 113.814 -1.1601 1.06675 0
M  V30 1036 C 114.777 -2.18724 0.685001 0
M  V30 1037 C 115.777 -1.58496 -0.271246 0
M  V30 1038 O 116.967 -1.74119 -0.0531156 0
M  V30 1039 C 114.099 -3.40899 0.00853648 0
M  V30 1040 H 115.292 -2.54011 1.59431 0
M  V30 1041 H 112.845 -1.30352 0.862441 0
M  V30 1042 H 113.58 -3.11173 -0.913337 0
M  V30 1043 H 113.365 -3.8587 0.696204 0
M  V30 1044 H 114.855 -4.16886 -0.24414 0
M  V30 1045 N 115.292 -0.849877 -1.32721 0
M  V30 1046 C 116.703 -0.506188 -1.79707 0
M  V30 1047 C 117.054 0.975627 -1.70223 0
M  V30 1048 O 116.179 1.76078 -1.25799 0
M  V30 1049 C 116.774 -0.912044 -3.26293 0
M  V30 1050 C 115.333 -0.620326 -3.71253 0
M  V30 1051 C 114.48 -1.11439 -2.53922 0
M  V30 1052 H 117.431 -1.03754 -1.20087 0
M  V30 1053 H 117.452 -0.226493 -3.79825 0
M  V30 1054 H 116.964 -1.99057 -3.33164 0
M  V30 1055 H 115.065 0.447674 -3.69901 0
M  V30 1056 H 115.178 -1.18327 -4.64258 0
M  V30 1057 H 113.542 -0.534834 -2.49021 0
M  V30 1058 H 114.325 -2.19992 -2.6355 0
M  V30 1059 N 116.77 1.45427 -0.607355 0
M  V30 1060 C 118.018 2.01841 -0.102253 0
M  V30 1061 C 118.339 1.47832 1.27164 0
M  V30 1062 O 117.609 0.672497 1.83995 0
M  V30 1063 H 116.189 0.746188 -0.0348101 0
M  V30 1064 H 118.851 1.78229 -0.7887 0
M  V30 1065 H 117.947 3.12057 -0.0518585 0
M  V30 1066 N 118.248 0.346503 1.53744 0
M  V30 1067 C 119.497 -0.250122 2.00143 0
M  V30 1068 C 119.81 -1.51418 1.23822 0
M  V30 1069 O 121.016 -2.18823 1.60713 0
M  V30 1070 C 119.472 -0.496252 3.56462 0
M  V30 1071 C 119.08 0.752077 4.41642 0
M  V30 1072 C 120.824 -1.05157 4.11269 0
M  V30 1073 C 118.731 0.476583 5.89477 0
M  V30 1074 H 117.661 -0.0972409 0.747703 0
M  V30 1075 H 120.312 0.46229 1.77581 0
M  V30 1076 H 118.694 -1.26944 3.75102 0
M  V30 1077 H 119.868 1.5266 4.34778 0
M  V30 1078 H 118.183 1.22925 3.97842 0
M  V30 1079 H 120.78 -1.27269 5.19333 0
M  V30 1080 H 121.123 -2.00799 3.64672 0
M  V30 1081 H 121.656 -0.339019 3.96353 0
M  V30 1082 H 118.395 1.4028 6.40314 0
M  V30 1083 H 117.915 -0.259794 5.99237 0
M  V30 1084 H 119.594 0.0949315 6.4693 0
M  V30 1085 N 119.726 -1.57421 0.075193 0
M  V30 1086 C 121.137 -1.81021 -0.456964 0
M  V30 1087 C 121.488 -0.98936 -1.69429 0
M  V30 1088 O 120.613 -0.212865 -2.15351 0
M  V30 1089 C 121.208 -3.28329 -0.83581 0
M  V30 1090 C 119.767 -3.52764 -1.31281 0
M  V30 1091 C 118.914 -2.75676 -0.299648 0
M  V30 1092 H 121.865 -1.55822 0.300856 0
M  V30 1093 H 121.886 -3.40564 -1.69696 0
M  V30 1094 H 121.398 -3.88046 0.0649238 0
M  V30 1095 H 119.499 -2.98355 -2.23193 0
M  V30 1096 H 119.612 -4.61451 -1.28839 0
M  V30 1097 H 117.976 -2.42538 -0.777641 0
M  V30 1098 H 118.759 -3.38132 0.593417 0
M  V30 1099 N 121.204 0.198386 -1.56346 0
M  V30 1100 C 122.452 0.91747 -1.80075 0
M  V30 1101 C 122.773 1.83929 -0.647692 0
M  V30 1102 O 122.043 1.93029 0.334166 0
M  V30 1103 H 120.623 0.341774 -0.664228 0
M  V30 1104 H 123.285 0.204684 -1.93822 0
M  V30 1105 H 122.381 1.51055 -2.7311 0
M  V30 1106 N 122.682 1.50554 0.465978 0
M  V30 1107 C 123.592 1.72585 1.58907 0
M  V30 1108 C 124.608 0.60911 1.6299 0
M  V30 1109 O 125.784 0.88804 1.80765 0
M  V30 1110 C 122.849 1.81995 2.95091 0
M  V30 1111 C 121.91 3.05751 3.01355 0
M  V30 1112 C 121.143 3.14702 4.31043 0
M  V30 1113 O 121.366 2.30313 5.21835 0
M  V30 1114 O 120.3 4.07468 4.43005 0
M  V30 1115 H 124.126 2.67799 1.43239 0
M  V30 1116 H 121.711 1.34711 0.646013 0
M  V30 1117 H 123.593 1.90335 3.75966 0
M  V30 1118 H 122.268 0.899659 3.10947 0
M  V30 1119 H 121.175 3.02908 2.19539 0
M  V30 1120 H 122.508 3.97375 2.90437 0
M  V30 1121 N 124.16 -0.719506 1.40217 0
M  V30 1122 C 125.4 -1.49181 1.39729 0
M  V30 1123 C 125.764 -1.92 -0.00250614 0
M  V30 1124 O 126.965 -2.68473 -0.132479 0
M  V30 1125 C 125.236 -2.68767 2.35582 0
M  V30 1126 S 126.795 -3.58224 2.53418 0
M  V30 1127 H 123.613 -0.510091 0.495307 0
M  V30 1128 H 126.215 -0.841724 1.76452 0
M  V30 1129 H 124.919 -2.35475 3.36124 0
M  V30 1130 H 124.45 -3.38691 2.0013 0
M  V30 1131 H 126.465 -4.63033 1.78367 0
M  V30 1132 N 125.638 -1.25649 -0.95132 0
M  V30 1133 C 126.886 -1.10375 -1.69298 0
M  V30 1134 C 127.207 0.355339 -1.91735 0
M  V30 1135 O 126.477 1.25188 -1.50681 0
M  V30 1136 H 125.057 -0.405461 -0.627384 0
M  V30 1137 H 127.719 -1.57823 -1.14358 0
M  V30 1138 H 126.815 -1.61465 -2.67087 0
M  V30 1139 N 127.117 1.15442 -1.07289 0
M  V30 1140 C 128.027 2.23786 -0.704057 0
M  V30 1141 C 129.043 1.7166 0.284413 0
M  V30 1142 O 130.219 2.00972 0.131205 0
M  V30 1143 C 127.284 3.46535 -0.106792 0
M  V30 1144 C 126.345 4.13654 -1.14842 0
M  V30 1145 C 125.578 5.30544 -0.57956 0
M  V30 1146 O 125.801 5.67187 0.604585 0
M  V30 1147 O 124.735 5.87154 -1.32414 0
M  V30 1148 H 128.561 2.57664 -1.60757 0
M  V30 1149 H 126.146 1.23152 -0.845803 0
M  V30 1150 H 128.028 4.20804 0.224048 0
M  V30 1151 H 126.703 3.14407 0.770049 0
M  V30 1152 H 125.61 3.4131 -1.5316 0
M  V30 1153 H 126.943 4.49861 -1.99714 0
M  V30 1154 N 128.595 0.856903 1.32268 0
M  V30 1155 C 129.542 0.301172 2.28827 0
M  V30 1156 C 130.512 -0.593104 1.5515 0
M  V30 1157 O 131.697 -0.527537 1.83362 0
M  V30 1158 C 128.837 -0.502523 3.41422 0
M  V30 1159 C 127.95 0.417797 4.29975 0
M  V30 1160 C 127.085 -0.398749 5.29701 0
M  V30 1161 C 126.124 0.518827 6.09897 0
M  V30 1162 N 125.261 -0.260674 7.01616 0
M  V30 1163 H 130.101 1.12983 2.75751 0
M  V30 1164 H 127.638 0.568582 1.35667 0
M  V30 1165 H 129.596 -0.984141 4.05426 0
M  V30 1166 H 128.226 -1.29599 2.95642 0
M  V30 1167 H 127.278 1.01781 3.66531 0
M  V30 1168 H 128.59 1.12191 4.86019 0
M  V30 1169 H 127.744 -0.943435 5.9932 0
M  V30 1170 H 126.483 -1.13622 4.7428 0
M  V30 1171 H 125.488 1.07538 5.39181 0
M  V30 1172 H 126.713 1.25495 6.67404 0
M  V30 1173 H 124.659 -0.981198 6.4862 0
M  V30 1174 H 124.576 0.384364 7.55022 0
M  V30 1175 H 125.844 -0.787014 7.75517 0
M  V30 1176 N 130.073 -1.45103 0.615059 0
M  V30 1177 C 131.321 -2.01784 0.112955 0
M  V30 1178 C 131.642 -1.48504 -1.26378 0
M  V30 1179 O 130.912 -0.682245 -1.83636 0
M  V30 1180 H 129.492 -0.745993 0.0387668 0
M  V30 1181 H 132.154 -1.77808 0.798141 0
M  V30 1182 H 131.25 -3.12025 0.0684069 0
M  V30 1183 N 131.551 -0.354651 -1.53558 0
M  V30 1184 C 132.461 0.50515 -2.29097 0
M  V30 1185 C 133.477 1.10223 -1.34636 0
M  V30 1186 O 134.653 1.11553 -1.67684 0
M  V30 1187 C 131.718 1.63479 -3.05738 0
M  V30 1188 C 130.779 1.06636 -4.15845 0
M  V30 1189 C 130.012 2.14217 -4.88822 0
M  V30 1190 O 130.235 3.35137 -4.61562 0
M  V30 1191 O 129.169 1.77887 -5.75013 0
M  V30 1192 H 132.995 -0.109237 -3.03503 0
M  V30 1193 H 130.58 -0.119357 -1.48922 0
M  V30 1194 H 132.462 2.2918 -3.5363 0
M  V30 1195 H 131.137 2.23478 -2.34178 0
M  V30 1196 H 130.044 0.373565 -3.7223 0
M  V30 1197 H 131.377 0.511081 -4.89539 0
M  V30 1198 N 133.029 1.57378 -0.0835403 0
M  V30 1199 C 134.44 1.81261 0.447358 0
M  V30 1200 C 134.791 0.998331 1.68902 0
M  V30 1201 O 133.916 0.224282 2.15235 0
M  V30 1202 C 134.511 3.28767 0.818386 0
M  V30 1203 C 133.07 3.53455 1.29409 0
M  V30 1204 C 132.217 2.75831 0.285024 0
M  V30 1205 H 135.168 1.5566 -0.309115 0
M  V30 1206 H 135.189 3.41459 1.67887 0
M  V30 1207 H 134.701 3.88006 -0.0855019 0
M  V30 1208 H 132.802 2.99534 2.21608 0
M  V30 1209 H 132.915 4.62128 1.2639 0
M  V30 1210 H 131.279 2.42947 0.764767 0
M  V30 1211 H 132.062 3.37813 -0.611341 0
M  V30 1212 N 134.507 -0.190092 1.56449 0
M  V30 1213 C 135.755 -0.907908 1.80559 0
M  V30 1214 C 136.076 -1.83583 0.657438 0
M  V30 1215 O 135.346 -1.93203 -0.323924 0
M  V30 1216 H 133.926 -0.338247 0.666032 0
M  V30 1217 H 136.588 -0.194403 1.93928 0
M  V30 1218 H 135.684 -1.49604 2.73907 0
M  V30 1219 N 135.985 -1.50799 -0.457987 0
M  V30 1220 C 136.895 -1.73426 -1.57989 0
M  V30 1221 C 137.911 -0.617745 -1.62665 0
M  V30 1222 O 139.087 -0.897614 -1.80291 0
M  V30 1223 C 136.152 -1.83557 -2.94122 0
M  V30 1224 C 135.213 -3.07345 -2.99729 0
M  V30 1225 C 134.446 -3.16983 -4.29368 0
M  V30 1226 O 134.669 -2.33077 -5.20607 0
M  V30 1227 O 133.603 -4.09812 -4.40837 0
M  V30 1228 H 137.429 -2.68555 -1.41817 0
M  V30 1229 H 135.014 -1.35052 -0.638859 0
M  V30 1230 H 136.896 -1.92326 -3.74952 0
M  V30 1231 H 135.571 -0.916137 -3.10465 0
M  V30 1232 H 134.478 -3.04068 -2.1793 0
M  V30 1233 H 135.811 -3.9891 -2.88326 0
M  V30 1234 N 137.463 0.71206 -1.40597 0
M  V30 1235 C 138.879 1.02058 -1.22704 0
M  V30 1236 C 139.079 2.01228 -0.104729 0
M  V30 1237 O 138.135 2.4674 0.53624 0
M  V30 1238 C 139.448 1.56094 -2.57012 0
M  V30 1239 C 140.996 1.6806 -2.64054 0
M  V30 1240 C 141.471 2.25501 -3.9864 0
M  V30 1241 N 142.962 2.32882 -4.004 0
M  V30 1242 C 143.697 2.78317 -5.01325 0
M  V30 1243 N 143.193 3.23478 -6.12645 0
M  V30 1244 N 144.986 2.77733 -4.88693 0
M  V30 1245 H 137.137 0.0547896 -2.12329 0
M  V30 1246 H 139.4 0.0869027 -0.944008 0
M  V30 1247 H 139.106 0.906865 -3.39807 0
M  V30 1248 H 138.98 2.54564 -2.78347 0
M  V30 1249 H 141.367 2.32583 -1.81629 0
M  V30 1250 H 141.448 0.681802 -2.46546 0
M  V30 1251 H 141.092 1.61598 -4.81506 0
M  V30 1252 H 141.022 3.26102 -4.13479 0
M  V30 1253 H 143.513 2.00991 -3.20017 0
M  V30 1254 H 143.826 3.56725 -6.85542 0
M  V30 1255 H 142.171 3.21429 -6.16205 0
M  V30 1256 H 145.362 2.4179 -4.00818 0
M  V30 1257 H 145.535 3.12826 -5.67489 0
M  V30 1258 N 138.941 1.26152 0.944643 0
M  V30 1259 C 140.189 1.11271 1.6871 0
M  V30 1260 C 140.51 -0.345166 1.91921 0
M  V30 1261 O 139.78 -1.24387 1.51343 0
M  V30 1262 H 138.36 0.408783 0.625224 0
M  V30 1263 H 141.022 1.58427 1.1352 0
M  V30 1264 H 140.118 1.62879 2.66227 0
M  V30 1265 N 140.419 -1.14872 1.07899 0
M  V30 1266 C 141.83 -1.67367 0.827363 0
M  V30 1267 C 142.181 -1.85236 -0.646693 0
M  V30 1268 O 141.306 -1.55974 -1.50004 0
M  V30 1269 C 141.901 -3.04016 1.49532 0
M  V30 1270 C 140.46 -3.53566 1.29106 0
M  V30 1271 C 139.607 -2.29161 1.56143 0
M  V30 1272 H 142.558 -0.990083 1.24028 0
M  V30 1273 H 142.579 -3.69219 0.919643 0
M  V30 1274 H 142.091 -2.90978 2.56814 0
M  V30 1275 H 140.192 -3.71835 0.238713 0
M  V30 1276 H 140.305 -4.34661 2.01511 0
M  V30 1277 H 138.669 -2.34978 0.982717 0
M  V30 1278 H 139.452 -2.18705 2.64619 0
M  V30 1279 N 141.898 -0.863906 -1.31812 0
M  V30 1280 C 143.309 -0.52522 -1.7916 0
M  V30 1281 C 143.66 0.957518 -1.71248 0
M  V30 1282 O 142.785 1.74734 -1.27659 0
M  V30 1283 C 143.38 -0.9466 -3.25307 0
M  V30 1284 C 141.939 -0.659668 -3.70574 0
M  V30 1285 C 141.086 -1.14126 -2.52726 0
M  V30 1286 H 144.037 -1.05022 -1.1898 0
M  V30 1287 H 144.058 -0.266766 -3.79564 0
M  V30 1288 H 143.57 -2.02579 -3.31034 0
M  V30 1289 H 141.671 0.408416 -3.70355 0
M  V30 1290 H 141.784 -1.23245 -4.62977 0
M  V30 1291 H 140.148 -0.561216 -2.4844 0
M  V30 1292 H 140.931 -2.22775 -2.61201 0
M  V30 1293 N 143.376 1.44774 -0.622745 0
M  V30 1294 C 144.624 2.01721 -0.123655 0
M  V30 1295 C 144.945 1.49172 1.25589 0
M  V30 1296 O 144.215 0.691974 1.83272 0
M  V30 1297 H 142.795 0.745777 -0.0427225 0
M  V30 1298 H 145.457 1.77382 -0.807559 0
M  V30 1299 H 144.553 3.11984 -0.0849534 0
M  V30 1300 N 144.854 0.36279 1.53368 0
M  V30 1301 C 145.784 -0.476976 2.28576 0
M  V30 1302 C 146.765 -1.08631 1.30894 0
M  V30 1303 O 147.95 -1.10409 1.59761 0
M  V30 1304 C 145.08 -1.61828 3.07293 0
M  V30 1305 C 144.034 -1.13633 4.1264 0
M  V30 1306 C 143.36 -2.36766 4.79423 0
M  V30 1307 C 144.66 -0.223061 5.21823 0
M  V30 1308 H 146.354 0.150474 2.99022 0
M  V30 1309 H 143.9 0.0738103 1.43811 0
M  V30 1310 H 145.853 -2.21237 3.58653 0
M  V30 1311 H 144.577 -2.27292 2.34533 0
M  V30 1312 H 143.236 -0.564945 3.62221 0
M  V30 1313 H 142.884 -3.0068 4.03238 0
M  V30 1314 H 142.584 -2.05192 5.50609 0
M  V30 1315 H 144.108 -2.96865 5.33576 0
M  V30 1316 H 145.522 -0.724545 5.68703 0
M  V30 1317 H 143.919 0.001678 6.001 0
M  V30 1318 H 144.989 0.735553 4.79289 0
M  V30 1319 N 146.332 -1.57332 0.0918853 0
M  V30 1320 C 147.743 -1.81496 -0.437739 0
M  V30 1321 C 148.094 -1.00727 -1.6837 0
M  V30 1322 O 147.219 -0.235694 -2.15113 0
M  V30 1323 C 147.814 -3.29197 -0.800939 0
M  V30 1324 C 146.373 -3.54136 -1.27532 0
M  V30 1325 C 145.52 -2.75979 -0.270392 0
M  V30 1326 H 148.471 -1.55494 0.317366 0
M  V30 1327 H 148.492 -3.42344 -1.66074 0
M  V30 1328 H 148.004 -3.87955 0.106078 0
M  V30 1329 H 146.105 -3.00705 -2.20016 0
M  V30 1330 H 146.218 -4.62792 -1.23938 0
M  V30 1331 H 144.582 -2.43349 -0.751872 0
M  V30 1332 H 145.365 -3.37484 0.629248 0
M  V30 1333 N 147.81 0.181792 -1.56548 0
M  V30 1334 C 148.773 1.20894 -1.94724 0
M  V30 1335 C 149.773 1.37738 -0.829747 0
M  V30 1336 O 150.963 1.35323 -1.09697 0
M  V30 1337 C 148.095 2.57593 -2.23291 0
M  V30 1338 H 149.288 0.882275 -2.86629 0
M  V30 1339 H 146.841 0.423838 -1.50444 0
M  V30 1340 H 147.576 2.95291 -1.34067 0
M  V30 1341 H 147.361 2.46735 -3.04736 0
M  V30 1342 H 148.851 3.31637 -2.53785 0
M  V30 1343 N 149.288 1.51039 0.449983 0
M  V30 1344 C 150.238 1.67824 1.54335 0
M  V30 1345 C 151.222 0.5324 1.51836 0
M  V30 1346 O 152.414 0.787762 1.58503 0
M  V30 1347 C 149.543 1.7951 2.92628 0
M  V30 1348 C 148.629 2.99838 2.9993 0
M  V30 1349 N 149.02 4.23207 2.77001 0
M  V30 1350 C 147.318 2.98832 3.31082 0
M  V30 1351 C 148.019 5.04361 2.89818 0
M  V30 1352 N 146.995 4.38746 3.2094 0
M  V30 1353 H 150.797 2.60884 1.35339 0
M  V30 1354 H 148.311 1.48513 0.657085 0
M  V30 1355 H 150.308 1.89642 3.7127 0
M  V30 1356 H 148.968 0.876227 3.12654 0
M  V30 1357 H 149.979 4.5236 2.52172 0
M  V30 1358 H 146.656 2.16527 3.56963 0
M  V30 1359 H 148.046 6.12528 2.76151 0
M  V30 1360 N 150.766 -0.704594 1.40972 0
M  V30 1361 C 151.696 -1.83124 1.44872 0
M  V30 1362 C 152.677 -1.67281 0.30838 0
M  V30 1363 O 153.862 -1.87149 0.518556 0
M  V30 1364 C 150.992 -3.21181 1.32136 0
M  V30 1365 C 149.946 -3.51714 2.43888 0
M  V30 1366 C 149.272 -4.89032 2.16222 0
M  V30 1367 C 150.572 -3.516 3.86232 0
M  V30 1368 H 152.266 -1.80117 2.39161 0
M  V30 1369 H 149.812 -0.865145 1.15114 0
M  V30 1370 H 151.765 -3.99702 1.33479 0
M  V30 1371 H 150.489 -3.24791 0.343279 0
M  V30 1372 H 149.148 -2.75539 2.41813 0
M  V30 1373 H 148.796 -4.89256 1.16778 0
M  V30 1374 H 148.496 -5.10426 2.911 0
M  V30 1375 H 150.02 -5.69873 2.19265 0
M  V30 1376 H 151.434 -4.2014 3.9007 0
M  V30 1377 H 149.831 -3.84523 4.60719 0
M  V30 1378 H 150.901 -2.50757 4.15029 0
M  V30 1379 N 152.244 -1.26651 -0.937939 0
M  V30 1380 C 153.521 -1.0313 -1.66204 0
M  V30 1381 C 153.901 0.437256 -2.06522 0
M  V30 1382 O 153.249 1.41831 -1.79154 0
M  V30 1383 C 153.459 -1.98314 -2.87181 0
M  V30 1384 C 154.807 -2.27107 -3.58758 0
M  V30 1385 O 155.831 -1.96205 -2.97291 0
M  V30 1386 O 154.69 -2.79736 -4.69479 0
M  V30 1387 H 151.784 -0.392384 -0.727986 0
M  V30 1388 H 154.33 -1.37874 -0.989382 0
M  V30 1389 H 153.102 -2.97399 -2.54302 0
M  V30 1390 H 152.725 -1.64068 -3.6217 0
M  V30 1391 N 153.722 1.14298 -1.08507 0
M  V30 1392 C 154.632 2.23027 -0.727753 0
M  V30 1393 C 155.648 1.71952 0.26619 0
M  V30 1394 O 156.824 2.011 0.109882 0
M  V30 1395 C 153.889 3.46403 -0.143541 0
M  V30 1396 C 152.95 4.12413 -1.19223 0
M  V30 1397 C 152.183 5.29899 -0.635798 0
M  V30 1398 O 152.406 5.67796 0.544393 0
M  V30 1399 O 151.34 5.85717 -1.38634 0
M  V30 1400 H 155.166 2.55945 -1.63481 0
M  V30 1401 H 152.751 1.22248 -0.858817 0
M  V30 1402 H 154.633 4.21018 0.179404 0
M  V30 1403 H 153.308 3.15206 0.736659 0
M  V30 1404 H 152.215 3.39667 -1.56772 0
M  V30 1405 H 153.548 4.47718 -2.04474 0
M  V30 1406 N 155.201 0.870884 1.31352 0
M  V30 1407 C 156.111 0.330783 2.32256 0
M  V30 1408 C 157.127 -0.559767 1.6475 0
M  V30 1409 O 158.303 -0.456263 1.96164 0
M  V30 1410 C 155.368 -0.458137 3.4366 0
M  V30 1411 C 154.429 0.460482 4.26823 0
M  V30 1412 C 153.662 -0.290881 5.32907 0
M  V30 1413 O 153.885 -1.51885 5.49806 0
M  V30 1414 O 152.819 0.351732 6.00871 0
M  V30 1415 H 156.645 1.16718 2.80376 0
M  V30 1416 H 154.23 0.634285 1.35267 0
M  V30 1417 H 156.112 -0.905343 4.1156 0
M  V30 1418 H 154.787 -1.27106 2.97701 0
M  V30 1419 H 153.694 0.956207 3.61673 0
M  V30 1420 H 155.027 1.23903 4.7635 0
M  V30 1421 N 156.679 -1.44442 0.630414 0
M  V30 1422 C 157.609 -2.33418 -0.0618083 0
M  V30 1423 C 158.59 -1.48165 -0.835541 0
M  V30 1424 O 159.775 -1.76886 -0.801564 0
M  V30 1425 C 156.905 -3.31222 -1.04449 0
M  V30 1426 C 155.859 -4.26288 -0.382436 0
M  V30 1427 C 155.185 -5.13954 -1.47497 0
M  V30 1428 C 156.485 -5.1744 0.710865 0
M  V30 1429 H 158.179 -2.91548 0.681184 0
M  V30 1430 H 155.725 -1.40191 0.329026 0
M  V30 1431 H 157.678 -3.92351 -1.53748 0
M  V30 1432 H 156.402 -2.71299 -1.81836 0
M  V30 1433 H 155.061 -3.6649 0.0899054 0
M  V30 1434 H 154.709 -4.50385 -2.2397 0
M  V30 1435 H 154.409 -5.7837 -1.03737 0
M  V30 1436 H 155.933 -5.77955 -1.96979 0
M  V30 1437 H 157.347 -5.72509 0.300996 0
M  V30 1438 H 155.744 -5.90455 1.07156 0
M  V30 1439 H 156.814 -4.58496 1.57829 0
M  V30 1440 N 158.157 -0.370918 -1.53173 0
M  V30 1441 C 159.089 0.507823 -2.23503 0
M  V30 1442 C 160.102 1.04182 -1.251 0
M  V30 1443 O 161.291 0.947286 -1.5129 0
M  V30 1444 C 158.391 1.71447 -2.92334 0
M  V30 1445 C 157.564 1.31105 -4.17289 0
M  V30 1446 C 156.623 2.38035 -4.69282 0
M  V30 1447 O 155.649 2.00204 -5.32829 0
M  V30 1448 N 156.851 3.69697 -4.47554 0
M  V30 1449 H 159.616 -0.0946382 -2.99551 0
M  V30 1450 H 157.177 -0.196358 -1.60705 0
M  V30 1451 H 159.169 2.42469 -3.24023 0
M  V30 1452 H 157.739 2.22368 -2.19707 0
M  V30 1453 H 156.959 0.430462 -3.91843 0
M  V30 1454 H 158.247 1.0179 -4.98514 0
M  V30 1455 H 157.645 4.03205 -3.9679 0
M  V30 1456 H 156.202 4.36807 -4.8378 0
M  V30 1457 N 159.635 1.57281 -0.100228 0
M  V30 1458 C 160.598 2.13158 0.842398 0
M  V30 1459 C 161.598 1.06202 1.20738 0
M  V30 1460 O 162.788 1.32066 1.13597 0
M  V30 1461 C 159.92 2.65639 2.13655 0
M  V30 1462 H 161.113 2.97766 0.357114 0
M  V30 1463 H 158.666 1.5559 0.148823 0
M  V30 1464 H 159.401 1.84566 2.66657 0
M  V30 1465 H 159.186 3.43844 1.88451 0
M  V30 1466 H 160.676 3.08846 2.81077 0
M  V30 1467 N 161.113 -0.173488 1.56642 0
M  V30 1468 C 162.341 -0.906095 1.86004 0
M  V30 1469 C 162.756 -1.75921 0.685355 0
M  V30 1470 O 162.113 -1.79198 -0.345578 0
M  V30 1471 C 162.164 -1.78462 3.14378 0
M  V30 1472 O 161.885 -0.965914 4.27319 0
M  V30 1473 C 163.386 -2.62707 3.57071 0
M  V30 1474 H 160.606 -0.263341 0.617165 0
M  V30 1475 H 163.15 -0.174236 2.03756 0
M  V30 1476 H 161.305 -2.46984 2.98459 0
M  V30 1477 H 161.719 -1.56655 5.00559 0
M  V30 1478 H 163.193 -3.19969 4.49804 0
M  V30 1479 H 163.67 -3.37472 2.81086 0
M  V30 1480 H 164.276 -1.99521 3.75595 0
M  V30 1481 N 162.591 -1.51276 -0.441967 0
M  V30 1482 C 163.521 -1.752 -1.54361 0
M  V30 1483 C 164.502 -0.601682 -1.59103 0
M  V30 1484 O 165.687 -0.843913 -1.74905 0
M  V30 1485 C 162.817 -1.87282 -2.92477 0
M  V30 1486 C 161.771 -3.02687 -3.02596 0
M  V30 1487 C 161.097 -2.99947 -4.42647 0
M  V30 1488 C 162.397 -4.4273 -2.77106 0
M  V30 1489 H 164.091 -2.67442 -1.34592 0
M  V30 1490 H 161.637 -1.28694 -0.646048 0
M  V30 1491 H 163.59 -2.02602 -3.695 0
M  V30 1492 H 162.314 -0.916844 -3.13467 0
M  V30 1493 H 160.973 -2.87065 -2.28012 0
M  V30 1494 H 160.621 -2.02136 -4.60597 0
M  V30 1495 H 160.321 -3.77439 -4.50348 0
M  V30 1496 H 161.845 -3.17354 -5.2165 0
M  V30 1497 H 163.259 -4.58727 -3.43864 0
M  V30 1498 H 161.656 -5.21893 -2.96222 0
M  V30 1499 H 162.726 -4.53087 -1.72744 0
M  V30 1500 N 164.069 0.697108 -1.41344 0
M  V30 1501 C 165.019 1.80313 -1.39539 0
M  V30 1502 C 166.003 1.58618 -0.270001 0
M  V30 1503 O 167.195 1.69477 -0.510551 0
M  V30 1504 C 164.324 3.18606 -1.27848 0
M  V30 1505 C 163.41 3.46001 -2.45244 0
M  V30 1506 N 163.801 3.44103 -3.70711 0
M  V30 1507 C 162.099 3.76542 -2.39023 0
M  V30 1508 C 162.8 3.7036 -4.48563 0
M  V30 1509 N 161.776 3.90027 -3.78655 0
M  V30 1510 H 165.578 1.77207 -2.34468 0
M  V30 1511 H 163.092 0.897031 -1.35378 0
M  V30 1512 H 165.089 3.97833 -1.24637 0
M  V30 1513 H 163.749 3.22925 -0.339032 0
M  V30 1514 H 164.76 3.2452 -4.03618 0
M  V30 1515 H 161.437 3.88241 -1.53542 0
M  V30 1516 H 162.827 3.75042 -5.57488 0
M  V30 1517 N 165.547 1.27147 0.931209 0
M  V30 1518 C 166.824 1.0401 1.65654 0
M  V30 1519 C 167.204 -0.426297 2.06751 0
M  V30 1520 O 166.552 -1.40879 1.79904 0
M  V30 1521 C 166.762 1.99834 2.86125 0
M  V30 1522 C 168.11 2.29007 3.57549 0
M  V30 1523 O 169.134 1.97779 2.96246 0
M  V30 1524 O 167.993 2.82222 4.67989 0
M  V30 1525 H 165.087 0.396239 0.725895 0
M  V30 1526 H 167.633 1.38397 0.982056 0
M  V30 1527 H 166.405 2.98744 2.52721 0
M  V30 1528 H 166.028 1.65987 3.61295 0
M  V30 1529 N 167.025 -1.13721 1.09112 0
M  V30 1530 C 168.272 -1.84924 0.825192 0
M  V30 1531 C 168.6 -1.83347 -0.649151 0
M  V30 1532 O 167.855 -1.26449 -1.49362 0
M  V30 1533 C 168.154 -3.32861 1.30146 0
M  V30 1534 C 167.82 -3.54621 2.78486 0
M  V30 1535 C 166.482 -3.60268 3.18999 0
M  V30 1536 C 168.834 -3.62855 3.74146 0
M  V30 1537 C 166.162 -3.71679 4.53951 0
M  V30 1538 C 168.514 -3.75793 5.08883 0
M  V30 1539 C 167.178 -3.79692 5.4899 0
M  V30 1540 H 166.448 -0.676684 0.301959 0
M  V30 1541 H 169.095 -1.3428 1.36533 0
M  V30 1542 H 167.4 -3.85835 0.681064 0
M  V30 1543 H 169.097 -3.86395 1.07236 0
M  V30 1544 H 165.687 -3.50879 2.46134 0
M  V30 1545 H 169.871 -3.57775 3.43963 0
M  V30 1546 H 165.127 -3.72963 4.84467 0
M  V30 1547 H 169.301 -3.81107 5.82864 0
M  V30 1548 H 166.928 -3.88287 6.53558 0
M  V30 1549 N 168.503 -0.877838 -1.30888 0
M  V30 1550 C 169.919 -0.570844 -1.49042 0
M  V30 1551 C 170.119 0.893159 -1.80624 0
M  V30 1552 O 169.175 1.67485 -1.88958 0
M  V30 1553 C 170.488 -1.47784 -2.61878 0
M  V30 1554 C 172.036 -1.48071 -2.75761 0
M  V30 1555 C 172.511 -2.37347 -3.91702 0
M  V30 1556 N 174.002 -2.35271 -3.99001 0
M  V30 1557 C 174.737 -3.01063 -4.88004 0
M  V30 1558 N 174.233 -3.76055 -5.81854 0
M  V30 1559 N 176.026 -2.90332 -4.81315 0
M  V30 1560 H 168.177 -1.82502 -1.0866 0
M  V30 1561 H 170.44 -0.780797 -0.537644 0
M  V30 1562 H 170.146 -2.51993 -2.45341 0
M  V30 1563 H 170.02 -1.18215 -3.58197 0
M  V30 1564 H 172.407 -0.446166 -2.91708 0
M  V30 1565 H 172.488 -1.81668 -1.80085 0
M  V30 1566 H 172.132 -3.40883 -3.76512 0
M  V30 1567 H 172.062 -2.01071 -4.86701 0
M  V30 1568 H 174.553 -1.80768 -3.3186 0
M  V30 1569 H 174.866 -4.23366 -6.46514 0
M  V30 1570 H 173.211 -3.80163 -5.81808 0
M  V30 1571 H 176.402 -2.31278 -4.06974 0
M  V30 1572 H 176.575 -3.41885 -5.50471 0
M  V30 1573 N 169.982 1.44106 -0.638065 0
M  V30 1574 C 170.932 2.27843 0.0847285 0
M  V30 1575 C 171.916 1.39055 0.809471 0
M  V30 1576 O 173.108 1.62808 0.694435 0
M  V30 1577 C 170.237 3.26497 1.06089 0
M  V30 1578 C 169.323 4.22772 0.33541 0
M  V30 1579 N 169.714 5.01737 -0.639787 0
M  V30 1580 C 168.012 4.42227 0.578921 0
M  V30 1581 C 168.713 5.71792 -1.06904 0
M  V30 1582 N 167.689 5.42079 -0.406395 0
M  V30 1583 H 171.491 2.86305 -0.663814 0
M  V30 1584 H 169.005 1.55627 -0.464122 0
M  V30 1585 H 171.002 3.8525 1.59337 0
M  V30 1586 H 169.662 2.69595 1.80966 0
M  V30 1587 H 170.673 5.07799 -1.01789 0
M  V30 1588 H 167.35 3.96415 1.31003 0
M  V30 1589 H 168.74 6.45205 -1.8751 0
M  V30 1590 N 171.46 0.379036 1.52974 0
M  V30 1591 C 172.392 -0.495963 2.2377 0
M  V30 1592 C 173.405 -1.03517 1.25651 0
M  V30 1593 O 174.594 -0.939249 1.51791 0
M  V30 1594 C 171.694 -1.69894 2.93239 0
M  V30 1595 C 170.867 -1.2889 4.17979 0
M  V30 1596 C 169.926 -2.35543 4.70538 0
M  V30 1597 O 168.952 -1.97375 5.33883 0
M  V30 1598 N 170.154 -3.67318 4.49508 0
M  V30 1599 H 172.919 0.110523 2.99496 0
M  V30 1600 H 170.48 0.204878 1.60598 0
M  V30 1601 H 172.472 -2.40747 3.25304 0
M  V30 1602 H 171.042 -2.212 2.20883 0
M  V30 1603 H 170.262 -0.409676 3.92065 0
M  V30 1604 H 171.55 -0.991443 4.99047 0
M  V30 1605 H 170.948 -4.01095 3.98923 0
M  V30 1606 H 169.505 -4.34235 4.8609 0
M  V30 1607 N 172.938 -1.57226 0.108567 0
M  V30 1608 C 174.187 -1.94008 -0.551703 0
M  V30 1609 C 174.5 -0.993442 -1.68494 0
M  V30 1610 O 175.706 -1.25551 -2.40726 0
M  V30 1611 C 174.162 -3.44763 -1.03279 0
M  V30 1612 C 173.77 -4.47943 0.0714193 0
M  V30 1613 C 175.514 -3.90483 -1.66503 0
M  V30 1614 C 173.421 -5.89865 -0.425779 0
M  V30 1615 H 172.351 -0.724206 -0.209863 0
M  V30 1616 H 175.002 -1.82547 0.186741 0
M  V30 1617 H 173.384 -3.51422 -1.82533 0
M  V30 1618 H 174.558 -4.52942 0.847365 0
M  V30 1619 H 172.873 -4.11913 0.609669 0
M  V30 1620 H 175.47 -4.93925 -2.04798 0
M  V30 1621 H 175.813 -3.29877 -2.53942 0
M  V30 1622 H 176.346 -3.86581 -0.938074 0
M  V30 1623 H 173.085 -6.54202 0.412316 0
M  V30 1624 H 172.605 -5.88309 -1.16843 0
M  V30 1625 H 174.284 -6.40844 -0.890397 0
M  V30 1626 N 174.416 0.165178 -1.56732 0
M  V30 1627 C 175.346 1.20651 -1.99914 0
M  V30 1628 C 176.327 1.45827 -0.875705 0
M  V30 1629 O 177.512 1.57057 -1.14223 0
M  V30 1630 C 174.642 2.54401 -2.36427 0
M  V30 1631 C 173.596 2.43782 -3.51787 0
M  V30 1632 C 172.922 3.82078 -3.7406 0
M  V30 1633 C 174.222 1.93732 -4.85041 0
M  V30 1634 H 175.916 0.847534 -2.87154 0
M  V30 1635 H 173.462 0.40625 -1.38151 0
M  V30 1636 H 175.415 3.27458 -2.65234 0
M  V30 1637 H 174.139 2.92098 -1.46103 0
M  V30 1638 H 172.798 1.73178 -3.23117 0
M  V30 1639 H 172.446 4.17179 -2.81017 0
M  V30 1640 H 172.146 3.7584 -4.51684 0
M  V30 1641 H 173.67 4.56712 -4.05274 0
M  V30 1642 H 175.084 2.56569 -5.12684 0
M  V30 1643 H 173.481 1.98428 -5.66345 0
M  V30 1644 H 174.551 0.891962 -4.76626 0
M  V30 1645 N 175.894 1.51508 0.433938 0
M  V30 1646 C 176.826 1.69266 1.54537 0
M  V30 1647 C 177.839 0.573276 1.52373 0
M  V30 1648 O 179.028 0.847698 1.57087 0
M  V30 1649 C 176.128 1.69524 2.93453 0
M  V30 1650 C 175.301 2.98101 3.20085 0
M  V30 1651 C 174.36 2.90502 4.38742 0
M  V30 1652 O 173.386 3.64442 4.3723 0
M  V30 1653 N 174.588 2.06586 5.42496 0
M  V30 1654 H 177.353 2.65145 1.39708 0
M  V30 1655 H 174.914 1.49437 0.622922 0
M  V30 1656 H 176.906 1.62004 3.70859 0
M  V30 1657 H 175.476 0.812245 3.01863 0
M  V30 1658 H 174.696 3.19464 2.30947 0
M  V30 1659 H 175.984 3.83207 3.34708 0
M  V30 1660 H 175.382 1.45896 5.46563 0
M  V30 1661 H 173.939 2.04943 6.18742 0
M  V30 1662 N 177.372 -0.689602 1.41712 0
M  V30 1663 C 178.6 -1.47827 1.44758 0
M  V30 1664 C 179.015 -1.88721 0.0545703 0
M  V30 1665 O 178.372 -1.57176 -0.927463 0
M  V30 1666 C 178.423 -2.73698 2.3616 0
M  V30 1667 O 178.144 -2.34524 3.7004 0
M  V30 1668 C 179.645 -3.67389 2.48072 0
M  V30 1669 H 176.865 -0.455357 0.49284 0
M  V30 1670 H 179.409 -0.848574 1.86063 0
M  V30 1671 H 177.564 -3.32891 1.98148 0
M  V30 1672 H 177.978 -3.15701 4.18847 0
M  V30 1673 H 179.452 -4.52475 3.16181 0
M  V30 1674 H 179.929 -4.12284 1.51388 0
M  V30 1675 H 180.535 -3.14097 2.86746 0
M  V30 1676 N 178.85 -1.27639 -0.924453 0
M  V30 1677 C 180.266 -1.05113 -1.20097 0
M  V30 1678 C 180.466 0.213262 -2.00368 0
M  V30 1679 O 179.522 0.91787 -2.35226 0
M  V30 1680 C 180.835 -2.29244 -1.94596 0
M  V30 1681 C 182.383 -2.34315 -2.07522 0
M  V30 1682 C 182.858 -3.58183 -2.85427 0
M  V30 1683 N 184.349 -3.5876 -2.92994 0
M  V30 1684 C 185.084 -4.51277 -3.53746 0
M  V30 1685 N 184.58 -5.54102 -4.15863 0
M  V30 1686 N 186.373 -4.38894 -3.51181 0
M  V30 1687 H 178.524 -2.08821 -0.388264 0
M  V30 1688 H 180.787 -0.918568 -0.234385 0
M  V30 1689 H 180.493 -3.21301 -1.43034 0
M  V30 1690 H 180.367 -2.34816 -2.95197 0
M  V30 1691 H 182.754 -1.42762 -2.58269 0
M  V30 1692 H 182.835 -2.32744 -1.06131 0
M  V30 1693 H 182.479 -4.50074 -2.35363 0
M  V30 1694 H 182.409 -3.57006 -3.8711 0
M  V30 1695 H 184.9 -2.84398 -2.4885 0
M  V30 1696 H 185.213 -6.20859 -4.60168 0
M  V30 1697 H 183.558 -5.57941 -4.144 0
M  V30 1698 H 186.749 -3.57772 -3.01856 0
M  V30 1699 H 186.922 -5.11186 -3.98237 0
M  V30 1700 N 180.328 1.1314 -1.09713 0
M  V30 1701 C 181.576 1.84119 -0.833338 0
M  V30 1702 C 181.897 1.84097 0.642904 0
M  V30 1703 O 181.167 1.29881 1.46655 0
M  V30 1704 H 179.747 0.681766 -0.305293 0
M  V30 1705 H 182.409 1.37038 -1.38588 0
M  V30 1706 H 181.505 2.88543 -1.18951 0
M  V30 1707 N 181.806 0.884767 1.30421 0
M  V30 1708 C 182.769 0.356277 2.26414 0
M  V30 1709 C 183.769 -0.501124 1.52792 0
M  V30 1710 O 184.959 -0.30831 1.7145 0
M  V30 1711 C 182.091 -0.492316 3.37326 0
M  V30 1712 H 183.284 1.20389 2.74675 0
M  V30 1713 H 180.837 0.661607 1.41607 0
M  V30 1714 H 181.572 -1.36052 2.94381 0
M  V30 1715 H 181.357 0.121832 3.91911 0
M  V30 1716 H 182.847 -0.853871 4.08777 0
M  V30 1717 N 183.284 -1.43765 0.645699 0
M  V30 1718 C 184.214 -2.33471 -0.0370477 0
M  V30 1719 C 185.195 -1.49042 -0.819779 0
M  V30 1720 O 186.38 -1.77726 -0.782758 0
M  V30 1721 C 183.51 -3.32311 -1.0093 0
M  V30 1722 C 182.464 -4.2667 -0.337201 0
M  V30 1723 C 181.79 -5.1549 -1.42037 0
M  V30 1724 C 183.09 -5.16657 0.765706 0
M  V30 1725 H 184.784 -2.90809 0.712069 0
M  V30 1726 H 182.33 -1.39834 0.343876 0
M  V30 1727 H 184.283 -3.9396 -1.49578 0
M  V30 1728 H 183.007 -2.73213 -1.78948 0
M  V30 1729 H 181.666 -3.66374 0.128771 0
M  V30 1730 H 181.314 -4.52735 -2.1918 0
M  V30 1731 H 181.014 -5.79438 -0.975966 0
M  V30 1732 H 182.538 -5.80012 -1.90838 0
M  V30 1733 H 183.952 -5.72158 0.361702 0
M  V30 1734 H 182.349 -5.89286 1.13413 0
M  V30 1735 H 183.419 -4.56796 1.62683 0
M  V30 1736 N 184.763 -0.387143 -1.52771 0
M  V30 1737 C 185.988 0.198407 -2.06449 0
M  V30 1738 C 186.413 1.39918 -1.25716 0
M  V30 1739 O 185.771 1.79099 -0.281657 0
M  V30 1740 C 185.819 0.548893 -3.56398 0
M  V30 1741 O 184.923 1.64315 -3.78252 0
M  V30 1742 H 184.264 0.0237731 -0.663574 0
M  V30 1743 H 186.794 -0.553989 -1.96957 0
M  V30 1744 H 186.804 0.813812 -3.99801 0
M  V30 1745 H 185.479 -0.329005 -4.14597 0
M  V30 1746 H 184.056 1.37211 -3.46738 0
M  V30 1747 N 186.241 1.57166 -0.116904 0
M  V30 1748 C 187.171 2.18222 0.830759 0
M  V30 1749 C 188.152 1.12167 1.27877 0
M  V30 1750 O 189.337 1.40394 1.34176 0
M  V30 1751 C 186.467 2.77996 2.08172 0
M  V30 1752 C 185.421 3.89614 1.77157 0
M  V30 1753 C 184.747 4.36187 3.09265 0
M  V30 1754 C 186.047 5.1181 1.04151 0
M  V30 1755 H 187.741 2.97664 0.321992 0
M  V30 1756 H 185.287 1.4318 0.153434 0
M  V30 1757 H 187.24 3.19366 2.74924 0
M  V30 1758 H 185.964 1.9584 2.6137 0
M  V30 1759 H 184.623 3.48816 1.12796 0
M  V30 1760 H 184.271 3.50893 3.60393 0
M  V30 1761 H 183.971 5.11455 2.89288 0
M  V30 1762 H 185.495 4.80207 3.77139 0
M  V30 1763 H 186.909 5.50214 1.61052 0
M  V30 1764 H 185.306 5.92648 0.942762 0
M  V30 1765 H 186.376 4.84892 0.0279022 0
M  V30 1766 N 187.719 -0.156864 1.56817 0
M  V30 1767 C 188.651 -1.21883 1.94106 0
M  V30 1768 C 189.664 -1.3971 0.835754 0
M  V30 1769 O 190.853 -1.39457 1.11418 0
M  V30 1770 C 187.953 -2.58527 2.19127 0
M  V30 1771 C 187.126 -2.61809 3.50393 0
M  V30 1772 C 186.185 -3.7992 3.64071 0
M  V30 1773 O 185.211 -3.65249 4.36557 0
M  V30 1774 N 186.413 -4.96973 2.99997 0
M  V30 1775 H 189.178 -0.901974 2.85805 0
M  V30 1776 H 186.739 -0.346513 1.58148 0
M  V30 1777 H 188.731 -3.36034 2.25529 0
M  V30 1778 H 187.301 -2.82545 1.33742 0
M  V30 1779 H 186.521 -1.7029 3.5552 0
M  V30 1780 H 187.809 -2.61024 4.36742 0
M  V30 1781 H 187.207 -5.11794 2.41004 0
M  V30 1782 H 185.764 -5.7229 3.11974 0
M  V30 1783 N 189.197 -1.51736 -0.425897 0
M  V30 1784 C 190.445 -1.64644 -1.17204 0
M  V30 1785 C 190.766 -0.370486 -1.91448 0
M  V30 1786 O 190.036 0.614088 -1.86026 0
M  V30 1787 H 188.616 -0.606819 -0.435638 0
M  V30 1788 H 191.278 -1.88713 -0.487177 0
M  V30 1789 H 190.374 -2.47958 -1.89534 0
M  V30 1790 N 190.675 0.682077 -1.42076 0
M  V30 1791 C 191.9 1.47558 -1.45744 0
M  V30 1792 C 192.325 1.87977 -0.0680981 0
M  V30 1793 O 191.683 1.55522 0.9318 0
M  V30 1794 C 191.731 2.70575 -2.38373 0
M  V30 1795 O 190.835 3.68573 -1.85007 0
M  V30 1796 H 190.176 0.443585 -0.494093 0
M  V30 1797 H 192.706 0.837238 -1.86686 0
M  V30 1798 H 192.716 3.18729 -2.54707 0
M  V30 1799 H 191.391 2.40495 -3.39315 0
M  V30 1800 H 189.968 3.2757 -1.78192 0
M  V30 1801 N 192.153 1.28127 0.917671 0
M  V30 1802 C 193.402 1.14432 1.66097 0
M  V30 1803 C 193.715 -0.307247 1.93172 0
M  V30 1804 O 194.921 -0.565259 2.65551 0
M  V30 1805 C 193.377 2.00015 2.99202 0
M  V30 1806 C 192.985 3.49889 2.79789 0
M  V30 1807 C 194.729 1.94996 3.77064 0
M  V30 1808 C 192.636 4.27636 4.08511 0
M  V30 1809 H 191.566 0.424662 0.62304 0
M  V30 1810 H 194.217 1.52628 1.01868 0
M  V30 1811 H 192.599 1.54672 3.64544 0
M  V30 1812 H 193.773 4.03162 2.23152 0
M  V30 1813 H 192.088 3.56392 2.15345 0
M  V30 1814 H 194.685 2.50354 4.72469 0
M  V30 1815 H 195.028 0.925819 4.05875 0
M  V30 1816 H 195.561 2.38287 3.18534 0
M  V30 1817 H 192.3 5.30615 3.84874 0
M  V30 1818 H 191.82 3.79137 4.64774 0
M  V30 1819 H 193.499 4.37346 4.76799 0
M  V30 1820 N 193.631 -1.12557 1.10312 0
M  V30 1821 C 194.564 -2.1737 0.694674 0
M  V30 1822 C 195.542 -1.59745 -0.303373 0
M  V30 1823 O 196.726 -1.87408 -0.202578 0
M  V30 1824 C 193.853 -3.38691 0.0248052 0
M  V30 1825 C 192.899 -4.14943 0.986121 0
M  V30 1826 S 193.732 -4.73413 2.50281 0
M  V30 1827 C 194.888 -5.9807 1.84562 0
M  V30 1828 H 195.121 -2.5168 1.58255 0
M  V30 1829 H 192.654 -1.23998 0.919992 0
M  V30 1830 H 194.612 -4.08959 -0.355361 0
M  V30 1831 H 193.273 -3.02664 -0.839851 0
M  V30 1832 H 192.466 -5.01854 0.464651 0
M  V30 1833 H 192.068 -3.50377 1.30813 0
M  V30 1834 H 194.36 -6.67232 1.17507 0
M  V30 1835 H 195.303 -6.54841 2.69423 0
M  V30 1836 H 195.711 -5.49073 1.31069 0
M  V30 1837 N 195.109 -0.891671 -1.2995 0
M  V30 1838 C 196.337 -0.52866 -2.00032 0
M  V30 1839 C 196.752 0.884574 -1.66795 0
M  V30 1840 O 196.109 1.5827 -0.908669 0
M  V30 1841 C 196.16 -0.701814 -3.54622 0
M  V30 1842 O 195.881 -2.05942 -3.86678 0
M  V30 1843 C 197.382 -0.342683 -4.41973 0
M  V30 1844 H 194.602 -0.203659 -0.639347 0
M  V30 1845 H 197.146 -1.19881 -1.65677 0
M  V30 1846 H 195.301 -0.0789468 -3.8732 0
M  V30 1847 H 195.715 -2.08291 -4.81368 0
M  V30 1848 H 197.189 -0.514709 -5.49595 0
M  V30 1849 H 197.666 0.71975 -4.33262 0
M  V30 1850 H 198.272 -0.942154 -4.14733 0
M  V30 1851 N 196.587 1.43421 -0.653314 0
M  V30 1852 C 197.833 2.02111 -0.166992 0
M  V30 1853 C 198.166 1.51423 1.21592 0
M  V30 1854 O 197.441 0.707389 1.8118 0
M  V30 1855 C 197.724 3.5966 -0.177948 0
M  V30 1856 C 197.577 4.20579 -1.59478 0
M  V30 1857 C 198.896 4.37413 0.4856 0
M  V30 1858 H 196.015 0.734374 -0.0621557 0
M  V30 1859 H 198.657 1.70717 -0.834016 0
M  V30 1860 H 196.807 3.86537 0.390032 0
M  V30 1861 H 198.479 4.04732 -2.21336 0
M  V30 1862 H 196.722 3.77226 -2.14204 0
M  V30 1863 H 197.393 5.29665 -1.5543 0
M  V30 1864 H 199.869 4.161 0.00234528 0
M  V30 1865 H 198.745 5.47075 0.447207 0
M  V30 1866 H 199.006 4.13672 1.55974 0
M  V30 1867 N 198.065 0.39524 1.52563 0
M  V30 1868 C 199.313 -0.184678 2.01254 0
M  V30 1869 C 199.634 -1.46822 1.28329 0
M  V30 1870 O 198.904 -1.91666 0.405094 0
M  V30 1871 H 197.484 -0.0712355 0.743596 0
M  V30 1872 H 200.146 0.528293 1.87603 0
M  V30 1873 H 199.242 -0.390681 3.09645 0
M  V30 1874 N 199.544 -1.57102 0.125237 0
M  V30 1875 C 200.454 -2.19191 -0.8362 0
M  V30 1876 C 201.47 -1.16985 -1.28805 0
M  V30 1877 O 202.646 -1.49479 -1.34974 0
M  V30 1878 C 199.711 -2.78407 -2.06617 0
M  V30 1879 C 198.772 -3.9567 -1.66565 0
M  V30 1880 C 198.005 -4.52052 -2.83698 0
M  V30 1881 O 198.228 -4.07326 -3.99302 0
M  V30 1882 O 197.162 -5.42645 -2.60423 0
M  V30 1883 H 200.988 -3.01816 -0.337776 0
M  V30 1884 H 198.573 -1.4906 -0.100695 0
M  V30 1885 H 200.455 -3.16129 -2.7864 0
M  V30 1886 H 199.13 -1.9881 -2.55453 0
M  V30 1887 H 198.037 -3.62705 -0.916296 0
M  V30 1888 H 199.37 -4.76722 -1.22464 0
M  V30 1889 N 201.022 0.148545 -1.56898 0
M  V30 1890 C 201.969 1.18345 -1.98149 0
M  V30 1891 C 202.939 1.42772 -0.848848 0
M  V30 1892 O 204.124 1.55132 -1.11079 0
M  V30 1893 C 201.264 2.51231 -2.36594 0
M  V30 1894 C 200.377 2.33991 -3.63142 0
M  V30 1895 C 199.512 3.59902 -3.90697 0
M  V30 1896 C 198.551 3.37692 -5.1052 0
M  V30 1897 N 197.688 4.5573 -5.34092 0
M  V30 1898 H 202.528 0.82467 -2.86362 0
M  V30 1899 H 200.065 0.395756 -1.41676 0
M  V30 1900 H 202.023 3.28713 -2.56912 0
M  V30 1901 H 200.653 2.85059 -1.51463 0
M  V30 1902 H 199.705 1.47572 -3.50609 0
M  V30 1903 H 201.017 2.13539 -4.5078 0
M  V30 1904 H 200.171 4.45813 -4.11505 0
M  V30 1905 H 198.91 3.83357 -3.01477 0
M  V30 1906 H 197.915 2.5017 -4.89587 0
M  V30 1907 H 199.14 3.15637 -6.0129 0
M  V30 1908 H 197.086 4.79361 -4.47827 0
M  V30 1909 H 197.003 4.38274 -6.15996 0
M  V30 1910 H 198.271 5.42858 -5.59397 0
M  V30 1911 N 202.5 1.5196 0.417844 0
M  V30 1912 C 203.746 1.65836 1.16732 0
M  V30 1913 C 204.079 0.382881 1.90388 0
M  V30 1914 O 203.354 -0.618368 1.84408 0
M  V30 1915 C 203.637 2.87466 2.16876 0
M  V30 1916 C 203.49 4.25041 1.47174 0
M  V30 1917 C 204.809 3.04613 3.17646 0
M  V30 1918 H 201.928 0.603515 0.423011 0
M  V30 1919 H 204.57 1.84494 0.454105 0
M  V30 1920 H 202.72 2.71689 2.777 0
M  V30 1921 H 204.392 4.52527 0.895376 0
M  V30 1922 H 202.635 4.26843 0.773806 0
M  V30 1923 H 203.306 5.06176 2.20204 0
M  V30 1924 H 205.782 3.1923 2.66892 0
M  V30 1925 H 204.658 3.91247 3.8499 0
M  V30 1926 H 204.919 2.17541 3.84874 0
M  V30 1927 N 203.978 -0.674533 1.42435 0
M  V30 1928 C 205.225 -1.43459 1.42919 0
M  V30 1929 C 205.553 -1.94446 0.0457312 0
M  V30 1930 O 204.808 -1.7132 -0.94593 0
M  V30 1931 C 205.107 -2.64767 2.40069 0
M  V30 1932 C 204.773 -2.3232 3.86443 0
M  V30 1933 C 203.435 -2.23182 4.26314 0
M  V30 1934 C 205.787 -2.05977 4.78773 0
M  V30 1935 C 203.115 -1.85827 5.56494 0
M  V30 1936 C 205.467 -1.70125 6.09295 0
M  V30 1937 C 204.131 -1.59498 6.48164 0
M  V30 1938 H 203.401 -0.524952 0.522978 0
M  V30 1939 H 206.048 -0.769097 1.75377 0
M  V30 1940 H 204.353 -3.36349 2.00939 0
M  V30 1941 H 206.05 -3.22949 2.37707 0
M  V30 1942 H 202.64 -2.40334 3.54877 0
M  V30 1943 H 206.824 -2.11969 4.48757 0
M  V30 1944 H 202.08 -1.76168 5.8547 0
M  V30 1945 H 206.254 -1.48767 6.80324 0
M  V30 1946 H 203.881 -1.30322 7.48946 0
M  V30 1947 N 205.456 -1.28612 -0.910864 0
M  V30 1948 C 206.681 -1.1891 -1.69927 0
M  V30 1949 C 207.106 0.248372 -1.86453 0
M  V30 1950 O 206.464 1.17961 -1.37676 0
M  V30 1951 C 206.512 -1.89578 -3.06745 0
M  V30 1952 O 205.616 -1.20521 -3.94396 0
M  V30 1953 H 204.957 -0.412632 -0.520222 0
M  V30 1954 H 207.487 -1.69985 -1.1387 0
M  V30 1955 H 207.497 -1.97597 -3.56958 0
M  V30 1956 H 206.172 -2.94136 -2.94035 0
M  V30 1957 H 204.749 -1.20684 -3.52831 0
M  V30 1958 N 206.934 1.1197 -1.10907 0
M  V30 1959 C 208.159 1.87942 -0.877064 0
M  V30 1960 C 208.584 1.79341 0.567314 0
M  V30 1961 O 207.942 1.15184 1.40009 0
M  V30 1962 C 207.99 3.34926 -1.33629 0
M  V30 1963 O 207.094 4.09303 -0.504447 0
M  V30 1964 H 206.435 0.583785 -0.316371 0
M  V30 1965 H 208.965 1.4157 -1.47712 0
M  V30 1966 H 208.975 3.8577 -1.32837 0
M  V30 1967 H 207.65 3.40504 -2.3881 0
M  V30 1968 H 206.227 3.68393 -0.577993 0
M  V30 1969 N 208.412 0.89855 1.29475 0
M  V30 1970 C 209.36 0.365253 2.29714 0
M  V30 1971 C 210.354 -0.534993 1.6073 0
M  V30 1972 O 211.56 -0.417921 1.75081 0
M  V30 1973 H 207.935 0.0994853 0.74539 0
M  V30 1974 H 209.906 1.22406 2.72138 0
M  V30 1975 C 208.655 -0.393159 3.4547 0
M  V30 1976 H 207.978 0.290332 3.98744 0
M  V30 1977 H 209.418 -0.731189 4.17648 0
M  V30 1978 C 207.877 -1.59539 2.9673 0
M  V30 1979 O 208.407 -2.69469 2.97908 0
M  V30 1980 N 206.613 -1.43716 2.52575 0
M  V30 1981 H 206.16 -0.542828 2.51816 0
M  V30 1982 H 206.118 -2.24288 2.20323 0
M  V30 1983 N 209.89 -1.43072 0.660911 0
M  V30 1984 C 211.138 -2.01323 0.177094 0
M  V30 1985 C 211.459 -1.5245 -1.2159 0
M  V30 1986 O 210.729 -0.740322 -1.81373 0
M  V30 1987 H 209.309 -0.744382 0.0624804 0
M  V30 1988 H 211.971 -1.75179 0.854305 0
M  V30 1989 H 211.067 -3.11649 0.167641 0
M  V30 1990 N 211.368 -0.403325 -1.52352 0
M  V30 1991 C 212.3 0.4603 -2.2453 0
M  V30 1992 C 213.313 1.01505 -1.27282 0
M  V30 1993 O 214.502 0.914982 -1.53266 0
M  V30 1994 C 211.602 1.65208 -2.95905 0
M  V30 1995 C 210.775 1.22224 -4.19976 0
M  V30 1996 C 209.834 2.28028 -4.74226 0
M  V30 1997 O 208.86 1.88857 -5.36956 0
M  V30 1998 N 210.062 3.6012 -4.55295 0
M  V30 1999 H 212.827 -0.158156 -2.99282 0
M  V30 2000 H 210.388 -0.230402 -1.60252 0
M  V30 2001 H 212.38 2.35541 -3.29093 0
M  V30 2002 H 210.95 2.17658 -2.24374 0
M  V30 2003 H 210.17 0.34725 -3.92668 0
M  V30 2004 H 211.458 0.911924 -5.00561 0
M  V30 2005 H 210.856 3.94698 -4.05253 0
M  V30 2006 H 209.413 4.26447 -4.92936 0
M  V30 2007 N 212.846 1.57033 -0.133567 0
M  V30 2008 C 214.071 2.00475 0.531477 0
M  V30 2009 C 214.496 1.01291 1.58499 0
M  V30 2010 O 213.854 -0.0133279 1.81295 0
M  V30 2011 C 213.902 3.42729 1.12113 0
M  V30 2012 O 213.006 3.46498 2.23636 0
M  V30 2013 H 212.347 0.650876 0.131362 0
M  V30 2014 H 214.877 2.03344 -0.22634 0
M  V30 2015 H 214.887 3.81246 1.4531 0
M  V30 2016 H 213.562 4.14428 0.349557 0
M  V30 2017 H 212.139 3.19811 1.91769 0
M  V30 2018 N 214.325 -0.140222 1.56975 0
M  V30 2019 C 215.574 -0.850152 1.82908 0
M  V30 2020 C 215.887 -1.82028 0.715892 0
M  V30 2021 O 217.093 -2.57485 0.861016 0
M  V30 2022 C 215.549 -1.5625 3.24213 0
M  V30 2023 C 215.157 -0.63443 4.43485 0
M  V30 2024 C 216.901 -2.25881 3.59413 0
M  V30 2025 C 214.808 -1.34879 5.75814 0
M  V30 2026 H 213.738 -0.321221 0.682153 0
M  V30 2027 H 216.389 -0.102874 1.83211 0
M  V30 2028 H 214.771 -2.35565 3.18316 0
M  V30 2029 H 215.945 0.12398 4.60633 0
M  V30 2030 H 214.26 -0.0461836 4.16374 0
M  V30 2031 H 216.857 -2.79978 4.5554 0
M  V30 2032 H 217.2 -3.02693 2.85802 0
M  V30 2033 H 217.733 -1.53477 3.67001 0
M  V30 2034 H 214.472 -0.622385 6.52539 0
M  V30 2035 H 213.992 -2.07974 5.6259 0
M  V30 2036 H 215.671 -1.88784 6.18845 0
M  V30 2037 N 215.803 -1.52179 -0.40978 0
M  V30 2038 C 217.031 -1.70054 -1.17853 0
M  V30 2039 C 217.446 -0.409735 -1.843 0
M  V30 2040 O 216.803 0.614183 -1.71855 0
M  V30 2041 C 216.854 -2.83568 -2.24213 0
M  V30 2042 O 216.575 -4.0765 -1.60478 0
M  V30 2043 C 218.076 -3.12947 -3.13973 0
M  V30 2044 H 215.296 -0.569917 -0.354169 0
M  V30 2045 H 217.84 -1.98734 -0.482198 0
M  V30 2046 H 215.995 -2.57409 -2.89516 0
M  V30 2047 H 216.409 -4.70899 -2.30986 0
M  V30 2048 H 217.883 -3.95889 -3.84677 0
M  V30 2049 H 218.36 -2.26472 -3.76307 0
M  V30 2050 H 218.966 -3.40868 -2.5434 0
M  V30 2051 N 217.281 0.66697 -1.42791 0
M  V30 2052 C 218.528 1.42699 -1.43678 0
M  V30 2053 C 218.856 1.94419 -0.0560425 0
M  V30 2054 O 218.111 1.7182 0.936831 0
M  V30 2055 C 218.41 2.6349 -2.4147 0
M  V30 2056 C 218.076 2.30267 -3.8767 0
M  V30 2057 C 216.738 2.20918 -4.27491 0
M  V30 2058 C 219.09 2.03435 -4.79858 0
M  V30 2059 C 216.418 1.82873 -5.57471 0
M  V30 2060 C 218.77 1.66892 -6.10188 0
M  V30 2061 C 217.434 1.56058 -6.49001 0
M  V30 2062 H 216.704 0.522171 -0.525755 0
M  V30 2063 H 219.351 0.759785 -1.75783 0
M  V30 2064 H 217.656 3.35279 -2.0272 0
M  V30 2065 H 219.353 3.21684 -2.39417 0
M  V30 2066 H 215.943 2.38449 -3.56146 0
M  V30 2067 H 220.127 2.09586 -4.49875 0
M  V30 2068 H 215.383 1.7306 -5.86396 0
M  V30 2069 H 219.557 1.45157 -6.81104 0
M  V30 2070 H 217.184 1.26348 -7.49627 0
M  V30 2071 N 218.759 1.29093 0.90403 0
M  V30 2072 C 220.036 1.075 1.63411 0
M  V30 2073 C 220.416 -0.382346 2.07609 0
M  V30 2074 O 219.764 -1.37031 1.82851 0
M  V30 2075 C 219.974 2.05858 2.81822 0
M  V30 2076 C 221.322 2.36539 3.52611 0
M  V30 2077 O 222.346 2.04019 2.91984 0
M  V30 2078 O 221.205 2.92085 4.61897 0
M  V30 2079 H 218.299 0.411547 0.717327 0
M  V30 2080 H 220.845 1.40449 0.952479 0
M  V30 2081 H 219.617 3.04037 2.46327 0
M  V30 2082 H 219.24 1.73613 3.57693 0
M  V30 2083 N 220.237 -1.11381 1.11499 0
M  V30 2084 C 221.2 -2.15622 0.777153 0
M  V30 2085 C 222.2 -1.59504 -0.203779 0
M  V30 2086 O 223.39 -1.74188 0.020782 0
M  V30 2087 C 220.522 -3.40556 0.153116 0
M  V30 2088 H 221.715 -2.47021 1.70061 0
M  V30 2089 H 219.268 -1.26577 0.916952 0
M  V30 2090 H 220.003 -3.14767 -0.780536 0
M  V30 2091 H 219.788 -3.8257 0.859238 0
M  V30 2092 H 221.278 -4.17546 -0.0671044 0
M  V30 2093 N 221.715 -0.905404 -1.28997 0
M  V30 2094 C 222.964 -0.530191 -1.94607 0
M  V30 2095 C 223.277 0.929185 -1.72121 0
M  V30 2096 O 224.483 1.41218 -2.31883 0
M  V30 2097 C 222.939 -0.897333 -3.48534 0
M  V30 2098 C 222.547 -2.37587 -3.79811 0
M  V30 2099 C 224.291 -0.592304 -4.20347 0
M  V30 2100 C 222.198 -2.68357 -5.27009 0
M  V30 2101 H 221.128 -0.194558 -0.728466 0
M  V30 2102 H 223.779 -1.10318 -1.46636 0
M  V30 2103 H 222.161 -0.253214 -3.9519 0
M  V30 2104 H 223.335 -3.06602 -3.43994 0
M  V30 2105 H 221.65 -2.6505 -3.2115 0
M  V30 2106 H 224.247 -0.798975 -5.28697 0
M  V30 2107 H 224.59 0.469474 -4.13644 0
M  V30 2108 H 225.123 -1.19452 -3.79442 0
M  V30 2109 H 221.862 -3.73355 -5.38782 0
M  V30 2110 H 221.382 -2.03971 -5.64053 0
M  V30 2111 H 223.061 -2.54922 -5.94663 0
M  V30 2112 N 223.193 1.4272 -0.668489 0
M  V30 2113 C 224.125 2.2914 0.052613 0
M  V30 2114 C 225.138 1.43339 0.771857 0
M  V30 2115 O 226.327 1.67123 0.627067 0
M  V30 2116 C 223.427 3.20618 1.09804 0
M  V30 2117 C 222.6 4.35039 0.45389 0
M  V30 2118 C 221.659 5.07282 1.39825 0
M  V30 2119 O 220.685 5.62024 0.900978 0
M  V30 2120 N 221.887 5.12206 2.73176 0
M  V30 2121 H 224.652 2.91668 -0.689209 0
M  V30 2122 H 222.213 1.53577 -0.512422 0
M  V30 2123 H 224.205 3.65815 1.73094 0
M  V30 2124 H 222.775 2.59585 1.74167 0
M  V30 2125 H 221.995 3.92567 -0.358396 0
M  V30 2126 H 223.283 5.088 0.00486972 0
M  V30 2127 H 222.681 4.6913 3.16122 0
M  V30 2128 H 221.238 5.61069 3.31729 0
M  V30 2129 N 224.671 0.411399 1.52136 0
M  V30 2130 C 225.581 -0.419774 2.30814 0
M  V30 2131 C 226.597 -1.0515 1.38634 0
M  V30 2132 O 227.773 -1.05252 1.71709 0
M  V30 2133 C 224.838 -1.52019 3.11594 0
M  V30 2134 C 223.899 -0.91129 4.19516 0
M  V30 2135 C 223.132 -1.95927 4.96436 0
M  V30 2136 O 223.355 -3.17775 4.73683 0
M  V30 2137 O 222.289 -1.56423 5.81219 0
M  V30 2138 H 226.115 0.221805 3.02889 0
M  V30 2139 H 223.7 0.174547 1.48377 0
M  V30 2140 H 225.582 -2.15898 3.61892 0
M  V30 2141 H 224.257 -2.14633 2.42311 0
M  V30 2142 H 223.164 -0.235157 3.7336 0
M  V30 2143 H 224.497 -0.32904 4.91099 0
M  V30 2144 N 226.149 -1.5696 0.141893 0
M  V30 2145 C 227.112 -2.15316 -0.785587 0
M  V30 2146 C 228.112 -1.09366 -1.1788 0
M  V30 2147 O 229.302 -1.35031 -1.10056 0
M  V30 2148 C 226.434 -2.71211 -2.06537 0
M  V30 2149 H 227.627 -2.98608 -0.278041 0
M  V30 2150 H 225.18 -1.5593 -0.107519 0
M  V30 2151 H 225.915 -1.91571 -2.6167 0
M  V30 2152 H 225.7 -3.4872 -1.79268 0
M  V30 2153 H 227.19 -3.16189 -2.72789 0
M  V30 2154 N 227.627 0.131896 -1.57047 0
M  V30 2155 C 228.867 0.847972 -1.85981 0
M  V30 2156 C 229.231 1.77655 -0.7282 0
M  V30 2157 O 230.432 2.53322 -0.898968 0
M  V30 2158 C 228.703 1.58919 -3.20124 0
M  V30 2159 S 230.262 2.34862 -3.70655 0
M  V30 2160 H 227.08 0.283273 -0.652133 0
M  V30 2161 H 229.682 0.107057 -1.95207 0
M  V30 2162 H 228.386 0.898771 -4.00438 0
M  V30 2163 H 227.917 2.37073 -3.13942 0
M  V30 2164 H 229.932 3.60344 -3.41126 0
M  V30 2165 N 229.106 1.52395 0.401703 0
M  V30 2166 C 230.069 1.75636 1.47257 0
M  V30 2167 C 231.069 0.62628 1.48103 0
M  V30 2168 O 232.259 0.894227 1.49497 0
M  V30 2169 C 229.391 1.84553 2.86624 0
M  V30 2170 H 230.584 2.71241 1.27938 0
M  V30 2171 H 228.137 1.42923 0.632662 0
M  V30 2172 H 228.872 0.908882 3.11303 0
M  V30 2173 H 228.657 2.66715 2.87412 0
M  V30 2174 H 230.147 2.04251 3.64241 0
M  V30 2175 N 230.584 -0.659388 1.43143 0
M  V30 2176 C 232 -0.974337 1.26407 0
M  V30 2177 C 232.2 -2.007 0.179341 0
M  V30 2178 O 231.256 -2.4856 -0.444295 0
M  V30 2179 C 232.569 -1.46447 2.62628 0
M  V30 2180 C 234.117 -1.58144 2.7011 0
M  V30 2181 C 234.592 -2.1055 4.06734 0
M  V30 2182 N 236.083 -2.17861 4.08767 0
M  V30 2183 C 236.818 -2.59519 5.1131 0
M  V30 2184 N 236.314 -3.00518 6.24228 0
M  V30 2185 N 238.107 -2.59404 4.98664 0
M  V30 2186 H 230.258 0.0240528 2.12386 0
M  V30 2187 H 232.521 -0.0518065 0.946583 0
M  V30 2188 H 232.227 -0.780123 3.42939 0
M  V30 2189 H 232.101 -2.44058 2.87603 0
M  V30 2190 H 234.488 -2.25682 1.90136 0
M  V30 2191 H 234.569 -0.589828 2.48907 0
M  V30 2192 H 234.213 -1.43616 4.87172 0
M  V30 2193 H 234.143 -3.10531 4.25298 0
M  V30 2194 H 236.634 -1.88975 3.27257 0
M  V30 2195 H 236.947 -3.31036 6.98309 0
M  V30 2196 H 235.292 -2.98337 6.2771 0
M  V30 2197 H 238.483 -2.26747 4.09516 0
M  V30 2198 H 238.656 -2.91548 5.78709 0
M  V30 2199 N 232.062 -1.29571 -0.897171 0
M  V30 2200 C 233.025 -1.14913 -1.98312 0
M  V30 2201 C 234.025 -0.0838629 -1.60581 0
M  V30 2202 O 235.215 -0.331006 -1.71026 0
M  V30 2203 C 232.347 -0.757835 -3.3237 0
M  V30 2204 H 233.54 -2.11377 -2.12743 0
M  V30 2205 H 231.093 -1.12793 -1.08201 0
M  V30 2206 H 231.828 0.206837 -3.2364 0
M  V30 2207 H 231.613 -1.52755 -3.61121 0
M  V30 2208 H 233.103 -0.678408 -4.12053 0
M  V30 2209 N 233.54 1.10788 -1.12088 0
M  V30 2210 C 234.788 1.8231 -0.872205 0
M  V30 2211 C 235.109 1.85419 0.603709 0
M  V30 2212 O 234.379 1.32963 1.43867 0
M  V30 2213 H 232.959 0.675137 -0.319686 0
M  V30 2214 H 235.621 1.34068 -1.41463 0
M  V30 2215 H 234.717 2.85955 -1.25045 0
M  V30 2216 N 235.018 0.912232 1.28515 0
M  V30 2217 C 236.266 0.543523 1.94654 0
M  V30 2218 C 236.587 -0.9155 1.72173 0
M  V30 2219 O 235.857 -1.64708 1.06058 0
M  V30 2220 H 234.437 0.198017 0.720277 0
M  V30 2221 H 237.099 1.16126 1.56527 0
M  V30 2222 H 236.195 0.736684 3.03281 0
M  V30 2223 N 236.496 -1.42363 0.676048 0
M  V30 2224 C 237.912 -1.55811 0.345718 0
M  V30 2225 C 238.112 -1.65544 -1.14879 0
M  V30 2226 O 237.168 -1.62306 -1.93424 0
M  V30 2227 C 238.481 -2.80746 1.07713 0
M  V30 2228 C 240.029 -2.9452 1.05958 0
M  V30 2229 C 240.504 -4.22318 1.77233 0
M  V30 2230 N 241.995 -4.29233 1.74108 0
M  V30 2231 C 242.73 -5.26935 2.26113 0
M  V30 2232 N 242.226 -6.30783 2.86505 0
M  V30 2233 N 244.019 -5.18741 2.1648 0
M  V30 2234 H 236.17 -1.34289 1.6456 0
M  V30 2235 H 238.433 -0.646506 0.69335 0
M  V30 2236 H 238.139 -2.79696 2.13221 0
M  V30 2237 H 238.013 -3.71676 0.64316 0
M  V30 2238 H 240.4 -2.95097 0.0128255 0
M  V30 2239 H 240.481 -2.04817 1.53244 0
M  V30 2240 H 240.125 -4.22502 2.81877 0
M  V30 2241 H 240.055 -5.10958 1.27396 0
M  V30 2242 H 242.546 -3.54814 1.30059 0
M  V30 2243 H 242.859 -7.01691 3.23805 0
M  V30 2244 H 241.204 -6.31341 2.90575 0
M  V30 2245 H 244.395 -4.36533 1.68987 0
M  V30 2246 H 244.568 -5.94721 2.57316 0
M  V30 2247 N 237.974 -0.419461 -1.51915 0
M  V30 2248 C 239.223 0.154346 -2.01109 0
M  V30 2249 C 239.536 1.45338 -1.30905 0
M  V30 2250 O 240.742 2.10906 -1.7097 0
M  V30 2251 C 239.198 0.325615 -3.58424 0
M  V30 2252 C 238.806 -0.961934 -4.37551 0
M  V30 2253 C 240.55 0.854155 -4.15818 0
M  V30 2254 C 238.457 -0.757287 -5.86531 0
M  V30 2255 H 237.387 0.0614563 -0.751491 0
M  V30 2256 H 240.038 -0.54649 -1.75173 0
M  V30 2257 H 238.42 1.08903 -3.80731 0
M  V30 2258 H 239.594 -1.7323 -4.26999 0
M  V30 2259 H 237.909 -1.41766 -3.91524 0
M  V30 2260 H 240.506 1.02346 -5.24814 0
M  V30 2261 H 240.849 1.83172 -3.73837 0
M  V30 2262 H 241.382 0.149528 -3.97519 0
M  V30 2263 H 238.121 -1.70671 -6.32892 0
M  V30 2264 H 237.641 -0.0264061 -5.99794 0
M  V30 2265 H 239.32 -0.403482 -6.45741 0
M  V30 2266 N 239.452 1.56882 -0.150215 0
M  V30 2267 C 240.415 2.1573 0.774157 0
M  V30 2268 C 241.415 1.0999 1.17298 0
M  V30 2269 O 242.605 1.35613 1.09338 0
M  V30 2270 C 239.737 2.72302 2.05096 0
M  V30 2271 H 240.93 2.98752 0.262201 0
M  V30 2272 H 238.483 1.55985 0.099248 0
M  V30 2273 H 239.218 1.92956 2.6065 0
M  V30 2274 H 239.003 3.49665 1.77416 0
M  V30 2275 H 240.493 3.17632 2.71109 0
M  V30 2276 N 240.93 -0.123565 1.57115 0
M  V30 2277 C 242.176 -0.833386 1.84885 0
M  V30 2278 C 242.509 -1.79742 0.735292 0
M  V30 2279 O 241.784 -1.92764 -0.25925 0
M  V30 2280 C 242.067 -1.5873 3.23228 0
M  V30 2281 C 241.92 -0.643183 4.45178 0
M  V30 2282 C 243.239 -2.54453 3.59085 0
M  V30 2283 H 240.358 -0.301518 0.6725 0
M  V30 2284 H 243 -0.097778 1.89748 0
M  V30 2285 H 241.15 -2.21438 3.19214 0
M  V30 2286 H 242.822 -0.0253015 4.61293 0
M  V30 2287 H 241.065 0.0456139 4.33776 0
M  V30 2288 H 241.736 -1.20724 5.38637 0
M  V30 2289 H 244.212 -2.01853 3.63861 0
M  V30 2290 H 243.088 -3.04238 4.5687 0
M  V30 2291 H 243.349 -3.36906 2.86264 0
M  V30 2292 N 242.408 -1.52605 -0.393616 0
M  V30 2293 C 243.819 -1.59417 -0.971761 0
M  V30 2294 C 244.17 -0.444173 -1.91106 0
M  V30 2295 O 243.295 0.433382 -2.12016 0
M  V30 2296 C 243.89 -2.88936 -1.76921 0
M  V30 2297 C 242.449 -2.98175 -2.29714 0
M  V30 2298 C 241.596 -2.54491 -1.10135 0
M  V30 2299 H 244.547 -1.57751 -0.173317 0
M  V30 2300 H 244.568 -2.75163 -2.62804 0
M  V30 2301 H 244.08 -3.72616 -1.08532 0
M  V30 2302 H 242.181 -2.19024 -3.01429 0
M  V30 2303 H 242.294 -4.02726 -2.59517 0
M  V30 2304 H 240.658 -2.08702 -1.45999 0
M  V30 2305 H 241.441 -3.4056 -0.432874 0
M  V30 2306 N 243.887 0.651787 -1.4349 0
M  V30 2307 C 245.303 0.96762 -1.26922 0
M  V30 2308 C 245.503 2.00602 -0.189982 0
M  V30 2309 O 244.559 2.48793 0.431107 0
M  V30 2310 C 245.872 1.45052 -2.63401 0
M  V30 2311 C 247.42 1.5671 -2.70945 0
M  V30 2312 C 247.895 2.0839 -4.07845 0
M  V30 2313 N 249.386 2.1569 -4.09917 0
M  V30 2314 C 250.121 2.56804 -5.12679 0
M  V30 2315 N 249.617 2.97203 -6.25813 0
M  V30 2316 N 251.41 2.56756 -5.00033 0
M  V30 2317 H 243.561 -0.0353158 -2.12371 0
M  V30 2318 H 245.824 0.0467858 -0.946845 0
M  V30 2319 H 245.53 0.761926 -3.43348 0
M  V30 2320 H 245.404 2.42529 -2.88894 0
M  V30 2321 H 247.791 2.2467 -1.9133 0
M  V30 2322 H 247.872 0.57662 -2.49216 0
M  V30 2323 H 247.516 1.41031 -4.87927 0
M  V30 2324 H 247.446 3.08271 -4.26938 0
M  V30 2325 H 249.937 1.87237 -3.28254 0
M  V30 2326 H 250.25 3.27328 -7.00055 0
M  V30 2327 H 248.595 2.95004 -6.29283 0
M  V30 2328 H 251.786 2.24572 -4.10713 0
M  V30 2329 H 251.959 2.88475 -5.80247 0
M  V30 2330 N 245.365 1.30045 0.890287 0
M  V30 2331 C 246.313 1.15873 2.01683 0
M  V30 2332 C 247.307 0.0719403 1.69247 0
M  V30 2333 O 248.513 0.232414 1.78493 0
M  V30 2334 H 244.888 0.358203 0.661207 0
M  V30 2335 H 246.859 2.11229 2.10772 0
M  V30 2336 C 245.608 0.861842 3.36849 0
M  V30 2337 H 244.931 1.69016 3.62317 0
M  V30 2338 H 246.371 0.802762 4.16331 0
M  V30 2339 C 244.83 -0.435132 3.34078 0
M  V30 2340 O 245.36 -1.4583 3.74295 0
M  V30 2341 N 243.566 -0.444377 2.87182 0
M  V30 2342 H 243.113 0.388723 2.5465 0
M  V30 2343 H 243.071 -1.31213 2.85711 0
M  V30 2344 N 246.843 -1.10192 1.12674 0
M  V30 2345 C 248.254 -1.63707 0.897604 0
M  V30 2346 C 248.605 -1.87812 -0.567546 0
M  V30 2347 O 247.73 -1.62196 -1.43253 0
M  V30 2348 C 248.325 -2.974 1.62292 0
M  V30 2349 C 246.884 -3.47772 1.43986 0
M  V30 2350 C 246.031 -2.22332 1.65722 0
M  V30 2351 H 248.982 -0.936587 1.28116 0
M  V30 2352 H 249.003 -3.64986 1.07541 0
M  V30 2353 H 248.515 -2.79824 2.68924 0
M  V30 2354 H 246.616 -3.70487 0.396206 0
M  V30 2355 H 246.729 -4.25723 2.19765 0
M  V30 2356 H 245.093 -2.30599 1.08149 0
M  V30 2357 H 245.876 -2.07285 2.73657 0
M  V30 2358 N 248.321 -0.919034 -1.28029 0
M  V30 2359 C 249.231 -0.416756 -2.30869 0
M  V30 2360 C 250.247 0.498235 -1.66714 0
M  V30 2361 O 251.423 0.383144 -1.97722 0
M  V30 2362 C 248.488 0.330274 -3.45123 0
M  V30 2363 C 247.549 -0.618578 -4.2482 0
M  V30 2364 C 246.782 0.0928959 -5.33619 0
M  V30 2365 O 247.005 1.31375 -5.55065 0
M  V30 2366 O 245.939 -0.574499 -5.99152 0
M  V30 2367 H 249.765 -1.27043 -2.75851 0
M  V30 2368 H 247.35 -0.684052 -1.3282 0
M  V30 2369 H 249.232 0.751972 -4.14636 0
M  V30 2370 H 247.907 1.1597 -3.02213 0
M  V30 2371 H 246.814 -1.08978 -3.57875 0
M  V30 2372 H 248.147 -1.41497 -4.71423 0
M  V30 2373 N 249.799 1.42003 -0.683588 0
M  V30 2374 C 250.709 2.34597 -0.0109075 0
M  V30 2375 C 251.725 1.55576 0.779245 0
M  V30 2376 O 252.901 1.88107 0.719555 0
M  V30 2377 C 249.966 3.34199 0.922588 0
M  V30 2378 C 249.027 4.29115 0.125984 0
M  V30 2379 C 248.26 5.23959 1.01502 0
M  V30 2380 O 248.483 5.23952 2.25456 0
M  V30 2381 O 247.417 6.00053 0.47111 0
M  V30 2382 H 251.243 2.93675 -0.773853 0
M  V30 2383 H 248.828 1.42654 -0.443861 0
M  V30 2384 H 250.71 3.95365 1.45823 0
M  V30 2385 H 249.385 2.77582 1.66523 0
M  V30 2386 H 248.292 3.71335 -0.453969 0
M  V30 2387 H 249.625 4.88798 -0.577736 0
M  V30 2388 N 251.277 0.427512 1.51691 0
M  V30 2389 C 252.225 -0.403359 2.29076 0
M  V30 2390 C 253.219 -1.02962 1.34518 0
M  V30 2391 O 254.425 -0.965715 1.51901 0
M  V30 2392 H 250.8 -0.148879 0.737115 0
M  V30 2393 H 252.771 0.270295 2.97173 0
M  V30 2394 C 251.52 -1.49763 3.13794 0
M  V30 2395 H 250.843 -1.02508 3.86435 0
M  V30 2396 H 252.283 -2.05244 3.71014 0
M  V30 2397 C 250.742 -2.47536 2.28533 0
M  V30 2398 O 251.272 -3.51848 1.93819 0
M  V30 2399 N 249.478 -2.18187 1.91945 0
M  V30 2400 H 249.025 -1.33389 2.20375 0
M  V30 2401 H 248.983 -2.83848 1.35195 0
M  V30 2402 N 252.755 -1.56801 0.158532 0
M  V30 2403 C 253.665 -2.20916 -0.789518 0
M  V30 2404 C 254.681 -1.1969 -1.26294 0
M  V30 2405 O 255.857 -1.52308 -1.31773 0
M  V30 2406 C 252.922 -2.82727 -2.00665 0
M  V30 2407 C 251.983 -3.99114 -1.58134 0
M  V30 2408 C 251.216 -4.57968 -2.74045 0
M  V30 2409 O 251.439 -4.15704 -3.90572 0
M  V30 2410 O 250.373 -5.48047 -2.48855 0
M  V30 2411 H 254.199 -3.02464 -0.273681 0
M  V30 2412 H 251.784 -1.4924 -0.0690548 0
M  V30 2413 H 253.666 -3.21968 -2.71872 0
M  V30 2414 H 252.341 -2.04184 -2.51179 0
M  V30 2415 H 251.248 -3.64567 -0.839155 0
M  V30 2416 H 252.581 -4.79212 -1.12325 0
M  V30 2417 N 254.233 0.115231 -1.57178 0
M  V30 2418 C 255.196 1.12526 -1.99676 0
M  V30 2419 C 256.196 1.34095 -0.88742 0
M  V30 2420 O 257.386 1.30548 -1.15337 0
M  V30 2421 C 254.518 2.4789 -2.34015 0
M  V30 2422 H 255.711 0.759912 -2.90113 0
M  V30 2423 H 253.264 0.359648 -1.52106 0
M  V30 2424 H 253.999 2.89339 -1.4647 0
M  V30 2425 H 253.784 2.33588 -3.14927 0
M  V30 2426 H 255.274 3.20575 -2.67622 0
M  V30 2427 N 255.711 1.52812 0.385517 0
M  V30 2428 C 256.96 1.67249 1.12741 0
M  V30 2429 C 257.273 0.4205 1.91027 0
M  V30 2430 O 258.479 0.445064 2.67827 0
M  V30 2431 C 256.935 2.95583 2.05326 0
M  V30 2432 C 256.543 4.27974 1.32447 0
M  V30 2433 C 258.287 3.19386 2.7963 0
M  V30 2434 C 256.194 5.47412 2.23818 0
M  V30 2435 H 255.124 0.6231 0.424573 0
M  V30 2436 H 257.775 1.79309 0.389924 0
M  V30 2437 H 256.157 2.77277 2.82725 0
M  V30 2438 H 257.331 4.56844 0.602495 0
M  V30 2439 H 255.646 4.10459 0.700885 0
M  V30 2440 H 258.243 4.05801 3.48181 0
M  V30 2441 H 258.586 2.34604 3.43899 0
M  V30 2442 H 259.119 3.38274 2.09322 0
M  V30 2443 H 255.858 6.34612 1.64157 0
M  V30 2444 H 255.378 5.22849 2.93921 0
M  V30 2445 H 257.057 5.81423 2.83824 0
M  V30 2446 N 257.189 -0.644168 1.43834 0
M  V30 2447 C 258.152 -1.73857 1.49353 0
M  V30 2448 C 259.152 -1.56315 0.377112 0
M  V30 2449 O 260.342 -1.62048 0.639226 0
M  V30 2450 C 257.474 -3.12819 1.35488 0
M  V30 2451 H 258.667 -1.70342 2.46827 0
M  V30 2452 H 256.22 -0.856652 1.30733 0
M  V30 2453 H 256.955 -3.2194 0.390569 0
M  V30 2454 H 256.74 -3.26958 2.16428 0
M  V30 2455 H 258.23 -3.92606 1.42302 0
M  V30 2456 N 258.668 -1.30515 -0.883378 0
M  V30 2457 C 259.893 -1.22487 -1.67367 0
M  V30 2458 C 260.318 0.208767 -1.86938 0
M  V30 2459 O 259.676 1.15015 -1.40148 0
M  V30 2460 C 259.724 -1.96041 -3.02655 0
M  V30 2461 O 258.828 -1.28859 -3.91751 0
M  V30 2462 H 258.169 -0.423573 -0.511353 0
M  V30 2463 H 260.699 -1.72362 -1.10239 0
M  V30 2464 H 260.709 -2.05124 -3.52687 0
M  V30 2465 H 259.384 -3.00307 -2.8773 0
M  V30 2466 H 257.961 -1.28141 -3.50192 0
M  V30 2467 N 260.146 1.09593 -1.13257 0
M  V30 2468 C 261.393 1.81734 -0.893257 0
M  V30 2469 C 261.721 1.8563 0.580656 0
M  V30 2470 O 260.976 1.31906 1.44566 0
M  V30 2471 C 261.275 3.27802 -1.42411 0
M  V30 2472 C 260.941 3.44041 -2.91456 0
M  V30 2473 C 259.603 3.48181 -3.3215 0
M  V30 2474 C 261.955 3.48719 -3.87356 0
M  V30 2475 C 259.283 3.54575 -4.67433 0
M  V30 2476 C 261.635 3.56648 -5.2248 0
M  V30 2477 C 260.299 3.59055 -5.62704 0
M  V30 2478 H 259.569 0.665011 -0.326866 0
M  V30 2479 H 262.216 1.2912 -1.41422 0
M  V30 2480 H 260.521 3.83042 -0.823795 0
M  V30 2481 H 262.218 3.82149 -1.21503 0
M  V30 2482 H 258.808 3.41502 -2.58987 0
M  V30 2483 H 262.992 3.44763 -3.57004 0
M  V30 2484 H 258.248 3.54725 -4.97976 0
M  V30 2485 H 262.422 3.59212 -5.96607 0
M  V30 2486 H 260.049 3.63763 -6.67518 0
M  V30 2487 N 261.624 0.925811 1.2754 0
M  V30 2488 C 262.87 0.566092 1.94739 0
M  V30 2489 C 263.203 -0.890057 1.72603 0
M  V30 2490 O 262.478 -1.63467 1.05399 0
M  V30 2491 C 262.761 0.89054 3.48915 0
M  V30 2492 C 262.614 2.4003 3.80402 0
M  V30 2493 C 263.933 0.395101 4.38323 0
M  V30 2494 H 261.052 0.20714 0.707292 0
M  V30 2495 H 263.694 1.15725 1.50691 0
M  V30 2496 H 261.844 0.387452 3.86563 0
M  V30 2497 H 263.516 2.97494 3.52555 0
M  V30 2498 H 261.759 2.85028 3.2702 0
M  V30 2499 H 262.43 2.57785 4.8811 0
M  V30 2500 H 264.906 0.826241 4.07814 0
M  V30 2501 H 263.782 0.651086 5.45025 0
M  V30 2502 H 264.043 -0.704798 4.36446 0
M  V30 2503 N 263.102 -1.41638 0.69111 0
M  V30 2504 C 264.049 -2.30789 0.0229705 0
M  V30 2505 C 265.019 -1.46863 -0.775911 0
M  V30 2506 O 266.204 -1.75661 -0.74485 0
M  V30 2507 C 263.344 -3.32868 -0.910666 0
M  V30 2508 C 262.457 -4.31875 -0.103874 0
M  V30 2509 C 261.592 -5.21024 -1.03475 0
M  V30 2510 C 260.631 -6.11702 -0.220598 0
M  V30 2511 N 259.768 -6.93349 -1.10504 0
M  V30 2512 H 264.608 -2.87366 0.788978 0
M  V30 2513 H 262.145 -1.41535 0.400794 0
M  V30 2514 H 264.103 -3.90596 -1.46597 0
M  V30 2515 H 262.733 -2.77851 -1.64312 0
M  V30 2516 H 261.785 -3.76131 0.568285 0
M  V30 2517 H 263.097 -4.96003 0.527504 0
M  V30 2518 H 262.251 -5.83565 -1.65943 0
M  V30 2519 H 260.99 -4.57112 -1.69999 0
M  V30 2520 H 259.995 -5.48215 0.417187 0
M  V30 2521 H 261.22 -6.77668 0.440784 0
M  V30 2522 H 259.166 -6.3205 -1.75638 0
M  V30 2523 H 259.083 -7.54146 -0.529125 0
M  V30 2524 H 260.351 -7.60362 -1.71667 0
M  V30 2525 N 264.58 -0.43555 -1.51462 0
M  V30 2526 C 265.527 0.376797 -2.27703 0
M  V30 2527 C 266.497 1.01838 -1.31219 0
M  V30 2528 O 267.682 1.03762 -1.60119 0
M  V30 2529 C 264.822 1.47301 -3.12084 0
M  V30 2530 C 263.935 0.849744 -4.2356 0
M  V30 2531 C 263.07 1.92086 -4.95254 0
M  V30 2532 C 262.109 1.27593 -5.98654 0
M  V30 2533 N 261.246 2.28833 -6.63762 0
M  V30 2534 H 266.086 -0.279734 -2.96684 0
M  V30 2535 H 263.623 -0.149795 -1.46335 0
M  V30 2536 H 265.581 2.11984 -3.59331 0
M  V30 2537 H 264.211 2.0992 -2.45221 0
M  V30 2538 H 263.263 0.0912529 -3.80291 0
M  V30 2539 H 264.575 0.338878 -4.97648 0
M  V30 2540 H 263.729 2.64435 -5.46039 0
M  V30 2541 H 262.468 2.46545 -4.20793 0
M  V30 2542 H 261.473 0.537893 -5.47162 0
M  V30 2543 H 262.698 0.738693 -6.7507 0
M  V30 2544 H 260.644 2.82375 -5.92115 0
M  V30 2545 H 260.561 1.82632 -7.33608 0
M  V30 2546 H 261.829 3.00671 -7.19178 0
M  V30 2547 N 266.058 1.56714 -0.166846 0
M  V30 2548 C 267.288 2.00828 0.48494 0
M  V30 2549 C 267.696 1.04612 1.57648 0
M  V30 2550 O 267.039 0.0383201 1.8366 0
M  V30 2551 C 267.101 3.4137 1.12723 0
M  V30 2552 C 266.765 4.56654 0.177886 0
M  V30 2553 C 267.762 5.16402 -0.60207 0
M  V30 2554 C 265.447 5.02244 0.0750139 0
M  V30 2555 C 267.441 6.20167 -1.47215 0
M  V30 2556 C 265.128 6.05859 -0.798649 0
M  V30 2557 C 266.126 6.64691 -1.57082 0
M  V30 2558 O 265.814 7.66297 -2.42989 0
M  V30 2559 H 265.546 0.663587 0.128953 0
M  V30 2560 H 268.1 2.03692 -0.264365 0
M  V30 2561 H 266.33 3.35406 1.92457 0
M  V30 2562 H 268.019 3.69466 1.68076 0
M  V30 2563 H 268.785 4.82065 -0.53274 0
M  V30 2564 H 264.664 4.56167 0.665812 0
M  V30 2565 H 268.208 6.66016 -2.07531 0
M  V30 2566 H 264.105 6.39621 -0.869199 0
M  V30 2567 H 264.873 7.83601 -2.36455 0
M  V30 2568 N 267.536 -0.106894 1.57237 0
M  V30 2569 C 268.484 -1.14944 2.02215 0
M  V30 2570 C 269.478 -1.42167 0.92114 0
M  V30 2571 O 270.684 -1.41987 1.10634 0
M  V30 2572 H 267.059 -0.387841 0.64427 0
M  V30 2573 H 269.03 -0.743683 2.88984 0
M  V30 2574 C 267.779 -2.4647 2.4525 0
M  V30 2575 H 267.102 -2.26363 3.29545 0
M  V30 2576 H 268.542 -3.17948 2.80508 0
M  V30 2577 C 267.001 -3.09921 1.321 0
M  V30 2578 O 267.531 -3.9651 0.643622 0
M  V30 2579 N 265.737 -2.69986 1.07497 0
M  V30 2580 H 265.284 -1.99667 1.62761 0
M  V30 2581 H 265.242 -3.12769 0.319876 0
M  V30 2582 N 269.014 -1.53014 -0.377408 0
M  V30 2583 C 270.242 -1.72515 -1.14219 0
M  V30 2584 C 270.657 -0.448735 -1.8339 0
M  V30 2585 O 270.014 0.577592 -1.73119 0
M  V30 2586 C 270.065 -2.8826 -2.18148 0
M  V30 2587 O 269.786 -4.10962 -1.51795 0
M  V30 2588 C 271.287 -3.19536 -3.07264 0
M  V30 2589 H 268.507 -0.577301 -0.342001 0
M  V30 2590 H 271.051 -1.99712 -0.439935 0
M  V30 2591 H 269.206 -2.63492 -2.83991 0
M  V30 2592 H 269.62 -4.75693 -2.20945 0
M  V30 2593 H 271.094 -4.03959 -3.76193 0
M  V30 2594 H 271.571 -2.34403 -3.71419 0
M  V30 2595 H 272.177 -3.46186 -2.47053 0
M  V30 2596 N 270.492 0.636531 -1.44174 0
M  V30 2597 C 271.722 1.42146 -1.49927 0
M  V30 2598 C 272.13 1.88812 -0.121063 0
M  V30 2599 O 271.473 1.61126 0.882267 0
M  V30 2600 C 271.535 2.67883 -2.39748 0
M  V30 2601 C 271.199 2.43048 -3.8701 0
M  V30 2602 C 272.196 2.05216 -4.77684 0
M  V30 2603 C 269.881 2.56856 -4.3166 0
M  V30 2604 C 271.875 1.81512 -6.11009 0
M  V30 2605 C 269.562 2.32766 -5.65034 0
M  V30 2606 C 270.56 1.95152 -6.54526 0
M  V30 2607 O 270.248 1.71326 -7.85431 0
M  V30 2608 H 269.98 0.442567 -0.51099 0
M  V30 2609 H 272.534 0.786158 -1.8976 0
M  V30 2610 H 270.764 3.34032 -1.94832 0
M  V30 2611 H 272.453 3.29874 -2.36513 0
M  V30 2612 H 273.219 1.94111 -4.44462 0
M  V30 2613 H 269.098 2.85104 -3.62266 0
M  V30 2614 H 272.642 1.52077 -6.80822 0
M  V30 2615 H 268.539 2.43479 -5.97819 0
M  V30 2616 H 269.307 1.85616 -7.97176 0
M  V30 2617 N 271.97 1.30982 0.876444 0
M  V30 2618 C 272.933 1.18054 1.96459 0
M  V30 2619 C 273.933 0.109399 1.60427 0
M  V30 2620 O 275.123 0.358173 1.70478 0
M  V30 2621 C 272.255 0.810616 3.31122 0
M  V30 2622 H 273.448 2.14735 2.09354 0
M  V30 2623 H 271.001 1.145 1.06392 0
M  V30 2624 H 271.736 -0.155322 3.23928 0
M  V30 2625 H 271.521 1.58481 3.58645 0
M  V30 2626 H 273.011 0.743876 4.10921 0
M  V30 2627 N 273.449 -1.08991 1.13837 0
M  V30 2628 C 274.679 -1.84743 0.924859 0
M  V30 2629 C 275.087 -1.81629 -0.529874 0
M  V30 2630 O 274.43 -1.21397 -1.37872 0
M  V30 2631 C 274.492 -3.33568 1.34061 0
M  V30 2632 C 274.156 -3.60425 2.80968 0
M  V30 2633 C 275.153 -3.55771 3.79108 0
M  V30 2634 C 272.838 -3.88627 3.18236 0
M  V30 2635 C 274.832 -3.78939 5.12527 0
M  V30 2636 C 272.519 -4.11449 4.51833 0
M  V30 2637 C 273.517 -4.06598 5.48787 0
M  V30 2638 O 273.205 -4.28826 6.79973 0
M  V30 2639 H 272.937 -0.590258 0.329502 0
M  V30 2640 H 275.491 -1.38598 1.51591 0
M  V30 2641 H 273.721 -3.80442 0.692853 0
M  V30 2642 H 275.41 -3.90743 1.09886 0
M  V30 2643 H 276.176 -3.34005 3.51661 0
M  V30 2644 H 272.055 -3.91526 2.43369 0
M  V30 2645 H 275.599 -3.75068 5.88192 0
M  V30 2646 H 271.496 -4.32698 4.79002 0
M  V30 2647 H 272.264 -4.46264 6.86142 0
M  V30 2648 N 274.927 -0.932562 -1.27047 0
M  V30 2649 C 276.173 -0.576412 -1.94436 0
M  V30 2650 C 276.506 0.880891 -1.73072 0
M  V30 2651 O 275.781 1.62905 -1.06264 0
M  V30 2652 C 276.064 -0.909031 -3.48437 0
M  V30 2653 C 275.917 -2.42044 -3.79123 0
M  V30 2654 C 277.236 -0.418341 -4.38107 0
M  V30 2655 H 274.355 -0.210888 -0.706184 0
M  V30 2656 H 276.997 -1.16522 -1.50075 0
M  V30 2657 H 275.147 -0.407947 -3.86352 0
M  V30 2658 H 276.819 -2.99359 -3.50973 0
M  V30 2659 H 275.062 -2.86758 -3.25503 0
M  V30 2660 H 275.733 -2.6037 -4.86736 0
M  V30 2661 H 278.209 -0.847856 -4.0737 0
M  V30 2662 H 277.085 -0.679981 -5.44672 0
M  V30 2663 H 277.346 0.681642 -4.36814 0
M  V30 2664 N 276.405 1.4127 -0.698611 0
M  V30 2665 C 277.653 2.00782 -0.230409 0
M  V30 2666 C 277.974 1.5562 1.17505 0
M  V30 2667 O 277.244 0.78815 1.79346 0
M  V30 2668 H 275.824 0.742464 -0.0821944 0
M  V30 2669 H 278.486 1.72852 -0.90045 0
M  V30 2670 H 277.582 3.11095 -0.25021 0
M  V30 2671 N 277.883 0.443576 1.51229 0
M  V30 2672 C 278.813 -0.355142 2.30783 0
M  V30 2673 C 279.794 -1.0154 1.36468 0
M  V30 2674 O 280.979 -1.01785 1.65389 0
M  V30 2675 C 278.109 -1.45312 3.15439 0
M  V30 2676 C 277.063 -0.916002 4.18083 0
M  V30 2677 C 276.389 -2.1102 4.91299 0
M  V30 2678 C 277.689 0.0538602 5.22272 0
M  V30 2679 H 279.383 0.308767 2.97804 0
M  V30 2680 H 276.929 0.149937 1.43217 0
M  V30 2681 H 278.882 -2.01914 3.69876 0
M  V30 2682 H 277.606 -2.14541 2.46252 0
M  V30 2683 H 276.265 -0.372145 3.64706 0
M  V30 2684 H 275.913 -2.78882 4.18609 0
M  V30 2685 H 275.613 -1.75717 5.60712 0
M  V30 2686 H 277.137 -2.68164 5.48562 0
M  V30 2687 H 278.551 -0.422069 5.71744 0
M  V30 2688 H 276.948 0.319776 5.99247 0
M  V30 2689 H 278.018 0.98858 4.74716 0
M  V30 2690 N 279.361 -1.56624 0.175154 0
M  V30 2691 C 280.589 -2.01374 -0.474971 0
M  V30 2692 C 281.004 -1.05537 -1.56548 0
M  V30 2693 O 280.361 -0.0568668 -1.82411 0
M  V30 2694 C 280.412 -3.45923 -1.04975 0
M  V30 2695 O 280.133 -4.381 -0.00276605 0
M  V30 2696 C 281.634 -4.06093 -1.77773 0
M  V30 2697 H 278.854 -0.659962 -0.121206 0
M  V30 2698 H 281.398 -2.02601 0.27801 0
M  V30 2699 H 279.553 -3.45458 -1.75321 0
M  V30 2700 H 279.967 -5.22753 -0.427681 0
M  V30 2701 H 281.441 -5.09147 -2.13245 0
M  V30 2702 H 281.918 -3.48405 -2.67414 0
M  V30 2703 H 282.524 -4.10272 -1.12059 0
M  V30 2704 N 280.839 0.0985539 -1.57292 0
M  V30 2705 C 281.749 1.13824 -2.05137 0
M  V30 2706 C 282.765 1.44076 -0.975604 0
M  V30 2707 O 283.941 1.54786 -1.28853 0
M  V30 2708 C 281.006 2.43969 -2.46333 0
M  V30 2709 C 280.067 2.2093 -3.68087 0
M  V30 2710 C 279.3 3.44869 -4.0731 0
M  V30 2711 O 279.523 4.52972 -3.46659 0
M  V30 2712 O 278.457 3.34661 -5.00285 0
M  V30 2713 H 282.283 0.761881 -2.93988 0
M  V30 2714 H 279.868 0.310818 -1.46131 0
M  V30 2715 H 281.75 3.20609 -2.73473 0
M  V30 2716 H 280.425 2.81038 -1.60621 0
M  V30 2717 H 279.332 1.42081 -3.46069 0
M  V30 2718 H 280.665 1.88755 -4.54568 0
M  V30 2719 N 282.317 1.53212 0.369288 0
M  V30 2720 C 283.565 1.68881 1.11012 0
M  V30 2721 C 283.886 0.441285 1.89941 0
M  V30 2722 O 283.156 -0.544623 1.88177 0
M  V30 2723 H 281.736 0.622569 0.412816 0
M  V30 2724 H 284.398 1.90391 0.416802 0
M  V30 2725 H 283.494 2.54822 1.80201 0
M  V30 2726 N 283.795 -0.628877 1.44509 0
M  V30 2727 C 285.206 -1.21054 1.42137 0
M  V30 2728 C 285.557 -1.95715 0.137881 0
M  V30 2729 O 284.682 -2.02554 -0.761645 0
M  V30 2730 C 285.277 -2.20189 2.57493 0
M  V30 2731 C 283.836 -2.73777 2.58308 0
M  V30 2732 C 282.983 -1.48813 2.33987 0
M  V30 2733 H 285.934 -0.41942 1.53057 0
M  V30 2734 H 285.955 -3.02833 2.30375 0
M  V30 2735 H 285.467 -1.6582 3.50892 0
M  V30 2736 H 283.568 -3.32142 1.68856 0
M  V30 2737 H 283.681 -3.19662 3.56865 0
M  V30 2738 H 282.045 -1.77024 1.83124 0
M  V30 2739 H 282.828 -0.963442 3.29504 0
M  V30 2740 N 285.273 -1.31445 -0.869486 0
M  V30 2741 C 286.498 -1.24256 -1.66058 0
M  V30 2742 C 286.923 0.188928 -1.87149 0
M  V30 2743 O 286.281 1.13522 -1.4136 0
M  V30 2744 C 286.329 -1.9924 -3.00559 0
M  V30 2745 O 285.433 -1.33007 -3.90362 0
M  V30 2746 H 284.774 -0.428973 -0.506831 0
M  V30 2747 H 287.304 -1.73521 -1.08404 0
M  V30 2748 H 287.314 -2.08854 -3.50491 0
M  V30 2749 H 285.989 -3.03342 -2.84528 0
M  V30 2750 H 284.566 -1.31848 -3.48813 0
M  V30 2751 N 286.751 1.08385 -1.14413 0
M  V30 2752 C 288.162 1.62258 -0.923535 0
M  V30 2753 C 288.513 1.88691 0.537595 0
M  V30 2754 O 287.638 1.64454 1.40655 0
M  V30 2755 C 288.233 2.94781 -1.67002 0
M  V30 2756 C 286.792 3.45437 -1.495 0
M  V30 2757 C 285.939 2.19668 -1.69238 0
M  V30 2758 H 288.89 0.916086 -1.2959 0
M  V30 2759 H 288.911 3.63229 -1.13334 0
M  V30 2760 H 288.423 2.7551 -2.73342 0
M  V30 2761 H 286.524 3.6981 -0.455097 0
M  V30 2762 H 286.637 4.22173 -2.2651 0
M  V30 2763 H 285.001 2.28849 -1.11804 0
M  V30 2764 H 285.784 2.02905 -2.7692 0
M  V30 2765 N 288.23 0.939286 1.26551 0
M  V30 2766 C 289.478 0.58469 1.93457 0
M  V30 2767 C 289.799 -0.878774 1.74076 0
M  V30 2768 O 289.069 -1.62421 1.09528 0
M  V30 2769 H 287.649 0.21325 0.715914 0
M  V30 2770 H 290.311 1.1942 1.54029 0
M  V30 2771 H 289.407 0.800849 3.0165 0
M  V30 2772 N 289.708 -1.40897 0.706093 0
M  V30 2773 C 290.985 -1.94868 0.169099 0
M  V30 2774 C 291.365 -1.64485 -1.32318 0
M  V30 2775 O 290.713 -0.95744 -2.07474 0
M  V30 2776 C 290.923 -3.45798 0.471654 0
M  V30 2777 C 292.271 -4.22663 0.405127 0
M  V30 2778 O 293.295 -3.53865 0.407168 0
M  V30 2779 O 292.154 -5.45216 0.374383 0
M  V30 2780 H 289.248 -0.82673 0.0211352 0
M  V30 2781 H 291.794 -1.50558 0.782976 0
M  V30 2782 H 290.566 -3.61235 1.50416 0
M  V30 2783 H 290.189 -3.97225 -0.172666 0
M  V30 2784 N 291.186 -0.45159 -1.50991 0
M  V30 2785 C 292.433 0.110074 -2.02201 0
M  V30 2786 C 292.761 1.4146 -1.33489 0
M  V30 2787 O 292.016 1.90617 -0.443125 0
M  V30 2788 C 292.315 0.361728 -3.55565 0
M  V30 2789 C 291.981 -0.858717 -4.42648 0
M  V30 2790 C 290.643 -1.19338 -4.66167 0
M  V30 2791 C 292.995 -1.67221 -4.93646 0
M  V30 2792 C 290.323 -2.34195 -5.37931 0
M  V30 2793 C 292.675 -2.8119 -5.6667 0
M  V30 2794 C 291.339 -3.15094 -5.88449 0
M  V30 2795 H 290.609 0.040279 -0.739904 0
M  V30 2796 H 293.256 -0.601696 -1.81802 0
M  V30 2797 H 291.561 1.15554 -3.74372 0
M  V30 2798 H 293.258 0.80996 -3.92735 0
M  V30 2799 H 289.848 -0.58796 -4.24548 0
M  V30 2800 H 294.032 -1.42686 -4.75347 0
M  V30 2801 H 289.288 -2.6076 -5.53005 0
M  V30 2802 H 293.462 -3.44585 -6.05173 0
M  V30 2803 H 291.089 -4.04204 -6.43835 0
M  V30 2804 N 292.664 1.56529 -0.183458 0
M  V30 2805 C 294.08 1.58664 0.172554 0
M  V30 2806 C 294.28 1.19925 1.61926 0
M  V30 2807 O 293.336 0.916534 2.35278 0
M  V30 2808 C 294.649 3.00463 -0.119262 0
M  V30 2809 C 296.197 3.12945 -0.0584396 0
M  V30 2810 C 296.672 4.56857 -0.323408 0
M  V30 2811 N 298.163 4.62403 -0.271612 0
M  V30 2812 C 298.898 5.71626 -0.450639 0
M  V30 2813 N 298.394 6.89362 -0.689384 0
M  V30 2814 N 300.187 5.60775 -0.385701 0
M  V30 2815 H 292.338 1.79994 -1.12765 0
M  V30 2816 H 294.601 0.834808 -0.449222 0
M  V30 2817 H 294.307 3.33326 -1.12192 0
M  V30 2818 H 294.181 3.72659 0.583544 0
M  V30 2819 H 296.568 2.79902 0.934805 0
M  V30 2820 H 296.649 2.4316 -0.794144 0
M  V30 2821 H 296.293 4.9061 -1.31392 0
M  V30 2822 H 296.223 5.24816 0.43305 0
M  V30 2823 H 298.714 3.77785 -0.0932256 0
M  V30 2824 H 299.027 7.68489 -0.815113 0
M  V30 2825 H 297.372 6.91196 -0.726142 0
M  V30 2826 H 300.563 4.67674 -0.199687 0
M  V30 2827 H 300.736 6.4584 -0.528646 0
M  V30 2828 N 294.142 -0.090211 1.57342 0
M  V30 2829 C 295.372 -0.805055 1.90269 0
M  V30 2830 C 295.78 -1.72561 0.775842 0
M  V30 2831 O 295.123 -1.81839 -0.260843 0
M  V30 2832 C 295.185 -1.66734 3.18497 0
M  V30 2833 C 294.849 -0.918092 4.47683 0
M  V30 2834 C 295.846 -0.245674 5.19319 0
M  V30 2835 C 293.531 -0.890724 4.94339 0
M  V30 2836 C 295.525 0.444088 6.35851 0
M  V30 2837 C 293.212 -0.197179 6.10782 0
M  V30 2838 C 294.21 0.469044 6.81388 0
M  V30 2839 O 293.898 1.15146 7.95611 0
M  V30 2840 H 293.63 -0.235143 0.633785 0
M  V30 2841 H 296.184 -0.0703805 2.05279 0
M  V30 2842 H 294.414 -2.44437 2.99646 0
M  V30 2843 H 296.103 -2.25919 3.37217 0
M  V30 2844 H 296.869 -0.258246 4.84312 0
M  V30 2845 H 292.748 -1.39873 4.39268 0
M  V30 2846 H 296.292 0.964667 6.90898 0
M  V30 2847 H 292.189 -0.18247 6.45242 0
M  V30 2848 H 292.957 1.05885 8.11622 0
M  V30 2849 N 295.62 -1.53406 -0.361157 0
M  V30 2850 C 296.845 -1.74024 -1.12829 0
M  V30 2851 C 297.27 -0.470069 -1.82132 0
M  V30 2852 O 296.628 0.57619 -1.719 0
M  V30 2853 C 296.676 -2.90903 -2.13091 0
M  V30 2854 O 295.78 -2.59821 -3.20261 0
M  V30 2855 H 295.121 -0.577804 -0.327168 0
M  V30 2856 H 297.651 -2.00307 -0.41693 0
M  V30 2857 H 297.661 -3.17194 -2.56616 0
M  V30 2858 H 296.336 -3.83034 -1.62042 0
M  V30 2859 H 294.913 -2.44362 -2.81677 0
M  V30 2860 N 297.098 0.621204 -1.44841 0
M  V30 2861 C 298.375 1.38 -1.38619 0
M  V30 2862 C 298.755 2.11041 -0.0498935 0
M  V30 2863 O 298.103 2.06992 0.967816 0
M  V30 2864 C 298.313 2.33817 -2.59096 0
M  V30 2865 C 299.661 2.96844 -3.03593 0
M  V30 2866 O 300.685 2.44141 -2.59371 0
M  V30 2867 O 299.544 3.92476 -3.80296 0
M  V30 2868 H 296.638 0.61811 -0.549426 0
M  V30 2869 H 299.184 0.645429 -1.56947 0
M  V30 2870 H 297.956 1.79012 -3.47952 0
M  V30 2871 H 297.579 3.14676 -2.43032 0
M  V30 2872 N 298.576 1.31904 0.862503 0
M  V30 2873 C 299.824 1.21776 1.61292 0
M  V30 2874 C 300.145 -0.222413 1.93727 0
M  V30 2875 O 299.415 -1.1451 1.58947 0
M  V30 2876 H 297.995 0.447717 0.597962 0
M  V30 2877 H 300.657 1.65326 1.03215 0
M  V30 2878 H 299.753 1.7948 2.5533 0
M  V30 2879 N 300.054 -1.07777 1.14986 0
M  V30 2880 C 301.282 -1.84018 0.945773 0
M  V30 2881 C 301.697 -1.81897 -0.505863 0
M  V30 2882 O 301.054 -1.22726 -1.35072 0
M  V30 2883 C 301.105 -3.31287 1.44677 0
M  V30 2884 O 300.826 -3.33449 2.84154 0
M  V30 2885 C 302.327 -4.24311 1.28355 0
M  V30 2886 H 299.547 -0.580716 0.336169 0
M  V30 2887 H 302.091 -1.36077 1.52654 0
M  V30 2888 H 300.246 -3.76594 0.908625 0
M  V30 2889 H 300.66 -4.25427 3.06777 0
M  V30 2890 H 302.134 -5.2573 1.68261 0
M  V30 2891 H 302.611 -4.38612 0.227184 0
M  V30 2892 H 303.217 -3.84836 1.81056 0
M  V30 2893 N 301.532 -0.945985 -1.26051 0
M  V30 2894 C 302.943 -0.638096 -1.75457 0
M  V30 2895 C 303.294 0.846672 -1.76991 0
M  V30 2896 O 302.419 1.66262 -1.38513 0
M  V30 2897 C 303.014 -1.15157 -3.18629 0
M  V30 2898 C 301.573 -0.894004 -3.65629 0
M  V30 2899 C 300.72 -1.29967 -2.44957 0
M  V30 2900 H 303.671 -1.12376 -1.1206 0
M  V30 2901 H 303.692 -0.507615 -3.77099 0
M  V30 2902 H 303.204 -2.23222 -3.1748 0
M  V30 2903 H 301.305 0.172057 -3.72203 0
M  V30 2904 H 301.418 -1.52439 -4.54202 0
M  V30 2905 H 299.782 -0.718078 -2.44368 0
M  V30 2906 H 300.565 -2.38935 -2.46505 0
M  V30 2907 N 303.011 1.40521 -0.713556 0
M  V30 2908 C 304.257 2.01221 -0.252564 0
M  V30 2909 C 304.59 1.56444 1.1506 0
M  V30 2910 O 303.865 0.783597 1.78017 0
M  V30 2911 C 304.148 3.58582 -0.330332 0
M  V30 2912 C 304.001 4.13437 -1.77173 0
M  V30 2913 C 305.32 4.39079 0.299641 0
M  V30 2914 H 302.439 0.731077 -0.0932471 0
M  V30 2915 H 305.081 1.67026 -0.905673 0
M  V30 2916 H 303.231 3.87844 0.225737 0
M  V30 2917 H 304.903 3.9498 -2.38303 0
M  V30 2918 H 303.146 3.67801 -2.3001 0
M  V30 2919 H 303.817 5.22597 -1.77755 0
M  V30 2920 H 306.293 4.15735 -0.174139 0
M  V30 2921 H 305.169 5.4848 0.214771 0
M  V30 2922 H 305.43 4.19915 1.38288 0
M  V30 2923 N 304.489 0.459591 1.5075 0
M  V30 2924 C 305.437 -0.354678 2.2988 0
M  V30 2925 C 306.431 -1.00086 1.36672 0
M  V30 2926 O 307.637 -0.933277 1.53915 0
M  V30 2927 H 304.012 -0.13321 0.740107 0
M  V30 2928 H 305.983 0.333269 2.96533 0
M  V30 2929 C 304.732 -1.43073 3.169 0
M  V30 2930 H 304.055 -0.942882 3.88523 0
M  V30 2931 H 305.495 -1.97328 3.75284 0
M  V30 2932 C 303.954 -2.42633 2.33732 0
M  V30 2933 O 304.484 -3.47658 2.01238 0
M  V30 2934 N 302.69 -2.14066 1.9653 0
M  V30 2935 H 302.237 -1.28685 2.23155 0
M  V30 2936 H 302.195 -2.80917 1.41185 0
M  V30 2937 N 305.967 -1.56429 0.191757 0
M  V30 2938 C 307.197 -2.01574 -0.452928 0
M  V30 2939 C 307.605 -1.07107 -1.55964 0
M  V30 2940 O 306.948 -0.067534 -1.83576 0
M  V30 2941 C 307.01 -3.43121 -1.07278 0
M  V30 2942 C 306.674 -4.56879 -0.105214 0
M  V30 2943 C 307.671 -5.15379 0.684149 0
M  V30 2944 C 305.356 -5.023 0.00489824 0
M  V30 2945 C 307.35 -6.17746 1.57062 0
M  V30 2946 C 305.037 -6.04511 0.894935 0
M  V30 2947 C 306.035 -6.62108 1.67637 0
M  V30 2948 O 305.723 -7.62335 2.55149 0
M  V30 2949 H 305.455 -0.665554 -0.118379 0
M  V30 2950 H 308.009 -2.03245 0.296737 0
M  V30 2951 H 306.239 -3.38425 -1.87097 0
M  V30 2952 H 307.928 -3.72093 -1.62177 0
M  V30 2953 H 308.694 -4.81157 0.609365 0
M  V30 2954 H 304.573 -4.57168 -0.593156 0
M  V30 2955 H 308.117 -6.6263 2.181 0
M  V30 2956 H 304.014 -6.38157 0.970847 0
M  V30 2957 H 304.782 -7.79741 2.48892 0
M  V30 2958 N 307.445 0.0818655 -1.57387 0
M  V30 2959 C 308.673 0.796108 -1.9097 0
M  V30 2960 C 309.088 1.71626 -0.786757 0
M  V30 2961 O 308.445 1.80908 0.240513 0
M  V30 2962 C 308.496 1.59829 -3.24248 0
M  V30 2963 O 308.217 0.715131 -4.32224 0
M  V30 2964 C 309.718 2.41442 -3.7178 0
M  V30 2965 H 306.938 0.22691 -0.631469 0
M  V30 2966 H 309.482 0.0551439 -2.04426 0
M  V30 2967 H 307.637 2.29163 -3.12351 0
M  V30 2968 H 308.051 1.27205 -5.08841 0
M  V30 2969 H 309.525 2.932 -4.67694 0
M  V30 2970 H 310.002 3.2051 -3.00283 0
M  V30 2971 H 310.608 1.77283 -3.86589 0
M  V30 2972 N 308.923 1.53595 0.353017 0
M  V30 2973 C 309.871 1.81605 1.45335 0
M  V30 2974 C 310.865 0.685923 1.54892 0
M  V30 2975 O 312.071 0.869095 1.57628 0
M  V30 2976 H 308.446 0.575204 0.484401 0
M  V30 2977 H 310.417 2.73679 1.18921 0
M  V30 2978 C 309.166 2.03406 2.81995 0
M  V30 2979 H 308.489 2.89814 2.75405 0
M  V30 2980 H 309.929 2.26975 3.58132 0
M  V30 2981 C 308.388 0.816794 3.26849 0
M  V30 2982 O 308.918 0.0115856 4.01698 0
M  V30 2983 N 307.124 0.636682 2.8354 0
M  V30 2984 H 306.671 1.2931 2.22793 0
M  V30 2985 H 306.629 -0.176336 3.13905 0
M  V30 2986 N 310.401 -0.613514 1.45168 0
M  V30 2987 C 311.647 -1.37279 1.50087 0
M  V30 2988 C 312.002 -1.91902 0.138294 0
M  V30 2989 O 311.295 -1.71764 -0.84899 0
M  V30 2990 C 311.489 -2.54347 2.51083 0
M  V30 2991 C 311.318 -2.11186 3.97027 0
M  V30 2992 C 310.088 -1.97636 4.65046 0
M  V30 2993 C 312.286 -1.69016 4.85735 0
M  V30 2994 N 310.268 -1.48224 5.95737 0
M  V30 2995 C 311.639 -1.30976 6.06008 0
M  V30 2996 C 313.694 -1.56555 4.72647 0
M  V30 2997 C 312.397 -0.817197 7.14643 0
M  V30 2998 C 314.423 -1.08702 5.81324 0
M  V30 2999 C 313.785 -0.716233 7.00749 0
M  V30 3000 H 309.884 -0.496478 0.60418 0
M  V30 3001 H 312.468 -0.701988 1.81605 0
M  V30 3002 H 310.639 -3.19031 2.21527 0
M  V30 3003 H 312.371 -3.21208 2.46187 0
M  V30 3004 H 309.126 -2.18638 4.20112 0
M  V30 3005 H 309.55 -1.25767 6.65216 0
M  V30 3006 H 314.192 -1.83849 3.80736 0
M  V30 3007 H 311.91 -0.531797 8.06348 0
M  V30 3008 H 315.496 -0.994943 5.7323 0
M  V30 3009 H 314.376 -0.351642 7.83411 0
M  V30 3010 N 311.879 -1.3236 -0.855495 0
M  V30 3011 C 313.109 -1.25688 -1.6397 0
M  V30 3012 C 313.517 0.177592 -1.88365 0
M  V30 3013 O 312.86 1.12485 -1.45234 0
M  V30 3014 C 312.922 -1.94602 -3.02275 0
M  V30 3015 C 312.586 -3.43937 -3.00926 0
M  V30 3016 C 313.583 -4.39435 -2.77835 0
M  V30 3017 C 311.268 -3.85858 -3.21588 0
M  V30 3018 C 313.262 -5.74829 -2.75409 0
M  V30 3019 C 310.949 -5.21361 -3.18789 0
M  V30 3020 C 311.947 -6.15658 -2.95727 0
M  V30 3021 O 311.635 -7.48681 -2.928 0
M  V30 3022 H 311.367 -0.434972 -0.51747 0
M  V30 3023 H 313.921 -1.75023 -1.075 0
M  V30 3024 H 312.151 -1.39836 -3.60531 0
M  V30 3025 H 313.84 -1.81651 -3.62985 0
M  V30 3026 H 314.606 -4.08374 -2.6164 0
M  V30 3027 H 310.485 -3.12883 -3.38564 0
M  V30 3028 H 314.029 -6.48404 -2.57328 0
M  V30 3029 H 309.926 -5.52052 -3.34528 0
M  V30 3030 H 310.694 -7.5803 -3.0876 0
M  V30 3031 N 313.357 1.07166 -1.15556 0
M  V30 3032 C 314.773 1.31899 -0.898603 0
M  V30 3033 C 314.973 1.96333 0.453383 0
M  V30 3034 O 314.029 2.22438 1.19489 0
M  V30 3035 C 315.342 2.20826 -2.04099 0
M  V30 3036 C 316.89 2.34269 -2.07574 0
M  V30 3037 C 317.365 3.26546 -3.21141 0
M  V30 3038 N 318.856 3.34127 -3.20801 0
M  V30 3039 C 319.591 4.05595 -4.05315 0
M  V30 3040 N 319.087 4.79661 -4.99897 0
M  V30 3041 N 320.88 4.01555 -3.93332 0
M  V30 3042 H 313.031 0.637302 -2.02613 0
M  V30 3043 H 315.294 0.343468 -0.883591 0
M  V30 3044 H 315 1.80744 -3.01703 0
M  V30 3045 H 314.874 3.21364 -1.97496 0
M  V30 3046 H 317.261 2.73603 -1.10568 0
M  V30 3047 H 317.342 1.33429 -2.18244 0
M  V30 3048 H 316.986 2.87931 -4.184 0
M  V30 3049 H 316.916 4.27345 -3.07708 0
M  V30 3050 H 319.407 2.81336 -2.52306 0
M  V30 3051 H 319.72 5.31694 -5.60822 0
M  V30 3052 H 318.065 4.78671 -5.03884 0
M  V30 3053 H 321.256 3.42806 -3.18751 0
M  V30 3054 H 321.429 4.56987 -4.5942 0
M  V30 3055 N 314.835 0.952656 1.25548 0
M  V30 3056 C 316.083 0.605176 1.92826 0
M  V30 3057 C 316.404 -0.860261 1.74999 0
M  V30 3058 O 315.674 -1.6125 1.11244 0
M  V30 3059 H 314.254 0.220832 0.713612 0
M  V30 3060 H 316.916 1.21047 1.52754 0
M  V30 3061 H 316.012 0.832798 3.00784 0
M  V30 3062 N 316.313 -1.40141 0.720998 0
M  V30 3063 C 317.223 -2.34486 0.0731031 0
M  V30 3064 C 318.239 -1.57587 -0.737723 0
M  V30 3065 O 319.415 -1.89949 -0.669429 0
M  V30 3066 C 316.48 -3.36528 -0.833656 0
M  V30 3067 C 315.541 -4.29298 -0.0121673 0
M  V30 3068 C 314.774 -5.26466 -0.875742 0
M  V30 3069 O 314.997 -5.29745 -2.11485 0
M  V30 3070 O 313.931 -6.01092 -0.31185 0
M  V30 3071 H 317.757 -2.9152 0.851444 0
M  V30 3072 H 315.342 -1.41427 0.481527 0
M  V30 3073 H 317.224 -3.99093 -1.35289 0
M  V30 3074 H 315.899 -2.81899 -1.59105 0
M  V30 3075 H 314.806 -3.70001 0.552262 0
M  V30 3076 H 316.139 -4.87094 0.707129 0
M  V30 3077 N 317.792 -0.46758 -1.50504 0
M  V30 3078 C 319.203 -0.0116166 -1.86696 0
M  V30 3079 C 319.554 1.39202 -1.38265 0
M  V30 3080 O 318.679 2.0313 -0.746132 0
M  V30 3081 C 319.274 -0.0143044 -3.38797 0
M  V30 3082 C 317.833 0.386175 -3.74414 0
M  V30 3083 C 316.98 -0.401287 -2.74381 0
M  V30 3084 H 319.931 -0.682022 -1.43297 0
M  V30 3085 H 319.952 0.788641 -3.72237 0
M  V30 3086 H 319.464 -1.03602 -3.74016 0
M  V30 3087 H 317.565 1.41237 -3.44794 0
M  V30 3088 H 317.678 0.0899596 -4.79016 0
M  V30 3089 H 316.042 0.144536 -2.5429 0
M  V30 3090 H 316.825 -1.42244 -3.12444 0
M  V30 3091 N 319.27 1.56325 -0.20005 0
M  V30 3092 C 320.233 2.18084 0.705132 0
M  V30 3093 C 321.233 1.13666 1.1374 0
M  V30 3094 O 322.423 1.39023 1.04968 0
M  V30 3095 C 319.555 2.78689 1.96329 0
M  V30 3096 H 320.748 2.99435 0.167023 0
M  V30 3097 H 318.301 1.56221 0.0495725 0
M  V30 3098 H 319.036 2.0115 2.5438 0
M  V30 3099 H 318.821 3.55133 1.66202 0
M  V30 3100 H 320.311 3.26096 2.60866 0
M  V30 3101 N 320.748 -0.0735177 1.57428 0
M  V30 3102 C 321.996 -0.771472 1.86796 0
M  V30 3103 C 322.317 -1.78201 0.791804 0
M  V30 3104 O 321.587 -1.95074 -0.179718 0
M  V30 3105 H 320.167 -0.28791 0.689287 0
M  V30 3106 H 322.829 -0.0500161 1.94836 0
M  V30 3107 H 321.925 -1.28874 2.8425 0
M  V30 3108 N 322.226 -1.5378 -0.344866 0
M  V30 3109 C 323.642 -1.44015 -0.687888 0
M  V30 3110 C 323.842 -0.595834 -1.92489 0
M  V30 3111 O 322.898 -0.0863064 -2.52352 0
M  V30 3112 C 324.211 -2.87481 -0.881758 0
M  V30 3113 C 325.759 -2.97247 -0.980459 0
M  V30 3114 C 326.234 -4.41819 -1.20665 0
M  V30 3115 N 327.725 -4.45339 -1.27389 0
M  V30 3116 C 328.46 -5.54333 -1.46639 0
M  V30 3117 N 327.956 -6.73335 -1.63071 0
M  V30 3118 N 329.749 -5.41944 -1.49176 0
M  V30 3119 H 321.9 -2.07169 0.468475 0
M  V30 3120 H 324.163 -0.93643 0.147655 0
M  V30 3121 H 323.869 -3.51672 -0.0443444 0
M  V30 3122 H 323.743 -3.32352 -1.78388 0
M  V30 3123 H 326.13 -2.33197 -1.8084 0
M  V30 3124 H 326.211 -2.5574 -0.0552713 0
M  V30 3125 H 325.855 -5.06449 -0.383652 0
M  V30 3126 H 325.785 -4.80917 -2.14539 0
M  V30 3127 H 328.276 -3.59585 -1.1622 0
M  V30 3128 H 328.589 -7.52165 -1.77391 0
M  V30 3129 H 326.934 -6.76282 -1.60209 0
M  V30 3130 H 330.125 -4.47932 -1.3592 0
M  V30 3131 H 330.298 -6.26946 -1.63837 0
M  V30 3132 N 323.704 0.605807 -1.45491 0
M  V30 3133 C 324.952 1.36207 -1.49305 0
M  V30 3134 C 325.273 1.94519 -0.136863 0
M  V30 3135 O 324.543 1.77261 0.833983 0
M  V30 3136 H 323.123 0.50565 -0.549843 0
M  V30 3137 H 325.785 0.711239 -1.81459 0
M  V30 3138 H 324.881 2.18058 -2.23287 0
M  V30 3139 N 325.182 1.32811 0.848464 0
M  V30 3140 C 326.129 1.22265 1.95755 0
M  V30 3141 C 327.099 0.103413 1.65778 0
M  V30 3142 O 328.284 0.280033 1.88734 0
M  V30 3143 C 325.424 0.958014 3.31536 0
M  V30 3144 C 324.537 2.16262 3.73971 0
M  V30 3145 C 323.672 1.83295 4.98575 0
M  V30 3146 C 322.711 3.00041 5.33518 0
M  V30 3147 N 321.848 2.67125 6.49299 0
M  V30 3148 H 326.688 2.17128 2.04107 0
M  V30 3149 H 324.225 1.07982 0.998913 0
M  V30 3150 H 326.183 0.785052 4.09747 0
M  V30 3151 H 324.813 0.046159 3.22767 0
M  V30 3152 H 323.865 2.44565 2.91362 0
M  V30 3153 H 325.177 3.03572 3.95785 0
M  V30 3154 H 324.331 1.62586 5.84509 0
M  V30 3155 H 323.07 0.932078 4.7871 0
M  V30 3156 H 322.075 3.21374 4.46093 0
M  V30 3157 H 323.3 3.90869 5.55336 0
M  V30 3158 H 321.246 1.79586 6.3094 0
M  V30 3159 H 321.163 3.47965 6.71161 0
M  V30 3160 H 322.431 2.49861 7.3837 0
M  V30 3161 N 326.66 -1.06551 1.16123 0
M  V30 3162 C 327.57 -2.17484 0.879662 0
M  V30 3163 C 328.586 -1.73377 -0.147104 0
M  V30 3164 O 329.762 -2.01379 0.0289128 0
M  V30 3165 C 326.827 -3.44591 0.381829 0
M  V30 3166 C 325.888 -4.0322 1.4735 0
M  V30 3167 C 325.121 -5.24261 0.999324 0
M  V30 3168 O 325.344 -5.70198 -0.151957 0
M  V30 3169 O 324.278 -5.74775 1.78653 0
M  V30 3170 H 328.104 -2.44075 1.80724 0
M  V30 3171 H 325.689 -1.16042 0.940992 0
M  V30 3172 H 327.571 -4.21254 0.111053 0
M  V30 3173 H 326.246 -3.19532 -0.51777 0
M  V30 3174 H 325.153 -3.2806 1.79798 0
M  V30 3175 H 326.486 -4.32568 2.34831 0
M  V30 3176 N 328.138 -0.959301 -1.25041 0
M  V30 3177 C 329.07 -0.440543 -2.24926 0
M  V30 3178 C 330.083 0.446131 -1.56568 0
M  V30 3179 O 331.272 0.253657 -1.76689 0
M  V30 3180 C 328.372 0.38412 -3.36716 0
M  V30 3181 C 327.545 -0.490658 -4.34639 0
M  V30 3182 C 326.604 0.276587 -5.25473 0
M  V30 3183 O 325.63 -0.326614 -5.68262 0
M  V30 3184 N 326.832 1.56844 -5.5891 0
M  V30 3185 H 329.597 -1.29931 -2.70071 0
M  V30 3186 H 327.158 -0.830181 -1.38995 0
M  V30 3187 H 329.15 0.905228 -3.94446 0
M  V30 3188 H 327.72 1.14377 -2.90924 0
M  V30 3189 H 326.94 -1.19282 -3.7572 0
M  V30 3190 H 328.228 -1.08756 -4.97041 0
M  V30 3191 H 327.626 2.08036 -5.26059 0
M  V30 3192 H 326.183 2.03541 -6.19205 0
M  V30 3193 N 329.616 1.39756 -0.72842 0
M  V30 3194 C 330.856 2.025 -0.278078 0
M  V30 3195 C 331.22 1.5654 1.11173 0
M  V30 3196 O 332.421 2.11435 1.65978 0
M  V30 3197 C 330.692 3.55489 -0.369139 0
M  V30 3198 S 332.251 4.388 0.00232983 0
M  V30 3199 H 329.069 0.702534 -0.109391 0
M  V30 3200 H 331.671 1.70672 -0.95348 0
M  V30 3201 H 330.375 3.86429 -1.38204 0
M  V30 3202 H 329.906 3.92061 0.324308 0
M  V30 3203 H 331.921 4.80954 1.22055 0
M  V30 3204 N 331.094 0.475555 1.50254 0
M  V30 3205 C 332.34 -0.0780073 2.0265 0
M  V30 3206 C 332.673 -1.38968 1.35652 0
M  V30 3207 O 331.948 -1.8839 0.483691 0
M  V30 3208 C 332.231 -0.257161 3.59181 0
M  V30 3209 C 332.084 1.07585 4.36744 0
M  V30 3210 C 333.403 -1.00965 4.28362 0
M  V30 3211 H 330.522 -0.0268758 0.73651 0
M  V30 3212 H 333.164 0.622015 1.7953 0
M  V30 3213 H 331.314 -0.853412 3.79011 0
M  V30 3214 H 332.986 1.70902 4.28474 0
M  V30 3215 H 331.229 1.6714 4.00308 0
M  V30 3216 H 331.9 0.904088 5.44546 0
M  V30 3217 H 334.376 -0.504214 4.13034 0
M  V30 3218 H 333.252 -1.10381 5.37687 0
M  V30 3219 H 333.513 -2.04731 3.91839 0
M  V30 3220 N 332.573 -1.56217 0.208337 0
M  V30 3221 C 333.483 -2.23316 -0.718836 0
M  V30 3222 C 334.499 -1.23648 -1.22422 0
M  V30 3223 O 335.675 -1.56423 -1.26861 0
M  V30 3224 C 332.74 -2.88968 -1.91568 0
M  V30 3225 C 331.801 -4.03943 -1.45357 0
M  V30 3226 C 331.034 -4.66455 -2.59337 0
M  V30 3227 O 331.257 -4.27919 -3.77149 0
M  V30 3228 O 330.191 -5.55686 -2.31293 0
M  V30 3229 H 334.017 -3.03182 -0.177315 0
M  V30 3230 H 331.602 -1.49384 -0.0215402 0
M  V30 3231 H 333.484 -3.30455 -2.61491 0
M  V30 3232 H 332.159 -2.12071 -2.44556 0
M  V30 3233 H 331.066 -3.67052 -0.722746 0
M  V30 3234 H 332.399 -4.82543 -0.970219 0
M  V30 3235 N 334.051 0.0651679 -1.57465 0
M  V30 3236 C 334.984 1.10876 -1.99453 0
M  V30 3237 C 335.962 1.37205 -0.872555 0
M  V30 3238 O 337.146 1.50468 -1.13542 0
M  V30 3239 C 334.273 2.45167 -2.3369 0
M  V30 3240 C 333.319 2.3493 -3.55964 0
M  V30 3241 S 334.152 1.73708 -5.06543 0
M  V30 3242 C 335.308 3.09563 -5.43987 0
M  V30 3243 H 335.541 0.750967 -2.87659 0
M  V30 3244 H 333.074 0.273933 -1.51951 0
M  V30 3245 H 335.032 3.22412 -2.54088 0
M  V30 3246 H 333.693 2.78105 -1.46001 0
M  V30 3247 H 332.886 3.3398 -3.77457 0
M  V30 3248 H 332.488 1.65823 -3.3523 0
M  V30 3249 H 334.78 4.05882 -5.42463 0
M  V30 3250 H 335.723 2.92843 -6.44708 0
M  V30 3251 H 336.131 3.10474 -4.71451 0
M  V30 3252 N 335.529 1.53961 0.336706 0
M  V30 3253 C 336.759 1.75229 1.09446 0
M  V30 3254 C 337.167 0.494602 1.82621 0
M  V30 3255 O 336.51 -0.543764 1.75468 0
M  V30 3256 C 336.572 2.88288 2.1478 0
M  V30 3257 C 336.236 4.27656 1.6112 0
M  V30 3258 C 337.233 5.08981 1.0599 0
M  V30 3259 C 334.918 4.74161 1.6576 0
M  V30 3260 C 336.912 6.34916 0.562129 0
M  V30 3261 C 334.599 6.00067 1.15595 0
M  V30 3262 C 335.597 6.80278 0.609147 0
M  V30 3263 O 335.285 8.03818 0.114999 0
M  V30 3264 H 335.017 0.588881 0.331956 0
M  V30 3265 H 337.571 2.01614 0.392566 0
M  V30 3266 H 335.801 2.57443 2.88548 0
M  V30 3267 H 337.49 2.97461 2.76174 0
M  V30 3268 H 338.256 4.74213 1.01722 0
M  V30 3269 H 334.135 4.11781 2.07261 0
M  V30 3270 H 337.679 6.9747 0.134668 0
M  V30 3271 H 333.576 6.3433 1.19566 0
M  V30 3272 H 334.344 8.18172 0.231651 0
M  V30 3273 N 337.007 -0.598083 1.45811 0
M  V30 3274 C 338.235 -1.38322 1.53866 0
M  V30 3275 C 338.65 -1.87992 0.174479 0
M  V30 3276 O 338.007 -1.62756 -0.825627 0
M  V30 3277 C 338.058 -2.58125 2.53089 0
M  V30 3278 O 337.779 -2.10516 3.84206 0
M  V30 3279 C 339.28 -3.50869 2.70935 0
M  V30 3280 H 336.5 -0.423093 0.520801 0
M  V30 3281 H 339.044 -0.728527 1.91083 0
M  V30 3282 H 337.199 -3.19615 2.18917 0
M  V30 3283 H 337.613 -2.88425 4.38077 0
M  V30 3284 H 339.087 -4.31451 3.44317 0
M  V30 3285 H 339.564 -4.01822 1.77301 0
M  V30 3286 H 340.17 -2.95225 3.06141 0
M  V30 3287 N 338.485 -1.33259 -0.841409 0
M  V30 3288 C 339.762 -1.15174 -1.58096 0
M  V30 3289 C 340.142 0.282858 -2.09196 0
M  V30 3290 O 339.49 1.28151 -1.89181 0
M  V30 3291 C 339.7 -2.1907 -2.71679 0
M  V30 3292 C 341.048 -2.53093 -3.40924 0
M  V30 3293 O 342.072 -2.17717 -2.81918 0
M  V30 3294 O 340.931 -3.1379 -4.47435 0
M  V30 3295 H 338.025 -0.445303 -0.696875 0
M  V30 3296 H 340.571 -1.44833 -0.884385 0
M  V30 3297 H 339.343 -3.15443 -2.31541 0
M  V30 3298 H 338.966 -1.90481 -3.49002 0
M  V30 3299 N 339.963 1.05934 -1.16686 0
M  V30 3300 C 341.211 1.78447 -0.948744 0
M  V30 3301 C 341.532 1.87813 0.524523 0
M  V30 3302 O 340.802 1.38945 1.38098 0
M  V30 3303 H 339.382 0.660971 -0.348033 0
M  V30 3304 H 342.044 1.27947 -1.47022 0
M  V30 3305 H 341.14 2.80394 -1.37061 0
M  V30 3306 N 341.441 0.965919 1.2453 0
M  V30 3307 C 342.373 0.452465 2.2469 0
M  V30 3308 C 343.386 -0.437821 1.56802 0
M  V30 3309 O 344.575 -0.244283 1.76821 0
M  V30 3310 C 341.675 -0.366258 3.36915 0
M  V30 3311 C 340.848 0.513701 4.34373 0
M  V30 3312 C 339.907 -0.248716 5.25612 0
M  V30 3313 O 338.933 0.356745 5.68081 0
M  V30 3314 N 340.135 -1.53877 5.59734 0
M  V30 3315 H 342.9 1.31361 2.69378 0
M  V30 3316 H 340.461 0.837541 1.38553 0
M  V30 3317 H 342.453 -0.884297 3.94921 0
M  V30 3318 H 341.023 -1.12832 2.91526 0
M  V30 3319 H 340.243 1.21273 3.75082 0
M  V30 3320 H 341.531 1.11391 4.96457 0
M  V30 3321 H 340.929 -2.05243 5.27154 0
M  V30 3322 H 339.486 -2.00254 6.20275 0
M  V30 3323 N 342.919 -1.39368 0.735821 0
M  V30 3324 C 344.165 -2.01272 0.293439 0
M  V30 3325 C 344.52 -1.57344 -1.10728 0
M  V30 3326 O 343.813 -0.792744 -1.74431 0
M  V30 3327 C 344.007 -3.5583 0.334651 0
M  V30 3328 C 343.836 -4.14764 1.73784 0
M  V30 3329 C 342.606 -4.47315 2.35026 0
M  V30 3330 C 344.804 -4.38246 2.69157 0
M  V30 3331 N 342.786 -4.91756 3.6749 0
M  V30 3332 C 344.157 -4.849 3.86357 0
M  V30 3333 C 346.212 -4.20315 2.66908 0
M  V30 3334 C 344.915 -5.15505 5.01645 0
M  V30 3335 C 346.941 -4.52033 3.8134 0
M  V30 3336 C 346.303 -4.98895 4.97276 0
M  V30 3337 H 342.402 -0.766756 0.153652 0
M  V30 3338 H 344.986 -1.69276 0.961967 0
M  V30 3339 H 343.157 -3.87212 -0.303527 0
M  V30 3340 H 344.889 -4.04503 -0.126358 0
M  V30 3341 H 341.644 -4.35143 1.86943 0
M  V30 3342 H 342.068 -5.18333 4.35499 0
M  V30 3343 H 346.71 -3.83287 1.78468 0
M  V30 3344 H 344.428 -5.51437 5.90713 0
M  V30 3345 H 348.014 -4.39781 3.80899 0
M  V30 3346 H 346.894 -5.22973 5.84353 0
M  V30 3347 N 344.397 -0.483516 -1.5 0
M  V30 3348 C 345.345 0.318061 -2.30415 0
M  V30 3349 C 346.339 0.978988 -1.38247 0
M  V30 3350 O 347.545 0.908673 -1.55381 0
M  V30 3351 H 343.92 0.121419 -0.742133 0
M  V30 3352 H 345.891 -0.380403 -2.95965 0
M  V30 3353 C 344.64 1.38013 -3.19136 0
M  V30 3354 H 343.963 0.880952 -3.89973 0
M  V30 3355 H 345.403 1.91332 -3.78375 0
M  V30 3356 C 343.862 2.38884 -2.37563 0
M  V30 3357 O 344.392 3.44412 -2.06744 0
M  V30 3358 N 342.598 2.10912 -1.99911 0
M  V30 3359 H 342.145 1.25118 -2.25174 0
M  V30 3360 H 342.103 2.78635 -1.45636 0
M  V30 3361 N 345.875 1.56104 -0.216619 0
M  V30 3362 C 347.152 1.89988 0.465165 0
M  V30 3363 C 347.532 1.13326 1.78102 0
M  V30 3364 O 346.88 0.241033 2.27225 0
M  V30 3365 C 347.09 3.42646 0.662939 0
M  V30 3366 C 348.438 4.13311 0.972602 0
M  V30 3367 O 349.462 3.48217 0.749901 0
M  V30 3368 O 348.321 5.28396 1.39499 0
M  V30 3369 H 345.415 0.78979 0.245276 0
M  V30 3370 H 347.961 1.67721 -0.258436 0
M  V30 3371 H 346.733 3.90399 -0.26543 0
M  V30 3372 H 346.356 3.70677 1.43821 0
M  V30 3373 N 347.353 -0.0568162 1.57498 0
M  V30 3374 C 348.769 -0.411933 1.54192 0
M  V30 3375 C 348.969 -1.78287 0.938942 0
M  V30 3376 O 348.025 -2.46483 0.547919 0
M  V30 3377 C 349.338 -0.339244 2.9878 0
M  V30 3378 C 350.886 -0.418348 3.10192 0
M  V30 3379 C 351.361 -0.375407 4.56459 0
M  V30 3380 N 352.852 -0.435038 4.61153 0
M  V30 3381 C 353.587 -0.424265 5.71828 0
M  V30 3382 N 353.083 -0.367418 6.91825 0
M  V30 3383 N 354.876 -0.471938 5.60115 0
M  V30 3384 H 347.027 0.840684 1.95055 0
M  V30 3385 H 349.29 0.316987 0.893433 0
M  V30 3386 H 348.996 0.601742 3.46514 0
M  V30 3387 H 348.87 -1.14371 3.59443 0
M  V30 3388 H 351.257 -1.34976 2.62422 0
M  V30 3389 H 351.338 0.414962 2.52412 0
M  V30 3390 H 350.982 0.552219 5.04889 0
M  V30 3391 H 350.912 -1.22645 5.12119 0
M  V30 3392 H 353.403 -0.482612 3.74806 0
M  V30 3393 H 353.716 -0.363535 7.71944 0
M  V30 3394 H 352.061 -0.333879 6.94198 0
M  V30 3395 H 355.252 -0.514145 4.65268 0
M  V30 3396 H 355.425 -0.460073 6.46365 0
M  V30 3397 N 348.832 -1.54138 -0.328536 0
M  V30 3398 C 349.78 -1.83894 -1.42428 0
M  V30 3399 C 350.774 -0.710478 -1.53781 0
M  V30 3400 O 351.98 -0.894062 -1.56226 0
M  V30 3401 H 348.355 -0.582837 -0.475189 0
M  V30 3402 H 350.326 -2.75537 -1.14552 0
M  V30 3403 C 349.075 -2.07866 -2.78724 0
M  V30 3404 H 348.398 -2.94158 -2.7076 0
M  V30 3405 H 349.838 -2.32644 -3.54476 0
M  V30 3406 C 348.297 -0.868689 -3.25508 0
M  V30 3407 O 348.827 -0.0754908 -4.01629 0
M  V30 3408 N 347.033 -0.681711 -2.82491 0
M  V30 3409 H 346.58 -1.32838 -2.20708 0
M  V30 3410 H 346.538 0.126374 -3.14146 0
M  V30 3411 N 350.31 0.590341 -1.46126 0
M  V30 3412 C 351.55 1.35995 -1.52593 0
M  V30 3413 C 351.914 1.91243 -0.170368 0
M  V30 3414 O 353.115 2.68576 -0.109775 0
M  V30 3415 C 351.386 2.46465 -2.58823 0
M  V30 3416 S 352.945 3.33953 -2.84641 0
M  V30 3417 H 349.763 0.463425 -0.53922 0
M  V30 3418 H 352.365 0.67944 -1.83314 0
M  V30 3419 H 351.069 2.04256 -3.5596 0
M  V30 3420 H 350.6 3.19297 -2.2981 0
M  V30 3421 H 352.615 4.45094 -2.19331 0
M  V30 3422 N 351.788 1.33704 0.83433 0
M  V30 3423 C 352.718 1.26967 1.95963 0
M  V30 3424 C 353.699 0.149337 1.69443 0
M  V30 3425 O 354.884 0.339852 1.91203 0
M  V30 3426 C 352.014 1.01275 3.32206 0
M  V30 3427 C 350.968 2.09652 3.73136 0
M  V30 3428 C 350.294 1.69166 5.07235 0
M  V30 3429 C 351.594 3.51372 3.86439 0
M  V30 3430 H 353.288 2.2112 2.01857 0
M  V30 3431 H 350.834 1.06447 0.969793 0
M  V30 3432 H 352.787 0.952106 4.10503 0
M  V30 3433 H 351.511 0.0356203 3.26581 0
M  V30 3434 H 350.17 2.14766 2.97104 0
M  V30 3435 H 349.818 0.701437 4.98085 0
M  V30 3436 H 349.518 2.41694 5.35591 0
M  V30 3437 H 351.042 1.64576 5.88003 0
M  V30 3438 H 352.456 3.48734 4.55036 0
M  V30 3439 H 350.853 4.22425 4.26236 0
M  V30 3440 H 351.923 3.89546 2.88759 0
M  V30 3441 N 353.266 -1.05314 1.17247 0
M  V30 3442 C 354.496 -1.81707 0.983166 0
M  V30 3443 C 354.904 -1.83222 -0.471822 0
M  V30 3444 O 354.247 -1.25721 -1.3394 0
M  V30 3445 C 354.309 -3.29134 1.44606 0
M  V30 3446 C 353.973 -3.51304 2.92292 0
M  V30 3447 C 354.97 -3.4353 3.90235 0
M  V30 3448 C 352.655 -3.78306 3.30439 0
M  V30 3449 C 354.649 -3.62442 5.24323 0
M  V30 3450 C 352.336 -3.96866 4.64694 0
M  V30 3451 C 353.334 -3.88933 5.61445 0
M  V30 3452 O 353.022 -4.06976 6.93272 0
M  V30 3453 H 352.754 -0.579476 0.348114 0
M  V30 3454 H 355.308 -1.33705 1.55924 0
M  V30 3455 H 353.538 -3.78046 0.813537 0
M  V30 3456 H 355.227 -3.87049 1.22262 0
M  V30 3457 H 355.993 -3.22648 3.62109 0
M  V30 3458 H 351.872 -3.83585 2.55702 0
M  V30 3459 H 355.416 -3.56165 5.99827 0
M  V30 3460 H 351.313 -4.1724 4.92525 0
M  V30 3461 H 352.081 -4.24209 6.99992 0
M  V30 3462 N 354.744 -0.972509 -1.24016 0
M  V30 3463 C 355.969 -0.654417 -1.96805 0
M  V30 3464 C 356.394 0.770398 -1.716 0
M  V30 3465 O 355.752 1.52361 -0.982647 0
M  V30 3466 C 355.8 -0.941031 -3.48105 0
M  V30 3467 O 354.904 -0.0289472 -4.1239 0
M  V30 3468 H 354.245 -0.24692 -0.616382 0
M  V30 3469 H 356.775 -1.30396 -1.57664 0
M  V30 3470 H 356.785 -0.87452 -3.98517 0
M  V30 3471 H 355.46 -1.97939 -3.65777 0
M  V30 3472 H 354.037 -0.149192 -3.72601 0
M  V30 3473 N 356.222 1.38976 -0.743202 0
M  V30 3474 C 357.638 1.53984 -0.419664 0
M  V30 3475 C 357.838 1.70837 1.0685 0
M  V30 3476 O 356.894 1.7135 1.8546 0
M  V30 3477 C 358.207 2.75287 -1.20985 0
M  V30 3478 C 359.755 2.89129 -1.19889 0
M  V30 3479 C 360.23 4.13381 -1.97181 0
M  V30 3480 N 361.721 4.20437 -1.94389 0
M  V30 3481 C 362.456 5.15547 -2.50996 0
M  V30 3482 N 361.952 6.16395 -3.16274 0
M  V30 3483 N 363.745 5.07822 -2.40984 0
M  V30 3484 H 355.896 1.26285 -1.7078 0
M  V30 3485 H 358.159 0.612689 -0.723406 0
M  V30 3486 H 357.865 2.69204 -2.26323 0
M  V30 3487 H 357.739 3.68184 -0.819759 0
M  V30 3488 H 360.126 2.947 -0.153606 0
M  V30 3489 H 360.207 1.97272 -1.62841 0
M  V30 3490 H 359.851 4.08572 -3.01714 0
M  V30 3491 H 359.781 5.04298 -1.51629 0
M  V30 3492 H 362.272 3.48205 -1.46839 0
M  V30 3493 H 362.585 6.85443 -3.56915 0
M  V30 3494 H 360.93 6.16758 -3.20367 0
M  V30 3495 H 364.121 4.27973 -1.89622 0
M  V30 3496 H 364.294 5.81767 -2.85397 0
M  V30 3497 N 357.7 0.491464 1.49741 0
M  V30 3498 C 358.63 -0.28154 2.31796 0
M  V30 3499 C 359.611 -0.971473 1.3963 0
M  V30 3500 O 360.796 -0.964719 1.68543 0
M  V30 3501 C 357.926 -1.35203 3.19902 0
M  V30 3502 C 356.88 -0.782529 4.20786 0
M  V30 3503 C 356.206 -1.95283 4.97764 0
M  V30 3504 C 357.506 0.21999 5.21837 0
M  V30 3505 H 359.2 0.403355 2.96671 0
M  V30 3506 H 356.746 0.195425 1.42668 0
M  V30 3507 H 358.699 -1.90045 3.76113 0
M  V30 3508 H 357.423 -2.06598 2.52953 0
M  V30 3509 H 356.082 -0.255928 3.65706 0
M  V30 3510 H 355.73 -2.65423 4.2727 0
M  V30 3511 H 355.43 -1.57789 5.66018 0
M  V30 3512 H 356.954 -2.50577 5.56816 0
M  V30 3513 H 358.368 -0.23996 5.72798 0
M  V30 3514 H 356.765 0.51026 5.97927 0
M  V30 3515 H 357.835 1.13911 4.7133 0
M  V30 3516 N 359.178 -1.55987 0.224894 0
M  V30 3517 C 360.406 -2.02784 -0.410665 0
M  V30 3518 C 360.821 -1.10464 -1.53112 0
M  V30 3519 O 360.178 -0.114871 -1.82138 0
M  V30 3520 C 360.229 -3.49087 -0.939165 0
M  V30 3521 O 359.95 -4.37887 0.136614 0
M  V30 3522 C 361.451 -4.11543 -1.64763 0
M  V30 3523 H 358.671 -0.663484 -0.100148 0
M  V30 3524 H 361.215 -2.01614 0.342326 0
M  V30 3525 H 359.37 -3.50861 -1.64242 0
M  V30 3526 H 359.784 -5.23849 -0.261155 0
M  V30 3527 H 361.258 -5.15673 -1.96939 0
M  V30 3528 H 361.735 -3.56736 -2.56195 0
M  V30 3529 H 362.341 -4.13629 -0.989503 0
M  V30 3530 N 360.656 0.0484629 -1.57525 0
M  V30 3531 C 361.905 0.742065 -1.87553 0
M  V30 3532 C 362.218 1.77545 -0.820802 0
M  V30 3533 O 363.424 2.52027 -1.00967 0
M  V30 3534 C 361.88 1.37081 -3.32771 0
M  V30 3535 C 361.488 0.374786 -4.4643 0
M  V30 3536 C 363.232 2.04542 -3.71972 0
M  V30 3537 C 361.139 1.01077 -5.82698 0
M  V30 3538 H 360.069 0.280903 -0.699721 0
M  V30 3539 H 362.72 -0.00411877 -1.835 0
M  V30 3540 H 361.102 2.16605 -3.31509 0
M  V30 3541 H 362.276 -0.392331 -4.59127 0
M  V30 3542 H 360.591 -0.196653 -4.15935 0
M  V30 3543 H 363.188 2.52943 -4.71088 0
M  V30 3544 H 363.531 2.85515 -3.02964 0
M  V30 3545 H 364.064 1.31819 -3.75325 0
M  V30 3546 H 360.803 0.240878 -6.55057 0
M  V30 3547 H 360.323 1.74819 -5.73758 0
M  V30 3548 H 362.002 1.52383 -6.28799 0
M  V30 3549 N 362.134 1.5431 0.320358 0
M  V30 3550 C 363.374 1.74395 1.0661 0
M  V30 3551 C 363.738 0.508602 1.85141 0
M  V30 3552 O 364.939 0.586856 2.62316 0
M  V30 3553 C 363.21 2.98619 1.96371 0
M  V30 3554 S 364.769 3.39621 2.77854 0
M  V30 3555 H 361.587 0.613204 0.359863 0
M  V30 3556 H 364.189 1.9249 0.341727 0
M  V30 3557 H 362.893 3.86673 1.3752 0
M  V30 3558 H 362.424 2.83055 2.73209 0
M  V30 3559 H 364.439 2.95172 3.98858 0
M  V30 3560 N 363.613 -0.582584 1.46437 0
M  V30 3561 C 364.523 -1.71949 1.59595 0
M  V30 3562 C 365.539 -1.67264 0.479443 0
M  V30 3563 O 366.715 -1.87171 0.743579 0
M  V30 3564 C 363.78 -3.08452 1.58298 0
M  V30 3565 C 362.841 -3.244 2.81182 0
M  V30 3566 C 362.074 -4.54391 2.79937 0
M  V30 3567 O 362.297 -5.38287 1.8869 0
M  V30 3568 O 361.231 -4.73588 3.71481 0
M  V30 3569 H 365.057 -1.63795 2.55744 0
M  V30 3570 H 362.642 -0.749643 1.29231 0
M  V30 3571 H 364.524 -3.89732 1.60271 0
M  V30 3572 H 363.199 -3.17043 0.653094 0
M  V30 3573 H 362.106 -2.42613 2.84763 0
M  V30 3574 H 363.439 -3.20699 3.7338 0
M  V30 3575 N 365.091 -1.34144 -0.827227 0
M  V30 3576 C 366.338 -1.26258 -1.58319 0
M  V30 3577 C 366.666 0.168595 -1.93768 0
M  V30 3578 O 365.921 1.12877 -1.59866 0
M  V30 3579 C 366.22 -2.09464 -2.89585 0
M  V30 3580 C 365.886 -3.58521 -2.73448 0
M  V30 3581 C 364.548 -3.99155 -2.68754 0
M  V30 3582 C 366.9 -4.53189 -2.57428 0
M  V30 3583 C 364.228 -5.32656 -2.45957 0
M  V30 3584 C 366.58 -5.86864 -2.36163 0
M  V30 3585 C 365.244 -6.26667 -2.29879 0
M  V30 3586 H 364.514 -0.462013 -0.579332 0
M  V30 3587 H 367.161 -1.65845 -0.95748 0
M  V30 3588 H 365.466 -1.62692 -3.56425 0
M  V30 3589 H 367.163 -2.00712 -3.47154 0
M  V30 3590 H 363.753 -3.26264 -2.77939 0
M  V30 3591 H 367.937 -4.22696 -2.60081 0
M  V30 3592 H 363.193 -5.62519 -2.39546 0
M  V30 3593 H 367.367 -6.59813 -2.22754 0
M  V30 3594 H 364.994 -7.30049 -2.11975 0
M  V30 3595 O 366.608 0.965494 -1.29462 0
M  V30 3596 H 367.299 1.59208 -1.10329 0
M  V30 END ATOM
M  V30 BEGIN BOND
M  V30 END BOND
M  V30 END CTAB
M  END
$$$$
