drugbank_target|Q8IWU9 Tryptophan 5-hydroxylase 2 (DB12095)
 OpenBabel12092119233D

  0  0  0     0  0            999 V3000
M  V30 BEGIN CTAB
M  V30 COUNTS 7820 7909 0 0 0
M  V30 BEGIN ATOM
M  V30 1 H -0.908 1.98254 -0.117106 0
M  V30 2 N 0 1.576 0 0
M  V30 3 C 0.933 2.03868 1.02534 0
M  V30 4 C 1.911 0.928543 1.3348 0
M  V30 5 O 3.095 1.19667 1.45644 0
M  V30 6 C 0.222 2.43627 2.35294 0
M  V30 7 C -0.732 3.65373 2.2001 0
M  V30 8 S 0.101 5.13292 1.52614 0
M  V30 9 C 1.257 5.56322 2.86805 0
M  V30 10 H 1.49 2.90518 0.631377 0
M  V30 11 H -0.977 1.52953 0.210867 0
M  V30 12 H 0.981 2.67203 3.11629 0
M  V30 13 H -0.358 1.57376 2.7183 0
M  V30 14 H -1.165 3.90944 3.18086 0
M  V30 15 H -1.563 3.418 1.51819 0
M  V30 16 H 0.729 5.58782 3.83104 0
M  V30 17 H 1.672 6.56266 2.65933 0
M  V30 18 H 2.08 4.83886 2.90714 0
M  V30 19 N 1.4781 -0.272755 1.55222 0
M  V30 20 C 2.4101 -1.35946 1.8453 0
M  V30 21 C 3.4231 -1.45525 0.729818 0
M  V30 22 O 4.6121 -1.47337 1.00767 0
M  V30 23 C 1.7121 -2.74069 1.99347 0
M  V30 24 C 0.8851 -2.87079 3.30007 0
M  V30 25 C -0.0559 -4.05879 3.34886 0
M  V30 26 O -1.0299 -3.96626 4.08261 0
M  V30 27 N 0.1721 -5.17857 2.62307 0
M  V30 28 H 2.9371 -1.11149 2.78327 0
M  V30 29 H 0.4981 -0.462869 1.55142 0
M  V30 30 H 2.4901 -3.51838 1.99981 0
M  V30 31 H 1.0601 -2.91688 1.12415 0
M  V30 32 H 0.2801 -1.96193 3.41909 0
M  V30 33 H 1.5681 -2.92701 4.16177 0
M  V30 34 H 0.9661 -5.28261 2.02377 0
M  V30 35 H -0.4769 -5.93855 2.68663 0
M  V30 36 N 2.9562 -1.48159 -0.537278 0
M  V30 37 C 4.3672 -1.49429 -1.11928 0
M  V30 38 C 4.7182 -0.26 -1.9447 0
M  V30 39 O 3.8432 0.633489 -2.0692 0
M  V30 40 C 4.4382 -2.70758 -2.03656 0
M  V30 41 C 2.9972 -2.74923 -2.57088 0
M  V30 42 C 2.1442 -2.42835 -1.3389 0
M  V30 43 H 5.0952 -1.55381 -0.322886 0
M  V30 44 H 5.1162 -2.48861 -2.87834 0
M  V30 45 H 4.6282 -3.60575 -1.43553 0
M  V30 46 H 2.7292 -1.89296 -3.20933 0
M  V30 47 H 2.8422 -3.76157 -2.9672 0
M  V30 48 H 1.2062 -1.93836 -1.65226 0
M  V30 49 H 1.9892 -3.34884 -0.755504 0
M  V30 50 N 4.4343 0.785586 -1.36625 0
M  V30 51 C 5.3973 1.87999 -1.31107 0
M  V30 52 C 6.3973 1.59316 -0.217959 0
M  V30 53 O 7.5873 1.67656 -0.472977 0
M  V30 54 C 4.7193 3.24861 -1.03334 0
M  V30 55 H 5.9123 1.94307 -2.2844 0
M  V30 56 H 3.4653 0.983813 -1.21453 0
M  V30 57 H 4.2003 3.24235 -0.0647432 0
M  V30 58 H 3.9853 3.4707 -1.82441 0
M  V30 59 H 5.4753 4.04929 -1.02088 0
M  V30 60 N 5.9124 1.20967 1.01018 0
M  V30 61 C 6.8454 0.907578 2.09376 0
M  V30 62 C 7.8234 -0.142868 1.61971 0
M  V30 63 O 9.0074 -0.0150391 1.88494 0
M  V30 64 C 6.1344 0.361791 3.36762 0
M  V30 65 C 5.1804 1.39423 4.03068 0
M  V30 66 S 6.0134 2.96159 4.4615 0
M  V30 67 C 7.1694 2.43173 5.7673 0
M  V30 68 H 7.4024 1.82519 2.34678 0
M  V30 69 H 4.9354 1.03884 1.14225 0
M  V30 70 H 6.8934 0.0534523 4.10465 0
M  V30 71 H 5.5544 -0.53443 3.0952 0
M  V30 72 H 4.7474 0.961853 4.94737 0
M  V30 73 H 4.3494 1.65038 3.35617 0
M  V30 74 H 6.6414 1.83335 6.52223 0
M  V30 75 H 7.5844 3.33264 6.24773 0
M  V30 76 H 7.9924 1.85069 5.33301 0
M  V30 77 N 7.3905 -1.2043 1.01659 0
M  V30 78 C 8.3235 -2.21924 0.531521 0
M  V30 79 C 9.3015 -1.57054 -0.421032 0
M  V30 80 O 10.4855 -1.85389 -0.341035 0
M  V30 81 C 7.6125 -3.37942 -0.226496 0
M  V30 82 C 6.6585 -4.21115 0.67561 0
M  V30 83 S 7.4915 -4.90674 2.14475 0
M  V30 84 C 8.6475 -6.10113 1.3969 0
M  V30 85 H 8.8805 -2.62725 1.3915 0
M  V30 86 H 6.4135 -1.30481 0.825479 0
M  V30 87 H 8.3715 -4.05196 -0.657738 0
M  V30 88 H 7.0325 -2.956 -1.06205 0
M  V30 89 H 6.2255 -5.03918 0.091108 0
M  V30 90 H 5.8275 -3.59115 1.04463 0
M  V30 91 H 8.1195 -6.7411 0.676897 0
M  V30 92 H 9.0625 -6.73022 2.20107 0
M  V30 93 H 9.4705 -5.57283 0.899786 0
M  V30 94 N 8.8686 -0.792821 -1.36206 0
M  V30 95 C 9.8016 -0.139422 -2.27774 0
M  V30 96 C 10.7796 0.68649 -1.47398 0
M  V30 97 O 11.9636 0.656738 -1.7669 0
M  V30 98 C 9.0906 0.807947 -3.28922 0
M  V30 99 C 8.1366 0.0633999 -4.26453 0
M  V30 100 S 8.9696 -1.26319 -5.20388 0
M  V30 101 C 10.1256 -0.31991 -6.25082 0
M  V30 102 H 10.3586 -0.915809 -2.82843 0
M  V30 103 H 7.8916 -0.587203 -1.42798 0
M  V30 104 H 9.8496 1.34908 -3.87699 0
M  V30 105 H 8.5106 1.55761 -2.72759 0
M  V30 106 H 7.7036 0.782386 -4.9789 0
M  V30 107 H 7.3056 -0.407352 -3.71775 0
M  V30 108 H 9.5976 0.499985 -6.75653 0
M  V30 109 H 10.5406 -1.00307 -7.00959 0
M  V30 110 H 10.9486 0.0782694 -5.64446 0
M  V30 111 N 10.3467 1.47872 -0.545128 0
M  V30 112 C 11.5937 2.02493 -0.0165858 0
M  V30 113 C 11.9217 1.42073 1.32836 0
M  V30 114 O 11.1767 0.561459 1.87473 0
M  V30 115 C 11.4757 3.57131 0.13867 0
M  V30 116 C 11.1417 4.36411 -1.13384 0
M  V30 117 C 9.8037 4.57792 -1.48256 0
M  V30 118 C 12.1557 4.82223 -1.97764 0
M  V30 119 C 9.4837 5.22233 -2.67376 0
M  V30 120 C 11.8357 5.47977 -3.16076 0
M  V30 121 C 10.4997 5.67593 -3.51275 0
M  V30 122 H 9.7697 0.740975 -0.00606918 0
M  V30 123 H 12.4167 1.77683 -0.714207 0
M  V30 124 H 10.7217 3.80865 0.919172 0
M  V30 125 H 12.4187 3.97031 0.562782 0
M  V30 126 H 9.0087 4.2004 -0.852297 0
M  V30 127 H 13.1927 4.65493 -1.72132 0
M  V30 128 H 8.4487 5.35616 -2.94831 0
M  V30 129 H 12.6227 5.8244 -3.81755 0
M  V30 130 H 10.2497 6.17298 -4.43675 0
M  V30 131 N 11.8248 0.280983 1.55075 0
M  V30 132 C 13.0498 -0.340154 2.04592 0
M  V30 133 C 13.4748 -1.48246 1.15779 0
M  V30 134 O 12.8328 -1.80614 0.15761 0
M  V30 135 C 12.8808 -0.793104 3.5177 0
M  V30 136 O 11.9848 -1.89981 3.66034 0
M  V30 137 H 11.3258 -0.0694289 0.66036 0
M  V30 138 H 13.8558 0.416993 2.00306 0
M  V30 139 H 13.8658 -1.08729 3.93245 0
M  V30 140 H 12.5408 0.0426163 4.15878 0
M  V30 141 H 11.1178 -1.60771 3.36463 0
M  V30 142 N 13.3029 -1.57598 0.00835791 0
M  V30 143 C 14.5279 -1.95617 -0.689103 0
M  V30 144 C 14.9529 -0.883753 -1.66046 0
M  V30 145 O 14.3109 0.157352 -1.80616 0
M  V30 146 C 14.3589 -3.32736 -1.38994 0
M  V30 147 O 13.4629 -3.27631 -2.50463 0
M  V30 148 H 12.8039 -0.638379 -0.182668 0
M  V30 149 H 15.3339 -2.045 0.064036 0
M  V30 150 H 15.3439 -3.68494 -1.75147 0
M  V30 151 H 14.0189 -4.1034 -0.677778 0
M  V30 152 H 12.5959 -3.03561 -2.16576 0
M  V30 153 N 14.781 0.264519 -1.55364 0
M  V30 154 C 15.728 1.32717 -1.88825 0
M  V30 155 C 16.698 1.48675 -0.740605 0
M  V30 156 O 17.883 1.62945 -0.992657 0
M  V30 157 C 15.023 2.68089 -2.17307 0
M  V30 158 C 14.136 2.60284 -3.44785 0
M  V30 159 C 13.271 3.87892 -3.62924 0
M  V30 160 C 12.31 3.74631 -4.84064 0
M  V30 161 N 11.447 4.94092 -4.98816 0
M  V30 162 H 16.287 1.03481 -2.79456 0
M  V30 163 H 13.824 0.499757 -1.3835 0
M  V30 164 H 15.782 3.46864 -2.31821 0
M  V30 165 H 14.412 2.95509 -1.299 0
M  V30 166 H 13.464 1.73173 -3.38697 0
M  V30 167 H 14.776 2.46388 -4.33698 0
M  V30 168 H 13.93 4.75109 -3.77302 0
M  V30 169 H 12.669 4.04664 -2.7221 0
M  V30 170 H 11.674 2.85797 -4.69681 0
M  V30 171 H 12.899 3.5937 -5.76221 0
M  V30 172 H 10.845 5.11259 -4.11036 0
M  V30 173 H 10.762 4.8276 -5.81789 0
M  V30 174 H 12.03 5.82857 -5.17588 0
M  V30 175 N 16.2591 1.48442 0.529413 0
M  V30 176 C 17.4891 1.59919 1.30804 0
M  V30 177 C 17.8971 0.258792 1.87422 0
M  V30 178 O 17.2401 -0.762096 1.67146 0
M  V30 179 C 17.3021 2.58693 2.49636 0
M  V30 180 C 16.9661 4.03745 2.14101 0
M  V30 181 C 17.9631 4.9141 1.6974 0
M  V30 182 C 15.6481 4.49285 2.24607 0
M  V30 183 C 17.6421 6.22645 1.36351 0
M  V30 184 C 15.3291 5.8054 1.9083 0
M  V30 185 C 16.3271 6.67043 1.46773 0
M  V30 186 O 16.0151 7.95856 1.1344 0
M  V30 187 H 15.7471 0.541981 0.404021 0
M  V30 188 H 18.3011 1.95 0.645309 0
M  V30 189 H 16.5311 2.18734 3.18892 0
M  V30 190 H 18.2201 2.59999 3.11698 0
M  V30 191 H 18.9861 4.57465 1.61094 0
M  V30 192 H 14.8651 3.82142 2.57854 0
M  V30 193 H 18.4091 6.90119 1.01891 0
M  V30 194 H 14.3061 6.14022 1.99117 0
M  V30 195 H 15.0741 8.08613 1.26832 0
M  V30 196 N 17.7372 -0.778329 1.37039 0
M  V30 197 C 18.9832 -1.53817 1.33086 0
M  V30 198 C 19.3382 -1.92208 -0.0860346 0
M  V30 199 O 18.6312 -1.60713 -1.04316 0
M  V30 200 C 18.8252 -2.81845 2.19768 0
M  V30 201 C 18.6542 -2.55967 3.69744 0
M  V30 202 C 17.4242 -2.50428 4.38878 0
M  V30 203 C 19.6222 -2.2441 4.62758 0
M  V30 204 N 17.6042 -2.16564 5.74433 0
M  V30 205 C 18.9752 -2.0063 5.86641 0
M  V30 206 C 21.0302 -2.1051 4.5121 0
M  V30 207 C 19.7332 -1.64354 7.00272 0
M  V30 208 C 21.7592 -1.75634 5.64718 0
M  V30 209 C 21.1212 -1.52709 6.87648 0
M  V30 210 H 17.2202 -0.563434 0.542279 0
M  V30 211 H 19.8042 -0.908617 1.72198 0
M  V30 212 H 17.9752 -3.42649 1.82883 0
M  V30 213 H 19.7072 -3.47682 2.07122 0
M  V30 214 H 16.4622 -2.66056 3.91805 0
M  V30 215 H 16.8862 -2.02348 6.46053 0
M  V30 216 H 21.5282 -2.26919 3.56746 0
M  V30 217 H 19.2462 -1.46683 7.94676 0
M  V30 218 H 22.8322 -1.65546 5.57751 0
M  V30 219 H 21.7122 -1.2612 7.73992 0
M  V30 220 N 19.2153 -1.21501 -1.00376 0
M  V30 221 C 20.1783 -0.976927 -2.07337 0
M  V30 222 C 21.1783 0.0525322 -1.60714 0
M  V30 223 O 22.3683 -0.184869 -1.73216 0
M  V30 224 C 19.5003 -0.473423 -3.37597 0
M  V30 225 H 20.6933 -1.92587 -2.29892 0
M  V30 226 H 18.2463 -1.03217 -1.17371 0
M  V30 227 H 18.9813 0.480379 -3.20722 0
M  V30 228 H 18.7663 -1.216 -3.72768 0
M  V30 229 H 20.2563 -0.32675 -4.1632 0
M  V30 230 N 20.6934 1.19889 -1.02296 0
M  V30 231 C 22.1094 1.41462 -0.738954 0
M  V30 232 C 22.3094 1.89721 0.678846 0
M  V30 233 O 21.3654 2.07016 1.4457 0
M  V30 234 C 22.6784 2.43083 -1.77005 0
M  V30 235 C 24.2264 2.5684 -1.78892 0
M  V30 236 C 24.7014 3.61709 -2.80945 0
M  V30 237 N 26.1924 3.69199 -2.79725 0
M  V30 238 C 26.9274 4.50019 -3.55345 0
M  V30 239 N 26.4234 5.34592 -4.40662 0
M  V30 240 N 28.2164 4.44612 -3.43914 0
M  V30 241 H 20.3674 0.868827 -1.93817 0
M  V30 242 H 22.6304 0.44399 -0.837602 0
M  V30 243 H 22.3364 2.14636 -2.78612 0
M  V30 244 H 22.2104 3.4217 -1.58744 0
M  V30 245 H 24.5974 2.84614 -0.779674 0
M  V30 246 H 24.6784 1.57927 -2.01228 0
M  V30 247 H 24.3224 3.34678 -3.82038 0
M  V30 248 H 24.2524 4.60259 -2.5587 0
M  V30 249 H 26.7434 3.08794 -2.17842 0
M  V30 250 H 27.0564 5.93363 -4.95116 0
M  V30 251 H 25.4014 5.34073 -4.44737 0
M  V30 252 H 28.5924 3.7758 -2.76679 0
M  V30 253 H 28.7654 5.0736 -4.031 0
M  V30 254 N 22.1715 0.800033 1.35784 0
M  V30 255 C 23.5875 0.482977 1.52117 0
M  V30 256 C 23.7875 -0.996948 1.75109 0
M  V30 257 O 22.8435 -1.78216 1.78872 0
M  V30 258 C 24.1565 1.32264 2.70049 0
M  V30 259 C 25.7045 1.31742 2.83924 0
M  V30 260 C 26.1795 2.14106 4.04874 0
M  V30 261 N 27.6705 2.11607 4.12039 0
M  V30 262 C 28.4055 2.72099 5.04727 0
M  V30 263 N 27.9015 3.41492 6.02789 0
M  V30 264 N 29.6945 2.61776 4.97423 0
M  V30 265 H 21.8455 1.75856 1.19115 0
M  V30 266 H 24.1085 0.748122 0.582252 0
M  V30 267 H 23.8145 2.37261 2.59616 0
M  V30 268 H 23.6885 0.971303 3.6448 0
M  V30 269 H 26.0755 0.275333 2.93813 0
M  V30 270 H 26.1565 1.70859 1.9037 0
M  V30 271 H 25.8005 3.18351 3.95746 0
M  V30 272 H 25.7305 1.72353 4.97596 0
M  V30 273 H 28.2215 1.61112 3.41835 0
M  V30 274 H 28.5345 3.84953 6.70098 0
M  V30 275 H 26.8795 3.45596 6.02983 0
M  V30 276 H 30.0705 2.07157 4.19766 0
M  V30 277 H 30.2435 3.0921 5.69468 0
M  V30 278 N 23.6496 -1.47581 0.552962 0
M  V30 279 C 24.8976 -2.02082 0.0272703 0
M  V30 280 C 25.2186 -1.4301 -1.32563 0
M  V30 281 O 24.4886 -0.603745 -1.86365 0
M  V30 282 H 23.0686 -0.746966 0.00709182 0
M  V30 283 H 25.7306 -1.81033 0.722008 0
M  V30 284 H 24.8266 -3.12034 -0.0639951 0
M  V30 285 N 25.1277 -0.289203 -1.54924 0
M  V30 286 C 26.3747 0.323519 -1.99899 0
M  V30 287 C 26.7027 1.54797 -1.17762 0
M  V30 288 O 25.9577 1.94237 -0.238835 0
M  V30 289 C 26.2567 0.736119 -3.49737 0
M  V30 290 C 25.9227 -0.385276 -4.49251 0
M  V30 291 C 24.5847 -0.693156 -4.76181 0
M  V30 292 C 26.9367 -1.14021 -5.08575 0
M  V30 293 C 24.2647 -1.7593 -5.59701 0
M  V30 294 C 26.6167 -2.19619 -5.93254 0
M  V30 295 C 25.2807 -2.51026 -6.185 0
M  V30 296 H 24.5507 0.118384 -0.731482 0
M  V30 297 H 27.1977 -0.405847 -1.8715 0
M  V30 298 H 25.5027 1.54539 -3.60035 0
M  V30 299 H 27.1997 1.22118 -3.81953 0
M  V30 300 H 23.7897 -0.135202 -4.28387 0
M  V30 301 H 27.9737 -0.915611 -4.87781 0
M  V30 302 H 23.2297 -2.0075 -5.77503 0
M  V30 303 H 27.4037 -2.78581 -6.38252 0
M  V30 304 H 25.0307 -3.33772 -6.83008 0
M  V30 305 N 26.6058 1.57591 -0.0167156 0
M  V30 306 C 27.8308 1.9598 0.67872 0
M  V30 307 C 28.2558 0.892546 1.65575 0
M  V30 308 O 27.6138 -0.147772 1.80697 0
M  V30 309 C 27.6618 3.33468 1.37227 0
M  V30 310 O 26.7658 3.28954 2.48722 0
M  V30 311 H 26.1068 0.639339 0.17928 0
M  V30 312 H 28.6368 2.04463 -0.0748802 0
M  V30 313 H 28.6468 3.69417 1.7319 0
M  V30 314 H 27.3218 4.10694 0.656007 0
M  V30 315 H 25.8988 3.04705 2.14963 0
M  V30 316 N 28.0839 -0.256276 1.55502 0
M  V30 317 C 29.0139 -1.32102 1.92539 0
M  V30 318 C 29.9949 -1.50684 0.789194 0
M  V30 319 O 31.1799 -1.63449 1.04872 0
M  V30 320 C 28.3099 -2.67752 2.21192 0
M  V30 321 C 27.2639 -2.63878 3.36975 0
M  V30 322 C 26.5899 -4.03236 3.51147 0
M  V30 323 C 27.8899 -2.21682 4.72921 0
M  V30 324 H 29.5839 -1.01351 2.81724 0
M  V30 325 H 27.1299 -0.486105 1.35547 0
M  V30 326 H 29.0829 -3.42365 2.45691 0
M  V30 327 H 27.8069 -3.0012 1.28824 0
M  V30 328 H 26.4659 -1.91722 3.12471 0
M  V30 329 H 26.1139 -4.32854 2.56216 0
M  V30 330 H 25.8139 -4.01535 4.29003 0
M  V30 331 H 27.3379 -4.79563 3.77957 0
M  V30 332 H 28.7519 -2.86023 4.96854 0
M  V30 333 H 27.1489 -2.3111 5.53812 0
M  V30 334 H 28.2189 -1.16833 4.70615 0
M  V30 335 N 29.562 -1.4872 -0.521534 0
M  V30 336 C 30.839 -1.4766 -1.2828 0
M  V30 337 C 31.219 -0.19292 -2.10217 0
M  V30 338 O 30.567 0.825193 -2.13079 0
M  V30 339 C 30.777 -2.74358 -2.15705 0
M  V30 340 C 32.125 -3.23028 -2.75569 0
M  V30 341 O 33.149 -2.75333 -2.25987 0
M  V30 342 O 32.008 -4.0604 -3.65778 0
M  V30 343 H 29.102 -0.590085 -0.579421 0
M  V30 344 H 31.648 -1.60963 -0.537492 0
M  V30 345 H 30.42 -3.59292 -1.54999 0
M  V30 346 H 30.043 -2.63816 -2.97467 0
M  V30 347 N 31.0401 0.771051 -1.3745 0
M  V30 348 C 32.2651 1.56529 -1.36065 0
M  V30 349 C 32.6901 1.88029 0.0515859 0
M  V30 350 O 32.0481 1.49282 1.02882 0
M  V30 351 C 32.0961 2.85187 -2.20683 0
M  V30 352 O 31.2001 3.79593 -1.61193 0
M  V30 353 H 30.5411 0.47411 -0.464883 0
M  V30 354 H 33.0711 0.954269 -1.80983 0
M  V30 355 H 33.0811 3.34283 -2.33921 0
M  V30 356 H 31.7561 2.61588 -3.23334 0
M  V30 357 H 30.3331 3.38239 -1.56999 0
M  V30 358 N 32.5182 1.22032 0.997298 0
M  V30 359 C 33.4812 0.987909 2.06816 0
M  V30 360 C 34.4812 -0.0440084 1.6074 0
M  V30 361 O 35.6712 0.194053 1.73116 0
M  V30 362 C 32.8032 0.49132 3.37341 0
M  V30 363 H 33.9962 1.93803 2.28868 0
M  V30 364 H 31.5492 1.03838 1.16822 0
M  V30 365 H 32.2842 -0.463364 3.20973 0
M  V30 366 H 32.0692 1.23575 3.72118 0
M  V30 367 H 33.5592 0.348824 4.16141 0
M  V30 368 N 33.9963 -1.19345 1.0293 0
M  V30 369 C 35.2423 -1.89318 0.727083 0
M  V30 370 C 35.5753 -1.79446 -0.742483 0
M  V30 371 O 34.8503 -1.1871 -1.54072 0
M  V30 372 C 35.1333 -3.40238 1.17942 0
M  V30 373 C 34.9863 -3.58979 2.71024 0
M  V30 374 C 36.3053 -4.33479 0.760548 0
M  V30 375 H 33.4243 -0.687475 0.265606 0
M  V30 376 H 36.0663 -1.40477 1.2793 0
M  V30 377 H 34.2163 -3.81964 0.709608 0
M  V30 378 H 35.8883 -3.26421 3.25955 0
M  V30 379 H 34.1313 -3.02018 3.11396 0
M  V30 380 H 34.8023 -4.64823 2.9773 0
M  V30 381 H 37.2783 -3.99469 1.16464 0
M  V30 382 H 36.1543 -5.37664 1.10493 0
M  V30 383 H 36.4153 -4.40813 -0.337063 0
M  V30 384 N 35.4744 -0.807222 -1.35358 0
M  V30 385 C 36.8854 -0.44876 -1.81226 0
M  V30 386 C 37.2364 1.02929 -1.67033 0
M  V30 387 O 36.3614 1.79991 -1.20133 0
M  V30 388 C 36.9564 -0.807774 -3.2903 0
M  V30 389 C 35.5154 -0.501901 -3.73039 0
M  V30 390 C 34.6624 -1.03304 -2.57339 0
M  V30 391 H 37.6134 -0.998808 -1.23327 0
M  V30 392 H 37.6344 -0.10554 -3.80354 0
M  V30 393 H 37.1464 -1.88357 -3.39328 0
M  V30 394 H 35.2474 0.565128 -3.68289 0
M  V30 395 H 35.3604 -1.03497 -4.67787 0
M  V30 396 H 33.7244 -0.455339 -2.50597 0
M  V30 397 H 34.5074 -2.11496 -2.70415 0
M  V30 398 N 36.9525 1.47285 -0.560781 0
M  V30 399 C 37.8625 2.33846 0.187954 0
M  V30 400 C 38.8785 1.48412 0.908293 0
M  V30 401 O 40.0545 1.81332 0.876388 0
M  V30 402 C 37.1195 3.25178 1.2025 0
M  V30 403 C 36.1805 4.26504 0.489208 0
M  V30 404 C 35.4135 5.13472 1.45542 0
M  V30 405 O 35.6365 5.02959 2.6905 0
M  V30 406 O 34.5705 5.93902 0.977963 0
M  V30 407 H 38.3965 2.99177 -0.522177 0
M  V30 408 H 35.9815 1.45903 -0.321364 0
M  V30 409 H 37.8635 3.81584 1.78805 0
M  V30 410 H 36.5385 2.6247 1.89449 0
M  V30 411 H 35.4455 3.73847 -0.137627 0
M  V30 412 H 36.7785 4.91935 -0.161399 0
M  V30 413 N 38.4306 0.297415 1.54768 0
M  V30 414 C 39.3406 -0.58983 2.27064 0
M  V30 415 C 40.3566 -1.15144 1.30453 0
M  V30 416 O 41.5326 -1.17699 1.63428 0
M  V30 417 C 38.5976 -1.74714 2.9946 0
M  V30 418 C 37.6586 -1.21997 4.11601 0
M  V30 419 C 36.8916 -2.32212 4.80535 0
M  V30 420 O 37.1146 -3.52036 4.48806 0
M  V30 421 O 36.0486 -1.99106 5.68014 0
M  V30 422 H 39.8746 -0.00348199 3.037 0
M  V30 423 H 37.4596 0.0640035 1.49263 0
M  V30 424 H 39.3416 -2.42147 3.44881 0
M  V30 425 H 38.0166 -2.32016 2.25722 0
M  V30 426 H 36.9236 -0.511458 3.70587 0
M  V30 427 H 38.2566 -0.692419 4.87305 0
M  V30 428 N 39.9087 -1.5758 0.0250728 0
M  V30 429 C 40.8587 -2.06468 -0.967201 0
M  V30 430 C 41.8427 -0.964376 -1.28797 0
M  V30 431 O 43.0347 -1.22797 -1.27475 0
M  V30 432 C 40.1637 -2.59203 -2.25097 0
M  V30 433 C 39.2497 -3.76157 -1.95874 0
M  V30 434 N 39.6407 -4.86919 -1.36905 0
M  V30 435 C 37.9387 -3.84566 -2.25887 0
M  V30 436 C 38.6397 -5.68172 -1.24724 0
M  V30 437 N 37.6157 -5.14953 -1.74138 0
M  V30 438 H 41.4177 -2.89508 -0.506176 0
M  V30 439 H 38.9317 -1.61399 -0.18004 0
M  V30 440 H 40.9287 -2.92517 -2.97052 0
M  V30 441 H 39.5887 -1.77592 -2.71829 0
M  V30 442 H 40.5997 -5.07256 -1.04459 0
M  V30 443 H 37.2767 -3.13854 -2.75321 0
M  V30 444 H 38.6667 -6.67221 -0.791605 0
M  V30 445 N 41.3868 0.248026 -1.55636 0
M  V30 446 C 42.3188 1.32993 -1.8667 0
M  V30 447 C 43.3318 1.44345 -0.752877 0
M  V30 448 O 44.5208 1.45715 -1.03098 0
M  V30 449 C 41.6208 2.70863 -2.03682 0
M  V30 450 C 40.7938 2.81792 -3.34532 0
M  V30 451 C 39.8528 4.005 -3.41301 0
M  V30 452 O 38.8788 3.9008 -4.14519 0
M  V30 453 N 40.0808 5.13618 -2.70512 0
M  V30 454 H 42.8458 1.06707 -2.8006 0
M  V30 455 H 40.4068 0.438129 -1.55859 0
M  V30 456 H 42.3988 3.48612 -2.05553 0
M  V30 457 H 40.9688 2.89862 -1.17041 0
M  V30 458 H 40.1888 1.90729 -3.44987 0
M  V30 459 H 41.4768 2.86043 -4.20781 0
M  V30 460 H 40.8748 5.24975 -2.10755 0
M  V30 461 H 39.4318 5.89505 -2.78077 0
M  V30 462 N 42.8649 1.48995 0.513639 0
M  V30 463 C 43.7949 1.67636 1.62544 0
M  V30 464 C 44.7759 0.525087 1.61793 0
M  V30 465 O 45.9609 0.759502 1.78732 0
M  V30 466 C 43.0909 1.73114 3.01079 0
M  V30 467 C 42.0449 2.87905 3.16693 0
M  V30 468 C 41.3709 2.78486 4.56453 0
M  V30 469 C 42.6709 4.29005 2.97913 0
M  V30 470 H 44.3649 2.60716 1.47198 0
M  V30 471 H 41.9109 1.25465 0.706714 0
M  V30 472 H 43.8639 1.84742 3.78746 0
M  V30 473 H 42.5879 0.766241 3.17484 0
M  V30 474 H 41.2469 2.75859 2.41448 0
M  V30 475 H 40.8949 1.7993 4.69717 0
M  V30 476 H 40.5949 3.55523 4.67843 0
M  V30 477 H 42.1189 2.92104 5.36197 0
M  V30 478 H 43.5329 4.41798 3.65359 0
M  V30 479 H 41.9299 5.07166 3.20785 0
M  V30 480 H 42.9999 4.44329 1.94165 0
M  V30 481 N 44.343 -0.763751 1.37857 0
M  V30 482 C 45.273 -1.89103 1.36975 0
M  V30 483 C 46.254 -1.68439 0.237152 0
M  V30 484 O 47.439 -1.8918 0.438713 0
M  V30 485 C 44.569 -3.26496 1.18395 0
M  V30 486 C 43.523 -3.61741 2.28751 0
M  V30 487 C 42.849 -4.97762 1.95286 0
M  V30 488 C 44.149 -3.67665 3.70972 0
M  V30 489 H 45.843 -1.90099 2.31307 0
M  V30 490 H 43.389 -0.91319 1.11341 0
M  V30 491 H 45.342 -4.05003 1.16406 0
M  V30 492 H 44.066 -3.25955 0.205215 0
M  V30 493 H 42.725 -2.85547 2.29909 0
M  V30 494 H 42.373 -4.93769 0.959221 0
M  V30 495 H 42.073 -5.22313 2.69189 0
M  V30 496 H 43.597 -5.7866 1.94898 0
M  V30 497 H 45.011 -4.36307 3.719 0
M  V30 498 H 43.408 -4.03718 4.43995 0
M  V30 499 H 44.478 -2.68134 4.0402 0
M  V30 500 N 45.8211 -1.22559 -0.990812 0
M  V30 501 C 47.0691 -1.04933 -1.72724 0
M  V30 502 C 47.3901 0.416158 -1.90508 0
M  V30 503 O 46.6601 1.29918 -1.46622 0
M  V30 504 H 45.2401 -0.385296 -0.639965 0
M  V30 505 H 47.9021 -1.54105 -1.19322 0
M  V30 506 H 46.9981 -1.52886 -2.72089 0
M  V30 507 N 47.2992 1.18797 -1.03562 0
M  V30 508 C 48.5242 1.9314 -0.755764 0
M  V30 509 C 48.9492 1.7537 0.68022 0
M  V30 510 O 48.3072 1.06046 1.47051 0
M  V30 511 C 48.3552 3.42747 -1.12058 0
M  V30 512 O 47.4592 4.11683 -0.243124 0
M  V30 513 H 46.8002 0.602724 -0.278604 0
M  V30 514 H 49.3302 1.50678 -1.3841 0
M  V30 515 H 49.3402 3.93437 -1.08035 0
M  V30 516 H 48.0152 3.55002 -2.16672 0
M  V30 517 H 46.5922 3.71323 -0.342539 0
M  V30 518 N 48.7773 0.814389 1.34928 0
M  V30 519 C 50.0023 0.410097 2.03305 0
M  V30 520 C 50.4273 -0.973464 1.60951 0
M  V30 521 O 49.7853 -1.63185 0.789964 0
M  V30 522 C 49.8333 0.51049 3.56968 0
M  V30 523 O 48.9373 -0.473035 4.09678 0
M  V30 524 H 48.2783 0.170088 0.641846 0
M  V30 525 H 50.8083 1.10244 1.72358 0
M  V30 526 H 50.8183 0.383135 4.06197 0
M  V30 527 H 49.4933 1.51963 3.87144 0
M  V30 528 H 48.0703 -0.305272 3.71648 0
M  V30 529 N 50.2554 -1.46986 0.568584 0
M  V30 530 C 51.4834 -2.0683 0.0539956 0
M  V30 531 C 51.8984 -1.41953 -1.24478 0
M  V30 532 O 51.2554 -0.519933 -1.74937 0
M  V30 533 C 51.3064 -3.61254 -0.133362 0
M  V30 534 O 51.0274 -4.237 1.11399 0
M  V30 535 C 52.5284 -4.37992 -0.683927 0
M  V30 536 H 49.7484 -0.669058 0.0510141 0
M  V30 537 H 52.2924 -1.88824 0.785234 0
M  V30 538 H 50.4474 -3.78735 -0.81477 0
M  V30 539 H 50.8614 -5.16388 0.91888 0
M  V30 540 H 52.3354 -5.46684 -0.764263 0
M  V30 541 H 52.8124 -4.05058 -1.69778 0
M  V30 542 H 53.4184 -4.25283 -0.0378494 0
M  V30 543 N 51.7335 -0.305618 -1.54608 0
M  V30 544 C 52.6635 0.561482 -2.26649 0
M  V30 545 C 53.6445 1.13415 -1.26772 0
M  V30 546 O 54.8295 1.16262 -1.55553 0
M  V30 547 C 51.9595 1.73122 -3.01075 0
M  V30 548 C 50.9135 1.2887 -4.08138 0
M  V30 549 C 50.2395 2.54396 -4.70305 0
M  V30 550 C 51.5395 0.416578 -5.20636 0
M  V30 551 H 53.2335 -0.0393902 -2.99374 0
M  V30 552 H 50.7795 -0.020385 -1.43986 0
M  V30 553 H 52.7325 2.34396 -3.50195 0
M  V30 554 H 51.4565 2.3584 -2.25936 0
M  V30 555 H 50.1155 0.698991 -3.59875 0
M  V30 556 H 49.7635 3.15439 -3.918 0
M  V30 557 H 49.4635 2.25486 -5.42614 0
M  V30 558 H 50.9875 3.16464 -5.2219 0
M  V30 559 H 52.4015 0.935116 -5.65622 0
M  V30 560 H 50.7985 0.221046 -5.99693 0
M  V30 561 H 51.8685 -0.557162 -4.81688 0
M  V30 562 N 53.2116 1.57565 -0.0334293 0
M  V30 563 C 54.1596 2.1164 0.96496 0
M  V30 564 C 55.1536 1.04398 1.33407 0
M  V30 565 O 56.3596 1.22828 1.3158 0
M  V30 566 H 52.7346 0.676222 0.32898 0
M  V30 567 H 54.7056 2.94455 0.483614 0
M  V30 568 C 53.4546 2.66207 2.23672 0
M  V30 569 H 52.7776 3.48378 1.96145 0
M  V30 570 H 54.2176 3.07685 2.9173 0
M  V30 571 C 52.6766 1.59151 2.96939 0
M  V30 572 O 53.2066 0.993858 3.89211 0
M  V30 573 N 51.4126 1.31093 2.59351 0
M  V30 574 H 50.9596 1.7988 1.84393 0
M  V30 575 H 50.9176 0.596889 3.08682 0
M  V30 576 N 54.6897 -0.239769 1.55765 0
M  V30 577 C 55.6367 -1.29696 1.90913 0
M  V30 578 C 56.6067 -1.47478 0.764164 0
M  V30 579 O 57.7917 -1.61345 1.01845 0
M  V30 580 C 54.9317 -2.64598 2.21544 0
M  V30 581 C 54.0447 -2.54765 3.48882 0
M  V30 582 C 53.1797 -3.82069 3.69049 0
M  V30 583 C 52.2187 -3.66883 4.89963 0
M  V30 584 N 51.3557 -4.86094 5.06614 0
M  V30 585 H 56.1957 -0.990224 2.81067 0
M  V30 586 H 53.7327 -0.477684 1.39128 0
M  V30 587 H 55.6907 -3.43132 2.3731 0
M  V30 588 H 54.3207 -2.93405 1.34585 0
M  V30 589 H 53.3727 -1.67763 3.41409 0
M  V30 590 H 54.6847 -2.39457 4.37563 0
M  V30 591 H 53.8387 -4.69046 3.84812 0
M  V30 592 H 52.5777 -4.00282 2.78614 0
M  V30 593 H 51.5827 -2.78289 4.74168 0
M  V30 594 H 52.8077 -3.50157 5.81865 0
M  V30 595 H 50.7537 -5.04655 4.19117 0
M  V30 596 H 50.6707 -4.73443 5.89396 0
M  V30 597 H 51.9387 -5.74549 5.26795 0
M  V30 598 N 56.1678 -1.49265 -0.50573 0
M  V30 599 C 57.5788 -1.51769 -1.08734 0
M  V30 600 C 57.9298 -0.301192 -1.93874 0
M  V30 601 O 57.0548 0.589456 -2.08217 0
M  V30 602 C 57.6498 -2.75017 -1.97867 0
M  V30 603 C 56.2088 -2.80314 -2.51199 0
M  V30 604 C 55.3558 -2.4562 -1.28709 0
M  V30 605 H 58.3068 -1.56031 -0.289855 0
M  V30 606 H 58.3278 -2.5491 -2.82491 0
M  V30 607 H 57.8398 -3.63539 -1.35873 0
M  V30 608 H 55.9408 -1.96061 -3.16845 0
M  V30 609 H 56.0538 -3.82366 -2.88675 0
M  V30 610 H 54.4178 -1.97297 -1.61078 0
M  V30 611 H 55.2008 -3.36411 -0.6843 0
M  V30 612 N 57.6459 0.756429 -1.3826 0
M  V30 613 C 58.5939 1.89149 -1.35372 0
M  V30 614 C 59.5879 1.67691 -0.24004 0
M  V30 615 O 60.7939 1.75294 -0.408919 0
M  V30 616 H 57.1689 0.622271 -0.422236 0
M  V30 617 H 59.1399 1.88701 -2.31159 0
M  V30 618 C 57.8889 3.26599 -1.19284 0
M  V30 619 H 57.2119 3.43695 -2.0424 0
M  V30 620 H 58.6519 4.06274 -1.21316 0
M  V30 621 C 57.1109 3.3675 0.100454 0
M  V30 622 O 57.6409 3.86951 1.07851 0
M  V30 623 N 55.8469 2.90179 0.15633 0
M  V30 624 H 55.3939 2.49517 -0.640253 0
M  V30 625 H 55.3519 2.97352 1.02123 0
M  V30 626 N 59.124 1.23083 0.984299 0
M  V30 627 C 60.349 1.088 1.76571 0
M  V30 628 C 60.774 -0.356657 1.84688 0
M  V30 629 O 60.132 -1.25788 1.30565 0
M  V30 630 C 60.18 1.71371 3.17277 0
M  V30 631 O 59.284 0.973213 4.00752 0
M  V30 632 H 58.625 0.381599 0.543395 0
M  V30 633 H 61.155 1.63057 1.23587 0
M  V30 634 H 61.165 1.76449 3.67872 0
M  V30 635 H 59.84 2.76493 3.10684 0
M  V30 636 H 58.417 0.999078 3.59267 0
M  V30 637 N 60.6021 -1.18246 1.0419 0
M  V30 638 C 61.8501 -1.87886 0.744543 0
M  V30 639 C 62.1711 -1.8082 -0.730006 0
M  V30 640 O 61.4411 -1.22736 -1.52685 0
M  V30 641 H 60.0211 -0.695556 0.272417 0
M  V30 642 H 62.6831 -1.43494 1.31892 0
M  V30 643 H 61.7791 -2.9389 1.05049 0
M  V30 644 N 62.0802 -0.821533 -1.34494 0
M  V30 645 C 63.0272 -0.240397 -2.29545 0
M  V30 646 C 63.9972 0.634031 -1.53523 0
M  V30 647 O 65.1822 0.575966 -1.81899 0
M  V30 648 C 62.3222 0.592869 -3.39969 0
M  V30 649 C 61.4352 -0.30365 -4.30932 0
M  V30 650 C 60.5702 0.539049 -5.28458 0
M  V30 651 C 59.6092 -0.356942 -6.11058 0
M  V30 652 N 58.7462 0.446603 -7.00678 0
M  V30 653 H 63.5862 -1.05632 -2.7865 0
M  V30 654 H 61.1232 -0.532413 -1.37127 0
M  V30 655 H 63.0812 1.09129 -4.02675 0
M  V30 656 H 61.7112 1.37392 -2.92102 0
M  V30 657 H 60.7632 -0.920276 -3.691 0
M  V30 658 H 62.0752 -0.992661 -4.88823 0
M  V30 659 H 61.2292 1.102 -5.96608 0
M  V30 660 H 59.9682 1.26157 -4.71101 0
M  V30 661 H 58.9732 -0.932047 -5.41842 0
M  V30 662 H 60.1982 -1.07755 -6.70497 0
M  V30 663 H 58.1442 1.15282 -6.45791 0
M  V30 664 H 58.0612 -0.184048 -7.55776 0
M  V30 665 H 59.3292 0.992352 -7.73158 0
M  V30 666 N 63.5583 1.46682 -0.576371 0
M  V30 667 C 64.5063 2.31953 0.17335 0
M  V30 668 C 65.5003 1.44098 0.89062 0
M  V30 669 O 66.7063 1.60759 0.809728 0
M  V30 670 H 63.0813 0.748273 0.0747727 0
M  V30 671 H 65.0523 2.93007 -0.564738 0
M  V30 672 C 63.8013 3.27142 1.17786 0
M  V30 673 H 63.1243 3.94719 0.635361 0
M  V30 674 H 64.5643 3.896 1.67296 0
M  V30 675 C 63.0233 2.52036 2.23561 0
M  V30 676 O 63.5533 2.27877 3.3081 0
M  V30 677 N 61.7593 2.12709 1.97998 0
M  V30 678 H 61.3063 2.32557 1.10792 0
M  V30 679 H 61.2643 1.62776 2.68982 0
M  V30 680 N 65.0364 0.313813 1.54444 0
M  V30 681 C 66.3134 -0.345447 1.92525 0
M  V30 682 C 66.6934 -1.70667 1.24242 0
M  V30 683 O 66.0414 -2.25273 0.382654 0
M  V30 684 C 66.2514 -0.44737 3.46121 0
M  V30 685 C 67.5994 -0.712238 4.18584 0
M  V30 686 O 68.6234 -0.530678 3.52225 0
M  V30 687 O 67.4824 -1.06183 5.36085 0
M  V30 688 H 64.5764 -0.195407 0.803583 0
M  V30 689 H 67.1224 0.362813 1.65776 0
M  V30 690 H 65.8944 0.509043 3.87975 0
M  V30 691 H 65.5174 -1.20359 3.78945 0
M  V30 692 N 66.5145 -1.57545 0.0417849 0
M  V30 693 C 67.7915 -1.83642 -0.673433 0
M  V30 694 C 68.1715 -0.928298 -1.89594 0
M  V30 695 O 67.5195 0.0129955 -2.28496 0
M  V30 696 C 67.7295 -3.33155 -1.03964 0
M  V30 697 C 69.0775 -3.99941 -1.42592 0
M  V30 698 O 70.1015 -3.37725 -1.13226 0
M  V30 699 O 68.9605 -5.09619 -1.9736 0
M  V30 700 H 66.0545 -0.757638 -0.331533 0
M  V30 701 H 68.6005 -1.69554 0.070433 0
M  V30 702 H 67.3725 -3.9093 -0.170098 0
M  V30 703 H 66.9955 -3.52396 -1.84126 0
M  V30 704 N 67.9926 0.231505 -1.5589 0
M  V30 705 C 68.9396 1.28682 -1.91598 0
M  V30 706 C 69.9096 1.47071 -0.771974 0
M  V30 707 O 71.0946 1.60802 -1.027 0
M  V30 708 C 68.2346 2.6342 -2.22944 0
M  V30 709 C 67.3476 2.52912 -3.50228 0
M  V30 710 C 66.4826 3.80106 -3.7107 0
M  V30 711 C 65.5216 3.64279 -4.91902 0
M  V30 712 N 64.6586 4.834 -5.09184 0
M  V30 713 H 69.4986 0.975305 -2.81588 0
M  V30 714 H 67.0356 0.470299 -1.39379 0
M  V30 715 H 68.9936 3.41869 -2.39126 0
M  V30 716 H 67.6236 2.92687 -1.36139 0
M  V30 717 H 66.6756 1.6595 -3.42294 0
M  V30 718 H 67.9876 2.37133 -4.38827 0
M  V30 719 H 67.1416 4.66999 -3.87295 0
M  V30 720 H 65.8806 3.98799 -2.80733 0
M  V30 721 H 64.8856 2.7577 -4.75637 0
M  V30 722 H 66.1106 3.47067 -5.83714 0
M  V30 723 H 64.0566 5.02425 -4.21788 0
M  V30 724 H 63.9736 4.70311 -5.91898 0
M  V30 725 H 65.2416 5.71747 -5.29835 0
M  V30 726 N 69.4707 1.49531 0.497807 0
M  V30 727 C 70.7187 1.58865 1.24926 0
M  V30 728 C 71.0397 0.278721 1.92998 0
M  V30 729 O 70.3097 -0.702144 1.82885 0
M  V30 730 H 68.8897 0.585343 0.464094 0
M  V30 731 H 71.5517 1.86174 0.57666 0
M  V30 732 H 70.6477 2.38633 2.01149 0
M  V30 733 N 70.9488 -0.749086 1.3866 0
M  V30 734 C 71.8968 -1.88428 1.36373 0
M  V30 735 C 72.8908 -1.67561 0.248929 0
M  V30 736 O 74.0968 -1.75074 0.41821 0
M  V30 737 H 70.4718 -0.620023 0.42553 0
M  V30 738 H 72.4428 -1.87473 2.32156 0
M  V30 739 C 71.1918 -3.25961 1.21014 0
M  V30 740 H 70.5148 -3.42607 2.06059 0
M  V30 741 H 71.9548 -4.05625 1.23469 0
M  V30 742 C 70.4138 -3.36799 -0.0825941 0
M  V30 743 O 70.9438 -3.87517 -1.05797 0
M  V30 744 N 69.1498 -2.90258 -0.140939 0
M  V30 745 H 68.6968 -2.49174 0.653477 0
M  V30 746 H 68.6548 -2.97889 -1.00545 0
M  V30 747 N 72.4269 -1.23603 -0.977757 0
M  V30 748 C 73.3739 -1.01954 -2.07061 0
M  V30 749 C 74.3439 0.0638697 -1.65977 0
M  V30 750 O 75.5289 -0.0887624 -1.90593 0
M  V30 751 C 72.6689 -0.619658 -3.39491 0
M  V30 752 C 71.7819 -1.77547 -3.93829 0
M  V30 753 C 70.9169 -1.32212 -5.14484 0
M  V30 754 C 69.9559 -2.44852 -5.60994 0
M  V30 755 N 69.0929 -2.00456 -6.72876 0
M  V30 756 H 73.9329 -1.95495 -2.24913 0
M  V30 757 H 71.4699 -0.973861 -1.10247 0
M  V30 758 H 73.4279 -0.368898 -4.15566 0
M  V30 759 H 72.0579 0.278752 -3.21594 0
M  V30 760 H 71.1099 -2.14016 -3.14486 0
M  V30 761 H 72.4219 -2.62219 -4.24314 0
M  V30 762 H 71.5759 -1.02965 -5.97899 0
M  V30 763 H 70.3149 -0.445808 -4.85658 0
M  V30 764 H 69.3199 -2.74871 -4.76157 0
M  V30 765 H 70.5449 -3.33024 -5.91837 0
M  V30 766 H 68.4909 -1.15208 -6.45804 0
M  V30 767 H 68.4079 -2.78687 -7.02759 0
M  V30 768 H 69.6759 -1.7432 -7.59758 0
M  V30 769 N 73.905 1.17692 -1.04816 0
M  V30 770 C 75.153 1.87488 -0.754497 0
M  V30 771 C 75.474 1.81205 0.720407 0
M  V30 772 O 74.744 1.23544 1.52032 0
M  V30 773 H 73.324 0.694101 -0.276102 0
M  V30 774 H 75.986 1.42793 -1.32651 0
M  V30 775 H 75.082 2.93328 -1.06606 0
M  V30 776 N 75.3831 0.828654 1.34056 0
M  V30 777 C 76.6081 0.431637 2.02859 0
M  V30 778 C 77.0331 -0.956339 1.61975 0
M  V30 779 O 76.3911 -1.62338 0.807228 0
M  V30 780 C 76.4391 0.548323 3.56407 0
M  V30 781 O 75.5431 -0.429556 4.10157 0
M  V30 782 H 74.8841 0.176886 0.640006 0
M  V30 783 H 77.4141 1.12066 1.71179 0
M  V30 784 H 77.4241 0.426196 4.05768 0
M  V30 785 H 76.0991 1.5606 3.8551 0
M  V30 786 H 74.6761 -0.265836 3.71951 0
M  V30 787 N 76.8612 -1.46375 0.584142 0
M  V30 788 C 78.0862 -2.07268 0.0740405 0
M  V30 789 C 78.5112 -1.42979 -1.22223 0
M  V30 790 O 77.8692 -0.514092 -1.73859 0
M  V30 791 C 77.9172 -3.60518 -0.0767769 0
M  V30 792 O 77.0212 -3.96533 -1.13292 0
M  V30 793 H 76.3622 -0.660961 0.0634524 0
M  V30 794 H 78.8922 -1.87991 0.807492 0
M  V30 795 H 78.9022 -4.07021 -0.282489 0
M  V30 796 H 77.5772 -4.06702 0.86986 0
M  V30 797 H 76.1542 -3.61738 -0.905553 0
M  V30 798 N 78.3393 -0.321999 -1.54275 0
M  V30 799 C 79.2863 0.544664 -2.24281 0
M  V30 800 C 80.2563 1.1129 -1.23303 0
M  V30 801 O 81.4413 1.15354 -1.51981 0
M  V30 802 C 78.5813 1.70045 -3.00298 0
M  V30 803 C 77.6943 1.16159 -4.1609 0
M  V30 804 C 76.8293 2.28293 -4.79641 0
M  V30 805 C 75.8683 1.71648 -5.8754 0
M  V30 806 N 75.0053 2.77438 -6.44959 0
M  V30 807 H 79.8453 -0.0588907 -2.97942 0
M  V30 808 H 77.3823 -0.0408345 -1.47043 0
M  V30 809 H 79.3403 2.38054 -3.42616 0
M  V30 810 H 77.9703 2.27531 -2.28975 0
M  V30 811 H 77.0223 0.373092 -3.78566 0
M  V30 812 H 78.3343 0.707087 -4.93763 0
M  V30 813 H 77.4883 3.0421 -5.2492 0
M  V30 814 H 76.2273 2.77079 -4.01346 0
M  V30 815 H 75.2323 0.942282 -5.41665 0
M  V30 816 H 76.4573 1.23741 -6.67731 0
M  V30 817 H 74.4033 3.25519 -5.69538 0
M  V30 818 H 74.3203 2.36547 -7.1804 0
M  V30 819 H 75.5883 3.53189 -6.94894 0
M  V30 820 N 79.8174 1.5752 -0.0501392 0
M  V30 821 C 81.2334 1.56631 0.306402 0
M  V30 822 C 81.4334 1.0577 1.71508 0
M  V30 823 O 80.4894 0.713837 2.422 0
M  V30 824 C 81.8024 3.00393 0.135811 0
M  V30 825 C 83.3504 3.12315 0.206993 0
M  V30 826 C 83.8254 4.57954 0.064944 0
M  V30 827 N 85.3164 4.63041 0.121254 0
M  V30 828 C 86.0514 5.73389 0.0354381 0
M  V30 829 N 85.5474 6.92724 -0.102666 0
M  V30 830 N 87.3404 5.62026 0.090946 0
M  V30 831 H 79.4914 1.88903 -0.971046 0
M  V30 832 H 81.7544 0.869876 -0.376855 0
M  V30 833 H 81.4604 3.41635 -0.835384 0
M  V30 834 H 81.3344 3.66373 0.897275 0
M  V30 835 H 83.7214 2.70973 1.16866 0
M  V30 836 H 83.8024 2.49016 -0.585208 0
M  V30 837 H 83.4464 4.99981 -0.893394 0
M  V30 838 H 83.3764 5.19258 0.876277 0
M  V30 839 H 85.8674 3.77216 0.227284 0
M  V30 840 H 86.1804 7.72633 -0.160882 0
M  V30 841 H 84.5254 6.94864 -0.137737 0
M  V30 842 H 87.7164 4.67684 0.197388 0
M  V30 843 H 87.8894 6.47997 0.0206089 0
M  V30 844 N 81.2955 -0.223234 1.56011 0
M  V30 845 C 82.2055 -1.29766 1.95443 0
M  V30 846 C 83.2215 -1.51373 0.858028 0
M  V30 847 O 84.3975 -1.64536 1.16146 0
M  V30 848 C 81.4625 -2.62772 2.26167 0
M  V30 849 C 80.5235 -2.49482 3.49367 0
M  V30 850 C 79.7565 -3.76145 3.78616 0
M  V30 851 O 79.9795 -4.79087 3.09568 0
M  V30 852 O 78.9135 -3.73358 4.72109 0
M  V30 853 H 82.7395 -0.99309 2.87004 0
M  V30 854 H 80.3245 -0.425958 1.43199 0
M  V30 855 H 82.2065 -3.41327 2.47131 0
M  V30 856 H 80.8815 -2.92913 1.37781 0
M  V30 857 H 79.7885 -1.69133 3.33684 0
M  V30 858 H 81.1215 -2.2428 4.38131 0
M  V30 859 N 82.7736 -1.49793 -0.48987 0
M  V30 860 C 83.7366 -1.66752 -1.57246 0
M  V30 861 C 84.7366 -0.538867 -1.51502 0
M  V30 862 O 85.9266 -0.805545 -1.54456 0
M  V30 863 C 83.0586 -1.67528 -2.96896 0
M  V30 864 H 84.2516 -2.63321 -1.43534 0
M  V30 865 H 81.8046 -1.38992 -0.714914 0
M  V30 866 H 82.5396 -0.725837 -3.16073 0
M  V30 867 H 82.3246 -2.49504 -3.02473 0
M  V30 868 H 83.8146 -1.82667 -3.7553 0
M  V30 869 N 84.2517 0.741722 -1.39055 0
M  V30 870 C 85.2147 1.83733 -1.37021 0
M  V30 871 C 86.2147 1.58542 -0.268534 0
M  V30 872 O 87.4047 1.66067 -0.526076 0
M  V30 873 C 84.5367 3.2141 -1.13617 0
M  V30 874 H 85.7297 1.86941 -2.34506 0
M  V30 875 H 83.2827 0.944676 -1.24521 0
M  V30 876 H 84.0177 3.23865 -0.167863 0
M  V30 877 H 83.8027 3.4109 -1.93391 0
M  V30 878 H 85.2927 4.01477 -1.14918 0
M  V30 879 N 85.7298 1.2412 0.971189 0
M  V30 880 C 86.9578 1.10575 1.74874 0
M  V30 881 C 87.3728 -0.342017 1.85676 0
M  V30 882 O 86.7298 -1.23617 1.34258 0
M  V30 883 C 86.7808 1.73579 3.171 0
M  V30 884 O 86.5018 3.12695 3.06844 0
M  V30 885 C 88.0028 1.65598 4.11208 0
M  V30 886 H 85.2228 0.386504 0.548503 0
M  V30 887 H 87.7668 1.64156 1.21955 0
M  V30 888 H 85.9218 1.24009 3.67016 0
M  V30 889 H 86.3358 3.43412 3.96445 0
M  V30 890 H 87.8098 2.1437 5.08674 0
M  V30 891 H 88.2868 0.616532 4.34851 0
M  V30 892 H 88.8928 2.14578 3.67201 0
M  V30 893 N 87.2079 -1.17134 1.05439 0
M  V30 894 C 88.1179 -2.24878 0.668365 0
M  V30 895 C 89.1339 -1.71186 -0.311687 0
M  V30 896 O 90.3099 -2.00738 -0.163161 0
M  V30 897 C 87.3749 -3.46662 0.051648 0
M  V30 898 C 86.4359 -4.15429 1.08246 0
M  V30 899 C 85.6689 -5.31399 0.495082 0
M  V30 900 O 85.8919 -5.66153 -0.694743 0
M  V30 901 O 84.8259 -5.89187 1.23056 0
M  V30 902 H 88.6519 -2.60189 1.56637 0
M  V30 903 H 86.2369 -1.24482 0.826104 0
M  V30 904 H 88.1189 -4.20394 -0.290966 0
M  V30 905 H 86.7939 -3.13142 -0.819971 0
M  V30 906 H 85.7009 -3.43704 1.47711 0
M  V30 907 H 87.0339 -4.52982 1.92532 0
M  V30 908 N 88.686 -0.835752 -1.33615 0
M  V30 909 C 89.911 -0.442389 -2.02627 0
M  V30 910 C 90.336 0.947735 -1.62479 0
M  V30 911 O 89.694 1.61907 -0.815826 0
M  V30 912 C 89.742 -0.567216 -3.56111 0
M  V30 913 O 88.846 0.407799 -4.10379 0
M  V30 914 H 88.187 -0.180278 -0.639059 0
M  V30 915 H 90.717 -1.12972 -1.70583 0
M  V30 916 H 90.727 -0.447708 -4.05536 0
M  V30 917 H 89.402 -1.58103 -3.84677 0
M  V30 918 H 87.979 0.246107 -3.72087 0
M  V30 919 N 90.1641 1.46063 -0.591896 0
M  V30 920 C 91.4121 2.01938 -0.0808391 0
M  V30 921 C 91.7331 1.46475 1.28725 0
M  V30 922 O 91.0031 0.652944 1.84698 0
M  V30 923 H 89.5831 0.746516 -0.0268938 0
M  V30 924 H 92.2451 1.79055 -0.769752 0
M  V30 925 H 91.3411 3.12094 -0.0187578 0
M  V30 926 N 91.6422 0.330177 1.54103 0
M  V30 927 C 92.5892 -0.532762 2.24567 0
M  V30 928 C 93.5592 -1.10635 1.23892 0
M  V30 929 O 94.7442 -1.14546 1.5259 0
M  V30 930 C 91.8842 -1.6845 3.01195 0
M  V30 931 C 90.9972 -1.13951 4.167 0
M  V30 932 C 90.1322 -2.25746 4.80845 0
M  V30 933 C 89.1712 -1.6853 5.88442 0
M  V30 934 N 88.3082 -2.74014 6.46421 0
M  V30 935 H 93.1482 0.0746905 2.97906 0
M  V30 936 H 90.6852 0.048632 1.4702 0
M  V30 937 H 92.6432 -2.36234 3.43874 0
M  V30 938 H 91.2732 -2.26314 2.30178 0
M  V30 939 H 90.3252 -0.35301 3.78758 0
M  V30 940 H 91.6372 -0.680892 4.94131 0
M  V30 941 H 90.7912 -3.01422 5.26526 0
M  V30 942 H 89.5302 -2.74947 4.0281 0
M  V30 943 H 88.5352 -0.913543 5.42157 0
M  V30 944 H 89.7602 -1.20198 6.68378 0
M  V30 945 H 87.7062 -3.22494 5.71256 0
M  V30 946 H 87.6232 -2.32735 7.19285 0
M  V30 947 H 88.8912 -3.49499 6.96757 0
M  V30 948 N 93.1203 -1.57491 0.0584922 0
M  V30 949 C 94.3483 -1.97296 -0.623037 0
M  V30 950 C 94.7633 -0.936338 -1.63946 0
M  V30 951 O 94.1203 0.0785981 -1.82331 0
M  V30 952 C 94.1713 -3.37183 -1.30345 0
M  V30 953 O 93.8923 -4.36872 -0.32773 0
M  V30 954 C 95.3933 -3.91788 -2.07406 0
M  V30 955 H 92.6133 -0.649153 -0.169826 0
M  V30 956 H 95.1573 -2.04106 0.12696 0
M  V30 957 H 93.3123 -3.31502 -2.00463 0
M  V30 958 H 93.7263 -5.18141 -0.814269 0
M  V30 959 H 95.2003 -4.91926 -2.50425 0
M  V30 960 H 95.6773 -3.27609 -2.92521 0
M  V30 961 H 96.2833 -4.00829 -1.42184 0
M  V30 962 N 94.5984 0.214957 -1.56127 0
M  V30 963 C 95.5614 1.24997 -1.92116 0
M  V30 964 C 96.5614 1.39467 -0.800344 0
M  V30 965 O 97.7514 1.37619 -1.06802 0
M  V30 966 C 94.8834 2.62271 -2.17777 0
M  V30 967 H 96.0764 0.942875 -2.84693 0
M  V30 968 H 93.6294 0.455654 -1.49511 0
M  V30 969 H 94.3644 2.98068 -1.27773 0
M  V30 970 H 94.1494 2.53143 -2.99434 0
M  V30 971 H 95.6394 3.36946 -2.46693 0
M  V30 972 N 96.0765 1.50051 0.48192 0
M  V30 973 C 97.3225 1.60736 1.2366 0
M  V30 974 C 97.6555 0.301786 1.91841 0
M  V30 975 O 96.9305 -0.696025 1.8162 0
M  V30 976 C 97.2135 2.78009 2.28874 0
M  V30 977 C 97.0665 4.18416 1.65069 0
M  V30 978 C 98.3855 2.90867 3.30279 0
M  V30 979 H 95.5045 0.585031 0.448228 0
M  V30 980 H 98.1465 1.82402 0.531946 0
M  V30 981 H 96.2965 2.59667 2.88973 0
M  V30 982 H 97.9685 4.48322 1.0865 0
M  V30 983 H 96.2115 4.23177 0.954148 0
M  V30 984 H 96.8825 4.96381 2.41474 0
M  V30 985 H 99.3585 3.07623 2.80191 0
M  V30 986 H 98.2345 3.74566 4.01238 0
M  V30 987 H 98.4955 2.01021 3.93755 0
M  V30 988 N 97.5546 -0.734337 1.39446 0
M  V30 989 C 98.8006 -1.49613 1.36908 0
M  V30 990 C 99.1336 -1.94169 -0.0347829 0
M  V30 991 O 98.4086 -1.66833 -0.999847 0
M  V30 992 C 98.6916 -2.73534 2.34203 0
M  V30 993 C 98.5446 -2.34993 3.83534 0
M  V30 994 C 99.8636 -3.75635 2.29317 0
M  V30 995 H 96.9826 -0.542714 0.498629 0
M  V30 996 H 99.6246 -0.839597 1.70443 0
M  V30 997 H 97.7746 -3.29553 2.05736 0
M  V30 998 H 99.4466 -1.84601 4.22753 0
M  V30 999 H 97.6896 -1.67213 4.00278 0
M  V30 1000 H 98.3606 -3.23738 4.47099 0
M  V30 1001 H 100.837 -3.29203 2.54489 0
M  V30 1002 H 99.7126 -4.60008 2.99472 0
M  V30 1003 H 99.9736 -4.22603 1.29842 0
M  V30 1004 N 99.0327 -1.24633 -0.964593 0
M  V30 1005 C 100.28 -1.08788 -1.70796 0
M  V30 1006 C 100.608 0.372783 -1.90894 0
M  V30 1007 O 99.8627 1.29167 -1.47018 0
M  V30 1008 C 100.162 -1.7763 -3.10133 0
M  V30 1009 C 99.8277 -3.27557 -3.09866 0
M  V30 1010 C 98.4897 -3.6846 -3.09501 0
M  V30 1011 C 100.842 -4.23389 -3.03959 0
M  V30 1012 C 98.1697 -5.03624 -3.00965 0
M  V30 1013 C 100.522 -5.58565 -2.96965 0
M  V30 1014 C 99.1857 -5.98809 -2.9493 0
M  V30 1015 H 98.4557 -0.398084 -0.624988 0
M  V30 1016 H 101.103 -1.54777 -1.12767 0
M  V30 1017 H 99.4077 -1.24044 -3.71645 0
M  V30 1018 H 101.105 -1.62832 -3.66451 0
M  V30 1019 H 97.6947 -2.95006 -3.10917 0
M  V30 1020 H 101.879 -3.92787 -3.03368 0
M  V30 1021 H 97.1347 -5.33998 -2.97752 0
M  V30 1022 H 101.309 -6.32523 -2.91354 0
M  V30 1023 H 98.9357 -7.03505 -2.88071 0
M  V30 1024 N 100.511 1.16574 -1.06058 0
M  V30 1025 C 101.736 1.91493 -0.796562 0
M  V30 1026 C 102.161 1.76773 0.642868 0
M  V30 1027 O 101.519 1.09142 1.44768 0
M  V30 1028 C 101.567 3.40293 -1.19303 0
M  V30 1029 O 100.671 4.11074 -0.330394 0
M  V30 1030 H 100.012 0.596678 -0.291326 0
M  V30 1031 H 102.542 1.47708 -1.41575 0
M  V30 1032 H 102.552 3.91057 -1.16356 0
M  V30 1033 H 101.227 3.50326 -2.24153 0
M  V30 1034 H 99.8038 3.70513 -0.421225 0
M  V30 1035 N 101.989 0.842826 1.3317 0
M  V30 1036 C 102.919 0.294028 2.31641 0
M  V30 1037 C 103.9 -0.600401 1.59151 0
M  V30 1038 O 105.085 -0.523124 1.87022 0
M  V30 1039 C 102.215 -0.528416 3.43257 0
M  V30 1040 C 101.169 0.27056 4.27144 0
M  V30 1041 C 100.495 -0.675881 5.30411 0
M  V30 1042 C 101.795 1.48981 5.00602 0
M  V30 1043 H 103.489 1.11681 2.77791 0
M  V30 1044 H 101.035 0.538478 1.33553 0
M  V30 1045 H 102.988 -0.922674 4.11175 0
M  V30 1046 H 101.712 -1.38445 2.95805 0
M  V30 1047 H 100.371 0.646427 3.60856 0
M  V30 1048 H 100.019 -1.52842 4.79216 0
M  V30 1049 H 99.7189 -0.145374 5.8742 0
M  V30 1050 H 101.243 -1.06757 6.01195 0
M  V30 1051 H 102.657 1.16849 5.61266 0
M  V30 1052 H 101.054 1.95739 5.6728 0
M  V30 1053 H 102.124 2.25746 4.29147 0
M  V30 1054 N 103.467 -1.45747 0.599634 0
M  V30 1055 C 104.414 -2.30467 -0.123849 0
M  V30 1056 C 105.384 -1.41632 -0.86774 0
M  V30 1057 O 106.569 -1.70568 -0.855056 0
M  V30 1058 C 103.709 -3.26402 -1.12051 0
M  V30 1059 C 102.822 -4.3034 -0.37832 0
M  V30 1060 C 101.957 -5.13389 -1.364 0
M  V30 1061 C 100.996 -6.09061 -0.609171 0
M  V30 1062 N 100.133 -6.84918 -1.54374 0
M  V30 1063 H 104.973 -2.91802 0.604627 0
M  V30 1064 H 102.51 -1.43797 0.309972 0
M  V30 1065 H 104.468 -3.80482 -1.7114 0
M  V30 1066 H 103.098 -2.66839 -1.8165 0
M  V30 1067 H 102.15 -3.78984 0.327929 0
M  V30 1068 H 103.462 -4.98354 0.210997 0
M  V30 1069 H 102.616 -5.7183 -2.02719 0
M  V30 1070 H 101.355 -4.45376 -1.98725 0
M  V30 1071 H 100.36 -5.49758 0.0676979 0
M  V30 1072 H 101.585 -6.79099 0.00891991 0
M  V30 1073 H 99.531 -6.19601 -2.15478 0
M  V30 1074 H 99.448 -7.49254 -1.00766 0
M  V30 1075 H 100.716 -7.47906 -2.19676 0
M  V30 1076 N 104.945 -0.338344 -1.53925 0
M  V30 1077 C 105.893 0.536231 -2.26335 0
M  V30 1078 C 106.887 1.1063 -1.28286 0
M  V30 1079 O 108.093 1.05264 -1.46012 0
M  V30 1080 H 104.468 0.191602 -0.727181 0
M  V30 1081 H 106.439 -0.0965747 -2.98244 0
M  V30 1082 C 105.188 1.67803 -3.04528 0
M  V30 1083 H 104.511 1.24864 -3.79801 0
M  V30 1084 H 105.951 2.26526 -3.58416 0
M  V30 1085 C 104.41 2.60439 -2.13712 0
M  V30 1086 O 104.94 3.6255 -1.72975 0
M  V30 1087 N 103.146 2.29006 -1.78898 0
M  V30 1088 H 102.693 1.46011 -2.12223 0
M  V30 1089 H 102.651 2.91248 -1.18416 0
M  V30 1090 N 106.423 1.57458 -0.0668435 0
M  V30 1091 C 107.333 2.15937 0.916975 0
M  V30 1092 C 108.349 1.12123 1.33058 0
M  V30 1093 O 109.525 1.44366 1.40429 0
M  V30 1094 C 106.59 2.70547 2.16807 0
M  V30 1095 C 105.651 3.89215 1.81135 0
M  V30 1096 C 104.884 4.41211 3.0028 0
M  V30 1097 O 105.107 3.92225 4.14144 0
M  V30 1098 O 104.041 5.32605 2.80384 0
M  V30 1099 H 107.867 3.00354 0.449561 0
M  V30 1100 H 105.452 1.48584 0.155949 0
M  V30 1101 H 107.334 3.0557 2.90181 0
M  V30 1102 H 106.009 1.89192 2.62656 0
M  V30 1103 H 104.916 3.59054 1.05028 0
M  V30 1104 H 106.249 4.71848 1.40073 0
M  V30 1105 N 107.901 -0.206675 1.56239 0
M  V30 1106 C 109.147 -0.930218 1.80208 0
M  V30 1107 C 109.48 -1.83387 0.638981 0
M  V30 1108 O 108.755 -1.91119 -0.361066 0
M  V30 1109 C 109.038 -1.75641 3.1436 0
M  V30 1110 C 108.891 -0.878257 4.41142 0
M  V30 1111 C 110.21 -2.73129 3.45092 0
M  V30 1112 H 107.329 -0.336742 0.655571 0
M  V30 1113 H 109.971 -0.198222 1.88963 0
M  V30 1114 H 108.121 -2.38048 3.07027 0
M  V30 1115 H 109.793 -0.269787 4.6051 0
M  V30 1116 H 108.036 -0.184385 4.33408 0
M  V30 1117 H 108.707 -1.49106 5.3148 0
M  V30 1118 H 111.183 -2.20856 3.52649 0
M  V30 1119 H 110.059 -3.28028 4.40101 0
M  V30 1120 H 110.32 -3.51606 2.68003 0
M  V30 1121 N 109.379 -1.50304 -0.473955 0
M  V30 1122 C 110.627 -1.60832 -1.22382 0
M  V30 1123 C 110.948 -0.30939 -1.9253 0
M  V30 1124 O 110.218 0.67296 -1.83978 0
M  V30 1125 H 108.798 -0.592652 -0.454723 0
M  V30 1126 H 111.46 -1.87068 -0.546968 0
M  V30 1127 H 110.556 -2.41803 -1.97327 0
M  V30 1128 N 110.857 0.726932 -1.39834 0
M  V30 1129 C 112.105 1.4837 -1.37225 0
M  V30 1130 C 112.426 1.94979 0.0284857 0
M  V30 1131 O 111.696 1.69555 0.981213 0
M  V30 1132 H 110.276 0.55043 -0.505011 0
M  V30 1133 H 112.938 0.862468 -1.74778 0
M  V30 1134 H 112.034 2.36198 -2.04003 0
M  V30 1135 N 112.336 1.25143 0.95797 0
M  V30 1136 C 113.266 1.07711 2.07173 0
M  V30 1137 C 114.247 -0.0128462 1.70095 0
M  V30 1138 O 115.432 0.156061 1.93572 0
M  V30 1139 C 112.562 0.691503 3.40346 0
M  V30 1140 C 111.516 1.73132 3.9142 0
M  V30 1141 C 110.842 1.20049 5.21049 0
M  V30 1142 C 112.142 3.1294 4.1817 0
M  V30 1143 H 113.836 2.00873 2.22014 0
M  V30 1144 H 111.382 0.967191 1.06684 0
M  V30 1145 H 113.335 0.556505 4.17709 0
M  V30 1146 H 112.059 -0.275819 3.25433 0
M  V30 1147 H 110.718 1.8547 3.16222 0
M  V30 1148 H 110.366 0.223499 5.02503 0
M  V30 1149 H 110.066 1.89545 5.56189 0
M  V30 1150 H 111.59 1.07782 6.01012 0
M  V30 1151 H 113.004 3.03775 4.86203 0
M  V30 1152 H 111.401 3.79875 4.64559 0
M  V30 1153 H 112.471 3.6025 3.24573 0
M  V30 1154 N 113.814 -1.1601 1.06675 0
M  V30 1155 C 115.06 -1.86909 0.786945 0
M  V30 1156 C 115.393 -1.81717 -0.685018 0
M  V30 1157 O 114.668 -1.23551 -1.50218 0
M  V30 1158 C 114.951 -3.36313 1.28707 0
M  V30 1159 C 114.804 -3.50175 2.82308 0
M  V30 1160 C 116.123 -4.3084 0.898071 0
M  V30 1161 H 113.242 -0.678677 0.287343 0
M  V30 1162 H 115.884 -1.36336 1.32334 0
M  V30 1163 H 114.034 -3.79513 0.830768 0
M  V30 1164 H 115.706 -3.15886 3.36175 0
M  V30 1165 H 113.949 -2.91959 3.20847 0
M  V30 1166 H 114.62 -4.55116 3.12368 0
M  V30 1167 H 117.096 -3.95561 1.29114 0
M  V30 1168 H 115.972 -5.33876 1.27543 0
M  V30 1169 H 116.233 -4.41662 -0.196651 0
M  V30 1170 N 115.292 -0.849877 -1.32721 0
M  V30 1171 C 116.239 -0.289033 -2.28983 0
M  V30 1172 C 117.209 0.601324 -1.54833 0
M  V30 1173 O 118.394 0.537253 -1.8308 0
M  V30 1174 C 115.534 0.520623 -3.4115 0
M  V30 1175 C 114.647 -0.394989 -4.3019 0
M  V30 1176 C 113.782 0.426834 -5.29482 0
M  V30 1177 C 112.821 -0.486476 -6.10164 0
M  V30 1178 N 111.958 0.297879 -7.01468 0
M  V30 1179 H 116.798 -1.11519 -2.76347 0
M  V30 1180 H 114.335 -0.56138 -1.35967 0
M  V30 1181 H 116.293 1.00563 -4.04899 0
M  V30 1182 H 114.923 1.31165 -2.9495 0
M  V30 1183 H 113.975 -0.99836 -3.67065 0
M  V30 1184 H 115.287 -1.09612 -4.86607 0
M  V30 1185 H 114.441 0.975205 -5.98811 0
M  V30 1186 H 113.18 1.16136 -4.73671 0
M  V30 1187 H 112.185 -1.04677 -5.39743 0
M  V30 1188 H 113.41 -1.21953 -6.6806 0
M  V30 1189 H 111.356 1.01558 -6.48091 0
M  V30 1190 H 111.273 -0.344318 -7.55216 0
M  V30 1191 H 112.541 0.828131 -7.75089 0
M  V30 1192 N 116.77 1.45427 -0.607355 0
M  V30 1193 C 117.733 2.28974 0.101693 0
M  V30 1194 C 118.733 1.39754 0.795329 0
M  V30 1195 O 119.923 1.61878 0.643527 0
M  V30 1196 C 117.055 3.20768 1.15414 0
M  V30 1197 H 118.248 2.93147 -0.632844 0
M  V30 1198 H 115.801 1.51945 -0.366391 0
M  V30 1199 H 116.536 2.61395 1.91945 0
M  V30 1200 H 116.321 3.86489 0.66098 0
M  V30 1201 H 117.811 3.83589 1.65073 0
M  V30 1202 N 118.248 0.346503 1.53744 0
M  V30 1203 C 119.178 -0.501193 2.28058 0
M  V30 1204 C 120.159 -1.10014 1.29734 0
M  V30 1205 O 121.344 -1.12097 1.58581 0
M  V30 1206 C 118.474 -1.65078 3.05559 0
M  V30 1207 C 117.428 -1.18003 4.11411 0
M  V30 1208 C 116.754 -2.41837 4.76884 0
M  V30 1209 C 118.054 -0.278394 5.21558 0
M  V30 1210 H 119.748 0.11875 2.99164 0
M  V30 1211 H 117.294 0.0585531 1.43881 0
M  V30 1212 H 119.247 -2.25028 3.56287 0
M  V30 1213 H 117.971 -2.29767 2.32109 0
M  V30 1214 H 116.63 -0.603331 3.61601 0
M  V30 1215 H 116.278 -3.0494 4.00026 0
M  V30 1216 H 115.978 -2.1102 5.48402 0
M  V30 1217 H 117.502 -3.02508 5.30397 0
M  V30 1218 H 118.916 -0.784823 5.67903 0
M  V30 1219 H 117.313 -0.0619707 6.00068 0
M  V30 1220 H 118.383 0.684677 4.80042 0
M  V30 1221 N 119.726 -1.57421 0.075193 0
M  V30 1222 C 121.142 -1.57099 -0.281444 0
M  V30 1223 C 121.342 -1.08486 -1.69803 0
M  V30 1224 O 120.398 -0.752279 -2.41033 0
M  V30 1225 C 121.711 -3.00571 -0.0880041 0
M  V30 1226 C 123.259 -3.12605 -0.157281 0
M  V30 1227 C 123.734 -4.57999 0.0079207 0
M  V30 1228 N 125.225 -4.63176 -0.0475725 0
M  V30 1229 C 125.96 -5.73373 0.0557876 0
M  V30 1230 N 125.456 -6.92473 0.21286 0
M  V30 1231 N 127.249 -5.621 -0.00152098 0
M  V30 1232 H 119.4 -1.87335 1.00098 0
M  V30 1233 H 121.663 -0.86377 0.390646 0
M  V30 1234 H 121.369 -3.40262 0.889629 0
M  V30 1235 H 121.243 -3.67754 -0.838875 0
M  V30 1236 H 123.63 -2.72798 -1.1254 0
M  V30 1237 H 123.711 -2.48053 0.62475 0
M  V30 1238 H 123.355 -4.98496 0.972824 0
M  V30 1239 H 123.285 -5.20586 -0.793556 0
M  V30 1240 H 125.776 -3.7753 -0.167244 0
M  V30 1241 H 126.089 -7.72279 0.283781 0
M  V30 1242 H 124.434 -6.94556 0.248267 0
M  V30 1243 H 127.625 -4.67938 -0.122958 0
M  V30 1244 H 127.798 -6.47948 0.0824844 0
M  V30 1245 N 121.204 0.198386 -1.56346 0
M  V30 1246 C 122.134 1.24865 -1.9731 0
M  V30 1247 C 123.115 1.47651 -0.844576 0
M  V30 1248 O 124.3 1.59444 -1.10866 0
M  V30 1249 C 121.43 2.59358 -2.30977 0
M  V30 1250 C 120.384 2.5119 -3.46537 0
M  V30 1251 C 119.71 3.89926 -3.65871 0
M  V30 1252 C 121.01 2.03977 -4.80823 0
M  V30 1253 H 122.704 0.908252 -2.85291 0
M  V30 1254 H 120.25 0.435462 -1.37258 0
M  V30 1255 H 122.203 3.33011 -2.58228 0
M  V30 1256 H 120.927 2.95132 -1.39874 0
M  V30 1257 H 119.586 1.79993 -3.19371 0
M  V30 1258 H 119.234 4.23046 -2.72105 0
M  V30 1259 H 118.934 3.85336 -4.4361 0
M  V30 1260 H 120.458 4.65205 -3.95495 0
M  V30 1261 H 121.872 2.67386 -5.07127 0
M  V30 1262 H 120.269 2.10397 -5.62008 0
M  V30 1263 H 121.339 0.992861 -4.74626 0
M  V30 1264 N 122.682 1.50554 0.465978 0
M  V30 1265 C 123.929 1.61798 1.21768 0
M  V30 1266 C 124.257 0.320696 1.91838 0
M  V30 1267 O 123.512 -0.693724 1.82992 0
M  V30 1268 C 123.811 2.75152 2.28093 0
M  V30 1269 C 123.477 4.15454 1.75239 0
M  V30 1270 C 122.139 4.53628 1.60546 0
M  V30 1271 C 124.491 5.03121 1.36083 0
M  V30 1272 C 121.819 5.77204 1.05128 0
M  V30 1273 C 124.171 6.27249 0.821056 0
M  V30 1274 C 122.835 6.64221 0.660795 0
M  V30 1275 H 122.105 0.592063 0.445582 0
M  V30 1276 H 124.752 1.84503 0.512927 0
M  V30 1277 H 123.057 2.46556 3.04496 0
M  V30 1278 H 124.754 2.81055 2.86023 0
M  V30 1279 H 121.344 3.85341 1.87644 0
M  V30 1280 H 125.528 4.74257 1.46267 0
M  V30 1281 H 120.784 6.0452 0.91462 0
M  V30 1282 H 124.958 6.94537 0.509018 0
M  V30 1283 H 122.585 7.59854 0.229226 0
M  V30 1284 N 124.16 -0.719506 1.40217 0
M  V30 1285 C 125.092 -1.84428 1.36084 0
M  V30 1286 C 126.105 -1.60597 0.266913 0
M  V30 1287 O 127.294 -1.70544 0.526983 0
M  V30 1288 C 124.394 -3.20757 1.094 0
M  V30 1289 C 123.567 -3.71817 2.30372 0
M  V30 1290 C 122.626 -4.86748 1.99907 0
M  V30 1291 O 121.652 -4.99603 2.72737 0
M  V30 1292 N 122.854 -5.7226 0.974635 0
M  V30 1293 H 125.619 -1.88473 2.33019 0
M  V30 1294 H 123.18 -0.900885 1.3452 0
M  V30 1295 H 125.172 -3.95235 0.870116 0
M  V30 1296 H 123.742 -3.11884 0.211452 0
M  V30 1297 H 122.962 -2.88514 2.68614 0
M  V30 1298 H 124.25 -4.02666 3.11026 0
M  V30 1299 H 123.648 -5.6448 0.371368 0
M  V30 1300 H 122.205 -6.46739 0.810656 0
M  V30 1301 N 125.638 -1.25649 -0.95132 0
M  V30 1302 C 126.548 -1.08073 -2.08224 0
M  V30 1303 C 127.564 -0.0169666 -1.73992 0
M  V30 1304 O 128.74 -0.218593 -2.0021 0
M  V30 1305 C 125.805 -0.704922 -3.39458 0
M  V30 1306 C 124.866 -1.84699 -3.87537 0
M  V30 1307 C 124.099 -1.48902 -5.12508 0
M  V30 1308 O 124.322 -0.386156 -5.69091 0
M  V30 1309 O 123.256 -2.32033 -5.55378 0
M  V30 1310 H 127.082 -2.02924 -2.25954 0
M  V30 1311 H 124.667 -1.04618 -1.06656 0
M  V30 1312 H 126.549 -0.507609 -4.18332 0
M  V30 1313 H 125.224 0.214291 -3.2299 0
M  V30 1314 H 124.131 -2.09919 -3.09653 0
M  V30 1315 H 125.464 -2.74557 -4.08509 0
M  V30 1316 N 127.117 1.15442 -1.07289 0
M  V30 1317 C 128.064 2.20161 -0.692653 0
M  V30 1318 C 129.034 1.63073 0.31564 0
M  V30 1319 O 130.219 1.89725 0.202235 0
M  V30 1320 C 127.359 3.44967 -0.0959509 0
M  V30 1321 C 126.472 4.16256 -1.15564 0
M  V30 1322 C 125.607 5.28609 -0.524011 0
M  V30 1323 C 124.646 5.91715 -1.56653 0
M  V30 1324 N 123.783 6.9554 -0.957531 0
M  V30 1325 H 128.623 2.52037 -1.59002 0
M  V30 1326 H 126.16 1.2378 -0.794798 0
M  V30 1327 H 128.118 4.16341 0.267628 0
M  V30 1328 H 126.748 3.1361 0.764772 0
M  V30 1329 H 125.8 3.43385 -1.6368 0
M  V30 1330 H 127.112 4.59268 -1.94613 0
M  V30 1331 H 126.266 6.06604 -0.108032 0
M  V30 1332 H 125.005 4.86787 0.29825 0
M  V30 1333 H 124.01 5.12433 -1.9923 0
M  V30 1334 H 125.235 6.35614 -2.39107 0
M  V30 1335 H 123.181 6.55814 -0.156162 0
M  V30 1336 H 123.098 7.36977 -1.68526 0
M  V30 1337 H 124.366 7.77435 -0.567032 0
M  V30 1338 N 128.595 0.856903 1.32268 0
M  V30 1339 C 130.011 0.547061 1.49931 0
M  V30 1340 C 130.211 -0.921781 1.7918 0
M  V30 1341 O 129.267 -1.70469 1.8627 0
M  V30 1342 C 130.58 1.43599 2.64196 0
M  V30 1343 C 132.128 1.43665 2.78081 0
M  V30 1344 C 132.603 2.31085 3.95428 0
M  V30 1345 N 134.094 2.28893 4.02694 0
M  V30 1346 C 134.829 2.93262 4.92732 0
M  V30 1347 N 134.325 3.66751 5.87763 0
M  V30 1348 N 136.118 2.82638 4.85873 0
M  V30 1349 H 128.269 1.8075 1.11549 0
M  V30 1350 H 130.532 0.772144 0.549997 0
M  V30 1351 H 130.238 2.48058 2.49319 0
M  V30 1352 H 130.112 1.12502 3.60032 0
M  V30 1353 H 132.499 0.399701 2.92381 0
M  V30 1354 H 132.58 1.7878 1.82952 0
M  V30 1355 H 132.224 3.34849 3.81888 0
M  V30 1356 H 132.154 1.93302 4.89839 0
M  V30 1357 H 134.645 1.75466 3.34694 0
M  V30 1358 H 134.958 4.13027 6.53168 0
M  V30 1359 H 133.303 3.70859 5.87783 0
M  V30 1360 H 136.494 2.24774 4.10602 0
M  V30 1361 H 136.667 3.33084 5.55841 0
M  V30 1362 N 130.073 -1.45103 0.615059 0
M  V30 1363 C 131.319 -2.02483 0.113347 0
M  V30 1364 C 131.652 -1.48146 -1.25564 0
M  V30 1365 O 130.927 -0.659104 -1.82992 0
M  V30 1366 C 131.21 -3.60005 0.0825278 0
M  V30 1367 C 131.063 -4.2466 1.48271 0
M  V30 1368 C 132.382 -4.35972 -0.601401 0
M  V30 1369 H 129.501 -0.735764 0.0426632 0
M  V30 1370 H 132.143 -1.72868 0.788461 0
M  V30 1371 H 130.293 -3.85367 -0.492378 0
M  V30 1372 H 131.965 -4.10458 2.10527 0
M  V30 1373 H 130.208 -3.82772 2.04127 0
M  V30 1374 H 130.879 -5.336 1.41332 0
M  V30 1375 H 133.355 -4.15947 -0.112666 0
M  V30 1376 H 132.231 -5.45697 -0.592097 0
M  V30 1377 H 132.492 -4.09391 -1.66887 0
M  V30 1378 N 131.551 -0.354651 -1.53558 0
M  V30 1379 C 132.499 0.512195 -2.26891 0
M  V30 1380 C 133.493 1.09263 -1.29452 0
M  V30 1381 O 134.699 1.03709 -1.47121 0
M  V30 1382 H 131.074 0.183878 -0.729173 0
M  V30 1383 H 133.045 -0.128202 -2.98124 0
M  V30 1384 C 131.794 1.64563 -3.06291 0
M  V30 1385 H 131.117 1.20829 -3.81104 0
M  V30 1386 H 132.557 2.22711 -3.60799 0
M  V30 1387 C 131.016 2.58158 -2.16462 0
M  V30 1388 O 131.546 3.60695 -1.76811 0
M  V30 1389 N 129.752 2.27096 -1.81317 0
M  V30 1390 H 129.299 1.43751 -2.1376 0
M  V30 1391 H 129.257 2.89975 -1.21498 0
M  V30 1392 N 133.029 1.57378 -0.0835403 0
M  V30 1393 C 133.962 2.09016 0.915833 0
M  V30 1394 C 134.94 0.997993 1.2837 0
M  V30 1395 O 136.124 1.27219 1.39096 0
M  V30 1396 C 133.251 2.55757 2.22049 0
M  V30 1397 C 132.297 3.76522 2.00333 0
M  V30 1398 S 133.13 5.20661 1.25191 0
M  V30 1399 C 134.286 5.70743 2.56912 0
M  V30 1400 H 134.519 2.93457 0.476492 0
M  V30 1401 H 132.052 1.53856 0.129493 0
M  V30 1402 H 134.01 2.83346 2.97027 0
M  V30 1403 H 132.671 1.71564 2.63106 0
M  V30 1404 H 131.864 4.07256 2.96916 0
M  V30 1405 H 131.466 3.49367 1.33488 0
M  V30 1406 H 133.758 5.78304 3.52946 0
M  V30 1407 H 134.701 6.6944 2.30772 0
M  V30 1408 H 135.109 4.98616 2.64655 0
M  V30 1409 N 134.507 -0.190092 1.56449 0
M  V30 1410 C 135.753 -0.911052 1.81184 0
M  V30 1411 C 136.086 -1.82699 0.658396 0
M  V30 1412 O 135.361 -1.91491 -0.340775 0
M  V30 1413 C 135.644 -1.72297 3.16205 0
M  V30 1414 C 135.497 -0.831419 4.42049 0
M  V30 1415 C 136.816 -2.69454 3.47969 0
M  V30 1416 H 133.935 -0.32977 0.659106 0
M  V30 1417 H 136.577 -0.178169 1.89163 0
M  V30 1418 H 134.727 -2.34778 3.09534 0
M  V30 1419 H 136.399 -0.220929 4.60771 0
M  V30 1420 H 134.642 -0.138406 4.33579 0
M  V30 1421 H 135.313 -1.43461 5.33032 0
M  V30 1422 H 137.789 -2.17104 3.54972 0
M  V30 1423 H 136.665 -3.23342 4.43555 0
M  V30 1424 H 136.926 -3.48744 2.71717 0
M  V30 1425 N 135.985 -1.50799 -0.457987 0
M  V30 1426 C 136.935 -1.67003 -1.55222 0
M  V30 1427 C 137.919 -0.52434 -1.52117 0
M  V30 1428 O 139.111 -0.779345 -1.58919 0
M  V30 1429 C 136.24 -1.77956 -2.93576 0
M  V30 1430 C 135.326 -2.98243 -3.01516 0
M  V30 1431 N 135.717 -4.21732 -2.79241 0
M  V30 1432 C 134.015 -2.97072 -3.32662 0
M  V30 1433 C 134.716 -5.02817 -2.92489 0
M  V30 1434 N 133.692 -4.37038 -3.23262 0
M  V30 1435 H 137.494 -2.60163 -1.36721 0
M  V30 1436 H 135.008 -1.48163 -0.664952 0
M  V30 1437 H 137.005 -1.87671 -3.72271 0
M  V30 1438 H 135.665 -0.859634 -3.13114 0
M  V30 1439 H 136.676 -4.51016 -2.54567 0
M  V30 1440 H 133.353 -2.14631 -3.58106 0
M  V30 1441 H 134.743 -6.11054 -2.79396 0
M  V30 1442 N 137.463 0.71206 -1.40597 0
M  V30 1443 C 138.712 1.46754 -1.38369 0
M  V30 1444 C 139.025 1.95598 0.0097839 0
M  V30 1445 O 140.231 2.71059 0.154677 0
M  V30 1446 C 138.687 2.65289 -2.43207 0
M  V30 1447 C 138.295 2.23301 -3.88382 0
M  V30 1448 C 140.039 3.43008 -2.50091 0
M  V30 1449 C 137.946 3.38696 -4.84808 0
M  V30 1450 H 136.876 0.55118 -0.514506 0
M  V30 1451 H 139.527 0.774616 -1.66349 0
M  V30 1452 H 137.909 3.36769 -2.08332 0
M  V30 1453 H 139.083 1.59218 -4.32419 0
M  V30 1454 H 137.398 1.58618 -3.85006 0
M  V30 1455 H 139.995 4.28881 -3.1932 0
M  V30 1456 H 140.338 3.87065 -1.53253 0
M  V30 1457 H 140.871 2.78574 -2.83974 0
M  V30 1458 H 137.61 2.99668 -5.82992 0
M  V30 1459 H 137.13 4.01683 -4.45433 0
M  V30 1460 H 138.809 4.04712 -5.04794 0
M  V30 1461 N 138.941 1.26152 0.944643 0
M  V30 1462 C 139.851 1.09176 2.07648 0
M  V30 1463 C 140.867 0.0261935 1.7398 0
M  V30 1464 O 142.043 0.229208 2.00091 0
M  V30 1465 C 139.108 0.722915 3.39079 0
M  V30 1466 C 138.169 1.86752 3.86552 0
M  V30 1467 C 137.402 1.51617 5.11711 0
M  V30 1468 O 137.625 0.416331 5.68879 0
M  V30 1469 O 136.559 2.34975 5.54139 0
M  V30 1470 H 140.385 2.0412 2.24875 0
M  V30 1471 H 137.97 1.05182 1.061 0
M  V30 1472 H 139.852 0.529787 4.18056 0
M  V30 1473 H 138.527 -0.197159 3.23099 0
M  V30 1474 H 137.434 2.11558 3.08535 0
M  V30 1475 H 138.767 2.76719 4.07047 0
M  V30 1476 N 140.419 -1.14872 1.07899 0
M  V30 1477 C 141.644 -1.90202 0.826926 0
M  V30 1478 C 142.069 -1.77774 -0.614664 0
M  V30 1479 O 141.427 -1.11431 -1.43013 0
M  V30 1480 C 141.475 -3.38352 1.24702 0
M  V30 1481 O 140.579 -4.10497 0.39575 0
M  V30 1482 H 139.92 -0.591968 0.300782 0
M  V30 1483 H 142.45 -1.45437 1.43907 0
M  V30 1484 H 142.46 -3.89156 1.22563 0
M  V30 1485 H 141.135 -3.46715 2.29698 0
M  V30 1486 H 139.712 -3.69796 0.480117 0
M  V30 1487 N 141.898 -0.863906 -1.31812 0
M  V30 1488 C 143.314 -0.555004 -1.49639 0
M  V30 1489 C 143.514 0.912266 -1.79666 0
M  V30 1490 O 142.57 1.69479 -1.87171 0
M  V30 1491 C 143.883 -1.44998 -2.63431 0
M  V30 1492 C 145.431 -1.45138 -2.77316 0
M  V30 1493 C 145.906 -2.33179 -3.94197 0
M  V30 1494 N 147.397 -2.31025 -4.01474 0
M  V30 1495 C 148.132 -2.95871 -4.9117 0
M  V30 1496 N 147.628 -3.69863 -5.8581 0
M  V30 1497 N 149.421 -2.85211 -4.84367 0
M  V30 1498 H 141.572 -1.81339 -1.10589 0
M  V30 1499 H 143.835 -0.77505 -0.545895 0
M  V30 1500 H 143.541 -2.49377 -2.48 0
M  V30 1501 H 143.415 -1.14409 -3.59431 0
M  V30 1502 H 145.802 -0.415201 -2.92164 0
M  V30 1503 H 145.883 -1.79747 -1.82001 0
M  V30 1504 H 145.527 -3.3687 -3.80107 0
M  V30 1505 H 145.457 -1.95897 -4.88807 0
M  V30 1506 H 147.948 -1.77238 -3.33759 0
M  V30 1507 H 148.261 -4.16486 -6.50968 0
M  V30 1508 H 146.606 -3.73971 -5.85808 0
M  V30 1509 H 149.797 -2.26948 -4.09405 0
M  V30 1510 H 149.97 -3.36027 -5.54066 0
M  V30 1511 N 143.376 1.44774 -0.622745 0
M  V30 1512 C 144.323 2.30635 0.0871679 0
M  V30 1513 C 145.293 1.42994 0.845097 0
M  V30 1514 O 146.478 1.71907 0.827812 0
M  V30 1515 C 143.618 3.28144 1.06844 0
M  V30 1516 C 142.731 4.30888 0.309809 0
M  V30 1517 C 141.866 5.15494 1.28215 0
M  V30 1518 C 140.905 6.09953 0.512198 0
M  V30 1519 N 140.042 6.87287 1.43458 0
M  V30 1520 H 144.882 2.90803 -0.650974 0
M  V30 1521 H 142.419 1.43286 -0.33281 0
M  V30 1522 H 144.377 3.83157 1.65066 0
M  V30 1523 H 143.007 2.69695 1.77382 0
M  V30 1524 H 142.059 3.78414 -0.388181 0
M  V30 1525 H 143.371 4.97955 -0.290254 0
M  V30 1526 H 142.525 5.74983 1.93596 0
M  V30 1527 H 141.264 4.48481 1.91614 0
M  V30 1528 H 140.269 5.49581 -0.155151 0
M  V30 1529 H 141.494 6.78999 -0.116958 0
M  V30 1530 H 139.44 6.2295 2.05594 0
M  V30 1531 H 139.357 7.50763 0.888335 0
M  V30 1532 H 140.625 7.51306 2.07749 0
M  V30 1533 N 144.854 0.36279 1.53368 0
M  V30 1534 C 146.079 -0.231226 2.06107 0
M  V30 1535 C 146.504 -1.419 1.23474 0
M  V30 1536 O 145.862 -1.79524 0.253128 0
M  V30 1537 C 145.91 -0.605523 3.5548 0
M  V30 1538 O 145.014 -1.70312 3.7559 0
M  V30 1539 H 144.355 -0.034327 0.663112 0
M  V30 1540 H 146.885 0.522584 1.97814 0
M  V30 1541 H 146.895 -0.877314 3.98456 0
M  V30 1542 H 145.57 0.263004 4.15068 0
M  V30 1543 H 144.147 -1.4271 3.44512 0
M  V30 1544 N 146.332 -1.57332 0.0918853 0
M  V30 1545 C 147.748 -1.57389 -0.264766 0
M  V30 1546 C 147.948 -1.10281 -1.68643 0
M  V30 1547 O 147.004 -0.777801 -2.40222 0
M  V30 1548 C 148.317 -3.00648 -0.0561195 0
M  V30 1549 C 149.865 -3.12754 -0.124116 0
M  V30 1550 C 150.34 -4.57965 0.0564972 0
M  V30 1551 N 151.831 -4.632 0.00155611 0
M  V30 1552 C 152.566 -5.73281 0.116598 0
M  V30 1553 N 152.062 -6.92208 0.286294 0
M  V30 1554 N 153.855 -5.6207 0.0580973 0
M  V30 1555 H 146.006 -1.86262 1.02079 0
M  V30 1556 H 148.269 -0.859579 0.399786 0
M  V30 1557 H 147.975 -3.393 0.925669 0
M  V30 1558 H 147.849 -3.68623 -0.799823 0
M  V30 1559 H 150.236 -2.73976 -1.09641 0
M  V30 1560 H 150.317 -2.47377 0.651024 0
M  V30 1561 H 149.961 -4.97436 1.02564 0
M  V30 1562 H 149.891 -5.21399 -0.738297 0
M  V30 1563 H 152.382 -3.77686 -0.127192 0
M  V30 1564 H 152.695 -7.71934 0.365676 0
M  V30 1565 H 151.04 -6.94254 0.32192 0
M  V30 1566 H 154.231 -4.68043 -0.0733204 0
M  V30 1567 H 154.404 -6.47824 0.151203 0
M  V30 1568 N 147.81 0.181792 -1.56548 0
M  V30 1569 C 149.226 0.53316 -1.50431 0
M  V30 1570 C 149.426 1.85184 -0.794297 0
M  V30 1571 O 148.482 2.50058 -0.350318 0
M  V30 1572 C 149.795 0.575597 -2.9514 0
M  V30 1573 C 151.343 0.663519 -3.05886 0
M  V30 1574 C 151.818 0.736946 -4.52032 0
M  V30 1575 N 153.309 0.800118 -4.56237 0
M  V30 1576 C 154.044 0.877327 -5.66649 0
M  V30 1577 N 153.54 0.916016 -6.86718 0
M  V30 1578 N 155.333 0.915542 -5.54594 0
M  V30 1579 H 147.484 -0.683025 -2.01118 0
M  V30 1580 H 149.747 -0.244988 -0.915797 0
M  V30 1581 H 149.453 -0.324482 -3.502 0
M  V30 1582 H 149.327 1.42572 -3.49218 0
M  V30 1583 H 151.714 1.55403 -2.50867 0
M  V30 1584 H 151.795 -0.21307 -2.54911 0
M  V30 1585 H 151.439 -0.149262 -5.07681 0
M  V30 1586 H 151.369 1.62953 -5.00753 0
M  V30 1587 H 153.86 0.778926 -3.69785 0
M  V30 1588 H 154.173 0.975813 -7.66614 0
M  V30 1589 H 152.518 0.884469 -6.89349 0
M  V30 1590 H 155.709 0.882245 -4.59711 0
M  V30 1591 H 155.882 0.972253 -6.40665 0
M  V30 1592 N 149.288 1.51039 0.449983 0
M  V30 1593 C 150.704 1.38934 0.785462 0
M  V30 1594 C 150.904 0.461817 1.96136 0
M  V30 1595 O 149.96 -0.0877389 2.52348 0
M  V30 1596 C 151.273 2.80724 1.0777 0
M  V30 1597 C 152.821 2.89787 1.1829 0
M  V30 1598 C 153.296 4.32457 1.50815 0
M  V30 1599 N 154.787 4.35505 1.57764 0
M  V30 1600 C 155.522 5.42914 1.84477 0
M  V30 1601 N 155.018 6.60502 2.09068 0
M  V30 1602 N 156.811 5.3038 1.86155 0
M  V30 1603 H 148.962 2.09904 -0.324647 0
M  V30 1604 H 151.225 0.944378 -0.0827957 0
M  V30 1605 H 150.931 3.50531 0.286498 0
M  V30 1606 H 150.805 3.19273 2.00859 0
M  V30 1607 H 153.192 2.20186 1.96474 0
M  V30 1608 H 153.273 2.54752 0.231314 0
M  V30 1609 H 152.917 5.02603 0.731622 0
M  V30 1610 H 152.847 4.64995 2.47158 0
M  V30 1611 H 155.338 3.50724 1.40715 0
M  V30 1612 H 155.651 7.38158 2.28785 0
M  V30 1613 H 153.996 6.63639 2.06416 0
M  V30 1614 H 157.187 4.37505 1.66454 0
M  V30 1615 H 157.36 6.1417 2.06637 0
M  V30 1616 N 150.766 -0.704594 1.40972 0
M  V30 1617 C 151.991 -1.49858 1.43378 0
M  V30 1618 C 152.416 -1.88061 0.038184 0
M  V30 1619 O 151.774 -1.5402 -0.956425 0
M  V30 1620 C 151.822 -2.74333 2.34038 0
M  V30 1621 O 150.926 -3.7147 1.7912 0
M  V30 1622 H 150.267 -0.45139 0.486974 0
M  V30 1623 H 152.797 -0.866832 1.8533 0
M  V30 1624 H 152.807 -3.22741 2.49604 0
M  V30 1625 H 151.482 -2.45863 3.35446 0
M  V30 1626 H 150.059 -3.30363 1.72958 0
M  V30 1627 N 152.244 -1.26651 -0.937939 0
M  V30 1628 C 153.469 -1.15279 -1.72411 0
M  V30 1629 C 153.894 0.287866 -1.85884 0
M  V30 1630 O 153.252 1.20855 -1.35143 0
M  V30 1631 C 153.3 -1.83028 -3.10698 0
M  V30 1632 O 152.404 -1.12128 -3.96864 0
M  V30 1633 H 151.745 -0.401504 -0.528858 0
M  V30 1634 H 154.275 -1.67531 -1.1745 0
M  V30 1635 H 154.285 -1.89981 -3.6107 0
M  V30 1636 H 152.96 -2.87833 -3.00208 0
M  V30 1637 H 151.537 -1.13173 -3.55312 0
M  V30 1638 N 153.722 1.14298 -1.08507 0
M  V30 1639 C 154.632 2.23027 -0.727753 0
M  V30 1640 C 155.648 1.71952 0.26619 0
M  V30 1641 O 156.824 2.011 0.109882 0
M  V30 1642 C 153.889 3.46403 -0.143541 0
M  V30 1643 C 152.95 4.12413 -1.19223 0
M  V30 1644 C 152.183 5.29899 -0.635798 0
M  V30 1645 O 152.406 5.67796 0.544393 0
M  V30 1646 O 151.34 5.85717 -1.38634 0
M  V30 1647 H 155.166 2.55945 -1.63481 0
M  V30 1648 H 152.751 1.22248 -0.858817 0
M  V30 1649 H 154.633 4.21018 0.179404 0
M  V30 1650 H 153.308 3.15206 0.736659 0
M  V30 1651 H 152.215 3.39667 -1.56772 0
M  V30 1652 H 153.548 4.47718 -2.04474 0
M  V30 1653 N 155.201 0.870884 1.31352 0
M  V30 1654 C 156.447 0.482987 1.96965 0
M  V30 1655 C 156.78 -0.962462 1.68672 0
M  V30 1656 O 156.055 -1.6779 0.98371 0
M  V30 1657 C 156.338 0.741752 3.52378 0
M  V30 1658 C 156.191 2.2368 3.9024 0
M  V30 1659 C 157.51 0.208838 4.39604 0
M  V30 1660 H 154.629 0.176955 0.715441 0
M  V30 1661 H 157.271 1.09229 1.55464 0
M  V30 1662 H 155.421 0.223149 3.87859 0
M  V30 1663 H 157.093 2.82273 3.64856 0
M  V30 1664 H 155.336 2.70901 3.38814 0
M  V30 1665 H 156.007 2.3685 4.98604 0
M  V30 1666 H 158.483 0.652529 4.10952 0
M  V30 1667 H 157.359 0.419336 5.47296 0
M  V30 1668 H 157.62 -0.889275 4.33064 0
M  V30 1669 N 156.679 -1.44442 0.630414 0
M  V30 1670 C 157.589 -2.34476 -0.0761693 0
M  V30 1671 C 158.605 -1.52576 -0.836449 0
M  V30 1672 O 159.781 -1.85307 -0.788874 0
M  V30 1673 C 156.846 -3.30545 -1.04599 0
M  V30 1674 C 155.907 -4.28352 -0.28516 0
M  V30 1675 C 155.14 -5.19831 -1.20878 0
M  V30 1676 O 155.363 -5.15223 -2.44747 0
M  V30 1677 O 154.297 -5.97892 -0.693491 0
M  V30 1678 H 158.123 -2.96345 0.664324 0
M  V30 1679 H 155.708 -1.44203 0.39061 0
M  V30 1680 H 157.59 -3.89681 -1.60396 0
M  V30 1681 H 156.265 -2.7121 -1.76711 0
M  V30 1682 H 155.172 -3.72764 0.315837 0
M  V30 1683 H 156.505 -4.90605 0.395924 0
M  V30 1684 N 158.157 -0.370918 -1.53173 0
M  V30 1685 C 159.406 0.218249 -2.00516 0
M  V30 1686 C 159.719 1.49429 -1.26215 0
M  V30 1687 O 160.925 2.16239 -1.64174 0
M  V30 1688 C 159.381 0.43948 -3.57207 0
M  V30 1689 C 158.989 -0.822244 -4.4039 0
M  V30 1690 C 160.733 0.986012 -4.1289 0
M  V30 1691 C 158.64 -0.570304 -5.88644 0
M  V30 1692 H 157.57 0.0853333 -0.749156 0
M  V30 1693 H 160.221 -0.490483 -1.76823 0
M  V30 1694 H 158.603 1.20961 -3.77074 0
M  V30 1695 H 159.777 -1.59557 -4.32294 0
M  V30 1696 H 158.092 -1.29238 -3.95836 0
M  V30 1697 H 160.689 1.18991 -5.21292 0
M  V30 1698 H 161.032 1.94972 -3.6782 0
M  V30 1699 H 161.565 0.27592 -3.96842 0
M  V30 1700 H 158.304 -1.50449 -6.38001 0
M  V30 1701 H 157.824 0.164427 -5.99575 0
M  V30 1702 H 159.503 -0.19784 -6.46697 0
M  V30 1703 N 159.635 1.57281 -0.100228 0
M  V30 1704 C 160.882 1.94537 0.562268 0
M  V30 1705 C 161.21 0.982315 1.67871 0
M  V30 1706 O 160.465 0.00280936 1.957 0
M  V30 1707 C 160.764 3.38305 1.15259 0
M  V30 1708 C 160.43 4.50618 0.159409 0
M  V30 1709 C 159.092 4.81066 -0.113741 0
M  V30 1710 C 161.444 5.18615 -0.518461 0
M  V30 1711 C 158.772 5.76835 -1.07137 0
M  V30 1712 C 161.124 6.15412 -1.46459 0
M  V30 1713 C 159.788 6.44262 -1.74592 0
M  V30 1714 H 159.058 0.711863 0.205748 0
M  V30 1715 H 161.705 1.90679 -0.17715 0
M  V30 1716 H 160.01 3.38766 1.96836 0
M  V30 1717 H 161.707 3.64435 1.67297 0
M  V30 1718 H 158.297 4.2689 0.382491 0
M  V30 1719 H 162.481 4.95264 -0.320581 0
M  V30 1720 H 157.737 5.975 -1.29628 0
M  V30 1721 H 161.911 6.67194 -1.99564 0
M  V30 1722 H 159.538 7.1828 -2.48953 0
M  V30 1723 N 161.113 -0.173488 1.56642 0
M  V30 1724 C 162.359 -0.891784 1.8214 0
M  V30 1725 C 162.692 -1.8199 0.677736 0
M  V30 1726 O 161.967 -1.91842 -0.320446 0
M  V30 1727 C 162.25 -1.68933 3.18015 0
M  V30 1728 C 162.103 -0.784487 4.42906 0
M  V30 1729 C 163.422 -2.65748 3.50808 0
M  V30 1730 H 160.541 -0.322761 0.662567 0
M  V30 1731 H 163.183 -0.158095 1.89341 0
M  V30 1732 H 161.333 -2.31482 3.12007 0
M  V30 1733 H 163.005 -0.172046 4.60979 0
M  V30 1734 H 161.248 -0.0924117 4.33702 0
M  V30 1735 H 161.919 -1.37799 5.34524 0
M  V30 1736 H 164.395 -2.13327 3.57255 0
M  V30 1737 H 163.271 -3.18619 4.4696 0
M  V30 1738 H 163.532 -3.45842 2.75401 0
M  V30 1739 N 162.591 -1.51276 -0.441967 0
M  V30 1740 C 163.868 -1.54252 -1.20273 0
M  V30 1741 C 164.248 -0.30408 -2.08898 0
M  V30 1742 O 163.596 0.711084 -2.17154 0
M  V30 1743 C 163.806 -2.85406 -2.00859 0
M  V30 1744 C 165.154 -3.37181 -2.58059 0
M  V30 1745 O 166.178 -2.86925 -2.11074 0
M  V30 1746 O 165.037 -4.24858 -3.43741 0
M  V30 1747 H 162.131 -0.619969 -0.547328 0
M  V30 1748 H 164.677 -1.63586 -0.451413 0
M  V30 1749 H 163.449 -3.67003 -1.35736 0
M  V30 1750 H 163.072 -2.79213 -2.83065 0
M  V30 1751 N 164.069 0.697108 -1.41344 0
M  V30 1752 C 165.309 1.46939 -1.42085 0
M  V30 1753 C 165.673 1.9198 -0.0280397 0
M  V30 1754 O 166.874 2.6865 0.0897504 0
M  V30 1755 C 165.145 2.64985 -2.39828 0
M  V30 1756 S 166.704 3.54147 -2.59085 0
M  V30 1757 H 163.522 0.502146 -0.503359 0
M  V30 1758 H 166.124 0.813546 -1.77769 0
M  V30 1759 H 164.828 2.30098 -3.39828 0
M  V30 1760 H 164.359 3.35464 -2.05493 0
M  V30 1761 H 166.374 4.60137 -1.85711 0
M  V30 1762 N 165.547 1.27147 0.931209 0
M  V30 1763 C 166.457 1.11372 2.06478 0
M  V30 1764 C 167.473 0.044645 1.73943 0
M  V30 1765 O 168.649 0.250417 1.99837 0
M  V30 1766 C 165.714 0.758838 3.38294 0
M  V30 1767 C 164.775 1.90841 3.84549 0
M  V30 1768 C 164.008 1.57036 5.10074 0
M  V30 1769 O 164.231 0.476645 5.68405 0
M  V30 1770 O 163.165 2.40839 5.51616 0
M  V30 1771 H 166.991 2.06493 2.22698 0
M  V30 1772 H 164.576 1.06301 1.04978 0
M  V30 1773 H 166.458 0.574098 4.17471 0
M  V30 1774 H 165.133 -0.162879 3.2329 0
M  V30 1775 H 164.04 2.14819 3.06274 0
M  V30 1776 H 165.373 2.81021 4.04089 0
M  V30 1777 N 167.025 -1.13721 1.09112 0
M  V30 1778 C 168.265 -1.86576 0.834801 0
M  V30 1779 C 168.629 -1.81435 -0.628122 0
M  V30 1780 O 169.83 -2.49497 -1.00024 0
M  V30 1781 C 168.101 -3.30872 1.35124 0
M  V30 1782 S 169.66 -4.21257 1.22832 0
M  V30 1783 H 166.478 -0.643666 0.302017 0
M  V30 1784 H 169.08 -1.37085 1.39385 0
M  V30 1785 H 167.784 -3.32166 2.41027 0
M  V30 1786 H 167.315 -3.85423 0.788185 0
M  V30 1787 H 169.33 -4.95884 0.177191 0
M  V30 1788 N 168.503 -0.877838 -1.30888 0
M  V30 1789 C 169.751 -0.491723 -1.96027 0
M  V30 1790 C 170.072 0.960827 -1.69685 0
M  V30 1791 O 169.342 1.67462 -1.01654 0
M  V30 1792 H 167.922 -0.17885 -0.725273 0
M  V30 1793 H 170.584 -1.11935 -1.59551 0
M  V30 1794 H 169.68 -0.656016 -3.05128 0
M  V30 1795 N 169.982 1.44106 -0.638065 0
M  V30 1796 C 170.929 2.30715 0.062701 0
M  V30 1797 C 171.899 1.43882 0.829883 0
M  V30 1798 O 173.084 1.72775 0.809532 0
M  V30 1799 C 170.224 3.29258 1.03358 0
M  V30 1800 C 169.337 4.31192 0.26409 0
M  V30 1801 C 168.472 5.16825 1.22741 0
M  V30 1802 C 167.511 6.10462 0.447475 0
M  V30 1803 N 166.648 6.8877 1.36161 0
M  V30 1804 H 171.488 2.90096 -0.681781 0
M  V30 1805 H 169.025 1.42925 -0.347988 0
M  V30 1806 H 170.983 3.84886 1.60992 0
M  V30 1807 H 169.613 2.71562 1.74511 0
M  V30 1808 H 168.665 3.77981 -0.428295 0
M  V30 1809 H 169.977 4.97619 -0.343052 0
M  V30 1810 H 169.131 5.77004 1.87487 0
M  V30 1811 H 167.87 4.50488 1.86847 0
M  V30 1812 H 166.875 5.49386 -0.213433 0
M  V30 1813 H 168.1 6.78837 -0.188968 0
M  V30 1814 H 166.046 6.25096 1.98975 0
M  V30 1815 H 165.963 7.51663 0.808656 0
M  V30 1816 H 167.231 7.53467 1.99769 0
M  V30 1817 N 171.46 0.379036 1.52974 0
M  V30 1818 C 172.688 -0.20679 2.05864 0
M  V30 1819 C 173.103 -1.41356 1.25155 0
M  V30 1820 O 172.46 -1.8009 0.295588 0
M  V30 1821 C 172.511 -0.587045 3.56702 0
M  V30 1822 O 172.232 0.571776 4.34353 0
M  V30 1823 C 173.733 -1.22983 4.25899 0
M  V30 1824 H 170.953 -0.0336123 0.670158 0
M  V30 1825 H 173.497 0.541298 1.97206 0
M  V30 1826 H 171.652 -1.28504 3.65466 0
M  V30 1827 H 172.066 0.261544 5.23847 0
M  V30 1828 H 173.54 -1.44635 5.32715 0
M  V30 1829 H 174.017 -2.19416 3.80465 0
M  V30 1830 H 174.623 -0.572892 4.21424 0
M  V30 1831 N 172.938 -1.57226 0.108567 0
M  V30 1832 C 173.848 -2.18292 -0.859401 0
M  V30 1833 C 174.864 -1.15612 -1.30038 0
M  V30 1834 O 176.04 -1.48039 -1.36552 0
M  V30 1835 C 173.105 -2.762 -2.09558 0
M  V30 1836 C 172.166 -3.93881 -1.70752 0
M  V30 1837 C 171.399 -4.49018 -2.88477 0
M  V30 1838 O 171.622 -4.03068 -4.036 0
M  V30 1839 O 170.556 -5.39852 -2.66164 0
M  V30 1840 H 174.382 -3.01441 -0.369769 0
M  V30 1841 H 171.967 -1.48945 -0.1165 0
M  V30 1842 H 173.849 -3.13156 -2.81978 0
M  V30 1843 H 172.524 -1.96089 -2.57548 0
M  V30 1844 H 171.431 -3.61713 -0.954714 0
M  V30 1845 H 172.764 -4.75396 -1.27513 0
M  V30 1846 N 174.416 0.165178 -1.56732 0
M  V30 1847 C 175.663 0.880807 -1.8234 0
M  V30 1848 C 175.991 1.81977 -0.686621 0
M  V30 1849 O 175.246 1.92971 0.325697 0
M  V30 1850 C 175.545 1.70405 -3.1416 0
M  V30 1851 C 175.211 0.913475 -4.4155 0
M  V30 1852 C 173.873 0.695303 -4.7615 0
M  V30 1853 C 176.225 0.359349 -5.1996 0
M  V30 1854 C 173.553 -0.0879947 -5.86634 0
M  V30 1855 C 175.905 -0.410893 -6.31264 0
M  V30 1856 C 174.569 -0.639808 -6.64427 0
M  V30 1857 H 173.839 0.32231 -0.667231 0
M  V30 1858 H 176.486 0.145402 -1.90947 0
M  V30 1859 H 174.791 2.50903 -3.00923 0
M  V30 1860 H 176.488 2.26091 -3.31186 0
M  V30 1861 H 173.078 1.09357 -4.14414 0
M  V30 1862 H 177.262 0.515228 -4.93618 0
M  V30 1863 H 172.518 -0.27503 -6.10781 0
M  V30 1864 H 176.692 -0.847494 -6.91224 0
M  V30 1865 H 174.319 -1.24864 -7.49875 0
M  V30 1866 N 175.894 1.51508 0.433938 0
M  V30 1867 C 176.842 1.73646 1.54757 0
M  V30 1868 C 177.836 0.602854 1.5831 0
M  V30 1869 O 179.042 0.784318 1.62014 0
M  V30 1870 H 175.417 0.548718 0.51421 0
M  V30 1871 H 177.388 2.66991 1.33261 0
M  V30 1872 C 176.137 1.88172 2.92381 0
M  V30 1873 H 175.46 2.74808 2.90381 0
M  V30 1874 H 176.9 2.07672 3.6966 0
M  V30 1875 C 175.359 0.64239 3.30719 0
M  V30 1876 O 175.889 -0.201362 4.01195 0
M  V30 1877 N 174.095 0.485489 2.86516 0
M  V30 1878 H 173.642 1.17318 2.29334 0
M  V30 1879 H 173.6 -0.342482 3.12529 0
M  V30 1880 N 177.372 -0.689602 1.41712 0
M  V30 1881 C 178.282 -1.83314 1.46401 0
M  V30 1882 C 179.298 -1.7036 0.35405 0
M  V30 1883 O 180.474 -1.92171 0.602692 0
M  V30 1884 C 177.539 -3.19344 1.34982 0
M  V30 1885 C 176.6 -3.44363 2.56344 0
M  V30 1886 C 175.833 -4.73904 2.45461 0
M  V30 1887 O 176.056 -5.508 1.48241 0
M  V30 1888 O 174.99 -4.99839 3.35328 0
M  V30 1889 H 178.816 -1.82314 2.42889 0
M  V30 1890 H 176.401 -0.843438 1.23315 0
M  V30 1891 H 178.283 -4.00547 1.3092 0
M  V30 1892 H 176.958 -3.21014 0.41612 0
M  V30 1893 H 175.865 -2.63067 2.65982 0
M  V30 1894 H 177.198 -3.47512 3.48563 0
M  V30 1895 N 178.85 -1.27639 -0.924453 0
M  V30 1896 C 179.78 -1.13166 -2.04244 0
M  V30 1897 C 180.761 -0.032256 -1.70069 0
M  V30 1898 O 181.946 -0.207328 -1.9309 0
M  V30 1899 C 179.076 -0.781496 -3.38393 0
M  V30 1900 C 178.03 -1.83449 -3.86692 0
M  V30 1901 C 177.356 -1.33822 -5.17683 0
M  V30 1902 C 178.656 -3.23917 -4.09726 0
M  V30 1903 H 180.35 -2.06689 -2.1661 0
M  V30 1904 H 177.896 -0.995136 -1.04082 0
M  V30 1905 H 179.849 -0.667057 -4.16087 0
M  V30 1906 H 178.573 0.189439 -3.2605 0
M  V30 1907 H 177.232 -1.93789 -3.11193 0
M  V30 1908 H 176.88 -0.35665 -5.01734 0
M  V30 1909 H 176.58 -2.04224 -5.50968 0
M  V30 1910 H 178.104 -1.23679 -5.97943 0
M  V30 1911 H 179.518 -3.16559 -4.77978 0
M  V30 1912 H 177.915 -3.92059 -4.54324 0
M  V30 1913 H 178.985 -3.68729 -3.14908 0
M  V30 1914 N 180.328 1.1314 -1.09713 0
M  V30 1915 C 181.577 1.83838 -0.829851 0
M  V30 1916 C 181.89 1.84599 0.646728 0
M  V30 1917 O 183.096 2.51218 1.02965 0
M  V30 1918 C 181.552 3.30069 -1.43466 0
M  V30 1919 C 181.16 3.37688 -2.94399 0
M  V30 1920 C 182.904 4.05788 -1.24645 0
M  V30 1921 C 180.811 4.78209 -3.47952 0
M  V30 1922 H 179.741 0.68877 -0.306777 0
M  V30 1923 H 182.392 1.27448 -1.3202 0
M  V30 1924 H 180.774 3.8628 -0.871996 0
M  V30 1925 H 181.948 2.91456 -3.56918 0
M  V30 1926 H 180.263 2.75436 -3.12289 0
M  V30 1927 H 182.86 5.09535 -1.62107 0
M  V30 1928 H 183.203 4.15878 -0.187357 0
M  V30 1929 H 183.736 3.55915 -1.77678 0
M  V30 1930 H 180.475 4.73311 -4.53495 0
M  V30 1931 H 179.995 5.24924 -2.90198 0
M  V30 1932 H 181.674 5.47133 -3.45332 0
M  V30 1933 N 181.806 0.884767 1.30421 0
M  V30 1934 C 182.738 0.308655 2.27112 0
M  V30 1935 C 183.751 -0.536655 1.53701 0
M  V30 1936 O 184.94 -0.35624 1.74909 0
M  V30 1937 C 182.04 -0.579782 3.33904 0
M  V30 1938 C 181.213 0.236417 4.36761 0
M  V30 1939 C 180.272 -0.582482 5.22966 0
M  V30 1940 O 179.298 -0.00525502 5.692 0
M  V30 1941 N 180.5 -1.89163 5.48815 0
M  V30 1942 H 183.265 1.13964 2.77186 0
M  V30 1943 H 180.826 0.747731 1.43599 0
M  V30 1944 H 182.818 -1.13366 3.88497 0
M  V30 1945 H 181.388 -1.31144 2.83761 0
M  V30 1946 H 180.608 0.97174 3.82035 0
M  V30 1947 H 181.896 0.795924 5.02536 0
M  V30 1948 H 181.294 -2.38352 5.13035 0
M  V30 1949 H 179.851 -2.39296 6.06284 0
M  V30 1950 N 183.284 -1.43765 0.645699 0
M  V30 1951 C 184.214 -2.33471 -0.0370477 0
M  V30 1952 C 185.195 -1.49042 -0.819779 0
M  V30 1953 O 186.38 -1.77726 -0.782758 0
M  V30 1954 C 183.51 -3.32311 -1.0093 0
M  V30 1955 C 182.464 -4.2667 -0.337201 0
M  V30 1956 C 181.79 -5.1549 -1.42037 0
M  V30 1957 C 183.09 -5.16657 0.765706 0
M  V30 1958 H 184.784 -2.90809 0.712069 0
M  V30 1959 H 182.33 -1.39834 0.343876 0
M  V30 1960 H 184.283 -3.9396 -1.49578 0
M  V30 1961 H 183.007 -2.73213 -1.78948 0
M  V30 1962 H 181.666 -3.66374 0.128771 0
M  V30 1963 H 181.314 -4.52735 -2.1918 0
M  V30 1964 H 181.014 -5.79438 -0.975966 0
M  V30 1965 H 182.538 -5.80012 -1.90838 0
M  V30 1966 H 183.952 -5.72158 0.361702 0
M  V30 1967 H 182.349 -5.89286 1.13413 0
M  V30 1968 H 183.419 -4.56796 1.62683 0
M  V30 1969 N 184.763 -0.387143 -1.52771 0
M  V30 1970 C 185.693 0.440551 -2.29306 0
M  V30 1971 C 186.674 1.06535 -1.32606 0
M  V30 1972 O 187.859 1.07853 -1.61497 0
M  V30 1973 C 184.989 1.56919 -3.09829 0
M  V30 1974 C 183.943 1.07054 -4.14395 0
M  V30 1975 C 183.269 2.29109 -4.83129 0
M  V30 1976 C 184.569 0.140015 -5.22112 0
M  V30 1977 H 186.263 -0.198026 -2.98744 0
M  V30 1978 H 183.809 -0.09668 -1.43675 0
M  V30 1979 H 185.762 2.15503 -3.62128 0
M  V30 1980 H 184.486 2.23532 -2.3812 0
M  V30 1981 H 183.145 0.507247 -3.63074 0
M  V30 1982 H 182.793 2.94227 -4.0797 0
M  V30 1983 H 182.493 1.96406 -5.53804 0
M  V30 1984 H 184.017 2.88339 -5.38231 0
M  V30 1985 H 185.431 0.633978 -5.69784 0
M  V30 1986 H 183.828 -0.0971485 -6.00021 0
M  V30 1987 H 184.898 -0.811711 -4.78058 0
M  V30 1988 N 186.241 1.57166 -0.116904 0
M  V30 1989 C 187.188 2.15202 0.83408 0
M  V30 1990 C 188.158 1.07644 1.26499 0
M  V30 1991 O 189.343 1.35541 1.34288 0
M  V30 1992 C 186.483 2.75405 2.07957 0
M  V30 1993 C 185.596 3.97264 1.69721 0
M  V30 1994 C 184.731 4.45561 2.89221 0
M  V30 1995 C 183.77 5.59956 2.47215 0
M  V30 1996 N 182.907 6.03006 3.59622 0
M  V30 1997 H 187.747 2.96141 0.332335 0
M  V30 1998 H 185.284 1.46309 0.152349 0
M  V30 1999 H 187.242 3.08439 2.80929 0
M  V30 2000 H 185.872 1.97159 2.55594 0
M  V30 2001 H 184.924 3.70404 0.866316 0
M  V30 2002 H 186.236 4.80226 1.34849 0
M  V30 2003 H 185.39 4.80493 3.7042 0
M  V30 2004 H 184.129 3.61544 3.27318 0
M  V30 2005 H 183.134 5.2463 1.64448 0
M  V30 2006 H 184.359 6.45738 2.10238 0
M  V30 2007 H 182.305 5.21931 3.97396 0
M  V30 2008 H 182.222 6.80819 3.28667 0
M  V30 2009 H 183.49 6.42576 4.41267 0
M  V30 2010 N 187.719 -0.156864 1.56817 0
M  V30 2011 C 188.966 -0.871125 1.82805 0
M  V30 2012 C 189.294 -1.81611 0.696262 0
M  V30 2013 O 188.549 -1.93141 -0.315459 0
M  V30 2014 C 188.848 -1.68737 3.1506 0
M  V30 2015 C 188.514 -0.890045 4.42028 0
M  V30 2016 C 187.176 -0.670042 4.76512 0
M  V30 2017 C 189.528 -0.331769 5.20143 0
M  V30 2018 C 186.856 0.119104 5.86579 0
M  V30 2019 C 189.208 0.444365 6.31037 0
M  V30 2020 C 187.872 0.675035 6.64078 0
M  V30 2021 H 187.142 -0.318767 0.668931 0
M  V30 2022 H 189.789 -0.135274 1.91022 0
M  V30 2023 H 188.094 -2.49304 3.0225 0
M  V30 2024 H 189.791 -2.24331 3.3238 0
M  V30 2025 H 186.381 -1.07157 4.14988 0
M  V30 2026 H 190.565 -0.489043 4.93885 0
M  V30 2027 H 185.821 0.307417 6.10627 0
M  V30 2028 H 189.995 0.884139 6.90765 0
M  V30 2029 H 187.622 1.28839 7.49203 0
M  V30 2030 N 189.197 -1.51736 -0.425897 0
M  V30 2031 C 190.129 -1.70083 -1.53638 0
M  V30 2032 C 191.142 -0.581349 -1.52066 0
M  V30 2033 O 192.331 -0.856017 -1.56635 0
M  V30 2034 C 189.431 -1.71078 -2.9255 0
M  V30 2035 C 188.604 -2.99795 -3.185 0
M  V30 2036 C 187.663 -2.92825 -4.37196 0
M  V30 2037 O 186.689 -3.66756 -4.35291 0
M  V30 2038 N 187.891 -2.0946 -5.41393 0
M  V30 2039 H 190.656 -2.65882 -1.383 0
M  V30 2040 H 188.217 -1.49765 -0.614988 0
M  V30 2041 H 190.209 -1.63969 -3.69995 0
M  V30 2042 H 188.779 -0.828242 -3.01428 0
M  V30 2043 H 187.999 -3.20684 -2.2925 0
M  V30 2044 H 189.287 -3.84977 -3.32671 0
M  V30 2045 H 188.685 -1.48792 -5.45781 0
M  V30 2046 H 187.242 -2.08221 -6.17647 0
M  V30 2047 N 190.675 0.682077 -1.42076 0
M  V30 2048 C 191.903 1.47057 -1.4554 0
M  V30 2049 C 192.318 1.8869 -0.0645779 0
M  V30 2050 O 191.675 1.57666 0.919115 0
M  V30 2051 C 191.726 2.72442 -2.37609 0
M  V30 2052 O 191.447 2.32559 -3.71279 0
M  V30 2053 C 192.948 3.66069 -2.50017 0
M  V30 2054 H 190.168 0.452737 -0.495248 0
M  V30 2055 H 192.712 0.838695 -1.8651 0
M  V30 2056 H 190.867 3.31835 -1.9991 0
M  V30 2057 H 191.281 3.13475 -4.20516 0
M  V30 2058 H 192.755 4.50792 -3.18576 0
M  V30 2059 H 193.232 4.11476 -1.53572 0
M  V30 2060 H 193.838 3.12572 -2.88407 0
M  V30 2061 N 192.153 1.28127 0.917671 0
M  V30 2062 C 193.381 1.17892 1.70026 0
M  V30 2063 C 193.796 -0.262958 1.8696 0
M  V30 2064 O 193.153 -1.17811 1.3938 0
M  V30 2065 C 193.204 1.86872 3.09453 0
M  V30 2066 O 192.925 3.25428 2.93306 0
M  V30 2067 C 194.426 1.8289 4.03815 0
M  V30 2068 H 191.646 0.40942 0.531617 0
M  V30 2069 H 194.19 1.69181 1.14883 0
M  V30 2070 H 192.345 1.39464 3.61426 0
M  V30 2071 H 192.759 3.59918 3.81523 0
M  V30 2072 H 194.233 2.35751 4.99125 0
M  V30 2073 H 194.71 0.800412 4.31845 0
M  V30 2074 H 195.316 2.29959 3.57769 0
M  V30 2075 N 193.631 -1.12557 1.10312 0
M  V30 2076 C 194.88 -1.83395 0.839588 0
M  V30 2077 C 195.193 -1.84939 -0.636929 0
M  V30 2078 O 196.399 -2.51761 -1.01631 0
M  V30 2079 C 194.855 -3.29303 1.45215 0
M  V30 2080 C 194.463 -3.36122 2.96186 0
M  V30 2081 C 196.207 -4.05121 1.26796 0
M  V30 2082 C 194.114 -4.76357 3.50483 0
M  V30 2083 H 193.044 -0.687133 0.310425 0
M  V30 2084 H 195.695 -1.26746 1.32694 0
M  V30 2085 H 194.077 -3.85812 0.892469 0
M  V30 2086 H 195.251 -2.89559 3.58458 0
M  V30 2087 H 193.566 -2.73776 3.13745 0
M  V30 2088 H 196.163 -5.08668 1.64806 0
M  V30 2089 H 196.506 -4.15773 0.209409 0
M  V30 2090 H 197.039 -3.54967 1.79563 0
M  V30 2091 H 193.778 -4.70899 4.55998 0
M  V30 2092 H 193.298 -5.23377 2.92978 0
M  V30 2093 H 194.977 -5.45294 3.48228 0
M  V30 2094 N 195.109 -0.891671 -1.2995 0
M  V30 2095 C 196.355 -0.514261 -1.96171 0
M  V30 2096 C 196.688 0.935506 -1.70182 0
M  V30 2097 O 195.963 1.66204 -1.01028 0
M  V30 2098 C 196.246 -0.797719 -3.51153 0
M  V30 2099 C 196.099 -2.2986 -3.86632 0
M  V30 2100 C 197.418 -0.278749 -4.39216 0
M  V30 2101 H 194.537 -0.188314 -0.712535 0
M  V30 2102 H 197.179 -1.11689 -1.53706 0
M  V30 2103 H 195.329 -0.284826 -3.87455 0
M  V30 2104 H 197.001 -2.88042 -3.60319 0
M  V30 2105 H 195.244 -2.76257 -3.34462 0
M  V30 2106 H 195.915 -2.44753 -4.94773 0
M  V30 2107 H 198.391 -0.717825 -4.09862 0
M  V30 2108 H 197.267 -0.506353 -5.46559 0
M  V30 2109 H 197.528 0.820266 -4.34424 0
M  V30 2110 N 196.587 1.43421 -0.653314 0
M  V30 2111 C 197.815 2.06163 -0.174491 0
M  V30 2112 C 198.23 1.48969 1.1599 0
M  V30 2113 O 197.587 0.621042 1.71608 0
M  V30 2114 C 197.638 3.61417 -0.0774865 0
M  V30 2115 O 197.359 4.16485 -1.35912 0
M  V30 2116 C 198.86 4.41235 0.427402 0
M  V30 2117 H 196.08 0.664946 -0.0899353 0
M  V30 2118 H 198.624 1.83924 -0.893988 0
M  V30 2119 H 196.779 3.82841 0.59257 0
M  V30 2120 H 197.193 5.10153 -1.21839 0
M  V30 2121 H 198.667 5.5021 0.44423 0
M  V30 2122 H 199.144 4.14268 1.45873 0
M  V30 2123 H 199.75 4.2478 -0.210167 0
M  V30 2124 N 198.065 0.39524 1.52563 0
M  V30 2125 C 198.995 -0.428384 2.29537 0
M  V30 2126 C 199.976 -1.05831 1.33169 0
M  V30 2127 O 201.161 -1.06995 1.62067 0
M  V30 2128 C 198.291 -1.55274 3.10656 0
M  V30 2129 C 197.245 -1.04855 4.14957 0
M  V30 2130 C 196.571 -2.26543 4.84337 0
M  V30 2131 C 197.871 -0.112324 5.22179 0
M  V30 2132 H 199.565 0.213867 2.98635 0
M  V30 2133 H 197.111 0.104298 1.43622 0
M  V30 2134 H 199.064 -2.1358 3.63265 0
M  V30 2135 H 197.788 -2.22266 2.39302 0
M  V30 2136 H 196.447 -0.487985 3.63338 0
M  V30 2137 H 196.095 -2.92059 4.09525 0
M  V30 2138 H 195.795 -1.93466 5.54837 0
M  V30 2139 H 197.319 -2.85481 5.39753 0
M  V30 2140 H 198.733 -0.603752 5.70112 0
M  V30 2141 H 197.13 0.128968 5.99961 0
M  V30 2142 H 198.2 0.837052 4.77621 0
M  V30 2143 N 199.544 -1.57102 0.125237 0
M  V30 2144 C 200.492 -2.16905 -0.839927 0
M  V30 2145 C 201.486 -1.11998 -1.27094 0
M  V30 2146 O 202.692 -1.3029 -1.24195 0
M  V30 2147 H 199.067 -0.694252 -0.288995 0
M  V30 2148 H 201.038 -2.96774 -0.311115 0
M  V30 2149 C 199.787 -2.78795 -2.07771 0
M  V30 2150 H 199.11 -3.59221 -1.755 0
M  V30 2151 H 200.55 -3.2417 -2.73295 0
M  V30 2152 C 199.009 -1.76193 -2.87155 0
M  V30 2153 O 199.539 -1.21909 -3.82755 0
M  V30 2154 N 197.745 -1.45991 -2.51267 0
M  V30 2155 H 197.292 -1.90325 -1.73592 0
M  V30 2156 H 197.25 -0.775844 -3.04677 0
M  V30 2157 N 201.022 0.148545 -1.56898 0
M  V30 2158 C 202.433 0.708766 -1.72723 0
M  V30 2159 C 202.784 1.81734 -0.739395 0
M  V30 2160 O 201.909 2.16194 0.0943169 0
M  V30 2161 C 202.504 1.29245 -3.13179 0
M  V30 2162 C 201.063 1.79925 -3.30611 0
M  V30 2163 C 200.21 0.687111 -2.68652 0
M  V30 2164 H 203.161 -0.0771063 -1.58513 0
M  V30 2165 H 203.182 2.16224 -3.13093 0
M  V30 2166 H 202.694 0.485382 -3.85053 0
M  V30 2167 H 200.795 2.63203 -2.63732 0
M  V30 2168 H 200.908 1.92903 -4.38549 0
M  V30 2169 H 199.272 1.11335 -2.29078 0
M  V30 2170 H 200.055 -0.108483 -3.43129 0
M  V30 2171 N 202.5 1.5196 0.417844 0
M  V30 2172 C 203.911 1.57851 0.997 0
M  V30 2173 C 204.262 0.413714 1.91789 0
M  V30 2174 O 203.387 -0.467057 2.113 0
M  V30 2175 C 203.982 2.86085 1.81496 0
M  V30 2176 C 202.541 2.94483 2.34428 0
M  V30 2177 C 201.688 2.52707 1.14169 0
M  V30 2178 H 204.639 1.57455 0.198392 0
M  V30 2179 H 204.66 2.70947 2.67148 0
M  V30 2180 H 204.172 3.70842 1.14446 0
M  V30 2181 H 202.273 2.142 3.04875 0
M  V30 2182 H 202.386 3.98546 2.65891 0
M  V30 2183 H 200.75 2.06353 1.49301 0
M  V30 2184 H 201.533 3.39828 0.486999 0
M  V30 2185 N 203.978 -0.674533 1.42435 0
M  V30 2186 C 204.888 -1.81751 1.48337 0
M  V30 2187 C 205.904 -1.69975 0.372099 0
M  V30 2188 O 207.08 -1.91521 0.62304 0
M  V30 2189 C 204.145 -3.17895 1.38361 0
M  V30 2190 C 203.206 -3.41625 2.59982 0
M  V30 2191 C 202.439 -4.71274 2.50473 0
M  V30 2192 O 202.662 -5.49197 1.54075 0
M  V30 2193 O 201.596 -4.96254 3.4061 0
M  V30 2194 H 205.422 -1.79728 2.44809 0
M  V30 2195 H 203.007 -0.830312 1.24202 0
M  V30 2196 H 204.889 -3.99136 1.35161 0
M  V30 2197 H 203.564 -3.20555 0.450144 0
M  V30 2198 H 202.471 -2.60231 2.68757 0
M  V30 2199 H 203.804 -3.43796 3.52229 0
M  V30 2200 N 205.456 -1.28612 -0.910864 0
M  V30 2201 C 206.404 -1.1265 -2.03501 0
M  V30 2202 C 207.398 -0.0450054 -1.6934 0
M  V30 2203 O 208.604 -0.203988 -1.7884 0
M  V30 2204 H 204.979 -0.347639 -0.666822 0
M  V30 2205 H 206.95 -2.07849 -2.14106 0
M  V30 2206 C 205.699 -0.808143 -3.38178 0
M  V30 2207 H 205.022 -1.63231 -3.6496 0
M  V30 2208 H 206.462 -0.736426 -4.17556 0
M  V30 2209 C 204.921 0.488226 -3.33344 0
M  V30 2210 O 205.451 1.51766 -3.71927 0
M  V30 2211 N 203.657 0.490009 -2.86439 0
M  V30 2212 H 203.204 -0.348161 -2.55236 0
M  V30 2213 H 203.162 1.35741 -2.83587 0
M  V30 2214 N 206.934 1.1197 -1.10907 0
M  V30 2215 C 208.183 1.82947 -0.849302 0
M  V30 2216 C 208.496 1.85275 0.627112 0
M  V30 2217 O 209.702 2.52296 1.00295 0
M  V30 2218 C 208.158 3.28529 -1.46959 0
M  V30 2219 C 207.766 3.34546 -2.97965 0
M  V30 2220 C 209.51 4.04443 -1.28942 0
M  V30 2221 C 207.417 4.74491 -3.53004 0
M  V30 2222 H 206.347 0.685477 -0.314065 0
M  V30 2223 H 208.998 1.2604 -1.33365 0
M  V30 2224 H 207.38 3.85333 -0.912917 0
M  V30 2225 H 208.554 2.87654 -3.59989 0
M  V30 2226 H 206.869 2.72108 -3.15192 0
M  V30 2227 H 209.466 5.07787 -1.67502 0
M  V30 2228 H 209.809 4.15656 -0.231456 0
M  V30 2229 H 210.342 3.5401 -1.81443 0
M  V30 2230 H 207.081 4.68474 -4.58489 0
M  V30 2231 H 206.601 5.21816 -2.9575 0
M  V30 2232 H 208.28 5.4344 -3.51115 0
M  V30 2233 N 208.412 0.89855 1.29475 0
M  V30 2234 C 209.658 0.534065 1.96263 0
M  V30 2235 C 210.013 -0.909415 1.69551 0
M  V30 2236 O 209.306 -1.63596 0.997349 0
M  V30 2237 C 209.5 0.761398 3.49195 0
M  V30 2238 C 209.329 2.22542 3.90775 0
M  V30 2239 C 208.099 2.87264 4.15701 0
M  V30 2240 C 210.297 3.20051 4.02581 0
M  V30 2241 N 208.279 4.24121 4.4384 0
M  V30 2242 C 209.65 4.42023 4.34759 0
M  V30 2243 C 211.705 3.15657 3.85052 0
M  V30 2244 C 210.408 5.60161 4.51235 0
M  V30 2245 C 212.434 4.33078 4.02737 0
M  V30 2246 C 211.796 5.5382 4.35273 0
M  V30 2247 H 207.895 0.245013 0.742625 0
M  V30 2248 H 210.479 1.15912 1.56437 0
M  V30 2249 H 208.65 0.165732 3.88046 0
M  V30 2250 H 210.382 0.362462 4.03074 0
M  V30 2251 H 207.137 2.38064 4.09417 0
M  V30 2252 H 207.561 4.94839 4.6202 0
M  V30 2253 H 212.203 2.23396 3.58962 0
M  V30 2254 H 209.921 6.52913 4.76162 0
M  V30 2255 H 213.507 4.31163 3.90628 0
M  V30 2256 H 212.387 6.43166 4.48672 0
M  V30 2257 N 209.89 -1.43072 0.660911 0
M  V30 2258 C 211.118 -2.06067 0.185422 0
M  V30 2259 C 211.533 -1.49582 -1.15198 0
M  V30 2260 O 210.89 -0.630134 -1.71276 0
M  V30 2261 C 210.941 -3.61371 0.0966523 0
M  V30 2262 O 210.662 -4.15758 1.38119 0
M  V30 2263 C 212.163 -4.41455 -0.403996 0
M  V30 2264 H 209.383 -0.664459 0.0934604 0
M  V30 2265 H 211.927 -1.83447 0.90373 0
M  V30 2266 H 210.082 -3.8315 -0.572259 0
M  V30 2267 H 210.496 -5.09499 1.24542 0
M  V30 2268 H 211.97 -5.50437 -0.415045 0
M  V30 2269 H 212.447 -4.15036 -1.43674 0
M  V30 2270 H 213.053 -4.24663 0.232691 0
M  V30 2271 N 211.368 -0.403325 -1.52352 0
M  V30 2272 C 212.278 0.432009 -2.30588 0
M  V30 2273 C 213.294 1.05884 -1.38075 0
M  V30 2274 O 214.47 1.06161 -1.71148 0
M  V30 2275 C 211.535 1.53669 -3.10784 0
M  V30 2276 C 210.596 0.933525 -4.19027 0
M  V30 2277 C 209.829 1.98557 -4.9539 0
M  V30 2278 O 210.052 3.20283 -4.71991 0
M  V30 2279 O 208.986 1.59504 -5.80381 0
M  V30 2280 H 212.812 -0.205739 -3.03002 0
M  V30 2281 H 210.397 -0.166675 -1.48467 0
M  V30 2282 H 212.279 2.17814 -3.60742 0
M  V30 2283 H 210.954 2.15915 -2.41169 0
M  V30 2284 H 209.861 0.254954 -3.7323 0
M  V30 2285 H 211.194 0.35508 -4.90918 0
M  V30 2286 N 212.846 1.57033 -0.133567 0
M  V30 2287 C 213.756 2.19632 0.824564 0
M  V30 2288 C 214.772 1.17666 1.28182 0
M  V30 2289 O 215.948 1.50193 1.3418 0
M  V30 2290 C 213.013 2.79499 2.05137 0
M  V30 2291 C 212.074 3.96548 1.64464 0
M  V30 2292 C 211.307 4.5355 2.81297 0
M  V30 2293 O 211.53 4.09438 3.97136 0
M  V30 2294 O 210.464 5.44018 2.57542 0
M  V30 2295 H 214.29 3.01991 0.321766 0
M  V30 2296 H 211.875 1.49112 0.0927889 0
M  V30 2297 H 213.757 3.17602 2.7696 0
M  V30 2298 H 212.432 2.00162 2.54395 0
M  V30 2299 H 211.339 3.63186 0.897048 0
M  V30 2300 H 212.672 4.77364 1.19934 0
M  V30 2301 N 214.325 -0.140222 1.56975 0
M  V30 2302 C 215.235 -1.19223 2.02047 0
M  V30 2303 C 216.251 -1.46612 0.937062 0
M  V30 2304 O 217.427 -1.58148 1.24704 0
M  V30 2305 C 214.492 -2.50414 2.39778 0
M  V30 2306 C 213.553 -2.30612 3.621 0
M  V30 2307 C 212.786 -3.55547 3.98023 0
M  V30 2308 O 213.009 -4.62004 3.34528 0
M  V30 2309 O 211.943 -3.47808 4.91237 0
M  V30 2310 H 215.769 -0.839559 2.91865 0
M  V30 2311 H 213.354 -0.349453 1.45256 0
M  V30 2312 H 215.236 -3.27747 2.64877 0
M  V30 2313 H 213.911 -2.85198 1.53114 0
M  V30 2314 H 212.818 -1.51207 3.4218 0
M  V30 2315 H 214.151 -2.00741 4.49404 0
M  V30 2316 N 215.803 -1.52179 -0.40978 0
M  V30 2317 C 216.713 -1.78364 -1.52392 0
M  V30 2318 C 217.729 -0.669183 -1.60617 0
M  V30 2319 O 218.905 -0.954518 -1.77344 0
M  V30 2320 C 215.97 -1.92822 -2.88133 0
M  V30 2321 C 215.031 -3.16725 -2.898 0
M  V30 2322 C 214.264 -3.30483 -4.19067 0
M  V30 2323 O 214.487 -2.49522 -5.12928 0
M  V30 2324 O 213.421 -4.2363 -4.27576 0
M  V30 2325 H 217.247 -2.72931 -1.33201 0
M  V30 2326 H 214.832 -1.37016 -0.59557 0
M  V30 2327 H 216.714 -2.04157 -3.68643 0
M  V30 2328 H 215.389 -1.01444 -3.07393 0
M  V30 2329 H 214.296 -3.10848 -2.08146 0
M  V30 2330 H 215.629 -4.07881 -2.75489 0
M  V30 2331 N 217.281 0.66697 -1.42791 0
M  V30 2332 C 218.211 1.79218 -1.49677 0
M  V30 2333 C 219.192 1.66405 -0.352623 0
M  V30 2334 O 220.377 1.85708 -0.567993 0
M  V30 2335 C 217.507 3.17565 -1.40605 0
M  V30 2336 C 216.461 3.45124 -2.53127 0
M  V30 2337 C 215.787 4.83127 -2.29112 0
M  V30 2338 C 217.087 3.41236 -3.95418 0
M  V30 2339 H 218.781 1.73713 -2.43853 0
M  V30 2340 H 216.327 0.83432 -1.17367 0
M  V30 2341 H 218.28 3.96022 -1.44029 0
M  V30 2342 H 217.004 3.23767 -0.429271 0
M  V30 2343 H 215.663 2.69031 -2.49034 0
M  V30 2344 H 215.311 4.85988 -1.29709 0
M  V30 2345 H 215.011 5.02528 -3.04531 0
M  V30 2346 H 216.535 5.63859 -2.34297 0
M  V30 2347 H 217.949 4.09651 -4.01073 0
M  V30 2348 H 216.346 3.72173 -4.70752 0
M  V30 2349 H 217.416 2.39665 -4.21532 0
M  V30 2350 N 218.759 1.29093 0.90403 0
M  V30 2351 C 219.669 1.15727 2.0407 0
M  V30 2352 C 220.685 0.0815308 1.73809 0
M  V30 2353 O 221.861 0.292749 1.99261 0
M  V30 2354 C 218.926 0.830424 3.36608 0
M  V30 2355 C 217.987 1.98955 3.80415 0
M  V30 2356 C 217.22 1.6782 5.06628 0
M  V30 2357 O 217.443 0.597105 5.67266 0
M  V30 2358 O 216.377 2.52486 5.46383 0
M  V30 2359 H 220.203 2.11171 2.18267 0
M  V30 2360 H 217.788 1.08504 1.027 0
M  V30 2361 H 219.67 0.662521 4.16159 0
M  V30 2362 H 218.345 -0.0942678 3.23563 0
M  V30 2363 H 217.252 2.21267 3.01648 0
M  V30 2364 H 218.585 2.89529 3.98037 0
M  V30 2365 N 220.237 -1.11381 1.11499 0
M  V30 2366 C 221.514 -1.7955 0.775965 0
M  V30 2367 C 221.894 -1.97859 -0.73588 0
M  V30 2368 O 221.242 -1.56376 -1.66609 0
M  V30 2369 C 221.452 -3.13196 1.53977 0
M  V30 2370 C 222.8 -3.88227 1.71944 0
M  V30 2371 O 223.824 -3.22887 1.50407 0
M  V30 2372 O 222.683 -5.05477 2.07738 0
M  V30 2373 H 219.777 -0.777728 0.28119 0
M  V30 2374 H 222.323 -1.18118 1.21845 0
M  V30 2375 H 221.095 -2.95229 2.56818 0
M  V30 2376 H 220.718 -3.82342 1.09088 0
M  V30 2377 N 221.715 -0.905404 -1.28997 0
M  V30 2378 C 222.961 -0.535039 -1.95615 0
M  V30 2379 C 223.294 0.917404 -1.71165 0
M  V30 2380 O 222.569 1.65123 -1.02785 0
M  V30 2381 C 222.852 -0.834918 -3.50287 0
M  V30 2382 C 222.705 -2.33948 -3.84172 0
M  V30 2383 C 224.024 -0.325318 -4.38896 0
M  V30 2384 H 221.143 -0.195861 -0.710498 0
M  V30 2385 H 223.785 -1.13313 -1.52513 0
M  V30 2386 H 221.935 -0.325904 -3.87131 0
M  V30 2387 H 223.607 -2.91847 -3.57243 0
M  V30 2388 H 221.85 -2.79789 -3.31513 0
M  V30 2389 H 222.521 -2.49987 -4.92149 0
M  V30 2390 H 224.997 -0.761256 -4.09077 0
M  V30 2391 H 223.873 -0.564295 -5.45992 0
M  V30 2392 H 224.134 0.774144 -4.35269 0
M  V30 2393 N 223.193 1.4272 -0.668489 0
M  V30 2394 C 224.604 1.84793 -0.266151 0
M  V30 2395 C 224.955 1.55959 1.19043 0
M  V30 2396 O 224.08 1.01622 1.91055 0
M  V30 2397 C 224.675 3.35436 -0.476271 0
M  V30 2398 C 223.234 3.76182 -0.128113 0
M  V30 2399 C 222.381 2.66344 -0.771777 0
M  V30 2400 H 225.332 1.32656 -0.871098 0
M  V30 2401 H 225.353 3.79515 0.273561 0
M  V30 2402 H 224.865 3.5639 -1.53647 0
M  V30 2403 H 222.966 3.60836 0.928891 0
M  V30 2404 H 223.079 4.75766 -0.564231 0
M  V30 2405 H 221.443 2.53885 -0.203652 0
M  V30 2406 H 222.226 2.90123 -1.83531 0
M  V30 2407 N 224.671 0.411399 1.52136 0
M  V30 2408 C 225.917 -0.156262 2.02799 0
M  V30 2409 C 226.272 -1.42613 1.29149 0
M  V30 2410 O 225.565 -1.87592 0.389839 0
M  V30 2411 C 225.759 -0.455872 3.54481 0
M  V30 2412 C 225.588 0.783404 4.42824 0
M  V30 2413 C 224.358 1.30928 4.88043 0
M  V30 2414 C 226.556 1.66217 4.86699 0
M  V30 2415 N 224.538 2.5038 5.6052 0
M  V30 2416 C 225.909 2.70292 5.5798 0
M  V30 2417 C 227.964 1.67966 4.68713 0
M  V30 2418 C 226.667 3.7603 6.13184 0
M  V30 2419 C 228.693 2.72624 5.24815 0
M  V30 2420 C 228.055 3.7542 5.9602 0
M  V30 2421 H 224.154 -0.0186886 0.781777 0
M  V30 2422 H 226.738 0.566255 1.86284 0
M  V30 2423 H 224.909 -1.14743 3.71064 0
M  V30 2424 H 226.641 -1.01261 3.91827 0
M  V30 2425 H 223.396 0.866977 4.65597 0
M  V30 2426 H 223.82 3.10881 6.014 0
M  V30 2427 H 228.462 0.898312 4.13147 0
M  V30 2428 H 226.18 4.55019 6.6782 0
M  V30 2429 H 229.766 2.74887 5.12765 0
M  V30 2430 H 228.646 4.55073 6.38654 0
M  V30 2431 N 226.149 -1.5696 0.141893 0
M  V30 2432 C 227.396 -1.9596 -0.510492 0
M  V30 2433 C 227.724 -1.02648 -1.65208 0
M  V30 2434 O 226.979 -0.0546947 -1.95624 0
M  V30 2435 C 227.278 -3.41242 -1.06249 0
M  V30 2436 C 226.944 -4.50882 -0.0398791 0
M  V30 2437 C 225.606 -4.80595 0.241247 0
M  V30 2438 C 227.958 -5.17058 0.65578 0
M  V30 2439 C 225.286 -5.73792 1.22393 0
M  V30 2440 C 227.638 -6.11313 1.62724 0
M  V30 2441 C 226.302 -6.39407 1.91612 0
M  V30 2442 H 225.572 -0.717068 -0.186802 0
M  V30 2443 H 228.219 -1.90142 0.227643 0
M  V30 2444 H 226.524 -3.43866 -1.87785 0
M  V30 2445 H 228.221 -3.68742 -1.57576 0
M  V30 2446 H 224.811 -4.27754 -0.269174 0
M  V30 2447 H 228.995 -4.94239 0.451779 0
M  V30 2448 H 224.251 -5.93853 1.45424 0
M  V30 2449 H 228.425 -6.61668 2.17183 0
M  V30 2450 H 226.052 -7.11427 2.6791 0
M  V30 2451 N 227.627 0.131896 -1.57047 0
M  V30 2452 C 229.038 0.690407 -1.73465 0
M  V30 2453 C 229.389 1.8094 -0.758629 0
M  V30 2454 O 228.514 2.16282 0.0713813 0
M  V30 2455 C 229.109 1.25916 -3.14532 0
M  V30 2456 C 227.668 1.76409 -3.32501 0
M  V30 2457 C 226.815 0.658579 -2.69366 0
M  V30 2458 H 229.766 -0.0939144 -1.58422 0
M  V30 2459 H 229.787 2.12892 -3.15369 0
M  V30 2460 H 229.299 0.444515 -3.85546 0
M  V30 2461 H 227.4 2.60391 -2.66509 0
M  V30 2462 H 227.513 1.88241 -4.4057 0
M  V30 2463 H 225.877 1.08899 -2.30246 0
M  V30 2464 H 226.66 -0.14487 -3.42994 0
M  V30 2465 N 229.106 1.52395 0.401703 0
M  V30 2466 C 230.522 1.41363 0.740864 0
M  V30 2467 C 230.722 0.523982 1.94568 0
M  V30 2468 O 229.778 -0.00741204 2.52499 0
M  V30 2469 C 231.091 2.84011 0.987847 0
M  V30 2470 C 232.639 2.93404 1.09011 0
M  V30 2471 C 233.114 4.37036 1.3698 0
M  V30 2472 N 234.605 4.40304 1.43829 0
M  V30 2473 C 235.34 5.48508 1.67112 0
M  V30 2474 N 234.836 6.66819 1.87949 0
M  V30 2475 N 236.629 5.36034 1.69187 0
M  V30 2476 H 228.78 2.08765 -0.391262 0
M  V30 2477 H 231.043 0.941265 -0.112798 0
M  V30 2478 H 230.749 3.51265 0.174835 0
M  V30 2479 H 230.623 3.25502 1.906 0
M  V30 2480 H 233.01 2.26325 1.8937 0
M  V30 2481 H 233.091 2.55359 0.15015 0
M  V30 2482 H 232.735 5.04676 0.571353 0
M  V30 2483 H 232.665 4.72623 2.3224 0
M  V30 2484 H 235.156 3.55024 1.29486 0
M  V30 2485 H 235.469 7.45063 2.05185 0
M  V30 2486 H 233.814 6.6987 1.85199 0
M  V30 2487 H 237.005 4.42579 1.52451 0
M  V30 2488 H 237.178 6.20434 1.86993 0
M  V30 2489 N 230.584 -0.659388 1.43143 0
M  V30 2490 C 231.531 -1.77249 1.47822 0
M  V30 2491 C 232.501 -1.62818 0.328558 0
M  V30 2492 O 233.686 -1.83151 0.534838 0
M  V30 2493 C 230.826 -3.15371 1.40126 0
M  V30 2494 C 229.939 -3.4098 2.65249 0
M  V30 2495 C 229.074 -4.68915 2.49584 0
M  V30 2496 C 228.113 -4.87608 3.70006 0
M  V30 2497 N 227.25 -6.06796 3.53189 0
M  V30 2498 H 232.09 -1.72584 2.42938 0
M  V30 2499 H 229.627 -0.842297 1.20598 0
M  V30 2500 H 231.585 -3.9521 1.33659 0
M  V30 2501 H 230.215 -3.19121 0.485964 0
M  V30 2502 H 229.267 -2.55282 2.8202 0
M  V30 2503 H 230.579 -3.50681 3.54717 0
M  V30 2504 H 229.733 -5.56871 2.4079 0
M  V30 2505 H 228.472 -4.61524 1.5763 0
M  V30 2506 H 227.477 -3.9809 3.79215 0
M  V30 2507 H 228.702 -4.96834 4.62961 0
M  V30 2508 H 226.648 -6.00549 2.63965 0
M  V30 2509 H 226.565 -6.17428 4.36255 0
M  V30 2510 H 227.833 -6.9739 3.48236 0
M  V30 2511 N 232.062 -1.29571 -0.897171 0
M  V30 2512 C 233.311 -1.1706 -1.64256 0
M  V30 2513 C 233.624 0.276476 -1.93636 0
M  V30 2514 O 234.83 0.52294 -2.66416 0
M  V30 2515 C 233.286 -2.0475 -2.95982 0
M  V30 2516 C 232.894 -3.54295 -2.74187 0
M  V30 2517 C 234.638 -2.0097 -3.73914 0
M  V30 2518 C 232.545 -4.34081 -4.01656 0
M  V30 2519 H 231.475 -0.43452 -0.616205 0
M  V30 2520 H 234.126 -1.54229 -0.994268 0
M  V30 2521 H 232.508 -1.60452 -3.62038 0
M  V30 2522 H 233.682 -4.06662 -2.1671 0
M  V30 2523 H 231.997 -3.59773 -2.09648 0
M  V30 2524 H 234.594 -2.57838 -4.68427 0
M  V30 2525 H 234.937 -0.990273 -4.0435 0
M  V30 2526 H 235.47 -2.43325 -3.14703 0
M  V30 2527 H 232.209 -5.36671 -3.76384 0
M  V30 2528 H 231.729 -3.86483 -4.58684 0
M  V30 2529 H 233.408 -4.44877 -4.69781 0
M  V30 2530 N 233.54 1.10788 -1.12088 0
M  V30 2531 C 234.765 1.87002 -0.896949 0
M  V30 2532 C 235.19 1.79933 0.548261 0
M  V30 2533 O 234.548 1.16662 1.38779 0
M  V30 2534 C 234.596 3.3349 -1.37174 0
M  V30 2535 O 233.7 4.08745 -0.547831 0
M  V30 2536 H 233.041 0.580397 -0.322545 0
M  V30 2537 H 235.571 1.39996 -1.49206 0
M  V30 2538 H 235.581 3.84339 -1.36922 0
M  V30 2539 H 234.256 3.37951 -2.42408 0
M  V30 2540 H 232.833 3.6776 -0.617034 0
M  V30 2541 N 235.018 0.912232 1.28515 0
M  V30 2542 C 235.928 0.404506 2.31086 0
M  V30 2543 C 236.944 -0.50707 1.66448 0
M  V30 2544 O 238.12 -0.393624 1.97516 0
M  V30 2545 C 235.185 -0.348572 3.44943 0
M  V30 2546 C 234.246 0.59604 4.25142 0
M  V30 2547 C 233.479 -0.121194 5.33562 0
M  V30 2548 O 233.702 -1.34317 5.5436 0
M  V30 2549 O 232.636 0.542716 5.99448 0
M  V30 2550 H 236.462 1.25579 2.76521 0
M  V30 2551 H 234.047 0.676998 1.33181 0
M  V30 2552 H 235.929 -0.77395 4.14232 0
M  V30 2553 H 234.604 -1.17571 3.01594 0
M  V30 2554 H 233.511 1.07079 3.58448 0
M  V30 2555 H 234.844 1.38995 4.72167 0
M  V30 2556 N 236.496 -1.42363 0.676048 0
M  V30 2557 C 237.426 -2.33497 0.0124832 0
M  V30 2558 C 238.407 -1.50748 -0.787981 0
M  V30 2559 O 239.592 -1.79346 -0.744884 0
M  V30 2560 C 236.722 -3.34377 -0.938582 0
M  V30 2561 C 235.676 -4.27289 -0.246622 0
M  V30 2562 C 235.002 -5.18386 -1.31071 0
M  V30 2563 C 236.302 -5.14916 0.875125 0
M  V30 2564 H 237.996 -2.89233 0.773593 0
M  V30 2565 H 235.542 -1.39073 0.37346 0
M  V30 2566 H 237.495 -3.97044 -1.41188 0
M  V30 2567 H 236.219 -2.76947 -1.73113 0
M  V30 2568 H 234.878 -3.66018 0.206456 0
M  V30 2569 H 234.526 -4.57282 -2.09528 0
M  V30 2570 H 234.226 -5.81378 -0.852839 0
M  V30 2571 H 235.75 -5.83929 -1.78492 0
M  V30 2572 H 237.164 -5.71262 0.482983 0
M  V30 2573 H 235.561 -5.86747 1.25887 0
M  V30 2574 H 236.631 -4.53242 1.72335 0
M  V30 2575 N 237.974 -0.419461 -1.51915 0
M  V30 2576 C 239.251 0.211999 -1.94448 0
M  V30 2577 C 239.631 1.61703 -1.35703 0
M  V30 2578 O 238.979 2.22102 -0.536931 0
M  V30 2579 C 239.189 0.207872 -3.4838 0
M  V30 2580 C 240.537 0.422192 -4.22496 0
M  V30 2581 O 241.561 0.286778 -3.55044 0
M  V30 2582 O 240.42 0.690009 -5.42126 0
M  V30 2583 H 237.514 0.139586 -0.815135 0
M  V30 2584 H 240.06 -0.476151 -1.62883 0
M  V30 2585 H 238.832 -0.775102 -3.83546 0
M  V30 2586 H 238.455 0.939688 -3.86336 0
M  V30 2587 N 239.452 1.56882 -0.150215 0
M  V30 2588 C 240.399 2.16922 0.788244 0
M  V30 2589 C 241.369 1.10303 1.24187 0
M  V30 2590 O 242.554 1.38359 1.31383 0
M  V30 2591 C 239.694 2.79754 2.02068 0
M  V30 2592 C 238.807 4.00775 1.61257 0
M  V30 2593 C 237.942 4.51595 2.79705 0
M  V30 2594 C 236.981 5.65074 2.35282 0
M  V30 2595 N 236.118 6.10499 3.4675 0
M  V30 2596 H 240.958 2.96779 0.269444 0
M  V30 2597 H 238.495 1.46599 0.12128 0
M  V30 2598 H 240.453 3.14329 2.74323 0
M  V30 2599 H 239.083 2.02536 2.51354 0
M  V30 2600 H 238.135 3.72158 0.787553 0
M  V30 2601 H 239.447 4.82978 1.24633 0
M  V30 2602 H 238.601 4.88242 3.60145 0
M  V30 2603 H 237.34 3.68406 3.19576 0
M  V30 2604 H 236.345 5.28 1.53283 0
M  V30 2605 H 237.57 6.50052 1.96493 0
M  V30 2606 H 235.516 5.30243 3.86236 0
M  V30 2607 H 235.433 6.87637 3.14152 0
M  V30 2608 H 236.701 6.51791 4.27537 0
M  V30 2609 N 240.93 -0.123565 1.57115 0
M  V30 2610 C 242.17 -0.838097 1.86428 0
M  V30 2611 C 242.534 -1.77266 0.737611 0
M  V30 2612 O 243.735 -2.52842 0.912389 0
M  V30 2613 C 242.006 -1.57219 3.20962 0
M  V30 2614 S 243.565 -2.32893 3.71896 0
M  V30 2615 H 240.383 -0.279811 0.653626 0
M  V30 2616 H 242.985 -0.0967034 1.95261 0
M  V30 2617 H 241.689 -0.877522 4.00909 0
M  V30 2618 H 241.22 -2.35405 3.15195 0
M  V30 2619 H 243.235 -3.5853 3.43032 0
M  V30 2620 N 242.408 -1.52605 -0.393616 0
M  V30 2621 C 243.633 -1.71592 -1.16495 0
M  V30 2622 C 244.058 -0.43133 -1.83088 0
M  V30 2623 O 243.416 0.612523 -1.7064 0
M  V30 2624 C 243.464 -2.86318 -2.19213 0
M  V30 2625 O 242.568 -2.52969 -3.257 0
M  V30 2626 H 241.909 -0.570734 -0.33935 0
M  V30 2627 H 244.439 -1.99377 -0.459324 0
M  V30 2628 H 244.449 -3.1168 -2.63286 0
M  V30 2629 H 243.124 -3.79511 -1.7013 0
M  V30 2630 H 241.701 -2.38332 -2.86797 0
M  V30 2631 N 243.887 0.651787 -1.4349 0
M  V30 2632 C 244.837 1.75783 -1.45205 0
M  V30 2633 C 245.821 1.57679 -0.320328 0
M  V30 2634 O 247.013 1.67767 -0.564211 0
M  V30 2635 C 244.142 3.14377 -1.3792 0
M  V30 2636 C 243.228 3.38023 -2.56127 0
M  V30 2637 N 243.619 3.32135 -3.81471 0
M  V30 2638 C 241.917 3.68747 -2.50882 0
M  V30 2639 C 242.618 3.55902 -4.60118 0
M  V30 2640 N 241.594 3.77783 -3.90872 0
M  V30 2641 H 245.396 1.69657 -2.39987 0
M  V30 2642 H 242.91 0.853508 -1.38163 0
M  V30 2643 H 244.907 3.93666 -1.37231 0
M  V30 2644 H 243.567 3.21683 -0.441596 0
M  V30 2645 H 244.578 3.11515 -4.13738 0
M  V30 2646 H 241.255 3.8316 -1.65816 0
M  V30 2647 H 242.645 3.57116 -5.69138 0
M  V30 2648 N 245.365 1.30045 0.890287 0
M  V30 2649 C 246.781 1.08261 1.17268 0
M  V30 2650 C 246.981 -0.160063 2.00863 0
M  V30 2651 O 246.037 -0.855181 2.37577 0
M  V30 2652 C 247.35 2.34323 1.8845 0
M  V30 2653 C 248.898 2.39735 2.01237 0
M  V30 2654 C 249.373 3.65625 2.7583 0
M  V30 2655 N 250.864 3.66402 2.83379 0
M  V30 2656 C 251.599 4.60498 3.41657 0
M  V30 2657 N 251.095 5.64933 4.01026 0
M  V30 2658 N 252.888 4.48051 3.39421 0
M  V30 2659 H 245.039 2.09777 0.332762 0
M  V30 2660 H 247.302 0.92446 0.209948 0
M  V30 2661 H 247.008 3.2498 1.34465 0
M  V30 2662 H 246.882 2.4256 2.88867 0
M  V30 2663 H 249.269 1.4956 2.54393 0
M  V30 2664 H 249.35 2.35476 0.999232 0
M  V30 2665 H 248.994 4.56156 2.23347 0
M  V30 2666 H 248.924 3.67144 3.77509 0
M  V30 2667 H 251.415 2.90896 2.41222 0
M  V30 2668 H 251.728 6.32841 4.43545 0
M  V30 2669 H 250.073 5.68732 3.99461 0
M  V30 2670 H 253.264 3.65649 2.92264 0
M  V30 2671 H 253.437 5.21565 3.84544 0
M  V30 2672 N 246.843 -1.10192 1.12674 0
M  V30 2673 C 248.089 -1.82475 0.884915 0
M  V30 2674 C 248.422 -1.85093 -0.58773 0
M  V30 2675 O 247.697 -1.3134 -1.43457 0
M  V30 2676 C 247.98 -3.29018 1.46353 0
M  V30 2677 C 247.833 -3.34718 3.00473 0
M  V30 2678 C 249.152 -4.25473 1.12519 0
M  V30 2679 H 246.271 -0.662492 0.322915 0
M  V30 2680 H 248.913 -1.2913 1.39375 0
M  V30 2681 H 247.063 -3.74576 1.03077 0
M  V30 2682 H 248.735 -2.97622 3.52447 0
M  V30 2683 H 246.978 -2.74541 3.35872 0
M  V30 2684 H 247.649 -4.37918 3.36053 0
M  V30 2685 H 250.125 -3.88161 1.499 0
M  V30 2686 H 249.001 -5.26365 1.55663 0
M  V30 2687 H 249.262 -4.42084 0.0377407 0
M  V30 2688 N 248.321 -0.919034 -1.28029 0
M  V30 2689 C 249.251 -0.428581 -2.29533 0
M  V30 2690 C 250.232 0.50659 -1.62381 0
M  V30 2691 O 251.417 0.413195 -1.89753 0
M  V30 2692 C 248.547 0.327388 -3.45753 0
M  V30 2693 C 247.501 -0.519137 -4.2484 0
M  V30 2694 C 246.827 0.365486 -5.33449 0
M  V30 2695 C 248.127 -1.77914 -4.91064 0
M  V30 2696 H 249.821 -1.27687 -2.70807 0
M  V30 2697 H 247.367 -0.615428 -1.30186 0
M  V30 2698 H 249.32 0.681378 -4.15855 0
M  V30 2699 H 248.044 1.20963 -3.03374 0
M  V30 2700 H 246.703 -0.855717 -3.56473 0
M  V30 2701 H 246.351 1.24642 -4.87312 0
M  V30 2702 H 246.051 -0.197356 -5.87268 0
M  V30 2703 H 247.575 0.715241 -6.06396 0
M  V30 2704 H 248.989 -1.49374 -5.53498 0
M  V30 2705 H 247.386 -2.2848 -5.54903 0
M  V30 2706 H 248.456 -2.50382 -4.15255 0
M  V30 2707 N 249.799 1.42003 -0.683588 0
M  V30 2708 C 250.732 2.28166 0.039592 0
M  V30 2709 C 251.71 1.41562 0.799942 0
M  V30 2710 O 252.894 1.70997 0.793248 0
M  V30 2711 C 250.021 3.21575 1.06335 0
M  V30 2712 C 249.067 4.24643 0.397562 0
M  V30 2713 S 249.9 5.2869 -0.851296 0
M  V30 2714 C 251.056 6.25666 0.171166 0
M  V30 2715 H 251.289 2.89153 -0.691229 0
M  V30 2716 H 248.822 1.46962 -0.473435 0
M  V30 2717 H 250.78 3.75928 1.6489 0
M  V30 2718 H 249.441 2.59707 1.76667 0
M  V30 2719 H 248.634 4.90223 1.17035 0
M  V30 2720 H 248.236 3.73824 -0.114611 0
M  V30 2721 H 250.528 6.69653 1.02819 0
M  V30 2722 H 251.471 7.06666 -0.450397 0
M  V30 2723 H 251.879 5.62095 0.520578 0
M  V30 2724 N 251.277 0.427512 1.51691 0
M  V30 2725 C 252.507 -0.140986 2.06118 0
M  V30 2726 C 252.915 -1.37854 1.29588 0
M  V30 2727 O 252.258 -1.80411 0.346036 0
M  V30 2728 C 252.32 -0.538276 3.55447 0
M  V30 2729 C 251.984 0.591095 4.53161 0
M  V30 2730 C 252.981 1.46027 4.98971 0
M  V30 2731 C 250.666 0.769028 4.96378 0
M  V30 2732 C 252.66 2.49216 5.8666 0
M  V30 2733 C 250.347 1.80421 5.83859 0
M  V30 2734 C 251.345 2.66417 6.28897 0
M  V30 2735 O 251.033 3.68159 7.14643 0
M  V30 2736 H 250.765 -0.0157455 0.675817 0
M  V30 2737 H 253.319 0.602495 1.96365 0
M  V30 2738 H 251.549 -1.33432 3.6295 0
M  V30 2739 H 253.238 -1.0368 3.92435 0
M  V30 2740 H 254.004 1.33429 4.66285 0
M  V30 2741 H 249.883 0.109273 4.6087 0
M  V30 2742 H 253.427 3.16372 6.21735 0
M  V30 2743 H 249.324 1.93042 6.15959 0
M  V30 2744 H 250.092 3.64622 7.32798 0
M  V30 2745 N 252.755 -1.56801 0.158532 0
M  V30 2746 C 254.003 -1.96102 -0.488712 0
M  V30 2747 C 254.324 -1.04498 -1.64636 0
M  V30 2748 O 253.594 -0.108783 -1.95598 0
M  V30 2749 H 252.174 -0.724102 -0.183535 0
M  V30 2750 H 254.836 -1.93457 0.236728 0
M  V30 2751 H 253.932 -3.00097 -0.857219 0
M  V30 2752 N 254.233 0.115231 -1.57178 0
M  V30 2753 C 255.458 0.840354 -1.89612 0
M  V30 2754 C 255.883 1.72464 -0.750845 0
M  V30 2755 O 255.241 1.78826 0.298478 0
M  V30 2756 C 255.289 1.64654 -3.20814 0
M  V30 2757 O 254.393 2.7538 -3.06985 0
M  V30 2758 H 253.734 0.232158 -0.622092 0
M  V30 2759 H 256.264 0.0964977 -2.04372 0
M  V30 2760 H 256.274 2.03499 -3.53627 0
M  V30 2761 H 254.949 0.997416 -4.03763 0
M  V30 2762 H 253.526 2.3971 -2.85646 0
M  V30 2763 N 255.711 1.52812 0.385517 0
M  V30 2764 C 256.621 1.80766 1.49535 0
M  V30 2765 C 257.637 0.694651 1.59532 0
M  V30 2766 O 258.813 0.982611 1.75803 0
M  V30 2767 C 255.878 1.97381 2.85029 0
M  V30 2768 C 254.939 3.21295 2.84724 0
M  V30 2769 C 254.172 3.37108 4.13756 0
M  V30 2770 O 254.395 2.5765 5.08893 0
M  V30 2771 O 253.329 4.30378 4.20783 0
M  V30 2772 H 257.155 2.75015 1.28842 0
M  V30 2773 H 254.74 1.37946 0.573697 0
M  V30 2774 H 256.622 2.09996 3.65349 0
M  V30 2775 H 255.297 1.06322 3.05741 0
M  V30 2776 H 254.204 3.1412 2.03174 0
M  V30 2777 H 255.537 4.12212 2.68965 0
M  V30 2778 N 257.189 -0.644168 1.43834 0
M  V30 2779 C 258.119 -1.76814 1.52509 0
M  V30 2780 C 259.1 -1.65823 0.379052 0
M  V30 2781 O 260.285 -1.84781 0.597466 0
M  V30 2782 C 257.415 -3.15288 1.4564 0
M  V30 2783 C 256.369 -3.41053 2.58586 0
M  V30 2784 C 255.695 -4.79421 2.36769 0
M  V30 2785 C 256.995 -3.34902 4.00797 0
M  V30 2786 H 258.689 -1.69812 2.46586 0
M  V30 2787 H 256.235 -0.815542 1.1868 0
M  V30 2788 H 258.188 -3.93681 1.50311 0
M  V30 2789 H 256.912 -3.23043 0.480725 0
M  V30 2790 H 255.571 -2.65035 2.53282 0
M  V30 2791 H 255.219 -4.83863 1.37424 0
M  V30 2792 H 254.919 -4.9762 3.12487 0
M  V30 2793 H 256.443 -5.6006 2.43238 0
M  V30 2794 H 257.857 -4.03218 4.07539 0
M  V30 2795 H 256.254 -3.64637 4.76613 0
M  V30 2796 H 257.324 -2.32928 4.25291 0
M  V30 2797 N 258.668 -1.30515 -0.883378 0
M  V30 2798 C 259.945 -1.10086 -1.6168 0
M  V30 2799 C 260.325 0.349269 -2.08191 0
M  V30 2800 O 259.673 1.34105 -1.85008 0
M  V30 2801 C 259.883 -2.10315 -2.78511 0
M  V30 2802 C 261.231 -2.42119 -3.48803 0
M  V30 2803 O 262.255 -2.08638 -2.88702 0
M  V30 2804 O 261.114 -2.99396 -4.57192 0
M  V30 2805 H 258.208 -0.422907 -0.710689 0
M  V30 2806 H 260.754 -1.41947 -0.930015 0
M  V30 2807 H 259.526 -3.07917 -2.41459 0
M  V30 2808 H 259.149 -1.79282 -3.54886 0
M  V30 2809 N 260.146 1.09593 -1.13257 0
M  V30 2810 C 261.109 2.14359 -0.811358 0
M  V30 2811 C 262.109 1.59808 0.178377 0
M  V30 2812 O 263.299 1.74132 -0.0484911 0
M  V30 2813 C 260.431 3.40269 -0.207276 0
M  V30 2814 H 261.624 2.44284 -1.73969 0
M  V30 2815 H 259.177 1.25102 -0.936973 0
M  V30 2816 H 259.912 3.15969 0.73036 0
M  V30 2817 H 259.697 3.81154 -0.919992 0
M  V30 2818 H 261.187 4.176 0.000667944 0
M  V30 2819 N 261.624 0.925811 1.2754 0
M  V30 2820 C 262.901 0.483726 1.89524 0
M  V30 2821 C 263.281 -1.03809 1.83812 0
M  V30 2822 O 262.629 -1.89143 1.28207 0
M  V30 2823 C 262.839 1.02769 3.33526 0
M  V30 2824 C 264.187 1.08703 4.10449 0
M  V30 2825 O 265.211 0.977175 3.42534 0
M  V30 2826 O 264.07 1.25599 5.31871 0
M  V30 2827 H 261.164 0.15529 0.812289 0
M  V30 2828 H 263.71 1.01738 1.35822 0
M  V30 2829 H 262.482 2.07155 3.31967 0
M  V30 2830 H 262.105 0.475567 3.94746 0
M  V30 2831 N 263.102 -1.41638 0.69111 0
M  V30 2832 C 264.052 -2.28 -0.000107832 0
M  V30 2833 C 265.036 -1.41964 -0.757304 0
M  V30 2834 O 266.228 -1.65274 -0.633532 0
M  V30 2835 C 263.357 -3.30209 -0.938983 0
M  V30 2836 C 262.443 -4.23725 -0.17827 0
M  V30 2837 N 262.834 -4.99017 0.825563 0
M  V30 2838 C 261.132 -4.44071 -0.414392 0
M  V30 2839 C 261.833 -5.67431 1.28052 0
M  V30 2840 N 260.809 -5.40197 0.607304 0
M  V30 2841 H 264.611 -2.83644 0.769617 0
M  V30 2842 H 262.125 -1.53797 0.521562 0
M  V30 2843 H 264.122 -3.90898 -1.44929 0
M  V30 2844 H 262.782 -2.76126 -1.70836 0
M  V30 2845 H 263.793 -5.03671 1.20566 0
M  V30 2846 H 260.47 -4.01004 -1.162 0
M  V30 2847 H 261.86 -6.37801 2.11327 0
M  V30 2848 N 264.58 -0.43555 -1.51462 0
M  V30 2849 C 265.991 0.0279871 -1.86679 0
M  V30 2850 C 266.342 1.42104 -1.35281 0
M  V30 2851 O 265.467 2.04667 -0.702878 0
M  V30 2852 C 266.062 0.0575626 -3.38751 0
M  V30 2853 C 264.621 0.465507 -3.7351 0
M  V30 2854 C 263.768 -0.342996 -2.75171 0
M  V30 2855 H 266.719 -0.651473 -1.44712 0
M  V30 2856 H 266.74 0.867421 -3.70481 0
M  V30 2857 H 266.252 -0.956448 -3.7613 0
M  V30 2858 H 264.353 1.48519 -3.41721 0
M  V30 2859 H 264.466 0.191546 -4.78717 0
M  V30 2860 H 262.83 0.198442 -2.53926 0
M  V30 2861 H 263.613 -1.35585 -3.15391 0
M  V30 2862 N 266.058 1.56714 -0.166846 0
M  V30 2863 C 267.306 1.96358 0.478305 0
M  V30 2864 C 267.627 1.0537 1.6408 0
M  V30 2865 O 266.897 0.119154 1.95537 0
M  V30 2866 H 265.477 0.725065 0.179692 0
M  V30 2867 H 268.139 1.93329 -0.246985 0
M  V30 2868 H 267.235 3.00547 0.841292 0
M  V30 2869 N 267.536 -0.106894 1.57237 0
M  V30 2870 C 268.783 -0.812526 1.85484 0
M  V30 2871 C 269.111 -1.79304 0.753687 0
M  V30 2872 O 268.366 -1.94047 -0.253853 0
M  V30 2873 C 268.665 -1.58628 3.20268 0
M  V30 2874 C 268.331 -0.748967 4.44636 0
M  V30 2875 C 266.993 -0.518104 4.78403 0
M  V30 2876 C 269.345 -0.166122 5.20935 0
M  V30 2877 C 266.673 0.305659 5.85903 0
M  V30 2878 C 269.025 0.644899 6.29304 0
M  V30 2879 C 267.689 0.885965 6.61594 0
M  V30 2880 H 266.959 -0.297324 0.678734 0
M  V30 2881 H 269.606 -0.0744332 1.91355 0
M  V30 2882 H 267.911 -2.39562 3.10028 0
M  V30 2883 H 269.608 -2.13643 3.39349 0
M  V30 2884 H 266.198 -0.939006 4.18187 0
M  V30 2885 H 270.382 -0.33167 4.95191 0
M  V30 2886 H 265.638 0.501528 6.0934 0
M  V30 2887 H 269.812 1.10345 6.87602 0
M  V30 2888 H 267.439 1.52609 7.44725 0
M  V30 2889 N 269.014 -1.53014 -0.377408 0
M  V30 2890 C 269.961 -1.78616 -1.46168 0
M  V30 2891 C 270.931 -0.629917 -1.53692 0
M  V30 2892 O 272.116 -0.870861 -1.69766 0
M  V30 2893 C 269.256 -1.97123 -2.8326 0
M  V30 2894 C 268.369 -3.24831 -2.84796 0
M  V30 2895 C 267.504 -3.33591 -4.13389 0
M  V30 2896 C 266.543 -4.55377 -4.09021 0
M  V30 2897 N 265.68 -4.61355 -5.29241 0
M  V30 2898 H 270.52 -2.71142 -1.23637 0
M  V30 2899 H 268.057 -1.34326 -0.599577 0
M  V30 2900 H 270.015 -2.05839 -3.62886 0
M  V30 2901 H 268.645 -1.07946 -3.04216 0
M  V30 2902 H 267.697 -3.25128 -1.97474 0
M  V30 2903 H 269.009 -4.14523 -2.77439 0
M  V30 2904 H 268.163 -3.41554 -5.01424 0
M  V30 2905 H 266.902 -2.41894 -4.23484 0
M  V30 2906 H 265.907 -4.47527 -3.19373 0
M  V30 2907 H 267.132 -5.48402 -4.00539 0
M  V30 2908 H 265.078 -3.72554 -5.39944 0
M  V30 2909 H 264.995 -5.44935 -5.24006 0
M  V30 2910 H 266.263 -4.73586 -6.19141 0
M  V30 2911 N 270.492 0.636531 -1.44174 0
M  V30 2912 C 271.769 1.39463 -1.37148 0
M  V30 2913 C 272.149 2.11082 -0.027507 0
M  V30 2914 O 271.497 2.05954 0.989716 0
M  V30 2915 C 271.707 2.36552 -2.56601 0
M  V30 2916 C 273.055 3.00048 -3.00427 0
M  V30 2917 O 274.079 2.46878 -2.56767 0
M  V30 2918 O 272.938 3.96488 -3.76111 0
M  V30 2919 H 270.032 0.623903 -0.542839 0
M  V30 2920 H 272.578 0.662039 -1.56253 0
M  V30 2921 H 271.35 1.82692 -3.46034 0
M  V30 2922 H 270.973 3.17236 -2.39681 0
M  V30 2923 N 271.97 1.30982 0.876444 0
M  V30 2924 C 272.918 1.18006 2.00443 0
M  V30 2925 C 273.912 0.0898871 1.69161 0
M  V30 2926 O 275.118 0.251333 1.78237 0
M  V30 2927 H 271.493 0.365196 0.65737 0
M  V30 2928 H 273.464 2.13453 2.0852 0
M  V30 2929 C 272.213 0.897521 3.35916 0
M  V30 2930 H 271.536 1.7285 3.60504 0
M  V30 2931 H 272.976 0.846874 4.15456 0
M  V30 2932 C 271.435 -0.399674 3.34521 0
M  V30 2933 O 271.965 -1.41852 3.7582 0
M  V30 2934 N 270.171 -0.413893 2.87637 0
M  V30 2935 H 269.718 0.41571 2.54224 0
M  V30 2936 H 269.676 -1.28175 2.87086 0
M  V30 2937 N 273.449 -1.08991 1.13837 0
M  V30 2938 C 274.695 -1.81526 0.90422 0
M  V30 2939 C 275.028 -1.85706 -0.568066 0
M  V30 2940 O 274.303 -1.32855 -1.42056 0
M  V30 2941 C 274.586 -3.27447 1.49835 0
M  V30 2942 C 274.439 -3.31512 3.04006 0
M  V30 2943 C 275.758 -4.24256 1.17025 0
M  V30 2944 H 272.877 -0.659029 0.329923 0
M  V30 2945 H 275.519 -1.27644 1.40737 0
M  V30 2946 H 273.669 -3.73462 1.07044 0
M  V30 2947 H 275.341 -2.93867 3.55584 0
M  V30 2948 H 273.584 -2.70963 3.38765 0
M  V30 2949 H 274.255 -4.34329 3.40679 0
M  V30 2950 H 276.731 -3.86549 1.54009 0
M  V30 2951 H 275.607 -5.24684 1.61237 0
M  V30 2952 H 275.868 -4.42019 0.0846274 0
M  V30 2953 N 274.927 -0.932562 -1.27047 0
M  V30 2954 C 276.157 -0.591173 -1.97961 0
M  V30 2955 C 276.565 0.836219 -1.69717 0
M  V30 2956 O 275.908 1.56801 -0.957036 0
M  V30 2957 C 275.97 -0.743082 -3.51736 0
M  V30 2958 C 275.634 -2.1435 -4.03613 0
M  V30 2959 C 276.631 -3.11815 -4.16014 0
M  V30 2960 C 274.316 -2.46175 -4.37839 0
M  V30 2961 C 276.31 -4.39211 -4.61923 0
M  V30 2962 C 273.997 -3.73806 -4.83438 0
M  V30 2963 C 274.995 -4.70137 -4.95439 0
M  V30 2964 O 274.683 -5.95496 -5.40037 0
M  V30 2965 H 274.415 -0.222375 -0.638377 0
M  V30 2966 H 276.969 -1.25317 -1.62742 0
M  V30 2967 H 275.199 -0.0239739 -3.86693 0
M  V30 2968 H 276.888 -0.40603 -4.03864 0
M  V30 2969 H 277.654 -2.88549 -3.89826 0
M  V30 2970 H 273.533 -1.71936 -4.27737 0
M  V30 2971 H 277.077 -5.14404 -4.71205 0
M  V30 2972 H 272.974 -3.96888 -5.09068 0
M  V30 2973 H 273.742 -5.98554 -5.58279 0
M  V30 2974 N 276.405 1.4127 -0.698611 0
M  V30 2975 C 277.821 1.55241 -0.370462 0
M  V30 2976 C 278.021 1.67351 1.12231 0
M  V30 2977 O 277.077 1.65363 1.90818 0
M  V30 2978 C 278.39 2.78997 -1.12165 0
M  V30 2979 C 279.938 2.92797 -1.1063 0
M  V30 2980 C 280.413 4.19445 -1.8393 0
M  V30 2981 N 281.904 4.26409 -1.80914 0
M  V30 2982 C 282.639 5.23271 -2.34467 0
M  V30 2983 N 282.135 6.26145 -2.96504 0
M  V30 2984 N 283.928 5.15232 -2.24706 0
M  V30 2985 H 276.079 1.31654 -1.66676 0
M  V30 2986 H 278.342 0.635393 -0.703548 0
M  V30 2987 H 278.048 2.76268 -2.17644 0
M  V30 2988 H 277.922 3.70606 -0.702209 0
M  V30 2989 H 280.309 2.95039 -0.0597713 0
M  V30 2990 H 280.39 2.02353 -1.56483 0
M  V30 2991 H 280.034 4.17964 -2.88563 0
M  V30 2992 H 279.964 5.08866 -1.35509 0
M  V30 2993 H 282.455 3.527 -1.35687 0
M  V30 2994 H 282.768 6.96451 -3.34927 0
M  V30 2995 H 281.113 6.26638 -3.00583 0
M  V30 2996 H 284.304 4.33789 -1.7591 0
M  V30 2997 H 284.477 5.90552 -2.66745 0
M  V30 2998 N 277.883 0.443576 1.51229 0
M  V30 2999 C 278.815 -0.400608 2.25672 0
M  V30 3000 C 279.828 -0.980945 1.29928 0
M  V30 3001 O 281.017 -0.874024 1.55638 0
M  V30 3002 C 278.117 -1.57304 3.00181 0
M  V30 3003 C 277.29 -1.11046 4.23069 0
M  V30 3004 C 276.349 -2.15374 4.80105 0
M  V30 3005 O 275.375 -1.74554 5.41774 0
M  V30 3006 N 276.577 -3.47922 4.64683 0
M  V30 3007 H 279.342 0.23745 2.98758 0
M  V30 3008 H 276.903 0.272809 1.59585 0
M  V30 3009 H 278.895 -2.26733 3.35223 0
M  V30 3010 H 277.465 -2.11632 2.30066 0
M  V30 3011 H 276.685 -0.243019 3.9345 0
M  V30 3012 H 277.973 -0.778888 5.02803 0
M  V30 3013 H 277.371 -3.83815 4.15575 0
M  V30 3014 H 275.928 -4.13228 5.0407 0
M  V30 3015 N 279.361 -1.56624 0.175154 0
M  V30 3016 C 280.777 -1.58571 -0.180966 0
M  V30 3017 C 280.977 -1.19065 -1.6256 0
M  V30 3018 O 280.033 -0.904044 -2.35761 0
M  V30 3019 C 281.346 -3.00522 0.103326 0
M  V30 3020 C 282.894 -3.12972 0.0418426 0
M  V30 3021 C 283.369 -4.57022 0.299175 0
M  V30 3022 N 284.86 -4.62541 0.247086 0
M  V30 3023 C 285.595 -5.71857 0.420318 0
M  V30 3024 N 285.091 -6.89717 0.652816 0
M  V30 3025 N 286.884 -5.60972 0.355957 0
M  V30 3026 H 279.035 -1.80589 1.11809 0
M  V30 3027 H 281.298 -0.837178 0.444788 0
M  V30 3028 H 281.004 -3.33916 1.10422 0
M  V30 3029 H 280.878 -3.72344 -0.603299 0
M  V30 3030 H 283.265 -2.79403 -0.949636 0
M  V30 3031 H 283.346 -2.43578 0.781238 0
M  V30 3032 H 282.99 -4.913 1.28788 0
M  V30 3033 H 282.92 -5.24579 -0.460876 0
M  V30 3034 H 285.411 -3.77829 0.0731895 0
M  V30 3035 H 285.724 -7.68911 0.774347 0
M  V30 3036 H 284.069 -6.91572 0.689476 0
M  V30 3037 H 287.26 -4.67773 0.174882 0
M  V30 3038 H 287.433 -6.46111 0.494388 0
M  V30 3039 N 280.839 0.0985539 -1.57292 0
M  V30 3040 C 282.255 0.45267 -1.53046 0
M  V30 3041 C 282.455 1.80713 -0.891342 0
M  V30 3042 O 281.511 2.4785 -0.482375 0
M  V30 3043 C 282.824 0.418341 -2.97776 0
M  V30 3044 C 284.372 0.500443 -3.08973 0
M  V30 3045 C 284.847 0.496297 -4.55303 0
M  V30 3046 N 286.338 0.557151 -4.59837 0
M  V30 3047 C 287.073 0.575726 -5.70502 0
M  V30 3048 N 286.569 0.550714 -6.90608 0
M  V30 3049 N 288.362 0.620277 -5.58667 0
M  V30 3050 H 280.513 -0.788673 -1.97215 0
M  V30 3051 H 282.776 -0.293188 -0.901524 0
M  V30 3052 H 282.482 -0.509659 -3.47988 0
M  V30 3053 H 282.356 1.2386 -3.56284 0
M  V30 3054 H 284.743 1.41886 -2.58751 0
M  V30 3055 H 284.824 -0.347894 -2.53423 0
M  V30 3056 H 284.468 -0.418162 -5.06176 0
M  V30 3057 H 284.398 1.3618 -5.08687 0
M  V30 3058 H 286.889 0.581816 -3.73394 0
M  V30 3059 H 287.202 0.568075 -7.70709 0
M  V30 3060 H 285.547 0.517816 -6.93068 0
M  V30 3061 H 288.738 0.637322 -4.63741 0
M  V30 3062 H 288.911 0.631283 -6.44918 0
M  V30 3063 N 282.317 1.53212 0.369288 0
M  V30 3064 C 283.264 1.79388 1.45219 0
M  V30 3065 C 284.234 0.638059 1.53356 0
M  V30 3066 O 285.419 0.879852 1.69302 0
M  V30 3067 C 282.559 1.98623 2.82211 0
M  V30 3068 C 281.672 3.26337 2.8307 0
M  V30 3069 C 280.807 3.35779 4.11614 0
M  V30 3070 C 279.846 4.5754 4.06601 0
M  V30 3071 N 278.983 4.64155 5.26787 0
M  V30 3072 H 283.823 2.71794 1.22198 0
M  V30 3073 H 281.36 1.34642 0.592444 0
M  V30 3074 H 283.318 2.07761 3.61789 0
M  V30 3075 H 281.948 1.09558 3.03639 0
M  V30 3076 H 281 3.26171 1.95747 0
M  V30 3077 H 282.312 4.15988 2.75237 0
M  V30 3078 H 281.466 3.44208 4.99606 0
M  V30 3079 H 280.205 2.44137 4.22195 0
M  V30 3080 H 279.21 4.49215 3.16996 0
M  V30 3081 H 280.435 5.50519 3.97625 0
M  V30 3082 H 278.381 3.75413 5.3796 0
M  V30 3083 H 278.298 5.47706 5.21109 0
M  V30 3084 H 279.566 4.76863 6.16621 0
M  V30 3085 N 283.795 -0.628877 1.44509 0
M  V30 3086 C 285.025 -1.41349 1.50678 0
M  V30 3087 C 285.433 -1.88745 0.131075 0
M  V30 3088 O 284.776 -1.61592 -0.87371 0
M  V30 3089 C 284.838 -2.66608 2.41165 0
M  V30 3090 C 284.502 -2.40993 3.88293 0
M  V30 3091 C 285.499 -2.0268 4.78766 0
M  V30 3092 C 283.184 -2.54563 4.33016 0
M  V30 3093 C 285.178 -1.78269 6.11963 0
M  V30 3094 C 282.865 -2.29766 5.6626 0
M  V30 3095 C 283.863 -1.91678 6.55552 0
M  V30 3096 O 283.551 -1.67158 7.86329 0
M  V30 3097 H 283.283 -0.439851 0.51333 0
M  V30 3098 H 285.837 -0.776084 1.90174 0
M  V30 3099 H 284.067 -3.32994 1.96601 0
M  V30 3100 H 285.756 -3.28615 2.38259 0
M  V30 3101 H 286.522 -1.91751 4.45485 0
M  V30 3102 H 282.401 -2.83179 3.63773 0
M  V30 3103 H 285.945 -1.48465 6.81619 0
M  V30 3104 H 281.842 -2.40306 5.99102 0
M  V30 3105 H 282.61 -1.81386 7.98149 0
M  V30 3106 N 285.273 -1.31445 -0.869486 0
M  V30 3107 C 286.52 -1.21158 -1.62256 0
M  V30 3108 C 286.848 0.230155 -1.93133 0
M  V30 3109 O 286.103 1.17906 -1.56194 0
M  V30 3110 C 286.402 -2.00145 -2.96102 0
M  V30 3111 C 286.068 -3.4964 -2.84715 0
M  V30 3112 C 284.73 -3.90403 -2.81317 0
M  V30 3113 C 287.082 -4.44769 -2.71716 0
M  V30 3114 C 284.41 -5.24561 -2.62778 0
M  V30 3115 C 286.762 -5.79054 -2.54714 0
M  V30 3116 C 285.426 -6.19037 -2.49699 0
M  V30 3117 H 284.696 -0.443348 -0.593737 0
M  V30 3118 H 287.343 -1.62715 -1.00976 0
M  V30 3119 H 285.648 -1.5127 -3.6142 0
M  V30 3120 H 287.345 -1.89566 -3.53363 0
M  V30 3121 H 283.935 -3.17256 -2.88178 0
M  V30 3122 H 288.119 -4.14208 -2.73397 0
M  V30 3123 H 283.375 -5.54613 -2.57321 0
M  V30 3124 H 287.549 -6.52393 -2.43632 0
M  V30 3125 H 285.176 -7.22935 -2.35093 0
M  V30 3126 N 286.751 1.08385 -1.14413 0
M  V30 3127 C 287.997 1.81044 -0.913834 0
M  V30 3128 C 288.33 1.86004 0.558209 0
M  V30 3129 O 287.605 1.33606 1.4135 0
M  V30 3130 C 287.888 3.26648 -1.51569 0
M  V30 3131 C 287.741 3.29895 -3.0576 0
M  V30 3132 C 289.06 4.23629 -1.19273 0
M  V30 3133 H 286.179 0.65727 -0.333414 0
M  V30 3134 H 288.821 1.26896 -1.41412 0
M  V30 3135 H 286.971 3.72889 -1.09023 0
M  V30 3136 H 288.643 2.91977 -3.57137 0
M  V30 3137 H 286.886 2.69163 -3.40197 0
M  V30 3138 H 287.557 4.32516 -3.42977 0
M  V30 3139 H 290.033 3.85727 -1.56057 0
M  V30 3140 H 288.909 5.23822 -1.64017 0
M  V30 3141 H 289.17 4.41968 -0.108068 0
M  V30 3142 N 288.23 0.939286 1.26551 0
M  V30 3143 C 289.507 0.5038 1.89001 0
M  V30 3144 C 289.887 -1.01854 1.84903 0
M  V30 3145 O 289.235 -1.87773 1.30206 0
M  V30 3146 C 289.445 1.063 3.32417 0
M  V30 3147 C 290.793 1.13051 4.09273 0
M  V30 3148 O 291.817 1.01345 3.41479 0
M  V30 3149 O 290.676 1.31233 5.30509 0
M  V30 3150 H 287.77 0.163897 0.810597 0
M  V30 3151 H 290.316 1.03173 1.34735 0
M  V30 3152 H 289.088 2.10665 3.29752 0
M  V30 3153 H 288.711 0.517408 3.94219 0
M  V30 3154 N 289.708 -1.40897 0.706093 0
M  V30 3155 C 290.954 -2.01352 0.241889 0
M  V30 3156 C 291.287 -1.55832 -1.15888 0
M  V30 3157 O 290.562 -0.774145 -1.7843 0
M  V30 3158 C 290.845 -3.58752 0.311311 0
M  V30 3159 C 290.698 -4.1437 1.74978 0
M  V30 3160 C 292.017 -4.38914 -0.322922 0
M  V30 3161 H 289.136 -0.731562 0.0893687 0
M  V30 3162 H 291.778 -1.67504 0.896802 0
M  V30 3163 H 289.928 -3.87718 -0.246302 0
M  V30 3164 H 291.6 -3.96239 2.36205 0
M  V30 3165 H 289.843 -3.69016 2.28057 0
M  V30 3166 H 290.514 -5.23532 1.74981 0
M  V30 3167 H 292.99 -4.15822 0.152089 0
M  V30 3168 H 291.866 -5.48358 -0.243855 0
M  V30 3169 H 292.127 -4.19176 -1.40513 0
M  V30 3170 N 291.186 -0.45159 -1.50991 0
M  V30 3171 C 292.149 0.341117 -2.26647 0
M  V30 3172 C 293.149 0.937422 -1.30649 0
M  V30 3173 O 294.339 0.809644 -1.54241 0
M  V30 3174 C 291.471 1.48398 -3.06905 0
M  V30 3175 H 292.664 -0.322117 -2.98165 0
M  V30 3176 H 290.217 -0.205122 -1.54948 0
M  V30 3177 H 290.952 2.18284 -2.39838 0
M  V30 3178 H 290.737 1.06241 -3.77432 0
M  V30 3179 H 292.227 2.04367 -3.64176 0
M  V30 3180 N 292.664 1.56529 -0.183458 0
M  V30 3181 C 293.597 2.14417 0.781052 0
M  V30 3182 C 294.575 1.07761 1.21763 0
M  V30 3183 O 295.759 1.35807 1.30724 0
M  V30 3184 C 292.886 2.69361 2.05335 0
M  V30 3185 C 291.932 3.885 1.75982 0
M  V30 3186 S 292.765 5.27568 0.918256 0
M  V30 3187 C 293.921 5.85926 2.20095 0
M  V30 3188 H 294.154 2.95893 0.2889 0
M  V30 3189 H 291.687 1.54368 0.0313844 0
M  V30 3190 H 293.645 3.01662 2.78406 0
M  V30 3191 H 292.306 1.87949 2.51663 0
M  V30 3192 H 291.499 4.25314 2.70415 0
M  V30 3193 H 291.101 3.57149 1.10999 0
M  V30 3194 H 293.393 5.99579 3.15453 0
M  V30 3195 H 294.336 6.82761 1.87731 0
M  V30 3196 H 294.744 5.14438 2.32409 0
M  V30 3197 N 294.142 -0.090211 1.57342 0
M  V30 3198 C 295.39 -0.791241 1.85967 0
M  V30 3199 C 295.711 -1.7903 0.772859 0
M  V30 3200 O 294.981 -1.94872 -0.200398 0
M  V30 3201 H 293.561 -0.295205 0.686195 0
M  V30 3202 H 296.223 -0.0706782 1.94772 0
M  V30 3203 H 295.319 -1.31882 2.82867 0
M  V30 3204 N 295.62 -1.53406 -0.361157 0
M  V30 3205 C 296.85 -1.73465 -1.1222 0
M  V30 3206 C 297.258 -0.465486 -1.83384 0
M  V30 3207 O 296.601 0.571611 -1.7458 0
M  V30 3208 C 296.663 -2.84834 -2.19339 0
M  V30 3209 C 296.327 -4.25038 -1.67903 0
M  V30 3210 C 297.324 -5.07231 -1.14074 0
M  V30 3211 C 295.009 -4.71464 -1.73282 0
M  V30 3212 C 297.003 -6.33942 -0.663068 0
M  V30 3213 C 294.69 -5.98153 -1.25127 0
M  V30 3214 C 295.688 -6.79223 -0.717296 0
M  V30 3215 O 295.376 -8.03533 -0.242865 0
M  V30 3216 H 295.108 -0.583526 -0.341283 0
M  V30 3217 H 297.662 -2.00964 -0.424591 0
M  V30 3218 H 295.892 -2.5282 -2.92607 0
M  V30 3219 H 297.581 -2.9303 -2.80871 0
M  V30 3220 H 298.347 -4.72534 -1.09254 0
M  V30 3221 H 294.226 -4.08432 -2.13786 0
M  V30 3222 H 297.77 -6.97167 -0.245612 0
M  V30 3223 H 293.667 -6.32347 -1.29642 0
M  V30 3224 H 294.435 -8.177 -0.361786 0
M  V30 3225 N 297.098 0.621204 -1.44841 0
M  V30 3226 C 298.045 1.73267 -1.5247 0
M  V30 3227 C 299.015 1.6189 -0.371611 0
M  V30 3228 O 300.2 1.81668 -0.58321 0
M  V30 3229 C 297.34 3.11545 -1.48438 0
M  V30 3230 C 296.453 3.33827 -2.74196 0
M  V30 3231 C 295.588 4.62133 -2.61929 0
M  V30 3232 C 294.627 4.77627 -3.82804 0
M  V30 3233 N 293.764 5.97219 -3.69153 0
M  V30 3234 H 298.604 1.66082 -2.47428 0
M  V30 3235 H 296.141 0.810026 -1.22788 0
M  V30 3236 H 298.099 3.91528 -1.4409 0
M  V30 3237 H 296.729 3.1772 -0.570402 0
M  V30 3238 H 295.781 2.47715 -2.88689 0
M  V30 3239 H 297.093 3.41153 -3.6389 0
M  V30 3240 H 296.247 5.50291 -2.5547 0
M  V30 3241 H 294.986 4.57182 -1.69811 0
M  V30 3242 H 293.991 3.87896 -3.89637 0
M  V30 3243 H 295.216 4.84385 -4.75971 0
M  V30 3244 H 293.162 5.93339 -2.79794 0
M  V30 3245 H 293.079 6.05644 -4.52472 0
M  V30 3246 H 294.347 6.87912 -3.66603 0
M  V30 3247 N 298.576 1.31904 0.862503 0
M  V30 3248 C 299.806 1.24817 1.64634 0
M  V30 3249 C 300.214 -0.187579 1.88268 0
M  V30 3250 O 299.557 -1.13253 1.44635 0
M  V30 3251 C 299.619 1.92996 3.03303 0
M  V30 3252 C 299.283 3.42336 3.02746 0
M  V30 3253 C 300.28 4.37956 2.80162 0
M  V30 3254 C 297.965 3.84147 3.2363 0
M  V30 3255 C 299.959 5.73361 2.78453 0
M  V30 3256 C 297.646 5.19663 3.21549 0
M  V30 3257 C 298.644 6.14081 2.98988 0
M  V30 3258 O 298.332 7.47118 2.96766 0
M  V30 3259 H 298.064 0.432222 0.519769 0
M  V30 3260 H 300.618 1.7445 1.08427 0
M  V30 3261 H 298.848 1.37922 3.61268 0
M  V30 3262 H 300.537 1.79723 3.63943 0
M  V30 3263 H 301.303 4.06981 2.63802 0
M  V30 3264 H 297.182 3.11083 3.40218 0
M  V30 3265 H 300.726 6.4703 2.60763 0
M  V30 3266 H 296.623 5.5027 3.37451 0
M  V30 3267 H 297.391 7.56382 3.12775 0
M  V30 3268 N 300.054 -1.07777 1.14986 0
M  V30 3269 C 301.302 -1.79934 0.920235 0
M  V30 3270 C 301.623 -1.86955 -0.554336 0
M  V30 3271 O 300.893 -1.36731 -1.40291 0
M  V30 3272 H 299.473 -0.666424 0.337473 0
M  V30 3273 H 302.135 -1.3027 1.44968 0
M  V30 3274 H 301.231 -2.82539 1.32583 0
M  V30 3275 N 301.532 -0.945985 -1.26051 0
M  V30 3276 C 302.464 -0.416662 -2.25381 0
M  V30 3277 C 303.477 0.462712 -1.56086 0
M  V30 3278 O 304.666 0.272383 -1.7641 0
M  V30 3279 C 301.766 0.419812 -3.3629 0
M  V30 3280 C 300.939 -0.444531 -4.35135 0
M  V30 3281 C 299.998 0.332305 -5.2515 0
M  V30 3282 O 299.024 -0.266324 -5.68577 0
M  V30 3283 N 300.226 1.62763 -5.57215 0
M  V30 3284 H 302.991 -1.27059 -2.71433 0
M  V30 3285 H 300.552 -0.815392 -1.39868 0
M  V30 3286 H 302.544 0.947013 -3.93464 0
M  V30 3287 H 301.114 1.17456 -2.89694 0
M  V30 3288 H 300.334 -1.15291 -3.76964 0
M  V30 3289 H 301.622 -1.03478 -4.98166 0
M  V30 3290 H 301.02 2.13603 -5.23823 0
M  V30 3291 H 299.577 2.10097 -6.17011 0
M  V30 3292 N 303.011 1.40521 -0.713556 0
M  V30 3293 C 304.422 1.83853 -0.324807 0
M  V30 3294 C 304.773 1.59667 1.14021 0
M  V30 3295 O 303.898 1.07649 1.87725 0
M  V30 3296 C 304.493 3.33751 -0.582746 0
M  V30 3297 C 303.052 3.75584 -0.247727 0
M  V30 3298 C 302.199 2.63753 -0.856121 0
M  V30 3299 H 305.15 1.29817 -0.91286 0
M  V30 3300 H 305.171 3.80194 0.152682 0
M  V30 3301 H 304.683 3.51322 -1.64908 0
M  V30 3302 H 302.784 3.63608 0.813624 0
M  V30 3303 H 302.897 4.7373 -0.715307 0
M  V30 3304 H 301.261 2.53108 -0.28432 0
M  V30 3305 H 302.044 2.84137 -1.92668 0
M  V30 3306 N 304.489 0.459591 1.5075 0
M  V30 3307 C 305.738 -0.100971 2.01447 0
M  V30 3308 C 306.051 -1.41816 1.34713 0
M  V30 3309 O 307.257 -2.06299 1.76502 0
M  V30 3310 C 305.713 -0.23047 3.59161 0
M  V30 3311 C 305.321 1.0776 4.34847 0
M  V30 3312 C 307.065 -0.743608 4.17936 0
M  V30 3313 C 304.972 0.91253 5.84317 0
M  V30 3314 H 303.902 -0.0415102 0.752856 0
M  V30 3315 H 306.553 0.592742 1.73663 0
M  V30 3316 H 304.935 -0.987703 3.83485 0
M  V30 3317 H 306.109 1.8449 4.22256 0
M  V30 3318 H 304.424 1.52097 3.87628 0
M  V30 3319 H 307.021 -0.883959 5.27343 0
M  V30 3320 H 307.364 -1.73196 3.78562 0
M  V30 3321 H 307.897 -0.04408 3.97776 0
M  V30 3322 H 304.636 1.87391 6.28144 0
M  V30 3323 H 304.156 0.185422 5.99513 0
M  V30 3324 H 305.835 0.574547 6.44444 0
M  V30 3325 N 305.967 -1.56429 0.191757 0
M  V30 3326 C 307.378 -1.83912 -0.321428 0
M  V30 3327 C 307.729 -1.11231 -1.61623 0
M  V30 3328 O 306.854 -0.37202 -2.13178 0
M  V30 3329 C 307.449 -3.33624 -0.589961 0
M  V30 3330 C 306.008 -3.6153 -1.04753 0
M  V30 3331 C 305.155 -2.7714 -0.0943327 0
M  V30 3332 H 308.106 -1.53161 0.415612 0
M  V30 3333 H 308.127 -3.52213 -1.43966 0
M  V30 3334 H 307.639 -3.86495 0.352588 0
M  V30 3335 H 305.74 -3.14089 -2.00447 0
M  V30 3336 H 305.853 -4.69737 -0.942549 0
M  V30 3337 H 304.217 -2.47638 -0.595589 0
M  V30 3338 H 305 -3.32799 0.842601 0
M  V30 3339 N 307.445 0.0818655 -1.57387 0
M  V30 3340 C 308.861 0.436412 -1.53517 0
M  V30 3341 C 309.061 1.79758 -0.910459 0
M  V30 3342 O 308.117 2.47324 -0.508636 0
M  V30 3343 C 309.43 0.386734 -2.98203 0
M  V30 3344 C 310.978 0.467644 -3.09487 0
M  V30 3345 C 311.453 0.447978 -4.55804 0
M  V30 3346 N 312.944 0.508348 -4.60402 0
M  V30 3347 C 313.679 0.515184 -5.71081 0
M  V30 3348 N 313.175 0.477435 -6.91153 0
M  V30 3349 N 314.968 0.560988 -5.59294 0
M  V30 3350 H 307.119 -0.809546 -1.96367 0
M  V30 3351 H 309.382 -0.302733 -0.898363 0
M  V30 3352 H 309.088 -0.546539 -3.47427 0
M  V30 3353 H 308.962 1.20075 -3.57578 0
M  V30 3354 H 311.349 1.39134 -2.60242 0
M  V30 3355 H 311.43 -0.374753 -2.5304 0
M  V30 3356 H 311.074 -0.471826 -5.05704 0
M  V30 3357 H 311.004 1.30777 -5.10103 0
M  V30 3358 H 313.495 0.54218 -3.7399 0
M  V30 3359 H 313.808 0.486299 -7.71268 0
M  V30 3360 H 312.153 0.444278 -6.93579 0
M  V30 3361 H 315.344 0.5881 -4.64391 0
M  V30 3362 H 315.517 0.562846 -6.45551 0
M  V30 3363 N 308.923 1.53595 0.353017 0
M  V30 3364 C 310.169 1.70638 1.09593 0
M  V30 3365 C 310.502 0.463286 1.88593 0
M  V30 3366 O 309.777 -0.539597 1.86865 0
M  V30 3367 C 310.06 2.96406 2.04489 0
M  V30 3368 C 309.913 4.30901 1.29014 0
M  V30 3369 C 311.232 3.17812 3.0444 0
M  V30 3370 H 308.351 0.620913 0.397034 0
M  V30 3371 H 310.993 1.86254 0.375446 0
M  V30 3372 H 309.143 2.83223 2.65927 0
M  V30 3373 H 310.815 4.55917 0.702638 0
M  V30 3374 H 309.058 4.29741 0.592071 0
M  V30 3375 H 309.729 5.1506 1.98537 0
M  V30 3376 H 312.205 3.30263 2.53112 0
M  V30 3377 H 311.081 4.07223 3.6805 0
M  V30 3378 H 311.342 2.33669 3.75301 0
M  V30 3379 N 310.401 -0.613514 1.45168 0
M  V30 3380 C 311.311 -1.75296 1.55912 0
M  V30 3381 C 312.327 -1.68244 0.443856 0
M  V30 3382 O 313.503 -1.88706 0.70371 0
M  V30 3383 C 310.568 -3.1174 1.5172 0
M  V30 3384 C 309.629 -3.30291 2.74238 0
M  V30 3385 C 308.862 -4.60226 2.70236 0
M  V30 3386 O 309.085 -5.42168 1.77229 0
M  V30 3387 O 308.019 -4.81361 3.61352 0
M  V30 3388 H 311.845 -1.69183 2.52212 0
M  V30 3389 H 309.43 -0.776886 1.27612 0
M  V30 3390 H 311.312 -3.93044 1.51968 0
M  V30 3391 H 309.987 -3.18357 0.585697 0
M  V30 3392 H 308.894 -2.48598 2.79553 0
M  V30 3393 H 310.227 -3.28547 3.66494 0
M  V30 3394 N 311.879 -1.3236 -0.855495 0
M  V30 3395 C 313.109 -1.25688 -1.6397 0
M  V30 3396 C 313.517 0.177592 -1.88365 0
M  V30 3397 O 312.86 1.12485 -1.45234 0
M  V30 3398 C 312.922 -1.94602 -3.02275 0
M  V30 3399 C 312.586 -3.43937 -3.00926 0
M  V30 3400 C 313.583 -4.39435 -2.77835 0
M  V30 3401 C 311.268 -3.85858 -3.21588 0
M  V30 3402 C 313.262 -5.74829 -2.75409 0
M  V30 3403 C 310.949 -5.21361 -3.18789 0
M  V30 3404 C 311.947 -6.15658 -2.95727 0
M  V30 3405 O 311.635 -7.48681 -2.928 0
M  V30 3406 H 311.367 -0.434972 -0.51747 0
M  V30 3407 H 313.921 -1.75023 -1.075 0
M  V30 3408 H 312.151 -1.39836 -3.60531 0
M  V30 3409 H 313.84 -1.81651 -3.62985 0
M  V30 3410 H 314.606 -4.08374 -2.6164 0
M  V30 3411 H 310.485 -3.12883 -3.38564 0
M  V30 3412 H 314.029 -6.48404 -2.57328 0
M  V30 3413 H 309.926 -5.52052 -3.34528 0
M  V30 3414 H 310.694 -7.5803 -3.0876 0
M  V30 3415 N 313.357 1.07166 -1.15556 0
M  V30 3416 C 314.585 1.83514 -0.955519 0
M  V30 3417 C 315 1.82163 0.49621 0
M  V30 3418 O 314.357 1.23441 1.34419 0
M  V30 3419 C 314.408 3.30515 -1.46432 0
M  V30 3420 O 314.129 3.31937 -2.85918 0
M  V30 3421 C 315.63 4.23625 -1.30603 0
M  V30 3422 H 312.85 0.578926 -0.339244 0
M  V30 3423 H 315.394 1.35265 -1.53374 0
M  V30 3424 H 313.549 3.76106 -0.928584 0
M  V30 3425 H 313.963 4.23794 -3.09029 0
M  V30 3426 H 315.437 5.24831 -1.71047 0
M  V30 3427 H 315.914 4.38485 -0.250441 0
M  V30 3428 H 316.52 3.83871 -1.83094 0
M  V30 3429 N 314.835 0.952656 1.25548 0
M  V30 3430 C 315.745 0.47782 2.29682 0
M  V30 3431 C 316.761 -0.453859 1.67977 0
M  V30 3432 O 317.937 -0.330587 1.98668 0
M  V30 3433 C 315.002 -0.238655 3.45878 0
M  V30 3434 C 314.063 0.730994 4.23031 0
M  V30 3435 C 313.296 0.0486165 5.33678 0
M  V30 3436 O 313.519 -1.16612 5.58353 0
M  V30 3437 O 312.453 0.733152 5.97418 0
M  V30 3438 H 316.279 1.34312 2.72386 0
M  V30 3439 H 313.864 0.719026 1.30959 0
M  V30 3440 H 315.746 -0.641774 4.16484 0
M  V30 3441 H 314.421 -1.07916 3.05181 0
M  V30 3442 H 313.328 1.18428 3.5486 0
M  V30 3443 H 314.661 1.53946 4.67506 0
M  V30 3444 N 316.313 -1.40141 0.720998 0
M  V30 3445 C 317.223 -2.34486 0.0731031 0
M  V30 3446 C 318.239 -1.57587 -0.737723 0
M  V30 3447 O 319.415 -1.89949 -0.669429 0
M  V30 3448 C 316.48 -3.36528 -0.833656 0
M  V30 3449 C 315.541 -4.29298 -0.0121673 0
M  V30 3450 C 314.774 -5.26466 -0.875742 0
M  V30 3451 O 314.997 -5.29745 -2.11485 0
M  V30 3452 O 313.931 -6.01092 -0.31185 0
M  V30 3453 H 317.757 -2.9152 0.851444 0
M  V30 3454 H 315.342 -1.41427 0.481527 0
M  V30 3455 H 317.224 -3.99093 -1.35289 0
M  V30 3456 H 315.899 -2.81899 -1.59105 0
M  V30 3457 H 314.806 -3.70001 0.552262 0
M  V30 3458 H 316.139 -4.87094 0.707129 0
M  V30 3459 N 317.792 -0.46758 -1.50504 0
M  V30 3460 C 318.702 0.33382 -2.32213 0
M  V30 3461 C 319.718 0.999323 -1.42441 0
M  V30 3462 O 320.894 0.988068 -1.75497 0
M  V30 3463 C 317.959 1.4035 -3.17022 0
M  V30 3464 C 317.02 0.754961 -4.2261 0
M  V30 3465 C 316.253 1.77367 -5.03365 0
M  V30 3466 O 316.476 2.99976 -4.8515 0
M  V30 3467 O 315.41 1.34744 -5.86624 0
M  V30 3468 H 319.236 -0.334067 -3.01857 0
M  V30 3469 H 316.821 -0.229496 -1.47627 0
M  V30 3470 H 318.703 2.02318 -3.69656 0
M  V30 3471 H 317.378 2.05492 -2.5011 0
M  V30 3472 H 316.285 0.0964244 -3.73976 0
M  V30 3473 H 317.618 0.146545 -4.91982 0
M  V30 3474 N 319.27 1.56325 -0.20005 0
M  V30 3475 C 320.498 2.02105 0.442874 0
M  V30 3476 C 320.913 1.08014 1.5485 0
M  V30 3477 O 320.27 0.0858797 1.82298 0
M  V30 3478 C 320.321 3.47549 0.994583 0
M  V30 3479 O 320.042 4.38049 -0.0669322 0
M  V30 3480 C 321.543 4.0887 1.7129 0
M  V30 3481 H 318.763 0.661807 0.110691 0
M  V30 3482 H 321.307 2.02134 -0.310207 0
M  V30 3483 H 319.462 3.48204 1.69803 0
M  V30 3484 H 319.876 5.23368 0.344462 0
M  V30 3485 H 321.35 5.12475 2.05118 0
M  V30 3486 H 321.827 3.52615 2.61838 0
M  V30 3487 H 322.433 4.12002 1.05518 0
M  V30 3488 N 320.748 -0.0735177 1.57428 0
M  V30 3489 C 321.695 -1.08756 2.0357 0
M  V30 3490 C 322.665 -1.38559 0.916 0
M  V30 3491 O 323.85 -1.49656 1.18354 0
M  V30 3492 C 320.99 -2.39657 2.48311 0
M  V30 3493 C 320.103 -2.16399 3.73892 0
M  V30 3494 C 319.238 -3.40852 4.07423 0
M  V30 3495 C 318.277 -3.1295 5.2605 0
M  V30 3496 N 317.414 -4.29729 5.55228 0
M  V30 3497 H 322.254 -0.687104 2.8997 0
M  V30 3498 H 319.791 -0.327709 1.43403 0
M  V30 3499 H 321.749 -3.16081 2.72303 0
M  V30 3500 H 320.379 -2.77508 1.64891 0
M  V30 3501 H 319.431 -1.30676 3.57251 0
M  V30 3502 H 320.743 -1.91788 4.60455 0
M  V30 3503 H 319.897 -4.25671 4.32306 0
M  V30 3504 H 318.636 -3.68537 3.19425 0
M  V30 3505 H 317.641 -2.26526 5.00965 0
M  V30 3506 H 318.866 -2.86589 6.15665 0
M  V30 3507 H 316.812 -4.57448 4.70188 0
M  V30 3508 H 316.729 -4.08385 6.36206 0
M  V30 3509 H 317.997 -5.1555 5.84661 0
M  V30 3510 N 322.226 -1.5378 -0.344866 0
M  V30 3511 C 323.454 -1.74899 -1.10534 0
M  V30 3512 C 323.869 -0.487534 -1.82397 0
M  V30 3513 O 323.226 0.540741 -1.74305 0
M  V30 3514 C 323.277 -2.92822 -2.11984 0
M  V30 3515 O 322.998 -4.14089 -1.43044 0
M  V30 3516 C 324.499 -3.25982 -3.00417 0
M  V30 3517 H 321.719 -0.584426 -0.329678 0
M  V30 3518 H 324.263 -2.006 -0.397474 0
M  V30 3519 H 322.418 -2.69457 -2.78338 0
M  V30 3520 H 322.832 -4.80272 -2.10805 0
M  V30 3521 H 324.306 -4.11848 -3.67539 0
M  V30 3522 H 324.783 -2.42228 -3.66363 0
M  V30 3523 H 325.389 -3.51349 -2.39654 0
M  V30 3524 N 323.704 0.605807 -1.45491 0
M  V30 3525 C 324.95 1.36481 -1.50813 0
M  V30 3526 C 325.305 1.91826 -0.148469 0
M  V30 3527 O 324.598 1.72211 0.839869 0
M  V30 3528 C 324.792 2.53012 -2.52428 0
M  V30 3529 C 324.621 2.09078 -3.98141 0
M  V30 3530 C 323.391 1.95167 -4.66088 0
M  V30 3531 C 325.589 1.66438 -4.86624 0
M  V30 3532 N 323.571 1.45062 -5.96515 0
M  V30 3533 C 324.942 1.27761 -6.06694 0
M  V30 3534 C 326.997 1.54046 -4.7347 0
M  V30 3535 C 325.7 0.779286 -7.15066 0
M  V30 3536 C 327.726 1.05618 -5.81892 0
M  V30 3537 C 327.088 0.67906 -7.01119 0
M  V30 3538 H 323.187 0.493267 -0.606805 0
M  V30 3539 H 325.771 0.692347 -1.81974 0
M  V30 3540 H 323.942 3.17851 -2.23215 0
M  V30 3541 H 325.674 3.19897 -2.47887 0
M  V30 3542 H 322.429 2.16407 -4.21266 0
M  V30 3543 H 322.853 1.22237 -6.65873 0
M  V30 3544 H 327.495 1.81827 -3.81705 0
M  V30 3545 H 325.213 0.489026 -8.06619 0
M  V30 3546 H 328.799 0.964529 -5.73749 0
M  V30 3547 H 327.679 0.310091 -7.83587 0
M  V30 3548 N 325.182 1.32811 0.848464 0
M  V30 3549 C 326.43 1.23479 1.59991 0
M  V30 3550 C 326.751 -0.201853 1.93952 0
M  V30 3551 O 326.021 -1.12818 1.60153 0
M  V30 3552 H 324.601 0.454034 0.593179 0
M  V30 3553 H 327.263 1.66412 1.01455 0
M  V30 3554 H 326.359 1.82178 2.53412 0
M  V30 3555 N 326.66 -1.06551 1.16123 0
M  V30 3556 C 327.906 -1.79567 0.94252 0
M  V30 3557 C 328.239 -1.86869 -0.528547 0
M  V30 3558 O 327.514 -1.35838 -1.39206 0
M  V30 3559 C 327.797 -3.24195 1.56747 0
M  V30 3560 C 327.65 -3.24989 3.10969 0
M  V30 3561 C 328.969 -4.21678 1.25998 0
M  V30 3562 H 326.088 -0.651883 0.343828 0
M  V30 3563 H 328.73 -1.2463 1.43413 0
M  V30 3564 H 326.88 -3.71107 1.14942 0
M  V30 3565 H 328.552 -2.86258 3.61737 0
M  V30 3566 H 326.795 -2.63716 3.44436 0
M  V30 3567 H 327.466 -4.27005 3.49815 0
M  V30 3568 H 329.942 -3.83196 1.62174 0
M  V30 3569 H 328.818 -5.21146 1.7233 0
M  V30 3570 H 329.079 -4.4174 0.178367 0
M  V30 3571 N 328.138 -0.959301 -1.25041 0
M  V30 3572 C 329.384 -0.617525 -1.9317 0
M  V30 3573 C 329.717 0.843981 -1.74902 0
M  V30 3574 O 328.992 1.60615 -1.09696 0
M  V30 3575 C 329.275 -0.982736 -3.46431 0
M  V30 3576 C 329.128 -2.50032 -3.73904 0
M  V30 3577 C 330.447 -0.511176 -4.37121 0
M  V30 3578 H 327.566 -0.22582 -0.701552 0
M  V30 3579 H 330.208 -1.19679 -1.4757 0
M  V30 3580 H 328.358 -0.489806 -3.854 0
M  V30 3581 H 330.03 -3.06737 -3.44544 0
M  V30 3582 H 328.273 -2.93598 -3.19348 0
M  V30 3583 H 328.944 -2.70635 -4.81103 0
M  V30 3584 H 331.42 -0.934075 -4.0548 0
M  V30 3585 H 330.296 -0.795361 -5.43107 0
M  V30 3586 H 330.557 0.588834 -4.38161 0
M  V30 3587 N 329.616 1.39756 -0.72842 0
M  V30 3588 C 330.863 2.00645 -0.273487 0
M  V30 3589 C 331.191 1.57786 1.13727 0
M  V30 3590 O 330.446 0.794886 1.7883 0
M  V30 3591 C 330.745 3.56002 -0.315776 0
M  V30 3592 C 330.411 4.18489 -1.67863 0
M  V30 3593 C 329.073 4.3527 -2.05166 0
M  V30 3594 C 331.425 4.53219 -2.57375 0
M  V30 3595 C 328.753 4.84069 -3.31503 0
M  V30 3596 C 331.105 5.03423 -3.83077 0
M  V30 3597 C 329.769 5.18413 -4.20481 0
M  V30 3598 H 329.039 0.734211 -0.100076 0
M  V30 3599 H 331.686 1.6718 -0.933972 0
M  V30 3600 H 329.991 3.89452 0.428285 0
M  V30 3601 H 331.688 4.00963 0.0542575 0
M  V30 3602 H 328.278 4.05824 -1.37858 0
M  V30 3603 H 332.462 4.39878 -2.29827 0
M  V30 3604 H 327.718 4.93859 -3.60435 0
M  V30 3605 H 331.892 5.2927 -4.52599 0
M  V30 3606 H 329.519 5.55987 -5.18443 0
M  V30 3607 N 331.094 0.475555 1.50254 0
M  V30 3608 C 332.51 0.12997 1.5907 0
M  V30 3609 C 332.71 -1.36385 1.48328 0
M  V30 3610 O 331.766 -2.13754 1.34407 0
M  V30 3611 C 333.079 0.684139 2.92814 0
M  V30 3612 C 334.627 0.647965 3.0622 0
M  V30 3613 C 335.102 1.17975 4.42545 0
M  V30 3614 N 336.593 1.13936 4.48969 0
M  V30 3615 C 337.328 1.52129 5.52851 0
M  V30 3616 N 336.824 1.97793 6.63965 0
M  V30 3617 N 338.617 1.43704 5.4342 0
M  V30 3618 H 330.768 1.44706 1.55479 0
M  V30 3619 H 333.031 0.598691 0.735033 0
M  V30 3620 H 332.737 1.73079 3.06164 0
M  V30 3621 H 332.611 0.130204 3.76975 0
M  V30 3622 H 334.998 -0.38979 2.92514 0
M  V30 3623 H 335.079 1.23876 2.23805 0
M  V30 3624 H 334.723 2.21616 4.57 0
M  V30 3625 H 334.653 0.565138 5.23559 0
M  V30 3626 H 337.144 0.804488 3.69238 0
M  V30 3627 H 337.457 2.25072 7.39299 0
M  V30 3628 H 335.802 2.01749 6.65073 0
M  V30 3629 H 338.993 1.07867 4.55502 0
M  V30 3630 H 339.166 1.73794 6.24259 0
M  V30 3631 N 332.573 -1.56217 0.208337 0
M  V30 3632 C 333.483 -2.23316 -0.718836 0
M  V30 3633 C 334.499 -1.23648 -1.22422 0
M  V30 3634 O 335.675 -1.56423 -1.26861 0
M  V30 3635 C 332.74 -2.88968 -1.91568 0
M  V30 3636 C 331.801 -4.03943 -1.45357 0
M  V30 3637 C 331.034 -4.66455 -2.59337 0
M  V30 3638 O 331.257 -4.27919 -3.77149 0
M  V30 3639 O 330.191 -5.55686 -2.31293 0
M  V30 3640 H 334.017 -3.03182 -0.177315 0
M  V30 3641 H 331.602 -1.49384 -0.0215402 0
M  V30 3642 H 333.484 -3.30455 -2.61491 0
M  V30 3643 H 332.159 -2.12071 -2.44556 0
M  V30 3644 H 331.066 -3.67052 -0.722746 0
M  V30 3645 H 332.399 -4.82543 -0.970219 0
M  V30 3646 N 334.051 0.0651679 -1.57465 0
M  V30 3647 C 334.981 1.07693 -2.07182 0
M  V30 3648 C 335.962 1.39962 -0.966673 0
M  V30 3649 O 337.147 1.49475 -1.2398 0
M  V30 3650 C 334.277 2.3885 -2.52127 0
M  V30 3651 C 333.231 2.20917 -3.66579 0
M  V30 3652 C 332.557 3.57515 -3.97601 0
M  V30 3653 C 333.857 1.62493 -4.9638 0
M  V30 3654 H 335.551 0.663199 -2.91962 0
M  V30 3655 H 333.097 0.317569 -1.40455 0
M  V30 3656 H 335.05 3.09928 -2.85522 0
M  V30 3657 H 333.774 2.82215 -1.64384 0
M  V30 3658 H 332.433 1.52279 -3.33477 0
M  V30 3659 H 332.081 3.98463 -3.06979 0
M  V30 3660 H 331.781 3.46353 -4.74672 0
M  V30 3661 H 333.305 4.30013 -4.33499 0
M  V30 3662 H 334.719 2.23445 -5.27963 0
M  V30 3663 H 333.116 1.62009 -5.77818 0
M  V30 3664 H 334.186 0.587041 -4.81333 0
M  V30 3665 N 335.529 1.53961 0.336706 0
M  V30 3666 C 336.754 1.75797 1.10046 0
M  V30 3667 C 337.179 0.498985 1.81361 0
M  V30 3668 O 336.537 -0.548769 1.72795 0
M  V30 3669 C 336.585 2.94257 2.08436 0
M  V30 3670 O 335.689 2.64883 3.16087 0
M  V30 3671 H 335.03 0.582936 0.317934 0
M  V30 3672 H 337.56 2.00945 0.38501 0
M  V30 3673 H 337.57 3.21237 2.51537 0
M  V30 3674 H 336.245 3.85564 1.55927 0
M  V30 3675 H 334.822 2.48812 2.77753 0
M  V30 3676 N 337.007 -0.598083 1.45811 0
M  V30 3677 C 337.954 -1.7082 1.55207 0
M  V30 3678 C 338.924 -1.61278 0.39732 0
M  V30 3679 O 340.109 -1.80717 0.612038 0
M  V30 3680 C 337.249 -3.09144 1.53376 0
M  V30 3681 C 336.362 -3.29423 2.79472 0
M  V30 3682 C 335.497 -4.57907 2.69248 0
M  V30 3683 C 334.536 -4.71476 3.90354 0
M  V30 3684 N 333.673 -5.9127 3.78608 0
M  V30 3685 H 338.513 -1.62125 2.50039 0
M  V30 3686 H 336.05 -0.790389 1.24062 0
M  V30 3687 H 338.008 -3.89186 1.50301 0
M  V30 3688 H 336.638 -3.16773 0.620876 0
M  V30 3689 H 335.69 -2.43091 2.92594 0
M  V30 3690 H 337.002 -3.3532 3.69272 0
M  V30 3691 H 336.156 -5.46157 2.64192 0
M  V30 3692 H 334.895 -4.54423 1.77063 0
M  V30 3693 H 333.9 -3.81648 3.95759 0
M  V30 3694 H 335.125 -4.76751 4.83617 0
M  V30 3695 H 333.071 -5.88813 2.89199 0
M  V30 3696 H 332.988 -5.98369 4.6205 0
M  V30 3697 H 334.256 -6.81992 3.77501 0
M  V30 3698 N 338.485 -1.33259 -0.841409 0
M  V30 3699 C 339.415 -1.25926 -1.96634 0
M  V30 3700 C 340.396 -0.140349 -1.6952 0
M  V30 3701 O 341.581 -0.329707 -1.91381 0
M  V30 3702 C 338.711 -0.99512 -3.32738 0
M  V30 3703 C 337.665 -2.0767 -3.74242 0
M  V30 3704 C 336.991 -1.66474 -5.08125 0
M  V30 3705 C 338.291 -3.49318 -3.88297 0
M  V30 3706 H 339.985 -2.20046 -2.03027 0
M  V30 3707 H 337.531 -1.05931 -0.975425 0
M  V30 3708 H 339.484 -0.930323 -4.11002 0
M  V30 3709 H 338.208 -0.0183004 -3.26595 0
M  V30 3710 H 336.867 -2.13187 -2.98239 0
M  V30 3711 H 336.515 -0.675012 -4.9845 0
M  V30 3712 H 336.215 -2.3885 -5.36865 0
M  V30 3713 H 337.739 -1.61455 -5.88867 0
M  V30 3714 H 339.153 -3.46316 -4.56879 0
M  V30 3715 H 337.55 -4.20158 -4.28471 0
M  V30 3716 H 338.62 -3.8801 -2.9082 0
M  V30 3717 N 339.963 1.05934 -1.16686 0
M  V30 3718 C 341.193 1.82226 -0.973515 0
M  V30 3719 C 341.601 1.8297 0.481532 0
M  V30 3720 O 340.944 1.25009 1.34604 0
M  V30 3721 C 341.006 3.29897 -1.42858 0
M  V30 3722 C 340.67 3.52849 -2.90425 0
M  V30 3723 C 341.667 3.45595 -3.88407 0
M  V30 3724 C 339.352 3.80053 -3.28428 0
M  V30 3725 C 341.346 3.65217 -5.22394 0
M  V30 3726 C 339.033 3.99325 -4.62583 0
M  V30 3727 C 340.031 3.91905 -5.59374 0
M  V30 3728 O 339.719 4.10647 -6.91104 0
M  V30 3729 H 339.451 0.581314 -0.345036 0
M  V30 3730 H 342.005 1.3453 -1.55212 0
M  V30 3731 H 340.235 3.78472 -0.793477 0
M  V30 3732 H 341.924 3.87692 -1.20207 0
M  V30 3733 H 342.69 3.24564 -3.60393 0
M  V30 3734 H 338.569 3.84936 -2.53664 0
M  V30 3735 H 342.113 3.59341 -5.9793 0
M  V30 3736 H 338.01 4.19846 -4.90306 0
M  V30 3737 H 338.778 4.27915 -6.97733 0
M  V30 3738 N 341.441 0.965919 1.2453 0
M  V30 3739 C 342.852 0.665929 1.7442 0
M  V30 3740 C 343.203 -0.818407 1.78316 0
M  V30 3741 O 342.328 -1.64037 1.41141 0
M  V30 3742 C 342.923 1.20211 3.16757 0
M  V30 3743 C 341.482 0.952059 3.6416 0
M  V30 3744 C 340.629 1.33848 2.42858 0
M  V30 3745 H 343.58 1.14144 1.10258 0
M  V30 3746 H 343.601 0.567544 3.76244 0
M  V30 3747 H 343.113 2.28244 3.13889 0
M  V30 3748 H 341.214 -0.112821 3.72429 0
M  V30 3749 H 341.327 1.59645 4.51719 0
M  V30 3750 H 339.691 0.756864 2.43195 0
M  V30 3751 H 340.474 2.42827 2.42673 0
M  V30 3752 N 342.919 -1.39368 0.735821 0
M  V30 3753 C 344.147 -2.04795 0.294393 0
M  V30 3754 C 344.562 -1.55478 -1.07107 0
M  V30 3755 O 343.919 -0.720038 -1.67695 0
M  V30 3756 C 343.97 -3.6035 0.288071 0
M  V30 3757 O 343.691 -4.07852 1.59963 0
M  V30 3758 C 345.192 -4.42976 -0.169422 0
M  V30 3759 H 342.412 -0.658571 0.128551 0
M  V30 3760 H 344.956 -1.78399 0.999701 0
M  V30 3761 H 343.111 -3.85645 -0.368355 0
M  V30 3762 H 343.525 -5.02181 1.51375 0
M  V30 3763 H 344.999 -5.51864 -0.122687 0
M  V30 3764 H 345.476 -4.22068 -1.21472 0
M  V30 3765 H 346.082 -4.22832 0.457469 0
M  V30 3766 N 344.397 -0.483516 -1.5 0
M  V30 3767 C 345.347 0.32306 -2.257 0
M  V30 3768 C 346.331 0.950755 -1.29805 0
M  V30 3769 O 347.523 0.861247 -1.54634 0
M  V30 3770 C 344.652 1.39724 -3.13579 0
M  V30 3771 C 343.738 0.776663 -4.16928 0
M  V30 3772 N 344.129 -0.1104 -5.0568 0
M  V30 3773 C 342.427 1.03922 -4.33724 0
M  V30 3774 C 343.128 -0.46387 -5.79848 0
M  V30 3775 N 342.104 0.163987 -5.43353 0
M  V30 3776 H 345.906 -0.360086 -2.91686 0
M  V30 3777 H 343.42 -0.298456 -1.59634 0
M  V30 3778 H 345.417 1.98837 -3.66428 0
M  V30 3779 H 344.077 2.08225 -2.49143 0
M  V30 3780 H 345.088 -0.480069 -5.1567 0
M  V30 3781 H 341.765 1.71829 -3.80501 0
M  V30 3782 H 343.155 -1.18854 -6.61304 0
M  V30 3783 N 345.875 1.56104 -0.216619 0
M  V30 3784 C 346.838 2.18819 0.681962 0
M  V30 3785 C 347.838 1.14866 1.12528 0
M  V30 3786 O 349.028 1.40128 1.03488 0
M  V30 3787 C 346.16 2.80756 1.93362 0
M  V30 3788 H 347.353 2.99595 0.135254 0
M  V30 3789 H 344.906 1.56265 0.0330003 0
M  V30 3790 H 345.641 2.03837 2.52232 0
M  V30 3791 H 345.426 3.56876 1.62426 0
M  V30 3792 H 346.916 3.28844 2.57393 0
M  V30 3793 N 347.353 -0.0568162 1.57498 0
M  V30 3794 C 348.593 -0.758273 1.89815 0
M  V30 3795 C 348.957 -1.73978 0.812132 0
M  V30 3796 O 350.158 -2.48744 1.01881 0
M  V30 3797 C 348.429 -1.43465 3.27342 0
M  V30 3798 S 349.988 -2.1691 3.81439 0
M  V30 3799 H 346.806 -0.251836 0.664906 0
M  V30 3800 H 349.408 -0.0137997 1.95495 0
M  V30 3801 H 348.112 -0.706693 4.0427 0
M  V30 3802 H 347.643 -2.21825 3.24896 0
M  V30 3803 H 349.658 -3.43658 3.5793 0
M  V30 3804 N 348.832 -1.54138 -0.328536 0
M  V30 3805 C 350.248 -1.44736 -0.672574 0
M  V30 3806 C 350.448 -0.616217 -1.91846 0
M  V30 3807 O 349.504 -0.113067 -2.52247 0
M  V30 3808 C 350.817 -2.884 -0.851217 0
M  V30 3809 C 352.365 -2.98271 -0.948877 0
M  V30 3810 C 352.84 -4.43074 -1.15973 0
M  V30 3811 N 354.331 -4.46665 -1.22658 0
M  V30 3812 C 355.066 -5.55857 -1.40751 0
M  V30 3813 N 354.562 -6.75026 -1.5592 0
M  V30 3814 N 356.355 -5.43495 -1.4342 0
M  V30 3815 H 348.506 -2.06661 0.490421 0
M  V30 3816 H 350.769 -0.934812 0.157579 0
M  V30 3817 H 350.475 -3.51699 -0.00704236 0
M  V30 3818 H 350.349 -3.34225 -1.74853 0
M  V30 3819 H 352.736 -2.35102 -1.78356 0
M  V30 3820 H 352.817 -2.55785 -0.0281435 0
M  V30 3821 H 352.461 -5.06827 -0.329915 0
M  V30 3822 H 352.391 -4.83165 -2.09426 0
M  V30 3823 H 354.882 -3.60797 -1.124 0
M  V30 3824 H 355.195 -7.54004 -1.69404 0
M  V30 3825 H 353.54 -6.77944 -1.53027 0
M  V30 3826 H 356.731 -4.49349 -1.31162 0
M  V30 3827 H 356.904 -6.28649 -1.57178 0
M  V30 3828 N 350.31 0.590341 -1.46126 0
M  V30 3829 C 351.22 1.72793 -1.58681 0
M  V30 3830 C 352.236 1.67516 -0.470566 0
M  V30 3831 O 353.412 1.87562 -0.733642 0
M  V30 3832 C 350.477 3.09287 -1.5666 0
M  V30 3833 C 349.538 3.25886 -2.79458 0
M  V30 3834 C 348.771 4.55869 -2.77524 0
M  V30 3835 O 348.994 5.3928 -1.85832 0
M  V30 3836 O 347.928 4.75552 -3.68964 0
M  V30 3837 H 351.754 1.65149 -2.54872 0
M  V30 3838 H 349.339 0.756486 -1.28832 0
M  V30 3839 H 351.221 3.90577 -1.58202 0
M  V30 3840 H 349.896 3.17385 -0.636271 0
M  V30 3841 H 348.803 2.44119 -2.83472 0
M  V30 3842 H 350.136 3.22675 -3.71674 0
M  V30 3843 N 351.788 1.33704 0.83433 0
M  V30 3844 C 353.018 1.28281 1.6195 0
M  V30 3845 C 353.426 -0.147603 1.88623 0
M  V30 3846 O 352.769 -1.1016 1.47005 0
M  V30 3847 C 352.831 1.99386 2.99141 0
M  V30 3848 C 352.495 3.48681 2.95416 0
M  V30 3849 C 353.492 4.438 2.70809 0
M  V30 3850 C 351.177 3.90925 3.15409 0
M  V30 3851 C 353.171 5.79138 2.66229 0
M  V30 3852 C 350.858 5.26366 3.10454 0
M  V30 3853 C 351.856 6.20284 2.85895 0
M  V30 3854 O 351.544 7.53245 2.80852 0
M  V30 3855 H 351.276 0.44315 0.510484 0
M  V30 3856 H 353.83 1.76711 1.04702 0
M  V30 3857 H 352.06 1.45554 3.58261 0
M  V30 3858 H 353.749 1.87403 3.60049 0
M  V30 3859 H 354.515 4.12485 2.5511 0
M  V30 3860 H 350.394 3.18229 3.33543 0
M  V30 3861 H 353.938 6.52416 2.4698 0
M  V30 3862 H 349.835 5.57304 3.25703 0
M  V30 3863 H 350.603 7.62846 2.96661 0
M  V30 3864 N 353.266 -1.05314 1.17247 0
M  V30 3865 C 354.196 -2.1498 0.911362 0
M  V30 3866 C 355.177 -1.69471 -0.146169 0
M  V30 3867 O 356.362 -1.942 0.003812 0
M  V30 3868 C 353.492 -3.4472 0.422528 0
M  V30 3869 C 352.446 -4.03789 1.4191 0
M  V30 3870 C 351.772 -5.28858 0.788274 0
M  V30 3871 C 353.072 -4.41418 2.7919 0
M  V30 3872 H 354.766 -2.3708 1.82848 0
M  V30 3873 H 352.312 -1.13938 0.880569 0
M  V30 3874 H 354.265 -4.20787 0.227289 0
M  V30 3875 H 352.989 -3.22269 -0.530123 0
M  V30 3876 H 351.648 -3.2979 1.60106 0
M  V30 3877 H 351.296 -5.02709 -0.171173 0
M  V30 3878 H 350.996 -5.69338 1.45353 0
M  V30 3879 H 352.52 -6.07612 0.603282 0
M  V30 3880 H 353.934 -5.08524 2.64719 0
M  V30 3881 H 352.331 -4.92913 3.42282 0
M  V30 3882 H 353.401 -3.51819 3.33693 0
M  V30 3883 N 354.744 -0.972509 -1.24016 0
M  V30 3884 C 355.691 -0.505969 -2.25186 0
M  V30 3885 C 356.661 0.451009 -1.5986 0
M  V30 3886 O 357.846 0.360307 -1.87367 0
M  V30 3887 C 354.986 0.193089 -3.44559 0
M  V30 3888 C 354.099 -0.803222 -4.24467 0
M  V30 3889 C 353.234 -0.0797793 -5.3114 0
M  V30 3890 C 352.273 -1.06583 -6.02749 0
M  V30 3891 N 351.41 -0.372074 -7.01113 0
M  V30 3892 H 356.25 -1.37351 -2.64459 0
M  V30 3893 H 353.787 -0.688419 -1.29997 0
M  V30 3894 H 355.745 0.615125 -4.1264 0
M  V30 3895 H 354.375 1.02455 -3.06109 0
M  V30 3896 H 353.427 -1.34368 -3.55878 0
M  V30 3897 H 354.739 -1.55494 -4.73944 0
M  V30 3898 H 353.893 0.400015 -6.0538 0
M  V30 3899 H 352.632 0.704597 -4.82583 0
M  V30 3900 H 351.637 -1.55645 -5.27309 0
M  V30 3901 H 352.862 -1.85074 -6.53395 0
M  V30 3902 H 350.808 0.393238 -6.5482 0
M  V30 3903 H 350.725 -1.06258 -7.48495 0
M  V30 3904 H 351.993 0.0855932 -7.79453 0
M  V30 3905 N 356.222 1.38976 -0.743202 0
M  V30 3906 C 357.17 2.32394 -0.0978389 0
M  V30 3907 C 358.164 1.53486 0.716824 0
M  V30 3908 O 359.37 1.69092 0.617088 0
M  V30 3909 H 355.745 0.75189 -0.0128402 0
M  V30 3910 H 357.716 2.84441 -0.901981 0
M  V30 3911 C 356.465 3.38629 0.789036 0
M  V30 3912 H 355.788 3.99432 0.171559 0
M  V30 3913 H 357.228 4.06426 1.20807 0
M  V30 3914 C 355.687 2.76347 1.92702 0
M  V30 3915 O 356.217 2.64836 3.02034 0
M  V30 3916 N 354.423 2.34311 1.71891 0
M  V30 3917 H 353.97 2.43873 0.829675 0
M  V30 3918 H 353.928 1.9298 2.48205 0
M  V30 3919 N 357.7 0.491464 1.49741 0
M  V30 3920 C 358.947 -0.0564256 2.02421 0
M  V30 3921 C 359.275 -1.37872 1.37192 0
M  V30 3922 O 358.53 -1.89375 0.493508 0
M  V30 3923 C 358.829 -0.267329 3.56399 0
M  V30 3924 C 358.495 0.975775 4.40215 0
M  V30 3925 C 357.157 1.31655 4.62839 0
M  V30 3926 C 359.509 1.80251 4.89039 0
M  V30 3927 C 356.837 2.48375 5.31532 0
M  V30 3928 C 359.189 2.96116 5.59015 0
M  V30 3929 C 357.853 3.30585 5.79888 0
M  V30 3930 H 357.123 -0.0206476 0.740712 0
M  V30 3931 H 359.77 0.649686 1.80143 0
M  V30 3932 H 358.075 -1.05588 3.77304 0
M  V30 3933 H 359.772 -0.705549 3.94744 0
M  V30 3934 H 356.362 0.700315 4.2284 0
M  V30 3935 H 360.546 1.55239 4.71396 0
M  V30 3936 H 355.802 2.7533 5.45897 0
M  V30 3937 H 359.976 3.60509 5.95824 0
M  V30 3938 H 357.603 4.21132 6.32892 0
M  V30 3939 N 359.178 -1.55987 0.224894 0
M  V30 3940 C 360.589 -1.84553 -0.282345 0
M  V30 3941 C 360.94 -1.14634 -1.59227 0
M  V30 3942 O 360.065 -0.417155 -2.12341 0
M  V30 3943 C 360.66 -3.348 -0.519062 0
M  V30 3944 C 359.219 -3.63671 -0.970604 0
M  V30 3945 C 358.366 -2.77277 -0.0355261 0
M  V30 3946 H 361.317 -1.52245 0.448006 0
M  V30 3947 H 361.338 -3.55187 -1.36463 0
M  V30 3948 H 360.85 -3.8566 0.43449 0
M  V30 3949 H 358.951 -3.1827 -1.9374 0
M  V30 3950 H 359.064 -4.71631 -0.842698 0
M  V30 3951 H 357.428 -2.48846 -0.542927 0
M  V30 3952 H 358.211 -3.30937 0.913003 0
M  V30 3953 N 360.656 0.0484629 -1.57525 0
M  V30 3954 C 361.586 1.0549 -2.08313 0
M  V30 3955 C 362.567 1.38929 -0.981463 0
M  V30 3956 O 363.752 1.48151 -1.25558 0
M  V30 3957 C 360.882 2.36162 -2.54646 0
M  V30 3958 C 359.836 2.17016 -3.68901 0
M  V30 3959 C 359.162 3.53278 -4.01371 0
M  V30 3960 C 360.462 1.57219 -4.98076 0
M  V30 3961 H 362.156 0.632195 -2.92649 0
M  V30 3962 H 359.702 0.302654 -1.40784 0
M  V30 3963 H 361.655 3.06882 -2.88793 0
M  V30 3964 H 360.379 2.80456 -1.67368 0
M  V30 3965 H 359.038 1.48733 -3.35073 0
M  V30 3966 H 358.686 3.95185 -3.11188 0
M  V30 3967 H 358.386 3.41299 -4.78318 0
M  V30 3968 H 359.91 4.25391 -4.38035 0
M  V30 3969 H 361.324 2.17832 -5.30304 0
M  V30 3970 H 359.721 1.55871 -5.79503 0
M  V30 3971 H 360.791 0.535956 -4.81929 0
M  V30 3972 N 362.134 1.5431 0.320358 0
M  V30 3973 C 363.064 1.86912 1.3995 0
M  V30 3974 C 364.045 0.726211 1.53819 0
M  V30 3975 O 365.23 0.980233 1.67646 0
M  V30 3976 C 362.36 2.09932 2.7667 0
M  V30 3977 C 361.314 3.25776 2.77586 0
M  V30 3978 C 360.64 3.34173 4.17412 0
M  V30 3979 C 361.94 4.6335 2.41048 0
M  V30 3980 H 363.634 2.77292 1.12914 0
M  V30 3981 H 361.18 1.33421 0.541738 0
M  V30 3982 H 363.133 2.31324 3.52232 0
M  V30 3983 H 361.857 1.16304 3.0519 0
M  V30 3984 H 360.516 3.04276 2.04479 0
M  V30 3985 H 360.164 2.38098 4.43078 0
M  V30 3986 H 359.864 4.12033 4.18931 0
M  V30 3987 H 361.388 3.57803 4.94782 0
M  V30 3988 H 362.802 4.84602 3.06324 0
M  V30 3989 H 361.199 5.43782 2.53813 0
M  V30 3990 H 362.269 4.65381 1.36193 0
M  V30 3991 N 363.613 -0.582584 1.46437 0
M  V30 3992 C 364.841 -1.36682 1.55324 0
M  V30 3993 C 365.256 -1.87796 0.194409 0
M  V30 3994 O 364.613 -1.63623 -0.808318 0
M  V30 3995 C 364.664 -2.55426 2.55812 0
M  V30 3996 O 364.385 -2.0643 3.86417 0
M  V30 3997 C 365.886 -3.47976 2.74641 0
M  V30 3998 H 363.106 -0.417545 0.525259 0
M  V30 3999 H 365.65 -0.708219 1.91845 0
M  V30 4000 H 363.805 -3.17275 2.22295 0
M  V30 4001 H 364.219 -2.83762 4.41111 0
M  V30 4002 H 365.693 -4.27775 3.48874 0
M  V30 4003 H 366.17 -3.99919 1.81553 0
M  V30 4004 H 366.776 -2.91962 3.09255 0
M  V30 4005 N 365.091 -1.34144 -0.827227 0
M  V30 4006 C 366.038 -1.25364 -1.93785 0
M  V30 4007 C 367.008 -0.129774 -1.65592 0
M  V30 4008 O 368.193 -0.310024 -1.88264 0
M  V30 4009 C 365.333 -1.01064 -3.2997 0
M  V30 4010 C 364.446 -2.22185 -3.70484 0
M  V30 4011 C 363.581 -1.91203 -4.95595 0
M  V30 4012 C 362.62 -3.08491 -5.28677 0
M  V30 4013 N 361.757 -2.77421 -6.44967 0
M  V30 4014 H 366.597 -2.20347 -2.00627 0
M  V30 4015 H 364.134 -1.09558 -0.981608 0
M  V30 4016 H 366.092 -0.850139 -4.08446 0
M  V30 4017 H 364.722 -0.0975026 -3.22653 0
M  V30 4018 H 363.774 -2.4917 -2.87434 0
M  V30 4019 H 365.086 -3.0983 -3.90905 0
M  V30 4020 H 364.24 -1.71864 -5.81848 0
M  V30 4021 H 362.979 -1.00812 -4.77167 0
M  V30 4022 H 361.984 -3.28431 -4.40923 0
M  V30 4023 H 363.209 -3.99655 -5.49047 0
M  V30 4024 H 361.155 -1.89601 -6.28003 0
M  V30 4025 H 361.072 -3.58598 -6.6554 0
M  V30 4026 H 362.34 -2.61577 -7.34301 0
M  V30 4027 N 366.569 1.04691 -1.17803 0
M  V30 4028 C 367.799 1.81183 -0.992788 0
M  V30 4029 C 368.207 1.8347 0.462098 0
M  V30 4030 O 367.55 1.2643 1.33271 0
M  V30 4031 C 367.612 3.28363 -1.46349 0
M  V30 4032 C 367.276 3.49749 -2.94151 0
M  V30 4033 C 368.273 3.41456 -3.92051 0
M  V30 4034 C 365.958 3.76548 -3.32441 0
M  V30 4035 C 367.952 3.59656 -5.26238 0
M  V30 4036 C 365.639 3.94396 -4.66792 0
M  V30 4037 C 366.637 3.8595 -5.635 0
M  V30 4038 O 366.325 4.03294 -6.9542 0
M  V30 4039 H 366.057 0.577622 -0.351182 0
M  V30 4040 H 368.611 1.32876 -1.5663 0
M  V30 4041 H 366.841 3.77609 -0.833574 0
M  V30 4042 H 368.53 3.86395 -1.24313 0
M  V30 4043 H 369.296 3.20723 -3.63815 0
M  V30 4044 H 365.175 3.82224 -2.57732 0
M  V30 4045 H 368.719 3.52979 -6.01707 0
M  V30 4046 H 364.616 4.14622 -4.94731 0
M  V30 4047 H 365.384 4.2049 -7.02232 0
M  V30 4048 N 368.047 0.979072 1.23499 0
M  V30 4049 C 369.287 0.655228 1.93613 0
M  V30 4050 C 369.651 -0.796336 1.74707 0
M  V30 4051 O 370.852 -1.23094 2.38959 0
M  V30 4052 C 369.123 1.03337 3.42135 0
M  V30 4053 S 370.682 0.825793 4.3096 0
M  V30 4054 H 367.5 0.240004 0.669267 0
M  V30 4055 H 370.102 1.25843 1.49612 0
M  V30 4056 H 368.806 2.08646 3.53405 0
M  V30 4057 H 368.337 0.421397 3.91137 0
M  V30 4058 H 370.352 -0.290991 4.95346 0
M  V30 4059 N 369.525 -1.3858 0.750561 0
M  V30 4060 C 370.773 -1.99789 0.30477 0
M  V30 4061 C 371.094 -1.59874 -1.11649 0
M  V30 4062 O 370.364 -0.85417 -1.76297 0
M  V30 4063 H 368.944 -0.738902 0.109694 0
M  V30 4064 H 371.606 -1.69391 0.963983 0
M  V30 4065 H 370.702 -3.09952 0.365499 0
M  V30 4066 N 371.003 -0.499398 -1.49478 0
M  V30 4067 C 372.233 0.0424839 -2.06556 0
M  V30 4068 C 372.641 1.31514 -1.36018 0
M  V30 4069 O 371.984 1.78555 -0.431718 0
M  V30 4070 C 372.046 0.368074 -3.57611 0
M  V30 4071 C 371.71 -0.806631 -4.49825 0
M  V30 4072 C 372.707 -1.69667 -4.91436 0
M  V30 4073 C 370.392 -1.00498 -4.92144 0
M  V30 4074 C 372.386 -2.76923 -5.74101 0
M  V30 4075 C 370.073 -2.08072 -5.74586 0
M  V30 4076 C 371.071 -2.96119 -6.15469 0
M  V30 4077 O 370.759 -4.01836 -6.96264 0
M  V30 4078 H 370.491 -0.0165165 -0.675798 0
M  V30 4079 H 373.045 -0.695497 -1.93267 0
M  V30 4080 H 371.275 1.15963 -3.68903 0
M  V30 4081 H 372.964 0.848381 -3.96935 0
M  V30 4082 H 373.73 -1.55524 -4.59388 0
M  V30 4083 H 369.609 -0.329036 -4.59824 0
M  V30 4084 H 373.153 -3.45676 -6.05932 0
M  V30 4085 H 369.05 -2.22211 -6.06047 0
M  V30 4086 H 369.818 -3.9917 -7.14567 0
M  V30 4087 N 372.481 1.55866 -0.233164 0
M  V30 4088 C 373.897 1.59133 0.121988 0
M  V30 4089 C 374.097 1.25016 1.58029 0
M  V30 4090 O 373.153 0.990922 2.32243 0
M  V30 4091 C 374.466 2.99932 -0.214792 0
M  V30 4092 C 376.014 3.12601 -0.157971 0
M  V30 4093 C 376.489 4.55597 -0.46859 0
M  V30 4094 N 377.98 4.61305 -0.418585 0
M  V30 4095 C 378.715 5.69903 -0.63227 0
M  V30 4096 N 378.211 6.86819 -0.90835 0
M  V30 4097 N 380.004 5.59264 -0.563913 0
M  V30 4098 H 372.155 1.76315 -1.18434 0
M  V30 4099 H 374.418 0.820093 -0.475553 0
M  V30 4100 H 374.124 3.29588 -1.22739 0
M  V30 4101 H 373.998 3.74327 0.464691 0
M  V30 4102 H 376.385 2.82735 0.845283 0
M  V30 4103 H 376.466 2.40511 -0.871102 0
M  V30 4104 H 376.11 4.86182 -1.46934 0
M  V30 4105 H 376.04 5.25928 0.265865 0
M  V30 4106 H 378.531 3.77297 -0.213368 0
M  V30 4107 H 378.844 7.65507 -1.05919 0
M  V30 4108 H 377.189 6.88536 -0.945673 0
M  V30 4109 H 380.38 4.66802 -0.348372 0
M  V30 4110 H 380.553 6.43831 -0.733847 0
M  V30 4111 N 373.959 -0.0401083 1.57549 0
M  V30 4112 C 374.869 -1.06133 2.0922 0
M  V30 4113 C 375.885 -1.40356 1.0284 0
M  V30 4114 O 377.061 -1.49897 1.34509 0
M  V30 4115 C 374.126 -2.34658 2.55218 0
M  V30 4116 C 373.187 -2.07117 3.76033 0
M  V30 4117 C 372.42 -3.29514 4.19829 0
M  V30 4118 O 372.643 -4.39794 3.63232 0
M  V30 4119 O 371.577 -3.15863 5.12362 0
M  V30 4120 H 375.403 -0.652244 2.96613 0
M  V30 4121 H 372.988 -0.256368 1.47184 0
M  V30 4122 H 374.87 -3.10239 2.85184 0
M  V30 4123 H 373.545 -2.74883 1.70941 0
M  V30 4124 H 372.452 -1.29139 3.51104 0
M  V30 4125 H 373.785 -1.71754 4.61261 0
M  V30 4126 N 375.437 -1.54477 -0.31217 0
M  V30 4127 C 376.714 -1.63891 -1.06767 0
M  V30 4128 C 377.094 -0.480028 -2.0557 0
M  V30 4129 O 376.442 0.524487 -2.22399 0
M  V30 4130 C 376.652 -3.01402 -1.75948 0
M  V30 4131 C 378 -3.57838 -2.28554 0
M  V30 4132 O 379.024 -3.03782 -1.85998 0
M  V30 4133 O 377.883 -4.52462 -3.06497 0
M  V30 4134 H 374.977 -0.664125 -0.492816 0
M  V30 4135 H 377.523 -1.66823 -0.311149 0
M  V30 4136 H 376.295 -3.77187 -1.04144 0
M  V30 4137 H 375.918 -3.02199 -2.58383 0
M  V30 4138 N 376.915 0.57481 -1.46744 0
M  V30 4139 C 377.863 1.70435 -1.58286 0
M  V30 4140 C 378.857 1.63287 -0.450956 0
M  V30 4141 O 380.063 1.68685 -0.628121 0
M  V30 4142 H 376.438 0.56364 -0.497809 0
M  V30 4143 H 378.409 1.57833 -2.53242 0
M  V30 4144 C 377.158 3.08815 -1.59776 0
M  V30 4145 H 376.481 3.1499 -2.46214 0
M  V30 4146 H 377.921 3.87588 -1.71905 0
M  V30 4147 C 376.38 3.35301 -0.327812 0
M  V30 4148 O 376.91 3.97511 0.57861 0
M  V30 4149 N 375.116 2.89816 -0.213274 0
M  V30 4150 H 374.663 2.39371 -0.951798 0
M  V30 4151 H 374.621 3.0791 0.63553 0
M  V30 4152 N 378.394 1.34581 0.820102 0
M  V30 4153 C 379.64 1.27285 1.57881 0
M  V30 4154 C 379.973 -0.156137 1.93571 0
M  V30 4155 O 379.248 -1.10222 1.60254 0
M  V30 4156 C 379.531 2.16639 2.87645 0
M  V30 4157 C 379.384 3.68088 2.58517 0
M  V30 4158 C 380.703 2.05378 3.8924 0
M  V30 4159 H 377.822 0.463714 0.572833 0
M  V30 4160 H 380.464 1.64859 0.944539 0
M  V30 4161 H 378.614 1.84725 3.41773 0
M  V30 4162 H 380.286 4.10382 2.10676 0
M  V30 4163 H 378.529 3.89038 1.91917 0
M  V30 4164 H 379.2 4.2598 3.51063 0
M  V30 4165 H 381.676 2.33404 3.44473 0
M  V30 4166 H 380.552 2.7012 4.77835 0
M  V30 4167 H 380.813 1.0316 4.29896 0
M  V30 4168 N 379.872 -1.04064 1.18357 0
M  V30 4169 C 381.283 -1.58719 0.98312 0
M  V30 4170 C 381.634 -1.90556 -0.467193 0
M  V30 4171 O 380.759 -1.69561 -1.34454 0
M  V30 4172 C 381.354 -2.88379 1.77828 0
M  V30 4173 C 379.913 -3.3965 1.62218 0
M  V30 4174 C 379.06 -2.13235 1.77274 0
M  V30 4175 H 382.011 -0.867359 1.32901 0
M  V30 4176 H 382.032 -3.58773 1.26737 0
M  V30 4177 H 381.544 -2.65176 2.83379 0
M  V30 4178 H 379.645 -3.67866 0.592036 0
M  V30 4179 H 379.758 -4.13475 2.42023 0
M  V30 4180 H 378.122 -2.24542 1.20221 0
M  V30 4181 H 378.905 -1.92487 2.8426 0
M  V30 4182 N 381.35 -0.985608 -1.22978 0
M  V30 4183 C 382.282 -0.488154 -2.23941 0
M  V30 4184 C 383.295 0.41282 -1.57479 0
M  V30 4185 O 384.484 0.216121 -1.77187 0
M  V30 4186 C 381.584 0.312611 -3.37455 0
M  V30 4187 C 380.757 -0.582741 -4.33501 0
M  V30 4188 C 379.816 0.165064 -5.25941 0
M  V30 4189 O 378.842 -0.447077 -5.67442 0
M  V30 4190 N 380.044 1.44953 -5.62111 0
M  V30 4191 H 382.809 -1.3563 -2.67254 0
M  V30 4192 H 380.37 -0.859477 -1.37203 0
M  V30 4193 H 382.362 0.821357 -3.96277 0
M  V30 4194 H 380.932 1.0818 -2.93285 0
M  V30 4195 H 380.152 -1.27225 -3.73105 0
M  V30 4196 H 381.44 -1.19275 -4.94622 0
M  V30 4197 H 380.838 1.9683 -5.30353 0
M  V30 4198 H 379.395 1.90361 -6.23383 0
M  V30 4199 N 382.828 1.3818 -0.7579 0
M  V30 4200 C 383.758 2.33027 -0.148597 0
M  V30 4201 C 384.739 1.55085 0.69875 0
M  V30 4202 O 385.924 1.83384 0.639053 0
M  V30 4203 C 383.054 3.3928 0.742034 0
M  V30 4204 C 382.008 4.28 -0.00291946 0
M  V30 4205 C 381.334 5.25146 1.00625 0
M  V30 4206 C 382.634 5.08938 -1.17385 0
M  V30 4207 H 384.328 2.84231 -0.940909 0
M  V30 4208 H 381.874 1.36659 -0.453908 0
M  V30 4209 H 383.827 4.046 1.17799 0
M  V30 4210 H 382.551 2.86569 1.56671 0
M  V30 4211 H 381.21 3.64192 -0.419504 0
M  V30 4212 H 380.858 4.68721 1.8251 0
M  V30 4213 H 380.558 5.85361 0.512428 0
M  V30 4214 H 382.082 5.93342 1.44143 0
M  V30 4215 H 383.496 5.67474 -0.815224 0
M  V30 4216 H 381.893 5.7841 -1.59882 0
M  V30 4217 H 382.963 4.42424 -1.98468 0
M  V30 4218 N 384.306 0.507319 1.49211 0
M  V30 4219 C 385.216 -0.272136 2.33016 0
M  V30 4220 C 386.232 -0.961206 1.45041 0
M  V30 4221 O 387.408 -0.941191 1.78055 0
M  V30 4222 C 384.473 -1.31895 3.20631 0
M  V30 4223 C 383.534 -0.642648 4.24463 0
M  V30 4224 C 382.767 -1.63959 5.07891 0
M  V30 4225 O 382.99 -2.87007 4.92933 0
M  V30 4226 O 381.924 -1.19143 5.8999 0
M  V30 4227 H 385.75 0.413982 3.00865 0
M  V30 4228 H 383.335 0.268556 1.46966 0
M  V30 4229 H 385.217 -1.92446 3.7489 0
M  V30 4230 H 383.892 -1.98788 2.5547 0
M  V30 4231 H 382.799 0.00276252 3.741 0
M  V30 4232 H 384.132 -0.0160534 4.92197 0
M  V30 4233 N 385.784 -1.5574 0.241426 0
M  V30 4234 C 387.061 -1.90704 -0.434881 0
M  V30 4235 C 387.441 -1.16145 -1.76277 0
M  V30 4236 O 386.789 -0.277152 -2.26813 0
M  V30 4237 C 386.999 -3.43657 -0.608343 0
M  V30 4238 C 388.347 -4.14806 -0.906725 0
M  V30 4239 O 389.371 -3.49366 -0.694408 0
M  V30 4240 O 388.23 -5.30548 -1.31075 0
M  V30 4241 H 385.324 -0.793592 -0.23268 0
M  V30 4242 H 387.87 -1.67288 0.285086 0
M  V30 4243 H 386.642 -3.89927 0.327505 0
M  V30 4244 H 386.265 -3.72918 -1.37906 0
M  V30 4245 N 387.262 0.0317525 -1.57568 0
M  V30 4246 C 388.508 0.724175 -1.8943 0
M  V30 4247 C 388.841 1.75149 -0.838836 0
M  V30 4248 O 388.116 1.93948 0.146422 0
M  V30 4249 C 388.399 1.39615 -3.31933 0
M  V30 4250 C 388.252 0.382537 -4.4817 0
M  V30 4251 C 389.571 2.33084 -3.73309 0
M  V30 4252 H 386.69 0.261797 -0.688935 0
M  V30 4253 H 389.332 -0.013017 -1.89996 0
M  V30 4254 H 387.482 2.02451 -3.31581 0
M  V30 4255 H 389.154 -0.243689 -4.60656 0
M  V30 4256 H 387.397 -0.29844 -4.32772 0
M  V30 4257 H 388.068 0.891145 -5.44759 0
M  V30 4258 H 390.544 1.80295 -3.7501 0
M  V30 4259 H 389.42 2.77084 -4.73831 0
M  V30 4260 H 389.681 3.19643 -3.05419 0
M  V30 4261 N 388.74 1.54641 0.303973 0
M  V30 4262 C 389.965 1.78092 1.06292 0
M  V30 4263 C 390.39 0.537342 1.80262 0
M  V30 4264 O 389.748 -0.511993 1.7392 0
M  V30 4265 C 389.796 2.98612 2.02147 0
M  V30 4266 O 388.9 2.71528 3.10397 0
M  V30 4267 H 388.241 0.589548 0.305497 0
M  V30 4268 H 390.771 2.01716 0.3423 0
M  V30 4269 H 390.781 3.265 2.44667 0
M  V30 4270 H 389.456 3.88785 1.47714 0
M  V30 4271 H 388.033 2.54648 2.72413 0
M  V30 4272 N 390.218 -0.567019 1.47046 0
M  V30 4273 C 391.151 -1.69016 1.53326 0
M  V30 4274 C 392.129 -1.57949 0.386126 0
M  V30 4275 O 393.313 -1.78945 0.592529 0
M  V30 4276 C 390.44 -3.07191 1.42658 0
M  V30 4277 C 389.486 -3.36733 2.6175 0
M  V30 4278 S 390.319 -3.27069 4.24012 0
M  V30 4279 C 391.475 -4.67755 4.1588 0
M  V30 4280 H 391.708 -1.63434 2.48348 0
M  V30 4281 H 389.241 -0.747048 1.35124 0
M  V30 4282 H 391.199 -3.86897 1.37191 0
M  V30 4283 H 389.86 -3.10249 0.490369 0
M  V30 4284 H 389.053 -4.37441 2.50323 0
M  V30 4285 H 388.655 -2.64627 2.64289 0
M  V30 4286 H 390.947 -5.58491 3.83529 0
M  V30 4287 H 391.89 -4.84239 5.16641 0
M  V30 4288 H 392.298 -4.45341 3.46889 0
M  V30 4289 N 391.696 -1.35014 -0.812953 0
M  V30 4290 C 392.943 -1.27931 -1.56971 0
M  V30 4291 C 393.271 0.148034 -1.93936 0
M  V30 4292 O 392.526 1.11175 -1.61054 0
M  V30 4293 C 392.825 -2.12524 -2.87347 0
M  V30 4294 C 392.491 -3.61401 -2.6963 0
M  V30 4295 C 391.153 -4.01983 -2.64506 0
M  V30 4296 C 393.505 -4.55894 -2.52607 0
M  V30 4297 C 390.833 -5.35235 -2.40293 0
M  V30 4298 C 393.185 -5.89336 -2.29925 0
M  V30 4299 C 391.849 -6.2907 -2.23219 0
M  V30 4300 H 391.119 -0.468131 -0.574399 0
M  V30 4301 H 393.766 -1.66851 -0.939836 0
M  V30 4302 H 392.071 -1.66463 -3.54679 0
M  V30 4303 H 393.768 -2.04383 -3.45005 0
M  V30 4304 H 390.358 -3.29193 -2.74463 0
M  V30 4305 H 394.542 -4.25431 -2.55583 0
M  V30 4306 H 389.798 -5.65028 -2.33566 0
M  V30 4307 H 393.972 -6.62139 -2.15743 0
M  V30 4308 H 391.599 -7.32256 -2.04219 0
M  V30 4309 N 393.175 1.03435 -1.18907 0
M  V30 4310 C 394.105 2.13503 -0.945448 0
M  V30 4311 C 395.086 1.69682 0.119189 0
M  V30 4312 O 396.271 1.94169 -0.034707 0
M  V30 4313 C 393.401 3.44004 -0.477316 0
M  V30 4314 C 392.355 4.0148 -1.48316 0
M  V30 4315 C 391.681 5.27537 -0.872311 0
M  V30 4316 C 392.981 4.36921 -2.86177 0
M  V30 4317 H 394.675 2.34141 -1.86597 0
M  V30 4318 H 392.221 1.12523 -0.898584 0
M  V30 4319 H 394.174 4.20372 -0.294204 0
M  V30 4320 H 392.898 3.23072 0.478786 0
M  V30 4321 H 391.557 3.27201 -1.65332 0
M  V30 4322 H 391.205 5.02917 0.0911752 0
M  V30 4323 H 390.905 5.66954 -1.54393 0
M  V30 4324 H 392.429 6.06576 -0.699871 0
M  V30 4325 H 393.843 5.04248 -2.72776 0
M  V30 4326 H 392.24 4.87405 -3.50081 0
M  V30 4327 H 393.31 3.46466 -3.39248 0
M  V30 4328 N 394.653 0.992116 1.22453 0
M  V30 4329 C 395.6 0.541731 2.24352 0
M  V30 4330 C 396.57 -0.425519 1.60557 0
M  V30 4331 O 397.755 -0.330453 1.87917 0
M  V30 4332 C 394.895 -0.138248 3.44823 0
M  V30 4333 C 394.008 0.870649 4.23136 0
M  V30 4334 C 393.143 0.164269 5.30946 0
M  V30 4335 C 392.182 1.16159 6.00977 0
M  V30 4336 N 391.319 0.483568 7.00433 0
M  V30 4337 H 396.159 1.41541 2.62241 0
M  V30 4338 H 393.696 0.709013 1.28885 0
M  V30 4339 H 395.654 -0.5494 4.13567 0
M  V30 4340 H 394.284 -0.975721 3.077 0
M  V30 4341 H 393.336 1.40013 3.53696 0
M  V30 4342 H 394.648 1.63014 4.7141 0
M  V30 4343 H 393.802 -0.303653 6.0594 0
M  V30 4344 H 392.541 -0.627733 4.83643 0
M  V30 4345 H 391.546 1.64015 5.24766 0
M  V30 4346 H 392.771 1.95445 6.50368 0
M  V30 4347 H 390.717 -0.289012 6.55363 0
M  V30 4348 H 390.634 1.18152 7.4671 0
M  V30 4349 H 391.902 0.0384219 7.79491 0
M  V30 4350 N 396.131 -1.37776 0.765217 0
M  V30 4351 C 397.041 -2.34135 0.147666 0
M  V30 4352 C 398.057 -1.59854 -0.687215 0
M  V30 4353 O 399.233 -1.91983 -0.608659 0
M  V30 4354 C 396.298 -3.3901 -0.72617 0
M  V30 4355 C 395.359 -4.2912 0.124417 0
M  V30 4356 C 394.592 -5.28986 -0.707807 0
M  V30 4357 O 394.815 -5.36205 -1.94525 0
M  V30 4358 O 393.749 -6.01779 -0.12046 0
M  V30 4359 H 397.575 -2.88664 0.943758 0
M  V30 4360 H 395.16 -1.39824 0.526277 0
M  V30 4361 H 397.042 -4.03195 -1.22524 0
M  V30 4362 H 395.717 -2.86819 -1.50056 0
M  V30 4363 H 394.624 -3.68057 0.669696 0
M  V30 4364 H 395.957 -4.84598 0.861736 0
M  V30 4365 N 397.609 -0.515225 -1.4894 0
M  V30 4366 C 399.025 -0.172099 -1.58669 0
M  V30 4367 C 399.225 1.32405 -1.51892 0
M  V30 4368 O 398.281 2.10116 -1.40027 0
M  V30 4369 C 399.594 -0.761533 -2.90897 0
M  V30 4370 C 401.142 -0.728926 -3.04394 0
M  V30 4371 C 401.617 -1.29667 -4.39261 0
M  V30 4372 N 403.108 -1.25799 -4.4579 0
M  V30 4373 C 403.843 -1.66733 -5.48623 0
M  V30 4374 N 403.339 -2.15327 -6.58488 0
M  V30 4375 N 405.132 -1.58061 -5.39419 0
M  V30 4376 H 397.283 -1.48778 -1.51588 0
M  V30 4377 H 399.546 -0.617968 -0.718901 0
M  V30 4378 H 399.252 -1.81136 -3.01468 0
M  V30 4379 H 399.126 -0.230106 -3.76497 0
M  V30 4380 H 401.513 0.312098 -2.93445 0
M  V30 4381 H 401.594 -1.29766 -2.20442 0
M  V30 4382 H 401.238 -2.33655 -4.50963 0
M  V30 4383 H 401.168 -0.703752 -5.21876 0
M  V30 4384 H 403.659 -0.902102 -3.66975 0
M  V30 4385 H 403.972 -2.44594 -7.33071 0
M  V30 4386 H 402.317 -2.19311 -6.59491 0
M  V30 4387 H 405.508 -1.19906 -4.52482 0
M  V30 4388 H 405.681 -1.90284 -6.19432 0
M  V30 4389 N 399.087 1.5561 -0.249682 0
M  V30 4390 C 400.312 2.03865 0.381305 0
M  V30 4391 C 400.737 1.12769 1.50548 0
M  V30 4392 O 400.095 0.121189 1.80895 0
M  V30 4393 C 400.143 3.50101 0.863816 0
M  V30 4394 O 399.247 3.62132 1.97318 0
M  V30 4395 H 398.588 0.658827 0.0827194 0
M  V30 4396 H 401.118 2.01105 -0.376552 0
M  V30 4397 H 401.128 3.90975 1.1663 0
M  V30 4398 H 399.803 4.1588 0.0411816 0
M  V30 4399 H 398.38 3.33155 1.67517 0
M  V30 4400 N 400.565 -0.0233959 1.57583 0
M  V30 4401 C 401.813 -0.711654 1.89156 0
M  V30 4402 C 402.134 -1.75591 0.848096 0
M  V30 4403 O 401.404 -1.95547 -0.117566 0
M  V30 4404 H 399.984 -0.265835 0.698098 0
M  V30 4405 H 402.646 0.0119948 1.94896 0
M  V30 4406 H 401.742 -1.19766 2.88206 0
M  V30 4407 N 402.043 -1.548 -0.295768 0
M  V30 4408 C 403.29 -1.74329 -1.03032 0
M  V30 4409 C 403.618 -0.531915 -1.87085 0
M  V30 4410 O 402.873 0.486052 -1.89568 0
M  V30 4411 C 403.172 -2.98797 -1.961 0
M  V30 4412 C 402.838 -4.32356 -1.2798 0
M  V30 4413 C 401.5 -4.68661 -1.09135 0
M  V30 4414 C 403.852 -5.15128 -0.793243 0
M  V30 4415 C 401.18 -5.85312 -0.403269 0
M  V30 4416 C 403.532 -6.32488 -0.118854 0
M  V30 4417 C 402.196 -6.6745 0.0815043 0
M  V30 4418 H 401.466 -0.637916 -0.37702 0
M  V30 4419 H 404.113 -1.8906 -0.304696 0
M  V30 4420 H 402.418 -2.78869 -2.75207 0
M  V30 4421 H 404.115 -3.11102 -2.53015 0
M  V30 4422 H 400.705 -4.03808 -1.43655 0
M  V30 4423 H 404.889 -4.87575 -0.92653 0
M  V30 4424 H 400.145 -6.1094 -0.237098 0
M  V30 4425 H 404.319 -6.95892 0.266035 0
M  V30 4426 H 401.946 -7.57695 0.616685 0
M  V30 4427 N 403.521 0.559213 -1.47345 0
M  V30 4428 C 404.749 1.34194 -1.57479 0
M  V30 4429 C 405.164 1.87463 -0.224261 0
M  V30 4430 O 404.521 1.64888 0.782185 0
M  V30 4431 C 404.572 2.51324 -2.59843 0
M  V30 4432 O 404.293 2.00256 -3.89653 0
M  V30 4433 C 405.794 3.43563 -2.80142 0
M  V30 4434 H 403.014 0.409136 -0.531835 0
M  V30 4435 H 405.558 0.677609 -1.92947 0
M  V30 4436 H 403.713 3.13699 -2.27314 0
M  V30 4437 H 404.127 2.76708 -4.4557 0
M  V30 4438 H 405.601 4.2217 -3.55635 0
M  V30 4439 H 406.078 3.9698 -1.87892 0
M  V30 4440 H 406.684 2.87005 -3.1386 0
M  V30 4441 N 404.999 1.35443 0.805782 0
M  V30 4442 C 406.245 1.28952 1.56522 0
M  V30 4443 C 406.578 -0.135597 1.93726 0
M  V30 4444 O 405.853 -1.08516 1.61414 0
M  V30 4445 C 406.136 2.19678 2.85331 0
M  V30 4446 C 405.989 3.7081 2.54598 0
M  V30 4447 C 407.308 2.09495 3.8704 0
M  V30 4448 H 404.427 0.469764 0.567883 0
M  V30 4449 H 407.069 1.65851 0.927001 0
M  V30 4450 H 405.219 1.8834 3.39795 0
M  V30 4451 H 406.891 4.12593 2.06312 0
M  V30 4452 H 405.134 3.91051 1.8778 0
M  V30 4453 H 405.805 4.29679 3.46525 0
M  V30 4454 H 408.281 2.37045 3.41978 0
M  V30 4455 H 407.157 2.75173 4.74943 0
M  V30 4456 H 407.418 1.07714 4.28777 0
M  V30 4457 N 406.477 -1.02803 1.19454 0
M  V30 4458 C 407.893 -1.28473 0.946937 0
M  V30 4459 C 408.093 -1.97881 -0.380202 0
M  V30 4460 O 407.149 -2.26719 -1.11151 0
M  V30 4461 C 408.462 -2.13099 2.12154 0
M  V30 4462 C 410.01 -2.26404 2.16126 0
M  V30 4463 C 410.485 -3.14402 3.33039 0
M  V30 4464 N 411.976 -3.21991 3.32981 0
M  V30 4465 C 412.711 -3.90272 4.20089 0
M  V30 4466 N 412.207 -4.60777 5.17355 0
M  V30 4467 N 414 -3.8668 4.07964 0
M  V30 4468 H 406.151 -0.561665 2.04839 0
M  V30 4469 H 408.414 -0.310438 0.89573 0
M  V30 4470 H 408.12 -1.69422 3.08203 0
M  V30 4471 H 407.994 -3.13813 2.09287 0
M  V30 4472 H 410.381 -2.69311 1.20647 0
M  V30 4473 H 410.462 -1.25237 2.23045 0
M  V30 4474 H 410.106 -2.72204 4.28798 0
M  V30 4475 H 410.036 -4.1563 3.23356 0
M  V30 4476 H 412.527 -2.71778 2.62574 0
M  V30 4477 H 412.84 -5.10513 5.80169 0
M  V30 4478 H 411.185 -4.5964 5.21302 0
M  V30 4479 H 414.376 -3.30739 3.31254 0
M  V30 4480 H 414.549 -4.39621 4.76064 0
M  V30 4481 N 407.956 -0.998596 -1.21925 0
M  V30 4482 C 409.367 -0.711939 -1.72593 0
M  V30 4483 C 409.718 0.770842 -1.80423 0
M  V30 4484 O 408.843 1.60237 -1.4544 0
M  V30 4485 C 409.438 -1.28567 -3.13458 0
M  V30 4486 C 407.997 -1.04828 -3.61508 0
M  V30 4487 C 407.144 -1.4024 -2.39224 0
M  V30 4488 H 410.095 -1.17027 -1.07193 0
M  V30 4489 H 410.116 -0.667098 -3.74607 0
M  V30 4490 H 409.628 -2.36486 -3.07727 0
M  V30 4491 H 407.729 0.0140383 -3.72597 0
M  V30 4492 H 407.842 -1.71566 -4.47328 0
M  V30 4493 H 406.206 -0.821077 -2.41103 0
M  V30 4494 H 406.989 -2.49176 -2.36149 0
M  V30 4495 N 409.434 1.37368 -0.772513 0
M  V30 4496 C 410.68 1.99969 -0.337681 0
M  V30 4497 C 411.013 1.61184 1.08321 0
M  V30 4498 O 410.288 0.858395 1.74533 0
M  V30 4499 C 410.571 3.56858 -0.482121 0
M  V30 4500 C 410.424 4.0555 -1.94549 0
M  V30 4501 C 411.743 4.39955 0.113143 0
M  V30 4502 H 408.862 0.726464 -0.124171 0
M  V30 4503 H 411.504 1.63034 -0.975699 0
M  V30 4504 H 409.654 3.88452 0.0610361 0
M  V30 4505 H 411.326 3.84518 -2.54841 0
M  V30 4506 H 409.569 3.57715 -2.45403 0
M  V30 4507 H 410.24 5.14587 -1.9976 0
M  V30 4508 H 412.716 4.14623 -0.35031 0
M  V30 4509 H 411.592 5.48897 -0.0180514 0
M  V30 4510 H 411.853 4.25403 1.20354 0
M  V30 4511 N 410.912 0.523116 1.48665 0
M  V30 4512 C 411.875 -0.232592 2.28017 0
M  V30 4513 C 412.875 -0.874021 1.34972 0
M  V30 4514 O 414.065 -0.735132 1.57929 0
M  V30 4515 C 411.197 -1.33586 3.13636 0
M  V30 4516 H 412.39 0.464008 2.96289 0
M  V30 4517 H 409.943 0.278816 1.53793 0
M  V30 4518 H 410.678 -2.06593 2.4998 0
M  V30 4519 H 410.463 -0.881125 3.82071 0
M  V30 4520 H 411.953 -1.86759 3.73511 0
M  V30 4521 N 412.39 -1.55475 0.257931 0
M  V30 4522 C 413.638 -1.98813 -0.363009 0
M  V30 4523 C 413.959 -1.14757 -1.57657 0
M  V30 4524 O 413.229 -0.232956 -1.9451 0
M  V30 4525 H 411.809 -0.734308 -0.137113 0
M  V30 4526 H 414.471 -1.9156 0.359281 0
M  V30 4527 H 413.567 -3.04941 -0.664634 0
M  V30 4528 N 413.868 0.0150385 -1.57593 0
M  V30 4529 C 415.098 0.713359 -1.93894 0
M  V30 4530 C 415.506 1.68663 -0.857289 0
M  V30 4531 O 414.849 1.82876 0.173788 0
M  V30 4532 C 414.911 1.51348 -3.26089 0
M  V30 4533 C 414.575 0.703451 -4.51554 0
M  V30 4534 C 415.572 -0.00237924 -5.199 0
M  V30 4535 C 413.257 0.653854 -4.98026 0
M  V30 4536 C 415.251 -0.746955 -6.33008 0
M  V30 4537 C 412.938 -0.0944578 -6.11027 0
M  V30 4538 C 413.936 -0.793609 -6.78374 0
M  V30 4539 O 413.624 -1.52974 -7.89211 0
M  V30 4540 H 413.356 0.204637 -0.644282 0
M  V30 4541 H 415.91 -0.0276411 -2.05381 0
M  V30 4542 H 414.14 2.29862 -3.10967 0
M  V30 4543 H 415.829 2.09572 -3.47612 0
M  V30 4544 H 416.595 0.0268803 -4.84993 0
M  V30 4545 H 412.474 1.18756 -4.45441 0
M  V30 4546 H 416.018 -1.2932 -6.85509 0
M  V30 4547 H 411.915 -0.125591 -6.45378 0
M  V30 4548 H 412.683 -1.44488 -8.05646 0
M  V30 4549 N 415.346 1.54954 0.287554 0
M  V30 4550 C 416.276 1.89839 1.35954 0
M  V30 4551 C 417.257 0.758675 1.52244 0
M  V30 4552 O 418.442 1.01557 1.65529 0
M  V30 4553 C 415.572 2.15753 2.72154 0
M  V30 4554 C 414.526 3.3159 2.70614 0
M  V30 4555 C 413.852 3.42952 4.10229 0
M  V30 4556 C 415.152 4.68359 2.31165 0
M  V30 4557 H 416.846 2.79625 1.07007 0
M  V30 4558 H 414.392 1.3454 0.513316 0
M  V30 4559 H 416.345 2.38743 3.47246 0
M  V30 4560 H 415.069 1.22752 3.02654 0
M  V30 4561 H 413.728 3.08545 1.97979 0
M  V30 4562 H 413.376 2.47443 4.37928 0
M  V30 4563 H 413.076 4.20826 4.10097 0
M  V30 4564 H 414.6 3.68218 4.87081 0
M  V30 4565 H 416.014 4.9099 2.95976 0
M  V30 4566 H 414.411 5.49044 2.42221 0
M  V30 4567 H 415.481 4.68165 1.26291 0
M  V30 4568 N 416.824 -0.551391 1.4764 0
M  V30 4569 C 418.049 -1.33837 1.58437 0
M  V30 4570 C 418.474 -1.866 0.237063 0
M  V30 4571 O 417.832 -1.6328 -0.787994 0
M  V30 4572 C 417.88 -2.48014 2.61766 0
M  V30 4573 O 416.984 -3.50419 2.1744 0
M  V30 4574 H 416.325 -0.397299 0.532024 0
M  V30 4575 H 418.855 -0.665759 1.93465 0
M  V30 4576 H 418.865 -2.94503 2.82369 0
M  V30 4577 H 417.54 -2.08969 3.5959 0
M  V30 4578 H 416.117 -3.10196 2.06961 0
M  V30 4579 N 418.302 -1.35869 -0.798587 0
M  V30 4580 C 419.713 -1.26498 -1.37314 0
M  V30 4581 C 420.064 0.0991899 -1.95949 0
M  V30 4582 O 419.189 1.0004 -1.91888 0
M  V30 4583 C 419.784 -2.29054 -2.49639 0
M  V30 4584 C 418.343 -2.234 -3.02935 0
M  V30 4585 C 417.49 -2.14329 -1.75949 0
M  V30 4586 H 420.441 -1.46881 -0.600971 0
M  V30 4587 H 420.462 -1.92166 -3.28409 0
M  V30 4588 H 419.974 -3.2833 -2.06933 0
M  V30 4589 H 418.075 -1.27562 -3.50084 0
M  V30 4590 H 418.188 -3.15703 -3.60372 0
M  V30 4591 H 416.552 -1.60435 -1.9782 0
M  V30 4592 H 417.335 -3.15477 -1.35384 0
M  V30 4593 N 419.78 1.02168 -1.19998 0
M  V30 4594 C 421.196 1.27969 -0.953737 0
M  V30 4595 C 421.396 1.98079 0.369703 0
M  V30 4596 O 420.452 2.27306 1.09947 0
M  V30 4597 C 421.765 2.11971 -2.13281 0
M  V30 4598 C 423.313 2.25255 -2.17323 0
M  V30 4599 C 423.788 3.12632 -3.34702 0
M  V30 4600 N 425.279 3.2022 -3.34684 0
M  V30 4601 C 426.014 3.88039 -4.22153 0
M  V30 4602 N 425.51 4.58027 -5.19791 0
M  V30 4603 N 427.303 3.84511 -4.10009 0
M  V30 4604 H 419.454 0.550794 -2.05134 0
M  V30 4605 H 421.717 0.305683 -0.897364 0
M  V30 4606 H 421.423 1.67785 -3.09097 0
M  V30 4607 H 421.297 3.12699 -2.10949 0
M  V30 4608 H 423.684 2.68667 -1.22073 0
M  V30 4609 H 423.765 1.24053 -2.23706 0
M  V30 4610 H 423.409 2.69926 -4.30235 0
M  V30 4611 H 423.339 4.13909 -3.25556 0
M  V30 4612 H 425.83 2.70382 -2.64012 0
M  V30 4613 H 426.143 5.07429 -5.82868 0
M  V30 4614 H 424.488 4.56869 -5.23733 0
M  V30 4615 H 427.679 3.28978 -3.33003 0
M  V30 4616 H 427.852 4.3709 -4.78389 0
M  V30 4617 N 421.258 1.00505 1.21394 0
M  V30 4618 C 422.535 0.603277 1.86064 0
M  V30 4619 C 422.915 -0.919095 1.90042 0
M  V30 4620 O 422.263 -1.80607 1.39977 0
M  V30 4621 C 422.473 1.23772 3.26315 0
M  V30 4622 C 423.821 1.34586 4.02705 0
M  V30 4623 O 424.845 1.19304 3.35626 0
M  V30 4624 O 423.704 1.59169 5.22807 0
M  V30 4625 H 420.798 0.206634 0.800769 0
M  V30 4626 H 423.344 1.1017 1.29076 0
M  V30 4627 H 422.116 2.27848 3.18121 0
M  V30 4628 H 421.739 0.725648 3.90922 0
M  V30 4629 N 422.737 -1.36956 0.779787 0
M  V30 4630 C 423.984 -1.99491 0.347766 0
M  V30 4631 C 424.312 -1.61898 -1.07793 0
M  V30 4632 O 423.567 -0.86071 -1.75756 0
M  V30 4633 C 423.866 -3.54585 0.447686 0
M  V30 4634 C 423.532 -4.1197 1.83279 0
M  V30 4635 C 422.194 -4.27356 2.2118 0
M  V30 4636 C 424.546 -4.43354 2.74019 0
M  V30 4637 C 421.874 -4.71432 3.4924 0
M  V30 4638 C 424.226 -4.88858 4.01497 0
M  V30 4639 C 422.89 -5.0245 4.39432 0
M  V30 4640 H 422.16 -0.729991 0.127257 0
M  V30 4641 H 424.807 -1.63599 0.995376 0
M  V30 4642 H 423.112 -3.90773 -0.283447 0
M  V30 4643 H 424.809 -4.00888 0.0945948 0
M  V30 4644 H 421.399 -4.00428 1.52825 0
M  V30 4645 H 425.583 -4.31045 2.45995 0
M  V30 4646 H 420.839 -4.80141 3.78516 0
M  V30 4647 H 425.013 -5.12108 4.71931 0
M  V30 4648 H 422.64 -5.36362 5.38721 0
M  V30 4649 N 424.215 -0.530993 -1.48385 0
M  V30 4650 C 425.145 0.219985 -2.32461 0
M  V30 4651 C 426.126 0.934111 -1.42156 0
M  V30 4652 O 427.311 0.919694 -1.71042 0
M  V30 4653 C 424.441 1.26674 -3.23375 0
M  V30 4654 C 423.395 0.67069 -4.22712 0
M  V30 4655 C 422.721 1.82017 -5.02766 0
M  V30 4656 C 424.021 -0.358268 -5.2107 0
M  V30 4657 H 425.715 -0.48187 -2.95497 0
M  V30 4658 H 423.261 -0.233182 -1.42099 0
M  V30 4659 H 425.214 1.80006 -3.81019 0
M  V30 4660 H 423.938 1.99818 -2.58341 0
M  V30 4661 H 422.597 0.158878 -3.66256 0
M  V30 4662 H 422.245 2.54002 -4.34157 0
M  V30 4663 H 421.945 1.42727 -5.70003 0
M  V30 4664 H 423.469 2.35725 -5.63264 0
M  V30 4665 H 424.883 0.0880081 -5.73232 0
M  V30 4666 H 423.28 -0.66861 -5.96364 0
M  V30 4667 H 424.35 -1.26367 -4.68145 0
M  V30 4668 N 425.693 1.55336 -0.266172 0
M  V30 4669 C 426.656 2.20878 0.612001 0
M  V30 4670 C 427.656 1.18388 1.08816 0
M  V30 4671 O 428.846 1.4335 0.989774 0
M  V30 4672 C 425.978 2.86765 1.84332 0
M  V30 4673 H 427.171 2.99873 0.0398718 0
M  V30 4674 H 424.724 1.56291 -0.0167309 0
M  V30 4675 H 425.459 2.11759 2.45619 0
M  V30 4676 H 425.244 3.61862 1.5099 0
M  V30 4677 H 426.734 3.36867 2.46801 0
M  V30 4678 N 427.171 -0.0066808 1.57599 0
M  V30 4679 C 428.419 -0.691552 1.899 0
M  V30 4680 C 428.74 -1.74682 0.866672 0
M  V30 4681 O 428.01 -1.95661 -0.0968189 0
M  V30 4682 H 426.59 -0.258416 0.700878 0
M  V30 4683 H 429.252 0.0326655 1.94873 0
M  V30 4684 H 428.348 -1.16702 2.8946 0
M  V30 4685 N 428.649 -1.55105 -0.279332 0
M  V30 4686 C 429.579 -1.90557 -1.34945 0
M  V30 4687 C 430.56 -0.766738 -1.51839 0
M  V30 4688 O 431.745 -1.02434 -1.64988 0
M  V30 4689 C 428.875 -2.17193 -2.71006 0
M  V30 4690 C 427.829 -3.33021 -2.68851 0
M  V30 4691 C 427.155 -3.45123 -4.08405 0
M  V30 4692 C 428.455 -4.69578 -2.28678 0
M  V30 4693 H 430.149 -2.80188 -1.05522 0
M  V30 4694 H 427.695 -1.34811 -0.506173 0
M  V30 4695 H 429.648 -2.40581 -3.45975 0
M  V30 4696 H 428.372 -1.24355 -3.01999 0
M  V30 4697 H 427.031 -3.0959 -1.9634 0
M  V30 4698 H 426.679 -2.49762 -4.3661 0
M  V30 4699 H 426.379 -4.22995 -4.07859 0
M  V30 4700 H 427.903 -3.70796 -4.85121 0
M  V30 4701 H 429.317 -4.92553 -2.93368 0
M  V30 4702 H 427.714 -5.5032 -2.39306 0
M  V30 4703 H 428.784 -4.68828 -1.23807 0
M  V30 4704 N 430.127 0.543554 -1.4793 0
M  V30 4705 C 431.09 1.63156 -1.60975 0
M  V30 4706 C 432.09 1.53346 -0.483899 0
M  V30 4707 O 433.28 1.5726 -0.749339 0
M  V30 4708 C 430.412 3.02743 -1.56716 0
M  V30 4709 H 431.605 1.52934 -2.57975 0
M  V30 4710 H 429.158 0.764557 -1.36324 0
M  V30 4711 H 429.893 3.18484 -0.611418 0
M  V30 4712 H 429.678 3.11272 -2.38438 0
M  V30 4713 H 431.168 3.81871 -1.6901 0
M  V30 4714 N 431.605 1.3629 0.791371 0
M  V30 4715 C 432.835 1.33368 1.57786 0
M  V30 4716 C 433.243 -0.0875188 1.88997 0
M  V30 4717 O 432.586 -1.05427 1.50435 0
M  V30 4718 C 432.648 2.08802 2.92646 0
M  V30 4719 C 432.312 3.57903 2.84174 0
M  V30 4720 C 433.309 4.52191 2.56553 0
M  V30 4721 C 430.994 4.00762 3.02812 0
M  V30 4722 C 432.988 5.87315 2.47669 0
M  V30 4723 C 430.675 5.35977 2.93551 0
M  V30 4724 C 431.673 6.29066 2.66017 0
M  V30 4725 O 431.361 7.61798 2.56746 0
M  V30 4726 H 431.093 0.459166 0.496128 0
M  V30 4727 H 433.647 1.79952 0.990269 0
M  V30 4728 H 431.877 1.56878 3.53449 0
M  V30 4729 H 433.566 1.98762 3.53904 0
M  V30 4730 H 434.332 4.20393 2.41858 0
M  V30 4731 H 430.211 3.2868 3.2325 0
M  V30 4732 H 433.755 6.59943 2.26099 0
M  V30 4733 H 429.652 5.67384 3.07808 0
M  V30 4734 H 430.42 7.71898 2.72242 0
M  V30 4735 N 433.083 -1.0153 1.20538 0
M  V30 4736 C 434.499 -1.27461 0.96051 0
M  V30 4737 C 434.699 -1.98273 -0.359193 0
M  V30 4738 O 433.755 -2.27886 -1.0874 0
M  V30 4739 C 435.068 -2.10837 2.14402 0
M  V30 4740 C 436.616 -2.24099 2.18515 0
M  V30 4741 C 437.091 -3.10852 3.36355 0
M  V30 4742 N 438.582 -3.18441 3.36377 0
M  V30 4743 C 439.317 -3.85795 4.24205 0
M  V30 4744 N 438.813 -4.55264 5.22213 0
M  V30 4745 N 440.606 -3.82331 4.12043 0
M  V30 4746 H 432.757 -0.539907 2.05423 0
M  V30 4747 H 435.02 -0.30092 0.898972 0
M  V30 4748 H 434.726 -1.66144 3.09983 0
M  V30 4749 H 434.6 -3.11576 2.12604 0
M  V30 4750 H 436.987 -2.68016 1.23497 0
M  V30 4751 H 437.068 -1.22865 2.24361 0
M  V30 4752 H 436.712 -2.6764 4.31661 0
M  V30 4753 H 436.642 -4.12177 3.27746 0
M  V30 4754 H 439.133 -2.68978 2.65442 0
M  V30 4755 H 439.446 -5.04331 5.85551 0
M  V30 4756 H 437.791 -4.54085 5.26148 0
M  V30 4757 H 440.982 -3.27207 3.34743 0
M  V30 4758 H 441.155 -4.34547 4.807 0
M  V30 4759 N 434.561 -1.01147 -1.20859 0
M  V30 4760 C 435.807 -0.698899 -1.90377 0
M  V30 4761 C 436.14 0.76904 -1.78324 0
M  V30 4762 O 435.415 1.55817 -1.16409 0
M  V30 4763 C 435.698 -1.12878 -3.41951 0
M  V30 4764 C 435.551 -2.65665 -3.62963 0
M  V30 4765 C 436.87 -0.696114 -4.3456 0
M  V30 4766 H 433.989 -0.255372 -0.691342 0
M  V30 4767 H 436.631 -1.25831 -1.42361 0
M  V30 4768 H 434.781 -0.652827 -3.82976 0
M  V30 4769 H 436.453 -3.21074 -3.31224 0
M  V30 4770 H 434.696 -3.06878 -3.06608 0
M  V30 4771 H 435.367 -2.90797 -4.69192 0
M  V30 4772 H 437.843 -1.10521 -4.01154 0
M  V30 4773 H 436.719 -1.025 -5.39245 0
M  V30 4774 H 436.98 0.402465 -4.40264 0
M  V30 4775 N 436.039 1.36541 -0.78704 0
M  V30 4776 C 437.286 1.99304 -0.358341 0
M  V30 4777 C 437.614 1.62467 1.06933 0
M  V30 4778 O 436.869 0.870019 1.75297 0
M  V30 4779 C 437.168 3.54343 -0.466485 0
M  V30 4780 C 436.834 4.10993 -1.85461 0
M  V30 4781 C 435.496 4.26177 -2.23443 0
M  V30 4782 C 437.848 4.41895 -2.76366 0
M  V30 4783 C 435.176 4.69573 -3.51736 0
M  V30 4784 C 437.528 4.86722 -4.04084 0
M  V30 4785 C 436.192 5.00112 -4.42091 0
M  V30 4786 H 435.462 0.729306 -0.131126 0
M  V30 4787 H 438.109 1.63068 -1.00404 0
M  V30 4788 H 436.414 3.90918 0.262719 0
M  V30 4789 H 438.111 4.00833 -0.115854 0
M  V30 4790 H 434.701 3.99612 -1.54946 0
M  V30 4791 H 438.885 4.29735 -2.48277 0
M  V30 4792 H 434.141 4.78127 -3.81057 0
M  V30 4793 H 438.315 5.09598 -4.7464 0
M  V30 4794 H 435.942 5.33498 -5.41557 0
M  V30 4795 N 437.518 0.538854 1.48102 0
M  V30 4796 C 438.468 -0.23907 2.26743 0
M  V30 4797 C 439.452 -0.901923 1.33245 0
M  V30 4798 O 440.644 -0.803263 1.57723 0
M  V30 4799 C 437.773 -1.2799 3.18549 0
M  V30 4800 C 436.859 -0.621388 4.19523 0
M  V30 4801 N 437.25 0.298004 5.04921 0
M  V30 4802 C 435.548 -0.877533 4.37282 0
M  V30 4803 C 436.249 0.678757 5.77726 0
M  V30 4804 N 435.225 0.0377881 5.43587 0
M  V30 4805 H 439.027 0.468096 2.90148 0
M  V30 4806 H 436.541 0.357497 1.58416 0
M  V30 4807 H 438.538 -1.851 3.73555 0
M  V30 4808 H 437.198 -1.98835 2.567 0
M  V30 4809 H 438.209 0.671126 5.13533 0
M  V30 4810 H 434.886 -1.57588 3.86616 0
M  V30 4811 H 436.276 1.43316 6.56437 0
M  V30 4812 N 438.996 -1.55193 0.274407 0
M  V30 4813 C 440.236 -2.01488 -0.343778 0
M  V30 4814 C 440.6 -1.1586 -1.53103 0
M  V30 4815 O 441.801 -1.51732 -2.2188 0
M  V30 4816 C 440.072 -3.50134 -0.717021 0
M  V30 4817 S 441.631 -4.18417 -1.32184 0
M  V30 4818 H 438.449 -0.70291 -0.106948 0
M  V30 4819 H 441.051 -1.91446 0.396075 0
M  V30 4820 H 439.755 -4.10104 0.155947 0
M  V30 4821 H 439.286 -3.64159 -1.48835 0
M  V30 4822 H 441.301 -4.21984 -2.61044 0
M  V30 4823 N 440.474 -0.00167713 -1.576 0
M  V30 4824 C 441.702 0.693759 -1.94922 0
M  V30 4825 C 442.117 1.67215 -0.876626 0
M  V30 4826 O 441.474 1.81929 0.144279 0
M  V30 4827 C 441.525 1.42416 -3.32265 0
M  V30 4828 O 441.246 0.485014 -4.35407 0
M  V30 4829 C 442.747 2.21395 -3.84056 0
M  V30 4830 H 439.967 0.193118 -0.642609 0
M  V30 4831 H 442.511 -0.0532952 -2.04431 0
M  V30 4832 H 440.666 2.12284 -3.24059 0
M  V30 4833 H 441.08 1.00053 -5.14868 0
M  V30 4834 H 442.554 2.67996 -4.82578 0
M  V30 4835 H 443.031 3.04142 -3.16851 0
M  V30 4836 H 443.637 1.56542 -3.95443 0
M  V30 4837 N 441.952 1.55251 0.271103 0
M  V30 4838 C 442.884 1.84675 1.35749 0
M  V30 4839 C 443.897 0.731366 1.45447 0
M  V30 4840 O 445.086 1.00924 1.4723 0
M  V30 4841 C 442.186 1.99638 2.73857 0
M  V30 4842 C 441.359 3.30312 2.86727 0
M  V30 4843 C 440.418 3.35318 4.05522 0
M  V30 4844 O 439.444 4.08682 3.96191 0
M  V30 4845 N 440.646 2.62857 5.17577 0
M  V30 4846 H 443.411 2.78445 1.10853 0
M  V30 4847 H 440.972 1.55191 0.461218 0
M  V30 4848 H 442.964 2.00355 3.51625 0
M  V30 4849 H 441.534 1.12725 2.91568 0
M  V30 4850 H 440.754 3.42118 1.95829 0
M  V30 4851 H 442.042 4.16488 2.92258 0
M  V30 4852 H 441.44 2.02939 5.28046 0
M  V30 4853 H 439.997 2.69295 5.93568 0
M  V30 4854 N 443.43 -0.535701 1.48216 0
M  V30 4855 C 444.66 -1.3148 1.59363 0
M  V30 4856 C 445.068 -1.8753 0.250844 0
M  V30 4857 O 444.411 -1.66821 -0.769174 0
M  V30 4858 C 444.473 -2.50731 2.57632 0
M  V30 4859 C 444.137 -2.15811 4.02833 0
M  V30 4860 C 445.134 -1.71822 4.90686 0
M  V30 4861 C 442.819 -2.26509 4.48329 0
M  V30 4862 C 444.813 -1.3899 6.22062 0
M  V30 4863 C 442.5 -1.93289 5.79726 0
M  V30 4864 C 443.498 -1.49599 6.66415 0
M  V30 4865 O 443.186 -1.16812 7.95368 0
M  V30 4866 H 442.918 -0.406315 0.540263 0
M  V30 4867 H 445.472 -0.653569 1.94725 0
M  V30 4868 H 443.702 -3.19817 2.1738 0
M  V30 4869 H 445.391 -3.12797 2.58675 0
M  V30 4870 H 446.157 -1.63031 4.56778 0
M  V30 4871 H 442.036 -2.59471 3.81045 0
M  V30 4872 H 445.58 -1.04816 6.89681 0
M  V30 4873 H 441.477 -2.01718 6.13172 0
M  V30 4874 H 442.245 -1.30259 8.08069 0
M  V30 4875 N 444.908 -1.36708 -0.784132 0
M  V30 4876 C 446.157 -1.30559 -1.53744 0
M  V30 4877 C 446.47 0.111374 -1.95283 0
M  V30 4878 O 447.676 0.29527 -2.6989 0
M  V30 4879 C 446.132 -2.29098 -2.77565 0
M  V30 4880 C 445.74 -3.76258 -2.43174 0
M  V30 4881 C 447.484 -2.31936 -3.55536 0
M  V30 4882 C 445.391 -4.6656 -3.63422 0
M  V30 4883 H 444.321 -0.48518 -0.577162 0
M  V30 4884 H 446.972 -1.62101 -0.859981 0
M  V30 4885 H 445.354 -1.90557 -3.47137 0
M  V30 4886 H 446.528 -4.23565 -1.81465 0
M  V30 4887 H 444.843 -3.76246 -1.78403 0
M  V30 4888 H 447.44 -2.9661 -4.44889 0
M  V30 4889 H 447.783 -1.3294 -3.94503 0
M  V30 4890 H 448.316 -2.6912 -2.92949 0
M  V30 4891 H 445.055 -5.66638 -3.29547 0
M  V30 4892 H 444.575 -4.23966 -4.24279 0
M  V30 4893 H 446.254 -4.8309 -4.30387 0
M  V30 4894 N 446.386 1.0089 -1.21074 0
M  V30 4895 C 447.802 1.2695 -0.967257 0
M  V30 4896 C 448.002 1.9846 0.348673 0
M  V30 4897 O 447.058 2.28459 1.0753 0
M  V30 4898 C 448.371 2.09697 -2.15517 0
M  V30 4899 C 449.919 2.22937 -2.197 0
M  V30 4900 C 450.394 3.09064 -3.37999 0
M  V30 4901 N 451.885 3.16653 -3.38061 0
M  V30 4902 C 452.62 3.8354 -4.26245 0
M  V30 4903 N 452.116 4.52488 -5.2462 0
M  V30 4904 N 453.909 3.80141 -4.14064 0
M  V30 4905 H 446.06 0.529005 -2.05707 0
M  V30 4906 H 448.323 0.296148 -0.900556 0
M  V30 4907 H 448.029 1.64497 -3.10859 0
M  V30 4908 H 447.903 3.10444 -2.14253 0
M  V30 4909 H 450.29 2.67357 -1.24916 0
M  V30 4910 H 450.371 1.21673 -2.2501 0
M  V30 4911 H 450.015 2.65347 -4.33074 0
M  V30 4912 H 449.945 4.10433 -3.29928 0
M  V30 4913 H 452.436 2.67566 -2.66865 0
M  V30 4914 H 452.749 5.01219 -5.88217 0
M  V30 4915 H 451.094 4.51288 -5.28549 0
M  V30 4916 H 454.285 3.25427 -3.36474 0
M  V30 4917 H 454.458 4.31992 -4.82998 0
M  V30 4918 N 447.864 1.01787 1.20321 0
M  V30 4919 C 448.814 0.559976 2.21016 0
M  V30 4920 C 449.798 -0.385366 1.56217 0
M  V30 4921 O 450.99 -0.208126 1.75772 0
M  V30 4922 C 448.119 -0.0990553 3.43157 0
M  V30 4923 C 447.205 0.86807 4.15121 0
M  V30 4924 N 447.596 2.0261 4.63447 0
M  V30 4925 C 445.894 0.689162 4.40643 0
M  V30 4926 C 446.595 2.63518 5.18588 0
M  V30 4927 N 445.571 1.91569 5.08726 0
M  V30 4928 H 449.373 1.44281 2.56048 0
M  V30 4929 H 446.887 0.883381 1.36272 0
M  V30 4930 H 448.884 -0.444643 4.14522 0
M  V30 4931 H 447.544 -0.977709 3.0963 0
M  V30 4932 H 448.555 2.40598 4.58621 0
M  V30 4933 H 445.232 -0.14133 4.17261 0
M  V30 4934 H 446.622 3.61527 5.66346 0
M  V30 4935 N 449.342 -1.36122 0.79427 0
M  V30 4936 C 450.59 -1.98718 0.368177 0
M  V30 4937 C 450.911 -1.63345 -1.06506 0
M  V30 4938 O 450.181 -0.909825 -1.73491 0
M  V30 4939 H 448.761 -0.735038 0.133146 0
M  V30 4940 H 451.423 -1.66239 1.01739 0
M  V30 4941 H 450.519 -3.08633 0.463923 0
M  V30 4942 N 450.82 -0.546701 -1.47814 0
M  V30 4943 C 452.045 -0.021268 -2.07389 0
M  V30 4944 C 452.47 1.25822 -1.39822 0
M  V30 4945 O 451.828 1.75111 -0.46968 0
M  V30 4946 C 451.876 0.168502 -3.60206 0
M  V30 4947 O 450.98 1.23347 -3.93522 0
M  V30 4948 H 450.321 -0.0466108 -0.662362 0
M  V30 4949 H 452.851 -0.759387 -1.89985 0
M  V30 4950 H 452.861 0.385982 -4.0617 0
M  V30 4951 H 451.536 -0.766075 -4.08784 0
M  V30 4952 H 450.113 0.997319 -3.59316 0
M  V30 4953 N 452.299 1.55045 -0.282633 0
M  V30 4954 C 453.576 1.9179 0.384166 0
M  V30 4955 C 453.956 1.20778 1.73136 0
M  V30 4956 O 453.304 0.33719 2.25998 0
M  V30 4957 C 453.514 3.45149 0.517014 0
M  V30 4958 C 454.862 4.17064 0.796427 0
M  V30 4959 O 455.886 3.51084 0.601535 0
M  V30 4960 O 454.745 5.33837 1.16962 0
M  V30 4961 H 451.839 0.799483 0.211558 0
M  V30 4962 H 454.385 1.66474 -0.32934 0
M  V30 4963 H 453.157 3.88922 -0.430772 0
M  V30 4964 H 452.78 3.76443 1.2797 0
M  V30 4965 N 453.777 0.010035 1.57597 0
M  V30 4966 C 455.188 -0.531426 1.78977 0
M  V30 4967 C 455.539 -1.73375 0.918454 0
M  V30 4968 O 454.664 -2.16047 0.123635 0
M  V30 4969 C 455.259 -0.97086 3.24592 0
M  V30 4970 C 453.818 -1.45756 3.47033 0
M  V30 4971 C 452.965 -0.413384 2.74201 0
M  V30 4972 H 455.916 0.236166 1.56933 0
M  V30 4973 H 455.937 -1.83633 3.33255 0
M  V30 4974 H 455.449 -0.0955893 3.87982 0
M  V30 4975 H 453.55 -2.35339 2.88871 0
M  V30 4976 H 453.663 -1.4781 4.55729 0
M  V30 4977 H 452.027 -0.877266 2.39115 0
M  V30 4978 H 452.81 0.453092 3.40297 0
M  V30 4979 N 455.255 -1.55392 -0.262866 0
M  V30 4980 C 456.185 -1.91978 -1.32917 0
M  V30 4981 C 457.166 -0.7828 -1.51017 0
M  V30 4982 O 458.351 -1.04178 -1.63892 0
M  V30 4983 C 455.481 -2.20055 -2.68687 0
M  V30 4984 C 454.435 -3.35854 -2.65304 0
M  V30 4985 C 453.761 -3.49435 -4.04721 0
M  V30 4986 C 455.061 -4.71977 -2.23685 0
M  V30 4987 H 456.755 -2.81292 -1.02544 0
M  V30 4988 H 454.301 -1.3534 -0.491846 0
M  V30 4989 H 456.254 -2.44237 -3.43404 0
M  V30 4990 H 454.978 -1.27551 -3.00663 0
M  V30 4991 H 453.637 -3.11655 -1.93045 0
M  V30 4992 H 453.285 -2.54379 -4.33936 0
M  V30 4993 H 452.985 -4.27297 -4.0335 0
M  V30 4994 H 454.509 -3.7592 -4.81161 0
M  V30 4995 H 455.923 -4.95637 -2.88127 0
M  V30 4996 H 454.32 -5.52828 -2.33456 0
M  V30 4997 H 455.39 -4.70115 -1.18827 0
M  V30 4998 N 456.733 0.527833 -1.48498 0
M  V30 4999 C 457.963 1.30633 -1.60058 0
M  V30 5000 C 458.371 1.87394 -0.260786 0
M  V30 5001 O 457.714 1.67227 0.760317 0
M  V30 5002 C 457.776 2.49361 -2.58958 0
M  V30 5003 C 457.44 2.13671 -4.03972 0
M  V30 5004 C 458.437 1.69217 -4.91591 0
M  V30 5005 C 456.122 2.24129 -4.49524 0
M  V30 5006 C 458.116 1.35689 -6.2279 0
M  V30 5007 C 455.803 1.90212 -5.80743 0
M  V30 5008 C 456.801 1.46063 -6.67199 0
M  V30 5009 O 456.489 1.12593 -7.95976 0
M  V30 5010 H 456.221 0.403444 -0.54241 0
M  V30 5011 H 458.775 0.643233 -1.95068 0
M  V30 5012 H 457.005 3.18659 -2.19073 0
M  V30 5013 H 458.694 3.11421 -2.6033 0
M  V30 5014 H 459.46 1.60607 -4.57636 0
M  V30 5015 H 455.339 2.57447 -3.82416 0
M  V30 5016 H 458.883 1.01157 -6.90227 0
M  V30 5017 H 454.78 1.98464 -6.14233 0
M  V30 5018 H 455.548 1.25972 -8.08748 0
M  V30 5019 N 458.211 1.37122 0.776871 0
M  V30 5020 C 459.439 1.3523 1.5659 0
M  V30 5021 C 459.854 -0.0635518 1.88693 0
M  V30 5022 O 459.211 -1.02394 1.51069 0
M  V30 5023 C 459.262 2.18583 2.8793 0
M  V30 5024 O 458.983 3.5465 2.57206 0
M  V30 5025 C 460.484 2.24612 3.82183 0
M  V30 5026 H 457.704 0.4634 0.485285 0
M  V30 5027 H 460.248 1.80392 0.963266 0
M  V30 5028 H 458.403 1.76943 3.4463 0
M  V30 5029 H 458.817 3.98286 3.41275 0
M  V30 5030 H 460.291 2.87267 4.71361 0
M  V30 5031 H 460.768 1.25309 4.20944 0
M  V30 5032 H 461.374 2.66543 3.31414 0
M  V30 5033 N 459.689 -1.00246 1.21608 0
M  V30 5034 C 461.1 -1.55511 1.03312 0
M  V30 5035 C 461.451 -1.91946 -0.406332 0
M  V30 5036 O 460.576 -1.73753 -1.28992 0
M  V30 5037 C 461.171 -2.82576 1.86913 0
M  V30 5038 C 459.73 -3.34318 1.72941 0
M  V30 5039 C 458.877 -2.07487 1.83968 0
M  V30 5040 H 461.828 -0.824638 1.35593 0
M  V30 5041 H 461.849 -3.54559 1.38087 0
M  V30 5042 H 461.361 -2.56026 2.91672 0
M  V30 5043 H 459.462 -3.65797 0.70877 0
M  V30 5044 H 459.575 -4.05566 2.55055 0
M  V30 5045 H 457.939 -2.20603 1.27304 0
M  V30 5046 H 458.722 -1.83346 2.9024 0
M  V30 5047 N 461.167 -1.02423 -1.1978 0
M  V30 5048 C 462.077 -0.610919 -2.26506 0
M  V30 5049 C 463.093 0.355152 -1.70337 0
M  V30 5050 O 464.269 0.214195 -2.00258 0
M  V30 5051 C 461.334 0.0365921 -3.46681 0
M  V30 5052 C 460.395 -0.976389 -4.18049 0
M  V30 5053 C 459.628 -0.359683 -5.32487 0
M  V30 5054 O 459.851 0.838601 -5.64202 0
M  V30 5055 O 458.785 -1.08022 -5.92127 0
M  V30 5056 H 462.611 -1.49965 -2.64091 0
M  V30 5057 H 460.196 -0.794156 -1.26545 0
M  V30 5058 H 462.078 0.39786 -4.19518 0
M  V30 5059 H 460.753 0.899398 -3.10954 0
M  V30 5060 H 459.66 -1.38916 -3.47352 0
M  V30 5061 H 460.993 -1.80941 -4.57735 0
M  V30 5062 N 462.645 1.35699 -0.801477 0
M  V30 5063 C 464.056 1.81415 -0.441073 0
M  V30 5064 C 464.407 1.66595 1.03636 0
M  V30 5065 O 463.532 1.19369 1.80499 0
M  V30 5066 C 464.127 3.29369 -0.793819 0
M  V30 5067 C 462.686 3.73248 -0.486083 0
M  V30 5068 C 461.833 2.57775 -1.02213 0
M  V30 5069 H 464.784 1.23749 -0.993572 0
M  V30 5070 H 464.805 3.80395 -0.0894158 0
M  V30 5071 H 464.317 3.40123 -1.86917 0
M  V30 5072 H 462.418 3.68046 0.580735 0
M  V30 5073 H 462.531 4.68222 -1.01513 0
M  V30 5074 H 460.895 2.50788 -0.444712 0
M  V30 5075 H 461.678 2.71309 -2.10348 0
M  V30 5076 N 464.123 0.554532 1.47522 0
M  V30 5077 C 465.4 -0.0360704 1.95567 0
M  V30 5078 C 465.78 -1.48828 1.49711 0
M  V30 5079 O 465.128 -2.16366 0.734717 0
M  V30 5080 C 465.338 0.106631 3.48837 0
M  V30 5081 C 466.686 -0.0400899 4.24581 0
M  V30 5082 O 467.71 0.0340453 3.56184 0
M  V30 5083 O 466.569 -0.199111 5.46137 0
M  V30 5084 H 463.663 -0.0656294 0.824392 0
M  V30 5085 H 466.209 0.620867 1.57935 0
M  V30 5086 H 464.981 1.11727 3.7501 0
M  V30 5087 H 464.604 -0.58804 3.93227 0
M  V30 5088 N 465.601 -1.54893 0.290851 0
M  V30 5089 C 466.829 -2.04343 -0.324288 0
M  V30 5090 C 467.244 -1.16859 -1.48289 0
M  V30 5091 O 466.601 -0.192018 -1.81487 0
M  V30 5092 C 466.652 -3.52756 -0.79026 0
M  V30 5093 O 466.373 -4.36913 0.322213 0
M  V30 5094 C 467.874 -4.18161 -1.4716 0
M  V30 5095 H 465.094 -0.667135 -0.0719173 0
M  V30 5096 H 467.638 -1.99981 0.427529 0
M  V30 5097 H 465.793 -3.57511 -1.49213 0
M  V30 5098 H 466.207 -5.24486 -0.0387372 0
M  V30 5099 H 467.681 -5.23562 -1.7489 0
M  V30 5100 H 468.158 -3.67282 -2.40834 0
M  V30 5101 H 468.764 -4.17454 -0.813178 0
M  V30 5102 N 467.08 -0.0183926 -1.57589 0
M  V30 5103 C 468.32 0.666846 -1.93216 0
M  V30 5104 C 468.684 1.69905 -0.894215 0
M  V30 5105 O 469.885 2.436 -1.13633 0
M  V30 5106 C 468.156 1.27684 -3.33814 0
M  V30 5107 S 469.715 1.98464 -3.91353 0
M  V30 5108 H 466.533 0.219826 -0.676164 0
M  V30 5109 H 469.135 -0.0794893 -1.95338 0
M  V30 5110 H 467.839 0.513006 -4.07181 0
M  V30 5111 H 467.37 2.06071 -3.3511 0
M  V30 5112 H 469.385 3.26189 -3.73918 0
M  V30 5113 N 468.558 1.5553 0.254621 0
M  V30 5114 C 469.508 1.86057 1.31783 0
M  V30 5115 C 470.492 0.720827 1.4385 0
M  V30 5116 O 471.684 0.982586 1.47222 0
M  V30 5117 C 468.813 2.15203 2.67475 0
M  V30 5118 C 467.899 3.35484 2.59444 0
M  V30 5119 N 468.29 4.54945 2.2104 0
M  V30 5120 C 466.588 3.38441 2.90472 0
M  V30 5121 C 467.289 5.3707 2.23453 0
M  V30 5122 N 466.265 4.75936 2.62652 0
M  V30 5123 H 470.067 2.75953 1.01129 0
M  V30 5124 H 467.581 1.55653 0.463255 0
M  V30 5125 H 469.578 2.35235 3.44195 0
M  V30 5126 H 468.238 1.26601 2.99002 0
M  V30 5127 H 469.249 4.8071 1.92712 0
M  V30 5128 H 465.926 2.60087 3.2659 0
M  V30 5129 H 467.316 6.42626 1.96166 0
M  V30 5130 N 470.036 -0.519951 1.48776 0
M  V30 5131 C 470.946 -1.65025 1.66745 0
M  V30 5132 C 471.962 -1.6508 0.549954 0
M  V30 5133 O 473.138 -1.83848 0.822295 0
M  V30 5134 C 470.203 -3.0146 1.71238 0
M  V30 5135 C 469.264 -3.12182 2.94688 0
M  V30 5136 C 468.497 -4.42109 2.98958 0
M  V30 5137 O 468.72 -5.29799 2.1135 0
M  V30 5138 O 467.654 -4.57406 3.91233 0
M  V30 5139 H 471.48 -1.52801 2.62461 0
M  V30 5140 H 469.065 -0.694157 1.32294 0
M  V30 5141 H 470.947 -3.82584 1.76657 0
M  V30 5142 H 469.622 -3.13988 0.786975 0
M  V30 5143 H 468.529 -2.30316 2.94797 0
M  V30 5144 H 469.862 -3.04574 3.86646 0
M  V30 5145 N 471.514 -1.37532 -0.769588 0
M  V30 5146 C 472.444 -1.36172 -1.89682 0
M  V30 5147 C 473.425 -0.23001 -1.68538 0
M  V30 5148 O 474.61 -0.43069 -1.89364 0
M  V30 5149 C 471.74 -1.1701 -3.26995 0
M  V30 5150 C 470.694 -2.27216 -3.62708 0
M  V30 5151 C 470.02 -1.93174 -4.98586 0
M  V30 5152 C 471.32 -3.6941 -3.69234 0
M  V30 5153 H 473.014 -2.30499 -1.91078 0
M  V30 5154 H 470.56 -1.10953 -0.917902 0
M  V30 5155 H 472.513 -1.14688 -4.05493 0
M  V30 5156 H 471.237 -0.191395 -3.26039 0
M  V30 5157 H 469.896 -2.28697 -2.86519 0
M  V30 5158 H 469.544 -0.938281 -4.94171 0
M  V30 5159 H 469.244 -2.66973 -5.23449 0
M  V30 5160 H 470.768 -1.92443 -5.79481 0
M  V30 5161 H 472.182 -3.70047 -4.37879 0
M  V30 5162 H 470.579 -4.4228 -4.05597 0
M  V30 5163 H 471.649 -4.0288 -2.69844 0
M  V30 5164 N 472.992 0.995999 -1.22138 0
M  V30 5165 C 473.922 2.10387 -1.01289 0
M  V30 5166 C 474.903 1.69975 0.0651454 0
M  V30 5167 O 476.088 1.9396 -0.0964628 0
M  V30 5168 C 473.218 3.42312 -0.586517 0
M  V30 5169 C 472.172 3.96558 -1.61014 0
M  V30 5170 C 471.498 5.24494 -1.0397 0
M  V30 5171 C 472.798 4.27595 -2.99933 0
M  V30 5172 H 474.492 2.28086 -1.93951 0
M  V30 5173 H 472.038 1.09607 -0.933928 0
M  V30 5174 H 473.991 4.19223 -0.427793 0
M  V30 5175 H 472.715 3.24431 0.375761 0
M  V30 5176 H 471.374 3.21776 -1.75658 0
M  V30 5177 H 471.022 5.02953 -0.0688703 0
M  V30 5178 H 470.722 5.61755 -1.72352 0
M  V30 5179 H 472.246 6.04042 -0.892494 0
M  V30 5180 H 473.66 4.95315 -2.8868 0
M  V30 5181 H 472.057 4.76021 -3.6541 0
M  V30 5182 H 473.127 3.35498 -3.50099 0
M  V30 5183 N 474.47 1.03057 1.19235 0
M  V30 5184 C 475.718 0.726581 1.88587 0
M  V30 5185 C 476.039 -0.747227 1.80115 0
M  V30 5186 O 475.309 -1.53849 1.21274 0
M  V30 5187 H 473.889 0.265768 0.698124 0
M  V30 5188 H 476.551 1.30516 1.44746 0
M  V30 5189 H 475.647 1.0224 2.94879 0
M  V30 5190 N 475.948 -1.35272 0.808662 0
M  V30 5191 C 476.898 -2.27181 0.193124 0
M  V30 5192 C 477.882 -1.47871 -0.634265 0
M  V30 5193 O 479.074 -1.70048 -0.491182 0
M  V30 5194 C 476.203 -3.36979 -0.655751 0
M  V30 5195 C 475.289 -4.23712 0.181481 0
M  V30 5196 N 475.68 -4.90225 1.24551 0
M  V30 5197 C 473.978 -4.45985 -0.0365493 0
M  V30 5198 C 474.679 -5.54537 1.75682 0
M  V30 5199 N 473.655 -5.33107 1.06294 0
M  V30 5200 H 477.457 -2.76101 1.00724 0
M  V30 5201 H 474.971 -1.48823 0.650029 0
M  V30 5202 H 476.968 -4.01774 -1.11279 0
M  V30 5203 H 475.628 -2.89611 -1.46819 0
M  V30 5204 H 476.639 -4.91641 1.62818 0
M  V30 5205 H 473.316 -4.09409 -0.817964 0
M  V30 5206 H 474.706 -6.17597 2.64621 0
M  V30 5207 N 477.426 -0.562348 -1.47226 0
M  V30 5208 C 478.672 -0.0402761 -2.0276 0
M  V30 5209 C 479.005 1.30823 -1.43523 0
M  V30 5210 O 478.28 1.85249 -0.592705 0
M  V30 5211 C 478.563 0.047311 -3.60069 0
M  V30 5212 C 478.416 -1.32865 -4.29729 0
M  V30 5213 C 479.735 0.758182 -4.3352 0
M  V30 5214 H 476.854 -0.0161105 -0.736824 0
M  V30 5215 H 479.496 -0.725628 -1.75598 0
M  V30 5216 H 477.646 0.630986 -3.83342 0
M  V30 5217 H 479.318 -1.95593 -4.17781 0
M  V30 5218 H 477.561 -1.90195 -3.89882 0
M  V30 5219 H 478.232 -1.22004 -5.38349 0
M  V30 5220 H 480.708 0.262546 -4.15271 0
M  V30 5221 H 479.584 0.78844 -5.43208 0
M  V30 5222 H 479.845 1.81537 -4.03109 0
M  V30 5223 N 478.904 1.54736 -0.299062 0
M  V30 5224 C 480.315 1.8569 0.193971 0
M  V30 5225 C 480.666 1.22101 1.53577 0
M  V30 5226 O 479.791 0.51799 2.10109 0
M  V30 5227 C 480.386 3.36895 0.358733 0
M  V30 5228 C 478.945 3.67887 0.795986 0
M  V30 5229 C 478.092 2.77131 -0.096807 0
M  V30 5230 H 481.043 1.49934 -0.520134 0
M  V30 5231 H 481.064 3.61294 1.19361 0
M  V30 5232 H 480.576 3.83148 -0.617998 0
M  V30 5233 H 478.677 3.27151 1.78334 0
M  V30 5234 H 478.79 4.75114 0.616718 0
M  V30 5235 H 477.154 2.51153 0.423581 0
M  V30 5236 H 477.937 3.26204 -1.06986 0
M  V30 5237 N 480.382 0.0267497 1.57577 0
M  V30 5238 C 481.312 -0.954308 2.13108 0
M  V30 5239 C 482.293 -1.34088 1.04663 0
M  V30 5240 O 483.478 -1.41992 1.32484 0
M  V30 5241 C 480.608 -2.23744 2.65624 0
M  V30 5242 C 479.562 -1.99168 3.78835 0
M  V30 5243 C 478.888 -3.33726 4.17769 0
M  V30 5244 C 480.188 -1.33277 5.0501 0
M  V30 5245 H 481.882 -0.491848 2.95332 0
M  V30 5246 H 479.428 -0.23514 1.42067 0
M  V30 5247 H 481.381 -2.92754 3.03106 0
M  V30 5248 H 480.105 -2.72151 1.80558 0
M  V30 5249 H 478.764 -1.32577 3.41788 0
M  V30 5250 H 478.412 -3.79888 3.29688 0
M  V30 5251 H 478.112 -3.18089 4.94058 0
M  V30 5252 H 479.636 -4.04008 4.57832 0
M  V30 5253 H 481.05 -1.92283 5.40093 0
M  V30 5254 H 479.447 -1.28045 5.8628 0
M  V30 5255 H 480.517 -0.305411 4.83937 0
M  V30 5256 N 481.861 -1.55662 -0.24637 0
M  V30 5257 C 482.791 -1.93377 -1.30873 0
M  V30 5258 C 483.772 -0.798773 -1.50179 0
M  V30 5259 O 484.957 -1.0591 -1.62778 0
M  V30 5260 C 482.087 -2.22893 -2.66338 0
M  V30 5261 C 481.041 -3.38649 -2.61727 0
M  V30 5262 C 480.367 -3.53708 -4.00992 0
M  V30 5263 C 481.667 -4.74323 -2.18666 0
M  V30 5264 H 483.361 -2.82363 -0.995552 0
M  V30 5265 H 480.907 -1.35854 -0.477464 0
M  V30 5266 H 482.86 -2.47866 -3.40794 0
M  V30 5267 H 481.584 -1.30733 -2.99293 0
M  V30 5268 H 480.243 -3.13685 -1.89729 0
M  V30 5269 H 479.891 -2.58967 -4.31214 0
M  V30 5270 H 479.591 -4.31551 -3.98795 0
M  V30 5271 H 481.115 -3.81003 -4.77147 0
M  V30 5272 H 482.529 -4.98665 -2.82854 0
M  V30 5273 H 480.926 -5.55273 -2.27579 0
M  V30 5274 H 481.996 -4.71349 -1.13834 0
M  V30 5275 N 483.339 0.512053 -1.4905 0
M  V30 5276 C 484.302 1.59704 -1.64399 0
M  V30 5277 C 485.302 1.52285 -0.516317 0
M  V30 5278 O 486.492 1.55635 -0.782527 0
M  V30 5279 C 483.624 2.9935 -1.63102 0
M  V30 5280 H 484.817 1.47428 -2.61161 0
M  V30 5281 H 482.37 0.735469 -1.37915 0
M  V30 5282 H 483.105 3.17116 -0.678836 0
M  V30 5283 H 482.89 3.06144 -2.44986 0
M  V30 5284 H 484.38 3.782 -1.77072 0
M  V30 5285 N 484.817 1.37938 0.762283 0
M  V30 5286 C 486.094 1.24196 1.51112 0
M  V30 5287 C 486.474 -0.160409 2.1049 0
M  V30 5288 O 485.822 -1.16904 1.96331 0
M  V30 5289 C 486.032 2.34537 2.58445 0
M  V30 5290 C 487.38 2.7254 3.25588 0
M  V30 5291 O 488.404 2.33783 2.68745 0
M  V30 5292 O 487.263 3.39343 4.28379 0
M  V30 5293 H 484.357 0.485175 0.669727 0
M  V30 5294 H 486.903 1.49743 0.798438 0
M  V30 5295 H 485.675 3.28406 2.12756 0
M  V30 5296 H 485.298 2.10505 3.37303 0
M  V30 5297 N 486.295 -0.989507 1.22664 0
M  V30 5298 C 487.706 -1.54406 1.04955 0
M  V30 5299 C 488.057 -1.92366 -0.385951 0
M  V30 5300 O 487.182 -1.75111 -1.27142 0
M  V30 5301 C 487.777 -2.80578 1.89899 0
M  V30 5302 C 486.336 -3.32464 1.76478 0
M  V30 5303 C 485.483 -2.05524 1.86159 0
M  V30 5304 H 488.434 -0.810211 1.3646 0
M  V30 5305 H 488.455 -3.53075 1.4184 0
M  V30 5306 H 487.967 -2.52918 2.94371 0
M  V30 5307 H 486.068 -3.65024 0.747528 0
M  V30 5308 H 486.181 -4.02838 2.59342 0
M  V30 5309 H 484.545 -2.19241 1.29636 0
M  V30 5310 H 485.328 -1.80258 2.92168 0
M  V30 5311 N 487.773 -1.03688 -1.18687 0
M  V30 5312 C 488.72 -0.624624 -2.22187 0
M  V30 5313 C 489.69 0.365636 -1.62026 0
M  V30 5314 O 490.875 0.260481 -1.89014 0
M  V30 5315 C 488.015 0.0101738 -3.45099 0
M  V30 5316 C 487.128 -1.02709 -4.19613 0
M  V30 5317 C 486.263 -0.361213 -5.2997 0
M  V30 5318 C 485.302 -1.38384 -5.96252 0
M  V30 5319 N 484.439 -0.743196 -6.98155 0
M  V30 5320 H 489.279 -1.51176 -2.56807 0
M  V30 5321 H 486.816 -0.75636 -1.26165 0
M  V30 5322 H 488.774 0.395528 -4.15321 0
M  V30 5323 H 487.404 0.860848 -3.1111 0
M  V30 5324 H 486.456 -1.53043 -3.48256 0
M  V30 5325 H 487.768 -1.80398 -4.65036 0
M  V30 5326 H 486.922 0.0785537 -6.06649 0
M  V30 5327 H 485.661 0.447799 -4.8564 0
M  V30 5328 H 484.666 -1.83378 -5.18317 0
M  V30 5329 H 485.891 -2.19448 -6.42666 0
M  V30 5330 H 483.837 0.0455789 -6.55984 0
M  V30 5331 H 483.754 -1.45784 -7.41811 0
M  V30 5332 H 485.022 -0.327698 -7.78811 0
M  V30 5333 N 489.251 1.34841 -0.815825 0
M  V30 5334 C 490.498 1.98499 -0.400535 0
M  V30 5335 C 490.826 1.64699 1.03463 0
M  V30 5336 O 490.081 0.907006 1.73412 0
M  V30 5337 C 490.38 3.53273 -0.541541 0
M  V30 5338 C 490.046 4.06966 -1.94138 0
M  V30 5339 C 488.708 4.21341 -2.32433 0
M  V30 5340 C 491.06 4.35933 -2.85677 0
M  V30 5341 C 488.388 4.62007 -3.61617 0
M  V30 5342 C 490.74 4.78042 -4.14317 0
M  V30 5343 C 489.404 4.90622 -4.52599 0
M  V30 5344 H 488.674 0.72636 -0.146566 0
M  V30 5345 H 491.321 1.60902 -1.0384 0
M  V30 5346 H 489.626 3.91387 0.179741 0
M  V30 5347 H 491.323 4.00497 -0.20085 0
M  V30 5348 H 487.913 3.96235 -1.63388 0
M  V30 5349 H 492.097 4.24372 -2.57337 0
M  V30 5350 H 487.353 4.69937 -3.91113 0
M  V30 5351 H 491.527 4.99415 -4.85342 0
M  V30 5352 H 489.154 5.2189 -5.52752 0
M  V30 5353 N 490.729 0.570148 1.46925 0
M  V30 5354 C 491.692 -0.159933 2.28641 0
M  V30 5355 C 492.692 -0.830638 1.37685 0
M  V30 5356 O 493.882 -0.684516 1.60187 0
M  V30 5357 C 491.014 -1.2354 3.17727 0
M  V30 5358 H 492.207 0.558035 2.94662 0
M  V30 5359 H 489.76 0.327603 1.52828 0
M  V30 5360 H 490.495 -1.98535 2.56426 0
M  V30 5361 H 490.28 -0.759125 3.84681 0
M  V30 5362 H 491.77 -1.74782 3.79264 0
M  V30 5363 N 492.207 -1.54576 0.307264 0
M  V30 5364 C 493.139 -2.21212 -0.599807 0
M  V30 5365 C 494.152 -1.20685 -1.09266 0
M  V30 5366 O 495.341 -1.47244 -1.00903 0
M  V30 5367 C 492.441 -2.84994 -1.83389 0
M  V30 5368 C 491.614 -4.11511 -1.48248 0
M  V30 5369 C 490.673 -4.59038 -2.57237 0
M  V30 5370 O 489.699 -5.24095 -2.22065 0
M  V30 5371 N 490.901 -4.31884 -3.87887 0
M  V30 5372 H 493.666 -2.99686 -0.0293075 0
M  V30 5373 H 491.227 -1.61379 0.129738 0
M  V30 5374 H 493.219 -3.1372 -2.5566 0
M  V30 5375 H 491.789 -2.10324 -2.31263 0
M  V30 5376 H 491.009 -3.89728 -0.592122 0
M  V30 5377 H 492.297 -4.93879 -1.22316 0
M  V30 5378 H 491.695 -3.79778 -4.19268 0
M  V30 5379 H 490.252 -4.65304 -4.56438 0
M  V30 5380 N 493.685 -0.035106 -1.57561 0
M  V30 5381 C 494.932 0.642229 -1.92046 0
M  V30 5382 C 495.26 1.7179 -0.91206 0
M  V30 5383 O 494.515 1.95544 0.0781153 0
M  V30 5384 C 494.814 1.29149 -3.3325 0
M  V30 5385 C 494.48 0.345604 -4.49574 0
M  V30 5386 C 493.142 0.0852775 -4.81124 0
M  V30 5387 C 495.494 -0.303569 -5.20315 0
M  V30 5388 C 492.822 -0.831927 -5.80772 0
M  V30 5389 C 495.174 -1.20886 -6.20942 0
M  V30 5390 C 493.838 -1.47802 -6.50931 0
M  V30 5391 H 493.108 0.235008 -0.702746 0
M  V30 5392 H 495.755 -0.0981529 -1.91248 0
M  V30 5393 H 494.06 2.10676 -3.30337 0
M  V30 5394 H 495.757 1.82223 -3.57205 0
M  V30 5395 H 492.347 0.558683 -4.24943 0
M  V30 5396 H 496.531 -0.115515 -4.96166 0
M  V30 5397 H 491.787 -1.0481 -6.02349 0
M  V30 5398 H 495.961 -1.71804 -6.74875 0
M  V30 5399 H 493.588 -2.19039 -7.2796 0
M  V30 5400 N 495.163 1.55791 0.238111 0
M  V30 5401 C 496.388 1.8244 0.986432 0
M  V30 5402 C 496.813 0.613314 1.7782 0
M  V30 5403 O 496.171 -0.437767 1.75935 0
M  V30 5404 C 496.219 3.06917 1.893 0
M  V30 5405 O 495.323 2.84449 2.98601 0
M  V30 5406 H 494.664 0.601975 0.280218 0
M  V30 5407 H 497.194 2.02987 0.256437 0
M  V30 5408 H 497.204 3.36583 2.30598 0
M  V30 5409 H 495.879 3.947 1.31091 0
M  V30 5410 H 494.456 2.65972 2.61368 0
M  V30 5411 N 496.642 -0.504142 1.49319 0
M  V30 5412 C 497.574 -1.62265 1.61872 0
M  V30 5413 C 498.587 -1.54881 0.501573 0
M  V30 5414 O 499.776 -1.6087 0.773497 0
M  V30 5415 C 496.876 -3.01042 1.55651 0
M  V30 5416 C 496.049 -3.33642 2.82845 0
M  V30 5417 C 495.108 -4.51816 2.69719 0
M  V30 5418 O 494.134 -4.53755 3.4365 0
M  V30 5419 N 495.336 -5.51543 1.81055 0
M  V30 5420 H 498.101 -1.51924 2.58339 0
M  V30 5421 H 495.662 -0.691954 1.46368 0
M  V30 5422 H 497.654 -3.78013 1.44528 0
M  V30 5423 H 496.224 -3.05323 0.670546 0
M  V30 5424 H 495.444 -2.45598 3.08343 0
M  V30 5425 H 496.732 -3.5222 3.67177 0
M  V30 5426 H 496.13 -5.52774 1.20241 0
M  V30 5427 H 494.687 -6.27629 1.75856 0
M  V30 5428 N 498.12 -1.38341 -0.754957 0
M  V30 5429 C 499.03 -1.3769 -1.89944 0
M  V30 5430 C 500.046 -0.274194 -1.71826 0
M  V30 5431 O 501.222 -0.512391 -1.94773 0
M  V30 5432 C 498.287 -1.19938 -3.25293 0
M  V30 5433 C 497.348 -2.40001 -3.55946 0
M  V30 5434 C 496.581 -2.23087 -4.84838 0
M  V30 5435 O 496.804 -1.22386 -5.57116 0
M  V30 5436 O 495.738 -3.11646 -5.14937 0
M  V30 5437 H 499.564 -2.3412 -1.93446 0
M  V30 5438 H 497.149 -1.19246 -0.900044 0
M  V30 5439 H 499.031 -1.12093 -4.06218 0
M  V30 5440 H 497.706 -0.265919 -3.22606 0
M  V30 5441 H 496.613 -2.53421 -2.75188 0
M  V30 5442 H 497.946 -3.31973 -3.63394 0
M  V30 5443 N 499.598 0.982988 -1.23187 0
M  V30 5444 C 500.847 1.71817 -1.05649 0
M  V30 5445 C 501.16 1.91315 0.407176 0
M  V30 5446 O 502.366 2.62256 0.702436 0
M  V30 5447 C 500.822 3.09188 -1.84203 0
M  V30 5448 C 500.43 2.97586 -3.34882 0
M  V30 5449 C 502.174 3.86684 -1.75146 0
M  V30 5450 C 500.081 4.30173 -4.05839 0
M  V30 5451 H 499.011 0.644258 -0.391724 0
M  V30 5452 H 501.662 1.09659 -1.4713 0
M  V30 5453 H 500.044 3.72087 -1.35527 0
M  V30 5454 H 501.218 2.43793 -3.91026 0
M  V30 5455 H 499.533 2.33567 -3.44725 0
M  V30 5456 H 502.13 4.84836 -2.25473 0
M  V30 5457 H 502.473 4.10136 -0.713737 0
M  V30 5458 H 503.006 3.30482 -2.21419 0
M  V30 5459 H 499.745 4.11918 -5.09906 0
M  V30 5460 H 499.265 4.83841 -3.54482 0
M  V30 5461 H 500.944 4.98873 -4.11989 0
M  V30 5462 N 501.076 1.04316 1.18135 0
M  V30 5463 C 502.324 0.746542 1.87806 0
M  V30 5464 C 502.645 -0.728082 1.80898 0
M  V30 5465 O 501.915 -1.52554 1.22899 0
M  V30 5466 H 500.495 0.273157 0.695265 0
M  V30 5467 H 503.157 1.32044 1.43354 0
M  V30 5468 H 502.253 1.05362 2.93778 0
M  V30 5469 N 502.554 -1.34406 0.822964 0
M  V30 5470 C 503.484 -2.32052 0.259608 0
M  V30 5471 C 504.465 -1.58243 -0.623961 0
M  V30 5472 O 505.65 -1.86224 -0.55083 0
M  V30 5473 C 502.78 -3.42434 -0.579314 0
M  V30 5474 C 501.734 -4.27499 0.20712 0
M  V30 5475 C 501.06 -5.29349 -0.754547 0
M  V30 5476 C 502.36 -5.02758 1.41533 0
M  V30 5477 H 504.054 -2.79418 1.07545 0
M  V30 5478 H 501.6 -1.34338 0.518593 0
M  V30 5479 H 503.553 -4.0976 -0.983612 0
M  V30 5480 H 502.277 -2.93717 -1.4282 0
M  V30 5481 H 500.936 -3.61776 0.592787 0
M  V30 5482 H 500.584 -4.76895 -1.59939 0
M  V30 5483 H 500.284 -5.8714 -0.232561 0
M  V30 5484 H 501.808 -5.99544 -1.1567 0
M  V30 5485 H 503.222 -5.62938 1.08504 0
M  V30 5486 H 501.619 -5.70123 1.87296 0
M  V30 5487 H 502.689 -4.32451 2.1935 0
M  V30 5488 N 504.032 -0.577932 -1.46621 0
M  V30 5489 C 504.995 0.147805 -2.28723 0
M  V30 5490 C 505.995 0.823325 -1.38123 0
M  V30 5491 O 507.185 0.676011 -1.60548 0
M  V30 5492 C 504.317 1.21853 -3.18378 0
M  V30 5493 H 505.51 -0.573654 -2.94362 0
M  V30 5494 H 503.063 -0.335703 -1.52652 0
M  V30 5495 H 503.798 1.97173 -2.57475 0
M  V30 5496 H 503.583 0.738714 -3.85078 0
M  V30 5497 H 505.073 1.72768 -3.80186 0
M  V30 5498 N 505.51 1.54411 -0.315457 0
M  V30 5499 C 506.735 2.05299 0.294496 0
M  V30 5500 C 507.16 1.19052 1.4563 0
M  V30 5501 O 506.518 0.197804 1.80218 0
M  V30 5502 C 506.566 3.5345 0.714549 0
M  V30 5503 O 505.67 3.70175 1.81781 0
M  V30 5504 H 505.011 0.661743 0.0547019 0
M  V30 5505 H 507.541 1.99327 -0.461508 0
M  V30 5506 H 507.551 3.9557 0.999426 0
M  V30 5507 H 506.226 4.1568 -0.135244 0
M  V30 5508 H 504.803 3.3996 1.53236 0
M  V30 5509 N 506.988 0.0434614 1.5754 0
M  V30 5510 C 507.918 -0.931651 2.14109 0
M  V30 5511 C 508.899 -1.32971 1.06079 0
M  V30 5512 O 510.084 -1.40579 1.33982 0
M  V30 5513 C 507.214 -2.20914 2.67982 0
M  V30 5514 C 506.168 -1.95139 3.80926 0
M  V30 5515 C 505.494 -3.29276 4.21285 0
M  V30 5516 C 506.794 -1.27913 5.06395 0
M  V30 5517 H 508.488 -0.460497 2.95837 0
M  V30 5518 H 506.034 -0.220058 1.42309 0
M  V30 5519 H 507.987 -2.89522 3.06194 0
M  V30 5520 H 506.711 -2.70221 1.83434 0
M  V30 5521 H 505.37 -1.28945 3.43175 0
M  V30 5522 H 505.018 -3.76369 3.33699 0
M  V30 5523 H 504.718 -3.12831 4.97404 0
M  V30 5524 H 506.242 -3.99129 4.62091 0
M  V30 5525 H 507.656 -1.86544 5.42102 0
M  V30 5526 H 506.053 -1.2182 5.87605 0
M  V30 5527 H 507.123 -0.254066 4.84234 0
M  V30 5528 N 508.466 -1.55915 -0.229846 0
M  V30 5529 C 509.714 -1.7819 -0.953565 0
M  V30 5530 C 510.035 -0.610504 -1.85197 0
M  V30 5531 O 509.305 0.372988 -1.92316 0
M  V30 5532 H 507.885 -0.657208 -0.355087 0
M  V30 5533 H 510.547 -1.9337 -0.243693 0
M  V30 5534 H 509.643 -2.70011 -1.56527 0
M  V30 5535 N 509.944 0.496216 -1.49584 0
M  V30 5536 C 510.907 1.57952 -1.66084 0
M  V30 5537 C 511.907 1.51729 -0.53244 0
M  V30 5538 O 513.097 1.54796 -0.79899 0
M  V30 5539 C 510.229 2.97604 -1.66268 0
M  V30 5540 H 511.422 1.44649 -2.6271 0
M  V30 5541 H 508.975 0.7208 -1.38687 0
M  V30 5542 H 509.71 3.16378 -0.712432 0
M  V30 5543 H 509.495 3.03528 -2.4822 0
M  V30 5544 H 510.985 3.76301 -1.81073 0
M  V30 5545 N 511.423 1.38739 0.74761 0
M  V30 5546 C 512.648 1.38702 1.54197 0
M  V30 5547 C 513.073 -0.019664 1.8809 0
M  V30 5548 O 512.431 -1.00333 1.51006 0
M  V30 5549 C 512.479 2.25492 2.814 0
M  V30 5550 O 511.583 1.67613 3.76802 0
M  V30 5551 H 510.924 0.472863 0.466151 0
M  V30 5552 H 513.454 1.82577 0.923413 0
M  V30 5553 H 513.464 2.39561 3.30264 0
M  V30 5554 H 512.139 3.27727 2.56062 0
M  V30 5555 H 510.716 1.62718 3.35526 0
M  V30 5556 N 512.901 -0.976442 1.23707 0
M  V30 5557 C 514.178 -1.69296 0.979699 0
M  V30 5558 C 514.558 -2.0508 -0.500555 0
M  V30 5559 O 513.906 -1.74708 -1.47273 0
M  V30 5560 C 514.116 -2.93143 1.89389 0
M  V30 5561 C 515.464 -3.65572 2.15968 0
M  V30 5562 O 516.488 -3.03184 1.86971 0
M  V30 5563 O 515.347 -4.77859 2.65167 0
M  V30 5564 H 512.441 -0.739708 0.369812 0
M  V30 5565 H 514.987 -1.03131 1.34767 0
M  V30 5566 H 513.759 -2.63327 2.89439 0
M  V30 5567 H 513.382 -3.67044 1.52854 0
M  V30 5568 N 514.379 -1.04941 -1.1758 0
M  V30 5569 C 515.289 -0.658826 -2.25159 0
M  V30 5570 C 516.305 0.318941 -1.71052 0
M  V30 5571 O 517.481 0.171669 -2.00667 0
M  V30 5572 C 514.546 -0.0369522 -3.4668 0
M  V30 5573 C 513.607 -1.06484 -4.15884 0
M  V30 5574 C 512.84 -0.472551 -5.31604 0
M  V30 5575 O 513.063 0.718736 -5.65854 0
M  V30 5576 O 511.997 -1.20557 -5.89703 0
M  V30 5577 H 515.823 -1.55533 -2.60851 0
M  V30 5578 H 513.408 -0.820819 -1.24832 0
M  V30 5579 H 515.29 0.308784 -4.20267 0
M  V30 5580 H 513.965 0.833238 -3.12792 0
M  V30 5581 H 512.872 -1.46253 -3.44327 0
M  V30 5582 H 514.205 -1.9061 -4.53794 0
M  V30 5583 N 515.857 1.33968 -0.830081 0
M  V30 5584 C 517.134 1.92554 -0.343858 0
M  V30 5585 C 517.514 1.7573 1.16971 0
M  V30 5586 O 516.862 1.14035 1.98011 0
M  V30 5587 C 517.072 3.40147 -0.781073 0
M  V30 5588 C 518.42 4.17299 -0.78402 0
M  V30 5589 O 519.444 3.48762 -0.724112 0
M  V30 5590 O 518.303 5.39631 -0.863739 0
M  V30 5591 H 515.397 0.821469 -0.0954827 0
M  V30 5592 H 517.943 1.42897 -0.915348 0
M  V30 5593 H 516.715 3.46225 -1.82329 0
M  V30 5594 H 516.338 3.97166 -0.18567 0
M  V30 5595 N 517.335 0.585699 1.46312 0
M  V30 5596 C 518.581 0.0725284 2.0267 0
M  V30 5597 C 518.914 -1.28523 1.45586 0
M  V30 5598 O 518.189 -1.84283 0.622101 0
M  V30 5599 C 518.472 0.0099788 3.60099 0
M  V30 5600 C 518.325 1.39685 4.27561 0
M  V30 5601 C 519.644 -0.689117 4.34671 0
M  V30 5602 H 516.763 0.0278307 0.736474 0
M  V30 5603 H 519.405 0.753472 1.74421 0
M  V30 5604 H 517.555 -0.56992 3.84297 0
M  V30 5605 H 519.227 2.02215 4.14617 0
M  V30 5606 H 517.47 1.96374 3.86807 0
M  V30 5607 H 518.141 1.30553 5.36339 0
M  V30 5608 H 520.617 -0.196446 4.15636 0
M  V30 5609 H 519.493 -0.701921 5.44393 0
M  V30 5610 H 519.754 -1.75101 4.05946 0
M  V30 5611 N 518.813 -1.54241 0.323641 0
M  V30 5612 C 519.745 -2.21836 -0.576311 0
M  V30 5613 C 520.758 -1.21837 -1.07979 0
M  V30 5614 O 521.947 -1.48306 -0.99336 0
M  V30 5615 C 519.047 -2.86923 -1.80356 0
M  V30 5616 C 518.22 -4.1306 -1.43875 0
M  V30 5617 C 517.279 -4.6174 -2.52353 0
M  V30 5618 O 516.305 -5.26421 -2.16494 0
M  V30 5619 N 517.507 -4.35974 -3.83284 0
M  V30 5620 H 520.272 -2.997 0.00247987 0
M  V30 5621 H 517.833 -1.61233 0.146848 0
M  V30 5622 H 519.825 -3.16414 -2.52318 0
M  V30 5623 H 518.395 -2.12765 -2.29019 0
M  V30 5624 H 517.615 -3.90334 -0.550752 0
M  V30 5625 H 518.903 -4.95148 -1.17071 0
M  V30 5626 H 518.301 -3.84203 -4.15216 0
M  V30 5627 H 516.858 -4.70119 -4.51477 0
M  V30 5628 N 520.291 -0.0518155 -1.57515 0
M  V30 5629 C 521.238 0.922352 -2.11569 0
M  V30 5630 C 522.208 1.30842 -1.02321 0
M  V30 5631 O 523.393 1.39778 -1.29872 0
M  V30 5632 C 520.533 2.19167 -2.6657 0
M  V30 5633 C 519.646 1.86003 -3.89906 0
M  V30 5634 C 518.781 3.07398 -4.33221 0
M  V30 5635 C 517.82 2.70158 -5.49255 0
M  V30 5636 N 516.957 3.84248 -5.8762 0
M  V30 5637 H 521.797 0.454506 -2.94514 0
M  V30 5638 H 519.334 0.212718 -1.45554 0
M  V30 5639 H 521.292 2.93443 -2.96559 0
M  V30 5640 H 519.922 2.63528 -1.86421 0
M  V30 5641 H 518.974 1.01874 -3.66505 0
M  V30 5642 H 520.286 1.54592 -4.74239 0
M  V30 5643 H 519.44 3.89972 -4.64765 0
M  V30 5644 H 518.179 3.41988 -3.477 0
M  V30 5645 H 517.184 1.86001 -5.17382 0
M  V30 5646 H 518.409 2.36759 -6.36492 0
M  V30 5647 H 516.355 4.18638 -5.05053 0
M  V30 5648 H 516.272 3.56538 -6.66646 0
M  V30 5649 H 517.54 4.6746 -6.2378 0
M  V30 5650 N 521.769 1.56035 0.221574 0
M  V30 5651 C 522.699 1.95434 1.2778 0
M  V30 5652 C 523.68 0.822564 1.48889 0
M  V30 5653 O 524.865 1.08486 1.61072 0
M  V30 5654 C 521.995 2.27102 2.62759 0
M  V30 5655 C 520.949 3.4277 2.56306 0
M  V30 5656 C 520.275 3.60043 3.95314 0
M  V30 5657 C 521.575 4.77742 2.11093 0
M  V30 5658 H 523.269 2.83912 0.950504 0
M  V30 5659 H 520.815 1.36596 0.455791 0
M  V30 5660 H 522.768 2.53256 3.36807 0
M  V30 5661 H 521.492 1.35478 2.97176 0
M  V30 5662 H 520.151 3.16664 1.84715 0
M  V30 5663 H 519.799 2.65794 4.27039 0
M  V30 5664 H 519.499 4.37841 3.91879 0
M  V30 5665 H 521.023 3.88545 4.71025 0
M  V30 5666 H 522.437 5.03102 2.74885 0
M  V30 5667 H 520.834 5.58823 2.18716 0
M  V30 5668 H 521.904 4.731 1.06321 0
M  V30 5669 N 523.247 -0.488276 1.49845 0
M  V30 5670 C 524.21 -1.57069 1.66919 0
M  V30 5671 C 525.21 -1.51445 0.540479 0
M  V30 5672 O 526.4 -1.5437 0.807188 0
M  V30 5673 C 523.532 -2.96718 1.67844 0
M  V30 5674 H 524.725 -1.43254 2.63474 0
M  V30 5675 H 522.278 -0.713435 1.39068 0
M  V30 5676 H 523.013 -3.15996 0.7292 0
M  V30 5677 H 522.798 -3.02208 2.49826 0
M  V30 5678 H 524.288 -3.75335 1.83066 0
M  V30 5679 N 524.725 -1.39134 -0.740242 0
M  V30 5680 C 525.953 -1.39334 -1.5295 0
M  V30 5681 C 526.368 0.0135008 -1.88795 0
M  V30 5682 O 525.725 0.983524 -1.5373 0
M  V30 5683 C 525.776 -2.2614 -2.82034 0
M  V30 5684 O 525.497 -3.61345 -2.47712 0
M  V30 5685 C 526.998 -2.34666 -3.76094 0
M  V30 5686 H 524.218 -0.476103 -0.472828 0
M  V30 5687 H 526.762 -1.82883 -0.9151 0
M  V30 5688 H 524.917 -1.86018 -3.39818 0
M  V30 5689 H 525.331 -4.07194 -3.30595 0
M  V30 5690 H 526.805 -2.99663 -4.63579 0
M  V30 5691 H 527.282 -1.36426 -4.17474 0
M  V30 5692 H 527.888 -2.75236 -3.2423 0
M  V30 5693 N 526.204 0.969867 -1.24223 0
M  V30 5694 C 527.444 1.72754 -1.0925 0
M  V30 5695 C 527.808 1.88541 0.362787 0
M  V30 5696 O 529.009 2.61217 0.633969 0
M  V30 5697 C 527.28 3.08204 -1.80957 0
M  V30 5698 S 528.839 3.99418 -1.81688 0
M  V30 5699 H 525.657 0.593981 -0.390778 0
M  V30 5700 H 528.259 1.15792 -1.5752 0
M  V30 5701 H 526.963 2.94372 -2.85961 0
M  V30 5702 H 526.494 3.70232 -1.33012 0
M  V30 5703 H 528.509 4.8828 -0.883001 0
M  V30 5704 N 527.682 1.05563 1.17022 0
M  V30 5705 C 528.912 0.787307 1.91011 0
M  V30 5706 C 529.32 -0.661256 1.77268 0
M  V30 5707 O 528.663 -1.46379 1.10991 0
M  V30 5708 C 528.725 1.09313 3.42478 0
M  V30 5709 C 528.389 2.53863 3.80004 0
M  V30 5710 C 529.386 3.52081 3.82538 0
M  V30 5711 C 527.071 2.88969 4.10855 0
M  V30 5712 C 529.065 4.83449 4.15399 0
M  V30 5713 C 526.752 4.2054 4.43384 0
M  V30 5714 C 527.75 5.17589 4.45635 0
M  V30 5715 O 527.438 6.46799 4.77395 0
M  V30 5716 H 527.17 0.285463 0.61277 0
M  V30 5717 H 529.724 1.41051 1.49311 0
M  V30 5718 H 527.954 0.412833 3.8449 0
M  V30 5719 H 529.643 0.810224 3.97731 0
M  V30 5720 H 530.409 3.26299 3.58823 0
M  V30 5721 H 526.288 2.1409 4.08272 0
M  V30 5722 H 529.832 5.59194 4.1707 0
M  V30 5723 H 525.729 4.46083 4.66563 0
M  V30 5724 H 526.497 6.51677 4.95237 0
M  V30 5725 N 529.16 -1.33526 0.837174 0
M  V30 5726 C 530.407 -1.97837 0.432064 0
M  V30 5727 C 530.735 -1.66324 -1.00829 0
M  V30 5728 O 529.99 -0.93448 -1.71948 0
M  V30 5729 C 530.289 -3.52367 0.597675 0
M  V30 5730 C 529.955 -4.03826 2.00587 0
M  V30 5731 C 528.617 -4.1759 2.39106 0
M  V30 5732 C 530.969 -4.31333 2.92576 0
M  V30 5733 C 528.297 -4.56195 3.68921 0
M  V30 5734 C 530.649 -4.7139 4.2187 0
M  V30 5735 C 529.313 -4.8336 4.60347 0
M  V30 5736 H 528.583 -0.723937 0.158104 0
M  V30 5737 H 531.23 -1.5923 1.06387 0
M  V30 5738 H 529.535 -3.91624 -0.117452 0
M  V30 5739 H 531.232 -4.00126 0.26454 0
M  V30 5740 H 527.822 -3.93586 1.69671 0
M  V30 5741 H 532.006 -4.20224 2.64056 0
M  V30 5742 H 527.262 -4.63655 3.9854 0
M  V30 5743 H 531.436 -4.91631 4.93226 0
M  V30 5744 H 529.063 -5.1303 5.60985 0
M  V30 5745 N 530.638 -0.59345 -1.46 0
M  V30 5746 C 531.885 -0.0831523 -2.02329 0
M  V30 5747 C 532.213 1.28093 -1.46364 0
M  V30 5748 O 531.468 1.85526 -0.622793 0
M  V30 5749 C 531.767 0.021178 -3.57394 0
M  V30 5750 C 531.433 -1.27671 -4.32448 0
M  V30 5751 C 530.095 -1.63227 -4.5267 0
M  V30 5752 C 532.447 -2.13511 -4.7546 0
M  V30 5753 C 529.775 -2.84401 -5.1316 0
M  V30 5754 C 532.127 -3.33922 -5.37289 0
M  V30 5755 C 530.791 -3.69747 -5.55737 0
M  V30 5756 H 530.061 -0.0304276 -0.740375 0
M  V30 5757 H 532.708 -0.772239 -1.75239 0
M  V30 5758 H 531.013 0.793454 -3.83682 0
M  V30 5759 H 532.71 0.431942 -3.98667 0
M  V30 5760 H 529.3 -0.989937 -4.17011 0
M  V30 5761 H 533.484 -1.87344 -4.59582 0
M  V30 5762 H 528.74 -3.12282 -5.25633 0
M  V30 5763 H 532.914 -4.00698 -5.69574 0
M  V30 5764 H 530.541 -4.6373 -6.02377 0
M  V30 5765 N 532.116 1.54067 -0.331816 0
M  V30 5766 C 533.344 2.05131 0.269996 0
M  V30 5767 C 533.759 1.20749 1.45138 0
M  V30 5768 O 533.116 0.240069 1.80914 0
M  V30 5769 C 533.167 3.54728 0.696456 0
M  V30 5770 O 532.888 4.35906 -0.43794 0
M  V30 5771 C 534.389 4.21916 1.36021 0
M  V30 5772 H 531.609 0.668807 0.0542042 0
M  V30 5773 H 534.153 1.98777 -0.4804 0
M  V30 5774 H 532.308 3.61342 1.39681 0
M  V30 5775 H 532.722 5.24404 -0.100334 0
M  V30 5776 H 534.196 5.28015 1.60947 0
M  V30 5777 H 534.673 3.73538 2.31011 0
M  V30 5778 H 535.279 4.19463 0.702212 0
M  V30 5779 N 533.594 0.0601682 1.57485 0
M  V30 5780 C 534.843 -0.611101 1.9222 0
M  V30 5781 C 535.156 -1.71469 0.941159 0
M  V30 5782 O 536.362 -2.44473 1.18089 0
M  V30 5783 C 534.818 -1.13832 3.41424 0
M  V30 5784 C 534.426 -0.0663596 4.47951 0
M  V30 5785 C 536.17 -1.78432 3.85178 0
M  V30 5786 C 534.077 -0.606965 5.88277 0
M  V30 5787 H 533.007 -0.232033 0.71741 0
M  V30 5788 H 535.658 0.130518 1.83035 0
M  V30 5789 H 534.04 -1.93254 3.45643 0
M  V30 5790 H 535.214 0.707682 4.55333 0
M  V30 5791 H 533.529 0.482715 4.13593 0
M  V30 5792 H 536.126 -2.1989 4.87394 0
M  V30 5793 H 536.469 -2.63966 3.21913 0
M  V30 5794 H 537.002 -1.05651 3.83514 0
M  V30 5795 H 533.741 0.21095 6.5516 0
M  V30 5796 H 533.261 -1.34879 5.84438 0
M  V30 5797 H 534.94 -1.08704 6.37803 0
M  V30 5798 N 535.072 -1.5615 -0.213296 0
M  V30 5799 C 535.982 -1.96265 -1.28519 0
M  V30 5800 C 536.998 -0.86765 -1.50824 0
M  V30 5801 O 538.174 -1.17191 -1.63793 0
M  V30 5802 C 535.239 -2.27836 -2.61327 0
M  V30 5803 C 534.3 -3.50949 -2.47252 0
M  V30 5804 C 533.533 -3.81004 -3.73727 0
M  V30 5805 O 533.756 -3.12612 -4.77106 0
M  V30 5806 O 532.69 -4.74477 -3.70344 0
M  V30 5807 H 536.516 -2.87631 -0.974795 0
M  V30 5808 H 534.101 -1.43467 -0.416832 0
M  V30 5809 H 535.983 -2.49299 -3.39747 0
M  V30 5810 H 534.658 -1.39643 -2.9203 0
M  V30 5811 H 533.565 -3.34754 -1.67004 0
M  V30 5812 H 534.898 -4.39551 -2.21486 0
M  V30 5813 N 536.55 0.480323 -1.50102 0
M  V30 5814 C 537.797 1.23307 -1.60629 0
M  V30 5815 C 538.125 1.92135 -0.302375 0
M  V30 5816 O 537.38 1.82321 0.711154 0
M  V30 5817 C 537.679 2.30708 -2.72963 0
M  V30 5818 C 537.345 1.79195 -4.13763 0
M  V30 5819 C 536.007 1.64867 -4.52076 0
M  V30 5820 C 538.359 1.40878 -5.018 0
M  V30 5821 C 535.687 1.10631 -5.76175 0
M  V30 5822 C 538.039 0.880872 -6.26437 0
M  V30 5823 C 536.703 0.724146 -6.6356 0
M  V30 5824 H 535.973 0.451211 -0.587784 0
M  V30 5825 H 538.62 0.53051 -1.84005 0
M  V30 5826 H 536.925 3.06834 -2.43639 0
M  V30 5827 H 538.622 2.88692 -2.78313 0
M  V30 5828 H 535.212 1.91313 -3.83533 0
M  V30 5829 H 539.396 1.50786 -4.7284 0
M  V30 5830 H 534.652 0.972263 -6.0362 0
M  V30 5831 H 538.826 0.575269 -6.9402 0
M  V30 5832 H 536.453 0.301722 -7.59601 0
M  V30 5833 N 538.028 1.39524 0.732853 0
M  V30 5834 C 539.276 1.36594 1.48951 0
M  V30 5835 C 539.597 -0.0367507 1.94965 0
M  V30 5836 O 538.867 -0.988391 1.69138 0
M  V30 5837 H 537.447 0.502673 0.552566 0
M  V30 5838 H 540.109 1.74411 0.869869 0
M  V30 5839 H 539.205 2.03 2.3706 0
M  V30 5840 N 539.506 -0.963266 1.24736 0
M  V30 5841 C 540.436 -2.07628 1.06832 0
M  V30 5842 C 541.417 -1.70088 -0.0200566 0
M  V30 5843 O 542.602 -1.93636 0.147854 0
M  V30 5844 C 539.732 -3.40636 0.677069 0
M  V30 5845 C 538.686 -3.9215 1.71471 0
M  V30 5846 C 538.012 -5.21553 1.1784 0
M  V30 5847 C 539.312 -4.19493 3.11164 0
M  V30 5848 H 541.006 -2.22864 1.9993 0
M  V30 5849 H 538.552 -1.07093 0.96266 0
M  V30 5850 H 540.505 -4.17941 0.538792 0
M  V30 5851 H 539.229 -3.25313 -0.289612 0
M  V30 5852 H 537.888 -3.17005 1.84128 0
M  V30 5853 H 537.536 -5.02593 0.202195 0
M  V30 5854 H 537.236 -5.56988 1.87185 0
M  V30 5855 H 538.76 -6.01463 1.05233 0
M  V30 5856 H 540.174 -4.87487 3.01711 0
M  V30 5857 H 538.571 -4.66165 3.77902 0
M  V30 5858 H 539.641 -3.26097 3.58871 0
M  V30 5859 N 540.985 -1.06182 -1.16461 0
M  V30 5860 C 542.225 -0.787048 -1.8864 0
M  V30 5861 C 542.589 0.674093 -1.79778 0
M  V30 5862 O 543.79 1.06341 -2.46871 0
M  V30 5863 C 542.061 -1.2666 -3.34203 0
M  V30 5864 S 543.62 -1.12071 -4.24247 0
M  V30 5865 H 540.438 -0.285539 -0.651144 0
M  V30 5866 H 543.04 -1.35851 -1.40587 0
M  V30 5867 H 541.744 -2.32496 -3.38192 0
M  V30 5868 H 541.275 -0.689841 -3.87304 0
M  V30 5869 H 543.29 -0.0509341 -4.96174 0
M  V30 5870 N 542.463 1.3308 -0.844243 0
M  V30 5871 C 543.41 2.29104 -0.279323 0
M  V30 5872 C 544.38 1.54577 0.607882 0
M  V30 5873 O 545.565 1.8285 0.545009 0
M  V30 5874 C 542.705 3.40927 0.53508 0
M  V30 5875 C 541.818 4.30354 -0.376749 0
M  V30 5876 C 540.953 5.29297 0.449276 0
M  V30 5877 C 539.992 6.10365 -0.460606 0
M  V30 5878 N 539.129 7.01335 0.327612 0
M  V30 5879 H 543.969 2.76817 -1.10346 0
M  V30 5880 H 541.506 1.36203 -0.555611 0
M  V30 5881 H 543.464 4.04469 1.02278 0
M  V30 5882 H 542.094 2.94391 1.32414 0
M  V30 5883 H 541.146 3.67485 -0.982791 0
M  V30 5884 H 542.458 4.87067 -1.07549 0
M  V30 5885 H 541.612 5.98392 1.00058 0
M  V30 5886 H 540.351 4.73174 1.18143 0
M  V30 5887 H 539.356 5.40182 -1.02388 0
M  V30 5888 H 540.581 6.68571 -1.1912 0
M  V30 5889 H 538.527 6.47655 1.04305 0
M  V30 5890 H 538.444 7.55355 -0.3123 0
M  V30 5891 H 539.712 7.74731 0.86098 0
M  V30 5892 N 543.941 0.601185 1.45683 0
M  V30 5893 C 544.873 -0.159446 2.28645 0
M  V30 5894 C 545.886 -0.837882 1.39583 0
M  V30 5895 O 547.075 -0.704344 1.64016 0
M  V30 5896 C 544.175 -1.24641 3.15147 0
M  V30 5897 C 543.348 -0.656334 4.32448 0
M  V30 5898 C 542.407 -1.63337 5.00208 0
M  V30 5899 O 541.433 -1.16217 5.57209 0
M  V30 5900 N 542.635 -2.96773 4.98905 0
M  V30 5901 H 545.4 0.5524 2.94565 0
M  V30 5902 H 542.961 0.440223 1.558 0
M  V30 5903 H 544.953 -1.8997 3.57342 0
M  V30 5904 H 543.523 -1.86087 2.51178 0
M  V30 5905 H 542.743 0.174879 3.93812 0
M  V30 5906 H 544.031 -0.242211 5.08223 0
M  V30 5907 H 543.429 -3.37662 4.53873 0
M  V30 5908 H 541.986 -3.57541 5.44984 0
M  V30 5909 N 545.419 -1.53889 0.339982 0
M  V30 5910 C 546.329 -2.28604 -0.526988 0
M  V30 5911 C 547.345 -1.33578 -1.11503 0
M  V30 5912 O 548.521 -1.66612 -1.13148 0
M  V30 5913 C 545.586 -3.04164 -1.66389 0
M  V30 5914 C 544.647 -4.14809 -1.10599 0
M  V30 5915 C 543.88 -4.86756 -2.18871 0
M  V30 5916 O 544.103 -4.58343 -3.39526 0
M  V30 5917 O 543.037 -5.73289 -1.83366 0
M  V30 5918 H 546.863 -3.03594 0.0802707 0
M  V30 5919 H 544.448 -1.4903 0.105141 0
M  V30 5920 H 546.33 -3.51427 -2.32544 0
M  V30 5921 H 545.005 -2.32035 -2.25703 0
M  V30 5922 H 543.912 -3.71857 -0.409067 0
M  V30 5923 H 545.245 -4.89029 -0.557771 0
M  V30 5924 N 546.897 -0.0685191 -1.57451 0
M  V30 5925 C 548.145 0.60016 -1.92983 0
M  V30 5926 C 548.466 1.70348 -0.949028 0
M  V30 5927 O 547.736 1.959 0.00335647 0
M  V30 5928 H 546.316 0.224682 -0.712409 0
M  V30 5929 H 548.978 -0.125605 -1.94495 0
M  V30 5930 H 548.074 1.02759 -2.94698 0
M  V30 5931 N 548.375 1.56261 0.205012 0
M  V30 5932 C 549.307 1.90266 1.27795 0
M  V30 5933 C 550.32 0.792397 1.42214 0
M  V30 5934 O 551.509 1.07077 1.42817 0
M  V30 5935 C 548.609 2.11074 2.65143 0
M  V30 5936 C 547.782 3.42176 2.7246 0
M  V30 5937 C 546.841 3.52216 3.90936 0
M  V30 5938 O 545.867 4.25119 3.78501 0
M  V30 5939 N 547.069 2.84573 5.05963 0
M  V30 5940 H 549.834 2.82896 0.989434 0
M  V30 5941 H 547.395 1.57008 0.394981 0
M  V30 5942 H 549.387 2.15089 3.4281 0
M  V30 5943 H 547.957 1.2499 2.86524 0
M  V30 5944 H 547.177 3.50116 1.81142 0
M  V30 5945 H 548.465 4.28509 2.74331 0
M  V30 5946 H 547.863 2.25152 5.18963 0
M  V30 5947 H 546.42 2.94228 5.81613 0
M  V30 5948 N 549.853 -0.472356 1.50355 0
M  V30 5949 C 550.783 -1.57859 1.72055 0
M  V30 5950 C 551.764 -1.60283 0.569505 0
M  V30 5951 O 552.949 -1.7657 0.808503 0
M  V30 5952 C 550.079 -2.96191 1.81351 0
M  V30 5953 C 549.033 -3.08633 2.96529 0
M  V30 5954 C 548.359 -4.486 2.90968 0
M  V30 5955 C 549.659 -2.85969 4.37057 0
M  V30 5956 H 551.353 -1.39953 2.64676 0
M  V30 5957 H 548.899 -0.671846 1.27367 0
M  V30 5958 H 550.852 -3.73507 1.95117 0
M  V30 5959 H 549.576 -3.15251 0.853502 0
M  V30 5960 H 548.235 -2.33749 2.82413 0
M  V30 5961 H 547.883 -4.64577 1.92815 0
M  V30 5962 H 547.583 -4.57861 3.68289 0
M  V30 5963 H 549.107 -5.27938 3.0678 0
M  V30 5964 H 550.521 -3.53036 4.51706 0
M  V30 5965 H 548.918 -3.06677 5.15819 0
M  V30 5966 H 549.988 -1.81838 4.49514 0
M  V30 5967 N 551.331 -1.39911 -0.725443 0
M  V30 5968 C 552.747 -1.21725 -1.03224 0
M  V30 5969 C 552.947 -0.0855224 -2.01318 0
M  V30 5970 O 552.003 0.55976 -2.46217 0
M  V30 5971 C 553.316 -2.55511 -1.58539 0
M  V30 5972 C 554.864 -2.62439 -1.70572 0
M  V30 5973 C 555.339 -3.9647 -2.29294 0
M  V30 5974 N 556.83 -3.98159 -2.36692 0
M  V30 5975 C 557.565 -4.98647 -2.83088 0
M  V30 5976 N 557.061 -6.0953 -3.2931 0
M  V30 5977 N 558.854 -4.8602 -2.82384 0
M  V30 5978 H 551.005 -2.12267 -0.075048 0
M  V30 5979 H 553.268 -0.943136 -0.0959066 0
M  V30 5980 H 552.974 -3.38926 -0.939249 0
M  V30 5981 H 552.848 -2.75905 -2.57208 0
M  V30 5982 H 555.235 -1.79401 -2.34306 0
M  V30 5983 H 555.316 -2.45885 -0.705297 0
M  V30 5984 H 554.96 -4.79942 -1.66186 0
M  V30 5985 H 554.89 -4.10349 -3.30032 0
M  V30 5986 H 557.381 -3.18085 -2.04035 0
M  V30 5987 H 557.694 -6.82106 -3.6325 0
M  V30 5988 H 556.039 -6.1311 -3.27294 0
M  V30 5989 H 559.23 -3.98493 -2.45603 0
M  V30 5990 H 559.403 -5.64478 -3.18226 0
M  V30 5991 N 552.809 0.956637 -1.25245 0
M  V30 5992 C 553.772 2.03457 -1.05537 0
M  V30 5993 C 554.772 1.60798 -0.00886317 0
M  V30 5994 O 555.962 1.72384 -0.250865 0
M  V30 5995 C 553.094 3.35543 -0.601965 0
M  V30 5996 H 554.287 2.22372 -2.01223 0
M  V30 5997 H 551.84 1.13344 -1.07623 0
M  V30 5998 H 552.575 3.22323 0.357584 0
M  V30 5999 H 552.36 3.67854 -1.35743 0
M  V30 6000 H 553.85 4.14769 -0.485454 0
M  V30 6001 N 554.287 1.06798 1.15896 0
M  V30 6002 C 555.517 0.807522 1.90165 0
M  V30 6003 C 555.925 -0.642417 1.7796 0
M  V30 6004 O 555.268 -1.45193 1.12537 0
M  V30 6005 C 555.33 1.12939 3.41299 0
M  V30 6006 C 554.994 2.57879 3.7729 0
M  V30 6007 C 555.991 3.56118 3.78782 0
M  V30 6008 C 553.676 2.93311 4.07767 0
M  V30 6009 C 555.67 4.87827 4.10248 0
M  V30 6010 C 553.357 4.25219 4.38899 0
M  V30 6011 C 554.355 5.22287 4.4012 0
M  V30 6012 O 554.043 6.51826 4.70508 0
M  V30 6013 H 553.775 0.291946 0.609708 0
M  V30 6014 H 556.329 1.42627 1.47806 0
M  V30 6015 H 554.559 0.45359 3.84031 0
M  V30 6016 H 556.248 0.852363 3.9685 0
M  V30 6017 H 557.014 3.30086 3.55342 0
M  V30 6018 H 552.893 2.18409 4.05979 0
M  V30 6019 H 556.437 5.63586 4.11116 0
M  V30 6020 H 552.334 4.51006 4.61805 0
M  V30 6021 H 553.102 6.56893 4.88298 0
M  V30 6022 N 555.766 -1.3263 0.851289 0
M  V30 6023 C 557.014 -1.96978 0.452128 0
M  V30 6024 C 557.335 -1.67715 -0.99482 0
M  V30 6025 O 556.605 -0.98259 -1.69476 0
M  V30 6026 H 555.185 -0.72873 0.164202 0
M  V30 6027 H 557.847 -1.61774 1.08698 0
M  V30 6028 H 556.943 -3.06387 0.594407 0
M  V30 6029 N 557.244 -0.608902 -1.45362 0
M  V30 6030 C 558.207 0.0992563 -2.28985 0
M  V30 6031 C 559.207 0.793841 -1.39838 0
M  V30 6032 O 560.397 0.641804 -1.61946 0
M  V30 6033 C 557.529 1.15073 -3.20891 0
M  V30 6034 H 558.722 -0.635964 -2.93079 0
M  V30 6035 H 556.275 -0.368007 -1.51906 0
M  V30 6036 H 557.01 1.91667 -2.616 0
M  V30 6037 H 556.795 0.656867 -3.86559 0
M  V30 6038 H 558.285 1.64665 -3.83765 0
M  V30 6039 N 558.722 1.53707 -0.348139 0
M  V30 6040 C 559.97 2.00591 0.246478 0
M  V30 6041 C 560.291 1.23753 1.50699 0
M  V30 6042 O 559.561 0.345964 1.92821 0
M  V30 6043 H 558.141 0.741053 0.0940679 0
M  V30 6044 H 560.803 1.89139 -0.470354 0
M  V30 6045 H 559.899 3.08297 0.485714 0
M  V30 6046 N 560.2 0.0768682 1.57412 0
M  V30 6047 C 561.13 -0.886026 2.16037 0
M  V30 6048 C 562.111 -1.30691 1.08876 0
M  V30 6049 O 563.296 -1.37705 1.36934 0
M  V30 6050 C 560.426 -2.1518 2.72608 0
M  V30 6051 C 559.38 -1.87015 3.8498 0
M  V30 6052 C 558.706 -3.20266 4.28175 0
M  V30 6053 C 560.006 -1.17143 5.08994 0
M  V30 6054 H 561.7 -0.397642 2.96748 0
M  V30 6055 H 559.246 -0.189823 1.42743 0
M  V30 6056 H 561.199 -2.82962 3.12266 0
M  V30 6057 H 559.923 -2.66269 1.89125 0
M  V30 6058 H 558.582 -1.21636 3.45833 0
M  V30 6059 H 558.23 -3.69207 3.41607 0
M  V30 6060 H 557.93 -3.0221 5.03927 0
M  V30 6061 H 559.454 -3.89237 4.70454 0
M  V30 6062 H 560.868 -1.75003 5.45937 0
M  V30 6063 H 559.265 -1.09328 5.90057 0
M  V30 6064 H 560.335 -0.151295 4.84664 0
M  V30 6065 N 561.678 -1.56367 -0.196722 0
M  V30 6066 C 562.608 -1.97442 -1.24655 0
M  V30 6067 C 563.589 -0.846147 -1.47561 0
M  V30 6068 O 564.774 -1.11035 -1.59326 0
M  V30 6069 C 561.904 -2.31253 -2.59112 0
M  V30 6070 C 560.858 -3.46804 -2.50821 0
M  V30 6071 C 560.184 -3.66286 -3.89536 0
M  V30 6072 C 561.484 -4.8104 -2.03465 0
M  V30 6073 H 563.178 -2.85388 -0.905216 0
M  V30 6074 H 560.724 -1.37304 -0.434002 0
M  V30 6075 H 562.677 -2.58583 -3.32736 0
M  V30 6076 H 561.401 -1.40188 -2.94983 0
M  V30 6077 H 560.06 -3.19563 -1.79653 0
M  V30 6078 H 559.708 -2.72555 -4.22756 0
M  V30 6079 H 559.408 -4.4402 -3.84864 0
M  V30 6080 H 560.932 -3.9599 -4.64784 0
M  V30 6081 H 562.346 -5.07411 -2.66846 0
M  V30 6082 H 560.743 -5.62232 -2.09798 0
M  V30 6083 H 561.813 -4.74732 -0.98781 0
M  V30 6084 N 563.156 0.464375 -1.50603 0
M  V30 6085 C 564.381 1.24372 -1.65971 0
M  V30 6086 C 564.806 1.84901 -0.345453 0
M  V30 6087 O 564.164 1.67596 0.691457 0
M  V30 6088 C 564.212 2.32331 -2.7578 0
M  V30 6089 O 563.316 3.37146 -2.375 0
M  V30 6090 H 562.657 0.365604 -0.554283 0
M  V30 6091 H 565.187 0.55183 -1.97018 0
M  V30 6092 H 565.197 2.77539 -2.99059 0
M  V30 6093 H 563.872 1.87648 -3.71162 0
M  V30 6094 H 562.449 2.97602 -2.24694 0
M  V30 6095 N 564.634 1.40294 0.718013 0
M  V30 6096 C 565.859 1.41941 1.5122 0
M  V30 6097 C 566.284 0.0202371 1.88089 0
M  V30 6098 O 565.642 -0.971078 1.53101 0
M  V30 6099 C 565.69 2.3141 2.76554 0
M  V30 6100 O 564.794 1.75567 3.73162 0
M  V30 6101 H 564.135 0.482644 0.456016 0
M  V30 6102 H 566.665 1.84494 0.884478 0
M  V30 6103 H 566.675 2.46513 3.25108 0
M  V30 6104 H 565.35 3.33085 2.49053 0
M  V30 6105 H 563.927 1.69798 3.31999 0
M  V30 6106 N 566.112 -0.949982 1.2575 0
M  V30 6107 C 567.361 -1.68956 1.10168 0
M  V30 6108 C 567.674 -1.92327 -0.356309 0
M  V30 6109 O 568.88 -2.64026 -0.632657 0
M  V30 6110 C 567.336 -3.04196 1.92336 0
M  V30 6111 C 566.944 -2.88603 3.42655 0
M  V30 6112 C 568.688 -3.81904 1.85336 0
M  V30 6113 C 566.595 -4.19262 4.17101 0
M  V30 6114 H 565.525 -0.633645 0.408668 0
M  V30 6115 H 568.176 -1.05719 1.49986 0
M  V30 6116 H 566.558 -3.68363 1.45344 0
M  V30 6117 H 567.732 -2.3334 3.97353 0
M  V30 6118 H 566.047 -2.24345 3.50796 0
M  V30 6119 H 568.644 -4.78688 2.38248 0
M  V30 6120 H 568.987 -4.08099 0.822226 0
M  V30 6121 H 569.52 -3.24495 2.30104 0
M  V30 6122 H 566.259 -3.98254 5.20648 0
M  V30 6123 H 565.779 -4.74273 3.67186 0
M  V30 6124 H 567.458 -4.87775 4.25071 0
M  V30 6125 N 567.59 -1.07411 -1.15328 0
M  V30 6126 C 568.838 -0.796073 -1.85761 0
M  V30 6127 C 569.159 0.679864 -1.82764 0
M  V30 6128 O 568.429 1.49242 -1.269 0
M  V30 6129 H 567.009 -0.291495 -0.687779 0
M  V30 6130 H 569.671 -1.35799 -1.39802 0
M  V30 6131 H 568.767 -1.13114 -2.90881 0
M  V30 6132 N 569.068 1.32177 -0.85831 0
M  V30 6133 C 569.978 2.32561 -0.308606 0
M  V30 6134 C 570.994 1.64209 0.575462 0
M  V30 6135 O 572.17 1.95719 0.474961 0
M  V30 6136 C 569.235 3.43207 0.490909 0
M  V30 6137 C 568.296 4.27243 -0.419733 0
M  V30 6138 C 567.529 5.32605 0.341719 0
M  V30 6139 O 567.752 5.48332 1.57125 0
M  V30 6140 O 566.686 6.0118 -0.294379 0
M  V30 6141 H 570.512 2.81477 -1.14037 0
M  V30 6142 H 568.097 1.35866 -0.621349 0
M  V30 6143 H 569.979 4.10677 0.944574 0
M  V30 6144 H 568.654 2.96474 1.29941 0
M  V30 6145 H 567.561 3.62569 -0.921652 0
M  V30 6146 H 568.894 4.7751 -1.19352 0
M  V30 6147 N 570.547 0.616602 1.45037 0
M  V30 6148 C 571.477 -0.0840787 2.33349 0
M  V30 6149 C 572.458 -0.849641 1.4736 0
M  V30 6150 O 573.643 -0.818407 1.76113 0
M  V30 6151 C 570.773 -1.07604 3.3021 0
M  V30 6152 C 569.727 -0.423096 4.25904 0
M  V30 6153 C 569.053 -1.52394 5.12523 0
M  V30 6154 C 570.353 0.661457 5.18095 0
M  V30 6155 H 572.047 0.653333 2.92185 0
M  V30 6156 H 569.593 0.315634 1.40498 0
M  V30 6157 H 571.546 -1.57485 3.90866 0
M  V30 6158 H 570.27 -1.84416 2.69552 0
M  V30 6159 H 568.929 0.05493 3.66559 0
M  V30 6160 H 568.577 -2.28257 4.48227 0
M  V30 6161 H 568.277 -1.09251 5.77354 0
M  V30 6162 H 569.801 -2.02485 5.76049 0
M  V30 6163 H 571.215 0.246353 5.7277 0
M  V30 6164 H 569.612 1.01517 5.91451 0
M  V30 6165 H 570.682 1.53446 4.59981 0
M  V30 6166 N 572.025 -1.5352 0.356285 0
M  V30 6167 C 572.972 -2.25439 -0.494569 0
M  V30 6168 C 573.942 -1.25752 -1.08516 0
M  V30 6169 O 575.127 -1.54513 -1.1194 0
M  V30 6170 C 572.267 -3.04011 -1.63313 0
M  V30 6171 C 571.38 -4.18574 -1.06862 0
M  V30 6172 C 570.515 -4.84607 -2.17552 0
M  V30 6173 C 569.554 -5.91218 -1.58518 0
M  V30 6174 N 568.691 -6.50979 -2.63003 0
M  V30 6175 H 573.531 -2.97737 0.125244 0
M  V30 6176 H 571.068 -1.46916 0.0735789 0
M  V30 6177 H 573.026 -3.47834 -2.30363 0
M  V30 6178 H 571.656 -2.33986 -2.22374 0
M  V30 6179 H 570.708 -3.79303 -0.288672 0
M  V30 6180 H 572.02 -4.95215 -0.596924 0
M  V30 6181 H 571.174 -5.31566 -2.92442 0
M  V30 6182 H 569.913 -4.07418 -2.6807 0
M  V30 6183 H 568.918 -5.4363 -0.821391 0
M  V30 6184 H 570.143 -6.70322 -1.08836 0
M  V30 6185 H 568.089 -5.76648 -3.12751 0
M  V30 6186 H 568.006 -7.23131 -2.20493 0
M  V30 6187 H 569.274 -7.02589 -3.37623 0
M  V30 6188 N 573.503 -0.0852151 -1.57369 0
M  V30 6189 C 574.453 0.88767 -2.10011 0
M  V30 6190 C 575.437 1.25021 -1.01285 0
M  V30 6191 O 576.629 1.22694 -1.27574 0
M  V30 6192 C 573.758 2.15037 -2.67608 0
M  V30 6193 C 572.844 1.81371 -3.83361 0
M  V30 6194 N 573.235 1.18216 -4.91791 0
M  V30 6195 C 571.533 2.11041 -3.92909 0
M  V30 6196 C 572.234 1.02941 -5.72519 0
M  V30 6197 N 571.21 1.54351 -5.21226 0
M  V30 6198 H 575.012 0.395279 -2.9123 0
M  V30 6199 H 572.526 0.11829 -1.61969 0
M  V30 6200 H 574.523 2.85667 -3.03644 0
M  V30 6201 H 573.183 2.64851 -1.8784 0
M  V30 6202 H 574.194 0.850168 -5.10874 0
M  V30 6203 H 570.871 2.63138 -3.24136 0
M  V30 6204 H 572.261 0.536298 -6.69756 0
M  V30 6205 N 574.981 1.5647 0.188427 0
M  V30 6206 C 575.944 1.9421 1.21718 0
M  V30 6207 C 576.944 0.823901 1.38089 0
M  V30 6208 O 578.134 1.09122 1.35787 0
M  V30 6209 C 575.266 2.22197 2.58537 0
M  V30 6210 H 576.459 2.86252 0.894418 0
M  V30 6211 H 574.012 1.50263 0.430211 0
M  V30 6212 H 574.747 1.32814 2.95856 0
M  V30 6213 H 574.532 3.03688 2.48025 0
M  V30 6214 H 576.022 2.52376 3.3271 0
M  V30 6215 N 576.459 -0.456382 1.50847 0
M  V30 6216 C 577.389 -1.56025 1.73719 0
M  V30 6217 C 578.37 -1.5967 0.586473 0
M  V30 6218 O 579.555 -1.75702 0.827185 0
M  V30 6219 C 576.685 -2.94251 1.84483 0
M  V30 6220 C 575.639 -3.05471 2.99786 0
M  V30 6221 C 574.965 -4.45489 2.95709 0
M  V30 6222 C 576.265 -2.81318 4.40065 0
M  V30 6223 H 577.959 -1.37138 2.66146 0
M  V30 6224 H 575.505 -0.658299 1.28072 0
M  V30 6225 H 577.458 -3.71417 1.99067 0
M  V30 6226 H 576.182 -3.14328 0.886891 0
M  V30 6227 H 574.841 -2.30741 2.84876 0
M  V30 6228 H 574.489 -4.62505 1.97732 0
M  V30 6229 H 574.189 -4.53929 3.73125 0
M  V30 6230 H 575.713 -5.24655 3.12362 0
M  V30 6231 H 577.127 -3.48226 4.55425 0
M  V30 6232 H 575.524 -3.01188 5.19043 0
M  V30 6233 H 576.594 -1.7706 4.51418 0
M  V30 6234 N 577.937 -1.40673 -0.710563 0
M  V30 6235 C 579.162 -1.42741 -1.50465 0
M  V30 6236 C 579.587 -0.0302116 -1.88076 0
M  V30 6237 O 578.945 0.962945 -1.53613 0
M  V30 6238 C 578.993 -2.32873 -2.75322 0
M  V30 6239 O 578.097 -1.77544 -3.72226 0
M  V30 6240 H 577.438 -0.485056 -0.45345 0
M  V30 6241 H 579.968 -1.84961 -0.874681 0
M  V30 6242 H 579.978 -2.48233 -3.23797 0
M  V30 6243 H 578.653 -3.34401 -2.47283 0
M  V30 6244 H 577.23 -1.71556 -3.31093 0
M  V30 6245 N 579.415 0.9433 -1.26252 0
M  V30 6246 C 580.692 1.66639 -1.02424 0
M  V30 6247 C 581.072 2.06335 0.446006 0
M  V30 6248 O 580.42 1.78551 1.42589 0
M  V30 6249 C 580.63 2.88019 -1.97094 0
M  V30 6250 C 581.978 3.59718 -2.25584 0
M  V30 6251 O 583.002 2.9812 -1.94943 0
M  V30 6252 O 581.861 4.7066 -2.77743 0
M  V30 6253 H 578.955 0.729643 -0.389294 0
M  V30 6254 H 581.501 0.995218 -1.37454 0
M  V30 6255 H 580.273 2.5556 -2.96319 0
M  V30 6256 H 579.896 3.62863 -1.62532 0
M  V30 6257 N 580.893 1.08022 1.14757 0
M  V30 6258 C 581.84 0.706657 2.19716 0
M  V30 6259 C 582.81 -0.30525 1.63271 0
M  V30 6260 O 583.995 -0.19015 1.8985 0
M  V30 6261 C 581.135 0.117914 3.44898 0
M  V30 6262 C 580.248 1.18212 4.15512 0
M  V30 6263 C 579.383 0.557659 5.28265 0
M  V30 6264 C 578.422 1.60418 5.90705 0
M  V30 6265 N 577.559 1.0018 6.94916 0
M  V30 6266 H 582.399 1.60603 2.51019 0
M  V30 6267 H 579.936 0.802664 1.23271 0
M  V30 6268 H 581.894 -0.241112 4.16503 0
M  V30 6269 H 580.524 -0.744788 3.1409 0
M  V30 6270 H 579.576 1.65863 3.42335 0
M  V30 6271 H 580.888 1.97533 4.5802 0
M  V30 6272 H 580.042 0.146654 6.06523 0
M  V30 6273 H 578.781 -0.267249 4.86967 0
M  V30 6274 H 577.786 2.02489 5.11154 0
M  V30 6275 H 579.011 2.43149 6.34078 0
M  V30 6276 H 576.957 0.197917 6.55701 0
M  V30 6277 H 576.874 1.73216 7.35889 0
M  V30 6278 H 578.142 0.616523 7.77058 0
M  V30 6279 N 582.371 -1.3172 0.865308 0
M  V30 6280 C 583.334 -2.26918 0.322627 0
M  V30 6281 C 584.334 -1.52031 -0.523751 0
M  V30 6282 O 585.524 -1.70973 -0.333727 0
M  V30 6283 C 582.656 -3.36558 -0.542338 0
M  V30 6284 H 583.849 -2.76432 1.16298 0
M  V30 6285 H 581.402 -1.42573 0.640512 0
M  V30 6286 H 582.137 -2.92329 -1.40407 0
M  V30 6287 H 581.922 -3.92048 0.0636395 0
M  V30 6288 H 583.412 -4.07465 -0.91446 0
M  V30 6289 N 583.85 -0.624285 -1.44708 0
M  V30 6290 C 585.09 -0.129273 -2.03991 0
M  V30 6291 C 585.454 1.22321 -1.47992 0
M  V30 6292 O 586.654 1.80993 -1.98734 0
M  V30 6293 C 584.926 -0.108231 -3.57236 0
M  V30 6294 S 586.485 0.323158 -4.37608 0
M  V30 6295 H 583.303 -0.0577318 -0.708652 0
M  V30 6296 H 585.904 -0.826139 -1.77187 0
M  V30 6297 H 584.609 -1.0958 -3.955 0
M  V30 6298 H 584.139 0.610101 -3.8864 0
M  V30 6299 H 586.154 1.56894 -4.70743 0
M  V30 6300 N 585.328 1.53329 -0.364422 0
M  V30 6301 C 586.574 2.01537 0.225969 0
M  V30 6302 C 586.907 1.25128 1.48515 0
M  V30 6303 O 586.182 0.344653 1.91422 0
M  V30 6304 C 586.465 3.56339 0.519092 0
M  V30 6305 C 586.318 4.43441 -0.753639 0
M  V30 6306 C 587.637 4.19833 1.32015 0
M  V30 6307 H 584.756 0.732573 0.0806548 0
M  V30 6308 H 587.398 1.83597 -0.489084 0
M  V30 6309 H 585.548 3.71756 1.12825 0
M  V30 6310 H 587.22 4.39823 -1.39116 0
M  V30 6311 H 585.463 4.11457 -1.37424 0
M  V30 6312 H 586.134 5.49699 -0.503517 0
M  V30 6313 H 588.61 4.08242 0.804859 0
M  V30 6314 H 587.486 5.28177 1.49399 0
M  V30 6315 H 587.747 3.75821 2.32832 0
M  V30 6316 N 586.806 0.0935595 1.57322 0
M  V30 6317 C 587.753 -0.865935 2.1394 0
M  V30 6318 C 588.723 -1.28083 1.05754 0
M  V30 6319 O 589.908 -1.36285 1.33533 0
M  V30 6320 C 587.048 -2.12023 2.72287 0
M  V30 6321 C 586.161 -1.756 3.94701 0
M  V30 6322 C 585.296 -2.95804 4.41218 0
M  V30 6323 C 584.335 -2.555 5.56225 0
M  V30 6324 N 583.472 -3.68534 5.97601 0
M  V30 6325 H 588.312 -0.376261 2.95615 0
M  V30 6326 H 585.849 -0.174052 1.46067 0
M  V30 6327 H 587.807 -2.85477 3.04235 0
M  V30 6328 H 586.437 -2.58492 1.93343 0
M  V30 6329 H 585.489 -0.921208 3.69077 0
M  V30 6330 H 586.801 -1.41964 4.78171 0
M  V30 6331 H 585.955 -3.77513 4.74941 0
M  V30 6332 H 584.694 -3.32649 3.56645 0
M  V30 6333 H 583.699 -1.72218 5.22131 0
M  V30 6334 H 584.924 -2.19801 6.42545 0
M  V30 6335 H 582.87 -4.051 5.15974 0
M  V30 6336 H 582.787 -3.38737 6.75865 0
M  V30 6337 H 584.055 -4.50757 6.35955 0
M  V30 6338 N 588.284 -1.56567 -0.180126 0
M  V30 6339 C 589.247 -1.94852 -1.20686 0
M  V30 6340 C 590.247 -0.831212 -1.3765 0
M  V30 6341 O 591.437 -1.09841 -1.35206 0
M  V30 6342 C 588.569 -2.23565 -2.57355 0
M  V30 6343 H 589.762 -2.86722 -0.879225 0
M  V30 6344 H 587.315 -1.50489 -0.422237 0
M  V30 6345 H 588.05 -1.34381 -2.95148 0
M  V30 6346 H 587.835 -3.04999 -2.46411 0
M  V30 6347 H 589.325 -2.54137 -3.31367 0
M  V30 6348 N 589.762 0.448376 -1.51087 0
M  V30 6349 C 591.009 1.19872 -1.63209 0
M  V30 6350 C 591.337 1.91451 -0.343062 0
M  V30 6351 O 590.592 1.83789 0.672321 0
M  V30 6352 C 590.891 2.24866 -2.77795 0
M  V30 6353 C 590.557 1.70378 -4.17471 0
M  V30 6354 C 589.219 1.55241 -4.55471 0
M  V30 6355 C 591.571 1.30203 -5.04675 0
M  V30 6356 C 588.899 0.983844 -5.78392 0
M  V30 6357 C 591.251 0.747798 -6.28165 0
M  V30 6358 C 589.915 0.583233 -6.64947 0
M  V30 6359 H 589.185 0.438642 -0.597222 0
M  V30 6360 H 591.832 0.49136 -1.85089 0
M  V30 6361 H 590.137 3.01598 -2.50092 0
M  V30 6362 H 591.834 2.82723 -2.84374 0
M  V30 6363 H 588.424 1.83134 -3.87505 0
M  V30 6364 H 592.608 1.40723 -4.75932 0
M  V30 6365 H 587.864 0.844007 -6.05546 0
M  V30 6366 H 592.038 0.427927 -6.95084 0
M  V30 6367 H 589.665 0.140532 -7.6007 0
M  V30 6368 N 591.24 1.41047 0.703093 0
M  V30 6369 C 592.517 1.30493 1.45708 0
M  V30 6370 C 592.897 -0.0709892 2.10981 0
M  V30 6371 O 592.245 -1.08471 2.01113 0
M  V30 6372 C 592.455 2.45287 2.48265 0
M  V30 6373 C 593.803 2.86104 3.13735 0
M  V30 6374 O 594.827 2.44971 2.58587 0
M  V30 6375 O 593.686 3.57206 4.13601 0
M  V30 6376 H 590.78 0.513144 0.648546 0
M  V30 6377 H 593.326 1.52995 0.734208 0
M  V30 6378 H 592.098 3.37135 1.98635 0
M  V30 6379 H 591.721 2.24622 3.28071 0
M  V30 6380 N 592.718 -0.936591 1.26751 0
M  V30 6381 C 594.129 -1.49816 1.1141 0
M  V30 6382 C 594.48 -1.9383 -0.304015 0
M  V30 6383 O 593.605 -1.80346 -1.196 0
M  V30 6384 C 594.2 -2.72271 2.01629 0
M  V30 6385 C 592.759 -3.2468 1.9042 0
M  V30 6386 C 591.906 -1.97444 1.94708 0
M  V30 6387 H 594.857 -0.751604 1.39773 0
M  V30 6388 H 594.878 -3.46741 1.56688 0
M  V30 6389 H 594.39 -2.40205 3.04833 0
M  V30 6390 H 592.491 -3.61525 0.901674 0
M  V30 6391 H 592.604 -3.91476 2.76195 0
M  V30 6392 H 590.968 -2.13545 1.38818 0
M  V30 6393 H 591.751 -1.67703 2.9955 0
M  V30 6394 N 594.196 -1.08629 -1.14182 0
M  V30 6395 C 595.143 -0.718299 -2.19338 0
M  V30 6396 C 596.113 0.296587 -1.63431 0
M  V30 6397 O 597.298 0.180079 -1.89948 0
M  V30 6398 C 594.438 -0.136203 -3.44831 0
M  V30 6399 C 593.551 -1.20414 -4.14879 0
M  V30 6400 C 592.686 -0.585666 -5.27962 0
M  V30 6401 C 591.725 -1.63548 -5.89846 0
M  V30 6402 N 590.862 -1.03864 -6.94375 0
M  V30 6403 H 595.702 -1.61932 -2.50164 0
M  V30 6404 H 593.239 -0.80919 -1.22844 0
M  V30 6405 H 595.197 0.219021 -4.16625 0
M  V30 6406 H 593.827 0.728121 -3.14481 0
M  V30 6407 H 592.879 -1.67676 -3.41451 0
M  V30 6408 H 594.191 -1.99959 -4.56966 0
M  V30 6409 H 593.345 -0.178818 -6.06436 0
M  V30 6410 H 592.084 0.24142 -4.87102 0
M  V30 6411 H 591.089 -2.05197 -5.10073 0
M  V30 6412 H 592.314 -2.46509 -6.3278 0
M  V30 6413 H 590.26 -0.232687 -6.55587 0
M  V30 6414 H 590.177 -1.77116 -7.3496 0
M  V30 6415 H 591.445 -0.657724 -7.7672 0
M  V30 6416 N 595.674 1.31259 -0.872281 0
M  V30 6417 C 596.902 2.00795 -0.498907 0
M  V30 6418 C 597.317 1.65464 0.909238 0
M  V30 6419 O 596.674 0.885073 1.59602 0
M  V30 6420 C 596.725 3.55625 -0.649092 0
M  V30 6421 O 596.446 3.89692 -2.00179 0
M  V30 6422 C 597.947 4.42434 -0.277034 0
M  V30 6423 H 595.167 0.642299 -0.194145 0
M  V30 6424 H 597.711 1.67438 -1.17408 0
M  V30 6425 H 595.866 3.87394 -0.0214402 0
M  V30 6426 H 596.28 4.84407 -2.01122 0
M  V30 6427 H 597.754 5.50299 -0.433064 0
M  V30 6428 H 598.231 4.32146 0.783989 0
M  V30 6429 H 598.837 4.16086 -0.880483 0
M  V30 6430 N 597.152 0.631951 1.44375 0
M  V30 6431 C 598.38 0.143867 2.06399 0
M  V30 6432 C 598.795 -1.18188 1.47231 0
M  V30 6433 O 598.152 -1.72511 0.595498 0
M  V30 6434 C 598.203 0.0238253 3.61492 0
M  V30 6435 O 597.924 1.29715 4.18456 0
M  V30 6436 C 599.425 -0.492856 4.40552 0
M  V30 6437 H 596.645 0.0800542 0.666207 0
M  V30 6438 H 599.189 0.866586 1.85231 0
M  V30 6439 H 597.344 -0.649338 3.81919 0
M  V30 6440 H 597.758 1.14252 5.11905 0
M  V30 6441 H 599.232 -0.525861 5.49489 0
M  V30 6442 H 599.709 -1.52006 4.12057 0
M  V30 6443 H 600.315 0.147085 4.25046 0
M  V30 6444 N 598.631 -1.53133 0.372548 0
M  V30 6445 C 599.871 -2.03267 -0.214943 0
M  V30 6446 C 600.235 -1.25362 -1.45425 0
M  V30 6447 O 601.436 -1.65536 -2.11781 0
M  V30 6448 C 599.707 -3.53985 -0.492897 0
M  V30 6449 S 601.266 -4.25977 -1.05307 0
M  V30 6450 H 598.084 -0.708289 -0.062029 0
M  V30 6451 H 600.686 -1.88539 0.517025 0
M  V30 6452 H 599.39 -4.08282 0.416442 0
M  V30 6453 H 598.921 -3.72887 -1.25375 0
M  V30 6454 H 600.936 -4.37731 -2.33679 0
M  V30 6455 N 600.109 -0.101901 -1.5727 0
M  V30 6456 C 601.039 0.851544 -2.17419 0
M  V30 6457 C 602.02 1.28942 -1.10941 0
M  V30 6458 O 603.205 1.35509 -1.39107 0
M  V30 6459 C 600.335 2.10816 -2.75996 0
M  V30 6460 C 599.289 1.80867 -3.87906 0
M  V30 6461 C 598.615 3.13413 -4.33216 0
M  V30 6462 C 599.915 1.0903 -5.10793 0
M  V30 6463 H 601.609 0.350381 -2.97343 0
M  V30 6464 H 599.155 0.16709 -1.43027 0
M  V30 6465 H 601.108 2.77959 -3.16729 0
M  V30 6466 H 599.832 2.63227 -1.93337 0
M  V30 6467 H 598.491 1.16119 -3.47724 0
M  V30 6468 H 598.139 3.63725 -3.47438 0
M  V30 6469 H 597.839 2.94155 -5.08671 0
M  V30 6470 H 599.363 3.81704 -4.76586 0
M  V30 6471 H 600.777 1.66295 -5.48652 0
M  V30 6472 H 599.174 0.99927 -5.91722 0
M  V30 6473 H 600.244 0.0741704 -4.84843 0
M  V30 6474 N 601.587 1.56661 0.17182 0
M  V30 6475 C 602.519 1.92934 1.2373 0
M  V30 6476 C 603.532 0.822385 1.40502 0
M  V30 6477 O 604.721 1.10083 1.40514 0
M  V30 6478 C 601.821 2.16651 2.60607 0
M  V30 6479 C 600.994 3.47878 2.6514 0
M  V30 6480 C 600.053 3.60429 3.83377 0
M  V30 6481 O 599.079 4.33051 3.69398 0
M  V30 6482 N 600.281 2.95241 4.99813 0
M  V30 6483 H 603.046 2.84931 0.929205 0
M  V30 6484 H 600.607 1.5781 0.361588 0
M  V30 6485 H 602.599 2.22312 3.38171 0
M  V30 6486 H 601.169 1.3104 2.83809 0
M  V30 6487 H 600.389 3.53879 1.73675 0
M  V30 6488 H 601.677 4.34232 2.6518 0
M  V30 6489 H 601.075 2.3611 5.14071 0
M  V30 6490 H 599.632 3.06499 5.75241 0
M  V30 6491 N 603.065 -0.440357 1.51323 0
M  V30 6492 C 603.975 -1.55955 1.75258 0
M  V30 6493 C 604.991 -1.61933 0.636687 0
M  V30 6494 O 606.167 -1.79231 0.918593 0
M  V30 6495 C 603.232 -2.9196 1.86977 0
M  V30 6496 C 602.293 -2.96122 3.10822 0
M  V30 6497 C 601.526 -4.2564 3.21973 0
M  V30 6498 O 601.749 -5.17851 2.39137 0
M  V30 6499 O 600.683 -4.36025 4.14929 0
M  V30 6500 H 604.509 -1.38673 2.70191 0
M  V30 6501 H 602.094 -0.623055 1.35788 0
M  V30 6502 H 603.976 -3.72682 1.96688 0
M  V30 6503 H 602.651 -3.09375 0.952307 0
M  V30 6504 H 601.558 -2.14366 3.06591 0
M  V30 6505 H 602.891 -2.83651 4.02247 0
M  V30 6506 N 604.543 -1.41418 -0.695603 0
M  V30 6507 C 605.783 -1.42241 -1.46788 0
M  V30 6508 C 606.147 -0.0300827 -1.91976 0
M  V30 6509 O 607.348 0.0868914 -2.6866 0
M  V30 6510 C 605.619 -2.4011 -2.6473 0
M  V30 6511 S 607.178 -2.59462 -3.53871 0
M  V30 6512 H 603.996 -0.503893 -0.50161 0
M  V30 6513 H 606.598 -1.77855 -0.811654 0
M  V30 6514 H 605.302 -3.40073 -2.29736 0
M  V30 6515 H 604.833 -2.05849 -3.35246 0
M  V30 6516 H 606.848 -1.862 -4.59939 0
M  V30 6517 N 606.021 0.929856 -1.27246 0
M  V30 6518 C 606.951 2.04722 -1.12299 0
M  V30 6519 C 607.932 1.70082 -0.0250464 0
M  V30 6520 O 609.117 1.93176 -0.199141 0
M  V30 6521 C 606.247 3.38721 -0.767145 0
M  V30 6522 C 605.201 3.87466 -1.81808 0
M  V30 6523 C 604.527 5.18246 -1.31626 0
M  V30 6524 C 605.827 4.11095 -3.22177 0
M  V30 6525 H 607.521 2.17485 -2.05769 0
M  V30 6526 H 605.067 1.04503 -0.990715 0
M  V30 6527 H 607.02 4.16366 -0.649413 0
M  V30 6528 H 605.744 3.25967 0.203259 0
M  V30 6529 H 604.403 3.12012 -1.92468 0
M  V30 6530 H 604.051 5.01881 -0.335378 0
M  V30 6531 H 603.751 5.51829 -2.01887 0
M  V30 6532 H 605.275 5.98462 -1.21143 0
M  V30 6533 H 606.689 4.79316 -3.1453 0
M  V30 6534 H 605.086 4.55982 -3.90129 0
M  V30 6535 H 606.156 3.16468 -3.67391 0
M  V30 6536 N 607.499 1.09233 1.13605 0
M  V30 6537 C 608.748 0.82205 1.84188 0
M  V30 6538 C 609.061 -0.654548 1.84323 0
M  V30 6539 O 610.267 -1.04029 2.50779 0
M  V30 6540 C 608.723 1.42066 3.30674 0
M  V30 6541 C 608.331 2.92965 3.38933 0
M  V30 6542 C 610.075 1.22924 4.06313 0
M  V30 6543 C 607.982 3.45922 4.79679 0
M  V30 6544 H 606.912 0.303854 0.690064 0
M  V30 6545 H 609.563 1.31479 1.28006 0
M  V30 6546 H 607.945 0.855613 3.86646 0
M  V30 6547 H 609.119 3.55679 2.92966 0
M  V30 6548 H 607.434 3.11118 2.76757 0
M  V30 6549 H 610.031 1.59945 5.10217 0
M  V30 6550 H 610.374 0.169726 4.15954 0
M  V30 6551 H 610.907 1.76168 3.56665 0
M  V30 6552 H 607.646 4.51484 4.75229 0
M  V30 6553 H 607.166 2.87971 5.26149 0
M  V30 6554 H 608.845 3.43009 5.48592 0
M  V30 6555 N 608.977 -1.30795 0.87923 0
M  V30 6556 C 610.205 -2.00527 0.509548 0
M  V30 6557 C 610.62 -1.65944 -0.90045 0
M  V30 6558 O 609.977 -0.893525 -1.5913 0
M  V30 6559 C 610.028 -3.55276 0.667943 0
M  V30 6560 O 609.749 -3.88625 2.02242 0
M  V30 6561 C 611.25 -4.4228 0.300494 0
M  V30 6562 H 608.47 -0.641261 0.197549 0
M  V30 6563 H 611.014 -1.66813 1.18295 0
M  V30 6564 H 609.169 -3.87377 0.0419843 0
M  V30 6565 H 609.583 -4.83334 2.03688 0
M  V30 6566 H 611.057 -5.50061 0.462242 0
M  V30 6567 H 611.534 -4.32556 -0.76106 0
M  V30 6568 H 612.14 -4.15613 0.902536 0
M  V30 6569 N 610.455 -0.639598 -1.44038 0
M  V30 6570 C 611.683 -0.154811 -2.0632 0
M  V30 6571 C 612.098 1.17406 -1.47856 0
M  V30 6572 O 611.455 1.72193 -0.604638 0
M  V30 6573 C 611.506 -0.0429958 -3.61474 0
M  V30 6574 O 611.227 -1.31932 -4.17763 0
M  V30 6575 C 612.728 0.469486 -4.40807 0
M  V30 6576 H 609.948 -0.0835862 -0.665773 0
M  V30 6577 H 612.492 -0.876397 -1.84769 0
M  V30 6578 H 610.647 0.629075 -3.82258 0
M  V30 6579 H 611.061 -1.16965 -5.11292 0
M  V30 6580 H 612.535 0.496712 -5.49761 0
M  V30 6581 H 613.012 1.49819 -4.12857 0
M  V30 6582 H 613.618 -0.169624 -4.24962 0
M  V30 6583 N 611.933 1.52934 -0.380664 0
M  V30 6584 C 613.18 2.01467 0.204278 0
M  V30 6585 C 613.508 1.26744 1.47533 0
M  V30 6586 O 612.763 0.353723 1.92477 0
M  V30 6587 C 613.062 3.5349 0.527199 0
M  V30 6588 C 612.728 4.46171 -0.651295 0
M  V30 6589 C 611.39 4.71227 -0.974619 0
M  V30 6590 C 613.742 5.00909 -1.44012 0
M  V30 6591 C 611.07 5.4827 -2.08847 0
M  V30 6592 C 613.422 5.7917 -2.5445 0
M  V30 6593 C 612.086 6.02507 -2.87301 0
M  V30 6594 H 611.356 0.73722 0.0747504 0
M  V30 6595 H 614.003 1.84411 -0.516234 0
M  V30 6596 H 612.308 3.68574 1.32892 0
M  V30 6597 H 614.005 3.88529 0.992283 0
M  V30 6598 H 610.595 4.26829 -0.389276 0
M  V30 6599 H 614.779 4.81485 -1.20357 0
M  V30 6600 H 610.035 5.64567 -2.34679 0
M  V30 6601 H 614.209 6.20588 -3.1598 0
M  V30 6602 H 611.836 6.61989 -3.7373 0
M  V30 6603 N 613.412 0.11024 1.57214 0
M  V30 6604 C 614.344 -0.873497 2.11902 0
M  V30 6605 C 615.357 -1.23588 1.05971 0
M  V30 6606 O 616.546 -1.18636 1.33371 0
M  V30 6607 C 613.646 -2.17805 2.59643 0
M  V30 6608 C 612.819 -1.98869 3.89576 0
M  V30 6609 C 611.878 -3.12974 4.23006 0
M  V30 6610 O 610.904 -2.86272 4.91973 0
M  V30 6611 N 612.106 -4.39167 3.79622 0
M  V30 6612 H 614.871 -0.406317 2.96933 0
M  V30 6613 H 612.432 -0.074437 1.61729 0
M  V30 6614 H 614.424 -2.93117 2.79042 0
M  V30 6615 H 612.994 -2.55899 1.7954 0
M  V30 6616 H 612.214 -1.078 3.79174 0
M  V30 6617 H 613.502 -1.83512 4.74553 0
M  V30 6618 H 612.9 -4.63739 3.2398 0
M  V30 6619 H 611.457 -5.11379 4.04147 0
M  V30 6620 N 614.89 -1.56749 -0.16351 0
M  V30 6621 C 615.8 -2.00255 -1.2221 0
M  V30 6622 C 616.816 -0.915194 -1.47987 0
M  V30 6623 O 617.992 -1.22342 -1.59982 0
M  V30 6624 C 615.057 -2.36035 -2.53946 0
M  V30 6625 C 614.118 -3.58637 -2.35962 0
M  V30 6626 C 613.351 -3.92701 -3.61416 0
M  V30 6627 O 613.574 -3.27632 -4.66919 0
M  V30 6628 O 612.508 -4.86019 -3.55062 0
M  V30 6629 H 616.334 -2.90586 -0.882794 0
M  V30 6630 H 613.919 -1.44721 -0.370978 0
M  V30 6631 H 615.801 -2.59982 -3.31643 0
M  V30 6632 H 614.476 -1.48863 -2.8744 0
M  V30 6633 H 613.383 -3.39898 -1.5627 0
M  V30 6634 H 614.716 -4.46374 -2.0739 0
M  V30 6635 N 616.368 0.432326 -1.51554 0
M  V30 6636 C 617.331 1.50765 -1.72634 0
M  V30 6637 C 618.331 1.49334 -0.596314 0
M  V30 6638 O 619.521 1.51268 -0.863925 0
M  V30 6639 C 616.653 2.90284 -1.7874 0
M  V30 6640 H 617.846 1.33377 -2.68609 0
M  V30 6641 H 615.399 0.661329 -1.4162 0
M  V30 6642 H 616.134 3.13071 -0.845977 0
M  V30 6643 H 615.919 2.92727 -2.6087 0
M  V30 6644 H 617.409 3.68282 -1.96871 0
M  V30 6645 N 617.846 1.41785 0.688094 0
M  V30 6646 C 619.076 1.44705 1.47459 0
M  V30 6647 C 619.484 0.052916 1.89126 0
M  V30 6648 O 618.827 -0.939781 1.57841 0
M  V30 6649 C 618.889 2.29935 2.76352 0
M  V30 6650 C 618.553 3.77996 2.56843 0
M  V30 6651 C 619.55 4.69976 2.22304 0
M  V30 6652 C 617.235 4.2212 2.7225 0
M  V30 6653 C 619.229 6.04068 2.03421 0
M  V30 6654 C 616.916 5.56275 2.52985 0
M  V30 6655 C 617.914 6.47065 2.18621 0
M  V30 6656 O 617.602 7.78744 1.9953 0
M  V30 6657 H 617.334 0.494703 0.460701 0
M  V30 6658 H 619.888 1.86802 0.854057 0
M  V30 6659 H 618.118 1.82664 3.40839 0
M  V30 6660 H 619.807 2.24467 3.38186 0
M  V30 6661 H 620.573 4.37175 2.10008 0
M  V30 6662 H 616.452 3.51752 2.97979 0
M  V30 6663 H 619.996 6.74897 1.76523 0
M  V30 6664 H 615.893 5.88653 2.64873 0
M  V30 6665 H 616.661 7.89966 2.14234 0
M  V30 6666 N 619.324 -0.923095 1.27737 0
M  V30 6667 C 620.571 -1.67127 1.14345 0
M  V30 6668 C 620.899 -1.92017 -0.30982 0
M  V30 6669 O 620.154 -1.51185 -1.24264 0
M  V30 6670 C 620.453 -3.04125 1.8773 0
M  V30 6671 C 620.119 -2.98929 3.37568 0
M  V30 6672 C 618.781 -2.9722 3.78436 0
M  V30 6673 C 621.133 -2.89875 4.33154 0
M  V30 6674 C 618.461 -2.84244 5.13247 0
M  V30 6675 C 620.813 -2.7844 5.68026 0
M  V30 6676 C 619.477 -2.75083 6.08182 0
M  V30 6677 H 618.747 -0.611562 0.418417 0
M  V30 6678 H 621.394 -1.07618 1.584 0
M  V30 6679 H 619.699 -3.67366 1.36196 0
M  V30 6680 H 621.396 -3.609 1.74792 0
M  V30 6681 H 617.986 -3.0105 3.05069 0
M  V30 6682 H 622.17 -2.9029 4.02548 0
M  V30 6683 H 617.426 -2.80034 5.43499 0
M  V30 6684 H 621.6 -2.70401 6.4176 0
M  V30 6685 H 619.227 -2.64786 7.12596 0
M  V30 6686 N 620.802 -1.09834 -1.13024 0
M  V30 6687 C 622.048 -0.83819 -1.84668 0
M  V30 6688 C 622.381 0.634645 -1.83537 0
M  V30 6689 O 621.656 1.46753 -1.27647 0
M  V30 6690 C 621.939 -1.37933 -3.32636 0
M  V30 6691 C 621.792 -2.91857 -3.42257 0
M  V30 6692 C 623.111 -1.01654 -4.28199 0
M  V30 6693 H 620.23 -0.30595 -0.670495 0
M  V30 6694 H 622.872 -1.36044 -1.32635 0
M  V30 6695 H 621.022 -0.935111 -3.77078 0
M  V30 6696 H 622.694 -3.44759 -3.06495 0
M  V30 6697 H 620.937 -3.28776 -2.83 0
M  V30 6698 H 621.608 -3.24799 -4.46329 0
M  V30 6699 H 624.084 -1.39973 -3.9185 0
M  V30 6700 H 622.96 -1.42217 -5.30156 0
M  V30 6701 H 623.221 0.0747794 -4.42037 0
M  V30 6702 N 622.28 1.30327 -0.886154 0
M  V30 6703 C 623.505 2.0079 -0.519425 0
M  V30 6704 C 623.93 1.65979 0.885013 0
M  V30 6705 O 623.288 0.877043 1.58675 0
M  V30 6706 C 623.336 3.53686 -0.702758 0
M  V30 6707 O 622.44 4.11637 0.250828 0
M  V30 6708 H 621.781 0.63171 -0.204544 0
M  V30 6709 H 624.311 1.66145 -1.19402 0
M  V30 6710 H 624.321 4.03531 -0.602207 0
M  V30 6711 H 622.996 3.78361 -1.72673 0
M  V30 6712 H 621.573 3.72755 0.103873 0
M  V30 6713 N 623.758 0.647228 1.43697 0
M  V30 6714 C 624.668 -0.0487997 2.34549 0
M  V30 6715 C 625.684 -0.818586 1.53542 0
M  V30 6716 O 626.86 -0.767195 1.86215 0
M  V30 6717 C 623.925 -1.00734 3.31743 0
M  V30 6718 C 622.986 -0.23515 4.28655 0
M  V30 6719 C 622.219 -1.14803 5.21206 0
M  V30 6720 O 622.442 -2.38717 5.18045 0
M  V30 6721 O 621.376 -0.623667 5.9866 0
M  V30 6722 H 625.202 0.698863 2.9555 0
M  V30 6723 H 622.787 0.407412 1.43738 0
M  V30 6724 H 624.669 -1.55837 3.91526 0
M  V30 6725 H 623.344 -1.73534 2.73254 0
M  V30 6726 H 622.251 0.359319 3.7237 0
M  V30 6727 H 623.584 0.453152 4.9011 0
M  V30 6728 N 625.236 -1.5273 0.388769 0
M  V30 6729 C 626.461 -2.0647 -0.19621 0
M  V30 6730 C 626.886 -1.25865 -1.39784 0
M  V30 6731 O 626.244 -0.283562 -1.79069 0
M  V30 6732 C 626.292 -3.56456 -0.5451 0
M  V30 6733 O 625.396 -3.78426 -1.63912 0
M  V30 6734 H 624.737 -0.663599 -0.023067 0
M  V30 6735 H 627.267 -1.96898 0.556084 0
M  V30 6736 H 627.277 -3.99888 -0.809557 0
M  V30 6737 H 625.952 -4.14561 0.333417 0
M  V30 6738 H 624.529 -3.46884 -1.36842 0
M  V30 6739 N 626.714 -0.118576 -1.57153 0
M  V30 6740 C 627.961 0.539526 -1.9518 0
M  V30 6741 C 628.289 1.66714 -1.00184 0
M  V30 6742 O 627.544 1.95683 -0.0256482 0
M  V30 6743 C 627.843 1.11303 -3.39627 0
M  V30 6744 C 627.509 0.106809 -4.50773 0
M  V30 6745 C 626.171 -0.169876 -4.809 0
M  V30 6746 C 628.523 -0.57895 -5.17975 0
M  V30 6747 C 625.851 -1.13861 -5.75545 0
M  V30 6748 C 628.203 -1.53631 -6.13661 0
M  V30 6749 C 626.867 -1.82099 -6.42181 0
M  V30 6750 H 626.137 0.197427 -0.714215 0
M  V30 6751 H 628.784 -0.199391 -1.90459 0
M  V30 6752 H 627.089 1.92869 -3.4104 0
M  V30 6753 H 628.786 1.63032 -3.66363 0
M  V30 6754 H 625.376 0.332645 -4.27307 0
M  V30 6755 H 629.56 -0.378359 -4.94856 0
M  V30 6756 H 624.816 -1.36592 -5.95947 0
M  V30 6757 H 628.99 -2.07337 -6.64819 0
M  V30 6758 H 626.617 -2.57319 -7.15326 0
M  V30 6759 N 628.193 1.56834 0.155195 0
M  V30 6760 C 629.103 2.009 1.21146 0
M  V30 6761 C 630.119 0.923029 1.475 0
M  V30 6762 O 631.295 1.23189 1.59331 0
M  V30 6763 C 628.36 2.37378 2.52691 0
M  V30 6764 C 627.421 3.59883 2.34057 0
M  V30 6765 C 626.654 3.94612 3.59329 0
M  V30 6766 O 626.877 3.30104 4.65175 0
M  V30 6767 O 625.811 4.87895 3.52479 0
M  V30 6768 H 629.637 2.9105 0.867371 0
M  V30 6769 H 627.222 1.44916 0.363298 0
M  V30 6770 H 629.104 2.61737 3.3026 0
M  V30 6771 H 627.779 1.50385 2.86646 0
M  V30 6772 H 626.686 3.40722 1.54465 0
M  V30 6773 H 628.019 4.47468 2.0502 0
M  V30 6774 N 629.671 -0.424282 1.51781 0
M  V30 6775 C 630.581 -1.54087 1.76902 0
M  V30 6776 C 631.597 -1.61249 0.653826 0
M  V30 6777 O 632.773 -1.78247 0.937552 0
M  V30 6778 C 629.838 -2.8996 1.90063 0
M  V30 6779 C 628.899 -2.92809 3.13945 0
M  V30 6780 C 628.132 -4.22201 3.26469 0
M  V30 6781 O 628.355 -5.15286 2.44616 0
M  V30 6782 O 627.289 -4.31599 4.1953 0
M  V30 6783 H 631.115 -1.358 2.71647 0
M  V30 6784 H 628.7 -0.608618 1.36441 0
M  V30 6785 H 630.582 -3.70575 2.0063 0
M  V30 6786 H 629.257 -3.08347 0.985067 0
M  V30 6787 H 628.164 -2.11102 3.08847 0
M  V30 6788 H 629.497 -2.79369 4.05233 0
M  V30 6789 N 631.149 -1.42148 -0.680565 0
M  V30 6790 C 632.112 -1.4488 -1.77602 0
M  V30 6791 C 633.112 -0.337209 -1.57224 0
M  V30 6792 O 634.302 -0.597778 -1.63622 0
M  V30 6793 C 631.434 -1.27483 -3.16166 0
M  V30 6794 H 632.627 -2.42412 -1.76568 0
M  V30 6795 H 630.18 -1.28511 -0.889645 0
M  V30 6796 H 630.915 -0.30851 -3.22829 0
M  V30 6797 H 630.7 -2.08037 -3.3236 0
M  V30 6798 H 632.19 -1.32265 -3.96101 0
M  V30 6799 N 632.627 0.916307 -1.28225 0
M  V30 6800 C 633.574 2.01841 -1.11932 0
M  V30 6801 C 634.544 1.66091 -0.0171604 0
M  V30 6802 O 635.729 1.89934 -0.181617 0
M  V30 6803 C 632.869 3.36065 -0.784504 0
M  V30 6804 C 631.982 3.847 -1.96544 0
M  V30 6805 C 631.117 5.07423 -1.57149 0
M  V30 6806 C 630.156 5.48384 -2.71922 0
M  V30 6807 N 629.293 6.62298 -2.33037 0
M  V30 6808 H 634.133 2.1511 -2.06232 0
M  V30 6809 H 631.67 1.05366 -1.02647 0
M  V30 6810 H 633.628 4.13272 -0.571148 0
M  V30 6811 H 632.258 3.22571 0.121565 0
M  V30 6812 H 631.31 3.03673 -2.291 0
M  V30 6813 H 632.622 4.1102 -2.82603 0
M  V30 6814 H 631.776 5.92165 -1.32004 0
M  V30 6815 H 630.515 4.82906 -0.682153 0
M  V30 6816 H 629.52 4.62184 -2.97768 0
M  V30 6817 H 630.745 5.7489 -3.61494 0
M  V30 6818 H 628.691 6.39416 -1.4657 0
M  V30 6819 H 628.608 6.8833 -3.12631 0
M  V30 6820 H 629.876 7.50352 -2.11169 0
M  V30 6821 N 634.105 1.10431 1.1244 0
M  V30 6822 C 635.015 0.765502 2.21759 0
M  V30 6823 C 636.031 -0.236966 1.72379 0
M  V30 6824 O 637.207 -0.0757329 2.01258 0
M  V30 6825 C 634.272 0.202316 3.46109 0
M  V30 6826 C 633.333 1.26205 4.1033 0
M  V30 6827 C 632.566 0.725648 5.28744 0
M  V30 6828 O 632.789 -0.447942 5.68638 0
M  V30 6829 O 631.723 1.48555 5.83279 0
M  V30 6830 H 635.549 1.67801 2.53133 0
M  V30 6831 H 633.134 0.879443 1.20773 0
M  V30 6832 H 635.016 -0.107918 4.21262 0
M  V30 6833 H 633.691 -0.683052 3.16411 0
M  V30 6834 H 632.598 1.62514 3.36957 0
M  V30 6835 H 633.931 2.12044 4.44183 0
M  V30 6836 N 635.583 -1.29855 0.893053 0
M  V30 6837 C 636.53 -2.27909 0.364161 0
M  V30 6838 C 637.5 -1.56726 -0.550093 0
M  V30 6839 O 638.685 -1.84747 -0.47677 0
M  V30 6840 C 635.825 -3.42678 -0.408178 0
M  V30 6841 C 634.938 -4.28659 0.536212 0
M  V30 6842 C 634.073 -5.30599 -0.252521 0
M  V30 6843 C 633.112 -6.08234 0.686822 0
M  V30 6844 N 632.249 -7.02068 -0.0670902 0
M  V30 6845 H 637.089 -2.72531 1.20544 0
M  V30 6846 H 634.626 -1.34047 0.605779 0
M  V30 6847 H 636.584 -4.07986 -0.871962 0
M  V30 6848 H 635.214 -2.99103 -1.21397 0
M  V30 6849 H 634.266 -3.63584 1.1185 0
M  V30 6850 H 635.578 -4.8274 1.25552 0
M  V30 6851 H 634.732 -6.01694 -0.777801 0
M  V30 6852 H 633.471 -4.77233 -1.005 0
M  V30 6853 H 632.476 -5.3601 1.22366 0
M  V30 6854 H 633.701 -6.63689 1.43852 0
M  V30 6855 H 631.647 -6.5108 -0.801955 0
M  V30 6856 H 631.564 -7.53675 0.59243 0
M  V30 6857 H 632.832 -7.77392 -0.572851 0
M  V30 6858 N 637.061 -0.65484 -1.43351 0
M  V30 6859 C 637.994 0.0855537 -2.2804 0
M  V30 6860 C 638.972 0.828301 -1.39921 0
M  V30 6861 O 640.156 0.827539 -1.69364 0
M  V30 6862 C 637.283 1.12792 -3.19368 0
M  V30 6863 C 636.329 0.483037 -4.23756 0
M  V30 6864 S 637.162 -0.744605 -5.30298 0
M  V30 6865 C 638.318 0.297187 -6.25194 0
M  V30 6866 H 638.551 -0.632831 -2.90487 0
M  V30 6867 H 636.084 -0.44373 -1.47886 0
M  V30 6868 H 638.042 1.7243 -3.72529 0
M  V30 6869 H 636.703 1.81863 -2.56095 0
M  V30 6870 H 635.896 1.26888 -4.87766 0
M  V30 6871 H 635.498 -0.0392713 -3.73979 0
M  V30 6872 H 637.79 1.1629 -6.67445 0
M  V30 6873 H 638.733 -0.30793 -7.0743 0
M  V30 6874 H 639.141 0.633721 -5.60932 0
M  V30 6875 N 638.539 1.52521 -0.396863 0
M  V30 6876 C 639.955 1.5953 -0.0471659 0
M  V30 6877 C 640.155 1.41044 1.43906 0
M  V30 6878 O 639.211 1.23122 2.20448 0
M  V30 6879 C 640.524 2.95972 -0.531113 0
M  V30 6880 C 642.072 3.09172 -0.488024 0
M  V30 6881 C 642.547 4.48075 -0.948281 0
M  V30 6882 N 644.038 4.54281 -0.9046 0
M  V30 6883 C 644.773 5.60007 -1.23205 0
M  V30 6884 N 644.269 6.73343 -1.63036 0
M  V30 6885 N 646.062 5.50151 -1.15282 0
M  V30 6886 H 638.213 1.62786 -1.36435 0
M  V30 6887 H 640.476 0.76514 -0.559701 0
M  V30 6888 H 640.182 3.14741 -1.56942 0
M  V30 6889 H 640.056 3.77143 0.0657922 0
M  V30 6890 H 642.443 2.90095 0.541211 0
M  V30 6891 H 642.524 2.29937 -1.12083 0
M  V30 6892 H 642.168 4.67894 -1.97578 0
M  V30 6893 H 642.098 5.25788 -0.292412 0
M  V30 6894 H 644.589 3.72918 -0.6116 0
M  V30 6895 H 644.902 7.49992 -1.86365 0
M  V30 6896 H 643.247 6.74655 -1.66929 0
M  V30 6897 H 646.438 4.6049 -0.840602 0
M  V30 6898 H 646.611 6.32444 -1.41133 0
M  V30 6899 N 640.017 0.126909 1.57088 0
M  V30 6900 C 641.294 -0.573152 1.87014 0
M  V30 6901 C 641.674 -1.84297 1.02945 0
M  V30 6902 O 641.022 -2.28232 0.110573 0
M  V30 6903 C 641.232 -0.857984 3.38289 0
M  V30 6904 C 642.58 -1.20759 4.07066 0
M  V30 6905 O 643.604 -0.947992 3.43353 0
M  V30 6906 O 642.463 -1.69516 5.19545 0
M  V30 6907 H 639.557 -0.290082 0.774456 0
M  V30 6908 H 642.103 0.162008 1.68925 0
M  V30 6909 H 640.875 0.0415286 3.91278 0
M  V30 6910 H 640.498 -1.64803 3.61837 0
M  V30 6911 N 641.495 -1.56914 -0.146875 0
M  V30 6912 C 642.742 -1.83356 -0.859467 0
M  V30 6913 C 643.07 -0.707811 -1.81164 0
M  V30 6914 O 642.325 0.303155 -1.93338 0
M  V30 6915 C 642.624 -3.16128 -1.66727 0
M  V30 6916 C 642.29 -4.42586 -0.861881 0
M  V30 6917 C 640.952 -4.76929 -0.639687 0
M  V30 6918 C 643.304 -5.20344 -0.298643 0
M  V30 6919 C 640.632 -5.86491 0.156451 0
M  V30 6920 C 642.984 -6.30742 0.484536 0
M  V30 6921 C 641.648 -6.63635 0.717306 0
M  V30 6922 H 640.918 -0.670947 -0.314501 0
M  V30 6923 H 643.565 -1.91104 -0.123108 0
M  V30 6924 H 641.87 -3.03831 -2.47374 0
M  V30 6925 H 643.567 -3.33802 -2.2221 0
M  V30 6926 H 640.157 -4.15662 -1.04513 0
M  V30 6927 H 644.341 -4.94186 -0.457585 0
M  V30 6928 H 639.597 -6.10419 0.346292 0
M  V30 6929 H 643.771 -6.90188 0.928105 0
M  V30 6930 H 641.398 -7.48367 1.33607 0
M  V30 6931 N 642.974 0.416227 -1.52004 0
M  V30 6932 C 643.937 1.48926 -1.74223 0
M  V30 6933 C 644.937 1.48693 -0.612119 0
M  V30 6934 O 646.127 1.50343 -0.879921 0
M  V30 6935 C 643.259 2.88372 -1.81809 0
M  V30 6936 H 644.452 1.3052 -2.70008 0
M  V30 6937 H 642.005 0.646271 -1.42313 0
M  V30 6938 H 642.74 3.12157 -0.879135 0
M  V30 6939 H 642.525 2.89944 -2.6396 0
M  V30 6940 H 644.015 3.66173 -2.00766 0
M  V30 6941 N 644.452 1.42507 0.673017 0
M  V30 6942 C 645.399 1.46124 1.78651 0
M  V30 6943 C 646.369 0.313007 1.63124 0
M  V30 6944 O 647.554 0.517337 1.83653 0
M  V30 6945 C 644.694 1.3711 3.16694 0
M  V30 6946 C 643.807 2.61983 3.43495 0
M  V30 6947 C 642.942 2.45098 4.71275 0
M  V30 6948 C 641.981 3.65336 4.91117 0
M  V30 6949 N 641.118 3.47383 6.10139 0
M  V30 6950 H 645.958 2.4128 1.74895 0
M  V30 6951 H 643.495 1.19788 0.853766 0
M  V30 6952 H 645.453 1.29881 3.96468 0
M  V30 6953 H 644.083 0.45549 3.1957 0
M  V30 6954 H 643.135 2.79571 2.57961 0
M  V30 6955 H 644.447 3.51355 3.5405 0
M  V30 6956 H 643.601 2.35466 5.59143 0
M  V30 6957 H 642.34 1.53219 4.63007 0
M  V30 6958 H 641.345 3.754 4.0169 0
M  V30 6959 H 642.57 4.58199 5.01229 0
M  V30 6960 H 640.516 2.58222 6.0304 0
M  V30 6961 H 640.433 4.30344 6.21563 0
M  V30 6962 H 641.701 3.41565 7.00681 0
M  V30 6963 N 645.93 -0.909495 1.28709 0
M  V30 6964 C 647.155 -1.69801 1.1909 0
M  V30 6965 C 647.58 -1.86479 -0.246388 0
M  V30 6966 O 646.938 -1.37802 -1.17815 0
M  V30 6967 C 646.986 -3.06543 1.89904 0
M  V30 6968 O 646.09 -3.94268 1.2094 0
M  V30 6969 H 645.431 -0.519783 0.413185 0
M  V30 6970 H 647.961 -1.13689 1.70106 0
M  V30 6971 H 647.971 -3.56748 1.97977 0
M  V30 6972 H 646.646 -2.93722 2.94449 0
M  V30 6973 H 645.223 -3.52702 1.2106 0
M  V30 6974 N 647.408 -1.11026 -1.11852 0
M  V30 6975 C 648.657 -0.851249 -1.82857 0
M  V30 6976 C 648.97 0.62514 -1.85341 0
M  V30 6977 O 650.176 1.00026 -2.52403 0
M  V30 6978 C 648.632 -1.47309 -3.28372 0
M  V30 6979 C 648.24 -2.9832 -3.34229 0
M  V30 6980 C 649.984 -1.29373 -4.04306 0
M  V30 6981 C 647.891 -3.53509 -4.74115 0
M  V30 6982 H 646.821 -0.314794 -0.685143 0
M  V30 6983 H 649.472 -1.33499 -1.25898 0
M  V30 6984 H 647.854 -0.917017 -3.85236 0
M  V30 6985 H 649.028 -3.60295 -2.87271 0
M  V30 6986 H 647.343 -3.15482 -2.71772 0
M  V30 6987 H 649.94 -1.68042 -5.07608 0
M  V30 6988 H 650.283 -0.235879 -4.15631 0
M  V30 6989 H 650.816 -1.8182 -3.53817 0
M  V30 6990 H 647.555 -4.58987 -4.67986 0
M  V30 6991 H 647.075 -2.96305 -5.21501 0
M  V30 6992 H 648.754 -3.51693 -5.43066 0
M  V30 6993 N 648.886 1.2938 -0.899927 0
M  V30 6994 C 650.114 1.99691 -0.541386 0
M  V30 6995 C 650.529 1.67355 0.873936 0
M  V30 6996 O 649.886 0.918728 1.57688 0
M  V30 6997 C 649.937 3.54168 -0.72438 0
M  V30 6998 O 649.658 3.85359 -2.08399 0
M  V30 6999 C 651.159 4.41746 -0.370819 0
M  V30 7000 H 648.379 0.638037 -0.207726 0
M  V30 7001 H 650.923 1.6491 -1.20934 0
M  V30 7002 H 649.078 3.87261 -0.103607 0
M  V30 7003 H 649.492 4.80032 -2.11352 0
M  V30 7004 H 650.966 5.49256 -0.549693 0
M  V30 7005 H 651.443 4.33712 0.692148 0
M  V30 7006 H 652.049 4.14125 -0.968543 0
M  V30 7007 N 650.364 0.662433 1.43002 0
M  V30 7008 C 651.78 0.330835 1.56133 0
M  V30 7009 C 651.98 -1.16454 1.64441 0
M  V30 7010 O 651.036 -1.94964 1.60453 0
M  V30 7011 C 652.349 1.05029 2.81761 0
M  V30 7012 C 653.897 1.03142 2.95518 0
M  V30 7013 C 654.372 1.73196 4.2399 0
M  V30 7014 N 655.863 1.70004 4.30875 0
M  V30 7015 C 656.598 2.21074 5.29069 0
M  V30 7016 N 656.094 2.80473 6.33488 0
M  V30 7017 N 657.887 2.1152 5.20784 0
M  V30 7018 H 650.038 1.63272 1.35853 0
M  V30 7019 H 652.301 0.687149 0.653092 0
M  V30 7020 H 652.007 2.10542 2.81718 0
M  V30 7021 H 651.881 0.607664 3.72273 0
M  V30 7022 H 654.268 -0.0153339 2.95096 0
M  V30 7023 H 654.349 1.51282 2.0627 0
M  V30 7024 H 653.993 2.77833 4.25172 0
M  V30 7025 H 653.923 1.22515 5.1215 0
M  V30 7026 H 656.414 1.26667 3.56039 0
M  V30 7027 H 656.727 3.17094 7.04749 0
M  V30 7028 H 655.072 2.84538 6.34085 0
M  V30 7029 H 658.263 1.64814 4.38126 0
M  V30 7030 H 658.436 2.51629 5.97149 0
M  V30 7031 N 651.842 -1.52309 0.404946 0
M  V30 7032 C 653.253 -1.86585 -0.0655926 0
M  V30 7033 C 653.604 -1.3239 -1.44801 0
M  V30 7034 O 652.729 -0.6615 -2.06042 0
M  V30 7035 C 653.324 -3.38566 -0.125801 0
M  V30 7036 C 651.883 -3.72497 -0.540666 0
M  V30 7037 C 651.03 -2.75806 0.287487 0
M  V30 7038 H 653.981 -1.45995 0.622185 0
M  V30 7039 H 654.002 -3.68658 -0.941888 0
M  V30 7040 H 653.514 -3.77981 0.880473 0
M  V30 7041 H 651.615 -3.38659 -1.55373 0
M  V30 7042 H 651.728 -4.78234 -0.287956 0
M  V30 7043 H 650.092 -2.53474 -0.249561 0
M  V30 7044 H 650.875 -3.18059 1.29203 0
M  V30 7045 N 653.32 -0.135238 -1.57019 0
M  V30 7046 C 654.567 0.518794 -1.95742 0
M  V30 7047 C 654.895 1.65642 -1.01947 0
M  V30 7048 O 654.15 1.95645 -0.0464016 0
M  V30 7049 C 654.449 1.07694 -3.40788 0
M  V30 7050 C 654.115 0.058992 -4.50861 0
M  V30 7051 C 652.777 -0.220872 -4.80693 0
M  V30 7052 C 655.129 -0.633856 -5.17331 0
M  V30 7053 C 652.457 -1.19959 -5.74305 0
M  V30 7054 C 654.809 -1.60131 -6.11997 0
M  V30 7055 C 653.473 -1.889 -6.40213 0
M  V30 7056 H 652.743 0.18984 -0.716269 0
M  V30 7057 H 655.39 -0.219581 -1.90237 0
M  V30 7058 H 653.695 1.89241 -3.43067 0
M  V30 7059 H 655.392 1.59137 -3.68071 0
M  V30 7060 H 651.982 0.287304 -4.27636 0
M  V30 7061 H 656.166 -0.430823 -4.94427 0
M  V30 7062 H 651.422 -1.42905 -5.94465 0
M  V30 7063 H 655.596 -2.14376 -6.62583 0
M  V30 7064 H 653.223 -2.64891 -7.12556 0
M  V30 7065 N 654.798 1.5699 0.138552 0
M  V30 7066 C 656.023 1.88344 0.86841 0
M  V30 7067 C 656.448 0.725159 1.7356 0
M  V30 7068 O 655.806 -0.324992 1.78363 0
M  V30 7069 C 655.854 3.18334 1.69398 0
M  V30 7070 O 654.958 3.02863 2.79907 0
M  V30 7071 H 654.299 0.618577 0.241367 0
M  V30 7072 H 656.829 2.04207 0.126826 0
M  V30 7073 H 656.839 3.50567 2.08726 0
M  V30 7074 H 655.514 4.02238 1.05725 0
M  V30 7075 H 654.091 2.82056 2.43924 0
M  V30 7076 N 656.276 -0.40816 1.52223 0
M  V30 7077 C 657.522 -1.15673 1.66576 0
M  V30 7078 C 657.855 -1.90141 0.394996 0
M  V30 7079 O 657.13 -1.84798 -0.606613 0
M  V30 7080 C 657.413 -2.15042 2.88841 0
M  V30 7081 C 657.266 -1.44465 4.25969 0
M  V30 7082 C 658.585 -3.15699 3.0663 0
M  V30 7083 H 655.704 -0.41916 0.606196 0
M  V30 7084 H 658.346 -0.442348 1.84779 0
M  V30 7085 H 656.496 -2.75964 2.73452 0
M  V30 7086 H 658.168 -0.866544 4.53088 0
M  V30 7087 H 656.411 -0.746612 4.27327 0
M  V30 7088 H 657.082 -2.16976 5.07568 0
M  V30 7089 H 659.558 -2.64854 3.20923 0
M  V30 7090 H 658.434 -3.82491 3.9369 0
M  V30 7091 H 658.695 -3.83481 2.19987 0
M  V30 7092 N 657.755 -1.42862 -0.66545 0
M  V30 7093 C 658.985 -1.47032 -1.45138 0
M  V30 7094 C 659.393 -0.0829977 -1.89018 0
M  V30 7095 O 658.736 0.914551 -1.59316 0
M  V30 7096 C 658.798 -2.34302 -2.72659 0
M  V30 7097 C 658.462 -3.82034 -2.50796 0
M  V30 7098 C 659.459 -4.73453 -2.14799 0
M  V30 7099 C 657.144 -4.26397 -2.655 0
M  V30 7100 C 659.138 -6.07228 -1.93785 0
M  V30 7101 C 656.825 -5.6023 -2.44103 0
M  V30 7102 C 657.823 -6.50462 -2.08299 0
M  V30 7103 O 657.511 -7.8182 -1.87116 0
M  V30 7104 H 657.243 -0.501969 -0.452772 0
M  V30 7105 H 659.797 -1.88137 -0.82423 0
M  V30 7106 H 658.027 -1.88063 -3.37889 0
M  V30 7107 H 659.716 -2.29818 -3.34572 0
M  V30 7108 H 660.482 -4.4046 -2.03026 0
M  V30 7109 H 656.361 -3.56448 -2.92345 0
M  V30 7110 H 659.905 -6.7762 -1.65763 0
M  V30 7111 H 655.802 -5.92793 -2.55475 0
M  V30 7112 H 656.57 -7.93274 -2.01639 0
M  V30 7113 N 659.233 0.902656 -1.29189 0
M  V30 7114 C 660.48 1.65287 -1.16989 0
M  V30 7115 C 660.808 1.92485 0.279232 0
M  V30 7116 O 660.063 1.53143 1.21843 0
M  V30 7117 C 660.362 3.011 -1.92545 0
M  V30 7118 C 660.028 2.93521 -3.42281 0
M  V30 7119 C 658.69 2.91161 -3.83117 0
M  V30 7120 C 661.042 2.82947 -4.3771 0
M  V30 7121 C 658.37 2.76043 -5.17704 0
M  V30 7122 C 660.722 2.69368 -5.72384 0
M  V30 7123 C 659.386 2.65373 -6.12482 0
M  V30 7124 H 658.656 0.604828 -0.428094 0
M  V30 7125 H 661.303 1.05084 -1.60092 0
M  V30 7126 H 659.608 3.65153 -1.42024 0
M  V30 7127 H 661.305 3.58073 -1.80512 0
M  V30 7128 H 657.895 2.96158 -3.09819 0
M  V30 7129 H 662.079 2.83849 -4.07116 0
M  V30 7130 H 657.335 2.71352 -5.47885 0
M  V30 7131 H 661.509 2.60156 -6.45981 0
M  V30 7132 H 659.136 2.53415 -7.16718 0
M  V30 7133 N 660.711 1.11618 1.11262 0
M  V30 7134 C 661.659 0.771291 2.1944 0
M  V30 7135 C 662.653 -0.238073 1.67719 0
M  V30 7136 O 663.859 -0.0971628 1.79738 0
M  V30 7137 H 660.234 0.231548 0.715465 0
M  V30 7138 H 662.205 1.69226 2.45775 0
M  V30 7139 C 660.954 0.232765 3.4692 0
M  V30 7140 H 660.277 1.00072 3.87073 0
M  V30 7141 H 661.717 0.0296561 4.2399 0
M  V30 7142 C 660.176 -1.03738 3.20531 0
M  V30 7143 O 660.706 -2.11675 3.41404 0
M  V30 7144 N 658.912 -0.960906 2.74253 0
M  V30 7145 H 658.459 -0.0824323 2.57468 0
M  V30 7146 H 658.417 -1.8114 2.56974 0
M  V30 7147 N 662.189 -1.289 0.906776 0
M  V30 7148 C 663.6 -1.77336 0.58384 0
M  V30 7149 C 663.951 -1.74304 -0.900697 0
M  V30 7150 O 663.076 -1.33335 -1.70443 0
M  V30 7151 C 663.671 -3.22019 1.05304 0
M  V30 7152 C 662.23 -3.68205 0.781148 0
M  V30 7153 C 661.377 -2.48837 1.22373 0
M  V30 7154 H 664.328 -1.15462 1.08877 0
M  V30 7155 H 664.349 -3.78481 0.391414 0
M  V30 7156 H 663.861 -3.24194 2.13353 0
M  V30 7157 H 661.962 -3.71497 -0.28643 0
M  V30 7158 H 662.075 -4.58675 1.384 0
M  V30 7159 H 660.439 -2.46461 0.642594 0
M  V30 7160 H 661.222 -2.53736 2.31242 0
M  V30 7161 N 663.667 -0.670007 -1.42649 0
M  V30 7162 C 664.897 -0.198252 -2.05647 0
M  V30 7163 C 665.305 1.14786 -1.50402 0
M  V30 7164 O 664.648 1.72316 -0.636634 0
M  V30 7165 C 664.71 -0.0507132 -3.59464 0
M  V30 7166 C 664.374 -1.32478 -4.37377 0
M  V30 7167 C 665.371 -2.2572 -4.68344 0
M  V30 7168 C 663.056 -1.57104 -4.77099 0
M  V30 7169 C 665.05 -3.4187 -5.37963 0
M  V30 7170 C 662.737 -2.73543 -5.46459 0
M  V30 7171 C 663.735 -3.65751 -5.76815 0
M  V30 7172 O 663.423 -4.80154 -6.44753 0
M  V30 7173 H 663.155 -0.0950721 -0.669281 0
M  V30 7174 H 665.709 -0.915745 -1.83857 0
M  V30 7175 H 663.939 0.722314 -3.79894 0
M  V30 7176 H 665.628 0.380552 -4.04112 0
M  V30 7177 H 666.394 -2.07943 -4.38161 0
M  V30 7178 H 662.273 -0.862069 -4.52868 0
M  V30 7179 H 665.817 -4.13861 -5.61574 0
M  V30 7180 H 661.714 -2.91248 -5.7606 0
M  V30 7181 H 662.482 -4.79637 -6.63243 0
M  V30 7182 N 665.145 1.52092 -0.413018 0
M  V30 7183 C 666.373 2.06274 0.160881 0
M  V30 7184 C 666.788 1.28273 1.38533 0
M  V30 7185 O 666.145 0.33563 1.79387 0
M  V30 7186 C 666.196 3.57921 0.507443 0
M  V30 7187 O 665.917 4.32971 -0.668388 0
M  V30 7188 C 667.418 4.28533 1.13465 0
M  V30 7189 H 664.638 0.67074 0.0186759 0
M  V30 7190 H 667.182 1.95951 -0.585092 0
M  V30 7191 H 665.337 3.68238 1.20331 0
M  V30 7192 H 665.751 5.23135 -0.378169 0
M  V30 7193 H 667.225 5.35804 1.32732 0
M  V30 7194 H 667.702 3.85258 2.10886 0
M  V30 7195 H 668.308 4.22595 0.478876 0
M  V30 7196 N 666.623 0.143563 1.56945 0
M  V30 7197 C 667.555 -0.828353 2.13708 0
M  V30 7198 C 668.568 -1.21313 1.08568 0
M  V30 7199 O 669.757 -1.1578 1.35857 0
M  V30 7200 C 666.857 -2.12248 2.64204 0
M  V30 7201 C 666.03 -1.90561 3.93707 0
M  V30 7202 C 665.089 -3.03931 4.29549 0
M  V30 7203 O 664.115 -2.75772 4.97934 0
M  V30 7204 N 665.317 -4.31016 3.88852 0
M  V30 7205 H 668.082 -0.343242 2.97728 0
M  V30 7206 H 665.643 -0.0401152 1.6185 0
M  V30 7207 H 667.635 -2.87132 2.85197 0
M  V30 7208 H 666.205 -2.52033 1.84928 0
M  V30 7209 H 665.425 -0.997327 3.81375 0
M  V30 7210 H 666.713 -1.73405 4.78339 0
M  V30 7211 H 666.111 -4.56762 3.33743 0
M  V30 7212 H 664.668 -5.02691 4.14903 0
M  V30 7213 N 668.101 -1.57061 -0.130224 0
M  V30 7214 C 669.326 -1.88802 -0.858409 0
M  V30 7215 C 669.751 -0.734353 -1.73173 0
M  V30 7216 O 669.109 0.315529 -1.78533 0
M  V30 7217 C 669.157 -3.19228 -1.67708 0
M  V30 7218 O 668.261 -3.04343 -2.78297 0
M  V30 7219 H 667.602 -0.619849 -0.238083 0
M  V30 7220 H 670.132 -2.04271 -0.115995 0
M  V30 7221 H 670.142 -3.51669 -2.06864 0
M  V30 7222 H 668.817 -4.02793 -1.0359 0
M  V30 7223 H 667.394 -2.83346 -2.42425 0
M  V30 7224 N 669.579 0.400081 -1.52437 0
M  V30 7225 C 670.828 1.14332 -1.66166 0
M  V30 7226 C 671.141 1.91419 -0.402253 0
M  V30 7227 O 672.347 2.6824 -0.419487 0
M  V30 7228 C 670.803 2.08137 -2.9361 0
M  V30 7229 C 670.411 1.36524 -4.26691 0
M  V30 7230 C 672.155 2.82664 -3.16703 0
M  V30 7231 C 670.062 2.29031 -5.45251 0
M  V30 7232 H 668.992 0.430499 -0.61902 0
M  V30 7233 H 671.643 0.407017 -1.78929 0
M  V30 7234 H 670.025 2.85358 -2.74567 0
M  V30 7235 H 671.199 0.646061 -4.56249 0
M  V30 7236 H 669.514 0.74002 -4.09771 0
M  V30 7237 H 672.111 3.52037 -4.0246 0
M  V30 7238 H 672.454 3.46122 -2.31312 0
M  V30 7239 H 672.987 2.12541 -3.36261 0
M  V30 7240 H 669.726 1.70206 -6.33017 0
M  V30 7241 H 669.246 2.98896 -5.2002 0
M  V30 7242 H 670.925 2.89359 -5.78689 0
M  V30 7243 N 671.057 1.43213 0.657864 0
M  V30 7244 C 671.967 1.50448 1.80007 0
M  V30 7245 C 672.983 0.39191 1.69529 0
M  V30 7246 O 674.159 0.645349 1.90781 0
M  V30 7247 C 671.224 1.42062 3.16258 0
M  V30 7248 C 670.285 2.63951 3.38568 0
M  V30 7249 C 669.518 2.55956 4.68318 0
M  V30 7250 O 669.741 1.60473 5.47361 0
M  V30 7251 O 668.675 3.46378 4.92245 0
M  V30 7252 H 672.501 2.4689 1.76858 0
M  V30 7253 H 670.086 1.25163 0.81576 0
M  V30 7254 H 671.968 1.3981 3.97531 0
M  V30 7255 H 670.643 0.487524 3.20008 0
M  V30 7256 H 669.55 2.71776 2.57077 0
M  V30 7257 H 670.883 3.56217 3.39662 0
M  V30 7258 N 672.536 -0.895792 1.29666 0
M  V30 7259 C 673.785 -1.64131 1.17234 0
M  V30 7260 C 674.098 -1.93665 -0.274416 0
M  V30 7261 O 675.304 -2.66472 -0.520105 0
M  V30 7262 C 673.76 -2.95764 2.05065 0
M  V30 7263 C 673.368 -2.7381 3.54587 0
M  V30 7264 C 675.112 -3.737 2.01367 0
M  V30 7265 C 673.019 -4.01194 4.34508 0
M  V30 7266 H 671.949 -0.615742 0.435175 0
M  V30 7267 H 674.6 -0.992626 1.54335 0
M  V30 7268 H 672.982 -3.61867 1.60837 0
M  V30 7269 H 674.156 -2.16277 4.06892 0
M  V30 7270 H 672.471 -2.09265 3.59996 0
M  V30 7271 H 675.068 -4.68152 2.58337 0
M  V30 7272 H 675.411 -4.04245 0.994575 0
M  V30 7273 H 675.944 -3.14444 2.43659 0
M  V30 7274 H 672.683 -3.75813 5.37071 0
M  V30 7275 H 672.203 -4.58272 3.86971 0
M  V30 7276 H 673.882 -4.69307 4.45376 0
M  V30 7277 N 674.014 -1.12206 -1.10668 0
M  V30 7278 C 674.944 -0.810086 -2.18997 0
M  V30 7279 C 675.925 0.225065 -1.68604 0
M  V30 7280 O 677.11 0.086783 -1.94006 0
M  V30 7281 C 674.24 -0.261262 -3.46316 0
M  V30 7282 C 673.194 -1.2292 -4.09969 0
M  V30 7283 C 672.52 -0.540713 -5.31959 0
M  V30 7284 C 673.82 -2.58295 -4.53962 0
M  V30 7285 H 675.514 -1.7159 -2.45352 0
M  V30 7286 H 673.06 -0.82646 -1.17922 0
M  V30 7287 H 675.013 -0.0307522 -4.21389 0
M  V30 7288 H 673.737 0.679879 -3.19445 0
M  V30 7289 H 672.396 -1.44548 -3.369 0
M  V30 7290 H 672.044 0.405492 -5.01363 0
M  V30 7291 H 671.744 -1.18637 -5.75499 0
M  V30 7292 H 673.268 -0.319184 -6.09765 0
M  V30 7293 H 674.682 -2.40709 -5.20319 0
M  V30 7294 H 673.079 -3.18916 -5.08343 0
M  V30 7295 H 674.149 -3.16918 -3.67002 0
M  V30 7296 N 675.492 1.28418 -0.913599 0
M  V30 7297 C 676.439 2.27301 -0.400373 0
M  V30 7298 C 677.409 1.57582 0.52509 0
M  V30 7299 O 678.594 1.85482 0.447318 0
M  V30 7300 C 675.734 3.43284 0.35361 0
M  V30 7301 C 674.847 4.27752 -0.604341 0
M  V30 7302 C 673.982 5.30934 0.168075 0
M  V30 7303 C 673.021 6.07065 -0.783499 0
M  V30 7304 N 672.158 7.02086 -0.0446112 0
M  V30 7305 H 676.998 2.70579 -1.24865 0
M  V30 7306 H 674.535 1.33067 -0.627028 0
M  V30 7307 H 676.493 4.09322 0.806945 0
M  V30 7308 H 675.123 3.00997 1.16623 0
M  V30 7309 H 674.175 3.61759 -1.17621 0
M  V30 7310 H 675.487 4.80682 -1.33216 0
M  V30 7311 H 674.641 6.02855 0.681979 0
M  V30 7312 H 673.38 4.78771 0.928947 0
M  V30 7313 H 672.385 5.33995 -1.30878 0
M  V30 7314 H 673.61 6.61317 -1.54392 0
M  V30 7315 H 671.556 6.52273 0.698272 0
M  V30 7316 H 671.473 7.52637 -0.712258 0
M  V30 7317 H 672.741 7.78205 0.449102 0
M  V30 7318 N 676.97 0.677563 1.42291 0
M  V30 7319 C 678.247 0.129803 1.95169 0
M  V30 7320 C 678.627 -1.35605 1.61786 0
M  V30 7321 O 677.975 -2.09361 0.915444 0
M  V30 7322 C 678.185 0.401889 3.46678 0
M  V30 7323 C 679.533 0.319889 4.23393 0
M  V30 7324 O 680.557 0.33579 3.54614 0
M  V30 7325 O 679.416 0.264459 5.4586 0
M  V30 7326 H 676.51 0.00447433 0.826988 0
M  V30 7327 H 679.056 0.752483 1.52105 0
M  V30 7328 H 677.828 1.43108 3.64192 0
M  V30 7329 H 677.451 -0.252662 3.96796 0
M  V30 7330 N 678.448 -1.51871 0.421078 0
M  V30 7331 C 679.676 -2.06356 -0.14994 0
M  V30 7332 C 680.091 -1.29006 -1.37851 0
M  V30 7333 O 679.448 -0.345139 -1.79207 0
M  V30 7334 C 679.499 -3.58185 -0.488454 0
M  V30 7335 O 679.22 -4.32611 0.691341 0
M  V30 7336 C 680.721 -4.29129 -1.11191 0
M  V30 7337 H 677.941 -0.67083 -0.0151186 0
M  V30 7338 H 680.485 -1.95638 0.595476 0
M  V30 7339 H 678.64 -3.68871 -1.18376 0
M  V30 7340 H 679.054 -5.22927 0.405906 0
M  V30 7341 H 680.528 -5.36501 -1.29889 0
M  V30 7342 H 681.005 -3.86371 -2.0884 0
M  V30 7343 H 681.611 -4.22843 -0.456458 0
M  V30 7344 N 679.926 -0.151884 -1.56866 0
M  V30 7345 C 681.342 0.204486 -1.58285 0
M  V30 7346 C 681.542 1.6431 -1.16639 0
M  V30 7347 O 680.598 2.37077 -0.868946 0
M  V30 7348 C 681.911 -0.0587019 -3.00643 0
M  V30 7349 C 683.459 0.00462303 -3.13 0
M  V30 7350 C 683.934 -0.231297 -4.57416 0
M  V30 7351 N 685.425 -0.178394 -4.62856 0
M  V30 7352 C 686.16 -0.335379 -5.72418 0
M  V30 7353 N 685.656 -0.550355 -6.90611 0
M  V30 7354 N 687.449 -0.272641 -5.61438 0
M  V30 7355 H 679.6 -1.09116 -1.82229 0
M  V30 7356 H 681.863 -0.432311 -0.843689 0
M  V30 7357 H 681.569 -1.05453 -3.35518 0
M  V30 7358 H 681.443 0.658508 -3.71407 0
M  V30 7359 H 683.83 0.991009 -2.77962 0
M  V30 7360 H 683.911 -0.744992 -2.44711 0
M  V30 7361 H 683.555 -1.2148 -4.93158 0
M  V30 7362 H 683.485 0.5387 -5.23837 0
M  V30 7363 H 685.976 -0.0170923 -3.77896 0
M  V30 7364 H 686.289 -0.660116 -7.69976 0
M  V30 7365 H 684.634 -0.586736 -6.92519 0
M  V30 7366 H 687.825 -0.105421 -4.67981 0
M  V30 7367 H 687.998 -0.398418 -6.46774 0
M  V30 7368 N 681.404 1.57128 0.121893 0
M  V30 7369 C 682.629 1.89254 0.848385 0
M  V30 7370 C 683.054 0.743527 1.72781 0
M  V30 7371 O 682.412 -0.306056 1.78698 0
M  V30 7372 C 682.46 3.20113 1.66012 0
M  V30 7373 O 681.564 3.05815 2.76679 0
M  V30 7374 H 680.905 0.621103 0.234793 0
M  V30 7375 H 683.435 2.0433 0.10516 0
M  V30 7376 H 683.445 3.52761 2.04996 0
M  V30 7377 H 682.12 4.03336 1.01452 0
M  V30 7378 H 680.697 2.84627 2.40918 0
M  V30 7379 N 682.882 -0.391992 1.52647 0
M  V30 7380 C 684.131 -1.13449 1.6677 0
M  V30 7381 C 684.444 -1.91203 0.412399 0
M  V30 7382 O 685.65 -2.68013 0.433707 0
M  V30 7383 C 684.106 -2.06577 2.9471 0
M  V30 7384 C 683.714 -1.3426 4.27409 0
M  V30 7385 C 685.458 -2.80981 3.18198 0
M  V30 7386 C 683.365 -2.26136 5.46458 0
M  V30 7387 H 682.295 -0.427211 0.621295 0
M  V30 7388 H 684.946 -0.397522 1.79142 0
M  V30 7389 H 683.328 -2.83898 2.76076 0
M  V30 7390 H 684.502 -0.621856 4.56585 0
M  V30 7391 H 682.817 -0.718279 4.10158 0
M  V30 7392 H 685.414 -3.49898 4.04321 0
M  V30 7393 H 685.757 -3.44891 2.33144 0
M  V30 7394 H 686.29 -2.10754 3.37383 0
M  V30 7395 H 683.029 -1.66846 6.33911 0
M  V30 7396 H 682.549 -2.96134 5.21598 0
M  V30 7397 H 684.228 -2.86286 5.80215 0
M  V30 7398 N 684.36 -1.4356 -0.65026 0
M  V30 7399 C 685.27 -1.514 -1.79207 0
M  V30 7400 C 686.286 -0.400895 -1.69319 0
M  V30 7401 O 687.462 -0.655458 -1.90436 0
M  V30 7402 C 684.527 -1.43737 -3.155 0
M  V30 7403 C 683.588 -2.65743 -3.37163 0
M  V30 7404 C 682.821 -2.58436 -4.66954 0
M  V30 7405 O 683.044 -1.63374 -5.46503 0
M  V30 7406 O 681.978 -3.48984 -4.90402 0
M  V30 7407 H 685.804 -2.47825 -1.75547 0
M  V30 7408 H 683.389 -1.25594 -0.809111 0
M  V30 7409 H 685.271 -1.41916 -3.96784 0
M  V30 7410 H 683.946 -0.504488 -3.19745 0
M  V30 7411 H 682.853 -2.73136 -2.55632 0
M  V30 7412 H 684.186 -3.58014 -3.37768 0
M  V30 7413 N 685.838 0.888903 -1.30139 0
M  V30 7414 C 686.786 2.0156 -1.16088 0
M  V30 7415 C 687.78 1.69239 -0.0737413 0
M  V30 7416 O 688.986 1.78468 -0.234313 0
M  V30 7417 H 685.361 0.660825 -0.358907 0
M  V30 7418 H 687.332 2.10547 -2.11453 0
M  V30 7419 C 686.081 3.36758 -0.865426 0
M  V30 7420 H 685.404 3.62137 -1.69402 0
M  V30 7421 H 686.844 4.16246 -0.807192 0
M  V30 7422 C 685.303 3.34124 0.431577 0
M  V30 7423 O 685.833 3.7445 1.45431 0
M  V30 7424 N 684.039 2.87229 0.441321 0
M  V30 7425 H 683.586 2.54609 -0.391433 0
M  V30 7426 H 683.544 2.8585 1.30909 0
M  V30 7427 N 687.317 1.12792 1.10072 0
M  V30 7428 C 688.563 0.886857 1.82381 0
M  V30 7429 C 688.896 -0.58576 1.85155 0
M  V30 7430 O 688.171 -1.43317 1.31493 0
M  V30 7431 C 688.454 1.46703 3.28862 0
M  V30 7432 C 688.307 3.00829 3.34398 0
M  V30 7433 C 689.626 1.12971 4.25353 0
M  V30 7434 H 686.745 0.32362 0.662148 0
M  V30 7435 H 689.387 1.39513 1.28982 0
M  V30 7436 H 687.537 1.03476 3.74466 0
M  V30 7437 H 689.209 3.52764 2.97247 0
M  V30 7438 H 687.452 3.36164 2.74183 0
M  V30 7439 H 688.123 3.36519 4.3756 0
M  V30 7440 H 690.599 1.50313 3.88001 0
M  V30 7441 H 689.475 1.56223 5.26199 0
M  V30 7442 H 689.736 0.0424452 4.4208 0
M  V30 7443 N 688.795 -1.27931 0.920396 0
M  V30 7444 C 690.041 -1.94977 0.557832 0
M  V30 7445 C 690.374 -1.72224 -0.897365 0
M  V30 7446 O 689.649 -1.04705 -1.63912 0
M  V30 7447 C 689.932 -3.49289 0.875741 0
M  V30 7448 C 689.785 -3.81416 2.38416 0
M  V30 7449 C 691.104 -4.38486 0.376517 0
M  V30 7450 H 688.223 -0.708164 0.20414 0
M  V30 7451 H 690.865 -1.5118 1.15085 0
M  V30 7452 H 689.015 -3.86724 0.371062 0
M  V30 7453 H 690.687 -3.53813 2.95997 0
M  V30 7454 H 688.93 -3.28225 2.83639 0
M  V30 7455 H 689.601 -4.89198 2.55713 0
M  V30 7456 H 692.077 -4.08161 0.808945 0
M  V30 7457 H 690.953 -5.45296 0.627976 0
M  V30 7458 H 691.214 -4.36143 -0.723293 0
M  V30 7459 N 690.273 -0.685099 -1.4193 0
M  V30 7460 C 691.205 0.0258679 -2.29185 0
M  V30 7461 C 692.218 0.755076 -1.44231 0
M  V30 7462 O 693.407 0.60752 -1.67844 0
M  V30 7463 C 690.507 1.06055 -3.21878 0
M  V30 7464 C 689.68 0.403088 -4.35539 0
M  V30 7465 C 688.739 1.33895 -5.0888 0
M  V30 7466 O 687.765 0.835326 -5.63037 0
M  V30 7467 N 688.967 2.6718 -5.15359 0
M  V30 7468 H 691.732 -0.723201 -2.90843 0
M  V30 7469 H 689.293 -0.53031 -1.52968 0
M  V30 7470 H 691.285 1.68813 -3.6781 0
M  V30 7471 H 689.855 1.71126 -2.616 0
M  V30 7472 H 689.075 -0.404185 -3.92122 0
M  V30 7473 H 690.363 -0.0545098 -5.08771 0
M  V30 7474 H 689.761 3.10626 -4.72788 0
M  V30 7475 H 688.318 3.25159 -5.64903 0
M  V30 7476 N 691.751 1.51645 -0.429126 0
M  V30 7477 C 693.028 1.94579 0.199614 0
M  V30 7478 C 693.408 1.3673 1.60836 0
M  V30 7479 O 692.756 0.551062 2.21756 0
M  V30 7480 C 692.966 3.48506 0.185685 0
M  V30 7481 C 694.314 4.22756 0.395282 0
M  V30 7482 O 695.338 3.55219 0.264165 0
M  V30 7483 O 694.197 5.42555 0.655475 0
M  V30 7484 H 691.291 0.816007 0.134393 0
M  V30 7485 H 693.837 1.62577 -0.486513 0
M  V30 7486 H 692.609 3.83045 -0.799508 0
M  V30 7487 H 692.232 3.86927 0.91507 0
M  V30 7488 N 693.229 0.160201 1.56784 0
M  V30 7489 C 694.159 -0.770264 2.2043 0
M  V30 7490 C 695.14 -1.24736 1.15651 0
M  V30 7491 O 696.325 -1.30253 1.44041 0
M  V30 7492 C 693.455 -2.00427 2.83631 0
M  V30 7493 C 692.409 -1.66345 3.94352 0
M  V30 7494 C 691.735 -2.97119 4.4455 0
M  V30 7495 C 693.035 -0.899972 5.14488 0
M  V30 7496 H 694.729 -0.239783 2.98438 0
M  V30 7497 H 692.275 -0.113891 1.43549 0
M  V30 7498 H 694.228 -2.66012 3.26827 0
M  V30 7499 H 692.952 -2.5587 2.02973 0
M  V30 7500 H 691.611 -1.03133 3.51794 0
M  V30 7501 H 691.259 -3.5058 3.60698 0
M  V30 7502 H 690.959 -2.75073 5.19238 0
M  V30 7503 H 692.483 -3.63753 4.90425 0
M  V30 7504 H 693.897 -1.45818 5.54446 0
M  V30 7505 H 692.294 -0.778968 5.95023 0
M  V30 7506 H 693.364 0.105827 4.84785 0
M  V30 7507 N 694.707 -1.5719 -0.113559 0
M  V30 7508 C 696.123 -1.52607 -0.467253 0
M  V30 7509 C 696.323 -0.874058 -1.81556 0
M  V30 7510 O 695.379 -0.458703 -2.48299 0
M  V30 7511 C 696.692 -2.97363 -0.446736 0
M  V30 7512 C 698.24 -3.08482 -0.529903 0
M  V30 7513 C 698.715 -4.54809 -0.539721 0
M  V30 7514 N 700.206 -4.59284 -0.601005 0
M  V30 7515 C 700.941 -5.69927 -0.630138 0
M  V30 7516 N 700.437 -6.90051 -0.616589 0
M  V30 7517 N 702.23 -5.5805 -0.673558 0
M  V30 7518 H 694.381 -1.97958 0.769819 0
M  V30 7519 H 696.644 -0.90428 0.284572 0
M  V30 7520 H 696.35 -3.48458 0.47643 0
M  V30 7521 H 696.224 -3.55086 -1.27254 0
M  V30 7522 H 698.611 -2.57386 -1.44349 0
M  V30 7523 H 698.692 -2.53744 0.323695 0
M  V30 7524 H 698.336 -5.06552 0.369843 0
M  V30 7525 H 698.266 -5.07364 -1.41028 0
M  V30 7526 H 700.757 -3.72822 -0.617419 0
M  V30 7527 H 701.07 -7.70132 -0.641592 0
M  V30 7528 H 699.415 -6.92543 -0.583927 0
M  V30 7529 H 702.606 -4.63112 -0.681544 0
M  V30 7530 H 702.779 -6.44286 -0.692794 0
M  V30 7531 N 696.185 0.383891 -1.52853 0
M  V30 7532 C 697.41 1.154 -1.7233 0
M  V30 7533 C 697.835 1.82809 -0.44298 0
M  V30 7534 O 697.193 1.71026 0.601645 0
M  V30 7535 C 697.241 2.17386 -2.87708 0
M  V30 7536 O 696.345 3.24082 -2.55038 0
M  V30 7537 H 695.686 0.335709 -0.572883 0
M  V30 7538 H 698.216 0.44662 -1.99666 0
M  V30 7539 H 698.226 2.61296 -3.1335 0
M  V30 7540 H 696.901 1.6771 -3.80587 0
M  V30 7541 H 695.478 2.85273 -2.40153 0
M  V30 7542 N 697.663 1.43903 0.642637 0
M  V30 7543 C 698.94 1.36556 1.40043 0
M  V30 7544 C 699.32 0.0185588 2.11092 0
M  V30 7545 O 698.668 -0.998438 2.05532 0
M  V30 7546 C 698.878 2.55596 2.37638 0
M  V30 7547 C 700.226 2.99153 3.01318 0
M  V30 7548 O 701.25 2.55719 2.47965 0
M  V30 7549 O 700.109 3.74427 3.98078 0
M  V30 7550 H 697.203 0.540189 0.626198 0
M  V30 7551 H 699.749 1.55971 0.668657 0
M  V30 7552 H 698.521 3.45256 1.84158 0
M  V30 7553 H 698.144 2.38334 3.18249 0
M  V30 7554 N 699.141 -0.881989 1.30609 0
M  V30 7555 C 700.071 -2.00413 1.1982 0
M  V30 7556 C 701.052 -1.69871 0.0881538 0
M  V30 7557 O 702.237 -1.92304 0.2707 0
M  V30 7558 C 699.367 -3.35641 0.89233 0
M  V30 7559 C 698.321 -3.80451 1.96064 0
M  V30 7560 C 697.647 -5.13003 1.5077 0
M  V30 7561 C 698.947 -3.98855 3.37213 0
M  V30 7562 H 700.641 -2.09698 2.13699 0
M  V30 7563 H 698.187 -1.00754 1.02882 0
M  V30 7564 H 700.14 -4.13669 0.803497 0
M  V30 7565 H 698.864 -3.26497 -0.0821381 0
M  V30 7566 H 697.523 -3.04654 2.03916 0
M  V30 7567 H 697.171 -5.0029 0.521417 0
M  V30 7568 H 696.871 -5.43956 2.22229 0
M  V30 7569 H 698.395 -5.93554 1.43271 0
M  V30 7570 H 699.809 -4.67312 3.32103 0
M  V30 7571 H 698.206 -4.41188 4.06784 0
M  V30 7572 H 699.276 -3.02614 3.78883 0
M  V30 7573 N 700.619 -1.13374 -1.09472 0
M  V30 7574 C 701.567 -0.806105 -2.18185 0
M  V30 7575 C 702.561 0.21136 -1.68076 0
M  V30 7576 O 703.767 0.0685558 -1.79869 0
M  V30 7577 H 700.142 -0.242901 -0.71169 0
M  V30 7578 H 702.113 -1.73115 -2.43051 0
M  V30 7579 C 700.862 -0.287928 -3.46506 0
M  V30 7580 H 700.185 -1.06217 -3.85432 0
M  V30 7581 H 701.625 -0.0971054 -4.23889 0
M  V30 7582 C 700.084 0.986256 -3.22141 0
M  V30 7583 O 700.614 2.06217 -3.44728 0
M  V30 7584 N 698.82 0.917153 -2.75747 0
M  V30 7585 H 698.367 0.0414609 -2.57567 0
M  V30 7586 H 698.325 1.77029 -2.59823 0
M  V30 7587 N 702.098 1.27442 -0.927168 0
M  V30 7588 C 703.326 1.98498 -0.583622 0
M  V30 7589 C 703.741 1.69171 0.838241 0
M  V30 7590 O 703.098 0.951969 1.55704 0
M  V30 7591 C 703.149 3.52552 -0.799341 0
M  V30 7592 O 702.87 3.80851 -2.16527 0
M  V30 7593 C 704.371 4.4086 -0.464436 0
M  V30 7594 H 701.591 0.633487 -0.221213 0
M  V30 7595 H 704.135 1.62308 -1.24404 0
M  V30 7596 H 702.29 3.86955 -0.185728 0
M  V30 7597 H 702.704 4.75441 -2.21487 0
M  V30 7598 H 704.178 5.47967 -0.666075 0
M  V30 7599 H 704.655 4.35082 0.599995 0
M  V30 7600 H 705.261 4.11977 -1.05617 0
M  V30 7601 N 703.576 0.692616 1.41565 0
M  V30 7602 C 704.822 0.222664 2.01574 0
M  V30 7603 C 705.155 -1.1737 1.54719 0
M  V30 7604 O 704.43 -1.79161 0.757084 0
M  V30 7605 C 704.713 0.277064 3.59033 0
M  V30 7606 C 704.566 1.71016 4.16021 0
M  V30 7607 C 705.885 -0.36479 4.38586 0
M  V30 7608 H 703.004 0.0823839 0.732381 0
M  V30 7609 H 705.646 0.880778 1.68352 0
M  V30 7610 H 703.796 -0.283288 3.87466 0
M  V30 7611 H 705.468 2.32413 3.98475 0
M  V30 7612 H 703.711 2.24525 3.71175 0
M  V30 7613 H 704.382 1.69978 5.25178 0
M  V30 7614 H 706.858 0.112404 4.15948 0
M  V30 7615 H 705.734 -0.296169 5.481 0
M  V30 7616 H 705.995 -1.44506 4.17816 0
M  V30 7617 N 705.054 -1.51416 0.437162 0
M  V30 7618 C 706.294 -2.03995 -0.128538 0
M  V30 7619 C 706.658 -1.31417 -1.39977 0
M  V30 7620 O 707.859 -1.74369 -2.0457 0
M  V30 7621 C 706.13 -3.55757 -0.342317 0
M  V30 7622 S 707.689 -4.3006 -0.871446 0
M  V30 7623 H 704.507 -0.710283 -0.0319322 0
M  V30 7624 H 707.109 -1.86177 0.596526 0
M  V30 7625 H 705.813 -4.06148 0.589233 0
M  V30 7626 H 705.344 -3.77869 -1.09447 0
M  V30 7627 H 707.359 -4.47248 -2.14903 0
M  V30 7628 N 706.532 -0.168513 -1.56696 0
M  V30 7629 C 707.809 0.523367 -1.88468 0
M  V30 7630 C 708.189 1.81503 -1.07796 0
M  V30 7631 O 707.537 2.27859 -0.171045 0
M  V30 7632 C 707.747 0.767991 -3.40445 0
M  V30 7633 C 709.095 1.09924 -4.10124 0
M  V30 7634 O 710.119 0.856625 -3.45746 0
M  V30 7635 O 708.978 1.55681 -5.23856 0
M  V30 7636 H 706.072 0.269447 -0.781874 0
M  V30 7637 H 708.618 -0.206739 -1.68436 0
M  V30 7638 H 707.39 -0.145254 -3.9103 0
M  V30 7639 H 707.013 1.55151 -3.66079 0
M  V30 7640 N 708.01 1.57248 0.105221 0
M  V30 7641 C 708.973 2.00388 1.11252 0
M  V30 7642 C 709.973 0.89594 1.33527 0
M  V30 7643 O 711.163 1.16166 1.29811 0
M  V30 7644 C 708.295 2.35589 2.46395 0
M  V30 7645 H 709.488 2.90591 0.741424 0
M  V30 7646 H 707.041 1.52332 0.349956 0
M  V30 7647 H 707.776 1.4831 2.884 0
M  V30 7648 H 707.561 3.16408 2.31578 0
M  V30 7649 H 709.051 2.69658 3.18864 0
M  V30 7650 N 709.488 -0.375779 1.53054 0
M  V30 7651 C 710.418 -1.46598 1.81745 0
M  V30 7652 C 711.399 -1.56337 0.670286 0
M  V30 7653 O 712.584 -1.71071 0.919158 0
M  V30 7654 C 709.714 -2.84058 1.99821 0
M  V30 7655 C 708.668 -2.8915 3.15557 0
M  V30 7656 C 707.994 -4.29187 3.18908 0
M  V30 7657 C 709.294 -2.57595 4.54359 0
M  V30 7658 H 710.988 -1.22837 2.73041 0
M  V30 7659 H 708.534 -0.589485 1.31381 0
M  V30 7660 H 710.487 -3.60342 2.18475 0
M  V30 7661 H 709.211 -3.09184 1.05226 0
M  V30 7662 H 707.87 -2.15316 2.96706 0
M  V30 7663 H 707.518 -4.51374 2.2197 0
M  V30 7664 H 707.218 -4.33512 3.96662 0
M  V30 7665 H 708.742 -5.07359 3.39734 0
M  V30 7666 H 710.156 -3.23595 4.73243 0
M  V30 7667 H 708.553 -2.73252 5.34279 0
M  V30 7668 H 709.623 -1.52882 4.60169 0
M  V30 7669 N 710.966 -1.44241 -0.634997 0
M  V30 7670 C 711.914 -1.51103 -1.76835 0
M  V30 7671 C 712.908 -0.383051 -1.65012 0
M  V30 7672 O 714.114 -0.557832 -1.71138 0
M  V30 7673 H 710.489 -0.474076 -0.583743 0
M  V30 7674 H 712.46 -2.46499 -1.68169 0
M  V30 7675 C 711.209 -1.4687 -3.15158 0
M  V30 7676 H 710.532 -2.32979 -3.24901 0
M  V30 7677 H 711.972 -1.55731 -3.94365 0
M  V30 7678 C 710.431 -0.188884 -3.3637 0
M  V30 7679 O 710.961 0.742487 -3.94778 0
M  V30 7680 N 709.167 -0.0932516 -2.9045 0
M  V30 7681 H 708.714 -0.852004 -2.43102 0
M  V30 7682 H 708.672 0.762308 -3.05018 0
M  V30 7683 N 712.444 0.87505 -1.31075 0
M  V30 7684 C 713.391 1.98178 -1.18296 0
M  V30 7685 C 714.361 1.65952 -0.0699923 0
M  V30 7686 O 715.546 1.8926 -0.241951 0
M  V30 7687 C 712.686 3.33399 -0.891024 0
M  V30 7688 C 711.799 3.78253 -2.08684 0
M  V30 7689 C 710.934 5.02166 -1.73212 0
M  V30 7690 C 709.973 5.39455 -2.89231 0
M  V30 7691 N 709.11 6.54549 -2.53989 0
M  V30 7692 H 713.95 2.0844 -2.12971 0
M  V30 7693 H 711.487 1.02047 -1.05948 0
M  V30 7694 H 713.445 4.11246 -0.702338 0
M  V30 7695 H 712.075 3.22794 0.0188799 0
M  V30 7696 H 711.127 2.9623 -2.38646 0
M  V30 7697 H 712.439 4.01821 -2.95536 0
M  V30 7698 H 711.593 5.87666 -1.50777 0
M  V30 7699 H 710.332 4.80491 -0.83544 0
M  V30 7700 H 709.337 4.52477 -3.12321 0
M  V30 7701 H 710.562 5.63098 -3.79601 0
M  V30 7702 H 708.508 6.3443 -1.66838 0
M  V30 7703 H 708.425 6.78035 -3.34372 0
M  V30 7704 H 709.693 7.43254 -2.34934 0
M  V30 7705 N 713.922 1.13953 1.08869 0
M  V30 7706 C 714.855 0.765765 2.14968 0
M  V30 7707 C 715.833 -0.250689 1.60656 0
M  V30 7708 O 717.017 -0.140852 1.87973 0
M  V30 7709 C 714.144 0.136146 3.38426 0
M  V30 7710 C 713.19 1.12201 4.11477 0
M  V30 7711 S 714.023 2.65711 4.64928 0
M  V30 7712 C 715.179 2.04125 5.91679 0
M  V30 7713 H 715.412 1.66444 2.46341 0
M  V30 7714 H 712.945 0.960263 1.20906 0
M  V30 7715 H 714.903 -0.220712 4.09906 0
M  V30 7716 H 713.564 -0.739887 3.05261 0
M  V30 7717 H 712.757 0.629398 5.00055 0
M  V30 7718 H 712.359 1.42262 3.45886 0
M  V30 7719 H 714.651 1.39381 6.63008 0
M  V30 7720 H 715.594 2.90808 6.45629 0
M  V30 7721 H 716.002 1.4905 5.44467 0
M  V30 7722 N 715.4 -1.26948 0.933913 0
M  V30 7723 C 716.348 -2.2862 0.428463 0
M  V30 7724 C 717.342 -1.62144 -0.490464 0
M  V30 7725 O 718.548 -1.76167 -0.36948 0
M  V30 7726 H 714.923 -0.742363 0.120003 0
M  V30 7727 H 716.894 -2.68659 1.29865 0
M  V30 7728 C 715.643 -3.46423 -0.29774 0
M  V30 7729 H 714.966 -3.97792 0.400183 0
M  V30 7730 H 716.406 -4.19505 -0.615736 0
M  V30 7731 C 714.865 -3.01017 -1.51295 0
M  V30 7732 O 715.395 -3.05226 -2.61151 0
M  V30 7733 N 713.601 -2.56442 -1.36696 0
M  V30 7734 H 713.148 -2.53217 -0.473178 0
M  V30 7735 H 713.106 -2.26424 -2.18127 0
M  V30 7736 N 716.879 -0.700114 -1.41195 0
M  V30 7737 C 717.811 0.00155823 -2.292 0
M  V30 7738 C 718.824 0.739736 -1.45023 0
M  V30 7739 O 720.013 0.589684 -1.68478 0
M  V30 7740 C 717.113 1.02635 -3.22985 0
M  V30 7741 C 716.286 0.356871 -4.35942 0
M  V30 7742 C 715.345 1.28491 -5.10271 0
M  V30 7743 O 714.371 0.775562 -5.63892 0
M  V30 7744 N 715.573 2.61699 -5.18164 0
M  V30 7745 H 718.338 -0.754008 -2.9006 0
M  V30 7746 H 715.899 -0.546504 -1.52397 0
M  V30 7747 H 717.891 1.64902 -3.6958 0
M  V30 7748 H 716.461 1.68341 -2.63401 0
M  V30 7749 H 715.681 -0.445753 -3.91672 0
M  V30 7750 H 716.969 -0.108469 -5.08684 0
M  V30 7751 H 716.367 3.05594 -4.76056 0
M  V30 7752 H 714.924 3.19149 -5.6832 0
M  V30 7753 N 718.357 1.51182 -0.445186 0
M  V30 7754 C 719.587 2.06269 0.116922 0
M  V30 7755 C 719.995 1.31188 1.36332 0
M  V30 7756 O 719.338 0.367067 1.79995 0
M  V30 7757 C 719.4 3.56051 0.496757 0
M  V30 7758 C 719.064 4.52441 -0.64394 0
M  V30 7759 C 720.061 4.97233 -1.5184 0
M  V30 7760 C 717.746 4.95447 -0.826905 0
M  V30 7761 C 719.74 5.83712 -2.56046 0
M  V30 7762 C 717.427 5.81714 -1.87222 0
M  V30 7763 C 718.425 6.25745 -2.73738 0
M  V30 7764 O 718.113 7.10298 -3.76474 0
M  V30 7765 H 717.845 0.675954 0.00785733 0
M  V30 7766 H 720.399 1.95648 -0.625371 0
M  V30 7767 H 718.629 3.64483 1.29187 0
M  V30 7768 H 720.318 3.93618 0.990928 0
M  V30 7769 H 721.084 4.64696 -1.38862 0
M  V30 7770 H 716.963 4.60712 -0.163052 0
M  V30 7771 H 720.507 6.18 -3.23607 0
M  V30 7772 H 716.404 6.13664 -2.00218 0
M  V30 7773 H 717.172 7.28493 -3.73149 0
M  V30 7774 N 719.835 0.176821 1.56605 0
M  V30 7775 C 720.765 -0.746841 2.21234 0
M  V30 7776 C 721.746 -1.23502 1.16967 0
M  V30 7777 O 722.931 -1.28718 1.45414 0
M  V30 7778 C 720.061 -1.97407 2.8574 0
M  V30 7779 C 719.015 -1.62153 3.96094 0
M  V30 7780 C 718.341 -2.92387 4.47676 0
M  V30 7781 C 719.641 -0.845353 5.15413 0
M  V30 7782 H 721.335 -0.208116 2.98676 0
M  V30 7783 H 718.881 -0.0986594 1.43662 0
M  V30 7784 H 720.834 -2.62531 3.2963 0
M  V30 7785 H 719.558 -2.53703 2.05676 0
M  V30 7786 H 718.217 -0.993964 3.52868 0
M  V30 7787 H 717.865 -3.46734 3.64396 0
M  V30 7788 H 717.565 -2.69551 5.22127 0
M  V30 7789 H 719.089 -3.5853 4.94255 0
M  V30 7790 H 720.503 -1.39929 5.55961 0
M  V30 7791 H 718.9 -0.715814 5.95815 0
M  V30 7792 H 719.97 0.157239 4.84645 0
M  V30 7793 N 721.313 -1.57302 -0.09688 0
M  V30 7794 C 722.561 -1.8563 -0.799117 0
M  V30 7795 C 722.882 -0.765263 -1.79356 0
M  V30 7796 O 722.152 0.208657 -1.94786 0
M  V30 7797 H 720.732 -0.684937 -0.298111 0
M  V30 7798 H 723.394 -1.9474 -0.0789341 0
M  V30 7799 H 722.49 -2.82305 -1.3308 0
M  V30 7800 N 722.791 0.367657 -1.53252 0
M  V30 7801 C 724.04 1.10782 -1.68554 0
M  V30 7802 C 724.353 1.90523 -0.442765 0
M  V30 7803 O 725.559 2.6729 -0.47629 0
M  V30 7804 C 724.015 2.01863 -2.97959 0
M  V30 7805 C 723.623 1.27443 -4.29491 0
M  V30 7806 C 725.367 2.75883 -3.22628 0
M  V30 7807 C 723.274 2.17414 -5.49987 0
M  V30 7808 H 722.204 0.417272 -0.628013 0
M  V30 7809 H 724.855 0.368971 -1.79752 0
M  V30 7810 H 723.237 2.7947 -2.80558 0
M  V30 7811 H 724.411 0.549138 -4.57516 0
M  V30 7812 H 722.726 0.652935 -4.11249 0
M  V30 7813 H 725.323 3.43421 -4.09837 0
M  V30 7814 H 725.666 3.41138 -2.38601 0
M  V30 7815 H 726.199 2.0536 -3.40693 0
M  V30 7816 H 722.938 1.5674 -6.36485 0
M  V30 7817 H 722.458 2.87799 -5.26243 0
M  V30 7818 H 724.137 2.77019 -5.84696 0
M  V30 7819 O 724.308 1.53115 0.51363 0
M  V30 7820 H 724.999 1.54476 1.16863 0
M  V30 END ATOM
M  V30 BEGIN BOND
M  V30 END BOND
M  V30 END CTAB
M  END
$$$$
