drugbank_target|Q8IW41 MAP kinase-activated protein kinase 5 (DB12010)
 OpenBabel12092121163D

  0  0  0     0  0            999 V3000
M  V30 BEGIN CTAB
M  V30 COUNTS 7648 7725 0 0 0
M  V30 BEGIN ATOM
M  V30 1 H -0.908 1.98254 -0.117106 0
M  V30 2 N 0 1.576 0 0
M  V30 3 C 0.933 2.03868 1.02534 0
M  V30 4 C 1.911 0.928543 1.3348 0
M  V30 5 O 3.095 1.19667 1.45644 0
M  V30 6 C 0.222 2.43627 2.35294 0
M  V30 7 C -0.732 3.65373 2.2001 0
M  V30 8 S 0.101 5.13292 1.52614 0
M  V30 9 C 1.257 5.56322 2.86805 0
M  V30 10 H 1.49 2.90518 0.631377 0
M  V30 11 H -0.977 1.52953 0.210867 0
M  V30 12 H 0.981 2.67203 3.11629 0
M  V30 13 H -0.358 1.57376 2.7183 0
M  V30 14 H -1.165 3.90944 3.18086 0
M  V30 15 H -1.563 3.418 1.51819 0
M  V30 16 H 0.729 5.58782 3.83104 0
M  V30 17 H 1.672 6.56266 2.65933 0
M  V30 18 H 2.08 4.83886 2.90714 0
M  V30 19 N 1.4781 -0.272755 1.55222 0
M  V30 20 C 2.7031 -1.02683 1.80197 0
M  V30 21 C 3.1281 -1.79142 0.573551 0
M  V30 22 O 2.4861 -1.74917 -0.476849 0
M  V30 23 C 2.5341 -1.9609 3.02624 0
M  V30 24 O 1.6381 -3.04863 2.77727 0
M  V30 25 H 0.9791 -0.293557 0.595584 0
M  V30 26 H 3.5091 -0.30159 2.02365 0
M  V30 27 H 3.5191 -2.38039 3.31363 0
M  V30 28 H 2.1941 -1.39851 3.91682 0
M  V30 29 H 0.7711 -2.67228 2.60084 0
M  V30 30 N 2.9562 -1.48159 -0.537278 0
M  V30 31 C 3.8662 -1.64807 -1.6696 0
M  V30 32 C 4.8822 -0.530651 -1.65711 0
M  V30 33 O 6.0582 -0.800784 -1.84796 0
M  V30 34 C 3.1232 -1.67708 -3.03438 0
M  V30 35 C 2.1842 -2.91025 -3.156 0
M  V30 36 C 1.4172 -2.93778 -4.45567 0
M  V30 37 O 1.6402 -2.05153 -5.3223 0
M  V30 38 O 0.5742 -3.85868 -4.61941 0
M  V30 39 H 4.4002 -2.6066 -1.55853 0
M  V30 40 H 1.9852 -1.31475 -0.709549 0
M  V30 41 H 3.8672 -1.7218 -3.84619 0
M  V30 42 H 2.5422 -0.750278 -3.14885 0
M  V30 43 H 1.4492 -2.92089 -2.33741 0
M  V30 44 H 2.7822 -3.83065 -3.09066 0
M  V30 45 N 4.4343 0.785586 -1.36625 0
M  V30 46 C 5.3443 1.92964 -1.33425 0
M  V30 47 C 6.3603 1.72394 -0.235851 0
M  V30 48 O 7.5363 1.95866 -0.468878 0
M  V30 49 C 4.6013 3.27884 -1.12662 0
M  V30 50 C 3.6623 3.61204 -2.32013 0
M  V30 51 C 2.8953 4.89687 -2.12231 0
M  V30 52 O 3.1183 5.59704 -1.09945 0
M  V30 53 O 2.0523 5.21752 -3.00098 0
M  V30 54 H 5.8783 1.98613 -2.29753 0
M  V30 55 H 3.4633 0.926384 -1.17211 0
M  V30 56 H 5.3453 4.08614 -1.03016 0
M  V30 57 H 4.0203 3.23118 -0.193991 0
M  V30 58 H 2.9273 2.80765 -2.47228 0
M  V30 59 H 4.2603 3.70698 -3.23796 0
M  V30 60 N 5.9124 1.20967 1.01018 0
M  V30 61 C 7.1374 1.0503 1.78839 0
M  V30 62 C 7.5624 -0.395752 1.8389 0
M  V30 63 O 6.9204 -1.28529 1.27867 0
M  V30 64 C 6.9684 1.64602 3.2084 0
M  V30 65 O 6.0724 0.887988 4.02726 0
M  V30 66 H 5.4134 0.369987 0.551367 0
M  V30 67 H 7.9434 1.60399 1.27018 0
M  V30 68 H 7.9534 1.68607 3.71532 0
M  V30 69 H 6.6284 2.69841 3.16479 0
M  V30 70 H 5.2054 0.922648 3.61305 0
M  V30 71 N 7.3905 -1.2043 1.01659 0
M  V30 72 C 8.6675 -1.8548 0.621004 0
M  V30 73 C 9.0475 -1.9091 -0.900919 0
M  V30 74 O 8.3955 -1.41694 -1.79263 0
M  V30 75 C 8.6055 -3.25119 1.2688 0
M  V30 76 C 9.9535 -4.01403 1.38423 0
M  V30 77 O 10.9775 -3.34473 1.22501 0
M  V30 78 O 9.8365 -5.21265 1.64151 0
M  V30 79 H 6.9305 -0.798761 0.214266 0
M  V30 80 H 9.4765 -1.28019 1.11396 0
M  V30 81 H 8.2485 -3.15932 2.30873 0
M  V30 82 H 7.8715 -3.90212 0.762917 0
M  V30 83 N 8.8686 -0.792821 -1.36206 0
M  V30 84 C 9.8016 -0.139422 -2.27774 0
M  V30 85 C 10.7796 0.68649 -1.47398 0
M  V30 86 O 11.9636 0.656738 -1.7669 0
M  V30 87 C 9.0906 0.807947 -3.28922 0
M  V30 88 C 8.1366 0.0633999 -4.26453 0
M  V30 89 S 8.9696 -1.26319 -5.20388 0
M  V30 90 C 10.1256 -0.31991 -6.25082 0
M  V30 91 H 10.3586 -0.915809 -2.82843 0
M  V30 92 H 7.8916 -0.587203 -1.42798 0
M  V30 93 H 9.8496 1.34908 -3.87699 0
M  V30 94 H 8.5106 1.55761 -2.72759 0
M  V30 95 H 7.7036 0.782386 -4.9789 0
M  V30 96 H 7.3056 -0.407352 -3.71775 0
M  V30 97 H 9.5976 0.499985 -6.75653 0
M  V30 98 H 10.5406 -1.00307 -7.00959 0
M  V30 99 H 10.9486 0.0782694 -5.64446 0
M  V30 100 N 10.3467 1.47872 -0.545128 0
M  V30 101 C 11.6237 1.9554 0.0485222 0
M  V30 102 C 12.0037 1.4876 1.49779 0
M  V30 103 O 11.3517 0.720925 2.16829 0
M  V30 104 C 11.5617 3.48898 -0.084417 0
M  V30 105 C 12.9097 4.24547 0.0671239 0
M  V30 106 O 13.9337 3.56198 -0.0113649 0
M  V30 107 O 12.7927 5.45999 0.233882 0
M  V30 108 H 9.8867 0.823957 0.0708773 0
M  V30 109 H 12.4327 1.58327 -0.610798 0
M  V30 110 H 11.2047 3.75714 -1.09337 0
M  V30 111 H 10.8277 3.92845 0.613066 0
M  V30 112 N 11.8248 0.280983 1.55075 0
M  V30 113 C 12.7718 -0.603937 2.22758 0
M  V30 114 C 13.7418 -1.1452 1.20309 0
M  V30 115 O 14.9268 -1.19343 1.48869 0
M  V30 116 C 12.0668 -1.77947 2.95684 0
M  V30 117 C 11.1798 -1.2715 4.12864 0
M  V30 118 C 10.3148 -2.4093 4.7342 0
M  V30 119 C 9.3538 -1.87165 5.82783 0
M  V30 120 N 8.4908 -2.94441 6.37377 0
M  V30 121 H 13.3308 -0.020124 2.97993 0
M  V30 122 H 10.8678 0.00183425 1.471 0
M  V30 123 H 12.8258 -2.47055 3.36184 0
M  V30 124 H 11.4558 -2.33522 2.22861 0
M  V30 125 H 10.5078 -0.473331 3.77444 0
M  V30 126 H 11.8198 -0.837751 4.91715 0
M  V30 127 H 10.9738 -3.18021 5.1667 0
M  V30 128 H 9.7128 -2.87623 3.93859 0
M  V30 129 H 8.7178 -1.08556 5.38976 0
M  V30 130 H 9.9428 -1.41401 6.64216 0
M  V30 131 H 7.8888 -3.40505 5.60707 0
M  V30 132 H 7.8058 -2.55501 7.11516 0
M  V30 133 H 9.0738 -3.71489 6.85285 0
M  V30 134 N 13.3029 -1.57598 0.00835791 0
M  V30 135 C 14.2659 -2.07884 -0.965242 0
M  V30 136 C 15.2659 -0.989825 -1.26725 0
M  V30 137 O 16.4559 -1.25218 -1.21104 0
M  V30 138 C 13.5879 -2.52731 -2.28779 0
M  V30 139 H 14.7809 -2.95178 -0.530112 0
M  V30 140 H 12.3339 -1.54458 -0.239283 0
M  V30 141 H 13.0689 -1.68705 -2.76964 0
M  V30 142 H 12.8539 -3.32272 -2.08177 0
M  V30 143 H 14.3439 -2.91933 -2.98605 0
M  V30 144 N 14.781 0.264519 -1.55364 0
M  V30 145 C 16.03 0.992812 -1.75574 0
M  V30 146 C 16.343 1.87142 -0.568979 0
M  V30 147 O 17.549 2.63513 -0.653682 0
M  V30 148 C 16.005 1.81519 -3.10771 0
M  V30 149 C 15.613 0.984839 -4.37041 0
M  V30 150 C 17.357 2.53727 -3.40327 0
M  V30 151 C 15.264 1.80209 -5.63275 0
M  V30 152 H 14.194 0.374412 -0.65447 0
M  V30 153 H 16.845 0.248138 -1.81815 0
M  V30 154 H 15.227 2.60115 -2.98591 0
M  V30 155 H 16.401 0.242455 -4.60162 0
M  V30 156 H 14.716 0.37691 -4.14691 0
M  V30 157 H 17.313 3.15292 -4.3185 0
M  V30 158 H 17.656 3.24447 -2.60845 0
M  V30 159 H 18.189 1.82156 -3.53644 0
M  V30 160 H 14.928 1.13896 -6.45529 0
M  V30 161 H 14.448 2.52022 -5.44284 0
M  V30 162 H 16.127 2.37364 -6.01887 0
M  V30 163 N 16.2591 1.48442 0.529413 0
M  V30 164 C 17.2061 1.63007 1.63394 0
M  V30 165 C 18.1761 0.47212 1.59249 0
M  V30 166 O 19.3611 0.695673 1.77666 0
M  V30 167 C 16.5011 1.6763 3.01653 0
M  V30 168 C 15.6141 2.94535 3.16027 0
M  V30 169 C 14.7491 2.90316 4.44849 0
M  V30 170 C 13.7881 4.11923 4.52754 0
M  V30 171 N 12.9251 4.05777 5.72965 0
M  V30 172 H 17.7651 2.5733 1.50285 0
M  V30 173 H 15.3021 1.27613 0.731656 0
M  V30 174 H 17.2601 1.68292 3.81751 0
M  V30 175 H 15.8901 0.76797 3.13532 0
M  V30 176 H 14.9421 3.03615 2.29177 0
M  V30 177 H 16.2541 3.84512 3.17729 0
M  V30 178 H 15.4081 2.89382 5.33238 0
M  V30 179 H 14.1471 1.98068 4.45668 0
M  V30 180 H 13.1521 4.13131 3.62771 0
M  V30 181 H 14.3771 5.0533 4.53672 0
M  V30 182 H 12.3231 3.16351 5.74681 0
M  V30 183 H 12.2401 4.8946 5.76164 0
M  V30 184 H 13.5081 4.08904 6.6364 0
M  V30 185 N 17.7372 -0.778329 1.37039 0
M  V30 186 C 18.6472 -1.92253 1.34446 0
M  V30 187 C 19.6632 -1.72267 0.244991 0
M  V30 188 O 20.8392 -1.95615 0.479258 0
M  V30 189 C 17.9042 -3.27282 1.144 0
M  V30 190 C 16.9652 -3.59969 2.33925 0
M  V30 191 C 16.1982 -4.88555 2.14825 0
M  V30 192 O 16.4212 -5.59113 1.12912 0
M  V30 193 O 15.3552 -5.20153 3.02861 0
M  V30 194 H 19.1812 -1.97392 2.30803 0
M  V30 195 H 16.7662 -0.920154 1.17701 0
M  V30 196 H 18.6482 -4.08062 1.05182 0
M  V30 197 H 17.3232 -3.23011 0.211124 0
M  V30 198 H 16.2302 -2.7945 2.48714 0
M  V30 199 H 17.5632 -3.68976 3.25757 0
M  V30 200 N 19.2153 -1.21501 -1.00376 0
M  V30 201 C 20.4433 -1.059 -1.77744 0
M  V30 202 C 20.8583 0.391125 -1.84704 0
M  V30 203 O 20.2153 1.27133 -1.30933 0
M  V30 204 C 20.2663 -1.65111 -3.21591 0
M  V30 205 O 19.9873 -3.0445 -3.15027 0
M  V30 206 C 21.4883 -1.54637 -4.15454 0
M  V30 207 H 18.7083 -0.371825 -0.558558 0
M  V30 208 H 21.2523 -1.60865 -1.26264 0
M  V30 209 H 19.4073 -1.14235 -3.70175 0
M  V30 210 H 19.8213 -3.3278 -4.0541 0
M  V30 211 H 21.2953 -2.00808 -5.14179 0
M  V30 212 H 21.7723 -0.501022 -4.36333 0
M  V30 213 H 22.3783 -2.04767 -3.72761 0
M  V30 214 N 20.6934 1.19889 -1.02296 0
M  V30 215 C 21.9184 1.9393 -0.735237 0
M  V30 216 C 22.3434 1.74639 0.698782 0
M  V30 217 O 21.7014 1.04481 1.48167 0
M  V30 218 C 21.7494 3.43916 -1.08417 0
M  V30 219 O 20.8534 4.11917 -0.199446 0
M  V30 220 H 20.1944 0.605645 -0.272196 0
M  V30 221 H 22.7244 1.52137 -1.36804 0
M  V30 222 H 22.7344 3.9456 -1.03856 0
M  V30 223 H 21.4094 3.5728 -2.12894 0
M  V30 224 H 19.9864 3.71666 -0.303136 0
M  V30 225 N 22.1715 0.800033 1.35784 0
M  V30 226 C 23.4205 0.37387 1.98205 0
M  V30 227 C 23.7335 -1.06302 1.64193 0
M  V30 228 O 24.9395 -1.59198 2.19928 0
M  V30 229 C 23.3955 0.617532 3.54562 0
M  V30 230 C 23.0035 2.06654 3.9749 0
M  V30 231 C 24.7475 0.256401 4.23725 0
M  V30 232 C 22.6545 2.2563 5.46667 0
M  V30 233 H 21.5845 0.136055 0.741623 0
M  V30 234 H 24.2355 0.983166 1.54939 0
M  V30 235 H 22.6175 -0.0616248 3.95952 0
M  V30 236 H 23.7915 2.78296 3.67271 0
M  V30 237 H 22.1065 2.38691 3.41197 0
M  V30 238 H 24.7035 0.376318 5.33374 0
M  V30 239 H 25.0465 -0.796692 4.08606 0
M  V30 240 H 25.5795 0.889214 3.87734 0
M  V30 241 H 22.3185 3.2936 5.66747 0
M  V30 242 H 21.8385 1.58504 5.78478 0
M  V30 243 H 23.5175 2.06861 6.1304 0
M  V30 244 N 23.6496 -1.47581 0.552962 0
M  V30 245 C 24.5796 -2.32762 -0.185451 0
M  V30 246 C 25.5606 -1.43527 -0.912905 0
M  V30 247 O 26.7456 -1.72388 -0.894201 0
M  V30 248 C 23.8756 -3.25219 -1.21859 0
M  V30 249 C 22.8296 -4.23661 -0.607864 0
M  V30 250 C 22.1556 -5.05413 -1.74533 0
M  V30 251 C 23.4556 -5.20481 0.435582 0
M  V30 252 H 25.1496 -2.94749 0.525684 0
M  V30 253 H 22.6956 -1.41738 0.254251 0
M  V30 254 H 24.6486 -3.8365 -1.7433 0
M  V30 255 H 23.3726 -2.61279 -1.95961 0
M  V30 256 H 22.0316 -3.66451 -0.104489 0
M  V30 257 H 21.6796 -4.3788 -2.47529 0
M  V30 258 H 21.3796 -5.72059 -1.34249 0
M  V30 259 H 22.9036 -5.66701 -2.27338 0
M  V30 260 H 24.3176 -5.733 -0.00290157 0
M  V30 261 H 22.7146 -5.95305 0.757067 0
M  V30 262 H 23.7846 -4.66217 1.33303 0
M  V30 263 N 25.1277 -0.289203 -1.54924 0
M  V30 264 C 26.0377 0.601863 -2.26748 0
M  V30 265 C 27.0537 1.15834 -1.2984 0
M  V30 266 O 28.2297 1.18564 -1.62802 0
M  V30 267 C 25.2947 1.76299 -2.98529 0
M  V30 268 C 24.3557 1.24178 -4.10948 0
M  V30 269 C 23.5887 2.34757 -4.79296 0
M  V30 270 O 23.8117 3.54411 -4.46933 0
M  V30 271 O 22.7457 2.02115 -5.66951 0
M  V30 272 H 26.5717 0.0195879 -3.03694 0
M  V30 273 H 24.1567 -0.0560868 -1.49295 0
M  V30 274 H 26.0387 2.43973 -3.43592 0
M  V30 275 H 24.7137 2.33209 -2.24488 0
M  V30 276 H 23.6207 0.531104 -3.70311 0
M  V30 277 H 24.9537 0.718252 -4.86931 0
M  V30 278 N 26.6058 1.57591 -0.0167156 0
M  V30 279 C 27.5158 2.1291 0.98521 0
M  V30 280 C 28.5318 1.07834 1.36557 0
M  V30 281 O 29.7078 1.39826 1.44951 0
M  V30 282 C 26.7728 2.63512 2.25305 0
M  V30 283 C 25.8338 3.83256 1.93426 0
M  V30 284 C 25.0668 4.31435 3.14165 0
M  V30 285 O 25.2898 3.78851 4.26413 0
M  V30 286 O 24.2238 5.23416 2.97186 0
M  V30 287 H 28.0498 2.98772 0.544888 0
M  V30 288 H 25.6348 1.48012 0.203141 0
M  V30 289 H 27.5168 2.96183 2.99756 0
M  V30 290 H 26.1918 1.8074 2.68542 0
M  V30 291 H 25.0988 3.55531 1.16398 0
M  V30 292 H 26.4318 4.67153 1.55013 0
M  V30 293 N 28.0839 -0.256276 1.55502 0
M  V30 294 C 29.3139 -1.00196 1.80677 0
M  V30 295 C 29.7219 -1.79805 0.588797 0
M  V30 296 O 29.0649 -1.78055 -0.451883 0
M  V30 297 C 29.1269 -1.99515 2.99055 0
M  V30 298 C 28.7909 -1.38688 4.35448 0
M  V30 299 C 29.7879 -0.794079 5.138 0
M  V30 300 C 27.4729 -1.40906 4.82132 0
M  V30 301 C 29.4669 -0.231562 6.36979 0
M  V30 302 C 27.1539 -0.842684 6.05262 0
M  V30 303 C 28.1519 -0.254953 6.82524 0
M  V30 304 O 27.8399 0.3027 8.0333 0
M  V30 305 H 27.5719 -0.300919 0.60533 0
M  V30 306 H 30.1259 -0.287307 2.03381 0
M  V30 307 H 28.3559 -2.74785 2.72084 0
M  V30 308 H 30.0449 -2.60349 3.11405 0
M  V30 309 H 30.8109 -0.769519 4.78856 0
M  V30 310 H 26.6899 -1.85591 4.21992 0
M  V30 311 H 30.2339 0.227816 6.97228 0
M  V30 312 H 26.1309 -0.86454 6.39684 0
M  V30 313 H 26.8989 0.193662 8.18271 0
M  V30 314 N 29.562 -1.4872 -0.521534 0
M  V30 315 C 30.787 -1.61101 -1.30618 0
M  V30 316 C 31.212 -0.274611 -1.86085 0
M  V30 317 O 30.57 0.754937 -1.64834 0
M  V30 318 C 30.618 -2.66709 -2.4269 0
M  V30 319 O 29.722 -2.24456 -3.45967 0
M  V30 320 H 29.063 -0.539921 -0.386499 0
M  V30 321 H 31.593 -1.94767 -0.626645 0
M  V30 322 H 31.603 -2.88245 -2.88754 0
M  V30 323 H 30.278 -3.63727 -2.01682 0
M  V30 324 H 28.855 -2.13168 -3.05964 0
M  V30 325 N 31.0401 0.771051 -1.3745 0
M  V30 326 C 32.2891 1.52491 -1.3202 0
M  V30 327 C 32.6021 1.9538 0.0927347 0
M  V30 328 O 33.8081 2.70159 0.269503 0
M  V30 329 C 32.2641 2.75366 -2.31736 0
M  V30 330 C 31.8721 2.39573 -3.78562 0
M  V30 331 C 33.6161 3.53307 -2.35318 0
M  V30 332 C 31.5231 3.58954 -4.70007 0
M  V30 333 H 30.4531 0.572506 -0.490666 0
M  V30 334 H 33.1041 0.844474 -1.62914 0
M  V30 335 H 31.4861 3.45303 -1.93861 0
M  V30 336 H 32.6601 1.77415 -4.25277 0
M  V30 337 H 30.9751 1.74805 -3.77932 0
M  V30 338 H 33.5721 4.42039 -3.00842 0
M  V30 339 H 33.9151 3.93217 -1.36698 0
M  V30 340 H 34.4481 2.90367 -2.71904 0
M  V30 341 H 31.1871 3.24125 -5.69757 0
M  V30 342 H 30.7071 4.20214 -4.27996 0
M  V30 343 H 32.3861 4.25758 -4.87175 0
M  V30 344 N 32.5182 1.22032 0.997298 0
M  V30 345 C 33.4662 0.983634 2.10778 0
M  V30 346 C 34.4602 -0.0717564 1.69248 0
M  V30 347 O 35.6662 0.080304 1.79821 0
M  V30 348 H 32.0412 0.300877 0.689186 0
M  V30 349 H 34.0122 1.92606 2.27916 0
M  V30 350 C 32.7612 0.57326 3.42942 0
M  V30 351 H 32.0842 1.37702 3.75338 0
M  V30 352 H 33.5242 0.447031 4.21637 0
M  V30 353 C 31.9832 -0.7167 3.29188 0
M  V30 354 O 32.5132 -1.77027 3.60589 0
M  V30 355 N 30.7192 -0.686167 2.82383 0
M  V30 356 H 30.2662 0.171507 2.57028 0
M  V30 357 H 30.2242 -1.54955 2.73562 0
M  V30 358 N 33.9963 -1.19345 1.0293 0
M  V30 359 C 35.2423 -1.89585 0.736824 0
M  V30 360 C 35.5973 -1.78148 -0.726703 0
M  V30 361 O 34.8903 -1.16332 -1.52242 0
M  V30 362 C 35.0843 -3.39292 1.12319 0
M  V30 363 C 34.9133 -3.65298 2.62273 0
M  V30 364 C 33.6833 -3.83304 3.29251 0
M  V30 365 C 35.8813 -3.6682 3.60482 0
M  V30 366 N 33.8633 -3.96944 4.68304 0
M  V30 367 C 35.2343 -3.86037 4.85155 0
M  V30 368 C 37.2893 -3.49848 3.54275 0
M  V30 369 C 35.9923 -3.9004 6.04369 0
M  V30 370 C 38.0183 -3.55129 4.72903 0
M  V30 371 C 37.3803 -3.74831 5.9639 0
M  V30 372 H 33.4793 -0.712856 0.321497 0
M  V30 373 H 36.0633 -1.43427 1.31669 0
M  V30 374 H 34.2343 -3.84172 0.571524 0
M  V30 375 H 35.9663 -3.97055 0.78292 0
M  V30 376 H 32.7213 -3.82211 2.79663 0
M  V30 377 H 33.1453 -4.07613 5.40538 0
M  V30 378 H 37.7873 -3.33572 2.59788 0
M  V30 379 H 35.5053 -4.05108 6.99223 0
M  V30 380 H 39.0913 -3.43287 4.69729 0
M  V30 381 H 37.9713 -3.78792 6.86649 0
M  V30 382 N 35.4744 -0.807222 -1.35358 0
M  V30 383 C 36.7024 -0.400377 -2.02989 0
M  V30 384 C 37.1174 0.988859 -1.60832 0
M  V30 385 O 36.4744 1.63729 -0.806175 0
M  V30 386 C 36.5254 -0.474867 -3.58368 0
M  V30 387 O 36.2464 -1.80933 -3.98992 0
M  V30 388 C 37.7474 -0.0609112 -4.43258 0
M  V30 389 H 34.9674 -0.162587 -0.651004 0
M  V30 390 H 37.5114 -1.09102 -1.72965 0
M  V30 391 H 35.6664 0.167534 -3.87038 0
M  V30 392 H 36.0804 -1.77256 -4.9364 0
M  V30 393 H 37.5544 -0.164145 -5.51756 0
M  V30 394 H 38.0314 0.993831 -4.27808 0
M  V30 395 H 38.6374 -0.676492 -4.19885 0
M  V30 396 N 36.9525 1.47285 -0.560781 0
M  V30 397 C 37.8845 2.28118 0.222438 0
M  V30 398 C 38.8975 1.37219 0.876056 0
M  V30 399 O 40.0865 1.62011 0.749307 0
M  V30 400 C 37.1865 3.1159 1.33285 0
M  V30 401 C 36.3595 4.30473 0.77534 0
M  V30 402 C 35.4185 4.95513 1.77069 0
M  V30 403 O 34.4445 5.53792 1.31539 0
M  V30 404 N 35.6465 4.90531 3.10418 0
M  V30 405 H 38.4115 2.95976 -0.470958 0
M  V30 406 H 35.9725 1.56955 -0.39709 0
M  V30 407 H 37.9645 3.51967 1.99752 0
M  V30 408 H 36.5345 2.45951 1.92943 0
M  V30 409 H 35.7545 3.94144 -0.0662113 0
M  V30 410 H 37.0425 5.07362 0.382272 0
M  V30 411 H 36.4405 4.44389 3.5005 0
M  V30 412 H 34.9975 5.34917 3.72434 0
M  V30 413 N 38.4306 0.297415 1.54768 0
M  V30 414 C 39.3776 -0.580276 2.23386 0
M  V30 415 C 40.3476 -1.13238 1.21517 0
M  V30 416 O 41.5326 -1.17757 1.50126 0
M  V30 417 C 38.6726 -1.74801 2.97555 0
M  V30 418 C 37.7856 -1.22764 4.1419 0
M  V30 419 C 36.9206 -2.35895 4.75949 0
M  V30 420 C 35.9596 -1.80974 5.84735 0
M  V30 421 N 35.0966 -2.87664 6.40464 0
M  V30 422 H 39.9366 0.0114833 2.97998 0
M  V30 423 H 37.4736 0.0174361 1.4709 0
M  V30 424 H 39.4316 -2.43475 3.38786 0
M  V30 425 H 38.0616 -2.31145 2.25326 0
M  V30 426 H 37.1136 -0.433271 3.77924 0
M  V30 427 H 38.4256 -0.785551 4.92575 0
M  V30 428 H 37.5796 -3.12523 5.20014 0
M  V30 429 H 36.3186 -2.83429 3.96887 0
M  V30 430 H 35.3236 -1.02834 5.40097 0
M  V30 431 H 36.5486 -1.34348 6.65678 0
M  V30 432 H 34.4946 -3.34538 5.64287 0
M  V30 433 H 34.4116 -2.4794 7.14186 0
M  V30 434 H 35.6796 -3.642 6.89187 0
M  V30 435 N 39.9087 -1.5758 0.0250728 0
M  V30 436 C 40.8387 -2.13007 -0.956575 0
M  V30 437 C 41.8197 -1.0452 -1.342 0
M  V30 438 O 43.0047 -1.32332 -1.42133 0
M  V30 439 C 40.1347 -2.65386 -2.24026 0
M  V30 440 C 39.0887 -3.78623 -1.99571 0
M  V30 441 C 38.4147 -4.17414 -3.3417 0
M  V30 442 C 39.7147 -5.04867 -1.33814 0
M  V30 443 H 41.4087 -2.9528 -0.494991 0
M  V30 444 H 38.9547 -1.42042 -0.236651 0
M  V30 445 H 40.9077 -3.02794 -2.93076 0
M  V30 446 H 39.6317 -1.80268 -2.72343 0
M  V30 447 H 38.2907 -3.41646 -1.32941 0
M  V30 448 H 37.9387 -3.29284 -3.80238 0
M  V30 449 H 37.6387 -4.93719 -3.18615 0
M  V30 450 H 39.1627 -4.57402 -4.04495 0
M  V30 451 H 40.5767 -5.39888 -1.92857 0
M  V30 452 H 38.9737 -5.86144 -1.28669 0
M  V30 453 H 40.0437 -4.83904 -0.310561 0
M  V30 454 N 41.3868 0.248026 -1.55636 0
M  V30 455 C 42.6348 0.974295 -1.77065 0
M  V30 456 C 42.9558 1.85897 -0.588849 0
M  V30 457 O 42.2258 1.91868 0.395407 0
M  V30 458 H 40.8058 0.362733 -0.653019 0
M  V30 459 H 43.4678 0.266244 -1.93073 0
M  V30 460 H 42.5638 1.59667 -2.68166 0
M  V30 461 N 42.8649 1.48995 0.513639 0
M  V30 462 C 43.8279 1.64229 1.59879 0
M  V30 463 C 44.8279 0.514696 1.5234 0
M  V30 464 O 46.0179 0.78087 1.55718 0
M  V30 465 C 43.1499 1.62783 2.99524 0
M  V30 466 H 44.3429 2.61004 1.47705 0
M  V30 467 H 41.8959 1.37837 0.736936 0
M  V30 468 H 42.6309 0.675461 3.17188 0
M  V30 469 H 42.4159 2.4466 3.06404 0
M  V30 470 H 43.9059 1.76669 3.78388 0
M  V30 471 N 44.343 -0.763751 1.37857 0
M  V30 472 C 45.591 -1.51957 1.33243 0
M  V30 473 C 45.912 -1.94835 -0.0801709 0
M  V30 474 O 45.182 -1.66894 -1.02582 0
M  V30 475 H 43.762 -0.563626 0.49024 0
M  V30 476 H 46.424 -0.908504 1.7243 0
M  V30 477 H 45.52 -2.41523 1.97669 0
M  V30 478 N 45.8211 -1.22559 -0.990812 0
M  V30 479 C 47.0701 -1.04553 -1.72486 0
M  V30 480 C 47.3831 0.419349 -1.91052 0
M  V30 481 O 48.5891 0.719121 -2.61803 0
M  V30 482 C 47.0451 -1.82231 -3.10355 0
M  V30 483 C 46.6531 -3.32981 -2.99713 0
M  V30 484 C 48.3971 -1.7268 -3.87791 0
M  V30 485 C 46.3041 -4.03091 -4.32748 0
M  V30 486 H 45.2341 -0.387614 -0.646739 0
M  V30 487 H 47.8851 -1.46429 -1.10593 0
M  V30 488 H 46.2671 -1.33155 -3.72942 0
M  V30 489 H 47.4411 -3.89466 -2.46278 0
M  V30 490 H 45.7561 -3.43231 -2.35758 0
M  V30 491 H 48.3531 -2.22381 -4.86262 0
M  V30 492 H 48.6961 -0.687607 -4.10582 0
M  V30 493 H 49.2291 -2.1931 -3.31885 0
M  V30 494 H 45.9681 -5.07273 -4.15156 0
M  V30 495 H 45.4881 -3.51394 -4.86089 0
M  V30 496 H 47.1671 -4.08804 -5.01486 0
M  V30 497 N 47.2992 1.18797 -1.03562 0
M  V30 498 C 48.5242 1.9314 -0.755764 0
M  V30 499 C 48.9492 1.7537 0.68022 0
M  V30 500 O 48.3072 1.06046 1.47051 0
M  V30 501 C 48.3552 3.42747 -1.12058 0
M  V30 502 O 47.4592 4.11683 -0.243124 0
M  V30 503 H 46.8002 0.602724 -0.278604 0
M  V30 504 H 49.3302 1.50678 -1.3841 0
M  V30 505 H 49.3402 3.93437 -1.08035 0
M  V30 506 H 48.0152 3.55002 -2.16672 0
M  V30 507 H 46.5922 3.71323 -0.342539 0
M  V30 508 N 48.7773 0.814389 1.34928 0
M  V30 509 C 50.0253 0.397636 1.9815 0
M  V30 510 C 50.3463 -1.04069 1.64908 0
M  V30 511 O 49.6163 -1.72121 0.93548 0
M  V30 512 H 48.1963 0.144043 0.732981 0
M  V30 513 H 50.8583 1.04195 1.6471 0
M  V30 514 H 49.9543 0.509688 3.0791 0
M  V30 515 N 50.2554 -1.46986 0.568584 0
M  V30 516 C 51.6664 -1.86188 0.138219 0
M  V30 517 C 52.0174 -1.47388 -1.29504 0
M  V30 518 O 51.1424 -0.88219 -1.97602 0
M  V30 519 C 51.7374 -3.3792 0.244065 0
M  V30 520 C 50.2964 -3.76171 -0.131335 0
M  V30 521 C 49.4434 -2.71027 0.586465 0
M  V30 522 H 52.3944 -1.38342 0.777645 0
M  V30 523 H 52.4154 -3.76729 -0.534351 0
M  V30 524 H 51.9274 -3.66128 1.28731 0
M  V30 525 H 50.0284 -3.5358 -1.17526 0
M  V30 526 H 50.1414 -4.78523 0.235146 0
M  V30 527 H 48.5054 -2.54684 0.0282722 0
M  V30 528 H 49.2884 -3.02077 1.63109 0
M  V30 529 N 51.7335 -0.305618 -1.54608 0
M  V30 530 C 52.9795 0.302746 -2.00528 0
M  V30 531 C 53.3125 1.53184 -1.19367 0
M  V30 532 O 52.5875 1.92598 -0.271321 0
M  V30 533 C 52.8705 0.654756 -3.54097 0
M  V30 534 C 52.7235 -0.583793 -4.45995 0
M  V30 535 C 54.0425 1.47947 -4.14487 0
M  V30 536 H 51.1615 0.108564 -0.72896 0
M  V30 537 H 53.8035 -0.418634 -1.85331 0
M  V30 538 H 51.9535 1.26935 -3.67178 0
M  V30 539 H 53.6255 -1.22224 -4.44814 0
M  V30 540 H 51.8685 -1.21615 -4.16404 0
M  V30 541 H 52.5395 -0.293287 -5.5122 0
M  V30 542 H 55.0155 0.96013 -4.04871 0
M  V30 543 H 53.8915 1.69454 -5.22088 0
M  V30 544 H 54.1525 2.47011 -3.66658 0
M  V30 545 N 53.2116 1.57565 -0.0334293 0
M  V30 546 C 54.6276 1.56297 0.322997 0
M  V30 547 C 54.8276 1.03945 1.7262 0
M  V30 548 O 53.8836 0.688109 2.42943 0
M  V30 549 C 55.1966 3.00232 0.167664 0
M  V30 550 C 56.7446 3.12078 0.240107 0
M  V30 551 C 57.2196 4.57859 0.113513 0
M  V30 552 N 58.7106 4.62887 0.170359 0
M  V30 553 C 59.4456 5.73319 0.0962517 0
M  V30 554 N 58.9416 6.92794 -0.0291881 0
M  V30 555 N 60.7346 5.61898 0.150551 0
M  V30 556 H 52.8856 1.89923 -0.950956 0
M  V30 557 H 55.1486 0.873824 -0.367608 0
M  V30 558 H 54.8546 3.42501 -0.799102 0
M  V30 559 H 54.7286 3.654 0.936083 0
M  V30 560 H 57.1156 2.69718 1.19733 0
M  V30 561 H 57.1966 2.49623 -0.558763 0
M  V30 562 H 56.8406 5.009 -0.840314 0
M  V30 563 H 56.7706 5.18299 0.931302 0
M  V30 564 H 59.2616 3.76954 0.26728 0
M  V30 565 H 59.5746 7.7276 -0.0789252 0
M  V30 566 H 57.9196 6.94971 -0.0640299 0
M  V30 567 H 61.1106 4.67448 0.246981 0
M  V30 568 H 61.2836 6.47938 0.0893365 0
M  V30 569 N 54.6897 -0.239769 1.55765 0
M  V30 570 C 55.9357 -0.968234 1.78194 0
M  V30 571 C 56.2687 -1.84701 0.599938 0
M  V30 572 O 55.5437 -1.9031 -0.401524 0
M  V30 573 C 55.8267 -1.8227 3.10564 0
M  V30 574 C 55.6797 -0.971633 4.3918 0
M  V30 575 C 56.9987 -2.80388 3.39221 0
M  V30 576 H 54.1177 -0.350572 0.648281 0
M  V30 577 H 56.7597 -0.238259 1.885 0
M  V30 578 H 54.9097 -2.44507 3.01908 0
M  V30 579 H 56.5817 -0.367408 4.59835 0
M  V30 580 H 54.8247 -0.276276 4.32919 0
M  V30 581 H 55.4957 -1.60346 5.28198 0
M  V30 582 H 57.9717 -2.28287 3.47885 0
M  V30 583 H 56.8477 -3.3729 4.33044 0
M  V30 584 H 57.1087 -3.57212 2.60484 0
M  V30 585 N 56.1678 -1.49265 -0.50573 0
M  V30 586 C 57.4078 -1.60128 -1.27038 0
M  V30 587 C 57.7718 -0.279557 -1.89954 0
M  V30 588 O 58.9728 -0.263329 -2.67507 0
M  V30 589 C 57.2438 -2.72507 -2.31246 0
M  V30 590 S 58.8028 -3.0329 -3.17113 0
M  V30 591 H 55.6208 -0.564863 -0.4318 0
M  V30 592 H 58.2228 -1.86902 -0.573397 0
M  V30 593 H 56.9268 -3.67068 -1.83546 0
M  V30 594 H 56.4578 -2.4771 -3.05619 0
M  V30 595 H 58.4728 -2.44448 -4.31809 0
M  V30 596 N 57.6459 0.756429 -1.3826 0
M  V30 597 C 58.8919 1.51772 -1.34511 0
M  V30 598 C 59.2249 1.94089 0.0656691 0
M  V30 599 O 58.4999 1.65221 1.02626 0
M  V30 600 C 58.7829 2.77226 -2.29821 0
M  V30 601 C 58.6359 2.41065 -3.79747 0
M  V30 602 C 59.9549 3.79236 -2.23312 0
M  V30 603 H 57.0739 0.550578 -0.489931 0
M  V30 604 H 59.7159 0.866607 -1.69086 0
M  V30 605 H 57.8659 3.32784 -2.00467 0
M  V30 606 H 59.5379 1.91303 -4.19763 0
M  V30 607 H 57.7809 1.7356 -3.97567 0
M  V30 608 H 58.4519 3.3081 -4.41892 0
M  V30 609 H 60.9279 3.3321 -2.49219 0
M  V30 610 H 59.8039 4.64714 -2.92116 0
M  V30 611 H 60.0649 4.24615 -1.23102 0
M  V30 612 N 59.124 1.23083 0.984299 0
M  V30 613 C 60.071 1.00854 2.07598 0
M  V30 614 C 61.041 -0.0726709 1.65941 0
M  V30 615 O 62.226 0.0786535 1.90638 0
M  V30 616 C 59.366 0.601645 3.39815 0
M  V30 617 C 58.479 1.75456 3.94765 0
M  V30 618 C 57.614 1.29482 5.15177 0
M  V30 619 C 56.653 2.41873 5.62284 0
M  V30 620 N 55.79 1.96885 6.73929 0
M  V30 621 H 60.63 1.943 2.25946 0
M  V30 622 H 58.167 0.968001 1.10762 0
M  V30 623 H 60.125 0.346854 4.15756 0
M  V30 624 H 58.755 -0.295803 3.21442 0
M  V30 625 H 57.807 2.12346 3.15616 0
M  V30 626 H 59.119 2.59965 4.25699 0
M  V30 627 H 58.273 0.997923 5.98437 0
M  V30 628 H 57.012 0.420046 4.85888 0
M  V30 629 H 56.017 2.72342 4.77608 0
M  V30 630 H 57.242 3.29881 5.93595 0
M  V30 631 H 55.188 1.11782 6.46406 0
M  V30 632 H 55.105 2.74956 7.04227 0
M  V30 633 H 56.373 1.70289 7.60672 0
M  V30 634 N 60.6021 -1.18246 1.0419 0
M  V30 635 C 61.5491 -2.2192 0.634037 0
M  V30 636 C 62.5191 -1.62179 -0.358765 0
M  V30 637 O 63.7041 -1.89122 -0.252466 0
M  V30 638 C 60.8441 -3.451 0.00445535 0
M  V30 639 C 59.9571 -4.19174 1.04487 0
M  V30 640 C 59.0921 -5.29813 0.383676 0
M  V30 641 C 58.1311 -5.9566 1.4091 0
M  V30 642 N 57.2681 -6.97834 0.772784 0
M  V30 643 H 62.1081 -2.56164 1.52263 0
M  V30 644 H 59.6451 -1.25843 0.761701 0
M  V30 645 H 61.6031 -4.15485 -0.377919 0
M  V30 646 H 60.2331 -3.11472 -0.847652 0
M  V30 647 H 59.2851 -3.47604 1.54518 0
M  V30 648 H 60.5971 -4.64267 1.82368 0
M  V30 649 H 59.7511 -6.06677 -0.0528366 0
M  V30 650 H 58.4901 -4.85825 -0.427208 0
M  V30 651 H 57.4951 -5.17535 1.85574 0
M  V30 652 H 58.7201 -6.4173 2.22171 0
M  V30 653 H 56.6661 -6.55998 -0.0177708 0
M  V30 654 H 56.5831 -7.41186 1.48928 0
M  V30 655 H 57.8511 -7.78665 0.36071 0
M  V30 656 N 62.0802 -0.821533 -1.34494 0
M  V30 657 C 63.3052 -0.420873 -2.03085 0
M  V30 658 C 63.7302 0.964915 -1.61465 0
M  V30 659 O 63.0882 1.62763 -0.798607 0
M  V30 660 C 63.1362 -0.529414 -3.56693 0
M  V30 661 O 62.2402 0.451302 -4.09923 0
M  V30 662 H 61.5812 -0.173489 -0.640935 0
M  V30 663 H 64.1112 -1.11157 -1.71771 0
M  V30 664 H 64.1212 -0.404671 -4.05988 0
M  V30 665 H 62.7962 -1.54014 -3.86332 0
M  V30 666 H 61.3732 0.285558 -3.71805 0
M  V30 667 N 63.5583 1.46682 -0.576371 0
M  V30 668 C 64.7863 2.06798 -0.0649635 0
M  V30 669 C 65.2013 1.42612 1.23723 0
M  V30 670 O 64.5583 0.529203 1.74659 0
M  V30 671 C 64.6093 3.6132 0.114202 0
M  V30 672 O 64.3303 4.23104 -1.13644 0
M  V30 673 C 65.8313 4.38349 0.66069 0
M  V30 674 H 63.0513 0.668778 -0.0545616 0
M  V30 675 H 65.5953 1.88404 -0.795237 0
M  V30 676 H 63.7503 3.79162 0.794673 0
M  V30 677 H 64.1643 5.15894 -0.946253 0
M  V30 678 H 65.6383 5.47081 0.73526 0
M  V30 679 H 66.1153 4.05953 1.67627 0
M  V30 680 H 66.7213 4.25297 0.0152951 0
M  V30 681 N 65.0364 0.313813 1.54444 0
M  V30 682 C 65.9684 -0.590425 2.21465 0
M  V30 683 C 66.9814 -1.08753 1.21147 0
M  V30 684 O 68.1704 -1.00278 1.4767 0
M  V30 685 C 65.2704 -1.82179 2.85769 0
M  V30 686 C 64.4434 -1.46502 4.12136 0
M  V30 687 C 63.5024 -2.55288 4.60124 0
M  V30 688 O 62.5284 -2.19842 5.25032 0
M  V30 689 N 63.7304 -3.86053 4.33525 0
M  V30 690 H 66.4954 -0.0166033 2.99695 0
M  V30 691 H 64.0564 0.136578 1.61323 0
M  V30 692 H 66.0484 -2.54328 3.14801 0
M  V30 693 H 64.6184 -2.30369 2.11303 0
M  V30 694 H 63.8384 -0.575595 3.89975 0
M  V30 695 H 65.1264 -1.20221 4.94393 0
M  V30 696 H 64.5244 -4.17654 3.81552 0
M  V30 697 H 63.0814 -4.54461 4.67235 0
M  V30 698 N 66.5145 -1.57545 0.0417849 0
M  V30 699 C 67.4245 -2.14451 -0.951213 0
M  V30 700 C 68.4405 -1.09992 -1.34825 0
M  V30 701 O 69.6165 -1.42114 -1.42708 0
M  V30 702 C 66.6815 -2.67063 -2.21084 0
M  V30 703 C 65.7425 -3.86284 -1.87304 0
M  V30 704 C 64.9755 -4.36378 -3.07261 0
M  V30 705 O 65.1985 -3.85587 -4.20332 0
M  V30 706 O 64.1325 -5.28077 -2.88822 0
M  V30 707 H 67.9585 -2.99601 -0.497287 0
M  V30 708 H 65.5435 -1.48317 -0.179567 0
M  V30 709 H 67.4255 -3.00914 -2.95006 0
M  V30 710 H 66.1005 -1.84989 -2.65633 0
M  V30 711 H 65.0075 -3.57338 -1.10727 0
M  V30 712 H 66.3405 -4.6956 -1.47562 0
M  V30 713 N 67.9926 0.231505 -1.5589 0
M  V30 714 C 69.4086 0.580748 -1.48659 0
M  V30 715 C 69.6086 1.87617 -0.73498 0
M  V30 716 O 68.6646 2.51046 -0.270586 0
M  V30 717 C 69.9776 0.669202 -2.93159 0
M  V30 718 C 71.5256 0.760499 -3.03621 0
M  V30 719 C 72.0006 0.880383 -4.49459 0
M  V30 720 N 73.4916 0.944861 -4.53461 0
M  V30 721 C 74.2266 1.05716 -5.63571 0
M  V30 722 N 73.7226 1.13403 -6.83456 0
M  V30 723 N 75.5156 1.09152 -5.514 0
M  V30 724 H 67.6666 -0.618695 -2.03189 0
M  V30 725 H 69.9296 -0.215728 -0.923128 0
M  V30 726 H 69.6356 -0.212904 -3.51055 0
M  V30 727 H 69.5096 1.5361 -3.44505 0
M  V30 728 H 71.8966 1.63305 -2.45796 0
M  V30 729 H 71.9776 -0.131864 -2.5546 0
M  V30 730 H 71.6216 0.0123284 -5.07899 0
M  V30 731 H 71.5516 1.78802 -4.95316 0
M  V30 732 H 74.0426 0.896176 -3.6712 0
M  V30 733 H 74.3556 1.21921 -7.63122 0
M  V30 734 H 72.7006 1.10333 -6.86186 0
M  V30 735 H 75.8916 1.02805 -4.56671 0
M  V30 736 H 76.0646 1.17558 -6.37247 0
M  V30 737 N 69.4707 1.49531 0.497807 0
M  V30 738 C 70.7177 1.59179 1.25173 0
M  V30 739 C 71.0457 0.279932 1.92475 0
M  V30 740 O 70.3007 -0.732383 1.81479 0
M  V30 741 C 70.5997 2.70252 2.33878 0
M  V30 742 C 70.2657 4.11644 1.84012 0
M  V30 743 C 68.9277 4.50121 1.70132 0
M  V30 744 C 71.2797 5.00121 1.46725 0
M  V30 745 C 68.6077 5.74845 1.17348 0
M  V30 746 C 70.9597 6.25366 0.95392 0
M  V30 747 C 69.6237 6.6267 0.801538 0
M  V30 748 H 68.8937 0.582478 0.45804 0
M  V30 749 H 71.5407 1.83373 0.551948 0
M  V30 750 H 69.8457 2.40041 3.09657 0
M  V30 751 H 71.5427 2.74925 2.9192 0
M  V30 752 H 68.1327 3.81274 1.95775 0
M  V30 753 H 72.3167 4.71048 1.56294 0
M  V30 754 H 67.5727 6.02444 1.04264 0
M  V30 755 H 71.7467 6.93301 0.656225 0
M  V30 756 H 69.3737 7.59197 0.390351 0
M  V30 757 N 70.9488 -0.749086 1.3866 0
M  V30 758 C 71.9118 -1.84457 1.36045 0
M  V30 759 C 72.9118 -1.58682 0.260122 0
M  V30 760 O 74.1018 -1.66343 0.517261 0
M  V30 761 C 71.2338 -3.22008 1.11911 0
M  V30 762 H 72.4268 -1.88182 2.33512 0
M  V30 763 H 69.9798 -0.951266 1.24019 0
M  V30 764 H 70.7148 -3.2395 0.150686 0
M  V30 765 H 70.4998 -3.42111 1.91579 0
M  V30 766 H 71.9898 -4.0208 1.12788 0
M  V30 767 N 72.4269 -1.23603 -0.977757 0
M  V30 768 C 73.3569 -1.04401 -2.0886 0
M  V30 769 C 74.3379 0.0399052 -1.70053 0
M  V30 770 O 75.5229 -0.125246 -1.93796 0
M  V30 771 C 72.6529 -0.637269 -3.41403 0
M  V30 772 C 71.6069 -1.66883 -3.94124 0
M  V30 773 C 70.9329 -1.11745 -5.22893 0
M  V30 774 C 72.2329 -3.06247 -4.23096 0
M  V30 775 H 73.9269 -1.97316 -2.25182 0
M  V30 776 H 71.4729 -0.950096 -1.08209 0
M  V30 777 H 73.4259 -0.48998 -4.18542 0
M  V30 778 H 72.1499 0.327557 -3.24953 0
M  V30 779 H 70.8089 -1.80416 -3.19133 0
M  V30 780 H 70.4569 -0.143527 -5.02795 0
M  V30 781 H 70.1569 -1.80672 -5.59134 0
M  V30 782 H 71.6809 -0.982067 -6.02651 0
M  V30 783 H 73.0949 -2.96001 -4.90975 0
M  V30 784 H 71.4919 -3.72436 -4.70544 0
M  V30 785 H 72.5619 -3.55041 -3.30263 0
M  V30 786 N 73.905 1.17692 -1.04816 0
M  V30 787 C 74.852 2.21581 -0.645797 0
M  V30 788 C 75.822 1.62367 0.350159 0
M  V30 789 O 77.007 1.89254 0.242433 0
M  V30 790 C 74.147 3.45092 -0.0227568 0
M  V30 791 C 73.26 4.18613 -1.06709 0
M  V30 792 C 72.395 5.29602 -0.411767 0
M  V30 793 C 71.434 5.94904 -1.44067 0
M  V30 794 N 70.571 6.97414 -0.809781 0
M  V30 795 H 75.411 2.55353 -1.5362 0
M  V30 796 H 72.948 1.25438 -0.768364 0
M  V30 797 H 74.906 4.15679 0.35588 0
M  V30 798 H 73.536 3.11917 0.831122 0
M  V30 799 H 72.588 3.46779 -1.5636 0
M  V30 800 H 73.9 4.63293 -1.84827 0
M  V30 801 H 73.054 6.06696 0.0206623 0
M  V30 802 H 71.793 4.86045 0.401438 0
M  V30 803 H 70.798 5.16544 -1.88316 0
M  V30 804 H 72.023 6.40542 -2.25571 0
M  V30 805 H 69.969 6.55998 -0.0170186 0
M  V30 806 H 69.886 7.40386 -1.52856 0
M  V30 807 H 71.154 7.78463 -0.401999 0
M  V30 808 N 75.3831 0.828654 1.34056 0
M  V30 809 C 76.6321 0.415828 1.97367 0
M  V30 810 C 76.9451 -1.02796 1.6641 0
M  V30 811 O 78.1511 -1.54497 2.23255 0
M  V30 812 C 76.6071 0.692601 3.53173 0
M  V30 813 C 76.2151 2.15038 3.93017 0
M  V30 814 C 77.9591 0.346222 4.23086 0
M  V30 815 C 75.8661 2.37174 5.41758 0
M  V30 816 H 74.7961 0.151755 0.738571 0
M  V30 817 H 77.4471 1.01581 1.52819 0
M  V30 818 H 75.8291 0.0223764 3.95994 0
M  V30 819 H 77.0031 2.86024 3.61285 0
M  V30 820 H 75.3181 2.45875 3.36057 0
M  V30 821 H 77.9151 0.48937 5.32456 0
M  V30 822 H 78.2581 -0.709842 4.10204 0
M  V30 823 H 78.7911 0.971258 3.85761 0
M  V30 824 H 75.5301 3.41308 5.59633 0
M  V30 825 H 75.0501 1.70738 5.74986 0
M  V30 826 H 76.7291 2.19818 6.08514 0
M  V30 827 N 76.8612 -1.46375 0.584142 0
M  V30 828 C 77.7912 -2.33103 -0.136037 0
M  V30 829 C 78.7722 -1.45431 -0.882255 0
M  V30 830 O 79.9572 -1.74246 -0.857434 0
M  V30 831 C 77.0872 -3.27731 -1.14933 0
M  V30 832 C 76.0412 -4.24855 -0.517862 0
M  V30 833 C 75.3672 -5.09001 -1.63773 0
M  V30 834 C 76.6672 -5.19439 0.545886 0
M  V30 835 H 78.3612 -2.93568 0.588086 0
M  V30 836 H 75.9072 -1.41166 0.284259 0
M  V30 837 H 77.8602 -3.87261 -1.66153 0
M  V30 838 H 76.5842 -2.65377 -1.90375 0
M  V30 839 H 75.2432 -3.6659 -0.0267361 0
M  V30 840 H 74.8912 -4.43031 -2.38185 0
M  V30 841 H 74.5912 -5.74777 -1.22085 0
M  V30 842 H 76.1152 -5.71396 -2.15266 0
M  V30 843 H 77.5292 -5.73177 0.118704 0
M  V30 844 H 75.9262 -5.93566 0.88317 0
M  V30 845 H 76.9962 -4.63285 1.43162 0
M  V30 846 N 78.3393 -0.321999 -1.54275 0
M  V30 847 C 79.2693 0.537411 -2.27231 0
M  V30 848 C 80.2503 1.12064 -1.27968 0
M  V30 849 O 81.4353 1.14606 -1.56777 0
M  V30 850 C 78.5653 1.69919 -3.02894 0
M  V30 851 C 77.5193 1.24534 -4.09482 0
M  V30 852 C 76.8453 2.49394 -4.72977 0
M  V30 853 C 78.1453 0.361335 -5.21049 0
M  V30 854 H 79.8393 -0.0711406 -2.99315 0
M  V30 855 H 77.3853 -0.0356555 -1.43956 0
M  V30 856 H 79.3383 2.30668 -3.52662 0
M  V30 857 H 78.0623 2.33431 -2.28424 0
M  V30 858 H 76.7213 0.660782 -3.60596 0
M  V30 859 H 76.3693 3.11265 -3.95124 0
M  V30 860 H 76.0693 2.19718 -5.44975 0
M  V30 861 H 77.5933 3.10908 -5.25517 0
M  V30 862 H 79.0073 0.875072 -5.66582 0
M  V30 863 H 77.4043 0.157428 -5.99893 0
M  V30 864 H 78.4743 -0.60822 -4.8107 0
M  V30 865 N 79.8174 1.5752 -0.0501392 0
M  V30 866 C 81.0944 1.83996 0.663685 0
M  V30 867 C 81.4744 0.938339 1.89099 0
M  V30 868 O 80.8224 -0.00087759 2.285 0
M  V30 869 C 81.0324 3.33702 1.02196 0
M  V30 870 C 82.3804 4.00691 1.40469 0
M  V30 871 O 83.4044 3.38321 1.11433 0
M  V30 872 O 82.2634 5.10658 1.94654 0
M  V30 873 H 79.3574 0.759385 0.32751 0
M  V30 874 H 81.9034 1.69514 -0.0794238 0
M  V30 875 H 80.6754 3.91015 0.149364 0
M  V30 876 H 80.2984 3.53368 1.82255 0
M  V30 877 N 81.2955 -0.223234 1.56011 0
M  V30 878 C 82.7115 -0.572856 1.48965 0
M  V30 879 C 82.9115 -1.87225 0.74492 0
M  V30 880 O 81.9675 -2.50899 0.283896 0
M  V30 881 C 83.2805 -0.653646 2.9351 0
M  V30 882 C 84.8285 -0.744386 3.0402 0
M  V30 883 C 85.3035 -0.856535 4.49919 0
M  V30 884 N 86.7945 -0.9208 4.53955 0
M  V30 885 C 87.5295 -1.02726 5.64123 0
M  V30 886 N 87.0255 -1.09777 6.84047 0
M  V30 887 N 88.8185 -1.06226 5.51971 0
M  V30 888 H 80.9695 0.629462 2.02858 0
M  V30 889 H 83.2325 0.220621 0.921971 0
M  V30 890 H 82.9385 0.231518 3.50937 0
M  V30 891 H 82.8125 -1.51781 3.45315 0
M  V30 892 H 85.1995 -1.61999 2.46658 0
M  V30 893 H 85.2805 0.14541 2.55386 0
M  V30 894 H 84.9245 0.0146069 5.07898 0
M  V30 895 H 84.8545 -1.76172 4.96257 0
M  V30 896 H 87.3455 -0.876694 3.6759 0
M  V30 897 H 87.6585 -1.17872 7.63758 0
M  V30 898 H 86.0035 -1.06693 6.86762 0
M  V30 899 H 89.1945 -1.00382 4.5721 0
M  V30 900 H 89.3675 -1.14177 6.37862 0
M  V30 901 N 82.7736 -1.49793 -0.48987 0
M  V30 902 C 84.1846 -1.52914 -1.07118 0
M  V30 903 C 84.5356 -0.321738 -1.93544 0
M  V30 904 O 83.6606 0.567338 -2.08831 0
M  V30 905 C 84.2556 -2.771 -1.94938 0
M  V30 906 C 82.8146 -2.82963 -2.48212 0
M  V30 907 C 81.9616 -2.46972 -1.26096 0
M  V30 908 H 84.9126 -1.56329 -0.273289 0
M  V30 909 H 84.9336 -2.57892 -2.79771 0
M  V30 910 H 84.4456 -3.64959 -1.32009 0
M  V30 911 H 82.5466 -1.99411 -3.14748 0
M  V30 912 H 82.6596 -3.85406 -2.84603 0
M  V30 913 H 81.0236 -1.98994 -1.58976 0
M  V30 914 H 81.8066 -3.37118 -0.648581 0
M  V30 915 N 84.2517 0.741722 -1.39055 0
M  V30 916 C 85.1987 1.85566 -1.37237 0
M  V30 917 C 86.1687 1.64457 -0.233072 0
M  V30 918 O 87.3537 1.85957 -0.427147 0
M  V30 919 C 84.4937 3.23004 -1.215 0
M  V30 920 C 83.6067 3.55864 -2.44918 0
M  V30 921 C 82.7417 4.82669 -2.21821 0
M  V30 922 C 81.7807 5.08351 -3.40948 0
M  V30 923 N 80.9177 6.26356 -3.17211 0
M  V30 924 H 85.7577 1.86455 -2.32462 0
M  V30 925 H 83.2947 0.911176 -1.15482 0
M  V30 926 H 85.2527 4.02331 -1.10389 0
M  V30 927 H 83.8827 3.21411 -0.29908 0
M  V30 928 H 82.9347 2.7129 -2.66657 0
M  V30 929 H 84.2467 3.70765 -3.33668 0
M  V30 930 H 83.4007 5.69962 -2.07914 0
M  V30 931 H 82.1397 4.69929 -1.30454 0
M  V30 932 H 81.1447 4.19522 -3.55361 0
M  V30 933 H 82.3697 5.22981 -4.33207 0
M  V30 934 H 80.3157 6.14917 -2.28502 0
M  V30 935 H 80.2327 6.41813 -3.99515 0
M  V30 936 H 81.5007 7.16506 -3.06984 0
M  V30 937 N 85.7298 1.2412 0.971189 0
M  V30 938 C 86.6928 1.03156 2.04674 0
M  V30 939 C 87.6928 -0.00990322 1.60797 0
M  V30 940 O 88.8828 0.230729 1.72665 0
M  V30 941 C 86.0148 0.562765 3.36223 0
M  V30 942 H 87.2078 1.98614 2.24705 0
M  V30 943 H 84.7608 1.06293 1.14593 0
M  V30 944 H 85.4958 -0.395176 3.21883 0
M  V30 945 H 85.2808 1.31441 3.69413 0
M  V30 946 H 86.7708 0.437015 4.15307 0
M  V30 947 N 87.2079 -1.17134 1.05439 0
M  V30 948 C 88.6239 -1.39454 0.776201 0
M  V30 949 C 88.8239 -1.91454 -0.628307 0
M  V30 950 O 87.8799 -2.10777 -1.39031 0
M  V30 951 C 89.1929 -2.38305 1.83388 0
M  V30 952 C 90.7409 -2.52006 1.85639 0
M  V30 953 C 91.2159 -3.54133 2.90437 0
M  V30 954 N 92.7069 -3.61653 2.89415 0
M  V30 955 C 93.4419 -4.4044 3.67152 0
M  V30 956 N 92.9379 -5.22721 4.54681 0
M  V30 957 N 94.7309 -4.35337 3.55581 0
M  V30 958 H 86.8819 -0.817134 1.96053 0
M  V30 959 H 89.1449 -0.421626 0.849079 0
M  V30 960 H 88.8509 -2.07173 2.84204 0
M  V30 961 H 88.7249 -3.37841 1.67761 0
M  V30 962 H 91.1119 -2.82447 0.85486 0
M  V30 963 H 91.1929 -1.52537 2.05344 0
M  V30 964 H 90.8369 -3.24431 3.90777 0
M  V30 965 H 90.7669 -4.53313 2.67983 0
M  V30 966 H 93.2579 -3.02909 2.25952 0
M  V30 967 H 93.5709 -5.80027 5.10674 0
M  V30 968 H 91.9159 -5.22093 4.58741 0
M  V30 969 H 95.1069 -3.70112 2.86592 0
M  V30 970 H 95.2799 -4.96494 4.1641 0
M  V30 971 N 88.686 -0.835752 -1.33615 0
M  V30 972 C 89.634 -0.255238 -2.31195 0
M  V30 973 C 90.628 0.61107 -1.57995 0
M  V30 974 O 91.834 0.500979 -1.72888 0
M  V30 975 H 88.209 -0.0638085 -0.749288 0
M  V30 976 H 90.18 -1.09283 -2.77669 0
M  V30 977 C 88.929 0.55754 -3.43201 0
M  V30 978 H 88.252 -0.0997553 -3.99676 0
M  V30 979 H 89.692 0.929622 -4.13683 0
M  V30 980 C 88.151 1.73515 -2.88781 0
M  V30 981 O 88.681 2.83376 -2.84712 0
M  V30 982 N 86.887 1.55603 -2.4543 0
M  V30 983 H 86.434 0.662354 -2.48939 0
M  V30 984 H 86.392 2.34545 -2.09371 0
M  V30 985 N 90.1641 1.46063 -0.591896 0
M  V30 986 C 91.0741 2.34192 0.13831 0
M  V30 987 C 92.0901 1.50305 0.876608 0
M  V30 988 O 93.2661 1.8315 0.837728 0
M  V30 989 C 90.3311 3.27656 1.13326 0
M  V30 990 C 89.3921 4.27445 0.39863 0
M  V30 991 C 88.6251 5.16443 1.34618 0
M  V30 992 O 88.8481 5.08553 2.58321 0
M  V30 993 O 87.7821 5.95843 0.851768 0
M  V30 994 H 91.6081 2.98002 -0.58552 0
M  V30 995 H 89.1931 1.45188 -0.352239 0
M  V30 996 H 91.0751 3.85291 1.70671 0
M  V30 997 H 89.7501 2.6643 1.83839 0
M  V30 998 H 88.6571 3.73471 -0.216895 0
M  V30 999 H 89.9901 4.91482 -0.265709 0
M  V30 1000 N 91.6422 0.330177 1.54103 0
M  V30 1001 C 92.8882 -0.270806 2.00984 0
M  V30 1002 C 93.2212 -1.51265 1.21789 0
M  V30 1003 O 92.4962 -1.92142 0.301927 0
M  V30 1004 C 92.7792 -0.598339 3.55094 0
M  V30 1005 C 92.6322 0.654674 4.4501 0
M  V30 1006 C 93.9512 -1.41334 4.16789 0
M  V30 1007 H 91.0702 -0.0969531 0.730595 0
M  V30 1008 H 93.7122 0.448066 1.84641 0
M  V30 1009 H 91.8622 -1.21078 3.69151 0
M  V30 1010 H 93.5342 1.29285 4.42813 0
M  V30 1011 H 91.7772 1.28224 4.14416 0
M  V30 1012 H 92.4482 0.380944 5.50684 0
M  V30 1013 H 94.9242 -0.895597 4.06347 0
M  V30 1014 H 93.8002 -1.61127 5.24718 0
M  V30 1015 H 94.0612 -2.41146 3.70541 0
M  V30 1016 N 93.1203 -1.57491 0.0584922 0
M  V30 1017 C 94.5363 -1.56792 -0.298091 0
M  V30 1018 C 94.7363 -1.06679 -1.70944 0
M  V30 1019 O 93.7923 -0.726672 -2.41818 0
M  V30 1020 C 95.1053 -3.00461 -0.119879 0
M  V30 1021 C 96.6533 -3.1242 -0.190428 0
M  V30 1022 C 97.1283 -4.57982 -0.0406567 0
M  V30 1023 N 98.6193 -4.63099 -0.0966958 0
M  V30 1024 C 99.3543 -5.734 -0.00502943 0
M  V30 1025 N 98.8503 -6.9266 0.139402 0
M  V30 1026 N 100.643 -5.62067 -0.0611391 0
M  V30 1027 H 92.7943 -1.88386 0.98105 0
M  V30 1028 H 95.0573 -0.867865 0.381463 0
M  V30 1029 H 94.7633 -3.41187 0.85349 0
M  V30 1030 H 94.6373 -3.66843 -0.877833 0
M  V30 1031 H 97.0243 -2.71589 -1.15427 0
M  V30 1032 H 97.1053 -2.48702 0.598405 0
M  V30 1033 H 96.7493 -4.995 0.919897 0
M  V30 1034 H 96.6793 -5.19715 -0.848727 0
M  V30 1035 H 99.1703 -3.77331 -0.207277 0
M  V30 1036 H 99.4833 -7.72536 0.201855 0
M  V30 1037 H 97.8283 -6.94781 0.174586 0
M  V30 1038 H 101.019 -4.67782 -0.172583 0
M  V30 1039 H 101.192 -6.47999 0.0137562 0
M  V30 1040 N 94.5984 0.214957 -1.56127 0
M  V30 1041 C 95.5284 1.2695 -1.95974 0
M  V30 1042 C 96.5094 1.48539 -0.828868 0
M  V30 1043 O 97.6944 1.60611 -1.09168 0
M  V30 1044 C 94.8244 2.61794 -2.28214 0
M  V30 1045 C 93.7784 2.54851 -3.43853 0
M  V30 1046 C 93.1044 3.93785 -3.61715 0
M  V30 1047 C 94.4044 2.09065 -4.78632 0
M  V30 1048 H 96.0984 0.93846 -2.84312 0
M  V30 1049 H 93.6444 0.449996 -1.36788 0
M  V30 1050 H 95.5974 3.35731 -2.54682 0
M  V30 1051 H 94.3214 2.96599 -1.36736 0
M  V30 1052 H 92.9804 1.8337 -3.17444 0
M  V30 1053 H 92.6284 4.25908 -2.67602 0
M  V30 1054 H 92.3284 3.90019 -4.39498 0
M  V30 1055 H 93.8524 4.69374 -3.90539 0
M  V30 1056 H 95.2664 2.7275 -5.04262 0
M  V30 1057 H 93.6634 2.16346 -5.59745 0
M  V30 1058 H 94.7334 1.04315 -4.73547 0
M  V30 1059 N 96.0765 1.50051 0.48192 0
M  V30 1060 C 97.0265 1.64512 1.5786 0
M  V30 1061 C 98.0105 0.500073 1.52932 0
M  V30 1062 O 99.2025 0.753964 1.60139 0
M  V30 1063 C 96.3315 1.73263 2.9637 0
M  V30 1064 C 95.4175 2.93409 3.06222 0
M  V30 1065 N 95.8085 4.17236 2.85915 0
M  V30 1066 C 94.1065 2.91742 3.37346 0
M  V30 1067 C 94.8075 4.981 3.00451 0
M  V30 1068 N 93.7835 4.3184 3.30174 0
M  V30 1069 H 97.5855 2.57955 1.40842 0
M  V30 1070 H 95.0995 1.47086 0.688439 0
M  V30 1071 H 97.0965 1.81724 3.75209 0
M  V30 1072 H 95.7565 0.809711 3.14442 0
M  V30 1073 H 96.7675 4.46909 2.6171 0
M  V30 1074 H 93.4445 2.08907 3.61475 0
M  V30 1075 H 94.8345 6.06532 2.89082 0
M  V30 1076 N 97.5546 -0.734337 1.39446 0
M  V30 1077 C 98.4876 -1.85715 1.32609 0
M  V30 1078 C 99.4656 -1.6137 0.199636 0
M  V30 1079 O 100.65 -1.84626 0.380195 0
M  V30 1080 C 97.7766 -3.21709 1.05929 0
M  V30 1081 C 96.8226 -3.64913 2.20773 0
M  V30 1082 S 97.6556 -3.74203 3.83056 0
M  V30 1083 C 98.8116 -5.12986 3.58603 0
M  V30 1084 H 99.0446 -1.91232 2.27635 0
M  V30 1085 H 96.5776 -0.899263 1.25509 0
M  V30 1086 H 98.5356 -4.00236 0.912203 0
M  V30 1087 H 97.1966 -3.13848 0.125883 0
M  V30 1088 H 96.3896 -4.63606 1.97699 0
M  V30 1089 H 95.9916 -2.93593 2.31688 0
M  V30 1090 H 98.2836 -5.99339 3.15909 0
M  V30 1091 H 99.2266 -5.41088 4.5676 0
M  V30 1092 H 99.6346 -4.82694 2.9269 0
M  V30 1093 N 99.0327 -1.24633 -0.964593 0
M  V30 1094 C 99.9657 -0.984662 -2.05863 0
M  V30 1095 C 100.944 0.0826554 -1.6239 0
M  V30 1096 O 102.128 -0.0549296 -1.8842 0
M  V30 1097 C 99.2547 -0.486529 -3.35187 0
M  V30 1098 C 98.3007 -1.54286 -3.97615 0
M  V30 1099 S 99.1337 -3.12513 -4.34851 0
M  V30 1100 C 100.29 -2.6441 -5.67308 0
M  V30 1101 H 100.523 -1.91104 -2.27743 0
M  V30 1102 H 98.0557 -1.08052 -1.10291 0
M  V30 1103 H 100.014 -0.205757 -4.09984 0
M  V30 1104 H 98.6747 0.419186 -3.1129 0
M  V30 1105 H 97.8677 -1.14481 -4.90826 0
M  V30 1106 H 97.4697 -1.7738 -3.2926 0
M  V30 1107 H 99.7617 -2.07416 -6.44969 0
M  V30 1108 H 100.705 -3.56222 -6.11973 0
M  V30 1109 H 101.113 -2.04734 -5.26065 0
M  V30 1110 N 100.511 1.16574 -1.06058 0
M  V30 1111 C 101.751 1.88723 -0.78504 0
M  V30 1112 C 102.115 1.79706 0.676006 0
M  V30 1113 O 103.316 2.46757 1.06603 0
M  V30 1114 C 101.587 3.34338 -1.26304 0
M  V30 1115 S 103.146 4.24366 -1.1162 0
M  V30 1116 H 99.9638 0.651448 -0.284846 0
M  V30 1117 H 102.566 1.40732 -1.35701 0
M  V30 1118 H 101.27 3.38439 -2.32136 0
M  V30 1119 H 100.801 3.87378 -0.685719 0
M  V30 1120 H 102.816 4.96179 -0.0456539 0
M  V30 1121 N 101.989 0.842826 1.3317 0
M  V30 1122 C 102.952 0.284065 2.27433 0
M  V30 1123 C 103.952 -0.54948 1.5112 0
M  V30 1124 O 105.142 -0.362699 1.70382 0
M  V30 1125 C 102.274 -0.599384 3.35589 0
M  V30 1126 H 103.467 1.11589 2.78366 0
M  V30 1127 H 101.02 0.616221 1.4364 0
M  V30 1128 H 101.755 -1.45349 2.89904 0
M  V30 1129 H 101.54 -0.00291266 3.921 0
M  V30 1130 H 103.03 -0.983488 4.05854 0
M  V30 1131 N 103.467 -1.45747 0.599634 0
M  V30 1132 C 104.695 -2.06668 0.0978551 0
M  V30 1133 C 105.11 -1.44562 -1.21439 0
M  V30 1134 O 104.467 -0.556923 -1.73795 0
M  V30 1135 C 104.518 -3.61456 -0.0567044 0
M  V30 1136 O 104.239 -4.21242 1.20361 0
M  V30 1137 C 105.74 -4.39345 -0.590869 0
M  V30 1138 H 102.96 -0.667825 0.0651943 0
M  V30 1139 H 105.504 -1.87115 0.82511 0
M  V30 1140 H 103.659 -3.80378 -0.734251 0
M  V30 1141 H 104.073 -5.14323 1.02821 0
M  V30 1142 H 105.547 -5.48182 -0.648131 0
M  V30 1143 H 106.024 -4.08568 -1.61147 0
M  V30 1144 H 106.63 -4.25268 0.0523679 0
M  V30 1145 N 104.945 -0.338344 -1.53925 0
M  V30 1146 C 105.895 0.536712 -2.21593 0
M  V30 1147 C 106.879 1.07015 -1.20153 0
M  V30 1148 O 108.071 1.00471 -1.45721 0
M  V30 1149 C 105.2 1.68977 -2.98834 0
M  V30 1150 C 104.286 1.17052 -4.07627 0
M  V30 1151 N 104.677 0.372085 -5.0443 0
M  V30 1152 C 102.975 1.44789 -4.21844 0
M  V30 1153 C 103.676 0.0909171 -5.81629 0
M  V30 1154 N 102.652 0.681131 -5.39316 0
M  V30 1155 H 106.454 -0.0804298 -2.9379 0
M  V30 1156 H 103.968 -0.144943 -1.61752 0
M  V30 1157 H 105.965 2.32857 -3.45808 0
M  V30 1158 H 104.625 2.31024 -2.28162 0
M  V30 1159 H 105.636 0.0136217 -5.17898 0
M  V30 1160 H 102.313 2.07313 -3.62391 0
M  V30 1161 H 103.703 -0.552817 -6.69622 0
M  V30 1162 N 106.423 1.57458 -0.0668435 0
M  V30 1163 C 107.834 1.80776 0.466558 0
M  V30 1164 C 108.185 0.980361 1.69951 0
M  V30 1165 O 107.31 0.201441 2.1546 0
M  V30 1166 C 107.905 3.27881 0.85321 0
M  V30 1167 C 106.464 3.52062 1.3315 0
M  V30 1168 C 105.611 2.75513 0.314264 0
M  V30 1169 H 108.562 1.5598 -0.292588 0
M  V30 1170 H 108.583 3.39659 1.715 0
M  V30 1171 H 108.095 3.88075 -0.0443439 0
M  V30 1172 H 106.196 2.97167 2.24772 0
M  V30 1173 H 106.309 4.60762 1.31285 0
M  V30 1174 H 104.673 2.42123 0.790492 0
M  V30 1175 H 105.456 3.38442 -0.575477 0
M  V30 1176 N 107.901 -0.206675 1.56239 0
M  V30 1177 C 108.849 -1.27571 1.94495 0
M  V30 1178 C 109.843 -1.47737 0.828862 0
M  V30 1179 O 111.049 -1.48735 1.0138 0
M  V30 1180 H 107.424 -0.428029 0.6183 0
M  V30 1181 H 109.395 -0.925961 2.8367 0
M  V30 1182 C 108.144 -2.61568 2.29079 0
M  V30 1183 H 107.467 -2.46863 3.14482 0
M  V30 1184 H 108.907 -3.35144 2.5972 0
M  V30 1185 C 107.366 -3.17695 1.12123 0
M  V30 1186 O 107.896 -3.99801 0.390153 0
M  V30 1187 N 106.102 -2.76276 0.901097 0
M  V30 1188 H 105.649 -2.09613 1.49733 0
M  V30 1189 H 105.607 -3.1417 0.120319 0
M  V30 1190 N 109.379 -1.50304 -0.473955 0
M  V30 1191 C 110.628 -1.60392 -1.22301 0
M  V30 1192 C 110.941 -0.308411 -1.93153 0
M  V30 1193 O 112.147 -0.288156 -2.69966 0
M  V30 1194 C 110.603 -2.83109 -2.2221 0
M  V30 1195 C 110.211 -4.19524 -1.57173 0
M  V30 1196 C 111.955 -3.0254 -2.97775 0
M  V30 1197 C 109.862 -5.33431 -2.55353 0
M  V30 1198 H 108.792 -0.597286 -0.460179 0
M  V30 1199 H 111.443 -1.76731 -0.493803 0
M  V30 1200 H 109.825 -2.60322 -2.9841 0
M  V30 1201 H 110.999 -4.52554 -0.867824 0
M  V30 1202 H 109.314 -4.05674 -0.939002 0
M  V30 1203 H 111.911 -3.84811 -3.71248 0
M  V30 1204 H 112.254 -2.14154 -3.56992 0
M  V30 1205 H 112.787 -3.25494 -2.28688 0
M  V30 1206 H 109.526 -6.23962 -2.00878 0
M  V30 1207 H 109.046 -5.04823 -3.23904 0
M  V30 1208 H 110.725 -5.63887 -3.17239 0
M  V30 1209 N 110.857 0.726932 -1.39834 0
M  V30 1210 C 112.103 1.48884 -1.377 0
M  V30 1211 C 112.436 1.94185 0.0244852 0
M  V30 1212 O 111.711 1.67361 0.990986 0
M  V30 1213 C 111.994 2.72288 -2.3565 0
M  V30 1214 C 111.847 2.32956 -3.84775 0
M  V30 1215 C 113.166 3.74414 -2.31306 0
M  V30 1216 H 110.285 0.540062 -0.5015 0
M  V30 1217 H 112.927 0.830547 -1.70886 0
M  V30 1218 H 111.077 3.28457 -2.07481 0
M  V30 1219 H 112.749 1.82356 -4.23726 0
M  V30 1220 H 110.992 1.65088 -4.01159 0
M  V30 1221 H 111.663 3.21362 -4.4881 0
M  V30 1222 H 114.139 3.27849 -2.56231 0
M  V30 1223 H 113.015 4.58414 -3.01907 0
M  V30 1224 H 113.276 4.21909 -1.32081 0
M  V30 1225 N 112.336 1.25143 0.95797 0
M  V30 1226 C 113.268 1.01023 2.05735 0
M  V30 1227 C 114.281 -0.0236902 1.62783 0
M  V30 1228 O 115.47 0.21448 1.77207 0
M  V30 1229 C 112.57 0.504595 3.35122 0
M  V30 1230 C 111.743 1.6039 4.06932 0
M  V30 1231 C 110.802 1.09922 5.14591 0
M  V30 1232 O 109.828 1.79293 5.40225 0
M  V30 1233 N 111.03 -0.0612545 5.80468 0
M  V30 1234 H 113.795 1.95683 2.26998 0
M  V30 1235 H 111.356 1.16303 1.12629 0
M  V30 1236 H 113.348 0.151516 4.04416 0
M  V30 1237 H 111.918 -0.347989 3.10657 0
M  V30 1238 H 111.138 2.12872 3.31782 0
M  V30 1239 H 112.426 2.34252 4.51667 0
M  V30 1240 H 111.824 -0.640985 5.62057 0
M  V30 1241 H 110.381 -0.355395 6.5083 0
M  V30 1242 N 113.814 -1.1601 1.06675 0
M  V30 1243 C 115.063 -1.85973 0.780818 0
M  V30 1244 C 115.376 -1.82819 -0.695444 0
M  V30 1245 O 116.582 -2.484 -1.09589 0
M  V30 1246 C 115.038 -3.33757 1.34665 0
M  V30 1247 C 114.646 -3.45374 2.85343 0
M  V30 1248 C 116.39 -4.0895 1.13843 0
M  V30 1249 C 114.297 -4.87266 3.35151 0
M  V30 1250 H 113.227 -0.696661 0.288407 0
M  V30 1251 H 115.878 -1.30903 1.28595 0
M  V30 1252 H 114.26 -3.88456 0.769274 0
M  V30 1253 H 115.434 -3.00816 3.49065 0
M  V30 1254 H 113.749 -2.83619 3.04876 0
M  V30 1255 H 116.346 -5.13654 1.4854 0
M  V30 1256 H 116.689 -4.16229 0.0770282 0
M  V30 1257 H 117.222 -3.605 1.68179 0
M  V30 1258 H 113.961 -4.85168 4.40786 0
M  V30 1259 H 113.481 -5.32433 2.76179 0
M  V30 1260 H 115.16 -5.56097 3.30704 0
M  V30 1261 N 115.292 -0.849877 -1.32721 0
M  V30 1262 C 116.541 -0.447175 -1.96681 0
M  V30 1263 C 116.854 1.00135 -1.68025 0
M  V30 1264 O 118.06 1.50926 -2.25685 0
M  V30 1265 C 116.516 -0.7487 -3.52026 0
M  V30 1266 C 116.124 -2.21264 -3.89546 0
M  V30 1267 C 117.868 -0.413487 -4.22481 0
M  V30 1268 C 115.775 -2.45763 -5.37917 0
M  V30 1269 H 114.705 -0.163486 -0.736063 0
M  V30 1270 H 117.356 -1.03999 -1.51183 0
M  V30 1271 H 115.738 -0.0853727 -3.95908 0
M  V30 1272 H 116.912 -2.91736 -3.56689 0
M  V30 1273 H 115.227 -2.5119 -3.32103 0
M  V30 1274 H 117.824 -0.574017 -5.3161 0
M  V30 1275 H 118.167 0.644492 -4.11281 0
M  V30 1276 H 118.7 -1.03251 -3.84167 0
M  V30 1277 H 115.439 -3.50168 -5.54132 0
M  V30 1278 H 114.959 -1.79864 -5.72197 0
M  V30 1279 H 116.638 -2.29471 -6.0494 0
M  V30 1280 N 116.77 1.45427 -0.607355 0
M  V30 1281 C 117.68 2.34325 0.113463 0
M  V30 1282 C 118.696 1.51226 0.860617 0
M  V30 1283 O 119.872 1.84029 0.818255 0
M  V30 1284 C 116.937 3.28839 1.09844 0
M  V30 1285 C 115.998 4.27844 0.353271 0
M  V30 1286 C 115.231 5.17842 1.29133 0
M  V30 1287 O 115.454 5.11264 2.52913 0
M  V30 1288 O 114.388 5.96713 0.788523 0
M  V30 1289 H 118.214 2.97364 -0.617094 0
M  V30 1290 H 115.799 1.44807 -0.367619 0
M  V30 1291 H 117.681 3.8708 1.66575 0
M  V30 1292 H 116.356 2.68365 1.81003 0
M  V30 1293 H 115.263 3.7322 -0.256494 0
M  V30 1294 H 116.596 4.91173 -0.317822 0
M  V30 1295 N 118.248 0.346503 1.53744 0
M  V30 1296 C 119.494 -0.249473 2.0126 0
M  V30 1297 C 119.827 -1.49965 1.23386 0
M  V30 1298 O 119.102 -1.91811 0.32229 0
M  V30 1299 C 119.385 -0.560643 3.55709 0
M  V30 1300 C 119.238 0.701836 4.44291 0
M  V30 1301 C 120.557 -1.36905 4.18264 0
M  V30 1302 H 117.676 -0.0891987 0.731582 0
M  V30 1303 H 120.318 0.467624 1.84156 0
M  V30 1304 H 118.468 -1.17156 3.70414 0
M  V30 1305 H 120.14 1.33974 4.41417 0
M  V30 1306 H 118.383 1.32612 4.13033 0
M  V30 1307 H 119.054 0.43933 5.50249 0
M  V30 1308 H 121.53 -0.852448 4.07275 0
M  V30 1309 H 120.406 -1.55553 5.26398 0
M  V30 1310 H 120.667 -2.37203 3.73078 0
M  V30 1311 N 119.726 -1.57421 0.075193 0
M  V30 1312 C 120.973 -1.93618 -0.593146 0
M  V30 1313 C 121.301 -0.955484 -1.69413 0
M  V30 1314 O 120.556 0.0283251 -1.9568 0
M  V30 1315 C 120.855 -3.36428 -1.20626 0
M  V30 1316 C 120.521 -4.50307 -0.231078 0
M  V30 1317 C 119.183 -4.81186 0.0371936 0
M  V30 1318 C 121.535 -5.19374 0.435888 0
M  V30 1319 C 118.863 -5.78466 0.979461 0
M  V30 1320 C 121.215 -6.17665 1.3665 0
M  V30 1321 C 119.879 -6.46958 1.6432 0
M  V30 1322 H 119.149 -0.708499 -0.217047 0
M  V30 1323 H 121.796 -1.90937 0.146793 0
M  V30 1324 H 120.101 -3.35592 -2.02201 0
M  V30 1325 H 121.798 -3.61727 -1.73073 0
M  V30 1326 H 118.388 -4.26227 -0.450357 0
M  V30 1327 H 122.572 -4.95711 0.241748 0
M  V30 1328 H 117.828 -5.99487 1.20106 0
M  V30 1329 H 122.002 -6.70284 1.88924 0
M  V30 1330 H 119.629 -7.2215 2.37494 0
M  V30 1331 N 121.204 0.198386 -1.56346 0
M  V30 1332 C 122.167 1.22952 -1.93431 0
M  V30 1333 C 123.167 1.38611 -0.815092 0
M  V30 1334 O 124.357 1.36479 -1.08255 0
M  V30 1335 C 121.489 2.59946 -2.20546 0
M  V30 1336 H 122.682 0.912626 -2.85677 0
M  V30 1337 H 120.235 0.43977 -1.49986 0
M  V30 1338 H 120.97 2.96696 -1.30927 0
M  V30 1339 H 120.755 2.49953 -3.02102 0
M  V30 1340 H 122.245 3.3431 -2.50253 0
M  V30 1341 N 122.682 1.50554 0.465978 0
M  V30 1342 C 123.63 1.70324 1.58406 0
M  V30 1343 C 124.624 0.569139 1.59553 0
M  V30 1344 O 125.83 0.749776 1.63641 0
M  V30 1345 H 122.205 0.537688 0.525734 0
M  V30 1346 H 124.176 2.64104 1.38894 0
M  V30 1347 C 122.925 1.81928 2.96307 0
M  V30 1348 H 122.248 2.68586 2.96144 0
M  V30 1349 H 123.688 1.99784 3.73982 0
M  V30 1350 C 122.147 0.572095 3.32007 0
M  V30 1351 O 122.677 -0.286416 4.00678 0
M  V30 1352 N 120.883 0.424606 2.87481 0
M  V30 1353 H 120.43 1.12427 2.31771 0
M  V30 1354 H 120.388 -0.408697 3.11732 0
M  V30 1355 N 124.16 -0.719506 1.40217 0
M  V30 1356 C 125.385 -1.51371 1.4178 0
M  V30 1357 C 125.81 -1.88091 0.0182355 0
M  V30 1358 O 125.168 -1.52997 -0.972707 0
M  V30 1359 C 125.216 -2.768 2.31115 0
M  V30 1360 O 124.32 -3.73349 1.7517 0
M  V30 1361 H 123.661 -0.456529 0.482159 0
M  V30 1362 H 126.191 -0.88644 1.844 0
M  V30 1363 H 126.201 -3.25371 2.46167 0
M  V30 1364 H 124.876 -2.49407 3.3282 0
M  V30 1365 H 123.453 -3.32179 1.69444 0
M  V30 1366 N 125.638 -1.25649 -0.95132 0
M  V30 1367 C 126.884 -1.10757 -1.69884 0
M  V30 1368 C 127.217 0.350061 -1.91019 0
M  V30 1369 O 126.492 1.25783 -1.48354 0
M  V30 1370 C 126.775 -1.86606 -3.07978 0
M  V30 1371 C 126.628 -3.40217 -2.94232 0
M  V30 1372 C 127.947 -1.65182 -4.07925 0
M  V30 1373 H 125.066 -0.40374 -0.616574 0
M  V30 1374 H 127.708 -1.54521 -1.10558 0
M  V30 1375 H 125.858 -1.49409 -3.58621 0
M  V30 1376 H 127.53 -3.87108 -2.50889 0
M  V30 1377 H 125.773 -3.67759 -2.30078 0
M  V30 1378 H 126.444 -3.88505 -3.92133 0
M  V30 1379 H 128.92 -1.9757 -3.66204 0
M  V30 1380 H 127.796 -2.20683 -5.02583 0
M  V30 1381 H 128.057 -0.593933 -4.38092 0
M  V30 1382 N 127.117 1.15442 -1.07289 0
M  V30 1383 C 128.049 2.19773 -0.650585 0
M  V30 1384 C 129.062 1.60076 0.296572 0
M  V30 1385 O 130.251 1.78293 0.0859905 0
M  V30 1386 C 127.351 3.38838 0.0650398 0
M  V30 1387 C 126.524 4.2808 -0.898141 0
M  V30 1388 C 125.583 5.2574 -0.219926 0
M  V30 1389 O 124.609 5.62654 -0.860773 0
M  V30 1390 N 125.811 5.71205 1.03466 0
M  V30 1391 H 128.576 2.56622 -1.54808 0
M  V30 1392 H 126.137 1.30551 -0.957494 0
M  V30 1393 H 128.129 4.01222 0.529415 0
M  V30 1394 H 126.699 3.00409 0.864466 0
M  V30 1395 H 125.919 3.62804 -1.54165 0
M  V30 1396 H 127.207 4.84577 -1.5512 0
M  V30 1397 H 126.605 5.43325 1.57526 0
M  V30 1398 H 125.162 6.35633 1.44272 0
M  V30 1399 N 128.595 0.856903 1.32268 0
M  V30 1400 C 129.842 0.461386 1.97174 0
M  V30 1401 C 130.17 -0.983491 1.67803 0
M  V30 1402 O 129.425 -1.70541 0.959903 0
M  V30 1403 C 129.724 0.649919 3.51441 0
M  V30 1404 C 129.39 2.0656 4.00804 0
M  V30 1405 C 128.052 2.45279 4.13995 0
M  V30 1406 C 130.404 2.98947 4.26943 0
M  V30 1407 C 127.732 3.75653 4.50668 0
M  V30 1408 C 130.084 4.28822 4.65075 0
M  V30 1409 C 128.748 4.67472 4.76472 0
M  V30 1410 H 128.018 0.168833 0.72151 0
M  V30 1411 H 130.665 1.08739 1.57633 0
M  V30 1412 H 128.97 -0.0593018 3.91755 0
M  V30 1413 H 130.667 0.32391 3.9969 0
M  V30 1414 H 127.257 1.75495 3.91024 0
M  V30 1415 H 131.441 2.70265 4.16258 0
M  V30 1416 H 126.697 4.05379 4.57688 0
M  V30 1417 H 130.871 5.0047 4.84255 0
M  V30 1418 H 128.498 5.68539 5.04646 0
M  V30 1419 N 130.073 -1.45103 0.615059 0
M  V30 1420 C 131.484 -1.85654 0.197383 0
M  V30 1421 C 131.835 -1.51433 -1.24749 0
M  V30 1422 O 130.96 -0.944608 -1.94695 0
M  V30 1423 C 131.555 -3.36972 0.351448 0
M  V30 1424 C 130.114 -3.76398 -0.011593 0
M  V30 1425 C 129.261 -2.69024 0.672394 0
M  V30 1426 H 132.212 -1.35797 0.821263 0
M  V30 1427 H 132.233 -3.78239 -0.414227 0
M  V30 1428 H 131.745 -3.61847 1.40314 0
M  V30 1429 H 129.846 -3.5714 -1.06217 0
M  V30 1430 H 129.959 -4.77532 0.387265 0
M  V30 1431 H 128.323 -2.54465 0.109284 0
M  V30 1432 H 129.106 -2.96735 1.72636 0
M  V30 1433 N 131.551 -0.354651 -1.53558 0
M  V30 1434 C 132.501 0.513179 -2.2215 0
M  V30 1435 C 133.485 1.05734 -1.21281 0
M  V30 1436 O 134.677 0.989202 -1.46778 0
M  V30 1437 C 131.806 1.65798 -3.00609 0
M  V30 1438 C 130.892 1.12722 -4.08845 0
M  V30 1439 N 131.283 0.318563 -5.04796 0
M  V30 1440 C 129.581 1.40307 -4.23356 0
M  V30 1441 C 130.282 0.0292224 -5.81693 0
M  V30 1442 N 129.258 0.623891 -5.40008 0
M  V30 1443 H 133.06 -0.111586 -2.93688 0
M  V30 1444 H 130.574 -0.162091 -1.61589 0
M  V30 1445 H 132.571 2.29176 -3.48258 0
M  V30 1446 H 131.231 2.28591 -2.306 0
M  V30 1447 H 132.242 -0.0413091 -5.17884 0
M  V30 1448 H 128.919 2.03458 -3.6457 0
M  V30 1449 H 130.309 -0.623808 -6.68998 0
M  V30 1450 N 133.029 1.57378 -0.0835403 0
M  V30 1451 C 133.939 2.16897 0.894021 0
M  V30 1452 C 134.955 1.13528 1.31861 0
M  V30 1453 O 136.131 1.45848 1.3889 0
M  V30 1454 C 133.196 2.72831 2.13925 0
M  V30 1455 C 132.257 3.91115 1.76997 0
M  V30 1456 C 131.49 4.44371 2.95584 0
M  V30 1457 O 131.713 3.96596 4.09961 0
M  V30 1458 O 130.647 5.35549 2.74719 0
M  V30 1459 H 134.473 3.00814 0.417679 0
M  V30 1460 H 132.058 1.48741 0.140181 0
M  V30 1461 H 133.94 3.0863 2.86924 0
M  V30 1462 H 132.615 1.91967 2.60635 0
M  V30 1463 H 131.522 3.60148 1.01214 0
M  V30 1464 H 132.855 4.73307 1.3506 0
M  V30 1465 N 134.507 -0.190092 1.56449 0
M  V30 1466 C 135.732 -0.929864 1.85387 0
M  V30 1467 C 136.157 -1.7585 0.667704 0
M  V30 1468 O 135.515 -1.77198 -0.383459 0
M  V30 1469 C 135.563 -1.79773 3.12593 0
M  V30 1470 O 134.667 -2.89713 2.93496 0
M  V30 1471 H 134.008 -0.261574 0.610307 0
M  V30 1472 H 136.538 -0.193896 2.03679 0
M  V30 1473 H 136.548 -2.20139 3.43515 0
M  V30 1474 H 135.223 -1.18892 3.98544 0
M  V30 1475 H 133.8 -2.53065 2.73884 0
M  V30 1476 N 135.985 -1.50799 -0.457987 0
M  V30 1477 C 137.21 -1.66496 -1.23668 0
M  V30 1478 C 137.635 -0.353288 -1.84752 0
M  V30 1479 O 136.993 0.684346 -1.67888 0
M  V30 1480 C 137.041 -2.76763 -2.3116 0
M  V30 1481 O 136.145 -2.38928 -3.36136 0
M  V30 1482 H 135.486 -0.555828 -0.363252 0
M  V30 1483 H 138.016 -1.9725 -0.543474 0
M  V30 1484 H 138.026 -3.00232 -2.76269 0
M  V30 1485 H 136.701 -3.71954 -1.86073 0
M  V30 1486 H 135.278 -2.25953 -2.96647 0
M  V30 1487 N 137.463 0.71206 -1.40597 0
M  V30 1488 C 138.874 1.29135 -1.34837 0
M  V30 1489 C 139.225 1.96186 -0.0235395 0
M  V30 1490 O 138.35 1.97768 0.878444 0
M  V30 1491 C 138.945 2.34827 -2.44217 0
M  V30 1492 C 137.504 2.88371 -2.41907 0
M  V30 1493 C 136.651 1.62202 -2.24913 0
M  V30 1494 H 139.602 0.507944 -1.50352 0
M  V30 1495 H 139.623 3.15749 -2.12327 0
M  V30 1496 H 139.135 1.85996 -3.40627 0
M  V30 1497 H 137.236 3.41422 -1.49204 0
M  V30 1498 H 137.349 3.39925 -3.37621 0
M  V30 1499 H 135.713 1.874 -1.72492 0
M  V30 1500 H 136.496 1.15391 -3.23326 0
M  V30 1501 N 138.941 1.26152 0.944643 0
M  V30 1502 C 140.357 1.03189 1.21754 0
M  V30 1503 C 140.557 -0.245112 2.00004 0
M  V30 1504 O 139.613 -0.955176 2.33736 0
M  V30 1505 C 140.926 2.26119 1.98219 0
M  V30 1506 C 142.474 2.30984 2.11224 0
M  V30 1507 C 142.949 3.53597 2.91089 0
M  V30 1508 N 144.44 3.54053 2.98664 0
M  V30 1509 C 145.175 4.45593 3.60881 0
M  V30 1510 N 144.671 5.47416 4.24626 0
M  V30 1511 N 146.464 4.33252 3.58119 0
M  V30 1512 H 138.615 2.08177 0.421437 0
M  V30 1513 H 140.878 0.914723 0.248969 0
M  V30 1514 H 140.584 3.18984 1.48128 0
M  V30 1515 H 140.458 2.3009 2.98895 0
M  V30 1516 H 142.845 1.38635 2.60508 0
M  V30 1517 H 142.926 2.31026 1.09821 0
M  V30 1518 H 142.57 4.46273 2.42493 0
M  V30 1519 H 142.5 3.50802 3.92741 0
M  V30 1520 H 144.991 2.80403 2.53343 0
M  V30 1521 H 145.304 6.13459 4.69987 0
M  V30 1522 H 143.649 5.51278 4.23223 0
M  V30 1523 H 146.84 3.52924 3.0751 0
M  V30 1524 H 147.013 5.04786 4.06319 0
M  V30 1525 N 140.419 -1.14872 1.07899 0
M  V30 1526 C 141.382 -2.17986 0.708161 0
M  V30 1527 C 142.382 -1.58775 -0.25442 0
M  V30 1528 O 143.572 -1.74166 -0.034645 0
M  V30 1529 C 140.704 -3.40871 0.0446929 0
M  V30 1530 H 141.897 -2.52306 1.62116 0
M  V30 1531 H 139.45 -1.2943 0.876218 0
M  V30 1532 H 140.185 -3.12124 -0.880281 0
M  V30 1533 H 139.97 -3.8511 0.737091 0
M  V30 1534 H 141.46 -4.17121 -0.19991 0
M  V30 1535 N 141.898 -0.863906 -1.31812 0
M  V30 1536 C 143.314 -0.555004 -1.49639 0
M  V30 1537 C 143.514 0.912266 -1.79666 0
M  V30 1538 O 142.57 1.69479 -1.87171 0
M  V30 1539 C 143.883 -1.44998 -2.63431 0
M  V30 1540 C 145.431 -1.45138 -2.77316 0
M  V30 1541 C 145.906 -2.33179 -3.94197 0
M  V30 1542 N 147.397 -2.31025 -4.01474 0
M  V30 1543 C 148.132 -2.95871 -4.9117 0
M  V30 1544 N 147.628 -3.69863 -5.8581 0
M  V30 1545 N 149.421 -2.85211 -4.84367 0
M  V30 1546 H 141.572 -1.81339 -1.10589 0
M  V30 1547 H 143.835 -0.77505 -0.545895 0
M  V30 1548 H 143.541 -2.49377 -2.48 0
M  V30 1549 H 143.415 -1.14409 -3.59431 0
M  V30 1550 H 145.802 -0.415201 -2.92164 0
M  V30 1551 H 145.883 -1.79747 -1.82001 0
M  V30 1552 H 145.527 -3.3687 -3.80107 0
M  V30 1553 H 145.457 -1.95897 -4.88807 0
M  V30 1554 H 147.948 -1.77238 -3.33759 0
M  V30 1555 H 148.261 -4.16486 -6.50968 0
M  V30 1556 H 146.606 -3.73971 -5.85808 0
M  V30 1557 H 149.797 -2.26948 -4.09405 0
M  V30 1558 H 149.97 -3.36027 -5.54066 0
M  V30 1559 N 143.376 1.44774 -0.622745 0
M  V30 1560 C 144.306 2.33382 0.0741861 0
M  V30 1561 C 145.287 1.47719 0.843387 0
M  V30 1562 O 146.472 1.76458 0.810934 0
M  V30 1563 C 143.602 3.30663 1.06204 0
M  V30 1564 C 142.556 4.26079 0.405037 0
M  V30 1565 C 141.882 5.13165 1.5022 0
M  V30 1566 C 143.182 5.1781 -0.683414 0
M  V30 1567 H 144.876 2.91905 -0.665713 0
M  V30 1568 H 142.422 1.40363 -0.321587 0
M  V30 1569 H 144.375 3.9153 1.55827 0
M  V30 1570 H 143.099 2.70331 1.83272 0
M  V30 1571 H 141.758 3.66532 -0.0704683 0
M  V30 1572 H 141.406 4.49191 2.26355 0
M  V30 1573 H 141.106 5.77812 1.06803 0
M  V30 1574 H 142.63 5.76902 2.00041 0
M  V30 1575 H 144.044 5.72661 -0.270631 0
M  V30 1576 H 142.441 5.91015 -1.04023 0
M  V30 1577 H 143.511 4.59326 -1.55395 0
M  V30 1578 N 144.854 0.36279 1.53368 0
M  V30 1579 C 145.784 -0.476976 2.28576 0
M  V30 1580 C 146.765 -1.08631 1.30894 0
M  V30 1581 O 147.95 -1.10409 1.59761 0
M  V30 1582 C 145.08 -1.61828 3.07293 0
M  V30 1583 C 144.034 -1.13633 4.1264 0
M  V30 1584 C 143.36 -2.36766 4.79423 0
M  V30 1585 C 144.66 -0.223061 5.21823 0
M  V30 1586 H 146.354 0.150474 2.99022 0
M  V30 1587 H 143.9 0.0738103 1.43811 0
M  V30 1588 H 145.853 -2.21237 3.58653 0
M  V30 1589 H 144.577 -2.27292 2.34533 0
M  V30 1590 H 143.236 -0.564945 3.62221 0
M  V30 1591 H 142.884 -3.0068 4.03238 0
M  V30 1592 H 142.584 -2.05192 5.50609 0
M  V30 1593 H 144.108 -2.96865 5.33576 0
M  V30 1594 H 145.522 -0.724545 5.68703 0
M  V30 1595 H 143.919 0.001678 6.001 0
M  V30 1596 H 144.989 0.735553 4.79289 0
M  V30 1597 N 146.332 -1.57332 0.0918853 0
M  V30 1598 C 147.581 -1.93412 -0.572249 0
M  V30 1599 C 147.894 -0.975515 -1.69538 0
M  V30 1600 O 149.1 -1.22991 -2.42045 0
M  V30 1601 C 147.556 -3.43648 -1.0693 0
M  V30 1602 C 147.164 -4.47994 0.0239049 0
M  V30 1603 C 148.908 -3.88695 -1.70635 0
M  V30 1604 C 146.815 -5.89381 -0.488319 0
M  V30 1605 H 145.745 -0.721939 -0.217532 0
M  V30 1606 H 148.396 -1.82735 0.167369 0
M  V30 1607 H 146.778 -3.49466 -1.8625 0
M  V30 1608 H 147.952 -4.53815 0.799277 0
M  V30 1609 H 146.267 -4.12536 0.565946 0
M  V30 1610 H 148.864 -4.91725 -2.10025 0
M  V30 1611 H 149.207 -3.27166 -2.57426 0
M  V30 1612 H 149.74 -3.85564 -0.979023 0
M  V30 1613 H 146.479 -6.54602 0.342906 0
M  V30 1614 H 145.999 -5.87037 -1.23077 0
M  V30 1615 H 147.678 -6.39863 -0.958317 0
M  V30 1616 N 147.81 0.181792 -1.56548 0
M  V30 1617 C 149.056 0.901431 -1.81665 0
M  V30 1618 C 149.389 1.82347 -0.668075 0
M  V30 1619 O 148.664 1.91669 0.330615 0
M  V30 1620 C 148.947 1.70618 -3.17115 0
M  V30 1621 C 148.8 0.807964 -4.42484 0
M  V30 1622 C 150.119 2.67605 -3.49393 0
M  V30 1623 H 147.238 0.32627 -0.660846 0
M  V30 1624 H 149.88 0.168134 -1.89255 0
M  V30 1625 H 148.03 2.33133 -3.10775 0
M  V30 1626 H 149.702 0.19649 -4.60881 0
M  V30 1627 H 147.945 0.115411 -4.33646 0
M  V30 1628 H 148.616 1.40632 -5.33785 0
M  V30 1629 H 151.092 2.15218 -3.56118 0
M  V30 1630 H 149.968 3.20985 -4.45264 0
M  V30 1631 H 150.229 3.47298 -2.73563 0
M  V30 1632 N 149.288 1.51039 0.449983 0
M  V30 1633 C 150.221 1.66105 1.56474 0
M  V30 1634 C 151.199 0.508776 1.54435 0
M  V30 1635 O 152.383 0.731005 1.73749 0
M  V30 1636 C 149.51 1.66304 2.9506 0
M  V30 1637 C 148.556 2.87346 3.15174 0
M  V30 1638 S 149.389 4.4835 2.92818 0
M  V30 1639 C 150.545 4.51274 4.33708 0
M  V30 1640 H 150.778 2.60397 1.43459 0
M  V30 1641 H 148.311 1.40565 0.638805 0
M  V30 1642 H 150.269 1.67103 3.74949 0
M  V30 1643 H 148.93 0.732108 3.05449 0
M  V30 1644 H 148.123 2.83849 4.16468 0
M  V30 1645 H 147.725 2.84223 2.43091 0
M  V30 1646 H 150.017 4.26136 5.26701 0
M  V30 1647 H 150.96 5.53017 4.42242 0
M  V30 1648 H 151.368 3.80738 4.16772 0
M  V30 1649 N 150.766 -0.704594 1.40972 0
M  V30 1650 C 151.676 -1.84856 1.44448 0
M  V30 1651 C 152.692 -1.70726 0.335961 0
M  V30 1652 O 153.868 -1.92799 0.582276 0
M  V30 1653 C 150.933 -3.20758 1.31587 0
M  V30 1654 C 149.994 -3.47063 2.52677 0
M  V30 1655 C 149.227 -4.76481 2.4042 0
M  V30 1656 O 149.45 -5.52341 1.42391 0
M  V30 1657 O 148.384 -5.03367 3.30007 0
M  V30 1658 H 152.21 -1.8488 2.40942 0
M  V30 1659 H 149.795 -0.85647 1.22413 0
M  V30 1660 H 151.677 -4.01913 1.26665 0
M  V30 1661 H 150.352 -3.21438 0.382049 0
M  V30 1662 H 149.259 -2.65873 2.63177 0
M  V30 1663 H 150.592 -3.5119 3.44858 0
M  V30 1664 N 152.244 -1.26651 -0.937939 0
M  V30 1665 C 153.177 -1.02811 -2.03728 0
M  V30 1666 C 154.155 0.0481915 -1.62529 0
M  V30 1667 O 155.339 -0.0948839 -1.88261 0
M  V30 1668 C 152.466 -0.557517 -3.3408 0
M  V30 1669 C 151.512 -1.62686 -3.94253 0
M  V30 1670 S 152.345 -3.21667 -4.28125 0
M  V30 1671 C 153.501 -2.76384 -5.61572 0
M  V30 1672 H 153.734 -1.95891 -2.23638 0
M  V30 1673 H 151.267 -1.10367 -1.07974 0
M  V30 1674 H 153.225 -0.292674 -4.09455 0
M  V30 1675 H 151.886 0.353062 -3.12109 0
M  V30 1676 H 151.079 -1.24866 -4.88287 0
M  V30 1677 H 150.681 -1.84324 -3.25424 0
M  V30 1678 H 152.973 -2.2105 -6.40424 0
M  V30 1679 H 153.916 -3.69123 -6.0428 0
M  V30 1680 H 154.324 -2.15847 -5.21604 0
M  V30 1681 N 153.722 1.14298 -1.08507 0
M  V30 1682 C 154.655 2.18447 -0.660004 0
M  V30 1683 C 155.633 1.59242 0.328749 0
M  V30 1684 O 156.817 1.87062 0.232367 0
M  V30 1685 C 153.944 3.38688 0.0290807 0
M  V30 1686 C 152.99 4.1646 -0.919982 0
M  V30 1687 S 153.823 4.77334 -2.42718 0
M  V30 1688 C 154.979 6.00931 -1.75024 0
M  V30 1689 H 155.212 2.54166 -1.54231 0
M  V30 1690 H 152.745 1.25446 -0.900149 0
M  V30 1691 H 154.703 4.08342 0.420378 0
M  V30 1692 H 153.364 3.01289 0.887895 0
M  V30 1693 H 152.557 5.02529 -0.384751 0
M  V30 1694 H 152.159 3.52414 -1.25223 0
M  V30 1695 H 154.451 6.69017 -1.06877 0
M  V30 1696 H 155.394 6.59044 -2.58971 0
M  V30 1697 H 155.802 5.51089 -1.22317 0
M  V30 1698 N 155.201 0.870884 1.31352 0
M  V30 1699 C 156.111 0.330783 2.32256 0
M  V30 1700 C 157.127 -0.559767 1.6475 0
M  V30 1701 O 158.303 -0.456263 1.96164 0
M  V30 1702 C 155.368 -0.458137 3.4366 0
M  V30 1703 C 154.429 0.460482 4.26823 0
M  V30 1704 C 153.662 -0.290881 5.32907 0
M  V30 1705 O 153.885 -1.51885 5.49806 0
M  V30 1706 O 152.819 0.351732 6.00871 0
M  V30 1707 H 156.645 1.16718 2.80376 0
M  V30 1708 H 154.23 0.634285 1.35267 0
M  V30 1709 H 156.112 -0.905343 4.1156 0
M  V30 1710 H 154.787 -1.27106 2.97701 0
M  V30 1711 H 153.694 0.956207 3.61673 0
M  V30 1712 H 155.027 1.23903 4.7635 0
M  V30 1713 N 156.679 -1.44442 0.630414 0
M  V30 1714 C 157.927 -2.01653 0.134351 0
M  V30 1715 C 158.248 -1.49836 -1.24796 0
M  V30 1716 O 157.518 -0.701684 -1.82902 0
M  V30 1717 H 156.098 -0.74554 0.0466769 0
M  V30 1718 H 158.76 -1.76952 0.816955 0
M  V30 1719 H 157.856 -3.11935 0.101498 0
M  V30 1720 N 158.157 -0.370918 -1.53173 0
M  V30 1721 C 159.405 0.216673 -2.00935 0
M  V30 1722 C 159.726 1.48845 -1.25977 0
M  V30 1723 O 158.996 1.92286 -0.374551 0
M  V30 1724 H 157.576 0.0830565 -0.742368 0
M  V30 1725 H 160.238 -0.49838 -1.8842 0
M  V30 1726 H 159.334 0.439893 -3.08984 0
M  V30 1727 N 159.635 1.57281 -0.100228 0
M  V30 1728 C 160.545 2.17833 0.870965 0
M  V30 1729 C 161.561 1.14921 1.30649 0
M  V30 1730 O 162.737 1.47313 1.37335 0
M  V30 1731 C 159.802 2.75085 2.1102 0
M  V30 1732 C 158.863 3.9297 1.72838 0
M  V30 1733 C 158.096 4.47482 2.90854 0
M  V30 1734 O 158.319 4.00922 4.05731 0
M  V30 1735 O 157.253 5.38433 2.69023 0
M  V30 1736 H 161.079 3.0124 0.38575 0
M  V30 1737 H 158.664 1.48881 0.124397 0
M  V30 1738 H 160.546 3.11656 2.83634 0
M  V30 1739 H 159.221 1.94721 2.58584 0
M  V30 1740 H 158.128 3.61201 0.973883 0
M  V30 1741 H 159.461 4.74713 1.30033 0
M  V30 1742 N 161.113 -0.173488 1.56642 0
M  V30 1743 C 162.043 -1.2171 1.99271 0
M  V30 1744 C 163.024 -1.46289 0.867959 0
M  V30 1745 O 164.209 -1.5766 1.13388 0
M  V30 1746 C 161.339 -2.55651 2.35074 0
M  V30 1747 C 160.293 -2.45645 3.50489 0
M  V30 1748 C 159.619 -3.84056 3.72028 0
M  V30 1749 C 160.919 -1.96302 4.84007 0
M  V30 1750 H 162.613 -0.86275 2.867 0
M  V30 1751 H 160.159 -0.413571 1.37933 0
M  V30 1752 H 162.112 -3.2886 2.63494 0
M  V30 1753 H 160.836 -2.92869 1.44552 0
M  V30 1754 H 159.495 -1.7489 3.22194 0
M  V30 1755 H 159.143 -4.18664 2.788 0
M  V30 1756 H 158.843 -3.7823 4.49684 0
M  V30 1757 H 160.367 -4.58854 4.02846 0
M  V30 1758 H 161.781 -2.59284 5.11317 0
M  V30 1759 H 160.178 -2.01429 5.65284 0
M  V30 1760 H 161.248 -0.917226 4.76146 0
M  V30 1761 N 162.591 -1.51276 -0.441967 0
M  V30 1762 C 163.838 -1.63715 -1.19179 0
M  V30 1763 C 164.166 -0.351175 -1.91303 0
M  V30 1764 O 163.421 0.664524 -1.84072 0
M  V30 1765 C 163.72 -2.78746 -2.23686 0
M  V30 1766 C 163.386 -4.18189 -1.68607 0
M  V30 1767 C 162.048 -4.56125 -1.53308 0
M  V30 1768 C 164.4 -5.05222 -1.28062 0
M  V30 1769 C 161.728 -5.78804 -0.959317 0
M  V30 1770 C 164.08 -6.28476 -0.721162 0
M  V30 1771 C 162.744 -6.65188 -0.55504 0
M  V30 1772 H 162.014 -0.599076 -0.436106 0
M  V30 1773 H 164.661 -1.85296 -0.48351 0
M  V30 1774 H 162.966 -2.51369 -3.00535 0
M  V30 1775 H 164.663 -2.8557 -2.81515 0
M  V30 1776 H 161.253 -3.88277 -1.8149 0
M  V30 1777 H 165.437 -4.76524 -1.38704 0
M  V30 1778 H 160.693 -6.05899 -0.81833 0
M  V30 1779 H 164.867 -6.95259 -0.398458 0
M  V30 1780 H 162.494 -7.60123 -0.108311 0
M  V30 1781 N 164.069 0.697108 -1.41344 0
M  V30 1782 C 165.019 1.80313 -1.39539 0
M  V30 1783 C 166.003 1.58618 -0.270001 0
M  V30 1784 O 167.195 1.69477 -0.510551 0
M  V30 1785 C 164.324 3.18606 -1.27848 0
M  V30 1786 C 163.41 3.46001 -2.45244 0
M  V30 1787 N 163.801 3.44103 -3.70711 0
M  V30 1788 C 162.099 3.76542 -2.39023 0
M  V30 1789 C 162.8 3.7036 -4.48563 0
M  V30 1790 N 161.776 3.90027 -3.78655 0
M  V30 1791 H 165.578 1.77207 -2.34468 0
M  V30 1792 H 163.092 0.897031 -1.35378 0
M  V30 1793 H 165.089 3.97833 -1.24637 0
M  V30 1794 H 163.749 3.22925 -0.339032 0
M  V30 1795 H 164.76 3.2452 -4.03618 0
M  V30 1796 H 161.437 3.88241 -1.53542 0
M  V30 1797 H 162.827 3.75042 -5.57488 0
M  V30 1798 N 165.547 1.27147 0.931209 0
M  V30 1799 C 166.963 1.04475 1.20653 0
M  V30 1800 C 167.163 -0.223885 2.00252 0
M  V30 1801 O 166.219 -0.930332 2.34736 0
M  V30 1802 C 167.532 2.28209 1.95809 0
M  V30 1803 C 169.08 2.33211 2.08762 0
M  V30 1804 C 169.555 3.56665 2.87323 0
M  V30 1805 N 171.046 3.57201 2.94892 0
M  V30 1806 C 171.781 4.49395 3.56134 0
M  V30 1807 N 171.277 5.51889 4.18796 0
M  V30 1808 N 173.07 4.37026 3.53504 0
M  V30 1809 H 165.221 2.08612 0.399333 0
M  V30 1810 H 167.484 0.917312 0.239253 0
M  V30 1811 H 167.19 3.20538 1.44736 0
M  V30 1812 H 167.064 2.33247 2.96438 0
M  V30 1813 H 169.451 1.41391 2.59023 0
M  V30 1814 H 169.532 2.32178 1.07364 0
M  V30 1815 H 169.176 4.4882 2.37746 0
M  V30 1816 H 169.106 3.54948 3.88998 0
M  V30 1817 H 171.597 2.83074 2.50354 0
M  V30 1818 H 171.91 6.18409 4.63454 0
M  V30 1819 H 170.255 5.55735 4.17353 0
M  V30 1820 H 173.446 3.56166 3.03749 0
M  V30 1821 H 173.619 5.09067 4.00942 0
M  V30 1822 N 167.025 -1.13721 1.09112 0
M  V30 1823 C 168.274 -1.84275 0.82009 0
M  V30 1824 C 168.587 -1.84253 -0.656509 0
M  V30 1825 O 169.793 -2.50668 -1.04296 0
M  V30 1826 C 168.249 -3.30825 1.41714 0
M  V30 1827 C 167.857 -3.39244 2.92605 0
M  V30 1828 C 169.601 -4.06443 1.22492 0
M  V30 1829 C 167.508 -4.80047 3.45411 0
M  V30 1830 H 166.438 -0.690387 0.30312 0
M  V30 1831 H 169.089 -1.28146 1.31343 0
M  V30 1832 H 167.471 -3.86737 0.851498 0
M  V30 1833 H 168.645 -2.93344 3.55367 0
M  V30 1834 H 166.96 -2.77088 3.10823 0
M  V30 1835 H 169.557 -5.10387 1.59402 0
M  V30 1836 H 169.9 -4.15972 0.165299 0
M  V30 1837 H 170.433 -3.56852 1.75788 0
M  V30 1838 H 167.172 -4.75709 4.50978 0
M  V30 1839 H 166.692 -5.26455 2.87411 0
M  V30 1840 H 168.371 -5.48957 3.42425 0
M  V30 1841 N 168.503 -0.877838 -1.30888 0
M  V30 1842 C 169.728 -0.506629 -2.01117 0
M  V30 1843 C 170.153 0.895564 -1.65412 0
M  V30 1844 O 169.511 1.5923 -0.866922 0
M  V30 1845 C 169.559 -0.680223 -3.54126 0
M  V30 1846 O 168.663 0.277033 -4.11468 0
M  V30 1847 H 168.004 -0.200518 -0.633 0
M  V30 1848 H 170.534 -1.18342 -1.66902 0
M  V30 1849 H 170.544 -0.5765 -4.03907 0
M  V30 1850 H 169.219 -1.70261 -3.79452 0
M  V30 1851 H 167.796 0.127606 -3.72682 0
M  V30 1852 N 169.982 1.44106 -0.638065 0
M  V30 1853 C 170.914 2.28976 0.101205 0
M  V30 1854 C 171.927 1.4167 0.802088 0
M  V30 1855 O 173.116 1.65755 0.662375 0
M  V30 1856 C 170.216 3.18217 1.16581 0
M  V30 1857 C 169.389 4.33978 0.546066 0
M  V30 1858 C 168.448 5.04202 1.50554 0
M  V30 1859 O 167.474 5.59986 1.01999 0
M  V30 1860 N 168.676 5.06296 2.8398 0
M  V30 1861 H 171.441 2.93064 -0.627186 0
M  V30 1862 H 169.002 1.54629 -0.479731 0
M  V30 1863 H 170.994 3.62061 1.80815 0
M  V30 1864 H 169.564 2.55833 1.79634 0
M  V30 1865 H 168.784 3.93239 -0.275046 0
M  V30 1866 H 170.072 5.08675 0.112793 0
M  V30 1867 H 169.47 4.62319 3.26002 0
M  V30 1868 H 168.027 5.53907 3.43556 0
M  V30 1869 N 171.46 0.379036 1.52974 0
M  V30 1870 C 172.41 -0.477772 2.22938 0
M  V30 1871 C 173.394 -1.03792 1.22948 0
M  V30 1872 O 174.586 -0.965725 1.48333 0
M  V30 1873 C 171.715 -1.60994 3.03209 0
M  V30 1874 C 170.801 -1.06203 4.10587 0
M  V30 1875 N 171.192 -0.238214 5.05239 0
M  V30 1876 C 169.49 -1.33554 4.25534 0
M  V30 1877 C 170.191 0.0633235 5.81666 0
M  V30 1878 N 169.167 -0.537901 5.40932 0
M  V30 1879 H 172.969 0.158295 2.93473 0
M  V30 1880 H 170.483 0.187778 1.61311 0
M  V30 1881 H 172.48 -2.23607 3.5186 0
M  V30 1882 H 171.14 -2.24893 2.34207 0
M  V30 1883 H 172.151 0.123695 5.17752 0
M  V30 1884 H 168.828 -1.97632 3.6776 0
M  V30 1885 H 170.218 0.730161 6.67921 0
M  V30 1886 N 172.938 -1.57226 0.108567 0
M  V30 1887 C 174.354 -1.5766 -0.248058 0
M  V30 1888 C 174.554 -1.12063 -1.67464 0
M  V30 1889 O 173.61 -0.803236 -2.39383 0
M  V30 1890 C 174.923 -3.0069 -0.0242287 0
M  V30 1891 C 176.471 -3.12868 -0.0909372 0
M  V30 1892 C 176.946 -4.57879 0.105067 0
M  V30 1893 N 178.437 -4.63172 0.0506846 0
M  V30 1894 C 179.172 -5.73126 0.177396 0
M  V30 1895 N 178.668 -6.91866 0.359696 0
M  V30 1896 N 180.461 -5.61977 0.117709 0
M  V30 1897 H 172.612 -1.85169 1.04049 0
M  V30 1898 H 174.875 -0.85529 0.40888 0
M  V30 1899 H 174.581 -3.38299 0.961604 0
M  V30 1900 H 174.455 -3.6945 -0.76068 0
M  V30 1901 H 176.842 -2.75124 -1.06729 0
M  V30 1902 H 176.923 -2.46672 0.677225 0
M  V30 1903 H 176.567 -4.96321 1.07834 0
M  V30 1904 H 176.497 -5.22153 -0.682954 0
M  V30 1905 H 178.988 -3.778 -0.0871266 0
M  V30 1906 H 179.301 -7.71503 0.447529 0
M  V30 1907 H 177.646 -6.93874 0.395536 0
M  V30 1908 H 180.837 -4.68094 -0.0236741 0
M  V30 1909 H 181.01 -6.47627 0.219905 0
M  V30 1910 N 174.416 0.165178 -1.56732 0
M  V30 1911 C 175.366 1.20917 -1.93295 0
M  V30 1912 C 176.35 1.39488 -0.801985 0
M  V30 1913 O 177.542 1.41356 -1.06525 0
M  V30 1914 C 174.671 2.54718 -2.3016 0
M  V30 1915 C 173.757 2.39815 -3.49785 0
M  V30 1916 N 174.148 1.94637 -4.66851 0
M  V30 1917 C 172.446 2.70623 -3.54513 0
M  V30 1918 C 173.147 1.92344 -5.4898 0
M  V30 1919 N 172.123 2.34978 -4.9019 0
M  V30 1920 H 175.925 0.851675 -2.81289 0
M  V30 1921 H 173.439 0.373399 -1.58049 0
M  V30 1922 H 175.436 3.30165 -2.54552 0
M  V30 1923 H 174.096 2.91265 -1.43508 0
M  V30 1924 H 175.107 1.6488 -4.90953 0
M  V30 1925 H 171.784 3.11167 -2.78354 0
M  V30 1926 H 173.174 1.5906 -6.52801 0
M  V30 1927 N 175.894 1.51508 0.433938 0
M  V30 1928 C 177.141 1.64345 1.18309 0
M  V30 1929 C 177.469 0.361315 1.91115 0
M  V30 1930 O 176.724 -0.654753 1.84422 0
M  V30 1931 C 177.023 2.79928 2.22205 0
M  V30 1932 C 176.689 4.19078 1.66387 0
M  V30 1933 C 175.351 4.56932 1.50887 0
M  V30 1934 C 177.703 5.05894 1.25381 0
M  V30 1935 C 175.031 5.79305 0.928608 0
M  V30 1936 C 177.383 6.2885 0.687823 0
M  V30 1937 C 176.047 6.65473 0.519755 0
M  V30 1938 H 175.317 0.601381 0.432923 0
M  V30 1939 H 177.964 1.85549 0.473676 0
M  V30 1940 H 176.269 2.52959 2.99197 0
M  V30 1941 H 177.966 2.87059 2.79997 0
M  V30 1942 H 174.556 3.89234 1.79428 0
M  V30 1943 H 178.74 4.77253 1.36175 0
M  V30 1944 H 173.996 6.06324 0.786186 0
M  V30 1945 H 178.17 6.95461 0.361581 0
M  V30 1946 H 175.797 7.6017 0.0679979 0
M  V30 1947 N 177.372 -0.689602 1.41712 0
M  V30 1948 C 178.6 -1.47827 1.44758 0
M  V30 1949 C 179.015 -1.88721 0.0545703 0
M  V30 1950 O 178.372 -1.57176 -0.927463 0
M  V30 1951 C 178.423 -2.73698 2.3616 0
M  V30 1952 O 178.144 -2.34524 3.7004 0
M  V30 1953 C 179.645 -3.67389 2.48072 0
M  V30 1954 H 176.865 -0.455357 0.49284 0
M  V30 1955 H 179.409 -0.848574 1.86063 0
M  V30 1956 H 177.564 -3.32891 1.98148 0
M  V30 1957 H 177.978 -3.15701 4.18847 0
M  V30 1958 H 179.452 -4.52475 3.16181 0
M  V30 1959 H 179.929 -4.12284 1.51388 0
M  V30 1960 H 180.535 -3.14097 2.86746 0
M  V30 1961 N 178.85 -1.27639 -0.924453 0
M  V30 1962 C 179.76 -1.12466 -2.05885 0
M  V30 1963 C 180.776 -0.053869 -1.73917 0
M  V30 1964 O 181.952 -0.261012 -1.99702 0
M  V30 1965 C 179.017 -0.776768 -3.37886 0
M  V30 1966 C 178.078 -1.92878 -3.83532 0
M  V30 1967 C 177.311 -1.59739 -5.09234 0
M  V30 1968 O 177.534 -0.506782 -5.68144 0
M  V30 1969 O 176.468 -2.43761 -5.50331 0
M  V30 1970 H 180.294 -2.07671 -2.21599 0
M  V30 1971 H 177.879 -1.06857 -1.04413 0
M  V30 1972 H 179.761 -0.596229 -4.17161 0
M  V30 1973 H 178.436 0.145732 -3.23372 0
M  V30 1974 H 177.343 -2.1644 -3.0513 0
M  V30 1975 H 178.676 -2.8316 -4.02593 0
M  V30 1976 N 180.328 1.1314 -1.09713 0
M  V30 1977 C 181.275 2.18642 -0.739196 0
M  V30 1978 C 182.245 1.63706 0.280978 0
M  V30 1979 O 183.43 1.90111 0.161946 0
M  V30 1980 C 180.57 3.44685 -0.169102 0
M  V30 1981 C 179.683 4.13711 -1.24367 0
M  V30 1982 C 178.818 5.27379 -0.636019 0
M  V30 1983 C 177.857 5.88259 -1.69169 0
M  V30 1984 N 176.994 6.93352 -1.10485 0
M  V30 1985 H 181.834 2.48607 -1.64312 0
M  V30 1986 H 179.371 1.22066 -0.820875 0
M  V30 1987 H 181.329 4.16815 0.179256 0
M  V30 1988 H 179.959 3.15161 0.698079 0
M  V30 1989 H 179.011 3.39835 -1.70927 0
M  V30 1990 H 180.323 4.55037 -2.04311 0
M  V30 1991 H 179.477 6.06238 -0.236677 0
M  V30 1992 H 178.216 4.8731 0.194928 0
M  V30 1993 H 177.221 5.08092 -2.10055 0
M  V30 1994 H 178.446 6.30399 -2.52536 0
M  V30 1995 H 176.392 6.55335 -0.295234 0
M  V30 1996 H 176.309 7.33236 -1.84121 0
M  V30 1997 H 177.577 7.76057 -0.73181 0
M  V30 1998 N 181.806 0.884767 1.30421 0
M  V30 1999 C 182.738 0.308655 2.27112 0
M  V30 2000 C 183.751 -0.536655 1.53701 0
M  V30 2001 O 184.94 -0.35624 1.74909 0
M  V30 2002 C 182.04 -0.579782 3.33904 0
M  V30 2003 C 181.213 0.236417 4.36761 0
M  V30 2004 C 180.272 -0.582482 5.22966 0
M  V30 2005 O 179.298 -0.00525502 5.692 0
M  V30 2006 N 180.5 -1.89163 5.48815 0
M  V30 2007 H 183.265 1.13964 2.77186 0
M  V30 2008 H 180.826 0.747731 1.43599 0
M  V30 2009 H 182.818 -1.13366 3.88497 0
M  V30 2010 H 181.388 -1.31144 2.83761 0
M  V30 2011 H 180.608 0.97174 3.82035 0
M  V30 2012 H 181.896 0.795924 5.02536 0
M  V30 2013 H 181.294 -2.38352 5.13035 0
M  V30 2014 H 179.851 -2.39296 6.06284 0
M  V30 2015 N 183.284 -1.43765 0.645699 0
M  V30 2016 C 184.247 -2.29163 -0.0409488 0
M  V30 2017 C 185.247 -1.41813 -0.757996 0
M  V30 2018 O 186.437 -1.63527 -0.600382 0
M  V30 2019 C 183.569 -3.23716 -1.06869 0
M  V30 2020 H 184.762 -2.91366 0.710345 0
M  V30 2021 H 182.315 -1.5092 0.406547 0
M  V30 2022 H 183.05 -2.66393 -1.84947 0
M  V30 2023 H 182.835 -3.88105 -0.558277 0
M  V30 2024 H 184.325 -3.87831 -1.54845 0
M  V30 2025 N 184.763 -0.387143 -1.52771 0
M  V30 2026 C 185.988 0.198407 -2.06449 0
M  V30 2027 C 186.413 1.39918 -1.25716 0
M  V30 2028 O 185.771 1.79099 -0.281657 0
M  V30 2029 C 185.819 0.548893 -3.56398 0
M  V30 2030 O 184.923 1.64315 -3.78252 0
M  V30 2031 H 184.264 0.0237731 -0.663574 0
M  V30 2032 H 186.794 -0.553989 -1.96957 0
M  V30 2033 H 186.804 0.813812 -3.99801 0
M  V30 2034 H 185.479 -0.329005 -4.14597 0
M  V30 2035 H 184.056 1.37211 -3.46738 0
M  V30 2036 N 186.241 1.57166 -0.116904 0
M  V30 2037 C 187.173 2.12271 0.864507 0
M  V30 2038 C 188.186 1.06494 1.23138 0
M  V30 2039 O 189.375 1.33873 1.18069 0
M  V30 2040 C 186.475 2.60564 2.16702 0
M  V30 2041 C 185.648 3.90416 1.97216 0
M  V30 2042 C 184.707 4.24329 3.11178 0
M  V30 2043 O 183.733 4.93182 2.84184 0
M  V30 2044 N 184.935 3.8148 4.37554 0
M  V30 2045 H 187.7 2.97102 0.393726 0
M  V30 2046 H 185.261 1.61759 0.0675805 0
M  V30 2047 H 187.253 2.80282 2.91932 0
M  V30 2048 H 185.823 1.80623 2.55135 0
M  V30 2049 H 185.043 3.79627 1.06192 0
M  V30 2050 H 186.331 4.75327 1.81499 0
M  V30 2051 H 185.729 3.25943 4.62361 0
M  V30 2052 H 184.286 4.06311 5.09661 0
M  V30 2053 N 187.719 -0.156864 1.56817 0
M  V30 2054 C 188.965 -0.872416 1.83076 0
M  V30 2055 C 189.298 -1.81261 0.697001 0
M  V30 2056 O 188.573 -1.92171 -0.30008 0
M  V30 2057 C 188.856 -1.65551 3.19789 0
M  V30 2058 C 188.709 -0.737467 4.43713 0
M  V30 2059 C 190.028 -2.62012 3.53606 0
M  V30 2060 H 187.147 -0.315715 0.665953 0
M  V30 2061 H 189.789 -0.138004 1.89498 0
M  V30 2062 H 187.939 -2.28159 3.14445 0
M  V30 2063 H 189.611 -0.123143 4.61136 0
M  V30 2064 H 187.854 -0.0464067 4.33775 0
M  V30 2065 H 188.525 -1.32122 5.35955 0
M  V30 2066 H 191.001 -2.09525 3.59497 0
M  V30 2067 H 189.877 -3.13861 4.50314 0
M  V30 2068 H 190.138 -3.42902 2.79053 0
M  V30 2069 N 189.197 -1.51736 -0.425897 0
M  V30 2070 C 190.425 -1.68794 -1.1965 0
M  V30 2071 C 190.84 -0.390164 -1.84725 0
M  V30 2072 O 190.197 0.632376 -1.71194 0
M  V30 2073 C 190.248 -2.81174 -2.27208 0
M  V30 2074 O 189.969 -4.05925 -1.64793 0
M  V30 2075 C 191.47 -3.09599 -3.17275 0
M  V30 2076 H 188.69 -0.566128 -0.360194 0
M  V30 2077 H 191.234 -1.98211 -0.503249 0
M  V30 2078 H 189.389 -2.54324 -2.9223 0
M  V30 2079 H 189.803 -4.68423 -2.35967 0
M  V30 2080 H 191.277 -3.91786 -3.88854 0
M  V30 2081 H 191.754 -2.22468 -3.78688 0
M  V30 2082 H 192.36 -3.38151 -2.57941 0
M  V30 2083 N 190.675 0.682077 -1.42076 0
M  V30 2084 C 191.622 1.79578 -1.44984 0
M  V30 2085 C 192.592 1.6332 -0.302614 0
M  V30 2086 O 193.777 1.83978 -0.505633 0
M  V30 2087 C 190.917 3.1756 -1.35091 0
M  V30 2088 C 190.03 3.45156 -2.59791 0
M  V30 2089 C 189.165 4.72826 -2.42093 0
M  V30 2090 C 188.204 4.93433 -3.62202 0
M  V30 2091 N 187.341 6.12338 -3.43491 0
M  V30 2092 H 192.181 1.76427 -2.40161 0
M  V30 2093 H 189.718 0.861376 -1.19242 0
M  V30 2094 H 191.676 3.97287 -1.27354 0
M  V30 2095 H 190.306 3.19854 -0.435133 0
M  V30 2096 H 189.358 2.59736 -2.77923 0
M  V30 2097 H 190.67 3.5628 -3.49094 0
M  V30 2098 H 189.824 5.60631 -2.319 0
M  V30 2099 H 188.563 4.63973 -1.50268 0
M  V30 2100 H 187.568 4.04073 -3.72834 0
M  V30 2101 H 188.793 5.04136 -4.54998 0
M  V30 2102 H 186.739 6.04672 -2.54377 0
M  V30 2103 H 186.656 6.2429 -4.26377 0
M  V30 2104 H 187.924 7.02841 -3.37097 0
M  V30 2105 N 192.153 1.28127 0.917671 0
M  V30 2106 C 193.085 1.07517 2.02417 0
M  V30 2107 C 194.098 0.0281099 1.62776 0
M  V30 2108 O 195.287 0.270748 1.76435 0
M  V30 2109 C 192.387 0.610957 3.33347 0
M  V30 2110 C 191.56 1.73255 4.01624 0
M  V30 2111 C 190.619 1.26238 5.10833 0
M  V30 2112 O 189.645 1.96389 5.34247 0
M  V30 2113 N 190.847 0.123448 5.80369 0
M  V30 2114 H 193.612 2.02806 2.20658 0
M  V30 2115 H 191.173 1.19827 1.08871 0
M  V30 2116 H 193.165 0.280101 4.0373 0
M  V30 2117 H 191.735 -0.24898 3.11607 0
M  V30 2118 H 190.955 2.23319 3.24842 0
M  V30 2119 H 192.243 2.48503 4.43986 0
M  V30 2120 H 191.641 -0.461847 5.63812 0
M  V30 2121 H 190.198 -0.148158 6.51632 0
M  V30 2122 N 193.631 -1.12557 1.10312 0
M  V30 2123 C 194.88 -1.83395 0.839588 0
M  V30 2124 C 195.193 -1.84939 -0.636929 0
M  V30 2125 O 196.399 -2.51761 -1.01631 0
M  V30 2126 C 194.855 -3.29303 1.45215 0
M  V30 2127 C 194.463 -3.36122 2.96186 0
M  V30 2128 C 196.207 -4.05121 1.26796 0
M  V30 2129 C 194.114 -4.76357 3.50483 0
M  V30 2130 H 193.044 -0.687133 0.310425 0
M  V30 2131 H 195.695 -1.26746 1.32694 0
M  V30 2132 H 194.077 -3.85812 0.892469 0
M  V30 2133 H 195.251 -2.89559 3.58458 0
M  V30 2134 H 193.566 -2.73776 3.13745 0
M  V30 2135 H 196.163 -5.08668 1.64806 0
M  V30 2136 H 196.506 -4.15773 0.209409 0
M  V30 2137 H 197.039 -3.54967 1.79563 0
M  V30 2138 H 193.778 -4.70899 4.55998 0
M  V30 2139 H 193.298 -5.23377 2.92978 0
M  V30 2140 H 194.977 -5.45294 3.48228 0
M  V30 2141 N 195.109 -0.891671 -1.2995 0
M  V30 2142 C 196.072 -0.36828 -2.26222 0
M  V30 2143 C 197.072 0.493014 -1.53056 0
M  V30 2144 O 198.262 0.299213 -1.71611 0
M  V30 2145 C 195.394 0.47442 -3.37583 0
M  V30 2146 H 196.587 -1.21844 -2.74033 0
M  V30 2147 H 194.14 -0.669107 -1.41254 0
M  V30 2148 H 194.875 1.34489 -2.95099 0
M  V30 2149 H 194.66 -0.142615 -3.91841 0
M  V30 2150 H 196.15 0.83218 -4.09224 0
M  V30 2151 N 196.587 1.43421 -0.653314 0
M  V30 2152 C 197.517 2.33487 0.0246656 0
M  V30 2153 C 198.498 1.49475 0.811863 0
M  V30 2154 O 199.683 1.78139 0.773322 0
M  V30 2155 C 196.813 3.32841 0.99166 0
M  V30 2156 C 195.767 4.26842 0.314568 0
M  V30 2157 C 195.093 5.16236 1.39302 0
M  V30 2158 C 196.393 5.16243 -0.793095 0
M  V30 2159 H 198.087 2.90427 -0.727481 0
M  V30 2160 H 195.633 1.39649 -0.351287 0
M  V30 2161 H 197.586 3.94747 1.47487 0
M  V30 2162 H 196.31 2.74158 1.77497 0
M  V30 2163 H 194.969 3.663 -0.148199 0
M  V30 2164 H 194.617 4.53891 2.16776 0
M  V30 2165 H 194.317 5.79948 0.945223 0
M  V30 2166 H 195.841 5.81015 1.87759 0
M  V30 2167 H 197.255 5.71958 -0.392039 0
M  V30 2168 H 195.652 5.88676 -1.16536 0
M  V30 2169 H 196.722 4.55927 -1.65103 0
M  V30 2170 N 198.065 0.39524 1.52563 0
M  V30 2171 C 199.028 -0.425001 2.25225 0
M  V30 2172 C 200.028 -0.985266 1.27079 0
M  V30 2173 O 201.218 -0.866332 1.5113 0
M  V30 2174 C 198.35 -1.59686 3.01186 0
M  V30 2175 H 199.543 0.211233 2.99155 0
M  V30 2176 H 197.096 0.147472 1.55603 0
M  V30 2177 H 197.831 -2.27035 2.31572 0
M  V30 2178 H 197.616 -1.20176 3.73229 0
M  V30 2179 H 199.106 -2.17743 3.5634 0
M  V30 2180 N 199.544 -1.57102 0.125237 0
M  V30 2181 C 200.474 -2.18659 -0.819174 0
M  V30 2182 C 201.455 -1.12843 -1.27281 0
M  V30 2183 O 202.64 -1.41104 -1.33429 0
M  V30 2184 C 199.77 -2.79096 -2.06695 0
M  V30 2185 C 198.724 -3.90548 -1.75088 0
M  V30 2186 C 198.05 -4.37821 -3.06948 0
M  V30 2187 C 199.35 -5.12356 -1.01435 0
M  V30 2188 H 201.044 -2.9783 -0.306202 0
M  V30 2189 H 198.59 -1.4326 -0.145839 0
M  V30 2190 H 200.543 -3.2082 -2.73226 0
M  V30 2191 H 199.267 -1.97223 -2.60328 0
M  V30 2192 H 197.926 -3.49409 -1.10944 0
M  V30 2193 H 197.574 -3.52799 -3.58527 0
M  V30 2194 H 197.274 -5.12982 -2.86571 0
M  V30 2195 H 198.798 -4.822 -3.74587 0
M  V30 2196 H 200.212 -5.5106 -1.58132 0
M  V30 2197 H 198.609 -5.9314 -0.911319 0
M  V30 2198 H 199.679 -4.849 -0.00218681 0
M  V30 2199 N 201.022 0.148545 -1.56898 0
M  V30 2200 C 202.438 0.501131 -1.51528 0
M  V30 2201 C 202.638 1.83458 -0.833399 0
M  V30 2202 O 201.694 2.49259 -0.40328 0
M  V30 2203 C 203.007 0.512864 -2.96294 0
M  V30 2204 C 204.555 0.598487 -3.07225 0
M  V30 2205 C 205.03 0.640897 -4.53494 0
M  V30 2206 N 206.521 0.703163 -4.57832 0
M  V30 2207 C 207.256 0.756935 -5.68382 0
M  V30 2208 N 206.752 0.770147 -6.88506 0
M  V30 2209 N 208.545 0.797698 -5.56411 0
M  V30 2210 H 200.696 -0.725532 -1.99624 0
M  V30 2211 H 202.959 -0.264358 -0.910395 0
M  V30 2212 H 202.665 -0.398691 -3.49433 0
M  V30 2213 H 202.539 1.35133 -3.52163 0
M  V30 2214 H 204.926 1.50046 -2.54106 0
M  V30 2215 H 205.007 -0.267093 -2.54402 0
M  V30 2216 H 204.651 -0.256915 -5.0725 0
M  V30 2217 H 204.581 1.52295 -5.04097 0
M  V30 2218 H 207.072 0.700314 -3.71354 0
M  V30 2219 H 207.385 0.812983 -7.68512 0
M  V30 2220 H 205.73 0.738049 -6.9107 0
M  V30 2221 H 208.921 0.784535 -4.61479 0
M  V30 2222 H 209.094 0.83614 -6.42583 0
M  V30 2223 N 202.5 1.5196 0.417844 0
M  V30 2224 C 203.45 1.7106 1.5074 0
M  V30 2225 C 204.434 0.564487 1.50673 0
M  V30 2226 O 205.626 0.821206 1.56797 0
M  V30 2227 C 202.755 1.85677 2.88754 0
M  V30 2228 C 201.841 3.06133 2.93502 0
M  V30 2229 N 202.232 4.28987 2.67962 0
M  V30 2230 C 200.53 3.05787 3.24669 0
M  V30 2231 C 201.231 5.10395 2.79055 0
M  V30 2232 N 200.207 4.45455 3.11561 0
M  V30 2233 H 204.009 2.63696 1.29775 0
M  V30 2234 H 201.523 1.49873 0.625436 0
M  V30 2235 H 203.52 1.97475 3.67164 0
M  V30 2236 H 202.18 0.942348 3.10725 0
M  V30 2237 H 203.191 4.57607 2.4252 0
M  V30 2238 H 199.868 2.2405 3.52289 0
M  V30 2239 H 201.258 6.18247 2.63097 0
M  V30 2240 N 203.978 -0.674533 1.42435 0
M  V30 2241 C 205.218 -1.4466 1.44405 0
M  V30 2242 C 205.582 -1.91911 0.0585784 0
M  V30 2243 O 206.783 -2.68759 -0.0469991 0
M  V30 2244 C 205.054 -2.61136 2.44013 0
M  V30 2245 S 206.613 -3.49981 2.64687 0
M  V30 2246 H 203.431 -0.494074 0.511284 0
M  V30 2247 H 206.033 -0.785162 1.7904 0
M  V30 2248 H 204.737 -2.24662 3.43446 0
M  V30 2249 H 204.268 -3.32153 2.10803 0
M  V30 2250 H 206.283 -4.57124 1.93007 0
M  V30 2251 N 205.456 -1.28612 -0.910864 0
M  V30 2252 C 206.406 -1.09423 -2.00026 0
M  V30 2253 C 207.39 -0.0170079 -1.60891 0
M  V30 2254 O 208.582 -0.237472 -1.754 0
M  V30 2255 C 205.711 -0.76114 -3.34756 0
M  V30 2256 C 204.797 -1.87735 -3.80285 0
M  V30 2257 N 205.188 -3.11938 -3.98156 0
M  V30 2258 C 203.486 -1.76786 -4.09467 0
M  V30 2259 C 204.187 -3.84687 -4.36338 0
M  V30 2260 N 203.163 -3.12555 -4.44759 0
M  V30 2261 H 206.965 -2.03658 -2.11898 0
M  V30 2262 H 204.479 -1.19573 -1.09891 0
M  V30 2263 H 206.476 -0.604743 -4.12491 0
M  V30 2264 H 205.136 0.173403 -3.24237 0
M  V30 2265 H 206.147 -3.47516 -3.83996 0
M  V30 2266 H 202.824 -0.905284 -4.07567 0
M  V30 2267 H 204.214 -4.91518 -4.58104 0
M  V30 2268 N 206.934 1.1197 -1.10907 0
M  V30 2269 C 207.864 2.19928 -0.784473 0
M  V30 2270 C 208.845 1.6833 0.244726 0
M  V30 2271 O 210.03 1.93892 0.109418 0
M  V30 2272 C 207.16 3.46597 -0.220827 0
M  V30 2273 C 206.114 4.11376 -1.18127 0
M  V30 2274 C 205.44 5.32554 -0.478594 0
M  V30 2275 C 206.74 4.56945 -2.52979 0
M  V30 2276 H 208.434 2.47337 -1.68715 0
M  V30 2277 H 205.98 1.18879 -0.812642 0
M  V30 2278 H 207.933 4.21396 0.0184278 0
M  V30 2279 H 206.657 3.1863 0.717113 0
M  V30 2280 H 205.316 3.38564 -1.40606 0
M  V30 2281 H 204.964 5.00856 0.463976 0
M  V30 2282 H 204.664 5.76844 -1.11912 0
M  V30 2283 H 206.188 6.10096 -0.248 0
M  V30 2284 H 207.602 5.23093 -2.3462 0
M  V30 2285 H 205.999 5.1203 -3.12962 0
M  V30 2286 H 207.069 3.70676 -3.12614 0
M  V30 2287 N 208.412 0.89855 1.29475 0
M  V30 2288 C 209.342 0.39201 2.30186 0
M  V30 2289 C 210.323 -0.532359 1.61555 0
M  V30 2290 O 211.508 -0.443331 1.89072 0
M  V30 2291 C 208.638 -0.382353 3.45189 0
M  V30 2292 C 207.592 0.451483 4.25612 0
M  V30 2293 C 206.918 -0.450307 5.328 0
M  V30 2294 C 208.218 1.70079 4.93832 0
M  V30 2295 H 209.912 1.23362 2.72804 0
M  V30 2296 H 207.458 0.594638 1.31149 0
M  V30 2297 H 209.411 -0.747451 4.14718 0
M  V30 2298 H 208.135 -1.25774 3.01411 0
M  V30 2299 H 206.794 0.798897 3.57789 0
M  V30 2300 H 206.442 -1.32379 4.85268 0
M  V30 2301 H 206.142 0.103902 5.87508 0
M  V30 2302 H 207.666 -0.811623 6.05182 0
M  V30 2303 H 209.08 1.40549 5.55805 0
M  V30 2304 H 207.477 2.19623 5.58467 0
M  V30 2305 H 208.547 2.43744 4.19186 0
M  V30 2306 N 209.89 -1.43072 0.660911 0
M  V30 2307 C 210.838 -2.32569 -0.0378199 0
M  V30 2308 C 211.832 -1.49046 -0.805092 0
M  V30 2309 O 213.038 -1.65206 -0.714624 0
M  V30 2310 H 209.413 -0.75136 -0.031019 0
M  V30 2311 H 211.384 -2.89216 0.734609 0
M  V30 2312 C 210.133 -3.33453 -0.985124 0
M  V30 2313 H 209.456 -3.97752 -0.404147 0
M  V30 2314 H 210.896 -3.98691 -1.44297 0
M  V30 2315 C 209.355 -2.64642 -2.08486 0
M  V30 2316 O 209.885 -2.46776 -3.16961 0
M  V30 2317 N 208.091 -2.23891 -1.8526 0
M  V30 2318 H 207.638 -2.38621 -0.970449 0
M  V30 2319 H 207.596 -1.78181 -2.59034 0
M  V30 2320 N 211.368 -0.403325 -1.52352 0
M  V30 2321 C 212.617 0.175668 -2.00934 0
M  V30 2322 C 212.93 1.46718 -1.29356 0
M  V30 2323 O 214.136 2.12708 -1.68724 0
M  V30 2324 C 212.592 0.363612 -3.58058 0
M  V30 2325 C 212.2 -0.915472 -4.38547 0
M  V30 2326 C 213.944 0.89821 -4.14888 0
M  V30 2327 C 211.851 -0.695035 -5.87302 0
M  V30 2328 H 210.781 0.0694234 -0.750797 0
M  V30 2329 H 213.432 -0.527879 -1.75743 0
M  V30 2330 H 211.814 1.12935 -3.79555 0
M  V30 2331 H 212.988 -1.68691 -4.28812 0
M  V30 2332 H 211.303 -1.37606 -3.93006 0
M  V30 2333 H 213.9 1.07907 -5.23699 0
M  V30 2334 H 214.243 1.87126 -3.71873 0
M  V30 2335 H 214.776 0.191681 -3.97338 0
M  V30 2336 H 211.515 -1.63948 -6.34666 0
M  V30 2337 H 211.035 0.0372116 -5.99788 0
M  V30 2338 H 212.714 -0.33497 -6.46132 0
M  V30 2339 N 212.846 1.57033 -0.133567 0
M  V30 2340 C 213.809 2.14897 0.796995 0
M  V30 2341 C 214.809 1.0874 1.18458 0
M  V30 2342 O 215.999 1.34446 1.1077 0
M  V30 2343 C 213.131 2.70112 2.07973 0
M  V30 2344 H 214.324 2.98457 0.293873 0
M  V30 2345 H 211.877 1.55871 0.115787 0
M  V30 2346 H 212.612 1.9018 2.62682 0
M  V30 2347 H 212.397 3.47764 1.81115 0
M  V30 2348 H 213.887 3.14738 2.74462 0
M  V30 2349 N 214.325 -0.140222 1.56975 0
M  V30 2350 C 215.275 -1.17827 1.95194 0
M  V30 2351 C 216.259 -1.38195 0.824075 0
M  V30 2352 O 217.451 -1.39643 1.0876 0
M  V30 2353 C 214.58 -2.51024 2.34184 0
M  V30 2354 C 213.666 -2.3422 3.53556 0
M  V30 2355 N 214.057 -1.87185 4.69889 0
M  V30 2356 C 212.355 -2.64949 3.58773 0
M  V30 2357 C 213.056 -1.83586 5.5197 0
M  V30 2358 N 212.032 -2.2715 4.93866 0
M  V30 2359 H 215.834 -0.806817 2.82609 0
M  V30 2360 H 213.348 -0.348208 1.58623 0
M  V30 2361 H 215.345 -3.26074 2.59772 0
M  V30 2362 H 214.005 -2.88945 1.48124 0
M  V30 2363 H 215.016 -1.57048 4.93514 0
M  V30 2364 H 211.693 -3.067 2.8327 0
M  V30 2365 H 213.083 -1.48655 6.55249 0
M  V30 2366 N 215.803 -1.52179 -0.40978 0
M  V30 2367 C 217.219 -1.40968 -0.74835 0
M  V30 2368 C 217.419 -0.513657 -1.94843 0
M  V30 2369 O 216.475 0.0208026 -2.52491 0
M  V30 2370 C 217.788 -2.83483 -1.0029 0
M  V30 2371 C 219.336 -2.92821 -1.10565 0
M  V30 2372 C 219.811 -4.36303 -1.39296 0
M  V30 2373 N 221.302 -4.39535 -1.46162 0
M  V30 2374 C 222.037 -5.47614 -1.70018 0
M  V30 2375 N 221.533 -6.65812 -1.91483 0
M  V30 2376 N 223.326 -5.35129 -1.72027 0
M  V30 2377 H 215.477 -2.0897 0.380186 0
M  V30 2378 H 217.74 -0.94185 0.107805 0
M  V30 2379 H 217.446 -3.51168 -0.193461 0
M  V30 2380 H 217.32 -3.24487 -1.92323 0
M  V30 2381 H 219.707 -2.25318 -1.90568 0
M  V30 2382 H 219.788 -2.55276 -0.16369 0
M  V30 2383 H 219.432 -5.04366 -0.598109 0
M  V30 2384 H 219.362 -4.71385 -2.34743 0
M  V30 2385 H 221.853 -3.54332 -1.31367 0
M  V30 2386 H 222.166 -7.43964 -2.09134 0
M  V30 2387 H 220.511 -6.68879 -1.88749 0
M  V30 2388 H 223.702 -4.41764 -1.54796 0
M  V30 2389 H 223.875 -6.19433 -1.9028 0
M  V30 2390 N 217.281 0.66697 -1.42791 0
M  V30 2391 C 218.558 1.4234 -1.34159 0
M  V30 2392 C 218.938 2.11093 0.0172729 0
M  V30 2393 O 218.286 2.03808 1.03318 0
M  V30 2394 C 218.496 2.41942 -2.51526 0
M  V30 2395 C 219.844 3.06353 -2.93995 0
M  V30 2396 O 220.868 2.52269 -2.51473 0
M  V30 2397 O 219.727 4.04376 -3.67617 0
M  V30 2398 H 216.821 0.635277 -0.529483 0
M  V30 2399 H 219.367 0.695034 -1.54814 0
M  V30 2400 H 218.139 1.89991 -3.42081 0
M  V30 2401 H 217.762 3.22249 -2.32898 0
M  V30 2402 N 218.759 1.29093 0.90403 0
M  V30 2403 C 219.689 1.16401 2.02418 0
M  V30 2404 C 220.67 0.0593085 1.69997 0
M  V30 2405 O 221.855 0.238021 1.92736 0
M  V30 2406 C 218.985 0.835233 3.37107 0
M  V30 2407 C 217.939 1.89578 3.83724 0
M  V30 2408 C 217.265 1.42041 5.15489 0
M  V30 2409 C 218.565 3.30394 4.04521 0
M  V30 2410 H 220.259 2.10109 2.13295 0
M  V30 2411 H 217.805 1.01157 1.02486 0
M  V30 2412 H 219.758 0.733169 4.14973 0
M  V30 2413 H 218.482 -0.137543 3.2631 0
M  V30 2414 H 217.141 1.98715 3.08071 0
M  V30 2415 H 216.789 0.436426 5.01103 0
M  V30 2416 H 216.489 2.12964 5.4765 0
M  V30 2417 H 218.013 1.33176 5.959 0
M  V30 2418 H 219.427 3.24123 4.72882 0
M  V30 2419 H 217.824 3.99237 4.48029 0
M  V30 2420 H 218.894 3.73692 3.09002 0
M  V30 2421 N 220.237 -1.11381 1.11499 0
M  V30 2422 C 221.184 -2.17439 0.773887 0
M  V30 2423 C 222.154 -1.64132 -0.254899 0
M  V30 2424 O 223.339 -1.90345 -0.13168 0
M  V30 2425 C 220.479 -3.44373 0.223917 0
M  V30 2426 C 219.592 -4.1168 1.30934 0
M  V30 2427 C 218.727 -5.263 0.71984 0
M  V30 2428 C 217.766 -5.85493 1.78507 0
M  V30 2429 N 216.903 -6.91507 1.21502 0
M  V30 2430 H 221.743 -2.45962 1.68246 0
M  V30 2431 H 219.28 -1.20744 0.840191 0
M  V30 2432 H 221.238 -4.17047 -0.112921 0
M  V30 2433 H 219.868 -3.16232 -0.647851 0
M  V30 2434 H 218.92 -3.37073 1.76312 0
M  V30 2435 H 220.232 -4.51729 2.11524 0
M  V30 2436 H 219.386 -6.05785 0.333094 0
M  V30 2437 H 218.125 -4.87559 -0.117377 0
M  V30 2438 H 217.13 -5.04686 2.18111 0
M  V30 2439 H 218.355 -6.26301 2.62533 0
M  V30 2440 H 216.301 -6.54783 0.399455 0
M  V30 2441 H 216.218 -7.30214 1.95763 0
M  V30 2442 H 217.486 -7.74795 0.855181 0
M  V30 2443 N 221.715 -0.905404 -1.28997 0
M  V30 2444 C 223.126 -0.581953 -1.77398 0
M  V30 2445 C 223.477 0.902552 -1.74208 0
M  V30 2446 O 222.602 1.70584 -1.33154 0
M  V30 2447 C 223.197 -1.04961 -3.22131 0
M  V30 2448 C 221.756 -0.777229 -3.68288 0
M  V30 2449 C 220.903 -1.22109 -2.48967 0
M  V30 2450 H 223.854 -1.08754 -1.15578 0
M  V30 2451 H 223.875 -0.387387 -3.78523 0
M  V30 2452 H 223.387 -2.13008 -3.24421 0
M  V30 2453 H 221.488 0.290383 -3.71467 0
M  V30 2454 H 221.601 -1.37911 -4.58822 0
M  V30 2455 H 219.965 -0.639971 -2.46529 0
M  V30 2456 H 220.748 -2.30972 -2.53982 0
M  V30 2457 N 223.193 1.4272 -0.668489 0
M  V30 2458 C 224.103 2.34596 0.0139753 0
M  V30 2459 C 225.119 1.5474 0.795703 0
M  V30 2460 O 226.295 1.87334 0.739466 0
M  V30 2461 C 223.36 3.33202 0.957982 0
M  V30 2462 C 222.421 4.28957 0.17149 0
M  V30 2463 C 221.654 5.22853 1.07053 0
M  V30 2464 O 221.877 5.21531 2.31001 0
M  V30 2465 O 220.811 5.9952 0.534727 0
M  V30 2466 H 224.637 2.9448 -0.742661 0
M  V30 2467 H 222.222 1.43117 -0.428705 0
M  V30 2468 H 224.104 3.93796 1.50008 0
M  V30 2469 H 222.779 2.758 1.69458 0
M  V30 2470 H 221.686 3.71796 -0.414558 0
M  V30 2471 H 223.019 4.89383 -0.52586 0
M  V30 2472 N 224.671 0.411399 1.52136 0
M  V30 2473 C 225.619 -0.427633 2.28635 0
M  V30 2474 C 226.613 -1.04383 1.33419 0
M  V30 2475 O 227.819 -0.981772 1.50868 0
M  V30 2476 H 224.194 -0.156689 0.735495 0
M  V30 2477 H 226.165 0.238761 2.97443 0
M  V30 2478 C 224.914 -1.53082 3.12188 0
M  V30 2479 H 224.237 -1.06601 3.85326 0
M  V30 2480 H 225.677 -2.09167 3.68816 0
M  V30 2481 C 224.136 -2.49946 2.25895 0
M  V30 2482 O 224.666 -3.53884 1.90076 0
M  V30 2483 N 222.872 -2.2021 1.8962 0
M  V30 2484 H 222.419 -1.35719 2.18948 0
M  V30 2485 H 222.377 -2.85266 1.32176 0
M  V30 2486 N 226.149 -1.5696 0.141893 0
M  V30 2487 C 227.079 -2.19516 -0.795936 0
M  V30 2488 C 228.06 -1.14187 -1.26077 0
M  V30 2489 O 229.245 -1.42511 -1.31925 0
M  V30 2490 C 226.375 -2.81272 -2.03723 0
M  V30 2491 C 225.329 -3.92384 -1.70936 0
M  V30 2492 C 224.655 -4.41052 -3.02287 0
M  V30 2493 C 225.955 -5.13403 -0.959954 0
M  V30 2494 H 227.649 -2.98138 -0.274596 0
M  V30 2495 H 225.195 -1.43406 -0.130636 0
M  V30 2496 H 227.148 -3.237 -2.69808 0
M  V30 2497 H 225.872 -1.99973 -2.58221 0
M  V30 2498 H 224.531 -3.50566 -1.07232 0
M  V30 2499 H 224.179 -3.56582 -3.54765 0
M  V30 2500 H 223.879 -5.15993 -2.81114 0
M  V30 2501 H 225.403 -4.86146 -3.69451 0
M  V30 2502 H 226.817 -5.52706 -1.52279 0
M  V30 2503 H 225.214 -5.94073 -0.848357 0
M  V30 2504 H 226.284 -4.84875 0.0492434 0
M  V30 2505 N 227.627 0.131896 -1.57047 0
M  V30 2506 C 228.557 1.16384 -2.02428 0
M  V30 2507 C 229.538 1.43936 -0.90644 0
M  V30 2508 O 230.723 1.54599 -1.17528 0
M  V30 2509 C 227.853 2.49328 -2.4177 0
M  V30 2510 C 226.807 2.36266 -3.56879 0
M  V30 2511 C 226.133 3.74057 -3.8208 0
M  V30 2512 C 227.433 1.834 -4.89042 0
M  V30 2513 H 229.127 0.786433 -2.88887 0
M  V30 2514 H 226.673 0.376855 -1.38981 0
M  V30 2515 H 228.626 3.21759 -2.7212 0
M  V30 2516 H 227.35 2.88934 -1.52266 0
M  V30 2517 H 226.009 1.66286 -3.26718 0
M  V30 2518 H 225.657 4.11125 -2.89803 0
M  V30 2519 H 225.357 3.66174 -4.59554 0
M  V30 2520 H 226.881 4.48012 -4.1487 0
M  V30 2521 H 228.295 2.45636 -5.18011 0
M  V30 2522 H 226.692 1.8637 -5.70426 0
M  V30 2523 H 227.762 0.790662 -4.7841 0
M  V30 2524 N 229.106 1.52395 0.401703 0
M  V30 2525 C 230.353 1.66817 1.14796 0
M  V30 2526 C 230.681 0.401772 1.90305 0
M  V30 2527 O 229.936 -0.615487 1.85769 0
M  V30 2528 C 230.235 2.84578 2.16217 0
M  V30 2529 C 229.901 4.22513 1.5746 0
M  V30 2530 C 228.563 4.60029 1.41161 0
M  V30 2531 C 230.915 5.0844 1.14622 0
M  V30 2532 C 228.243 5.81144 0.80552 0
M  V30 2533 C 230.595 6.30167 0.55428 0
M  V30 2534 C 229.259 6.66426 0.378482 0
M  V30 2535 H 228.529 0.610428 0.420069 0
M  V30 2536 H 231.176 1.86512 0.434212 0
M  V30 2537 H 229.481 2.59248 2.93764 0
M  V30 2538 H 231.178 2.92933 2.73845 0
M  V30 2539 H 227.768 3.92953 1.71132 0
M  V30 2540 H 231.952 4.80034 1.26021 0
M  V30 2541 H 227.208 6.07855 0.657399 0
M  V30 2542 H 231.382 6.96071 0.213983 0
M  V30 2543 H 229.009 7.60143 -0.0932606 0
M  V30 2544 N 230.584 -0.659388 1.43143 0
M  V30 2545 C 231.531 -1.77249 1.47822 0
M  V30 2546 C 232.501 -1.62818 0.328558 0
M  V30 2547 O 233.686 -1.83151 0.534838 0
M  V30 2548 C 230.826 -3.15371 1.40126 0
M  V30 2549 C 229.939 -3.4098 2.65249 0
M  V30 2550 C 229.074 -4.68915 2.49584 0
M  V30 2551 C 228.113 -4.87608 3.70006 0
M  V30 2552 N 227.25 -6.06796 3.53189 0
M  V30 2553 H 232.09 -1.72584 2.42938 0
M  V30 2554 H 229.627 -0.842297 1.20598 0
M  V30 2555 H 231.585 -3.9521 1.33659 0
M  V30 2556 H 230.215 -3.19121 0.485964 0
M  V30 2557 H 229.267 -2.55282 2.8202 0
M  V30 2558 H 230.579 -3.50681 3.54717 0
M  V30 2559 H 229.733 -5.56871 2.4079 0
M  V30 2560 H 228.472 -4.61524 1.5763 0
M  V30 2561 H 227.477 -3.9809 3.79215 0
M  V30 2562 H 228.702 -4.96834 4.62961 0
M  V30 2563 H 226.648 -6.00549 2.63965 0
M  V30 2564 H 226.565 -6.17428 4.36255 0
M  V30 2565 H 227.833 -6.9739 3.48236 0
M  V30 2566 N 232.062 -1.29571 -0.897171 0
M  V30 2567 C 233.339 -1.08365 -1.62839 0
M  V30 2568 C 233.719 0.371331 -2.07808 0
M  V30 2569 O 233.067 1.3606 -1.83576 0
M  V30 2570 C 233.277 -2.0735 -2.80726 0
M  V30 2571 C 234.625 -2.38406 -3.51351 0
M  V30 2572 O 235.649 -2.05564 -2.90898 0
M  V30 2573 O 234.508 -2.9453 -4.60341 0
M  V30 2574 H 231.602 -0.415345 -0.715134 0
M  V30 2575 H 234.148 -1.40952 -0.945018 0
M  V30 2576 H 232.92 -3.05339 -2.44711 0
M  V30 2577 H 232.543 -1.75507 -3.56767 0
M  V30 2578 N 233.54 1.10788 -1.12088 0
M  V30 2579 C 234.488 2.19111 -0.780587 0
M  V30 2580 C 235.482 1.67818 0.230961 0
M  V30 2581 O 236.688 1.79777 0.0895427 0
M  V30 2582 H 233.063 0.714477 -0.234578 0
M  V30 2583 H 235.034 2.45055 -1.70266 0
M  V30 2584 C 233.783 3.46818 -0.24747 0
M  V30 2585 H 233.106 3.86646 -1.01712 0
M  V30 2586 H 234.546 4.23973 -0.0476291 0
M  V30 2587 C 233.005 3.20968 1.02378 0
M  V30 2588 O 233.535 3.42298 2.10226 0
M  V30 2589 N 231.741 2.74658 0.949271 0
M  V30 2590 H 231.288 2.57501 0.0715173 0
M  V30 2591 H 231.246 2.57739 1.80049 0
M  V30 2592 N 235.018 0.912232 1.28515 0
M  V30 2593 C 236.243 0.559774 1.99703 0
M  V30 2594 C 236.668 -0.851393 1.67729 0
M  V30 2595 O 236.026 -1.56875 0.908834 0
M  V30 2596 C 236.074 0.773874 3.52198 0
M  V30 2597 O 235.178 -0.167842 4.12058 0
M  V30 2598 H 234.519 0.21723 0.627461 0
M  V30 2599 H 237.049 1.22725 1.63706 0
M  V30 2600 H 237.059 0.683386 4.02236 0
M  V30 2601 H 235.734 1.80261 3.74805 0
M  V30 2602 H 234.311 -0.0287509 3.72889 0
M  V30 2603 N 236.496 -1.42363 0.676048 0
M  V30 2604 C 237.426 -2.33497 0.0124832 0
M  V30 2605 C 238.407 -1.50748 -0.787981 0
M  V30 2606 O 239.592 -1.79346 -0.744884 0
M  V30 2607 C 236.722 -3.34377 -0.938582 0
M  V30 2608 C 235.676 -4.27289 -0.246622 0
M  V30 2609 C 235.002 -5.18386 -1.31071 0
M  V30 2610 C 236.302 -5.14916 0.875125 0
M  V30 2611 H 237.996 -2.89233 0.773593 0
M  V30 2612 H 235.542 -1.39073 0.37346 0
M  V30 2613 H 237.495 -3.97044 -1.41188 0
M  V30 2614 H 236.219 -2.76947 -1.73113 0
M  V30 2615 H 234.878 -3.66018 0.206456 0
M  V30 2616 H 234.526 -4.57282 -2.09528 0
M  V30 2617 H 234.226 -5.81378 -0.852839 0
M  V30 2618 H 235.75 -5.83929 -1.78492 0
M  V30 2619 H 237.164 -5.71262 0.482983 0
M  V30 2620 H 235.561 -5.86747 1.25887 0
M  V30 2621 H 236.631 -4.53242 1.72335 0
M  V30 2622 N 237.974 -0.419461 -1.51915 0
M  V30 2623 C 239.251 0.211999 -1.94448 0
M  V30 2624 C 239.631 1.61703 -1.35703 0
M  V30 2625 O 238.979 2.22102 -0.536931 0
M  V30 2626 C 239.189 0.207872 -3.4838 0
M  V30 2627 C 240.537 0.422192 -4.22496 0
M  V30 2628 O 241.561 0.286778 -3.55044 0
M  V30 2629 O 240.42 0.690009 -5.42126 0
M  V30 2630 H 237.514 0.139586 -0.815135 0
M  V30 2631 H 240.06 -0.476151 -1.62883 0
M  V30 2632 H 238.832 -0.775102 -3.83546 0
M  V30 2633 H 238.455 0.939688 -3.86336 0
M  V30 2634 N 239.452 1.56882 -0.150215 0
M  V30 2635 C 240.415 2.1573 0.774157 0
M  V30 2636 C 241.415 1.0999 1.17298 0
M  V30 2637 O 242.605 1.35613 1.09338 0
M  V30 2638 C 239.737 2.72302 2.05096 0
M  V30 2639 H 240.93 2.98752 0.262201 0
M  V30 2640 H 238.483 1.55985 0.099248 0
M  V30 2641 H 239.218 1.92956 2.6065 0
M  V30 2642 H 239.003 3.49665 1.77416 0
M  V30 2643 H 240.493 3.17632 2.71109 0
M  V30 2644 N 240.93 -0.123565 1.57115 0
M  V30 2645 C 242.341 -0.681198 1.73829 0
M  V30 2646 C 242.692 -1.80535 0.768214 0
M  V30 2647 O 241.817 -2.16317 -0.0599103 0
M  V30 2648 C 242.412 -1.24246 3.15196 0
M  V30 2649 C 240.971 -1.74643 3.33432 0
M  V30 2650 C 240.118 -0.644284 2.69711 0
M  V30 2651 H 243.069 0.102315 1.5837 0
M  V30 2652 H 243.09 -2.11216 3.16493 0
M  V30 2653 H 242.602 -0.424062 3.85776 0
M  V30 2654 H 240.703 -2.58974 2.67886 0
M  V30 2655 H 240.816 -1.85902 4.41562 0
M  V30 2656 H 239.18 -1.07676 2.3082 0
M  V30 2657 H 239.963 0.163058 3.42913 0
M  V30 2658 N 242.408 -1.52605 -0.393616 0
M  V30 2659 C 243.654 -1.67672 -1.14079 0
M  V30 2660 C 243.987 -0.413121 -1.89755 0
M  V30 2661 O 243.262 0.588952 -1.85369 0
M  V30 2662 C 243.545 -2.9088 -2.12276 0
M  V30 2663 C 243.398 -4.27329 -1.40394 0
M  V30 2664 C 244.717 -3.09628 -3.12759 0
M  V30 2665 H 241.836 -0.610168 -0.413356 0
M  V30 2666 H 244.478 -1.85193 -0.424696 0
M  V30 2667 H 242.628 -2.76073 -2.73342 0
M  V30 2668 H 244.3 -4.53894 -0.82327 0
M  V30 2669 H 242.543 -4.2802 -0.705801 0
M  V30 2670 H 243.214 -5.09615 -2.12123 0
M  V30 2671 H 245.69 -3.23436 -2.61779 0
M  V30 2672 H 244.566 -3.97322 -3.78717 0
M  V30 2673 H 244.827 -2.23637 -3.81365 0
M  V30 2674 N 243.887 0.651787 -1.4349 0
M  V30 2675 C 244.834 1.76462 -1.4876 0
M  V30 2676 C 245.804 1.62641 -0.337189 0
M  V30 2677 O 246.989 1.82864 -0.544544 0
M  V30 2678 C 244.129 3.14623 -1.41796 0
M  V30 2679 C 243.242 3.39568 -2.67053 0
M  V30 2680 C 242.377 4.67585 -2.52068 0
M  V30 2681 C 241.416 4.85639 -3.72587 0
M  V30 2682 N 240.553 6.04915 -3.56402 0
M  V30 2683 H 245.393 1.71293 -2.43849 0
M  V30 2684 H 242.93 0.835889 -1.21043 0
M  V30 2685 H 244.888 3.94496 -1.35753 0
M  V30 2686 H 243.518 3.18859 -0.50288 0
M  V30 2687 H 242.57 2.53783 -2.8337 0
M  V30 2688 H 243.882 3.48795 -3.56572 0
M  V30 2689 H 243.036 5.55586 -2.4374 0
M  V30 2690 H 241.775 4.60681 -1.60075 0
M  V30 2691 H 240.78 3.96073 -3.81321 0
M  V30 2692 H 242.005 4.94372 -4.65589 0
M  V30 2693 H 239.951 5.9914 -2.67146 0
M  V30 2694 H 239.868 6.15106 -4.39524 0
M  V30 2695 H 241.136 6.95533 -3.51929 0
M  V30 2696 N 245.365 1.30045 0.890287 0
M  V30 2697 C 246.295 1.18541 2.01172 0
M  V30 2698 C 247.276 0.0773356 1.69924 0
M  V30 2699 O 248.461 0.25845 1.92473 0
M  V30 2700 C 245.591 0.870941 3.36202 0
M  V30 2701 C 244.545 1.93637 3.81692 0
M  V30 2702 C 243.871 1.475 5.13953 0
M  V30 2703 C 245.171 3.34666 4.00994 0
M  V30 2704 H 246.865 2.12359 2.11054 0
M  V30 2705 H 244.411 1.02238 1.01407 0
M  V30 2706 H 246.364 0.777141 4.14172 0
M  V30 2707 H 245.088 -0.102926 3.26438 0
M  V30 2708 H 243.747 2.01972 3.05946 0
M  V30 2709 H 243.395 0.489551 5.00612 0
M  V30 2710 H 243.095 2.1876 5.4536 0
M  V30 2711 H 244.619 1.39489 5.94454 0
M  V30 2712 H 246.033 3.2912 4.69417 0
M  V30 2713 H 244.43 4.03966 4.43769 0
M  V30 2714 H 245.5 3.76949 3.05021 0
M  V30 2715 N 246.843 -1.10192 1.12674 0
M  V30 2716 C 248.083 -1.83825 0.893736 0
M  V30 2717 C 248.447 -1.83341 -0.570082 0
M  V30 2718 O 249.648 -2.52553 -0.920354 0
M  V30 2719 C 247.919 -3.26405 1.45582 0
M  V30 2720 S 249.478 -4.17136 1.36171 0
M  V30 2721 H 246.296 -0.633732 0.322342 0
M  V30 2722 H 248.898 -1.32581 1.43675 0
M  V30 2723 H 247.602 -3.24329 2.51473 0
M  V30 2724 H 247.133 -3.82721 0.910405 0
M  V30 2725 H 249.148 -4.95069 0.334863 0
M  V30 2726 N 248.321 -0.919034 -1.28029 0
M  V30 2727 C 249.598 -0.473668 -1.89778 0
M  V30 2728 C 249.978 1.04783 -1.83259 0
M  V30 2729 O 249.326 1.8982 -1.27202 0
M  V30 2730 C 249.536 -1.00998 -3.34066 0
M  V30 2731 C 250.884 -1.06525 -4.1102 0
M  V30 2732 O 251.908 -0.958996 -3.43048 0
M  V30 2733 O 250.767 -1.22776 -5.3253 0
M  V30 2734 H 247.861 -0.15098 -0.813101 0
M  V30 2735 H 250.407 -1.01016 -1.36359 0
M  V30 2736 H 249.179 -2.05392 -3.33061 0
M  V30 2737 H 248.802 -0.454626 -3.94992 0
M  V30 2738 N 249.799 1.42003 -0.683588 0
M  V30 2739 C 251.046 2.01413 -0.209514 0
M  V30 2740 C 251.374 1.54088 1.1869 0
M  V30 2741 O 250.629 0.737591 1.81268 0
M  V30 2742 C 250.928 3.56827 -0.202357 0
M  V30 2743 C 250.594 4.23617 -1.54464 0
M  V30 2744 C 249.256 4.41577 -1.91215 0
M  V30 2745 C 251.608 4.61178 -2.42826 0
M  V30 2746 C 248.936 4.9437 -3.15935 0
M  V30 2747 C 251.288 5.15355 -3.66867 0
M  V30 2748 C 249.952 5.31528 -4.03776 0
M  V30 2749 H 249.222 0.737023 -0.0766668 0
M  V30 2750 H 251.869 1.70067 -0.880312 0
M  V30 2751 H 250.174 3.87892 0.551969 0
M  V30 2752 H 251.871 4.00588 0.181793 0
M  V30 2753 H 248.461 4.10004 -1.24877 0
M  V30 2754 H 252.645 4.46968 -2.15717 0
M  V30 2755 H 247.901 5.05076 -3.44541 0
M  V30 2756 H 252.075 5.43402 -4.35531 0
M  V30 2757 H 249.702 5.72199 -5.00492 0
M  V30 2758 N 251.277 0.427512 1.51691 0
M  V30 2759 C 252.525 -0.141948 2.01601 0
M  V30 2760 C 252.846 -1.44067 1.31414 0
M  V30 2761 O 252.116 -1.90763 0.445658 0
M  V30 2762 H 250.696 -0.0554468 0.744939 0
M  V30 2763 H 253.358 0.567968 1.86441 0
M  V30 2764 H 252.454 -0.324913 3.10404 0
M  V30 2765 N 252.755 -1.56801 0.158532 0
M  V30 2766 C 254.002 -1.9649 -0.489679 0
M  V30 2767 C 254.33 -1.04394 -1.6411 0
M  V30 2768 O 253.585 -0.0754401 -1.95555 0
M  V30 2769 C 253.884 -3.4235 -1.02623 0
M  V30 2770 C 253.55 -4.50899 0.00794526 0
M  V30 2771 C 252.212 -4.80312 0.292207 0
M  V30 2772 C 254.564 -5.16333 0.710584 0
M  V30 2773 C 251.892 -5.72461 1.28472 0
M  V30 2774 C 254.244 -6.09553 1.69199 0
M  V30 2775 C 252.908 -6.37339 1.98383 0
M  V30 2776 H 252.178 -0.719009 -0.179186 0
M  V30 2777 H 254.825 -1.8989 0.247798 0
M  V30 2778 H 253.13 -3.45838 -1.84128 0
M  V30 2779 H 254.827 -3.70393 -1.53656 0
M  V30 2780 H 251.417 -4.28015 -0.22379 0
M  V30 2781 H 255.601 -4.93732 0.504174 0
M  V30 2782 H 250.857 -5.92278 1.51714 0
M  V30 2783 H 255.031 -6.59327 2.24189 0
M  V30 2784 H 252.658 -7.08546 2.7544 0
M  V30 2785 N 254.233 0.115231 -1.57178 0
M  V30 2786 C 255.196 1.12526 -1.99676 0
M  V30 2787 C 256.196 1.34095 -0.88742 0
M  V30 2788 O 257.386 1.30548 -1.15337 0
M  V30 2789 C 254.518 2.4789 -2.34015 0
M  V30 2790 H 255.711 0.759912 -2.90113 0
M  V30 2791 H 253.264 0.359648 -1.52106 0
M  V30 2792 H 253.999 2.89339 -1.4647 0
M  V30 2793 H 253.784 2.33588 -3.14927 0
M  V30 2794 H 255.274 3.20575 -2.67622 0
M  V30 2795 N 255.711 1.52812 0.385517 0
M  V30 2796 C 256.658 1.77838 1.47113 0
M  V30 2797 C 257.628 0.621757 1.54024 0
M  V30 2798 O 258.813 0.861846 1.70226 0
M  V30 2799 C 255.953 1.95618 2.84302 0
M  V30 2800 C 255.066 3.23316 2.86515 0
M  V30 2801 C 254.201 3.31394 4.15152 0
M  V30 2802 C 253.24 4.53201 4.1143 0
M  V30 2803 N 252.377 4.58542 5.3168 0
M  V30 2804 H 257.217 2.70482 1.25073 0
M  V30 2805 H 254.754 1.34006 0.606692 0
M  V30 2806 H 256.712 2.03912 3.63972 0
M  V30 2807 H 255.342 1.06331 3.04784 0
M  V30 2808 H 254.394 3.24076 1.99195 0
M  V30 2809 H 255.706 4.13045 2.79634 0
M  V30 2810 H 254.86 3.3889 5.03228 0
M  V30 2811 H 253.599 2.39645 4.24761 0
M  V30 2812 H 252.604 4.45827 3.21742 0
M  V30 2813 H 253.829 5.46271 4.03442 0
M  V30 2814 H 251.775 3.69686 5.41912 0
M  V30 2815 H 251.692 5.42148 5.26889 0
M  V30 2816 H 252.96 4.70296 6.21644 0
M  V30 2817 N 257.189 -0.644168 1.43834 0
M  V30 2818 C 258.438 -1.39985 1.45214 0
M  V30 2819 C 258.751 -1.95421 0.0835494 0
M  V30 2820 O 259.957 -2.71488 -0.0251748 0
M  V30 2821 C 258.413 -2.53384 2.55587 0
M  V30 2822 C 258.021 -2.04517 3.98594 0
M  V30 2823 C 259.765 -3.30685 2.66172 0
M  V30 2824 C 257.672 -3.1518 5.00416 0
M  V30 2825 H 256.602 -0.526005 0.540218 0
M  V30 2826 H 259.253 -0.694367 1.69855 0
M  V30 2827 H 257.635 -3.26446 2.24163 0
M  V30 2828 H 258.809 -1.38405 4.39523 0
M  V30 2829 H 257.124 -1.40068 3.92135 0
M  V30 2830 H 259.721 -4.13158 3.39418 0
M  V30 2831 H 260.064 -3.79312 1.71546 0
M  V30 2832 H 260.597 -2.64708 2.96942 0
M  V30 2833 H 257.336 -2.71511 5.96625 0
M  V30 2834 H 256.856 -3.79974 4.64091 0
M  V30 2835 H 258.535 -3.80166 5.23529 0
M  V30 2836 N 258.668 -1.30515 -0.883378 0
M  V30 2837 C 259.945 -1.10086 -1.6168 0
M  V30 2838 C 260.325 0.349269 -2.08191 0
M  V30 2839 O 259.673 1.34105 -1.85008 0
M  V30 2840 C 259.883 -2.10315 -2.78511 0
M  V30 2841 C 261.231 -2.42119 -3.48803 0
M  V30 2842 O 262.255 -2.08638 -2.88702 0
M  V30 2843 O 261.114 -2.99396 -4.57192 0
M  V30 2844 H 258.208 -0.422907 -0.710689 0
M  V30 2845 H 260.754 -1.41947 -0.930015 0
M  V30 2846 H 259.526 -3.07917 -2.41459 0
M  V30 2847 H 259.149 -1.79282 -3.54886 0
M  V30 2848 N 260.146 1.09593 -1.13257 0
M  V30 2849 C 261.078 2.16015 -0.766167 0
M  V30 2850 C 262.091 1.61423 0.211303 0
M  V30 2851 O 263.28 1.78498 -0.00863946 0
M  V30 2852 C 260.38 3.38706 -0.114662 0
M  V30 2853 C 259.553 4.22717 -1.12379 0
M  V30 2854 C 258.612 5.23835 -0.498301 0
M  V30 2855 O 257.638 5.573 -1.15781 0
M  V30 2856 N 258.84 5.75886 0.730417 0
M  V30 2857 H 261.605 2.48055 -1.68193 0
M  V30 2858 H 259.166 1.25292 -1.02535 0
M  V30 2859 H 261.158 4.03464 0.315991 0
M  V30 2860 H 259.728 3.04569 0.704011 0
M  V30 2861 H 258.948 3.54122 -1.73179 0
M  V30 2862 H 260.236 4.75673 -1.80589 0
M  V30 2863 H 259.634 5.50911 1.28504 0
M  V30 2864 H 258.191 6.42387 1.10376 0
M  V30 2865 N 261.624 0.925811 1.2754 0
M  V30 2866 C 262.872 0.564138 1.94067 0
M  V30 2867 C 263.193 -0.897188 1.73134 0
M  V30 2868 O 262.463 -1.63573 1.07799 0
M  V30 2869 H 261.043 0.205645 0.718136 0
M  V30 2870 H 263.705 1.1778 1.55287 0
M  V30 2871 H 262.801 0.76881 3.02483 0
M  V30 2872 N 263.102 -1.41638 0.69111 0
M  V30 2873 C 264.379 -1.95036 0.148421 0
M  V30 2874 C 264.759 -1.63072 -1.34055 0
M  V30 2875 O 264.107 -0.93538 -2.08478 0
M  V30 2876 C 264.317 -3.46279 0.434951 0
M  V30 2877 C 265.665 -4.23069 0.360275 0
M  V30 2878 O 266.689 -3.54277 0.369613 0
M  V30 2879 O 265.548 -5.45583 0.316534 0
M  V30 2880 H 262.642 -0.826908 0.0123654 0
M  V30 2881 H 265.188 -1.5138 0.766963 0
M  V30 2882 H 263.96 -3.6281 1.46576 0
M  V30 2883 H 263.583 -3.97019 -0.214787 0
M  V30 2884 N 264.58 -0.43555 -1.51462 0
M  V30 2885 C 265.51 0.367376 -2.30592 0
M  V30 2886 C 266.491 1.02263 -1.35928 0
M  V30 2887 O 267.676 1.02661 -1.64847 0
M  V30 2888 C 264.806 1.46983 -3.14664 0
M  V30 2889 C 263.76 0.938161 -4.17591 0
M  V30 2890 C 263.086 2.13622 -4.90173 0
M  V30 2891 C 264.386 -0.0261621 -5.22293 0
M  V30 2892 H 266.08 -0.292969 -2.97963 0
M  V30 2893 H 263.626 -0.14234 -1.43295 0
M  V30 2894 H 265.579 2.03873 -3.688 0
M  V30 2895 H 264.303 2.15843 -2.4511 0
M  V30 2896 H 262.962 0.391481 -3.64504 0
M  V30 2897 H 262.61 2.81098 -4.17124 0
M  V30 2898 H 262.31 1.78688 -5.59772 0
M  V30 2899 H 263.834 2.7107 -5.47132 0
M  V30 2900 H 265.248 0.452384 -5.71512 0
M  V30 2901 H 263.645 -0.287992 -5.99409 0
M  V30 2902 H 264.715 -0.963391 -4.75233 0
M  V30 2903 N 266.058 1.56714 -0.166846 0
M  V30 2904 C 266.991 2.13577 0.80375 0
M  V30 2905 C 267.969 1.06464 1.22899 0
M  V30 2906 O 269.153 1.34413 1.32157 0
M  V30 2907 C 266.28 2.67168 2.0818 0
M  V30 2908 C 265.326 3.86612 1.80093 0
M  V30 2909 S 266.159 5.26565 0.97416 0
M  V30 2910 C 267.315 5.83558 2.26297 0
M  V30 2911 H 267.548 2.9557 0.320267 0
M  V30 2912 H 265.081 1.54326 0.0477555 0
M  V30 2913 H 267.039 2.98692 2.8159 0
M  V30 2914 H 265.7 1.85269 2.53642 0
M  V30 2915 H 264.893 4.22422 2.7491 0
M  V30 2916 H 264.495 3.55951 1.14781 0
M  V30 2917 H 266.787 5.962 3.21795 0
M  V30 2918 H 267.73 6.80731 1.94962 0
M  V30 2919 H 268.138 5.11944 2.37853 0
M  V30 2920 N 267.536 -0.106894 1.57237 0
M  V30 2921 C 268.764 -0.826389 1.8968 0
M  V30 2922 C 269.179 -1.72856 0.759353 0
M  V30 2923 O 268.536 -1.80503 -0.269263 0
M  V30 2924 C 268.587 -1.64967 3.21665 0
M  V30 2925 O 268.308 -0.783804 4.31031 0
M  V30 2926 C 269.809 -2.47326 3.67892 0
M  V30 2927 H 267.029 -0.236927 0.627779 0
M  V30 2928 H 269.573 -0.0876593 2.04312 0
M  V30 2929 H 267.728 -2.34103 3.08666 0
M  V30 2930 H 268.142 -1.35284 5.06753 0
M  V30 2931 H 269.616 -3.00604 4.6297 0
M  V30 2932 H 270.093 -3.25247 2.95146 0
M  V30 2933 H 270.699 -1.83411 3.83719 0
M  V30 2934 N 269.014 -1.53014 -0.377408 0
M  V30 2935 C 270.425 -1.60438 -0.954798 0
M  V30 2936 C 270.776 -0.464418 -1.90624 0
M  V30 2937 O 269.901 0.41087 -2.12464 0
M  V30 2938 C 270.496 -2.90797 -1.73847 0
M  V30 2939 C 269.055 -3.00595 -2.26538 0
M  V30 2940 C 268.202 -2.55645 -1.07429 0
M  V30 2941 H 271.153 -1.57926 -0.156575 0
M  V30 2942 H 271.174 -2.77935 -2.5987 0
M  V30 2943 H 270.686 -3.73746 -1.04574 0
M  V30 2944 H 268.787 -2.22208 -2.99089 0
M  V30 2945 H 268.9 -4.05456 -2.5523 0
M  V30 2946 H 267.264 -2.10239 -1.43777 0
M  V30 2947 H 268.047 -3.41 -0.396728 0
M  V30 2948 N 270.492 0.636531 -1.44174 0
M  V30 2949 C 271.424 1.7618 -1.46606 0
M  V30 2950 C 272.437 1.58768 -0.360091 0
M  V30 2951 O 273.626 1.67181 -0.625518 0
M  V30 2952 C 270.726 3.13833 -1.27915 0
M  V30 2953 C 269.899 3.57753 -2.51658 0
M  V30 2954 C 268.958 4.74265 -2.27945 0
M  V30 2955 O 267.984 4.82852 -3.01401 0
M  V30 2956 N 269.186 5.65604 -1.30662 0
M  V30 2957 H 271.951 1.74567 -2.43612 0
M  V30 2958 H 269.512 0.820924 -1.39544 0
M  V30 2959 H 271.504 3.8949 -1.09907 0
M  V30 2960 H 270.074 3.10121 -0.39293 0
M  V30 2961 H 269.294 2.72362 -2.84978 0
M  V30 2962 H 270.582 3.83847 -3.33974 0
M  V30 2963 H 269.98 5.61354 -0.699844 0
M  V30 2964 H 268.537 6.40913 -1.18634 0
M  V30 2965 N 271.97 1.30982 0.876444 0
M  V30 2966 C 273.217 1.20296 1.62896 0
M  V30 2967 C 273.545 -0.240395 1.93009 0
M  V30 2968 O 272.8 -1.18733 1.55567 0
M  V30 2969 C 273.099 1.98572 2.9716 0
M  V30 2970 C 272.765 3.48125 2.86566 0
M  V30 2971 C 271.427 3.88905 2.83383 0
M  V30 2972 C 273.779 4.43322 2.74071 0
M  V30 2973 C 271.107 5.2316 2.65556 0
M  V30 2974 C 273.459 5.77695 2.57781 0
M  V30 2975 C 272.123 6.17704 2.52979 0
M  V30 2976 H 271.393 0.440193 0.59608 0
M  V30 2977 H 274.04 1.62177 1.01837 0
M  V30 2978 H 272.345 1.49352 3.62217 0
M  V30 2979 H 274.042 1.8769 3.54364 0
M  V30 2980 H 270.632 3.15723 2.89856 0
M  V30 2981 H 274.816 4.12752 2.75589 0
M  V30 2982 H 270.072 5.53241 2.60259 0
M  V30 2983 H 274.246 6.51091 2.47089 0
M  V30 2984 H 271.873 7.21678 2.38924 0
M  V30 2985 N 273.449 -1.08991 1.13837 0
M  V30 2986 C 274.677 -1.85011 0.926202 0
M  V30 2987 C 275.092 -1.8135 -0.525127 0
M  V30 2988 O 274.449 -1.21287 -1.36366 0
M  V30 2989 C 274.5 -3.32802 1.41155 0
M  V30 2990 O 274.221 -3.36444 2.80601 0
M  V30 2991 C 275.722 -4.25649 1.23847 0
M  V30 2992 H 272.942 -0.584249 0.32999 0
M  V30 2993 H 275.486 -1.37688 1.51202 0
M  V30 2994 H 273.641 -3.77536 0.868631 0
M  V30 2995 H 274.055 -4.28657 3.02248 0
M  V30 2996 H 275.529 -5.27485 1.62675 0
M  V30 2997 H 276.006 -4.38828 0.18065 0
M  V30 2998 H 276.612 -3.86735 1.76964 0
M  V30 2999 N 274.927 -0.932562 -1.27047 0
M  V30 3000 C 276.338 -0.619451 -1.76124 0
M  V30 3001 C 276.689 0.865397 -1.76083 0
M  V30 3002 O 275.814 1.67722 -1.36742 0
M  V30 3003 C 276.409 -1.11771 -3.19832 0
M  V30 3004 C 274.968 -0.855174 -3.66557 0
M  V30 3005 C 274.115 -1.27362 -2.46321 0
M  V30 3006 H 277.066 -1.11181 -1.13245 0
M  V30 3007 H 277.087 -0.46759 -3.77616 0
M  V30 3008 H 276.599 -2.19842 -3.1983 0
M  V30 3009 H 274.7 0.211524 -3.71999 0
M  V30 3010 H 274.813 -1.47613 -4.55793 0
M  V30 3011 H 273.177 -0.692119 -2.45116 0
M  V30 3012 H 273.96 -2.36307 -2.49025 0
M  V30 3013 N 276.405 1.4127 -0.698611 0
M  V30 3014 C 277.635 2.05205 -0.239644 0
M  V30 3015 C 278.043 1.52684 1.11733 0
M  V30 3016 O 277.386 0.671222 1.70998 0
M  V30 3017 C 277.448 3.59289 -0.123126 0
M  V30 3018 C 277.112 4.34619 -1.41263 0
M  V30 3019 C 278.109 4.63701 -2.35111 0
M  V30 3020 C 275.794 4.73837 -1.66684 0
M  V30 3021 C 277.788 5.30966 -3.52639 0
M  V30 3022 C 275.475 5.40837 -2.84498 0
M  V30 3023 C 276.473 5.69329 -3.77298 0
M  V30 3024 O 276.161 6.34949 -4.93047 0
M  V30 3025 H 275.893 0.66723 -0.108537 0
M  V30 3026 H 278.447 1.81974 -0.952602 0
M  V30 3027 H 276.677 3.81272 0.645628 0
M  V30 3028 H 278.366 4.04797 0.299056 0
M  V30 3029 H 279.132 4.33882 -2.16729 0
M  V30 3030 H 275.011 4.51039 -0.953135 0
M  V30 3031 H 278.555 5.53121 -4.25091 0
M  V30 3032 H 274.452 5.70075 -3.02795 0
M  V30 3033 H 275.22 6.53445 -4.92902 0
M  V30 3034 N 277.883 0.443576 1.51229 0
M  V30 3035 C 279.113 -0.119117 2.06256 0
M  V30 3036 C 279.521 -1.36471 1.31043 0
M  V30 3037 O 278.864 -1.80034 0.365151 0
M  V30 3038 C 278.926 -0.500546 3.55998 0
M  V30 3039 C 278.59 0.639125 4.52509 0
M  V30 3040 C 279.587 1.51311 4.97394 0
M  V30 3041 C 277.272 0.821632 4.95535 0
M  V30 3042 C 279.266 2.55425 5.83984 0
M  V30 3043 C 276.953 1.86603 5.81913 0
M  V30 3044 C 277.951 2.73072 6.26036 0
M  V30 3045 O 277.639 3.75718 7.10698 0
M  V30 3046 H 277.371 -0.00857665 0.675946 0
M  V30 3047 H 279.925 0.623288 1.95715 0
M  V30 3048 H 278.155 -1.29575 3.64345 0
M  V30 3049 H 279.844 -0.995116 3.93513 0
M  V30 3050 H 280.61 1.38367 4.64844 0
M  V30 3051 H 276.489 0.158149 4.60729 0
M  V30 3052 H 280.033 3.22949 6.18344 0
M  V30 3053 H 275.93 1.99564 6.13876 0
M  V30 3054 H 276.698 3.72374 7.2889 0
M  V30 3055 N 279.361 -1.56624 0.175154 0
M  V30 3056 C 280.607 -1.9729 -0.469506 0
M  V30 3057 C 280.94 -1.06128 -1.62636 0
M  V30 3058 O 280.215 -0.109183 -1.94193 0
M  V30 3059 C 280.498 -3.47375 -0.948804 0
M  V30 3060 C 280.351 -4.49317 0.208491 0
M  V30 3061 C 281.67 -4.00652 -1.82116 0
M  V30 3062 H 278.789 -0.717317 -0.16919 0
M  V30 3063 H 281.431 -1.88184 0.262062 0
M  V30 3064 H 279.581 -3.55267 -1.57219 0
M  V30 3065 H 281.253 -4.53482 0.845682 0
M  V30 3066 H 279.496 -4.25121 0.863395 0
M  V30 3067 H 280.167 -5.51741 -0.169059 0
M  V30 3068 H 282.643 -3.95416 -1.2956 0
M  V30 3069 H 281.519 -5.06075 -2.12554 0
M  V30 3070 H 281.78 -3.44699 -2.7683 0
M  V30 3071 N 280.839 0.0985539 -1.57292 0
M  V30 3072 C 281.802 1.10402 -2.00858 0
M  V30 3073 C 282.802 1.33146 -0.901593 0
M  V30 3074 O 283.992 1.29318 -1.16716 0
M  V30 3075 C 281.124 2.45394 -2.36632 0
M  V30 3076 H 282.317 0.729099 -2.90902 0
M  V30 3077 H 279.87 0.343495 -1.52479 0
M  V30 3078 H 280.605 2.87769 -1.49531 0
M  V30 3079 H 280.39 2.30235 -3.17387 0
M  V30 3080 H 281.88 3.17718 -2.71007 0
M  V30 3081 N 282.317 1.53212 0.369288 0
M  V30 3082 C 283.728 1.60943 0.946276 0
M  V30 3083 C 284.079 0.47452 1.90375 0
M  V30 3084 O 283.204 -0.399597 2.12679 0
M  V30 3085 C 283.799 2.91715 1.72302 0
M  V30 3086 C 282.358 3.01792 2.24941 0
M  V30 3087 C 281.505 2.56211 1.06072 0
M  V30 3088 H 284.456 1.58007 0.148198 0
M  V30 3089 H 284.477 2.79309 2.58393 0
M  V30 3090 H 283.989 3.74295 1.0259 0
M  V30 3091 H 282.09 2.23791 2.97906 0
M  V30 3092 H 282.203 4.06803 2.53077 0
M  V30 3093 H 280.567 2.10998 1.4266 0
M  V30 3094 H 281.35 3.41206 0.378639 0
M  V30 3095 N 283.795 -0.628877 1.44509 0
M  V30 3096 C 284.727 -1.754 1.47538 0
M  V30 3097 C 285.74 -1.58575 0.368506 0
M  V30 3098 O 286.929 -1.66847 0.634376 0
M  V30 3099 C 284.029 -3.1315 1.29577 0
M  V30 3100 C 283.202 -3.56413 2.53551 0
M  V30 3101 C 282.261 -4.7305 2.30457 0
M  V30 3102 O 281.287 -4.81247 3.03957 0
M  V30 3103 N 282.489 -5.64903 1.3366 0
M  V30 3104 H 285.254 -1.73272 2.44534 0
M  V30 3105 H 282.815 -0.813512 1.39977 0
M  V30 3106 H 284.807 -3.88902 1.11971 0
M  V30 3107 H 283.377 -3.09908 0.409371 0
M  V30 3108 H 282.597 -2.70847 2.86419 0
M  V30 3109 H 283.885 -3.82071 3.36005 0
M  V30 3110 H 283.283 -5.60975 0.729604 0
M  V30 3111 H 281.84 -6.40275 1.22032 0
M  V30 3112 N 285.273 -1.31445 -0.869486 0
M  V30 3113 C 286.519 -1.21337 -1.62496 0
M  V30 3114 C 286.852 0.227872 -1.92858 0
M  V30 3115 O 286.127 1.16094 -1.56053 0
M  V30 3116 C 286.41 -2.05814 -2.95487 0
M  V30 3117 C 286.263 -3.5824 -2.72 0
M  V30 3118 C 287.582 -1.9079 -3.96594 0
M  V30 3119 H 284.701 -0.442135 -0.589649 0
M  V30 3120 H 287.343 -1.6124 -1.00507 0
M  V30 3121 H 285.493 -1.71913 -3.48394 0
M  V30 3122 H 287.165 -4.0228 -2.25762 0
M  V30 3123 H 285.408 -3.81647 -2.06224 0
M  V30 3124 H 286.079 -4.12657 -3.66631 0
M  V30 3125 H 288.555 -2.20459 -3.52898 0
M  V30 3126 H 287.431 -2.52199 -4.87531 0
M  V30 3127 H 287.692 -0.871341 -4.33428 0
M  V30 3128 N 286.751 1.08385 -1.14413 0
M  V30 3129 C 287.681 2.17321 -0.854044 0
M  V30 3130 C 288.662 1.69024 0.191049 0
M  V30 3131 O 289.847 1.94141 0.0476779 0
M  V30 3132 C 286.977 3.45719 -0.330983 0
M  V30 3133 C 285.931 4.07409 -1.31155 0
M  V30 3134 C 285.257 5.30762 -0.64778 0
M  V30 3135 C 286.557 4.48665 -2.67388 0
M  V30 3136 H 288.251 2.41845 -1.76498 0
M  V30 3137 H 285.797 1.16233 -0.850051 0
M  V30 3138 H 287.75 4.21241 -0.115645 0
M  V30 3139 H 286.474 3.2075 0.615381 0
M  V30 3140 H 285.133 3.33919 -1.51306 0
M  V30 3141 H 284.781 5.02078 0.304398 0
M  V30 3142 H 284.481 5.72992 -1.30207 0
M  V30 3143 H 286.005 6.08998 -0.441972 0
M  V30 3144 H 287.419 5.15364 -2.51143 0
M  V30 3145 H 285.816 5.01814 -3.29093 0
M  V30 3146 H 286.886 3.60543 -3.24248 0
M  V30 3147 N 288.23 0.939286 1.26551 0
M  V30 3148 C 289.14 0.453432 2.30176 0
M  V30 3149 C 290.156 -0.471649 1.67486 0
M  V30 3150 O 291.332 -0.35164 1.98306 0
M  V30 3151 C 288.397 -0.275326 3.45605 0
M  V30 3152 C 287.458 0.686084 4.23782 0
M  V30 3153 C 286.691 -0.00798994 5.33699 0
M  V30 3154 O 286.914 -1.22528 5.57085 0
M  V30 3155 O 285.848 0.669746 5.98162 0
M  V30 3156 H 289.674 1.31416 2.73795 0
M  V30 3157 H 287.259 0.705095 1.31715 0
M  V30 3158 H 289.141 -0.685911 4.1578 0
M  V30 3159 H 287.816 -1.11147 3.0402 0
M  V30 3160 H 286.723 1.14658 3.56096 0
M  V30 3161 H 288.056 1.48979 4.69112 0
M  V30 3162 N 289.708 -1.40897 0.706093 0
M  V30 3163 C 290.671 -2.29131 0.0562841 0
M  V30 3164 C 291.671 -1.44901 -0.697166 0
M  V30 3165 O 292.861 -1.65926 -0.530484 0
M  V30 3166 C 289.993 -3.27957 -0.93043 0
M  V30 3167 H 291.186 -2.88091 0.833284 0
M  V30 3168 H 288.739 -1.4906 0.470192 0
M  V30 3169 H 289.474 -2.73997 -1.73482 0
M  V30 3170 H 289.259 -3.90124 -0.393166 0
M  V30 3171 H 290.749 -3.94049 -1.38256 0
M  V30 3172 N 291.186 -0.45159 -1.50991 0
M  V30 3173 C 292.118 0.388634 -2.25881 0
M  V30 3174 C 293.131 0.974041 -1.30446 0
M  V30 3175 O 294.32 0.865758 -1.56099 0
M  V30 3176 C 291.42 1.5571 -3.01011 0
M  V30 3177 C 290.593 1.08801 -4.23652 0
M  V30 3178 C 289.652 2.12825 -4.8124 0
M  V30 3179 O 288.678 1.71678 -5.42693 0
M  V30 3180 N 289.88 3.45453 -4.66522 0
M  V30 3181 H 292.645 -0.25329 -2.98628 0
M  V30 3182 H 290.206 -0.281268 -1.59438 0
M  V30 3183 H 292.198 2.24952 -3.3642 0
M  V30 3184 H 290.768 2.10409 -2.31186 0
M  V30 3185 H 289.988 0.22215 -3.93574 0
M  V30 3186 H 291.276 0.752213 -5.03209 0
M  V30 3187 H 290.674 3.81605 -4.17605 0
M  V30 3188 H 289.231 4.10549 -5.06254 0
M  V30 3189 N 292.664 1.56529 -0.183458 0
M  V30 3190 C 294.08 1.58664 0.172554 0
M  V30 3191 C 294.28 1.19925 1.61926 0
M  V30 3192 O 293.336 0.916534 2.35278 0
M  V30 3193 C 294.649 3.00463 -0.119262 0
M  V30 3194 C 296.197 3.12945 -0.0584396 0
M  V30 3195 C 296.672 4.56857 -0.323408 0
M  V30 3196 N 298.163 4.62403 -0.271612 0
M  V30 3197 C 298.898 5.71626 -0.450639 0
M  V30 3198 N 298.394 6.89362 -0.689384 0
M  V30 3199 N 300.187 5.60775 -0.385701 0
M  V30 3200 H 292.338 1.79994 -1.12765 0
M  V30 3201 H 294.601 0.834808 -0.449222 0
M  V30 3202 H 294.307 3.33326 -1.12192 0
M  V30 3203 H 294.181 3.72659 0.583544 0
M  V30 3204 H 296.568 2.79902 0.934805 0
M  V30 3205 H 296.649 2.4316 -0.794144 0
M  V30 3206 H 296.293 4.9061 -1.31392 0
M  V30 3207 H 296.223 5.24816 0.43305 0
M  V30 3208 H 298.714 3.77785 -0.0932256 0
M  V30 3209 H 299.027 7.68489 -0.815113 0
M  V30 3210 H 297.372 6.91196 -0.726142 0
M  V30 3211 H 300.563 4.67674 -0.199687 0
M  V30 3212 H 300.736 6.4584 -0.528646 0
M  V30 3213 N 294.142 -0.090211 1.57342 0
M  V30 3214 C 295.558 -0.444547 1.53284 0
M  V30 3215 C 295.758 -1.80238 0.900914 0
M  V30 3216 O 294.814 -2.4759 0.495513 0
M  V30 3217 C 296.127 -0.402543 2.97993 0
M  V30 3218 C 297.675 -0.48405 3.09234 0
M  V30 3219 C 298.15 -0.472144 4.5556 0
M  V30 3220 N 299.641 -0.532757 4.60126 0
M  V30 3221 C 300.376 -0.545462 5.708 0
M  V30 3222 N 299.872 -0.514082 6.9089 0
M  V30 3223 N 301.665 -0.59064 5.58988 0
M  V30 3224 H 293.816 0.799121 1.96794 0
M  V30 3225 H 296.079 0.297965 0.899956 0
M  V30 3226 H 295.785 0.528106 3.47712 0
M  V30 3227 H 295.659 -1.21969 3.56936 0
M  V30 3228 H 298.046 -1.40512 2.595 0
M  V30 3229 H 298.127 0.361328 2.53235 0
M  V30 3230 H 297.771 0.445 5.05947 0
M  V30 3231 H 297.701 -1.3348 5.09402 0
M  V30 3232 H 300.192 -0.562006 3.73698 0
M  V30 3233 H 300.505 -0.527195 7.71 0
M  V30 3234 H 298.85 -0.481054 6.93333 0
M  V30 3235 H 302.041 -0.61272 4.64073 0
M  V30 3236 H 302.214 -0.597073 6.45243 0
M  V30 3237 N 295.62 -1.53406 -0.361157 0
M  V30 3238 C 296.57 -1.76536 -1.44287 0
M  V30 3239 C 297.554 -0.620019 -1.48474 0
M  V30 3240 O 298.746 -0.878834 -1.53641 0
M  V30 3241 C 295.875 -1.96266 -2.81664 0
M  V30 3242 C 294.961 -3.16815 -2.81938 0
M  V30 3243 N 295.352 -4.38637 -2.51855 0
M  V30 3244 C 293.65 -3.17627 -3.13096 0
M  V30 3245 C 294.351 -5.20401 -2.59919 0
M  V30 3246 N 293.327 -4.56712 -2.94814 0
M  V30 3247 H 297.129 -2.68331 -1.19899 0
M  V30 3248 H 294.643 -1.52091 -0.56938 0
M  V30 3249 H 296.64 -2.10966 -3.59582 0
M  V30 3250 H 295.3 -1.05702 -3.07013 0
M  V30 3251 H 296.311 -4.66293 -2.25369 0
M  V30 3252 H 292.988 -2.36971 -3.43731 0
M  V30 3253 H 294.378 -6.27586 -2.39969 0
M  V30 3254 N 297.098 0.621204 -1.44841 0
M  V30 3255 C 298.03 1.74615 -1.48466 0
M  V30 3256 C 299.043 1.58377 -0.37691 0
M  V30 3257 O 300.232 1.66508 -0.643215 0
M  V30 3258 C 297.332 3.12459 -1.31236 0
M  V30 3259 C 296.505 3.55064 -2.55438 0
M  V30 3260 C 295.564 4.71821 -2.32963 0
M  V30 3261 O 294.59 4.79628 -3.06505 0
M  V30 3262 N 295.792 5.64186 -1.36654 0
M  V30 3263 H 298.557 1.71973 -2.45449 0
M  V30 3264 H 296.118 0.806077 -1.40407 0
M  V30 3265 H 298.11 3.88302 -1.14032 0
M  V30 3266 H 296.68 3.09686 -0.4258 0
M  V30 3267 H 295.9 2.69324 -2.87851 0
M  V30 3268 H 297.188 3.80284 -3.38026 0
M  V30 3269 H 296.586 5.6058 -0.759344 0
M  V30 3270 H 295.143 6.39618 -1.25425 0
M  V30 3271 N 298.576 1.31904 0.862503 0
M  V30 3272 C 299.523 1.20182 1.9704 0
M  V30 3273 C 300.493 0.0858247 1.65878 0
M  V30 3274 O 301.678 0.26 1.8902 0
M  V30 3275 C 298.818 0.922797 3.32533 0
M  V30 3276 C 297.931 2.12284 3.76244 0
M  V30 3277 C 297.066 1.77996 5.00491 0
M  V30 3278 C 296.105 2.94366 5.36671 0
M  V30 3279 N 295.242 2.60223 6.52095 0
M  V30 3280 H 300.082 2.14951 2.06398 0
M  V30 3281 H 297.619 1.06917 1.01031 0
M  V30 3282 H 299.577 0.741548 4.10557 0
M  V30 3283 H 298.207 0.0119227 3.22798 0
M  V30 3284 H 297.259 2.41461 2.9394 0
M  V30 3285 H 298.571 2.99357 3.98982 0
M  V30 3286 H 297.725 1.56377 5.862 0
M  V30 3287 H 296.464 0.881252 4.79672 0
M  V30 3288 H 295.469 3.16625 4.49476 0
M  V30 3289 H 296.694 3.84957 5.59451 0
M  V30 3290 H 294.64 1.72884 6.32809 0
M  V30 3291 H 294.557 3.40827 6.74814 0
M  V30 3292 H 295.825 2.42016 7.40978 0
M  V30 3293 N 300.054 -1.07777 1.14986 0
M  V30 3294 C 300.964 -2.18404 0.856546 0
M  V30 3295 C 301.98 -1.73211 -0.165485 0
M  V30 3296 O 303.156 -2.01399 0.00755219 0
M  V30 3297 C 300.221 -3.44977 0.34526 0
M  V30 3298 C 299.282 -4.0476 1.43065 0
M  V30 3299 C 298.515 -5.25291 0.943663 0
M  V30 3300 O 298.738 -5.70004 -0.212426 0
M  V30 3301 O 297.672 -5.76638 1.72547 0
M  V30 3302 H 301.498 -2.45978 1.78125 0
M  V30 3303 H 299.083 -1.17033 0.928631 0
M  V30 3304 H 300.965 -4.21348 0.0663671 0
M  V30 3305 H 299.64 -3.18965 -0.551631 0
M  V30 3306 H 298.547 -3.29949 1.76309 0
M  V30 3307 H 299.88 -4.35035 2.30229 0
M  V30 3308 N 301.532 -0.945985 -1.26051 0
M  V30 3309 C 302.479 -0.45809 -2.26208 0
M  V30 3310 C 303.449 0.484816 -1.58867 0
M  V30 3311 O 304.634 0.399969 -1.86561 0
M  V30 3312 C 301.774 0.266131 -3.44072 0
M  V30 3313 C 300.887 -0.713005 -4.26075 0
M  V30 3314 C 300.022 0.0329013 -5.3119 0
M  V30 3315 C 299.061 -0.93774 -6.04874 0
M  V30 3316 N 298.198 -0.223274 -7.01745 0
M  V30 3317 H 303.038 -1.3171 -2.67313 0
M  V30 3318 H 300.575 -0.66069 -1.31428 0
M  V30 3319 H 302.533 0.702514 -4.11243 0
M  V30 3320 H 301.163 1.08925 -3.03867 0
M  V30 3321 H 300.215 -1.26789 -3.58648 0
M  V30 3322 H 301.527 -1.45406 -4.77136 0
M  V30 3323 H 300.681 0.528335 -6.04395 0
M  V30 3324 H 299.42 0.806801 -4.8098 0
M  V30 3325 H 298.425 -1.44425 -5.30492 0
M  V30 3326 H 299.65 -1.71172 -6.57173 0
M  V30 3327 H 297.596 0.532046 -6.53839 0
M  V30 3328 H 297.513 -0.90357 -7.50581 0
M  V30 3329 H 298.781 0.250907 -7.79096 0
M  V30 3330 N 303.011 1.40521 -0.713556 0
M  V30 3331 C 304.236 2.05759 -0.26035 0
M  V30 3332 C 304.661 1.53403 1.08854 0
M  V30 3333 O 304.019 0.668535 1.68524 0
M  V30 3334 C 304.067 3.59745 -0.248122 0
M  V30 3335 O 303.171 4.05123 0.77131 0
M  V30 3336 H 302.512 0.652564 -0.122703 0
M  V30 3337 H 305.042 1.79958 -0.973467 0
M  V30 3338 H 305.052 4.07911 -0.0851129 0
M  V30 3339 H 303.727 3.97218 -1.2325 0
M  V30 3340 H 302.304 3.68422 0.57619 0
M  V30 3341 N 304.489 0.459591 1.5075 0
M  V30 3342 C 305.737 -0.0991532 2.01857 0
M  V30 3343 C 306.058 -1.41247 1.34441 0
M  V30 3344 O 305.328 -1.89775 0.486022 0
M  V30 3345 H 303.908 -0.039633 0.745948 0
M  V30 3346 H 306.57 0.607387 1.85194 0
M  V30 3347 H 305.666 -0.258998 3.11023 0
M  V30 3348 N 305.967 -1.56429 0.191757 0
M  V30 3349 C 307.216 -1.9666 -0.448088 0
M  V30 3350 C 307.529 -1.08136 -1.62991 0
M  V30 3351 O 308.735 -1.38135 -2.33733 0
M  V30 3352 C 307.191 -3.49753 -0.848585 0
M  V30 3353 C 306.799 -4.46935 0.308764 0
M  V30 3354 C 308.543 -3.9876 -1.4557 0
M  V30 3355 C 306.45 -5.91293 -0.112506 0
M  V30 3356 H 305.38 -0.734312 -0.171179 0
M  V30 3357 H 308.031 -1.81301 0.283242 0
M  V30 3358 H 306.413 -3.60604 -1.63649 0
M  V30 3359 H 307.587 -4.47813 1.08627 0
M  V30 3360 H 305.902 -4.08102 0.827158 0
M  V30 3361 H 308.499 -5.04086 -1.78328 0
M  V30 3362 H 308.842 -3.42875 -2.36099 0
M  V30 3363 H 309.375 -3.9101 -0.731836 0
M  V30 3364 H 306.114 -6.51097 0.758514 0
M  V30 3365 H 305.634 -5.93676 -0.854941 0
M  V30 3366 H 307.313 -6.44663 -0.549448 0
M  V30 3367 N 307.445 0.0818655 -1.57387 0
M  V30 3368 C 308.694 0.781681 -1.85937 0
M  V30 3369 C 309.007 1.79246 -0.782957 0
M  V30 3370 O 310.213 2.54112 -0.955987 0
M  V30 3371 C 308.669 1.44109 -3.29789 0
M  V30 3372 C 308.277 0.469396 -4.45534 0
M  V30 3373 C 310.021 2.12386 -3.67549 0
M  V30 3374 C 307.928 1.13415 -5.80423 0
M  V30 3375 H 306.858 0.295682 -0.693605 0
M  V30 3376 H 309.509 0.0348051 -1.83467 0
M  V30 3377 H 307.891 2.23588 -3.2684 0
M  V30 3378 H 309.065 -0.294856 -4.59856 0
M  V30 3379 H 307.38 -0.108383 -4.16259 0
M  V30 3380 H 309.977 2.62878 -4.65617 0
M  V30 3381 H 310.32 2.91877 -2.96839 0
M  V30 3382 H 310.853 1.39751 -3.72444 0
M  V30 3383 H 307.592 0.379771 -6.54399 0
M  V30 3384 H 307.112 1.8695 -5.69921 0
M  V30 3385 H 308.791 1.65686 -6.25426 0
M  V30 3386 N 308.923 1.53595 0.353017 0
M  V30 3387 C 310.334 1.61937 0.929153 0
M  V30 3388 C 310.685 0.494686 1.89861 0
M  V30 3389 O 309.81 -0.377017 2.1309 0
M  V30 3390 C 310.405 2.93526 1.69199 0
M  V30 3391 C 308.964 3.04161 2.21727 0
M  V30 3392 C 308.111 2.57322 1.03348 0
M  V30 3393 H 311.062 1.58155 0.131431 0
M  V30 3394 H 311.083 2.82034 2.55416 0
M  V30 3395 H 310.595 3.75362 0.986144 0
M  V30 3396 H 308.696 2.26938 2.95516 0
M  V30 3397 H 308.809 4.09465 2.48748 0
M  V30 3398 H 307.173 2.12499 1.40414 0
M  V30 3399 H 307.956 3.41588 0.342428 0
M  V30 3400 N 310.401 -0.613514 1.45168 0
M  V30 3401 C 311.629 -1.39946 1.5239 0
M  V30 3402 C 312.044 -1.88167 0.154531 0
M  V30 3403 O 311.401 -1.61872 -0.842843 0
M  V30 3404 C 311.452 -2.60795 2.50337 0
M  V30 3405 O 311.173 -2.1458 3.81952 0
M  V30 3406 C 312.674 -3.53723 2.67198 0
M  V30 3407 H 309.894 -0.428593 0.516284 0
M  V30 3408 H 312.438 -0.748753 1.903 0
M  V30 3409 H 310.593 -3.21919 2.15515 0
M  V30 3410 H 311.007 -2.93055 4.34993 0
M  V30 3411 H 312.481 -4.35079 3.39721 0
M  V30 3412 H 312.958 -4.0368 1.73029 0
M  V30 3413 H 313.564 -2.98456 3.02992 0
M  V30 3414 N 311.879 -1.3236 -0.855495 0
M  V30 3415 C 313.104 -1.2601 -1.64731 0
M  V30 3416 C 313.529 0.169068 -1.87339 0
M  V30 3417 O 312.887 1.12016 -1.42556 0
M  V30 3418 C 312.935 -2.02417 -2.98429 0
M  V30 3419 O 312.039 -1.3714 -3.8893 0
M  V30 3420 H 311.38 -0.434325 -0.502253 0
M  V30 3421 H 313.91 -1.74661 -1.06558 0
M  V30 3422 H 313.92 -2.12559 -3.48257 0
M  V30 3423 H 312.595 -3.06343 -2.81295 0
M  V30 3424 H 311.172 -1.3554 -3.47395 0
M  V30 3425 N 313.357 1.07166 -1.15556 0
M  V30 3426 C 314.768 1.6127 -0.940693 0
M  V30 3427 C 315.119 1.89251 0.517551 0
M  V30 3428 O 314.244 1.65937 1.38903 0
M  V30 3429 C 314.839 2.92993 -1.7012 0
M  V30 3430 C 313.398 3.43832 -1.53156 0
M  V30 3431 C 312.545 2.1786 -1.71558 0
M  V30 3432 H 315.496 0.90229 -1.30554 0
M  V30 3433 H 315.517 3.62007 -1.17181 0
M  V30 3434 H 315.029 2.72596 -2.76248 0
M  V30 3435 H 313.13 3.69307 -0.494294 0
M  V30 3436 H 313.243 4.19747 -2.30975 0
M  V30 3437 H 311.607 2.2765 -1.14225 0
M  V30 3438 H 312.39 1.99956 -2.79056 0
M  V30 3439 N 314.835 0.952656 1.25548 0
M  V30 3440 C 316.063 0.623496 1.97282 0
M  V30 3441 C 316.478 -0.803987 1.70826 0
M  V30 3442 O 315.835 -1.53755 0.983147 0
M  V30 3443 C 315.886 0.870209 3.5087 0
M  V30 3444 O 315.607 2.24156 3.76412 0
M  V30 3445 C 317.108 0.553164 4.39835 0
M  V30 3446 H 314.328 0.233931 0.628902 0
M  V30 3447 H 316.872 1.27649 1.59768 0
M  V30 3448 H 315.027 0.263652 3.86502 0
M  V30 3449 H 315.441 2.31021 4.70882 0
M  V30 3450 H 316.915 0.776342 5.46513 0
M  V30 3451 H 317.392 -0.512215 4.36203 0
M  V30 3452 H 317.998 1.13896 4.09766 0
M  V30 3453 N 316.313 -1.40141 0.720998 0
M  V30 3454 C 317.724 -1.83678 0.334553 0
M  V30 3455 C 318.075 -1.6027 -1.13173 0
M  V30 3456 O 317.2 -1.08643 -1.87152 0
M  V30 3457 C 317.795 -3.33437 0.600437 0
M  V30 3458 C 316.354 -3.75447 0.267642 0
M  V30 3459 C 315.501 -2.63296 0.870097 0
M  V30 3460 H 318.452 -1.29331 0.919732 0
M  V30 3461 H 318.473 -3.80269 -0.132517 0
M  V30 3462 H 317.985 -3.50442 1.66768 0
M  V30 3463 H 316.086 -3.64035 -0.794329 0
M  V30 3464 H 316.199 -4.73344 0.74042 0
M  V30 3465 H 314.563 -2.52954 0.297739 0
M  V30 3466 H 315.346 -2.83112 1.94172 0
M  V30 3467 N 317.792 -0.46758 -1.50504 0
M  V30 3468 C 319.022 0.086288 -2.0642 0
M  V30 3469 C 319.43 1.34369 -1.33197 0
M  V30 3470 O 318.773 1.79431 -0.393747 0
M  V30 3471 C 318.835 0.443846 -3.5675 0
M  V30 3472 C 318.499 -0.711035 -4.51435 0
M  V30 3473 C 319.496 -1.59205 -4.94924 0
M  V30 3474 C 317.181 -0.900363 -4.94165 0
M  V30 3475 C 319.175 -2.64683 -5.79846 0
M  V30 3476 C 316.862 -1.95837 -5.7887 0
M  V30 3477 C 317.86 -2.82997 -6.21612 0
M  V30 3478 O 317.548 -3.86977 -7.0463 0
M  V30 3479 H 317.28 -0.00217814 -0.675996 0
M  V30 3480 H 319.834 -0.654346 -1.94698 0
M  V30 3481 H 318.064 1.23762 -3.6636 0
M  V30 3482 H 319.753 0.932386 -3.95046 0
M  V30 3483 H 320.519 -1.45745 -4.62583 0
M  V30 3484 H 316.398 -0.231427 -4.60419 0
M  V30 3485 H 319.942 -3.32745 -6.13128 0
M  V30 3486 H 315.839 -2.09305 -6.10624 0
M  V30 3487 H 316.607 -3.83923 -7.22873 0
M  V30 3488 N 319.27 1.56325 -0.20005 0
M  V30 3489 C 320.498 2.02105 0.442874 0
M  V30 3490 C 320.913 1.08014 1.5485 0
M  V30 3491 O 320.27 0.0858797 1.82298 0
M  V30 3492 C 320.321 3.47549 0.994583 0
M  V30 3493 O 320.042 4.38049 -0.0669322 0
M  V30 3494 C 321.543 4.0887 1.7129 0
M  V30 3495 H 318.763 0.661807 0.110691 0
M  V30 3496 H 321.307 2.02134 -0.310207 0
M  V30 3497 H 319.462 3.48204 1.69803 0
M  V30 3498 H 319.876 5.23368 0.344462 0
M  V30 3499 H 321.35 5.12475 2.05118 0
M  V30 3500 H 321.827 3.52615 2.61838 0
M  V30 3501 H 322.433 4.12002 1.05518 0
M  V30 3502 N 320.748 -0.0735177 1.57428 0
M  V30 3503 C 321.978 -0.78483 1.91112 0
M  V30 3504 C 322.386 -1.71729 0.7941 0
M  V30 3505 O 321.729 -1.82105 -0.241542 0
M  V30 3506 C 321.791 -1.63346 3.20247 0
M  V30 3507 C 321.455 -0.870557 4.48632 0
M  V30 3508 C 322.452 -0.19058 5.19551 0
M  V30 3509 C 320.137 -0.838242 4.95256 0
M  V30 3510 C 322.131 0.511503 6.35344 0
M  V30 3511 C 319.818 -0.132386 6.10957 0
M  V30 3512 C 320.816 0.541288 6.80852 0
M  V30 3513 O 320.504 1.23578 7.94345 0
M  V30 3514 H 320.236 -0.228408 0.636244 0
M  V30 3515 H 322.79 -0.0486039 2.05342 0
M  V30 3516 H 321.02 -2.41245 3.02222 0
M  V30 3517 H 322.709 -2.22329 3.39595 0
M  V30 3518 H 323.475 -0.206864 4.84559 0
M  V30 3519 H 319.354 -1.35206 4.40727 0
M  V30 3520 H 322.898 1.03789 6.89836 0
M  V30 3521 H 318.795 -0.114023 6.45399 0
M  V30 3522 H 319.563 1.14487 8.10454 0
M  V30 3523 N 322.226 -1.5378 -0.344866 0
M  V30 3524 C 323.174 -1.82373 -1.4437 0
M  V30 3525 C 324.168 -0.694128 -1.54526 0
M  V30 3526 O 325.374 -0.877442 -1.57165 0
M  V30 3527 H 321.749 -0.577765 -0.481344 0
M  V30 3528 H 323.72 -2.74306 -1.17468 0
M  V30 3529 C 322.469 -2.04898 -2.80913 0
M  V30 3530 H 321.792 -2.9127 -2.73865 0
M  V30 3531 H 323.232 -2.28871 -3.56923 0
M  V30 3532 C 321.691 -0.834116 -3.26411 0
M  V30 3533 O 322.221 -0.0328885 -4.01687 0
M  V30 3534 N 320.427 -0.65171 -2.83198 0
M  V30 3535 H 319.974 -1.30489 -2.22104 0
M  V30 3536 H 319.932 0.159686 -3.13994 0
M  V30 3537 N 323.704 0.605807 -1.45491 0
M  V30 3538 C 324.651 1.7164 -1.54299 0
M  V30 3539 C 325.621 1.61486 -0.388761 0
M  V30 3540 O 326.806 1.81039 -0.602445 0
M  V30 3541 C 323.946 3.09953 -1.51734 0
M  V30 3542 C 323.059 3.309 -2.77721 0
M  V30 3543 C 322.194 4.59329 -2.66816 0
M  V30 3544 C 321.233 4.7354 -3.87848 0
M  V30 3545 N 320.37 5.9327 -3.75467 0
M  V30 3546 H 325.21 1.63449 -2.49176 0
M  V30 3547 H 322.747 0.796957 -1.23641 0
M  V30 3548 H 324.705 3.89977 -1.48235 0
M  V30 3549 H 323.335 3.17098 -0.604068 0
M  V30 3550 H 322.387 2.44639 -2.913 0
M  V30 3551 H 323.699 3.37274 -3.67488 0
M  V30 3552 H 322.853 5.4755 -2.61292 0
M  V30 3553 H 321.592 4.55355 -1.74651 0
M  V30 3554 H 320.597 3.83741 -3.93729 0
M  V30 3555 H 321.822 4.79309 -4.81082 0
M  V30 3556 H 319.768 5.90338 -2.86072 0
M  V30 3557 H 319.685 6.00811 -4.5887 0
M  V30 3558 H 320.953 6.83984 -3.73879 0
M  V30 3559 N 325.182 1.32811 0.848464 0
M  V30 3560 C 326.407 1.26882 1.6406 0
M  V30 3561 C 326.832 -0.15913 1.87426 0
M  V30 3562 O 326.19 -1.11258 1.43148 0
M  V30 3563 C 326.238 2.03997 2.97351 0
M  V30 3564 O 325.342 1.39201 3.88197 0
M  V30 3565 H 324.683 0.436982 0.499943 0
M  V30 3566 H 327.213 1.75224 1.0563 0
M  V30 3567 H 327.223 2.14403 3.47124 0
M  V30 3568 H 325.898 3.0783 2.79666 0
M  V30 3569 H 324.475 1.37381 3.46671 0
M  V30 3570 N 326.66 -1.06551 1.16123 0
M  V30 3571 C 327.9 -1.80889 0.951766 0
M  V30 3572 C 328.264 -1.85062 -0.511465 0
M  V30 3573 O 329.465 -2.55353 -0.83954 0
M  V30 3574 C 327.736 -3.21609 1.55893 0
M  V30 3575 S 329.295 -4.12593 1.49373 0
M  V30 3576 H 326.113 -0.623156 0.342341 0
M  V30 3577 H 328.715 -1.27943 1.47821 0
M  V30 3578 H 327.419 -3.16165 2.61664 0
M  V30 3579 H 326.95 -3.79631 1.0317 0
M  V30 3580 H 328.965 -4.93753 0.492196 0
M  V30 3581 N 328.138 -0.959301 -1.25041 0
M  V30 3582 C 329.415 -0.533805 -1.88175 0
M  V30 3583 C 329.795 0.988994 -1.865 0
M  V30 3584 O 329.143 1.85677 -1.33177 0
M  V30 3585 C 329.353 -1.11575 -3.30684 0
M  V30 3586 C 330.701 -1.19548 -4.07423 0
M  V30 3587 O 331.725 -1.06765 -3.39823 0
M  V30 3588 O 330.584 -1.39656 -5.28354 0
M  V30 3589 H 327.678 -0.176772 -0.807887 0
M  V30 3590 H 330.224 -1.05303 -1.33076 0
M  V30 3591 H 328.996 -2.15884 -3.26358 0
M  V30 3592 H 328.619 -0.580059 -3.93346 0
M  V30 3593 N 329.616 1.39756 -0.72842 0
M  V30 3594 C 330.546 2.33289 -0.0991354 0
M  V30 3595 C 331.527 1.53568 0.731489 0
M  V30 3596 O 332.712 1.81987 0.677807 0
M  V30 3597 C 329.842 3.3763 0.813834 0
M  V30 3598 C 328.796 4.2791 0.0878663 0
M  V30 3599 C 328.122 5.22894 1.11741 0
M  V30 3600 C 329.422 5.11314 -1.06563 0
M  V30 3601 H 331.116 2.86163 -0.880408 0
M  V30 3602 H 328.662 1.37591 -0.424819 0
M  V30 3603 H 330.615 4.0201 1.26355 0
M  V30 3604 H 329.339 2.83181 1.62715 0
M  V30 3605 H 327.998 3.65 -0.342159 0
M  V30 3606 H 327.646 4.64744 1.92412 0
M  V30 3607 H 327.346 5.84143 0.636477 0
M  V30 3608 H 328.87 5.90151 1.56697 0
M  V30 3609 H 330.284 5.69076 -0.694671 0
M  V30 3610 H 328.681 5.81671 -1.47577 0
M  V30 3611 H 329.751 4.46534 -1.89038 0
M  V30 3612 N 331.094 0.475555 1.50254 0
M  V30 3613 C 332.34 -0.0701075 2.03279 0
M  V30 3614 C 332.695 -1.37007 1.35081 0
M  V30 3615 O 331.988 -1.8577 0.469052 0
M  V30 3616 C 332.182 -0.305114 3.56095 0
M  V30 3617 C 332.011 0.970515 4.39103 0
M  V30 3618 C 330.781 1.51509 4.82051 0
M  V30 3619 C 332.979 1.8671 4.79212 0
M  V30 3620 N 330.961 2.73928 5.49397 0
M  V30 3621 C 332.332 2.93715 5.46014 0
M  V30 3622 C 334.387 1.87695 4.61167 0
M  V30 3623 C 333.09 4.01699 5.96683 0
M  V30 3624 C 335.116 2.94637 5.12779 0
M  V30 3625 C 334.478 4.00361 5.79561 0
M  V30 3626 H 330.577 0.014486 0.781866 0
M  V30 3627 H 333.161 0.644755 1.83714 0
M  V30 3628 H 331.332 -0.989019 3.75597 0
M  V30 3629 H 333.064 -0.845516 3.95769 0
M  V30 3630 H 329.819 1.06367 4.61501 0
M  V30 3631 H 330.243 3.36109 5.87673 0
M  V30 3632 H 334.885 1.07273 4.08965 0
M  V30 3633 H 332.603 4.82934 6.4792 0
M  V30 3634 H 336.189 2.96388 5.00645 0
M  V30 3635 H 335.069 4.81751 6.18778 0
M  V30 3636 N 332.573 -1.56217 0.208337 0
M  V30 3637 C 333.798 -2.02782 -0.435222 0
M  V30 3638 C 334.223 -1.08738 -1.53485 0
M  V30 3639 O 333.581 -0.0731855 -1.81152 0
M  V30 3640 C 333.629 -3.47687 -0.956335 0
M  V30 3641 O 332.733 -3.56773 -2.06849 0
M  V30 3642 H 332.074 -0.656403 -0.100158 0
M  V30 3643 H 334.604 -2.02033 0.3231 0
M  V30 3644 H 334.614 -3.87745 -1.26955 0
M  V30 3645 H 333.289 -4.15624 -0.15143 0
M  V30 3646 H 331.866 -3.28597 -1.76292 0
M  V30 3647 N 334.051 0.0651679 -1.57465 0
M  V30 3648 C 334.981 1.07693 -2.07182 0
M  V30 3649 C 335.962 1.39962 -0.966673 0
M  V30 3650 O 337.147 1.49475 -1.2398 0
M  V30 3651 C 334.277 2.3885 -2.52127 0
M  V30 3652 C 333.231 2.20917 -3.66579 0
M  V30 3653 C 332.557 3.57515 -3.97601 0
M  V30 3654 C 333.857 1.62493 -4.9638 0
M  V30 3655 H 335.551 0.663199 -2.91962 0
M  V30 3656 H 333.097 0.317569 -1.40455 0
M  V30 3657 H 335.05 3.09928 -2.85522 0
M  V30 3658 H 333.774 2.82215 -1.64384 0
M  V30 3659 H 332.433 1.52279 -3.33477 0
M  V30 3660 H 332.081 3.98463 -3.06979 0
M  V30 3661 H 331.781 3.46353 -4.74672 0
M  V30 3662 H 333.305 4.30013 -4.33499 0
M  V30 3663 H 334.719 2.23445 -5.27963 0
M  V30 3664 H 333.116 1.62009 -5.77818 0
M  V30 3665 H 334.186 0.587041 -4.81333 0
M  V30 3666 N 335.529 1.53961 0.336706 0
M  V30 3667 C 336.777 1.71197 1.07405 0
M  V30 3668 C 337.098 0.481475 1.88962 0
M  V30 3669 O 336.368 -0.504585 1.8929 0
M  V30 3670 H 334.948 0.631185 0.399517 0
M  V30 3671 H 337.61 1.91232 0.376323 0
M  V30 3672 H 336.706 2.58587 1.74755 0
M  V30 3673 N 337.007 -0.598083 1.45811 0
M  V30 3674 C 338.253 -1.35882 1.50545 0
M  V30 3675 C 338.586 -1.93616 0.150445 0
M  V30 3676 O 337.861 -1.75604 -0.83628 0
M  V30 3677 C 338.144 -2.49966 2.59208 0
M  V30 3678 C 337.997 -1.97367 4.04186 0
M  V30 3679 C 339.316 -3.52068 2.64076 0
M  V30 3680 H 336.435 -0.492717 0.548087 0
M  V30 3681 H 339.077 -0.673319 1.77669 0
M  V30 3682 H 337.227 -3.08443 2.3621 0
M  V30 3683 H 338.899 -1.43466 4.38423 0
M  V30 3684 H 337.142 -1.283 4.14393 0
M  V30 3685 H 337.813 -2.79649 4.75921 0
M  V30 3686 H 340.289 -3.03448 2.84708 0
M  V30 3687 H 339.165 -4.2937 3.41954 0
M  V30 3688 H 339.426 -4.08304 1.69531 0
M  V30 3689 N 338.485 -1.33259 -0.841409 0
M  V30 3690 C 339.734 -1.23921 -1.59143 0
M  V30 3691 C 340.047 0.1941 -1.94635 0
M  V30 3692 O 341.253 0.409474 -2.68394 0
M  V30 3693 C 339.709 -2.17119 -2.87032 0
M  V30 3694 C 339.317 -3.65606 -2.58914 0
M  V30 3695 C 341.061 -2.16648 -3.65053 0
M  V30 3696 C 338.968 -4.50726 -3.82884 0
M  V30 3697 H 337.898 -0.460264 -0.597221 0
M  V30 3698 H 340.549 -1.58307 -0.927959 0
M  V30 3699 H 338.931 -1.75663 -3.54906 0
M  V30 3700 H 340.105 -4.15487 -1.99267 0
M  V30 3701 H 338.42 -3.68341 -1.942 0
M  V30 3702 H 341.017 -2.77474 -4.57069 0
M  V30 3703 H 341.36 -1.16088 -3.99787 0
M  V30 3704 H 341.893 -2.56453 -3.041 0
M  V30 3705 H 338.632 -5.52151 -3.53283 0
M  V30 3706 H 338.152 -4.0559 -4.41879 0
M  V30 3707 H 339.831 -4.64401 -4.50489 0
M  V30 3708 N 339.963 1.05934 -1.16686 0
M  V30 3709 C 341.212 1.78188 -0.945085 0
M  V30 3710 C 341.525 1.88338 0.528021 0
M  V30 3711 O 342.731 2.57258 0.867799 0
M  V30 3712 C 341.187 3.20277 -1.64167 0
M  V30 3713 C 340.795 3.18281 -3.15279 0
M  V30 3714 C 342.539 3.97039 -1.502 0
M  V30 3715 C 340.446 4.55112 -3.7766 0
M  V30 3716 H 339.376 0.667866 -0.349959 0
M  V30 3717 H 342.027 1.18794 -1.39858 0
M  V30 3718 H 340.409 3.79952 -1.11589 0
M  V30 3719 H 341.583 2.68167 -3.74731 0
M  V30 3720 H 339.898 2.55018 -3.29173 0
M  V30 3721 H 342.495 4.98194 -1.94183 0
M  V30 3722 H 342.838 4.13845 -0.451461 0
M  V30 3723 H 343.371 3.43894 -1.99954 0
M  V30 3724 H 340.11 4.43512 -4.82677 0
M  V30 3725 H 339.63 5.05406 -3.22994 0
M  V30 3726 H 341.309 5.24064 -3.79428 0
M  V30 3727 N 341.441 0.965919 1.2453 0
M  V30 3728 C 342.671 0.643451 1.96324 0
M  V30 3729 C 343.079 -0.790927 1.71875 0
M  V30 3730 O 342.422 -1.54208 0.998273 0
M  V30 3731 C 342.484 0.836078 3.49643 0
M  V30 3732 C 342.148 2.24975 3.97788 0
M  V30 3733 C 343.145 3.22735 4.07601 0
M  V30 3734 C 340.83 2.57697 4.31158 0
M  V30 3735 C 342.824 4.51303 4.50116 0
M  V30 3736 C 340.511 3.86492 4.73357 0
M  V30 3737 C 341.509 4.83107 4.828 0
M  V30 3738 O 341.197 6.09605 5.24058 0
M  V30 3739 H 340.929 0.239223 0.632257 0
M  V30 3740 H 343.483 1.29587 1.59362 0
M  V30 3741 H 341.713 0.12649 3.86493 0
M  V30 3742 H 343.402 0.512965 4.02646 0
M  V30 3743 H 344.168 2.98783 3.82039 0
M  V30 3744 H 340.047 1.83216 4.23028 0
M  V30 3745 H 343.591 5.26716 4.57401 0
M  V30 3746 H 339.488 4.10245 4.98366 0
M  V30 3747 H 340.256 6.13146 5.42213 0
M  V30 3748 N 342.919 -1.39368 0.735821 0
M  V30 3749 C 344.165 -2.00794 0.284544 0
M  V30 3750 C 344.498 -1.58255 -1.12557 0
M  V30 3751 O 343.773 -0.811819 -1.76748 0
M  V30 3752 C 344.056 -3.58011 0.387337 0
M  V30 3753 C 343.909 -4.10566 1.83728 0
M  V30 3754 C 345.228 -4.395 -0.22975 0
M  V30 3755 H 342.347 -0.729501 0.104866 0
M  V30 3756 H 344.989 -1.65564 0.93213 0
M  V30 3757 H 343.139 -3.88154 -0.164006 0
M  V30 3758 H 344.811 -3.91139 2.44556 0
M  V30 3759 H 343.054 -3.64095 2.35833 0
M  V30 3760 H 343.725 -5.19702 1.86047 0
M  V30 3761 H 346.201 -4.15406 0.240257 0
M  V30 3762 H 345.077 -5.48752 -0.127485 0
M  V30 3763 H 345.338 -4.22062 -1.3159 0
M  V30 3764 N 344.397 -0.483516 -1.5 0
M  V30 3765 C 345.33 0.350427 -2.25493 0
M  V30 3766 C 346.308 0.985549 -1.29328 0
M  V30 3767 O 347.492 1.01906 -1.58579 0
M  V30 3768 C 344.619 1.49202 -3.04066 0
M  V30 3769 C 343.665 0.973036 -4.15252 0
M  V30 3770 S 344.498 -0.122237 -5.3536 0
M  V30 3771 C 345.654 1.02294 -6.17484 0
M  V30 3772 H 345.887 -0.290381 -2.95878 0
M  V30 3773 H 343.42 -0.268562 -1.52046 0
M  V30 3774 H 345.378 2.14623 -3.49925 0
M  V30 3775 H 344.039 2.10438 -2.33183 0
M  V30 3776 H 343.232 1.82804 -4.69679 0
M  V30 3777 H 342.834 0.396335 -3.71894 0
M  V30 3778 H 345.126 1.93195 -6.49371 0
M  V30 3779 H 346.069 0.517664 -7.06205 0
M  V30 3780 H 346.477 1.28238 -5.49741 0
M  V30 3781 N 345.875 1.56104 -0.216619 0
M  V30 3782 C 346.805 2.23063 0.690296 0
M  V30 3783 C 347.786 1.20072 1.20485 0
M  V30 3784 O 348.971 1.48643 1.24976 0
M  V30 3785 C 346.101 2.90672 1.90072 0
M  V30 3786 C 345.055 4.00092 1.5202 0
M  V30 3787 C 344.381 4.54972 2.80899 0
M  V30 3788 C 345.681 5.17398 0.71391 0
M  V30 3789 H 347.375 2.99109 0.132038 0
M  V30 3790 H 344.921 1.43866 0.0620664 0
M  V30 3791 H 346.874 3.36204 2.54057 0
M  V30 3792 H 345.598 2.12066 2.48386 0
M  V30 3793 H 344.257 3.55283 0.903839 0
M  V30 3794 H 343.905 3.73102 3.37348 0
M  V30 3795 H 343.605 5.28817 2.56176 0
M  V30 3796 H 345.129 5.0322 3.45836 0
M  V30 3797 H 346.543 5.59342 1.25735 0
M  V30 3798 H 344.94 5.97444 0.563951 0
M  V30 3799 H 346.01 4.84088 -0.280527 0
M  V30 3800 N 347.353 -0.0568162 1.57498 0
M  V30 3801 C 348.593 -0.758273 1.89815 0
M  V30 3802 C 348.957 -1.73978 0.812132 0
M  V30 3803 O 350.158 -2.48744 1.01881 0
M  V30 3804 C 348.429 -1.43465 3.27342 0
M  V30 3805 S 349.988 -2.1691 3.81439 0
M  V30 3806 H 346.806 -0.251836 0.664906 0
M  V30 3807 H 349.408 -0.0137997 1.95495 0
M  V30 3808 H 348.112 -0.706693 4.0427 0
M  V30 3809 H 347.643 -2.21825 3.24896 0
M  V30 3810 H 349.658 -3.43658 3.5793 0
M  V30 3811 N 348.832 -1.54138 -0.328536 0
M  V30 3812 C 350.08 -1.71765 -1.06496 0
M  V30 3813 C 350.401 -0.49149 -1.88704 0
M  V30 3814 O 349.671 0.494539 -1.89555 0
M  V30 3815 H 348.251 -0.633295 -0.396164 0
M  V30 3816 H 350.913 -1.91429 -0.366176 0
M  V30 3817 H 350.009 -2.5951 -1.73381 0
M  V30 3818 N 350.31 0.590341 -1.46126 0
M  V30 3819 C 351.54 1.37304 -1.54373 0
M  V30 3820 C 351.948 1.88332 -0.181071 0
M  V30 3821 O 351.291 1.63852 0.830559 0
M  V30 3822 C 351.353 2.6012 -2.48149 0
M  V30 3823 C 351.017 2.30613 -3.94546 0
M  V30 3824 C 352.014 1.89915 -4.83971 0
M  V30 3825 C 349.699 2.42993 -4.39613 0
M  V30 3826 C 351.693 1.61981 -6.16475 0
M  V30 3827 C 349.38 2.14672 -5.72153 0
M  V30 3828 C 350.378 1.7423 -6.60404 0
M  V30 3829 O 350.066 1.46251 -7.90485 0
M  V30 3830 H 349.798 0.426086 -0.524811 0
M  V30 3831 H 352.352 0.72539 -1.92165 0
M  V30 3832 H 350.582 3.27664 -2.05361 0
M  V30 3833 H 352.271 3.22182 -2.46887 0
M  V30 3834 H 353.037 1.79872 -4.50412 0
M  V30 3835 H 348.916 2.73435 -3.71153 0
M  V30 3836 H 352.46 1.30341 -6.85315 0
M  V30 3837 H 348.357 2.24337 -6.05263 0
M  V30 3838 H 349.125 1.6016 -8.02677 0
M  V30 3839 N 351.788 1.33704 0.83433 0
M  V30 3840 C 353.199 1.22813 1.4062 0
M  V30 3841 C 353.55 -0.151107 1.95617 0
M  V30 3842 O 352.675 -1.05092 1.89168 0
M  V30 3843 C 353.27 2.22355 2.55624 0
M  V30 3844 C 351.829 2.1529 3.08751 0
M  V30 3845 C 350.976 2.09589 1.8157 0
M  V30 3846 H 353.927 1.45236 0.639702 0
M  V30 3847 H 353.948 1.83391 3.33389 0
M  V30 3848 H 353.46 3.22728 2.15566 0
M  V30 3849 H 351.561 1.18235 3.53343 0
M  V30 3850 H 351.674 3.06038 3.68616 0
M  V30 3851 H 350.038 1.55134 2.02004 0
M  V30 3852 H 350.821 3.11777 1.43701 0
M  V30 3853 N 353.266 -1.05314 1.17247 0
M  V30 3854 C 354.677 -1.59753 0.96623 0
M  V30 3855 C 355.028 -1.9005 -0.487378 0
M  V30 3856 O 354.153 -1.68126 -1.36245 0
M  V30 3857 C 354.748 -2.90249 1.74759 0
M  V30 3858 C 353.307 -3.41352 1.58606 0
M  V30 3859 C 352.454 -2.15103 1.75002 0
M  V30 3860 H 355.405 -0.881406 1.31973 0
M  V30 3861 H 355.426 -3.60097 1.22925 0
M  V30 3862 H 354.938 -2.68166 2.8055 0
M  V30 3863 H 353.039 -3.68474 0.552985 0
M  V30 3864 H 353.152 -4.16019 2.37624 0
M  V30 3865 H 351.516 -2.25804 1.17833 0
M  V30 3866 H 352.299 -1.95491 2.82202 0
M  V30 3867 N 354.744 -0.972509 -1.24016 0
M  V30 3868 C 355.991 -0.637034 -1.92219 0
M  V30 3869 C 356.319 0.828418 -1.75976 0
M  V30 3870 O 355.574 1.61206 -1.10955 0
M  V30 3871 C 355.873 -0.963694 -3.44162 0
M  V30 3872 C 355.539 -2.41807 -3.80579 0
M  V30 3873 C 354.201 -2.81556 -3.9023 0
M  V30 3874 C 356.553 -3.36172 -3.98293 0
M  V30 3875 C 353.881 -4.14702 -4.15017 0
M  V30 3876 C 356.233 -4.68952 -4.24578 0
M  V30 3877 C 354.897 -5.08472 -4.32449 0
M  V30 3878 H 354.167 -0.233107 -0.703379 0
M  V30 3879 H 356.814 -1.2249 -1.47202 0
M  V30 3880 H 355.119 -0.29365 -3.90698 0
M  V30 3881 H 356.816 -0.682449 -3.9515 0
M  V30 3882 H 353.406 -2.09988 -3.73635 0
M  V30 3883 H 357.59 -3.06644 -3.90234 0
M  V30 3884 H 352.846 -4.4494 -4.19331 0
M  V30 3885 H 357.02 -5.42037 -4.37229 0
M  V30 3886 H 354.647 -6.11665 -4.51409 0
M  V30 3887 N 356.222 1.38976 -0.743202 0
M  V30 3888 C 357.452 2.04339 -0.304807 0
M  V30 3889 C 357.86 1.56162 1.06819 0
M  V30 3890 O 357.203 0.725284 1.68776 0
M  V30 3891 C 357.265 3.58716 -0.237369 0
M  V30 3892 C 356.929 4.29905 -1.55018 0
M  V30 3893 C 357.926 4.55987 -2.49744 0
M  V30 3894 C 355.611 4.68294 -1.81675 0
M  V30 3895 C 357.605 5.19478 -3.69353 0
M  V30 3896 C 355.292 5.31512 -3.0156 0
M  V30 3897 C 356.29 5.57037 -3.9522 0
M  V30 3898 O 355.978 6.18941 -5.12998 0
M  V30 3899 H 355.71 0.663439 -0.12971 0
M  V30 3900 H 358.264 1.78852 -1.01001 0
M  V30 3901 H 356.494 3.83133 0.524003 0
M  V30 3902 H 358.183 4.05543 0.170121 0
M  V30 3903 H 358.949 4.26767 -2.30423 0
M  V30 3904 H 354.828 4.47779 -1.09615 0
M  V30 3905 H 358.372 5.39318 -4.42473 0
M  V30 3906 H 354.269 5.60153 -3.20778 0
M  V30 3907 H 355.037 6.37433 -5.13441 0
M  V30 3908 N 357.7 0.491464 1.49741 0
M  V30 3909 C 358.925 -0.0557177 2.07325 0
M  V30 3910 C 359.35 -1.30925 1.35056 0
M  V30 3911 O 358.708 -1.76733 0.404365 0
M  V30 3912 C 358.756 -0.302074 3.59333 0
M  V30 3913 O 357.86 -1.37868 3.88672 0
M  V30 3914 H 357.201 0.0219956 0.663636 0
M  V30 3915 H 359.731 0.688352 1.92673 0
M  V30 3916 H 359.741 -0.536464 4.04458 0
M  V30 3917 H 358.416 0.61383 4.11345 0
M  V30 3918 H 356.993 -1.12999 3.55367 0
M  V30 3919 N 359.178 -1.55987 0.224894 0
M  V30 3920 C 360.125 -2.20436 -0.68385 0
M  V30 3921 C 361.095 -1.16102 -1.18783 0
M  V30 3922 O 362.28 -1.4447 -1.24632 0
M  V30 3923 C 359.42 -2.89076 -1.88491 0
M  V30 3924 C 358.533 -4.08012 -1.41951 0
M  V30 3925 C 357.668 -4.64426 -2.5784 0
M  V30 3926 C 356.707 -5.75656 -2.08053 0
M  V30 3927 N 355.844 -6.26347 -3.17227 0
M  V30 3928 H 360.684 -2.97727 -0.12754 0
M  V30 3929 H 358.221 -1.47011 -0.0511978 0
M  V30 3930 H 360.179 -3.27059 -2.59014 0
M  V30 3931 H 358.809 -2.14298 -2.41405 0
M  V30 3932 H 357.861 -3.75492 -0.609095 0
M  V30 3933 H 359.173 -4.88375 -1.01447 0
M  V30 3934 H 358.327 -5.04869 -3.3644 0
M  V30 3935 H 357.066 -3.83233 -3.01635 0
M  V30 3936 H 356.071 -5.34712 -1.27916 0
M  V30 3937 H 357.296 -6.58686 -1.65255 0
M  V30 3938 H 355.242 -5.48067 -3.60497 0
M  V30 3939 H 355.159 -7.01843 -2.80986 0
M  V30 3940 H 356.427 -6.71447 -3.95953 0
M  V30 3941 N 360.656 0.0484629 -1.57525 0
M  V30 3942 C 361.606 1.06246 -2.01732 0
M  V30 3943 C 362.59 1.33155 -0.903245 0
M  V30 3944 O 363.782 1.33065 -1.16717 0
M  V30 3945 C 360.911 2.36943 -2.48421 0
M  V30 3946 C 359.997 2.13208 -3.6661 0
M  V30 3947 N 360.388 1.5947 -4.80003 0
M  V30 3948 C 358.686 2.43581 -3.7361 0
M  V30 3949 C 359.387 1.51092 -5.61735 0
M  V30 3950 N 358.363 1.9797 -5.0627 0
M  V30 3951 H 362.165 0.640675 -2.86832 0
M  V30 3952 H 359.679 0.255134 -1.60383 0
M  V30 3953 H 361.676 3.10374 -2.78341 0
M  V30 3954 H 360.336 2.79818 -1.64718 0
M  V30 3955 H 361.347 1.28008 -5.01831 0
M  V30 3956 H 358.024 2.89662 -3.00669 0
M  V30 3957 H 359.414 1.10199 -6.62801 0
M  V30 3958 N 362.134 1.5431 0.320358 0
M  V30 3959 C 363.084 1.803 1.39556 0
M  V30 3960 C 364.068 0.659166 1.46778 0
M  V30 3961 O 365.26 0.91926 1.51257 0
M  V30 3962 C 362.389 2.03665 2.76361 0
M  V30 3963 C 361.475 3.24178 2.73439 0
M  V30 3964 N 361.866 4.4516 2.40137 0
M  V30 3965 C 360.164 3.25816 3.04565 0
M  V30 3966 C 360.865 5.27109 2.4603 0
M  V30 3967 N 359.841 4.64368 2.82601 0
M  V30 3968 H 363.643 2.71416 1.12742 0
M  V30 3969 H 361.157 1.53548 0.528856 0
M  V30 3970 H 363.154 2.20425 3.53862 0
M  V30 3971 H 361.814 1.13805 3.04103 0
M  V30 3972 H 362.825 4.72104 2.12927 0
M  V30 3973 H 359.502 2.46001 3.37328 0
M  V30 3974 H 360.892 6.33728 2.23246 0
M  V30 3975 N 363.613 -0.582584 1.46437 0
M  V30 3976 C 364.838 -1.37168 1.55563 0
M  V30 3977 C 365.263 -1.87061 0.19743 0
M  V30 3978 O 364.621 -1.61572 -0.822451 0
M  V30 3979 C 364.669 -2.53511 2.56446 0
M  V30 3980 O 363.773 -3.54953 2.09958 0
M  V30 3981 H 363.114 -0.408494 0.523477 0
M  V30 3982 H 365.644 -0.706646 1.9201 0
M  V30 3983 H 365.654 -3.00426 2.76058 0
M  V30 3984 H 364.329 -2.16549 3.55076 0
M  V30 3985 H 362.906 -3.14516 2.00334 0
M  V30 3986 N 365.091 -1.34144 -0.827227 0
M  V30 3987 C 366.507 -1.13732 -1.11969 0
M  V30 3988 C 366.707 0.0640463 -2.01398 0
M  V30 3989 O 365.763 0.740856 -2.41387 0
M  V30 3990 C 367.076 -2.43047 -1.77055 0
M  V30 3991 C 368.624 -2.49063 -1.89569 0
M  V30 3992 C 369.099 -3.78369 -2.58072 0
M  V30 3993 N 370.59 -3.79505 -2.65575 0
M  V30 3994 C 371.325 -4.76274 -3.19297 0
M  V30 3995 N 370.821 -5.83424 -3.73616 0
M  V30 3996 N 372.614 -4.63735 -3.17658 0
M  V30 3997 H 364.765 -2.11126 -0.232296 0
M  V30 3998 H 367.028 -0.933424 -0.165602 0
M  V30 3999 H 366.734 -3.31025 -1.18807 0
M  V30 4000 H 366.608 -2.56066 -2.76966 0
M  V30 4001 H 368.995 -1.61527 -2.46968 0
M  V30 4002 H 369.076 -2.39975 -0.885745 0
M  V30 4003 H 368.72 -4.66293 -2.01329 0
M  V30 4004 H 368.65 -3.84737 -3.59562 0
M  V30 4005 H 371.141 -3.02074 -2.27068 0
M  V30 4006 H 371.454 -6.53282 -4.12846 0
M  V30 4007 H 369.799 -5.87143 -3.71871 0
M  V30 4008 H 372.99 -3.79177 -2.74486 0
M  V30 4009 H 373.163 -5.39318 -3.59221 0
M  V30 4010 N 366.569 1.04691 -1.17803 0
M  V30 4011 C 367.797 1.81446 -0.99423 0
M  V30 4012 C 368.212 1.83174 0.457459 0
M  V30 4013 O 367.569 1.26265 1.31771 0
M  V30 4014 C 367.62 3.27334 -1.5341 0
M  V30 4015 O 367.341 3.25798 -2.92895 0
M  V30 4016 C 368.842 4.20759 -1.39559 0
M  V30 4017 H 366.062 0.571599 -0.351447 0
M  V30 4018 H 368.606 1.31982 -1.56208 0
M  V30 4019 H 366.761 3.74052 -1.00815 0
M  V30 4020 H 367.175 4.17144 -3.17949 0
M  V30 4021 H 368.649 5.21084 -1.82141 0
M  V30 4022 H 369.126 4.37856 -0.343394 0
M  V30 4023 H 369.732 3.79901 -1.91195 0
M  V30 4024 N 368.047 0.979072 1.23499 0
M  V30 4025 C 369.296 0.642751 1.91185 0
M  V30 4026 C 369.609 -0.827253 1.77245 0
M  V30 4027 O 370.815 -1.27458 2.39722 0
M  V30 4028 C 369.271 1.09901 3.42709 0
M  V30 4029 C 368.879 2.59327 3.65313 0
M  V30 4030 C 370.623 0.836371 4.16179 0
M  V30 4031 C 368.53 2.98627 5.10467 0
M  V30 4032 H 367.46 0.236698 0.715884 0
M  V30 4033 H 370.111 1.1868 1.39955 0
M  V30 4034 H 368.493 0.48319 3.93041 0
M  V30 4035 H 369.667 3.26136 3.25533 0
M  V30 4036 H 367.982 2.83323 3.05151 0
M  V30 4037 H 370.579 1.10586 5.23139 0
M  V30 4038 H 370.922 -0.227509 4.15678 0
M  V30 4039 H 371.455 1.41371 3.71832 0
M  V30 4040 H 368.194 4.04133 5.16098 0
M  V30 4041 H 367.714 2.3651 5.51201 0
M  V30 4042 H 369.393 2.89159 5.78788 0
M  V30 4043 N 369.525 -1.3858 0.750561 0
M  V30 4044 C 370.936 -1.82927 0.373438 0
M  V30 4045 C 371.287 -1.62634 -1.09748 0
M  V30 4046 O 370.412 -1.12588 -1.84805 0
M  V30 4047 C 371.007 -3.32088 0.671029 0
M  V30 4048 C 369.566 -3.74795 0.34722 0
M  V30 4049 C 368.713 -2.61391 0.92575 0
M  V30 4050 H 371.664 -1.27351 0.946958 0
M  V30 4051 H 371.685 -3.80465 -0.0518269 0
M  V30 4052 H 371.197 -3.46826 1.74164 0
M  V30 4053 H 369.298 -3.65638 -0.716933 0
M  V30 4054 H 369.411 -4.71667 0.840656 0
M  V30 4055 H 367.775 -2.52265 0.351327 0
M  V30 4056 H 368.558 -2.78929 2.00133 0
M  V30 4057 N 371.003 -0.499398 -1.49478 0
M  V30 4058 C 371.95 0.279881 -2.29097 0
M  V30 4059 C 372.92 0.961805 -1.3542 0
M  V30 4060 O 374.105 0.968777 -1.64376 0
M  V30 4061 C 371.245 1.33932 -3.18051 0
M  V30 4062 C 370.358 0.669333 -4.26783 0
M  V30 4063 C 369.493 1.70907 -5.02955 0
M  V30 4064 C 368.532 1.02087 -6.03527 0
M  V30 4065 N 367.669 2.00474 -6.7287 0
M  V30 4066 H 372.509 -0.405317 -2.95231 0
M  V30 4067 H 370.046 -0.211726 -1.45568 0
M  V30 4068 H 372.004 1.96553 -3.67998 0
M  V30 4069 H 370.634 1.9933 -2.53904 0
M  V30 4070 H 369.686 -0.0701234 -3.80335 0
M  V30 4071 H 370.998 0.127503 -4.98637 0
M  V30 4072 H 370.152 2.41037 -5.56764 0
M  V30 4073 H 368.891 2.28476 -4.30871 0
M  V30 4074 H 367.896 0.305338 -5.48951 0
M  V30 4075 H 369.121 0.451708 -6.77596 0
M  V30 4076 H 367.067 2.57007 -6.03559 0
M  V30 4077 H 366.984 1.51353 -7.40694 0
M  V30 4078 H 368.252 2.69897 -7.31284 0
M  V30 4079 N 372.481 1.55866 -0.233164 0
M  V30 4080 C 373.758 1.90471 0.444988 0
M  V30 4081 C 374.138 1.15209 1.7689 0
M  V30 4082 O 373.486 0.265119 2.26957 0
M  V30 4083 C 373.696 3.4333 0.626559 0
M  V30 4084 C 375.044 4.14319 0.92871 0
M  V30 4085 O 376.068 3.48993 0.712926 0
M  V30 4086 O 374.927 5.29846 1.33887 0
M  V30 4087 H 372.021 0.792347 0.236885 0
M  V30 4088 H 374.567 1.67437 -0.276211 0
M  V30 4089 H 373.339 3.90095 -0.306822 0
M  V30 4090 H 372.962 3.72181 1.39881 0
M  V30 4091 N 373.959 -0.0401083 1.57549 0
M  V30 4092 C 374.892 -1.07689 2.01192 0
M  V30 4093 C 375.87 -1.358 0.894273 0
M  V30 4094 O 377.054 -1.48642 1.15921 0
M  V30 4095 C 374.181 -2.41418 2.3756 0
M  V30 4096 C 373.227 -2.29237 3.59656 0
M  V30 4097 S 374.06 -1.65628 5.09242 0
M  V30 4098 C 375.216 -3.0087 5.48843 0
M  V30 4099 H 375.449 -0.705108 2.88817 0
M  V30 4100 H 372.982 -0.249724 1.52367 0
M  V30 4101 H 374.94 -3.18329 2.59186 0
M  V30 4102 H 373.601 -2.75747 1.50407 0
M  V30 4103 H 372.794 -3.27932 3.82722 0
M  V30 4104 H 372.396 -1.60469 3.37825 0
M  V30 4105 H 374.688 -3.97201 5.48851 0
M  V30 4106 H 375.631 -2.82549 6.49286 0
M  V30 4107 H 376.039 -3.02934 4.76331 0
M  V30 4108 N 375.437 -1.54477 -0.31217 0
M  V30 4109 C 376.853 -1.45442 -0.657185 0
M  V30 4110 C 377.053 -0.63653 -1.91182 0
M  V30 4111 O 376.109 -0.139815 -2.52113 0
M  V30 4112 C 377.422 -2.89287 -0.82058 0
M  V30 4113 C 378.97 -2.9926 -0.917188 0
M  V30 4114 C 379.445 -4.44279 -1.11267 0
M  V30 4115 N 380.936 -4.4794 -1.17914 0
M  V30 4116 C 381.671 -5.57318 -1.34848 0
M  V30 4117 N 381.167 -6.76642 -1.48752 0
M  V30 4118 N 382.96 -5.44986 -1.37647 0
M  V30 4119 H 375.111 -2.06129 0.512313 0
M  V30 4120 H 377.374 -0.933088 0.167485 0
M  V30 4121 H 377.08 -3.51687 0.0302604 0
M  V30 4122 H 376.954 -3.36061 -1.71298 0
M  V30 4123 H 379.341 -2.36981 -1.75852 0
M  V30 4124 H 379.422 -2.558 -0.00101257 0
M  V30 4125 H 379.066 -5.07149 -0.27614 0
M  V30 4126 H 378.996 -4.85359 -2.04289 0
M  V30 4127 H 381.487 -3.61969 -1.08567 0
M  V30 4128 H 381.8 -7.55758 -1.61397 0
M  V30 4129 H 380.145 -6.79529 -1.45828 0
M  V30 4130 H 383.336 -4.50715 -1.26388 0
M  V30 4131 H 383.509 -6.3028 -1.50501 0
M  V30 4132 N 376.915 0.57481 -1.46744 0
M  V30 4133 C 378.331 0.898981 -1.31873 0
M  V30 4134 C 378.531 1.99313 -0.29605 0
M  V30 4135 O 377.587 2.50728 0.298621 0
M  V30 4136 C 378.9 1.30886 -2.7072 0
M  V30 4137 C 380.448 1.42127 -2.78871 0
M  V30 4138 C 380.923 1.86478 -4.18318 0
M  V30 4139 N 382.414 1.93658 -4.20774 0
M  V30 4140 C 383.149 2.29267 -5.2557 0
M  V30 4141 N 382.645 2.63612 -6.40688 0
M  V30 4142 N 384.438 2.29889 -5.1294 0
M  V30 4143 H 376.589 -0.147839 -2.11885 0
M  V30 4144 H 378.852 -0.00347013 -0.947994 0
M  V30 4145 H 378.558 0.578853 -3.46904 0
M  V30 4146 H 378.432 2.26874 -3.01343 0
M  V30 4147 H 380.819 2.14213 -2.0297 0
M  V30 4148 H 380.9 0.443705 -2.51922 0
M  V30 4149 H 380.544 1.14968 -4.94717 0
M  V30 4150 H 380.474 2.85207 -4.42679 0
M  V30 4151 H 382.965 1.69574 -3.37718 0
M  V30 4152 H 383.278 2.89759 -7.16421 0
M  V30 4153 H 381.623 2.61232 -6.44036 0
M  V30 4154 H 384.814 2.02485 -4.22039 0
M  V30 4155 H 384.987 2.57312 -5.94722 0
M  V30 4156 N 378.394 1.34581 0.820102 0
M  V30 4157 C 379.341 1.2639 1.93117 0
M  V30 4158 C 380.311 0.138554 1.65521 0
M  V30 4159 O 381.496 0.320004 1.88097 0
M  V30 4160 C 378.636 1.02812 3.29429 0
M  V30 4161 C 377.749 2.24146 3.693 0
M  V30 4162 C 376.884 1.93829 4.94574 0
M  V30 4163 C 375.923 3.1129 5.27034 0
M  V30 4164 N 375.06 2.80838 6.43486 0
M  V30 4165 H 379.9 2.21408 1.99455 0
M  V30 4166 H 377.437 1.10077 0.975784 0
M  V30 4167 H 379.395 0.871788 4.0799 0
M  V30 4168 H 378.025 0.114612 3.22596 0
M  V30 4169 H 377.077 2.50691 2.86109 0
M  V30 4170 H 378.389 3.11899 3.89257 0
M  V30 4171 H 377.543 1.74948 5.80929 0
M  V30 4172 H 376.282 1.03341 4.76626 0
M  V30 4173 H 375.287 3.30764 4.39175 0
M  V30 4174 H 376.512 4.02561 5.4692 0
M  V30 4175 H 374.458 1.92929 6.26988 0
M  V30 4176 H 374.375 3.62123 6.63629 0
M  V30 4177 H 375.643 2.65467 7.32903 0
M  V30 4178 N 379.872 -1.04064 1.18357 0
M  V30 4179 C 381.121 -1.76662 0.973313 0
M  V30 4180 C 381.434 -1.89154 -0.497991 0
M  V30 4181 O 382.64 -2.58606 -0.826762 0
M  V30 4182 C 381.096 -3.17624 1.69242 0
M  V30 4183 C 380.704 -3.13225 3.20303 0
M  V30 4184 C 382.448 -3.946 1.56497 0
M  V30 4185 C 380.355 -4.49046 3.84853 0
M  V30 4186 H 379.285 -0.662214 0.36054 0
M  V30 4187 H 381.936 -1.16553 1.41731 0
M  V30 4188 H 380.318 -3.78129 1.1762 0
M  V30 4189 H 381.492 -2.62172 3.78949 0
M  V30 4190 H 379.807 -2.49749 3.33189 0
M  V30 4191 H 382.404 -4.95042 2.02084 0
M  V30 4192 H 382.747 -4.13074 0.517243 0
M  V30 4193 H 383.28 -3.4067 2.05399 0
M  V30 4194 H 380.019 -4.35777 4.89672 0
M  V30 4195 H 379.539 -5.00203 3.30994 0
M  V30 4196 H 381.218 -5.17961 3.87718 0
M  V30 4197 N 381.35 -0.985608 -1.22978 0
M  V30 4198 C 382.283 -0.47487 -2.23204 0
M  V30 4199 C 383.261 0.460865 -1.55932 0
M  V30 4200 O 384.445 0.388105 -1.84461 0
M  V30 4201 C 381.572 0.312427 -3.37256 0
M  V30 4202 C 380.618 -0.568219 -4.22698 0
M  V30 4203 S 381.451 -2.01919 -4.95973 0
M  V30 4204 C 382.607 -1.24118 -6.1347 0
M  V30 4205 H 382.84 -1.32419 -2.66181 0
M  V30 4206 H 380.373 -0.792005 -1.32539 0
M  V30 4207 H 382.331 0.760645 -4.03391 0
M  V30 4208 H 380.992 1.13693 -2.92801 0
M  V30 4209 H 380.185 0.0371657 -5.03986 0
M  V30 4210 H 379.787 -0.952897 -3.61657 0
M  V30 4211 H 382.079 -0.505121 -6.75614 0
M  V30 4212 H 383.022 -2.02907 -6.78406 0
M  V30 4213 H 383.43 -0.757669 -5.59392 0
M  V30 4214 N 382.828 1.3818 -0.7579 0
M  V30 4215 C 384.056 2.04301 -0.326937 0
M  V30 4216 C 384.471 1.57163 1.0462 0
M  V30 4217 O 383.828 0.746626 1.66529 0
M  V30 4218 C 383.879 3.59846 -0.345363 0
M  V30 4219 O 383.6 4.05256 -1.66432 0
M  V30 4220 C 385.101 4.4319 0.098927 0
M  V30 4221 H 382.321 0.656443 -0.139012 0
M  V30 4222 H 384.865 1.76786 -1.02796 0
M  V30 4223 H 383.02 3.86182 0.306955 0
M  V30 4224 H 383.434 4.99709 -1.59345 0
M  V30 4225 H 384.908 5.51989 0.0348745 0
M  V30 4226 H 385.385 4.23947 1.14741 0
M  V30 4227 H 385.991 4.22051 -0.52468 0
M  V30 4228 N 384.306 0.507319 1.49211 0
M  V30 4229 C 385.554 -0.0348839 2.0207 0
M  V30 4230 C 385.875 -1.36898 1.38866 0
M  V30 4231 O 385.145 -1.88133 0.546151 0
M  V30 4232 H 383.725 -0.0158812 0.746831 0
M  V30 4233 H 386.387 0.665998 1.83168 0
M  V30 4234 H 385.483 -0.159917 3.1169 0
M  V30 4235 N 385.784 -1.5574 0.241426 0
M  V30 4236 C 387.009 -2.0366 -0.392111 0
M  V30 4237 C 387.434 -1.11969 -1.51144 0
M  V30 4238 O 386.792 -0.111594 -1.80956 0
M  V30 4239 C 386.84 -3.49638 -0.882371 0
M  V30 4240 O 385.944 -3.6108 -1.99235 0
M  V30 4241 H 385.285 -0.658379 -0.0862122 0
M  V30 4242 H 387.815 -2.01302 0.365881 0
M  V30 4243 H 387.825 -3.90351 -1.18702 0
M  V30 4244 H 386.5 -4.15852 -0.0632361 0
M  V30 4245 H 385.077 -3.32262 -1.69282 0
M  V30 4246 N 387.262 0.0317525 -1.57568 0
M  V30 4247 C 388.509 0.723104 -1.89149 0
M  V30 4248 C 388.837 1.75504 -0.838377 0
M  V30 4249 O 388.092 1.95037 0.160982 0
M  V30 4250 C 388.391 1.43167 -3.27472 0
M  V30 4251 C 388.057 0.535972 -4.47703 0
M  V30 4252 C 386.719 0.289262 -4.8033 0
M  V30 4253 C 389.071 -0.0826125 -5.21135 0
M  V30 4254 C 386.399 -0.584853 -5.83778 0
M  V30 4255 C 388.751 -0.944414 -6.25511 0
M  V30 4256 C 387.415 -1.20061 -6.56614 0
M  V30 4257 H 386.685 0.264602 -0.692146 0
M  V30 4258 H 389.332 -0.0169496 -1.91492 0
M  V30 4259 H 387.637 2.24497 -3.21105 0
M  V30 4260 H 389.334 1.97209 -3.49155 0
M  V30 4261 H 385.924 0.738414 -4.22191 0
M  V30 4262 H 390.108 0.0950302 -4.96209 0
M  V30 4263 H 385.364 -0.79168 -6.06253 0
M  V30 4264 H 389.538 -1.43026 -6.81554 0
M  V30 4265 H 387.165 -1.87967 -7.36595 0
M  V30 4266 N 388.74 1.54641 0.303973 0
M  V30 4267 C 389.65 1.88439 1.39743 0
M  V30 4268 C 390.666 0.778239 1.55626 0
M  V30 4269 O 391.842 1.07442 1.70347 0
M  V30 4270 C 388.907 2.12212 2.74166 0
M  V30 4271 C 387.968 3.35936 2.67293 0
M  V30 4272 C 387.201 3.58566 3.95305 0
M  V30 4273 O 387.424 2.84263 4.9452 0
M  V30 4274 O 386.358 4.52078 3.97378 0
M  V30 4275 H 390.184 2.81458 1.14083 0
M  V30 4276 H 387.769 1.40793 0.499768 0
M  V30 4277 H 389.651 2.29067 3.53704 0
M  V30 4278 H 388.326 1.22379 2.99675 0
M  V30 4279 H 387.233 3.24448 1.86237 0
M  V30 4280 H 388.566 4.2589 2.46736 0
M  V30 4281 N 390.218 -0.567019 1.47046 0
M  V30 4282 C 391.465 -1.32462 1.53167 0
M  V30 4283 C 391.793 -1.93571 0.189841 0
M  V30 4284 O 391.048 -1.77865 -0.816243 0
M  V30 4285 C 391.347 -2.4623 2.59047 0
M  V30 4286 C 391.013 -2.03014 4.02612 0
M  V30 4287 C 389.675 -1.90944 4.41694 0
M  V30 4288 C 392.027 -1.69895 4.92732 0
M  V30 4289 C 389.355 -1.44035 5.68745 0
M  V30 4290 C 391.707 -1.2446 6.20236 0
M  V30 4291 C 390.371 -1.10979 6.5821 0
M  V30 4292 H 389.641 -0.484713 0.560477 0
M  V30 4293 H 392.288 -0.636888 1.80599 0
M  V30 4294 H 390.593 -3.20517 2.25335 0
M  V30 4295 H 392.29 -3.04427 2.61008 0
M  V30 4296 H 388.88 -2.13348 3.71726 0
M  V30 4297 H 393.064 -1.78098 4.63244 0
M  V30 4298 H 388.32 -1.32254 5.96925 0
M  V30 4299 H 392.494 -0.978924 6.89485 0
M  V30 4300 H 390.121 -0.744078 7.5655 0
M  V30 4301 N 391.696 -1.35014 -0.812953 0
M  V30 4302 C 393.107 -1.25035 -1.38648 0
M  V30 4303 C 393.458 0.119967 -1.95833 0
M  V30 4304 O 392.583 1.02069 -1.90816 0
M  V30 4305 C 393.178 -2.26394 -2.52054 0
M  V30 4306 C 391.737 -2.20175 -3.05287 0
M  V30 4307 C 390.884 -2.12451 -1.78213 0
M  V30 4308 H 393.835 -1.46235 -0.616516 0
M  V30 4309 H 393.856 -1.88672 -3.30429 0
M  V30 4310 H 393.368 -3.26116 -2.10404 0
M  V30 4311 H 391.469 -1.23841 -3.51417 0
M  V30 4312 H 391.582 -3.11863 -3.63701 0
M  V30 4313 H 389.946 -1.58328 -1.9951 0
M  V30 4314 H 390.729 -3.14024 -1.38723 0
M  V30 4315 N 393.175 1.03435 -1.18907 0
M  V30 4316 C 394.085 2.15075 -0.937015 0
M  V30 4317 C 395.101 1.73706 0.101085 0
M  V30 4318 O 396.277 2.01232 -0.0822948 0
M  V30 4319 C 393.342 3.43458 -0.473057 0
M  V30 4320 C 392.403 3.99172 -1.57989 0
M  V30 4321 C 391.636 5.21427 -1.13797 0
M  V30 4322 O 391.859 5.704 0.000725941 0
M  V30 4323 O 390.793 5.69837 -1.9383 0
M  V30 4324 H 394.619 2.39198 -1.87131 0
M  V30 4325 H 392.204 1.13506 -0.971427 0
M  V30 4326 H 394.086 4.20811 -0.222702 0
M  V30 4327 H 392.761 3.20793 0.432869 0
M  V30 4328 H 391.668 3.23178 -1.88433 0
M  V30 4329 H 393.001 4.2619 -2.46217 0
M  V30 4330 N 394.653 0.992116 1.22453 0
M  V30 4331 C 395.563 0.55065 2.28046 0
M  V30 4332 C 396.579 -0.400189 1.69335 0
M  V30 4333 O 397.755 -0.267215 1.99619 0
M  V30 4334 C 394.82 -0.128496 3.46462 0
M  V30 4335 C 393.881 0.865208 4.20491 0
M  V30 4336 C 393.114 0.218377 5.33253 0
M  V30 4337 O 393.337 -0.987894 5.6178 0
M  V30 4338 O 392.271 0.922845 5.94783 0
M  V30 4339 H 396.097 1.4291 2.67975 0
M  V30 4340 H 393.682 0.760326 1.28606 0
M  V30 4341 H 395.564 -0.508947 4.18315 0
M  V30 4342 H 394.239 -0.981526 3.0846 0
M  V30 4343 H 393.146 1.29658 3.50913 0
M  V30 4344 H 394.479 1.68741 4.62371 0
M  V30 4345 N 396.131 -1.37776 0.765217 0
M  V30 4346 C 397.041 -2.34135 0.147666 0
M  V30 4347 C 398.057 -1.59854 -0.687215 0
M  V30 4348 O 399.233 -1.91983 -0.608659 0
M  V30 4349 C 396.298 -3.3901 -0.72617 0
M  V30 4350 C 395.359 -4.2912 0.124417 0
M  V30 4351 C 394.592 -5.28986 -0.707807 0
M  V30 4352 O 394.815 -5.36205 -1.94525 0
M  V30 4353 O 393.749 -6.01779 -0.12046 0
M  V30 4354 H 397.575 -2.88664 0.943758 0
M  V30 4355 H 395.16 -1.39824 0.526277 0
M  V30 4356 H 397.042 -4.03195 -1.22524 0
M  V30 4357 H 395.717 -2.86819 -1.50056 0
M  V30 4358 H 394.624 -3.68057 0.669696 0
M  V30 4359 H 395.957 -4.84598 0.861736 0
M  V30 4360 N 397.609 -0.515225 -1.4894 0
M  V30 4361 C 398.855 0.016187 -2.03394 0
M  V30 4362 C 399.21 1.33377 -1.38666 0
M  V30 4363 O 398.503 1.84461 -0.518141 0
M  V30 4364 C 398.697 0.210595 -3.56779 0
M  V30 4365 C 398.526 -1.08659 -4.36375 0
M  V30 4366 C 397.296 -1.64237 -4.77864 0
M  V30 4367 C 399.494 -1.9935 -4.74093 0
M  V30 4368 N 397.476 -2.88398 -5.41941 0
M  V30 4369 C 398.847 -3.08088 -5.38035 0
M  V30 4370 C 400.902 -1.99856 -4.56029 0
M  V30 4371 C 399.605 -4.17377 -5.85823 0
M  V30 4372 C 401.631 -3.08129 -5.04787 0
M  V30 4373 C 400.993 -4.15586 -5.68742 0
M  V30 4374 H 397.092 -0.0352107 -0.781207 0
M  V30 4375 H 399.676 -0.693237 -1.8194 0
M  V30 4376 H 397.847 0.889088 -3.78087 0
M  V30 4377 H 399.579 0.740287 -3.97872 0
M  V30 4378 H 396.334 -1.18566 -4.58518 0
M  V30 4379 H 396.758 -3.51572 -5.78555 0
M  V30 4380 H 401.4 -1.18079 -4.05977 0
M  V30 4381 H 399.118 -4.99943 -6.34888 0
M  V30 4382 H 402.704 -3.09557 -4.92611 0
M  V30 4383 H 401.584 -4.97987 -6.05787 0
M  V30 4384 N 399.087 1.5561 -0.249682 0
M  V30 4385 C 400.312 2.03865 0.381305 0
M  V30 4386 C 400.737 1.12769 1.50548 0
M  V30 4387 O 400.095 0.121189 1.80895 0
M  V30 4388 C 400.143 3.50101 0.863816 0
M  V30 4389 O 399.247 3.62132 1.97318 0
M  V30 4390 H 398.588 0.658827 0.0827194 0
M  V30 4391 H 401.118 2.01105 -0.376552 0
M  V30 4392 H 401.128 3.90975 1.1663 0
M  V30 4393 H 399.803 4.1588 0.0411816 0
M  V30 4394 H 398.38 3.33155 1.67517 0
M  V30 4395 N 400.565 -0.0233959 1.57583 0
M  V30 4396 C 401.497 -1.04994 2.03737 0
M  V30 4397 C 402.51 -1.32125 0.951152 0
M  V30 4398 O 403.699 -1.29512 1.22837 0
M  V30 4399 C 400.799 -2.39026 2.40249 0
M  V30 4400 C 399.972 -2.31171 3.7132 0
M  V30 4401 C 399.031 -3.47698 3.94959 0
M  V30 4402 O 398.057 -3.26937 4.65941 0
M  V30 4403 N 399.259 -4.6976 3.41037 0
M  V30 4404 H 402.024 -0.656507 2.92421 0
M  V30 4405 H 399.585 -0.211235 1.60516 0
M  V30 4406 H 401.577 -3.15712 2.53196 0
M  V30 4407 H 400.147 -2.70194 1.57207 0
M  V30 4408 H 399.367 -1.39547 3.68674 0
M  V30 4409 H 400.655 -2.23071 4.57293 0
M  V30 4410 H 400.053 -4.89528 2.83512 0
M  V30 4411 H 398.61 -5.43791 3.59353 0
M  V30 4412 N 402.043 -1.548 -0.295768 0
M  V30 4413 C 403.292 -1.73538 -1.02798 0
M  V30 4414 C 403.605 -0.531159 -1.8825 0
M  V30 4415 O 404.811 -0.600458 -2.64777 0
M  V30 4416 C 403.267 -3.07051 -1.87744 0
M  V30 4417 C 402.875 -4.34968 -1.07269 0
M  V30 4418 C 404.619 -3.35146 -2.60533 0
M  V30 4419 C 402.526 -5.5953 -1.91521 0
M  V30 4420 H 401.456 -0.646794 -0.387522 0
M  V30 4421 H 404.107 -1.81278 -0.284718 0
M  V30 4422 H 402.489 -2.93289 -2.66078 0
M  V30 4423 H 403.663 -4.5958 -0.335117 0
M  V30 4424 H 401.978 -4.13847 -0.460384 0
M  V30 4425 H 404.575 -4.2541 -3.23929 0
M  V30 4426 H 404.918 -2.54255 -3.29636 0
M  V30 4427 H 405.451 -3.49902 -1.89244 0
M  V30 4428 H 402.19 -6.43103 -1.26878 0
M  V30 4429 H 401.71 -5.39096 -2.62937 0
M  V30 4430 H 403.389 -5.96982 -2.49442 0
M  V30 4431 N 403.521 0.559213 -1.47345 0
M  V30 4432 C 404.746 1.34676 -1.57725 0
M  V30 4433 C 405.171 1.86723 -0.227164 0
M  V30 4434 O 404.529 1.6286 0.796642 0
M  V30 4435 C 404.577 2.49399 -2.60447 0
M  V30 4436 O 403.681 3.51567 -2.15578 0
M  V30 4437 H 403.022 0.400115 -0.52991 0
M  V30 4438 H 405.552 0.676009 -1.93109 0
M  V30 4439 H 405.562 2.95996 -2.80803 0
M  V30 4440 H 404.237 2.10873 -3.58477 0
M  V30 4441 H 402.814 3.11289 -2.05313 0
M  V30 4442 N 404.999 1.35443 0.805782 0
M  V30 4443 C 405.909 1.30546 1.94923 0
M  V30 4444 C 406.925 0.210233 1.72725 0
M  V30 4445 O 408.101 0.43975 1.9654 0
M  V30 4446 C 405.166 1.07782 3.29521 0
M  V30 4447 C 404.227 2.26625 3.64609 0
M  V30 4448 C 403.46 2.04938 4.92784 0
M  V30 4449 O 403.683 1.01624 5.61274 0
M  V30 4450 O 402.617 2.9232 5.26149 0
M  V30 4451 H 406.443 2.26779 2.02002 0
M  V30 4452 H 404.028 1.15823 0.943682 0
M  V30 4453 H 405.91 0.969392 4.10098 0
M  V30 4454 H 404.585 0.146003 3.23371 0
M  V30 4455 H 403.492 2.43033 2.84404 0
M  V30 4456 H 404.825 3.18257 3.75464 0
M  V30 4457 N 406.477 -1.02803 1.19454 0
M  V30 4458 C 407.41 -2.107 0.876396 0
M  V30 4459 C 408.388 -1.61741 -0.166897 0
M  V30 4460 O 409.572 -1.88451 -0.0430195 0
M  V30 4461 C 406.699 -3.37262 0.311758 0
M  V30 4462 C 405.745 -4.05093 1.33424 0
M  V30 4463 S 406.578 -4.50498 2.89503 0
M  V30 4464 C 407.734 -5.80277 2.34584 0
M  V30 4465 H 407.967 -2.37362 1.79016 0
M  V30 4466 H 405.5 -1.15755 1.02177 0
M  V30 4467 H 407.458 -4.10499 -0.00748752 0
M  V30 4468 H 406.119 -3.08693 -0.58032 0
M  V30 4469 H 405.312 -4.9611 0.888302 0
M  V30 4470 H 404.914 -3.3803 1.60037 0
M  V30 4471 H 407.206 -6.54873 1.73633 0
M  V30 4472 H 408.149 -6.29651 3.23952 0
M  V30 4473 H 408.557 -5.3599 1.77131 0
M  V30 4474 N 407.956 -0.998596 -1.21925 0
M  V30 4475 C 408.919 -0.558679 -2.22287 0
M  V30 4476 C 409.919 0.361525 -1.56683 0
M  V30 4477 O 411.109 0.152695 -1.73529 0
M  V30 4478 C 408.241 0.18661 -3.40389 0
M  V30 4479 H 409.434 -1.4463 -2.62721 0
M  V30 4480 H 406.987 -0.786413 -1.35075 0
M  V30 4481 H 407.722 1.08996 -3.05435 0
M  V30 4482 H 407.507 -0.474188 -3.89222 0
M  V30 4483 H 408.997 0.482367 -4.14805 0
M  V30 4484 N 409.434 1.37368 -0.772513 0
M  V30 4485 C 410.381 2.30262 -0.157488 0
M  V30 4486 C 411.351 1.51137 0.688965 0
M  V30 4487 O 412.536 1.79704 0.641168 0
M  V30 4488 C 409.676 3.37611 0.715045 0
M  V30 4489 C 408.789 4.31746 -0.148098 0
M  V30 4490 C 407.924 5.26171 0.729213 0
M  V30 4491 C 406.963 6.11948 -0.136418 0
M  V30 4492 N 406.1 6.98613 0.698914 0
M  V30 4493 H 410.94 2.82277 -0.955179 0
M  V30 4494 H 408.477 1.38957 -0.482631 0
M  V30 4495 H 410.435 3.98479 1.23575 0
M  V30 4496 H 409.065 2.86959 1.47833 0
M  V30 4497 H 408.117 3.72178 -0.786613 0
M  V30 4498 H 409.429 4.92084 -0.81579 0
M  V30 4499 H 408.583 5.92247 1.31637 0
M  V30 4500 H 407.322 4.66246 1.43059 0
M  V30 4501 H 406.327 5.4485 -0.736102 0
M  V30 4502 H 407.552 6.73945 -0.835134 0
M  V30 4503 H 405.498 6.41215 1.38489 0
M  V30 4504 H 405.415 7.55948 0.0885358 0
M  V30 4505 H 406.683 7.69077 1.27044 0
M  V30 4506 N 410.912 0.523116 1.48665 0
M  V30 4507 C 412.189 -0.0775449 1.95446 0
M  V30 4508 C 412.569 -1.5197 1.4652 0
M  V30 4509 O 411.917 -2.17876 0.688657 0
M  V30 4510 C 412.127 0.0326135 3.48985 0
M  V30 4511 C 413.475 -0.130141 4.24401 0
M  V30 4512 O 414.499 -0.0415142 3.56176 0
M  V30 4513 O 413.358 -0.31491 5.45592 0
M  V30 4514 H 410.452 -0.0831012 0.822814 0
M  V30 4515 H 412.998 0.587227 1.59216 0
M  V30 4516 H 411.77 1.03748 3.77296 0
M  V30 4517 H 411.393 -0.671317 3.91892 0
M  V30 4518 N 412.39 -1.55475 0.257931 0
M  V30 4519 C 413.636 -1.99502 -0.364266 0
M  V30 4520 C 413.969 -1.146 -1.56782 0
M  V30 4521 O 413.244 -0.211968 -1.93342 0
M  V30 4522 C 413.527 -3.51917 -0.763333 0
M  V30 4523 C 413.38 -4.4758 0.446371 0
M  V30 4524 C 414.699 -4.09742 -1.60623 0
M  V30 4525 H 411.818 -0.725277 -0.130929 0
M  V30 4526 H 414.46 -1.8653 0.361446 0
M  V30 4527 H 412.61 -3.63101 -1.38166 0
M  V30 4528 H 414.282 -4.48362 1.08487 0
M  V30 4529 H 412.525 -4.19947 1.08753 0
M  V30 4530 H 413.196 -5.51862 0.123645 0
M  V30 4531 H 415.672 -4.01727 -1.08418 0
M  V30 4532 H 414.548 -5.16631 -1.85429 0
M  V30 4533 H 414.809 -3.58889 -2.58169 0
M  V30 4534 N 413.868 0.0150385 -1.57593 0
M  V30 4535 C 415.114 0.704043 -1.90187 0
M  V30 4536 C 415.447 1.74249 -0.857366 0
M  V30 4537 O 414.722 1.94092 0.125843 0
M  V30 4538 C 415.005 1.36087 -3.33395 0
M  V30 4539 C 414.858 0.334981 -4.48551 0
M  V30 4540 C 416.177 2.29112 -3.7576 0
M  V30 4541 H 413.296 0.254475 -0.691673 0
M  V30 4542 H 415.938 -0.0331678 -1.89971 0
M  V30 4543 H 414.088 1.98922 -3.3371 0
M  V30 4544 H 415.76 -0.292534 -4.60372 0
M  V30 4545 H 414.003 -0.344325 -4.32431 0
M  V30 4546 H 414.674 0.833316 -5.45674 0
M  V30 4547 H 417.15 1.76308 -3.76902 0
M  V30 4548 H 416.026 2.72043 -4.76743 0
M  V30 4549 H 416.287 3.16385 -3.08793 0
M  V30 4550 N 415.346 1.54954 0.287554 0
M  V30 4551 C 416.762 1.46469 0.633964 0
M  V30 4552 C 416.962 0.666865 1.90145 0
M  V30 4553 O 416.018 0.179906 2.51858 0
M  V30 4554 C 417.331 2.90556 0.774454 0
M  V30 4555 C 418.879 3.00681 0.869462 0
M  V30 4556 C 419.354 4.45993 1.04184 0
M  V30 4557 N 420.845 4.4976 1.10772 0
M  V30 4558 C 421.58 5.59393 1.25964 0
M  V30 4559 N 421.076 6.78923 1.37968 0
M  V30 4560 N 422.869 5.47107 1.28959 0
M  V30 4561 H 415.02 2.05288 -0.545041 0
M  V30 4562 H 417.283 0.930305 -0.182308 0
M  V30 4563 H 416.989 3.51594 -0.086207 0
M  V30 4564 H 416.863 3.38743 1.6593 0
M  V30 4565 H 419.25 2.39749 1.7206 0
M  V30 4566 H 419.331 2.55769 -0.0396831 0
M  V30 4567 H 418.975 5.07524 0.195422 0
M  V30 4568 H 418.905 4.88548 1.96542 0
M  V30 4569 H 421.396 3.63651 1.02794 0
M  V30 4570 H 421.709 7.58231 1.49353 0
M  V30 4571 H 420.054 6.81763 1.34999 0
M  V30 4572 H 423.245 4.52668 1.19202 0
M  V30 4573 H 423.418 6.32595 1.40455 0
M  V30 4574 N 416.824 -0.551391 1.4764 0
M  V30 4575 C 417.771 -1.65796 1.60563 0
M  V30 4576 C 418.741 -1.59932 0.448428 0
M  V30 4577 O 419.926 -1.78679 0.669222 0
M  V30 4578 C 417.066 -3.04108 1.63133 0
M  V30 4579 C 416.179 -3.20365 2.89811 0
M  V30 4580 C 415.314 -4.49109 2.8368 0
M  V30 4581 C 414.353 -4.58819 4.05156 0
M  V30 4582 N 413.49 -5.78926 3.97227 0
M  V30 4583 H 418.33 -1.54088 2.5507 0
M  V30 4584 H 415.867 -0.75052 1.26513 0
M  V30 4585 H 417.825 -3.84207 1.62606 0
M  V30 4586 H 416.455 -3.14637 0.721341 0
M  V30 4587 H 415.507 -2.33659 3.00179 0
M  V30 4588 H 416.819 -3.23402 3.79753 0
M  V30 4589 H 415.973 -5.37475 2.81434 0
M  V30 4590 H 414.712 -4.4856 1.91431 0
M  V30 4591 H 413.717 -3.68864 4.077 0
M  V30 4592 H 414.942 -4.61124 4.98539 0
M  V30 4593 H 412.888 -5.79314 3.07785 0
M  V30 4594 H 412.805 -5.83367 4.80853 0
M  V30 4595 H 414.073 -6.69637 3.99007 0
M  V30 4596 N 418.302 -1.35869 -0.798587 0
M  V30 4597 C 419.232 -1.32118 -1.92528 0
M  V30 4598 C 420.213 -0.194209 -1.68988 0
M  V30 4599 O 421.398 -0.390426 -1.90235 0
M  V30 4600 C 418.528 -1.10047 -3.29404 0
M  V30 4601 C 417.482 -2.19471 -3.67446 0
M  V30 4602 C 416.808 -1.82555 -5.02571 0
M  V30 4603 C 418.108 -3.61495 -3.76987 0
M  V30 4604 H 419.802 -2.26394 -1.95924 0
M  V30 4605 H 417.348 -1.08981 -0.94123 0
M  V30 4606 H 419.301 -1.06061 -4.07835 0
M  V30 4607 H 418.025 -0.122195 -3.26371 0
M  V30 4608 H 416.684 -2.22568 -2.91306 0
M  V30 4609 H 416.332 -0.833249 -4.9605 0
M  V30 4610 H 416.032 -2.5581 -5.28995 0
M  V30 4611 H 417.556 -1.80108 -5.83432 0
M  V30 4612 H 418.97 -3.60676 -4.4563 0
M  V30 4613 H 417.367 -4.33577 -4.14887 0
M  V30 4614 H 418.437 -3.97065 -2.78329 0
M  V30 4615 N 419.78 1.02168 -1.19998 0
M  V30 4616 C 420.71 2.12488 -0.96804 0
M  V30 4617 C 421.691 1.69799 0.101185 0
M  V30 4618 O 422.876 1.94121 -0.0552993 0
M  V30 4619 C 420.006 3.43479 -0.513776 0
M  V30 4620 C 418.96 3.99884 -1.52566 0
M  V30 4621 C 418.286 5.26582 -0.928214 0
M  V30 4622 C 419.586 4.33861 -2.90795 0
M  V30 4623 H 421.28 2.32149 -1.89069 0
M  V30 4624 H 418.826 1.11564 -0.910468 0
M  V30 4625 H 420.779 4.20036 -0.338774 0
M  V30 4626 H 419.503 3.23561 0.444493 0
M  V30 4627 H 418.162 3.25429 -1.68794 0
M  V30 4628 H 417.81 5.02986 0.0378289 0
M  V30 4629 H 417.51 5.65284 -1.60397 0
M  V30 4630 H 419.034 6.05799 -0.764167 0
M  V30 4631 H 420.448 5.01327 -2.78109 0
M  V30 4632 H 418.845 4.83664 -3.55231 0
M  V30 4633 H 419.915 3.42848 -3.42904 0
M  V30 4634 N 421.258 1.00505 1.21394 0
M  V30 4635 C 422.205 0.565496 2.23765 0
M  V30 4636 C 423.175 -0.408466 1.60999 0
M  V30 4637 O 424.36 -0.310503 1.88257 0
M  V30 4638 C 421.5 -0.101667 3.4495 0
M  V30 4639 C 420.613 0.915479 4.22188 0
M  V30 4640 C 419.748 0.220574 5.30742 0
M  V30 4641 C 418.787 1.22527 5.99711 0
M  V30 4642 N 417.924 0.557831 6.9988 0
M  V30 4643 H 422.764 1.44314 2.60725 0
M  V30 4644 H 420.301 0.722643 1.28126 0
M  V30 4645 H 422.259 -0.505504 4.14126 0
M  V30 4646 H 420.889 -0.94303 3.08718 0
M  V30 4647 H 419.941 1.43756 3.52191 0
M  V30 4648 H 421.253 1.68005 4.69655 0
M  V30 4649 H 420.407 -0.239368 6.06228 0
M  V30 4650 H 419.146 -0.576401 4.84282 0
M  V30 4651 H 418.151 1.69571 5.22997 0
M  V30 4652 H 419.376 2.02332 6.48258 0
M  V30 4653 H 417.322 -0.219486 6.55633 0
M  V30 4654 H 417.239 1.26065 7.45415 0
M  V30 4655 H 418.507 0.121095 7.79406 0
M  V30 4656 N 422.737 -1.36956 0.779787 0
M  V30 4657 C 423.983 -1.99787 0.348281 0
M  V30 4658 C 424.316 -1.61756 -1.07465 0
M  V30 4659 O 423.591 -0.867639 -1.74075 0
M  V30 4660 C 423.874 -3.56597 0.50104 0
M  V30 4661 C 423.727 -4.04513 1.96697 0
M  V30 4662 C 425.046 -4.40008 -0.0898097 0
M  V30 4663 H 422.165 -0.725796 0.128022 0
M  V30 4664 H 424.807 -1.62514 0.984331 0
M  V30 4665 H 422.957 -3.88479 -0.0404347 0
M  V30 4666 H 424.629 -3.83161 2.56876 0
M  V30 4667 H 422.872 -3.56408 2.47297 0
M  V30 4668 H 423.543 -5.1352 2.02486 0
M  V30 4669 H 426.019 -4.14431 0.372293 0
M  V30 4670 H 424.895 -5.4888 0.0471605 0
M  V30 4671 H 425.156 -4.26035 -1.18096 0
M  V30 4672 N 424.215 -0.530993 -1.48385 0
M  V30 4673 C 425.162 0.231223 -2.29639 0
M  V30 4674 C 426.132 0.932864 -1.37429 0
M  V30 4675 O 427.317 0.933692 -1.66394 0
M  V30 4676 C 424.457 1.27155 -3.2082 0
M  V30 4677 C 423.57 0.578655 -4.28107 0
M  V30 4678 C 422.705 1.602 -5.06467 0
M  V30 4679 C 421.744 0.892625 -6.05556 0
M  V30 4680 N 420.881 1.86157 -6.76971 0
M  V30 4681 H 425.721 -0.467848 -2.94305 0
M  V30 4682 H 423.258 -0.242556 -1.45086 0
M  V30 4683 H 425.216 1.88703 -3.72085 0
M  V30 4684 H 423.846 1.939 -2.58075 0
M  V30 4685 H 422.898 -0.150782 -3.80101 0
M  V30 4686 H 424.21 0.0217065 -4.98795 0
M  V30 4687 H 423.364 2.29173 -5.61751 0
M  V30 4688 H 422.103 2.19285 -4.35621 0
M  V30 4689 H 421.108 0.188829 -5.49476 0
M  V30 4690 H 422.333 0.307878 -6.78402 0
M  V30 4691 H 420.279 2.44147 -6.08875 0
M  V30 4692 H 420.196 1.35608 -7.43738 0
M  V30 4693 H 421.464 2.54325 -7.36844 0
M  V30 4694 N 425.693 1.55336 -0.266172 0
M  V30 4695 C 427.104 1.85236 0.233315 0
M  V30 4696 C 427.455 1.18816 1.56132 0
M  V30 4697 O 426.58 0.473307 2.11161 0
M  V30 4698 C 427.175 3.36059 0.430113 0
M  V30 4699 C 425.734 3.66116 0.873842 0
M  V30 4700 C 424.881 2.77274 -0.0380016 0
M  V30 4701 H 427.832 1.51004 -0.488214 0
M  V30 4702 H 427.853 3.58681 1.26998 0
M  V30 4703 H 427.365 3.84373 -0.536588 0
M  V30 4704 H 425.466 3.23295 1.85233 0
M  V30 4705 H 425.579 4.73699 0.717358 0
M  V30 4706 H 423.943 2.50198 0.476759 0
M  V30 4707 H 424.726 3.284 -1.00042 0
M  V30 4708 N 427.171 -0.0066808 1.57599 0
M  V30 4709 C 428.081 -1.01671 2.11424 0
M  V30 4710 C 429.097 -1.38143 1.05795 0
M  V30 4711 O 430.273 -1.47011 1.37658 0
M  V30 4712 C 427.338 -2.29192 2.60139 0
M  V30 4713 C 426.399 -1.99094 3.80342 0
M  V30 4714 C 425.632 -3.20535 4.26724 0
M  V30 4715 O 425.855 -4.3199 3.72479 0
M  V30 4716 O 424.789 -3.04924 5.18946 0
M  V30 4717 H 428.615 -0.589181 2.9793 0
M  V30 4718 H 426.2 -0.225091 1.47695 0
M  V30 4719 H 428.082 -3.0412 2.917 0
M  V30 4720 H 426.757 -2.71195 1.76733 0
M  V30 4721 H 425.664 -1.21663 3.53764 0
M  V30 4722 H 426.997 -1.61931 4.648 0
M  V30 4723 N 428.649 -1.55105 -0.279332 0
M  V30 4724 C 429.559 -1.90638 -1.36727 0
M  V30 4725 C 430.575 -0.802899 -1.54368 0
M  V30 4726 O 431.751 -1.10138 -1.68616 0
M  V30 4727 C 428.816 -2.16547 -2.70755 0
M  V30 4728 C 427.877 -3.40146 -2.61915 0
M  V30 4729 C 427.11 -3.6481 -3.8955 0
M  V30 4730 O 427.333 -2.92095 -4.89935 0
M  V30 4731 O 426.267 -4.58343 -3.90135 0
M  V30 4732 H 430.093 -2.83237 -1.09591 0
M  V30 4733 H 427.678 -1.4157 -0.477306 0
M  V30 4734 H 429.56 -2.34665 -3.50014 0
M  V30 4735 H 428.235 -1.27131 -2.9769 0
M  V30 4736 H 427.142 -3.2737 -1.81052 0
M  V30 4737 H 428.475 -4.29761 -2.3993 0
M  V30 4738 N 430.127 0.543554 -1.4793 0
M  V30 4739 C 431.543 0.870806 -1.3375 0
M  V30 4740 C 431.743 1.9864 -0.338261 0
M  V30 4741 O 430.799 2.51305 0.245371 0
M  V30 4742 C 432.112 1.25114 -2.73435 0
M  V30 4743 C 433.66 1.3618 -2.81823 0
M  V30 4744 C 434.135 1.77563 -4.22179 0
M  V30 4745 N 435.626 1.8469 -4.24787 0
M  V30 4746 C 436.361 2.18067 -5.30315 0
M  V30 4747 N 435.857 2.49963 -6.46135 0
M  V30 4748 N 437.65 2.18958 -5.17701 0
M  V30 4749 H 429.801 -0.19275 -2.11524 0
M  V30 4750 H 432.064 -0.0235777 -0.947707 0
M  V30 4751 H 431.77 0.50514 -3.48053 0
M  V30 4752 H 431.644 2.20431 -3.06088 0
M  V30 4753 H 434.031 2.09859 -2.07468 0
M  V30 4754 H 434.112 0.390169 -2.52807 0
M  V30 4755 H 433.756 1.04449 -4.97044 0
M  V30 4756 H 433.686 2.75753 -4.48629 0
M  V30 4757 H 436.177 1.62372 -3.41239 0
M  V30 4758 H 436.49 2.74497 -7.22406 0
M  V30 4759 H 434.835 2.47513 -6.49432 0
M  V30 4760 H 438.026 1.93488 -4.2624 0
M  V30 4761 H 438.199 2.44639 -6.00047 0
M  V30 4762 N 431.605 1.3629 0.791371 0
M  V30 4763 C 432.535 1.33137 1.91825 0
M  V30 4764 C 433.516 0.203168 1.68882 0
M  V30 4765 O 434.701 0.400509 1.90025 0
M  V30 4766 C 431.831 1.11793 3.28816 0
M  V30 4767 C 430.785 2.21417 3.66277 0
M  V30 4768 C 430.111 1.85218 5.01596 0
M  V30 4769 C 431.411 3.63489 3.75064 0
M  V30 4770 H 433.105 2.2743 1.9472 0
M  V30 4771 H 430.651 1.09479 0.935437 0
M  V30 4772 H 432.604 1.08222 4.07266 0
M  V30 4773 H 431.328 0.139501 3.26302 0
M  V30 4774 H 429.987 2.2411 2.90121 0
M  V30 4775 H 429.635 0.859544 4.95602 0
M  V30 4776 H 429.335 2.58611 5.27631 0
M  V30 4777 H 430.859 1.832 5.82469 0
M  V30 4778 H 432.273 3.63034 4.43711 0
M  V30 4779 H 430.67 4.35771 4.12582 0
M  V30 4780 H 431.74 3.98536 2.76219 0
M  V30 4781 N 433.083 -1.0153 1.20538 0
M  V30 4782 C 434.311 -1.78746 1.04199 0
M  V30 4783 C 434.726 -1.84323 -0.408733 0
M  V30 4784 O 434.083 -1.29714 -1.28377 0
M  V30 4785 C 434.134 -3.23152 1.62035 0
M  V30 4786 O 433.855 -3.17918 3.0143 0
M  V30 4787 C 435.356 -4.16911 1.50666 0
M  V30 4788 H 432.576 -0.56208 0.366479 0
M  V30 4789 H 435.12 -1.27794 1.59653 0
M  V30 4790 H 433.275 -3.71248 1.10697 0
M  V30 4791 H 433.689 -4.08567 3.28897 0
M  V30 4792 H 435.163 -5.16072 1.95892 0
M  V30 4793 H 435.64 -4.36791 0.459363 0
M  V30 4794 H 436.246 -3.74698 2.01201 0
M  V30 4795 N 434.561 -1.01147 -1.20859 0
M  V30 4796 C 435.81 -0.693214 -1.89413 0
M  V30 4797 C 436.123 0.779969 -1.79376 0
M  V30 4798 O 437.329 1.21057 -2.43017 0
M  V30 4799 C 435.785 -1.18949 -3.39675 0
M  V30 4800 C 435.393 -2.68921 -3.58309 0
M  V30 4801 C 437.137 -0.94642 -4.13815 0
M  V30 4802 C 435.044 -3.12056 -5.0237 0
M  V30 4803 H 433.974 -0.255595 -0.709357 0
M  V30 4804 H 436.625 -1.22349 -1.36759 0
M  V30 4805 H 435.007 -0.587228 -3.91622 0
M  V30 4806 H 436.181 -3.34652 -3.16772 0
M  V30 4807 H 434.496 -2.91314 -2.97532 0
M  V30 4808 H 437.093 -1.24417 -5.20023 0
M  V30 4809 H 437.436 0.117219 -4.16135 0
M  V30 4810 H 437.969 -1.5118 -3.67953 0
M  V30 4811 H 434.708 -4.17674 -5.05202 0
M  V30 4812 H 434.228 -2.51041 -5.44737 0
M  V30 4813 H 435.907 -3.04403 -5.70918 0
M  V30 4814 N 436.039 1.36541 -0.78704 0
M  V30 4815 C 436.949 2.3387 -0.184896 0
M  V30 4816 C 437.965 1.60927 0.661697 0
M  V30 4817 O 439.141 1.92927 0.57804 0
M  V30 4818 C 436.206 3.40122 0.672145 0
M  V30 4819 C 435.267 4.28867 -0.19267 0
M  V30 4820 C 434.5 5.30045 0.623561 0
M  V30 4821 O 434.723 5.39232 1.8597 0
M  V30 4822 O 433.657 6.01895 0.0247068 0
M  V30 4823 H 437.483 2.87126 -0.989562 0
M  V30 4824 H 435.068 1.38969 -0.548455 0
M  V30 4825 H 436.95 4.05093 1.16094 0
M  V30 4826 H 435.625 2.89169 1.45474 0
M  V30 4827 H 434.532 3.66945 -0.728166 0
M  V30 4828 H 435.865 4.83165 -0.938722 0
M  V30 4829 N 437.518 0.538854 1.48102 0
M  V30 4830 C 438.766 0.00798599 2.02098 0
M  V30 4831 C 439.087 -1.33922 1.41739 0
M  V30 4832 O 438.357 -1.86932 0.585934 0
M  V30 4833 H 436.937 -3.62179e-05 0.747 0
M  V30 4834 H 439.599 0.7047 1.81714 0
M  V30 4835 H 438.695 -0.0937672 3.11959 0
M  V30 4836 N 438.996 -1.55193 0.274407 0
M  V30 4837 C 440.242 -1.99877 -0.343086 0
M  V30 4838 C 440.575 -1.16256 -1.55558 0
M  V30 4839 O 439.85 -0.232462 -1.93106 0
M  V30 4840 C 440.133 -3.52706 -0.725965 0
M  V30 4841 C 439.986 -4.47081 0.493818 0
M  V30 4842 C 441.305 -4.11422 -1.56268 0
M  V30 4843 H 438.424 -0.726625 -0.123229 0
M  V30 4844 H 441.066 -1.86136 0.38121 0
M  V30 4845 H 439.216 -3.64546 -1.34307 0
M  V30 4846 H 440.888 -4.47186 1.13237 0
M  V30 4847 H 439.131 -4.1877 1.13201 0
M  V30 4848 H 439.802 -5.51699 0.18217 0
M  V30 4849 H 442.278 -4.02855 -1.04151 0
M  V30 4850 H 441.154 -5.18568 -1.79939 0
M  V30 4851 H 441.415 -3.61607 -2.54348 0
M  V30 4852 N 440.474 -0.00167713 -1.576 0
M  V30 4853 C 441.404 0.988091 -2.11563 0
M  V30 4854 C 442.385 1.35736 -1.02517 0
M  V30 4855 O 443.57 1.44082 -1.30208 0
M  V30 4856 C 440.7 2.27941 -2.62031 0
M  V30 4857 C 439.654 2.0517 -3.75619 0
M  V30 4858 C 438.98 3.4033 -4.12407 0
M  V30 4859 C 440.28 1.41294 -5.02825 0
M  V30 4860 H 441.974 0.538771 -2.94513 0
M  V30 4861 H 439.52 0.257712 -1.41675 0
M  V30 4862 H 441.473 2.97539 -2.9841 0
M  V30 4863 H 440.197 2.74989 -1.76205 0
M  V30 4864 H 438.856 1.37998 -3.39635 0
M  V30 4865 H 438.504 3.85085 -3.23603 0
M  V30 4866 H 438.204 3.25909 -4.88935 0
M  V30 4867 H 439.728 4.1124 -4.51347 0
M  V30 4868 H 441.142 2.00851 -5.36965 0
M  V30 4869 H 439.539 1.37356 -5.84169 0
M  V30 4870 H 440.609 0.382362 -4.8339 0
M  V30 4871 N 441.952 1.55251 0.271103 0
M  V30 4872 C 443.229 1.66664 1.02384 0
M  V30 4873 C 443.609 0.534363 2.04225 0
M  V30 4874 O 442.957 -0.465337 2.23712 0
M  V30 4875 C 443.167 3.05961 1.67895 0
M  V30 4876 C 444.515 3.63772 2.18986 0
M  V30 4877 O 445.539 3.08606 1.77878 0
M  V30 4878 O 444.398 4.60429 2.94393 0
M  V30 4879 H 441.492 0.676957 0.475035 0
M  V30 4880 H 444.038 1.67589 0.26681 0
M  V30 4881 H 442.81 3.79815 0.941071 0
M  V30 4882 H 442.433 3.08943 2.5028 0
M  V30 4883 N 443.43 -0.535701 1.48216 0
M  V30 4884 C 444.38 -1.63688 1.58714 0
M  V30 4885 C 445.364 -1.54635 0.444615 0
M  V30 4886 O 446.556 -1.62753 0.695742 0
M  V30 4887 C 443.685 -3.02423 1.62466 0
M  V30 4888 C 442.771 -3.16601 2.82178 0
M  V30 4889 N 443.162 -3.00771 4.06658 0
M  V30 4890 C 441.46 -3.47645 2.79391 0
M  V30 4891 C 442.161 -3.18213 4.86945 0
M  V30 4892 N 441.137 -3.45528 4.19656 0
M  V30 4893 H 444.939 -1.5005 2.5271 0
M  V30 4894 H 442.453 -0.741018 1.44508 0
M  V30 4895 H 444.45 -3.81517 1.6808 0
M  V30 4896 H 443.11 -3.17157 0.695826 0
M  V30 4897 H 444.121 -2.77652 4.37184 0
M  V30 4898 H 440.798 -3.68771 1.95739 0
M  V30 4899 H 442.188 -3.1076 5.95716 0
M  V30 4900 N 444.908 -1.36708 -0.784132 0
M  V30 4901 C 446.319 -1.27947 -1.35965 0
M  V30 4902 C 446.67 0.0784013 -1.96043 0
M  V30 4903 O 445.795 0.979989 -1.92938 0
M  V30 4904 C 446.39 -2.31689 -2.47195 0
M  V30 4905 C 444.949 -2.26601 -3.00548 0
M  V30 4906 C 444.096 -2.16184 -1.73666 0
M  V30 4907 H 447.047 -1.4751 -0.585358 0
M  V30 4908 H 447.068 -1.95638 -3.26352 0
M  V30 4909 H 446.58 -3.30506 -2.03439 0
M  V30 4910 H 444.681 -1.31268 -3.48711 0
M  V30 4911 H 444.794 -3.19508 -3.57004 0
M  V30 4912 H 443.158 -1.62524 -1.96107 0
M  V30 4913 H 443.941 -3.16896 -1.32031 0
M  V30 4914 N 446.386 1.0089 -1.21074 0
M  V30 4915 C 447.632 1.7497 -1.03717 0
M  V30 4916 C 447.987 1.8764 0.425344 0
M  V30 4917 O 447.28 1.39679 1.3115 0
M  V30 4918 C 447.474 3.16335 -1.66334 0
M  V30 4919 C 447.303 3.17449 -3.18522 0
M  V30 4920 C 446.073 3.2425 -3.87543 0
M  V30 4921 C 448.271 3.02877 -4.15656 0
M  V30 4922 N 446.253 3.14949 -5.26954 0
M  V30 4923 C 447.624 3.0143 -5.41793 0
M  V30 4924 C 449.679 2.8715 -4.06755 0
M  V30 4925 C 448.382 2.85869 -6.60054 0
M  V30 4926 C 450.408 2.72944 -5.24648 0
M  V30 4927 C 449.77 2.72171 -6.49694 0
M  V30 4928 H 445.869 0.650627 -0.43383 0
M  V30 4929 H 448.453 1.19944 -1.53367 0
M  V30 4930 H 446.624 3.69638 -1.19256 0
M  V30 4931 H 448.356 3.78888 -1.42219 0
M  V30 4932 H 445.111 3.31288 -3.38446 0
M  V30 4933 H 445.535 3.13651 -5.9996 0
M  V30 4934 H 450.177 2.86557 -3.10878 0
M  V30 4935 H 447.895 2.8521 -7.56096 0
M  V30 4936 H 451.481 2.61782 -5.19578 0
M  V30 4937 H 450.361 2.61307 -7.39384 0
M  V30 4938 N 447.864 1.01787 1.20321 0
M  V30 4939 C 448.794 0.609625 2.25401 0
M  V30 4940 C 449.775 -0.375951 1.65893 0
M  V30 4941 O 450.96 -0.261101 1.92437 0
M  V30 4942 C 448.09 -0.0515995 3.47262 0
M  V30 4943 C 447.044 0.855095 4.19371 0
M  V30 4944 C 446.37 0.0595757 5.34667 0
M  V30 4945 C 447.67 2.16374 4.75373 0
M  V30 4946 H 449.364 1.48803 2.59804 0
M  V30 4947 H 446.91 0.716934 1.24884 0
M  V30 4948 H 448.863 -0.348764 4.19954 0
M  V30 4949 H 447.587 -0.964726 3.12027 0
M  V30 4950 H 446.246 1.13628 3.48546 0
M  V30 4951 H 445.894 -0.85524 4.95676 0
M  V30 4952 H 445.594 0.663406 5.83843 0
M  V30 4953 H 447.118 -0.231105 6.10162 0
M  V30 4954 H 448.532 1.92885 5.39878 0
M  V30 4955 H 446.929 2.71853 5.34991 0
M  V30 4956 H 447.999 2.82589 3.94045 0
M  V30 4957 N 449.342 -1.36122 0.79427 0
M  V30 4958 C 450.29 -2.31871 0.184023 0
M  V30 4959 C 451.284 -1.56041 -0.659365 0
M  V30 4960 O 452.49 -1.71266 -0.553906 0
M  V30 4961 H 448.865 -0.750896 0.0407373 0
M  V30 4962 H 450.836 -2.80898 1.00693 0
M  V30 4963 C 449.585 -3.41324 -0.662813 0
M  V30 4964 H 448.908 -3.99793 -0.0231944 0
M  V30 4965 H 450.348 -4.10629 -1.05639 0
M  V30 4966 C 448.807 -2.83308 -1.82313 0
M  V30 4967 O 449.337 -2.75863 -2.91997 0
M  V30 4968 N 447.543 -2.40529 -1.63077 0
M  V30 4969 H 447.09 -2.46785 -0.738591 0
M  V30 4970 H 447.048 -2.02059 -2.40872 0
M  V30 4971 N 450.82 -0.546701 -1.47814 0
M  V30 4972 C 452.045 -0.021268 -2.07389 0
M  V30 4973 C 452.47 1.25822 -1.39822 0
M  V30 4974 O 451.828 1.75111 -0.46968 0
M  V30 4975 C 451.876 0.168502 -3.60206 0
M  V30 4976 O 450.98 1.23347 -3.93522 0
M  V30 4977 H 450.321 -0.0466108 -0.662362 0
M  V30 4978 H 452.851 -0.759387 -1.89985 0
M  V30 4979 H 452.861 0.385982 -4.0617 0
M  V30 4980 H 451.536 -0.766075 -4.08784 0
M  V30 4981 H 450.113 0.997319 -3.59316 0
M  V30 4982 N 452.299 1.55045 -0.282633 0
M  V30 4983 C 453.527 2.04168 0.33512 0
M  V30 4984 C 453.942 1.16071 1.48906 0
M  V30 4985 O 453.299 0.182391 1.81586 0
M  V30 4986 C 453.35 3.52332 0.808957 0
M  V30 4987 O 453.071 4.37078 -0.299038 0
M  V30 4988 C 454.572 4.17375 1.49375 0
M  V30 4989 H 451.792 0.666744 0.0754543 0
M  V30 4990 H 454.336 2.00205 -0.416918 0
M  V30 4991 H 452.491 3.56715 1.51106 0
M  V30 4992 H 452.905 5.24458 0.0665514 0
M  V30 4993 H 454.379 5.22627 1.77664 0
M  V30 4994 H 454.856 3.65999 2.42778 0
M  V30 4995 H 455.462 4.17016 0.835305 0
M  V30 4996 N 453.777 0.010035 1.57597 0
M  V30 4997 C 454.687 -0.994226 2.12491 0
M  V30 4998 C 455.703 -1.37013 1.07254 0
M  V30 4999 O 456.879 -1.45542 1.3921 0
M  V30 5000 C 453.944 -2.2642 2.62555 0
M  V30 5001 C 453.005 -1.95049 3.82432 0
M  V30 5002 C 452.238 -3.15991 4.30099 0
M  V30 5003 O 452.461 -4.28015 3.7704 0
M  V30 5004 O 451.395 -2.99403 5.22151 0
M  V30 5005 H 455.221 -0.557549 2.98538 0
M  V30 5006 H 452.806 -0.209413 1.47925 0
M  V30 5007 H 454.688 -3.01009 2.9491 0
M  V30 5008 H 453.363 -2.69306 1.796 0
M  V30 5009 H 452.27 -1.17904 3.55034 0
M  V30 5010 H 453.603 -1.56992 4.66491 0
M  V30 5011 N 455.255 -1.55392 -0.262866 0
M  V30 5012 C 456.218 -1.88181 -1.30846 0
M  V30 5013 C 457.218 -0.757079 -1.41862 0
M  V30 5014 O 458.408 -1.02519 -1.40838 0
M  V30 5015 C 455.54 -2.09609 -2.68844 0
M  V30 5016 H 456.733 -2.81659 -1.02997 0
M  V30 5017 H 454.286 -1.48039 -0.501414 0
M  V30 5018 H 455.021 -1.18547 -3.01856 0
M  V30 5019 H 454.806 -2.91508 -2.62231 0
M  V30 5020 H 456.296 -2.36215 -3.44372 0
M  V30 5021 N 456.733 0.527833 -1.48498 0
M  V30 5022 C 457.663 1.64136 -1.66077 0
M  V30 5023 C 458.644 1.62286 -0.509625 0
M  V30 5024 O 459.829 1.79449 -0.742413 0
M  V30 5025 C 456.959 3.02717 -1.70234 0
M  V30 5026 C 455.913 3.19426 -2.8487 0
M  V30 5027 C 455.239 4.5909 -2.74118 0
M  V30 5028 C 456.539 3.01993 -4.26142 0
M  V30 5029 H 458.233 1.4968 -2.593 0
M  V30 5030 H 455.779 0.718654 -1.24785 0
M  V30 5031 H 457.732 3.80491 -1.8112 0
M  V30 5032 H 456.456 3.18201 -0.735911 0
M  V30 5033 H 455.115 2.4407 -2.73542 0
M  V30 5034 H 454.763 4.71413 -1.7544 0
M  V30 5035 H 454.463 4.71214 -3.51042 0
M  V30 5036 H 455.987 5.3896 -2.86974 0
M  V30 5037 H 457.401 3.69558 -4.38292 0
M  V30 5038 H 455.798 3.2561 -5.04082 0
M  V30 5039 H 456.868 1.98396 -4.42456 0
M  V30 5040 N 458.211 1.37122 0.776871 0
M  V30 5041 C 459.488 1.22586 1.52421 0
M  V30 5042 C 459.868 -0.182726 2.10308 0
M  V30 5043 O 459.216 -1.18979 1.9508 0
M  V30 5044 C 459.426 2.31782 2.60918 0
M  V30 5045 C 460.774 2.69071 3.2846 0
M  V30 5046 O 461.798 2.3092 2.71209 0
M  V30 5047 O 460.657 3.3478 4.31954 0
M  V30 5048 H 457.751 0.478045 0.674835 0
M  V30 5049 H 460.297 1.48888 0.814275 0
M  V30 5050 H 459.069 3.26131 2.16227 0
M  V30 5051 H 458.692 2.06916 3.39517 0
M  V30 5052 N 459.689 -1.00246 1.21608 0
M  V30 5053 C 460.637 -2.11193 0.97469 0
M  V30 5054 C 461.631 -1.69216 -0.0789303 0
M  V30 5055 O 462.837 -1.79853 0.0726806 0
M  V30 5056 H 459.212 -0.690455 0.297953 0
M  V30 5057 H 461.183 -2.2873 1.91638 0
M  V30 5058 C 459.932 -3.43182 0.558717 0
M  V30 5059 H 459.255 -3.75918 1.3611 0
M  V30 5060 H 460.695 -4.21823 0.429154 0
M  V30 5061 C 459.154 -3.28882 -0.730648 0
M  V30 5062 O 459.684 -3.59835 -1.78554 0
M  V30 5063 N 457.89 -2.8209 -0.698131 0
M  V30 5064 H 457.437 -2.57099 0.16061 0
M  V30 5065 H 457.395 -2.72903 -1.56113 0
M  V30 5066 N 461.167 -1.02423 -1.1978 0
M  V30 5067 C 462.413 -0.719051 -1.89625 0
M  V30 5068 C 462.746 0.750083 -1.7913 0
M  V30 5069 O 462.021 1.54574 -1.18056 0
M  V30 5070 C 462.304 -1.16499 -3.40735 0
M  V30 5071 C 462.157 -2.695 -3.60125 0
M  V30 5072 C 463.476 -0.742166 -4.33797 0
M  V30 5073 H 460.595 -0.26269 -0.688595 0
M  V30 5074 H 463.237 -1.27333 -1.41018 0
M  V30 5075 H 461.387 -0.69341 -3.82262 0
M  V30 5076 H 463.059 -3.24569 -3.278 0
M  V30 5077 H 461.302 -3.10113 -3.03336 0
M  V30 5078 H 461.973 -2.95757 -4.66081 0
M  V30 5079 H 464.449 -1.1477 -3.99959 0
M  V30 5080 H 463.325 -1.08213 -5.38127 0
M  V30 5081 H 463.586 0.355747 -4.40666 0
M  V30 5082 N 462.645 1.35699 -0.801477 0
M  V30 5083 C 463.575 2.32436 -0.222658 0
M  V30 5084 C 464.556 1.5723 0.649057 0
M  V30 5085 O 465.741 1.85324 0.580387 0
M  V30 5086 C 462.871 3.41469 0.633719 0
M  V30 5087 C 461.825 4.27774 -0.139083 0
M  V30 5088 C 461.151 5.28082 0.838666 0
M  V30 5089 C 462.451 5.04946 -1.33517 0
M  V30 5090 H 464.145 2.81094 -1.03086 0
M  V30 5091 H 461.691 1.35146 -0.497155 0
M  V30 5092 H 463.644 4.08143 1.04868 0
M  V30 5093 H 462.368 2.91408 1.47475 0
M  V30 5094 H 461.027 3.62673 -0.535156 0
M  V30 5095 H 460.675 4.7429 1.67506 0
M  V30 5096 H 460.375 5.86695 0.32594 0
M  V30 5097 H 461.899 5.97628 1.25194 0
M  V30 5098 H 463.313 5.64593 -0.995349 0
M  V30 5099 H 461.71 5.7303 -1.78202 0
M  V30 5100 H 462.78 4.35886 -2.12442 0
M  V30 5101 N 464.123 0.554532 1.47522 0
M  V30 5102 C 465.534 0.120446 1.86311 0
M  V30 5103 C 465.885 -1.30904 1.46145 0
M  V30 5104 O 465.01 -1.98434 0.863294 0
M  V30 5105 C 465.605 0.211808 3.38137 0
M  V30 5106 C 464.164 -0.167224 3.76028 0
M  V30 5107 C 463.311 0.560576 2.71575 0
M  V30 5108 H 466.262 0.764408 1.39077 0
M  V30 5109 H 466.283 -0.570275 3.76202 0
M  V30 5110 H 465.795 1.25232 3.6734 0
M  V30 5111 H 463.896 -1.20894 3.52442 0
M  V30 5112 H 464.009 0.189473 4.78725 0
M  V30 5113 H 462.373 0.00396836 2.547 0
M  V30 5114 H 463.156 1.60219 3.0362 0
M  V30 5115 N 465.601 -1.54893 0.290851 0
M  V30 5116 C 466.826 -2.04804 -0.32712 0
M  V30 5117 C 467.251 -1.16721 -1.47506 0
M  V30 5118 O 466.609 -0.169107 -1.8051 0
M  V30 5119 C 466.657 -3.52268 -0.770689 0
M  V30 5120 O 465.761 -3.67236 -1.87647 0
M  V30 5121 H 465.102 -0.660789 -0.0652227 0
M  V30 5122 H 467.632 -2.00036 0.429739 0
M  V30 5123 H 467.642 -3.9393 -1.06223 0
M  V30 5124 H 466.317 -4.15843 0.069096 0
M  V30 5125 H 464.894 -3.37479 -1.58626 0
M  V30 5126 N 467.08 -0.0183926 -1.57589 0
M  V30 5127 C 468.043 0.951986 -2.08494 0
M  V30 5128 C 469.043 1.26092 -0.997874 0
M  V30 5129 O 470.233 1.20304 -1.25987 0
M  V30 5130 C 467.365 2.27165 -2.54182 0
M  V30 5131 H 468.558 0.511307 -2.95509 0
M  V30 5132 H 466.111 0.229444 -1.54607 0
M  V30 5133 H 466.846 2.75884 -1.70465 0
M  V30 5134 H 466.631 2.06057 -3.33591 0
M  V30 5135 H 468.121 2.9674 -2.93828 0
M  V30 5136 N 468.558 1.5553 0.254621 0
M  V30 5137 C 469.49 1.86104 1.33783 0
M  V30 5138 C 470.503 0.746752 1.44663 0
M  V30 5139 O 471.692 1.0248 1.46151 0
M  V30 5140 C 468.792 2.02532 2.71724 0
M  V30 5141 C 467.965 3.33335 2.83208 0
M  V30 5142 C 467.024 3.396 4.01943 0
M  V30 5143 O 466.05 4.12862 3.91834 0
M  V30 5144 N 467.252 2.68332 5.1476 0
M  V30 5145 H 470.017 2.79605 1.07893 0
M  V30 5146 H 467.578 1.55672 0.444732 0
M  V30 5147 H 469.57 2.04074 3.4948 0
M  V30 5148 H 468.14 1.15811 2.90356 0
M  V30 5149 H 467.36 3.44176 1.92189 0
M  V30 5150 H 468.648 4.19565 2.87824 0
M  V30 5151 H 468.046 2.08528 5.25864 0
M  V30 5152 H 466.603 2.75575 5.90679 0
M  V30 5153 N 470.036 -0.519951 1.48776 0
M  V30 5154 C 470.966 -1.63253 1.66945 0
M  V30 5155 C 471.947 -1.62014 0.518224 0
M  V30 5156 O 473.132 -1.79053 0.751919 0
M  V30 5157 C 470.262 -3.0181 1.71836 0
M  V30 5158 C 469.216 -3.17911 2.8656 0
M  V30 5159 C 468.542 -4.5763 2.76548 0
M  V30 5160 C 469.842 -2.99729 4.27738 0
M  V30 5161 H 471.536 -1.48302 2.6009 0
M  V30 5162 H 469.082 -0.712026 1.25165 0
M  V30 5163 H 471.035 -3.79525 1.83135 0
M  V30 5164 H 469.759 -3.17806 0.752775 0
M  V30 5165 H 468.418 -2.42616 2.74833 0
M  V30 5166 H 468.066 -4.70476 1.77937 0
M  V30 5167 H 467.766 -4.69346 3.53536 0
M  V30 5168 H 469.29 -5.37431 2.89828 0
M  V30 5169 H 470.704 -3.67228 4.40246 0
M  V30 5170 H 469.101 -3.22932 5.05801 0
M  V30 5171 H 470.171 -1.96047 4.43502 0
M  V30 5172 N 471.514 -1.37532 -0.769588 0
M  V30 5173 C 472.447 -1.27839 -1.8903 0
M  V30 5174 C 473.425 -0.158504 -1.61826 0
M  V30 5175 O 474.609 -0.333086 -1.85534 0
M  V30 5176 C 471.736 -0.977072 -3.24301 0
M  V30 5177 C 470.782 -2.11414 -3.70414 0
M  V30 5178 S 471.615 -3.73409 -3.83831 0
M  V30 5179 C 472.771 -3.45432 -5.21946 0
M  V30 5180 H 473.004 -2.22694 -1.96963 0
M  V30 5181 H 470.537 -1.2318 -0.930914 0
M  V30 5182 H 472.495 -0.810049 -4.02428 0
M  V30 5183 H 471.156 -0.0459701 -3.14066 0
M  V30 5184 H 470.349 -1.85837 -4.68488 0
M  V30 5185 H 469.951 -2.24141 -2.99394 0
M  V30 5186 H 472.243 -3.00554 -6.07185 0
M  V30 5187 H 473.186 -4.42841 -5.52537 0
M  V30 5188 H 473.594 -2.80311 -4.89986 0
M  V30 5189 N 472.992 0.995999 -1.22138 0
M  V30 5190 C 473.925 2.08302 -0.931952 0
M  V30 5191 C 474.903 1.62127 0.123956 0
M  V30 5192 O 476.087 1.88499 -0.00696004 0
M  V30 5193 C 473.214 3.36317 -0.401068 0
M  V30 5194 C 472.26 4.01413 -1.44117 0
M  V30 5195 S 473.093 4.42664 -3.01345 0
M  V30 5196 C 474.249 5.73853 -2.49887 0
M  V30 5197 H 474.482 2.32532 -1.85246 0
M  V30 5198 H 472.015 1.13005 -1.0521 0
M  V30 5199 H 473.973 4.10375 -0.101352 0
M  V30 5200 H 472.634 3.10123 0.498272 0
M  V30 5201 H 471.827 4.9358 -1.01952 0
M  V30 5202 H 471.429 3.33668 -1.68943 0
M  V30 5203 H 473.721 6.50039 -1.90934 0
M  V30 5204 H 474.664 6.20841 -3.40532 0
M  V30 5205 H 475.072 5.31105 -1.9128 0
M  V30 5206 N 474.47 1.03057 1.19235 0
M  V30 5207 C 475.747 0.642608 1.84743 0
M  V30 5208 C 476.127 -0.878577 1.91948 0
M  V30 5209 O 475.475 -1.77597 1.43776 0
M  V30 5210 C 475.685 1.30665 3.23616 0
M  V30 5211 C 477.033 1.43098 3.9976 0
M  V30 5212 O 478.057 1.26396 3.3302 0
M  V30 5213 O 476.916 1.70223 5.19313 0
M  V30 5214 H 474.01 0.223573 0.796206 0
M  V30 5215 H 476.556 1.12883 1.26711 0
M  V30 5216 H 475.328 2.34544 3.13217 0
M  V30 5217 H 474.951 0.808405 3.89295 0
M  V30 5218 N 475.948 -1.35272 0.808662 0
M  V30 5219 C 476.895 -2.29764 0.218482 0
M  V30 5220 C 477.865 -1.52911 -0.648652 0
M  V30 5221 O 479.05 -1.81341 -0.593297 0
M  V30 5222 C 476.19 -3.39388 -0.625282 0
M  V30 5223 C 475.303 -4.31202 0.262516 0
M  V30 5224 C 474.438 -5.27919 -0.589451 0
M  V30 5225 C 473.477 -6.11371 0.298617 0
M  V30 5226 N 472.614 -7.0022 -0.513443 0
M  V30 5227 H 477.454 -2.79645 1.02968 0
M  V30 5228 H 474.991 -1.37629 0.519303 0
M  V30 5229 H 476.949 -4.01615 -1.12966 0
M  V30 5230 H 475.579 -2.90777 -1.40173 0
M  V30 5231 H 474.631 -3.69962 0.885013 0
M  V30 5232 H 475.943 -4.89748 0.945971 0
M  V30 5233 H 475.097 -5.95529 -1.15888 0
M  V30 5234 H 473.836 -4.69875 -1.30647 0
M  V30 5235 H 472.841 -5.42707 0.880301 0
M  V30 5236 H 474.066 -6.71494 1.01352 0
M  V30 5237 H 472.012 -6.44662 -1.21439 0
M  V30 5238 H 471.929 -7.55917 0.111922 0
M  V30 5239 H 473.197 -7.72175 -1.06608 0
M  V30 5240 N 477.426 -0.562348 -1.47226 0
M  V30 5241 C 478.389 0.172056 -2.28553 0
M  V30 5242 C 479.389 0.837928 -1.37242 0
M  V30 5243 O 480.579 0.693001 -1.59822 0
M  V30 5244 C 477.711 1.25223 -3.17068 0
M  V30 5245 H 478.904 -0.542401 -2.94954 0
M  V30 5246 H 476.457 -0.319493 -1.53 0
M  V30 5247 H 477.192 1.99892 -2.55369 0
M  V30 5248 H 476.977 0.779515 -3.84273 0
M  V30 5249 H 478.467 1.76791 -3.78332 0
M  V30 5250 N 478.904 1.54736 -0.299062 0
M  V30 5251 C 480.15 2.00397 0.311244 0
M  V30 5252 C 480.483 1.18716 1.53688 0
M  V30 5253 O 479.758 0.263154 1.92712 0
M  V30 5254 C 480.041 3.53817 0.669761 0
M  V30 5255 C 479.894 4.46239 -0.564882 0
M  V30 5256 C 481.213 4.13856 1.49702 0
M  V30 5257 H 478.332 0.728493 0.111653 0
M  V30 5258 H 480.974 1.85506 -0.410774 0
M  V30 5259 H 479.124 3.66637 1.28491 0
M  V30 5260 H 480.796 4.45328 -1.20337 0
M  V30 5261 H 479.039 4.16916 -1.19849 0
M  V30 5262 H 479.71 5.5134 -0.269918 0
M  V30 5263 H 482.186 4.04461 0.977284 0
M  V30 5264 H 481.062 5.21365 1.71666 0
M  V30 5265 H 481.323 3.65608 2.48563 0
M  V30 5266 N 480.382 0.0267497 1.57577 0
M  V30 5267 C 481.628 -0.653371 1.91987 0
M  V30 5268 C 481.961 -1.71915 0.903263 0
M  V30 5269 O 481.236 -1.94358 -0.0743387 0
M  V30 5270 C 481.519 -1.272 3.36886 0
M  V30 5271 C 481.372 -0.215938 4.49281 0
M  V30 5272 C 482.691 -2.19069 3.81703 0
M  V30 5273 H 479.81 -0.236047 0.698177 0
M  V30 5274 H 482.452 0.0835236 1.89816 0
M  V30 5275 H 480.602 -1.90005 3.38866 0
M  V30 5276 H 482.274 0.41449 4.59434 0
M  V30 5277 H 480.517 0.458855 4.31366 0
M  V30 5278 H 481.188 -0.688347 5.47691 0
M  V30 5279 H 483.664 -1.66253 3.81444 0
M  V30 5280 H 482.54 -2.59307 4.83788 0
M  V30 5281 H 482.801 -3.08087 3.17072 0
M  V30 5282 N 481.861 -1.55662 -0.24637 0
M  V30 5283 C 482.824 -1.89558 -1.28842 0
M  V30 5284 C 483.824 -0.772082 -1.41052 0
M  V30 5285 O 485.014 -1.04007 -1.39743 0
M  V30 5286 C 482.146 -2.12449 -2.66605 0
M  V30 5287 H 483.339 -2.82735 -1.00004 0
M  V30 5288 H 480.892 -1.48562 -0.485684 0
M  V30 5289 H 481.627 -1.21742 -3.00582 0
M  V30 5290 H 481.412 -2.94273 -2.59125 0
M  V30 5291 H 482.902 -2.39854 -3.41847 0
M  V30 5292 N 483.339 0.512053 -1.4905 0
M  V30 5293 C 484.587 1.26436 -1.57665 0
M  V30 5294 C 484.908 1.93255 -0.260293 0
M  V30 5295 O 484.178 1.82206 0.719564 0
M  V30 5296 H 482.758 0.469658 -0.580888 0
M  V30 5297 H 485.42 0.594398 -1.85615 0
M  V30 5298 H 484.516 2.03417 -2.36702 0
M  V30 5299 N 484.817 1.37938 0.762283 0
M  V30 5300 C 486.066 1.32989 1.51647 0
M  V30 5301 C 486.379 -0.0802922 1.95435 0
M  V30 5302 O 487.585 -0.252295 2.70325 0
M  V30 5303 C 486.041 2.33485 2.73885 0
M  V30 5304 C 485.649 3.80079 2.37157 0
M  V30 5305 C 487.393 2.37563 3.51801 0
M  V30 5306 C 485.3 4.72283 3.55954 0
M  V30 5307 H 484.23 0.494301 0.56937 0
M  V30 5308 H 486.881 1.63448 0.834083 0
M  V30 5309 H 485.263 1.96056 3.44061 0
M  V30 5310 H 486.437 4.26398 1.74704 0
M  V30 5311 H 484.752 3.79037 1.72395 0
M  V30 5312 H 487.349 3.0365 4.40114 0
M  V30 5313 H 487.692 1.39199 3.92338 0
M  V30 5314 H 488.225 2.73747 2.8863 0
M  V30 5315 H 484.964 5.7181 3.2049 0
M  V30 5316 H 484.484 4.30663 4.1748 0
M  V30 5317 H 486.163 4.89876 4.22647 0
M  V30 5318 N 486.295 -0.989507 1.22664 0
M  V30 5319 C 487.227 -2.0824 0.957542 0
M  V30 5320 C 488.24 -1.6267 -0.0651098 0
M  V30 5321 O 489.429 -1.77695 0.169312 0
M  V30 5322 C 486.529 -3.36298 0.419145 0
M  V30 5323 C 485.702 -4.10882 1.49982 0
M  V30 5324 C 484.761 -5.17221 0.967904 0
M  V30 5325 O 483.787 -5.44613 1.65487 0
M  V30 5326 N 484.989 -5.80124 -0.20896 0
M  V30 5327 H 487.754 -2.31904 1.89843 0
M  V30 5328 H 485.315 -1.15552 1.13399 0
M  V30 5329 H 487.307 -4.04671 0.0485451 0
M  V30 5330 H 485.877 -3.09671 -0.426937 0
M  V30 5331 H 485.097 -3.37092 2.04359 0
M  V30 5332 H 486.385 -4.57482 2.22682 0
M  V30 5333 H 485.783 -5.60244 -0.783818 0
M  V30 5334 H 484.34 -6.49715 -0.520913 0
M  V30 5335 N 487.773 -1.03688 -1.18687 0
M  V30 5336 C 488.705 -0.582696 -2.21669 0
M  V30 5337 C 489.718 0.345656 -1.59088 0
M  V30 5338 O 490.907 0.140776 -1.77944 0
M  V30 5339 C 488.007 0.169204 -3.38477 0
M  V30 5340 C 487.18 -0.766079 -4.30639 0
M  V30 5341 C 486.239 -0.0581541 -5.26168 0
M  V30 5342 O 485.265 -0.687346 -5.65035 0
M  V30 5343 N 486.467 1.20981 -5.67753 0
M  V30 5344 H 489.232 -1.46843 -2.61261 0
M  V30 5345 H 486.793 -0.916896 -1.33434 0
M  V30 5346 H 488.785 0.652543 -3.99405 0
M  V30 5347 H 487.355 0.956435 -2.97609 0
M  V30 5348 H 486.575 -1.42935 -3.67373 0
M  V30 5349 H 487.863 -1.40146 -4.89118 0
M  V30 5350 H 487.261 1.74159 -5.38224 0
M  V30 5351 H 485.818 1.6375 -6.30896 0
M  V30 5352 N 489.251 1.34841 -0.815825 0
M  V30 5353 C 490.214 2.27959 -0.238185 0
M  V30 5354 C 491.214 1.49983 0.579816 0
M  V30 5355 O 492.404 1.69617 0.396953 0
M  V30 5356 C 489.536 3.34314 0.666876 0
M  V30 5357 H 490.729 2.80558 -1.05958 0
M  V30 5358 H 488.282 1.44852 -0.587156 0
M  V30 5359 H 489.017 2.86916 1.5116 0
M  V30 5360 H 488.802 3.92014 0.0819106 0
M  V30 5361 H 490.292 4.0379 1.06506 0
M  V30 5362 N 490.729 0.570148 1.46925 0
M  V30 5363 C 491.679 -0.190921 2.27199 0
M  V30 5364 C 492.663 -0.873457 1.35128 0
M  V30 5365 O 493.855 -0.769627 1.59392 0
M  V30 5366 C 490.984 -1.21204 3.21192 0
M  V30 5367 C 490.07 -0.532261 4.20747 0
M  V30 5368 N 490.461 0.405038 5.04176 0
M  V30 5369 C 488.759 -0.784582 4.39045 0
M  V30 5370 C 489.46 0.801149 5.76157 0
M  V30 5371 N 488.436 0.153082 5.43384 0
M  V30 5372 H 492.238 0.529535 2.8909 0
M  V30 5373 H 489.752 0.391019 1.57622 0
M  V30 5374 H 491.749 -1.77135 3.77398 0
M  V30 5375 H 490.409 -1.93345 2.6086 0
M  V30 5376 H 491.42 0.779903 5.11994 0
M  V30 5377 H 488.097 -1.49352 3.89872 0
M  V30 5378 H 489.487 1.57208 6.5325 0
M  V30 5379 N 492.207 -1.54576 0.307264 0
M  V30 5380 C 493.17 -2.22423 -0.553224 0
M  V30 5381 C 494.17 -1.21231 -1.05639 0
M  V30 5382 O 495.36 -1.45923 -0.951419 0
M  V30 5383 C 492.492 -2.91552 -1.76664 0
M  V30 5384 H 493.685 -2.99874 0.0396484 0
M  V30 5385 H 491.238 -1.56192 0.0581629 0
M  V30 5386 H 491.973 -2.18196 -2.39918 0
M  V30 5387 H 491.758 -3.65738 -1.41343 0
M  V30 5388 H 493.248 -3.43292 -2.37783 0
M  V30 5389 N 493.685 -0.035106 -1.57561 0
M  V30 5390 C 494.595 0.960295 -2.14046 0
M  V30 5391 C 495.611 1.3529 -1.0942 0
M  V30 5392 O 496.787 1.43309 -1.41508 0
M  V30 5393 C 493.852 2.22214 -2.66124 0
M  V30 5394 C 492.913 1.8894 -3.85487 0
M  V30 5395 C 492.146 3.09109 -4.35072 0
M  V30 5396 O 492.369 4.21963 -3.83802 0
M  V30 5397 O 491.303 2.91058 -5.26848 0
M  V30 5398 H 495.129 0.509983 -2.99387 0
M  V30 5399 H 492.714 0.185853 -1.48239 0
M  V30 5400 H 494.596 2.96279 -2.99661 0
M  V30 5401 H 493.271 2.66414 -1.83862 0
M  V30 5402 H 492.178 1.12241 -3.56865 0
M  V30 5403 H 493.511 1.49551 -4.6893 0
M  V30 5404 N 495.163 1.55791 0.238111 0
M  V30 5405 C 496.095 1.87513 1.31802 0
M  V30 5406 C 497.108 0.762053 1.43863 0
M  V30 5407 O 498.297 1.04024 1.45056 0
M  V30 5408 C 495.397 2.05402 2.69561 0
M  V30 5409 C 494.57 3.3632 2.79656 0
M  V30 5410 C 493.629 3.43844 3.98319 0
M  V30 5411 O 492.655 4.16994 3.87433 0
M  V30 5412 N 493.857 2.73777 5.11885 0
M  V30 5413 H 496.622 2.80734 1.04922 0
M  V30 5414 H 494.183 1.56135 0.428196 0
M  V30 5415 H 496.175 2.07769 3.47296 0
M  V30 5416 H 494.745 1.18884 2.89111 0
M  V30 5417 H 493.965 3.46195 1.88528 0
M  V30 5418 H 495.253 4.22594 2.83358 0
M  V30 5419 H 494.651 2.14094 5.23622 0
M  V30 5420 H 493.208 2.81825 5.87723 0
M  V30 5421 N 496.642 -0.504142 1.49319 0
M  V30 5422 C 497.572 -1.61473 1.68667 0
M  V30 5423 C 498.553 -1.61455 0.535378 0
M  V30 5424 O 499.738 -1.78245 0.770868 0
M  V30 5425 C 496.868 -2.99971 1.75028 0
M  V30 5426 C 495.822 -3.14854 2.89916 0
M  V30 5427 C 495.148 -4.54671 2.81387 0
M  V30 5428 C 496.448 -2.95176 4.30893 0
M  V30 5429 H 498.142 -1.45535 2.61648 0
M  V30 5430 H 495.688 -0.698711 1.25913 0
M  V30 5431 H 497.641 -3.77562 1.8715 0
M  V30 5432 H 496.365 -3.1699 0.786441 0
M  V30 5433 H 495.024 -2.39687 2.77391 0
M  V30 5434 H 494.672 -4.68562 1.82917 0
M  V30 5435 H 494.372 -4.6557 3.58494 0
M  V30 5436 H 495.896 -5.34327 2.95512 0
M  V30 5437 H 497.31 -3.62538 4.44116 0
M  V30 5438 H 495.707 -3.17549 5.09198 0
M  V30 5439 H 496.777 -1.91332 4.45556 0
M  V30 5440 N 498.12 -1.38341 -0.754957 0
M  V30 5441 C 499.083 -1.35262 -1.85032 0
M  V30 5442 C 500.083 -0.253393 -1.58791 0
M  V30 5443 O 501.273 -0.510205 -1.66561 0
M  V30 5444 C 498.405 -1.10544 -3.22479 0
M  V30 5445 H 499.598 -2.32712 -1.8917 0
M  V30 5446 H 497.151 -1.23614 -0.956515 0
M  V30 5447 H 497.886 -0.136952 -3.24011 0
M  V30 5448 H 497.671 -1.90127 -3.4292 0
M  V30 5449 H 499.161 -1.11082 -4.02555 0
M  V30 5450 N 499.598 0.982988 -1.23187 0
M  V30 5451 C 500.546 2.09616 -1.00817 0
M  V30 5452 C 501.54 1.6932 0.0519995 0
M  V30 5453 O 502.746 1.79715 -0.101284 0
M  V30 5454 H 499.121 0.685628 -0.308899 0
M  V30 5455 H 501.092 2.25652 -1.95253 0
M  V30 5456 C 499.841 3.42249 -0.613243 0
M  V30 5457 H 499.164 3.73705 -1.42073 0
M  V30 5458 H 500.604 4.21086 -0.496208 0
M  V30 5459 C 499.063 3.30002 0.678233 0
M  V30 5460 O 499.593 3.6263 1.72807 0
M  V30 5461 N 497.799 2.83164 0.653165 0
M  V30 5462 H 497.346 2.56811 -0.201492 0
M  V30 5463 H 497.304 2.75352 1.51752 0
M  V30 5464 N 501.076 1.04316 1.18135 0
M  V30 5465 C 502.009 0.580823 2.20685 0
M  V30 5466 C 502.987 -0.385943 1.57953 0
M  V30 5467 O 504.171 -0.299654 1.86103 0
M  V30 5468 C 501.298 -0.151162 3.38363 0
M  V30 5469 C 500.344 0.769247 4.19505 0
M  V30 5470 S 501.177 2.25352 4.85774 0
M  V30 5471 C 502.333 1.53246 6.0685 0
M  V30 5472 H 502.566 1.44968 2.5956 0
M  V30 5473 H 500.099 0.85434 1.28609 0
M  V30 5474 H 502.057 -0.567315 4.06561 0
M  V30 5475 H 500.718 -0.995936 2.97892 0
M  V30 5476 H 499.911 0.203335 5.0359 0
M  V30 5477 H 499.513 1.12436 3.56699 0
M  V30 5478 H 501.805 0.82689 6.72435 0
M  V30 5479 H 502.748 2.35044 6.67952 0
M  V30 5480 H 503.156 1.0237 5.5514 0
M  V30 5481 N 502.554 -1.34406 0.822964 0
M  V30 5482 C 503.97 -1.51275 0.508727 0
M  V30 5483 C 504.17 -1.76776 -0.967083 0
M  V30 5484 O 503.226 -1.81871 -1.75155 0
M  V30 5485 C 504.539 -2.67765 1.36829 0
M  V30 5486 C 506.087 -2.81647 1.36542 0
M  V30 5487 C 506.562 -4.01181 2.20947 0
M  V30 5488 N 508.053 -4.08388 2.18571 0
M  V30 5489 C 508.788 -5.00036 2.80627 0
M  V30 5490 N 508.284 -5.96906 3.51674 0
M  V30 5491 N 510.077 -4.92908 2.70181 0
M  V30 5492 H 502.228 -1.16113 1.77852 0
M  V30 5493 H 504.491 -0.56947 0.757897 0
M  V30 5494 H 504.197 -2.55551 2.41633 0
M  V30 5495 H 504.071 -3.62779 1.03303 0
M  V30 5496 H 506.458 -2.93303 0.325163 0
M  V30 5497 H 506.539 -1.87443 1.74066 0
M  V30 5498 H 506.183 -3.90286 3.25022 0
M  V30 5499 H 506.113 -4.94599 1.80774 0
M  V30 5500 H 508.604 -3.39051 1.66891 0
M  V30 5501 H 508.917 -6.63468 3.96271 0
M  V30 5502 H 507.262 -5.9703 3.5578 0
M  V30 5503 H 510.453 -4.1619 2.14251 0
M  V30 5504 H 510.626 -5.64137 3.18831 0
M  V30 5505 N 504.032 -0.577932 -1.46621 0
M  V30 5506 C 505.281 -0.0594281 -2.01612 0
M  V30 5507 C 505.594 1.30663 -1.45556 0
M  V30 5508 O 506.8 1.91621 -1.92337 0
M  V30 5509 C 505.256 -0.0556666 -3.59857 0
M  V30 5510 C 504.864 -1.41975 -4.24908 0
M  V30 5511 C 506.608 0.409143 -4.22524 0
M  V30 5512 C 504.515 -1.37397 -5.75218 0
M  V30 5513 H 503.445 -0.0184469 -0.753774 0
M  V30 5514 H 506.096 -0.728869 -1.68404 0
M  V30 5515 H 504.478 0.679843 -3.90121 0
M  V30 5516 H 505.652 -2.17461 -4.0626 0
M  V30 5517 H 503.967 -1.82419 -3.74316 0
M  V30 5518 H 506.564 0.46211 -5.32699 0
M  V30 5519 H 506.907 1.42565 -3.91128 0
M  V30 5520 H 507.44 -0.272152 -3.96868 0
M  V30 5521 H 504.179 -2.36714 -6.11267 0
M  V30 5522 H 503.699 -0.661239 -5.96144 0
M  V30 5523 H 505.378 -1.08484 -6.3784 0
M  V30 5524 N 505.51 1.54411 -0.315457 0
M  V30 5525 C 506.442 2.21527 0.588067 0
M  V30 5526 C 507.455 1.21263 1.08624 0
M  V30 5527 O 508.644 1.47777 1.00121 0
M  V30 5528 C 505.744 2.85963 1.81875 0
M  V30 5529 C 504.917 4.12291 1.46063 0
M  V30 5530 C 503.976 4.60396 2.54799 0
M  V30 5531 O 503.002 5.25265 2.19283 0
M  V30 5532 N 504.204 4.33935 3.85591 0
M  V30 5533 H 506.969 2.99697 0.013414 0
M  V30 5534 H 504.53 1.61308 -0.138295 0
M  V30 5535 H 506.522 3.15071 2.53993 0
M  V30 5536 H 505.092 2.11548 2.30144 0
M  V30 5537 H 504.312 3.90036 0.571445 0
M  V30 5538 H 505.6 4.9452 1.19695 0
M  V30 5539 H 504.998 3.81996 4.17248 0
M  V30 5540 H 503.555 4.67718 4.53964 0
M  V30 5541 N 506.988 0.0434614 1.5754 0
M  V30 5542 C 508.265 -0.671479 1.83713 0
M  V30 5543 C 508.645 -1.89495 0.930315 0
M  V30 5544 O 507.993 -2.28498 -0.0105639 0
M  V30 5545 C 508.203 -1.0361 3.33266 0
M  V30 5546 C 509.551 -1.42167 4.00092 0
M  V30 5547 O 510.575 -1.12866 3.37846 0
M  V30 5548 O 509.434 -1.96817 5.09829 0
M  V30 5549 H 506.528 -0.330726 0.75799 0
M  V30 5550 H 509.074 0.0722373 1.69546 0
M  V30 5551 H 507.846 -0.165938 3.90948 0
M  V30 5552 H 507.469 -1.83751 3.52592 0
M  V30 5553 N 508.466 -1.55915 -0.229846 0
M  V30 5554 C 509.396 -1.94754 -1.28815 0
M  V30 5555 C 510.377 -0.814657 -1.49323 0
M  V30 5556 O 511.562 -1.07631 -1.61645 0
M  V30 5557 C 508.692 -2.25705 -2.63959 0
M  V30 5558 C 507.646 -3.41406 -2.5812 0
M  V30 5559 C 506.972 -3.57941 -3.97218 0
M  V30 5560 C 508.272 -4.76616 -2.13623 0
M  V30 5561 H 509.966 -2.83404 -0.965547 0
M  V30 5562 H 507.512 -1.36353 -0.463028 0
M  V30 5563 H 509.465 -2.51467 -3.38146 0
M  V30 5564 H 508.189 -1.339 -2.9789 0
M  V30 5565 H 506.848 -3.1568 -1.86391 0
M  V30 5566 H 506.496 -2.63526 -4.28443 0
M  V30 5567 H 506.196 -4.35757 -3.94195 0
M  V30 5568 H 507.72 -3.86042 -4.73079 0
M  V30 5569 H 509.134 -5.01637 -2.77549 0
M  V30 5570 H 507.531 -5.57655 -2.21677 0
M  V30 5571 H 508.601 -4.7253 -1.08829 0
M  V30 5572 N 509.944 0.496216 -1.49584 0
M  V30 5573 C 510.891 1.59722 -1.66606 0
M  V30 5574 C 511.861 1.58158 -0.507477 0
M  V30 5575 O 513.046 1.76072 -0.735076 0
M  V30 5576 C 510.186 2.97844 -1.74308 0
M  V30 5577 C 509.299 3.09388 -3.01502 0
M  V30 5578 C 508.434 4.38271 -3.00153 0
M  V30 5579 C 507.473 4.43466 -4.21906 0
M  V30 5580 N 506.61 5.63784 -4.1844 0
M  V30 5581 H 511.45 1.44515 -2.60613 0
M  V30 5582 H 508.987 0.703048 -1.29212 0
M  V30 5583 H 510.945 3.77907 -1.76754 0
M  V30 5584 H 509.575 3.11743 -0.837619 0
M  V30 5585 H 508.627 2.22357 -3.08645 0
M  V30 5586 H 509.939 3.09085 -3.91494 0
M  V30 5587 H 509.093 5.2666 -3.01188 0
M  V30 5588 H 507.832 4.41146 -2.07947 0
M  V30 5589 H 506.837 3.53478 -4.21109 0
M  V30 5590 H 508.062 4.42303 -5.1531 0
M  V30 5591 H 506.008 5.67491 -3.29074 0
M  V30 5592 H 505.925 5.65118 -5.02173 0
M  V30 5593 H 507.193 6.54367 -4.23585 0
M  V30 5594 N 511.423 1.38739 0.74761 0
M  V30 5595 C 512.669 1.35475 1.50912 0
M  V30 5596 C 513.002 -0.0533093 1.94127 0
M  V30 5597 O 512.277 -1.01572 1.65871 0
M  V30 5598 C 512.56 2.31582 2.75757 0
M  V30 5599 C 512.413 3.81274 2.38642 0
M  V30 5600 C 513.732 2.25722 3.77806 0
M  V30 5601 H 510.851 0.493427 0.547447 0
M  V30 5602 H 513.493 1.69634 0.855823 0
M  V30 5603 H 511.643 2.02582 3.31501 0
M  V30 5604 H 513.315 4.20972 1.88626 0
M  V30 5605 H 511.558 3.98664 1.71025 0
M  V30 5606 H 512.229 4.4399 3.27989 0
M  V30 5607 H 514.705 2.51336 3.31616 0
M  V30 5608 H 513.581 2.95069 4.62845 0
M  V30 5609 H 513.842 1.25803 4.23823 0
M  V30 5610 N 512.901 -0.976442 1.23707 0
M  V30 5611 C 514.126 -1.75875 1.09922 0
M  V30 5612 C 514.551 -1.84911 -0.34489 0
M  V30 5613 O 513.909 -1.31363 -1.24954 0
M  V30 5614 C 513.957 -3.16179 1.73388 0
M  V30 5615 O 513.061 -4.00124 0.99871 0
M  V30 5616 H 512.402 -0.540954 0.385052 0
M  V30 5617 H 514.932 -1.22546 1.6384 0
M  V30 5618 H 514.942 -3.66741 1.78788 0
M  V30 5619 H 513.617 -3.08917 2.78466 0
M  V30 5620 H 512.194 -3.58624 1.02193 0
M  V30 5621 N 514.379 -1.04941 -1.1758 0
M  V30 5622 C 515.309 -0.669172 -2.23706 0
M  V30 5623 C 516.29 0.331835 -1.66832 0
M  V30 5624 O 517.475 0.209988 -1.93061 0
M  V30 5625 C 514.605 -0.0404889 -3.47276 0
M  V30 5626 C 513.559 -0.965983 -4.16957 0
M  V30 5627 C 512.885 -0.201312 -5.34321 0
M  V30 5628 C 514.185 -2.28902 -4.69469 0
M  V30 5629 H 515.879 -1.55639 -2.55767 0
M  V30 5630 H 513.425 -0.749793 -1.22939 0
M  V30 5631 H 515.378 0.237298 -4.20731 0
M  V30 5632 H 514.102 0.881658 -3.14475 0
M  V30 5633 H 512.761 -1.22829 -3.45411 0
M  V30 5634 H 512.409 0.723519 -4.97769 0
M  V30 5635 H 512.109 -0.817968 -5.81879 0
M  V30 5636 H 513.633 0.0692499 -6.10561 0
M  V30 5637 H 515.047 -2.07132 -5.34574 0
M  V30 5638 H 513.444 -2.85942 -5.27596 0
M  V30 5639 H 514.514 -2.92937 -3.86414 0
M  V30 5640 N 515.857 1.33968 -0.830081 0
M  V30 5641 C 516.804 2.29387 -0.255008 0
M  V30 5642 C 517.774 1.53923 0.624243 0
M  V30 5643 O 518.959 1.82262 0.564372 0
M  V30 5644 C 516.099 3.4034 0.571209 0
M  V30 5645 C 515.212 4.30729 -0.331083 0
M  V30 5646 C 514.347 5.2879 0.505389 0
M  V30 5647 C 513.386 6.10819 -0.395843 0
M  V30 5648 N 512.523 7.00948 0.401979 0
M  V30 5649 H 517.363 2.77972 -1.07404 0
M  V30 5650 H 514.9 1.36785 -0.541133 0
M  V30 5651 H 516.858 4.03361 1.06562 0
M  V30 5652 H 515.488 2.9297 1.35529 0
M  V30 5653 H 514.54 3.68507 -0.943759 0
M  V30 5654 H 515.852 4.88181 -1.02377 0
M  V30 5655 H 515.006 5.97297 1.06399 0
M  V30 5656 H 513.745 4.71894 1.23155 0
M  V30 5657 H 512.75 5.41238 -0.966529 0
M  V30 5658 H 513.975 6.69797 -1.12023 0
M  V30 5659 H 511.921 6.46512 1.11168 0
M  V30 5660 H 511.838 7.55643 -0.232167 0
M  V30 5661 H 513.106 7.73774 0.943102 0
M  V30 5662 N 517.335 0.585699 1.46312 0
M  V30 5663 C 518.746 0.159938 1.86014 0
M  V30 5664 C 519.097 -1.27775 1.48889 0
M  V30 5665 O 518.222 -1.96559 0.90519 0
M  V30 5666 C 518.817 0.283485 3.37612 0
M  V30 5667 C 517.376 -0.0874256 3.76298 0
M  V30 5668 C 516.523 0.618055 2.70325 0
M  V30 5669 H 519.474 0.793737 1.37425 0
M  V30 5670 H 519.495 -0.490348 3.77327 0
M  V30 5671 H 519.007 1.32995 3.64601 0
M  V30 5672 H 517.108 -1.13391 3.54927 0
M  V30 5673 H 517.221 0.290975 4.78216 0
M  V30 5674 H 515.585 0.057993 2.54634 0
M  V30 5675 H 516.368 1.66623 3.00153 0
M  V30 5676 N 518.813 -1.54241 0.323641 0
M  V30 5677 C 519.743 -2.27289 -0.534993 0
M  V30 5678 C 520.724 -1.28087 -1.11927 0
M  V30 5679 O 521.909 -1.56899 -1.14439 0
M  V30 5680 C 519.039 -3.03075 -1.69596 0
M  V30 5681 C 517.993 -4.09614 -1.24098 0
M  V30 5682 C 517.319 -4.73242 -2.4889 0
M  V30 5683 C 518.619 -5.21087 -0.355789 0
M  V30 5684 H 520.313 -2.99308 0.0743257 0
M  V30 5685 H 517.859 -1.43952 0.0371874 0
M  V30 5686 H 519.812 -3.52907 -2.30293 0
M  V30 5687 H 518.536 -2.28673 -2.33187 0
M  V30 5688 H 517.195 -3.60666 -0.656945 0
M  V30 5689 H 516.843 -3.95455 -3.10845 0
M  V30 5690 H 516.543 -5.45209 -2.19138 0
M  V30 5691 H 518.067 -5.25848 -3.10348 0
M  V30 5692 H 519.481 -5.66675 -0.869042 0
M  V30 5693 H 517.878 -5.9991 -0.151045 0
M  V30 5694 H 518.948 -4.81005 0.613339 0
M  V30 5695 N 520.291 -0.0518155 -1.57515 0
M  V30 5696 C 521.241 0.932017 -2.0808 0
M  V30 5697 C 522.225 1.27141 -0.986098 0
M  V30 5698 O 523.417 1.25373 -1.24943 0
M  V30 5699 C 520.546 2.20665 -2.62986 0
M  V30 5700 C 519.632 1.89462 -3.79427 0
M  V30 5701 N 520.023 1.28621 -4.89173 0
M  V30 5702 C 518.321 2.19327 -3.88345 0
M  V30 5703 C 519.022 1.15062 -5.70207 0
M  V30 5704 N 517.998 1.65372 -5.17835 0
M  V30 5705 H 521.8 0.456964 -2.90326 0
M  V30 5706 H 519.314 0.152619 -1.61681 0
M  V30 5707 H 521.311 2.92044 -2.97516 0
M  V30 5708 H 519.971 2.68776 -1.8218 0
M  V30 5709 H 520.982 0.958341 -5.08956 0
M  V30 5710 H 517.659 2.69955 -3.18482 0
M  V30 5711 H 519.049 0.678243 -6.68468 0
M  V30 5712 N 521.769 1.56035 0.221574 0
M  V30 5713 C 522.994 1.83476 0.967026 0
M  V30 5714 C 523.419 0.632139 1.7716 0
M  V30 5715 O 522.777 -0.419082 1.7639 0
M  V30 5716 C 522.825 3.08907 1.86034 0
M  V30 5717 O 521.929 2.876 2.95567 0
M  V30 5718 H 521.27 0.604913 0.273817 0
M  V30 5719 H 523.8 2.03247 0.234893 0
M  V30 5720 H 523.81 3.3901 2.27016 0
M  V30 5721 H 522.485 3.96068 1.26898 0
M  V30 5722 H 521.062 2.6873 2.58532 0
M  V30 5723 N 523.247 -0.488276 1.49845 0
M  V30 5724 C 524.493 -1.24341 1.6021 0
M  V30 5725 C 524.826 -1.91967 0.293651 0
M  V30 5726 O 524.101 -1.81323 -0.703718 0
M  V30 5727 C 524.384 -2.3005 2.77036 0
M  V30 5728 C 524.237 -1.66842 4.17713 0
M  V30 5729 C 525.556 -3.31509 2.89464 0
M  V30 5730 H 522.675 -0.450704 0.583125 0
M  V30 5731 H 525.317 -0.539673 1.82174 0
M  V30 5732 H 523.467 -2.90071 2.58439 0
M  V30 5733 H 525.139 -1.1055 4.47858 0
M  V30 5734 H 523.382 -0.972079 4.22768 0
M  V30 5735 H 524.053 -2.43576 4.95353 0
M  V30 5736 H 526.529 -2.81493 3.06433 0
M  V30 5737 H 525.405 -4.02822 3.72861 0
M  V30 5738 H 525.666 -3.94603 1.99351 0
M  V30 5739 N 524.725 -1.39134 -0.740242 0
M  V30 5740 C 525.673 -1.3757 -1.87556 0
M  V30 5741 C 526.667 -0.259593 -1.67399 0
M  V30 5742 O 527.873 -0.429349 -1.74804 0
M  V30 5743 H 524.248 -0.42947 -0.6173 0
M  V30 5744 H 526.219 -2.33345 -1.85991 0
M  V30 5745 C 524.968 -1.23087 -3.25184 0
M  V30 5746 H 524.291 -2.08237 -3.41288 0
M  V30 5747 H 525.731 -1.26049 -4.0483 0
M  V30 5748 C 524.19 0.0611471 -3.36845 0
M  V30 5749 O 524.72 1.03328 -3.88183 0
M  V30 5750 N 522.926 0.122454 -2.90342 0
M  V30 5751 H 522.473 -0.669329 -2.48752 0
M  V30 5752 H 522.431 0.986463 -2.98523 0
M  V30 5753 N 526.204 0.969867 -1.24223 0
M  V30 5754 C 527.152 2.08535 -1.03034 0
M  V30 5755 C 528.146 1.69366 0.0340379 0
M  V30 5756 O 529.352 1.79597 -0.12034 0
M  V30 5757 H 525.727 0.682313 -0.316154 0
M  V30 5758 H 527.698 2.23569 -1.97635 0
M  V30 5759 C 526.447 3.4158 -0.649509 0
M  V30 5760 H 525.77 3.72177 -1.46028 0
M  V30 5761 H 527.21 4.20536 -0.540841 0
M  V30 5762 C 525.669 3.30703 0.643194 0
M  V30 5763 O 526.199 3.64443 1.68951 0
M  V30 5764 N 524.405 2.83841 0.623095 0
M  V30 5765 H 523.952 2.56583 -0.228719 0
M  V30 5766 H 523.91 2.76946 1.48823 0
M  V30 5767 N 527.682 1.05563 1.17022 0
M  V30 5768 C 529.093 0.793475 1.69 0
M  V30 5769 C 529.444 -0.683882 1.83895 0
M  V30 5770 O 528.569 -1.53116 1.5292 0
M  V30 5771 C 529.164 1.43376 3.06967 0
M  V30 5772 C 527.723 1.21956 3.56095 0
M  V30 5773 C 526.87 1.51494 2.3226 0
M  V30 5774 H 529.821 1.22008 1.01487 0
M  V30 5775 H 529.842 0.845068 3.70997 0
M  V30 5776 H 529.354 2.50899 2.96093 0
M  V30 5777 H 527.455 0.163749 3.7224 0
M  V30 5778 H 527.568 1.92713 4.38633 0
M  V30 5779 H 525.932 0.935175 2.3691 0
M  V30 5780 H 526.715 2.60159 2.23992 0
M  V30 5781 N 529.16 -1.33526 0.837174 0
M  V30 5782 C 530.409 -1.97098 0.428387 0
M  V30 5783 C 530.722 -1.67062 -1.01734 0
M  V30 5784 O 531.928 -2.24235 -1.53072 0
M  V30 5785 C 530.384 -3.52725 0.715075 0
M  V30 5786 C 529.992 -3.9164 2.17537 0
M  V30 5787 C 531.736 -4.22857 0.373154 0
M  V30 5788 C 529.643 -5.40237 2.40619 0
M  V30 5789 H 528.573 -0.737589 0.156455 0
M  V30 5790 H 531.224 -1.52169 1.02552 0
M  V30 5791 H 529.606 -3.95971 0.0475904 0
M  V30 5792 H 530.78 -3.59456 2.88319 0
M  V30 5793 H 529.095 -3.34485 2.4801 0
M  V30 5794 H 531.692 -5.32133 0.523264 0
M  V30 5795 H 532.035 -4.10647 -0.683708 0
M  V30 5796 H 532.568 -3.85135 0.995801 0
M  V30 5797 H 529.307 -5.57449 3.44864 0
M  V30 5798 H 528.827 -5.73887 1.74396 0
M  V30 5799 H 530.506 -6.07102 2.23688 0
M  V30 5800 N 530.638 -0.59345 -1.46 0
M  V30 5801 C 531.568 0.121192 -2.33185 0
M  V30 5802 C 532.549 0.872977 -1.4599 0
M  V30 5803 O 533.734 0.846321 -1.74789 0
M  V30 5804 C 530.864 1.12844 -3.28456 0
M  V30 5805 C 529.818 0.4908 -4.25177 0
M  V30 5806 C 529.144 1.60529 -5.10034 0
M  V30 5807 C 530.444 -0.578949 -5.19081 0
M  V30 5808 H 532.138 -0.606767 -2.93187 0
M  V30 5809 H 529.684 -0.293242 -1.40983 0
M  V30 5810 H 531.637 1.63684 -3.88311 0
M  V30 5811 H 530.361 1.88681 -2.66584 0
M  V30 5812 H 529.02 0.00339328 -3.666 0
M  V30 5813 H 528.668 2.35359 -4.44539 0
M  V30 5814 H 528.368 1.18422 -5.75543 0
M  V30 5815 H 529.892 2.11623 -5.72755 0
M  V30 5816 H 531.306 -0.155199 -5.7309 0
M  V30 5817 H 529.703 -0.920947 -5.92991 0
M  V30 5818 H 530.773 -1.46109 -4.62364 0
M  V30 5819 N 532.116 1.54067 -0.331816 0
M  V30 5820 C 533.532 1.59587 0.0205388 0
M  V30 5821 C 533.732 1.34813 1.49759 0
M  V30 5822 O 532.788 1.13661 2.25471 0
M  V30 5823 C 534.101 2.97959 -0.405103 0
M  V30 5824 C 535.649 3.10964 -0.356454 0
M  V30 5825 C 536.124 4.51694 -0.757384 0
M  V30 5826 N 537.615 4.57709 -0.71111 0
M  V30 5827 C 538.35 5.64729 -0.993427 0
M  V30 5828 N 537.846 6.79652 -1.3433 0
M  V30 5829 N 539.639 5.54546 -0.918442 0
M  V30 5830 H 531.79 1.68426 -1.29407 0
M  V30 5831 H 534.053 0.78819 -0.526745 0
M  V30 5832 H 533.759 3.21115 -1.43451 0
M  V30 5833 H 533.633 3.76524 0.225692 0
M  V30 5834 H 536.02 2.87538 0.663763 0
M  V30 5835 H 536.101 2.34484 -1.02229 0
M  V30 5836 H 535.745 4.75853 -1.77555 0
M  V30 5837 H 535.675 5.26555 -0.0691444 0
M  V30 5838 H 538.166 3.75176 -0.452883 0
M  V30 5839 H 538.479 7.57221 -1.54388 0
M  V30 5840 H 536.824 6.81128 -1.38164 0
M  V30 5841 H 540.015 4.63641 -0.644536 0
M  V30 5842 H 540.188 6.37861 -1.14181 0
M  V30 5843 N 533.594 0.0601682 1.57485 0
M  V30 5844 C 534.541 -0.91112 2.12055 0
M  V30 5845 C 535.511 -1.30298 1.03013 0
M  V30 5846 O 536.696 -1.39087 1.30612 0
M  V30 5847 C 533.836 -2.1775 2.67729 0
M  V30 5848 C 532.949 -1.83933 3.90887 0
M  V30 5849 C 532.084 -3.05096 4.34845 0
M  V30 5850 C 531.123 -2.67241 5.5068 0
M  V30 5851 N 530.26 -3.81127 5.8965 0
M  V30 5852 H 535.1 -0.43888 2.9475 0
M  V30 5853 H 532.637 -0.204995 1.45665 0
M  V30 5854 H 534.595 -2.91866 2.98111 0
M  V30 5855 H 533.225 -2.62535 1.87816 0
M  V30 5856 H 532.277 -0.999287 3.6704 0
M  V30 5857 H 533.589 -1.52074 4.75052 0
M  V30 5858 H 532.743 -3.87502 4.66827 0
M  V30 5859 H 531.482 -3.40139 3.49509 0
M  V30 5860 H 530.487 -1.83254 5.18361 0
M  V30 5861 H 531.712 -2.3338 6.37738 0
M  V30 5862 H 529.658 -4.15954 5.07266 0
M  V30 5863 H 529.575 -3.52997 6.68528 0
M  V30 5864 H 530.843 -4.64145 6.2625 0
M  V30 5865 N 535.072 -1.5615 -0.213296 0
M  V30 5866 C 536.488 -1.49327 -0.56336 0
M  V30 5867 C 536.688 -0.756826 -1.86747 0
M  V30 5868 O 535.744 -0.299866 -2.50713 0
M  V30 5869 C 537.057 -2.9392 -0.634944 0
M  V30 5870 C 538.605 -3.04487 -0.725013 0
M  V30 5871 C 539.08 -4.50456 -0.82787 0
M  V30 5872 N 540.571 -4.54533 -0.891876 0
M  V30 5873 C 541.306 -5.64766 -0.991315 0
M  V30 5874 N 540.802 -6.84733 -1.05419 0
M  V30 5875 N 542.595 -5.52637 -1.02709 0
M  V30 5876 H 534.746 -2.02453 0.642366 0
M  V30 5877 H 537.009 -0.920548 0.226487 0
M  V30 5878 H 536.715 -3.50783 0.253859 0
M  V30 5879 H 536.589 -3.46274 -1.49579 0
M  V30 5880 H 538.976 -2.47685 -1.60425 0
M  V30 5881 H 539.057 -2.55289 0.161669 0
M  V30 5882 H 538.701 -5.07878 0.0469464 0
M  V30 5883 H 538.631 -4.97369 -1.73009 0
M  V30 5884 H 541.122 -3.68141 -0.85327 0
M  V30 5885 H 541.435 -7.64493 -1.13007 0
M  V30 5886 H 539.78 -6.87427 -1.02318 0
M  V30 5887 H 542.971 -4.5784 -0.974687 0
M  V30 5888 H 543.144 -6.38576 -1.10113 0
M  V30 5889 N 536.55 0.480323 -1.50102 0
M  V30 5890 C 537.497 1.57946 -1.6829 0
M  V30 5891 C 538.467 1.57611 -0.524223 0
M  V30 5892 O 539.652 1.75282 -0.753709 0
M  V30 5893 C 536.792 2.95978 -1.77457 0
M  V30 5894 C 535.905 3.06173 -3.04766 0
M  V30 5895 C 535.04 4.35063 -3.04784 0
M  V30 5896 C 534.079 4.38966 -4.26586 0
M  V30 5897 N 533.216 5.59314 -4.24396 0
M  V30 5898 H 538.056 1.41743 -2.62131 0
M  V30 5899 H 535.593 0.689304 -1.2995 0
M  V30 5900 H 537.551 3.76011 -1.80752 0
M  V30 5901 H 536.181 3.10837 -0.870637 0
M  V30 5902 H 535.233 2.19071 -3.10986 0
M  V30 5903 H 536.545 3.04916 -3.9475 0
M  V30 5904 H 535.699 5.23436 -3.06757 0
M  V30 5905 H 534.438 4.38915 -2.12614 0
M  V30 5906 H 533.443 3.48992 -4.24835 0
M  V30 5907 H 534.668 4.36813 -5.19972 0
M  V30 5908 H 532.614 5.63969 -3.35074 0
M  V30 5909 H 532.531 5.5976 -5.08138 0
M  V30 5910 H 533.799 6.49837 -4.30502 0
M  V30 5911 N 538.028 1.39524 0.732853 0
M  V30 5912 C 538.958 1.41153 1.86005 0
M  V30 5913 C 539.939 0.274614 1.67869 0
M  V30 5914 O 541.124 0.480745 1.88155 0
M  V30 5915 C 538.254 1.25638 3.23778 0
M  V30 5916 C 537.208 2.36752 3.56556 0
M  V30 5917 C 536.534 2.06326 4.93289 0
M  V30 5918 C 537.834 3.79069 3.5931 0
M  V30 5919 H 539.528 2.35484 1.84899 0
M  V30 5920 H 537.074 1.13348 0.888162 0
M  V30 5921 H 539.027 1.25398 4.0231 0
M  V30 5922 H 537.751 0.277772 3.25417 0
M  V30 5923 H 536.41 2.36213 2.80355 0
M  V30 5924 H 536.058 1.06897 4.9151 0
M  V30 5925 H 535.758 2.80757 5.16187 0
M  V30 5926 H 537.282 2.07739 5.74175 0
M  V30 5927 H 538.696 3.81526 4.27914 0
M  V30 5928 H 537.093 4.52878 3.93728 0
M  V30 5929 H 538.163 4.09893 2.59068 0
M  V30 5930 N 539.506 -0.963266 1.24736 0
M  V30 5931 C 540.436 -2.07628 1.06832 0
M  V30 5932 C 541.417 -1.70088 -0.0200566 0
M  V30 5933 O 542.602 -1.93636 0.147854 0
M  V30 5934 C 539.732 -3.40636 0.677069 0
M  V30 5935 C 538.686 -3.9215 1.71471 0
M  V30 5936 C 538.012 -5.21553 1.1784 0
M  V30 5937 C 539.312 -4.19493 3.11164 0
M  V30 5938 H 541.006 -2.22864 1.9993 0
M  V30 5939 H 538.552 -1.07093 0.96266 0
M  V30 5940 H 540.505 -4.17941 0.538792 0
M  V30 5941 H 539.229 -3.25313 -0.289612 0
M  V30 5942 H 537.888 -3.17005 1.84128 0
M  V30 5943 H 537.536 -5.02593 0.202195 0
M  V30 5944 H 537.236 -5.56988 1.87185 0
M  V30 5945 H 538.76 -6.01463 1.05233 0
M  V30 5946 H 540.174 -4.87487 3.01711 0
M  V30 5947 H 538.571 -4.66165 3.77902 0
M  V30 5948 H 539.641 -3.26097 3.58871 0
M  V30 5949 N 540.985 -1.06182 -1.16461 0
M  V30 5950 C 542.233 -0.776326 -1.86595 0
M  V30 5951 C 542.554 0.69921 -1.82033 0
M  V30 5952 O 541.824 1.50579 -1.2531 0
M  V30 5953 H 540.404 -0.284184 -0.690832 0
M  V30 5954 H 543.066 -1.34308 -1.41235 0
M  V30 5955 H 542.162 -1.10022 -2.92064 0
M  V30 5956 N 542.463 1.3308 -0.844243 0
M  V30 5957 C 543.691 2.01808 -0.456203 0
M  V30 5958 C 544.106 1.63498 0.944131 0
M  V30 5959 O 543.463 0.85102 1.61443 0
M  V30 5960 C 543.514 3.56922 -0.573513 0
M  V30 5961 O 543.235 3.93851 -1.91868 0
M  V30 5962 C 544.736 4.42922 -0.183125 0
M  V30 5963 H 541.956 0.646273 -0.180477 0
M  V30 5964 H 544.5 1.69891 -1.1383 0
M  V30 5965 H 542.655 3.87352 0.0607367 0
M  V30 5966 H 543.069 4.88564 -1.90802 0
M  V30 5967 H 544.543 5.51093 -0.316241 0
M  V30 5968 H 545.02 4.30386 0.875477 0
M  V30 5969 H 545.626 4.1786 -0.792027 0
M  V30 5970 N 543.941 0.601185 1.45683 0
M  V30 5971 C 544.888 -0.121396 2.30481 0
M  V30 5972 C 545.858 -0.866232 1.41724 0
M  V30 5973 O 547.043 -0.85324 1.70659 0
M  V30 5974 C 544.183 -1.11704 3.26521 0
M  V30 5975 C 543.296 -0.373741 4.3038 0
M  V30 5976 C 542.431 -1.35854 5.13534 0
M  V30 5977 C 541.47 -0.602689 6.09126 0
M  V30 5978 N 540.607 -1.53645 6.85082 0
M  V30 5979 H 545.447 0.607732 2.91737 0
M  V30 5980 H 542.984 0.311502 1.43764 0
M  V30 5981 H 544.942 -1.70735 3.80664 0
M  V30 5982 H 543.572 -1.81366 2.67032 0
M  V30 5983 H 542.624 0.331962 3.78949 0
M  V30 5984 H 543.936 0.2163 4.98331 0
M  V30 5985 H 543.09 -2.02111 5.72046 0
M  V30 5986 H 541.829 -1.98251 4.45587 0
M  V30 5987 H 540.834 0.0735482 5.49751 0
M  V30 5988 H 542.059 0.0161467 6.79098 0
M  V30 5989 H 540.005 -2.14819 6.1983 0
M  V30 5990 H 539.922 -0.999688 7.49361 0
M  V30 5991 H 541.19 -2.1888 7.48139 0
M  V30 5992 N 545.419 -1.53889 0.339982 0
M  V30 5993 C 546.83 -1.86139 -0.144671 0
M  V30 5994 C 547.181 -1.2613 -1.50285 0
M  V30 5995 O 546.306 -0.573515 -2.08662 0
M  V30 5996 C 546.901 -3.37728 -0.269285 0
M  V30 5997 C 545.46 -3.69868 -0.698168 0
M  V30 5998 C 544.607 -2.76777 0.170249 0
M  V30 5999 H 547.558 -1.48503 0.559704 0
M  V30 6000 H 547.579 -3.64331 -1.0974 0
M  V30 6001 H 547.091 -3.81375 0.719366 0
M  V30 6002 H 545.192 -3.31764 -1.69597 0
M  V30 6003 H 545.305 -4.76582 -0.490533 0
M  V30 6004 H 543.669 -2.52188 -0.356844 0
M  V30 6005 H 544.452 -3.23253 1.15597 0
M  V30 6006 N 546.897 -0.0685191 -1.57451 0
M  V30 6007 C 547.844 0.899861 -2.12535 0
M  V30 6008 C 548.814 1.29749 -1.03703 0
M  V30 6009 O 549.999 1.38392 -1.31348 0
M  V30 6010 C 547.139 2.16328 -2.6888 0
M  V30 6011 C 546.252 1.81857 -3.91857 0
M  V30 6012 C 545.387 3.02786 -4.36457 0
M  V30 6013 C 544.426 2.64317 -5.5209 0
M  V30 6014 N 543.563 3.77994 -5.91663 0
M  V30 6015 H 548.403 0.423243 -2.94979 0
M  V30 6016 H 545.94 0.197268 -1.45771 0
M  V30 6017 H 547.898 2.90281 -2.99655 0
M  V30 6018 H 546.528 2.61536 -1.89206 0
M  V30 6019 H 545.58 0.979808 -3.67565 0
M  V30 6020 H 546.892 1.49553 -4.75852 0
M  V30 6021 H 546.046 3.85021 -4.68875 0
M  V30 6022 H 544.785 3.38281 -3.51308 0
M  V30 6023 H 543.79 1.80503 -5.19325 0
M  V30 6024 H 545.015 2.29995 -6.38967 0
M  V30 6025 H 542.961 4.13258 -5.09464 0
M  V30 6026 H 542.878 3.49447 -6.7039 0
M  V30 6027 H 544.146 4.60818 -6.28703 0
M  V30 6028 N 548.375 1.56261 0.205012 0
M  V30 6029 C 549.652 1.70856 0.952233 0
M  V30 6030 C 550.032 0.620501 2.01775 0
M  V30 6031 O 549.38 -0.370035 2.25484 0
M  V30 6032 C 549.59 3.12807 1.54767 0
M  V30 6033 C 550.938 3.72733 2.0336 0
M  V30 6034 O 551.962 3.15873 1.64629 0
M  V30 6035 O 550.821 4.72501 2.746 0
M  V30 6036 H 547.915 0.696496 0.445895 0
M  V30 6037 H 550.461 1.6857 0.195489 0
M  V30 6038 H 549.233 3.83465 0.779132 0
M  V30 6039 H 548.856 3.1928 2.36951 0
M  V30 6040 N 549.853 -0.472356 1.50355 0
M  V30 6041 C 551.078 -1.25251 1.65309 0
M  V30 6042 C 551.503 -1.85081 0.335643 0
M  V30 6043 O 550.861 -1.67227 -0.700335 0
M  V30 6044 C 550.909 -2.3379 2.74544 0
M  V30 6045 O 550.013 -3.38401 2.35709 0
M  V30 6046 H 549.354 -0.368539 0.552336 0
M  V30 6047 H 551.884 -0.562271 1.96722 0
M  V30 6048 H 551.894 -2.79121 2.97583 0
M  V30 6049 H 550.569 -1.89614 3.70161 0
M  V30 6050 H 549.146 -2.9879 2.23112 0
M  V30 6051 N 551.331 -1.39911 -0.725443 0
M  V30 6052 C 552.577 -1.37858 -1.48738 0
M  V30 6053 C 552.91 0.0224187 -1.94187 0
M  V30 6054 O 552.185 0.989204 -1.67466 0
M  V30 6055 C 552.468 -2.3594 -2.72038 0
M  V30 6056 C 552.321 -3.85023 -2.32546 0
M  V30 6057 C 553.64 -2.31704 -3.74167 0
M  V30 6058 H 550.759 -0.502074 -0.539528 0
M  V30 6059 H 553.401 -1.70974 -0.828728 0
M  V30 6060 H 551.551 -2.0783 -3.28236 0
M  V30 6061 H 553.223 -4.2392 -1.81905 0
M  V30 6062 H 551.466 -4.01334 -1.64661 0
M  V30 6063 H 552.137 -4.49152 -3.20884 0
M  V30 6064 H 554.613 -2.5658 -3.27576 0
M  V30 6065 H 553.489 -3.02395 -4.58092 0
M  V30 6066 H 553.75 -1.3253 -4.21768 0
M  V30 6067 N 552.809 0.956637 -1.25245 0
M  V30 6068 C 554.039 1.7332 -1.12445 0
M  V30 6069 C 554.447 1.86392 0.324732 0
M  V30 6070 O 553.79 1.35967 1.23526 0
M  V30 6071 C 553.852 3.16603 -1.70303 0
M  V30 6072 C 553.516 3.26966 -3.19284 0
M  V30 6073 C 554.513 3.11434 -4.16299 0
M  V30 6074 C 552.198 3.50851 -3.59456 0
M  V30 6075 C 554.192 3.1963 -5.51467 0
M  V30 6076 C 551.879 3.58684 -4.94761 0
M  V30 6077 C 552.877 3.43087 -5.90576 0
M  V30 6078 O 552.565 3.50598 -7.2342 0
M  V30 6079 H 552.297 0.549981 -0.393061 0
M  V30 6080 H 554.851 1.20892 -1.66055 0
M  V30 6081 H 553.081 3.70385 -1.11138 0
M  V30 6082 H 554.77 3.76109 -1.52632 0
M  V30 6083 H 555.536 2.92853 -3.86604 0
M  V30 6084 H 551.415 3.62053 -2.85375 0
M  V30 6085 H 554.959 3.07373 -6.26233 0
M  V30 6086 H 550.856 3.76782 -5.24124 0
M  V30 6087 H 551.624 3.67242 -7.31489 0
M  V30 6088 N 554.287 1.06798 1.15896 0
M  V30 6089 C 555.536 0.782796 1.8589 0
M  V30 6090 C 555.849 -0.693498 1.82893 0
M  V30 6091 O 557.055 -1.09325 2.48516 0
M  V30 6092 C 555.511 1.3502 3.33613 0
M  V30 6093 C 555.119 2.8571 3.45071 0
M  V30 6094 C 556.863 1.14278 4.08829 0
M  V30 6095 C 554.77 3.35669 4.86909 0
M  V30 6096 H 553.7 0.289149 0.696354 0
M  V30 6097 H 556.351 1.28734 1.30766 0
M  V30 6098 H 554.733 0.773407 3.88374 0
M  V30 6099 H 555.907 3.49385 3.00445 0
M  V30 6100 H 554.222 3.05178 2.83294 0
M  V30 6101 H 556.819 1.49087 5.13495 0
M  V30 6102 H 557.162 0.0814575 4.1622 0
M  V30 6103 H 557.695 1.68563 3.60321 0
M  V30 6104 H 554.434 4.41302 4.84698 0
M  V30 6105 H 553.954 2.76745 5.32139 0
M  V30 6106 H 555.633 3.31296 5.55745 0
M  V30 6107 N 555.766 -1.3263 0.851289 0
M  V30 6108 C 556.716 -2.26451 0.265302 0
M  V30 6109 C 557.7 -1.49814 -0.586899 0
M  V30 6110 O 558.892 -1.71525 -0.436834 0
M  V30 6111 C 556.021 -3.38895 -0.548212 0
M  V30 6112 C 555.107 -4.2292 0.316189 0
M  V30 6113 N 555.498 -4.86014 1.40084 0
M  V30 6114 C 553.796 -4.45876 0.105356 0
M  V30 6115 C 554.497 -5.48667 1.93235 0
M  V30 6116 N 553.473 -5.29455 1.232 0
M  V30 6117 H 557.275 -2.72757 1.09457 0
M  V30 6118 H 554.789 -1.4668 0.697047 0
M  V30 6119 H 556.786 -4.05111 -0.984402 0
M  V30 6120 H 555.446 -2.94135 -1.37531 0
M  V30 6121 H 556.457 -4.86212 1.78377 0
M  V30 6122 H 553.134 -4.11804 -0.687299 0
M  V30 6123 H 554.524 -6.08865 2.84135 0
M  V30 6124 N 557.244 -0.608902 -1.45362 0
M  V30 6125 C 558.521 -0.0365378 -1.95566 0
M  V30 6126 C 558.901 1.43169 -1.55131 0
M  V30 6127 O 558.249 2.1349 -0.814513 0
M  V30 6128 C 558.459 -0.236026 -3.48201 0
M  V30 6129 C 559.807 -0.117518 -4.24437 0
M  V30 6130 O 560.831 -0.166217 -3.55812 0
M  V30 6131 O 559.69 -0.00372127 -5.465 0
M  V30 6132 H 556.784 0.0349874 -0.82626 0
M  V30 6133 H 559.33 -0.679055 -1.55521 0
M  V30 6134 H 558.102 -1.25569 -3.70605 0
M  V30 6135 H 557.725 0.441691 -3.95139 0
M  V30 6136 N 558.722 1.53707 -0.348139 0
M  V30 6137 C 559.672 2.2193 0.522592 0
M  V30 6138 C 560.656 1.20831 1.06248 0
M  V30 6139 O 561.848 1.46357 0.995415 0
M  V30 6140 C 558.977 2.99904 1.6707 0
M  V30 6141 C 558.063 4.08364 1.14454 0
M  V30 6142 N 558.454 5.04656 0.339958 0
M  V30 6143 C 556.752 4.22757 1.421 0
M  V30 6144 C 557.453 5.81675 0.0538806 0
M  V30 6145 N 556.429 5.39739 0.646776 0
M  V30 6146 H 560.231 2.93733 -0.099135 0
M  V30 6147 H 557.745 1.61656 -0.15524 0
M  V30 6148 H 559.742 3.47284 2.30651 0
M  V30 6149 H 558.402 2.29629 2.29566 0
M  V30 6150 H 559.413 5.17896 -0.0193552 0
M  V30 6151 H 556.09 3.63704 2.05002 0
M  V30 6152 H 557.48 6.69256 -0.595443 0
M  V30 6153 N 560.2 0.0768682 1.57412 0
M  V30 6154 C 561.11 -0.903207 2.16516 0
M  V30 6155 C 562.126 -1.32341 1.12968 0
M  V30 6156 O 563.302 -1.39507 1.45258 0
M  V30 6157 C 560.367 -2.1508 2.71922 0
M  V30 6158 C 559.428 -1.78653 3.90361 0
M  V30 6159 C 558.661 -2.97465 4.43114 0
M  V30 6160 O 558.884 -4.11638 3.94854 0
M  V30 6161 O 557.818 -2.76987 5.3438 0
M  V30 6162 H 561.644 -0.430427 3.00634 0
M  V30 6163 H 559.229 -0.146485 1.4868 0
M  V30 6164 H 561.111 -2.8823 3.07411 0
M  V30 6165 H 559.786 -2.61446 1.9086 0
M  V30 6166 H 558.693 -1.0274 3.59716 0
M  V30 6167 H 560.026 -1.37066 4.7273 0
M  V30 6168 N 561.678 -1.56367 -0.196722 0
M  V30 6169 C 562.626 -1.95304 -1.2633 0
M  V30 6170 C 563.62 -0.838252 -1.47206 0
M  V30 6171 O 564.826 -1.02325 -1.48087 0
M  V30 6172 H 561.201 -0.621013 -0.424083 0
M  V30 6173 H 563.172 -2.84254 -0.907879 0
M  V30 6174 C 561.921 -2.3074 -2.60104 0
M  V30 6175 H 561.244 -3.16047 -2.44856 0
M  V30 6176 H 562.684 -2.61849 -3.33484 0
M  V30 6177 C 561.143 -1.14143 -3.16975 0
M  V30 6178 O 561.673 -0.415602 -3.99544 0
M  V30 6179 N 559.879 -0.91867 -2.75697 0
M  V30 6180 H 559.426 -1.51065 -2.08656 0
M  V30 6181 H 559.384 -0.140321 -3.14087 0
M  V30 6182 N 563.156 0.464375 -1.50603 0
M  V30 6183 C 564.404 1.21356 -1.61608 0
M  V30 6184 C 564.725 1.92329 -0.321643 0
M  V30 6185 O 563.995 1.84403 0.661232 0
M  V30 6186 H 562.575 0.45094 -0.595535 0
M  V30 6187 H 565.237 0.535046 -1.87412 0
M  V30 6188 H 564.333 1.95783 -2.43054 0
M  V30 6189 N 564.634 1.40294 0.718013 0
M  V30 6190 C 565.597 1.4012 1.81381 0
M  V30 6191 C 566.597 0.295405 1.58063 0
M  V30 6192 O 567.787 0.554187 1.6515 0
M  V30 6193 C 564.919 1.19056 3.19435 0
M  V30 6194 H 566.112 2.37645 1.82933 0
M  V30 6195 H 563.665 1.26107 0.923405 0
M  V30 6196 H 564.4 0.222809 3.23534 0
M  V30 6197 H 564.185 1.99152 3.37758 0
M  V30 6198 H 565.675 1.21716 3.99468 0
M  V30 6199 N 566.112 -0.949982 1.2575 0
M  V30 6200 C 567.022 -2.08109 1.08295 0
M  V30 6201 C 568.038 -1.7399 0.0188181 0
M  V30 6202 O 569.214 -2.00187 0.220724 0
M  V30 6203 C 566.279 -3.39383 0.708534 0
M  V30 6204 C 565.34 -3.8734 1.85111 0
M  V30 6205 C 564.573 -5.12349 1.49447 0
M  V30 6206 O 564.796 -5.6905 0.392212 0
M  V30 6207 O 563.73 -5.5513 2.32624 0
M  V30 6208 H 567.556 -2.25738 2.03165 0
M  V30 6209 H 565.141 -1.06545 1.04731 0
M  V30 6210 H 567.023 -4.18277 0.512061 0
M  V30 6211 H 565.698 -3.23013 -0.210854 0
M  V30 6212 H 564.605 -3.09429 2.10248 0
M  V30 6213 H 565.938 -4.08216 2.74991 0
M  V30 6214 N 567.59 -1.07411 -1.15328 0
M  V30 6215 C 568.867 -0.710732 -1.82231 0
M  V30 6216 C 569.247 0.806732 -1.95077 0
M  V30 6217 O 568.595 1.72139 -1.50268 0
M  V30 6218 C 568.805 -1.42586 -3.18544 0
M  V30 6219 C 570.153 -1.57836 -3.94174 0
M  V30 6220 O 571.177 -1.38669 -3.281 0
M  V30 6221 O 570.036 -1.8938 -5.12638 0
M  V30 6222 H 567.13 -0.25297 -0.78736 0
M  V30 6223 H 569.676 -1.17508 -1.22434 0
M  V30 6224 H 568.448 -2.46008 -3.04296 0
M  V30 6225 H 568.071 -0.952332 -3.86026 0
M  V30 6226 N 569.068 1.32177 -0.85831 0
M  V30 6227 C 570.293 2.01847 -0.476718 0
M  V30 6228 C 570.718 1.64065 0.920021 0
M  V30 6229 O 570.076 0.843189 1.60499 0
M  V30 6230 C 570.124 3.55097 -0.627578 0
M  V30 6231 O 569.228 4.11012 0.338086 0
M  V30 6232 H 568.569 0.635907 -0.191099 0
M  V30 6233 H 571.099 1.68641 -1.15851 0
M  V30 6234 H 571.109 4.04718 -0.516476 0
M  V30 6235 H 569.784 3.81938 -1.64609 0
M  V30 6236 H 568.361 3.72451 0.182917 0
M  V30 6237 N 570.547 0.616602 1.45037 0
M  V30 6238 C 571.495 -0.109318 2.32343 0
M  V30 6239 C 572.489 -0.850543 1.465 0
M  V30 6240 O 573.695 -0.765088 1.62931 0
M  V30 6241 H 570.07 -0.0541091 0.750051 0
M  V30 6242 H 572.041 0.645326 2.91338 0
M  V30 6243 C 570.79 -1.0872 3.30266 0
M  V30 6244 H 570.113 -0.526267 3.96321 0
M  V30 6245 H 571.553 -1.56489 3.94065 0
M  V30 6246 C 570.012 -2.16525 2.58105 0
M  V30 6247 O 570.542 -3.244 2.36913 0
M  V30 6248 N 568.748 -1.92057 2.18088 0
M  V30 6249 H 568.295 -1.04337 2.35524 0
M  V30 6250 H 568.253 -2.64391 1.70131 0
M  V30 6251 N 572.025 -1.5352 0.356285 0
M  V30 6252 C 573.271 -2.01414 -0.236653 0
M  V30 6253 C 573.604 -1.24339 -1.49176 0
M  V30 6254 O 572.879 -0.334496 -1.91602 0
M  V30 6255 C 573.162 -3.56059 -0.537982 0
M  V30 6256 C 573.015 -4.43835 0.730112 0
M  V30 6257 C 574.334 -4.19127 -1.34239 0
M  V30 6258 H 571.453 -0.732135 -0.0845386 0
M  V30 6259 H 574.095 -1.83854 0.479341 0
M  V30 6260 H 572.245 -3.71153 -1.14795 0
M  V30 6261 H 573.917 -4.40555 1.36782 0
M  V30 6262 H 572.16 -4.1218 1.3524 0
M  V30 6263 H 572.831 -5.49958 0.474358 0
M  V30 6264 H 575.307 -4.07809 -0.826498 0
M  V30 6265 H 574.183 -5.27378 -1.52198 0
M  V30 6266 H 574.444 -3.74581 -2.34822 0
M  V30 6267 N 573.503 -0.0852151 -1.57369 0
M  V30 6268 C 574.466 0.8627 -2.12344 0
M  V30 6269 C 575.466 1.21746 -1.05046 0
M  V30 6270 O 576.656 1.14852 -1.30976 0
M  V30 6271 C 573.788 2.1618 -2.63589 0
M  V30 6272 H 574.981 0.385511 -2.97412 0
M  V30 6273 H 572.534 0.163663 -1.55441 0
M  V30 6274 H 573.269 2.68406 -1.82013 0
M  V30 6275 H 573.054 1.91723 -3.4203 0
M  V30 6276 H 574.544 2.84011 -3.06149 0
M  V30 6277 N 574.981 1.5647 0.188427 0
M  V30 6278 C 575.911 1.98101 1.23606 0
M  V30 6279 C 576.892 0.853961 1.47111 0
M  V30 6280 O 578.077 1.11879 1.58735 0
M  V30 6281 C 575.207 2.32624 2.57882 0
M  V30 6282 C 574.161 3.48129 2.48978 0
M  V30 6283 C 573.487 3.68347 3.87588 0
M  V30 6284 C 574.787 4.82112 2.00911 0
M  V30 6285 H 576.481 2.85864 0.890068 0
M  V30 6286 H 574.027 1.37532 0.426714 0
M  V30 6287 H 575.98 2.60343 3.3136 0
M  V30 6288 H 574.704 1.41751 2.94235 0
M  V30 6289 H 573.363 3.20511 1.77956 0
M  V30 6290 H 573.011 2.74793 4.21305 0
M  V30 6291 H 572.711 4.46055 3.82503 0
M  V30 6292 H 574.235 3.98449 4.62678 0
M  V30 6293 H 575.649 5.08819 2.64151 0
M  V30 6294 H 574.046 5.63337 2.06814 0
M  V30 6295 H 575.116 4.75249 0.96262 0
M  V30 6296 N 576.459 -0.456382 1.50847 0
M  V30 6297 C 577.369 -1.57805 1.73594 0
M  V30 6298 C 578.385 -1.62599 0.619476 0
M  V30 6299 O 579.561 -1.80195 0.899532 0
M  V30 6300 C 576.626 -2.93926 1.8387 0
M  V30 6301 C 575.687 -2.99402 3.07663 0
M  V30 6302 C 574.92 -4.29031 3.1744 0
M  V30 6303 O 575.143 -5.20358 2.33631 0
M  V30 6304 O 574.077 -4.40401 4.10281 0
M  V30 6305 H 577.903 -1.41531 2.68705 0
M  V30 6306 H 575.488 -0.637422 1.3512 0
M  V30 6307 H 577.37 -3.74747 1.92725 0
M  V30 6308 H 576.045 -3.10368 0.91944 0
M  V30 6309 H 574.952 -2.17606 3.043 0
M  V30 6310 H 576.285 -2.87901 3.99216 0
M  V30 6311 N 577.937 -1.40673 -0.710563 0
M  V30 6312 C 578.884 -1.41336 -1.82463 0
M  V30 6313 C 579.854 -0.269648 -1.63897 0
M  V30 6314 O 581.039 -0.468463 -1.8496 0
M  V30 6315 C 578.179 -1.28665 -3.20218 0
M  V30 6316 C 577.292 -2.52784 -3.5032 0
M  V30 6317 C 576.427 -2.32517 -4.77608 0
M  V30 6318 C 575.466 -3.52187 -5.0063 0
M  V30 6319 N 574.603 -3.31084 -6.19135 0
M  V30 6320 H 579.443 -2.36558 -1.8123 0
M  V30 6321 H 576.98 -1.17483 -0.885226 0
M  V30 6322 H 578.938 -1.19324 -3.99772 0
M  V30 6323 H 577.568 -0.370602 -3.20666 0
M  V30 6324 H 576.62 -2.72634 -2.65283 0
M  V30 6325 H 577.932 -3.41845 -3.63241 0
M  V30 6326 H 577.086 -2.20558 -5.65189 0
M  V30 6327 H 575.825 -1.40889 -4.66906 0
M  V30 6328 H 574.83 -3.64617 -4.11502 0
M  V30 6329 H 576.055 -4.44749 -5.13201 0
M  V30 6330 H 574.001 -2.42143 -6.09674 0
M  V30 6331 H 573.918 -4.13713 -6.32754 0
M  V30 6332 H 575.186 -3.22868 -7.0949 0
M  V30 6333 N 579.415 0.9433 -1.26252 0
M  V30 6334 C 580.345 2.05902 -1.10122 0
M  V30 6335 C 581.326 1.70099 -0.00700552 0
M  V30 6336 O 582.511 1.93377 -0.178641 0
M  V30 6337 C 579.641 3.39516 -0.731175 0
M  V30 6338 C 578.595 3.89372 -1.77688 0
M  V30 6339 C 577.921 5.19613 -1.26122 0
M  V30 6340 C 579.221 4.14489 -3.17799 0
M  V30 6341 H 580.915 2.19655 -2.03451 0
M  V30 6342 H 578.461 1.05548 -0.979576 0
M  V30 6343 H 580.414 4.17031 -0.605215 0
M  V30 6344 H 579.138 3.25733 0.23782 0
M  V30 6345 H 577.797 3.14036 -1.89148 0
M  V30 6346 H 577.445 5.02208 -0.282128 0
M  V30 6347 H 577.145 5.53939 -1.96023 0
M  V30 6348 H 578.669 5.99713 -1.14789 0
M  V30 6349 H 580.083 4.82625 -3.09428 0
M  V30 6350 H 578.48 4.60094 -3.85271 0
M  V30 6351 H 579.55 3.20347 -3.64014 0
M  V30 6352 N 580.893 1.08022 1.14757 0
M  V30 6353 C 582.309 0.807072 1.3769 0
M  V30 6354 C 582.509 -0.585504 1.92806 0
M  V30 6355 O 581.565 -1.34301 2.13821 0
M  V30 6356 C 582.878 1.88651 2.34161 0
M  V30 6357 C 584.426 1.91206 2.47809 0
M  V30 6358 C 584.901 2.98253 3.47576 0
M  V30 6359 N 586.392 2.974 3.55117 0
M  V30 6360 C 587.127 3.76872 4.32152 0
M  V30 6361 N 586.623 4.66212 5.12463 0
M  V30 6362 N 588.416 3.6519 4.27309 0
M  V30 6363 H 580.567 1.97824 0.77326 0
M  V30 6364 H 582.83 0.85826 0.402608 0
M  V30 6365 H 582.536 2.88749 2.00791 0
M  V30 6366 H 582.41 1.75244 3.3402 0
M  V30 6367 H 584.797 0.917564 2.80472 0
M  V30 6368 H 584.878 2.08691 1.47925 0
M  V30 6369 H 584.522 3.97907 3.15646 0
M  V30 6370 H 584.452 2.78014 4.47231 0
M  V30 6371 H 586.943 2.32643 2.97801 0
M  V30 6372 H 587.256 5.23468 5.68508 0
M  V30 6373 H 585.601 4.70257 5.11745 0
M  V30 6374 H 588.792 2.94765 3.63636 0
M  V30 6375 H 588.965 4.27366 4.87095 0
M  V30 6376 N 582.371 -1.3172 0.865308 0
M  V30 6377 C 583.648 -1.91574 0.394789 0
M  V30 6378 C 584.028 -1.78769 -1.12271 0
M  V30 6379 O 583.376 -1.19245 -1.94918 0
M  V30 6380 C 583.586 -3.37957 0.870982 0
M  V30 6381 C 584.934 -4.15073 0.894384 0
M  V30 6382 O 585.958 -3.4672 0.816325 0
M  V30 6383 O 584.817 -5.37151 1.00651 0
M  V30 6384 H 581.911 -0.818649 0.117229 0
M  V30 6385 H 584.457 -1.4042 0.952913 0
M  V30 6386 H 583.229 -3.41269 1.91444 0
M  V30 6387 H 582.852 -3.96534 0.290907 0
M  V30 6388 N 583.85 -0.624285 -1.44708 0
M  V30 6389 C 585.096 -0.126237 -2.02407 0
M  V30 6390 C 585.428 1.24618 -1.48943 0
M  V30 6391 O 584.704 1.82569 -0.670742 0
M  V30 6392 C 584.986 -0.105449 -3.59946 0
M  V30 6393 C 584.84 -1.50972 -4.23707 0
M  V30 6394 C 586.159 0.573629 -4.36346 0
M  V30 6395 H 583.278 -0.0473472 -0.735478 0
M  V30 6396 H 585.92 -0.799452 -1.72362 0
M  V30 6397 H 584.07 0.46783 -3.85673 0
M  V30 6398 H 585.742 -2.13136 -4.0911 0
M  V30 6399 H 583.985 -2.0656 -3.81465 0
M  V30 6400 H 584.656 -1.44727 -5.32689 0
M  V30 6401 H 587.132 0.0861787 -4.16011 0
M  V30 6402 H 586.008 0.557338 -5.46063 0
M  V30 6403 H 586.269 1.64276 -4.10446 0
M  V30 6404 N 585.328 1.53329 -0.364422 0
M  V30 6405 C 586.577 2.00421 0.226747 0
M  V30 6406 C 586.89 1.25581 1.49963 0
M  V30 6407 O 588.096 1.63256 2.16933 0
M  V30 6408 C 586.552 3.57017 0.454618 0
M  V30 6409 C 586.16 4.40734 -0.803568 0
M  V30 6410 C 587.904 4.12468 1.00351 0
M  V30 6411 C 585.811 5.8888 -0.545345 0
M  V30 6412 H 584.741 0.748787 0.0885082 0
M  V30 6413 H 587.392 1.7703 -0.482983 0
M  V30 6414 H 585.774 3.76558 1.22558 0
M  V30 6415 H 586.948 4.32967 -1.57723 0
M  V30 6416 H 585.263 3.96381 -1.27559 0
M  V30 6417 H 587.86 5.20783 1.212 0
M  V30 6418 H 588.203 3.6699 1.9653 0
M  V30 6419 H 588.736 3.96721 0.29274 0
M  V30 6420 H 585.475 6.38633 -1.47743 0
M  V30 6421 H 584.995 5.99499 0.189842 0
M  V30 6422 H 586.674 6.46776 -0.170425 0
M  V30 6423 N 586.806 0.0935595 1.57322 0
M  V30 6424 C 587.769 -0.851426 2.12799 0
M  V30 6425 C 588.769 -1.21187 1.0569 0
M  V30 6426 O 589.959 -1.14156 1.31583 0
M  V30 6427 C 587.091 -2.14779 2.64731 0
M  V30 6428 H 588.284 -0.369733 2.97612 0
M  V30 6429 H 585.837 -0.155417 1.55525 0
M  V30 6430 H 586.572 -2.67437 1.83434 0
M  V30 6431 H 586.357 -1.89907 3.43042 0
M  V30 6432 H 587.847 -2.82383 3.07651 0
M  V30 6433 N 588.284 -1.56567 -0.180126 0
M  V30 6434 C 589.216 -1.92275 -1.24751 0
M  V30 6435 C 590.229 -0.814922 -1.40936 0
M  V30 6436 O 591.418 -1.09336 -1.41095 0
M  V30 6437 C 588.518 -2.15265 -2.61752 0
M  V30 6438 C 587.691 -3.46467 -2.66981 0
M  V30 6439 C 586.75 -3.58391 -3.85283 0
M  V30 6440 O 585.776 -4.31086 -3.7169 0
M  V30 6441 N 586.978 -2.92587 -5.01371 0
M  V30 6442 H 589.743 -2.84435 -0.944302 0
M  V30 6443 H 587.304 -1.57617 -0.369952 0
M  V30 6444 H 589.296 -2.20515 -3.39345 0
M  V30 6445 H 587.866 -1.29533 -2.845 0
M  V30 6446 H 587.086 -3.52953 -1.75549 0
M  V30 6447 H 588.374 -4.32819 -2.67479 0
M  V30 6448 H 587.772 -2.3338 -5.15316 0
M  V30 6449 H 586.329 -3.03444 -5.76858 0
M  V30 6450 N 589.762 0.448376 -1.51087 0
M  V30 6451 C 591.002 1.20832 -1.64861 0
M  V30 6452 C 591.366 1.88748 -0.351873 0
M  V30 6453 O 592.567 2.66307 -0.365265 0
M  V30 6454 C 590.838 2.20674 -2.81137 0
M  V30 6455 S 592.397 3.05303 -3.15176 0
M  V30 6456 H 589.215 0.40992 -0.580936 0
M  V30 6457 H 591.817 0.501624 -1.88955 0
M  V30 6458 H 590.521 1.69399 -3.73808 0
M  V30 6459 H 590.052 2.9594 -2.59198 0
M  V30 6460 H 592.067 4.22162 -2.60756 0
M  V30 6461 N 591.24 1.41047 0.703093 0
M  V30 6462 C 592.489 1.39301 1.4587 0
M  V30 6463 C 592.802 0.00267077 1.956 0
M  V30 6464 O 594.008 -0.137414 2.71152 0
M  V30 6465 C 592.464 2.44891 2.63735 0
M  V30 6466 C 592.072 3.89796 2.20824 0
M  V30 6467 C 593.816 2.5227 3.41409 0
M  V30 6468 C 591.723 4.86955 3.35602 0
M  V30 6469 H 590.653 0.518005 0.547893 0
M  V30 6470 H 593.304 1.66839 0.764009 0
M  V30 6471 H 591.686 2.10472 3.35436 0
M  V30 6472 H 592.86 4.33424 1.56461 0
M  V30 6473 H 591.175 3.86008 1.56163 0
M  V30 6474 H 593.772 3.22044 4.26839 0
M  V30 6475 H 594.115 1.55714 3.86081 0
M  V30 6476 H 594.648 2.85742 2.7676 0
M  V30 6477 H 591.387 5.84888 2.9595 0
M  V30 6478 H 590.907 4.47982 3.98839 0
M  V30 6479 H 592.586 5.07361 4.01489 0
M  V30 6480 N 592.718 -0.936591 1.26751 0
M  V30 6481 C 593.648 -2.05315 1.11212 0
M  V30 6482 C 594.629 -1.70092 0.0160262 0
M  V30 6483 O 595.814 -1.93279 0.188894 0
M  V30 6484 C 592.944 -3.39123 0.749171 0
M  V30 6485 C 591.898 -3.88425 1.79751 0
M  V30 6486 C 591.224 -5.18936 1.28876 0
M  V30 6487 C 592.524 -4.12798 3.19992 0
M  V30 6488 H 594.218 -2.18573 2.04613 0
M  V30 6489 H 591.764 -1.05027 0.985159 0
M  V30 6490 H 593.717 -4.16704 0.627323 0
M  V30 6491 H 592.441 -3.25855 -0.220543 0
M  V30 6492 H 591.1 -3.13028 1.90811 0
M  V30 6493 H 590.748 -5.02051 0.308757 0
M  V30 6494 H 590.448 -5.52892 1.98958 0
M  V30 6495 H 591.972 -5.99096 1.17967 0
M  V30 6496 H 593.386 -4.80977 3.11983 0
M  V30 6497 H 591.783 -4.58044 3.87705 0
M  V30 6498 H 592.853 -3.18412 3.65707 0
M  V30 6499 N 594.196 -1.08629 -1.14182 0
M  V30 6500 C 595.607 -0.838003 -1.66836 0
M  V30 6501 C 595.958 0.634885 -1.85644 0
M  V30 6502 O 595.083 1.49008 -1.56926 0
M  V30 6503 C 595.678 -1.51465 -3.03058 0
M  V30 6504 C 594.237 -1.31355 -3.52736 0
M  V30 6505 C 593.384 -1.57599 -2.28162 0
M  V30 6506 H 596.335 -1.24656 -0.982165 0
M  V30 6507 H 596.356 -0.943134 -3.68626 0
M  V30 6508 H 595.868 -2.58661 -2.89337 0
M  V30 6509 H 593.969 -0.262384 -3.71675 0
M  V30 6510 H 594.082 -2.04275 -4.33369 0
M  V30 6511 H 592.446 -0.997659 -2.34348 0
M  V30 6512 H 593.229 -2.66006 -2.17015 0
M  V30 6513 N 595.674 1.31259 -0.872281 0
M  V30 6514 C 596.606 2.27396 -0.28697 0
M  V30 6515 C 597.619 1.53181 0.551297 0
M  V30 6516 O 598.808 1.74561 0.372914 0
M  V30 6517 C 595.908 3.33335 0.611617 0
M  V30 6518 C 595.081 4.36966 -0.194729 0
M  V30 6519 C 594.14 5.22387 0.632358 0
M  V30 6520 O 593.166 5.69169 0.0595691 0
M  V30 6521 N 594.368 5.46985 1.94391 0
M  V30 6522 H 597.133 2.78261 -1.11314 0
M  V30 6523 H 594.694 1.44306 -0.733994 0
M  V30 6524 H 596.686 3.87398 1.17068 0
M  V30 6525 H 595.256 2.82496 1.33846 0
M  V30 6526 H 594.476 3.82945 -0.935241 0
M  V30 6527 H 595.764 5.03273 -0.747935 0
M  V30 6528 H 595.162 5.10737 2.43237 0
M  V30 6529 H 593.719 6.03973 2.45071 0
M  V30 6530 N 597.152 0.631951 1.44375 0
M  V30 6531 C 598.115 -0.0628142 2.29114 0
M  V30 6532 C 599.115 -0.771494 1.41084 0
M  V30 6533 O 600.305 -0.615959 1.62947 0
M  V30 6534 C 597.437 -1.09953 3.22681 0
M  V30 6535 H 598.63 0.682509 2.92031 0
M  V30 6536 H 596.183 0.392128 1.51301 0
M  V30 6537 H 596.918 -1.87481 2.64616 0
M  V30 6538 H 596.703 -0.595286 3.87555 0
M  V30 6539 H 598.193 -1.58538 3.86336 0
M  V30 6540 N 598.631 -1.53133 0.372548 0
M  V30 6541 C 599.879 -2.00958 -0.214534 0
M  V30 6542 C 600.2 -1.26135 -1.48711 0
M  V30 6543 O 599.47 -0.376597 -1.92246 0
M  V30 6544 H 598.05 -0.742456 -0.0822664 0
M  V30 6545 H 600.712 -1.88367 0.500385 0
M  V30 6546 H 599.808 -3.09031 -0.436605 0
M  V30 6547 N 600.109 -0.101901 -1.5727 0
M  V30 6548 C 601.056 0.854577 -2.14396 0
M  V30 6549 C 602.026 1.27521 -1.06432 0
M  V30 6550 O 603.211 1.35575 -1.34253 0
M  V30 6551 C 600.351 2.10576 -2.73408 0
M  V30 6552 C 599.464 1.73504 -3.95626 0
M  V30 6553 C 598.599 2.9346 -4.42781 0
M  V30 6554 C 597.638 2.52547 -5.57572 0
M  V30 6555 N 596.775 3.65359 -5.99547 0
M  V30 6556 H 601.615 0.360578 -2.9581 0
M  V30 6557 H 599.152 0.166303 -1.46157 0
M  V30 6558 H 601.11 2.83859 -3.05745 0
M  V30 6559 H 599.74 2.57463 -1.94711 0
M  V30 6560 H 598.792 0.901622 -3.6956 0
M  V30 6561 H 600.104 1.39426 -4.78917 0
M  V30 6562 H 599.258 3.74988 -4.76937 0
M  V30 6563 H 597.997 3.30753 -3.58404 0
M  V30 6564 H 597.002 1.69446 -5.23037 0
M  V30 6565 H 598.227 2.1639 -6.43702 0
M  V30 6566 H 596.173 4.02358 -5.18116 0
M  V30 6567 H 596.09 3.35148 -6.77652 0
M  V30 6568 H 597.358 4.47378 -6.38336 0
M  V30 6569 N 601.587 1.56661 0.17182 0
M  V30 6570 C 602.835 1.81606 0.886774 0
M  V30 6571 C 603.156 0.678818 1.82803 0
M  V30 6572 O 602.426 -0.301354 1.93568 0
M  V30 6573 H 601.006 0.669934 0.330451 0
M  V30 6574 H 603.668 1.94142 0.171757 0
M  V30 6575 H 602.764 2.75634 1.46398 0
M  V30 6576 N 603.065 -0.440357 1.51323 0
M  V30 6577 C 603.975 -1.55955 1.75258 0
M  V30 6578 C 604.991 -1.61933 0.636687 0
M  V30 6579 O 606.167 -1.79231 0.918593 0
M  V30 6580 C 603.232 -2.9196 1.86977 0
M  V30 6581 C 602.293 -2.96122 3.10822 0
M  V30 6582 C 601.526 -4.2564 3.21973 0
M  V30 6583 O 601.749 -5.17851 2.39137 0
M  V30 6584 O 600.683 -4.36025 4.14929 0
M  V30 6585 H 604.509 -1.38673 2.70191 0
M  V30 6586 H 602.094 -0.623055 1.35788 0
M  V30 6587 H 603.976 -3.72682 1.96688 0
M  V30 6588 H 602.651 -3.09375 0.952307 0
M  V30 6589 H 601.558 -2.14366 3.06591 0
M  V30 6590 H 602.891 -2.83651 4.02247 0
M  V30 6591 N 604.543 -1.41418 -0.695603 0
M  V30 6592 C 605.491 -1.43467 -1.83084 0
M  V30 6593 C 606.485 -0.312719 -1.66489 0
M  V30 6594 O 607.691 -0.484744 -1.7335 0
M  V30 6595 H 604.066 -0.448891 -0.603325 0
M  V30 6596 H 606.037 -2.39144 -1.78473 0
M  V30 6597 C 604.786 -1.3337 -3.21104 0
M  V30 6598 H 604.109 -2.18989 -3.3449 0
M  V30 6599 H 605.549 -1.38865 -4.00615 0
M  V30 6600 C 604.008 -0.0460484 -3.36869 0
M  V30 6601 O 604.538 0.909258 -3.91274 0
M  V30 6602 N 602.744 0.0300222 -2.90584 0
M  V30 6603 H 602.291 -0.748129 -2.46497 0
M  V30 6604 H 602.249 0.890991 -3.01511 0
M  V30 6605 N 606.021 0.929856 -1.27246 0
M  V30 6606 C 606.931 2.0636 -1.11592 0
M  V30 6607 C 607.947 1.73938 -0.046496 0
M  V30 6608 O 609.123 1.9981 -0.252544 0
M  V30 6609 C 606.188 3.38213 -0.762437 0
M  V30 6610 C 605.249 3.84346 -1.9125 0
M  V30 6611 C 604.482 5.09906 -1.57579 0
M  V30 6612 O 604.705 5.68354 -0.482694 0
M  V30 6613 O 603.639 5.51359 -2.41426 0
M  V30 6614 H 607.465 2.22478 -2.0673 0
M  V30 6615 H 605.05 1.04865 -1.06413 0
M  V30 6616 H 606.932 4.1741 -0.57854 0
M  V30 6617 H 605.607 3.23307 0.159439 0
M  V30 6618 H 604.514 3.06045 -2.15144 0
M  V30 6619 H 605.847 4.0379 -2.81451 0
M  V30 6620 N 607.499 1.09233 1.13605 0
M  V30 6621 C 608.776 0.739633 1.81077 0
M  V30 6622 C 609.156 -0.775595 1.96336 0
M  V30 6623 O 608.504 -1.69726 1.52988 0
M  V30 6624 C 608.714 1.47636 3.16235 0
M  V30 6625 C 610.062 1.64087 3.91613 0
M  V30 6626 O 611.086 1.43871 3.25852 0
M  V30 6627 O 609.945 1.97511 5.0956 0
M  V30 6628 H 607.039 0.265464 0.783236 0
M  V30 6629 H 609.585 1.19441 1.20549 0
M  V30 6630 H 608.357 2.50818 3.00344 0
M  V30 6631 H 607.98 1.01362 3.84462 0
M  V30 6632 N 608.977 -1.30795 0.87923 0
M  V30 6633 C 609.887 -2.32041 0.345565 0
M  V30 6634 C 610.903 -1.65103 -0.549265 0
M  V30 6635 O 612.079 -1.9645 -0.443763 0
M  V30 6636 C 609.144 -3.43944 -0.436245 0
M  V30 6637 C 608.205 -4.26521 0.48765 0
M  V30 6638 C 607.438 -5.33081 -0.256943 0
M  V30 6639 O 607.661 -5.50762 -1.48381 0
M  V30 6640 O 606.595 -6.00635 0.389985 0
M  V30 6641 H 610.421 -2.79627 1.18501 0
M  V30 6642 H 608.006 -1.3486 0.642885 0
M  V30 6643 H 609.888 -4.12128 -0.879119 0
M  V30 6644 H 608.563 -2.98504 -1.25208 0
M  V30 6645 H 607.47 -3.61057 0.979216 0
M  V30 6646 H 608.803 -4.75551 1.26933 0
M  V30 6647 N 610.455 -0.639598 -1.44038 0
M  V30 6648 C 611.402 0.0602458 -2.30721 0
M  V30 6649 C 612.372 0.828352 -1.43971 0
M  V30 6650 O 613.557 0.807693 -1.72861 0
M  V30 6651 C 610.697 1.03008 -3.29368 0
M  V30 6652 C 609.81 0.259502 -4.3122 0
M  V30 6653 C 608.945 1.22191 -5.16955 0
M  V30 6654 C 607.984 0.440978 -6.10509 0
M  V30 6655 N 607.121 1.35428 -6.88915 0
M  V30 6656 H 611.961 -0.684867 -2.90023 0
M  V30 6657 H 609.498 -0.349509 -1.42888 0
M  V30 6658 H 611.456 1.60583 -3.85057 0
M  V30 6659 H 610.086 1.74222 -2.71747 0
M  V30 6660 H 609.138 -0.432317 -3.77935 0
M  V30 6661 H 610.45 -0.348347 -4.97582 0
M  V30 6662 H 609.604 1.86873 -5.77203 0
M  V30 6663 H 608.343 1.86367 -4.50687 0
M  V30 6664 H 607.348 -0.219279 -5.49363 0
M  V30 6665 H 608.573 -0.196192 -6.78817 0
M  V30 6666 H 606.519 1.9831 -6.25307 0
M  V30 6667 H 606.436 0.800657 -7.51748 0
M  V30 6668 H 607.704 1.98967 -7.53679 0
M  V30 6669 N 611.933 1.52934 -0.380664 0
M  V30 6670 C 612.863 2.29118 0.450268 0
M  V30 6671 C 613.844 1.32153 1.07096 0
M  V30 6672 O 615.029 1.61038 1.08537 0
M  V30 6673 C 612.159 3.09161 1.58231 0
M  V30 6674 C 611.113 4.13938 1.0881 0
M  V30 6675 C 610.439 4.82153 2.31155 0
M  V30 6676 C 611.739 5.22048 0.162146 0
M  V30 6677 H 613.433 2.98826 -0.185361 0
M  V30 6678 H 610.979 1.43715 -0.0905886 0
M  V30 6679 H 612.932 3.61211 2.17036 0
M  V30 6680 H 611.656 2.3717 2.2454 0
M  V30 6681 H 610.315 3.62855 0.522633 0
M  V30 6682 H 609.963 4.06719 2.95953 0
M  V30 6683 H 609.663 5.52966 1.98752 0
M  V30 6684 H 611.187 5.37004 2.90618 0
M  V30 6685 H 612.601 5.6951 0.658126 0
M  V30 6686 H 610.998 6.00057 -0.0717122 0
M  V30 6687 H 612.068 4.78398 -0.791438 0
M  V30 6688 N 613.412 0.11024 1.57214 0
M  V30 6689 C 614.36 -0.860586 2.16094 0
M  V30 6690 C 615.354 -1.28156 1.1078 0
M  V30 6691 O 616.56 -1.25433 1.29099 0
M  V30 6692 H 612.935 -0.295606 0.691463 0
M  V30 6693 H 614.906 -0.33942 2.96463 0
M  V30 6694 C 613.655 -2.10421 2.768 0
M  V30 6695 H 612.978 -1.7892 3.5753 0
M  V30 6696 H 614.418 -2.76375 3.21547 0
M  V30 6697 C 612.877 -2.88823 1.73444 0
M  V30 6698 O 613.407 -3.839 1.18251 0
M  V30 6699 N 611.613 -2.52649 1.43586 0
M  V30 6700 H 611.16 -1.754 1.8866 0
M  V30 6701 H 611.118 -3.05403 0.746735 0
M  V30 6702 N 614.89 -1.56749 -0.16351 0
M  V30 6703 C 615.8 -2.00255 -1.2221 0
M  V30 6704 C 616.816 -0.915194 -1.47987 0
M  V30 6705 O 617.992 -1.22342 -1.59982 0
M  V30 6706 C 615.057 -2.36035 -2.53946 0
M  V30 6707 C 614.118 -3.58637 -2.35962 0
M  V30 6708 C 613.351 -3.92701 -3.61416 0
M  V30 6709 O 613.574 -3.27632 -4.66919 0
M  V30 6710 O 612.508 -4.86019 -3.55062 0
M  V30 6711 H 616.334 -2.90586 -0.882794 0
M  V30 6712 H 613.919 -1.44721 -0.370978 0
M  V30 6713 H 615.801 -2.59982 -3.31643 0
M  V30 6714 H 614.476 -1.48863 -2.8744 0
M  V30 6715 H 613.383 -3.39898 -1.5627 0
M  V30 6716 H 614.716 -4.46374 -2.0739 0
M  V30 6717 N 616.368 0.432326 -1.51554 0
M  V30 6718 C 617.614 1.18309 -1.64714 0
M  V30 6719 C 617.947 1.90745 -0.364696 0
M  V30 6720 O 617.222 1.8381 0.635936 0
M  V30 6721 C 617.505 2.1961 -2.85383 0
M  V30 6722 C 617.358 1.51223 -4.23617 0
M  V30 6723 C 618.677 3.20538 -3.01569 0
M  V30 6724 H 615.796 0.428751 -0.599451 0
M  V30 6725 H 618.438 0.471689 -1.84052 0
M  V30 6726 H 616.588 2.8028 -2.69027 0
M  V30 6727 H 618.26 0.938516 -4.51652 0
M  V30 6728 H 616.503 0.814501 -4.26085 0
M  V30 6729 H 617.174 2.25024 -5.04052 0
M  V30 6730 H 619.65 2.69926 -3.16669 0
M  V30 6731 H 618.526 3.88706 -3.87555 0
M  V30 6732 H 618.787 3.86933 -2.13859 0
M  V30 6733 N 617.846 1.41785 0.688094 0
M  V30 6734 C 618.779 1.38643 1.81255 0
M  V30 6735 C 619.757 0.252583 1.60626 0
M  V30 6736 O 620.941 0.440691 1.83276 0
M  V30 6737 C 618.068 1.16449 3.18053 0
M  V30 6738 C 617.114 2.32651 3.57457 0
M  V30 6739 S 617.947 3.95152 3.61407 0
M  V30 6740 C 619.103 3.75275 5.00919 0
M  V30 6741 H 619.336 2.33799 1.83644 0
M  V30 6742 H 616.869 1.28398 0.857513 0
M  V30 6743 H 618.827 1.0433 3.97021 0
M  V30 6744 H 617.488 0.229002 3.13264 0
M  V30 6745 H 616.681 2.12835 4.56856 0
M  V30 6746 H 616.283 2.41215 2.85817 0
M  V30 6747 H 618.575 3.35443 5.88629 0
M  V30 6748 H 619.518 4.74302 5.25778 0
M  V30 6749 H 619.926 3.08401 4.7281 0
M  V30 6750 N 619.324 -0.923095 1.27737 0
M  V30 6751 C 620.256 -2.02871 1.06658 0
M  V30 6752 C 621.269 -1.62786 0.0212095 0
M  V30 6753 O 622.458 -1.76548 0.263267 0
M  V30 6754 C 619.558 -3.33603 0.59682 0
M  V30 6755 C 618.731 -4.02354 1.71551 0
M  V30 6756 C 617.79 -5.11364 1.24071 0
M  V30 6757 O 616.816 -5.35075 1.94123 0
M  V30 6758 N 618.018 -5.80416 0.0988444 0
M  V30 6759 H 620.783 -2.21515 2.01869 0
M  V30 6760 H 618.344 -1.09378 1.19365 0
M  V30 6761 H 620.336 -4.03845 0.262984 0
M  V30 6762 H 618.906 -3.11499 -0.262187 0
M  V30 6763 H 618.126 -3.25786 2.2194 0
M  V30 6764 H 619.414 -4.45035 2.46619 0
M  V30 6765 H 618.812 -5.63611 -0.485743 0
M  V30 6766 H 617.369 -6.51563 -0.17578 0
M  V30 6767 N 620.802 -1.09834 -1.13024 0
M  V30 6768 C 621.712 -0.753731 -2.22162 0
M  V30 6769 C 622.728 0.246105 -1.72251 0
M  V30 6770 O 623.904 0.0864051 -2.01215 0
M  V30 6771 C 620.969 -0.183958 -3.46212 0
M  V30 6772 C 620.03 -1.24028 -4.10993 0
M  V30 6773 C 619.263 -0.697597 -5.29121 0
M  V30 6774 O 619.486 0.478092 -5.68393 0
M  V30 6775 O 618.42 -1.4546 -5.84059 0
M  V30 6776 H 622.246 -1.66456 -2.5402 0
M  V30 6777 H 619.831 -0.873026 -1.21238 0
M  V30 6778 H 621.713 0.130257 -4.21199 0
M  V30 6779 H 620.388 0.699823 -3.16045 0
M  V30 6780 H 619.295 -1.60725 -3.37814 0
M  V30 6781 H 620.628 -2.09685 -4.45301 0
M  V30 6782 N 622.28 1.30327 -0.886154 0
M  V30 6783 C 623.243 2.26376 -0.358687 0
M  V30 6784 C 624.243 1.52845 0.499498 0
M  V30 6785 O 625.433 1.71483 0.306485 0
M  V30 6786 C 622.565 3.37379 0.488726 0
M  V30 6787 H 623.758 2.74547 -1.20681 0
M  V30 6788 H 621.311 1.41536 -0.663113 0
M  V30 6789 H 622.046 2.94526 1.35739 0
M  V30 6790 H 621.831 3.91897 -0.126003 0
M  V30 6791 H 623.321 4.08868 0.84952 0
M  V30 6792 N 623.758 0.647228 1.43697 0
M  V30 6793 C 625.004 0.167001 2.02713 0
M  V30 6794 C 625.359 -1.20351 1.50111 0
M  V30 6795 O 624.652 -1.79047 0.682113 0
M  V30 6796 C 624.846 0.111481 3.57226 0
M  V30 6797 C 624.675 1.47507 4.2482 0
M  V30 6798 C 623.445 2.06594 4.61137 0
M  V30 6799 C 625.643 2.41224 4.54219 0
M  V30 6800 N 623.625 3.3602 5.13774 0
M  V30 6801 C 624.996 3.55278 5.08112 0
M  V30 6802 C 627.051 2.40102 4.36183 0
M  V30 6803 C 625.754 4.68426 5.45866 0
M  V30 6804 C 627.78 3.52326 4.74995 0
M  V30 6805 C 627.142 4.65104 5.29015 0
M  V30 6806 H 623.241 0.105402 0.774864 0
M  V30 6807 H 625.825 0.854229 1.7496 0
M  V30 6808 H 623.996 -0.545073 3.84556 0
M  V30 6809 H 625.728 -0.379063 4.02921 0
M  V30 6810 H 622.483 1.59366 4.45981 0
M  V30 6811 H 622.907 4.02233 5.44552 0
M  V30 6812 H 627.549 1.54151 3.93697 0
M  V30 6813 H 625.267 5.55074 5.87298 0
M  V30 6814 H 628.853 3.52652 4.6274 0
M  V30 6815 H 627.733 5.50506 5.58492 0
M  V30 6816 N 625.236 -1.5273 0.388769 0
M  V30 6817 C 626.183 -2.26437 -0.446639 0
M  V30 6818 C 627.153 -1.28025 -1.05824 0
M  V30 6819 O 628.338 -1.56852 -1.08637 0
M  V30 6820 C 625.478 -3.07407 -1.56828 0
M  V30 6821 C 624.591 -4.20747 -0.979589 0
M  V30 6822 C 623.726 -4.89113 -2.07224 0
M  V30 6823 C 622.765 -5.94447 -1.45942 0
M  V30 6824 N 621.902 -6.56411 -2.49135 0
M  V30 6825 H 626.742 -2.97404 0.18837 0
M  V30 6826 H 624.279 -1.46727 0.104725 0
M  V30 6827 H 626.237 -3.52642 -2.22934 0
M  V30 6828 H 624.867 -2.3865 -2.17361 0
M  V30 6829 H 623.919 -3.7983 -0.208151 0
M  V30 6830 H 625.231 -4.9637 -0.491747 0
M  V30 6831 H 624.385 -5.3765 -2.81101 0
M  V30 6832 H 623.124 -4.13013 -2.59368 0
M  V30 6833 H 622.129 -5.4525 -0.705894 0
M  V30 6834 H 623.354 -6.7248 -0.945932 0
M  V30 6835 H 621.3 -5.83152 -3.00449 0
M  V30 6836 H 621.217 -7.27645 -2.05105 0
M  V30 6837 H 622.485 -7.09592 -3.22644 0
M  V30 6838 N 626.714 -0.118576 -1.57153 0
M  V30 6839 C 627.944 0.546466 -1.99242 0
M  V30 6840 C 628.352 1.60791 -0.997148 0
M  V30 6841 O 627.695 1.83691 0.0181745 0
M  V30 6842 C 627.757 1.23167 -3.37743 0
M  V30 6843 C 627.421 0.318226 -4.55891 0
M  V30 6844 C 628.418 -0.442988 -5.18009 0
M  V30 6845 C 626.103 0.229421 -5.01776 0
M  V30 6846 C 628.097 -1.28074 -6.244 0
M  V30 6847 C 625.784 -0.611966 -6.08028 0
M  V30 6848 C 626.782 -1.36568 -6.69207 0
M  V30 6849 O 626.47 -2.1931 -7.73407 0
M  V30 6850 H 626.202 0.149297 -0.659307 0
M  V30 6851 H 628.756 -0.201603 -2.04408 0
M  V30 6852 H 626.986 2.0268 -3.29329 0
M  V30 6853 H 628.675 1.79358 -3.64123 0
M  V30 6854 H 629.441 -0.38425 -4.83475 0
M  V30 6855 H 625.32 0.805771 -4.53903 0
M  V30 6856 H 628.864 -1.86952 -6.72082 0
M  V30 6857 H 624.761 -0.6721 -6.41991 0
M  V30 6858 H 625.529 -2.12247 -7.90502 0
M  V30 6859 N 628.193 1.56834 0.155195 0
M  V30 6860 C 629.141 1.98584 1.21107 0
M  V30 6861 C 630.135 0.876987 1.44932 0
M  V30 6862 O 631.341 1.06215 1.45322 0
M  V30 6863 H 627.716 0.632039 0.407469 0
M  V30 6864 H 629.687 2.86561 0.832195 0
M  V30 6865 C 628.436 2.37555 2.53895 0
M  V30 6866 H 627.759 3.22428 2.3639 0
M  V30 6867 H 629.199 2.70598 3.26424 0
M  V30 6868 C 627.658 1.22507 3.13837 0
M  V30 6869 O 628.188 0.521388 3.98302 0
M  V30 6870 N 626.394 0.991444 2.73164 0
M  V30 6871 H 625.941 1.56544 2.04577 0
M  V30 6872 H 625.899 0.223546 3.13604 0
M  V30 6873 N 629.671 -0.424282 1.51781 0
M  V30 6874 C 631.087 -0.761768 1.40247 0
M  V30 6875 C 631.287 -1.95324 0.495041 0
M  V30 6876 O 630.343 -2.5246 -0.0448949 0
M  V30 6877 C 631.656 -1.0299 2.82513 0
M  V30 6878 C 633.204 -1.13354 2.91753 0
M  V30 6879 C 633.679 -1.43453 4.34954 0
M  V30 6880 N 635.17 -1.5035 4.3812 0
M  V30 6881 C 635.905 -1.75236 5.45967 0
M  V30 6882 N 635.401 -1.97827 6.63955 0
M  V30 6883 N 637.194 -1.77126 5.33463 0
M  V30 6884 H 629.345 0.360228 2.09323 0
M  V30 6885 H 631.608 0.0988128 0.942836 0
M  V30 6886 H 631.314 -0.226961 3.50967 0
M  V30 6887 H 631.188 -1.95411 3.22637 0
M  V30 6888 H 633.575 -1.92709 2.23489 0
M  V30 6889 H 633.656 -0.188041 2.55108 0
M  V30 6890 H 633.3 -0.646209 5.03772 0
M  V30 6891 H 633.23 -2.3923 4.69123 0
M  V30 6892 H 635.721 -1.34742 3.53062 0
M  V30 6893 H 636.034 -2.16223 7.41935 0
M  V30 6894 H 634.379 -1.95123 6.67047 0
M  V30 6895 H 637.57 -1.59005 4.40267 0
M  V30 6896 H 637.743 -1.96182 6.17589 0
M  V30 6897 N 631.149 -1.42148 -0.680565 0
M  V30 6898 C 632.059 -1.47565 -1.82378 0
M  V30 6899 C 633.075 -0.36489 -1.70131 0
M  V30 6900 O 634.251 -0.614916 -1.91783 0
M  V30 6901 C 631.316 -1.37013 -3.18478 0
M  V30 6902 C 630.377 -2.58532 -3.42724 0
M  V30 6903 C 629.61 -2.48473 -4.72331 0
M  V30 6904 O 629.833 -1.51745 -5.49845 0
M  V30 6905 O 628.767 -3.38503 -4.97694 0
M  V30 6906 H 632.593 -2.44045 -1.80764 0
M  V30 6907 H 630.178 -1.23849 -0.835569 0
M  V30 6908 H 632.06 -1.33468 -3.99705 0
M  V30 6909 H 630.735 -0.436552 -3.20743 0
M  V30 6910 H 629.642 -2.67652 -2.61368 0
M  V30 6911 H 630.975 -3.50769 -3.45286 0
M  V30 6912 N 632.627 0.916307 -1.28225 0
M  V30 6913 C 633.867 1.67964 -1.16479 0
M  V30 6914 C 634.231 1.8991 0.282494 0
M  V30 6915 O 635.432 2.63671 0.522607 0
M  V30 6916 C 633.703 3.00251 -1.93866 0
M  V30 6917 S 635.262 3.91353 -1.98465 0
M  V30 6918 H 632.08 0.576873 -0.415619 0
M  V30 6919 H 634.682 1.09006 -1.62289 0
M  V30 6920 H 633.386 2.81978 -2.98189 0
M  V30 6921 H 632.917 3.64257 -1.48595 0
M  V30 6922 H 634.932 4.84096 -1.0893 0
M  V30 6923 N 634.105 1.10431 1.1244 0
M  V30 6924 C 635.052 0.753103 2.18167 0
M  V30 6925 C 636.022 -0.270549 1.63882 0
M  V30 6926 O 637.207 -0.149837 1.90211 0
M  V30 6927 C 634.347 0.191046 3.44571 0
M  V30 6928 C 633.46 1.26999 4.12911 0
M  V30 6929 C 632.595 0.669586 5.26963 0
M  V30 6930 C 631.634 1.72912 5.87169 0
M  V30 6931 N 630.771 1.14898 6.92635 0
M  V30 6932 H 635.611 1.65892 2.47556 0
M  V30 6933 H 633.148 0.828631 1.21541 0
M  V30 6934 H 635.106 -0.152712 4.1692 0
M  V30 6935 H 633.736 -0.677997 3.15599 0
M  V30 6936 H 632.788 1.73087 3.3874 0
M  V30 6937 H 634.1 2.07204 4.53727 0
M  V30 6938 H 633.254 0.275274 6.06075 0
M  V30 6939 H 631.993 -0.163895 4.87425 0
M  V30 6940 H 630.998 2.13286 5.06744 0
M  V30 6941 H 632.223 2.56544 6.28778 0
M  V30 6942 H 630.169 0.336956 6.55134 0
M  V30 6943 H 630.086 1.88786 7.32049 0
M  V30 6944 H 631.354 0.78121 7.75576 0
M  V30 6945 N 635.583 -1.29855 0.893053 0
M  V30 6946 C 636.513 -2.3035 0.382249 0
M  V30 6947 C 637.494 -1.61328 -0.539203 0
M  V30 6948 O 638.679 -1.88882 -0.451342 0
M  V30 6949 C 635.809 -3.45024 -0.396983 0
M  V30 6950 C 634.763 -4.258 0.433437 0
M  V30 6951 C 634.089 -5.32605 -0.472889 0
M  V30 6952 C 635.389 -4.94549 1.67984 0
M  V30 6953 H 637.083 -2.73325 1.22205 0
M  V30 6954 H 634.629 -1.314 0.589073 0
M  V30 6955 H 636.582 -4.14398 -0.765024 0
M  V30 6956 H 635.306 -3.00875 -1.2705 0
M  V30 6957 H 633.965 -3.58125 0.783723 0
M  V30 6958 H 633.613 -4.84702 -1.34435 0
M  V30 6959 H 633.313 -5.87547 0.0789958 0
M  V30 6960 H 634.837 -6.04832 -0.837269 0
M  V30 6961 H 636.251 -5.56395 1.38192 0
M  V30 6962 H 634.648 -5.59393 2.17254 0
M  V30 6963 H 635.718 -4.20215 2.41965 0
M  V30 6964 N 637.061 -0.65484 -1.43351 0
M  V30 6965 C 637.991 0.0221809 -2.33489 0
M  V30 6966 C 638.972 0.810272 -1.49561 0
M  V30 6967 O 640.157 0.771426 -1.78221 0
M  V30 6968 C 637.287 0.988117 -3.32947 0
M  V30 6969 C 636.241 0.310026 -4.26876 0
M  V30 6970 C 635.567 1.38752 -5.16384 0
M  V30 6971 C 636.867 -0.798589 -5.16159 0
M  V30 6972 H 638.561 -0.730571 -2.9035 0
M  V30 6973 H 636.107 -0.352773 -1.39612 0
M  V30 6974 H 638.06 1.47067 -3.94904 0
M  V30 6975 H 636.784 1.77205 -2.74346 0
M  V30 6976 H 635.443 -0.152097 -3.66284 0
M  V30 6977 H 635.091 2.16293 -4.54121 0
M  V30 6978 H 634.791 0.939051 -5.80048 0
M  V30 6979 H 636.315 1.87141 -5.81215 0
M  V30 6980 H 637.729 -0.398126 -5.71916 0
M  V30 6981 H 636.126 -1.17163 -5.88552 0
M  V30 6982 H 637.196 -1.65588 -4.55751 0
M  V30 6983 N 638.539 1.52521 -0.396863 0
M  V30 6984 C 639.955 1.5953 -0.0471659 0
M  V30 6985 C 640.155 1.41044 1.43906 0
M  V30 6986 O 639.211 1.23122 2.20448 0
M  V30 6987 C 640.524 2.95972 -0.531113 0
M  V30 6988 C 642.072 3.09172 -0.488024 0
M  V30 6989 C 642.547 4.48075 -0.948281 0
M  V30 6990 N 644.038 4.54281 -0.9046 0
M  V30 6991 C 644.773 5.60007 -1.23205 0
M  V30 6992 N 644.269 6.73343 -1.63036 0
M  V30 6993 N 646.062 5.50151 -1.15282 0
M  V30 6994 H 638.213 1.62786 -1.36435 0
M  V30 6995 H 640.476 0.76514 -0.559701 0
M  V30 6996 H 640.182 3.14741 -1.56942 0
M  V30 6997 H 640.056 3.77143 0.0657922 0
M  V30 6998 H 642.443 2.90095 0.541211 0
M  V30 6999 H 642.524 2.29937 -1.12083 0
M  V30 7000 H 642.168 4.67894 -1.97578 0
M  V30 7001 H 642.098 5.25788 -0.292412 0
M  V30 7002 H 644.589 3.72918 -0.6116 0
M  V30 7003 H 644.902 7.49992 -1.86365 0
M  V30 7004 H 643.247 6.74655 -1.66929 0
M  V30 7005 H 646.438 4.6049 -0.840602 0
M  V30 7006 H 646.611 6.32444 -1.41133 0
M  V30 7007 N 640.017 0.126909 1.57088 0
M  V30 7008 C 641.294 -0.573152 1.87014 0
M  V30 7009 C 641.674 -1.84297 1.02945 0
M  V30 7010 O 641.022 -2.28232 0.110573 0
M  V30 7011 C 641.232 -0.857984 3.38289 0
M  V30 7012 C 642.58 -1.20759 4.07066 0
M  V30 7013 O 643.604 -0.947992 3.43353 0
M  V30 7014 O 642.463 -1.69516 5.19545 0
M  V30 7015 H 639.557 -0.290082 0.774456 0
M  V30 7016 H 642.103 0.162008 1.68925 0
M  V30 7017 H 640.875 0.0415286 3.91278 0
M  V30 7018 H 640.498 -1.64803 3.61837 0
M  V30 7019 N 641.495 -1.56914 -0.146875 0
M  V30 7020 C 642.723 -1.87515 -0.874394 0
M  V30 7021 C 643.138 -0.715116 -1.74733 0
M  V30 7022 O 642.495 0.315113 -1.79759 0
M  V30 7023 C 642.546 -3.17362 -1.731 0
M  V30 7024 O 642.267 -4.28897 -0.893245 0
M  V30 7025 C 643.768 -3.61479 -2.56609 0
M  V30 7026 H 640.988 -0.621546 -0.252827 0
M  V30 7027 H 643.532 -2.04023 -0.139627 0
M  V30 7028 H 641.687 -3.02608 -2.41883 0
M  V30 7029 H 642.101 -5.03146 -1.48137 0
M  V30 7030 H 643.575 -4.5517 -3.12289 0
M  V30 7031 H 644.052 -2.86773 -3.32653 0
M  V30 7032 H 644.658 -3.78927 -1.93117 0
M  V30 7033 N 642.974 0.416227 -1.52004 0
M  V30 7034 C 643.904 1.51365 -1.77795 0
M  V30 7035 C 644.885 1.58059 -0.628601 0
M  V30 7036 O 646.07 1.73447 -0.873478 0
M  V30 7037 C 643.2 2.89256 -1.92219 0
M  V30 7038 C 642.154 2.97415 -3.0778 0
M  V30 7039 C 641.48 4.37492 -3.07417 0
M  V30 7040 C 642.78 2.69551 -4.47369 0
M  V30 7041 H 644.474 1.30033 -2.69688 0
M  V30 7042 H 642.02 0.624112 -1.29772 0
M  V30 7043 H 643.973 3.66008 -2.08845 0
M  V30 7044 H 642.697 3.11866 -0.969917 0
M  V30 7045 H 641.356 2.23107 -2.90893 0
M  V30 7046 H 641.004 4.571 -2.09925 0
M  V30 7047 H 640.704 4.43877 -3.85029 0
M  V30 7048 H 642.228 5.16188 -3.26162 0
M  V30 7049 H 643.642 3.36028 -4.64497 0
M  V30 7050 H 642.039 2.87321 -5.26846 0
M  V30 7051 H 643.109 1.65029 -4.55953 0
M  V30 7052 N 644.452 1.42507 0.673017 0
M  V30 7053 C 645.384 1.42074 1.79854 0
M  V30 7054 C 646.397 0.319569 1.59633 0
M  V30 7055 O 647.586 0.582769 1.68719 0
M  V30 7056 C 644.686 1.19886 3.16987 0
M  V30 7057 C 643.859 2.42471 3.64042 0
M  V30 7058 C 642.918 2.15802 4.79913 0
M  V30 7059 O 641.944 2.89015 4.90366 0
M  V30 7060 N 643.146 1.16225 5.68746 0
M  V30 7061 H 645.911 2.3909 1.8071 0
M  V30 7062 H 643.472 1.37409 0.856171 0
M  V30 7063 H 645.464 0.999591 3.92161 0
M  V30 7064 H 644.034 0.313879 3.1102 0
M  V30 7065 H 643.254 2.77954 2.79526 0
M  V30 7066 H 644.542 3.24097 3.92223 0
M  V30 7067 H 643.94 0.556756 5.62954 0
M  V30 7068 H 642.497 1.02285 6.43724 0
M  V30 7069 N 645.93 -0.909495 1.28709 0
M  V30 7070 C 647.155 -1.69801 1.1909 0
M  V30 7071 C 647.58 -1.86479 -0.246388 0
M  V30 7072 O 646.938 -1.37802 -1.17815 0
M  V30 7073 C 646.986 -3.06543 1.89904 0
M  V30 7074 O 646.09 -3.94268 1.2094 0
M  V30 7075 H 645.431 -0.519783 0.413185 0
M  V30 7076 H 647.961 -1.13689 1.70106 0
M  V30 7077 H 647.971 -3.56748 1.97977 0
M  V30 7078 H 646.646 -2.93722 2.94449 0
M  V30 7079 H 645.223 -3.52702 1.2106 0
M  V30 7080 N 647.408 -1.11026 -1.11852 0
M  V30 7081 C 648.655 -0.85646 -1.83497 0
M  V30 7082 C 648.983 0.617938 -1.84423 0
M  V30 7083 O 648.238 1.47194 -1.28966 0
M  V30 7084 C 648.537 -1.35777 -3.30604 0
M  V30 7085 C 648.203 -2.84465 -3.49843 0
M  V30 7086 C 646.865 -3.25068 -3.54802 0
M  V30 7087 C 649.217 -3.80251 -3.56453 0
M  V30 7088 C 646.545 -4.60194 -3.63921 0
M  V30 7089 C 648.897 -5.15188 -3.67102 0
M  V30 7090 C 647.561 -5.55356 -3.70319 0
M  V30 7091 H 646.831 -0.313401 -0.671462 0
M  V30 7092 H 649.478 -1.38792 -1.31943 0
M  V30 7093 H 647.783 -0.746455 -3.84624 0
M  V30 7094 H 649.48 -1.13779 -3.8452 0
M  V30 7095 H 646.07 -2.52054 -3.46651 0
M  V30 7096 H 650.254 -3.49986 -3.51886 0
M  V30 7097 H 645.51 -4.90728 -3.64686 0
M  V30 7098 H 649.684 -5.89248 -3.71159 0
M  V30 7099 H 647.311 -6.60054 -3.77138 0
M  V30 7100 N 648.886 1.2938 -0.899927 0
M  V30 7101 C 650.111 2.00228 -0.540692 0
M  V30 7102 C 650.536 1.66909 0.867359 0
M  V30 7103 O 649.894 0.893824 1.57735 0
M  V30 7104 C 649.942 3.52921 -0.740232 0
M  V30 7105 O 649.046 4.11879 0.207154 0
M  V30 7106 H 648.387 0.629505 -0.211233 0
M  V30 7107 H 650.917 1.6487 -1.21158 0
M  V30 7108 H 650.927 4.0287 -0.644973 0
M  V30 7109 H 649.602 3.76508 -1.76677 0
M  V30 7110 H 648.179 3.72845 0.0643315 0
M  V30 7111 N 650.364 0.662433 1.43002 0
M  V30 7112 C 651.61 0.188492 2.02525 0
M  V30 7113 C 651.965 -1.18752 1.51379 0
M  V30 7114 O 651.258 -1.78313 0.701065 0
M  V30 7115 C 651.452 0.149363 3.57088 0
M  V30 7116 C 651.281 1.52004 4.23231 0
M  V30 7117 C 650.051 2.11473 4.5892 0
M  V30 7118 C 652.249 2.46028 4.51635 0
M  V30 7119 N 650.231 3.4145 5.10181 0
M  V30 7120 C 651.602 3.60647 5.04315 0
M  V30 7121 C 653.657 2.44715 4.33612 0
M  V30 7122 C 652.36 4.74189 5.40867 0
M  V30 7123 C 654.386 3.57344 4.71232 0
M  V30 7124 C 653.748 4.70689 5.24053 0
M  V30 7125 H 649.847 0.113615 0.773703 0
M  V30 7126 H 652.431 0.872738 1.74044 0
M  V30 7127 H 650.602 -0.504255 3.85113 0
M  V30 7128 H 652.334 -0.336307 4.033 0
M  V30 7129 H 649.089 1.64087 4.44266 0
M  V30 7130 H 649.513 4.07987 5.40255 0
M  V30 7131 H 654.155 1.58318 3.9204 0
M  V30 7132 H 651.873 5.61271 5.81378 0
M  V30 7133 H 655.459 3.5754 4.58973 0
M  V30 7134 H 654.339 5.56398 5.52621 0
M  V30 7135 N 651.842 -1.52309 0.404946 0
M  V30 7136 C 652.79 -2.28452 -0.437321 0
M  V30 7137 C 653.784 -1.32975 -1.04948 0
M  V30 7138 O 654.99 -1.50451 -0.988159 0
M  V30 7139 H 651.365 -0.734824 -0.159805 0
M  V30 7140 H 653.336 -2.97542 0.22615 0
M  V30 7141 C 652.085 -3.11536 -1.54404 0
M  V30 7142 H 651.408 -3.84871 -1.08233 0
M  V30 7143 H 652.848 -3.67926 -2.10729 0
M  V30 7144 C 651.307 -2.24833 -2.50902 0
M  V30 7145 O 651.837 -1.88574 -3.54687 0
M  V30 7146 N 650.043 -1.88685 -2.21012 0
M  V30 7147 H 649.59 -2.18371 -1.36646 0
M  V30 7148 H 649.548 -1.30966 -2.85824 0
M  V30 7149 N 653.32 -0.135238 -1.57019 0
M  V30 7150 C 654.568 0.51777 -1.95355 0
M  V30 7151 C 654.889 1.6617 -1.02042 0
M  V30 7152 O 654.159 1.95738 -0.0797343 0
M  V30 7153 H 652.739 0.194264 -0.721298 0
M  V30 7154 H 655.401 -0.207983 -1.93787 0
M  V30 7155 H 654.497 0.901675 -2.98791 0
M  V30 7156 N 654.798 1.5699 0.138552 0
M  V30 7157 C 656.214 1.51844 0.491472 0
M  V30 7158 C 656.414 0.845063 1.82923 0
M  V30 7159 O 655.47 0.419143 2.48997 0
M  V30 7160 C 656.783 2.96615 0.493987 0
M  V30 7161 C 658.331 3.076 0.578913 0
M  V30 7162 C 658.806 4.53893 0.612009 0
M  V30 7163 N 660.297 4.5827 0.673997 0
M  V30 7164 C 661.032 5.68852 0.720729 0
M  V30 7165 N 660.528 6.88982 0.726292 0
M  V30 7166 N 662.321 5.56908 0.762253 0
M  V30 7167 H 654.472 1.99158 -0.738228 0
M  V30 7168 H 656.735 0.908693 -0.270149 0
M  V30 7169 H 656.441 3.49172 -0.420933 0
M  V30 7170 H 656.315 3.53017 1.32887 0
M  V30 7171 H 658.702 2.55057 1.48425 0
M  V30 7172 H 658.783 2.54227 -0.283286 0
M  V30 7173 H 658.427 5.07076 -0.289208 0
M  V30 7174 H 658.357 5.05057 1.49082 0
M  V30 7175 H 660.848 3.71793 0.676654 0
M  V30 7176 H 661.161 7.69014 0.764032 0
M  V30 7177 H 659.506 6.91526 0.69403 0
M  V30 7178 H 662.697 4.61969 0.755135 0
M  V30 7179 H 662.87 6.43102 0.795207 0
M  V30 7180 N 656.276 -0.40816 1.52223 0
M  V30 7181 C 657.524 -1.15274 1.66001 0
M  V30 7182 C 657.845 -1.91003 0.392803 0
M  V30 7183 O 657.115 -1.8673 -0.592336 0
M  V30 7184 H 655.695 -0.428526 0.611861 0
M  V30 7185 H 658.357 -0.46512 1.89269 0
M  V30 7186 H 657.453 -1.86628 2.50153 0
M  V30 7187 N 657.755 -1.42862 -0.66545 0
M  V30 7188 C 659.002 -1.4383 -1.42546 0
M  V30 7189 C 659.33 -0.0581114 -1.94413 0
M  V30 7190 O 658.585 0.935002 -1.71919 0
M  V30 7191 C 658.884 -2.4175 -2.63233 0
M  V30 7192 C 658.55 -3.87915 -2.29854 0
M  V30 7193 C 657.212 -4.27726 -2.20463 0
M  V30 7194 C 659.564 -4.80074 -2.02924 0
M  V30 7195 C 656.892 -5.57666 -1.82279 0
M  V30 7196 C 659.244 -6.10366 -1.66242 0
M  V30 7197 C 657.908 -6.49167 -1.55367 0
M  V30 7198 H 657.178 -0.52631 -0.521612 0
M  V30 7199 H 659.825 -1.75863 -0.757914 0
M  V30 7200 H 658.13 -2.03077 -3.35063 0
M  V30 7201 H 659.827 -2.39759 -3.21429 0
M  V30 7202 H 656.417 -3.564 -2.3807 0
M  V30 7203 H 660.601 -4.50097 -2.09108 0
M  V30 7204 H 655.857 -5.8658 -1.72436 0
M  V30 7205 H 660.031 -6.81258 -1.44432 0
M  V30 7206 H 657.658 -7.49761 -1.2555 0
M  V30 7207 N 659.233 0.902656 -1.29189 0
M  V30 7208 C 660.461 1.68639 -1.19869 0
M  V30 7209 C 660.876 1.87254 0.241121 0
M  V30 7210 O 660.233 1.40745 1.16177 0
M  V30 7211 C 660.284 3.07251 -1.90471 0
M  V30 7212 O 660.005 2.89488 -3.28829 0
M  V30 7213 C 661.506 4.01653 -1.8759 0
M  V30 7214 H 658.726 0.526802 -0.415596 0
M  V30 7215 H 661.27 1.12901 -1.7051 0
M  V30 7216 H 659.425 3.59774 -1.43672 0
M  V30 7217 H 659.839 3.77296 -3.64346 0
M  V30 7218 H 661.313 4.96339 -2.4156 0
M  V30 7219 H 661.79 4.30881 -0.850756 0
M  V30 7220 H 662.396 3.55061 -2.34119 0
M  V30 7221 N 660.711 1.11618 1.11262 0
M  V30 7222 C 661.988 0.777876 1.79467 0
M  V30 7223 C 662.368 -0.733774 1.97937 0
M  V30 7224 O 661.716 -1.66443 1.56554 0
M  V30 7225 C 661.926 1.5431 3.13032 0
M  V30 7226 C 663.274 1.72357 3.88044 0
M  V30 7227 O 664.298 1.5075 3.22727 0
M  V30 7228 O 663.157 2.08276 5.05256 0
M  V30 7229 H 660.251 0.282018 0.777428 0
M  V30 7230 H 662.797 1.21971 1.17988 0
M  V30 7231 H 661.569 2.57132 2.94956 0
M  V30 7232 H 661.192 1.09495 3.82226 0
M  V30 7233 N 662.189 -1.289 0.906776 0
M  V30 7234 C 663.136 -2.2751 0.388313 0
M  V30 7235 C 664.106 -1.57301 -0.533439 0
M  V30 7236 O 665.291 -1.85243 -0.457148 0
M  V30 7237 C 662.431 -3.43091 -0.37181 0
M  V30 7238 C 661.544 -4.28066 0.581647 0
M  V30 7239 C 660.679 -5.30837 -0.19623 0
M  V30 7240 C 659.718 -6.07472 0.751294 0
M  V30 7241 N 658.855 -7.021 0.00737727 0
M  V30 7242 H 663.695 -2.71237 1.23428 0
M  V30 7243 H 661.232 -1.33397 0.619962 0
M  V30 7244 H 663.19 -4.08888 -0.828641 0
M  V30 7245 H 661.82 -3.00374 -1.18218 0
M  V30 7246 H 660.872 -3.62378 1.157 0
M  V30 7247 H 662.184 -4.81382 1.30665 0
M  V30 7248 H 661.338 -6.02485 -0.71394 0
M  V30 7249 H 660.077 -4.78272 -0.954324 0
M  V30 7250 H 659.082 -5.34682 1.28044 0
M  V30 7251 H 660.307 -6.62126 1.50883 0
M  V30 7252 H 658.253 -6.51894 -0.732854 0
M  V30 7253 H 658.17 -7.53004 0.672334 0
M  V30 7254 H 659.438 -7.77956 -0.490365 0
M  V30 7255 N 663.667 -0.670007 -1.42649 0
M  V30 7256 C 664.913 -0.190568 -2.01903 0
M  V30 7257 C 665.246 1.19817 -1.52832 0
M  V30 7258 O 664.521 1.80342 -0.728485 0
M  V30 7259 C 664.804 -0.21991 -3.59428 0
M  V30 7260 C 664.657 -1.64376 -4.18689 0
M  V30 7261 C 665.976 0.434519 -4.3795 0
M  V30 7262 H 663.095 -0.0707219 -0.733599 0
M  V30 7263 H 665.737 -0.853883 -1.69732 0
M  V30 7264 H 663.887 0.344894 -3.86966 0
M  V30 7265 H 665.559 -2.26044 -4.02122 0
M  V30 7266 H 663.802 -2.18591 -3.747 0
M  V30 7267 H 664.473 -1.61601 -5.27815 0
M  V30 7268 H 666.949 -0.0462156 -4.16074 0
M  V30 7269 H 665.825 0.38333 -5.4756 0
M  V30 7270 H 666.086 1.51135 -4.15464 0
M  V30 7271 N 665.145 1.52092 -0.413018 0
M  V30 7272 C 666.422 1.94356 0.22024 0
M  V30 7273 C 666.802 1.35017 1.62277 0
M  V30 7274 O 666.15 0.527511 2.22328 0
M  V30 7275 C 666.36 3.48289 0.222638 0
M  V30 7276 C 667.708 4.22313 0.440098 0
M  V30 7277 O 668.732 3.54919 0.301826 0
M  V30 7278 O 667.591 5.41829 0.712984 0
M  V30 7279 H 664.685 0.814536 0.14304 0
M  V30 7280 H 667.231 1.63083 -0.469242 0
M  V30 7281 H 666.003 3.83872 -0.758836 0
M  V30 7282 H 665.626 3.85934 0.956057 0
M  V30 7283 N 666.623 0.143563 1.56945 0
M  V30 7284 C 668.039 -0.212877 1.58174 0
M  V30 7285 C 668.239 -1.64926 1.15766 0
M  V30 7286 O 667.295 -2.37535 0.856361 0
M  V30 7287 C 668.608 0.0427573 3.0067 0
M  V30 7288 C 670.156 -0.0212221 3.12993 0
M  V30 7289 C 670.631 0.207036 4.57532 0
M  V30 7290 N 672.122 0.153845 4.62944 0
M  V30 7291 C 672.857 0.305018 5.72588 0
M  V30 7292 N 672.353 0.513722 6.90893 0
M  V30 7293 N 674.146 0.242862 5.61575 0
M  V30 7294 H 666.297 1.08148 1.82805 0
M  V30 7295 H 668.56 0.427831 0.84597 0
M  V30 7296 H 668.266 1.03672 3.36073 0
M  V30 7297 H 668.14 -0.678195 3.71053 0
M  V30 7298 H 670.527 -1.00574 2.77433 0
M  V30 7299 H 670.608 0.732004 2.45103 0
M  V30 7300 H 670.252 1.18863 4.93795 0
M  V30 7301 H 670.182 -0.566473 5.23544 0
M  V30 7302 H 672.673 -0.00294866 3.779 0
M  V30 7303 H 672.986 0.619273 7.70315 0
M  V30 7304 H 671.331 0.550001 6.9282 0
M  V30 7305 H 674.522 0.0806015 4.68031 0
M  V30 7306 H 674.695 0.364112 6.46976 0
M  V30 7307 N 668.101 -1.57061 -0.130224 0
M  V30 7308 C 669.031 -2.02552 -1.16168 0
M  V30 7309 C 670.012 -0.907971 -1.4384 0
M  V30 7310 O 671.197 -1.17693 -1.54473 0
M  V30 7311 C 668.327 -2.42035 -2.49071 0
M  V30 7312 C 667.281 -3.5713 -2.35886 0
M  V30 7313 C 666.607 -3.82478 -3.7365 0
M  V30 7314 C 667.907 -4.89236 -1.8288 0
M  V30 7315 H 669.601 -2.8897 -0.783359 0
M  V30 7316 H 667.147 -1.39021 -0.375376 0
M  V30 7317 H 669.1 -2.72462 -3.21469 0
M  V30 7318 H 667.824 -1.52573 -2.88771 0
M  V30 7319 H 666.483 -3.26895 -1.65938 0
M  V30 7320 H 666.131 -2.9024 -4.10816 0
M  V30 7321 H 665.831 -4.59944 -3.65685 0
M  V30 7322 H 667.355 -4.15347 -4.47571 0
M  V30 7323 H 668.769 -5.18272 -2.45085 0
M  V30 7324 H 667.166 -5.70624 -1.85763 0
M  V30 7325 H 668.236 -4.78494 -0.785571 0
M  V30 7326 N 669.579 0.400081 -1.52437 0
M  V30 7327 C 670.526 1.48803 -1.76426 0
M  V30 7328 C 671.496 1.5461 -0.607032 0
M  V30 7329 O 672.681 1.71041 -0.845563 0
M  V30 7330 C 669.821 2.86156 -1.92896 0
M  V30 7331 C 668.934 2.89587 -3.20567 0
M  V30 7332 C 668.069 4.18296 -3.27417 0
M  V30 7333 C 667.108 4.15736 -4.49255 0
M  V30 7334 N 666.245 5.36032 -4.53447 0
M  V30 7335 H 671.085 1.27649 -2.69276 0
M  V30 7336 H 668.622 0.619451 -1.33421 0
M  V30 7337 H 670.58 3.65901 -2.00429 0
M  V30 7338 H 669.21 3.05785 -1.03418 0
M  V30 7339 H 668.262 2.02278 -3.22161 0
M  V30 7340 H 669.574 2.83562 -4.10358 0
M  V30 7341 H 668.728 5.06439 -3.34072 0
M  V30 7342 H 667.467 4.27028 -2.35581 0
M  V30 7343 H 666.472 3.25982 -4.42737 0
M  V30 7344 H 667.697 4.08636 -5.42396 0
M  V30 7345 H 665.643 5.45415 -3.64498 0
M  V30 7346 H 665.56 5.32038 -5.37096 0
M  V30 7347 H 666.828 6.26104 -4.64343 0
M  V30 7348 N 671.057 1.43213 0.657864 0
M  V30 7349 C 671.987 1.50815 1.78262 0
M  V30 7350 C 672.968 0.363211 1.66177 0
M  V30 7351 O 674.153 0.579806 1.85343 0
M  V30 7352 C 671.283 1.42625 3.16663 0
M  V30 7353 C 670.237 2.5532 3.43505 0
M  V30 7354 C 669.563 2.32184 4.81658 0
M  V30 7355 C 670.863 3.97583 3.38711 0
M  V30 7356 H 672.557 2.44954 1.72157 0
M  V30 7357 H 670.103 1.17896 0.82683 0
M  V30 7358 H 672.056 1.46548 3.95097 0
M  V30 7359 H 670.78 0.449877 3.23487 0
M  V30 7360 H 669.439 2.50742 2.6744 0
M  V30 7361 H 669.087 1.32801 4.85153 0
M  V30 7362 H 668.787 3.07724 5.00579 0
M  V30 7363 H 670.311 2.37883 5.62356 0
M  V30 7364 H 671.725 4.03673 4.07089 0
M  V30 7365 H 670.122 4.73112 3.69168 0
M  V30 7366 H 671.192 4.23049 2.36976 0
M  V30 7367 N 672.536 -0.895792 1.29666 0
M  V30 7368 C 673.499 -1.98189 1.15124 0
M  V30 7369 C 674.499 -1.60572 0.0855717 0
M  V30 7370 O 675.689 -1.70991 0.332826 0
M  V30 7371 C 672.821 -3.32289 0.761372 0
M  V30 7372 H 674.014 -2.12518 2.11603 0
M  V30 7373 H 671.567 -1.0808 1.12908 0
M  V30 7374 H 672.302 -3.23662 -0.203393 0
M  V30 7375 H 672.087 -3.60958 1.53139 0
M  V30 7376 H 673.577 -4.1198 0.682792 0
M  V30 7377 N 674.014 -1.12206 -1.10668 0
M  V30 7378 C 674.924 -0.800686 -2.20513 0
M  V30 7379 C 675.94 0.209512 -1.72734 0
M  V30 7380 O 677.116 0.043705 -2.01353 0
M  V30 7381 C 674.181 -0.257353 -3.45744 0
M  V30 7382 C 673.242 -1.32718 -4.0827 0
M  V30 7383 C 672.475 -0.809674 -5.27522 0
M  V30 7384 O 672.698 0.35742 -5.69279 0
M  V30 7385 O 671.632 -1.57816 -5.80842 0
M  V30 7386 H 675.458 -1.71807 -2.50432 0
M  V30 7387 H 673.043 -0.898546 -1.19359 0
M  V30 7388 H 674.925 0.0408849 -4.2138 0
M  V30 7389 H 673.6 0.632627 -3.17458 0
M  V30 7390 H 672.507 -1.67855 -3.34329 0
M  V30 7391 H 673.84 -2.19083 -4.40753 0
M  V30 7392 N 675.492 1.28418 -0.913599 0
M  V30 7393 C 676.741 1.94265 -0.542572 0
M  V30 7394 C 677.054 1.72709 0.918207 0
M  V30 7395 O 678.26 2.32778 1.39738 0
M  V30 7396 C 676.716 3.47956 -0.919507 0
M  V30 7397 C 676.324 3.78291 -2.4 0
M  V30 7398 C 678.068 4.19962 -0.619057 0
M  V30 7399 C 675.975 5.2529 -2.71707 0
M  V30 7400 H 674.905 0.727213 -0.199192 0
M  V30 7401 H 677.556 1.45931 -1.11249 0
M  V30 7402 H 675.938 3.9502 -0.278372 0
M  V30 7403 H 677.112 3.42035 -3.08786 0
M  V30 7404 H 675.427 3.19456 -2.67089 0
M  V30 7405 H 678.024 5.28178 -0.832623 0
M  V30 7406 H 678.367 4.13935 0.443126 0
M  V30 7407 H 678.9 3.78674 -1.21865 0
M  V30 7408 H 675.639 5.36394 -3.76778 0
M  V30 7409 H 675.159 5.62743 -2.07559 0
M  V30 7410 H 676.838 5.93027 -2.58703 0
M  V30 7411 N 676.97 0.677563 1.42291 0
M  V30 7412 C 678.216 0.201272 2.01799 0
M  V30 7413 C 678.549 -1.19004 1.53465 0
M  V30 7414 O 677.824 -1.79953 0.738039 0
M  V30 7415 C 678.107 0.238968 3.59306 0
M  V30 7416 C 677.96 1.66594 4.17812 0
M  V30 7417 C 679.279 -0.411287 4.38174 0
M  V30 7418 H 676.398 0.0746114 0.733214 0
M  V30 7419 H 679.04 0.862872 1.69276 0
M  V30 7420 H 677.19 -0.324368 3.87144 0
M  V30 7421 H 678.862 2.28173 4.00917 0
M  V30 7422 H 677.105 2.20576 3.73536 0
M  V30 7423 H 677.776 1.64398 5.26951 0
M  V30 7424 H 680.252 0.0682804 4.16044 0
M  V30 7425 H 679.128 -0.354286 5.47755 0
M  V30 7426 H 679.389 -1.4893 4.1626 0
M  V30 7427 N 678.448 -1.51871 0.421078 0
M  V30 7428 C 679.395 -2.27334 -0.398508 0
M  V30 7429 C 680.365 -1.30241 -1.03085 0
M  V30 7430 O 681.55 -1.59121 -1.05285 0
M  V30 7431 C 678.69 -3.10664 -1.50272 0
M  V30 7432 C 677.803 -4.2273 -0.890122 0
M  V30 7433 C 676.938 -4.93399 -1.96803 0
M  V30 7434 C 675.977 -5.97409 -1.333 0
M  V30 7435 N 675.114 -6.61548 -2.35156 0
M  V30 7436 H 679.954 -2.96938 0.251411 0
M  V30 7437 H 677.491 -1.46472 0.135825 0
M  V30 7438 H 679.449 -3.57292 -2.15403 0
M  V30 7439 H 678.079 -2.43207 -2.1225 0
M  V30 7440 H 677.131 -3.80186 -0.127537 0
M  V30 7441 H 678.443 -4.97302 -0.386349 0
M  V30 7442 H 677.597 -5.43491 -2.69633 0
M  V30 7443 H 676.336 -4.18421 -2.50549 0
M  V30 7444 H 675.341 -5.46624 -0.59008 0
M  V30 7445 H 676.566 -6.74335 -0.803076 0
M  V30 7446 H 674.512 -5.89394 -2.88012 0
M  V30 7447 H 674.429 -7.31832 -1.89624 0
M  V30 7448 H 675.697 -7.16276 -3.0752 0
M  V30 7449 N 679.926 -0.151884 -1.56866 0
M  V30 7450 C 680.858 0.817008 -2.14144 0
M  V30 7451 C 681.871 1.20735 -1.0921 0
M  V30 7452 O 683.06 1.15058 -1.36469 0
M  V30 7453 C 680.16 2.10844 -2.65326 0
M  V30 7454 C 679.333 1.88471 -3.94712 0
M  V30 7455 C 678.392 3.01649 -4.31155 0
M  V30 7456 O 677.418 2.73127 -4.9939 0
M  V30 7457 N 678.62 4.28947 -3.91132 0
M  V30 7458 H 681.385 0.327448 -2.97906 0
M  V30 7459 H 678.946 0.0315313 -1.61869 0
M  V30 7460 H 680.938 2.85616 -2.86715 0
M  V30 7461 H 679.508 2.51049 -1.86262 0
M  V30 7462 H 678.728 0.977088 -3.81899 0
M  V30 7463 H 680.016 1.70866 -4.79252 0
M  V30 7464 H 679.414 4.54986 -3.36161 0
M  V30 7465 H 677.971 5.00484 -4.17563 0
M  V30 7466 N 681.404 1.57128 0.121893 0
M  V30 7467 C 682.65 1.84974 0.831418 0
M  V30 7468 C 682.983 0.737204 1.79663 0
M  V30 7469 O 682.258 -0.257199 1.92792 0
M  V30 7470 C 682.541 3.23397 1.58386 0
M  V30 7471 C 682.394 4.45246 0.638445 0
M  V30 7472 C 683.713 3.59355 2.54071 0
M  V30 7473 H 680.832 0.67282 0.300803 0
M  V30 7474 H 683.474 1.89759 0.0957587 0
M  V30 7475 H 681.624 3.19449 2.21098 0
M  V30 7476 H 683.296 4.61295 0.0203925 0
M  V30 7477 H 681.539 4.33771 -0.05023 0
M  V30 7478 H 682.21 5.38765 1.20151 0
M  V30 7479 H 684.686 3.64075 2.01465 0
M  V30 7480 H 683.562 4.57193 3.03752 0
M  V30 7481 H 683.823 2.86622 3.36601 0
M  V30 7482 N 682.882 -0.391992 1.52647 0
M  V30 7483 C 684.131 -1.13449 1.6677 0
M  V30 7484 C 684.444 -1.91203 0.412399 0
M  V30 7485 O 685.65 -2.68013 0.433707 0
M  V30 7486 C 684.106 -2.06577 2.9471 0
M  V30 7487 C 683.714 -1.3426 4.27409 0
M  V30 7488 C 685.458 -2.80981 3.18198 0
M  V30 7489 C 683.365 -2.26136 5.46458 0
M  V30 7490 H 682.295 -0.427211 0.621295 0
M  V30 7491 H 684.946 -0.397522 1.79142 0
M  V30 7492 H 683.328 -2.83898 2.76076 0
M  V30 7493 H 684.502 -0.621856 4.56585 0
M  V30 7494 H 682.817 -0.718279 4.10158 0
M  V30 7495 H 685.414 -3.49898 4.04321 0
M  V30 7496 H 685.757 -3.44891 2.33144 0
M  V30 7497 H 686.29 -2.10754 3.37383 0
M  V30 7498 H 683.029 -1.66846 6.33911 0
M  V30 7499 H 682.549 -2.96134 5.21598 0
M  V30 7500 H 684.228 -2.86286 5.80215 0
M  V30 7501 N 684.36 -1.4356 -0.65026 0
M  V30 7502 C 685.27 -1.514 -1.79207 0
M  V30 7503 C 686.286 -0.400895 -1.69319 0
M  V30 7504 O 687.462 -0.655458 -1.90436 0
M  V30 7505 C 684.527 -1.43737 -3.155 0
M  V30 7506 C 683.588 -2.65743 -3.37163 0
M  V30 7507 C 682.821 -2.58436 -4.66954 0
M  V30 7508 O 683.044 -1.63374 -5.46503 0
M  V30 7509 O 681.978 -3.48984 -4.90402 0
M  V30 7510 H 685.804 -2.47825 -1.75547 0
M  V30 7511 H 683.389 -1.25594 -0.809111 0
M  V30 7512 H 685.271 -1.41916 -3.96784 0
M  V30 7513 H 683.946 -0.504488 -3.19745 0
M  V30 7514 H 682.853 -2.73136 -2.55632 0
M  V30 7515 H 684.186 -3.58014 -3.37768 0
M  V30 7516 N 685.838 0.888903 -1.30139 0
M  V30 7517 C 686.748 2.02705 -1.18101 0
M  V30 7518 C 687.764 1.73702 -0.101809 0
M  V30 7519 O 688.94 1.98906 -0.315984 0
M  V30 7520 C 686.005 3.35616 -0.869651 0
M  V30 7521 C 685.066 3.78067 -2.03381 0
M  V30 7522 C 684.299 5.04635 -1.73721 0
M  V30 7523 O 684.522 5.66531 -0.663267 0
M  V30 7524 O 683.456 5.43399 -2.58845 0
M  V30 7525 H 687.282 2.15788 -2.13704 0
M  V30 7526 H 684.867 1.01426 -1.09695 0
M  V30 7527 H 686.749 4.15358 -0.711043 0
M  V30 7528 H 685.424 3.23651 0.0565002 0
M  V30 7529 H 684.331 2.99046 -2.24772 0
M  V30 7530 H 685.664 3.94631 -2.94155 0
M  V30 7531 N 687.317 1.12792 1.10072 0
M  V30 7532 C 688.249 0.757003 2.16338 0
M  V30 7533 C 689.262 -0.218144 1.61332 0
M  V30 7534 O 690.451 0.0010727 1.785 0
M  V30 7535 C 687.551 0.100303 3.38752 0
M  V30 7536 C 686.724 1.10586 4.2319 0
M  V30 7537 C 685.783 0.47609 5.24042 0
M  V30 7538 O 684.809 1.13418 5.57786 0
M  V30 7539 N 686.011 -0.754823 5.75572 0
M  V30 7540 H 688.776 1.6714 2.48766 0
M  V30 7541 H 686.337 1.02003 1.25726 0
M  V30 7542 H 688.329 -0.333092 4.03327 0
M  V30 7543 H 686.899 -0.716915 3.04268 0
M  V30 7544 H 686.119 1.71677 3.54853 0
M  V30 7545 H 687.407 1.78571 4.76435 0
M  V30 7546 H 686.805 -1.30838 5.50362 0
M  V30 7547 H 685.362 -1.13098 6.41913 0
M  V30 7548 N 688.795 -1.27931 0.920396 0
M  V30 7549 C 690.023 -1.98805 0.573087 0
M  V30 7550 C 690.438 -1.68724 -0.847201 0
M  V30 7551 O 689.795 -0.943699 -1.56207 0
M  V30 7552 C 689.846 -3.52971 0.780633 0
M  V30 7553 O 689.567 -3.81994 2.14504 0
M  V30 7554 C 691.068 -4.411 0.44105 0
M  V30 7555 H 688.288 -0.634651 0.21785 0
M  V30 7556 H 690.832 -1.62965 1.23542 0
M  V30 7557 H 688.987 -3.87048 0.165204 0
M  V30 7558 H 689.401 -4.76609 2.18962 0
M  V30 7559 H 690.875 -5.48312 0.637006 0
M  V30 7560 H 691.352 -4.34758 -0.62306 0
M  V30 7561 H 691.958 -4.12532 1.0343 0
M  V30 7562 N 690.273 -0.685099 -1.4193 0
M  V30 7563 C 691.501 -0.220372 -2.05723 0
M  V30 7564 C 691.916 1.12642 -1.51516 0
M  V30 7565 O 691.273 1.70182 -0.659114 0
M  V30 7566 C 691.324 -0.157974 -3.61155 0
M  V30 7567 O 691.045 -1.45156 -4.13354 0
M  V30 7568 C 692.546 0.329009 -4.42077 0
M  V30 7569 H 689.766 -0.104725 -0.662777 0
M  V30 7570 H 692.31 -0.934736 -1.81887 0
M  V30 7571 H 690.465 0.507144 -3.84066 0
M  V30 7572 H 690.879 -1.33172 -5.07312 0
M  V30 7573 H 692.353 0.321559 -5.51063 0
M  V30 7574 H 692.83 1.36608 -4.17414 0
M  V30 7575 H 693.436 -0.304737 -4.24207 0
M  V30 7576 N 691.751 1.51645 -0.429126 0
M  V30 7577 C 692.976 2.06917 0.141399 0
M  V30 7578 C 693.401 1.29527 1.36398 0
M  V30 7579 O 692.759 0.33094 1.78254 0
M  V30 7580 C 692.807 3.57776 0.4504 0
M  V30 7581 O 691.911 3.82639 1.53821 0
M  V30 7582 H 691.252 0.663978 0.0054647 0
M  V30 7583 H 693.782 1.95355 -0.608093 0
M  V30 7584 H 693.792 4.01894 0.703249 0
M  V30 7585 H 692.467 4.13532 -0.443213 0
M  V30 7586 H 691.044 3.5039 1.27597 0
M  V30 7587 N 693.229 0.160201 1.56784 0
M  V30 7588 C 694.179 -0.786461 2.14007 0
M  V30 7589 C 695.163 -1.20046 1.07134 0
M  V30 7590 O 696.355 -1.16468 1.33283 0
M  V30 7591 C 693.484 -2.02024 2.77563 0
M  V30 7592 C 692.57 -1.62874 3.91578 0
M  V30 7593 N 692.961 -0.946176 4.96871 0
M  V30 7594 C 691.259 -1.92054 4.02531 0
M  V30 7595 C 691.96 -0.755084 5.76778 0
M  V30 7596 N 690.936 -1.29307 5.27997 0
M  V30 7597 H 694.738 -0.255879 2.92784 0
M  V30 7598 H 692.252 -0.0408778 1.62349 0
M  V30 7599 H 694.249 -2.70855 3.16928 0
M  V30 7600 H 692.909 -2.55587 2.00263 0
M  V30 7601 H 693.92 -0.605455 5.14349 0
M  V30 7602 H 690.597 -2.47374 3.36322 0
M  V30 7603 H 691.987 -0.216138 6.71552 0
M  V30 7604 N 694.707 -1.5719 -0.113559 0
M  V30 7605 C 695.617 -2.04041 -1.15777 0
M  V30 7606 C 696.633 -0.961812 -1.45001 0
M  V30 7607 O 697.809 -1.2737 -1.56009 0
M  V30 7608 C 694.874 -2.43994 -2.46308 0
M  V30 7609 C 693.935 -3.65962 -2.24433 0
M  V30 7610 C 693.168 -4.04 -3.4874 0
M  V30 7611 O 693.391 -3.42321 -4.56259 0
M  V30 7612 O 692.325 -4.97069 -3.3942 0
M  V30 7613 H 696.151 -2.93248 -0.789899 0
M  V30 7614 H 693.736 -1.45828 -0.324748 0
M  V30 7615 H 695.618 -2.70401 -3.23204 0
M  V30 7616 H 694.293 -1.57932 -2.82558 0
M  V30 7617 H 693.2 -3.44697 -1.45377 0
M  V30 7618 H 694.533 -4.52746 -1.93084 0
M  V30 7619 N 696.185 0.383891 -1.52853 0
M  V30 7620 C 697.41 1.154 -1.7233 0
M  V30 7621 C 697.835 1.82809 -0.44298 0
M  V30 7622 O 697.193 1.71026 0.601645 0
M  V30 7623 C 697.241 2.17386 -2.87708 0
M  V30 7624 O 696.345 3.24082 -2.55038 0
M  V30 7625 H 695.686 0.335709 -0.572883 0
M  V30 7626 H 698.216 0.44662 -1.99666 0
M  V30 7627 H 698.226 2.61296 -3.1335 0
M  V30 7628 H 696.901 1.6771 -3.80587 0
M  V30 7629 H 695.478 2.85273 -2.40153 0
M  V30 7630 N 697.663 1.43903 0.642637 0
M  V30 7631 C 698.595 1.45857 1.768 0
M  V30 7632 C 699.608 0.353358 1.58919 0
M  V30 7633 O 700.797 0.618426 1.67445 0
M  V30 7634 C 697.897 1.26583 3.14372 0
M  V30 7635 C 697.07 2.50139 3.58817 0
M  V30 7636 C 696.129 2.25933 4.75227 0
M  V30 7637 O 695.155 2.99351 4.84125 0
M  V30 7638 N 696.357 1.28263 5.66153 0
M  V30 7639 H 699.122 2.42869 1.75598 0
M  V30 7640 H 696.683 1.39194 0.826832 0
M  V30 7641 H 698.675 1.08255 3.89953 0
M  V30 7642 H 697.245 0.37978 3.10284 0
M  V30 7643 H 696.465 2.83821 2.73568 0
M  V30 7644 H 697.753 3.32344 3.8526 0
M  V30 7645 H 697.151 0.676041 5.61646 0
M  V30 7646 H 695.708 1.15916 6.4141 0
M  V30 7647 O 699.18 -0.78588 1.41089 0
M  V30 7648 H 699.871 -1.43226 1.30407 0
M  V30 END ATOM
M  V30 BEGIN BOND
M  V30 END BOND
M  V30 END CTAB
M  END
$$$$
