drugbank_target|Q8IYT8 Serine/threonine-protein kinase ULK2 (DB12010)
 OpenBabel12092121143D

  0  0  0     0  0            999 V3000
M  V30 BEGIN CTAB
M  V30 COUNTS 15756 15933 0 0 0
M  V30 BEGIN ATOM
M  V30 1 H -0.908 1.98254 -0.117106 0
M  V30 2 N 0 1.576 0 0
M  V30 3 C 0.933 2.03868 1.02534 0
M  V30 4 C 1.911 0.928543 1.3348 0
M  V30 5 O 3.095 1.19667 1.45644 0
M  V30 6 C 0.222 2.43627 2.35294 0
M  V30 7 C -0.732 3.65373 2.2001 0
M  V30 8 S 0.101 5.13292 1.52614 0
M  V30 9 C 1.257 5.56322 2.86805 0
M  V30 10 H 1.49 2.90518 0.631377 0
M  V30 11 H -0.977 1.52953 0.210867 0
M  V30 12 H 0.981 2.67203 3.11629 0
M  V30 13 H -0.358 1.57376 2.7183 0
M  V30 14 H -1.165 3.90944 3.18086 0
M  V30 15 H -1.563 3.418 1.51819 0
M  V30 16 H 0.729 5.58782 3.83104 0
M  V30 17 H 1.672 6.56266 2.65933 0
M  V30 18 H 2.08 4.83886 2.90714 0
M  V30 19 N 1.4781 -0.272755 1.55222 0
M  V30 20 C 2.3881 -1.35918 1.91216 0
M  V30 21 C 3.4041 -1.54026 0.809436 0
M  V30 22 O 4.5801 -1.68148 1.10852 0
M  V30 23 C 1.6451 -2.69834 2.17693 0
M  V30 24 C 0.7061 -2.6047 3.41253 0
M  V30 25 C -0.0609 -3.88 3.66458 0
M  V30 26 O 0.1621 -4.88693 2.94169 0
M  V30 27 O -0.9039 -3.88189 4.59992 0
M  V30 28 H 2.9221 -1.0839 2.83699 0
M  V30 29 H 0.5071 -0.471301 1.41771 0
M  V30 30 H 2.3891 -3.49017 2.36147 0
M  V30 31 H 1.0641 -2.97148 1.28392 0
M  V30 32 H -0.0289 -1.79663 3.28134 0
M  V30 33 H 1.3041 -2.38106 4.30774 0
M  V30 34 N 2.9562 -1.48159 -0.537278 0
M  V30 35 C 4.2022 -1.56035 -1.29541 0
M  V30 36 C 4.5352 -0.230377 -1.92829 0
M  V30 37 O 3.8102 0.762952 -1.78911 0
M  V30 38 C 4.0932 -2.69323 -2.39034 0
M  V30 39 C 3.9462 -4.12002 -1.80485 0
M  V30 40 C 5.2652 -2.78408 -3.40847 0
M  V30 41 H 2.3842 -0.567992 -0.469632 0
M  V30 42 H 5.0262 -1.80302 -0.599277 0
M  V30 43 H 3.1762 -2.48763 -2.98412 0
M  V30 44 H 4.8482 -4.43981 -1.25215 0
M  V30 45 H 3.0912 -4.19344 -1.11055 0
M  V30 46 H 3.7622 -4.87077 -2.59731 0
M  V30 47 H 6.2382 -2.97012 -2.91416 0
M  V30 48 H 5.1142 -3.59416 -4.14863 0
M  V30 49 H 5.3752 -1.86269 -4.00944 0
M  V30 50 N 4.4343 0.785586 -1.36625 0
M  V30 51 C 5.6803 1.54591 -1.31261 0
M  V30 52 C 6.0133 1.93906 0.106823 0
M  V30 53 O 5.2883 1.63007 1.06108 0
M  V30 54 C 5.5713 2.82038 -2.23889 0
M  V30 55 C 5.4243 2.49066 -3.74548 0
M  V30 56 C 6.7433 3.83887 -2.15217 0
M  V30 57 H 3.8623 0.560846 -0.478143 0
M  V30 58 H 6.5043 0.902278 -1.67209 0
M  V30 59 H 4.6543 3.36961 -1.93363 0
M  V30 60 H 6.3263 2.00164 -4.15611 0
M  V30 61 H 4.5693 1.81954 -3.93796 0
M  V30 62 H 5.2403 3.40109 -4.34776 0
M  V30 63 H 7.7163 3.38421 -2.42096 0
M  V30 64 H 6.5923 4.70806 -2.82193 0
M  V30 65 H 6.8533 4.27131 -1.14068 0
M  V30 66 N 5.9124 1.20967 1.01018 0
M  V30 67 C 7.1604 1.02172 1.74371 0
M  V30 68 C 7.4814 -0.446414 1.89821 0
M  V30 69 O 6.7514 -1.32234 1.44537 0
M  V30 70 H 5.3314 0.375066 0.646014 0
M  V30 71 H 7.9934 1.52187 1.21758 0
M  V30 72 H 7.0894 1.48538 2.74487 0
M  V30 73 N 7.3905 -1.2043 1.01659 0
M  V30 74 C 8.6675 -1.8548 0.621004 0
M  V30 75 C 9.0475 -1.9091 -0.900919 0
M  V30 76 O 8.3955 -1.41694 -1.79263 0
M  V30 77 C 8.6055 -3.25119 1.2688 0
M  V30 78 C 9.9535 -4.01403 1.38423 0
M  V30 79 O 10.9775 -3.34473 1.22501 0
M  V30 80 O 9.8365 -5.21265 1.64151 0
M  V30 81 H 6.9305 -0.798761 0.214266 0
M  V30 82 H 9.4765 -1.28019 1.11396 0
M  V30 83 H 8.2485 -3.15932 2.30873 0
M  V30 84 H 7.8715 -3.90212 0.762917 0
M  V30 85 N 8.8686 -0.792821 -1.36206 0
M  V30 86 C 10.1156 -0.366786 -1.99151 0
M  V30 87 C 10.4436 1.06243 -1.62919 0
M  V30 88 O 9.6986 1.74927 -0.877442 0
M  V30 89 C 9.9976 -0.481501 -3.54142 0
M  V30 90 C 9.6636 -1.87202 -4.10203 0
M  V30 91 C 8.3256 -2.25248 -4.25226 0
M  V30 92 C 10.6776 -2.78237 -4.40719 0
M  V30 93 C 8.0056 -3.53723 -4.68078 0
M  V30 94 C 10.3576 -4.06144 -4.85005 0
M  V30 95 C 9.0216 -4.44207 -4.98234 0
M  V30 96 H 8.2916 -0.134217 -0.728743 0
M  V30 97 H 10.9386 -1.01094 -1.62641 0
M  V30 98 H 9.2436 0.246146 -3.91026 0
M  V30 99 H 10.9406 -0.132844 -4.0078 0
M  V30 100 H 7.5306 -1.56639 -3.98951 0
M  V30 101 H 11.7146 -2.50097 -4.28679 0
M  V30 102 H 6.9706 -3.8308 -4.76508 0
M  V30 103 H 11.1446 -4.76796 -5.07581 0
M  V30 104 H 8.7716 -5.43814 -5.31197 0
M  V30 105 N 10.3467 1.47872 -0.545128 0
M  V30 106 C 11.2567 2.33633 0.212746 0
M  V30 107 C 12.2727 1.4744 0.923983 0
M  V30 108 O 13.4487 1.80393 0.895572 0
M  V30 109 C 10.5137 3.23884 1.23693 0
M  V30 110 C 9.5747 4.25961 0.534417 0
M  V30 111 C 8.8077 5.11899 1.5098 0
M  V30 112 O 9.0307 5.00077 2.7437 0
M  V30 113 O 7.9647 5.92831 1.0409 0
M  V30 114 H 11.7907 2.99714 -0.490416 0
M  V30 115 H 9.3757 1.46235 -0.305871 0
M  V30 116 H 11.2577 3.79666 1.82843 0
M  V30 117 H 9.9327 2.60446 1.92222 0
M  V30 118 H 8.8397 3.73972 -0.0979679 0
M  V30 119 H 10.1727 4.92079 -0.109213 0
M  V30 120 N 11.8248 0.280983 1.55075 0
M  V30 121 C 13.0548 -0.336804 2.03836 0
M  V30 122 C 13.4628 -1.49577 1.15859 0
M  V30 123 O 12.8058 -1.82888 0.172503 0
M  V30 124 C 12.8678 -0.874616 3.48699 0
M  V30 125 C 12.5318 0.156478 4.56732 0
M  V30 126 C 13.5288 0.978032 5.10618 0
M  V30 127 C 11.2138 0.292409 5.01448 0
M  V30 128 C 13.2078 1.92165 6.07743 0
M  V30 129 C 10.8948 1.23949 5.98398 0
M  V30 130 C 11.8928 2.05261 6.51427 0
M  V30 131 O 11.5808 2.98367 7.4648 0
M  V30 132 H 11.3128 -0.0800885 0.671239 0
M  V30 133 H 13.8668 0.412589 2.01213 0
M  V30 134 H 12.0968 -1.67418 3.4858 0
M  V30 135 H 13.7858 -1.40612 3.80766 0
M  V30 136 H 14.5518 0.883782 4.7688 0
M  V30 137 H 10.4308 -0.330498 4.59814 0
M  V30 138 H 13.9748 2.55672 6.49059 0
M  V30 139 H 9.8718 1.33454 6.31554 0
M  V30 140 H 10.6398 2.93116 7.64215 0
M  V30 141 N 13.3029 -1.57598 0.00835791 0
M  V30 142 C 14.5279 -1.95617 -0.689103 0
M  V30 143 C 14.9529 -0.883753 -1.66046 0
M  V30 144 O 14.3109 0.157352 -1.80616 0
M  V30 145 C 14.3589 -3.32736 -1.38994 0
M  V30 146 O 13.4629 -3.27631 -2.50463 0
M  V30 147 H 12.8039 -0.638379 -0.182668 0
M  V30 148 H 15.3339 -2.045 0.064036 0
M  V30 149 H 15.3439 -3.68494 -1.75147 0
M  V30 150 H 14.0189 -4.1034 -0.677778 0
M  V30 151 H 12.5959 -3.03561 -2.16576 0
M  V30 152 N 14.781 0.264519 -1.55364 0
M  V30 153 C 15.728 1.32717 -1.88825 0
M  V30 154 C 16.698 1.48675 -0.740605 0
M  V30 155 O 17.883 1.62945 -0.992657 0
M  V30 156 C 15.023 2.68089 -2.17307 0
M  V30 157 C 14.136 2.60284 -3.44785 0
M  V30 158 C 13.271 3.87892 -3.62924 0
M  V30 159 C 12.31 3.74631 -4.84064 0
M  V30 160 N 11.447 4.94092 -4.98816 0
M  V30 161 H 16.287 1.03481 -2.79456 0
M  V30 162 H 13.824 0.499757 -1.3835 0
M  V30 163 H 15.782 3.46864 -2.31821 0
M  V30 164 H 14.412 2.95509 -1.299 0
M  V30 165 H 13.464 1.73173 -3.38697 0
M  V30 166 H 14.776 2.46388 -4.33698 0
M  V30 167 H 13.93 4.75109 -3.77302 0
M  V30 168 H 12.669 4.04664 -2.7221 0
M  V30 169 H 11.674 2.85797 -4.69681 0
M  V30 170 H 12.899 3.5937 -5.76221 0
M  V30 171 H 10.845 5.11259 -4.11036 0
M  V30 172 H 10.762 4.8276 -5.81789 0
M  V30 173 H 12.03 5.82857 -5.17588 0
M  V30 174 N 16.2591 1.48442 0.529413 0
M  V30 175 C 17.6751 1.34575 0.858004 0
M  V30 176 C 17.8751 0.3572 1.98309 0
M  V30 177 O 16.9311 -0.221379 2.51528 0
M  V30 178 C 18.2441 2.74617 1.22499 0
M  V30 179 C 19.7921 2.83109 1.33484 0
M  V30 180 C 20.2671 4.23854 1.73526 0
M  V30 181 N 21.7581 4.2653 1.80628 0
M  V30 182 C 22.4931 5.32372 2.12997 0
M  V30 183 N 21.9891 6.48491 2.43786 0
M  V30 184 N 23.7821 5.19766 2.14008 0
M  V30 185 H 15.9331 2.1133 -0.212925 0
M  V30 186 H 18.1961 0.947439 -0.0326199 0
M  V30 187 H 17.9021 3.4852 0.471905 0
M  V30 188 H 17.7761 3.08177 2.17501 0
M  V30 189 H 20.1631 2.09462 2.0787 0
M  V30 190 H 20.2441 2.53168 0.366027 0
M  V30 191 H 19.8881 4.98018 0.997013 0
M  V30 192 H 19.8181 4.5124 2.71459 0
M  V30 193 H 22.3091 3.42772 1.59108 0
M  V30 194 H 22.6221 7.24993 2.67592 0
M  V30 195 H 20.9671 6.51765 2.41304 0
M  V30 196 H 24.1581 4.28066 1.89412 0
M  V30 197 H 24.3311 6.02354 2.38902 0
M  V30 198 N 17.7372 -0.778329 1.37039 0
M  V30 199 C 19.0142 -1.52551 1.22424 0
M  V30 200 C 19.3942 -2.10288 -0.184964 0
M  V30 201 O 18.7422 -1.94953 -1.19187 0
M  V30 202 C 18.9522 -2.61164 2.31504 0
M  V30 203 C 20.3002 -3.28746 2.68721 0
M  V30 204 O 21.3242 -2.71455 2.30631 0
M  V30 205 O 20.1832 -4.3231 3.3432 0
M  V30 206 H 17.2772 -0.675343 0.477326 0
M  V30 207 H 19.8232 -0.815859 1.48801 0
M  V30 208 H 18.5952 -2.16574 3.25901 0
M  V30 209 H 18.2182 -3.39737 2.06554 0
M  V30 210 N 19.2153 -1.21501 -1.00376 0
M  V30 211 C 20.1453 -0.999478 -2.11028 0
M  V30 212 C 21.1263 0.0759671 -1.6993 0
M  V30 213 O 22.3113 -0.0841106 -1.94018 0
M  V30 214 C 19.4413 -0.564709 -3.42678 0
M  V30 215 C 18.3953 -1.58486 -3.97576 0
M  V30 216 C 17.7213 -1.00628 -5.25146 0
M  V30 217 C 19.0213 -2.97204 -4.29496 0
M  V30 218 H 20.7153 -1.92495 -2.29317 0
M  V30 219 H 18.2613 -0.92693 -1.102 0
M  V30 220 H 20.2143 -0.401091 -4.19487 0
M  V30 221 H 18.9383 0.396411 -3.24185 0
M  V30 222 H 17.5973 -1.73606 -3.22888 0
M  V30 223 H 17.2453 -0.0368439 -5.02987 0
M  V30 224 H 16.9453 -1.68771 -5.62841 0
M  V30 225 H 18.4693 -0.854015 -6.04598 0
M  V30 226 H 19.8833 -2.8552 -4.97143 0
M  V30 227 H 18.2803 -3.62372 -4.78338 0
M  V30 228 H 19.3503 -3.47956 -3.3772 0
M  V30 229 N 20.6934 1.19889 -1.02296 0
M  V30 230 C 21.9394 1.89701 -0.717033 0
M  V30 231 C 22.2724 1.7905 0.751989 0
M  V30 232 O 21.5474 1.17891 1.547 0
M  V30 233 C 21.8304 3.40858 -1.16136 0
M  V30 234 C 21.6834 3.60411 -2.69117 0
M  V30 235 C 23.0024 4.33876 -0.737549 0
M  V30 236 H 20.1214 0.688874 -0.261957 0
M  V30 237 H 22.7634 1.41154 -1.27183 0
M  V30 238 H 20.9134 3.82335 -0.689342 0
M  V30 239 H 22.5854 3.28145 -3.2422 0
M  V30 240 H 20.8284 3.03665 -3.0979 0
M  V30 241 H 21.4994 4.66396 -2.95261 0
M  V30 242 H 23.9754 4.00081 -1.14344 0
M  V30 243 H 22.8514 5.38242 -1.0764 0
M  V30 244 H 23.1124 4.40628 0.360436 0
M  V30 245 N 22.1715 0.800033 1.35784 0
M  V30 246 C 23.4195 0.376597 1.9856 0
M  V30 247 C 23.7405 -1.05812 1.63795 0
M  V30 248 O 23.0105 -1.73103 0.917171 0
M  V30 249 H 21.5905 0.136261 0.734467 0
M  V30 250 H 24.2525 1.02442 1.65806 0
M  V30 251 H 23.3485 0.477002 3.08433 0
M  V30 252 N 23.6496 -1.47581 0.552962 0
M  V30 253 C 24.5996 -2.26961 -0.217423 0
M  V30 254 C 25.5836 -1.34099 -0.889168 0
M  V30 255 O 26.7756 -1.58483 -0.788176 0
M  V30 256 C 23.9046 -3.19756 -1.24944 0
M  V30 257 C 22.9906 -4.20097 -0.581327 0
M  V30 258 N 23.3816 -5.04614 0.346171 0
M  V30 259 C 21.6796 -4.38099 -0.835767 0
M  V30 260 C 22.3806 -5.77052 0.733854 0
M  V30 261 N 21.3566 -5.43526 0.0896567 0
M  V30 262 H 25.1586 -2.89688 0.495761 0
M  V30 263 H 22.6726 -1.58068 0.372597 0
M  V30 264 H 24.6696 -3.75305 -1.81527 0
M  V30 265 H 23.3296 -2.58585 -1.96376 0
M  V30 266 H 24.3406 -5.12869 0.720098 0
M  V30 267 H 21.0176 -3.88102 -1.53892 0
M  V30 268 H 22.4076 -6.5504 1.49574 0
M  V30 269 N 25.1277 -0.289203 -1.54924 0
M  V30 270 C 26.3757 0.322879 -1.99504 0
M  V30 271 C 26.6967 1.55313 -1.1791 0
M  V30 272 O 25.9667 1.94001 -0.272097 0
M  V30 273 H 24.5467 0.122291 -0.736922 0
M  V30 274 H 27.2087 -0.397802 -1.90797 0
M  V30 275 H 26.3047 0.603061 -3.06218 0
M  V30 276 N 26.6058 1.57591 -0.0167156 0
M  V30 277 C 27.5688 2.08393 0.954204 0
M  V30 278 C 28.5688 0.996531 1.26198 0
M  V30 279 O 29.7588 1.25858 1.20438 0
M  V30 280 C 26.8908 2.5394 2.27436 0
M  V30 281 H 28.0838 2.95455 0.514451 0
M  V30 282 H 25.6368 1.54582 0.231089 0
M  V30 283 H 26.3718 1.70171 2.76066 0
M  V30 284 H 26.1568 3.33371 2.06412 0
M  V30 285 H 27.6468 2.93512 2.97053 0
M  V30 286 N 28.0839 -0.256276 1.55502 0
M  V30 287 C 29.3309 -0.985619 1.76895 0
M  V30 288 C 29.6589 -1.85671 0.579355 0
M  V30 289 O 28.9139 -1.90744 -0.437651 0
M  V30 290 C 29.2129 -1.88432 3.03691 0
M  V30 291 C 28.8789 -1.16936 4.35473 0
M  V30 292 C 27.5409 -0.97173 4.71286 0
M  V30 293 C 29.8929 -0.661889 5.1698 0
M  V30 294 C 27.2209 -0.254179 5.86149 0
M  V30 295 C 29.5729 0.042149 6.32586 0
M  V30 296 C 28.2369 0.25134 6.67027 0
M  V30 297 H 27.5069 -0.360663 0.647304 0
M  V30 298 H 30.1539 -0.256483 1.89775 0
M  V30 299 H 28.4589 -2.68021 2.85783 0
M  V30 300 H 30.1559 -2.45015 3.1744 0
M  V30 301 H 26.7459 -1.33332 4.07333 0
M  V30 302 H 30.9299 -0.802145 4.89775 0
M  V30 303 H 26.1859 -0.0815408 6.11346 0
M  V30 304 H 30.3599 0.443049 6.94989 0
M  V30 305 H 27.9869 0.809314 7.5588 0
M  V30 306 N 29.562 -1.4872 -0.521534 0
M  V30 307 C 30.525 -1.63379 -1.60748 0
M  V30 308 C 31.525 -0.50661 -1.52611 0
M  V30 309 O 32.715 -0.772601 -1.5613 0
M  V30 310 C 29.847 -1.61192 -3.00383 0
M  V30 311 H 31.04 -2.60217 -1.49087 0
M  V30 312 H 28.593 -1.37444 -0.744235 0
M  V30 313 H 29.328 -0.65863 -3.17541 0
M  V30 314 H 29.113 -2.43032 -3.07698 0
M  V30 315 H 30.603 -1.7466 -3.7932 0
M  V30 316 N 31.0401 0.771051 -1.3745 0
M  V30 317 C 32.2861 1.5319 -1.32894 0
M  V30 318 C 32.6191 1.94008 0.0862511 0
M  V30 319 O 31.8941 1.64124 1.04373 0
M  V30 320 C 32.1771 2.79648 -2.26868 0
M  V30 321 C 32.0301 2.45079 -3.77169 0
M  V30 322 C 33.3491 3.81583 -2.19277 0
M  V30 323 H 30.4681 0.555744 -0.484064 0
M  V30 324 H 33.1101 0.884492 -1.68157 0
M  V30 325 H 31.2601 3.34891 -1.96926 0
M  V30 326 H 32.9321 1.95745 -4.1771 0
M  V30 327 H 31.1751 1.77767 -3.95704 0
M  V30 328 H 31.8461 3.35478 -4.38359 0
M  V30 329 H 34.3221 3.35835 -2.45671 0
M  V30 330 H 33.1981 4.67787 -2.87171 0
M  V30 331 H 33.4591 4.25897 -1.18592 0
M  V30 332 N 32.5182 1.22032 0.997298 0
M  V30 333 C 33.7642 1.04376 1.73878 0
M  V30 334 C 34.0972 -0.420716 1.89588 0
M  V30 335 O 33.3722 -1.31202 1.43583 0
M  V30 336 C 33.6552 1.75047 3.14691 0
M  V30 337 C 33.5082 3.29062 3.06656 0
M  V30 338 C 34.8272 1.49928 4.13775 0
M  V30 339 H 31.9462 0.380578 0.631133 0
M  V30 340 H 34.5882 1.50312 1.16217 0
M  V30 341 H 32.7382 1.35996 3.63919 0
M  V30 342 H 34.4102 3.7753 2.65083 0
M  V30 343 H 32.6532 3.58967 2.43568 0
M  V30 344 H 33.3242 3.73683 4.06282 0
M  V30 345 H 35.8002 1.83842 3.73285 0
M  V30 346 H 34.6762 2.01878 5.10428 0
M  V30 347 H 34.9372 0.430929 4.39995 0
M  V30 348 N 33.9963 -1.19345 1.0293 0
M  V30 349 C 35.2433 -1.89038 0.726008 0
M  V30 350 C 35.5713 -1.79649 -0.745427 0
M  V30 351 O 34.8263 -1.18354 -1.55855 0
M  V30 352 C 35.1253 -3.39292 1.12319 0
M  V30 353 C 34.7913 -3.68885 2.59297 0
M  V30 354 C 33.4533 -3.76671 2.99453 0
M  V30 355 C 35.8053 -3.82178 3.54386 0
M  V30 356 C 33.1333 -3.9522 4.33611 0
M  V30 357 C 35.4853 -4.0224 4.88248 0
M  V30 358 C 34.1493 -4.08259 5.28092 0
M  V30 359 H 33.4193 -0.691739 0.265665 0
M  V30 360 H 36.0663 -1.41328 1.29223 0
M  V30 361 H 34.3713 -3.88903 0.475584 0
M  V30 362 H 36.0683 -3.91536 0.866037 0
M  V30 363 H 32.6583 -3.63433 2.27189 0
M  V30 364 H 36.8423 -3.75505 3.24514 0
M  V30 365 H 32.0983 -3.98119 4.64016 0
M  V30 366 H 36.2723 -4.11468 5.61843 0
M  V30 367 H 33.8993 -4.22384 6.32057 0
M  V30 368 N 35.4744 -0.807222 -1.35358 0
M  V30 369 C 36.8904 -0.491038 -1.51858 0
M  V30 370 C 37.0904 0.987648 -1.75635 0
M  V30 371 O 36.1464 1.77265 -1.79815 0
M  V30 372 C 37.4594 -1.33695 -2.69344 0
M  V30 373 C 39.0074 -1.33246 -2.83222 0
M  V30 374 C 39.4824 -2.1625 -4.03733 0
M  V30 375 N 40.9734 -2.1379 -4.10911 0
M  V30 376 C 41.7084 -2.74772 -5.03277 0
M  V30 377 N 41.2044 -3.44684 -6.0097 0
M  V30 378 N 42.9974 -2.6441 -4.96028 0
M  V30 379 H 35.1484 -1.76485 -1.18181 0
M  V30 380 H 37.4114 -0.751199 -0.578276 0
M  V30 381 H 37.1174 -2.38634 -2.58354 0
M  V30 382 H 36.9914 -0.990618 -3.6396 0
M  V30 383 H 39.3784 -0.290911 -2.93663 0
M  V30 384 H 39.4594 -1.71866 -1.89461 0
M  V30 385 H 39.1034 -3.20445 -3.94052 0
M  V30 386 H 39.0334 -1.74989 -4.96675 0
M  V30 387 H 41.5244 -1.62923 -3.40976 0
M  V30 388 H 41.8374 -3.88501 -6.68047 0
M  V30 389 H 40.1824 -3.48788 -6.01142 0
M  V30 390 H 43.3734 -2.0938 -4.18662 0
M  V30 391 H 43.5464 -3.12225 -5.6782 0
M  V30 392 N 36.9525 1.47285 -0.560781 0
M  V30 393 C 38.2005 2.02064 -0.0379868 0
M  V30 394 C 38.5215 1.43711 1.31803 0
M  V30 395 O 37.7915 0.61362 1.86042 0
M  V30 396 H 36.3715 0.746918 -0.0110531 0
M  V30 397 H 39.0335 1.80648 -0.731598 0
M  V30 398 H 38.1295 3.12064 0.0474463 0
M  V30 399 N 38.4306 0.297415 1.54768 0
M  V30 400 C 39.8466 -0.0560823 1.59501 0
M  V30 401 C 40.0466 -1.52725 1.31444 0
M  V30 402 O 39.1026 -2.27947 1.08611 0
M  V30 403 C 40.4156 0.338631 2.98787 0
M  V30 404 C 41.9636 0.287097 3.11681 0
M  V30 405 C 42.4386 0.656579 4.53269 0
M  V30 406 N 43.9296 0.608977 4.59179 0
M  V30 407 C 44.6646 0.867385 5.66802 0
M  V30 408 N 44.1606 1.19157 6.82476 0
M  V30 409 N 45.9536 0.794687 5.56454 0
M  V30 410 H 38.1046 1.25624 1.71267 0
M  V30 411 H 40.3676 0.509057 0.799728 0
M  V30 412 H 40.0736 1.36263 3.2423 0
M  V30 413 H 39.9476 -0.309508 3.75928 0
M  V30 414 H 42.3346 -0.727649 2.85988 0
M  V30 415 H 42.4156 0.969809 2.36703 0
M  V30 416 H 42.0596 1.66912 4.7969 0
M  V30 417 H 41.9896 -0.0481649 5.26578 0
M  V30 418 H 44.4806 0.369198 3.76092 0
M  V30 419 H 44.7936 1.37482 7.60473 0
M  V30 420 H 43.1386 1.22958 6.84037 0
M  V30 421 H 46.3296 0.541098 4.64962 0
M  V30 422 H 46.5026 0.999445 6.40246 0
M  V30 423 N 39.9087 -1.5758 0.0250728 0
M  V30 424 C 40.8587 -2.06468 -0.967201 0
M  V30 425 C 41.8427 -0.964376 -1.28797 0
M  V30 426 O 43.0347 -1.22797 -1.27475 0
M  V30 427 C 40.1637 -2.59203 -2.25097 0
M  V30 428 C 39.2497 -3.76157 -1.95874 0
M  V30 429 N 39.6407 -4.86919 -1.36905 0
M  V30 430 C 37.9387 -3.84566 -2.25887 0
M  V30 431 C 38.6397 -5.68172 -1.24724 0
M  V30 432 N 37.6157 -5.14953 -1.74138 0
M  V30 433 H 41.4177 -2.89508 -0.506176 0
M  V30 434 H 38.9317 -1.61399 -0.18004 0
M  V30 435 H 40.9287 -2.92517 -2.97052 0
M  V30 436 H 39.5887 -1.77592 -2.71829 0
M  V30 437 H 40.5997 -5.07256 -1.04459 0
M  V30 438 H 37.2767 -3.13854 -2.75321 0
M  V30 439 H 38.6667 -6.67221 -0.791605 0
M  V30 440 N 41.3868 0.248026 -1.55636 0
M  V30 441 C 42.8028 0.596483 -1.48035 0
M  V30 442 C 43.0028 1.88386 -0.715039 0
M  V30 443 O 42.0588 2.51319 -0.243944 0
M  V30 444 C 43.3718 0.700258 -2.92433 0
M  V30 445 C 44.9198 0.792659 -3.02797 0
M  V30 446 C 45.3948 0.928005 -4.485 0
M  V30 447 N 46.8858 0.992903 -4.52433 0
M  V30 448 C 47.6208 1.11687 -5.62418 0
M  V30 449 N 47.1168 1.20645 -6.82214 0
M  V30 450 N 48.9098 1.14994 -5.50212 0
M  V30 451 H 41.0608 -0.597109 -2.03834 0
M  V30 452 H 43.3238 -0.205925 -0.925364 0
M  V30 453 H 43.0298 -0.175658 -3.51261 0
M  V30 454 H 42.9038 1.57255 -3.42857 0
M  V30 455 H 45.2908 1.65903 -2.4405 0
M  V30 456 H 45.3718 -0.104762 -2.55585 0
M  V30 457 H 45.0158 0.0661971 -5.07857 0
M  V30 458 H 44.9458 1.84045 -4.93391 0
M  V30 459 H 47.4368 0.935064 -3.66149 0
M  V30 460 H 47.7498 1.30008 -7.61786 0
M  V30 461 H 46.0948 1.17605 -6.84977 0
M  V30 462 H 49.2858 1.07643 -4.55555 0
M  V30 463 H 49.4588 1.24311 -6.35965 0
M  V30 464 N 42.8649 1.48995 0.513639 0
M  V30 465 C 43.7969 1.60836 1.63293 0
M  V30 466 C 44.8099 0.491701 1.55197 0
M  V30 467 O 45.9989 0.763238 1.6136 0
M  V30 468 C 43.0989 1.53731 3.02027 0
M  V30 469 C 42.2719 2.80715 3.35437 0
M  V30 470 C 41.3309 2.66837 4.53525 0
M  V30 471 O 40.3569 3.40753 4.55934 0
M  V30 472 N 41.5589 1.77539 5.52684 0
M  V30 473 H 44.3239 2.57366 1.53566 0
M  V30 474 H 41.8849 1.45925 0.701259 0
M  V30 475 H 43.8769 1.42118 3.78926 0
M  V30 476 H 42.4469 0.651092 3.05744 0
M  V30 477 H 41.6669 3.06772 2.47557 0
M  V30 478 H 42.9549 3.64927 3.54551 0
M  V30 479 H 42.3529 1.16719 5.53528 0
M  V30 480 H 40.9099 1.71856 6.28736 0
M  V30 481 N 44.343 -0.763751 1.37857 0
M  V30 482 C 45.29 -1.87726 1.34267 0
M  V30 483 C 46.26 -1.64807 0.206879 0
M  V30 484 O 47.445 -1.86613 0.397508 0
M  V30 485 C 44.585 -3.24896 1.16346 0
M  V30 486 C 43.698 -3.59716 2.39225 0
M  V30 487 C 42.833 -4.86137 2.14114 0
M  V30 488 C 41.872 -5.13711 3.32817 0
M  V30 489 N 41.009 -6.31323 3.07206 0
M  V30 490 H 45.849 -1.90129 2.29466 0
M  V30 491 H 43.386 -0.929433 1.14017 0
M  V30 492 H 45.344 -4.04036 1.03975 0
M  V30 493 H 43.974 -3.21847 0.247909 0
M  V30 494 H 43.026 -2.75498 2.62307 0
M  V30 495 H 44.338 -3.76027 3.27728 0
M  V30 496 H 43.492 -5.73198 1.9882 0
M  V30 497 H 42.231 -4.71945 1.22961 0
M  V30 498 H 41.236 -4.25123 3.48641 0
M  V30 499 H 42.461 -5.29807 4.24832 0
M  V30 500 H 40.407 -6.18474 2.1869 0
M  V30 501 H 40.324 -6.48087 3.89254 0
M  V30 502 H 41.592 -7.213 2.95546 0
M  V30 503 N 45.8211 -1.22559 -0.990812 0
M  V30 504 C 47.0491 -1.07779 -1.76611 0
M  V30 505 C 47.4641 0.371513 -1.85109 0
M  V30 506 O 46.8211 1.25737 -1.32274 0
M  V30 507 C 46.8721 -1.68512 -3.19822 0
M  V30 508 O 46.5931 -3.07774 -3.1178 0
M  V30 509 C 48.0941 -1.59035 -4.13791 0
M  V30 510 H 45.3141 -0.377729 -0.554583 0
M  V30 511 H 47.8581 -1.62195 -1.24551 0
M  V30 512 H 46.0131 -1.18154 -3.68942 0
M  V30 513 H 46.4271 -3.37062 -4.01858 0
M  V30 514 H 47.9011 -2.0625 -5.1202 0
M  V30 515 H 48.3781 -0.547273 -4.35777 0
M  V30 516 H 48.9841 -2.08709 -3.70568 0
M  V30 517 N 47.2992 1.18797 -1.03562 0
M  V30 518 C 48.5762 1.84469 -0.650434 0
M  V30 519 C 48.9562 1.92319 0.870433 0
M  V30 520 O 48.3042 1.44528 1.76986 0
M  V30 521 C 48.5142 3.2306 -1.32036 0
M  V30 522 C 49.8622 3.9915 -1.44792 0
M  V30 523 O 50.8862 3.32481 -1.27806 0
M  V30 524 O 49.7452 5.18587 -1.72423 0
M  V30 525 H 46.8392 0.795251 -0.226946 0
M  V30 526 H 49.3852 1.26231 -1.13419 0
M  V30 527 H 48.1572 3.1222 -2.3587 0
M  V30 528 H 47.7802 3.88949 -0.8249 0
M  V30 529 N 48.7773 0.814389 1.34928 0
M  V30 530 C 50.0233 0.408167 1.99263 0
M  V30 531 C 50.3783 -1.0154 1.63424 0
M  V30 532 O 49.6713 -1.69607 0.891289 0
M  V30 533 C 49.8653 0.537781 3.53331 0
M  V30 534 C 49.6943 1.9724 4.04137 0
M  V30 535 C 48.4643 2.60245 4.33129 0
M  V30 536 C 50.6623 2.93801 4.2212 0
M  V30 537 N 48.6443 3.95036 4.69914 0
M  V30 538 C 50.0153 4.1348 4.6199 0
M  V30 539 C 52.0703 2.9053 4.04348 0
M  V30 540 C 50.7733 5.3033 4.85945 0
M  V30 541 C 52.7993 4.06589 4.29464 0
M  V30 542 C 52.1613 5.25017 4.69613 0
M  V30 543 H 48.2603 0.197289 0.756704 0
M  V30 544 H 50.8443 1.05728 1.63492 0
M  V30 545 H 49.0153 -0.0813868 3.88315 0
M  V30 546 H 50.7473 0.105389 4.04563 0
M  V30 547 H 47.5023 2.11545 4.23728 0
M  V30 548 H 47.9263 4.64455 4.92555 0
M  V30 549 H 52.5683 2.00115 3.72443 0
M  V30 550 H 50.2863 6.21309 5.16721 0
M  V30 551 H 53.8723 4.05447 4.17257 0
M  V30 552 H 52.7523 6.1333 4.88667 0
M  V30 553 N 50.2554 -1.46986 0.568584 0
M  V30 554 C 51.1654 -2.33942 -0.17555 0
M  V30 555 C 52.1814 -1.48891 -0.90041 0
M  V30 556 O 53.3574 -1.81794 -0.86676 0
M  V30 557 C 50.4224 -3.25811 -1.18524 0
M  V30 558 C 49.4834 -4.26757 -0.466582 0
M  V30 559 C 48.7164 -5.14236 -1.42817 0
M  V30 560 O 48.9394 -5.04379 -2.66379 0
M  V30 561 O 47.8734 -5.94412 -0.946453 0
M  V30 562 H 51.6994 -2.98896 0.538036 0
M  V30 563 H 49.2844 -1.4573 0.329097 0
M  V30 564 H 51.1664 -3.82527 -1.76779 0
M  V30 565 H 49.8414 -2.63471 -1.88055 0
M  V30 566 H 48.7484 -3.73769 0.157451 0
M  V30 567 H 50.0814 -4.91843 0.187485 0
M  V30 568 N 51.7335 -0.305618 -1.54608 0
M  V30 569 C 52.9795 0.302746 -2.00528 0
M  V30 570 C 53.3125 1.53184 -1.19367 0
M  V30 571 O 52.5875 1.92598 -0.271321 0
M  V30 572 C 52.8705 0.654756 -3.54097 0
M  V30 573 C 52.7235 -0.583793 -4.45995 0
M  V30 574 C 54.0425 1.47947 -4.14487 0
M  V30 575 H 51.1615 0.108564 -0.72896 0
M  V30 576 H 53.8035 -0.418634 -1.85331 0
M  V30 577 H 51.9535 1.26935 -3.67178 0
M  V30 578 H 53.6255 -1.22224 -4.44814 0
M  V30 579 H 51.8685 -1.21615 -4.16404 0
M  V30 580 H 52.5395 -0.293287 -5.5122 0
M  V30 581 H 55.0155 0.96013 -4.04871 0
M  V30 582 H 53.8915 1.69454 -5.22088 0
M  V30 583 H 54.1525 2.47011 -3.66658 0
M  V30 584 N 53.2116 1.57565 -0.0334293 0
M  V30 585 C 54.1746 2.09393 0.932048 0
M  V30 586 C 55.1746 1.00986 1.25134 0
M  V30 587 O 56.3646 1.27129 1.19096 0
M  V30 588 C 53.4966 2.56338 2.2473 0
M  V30 589 H 54.6896 2.95984 0.483085 0
M  V30 590 H 52.2426 1.54819 0.21468 0
M  V30 591 H 52.9776 1.7309 2.74245 0
M  V30 592 H 52.7626 3.35542 2.02865 0
M  V30 593 H 54.2526 2.96646 2.93923 0
M  V30 594 N 54.6897 -0.239769 1.55765 0
M  V30 595 C 55.9387 -0.964754 1.77131 0
M  V30 596 C 56.2517 -1.86213 0.59868 0
M  V30 597 O 57.4577 -2.6244 0.695522 0
M  V30 598 C 55.9137 -1.76552 3.1362 0
M  V30 599 C 55.5217 -0.915185 4.38553 0
M  V30 600 C 57.2657 -2.48281 3.44321 0
M  V30 601 C 55.1727 -1.71225 5.66071 0
M  V30 602 H 54.1027 -0.363953 0.660344 0
M  V30 603 H 56.7537 -0.219181 1.82186 0
M  V30 604 H 55.1357 -2.55331 3.02691 0
M  V30 605 H 56.3097 -0.169217 4.60489 0
M  V30 606 H 54.6247 -0.310889 4.15238 0
M  V30 607 H 57.2217 -3.08382 4.36812 0
M  V30 608 H 57.5647 -3.20256 2.65973 0
M  V30 609 H 58.0977 -1.76507 3.56497 0
M  V30 610 H 54.8367 -1.03612 6.4726 0
M  V30 611 H 54.3567 -2.43331 5.48224 0
M  V30 612 H 56.0357 -2.27758 6.05587 0
M  V30 613 N 56.1678 -1.49265 -0.50573 0
M  V30 614 C 57.1148 -1.65585 -1.6078 0
M  V30 615 C 58.0848 -0.497396 -1.58478 0
M  V30 616 O 59.2698 -0.72385 -1.76536 0
M  V30 617 C 56.4098 -1.72408 -2.98948 0
M  V30 618 C 55.5228 -2.99525 -3.11301 0
M  V30 619 C 54.6578 -2.97356 -4.40174 0
M  V30 620 C 53.6968 -4.19074 -4.46143 0
M  V30 621 N 52.8338 -4.14841 -5.66437 0
M  V30 622 H 57.6738 -2.59688 -1.46172 0
M  V30 623 H 55.2108 -1.28761 -0.711261 0
M  V30 624 H 57.1688 -1.74344 -3.79025 0
M  V30 625 H 55.7988 -0.817753 -3.1227 0
M  V30 626 H 54.8508 -3.07222 -2.24318 0
M  V30 627 H 56.1628 -3.89518 -3.11572 0
M  V30 628 H 55.3168 -2.97829 -5.28567 0
M  V30 629 H 54.0558 -2.05133 -4.42461 0
M  V30 630 H 53.0608 -4.1885 -3.56153 0
M  V30 631 H 54.2858 -5.12483 -4.45575 0
M  V30 632 H 52.2318 -3.25453 -5.69575 0
M  V30 633 H 52.1488 -4.98564 -5.68304 0
M  V30 634 H 53.4168 -4.1941 -6.57051 0
M  V30 635 N 57.6459 0.756429 -1.3826 0
M  V30 636 C 58.8709 1.55077 -1.37717 0
M  V30 637 C 59.2959 1.88073 0.03164 0
M  V30 638 O 58.6539 1.50364 1.01293 0
M  V30 639 C 58.7019 2.8283 -2.23695 0
M  V30 640 O 57.8059 3.77862 -1.6521 0
M  V30 641 H 57.1469 0.469152 -0.469885 0
M  V30 642 H 59.6769 0.935019 -1.81985 0
M  V30 643 H 59.6869 3.31783 -2.37453 0
M  V30 644 H 58.3619 2.58144 -3.2609 0
M  V30 645 H 56.9389 3.36555 -1.60578 0
M  V30 646 N 59.124 1.23083 0.984299 0
M  V30 647 C 60.373 1.05466 1.71929 0
M  V30 648 C 60.686 -0.409211 1.91272 0
M  V30 649 O 61.892 -0.705226 2.62181 0
M  V30 650 C 60.348 1.83874 3.09384 0
M  V30 651 C 59.956 3.34566 2.97943 0
M  V30 652 C 61.7 1.74734 3.8687 0
M  V30 653 C 59.607 4.05381 4.30605 0
M  V30 654 H 58.537 0.391039 0.644674 0
M  V30 655 H 61.188 1.47013 1.09815 0
M  V30 656 H 59.57 1.35131 3.72231 0
M  V30 657 H 60.744 3.90767 2.44209 0
M  V30 658 H 59.059 3.44476 2.33934 0
M  V30 659 H 61.656 2.24957 4.85076 0
M  V30 660 H 61.999 0.709372 4.10212 0
M  V30 661 H 62.532 2.21067 3.30717 0
M  V30 662 H 59.271 5.09467 4.1246 0
M  V30 663 H 58.791 3.53967 4.84218 0
M  V30 664 H 60.47 4.11458 4.99311 0
M  V30 665 N 60.6021 -1.18246 1.0419 0
M  V30 666 C 61.5501 -2.23968 0.627792 0
M  V30 667 C 62.5441 -1.65828 -0.346019 0
M  V30 668 O 63.7501 -1.78733 -0.213175 0
M  V30 669 H 60.1251 -0.728939 0.184802 0
M  V30 670 H 62.0961 -2.56202 1.52981 0
M  V30 671 C 60.8451 -3.47699 0.00796591 0
M  V30 672 H 60.1681 -3.92734 0.748347 0
M  V30 673 H 61.6081 -4.23294 -0.24455 0
M  V30 674 C 60.0671 -3.13153 -1.24246 0
M  V30 675 O 60.5971 -3.27003 -2.33307 0
M  V30 676 N 58.8031 -2.67467 -1.13622 0
M  V30 677 H 58.3501 -2.56396 -0.248734 0
M  V30 678 H 58.3081 -2.44724 -1.97377 0
M  V30 679 N 62.0802 -0.821533 -1.34494 0
M  V30 680 C 63.0272 -0.240397 -2.29545 0
M  V30 681 C 63.9972 0.634031 -1.53523 0
M  V30 682 O 65.1822 0.575966 -1.81899 0
M  V30 683 C 62.3222 0.592869 -3.39969 0
M  V30 684 C 61.4352 -0.30365 -4.30932 0
M  V30 685 C 60.5702 0.539049 -5.28458 0
M  V30 686 C 59.6092 -0.356942 -6.11058 0
M  V30 687 N 58.7462 0.446603 -7.00678 0
M  V30 688 H 63.5862 -1.05632 -2.7865 0
M  V30 689 H 61.1232 -0.532413 -1.37127 0
M  V30 690 H 63.0812 1.09129 -4.02675 0
M  V30 691 H 61.7112 1.37392 -2.92102 0
M  V30 692 H 60.7632 -0.920276 -3.691 0
M  V30 693 H 62.0752 -0.992661 -4.88823 0
M  V30 694 H 61.2292 1.102 -5.96608 0
M  V30 695 H 59.9682 1.26157 -4.71101 0
M  V30 696 H 58.9732 -0.932047 -5.41842 0
M  V30 697 H 60.1982 -1.07755 -6.70497 0
M  V30 698 H 58.1442 1.15282 -6.45791 0
M  V30 699 H 58.0612 -0.184048 -7.55776 0
M  V30 700 H 59.3292 0.992352 -7.73158 0
M  V30 701 N 63.5583 1.46682 -0.576371 0
M  V30 702 C 64.5053 2.30241 0.160499 0
M  V30 703 C 65.4753 1.40233 0.890162 0
M  V30 704 O 66.6603 1.69186 0.882084 0
M  V30 705 C 63.8003 3.24578 1.1723 0
M  V30 706 C 62.9133 4.29684 0.446736 0
M  V30 707 C 62.0483 5.11154 1.44551 0
M  V30 708 C 61.0873 6.08015 0.70599 0
M  V30 709 N 60.2243 6.82376 1.65251 0
M  V30 710 H 65.0643 2.92727 -0.558127 0
M  V30 711 H 62.6013 1.44272 -0.287056 0
M  V30 712 H 64.5593 3.77711 1.77172 0
M  V30 713 H 63.1893 2.63916 1.85872 0
M  V30 714 H 62.2413 3.79458 -0.267594 0
M  V30 715 H 63.5533 4.98626 -0.131686 0
M  V30 716 H 62.7073 5.68533 2.11791 0
M  V30 717 H 61.4463 4.42158 2.05786 0
M  V30 718 H 60.4513 5.49796 0.0197725 0
M  V30 719 H 61.6763 6.79028 0.09912 0
M  V30 720 H 59.6223 6.16094 2.25308 0
M  V30 721 H 59.5393 7.47556 1.12673 0
M  V30 722 H 60.8073 7.44316 2.31546 0
M  V30 723 N 65.0364 0.313813 1.54444 0
M  V30 724 C 65.9844 -0.572171 2.25453 0
M  V30 725 C 66.9784 -1.12657 1.2651 0
M  V30 726 O 68.1844 -1.07573 1.44319 0
M  V30 727 H 64.5594 -0.203146 0.724041 0
M  V30 728 H 66.5304 0.0491145 2.9836 0
M  V30 729 C 65.2794 -1.72626 3.0182 0
M  V30 730 H 64.6024 -1.30891 3.77767 0
M  V30 731 H 66.0424 -2.32199 3.54767 0
M  V30 732 C 64.5014 -2.63806 2.09542 0
M  V30 733 O 65.0314 -3.65256 1.67185 0
M  V30 734 N 63.2374 -2.31824 1.75232 0
M  V30 735 H 62.7844 -1.49368 2.09873 0
M  V30 736 H 62.7424 -2.93095 1.13767 0
M  V30 737 N 66.5145 -1.57545 0.0417849 0
M  V30 738 C 67.4445 -2.14009 -0.933929 0
M  V30 739 C 68.4255 -1.05938 -1.33083 0
M  V30 740 O 69.6105 -1.33833 -1.40721 0
M  V30 741 C 66.7405 -2.67747 -2.21199 0
M  V30 742 C 65.6945 -3.80718 -1.95544 0
M  V30 743 C 65.0205 -4.20935 -3.29724 0
M  V30 744 C 66.3205 -5.06258 -1.28452 0
M  V30 745 H 68.0145 -2.95788 -0.463645 0
M  V30 746 H 65.5605 -1.42285 -0.221573 0
M  V30 747 H 67.5135 -3.05886 -2.89848 0
M  V30 748 H 66.2375 -1.83147 -2.70416 0
M  V30 749 H 64.8965 -3.43037 -1.2931 0
M  V30 750 H 64.5445 -3.33298 -3.76724 0
M  V30 751 H 64.2445 -4.9707 -3.13361 0
M  V30 752 H 65.7685 -4.61666 -3.9962 0
M  V30 753 H 67.1825 -5.41903 -1.8712 0
M  V30 754 H 65.5795 -5.87475 -1.22445 0
M  V30 755 H 66.6495 -4.84207 -0.259219 0
M  V30 756 N 67.9926 0.231505 -1.5589 0
M  V30 757 C 69.2176 0.978689 -1.82856 0
M  V30 758 C 69.6426 1.77559 -0.620846 0
M  V30 759 O 69.0006 1.76119 0.430305 0
M  V30 760 C 69.0486 1.87997 -3.07716 0
M  V30 761 O 68.1526 2.97393 -2.85712 0
M  V30 762 H 67.4936 0.277663 -0.603158 0
M  V30 763 H 70.0236 0.24783 -2.03093 0
M  V30 764 H 70.0336 2.2917 -3.37558 0
M  V30 765 H 68.7086 1.29417 -3.95252 0
M  V30 766 H 67.2856 2.60238 -2.67078 0
M  V30 767 N 69.4707 1.49531 0.497807 0
M  V30 768 C 70.4177 1.66436 1.59899 0
M  V30 769 C 71.3877 0.505793 1.58212 0
M  V30 770 O 72.5727 0.733202 1.7615 0
M  V30 771 C 69.7127 1.7399 2.98029 0
M  V30 772 C 68.8257 3.01172 3.09708 0
M  V30 773 C 67.9607 2.99686 4.38591 0
M  V30 774 C 66.9997 4.21434 4.43914 0
M  V30 775 N 66.1367 4.1784 5.64229 0
M  V30 776 H 70.9767 2.60459 1.44793 0
M  V30 777 H 68.5137 1.29137 0.704423 0
M  V30 778 H 70.4717 1.76352 3.78095 0
M  V30 779 H 69.1017 0.834301 3.11832 0
M  V30 780 H 68.1537 3.08408 2.22685 0
M  V30 781 H 69.4657 3.91165 3.09502 0
M  V30 782 H 68.6197 3.00628 5.2698 0
M  V30 783 H 67.3587 2.07477 4.41367 0
M  V30 784 H 66.3637 4.20733 3.53926 0
M  V30 785 H 67.5887 5.14839 4.42851 0
M  V30 786 H 65.5347 3.28469 5.67841 0
M  V30 787 H 65.4517 5.01571 5.65652 0
M  V30 788 H 66.7197 4.22889 6.54817 0
M  V30 789 N 70.9488 -0.749086 1.3866 0
M  V30 790 C 72.1738 -1.54344 1.38538 0
M  V30 791 C 72.5988 -1.88088 -0.0216655 0
M  V30 792 O 71.9568 -1.50899 -1.00494 0
M  V30 793 C 72.0048 -2.8164 2.25192 0
M  V30 794 O 71.1088 -3.7698 1.67212 0
M  V30 795 H 70.4498 -0.466654 0.472367 0
M  V30 796 H 72.9798 -0.925355 1.82478 0
M  V30 797 H 72.9898 -3.30519 2.3921 0
M  V30 798 H 71.6648 -2.56411 3.27454 0
M  V30 799 H 70.2418 -3.35699 1.6236 0
M  V30 800 N 72.4269 -1.23603 -0.977757 0
M  V30 801 C 73.3589 -0.977369 -2.07317 0
M  V30 802 C 74.3719 0.0495845 -1.62724 0
M  V30 803 O 75.5609 -0.186261 -1.77526 0
M  V30 804 C 72.6609 -0.451216 -3.35883 0
M  V30 805 C 71.8339 -1.53896 -4.09432 0
M  V30 806 C 70.8929 -1.01721 -5.16274 0
M  V30 807 O 69.9189 -1.70676 -5.43009 0
M  V30 808 N 71.1209 0.153594 -5.80297 0
M  V30 809 H 73.8859 -1.92047 -2.30082 0
M  V30 810 H 71.4469 -1.14497 -1.14465 0
M  V30 811 H 73.4389 -0.0871574 -4.04606 0
M  V30 812 H 72.0089 0.397368 -3.10064 0
M  V30 813 H 71.2289 -2.07566 -3.35127 0
M  V30 814 H 72.5169 -2.27037 -4.55337 0
M  V30 815 H 71.9149 0.730323 -5.60966 0
M  V30 816 H 70.4719 0.458892 -6.50183 0
M  V30 817 N 73.905 1.17692 -1.04816 0
M  V30 818 C 75.154 1.87192 -0.751132 0
M  V30 819 C 75.467 1.8169 0.724441 0
M  V30 820 O 76.673 2.46625 1.13527 0
M  V30 821 C 75.129 3.35857 -1.29338 0
M  V30 822 C 74.737 3.4987 -2.79812 0
M  V30 823 C 76.481 4.10709 -1.07322 0
M  V30 824 C 74.388 4.92536 -3.27356 0
M  V30 825 H 73.318 0.701162 -0.277288 0
M  V30 826 H 75.969 1.32932 -1.26496 0
M  V30 827 H 74.351 3.89631 -0.707376 0
M  V30 828 H 75.525 3.06332 -3.44235 0
M  V30 829 H 73.84 2.88433 -3.00325 0
M  V30 830 H 76.437 5.15952 -1.4035 0
M  V30 831 H 76.78 4.16299 -0.0108001 0
M  V30 832 H 77.313 3.6313 -1.62423 0
M  V30 833 H 74.052 4.92119 -4.33012 0
M  V30 834 H 73.572 5.3676 -2.67673 0
M  V30 835 H 75.251 5.61288 -3.21815 0
M  V30 836 N 75.3831 0.828654 1.34056 0
M  V30 837 C 76.3131 0.269443 2.3194 0
M  V30 838 C 77.2941 -0.617247 1.58506 0
M  V30 839 O 78.4791 -0.542931 1.86456 0
M  V30 840 C 75.6091 -0.564793 3.42677 0
M  V30 841 C 74.5631 0.225241 4.27407 0
M  V30 842 C 73.8891 -0.7321 5.29664 0
M  V30 843 C 75.1891 1.43663 5.02154 0
M  V30 844 H 76.8831 1.08728 2.7896 0
M  V30 845 H 74.4291 0.524283 1.34117 0
M  V30 846 H 76.3821 -0.966233 4.10173 0
M  V30 847 H 75.1061 -1.41574 2.9432 0
M  V30 848 H 73.7651 0.608117 3.61521 0
M  V30 849 H 73.4131 -1.57916 4.77568 0
M  V30 850 H 73.1131 -0.20767 5.87233 0
M  V30 851 H 74.6371 -1.13128 6.00029 0
M  V30 852 H 76.0511 1.1089 5.62473 0
M  V30 853 H 74.4481 1.89711 5.69324 0
M  V30 854 H 75.5181 2.21181 4.31517 0
M  V30 855 N 76.8612 -1.46375 0.584142 0
M  V30 856 C 77.7912 -2.33103 -0.136037 0
M  V30 857 C 78.7722 -1.45431 -0.882255 0
M  V30 858 O 79.9572 -1.74246 -0.857434 0
M  V30 859 C 77.0872 -3.27731 -1.14933 0
M  V30 860 C 76.0412 -4.24855 -0.517862 0
M  V30 861 C 75.3672 -5.09001 -1.63773 0
M  V30 862 C 76.6672 -5.19439 0.545886 0
M  V30 863 H 78.3612 -2.93568 0.588086 0
M  V30 864 H 75.9072 -1.41166 0.284259 0
M  V30 865 H 77.8602 -3.87261 -1.66153 0
M  V30 866 H 76.5842 -2.65377 -1.90375 0
M  V30 867 H 75.2432 -3.6659 -0.0267361 0
M  V30 868 H 74.8912 -4.43031 -2.38185 0
M  V30 869 H 74.5912 -5.74777 -1.22085 0
M  V30 870 H 76.1152 -5.71396 -2.15266 0
M  V30 871 H 77.5292 -5.73177 0.118704 0
M  V30 872 H 75.9262 -5.93566 0.88317 0
M  V30 873 H 76.9962 -4.63285 1.43162 0
M  V30 874 N 78.3393 -0.321999 -1.54275 0
M  V30 875 C 79.5873 0.280489 -2.00144 0
M  V30 876 C 79.9083 1.52777 -1.21178 0
M  V30 877 O 79.1783 1.9338 -0.313187 0
M  V30 878 H 77.7583 0.106632 -0.73935 0
M  V30 879 H 80.4203 -0.438184 -1.8991 0
M  V30 880 H 79.5163 0.537972 -3.07428 0
M  V30 881 N 79.8174 1.5752 -0.0501392 0
M  V30 882 C 80.7644 2.1147 0.924603 0
M  V30 883 C 81.7344 1.02182 1.30951 0
M  V30 884 O 82.9194 1.29723 1.39916 0
M  V30 885 C 80.0594 2.66337 2.19451 0
M  V30 886 C 79.1724 3.89708 1.86418 0
M  V30 887 C 78.3074 4.32893 3.07859 0
M  V30 888 C 77.3464 5.48967 2.70742 0
M  V30 889 N 76.4834 5.87211 3.84874 0
M  V30 890 H 81.3234 2.94465 0.457639 0
M  V30 891 H 78.8604 1.45531 0.214266 0
M  V30 892 H 80.8184 2.96247 2.93758 0
M  V30 893 H 79.4484 1.86141 2.63726 0
M  V30 894 H 78.5004 3.66396 1.02264 0
M  V30 895 H 79.8124 4.74074 1.55096 0
M  V30 896 H 78.9664 4.6435 3.90466 0
M  V30 897 H 77.7054 3.47336 3.42358 0
M  V30 898 H 76.7104 5.17183 1.86551 0
M  V30 899 H 77.9354 6.3624 2.37436 0
M  V30 900 H 75.8814 5.04607 4.19175 0
M  V30 901 H 75.7984 6.66266 3.57247 0
M  V30 902 H 77.0664 6.23282 4.68123 0
M  V30 903 N 81.2955 -0.223234 1.56011 0
M  V30 904 C 82.2055 -1.29766 1.95443 0
M  V30 905 C 83.2215 -1.51373 0.858028 0
M  V30 906 O 84.3975 -1.64536 1.16146 0
M  V30 907 C 81.4625 -2.62772 2.26167 0
M  V30 908 C 80.5235 -2.49482 3.49367 0
M  V30 909 C 79.7565 -3.76145 3.78616 0
M  V30 910 O 79.9795 -4.79087 3.09568 0
M  V30 911 O 78.9135 -3.73358 4.72109 0
M  V30 912 H 82.7395 -0.99309 2.87004 0
M  V30 913 H 80.3245 -0.425958 1.43199 0
M  V30 914 H 82.2065 -3.41327 2.47131 0
M  V30 915 H 80.8815 -2.92913 1.37781 0
M  V30 916 H 79.7885 -1.69133 3.33684 0
M  V30 917 H 81.1215 -2.2428 4.38131 0
M  V30 918 N 82.7736 -1.49793 -0.48987 0
M  V30 919 C 84.0226 -1.59085 -1.23995 0
M  V30 920 C 84.3356 -0.287907 -1.9347 0
M  V30 921 O 85.5416 -0.259506 -2.70257 0
M  V30 922 C 83.9976 -2.80736 -2.252 0
M  V30 923 C 83.6056 -4.17833 -1.61614 0
M  V30 924 C 85.3496 -2.99364 -3.00967 0
M  V30 925 C 83.2566 -5.30693 -2.60996 0
M  V30 926 H 82.1866 -0.592372 -0.466488 0
M  V30 927 H 84.8376 -1.76197 -0.51252 0
M  V30 928 H 83.2196 -2.57142 -3.01154 0
M  V30 929 H 84.3936 -4.51608 -0.915774 0
M  V30 930 H 82.7086 -4.04656 -0.981977 0
M  V30 931 H 85.3056 -3.80851 -3.75308 0
M  V30 932 H 85.6486 -2.10356 -3.59244 0
M  V30 933 H 86.1816 -3.2305 -2.32128 0
M  V30 934 H 82.9206 -6.21796 -2.07485 0
M  V30 935 H 82.4406 -5.01359 -3.2924 0
M  V30 936 H 84.1196 -5.6049 -3.23202 0
M  V30 937 N 84.2517 0.741722 -1.39055 0
M  V30 938 C 85.1987 1.85566 -1.37237 0
M  V30 939 C 86.1687 1.64457 -0.233072 0
M  V30 940 O 87.3537 1.85957 -0.427147 0
M  V30 941 C 84.4937 3.23004 -1.215 0
M  V30 942 C 83.6067 3.55864 -2.44918 0
M  V30 943 C 82.7417 4.82669 -2.21821 0
M  V30 944 C 81.7807 5.08351 -3.40948 0
M  V30 945 N 80.9177 6.26356 -3.17211 0
M  V30 946 H 85.7577 1.86455 -2.32462 0
M  V30 947 H 83.2947 0.911176 -1.15482 0
M  V30 948 H 85.2527 4.02331 -1.10389 0
M  V30 949 H 83.8827 3.21411 -0.29908 0
M  V30 950 H 82.9347 2.7129 -2.66657 0
M  V30 951 H 84.2467 3.70765 -3.33668 0
M  V30 952 H 83.4007 5.69962 -2.07914 0
M  V30 953 H 82.1397 4.69929 -1.30454 0
M  V30 954 H 81.1447 4.19522 -3.55361 0
M  V30 955 H 82.3697 5.22981 -4.33207 0
M  V30 956 H 80.3157 6.14917 -2.28502 0
M  V30 957 H 80.2327 6.41813 -3.99515 0
M  V30 958 H 81.5007 7.16506 -3.06984 0
M  V30 959 N 85.7298 1.2412 0.971189 0
M  V30 960 C 86.9788 1.07284 1.70801 0
M  V30 961 C 87.2918 -0.388902 1.91695 0
M  V30 962 O 88.4978 -0.677379 2.62914 0
M  V30 963 C 86.9538 1.87145 3.07416 0
M  V30 964 C 86.5618 3.37707 2.94377 0
M  V30 965 C 88.3058 1.78828 3.84995 0
M  V30 966 C 86.2128 4.09925 4.26281 0
M  V30 967 H 85.1428 0.397854 0.64049 0
M  V30 968 H 87.7938 1.4817 1.0825 0
M  V30 969 H 86.1758 1.39071 3.70777 0
M  V30 970 H 87.3498 3.93335 2.4005 0
M  V30 971 H 85.6648 3.46938 2.30267 0
M  V30 972 H 88.2618 2.30089 4.82662 0
M  V30 973 H 88.6048 0.75284 4.09436 0
M  V30 974 H 89.1378 2.24563 3.28354 0
M  V30 975 H 85.8768 5.13813 4.07033 0
M  V30 976 H 85.3968 3.59083 4.80437 0
M  V30 977 H 87.0758 4.1673 4.94919 0
M  V30 978 N 87.2079 -1.17134 1.05439 0
M  V30 979 C 88.1379 -2.2342 0.678649 0
M  V30 980 C 89.1189 -1.66971 -0.32476 0
M  V30 981 O 90.3039 -1.93149 -0.201802 0
M  V30 982 C 87.4339 -3.47256 0.0552099 0
M  V30 983 C 86.3879 -4.16543 0.98365 0
M  V30 984 C 85.7139 -5.34231 0.223961 0
M  V30 985 C 87.0139 -4.68495 2.3089 0
M  V30 986 H 88.7079 -2.55105 1.56722 0
M  V30 987 H 86.2539 -1.2262 0.754998 0
M  V30 988 H 88.2069 -4.20828 -0.21946 0
M  V30 989 H 86.9309 -3.14846 -0.868319 0
M  V30 990 H 85.5899 -3.44887 1.24293 0
M  V30 991 H 85.2379 -4.98071 -0.702412 0
M  V30 992 H 84.9379 -5.81527 0.842627 0
M  V30 993 H 86.4619 -6.10585 -0.0433671 0
M  V30 994 H 87.8759 -5.33691 2.09396 0
M  V30 995 H 86.2729 -5.26379 2.88176 0
M  V30 996 H 87.3429 -3.85169 2.94572 0
M  V30 997 N 88.686 -0.835752 -1.33615 0
M  V30 998 C 89.633 -0.26473 -2.29277 0
M  V30 999 C 90.603 0.617712 -1.54187 0
M  V30 1000 O 91.788 0.556641 -1.825 0
M  V30 1001 C 88.928 0.556777 -3.40579 0
M  V30 1002 C 88.041 -0.349339 -4.30585 0
M  V30 1003 C 87.176 0.482969 -5.29 0
M  V30 1004 C 86.215 -0.421732 -6.10645 0
M  V30 1005 N 85.352 0.372262 -7.01112 0
M  V30 1006 H 90.192 -1.08582 -2.77514 0
M  V30 1007 H 87.729 -0.546927 -1.36554 0
M  V30 1008 H 89.687 1.04852 -4.03809 0
M  V30 1009 H 88.317 1.34286 -2.93542 0
M  V30 1010 H 87.369 -0.959372 -3.68104 0
M  V30 1011 H 88.681 -1.04445 -4.87742 0
M  V30 1012 H 87.835 1.03866 -5.97743 0
M  V30 1013 H 86.574 1.21153 -4.72412 0
M  V30 1014 H 85.579 -0.989464 -5.40823 0
M  V30 1015 H 86.804 -1.14861 -6.69316 0
M  V30 1016 H 84.75 1.08426 -6.46977 0
M  V30 1017 H 84.667 -0.264198 -7.55538 0
M  V30 1018 H 85.935 0.910293 -7.74167 0
M  V30 1019 N 90.1641 1.46063 -0.591896 0
M  V30 1020 C 91.0741 2.34192 0.13831 0
M  V30 1021 C 92.0901 1.50305 0.876608 0
M  V30 1022 O 93.2661 1.8315 0.837728 0
M  V30 1023 C 90.3311 3.27656 1.13326 0
M  V30 1024 C 89.3921 4.27445 0.39863 0
M  V30 1025 C 88.6251 5.16443 1.34618 0
M  V30 1026 O 88.8481 5.08553 2.58321 0
M  V30 1027 O 87.7821 5.95843 0.851768 0
M  V30 1028 H 91.6081 2.98002 -0.58552 0
M  V30 1029 H 89.1931 1.45188 -0.352239 0
M  V30 1030 H 91.0751 3.85291 1.70671 0
M  V30 1031 H 89.7501 2.6643 1.83839 0
M  V30 1032 H 88.6571 3.73471 -0.216895 0
M  V30 1033 H 89.9901 4.91482 -0.265709 0
M  V30 1034 N 91.6422 0.330177 1.54103 0
M  V30 1035 C 92.5722 -0.525353 2.27513 0
M  V30 1036 C 93.5532 -1.11383 1.2856 0
M  V30 1037 O 94.7382 -1.13773 1.57383 0
M  V30 1038 C 91.8682 -1.6831 3.03791 0
M  V30 1039 C 90.8222 -1.2236 4.10137 0
M  V30 1040 C 90.1482 -2.46882 4.74293 0
M  V30 1041 C 91.4482 -0.333697 5.21233 0
M  V30 1042 H 93.1422 0.087013 2.99274 0
M  V30 1043 H 90.6882 0.0432893 1.43935 0
M  V30 1044 H 92.6412 -2.28795 3.5388 0
M  V30 1045 H 91.3652 -2.32216 2.29659 0
M  V30 1046 H 90.0242 -0.64165 3.60941 0
M  V30 1047 H 89.6722 -3.09165 3.96769 0
M  V30 1048 H 89.3722 -2.16825 5.46133 0
M  V30 1049 H 90.8962 -3.08117 5.27159 0
M  V30 1050 H 92.3102 -0.845013 5.67038 0
M  V30 1051 H 90.7072 -0.125612 5.99969 0
M  V30 1052 H 91.7772 0.633724 4.80741 0
M  V30 1053 N 93.1203 -1.57491 0.0584922 0
M  V30 1054 C 94.0523 -2.08916 -0.942694 0
M  V30 1055 C 95.0653 -1.0185 -1.27006 0
M  V30 1056 O 96.2543 -1.29398 -1.22957 0
M  V30 1057 C 93.3543 -2.52341 -2.26224 0
M  V30 1058 C 92.5273 -3.82827 -2.1157 0
M  V30 1059 C 91.5863 -4.12487 -3.26712 0
M  V30 1060 O 90.6123 -4.82295 -3.02292 0
M  V30 1061 N 91.8143 -3.64978 -4.5141 0
M  V30 1062 H 94.5793 -2.95437 -0.503722 0
M  V30 1063 H 92.1403 -1.61397 -0.12757 0
M  V30 1064 H 94.1323 -2.69254 -3.02133 0
M  V30 1065 H 92.7023 -1.7103 -2.61663 0
M  V30 1066 H 91.9223 -3.75425 -1.20208 0
M  V30 1067 H 93.2103 -4.68263 -1.99015 0
M  V30 1068 H 92.6083 -3.08558 -4.7414 0
M  V30 1069 H 91.1653 -3.87115 -5.2439 0
M  V30 1070 N 94.5984 0.214957 -1.56127 0
M  V30 1071 C 95.5484 1.27006 -1.8935 0
M  V30 1072 C 96.5324 1.41969 -0.757202 0
M  V30 1073 O 97.7244 1.44673 -1.01973 0
M  V30 1074 C 94.8534 2.61911 -2.2194 0
M  V30 1075 C 93.9394 2.50822 -3.41978 0
M  V30 1076 N 94.3304 2.09391 -4.60423 0
M  V30 1077 C 92.6284 2.81765 -3.45723 0
M  V30 1078 C 93.3294 2.09712 -5.42582 0
M  V30 1079 N 92.3054 2.50454 -4.82466 0
M  V30 1080 H 96.1074 0.940734 -2.78437 0
M  V30 1081 H 93.6214 0.423492 -1.56781 0
M  V30 1082 H 95.6184 3.38096 -2.43919 0
M  V30 1083 H 94.2784 2.95684 -1.34169 0
M  V30 1084 H 95.2894 1.80416 -4.85459 0
M  V30 1085 H 91.9664 3.19865 -2.68314 0
M  V30 1086 H 93.3564 1.79748 -6.4741 0
M  V30 1087 N 96.0765 1.50051 0.48192 0
M  V30 1088 C 96.9865 1.7089 1.60728 0
M  V30 1089 C 98.0025 0.591788 1.63627 0
M  V30 1090 O 99.1785 0.868817 1.81696 0
M  V30 1091 C 96.2435 1.78855 2.97005 0
M  V30 1092 C 95.3045 3.02537 3.04581 0
M  V30 1093 C 94.5375 3.10112 4.34357 0
M  V30 1094 O 94.7605 2.24765 5.24249 0
M  V30 1095 O 93.6945 4.02747 4.47301 0
M  V30 1096 H 97.5205 2.66264 1.46072 0
M  V30 1097 H 95.1055 1.34018 0.660264 0
M  V30 1098 H 96.9875 1.86336 3.77964 0
M  V30 1099 H 95.6625 0.866628 3.11883 0
M  V30 1100 H 94.5695 3.00563 2.22739 0
M  V30 1101 H 95.9025 3.94272 2.94636 0
M  V30 1102 N 97.5546 -0.734337 1.39446 0
M  V30 1103 C 98.5026 -1.86971 1.38364 0
M  V30 1104 C 99.4966 -1.67288 0.266687 0
M  V30 1105 O 100.703 -1.74621 0.436755 0
M  V30 1106 H 97.0776 -0.615474 0.432082 0
M  V30 1107 H 99.0486 -1.85 2.34132 0
M  V30 1108 C 97.7976 -3.2466 1.24465 0
M  V30 1109 H 97.1206 -3.40402 2.09682 0
M  V30 1110 H 98.5606 -4.04292 1.27764 0
M  V30 1111 C 97.0196 -3.36867 -0.0468674 0
M  V30 1112 O 97.5496 -3.88618 -1.01681 0
M  V30 1113 N 95.7556 -2.90391 -0.110145 0
M  V30 1114 H 95.3026 -2.48466 0.679868 0
M  V30 1115 H 95.2606 -2.98939 -0.973799 0
M  V30 1116 N 99.0327 -1.24633 -0.964593 0
M  V30 1117 C 100.282 -1.08188 -1.7023 0
M  V30 1118 C 100.595 0.37873 -1.91898 0
M  V30 1119 O 101.801 0.663427 -2.6327 0
M  V30 1120 C 100.257 -1.88773 -3.06419 0
M  V30 1121 C 99.8647 -3.39263 -2.92582 0
M  V30 1122 C 101.609 -1.80867 -3.84041 0
M  V30 1123 C 99.5157 -4.1218 -4.24101 0
M  V30 1124 H 98.4457 -0.401245 -0.638372 0
M  V30 1125 H 101.097 -1.48742 -1.07462 0
M  V30 1126 H 99.4787 -1.41035 -3.70034 0
M  V30 1127 H 100.653 -3.94603 -2.37961 0
M  V30 1128 H 98.9677 -3.48154 -2.28424 0
M  V30 1129 H 101.565 -2.32646 -4.81435 0
M  V30 1130 H 101.908 -0.774543 -4.09031 0
M  V30 1131 H 102.441 -2.26301 -3.27159 0
M  V30 1132 H 99.1797 -5.15965 -4.04303 0
M  V30 1133 H 98.6997 -3.61626 -4.78526 0
M  V30 1134 H 100.379 -4.19349 -4.92702 0
M  V30 1135 N 100.511 1.16574 -1.06058 0
M  V30 1136 C 101.757 1.87324 -0.777022 0
M  V30 1137 C 102.09 1.81351 0.694645 0
M  V30 1138 O 101.365 1.22753 1.50871 0
M  V30 1139 C 101.648 3.36991 -1.26922 0
M  V30 1140 C 101.501 3.51667 -2.80447 0
M  V30 1141 C 102.82 4.3131 -0.87521 0
M  V30 1142 H 99.9388 0.680191 -0.28374 0
M  V30 1143 H 102.581 1.37036 -1.3161 0
M  V30 1144 H 100.731 3.79949 -0.81063 0
M  V30 1145 H 102.403 3.17664 -3.34495 0
M  V30 1146 H 100.646 2.93656 -3.19294 0
M  V30 1147 H 101.317 4.56766 -3.0995 0
M  V30 1148 H 103.793 3.9624 -1.27014 0
M  V30 1149 H 102.669 5.34545 -1.2471 0
M  V30 1150 H 102.93 4.41552 0.220071 0
M  V30 1151 N 101.989 0.842826 1.3317 0
M  V30 1152 C 102.952 0.284065 2.27433 0
M  V30 1153 C 103.952 -0.54948 1.5112 0
M  V30 1154 O 105.142 -0.362699 1.70382 0
M  V30 1155 C 102.274 -0.599384 3.35589 0
M  V30 1156 H 103.467 1.11589 2.78366 0
M  V30 1157 H 101.02 0.616221 1.4364 0
M  V30 1158 H 101.755 -1.45349 2.89904 0
M  V30 1159 H 101.54 -0.00291266 3.921 0
M  V30 1160 H 103.03 -0.983488 4.05854 0
M  V30 1161 N 103.467 -1.45747 0.599634 0
M  V30 1162 C 104.397 -2.33235 -0.111306 0
M  V30 1163 C 105.378 -1.46359 -0.866781 0
M  V30 1164 O 106.563 -1.75146 -0.838904 0
M  V30 1165 C 103.693 -3.28932 -1.11451 0
M  V30 1166 C 102.647 -4.25381 -0.472772 0
M  V30 1167 C 101.973 -5.1071 -1.58365 0
M  V30 1168 C 103.273 -5.18831 0.600948 0
M  V30 1169 H 104.967 -2.92927 0.61919 0
M  V30 1170 H 102.513 -1.40857 0.299215 0
M  V30 1171 H 104.466 -3.89002 -1.62036 0
M  V30 1172 H 103.19 -2.67381 -1.8755 0
M  V30 1173 H 101.849 -3.66598 0.0121472 0
M  V30 1174 H 101.497 -4.45533 -2.33473 0
M  V30 1175 H 101.197 -5.7604 -1.15982 0
M  V30 1176 H 102.721 -5.73647 -2.09194 0
M  V30 1177 H 104.135 -5.73019 0.179491 0
M  V30 1178 H 102.532 -5.92595 0.946076 0
M  V30 1179 H 103.602 -4.6174 1.48068 0
M  V30 1180 N 104.945 -0.338344 -1.53925 0
M  V30 1181 C 106.175 0.260919 -2.04946 0
M  V30 1182 C 106.583 1.45174 -1.2133 0
M  V30 1183 O 105.926 1.82122 -0.240262 0
M  V30 1184 C 105.988 0.744596 -3.51704 0
M  V30 1185 C 105.652 -0.325883 -4.55837 0
M  V30 1186 C 106.649 -1.16687 -5.06636 0
M  V30 1187 C 104.334 -0.478317 -5.00017 0
M  V30 1188 C 106.328 -2.14588 -6.00192 0
M  V30 1189 C 104.015 -1.46073 -5.93385 0
M  V30 1190 C 105.013 -2.29297 -6.4336 0
M  V30 1191 O 104.701 -3.25867 -7.34892 0
M  V30 1192 H 104.433 0.0551207 -0.673749 0
M  V30 1193 H 106.987 -0.486984 -1.99544 0
M  V30 1194 H 105.217 1.54366 -3.54553 0
M  V30 1195 H 106.906 1.26383 -3.85723 0
M  V30 1196 H 107.672 -1.06016 -4.73271 0
M  V30 1197 H 103.551 0.159613 -4.60724 0
M  V30 1198 H 107.095 -2.79585 -6.39123 0
M  V30 1199 H 102.992 -1.56802 -6.26166 0
M  V30 1200 H 103.76 -3.21278 -7.5281 0
M  V30 1201 N 106.423 1.57458 -0.0668435 0
M  V30 1202 C 107.7 1.8469 0.644132 0
M  V30 1203 C 108.08 0.958343 1.88093 0
M  V30 1204 O 107.428 0.0233579 2.28488 0
M  V30 1205 C 107.638 3.34767 0.986509 0
M  V30 1206 C 108.986 4.02159 1.36212 0
M  V30 1207 O 110.01 3.39484 1.07839 0
M  V30 1208 O 108.869 5.12694 1.89227 0
M  V30 1209 H 105.963 0.762816 0.319437 0
M  V30 1210 H 108.509 1.6942 -0.0973986 0
M  V30 1211 H 107.281 3.91151 0.107883 0
M  V30 1212 H 106.904 3.55281 1.78497 0
M  V30 1213 N 107.901 -0.206675 1.56239 0
M  V30 1214 C 109.147 -0.930218 1.80208 0
M  V30 1215 C 109.48 -1.83387 0.638981 0
M  V30 1216 O 108.755 -1.91119 -0.361066 0
M  V30 1217 C 109.038 -1.75641 3.1436 0
M  V30 1218 C 108.891 -0.878257 4.41142 0
M  V30 1219 C 110.21 -2.73129 3.45092 0
M  V30 1220 H 107.329 -0.336742 0.655571 0
M  V30 1221 H 109.971 -0.198222 1.88963 0
M  V30 1222 H 108.121 -2.38048 3.07027 0
M  V30 1223 H 109.793 -0.269787 4.6051 0
M  V30 1224 H 108.036 -0.184385 4.33408 0
M  V30 1225 H 108.707 -1.49106 5.3148 0
M  V30 1226 H 111.183 -2.20856 3.52649 0
M  V30 1227 H 110.059 -3.28028 4.40101 0
M  V30 1228 H 110.32 -3.51606 2.68003 0
M  V30 1229 N 109.379 -1.50304 -0.473955 0
M  V30 1230 C 110.311 -1.65109 -1.58971 0
M  V30 1231 C 111.324 -0.532676 -1.53839 0
M  V30 1232 O 112.513 -0.805751 -1.59279 0
M  V30 1233 C 109.613 -1.61684 -2.97845 0
M  V30 1234 C 108.786 -2.8951 -3.27876 0
M  V30 1235 C 107.845 -2.78768 -4.4629 0
M  V30 1236 O 106.871 -3.52722 -4.46739 0
M  V30 1237 N 108.073 -1.9213 -5.47783 0
M  V30 1238 H 110.838 -2.61347 -1.46689 0
M  V30 1239 H 108.399 -1.47732 -0.662324 0
M  V30 1240 H 110.391 -1.52114 -3.75024 0
M  V30 1241 H 108.961 -0.731925 -3.03911 0
M  V30 1242 H 108.181 -3.13228 -2.39336 0
M  V30 1243 H 109.469 -3.74199 -3.4475 0
M  V30 1244 H 108.867 -1.31353 -5.50239 0
M  V30 1245 H 107.424 -1.88466 -6.23958 0
M  V30 1246 N 110.857 0.726932 -1.39834 0
M  V30 1247 C 111.767 1.87131 -1.41489 0
M  V30 1248 C 112.783 1.71239 -0.308757 0
M  V30 1249 O 113.959 1.93701 -0.551529 0
M  V30 1250 C 111.024 3.22811 -1.26468 0
M  V30 1251 C 110.085 3.51039 -2.47124 0
M  V30 1252 C 109.318 4.80245 -2.3281 0
M  V30 1253 O 109.541 5.54537 -1.33585 0
M  V30 1254 O 108.475 5.08554 -3.21957 0
M  V30 1255 H 112.301 1.8869 -2.3797 0
M  V30 1256 H 109.886 0.875837 -1.21035 0
M  V30 1257 H 111.768 4.03877 -1.20255 0
M  V30 1258 H 110.443 3.22005 -0.330862 0
M  V30 1259 H 109.35 2.70027 -2.58914 0
M  V30 1260 H 110.683 3.56632 -3.39227 0
M  V30 1261 N 112.336 1.25143 0.95797 0
M  V30 1262 C 113.266 1.07711 2.07173 0
M  V30 1263 C 114.247 -0.0128462 1.70095 0
M  V30 1264 O 115.432 0.156061 1.93572 0
M  V30 1265 C 112.562 0.691503 3.40346 0
M  V30 1266 C 111.516 1.73132 3.9142 0
M  V30 1267 C 110.842 1.20049 5.21049 0
M  V30 1268 C 112.142 3.1294 4.1817 0
M  V30 1269 H 113.836 2.00873 2.22014 0
M  V30 1270 H 111.382 0.967191 1.06684 0
M  V30 1271 H 113.335 0.556505 4.17709 0
M  V30 1272 H 112.059 -0.275819 3.25433 0
M  V30 1273 H 110.718 1.8547 3.16222 0
M  V30 1274 H 110.366 0.223499 5.02503 0
M  V30 1275 H 110.066 1.89545 5.56189 0
M  V30 1276 H 111.59 1.07782 6.01012 0
M  V30 1277 H 113.004 3.03775 4.86203 0
M  V30 1278 H 111.401 3.79875 4.64559 0
M  V30 1279 H 112.471 3.6025 3.24573 0
M  V30 1280 N 113.814 -1.1601 1.06675 0
M  V30 1281 C 115.225 -1.68235 0.809565 0
M  V30 1282 C 115.576 -1.8454 -0.666303 0
M  V30 1283 O 114.701 -1.54374 -1.5165 0
M  V30 1284 C 115.296 -3.05585 1.46299 0
M  V30 1285 C 113.855 -3.54915 1.25349 0
M  V30 1286 C 113.002 -2.30804 1.53703 0
M  V30 1287 H 115.953 -1.00318 1.22971 0
M  V30 1288 H 115.974 -3.70174 0.880431 0
M  V30 1289 H 115.486 -2.93686 2.53713 0
M  V30 1290 H 113.587 -3.72067 0.199261 0
M  V30 1291 H 113.7 -4.36774 1.9689 0
M  V30 1292 H 112.064 -2.36007 0.957739 0
M  V30 1293 H 112.847 -2.21499 2.62284 0
M  V30 1294 N 115.292 -0.849877 -1.32721 0
M  V30 1295 C 116.24 -0.279745 -2.30912 0
M  V30 1296 C 117.234 0.594278 -1.58634 0
M  V30 1297 O 118.44 0.482613 -1.73409 0
M  V30 1298 H 114.815 -0.0717521 -0.748569 0
M  V30 1299 H 116.786 -1.12222 -2.76494 0
M  V30 1300 C 115.535 0.521108 -3.43773 0
M  V30 1301 H 114.858 -0.142141 -3.99547 0
M  V30 1302 H 116.298 0.885693 -4.14646 0
M  V30 1303 C 114.757 1.70442 -2.90605 0
M  V30 1304 O 115.287 2.8034 -2.87702 0
M  V30 1305 N 113.493 1.52991 -2.47067 0
M  V30 1306 H 113.04 0.635914 -2.49628 0
M  V30 1307 H 112.998 2.32311 -2.11847 0
M  V30 1308 N 116.77 1.45427 -0.607355 0
M  V30 1309 C 117.995 2.07124 -0.107006 0
M  V30 1310 C 118.42 1.44906 1.19933 0
M  V30 1311 O 117.778 0.541687 1.73019 0
M  V30 1312 C 117.826 3.60595 0.0194119 0
M  V30 1313 O 116.93 3.98285 1.0697 0
M  V30 1314 H 116.271 0.659868 -0.0739597 0
M  V30 1315 H 118.801 1.86683 -0.837297 0
M  V30 1316 H 118.811 4.07419 0.2177 0
M  V30 1317 H 117.486 4.05266 -0.934453 0
M  V30 1318 H 116.063 3.63133 0.847889 0
M  V30 1319 N 118.248 0.346503 1.53744 0
M  V30 1320 C 119.494 -0.249473 2.0126 0
M  V30 1321 C 119.827 -1.49965 1.23386 0
M  V30 1322 O 119.102 -1.91811 0.32229 0
M  V30 1323 C 119.385 -0.560643 3.55709 0
M  V30 1324 C 119.238 0.701836 4.44291 0
M  V30 1325 C 120.557 -1.36905 4.18264 0
M  V30 1326 H 117.676 -0.0891987 0.731582 0
M  V30 1327 H 120.318 0.467624 1.84156 0
M  V30 1328 H 118.468 -1.17156 3.70414 0
M  V30 1329 H 120.14 1.33974 4.41417 0
M  V30 1330 H 118.383 1.32612 4.13033 0
M  V30 1331 H 119.054 0.43933 5.50249 0
M  V30 1332 H 121.53 -0.852448 4.07275 0
M  V30 1333 H 120.406 -1.55553 5.26398 0
M  V30 1334 H 120.667 -2.37203 3.73078 0
M  V30 1335 N 119.726 -1.57421 0.075193 0
M  V30 1336 C 120.973 -1.93618 -0.593146 0
M  V30 1337 C 121.301 -0.955484 -1.69413 0
M  V30 1338 O 120.556 0.0283251 -1.9568 0
M  V30 1339 C 120.855 -3.36428 -1.20626 0
M  V30 1340 C 120.521 -4.50307 -0.231078 0
M  V30 1341 C 119.183 -4.81186 0.0371936 0
M  V30 1342 C 121.535 -5.19374 0.435888 0
M  V30 1343 C 118.863 -5.78466 0.979461 0
M  V30 1344 C 121.215 -6.17665 1.3665 0
M  V30 1345 C 119.879 -6.46958 1.6432 0
M  V30 1346 H 119.149 -0.708499 -0.217047 0
M  V30 1347 H 121.796 -1.90937 0.146793 0
M  V30 1348 H 120.101 -3.35592 -2.02201 0
M  V30 1349 H 121.798 -3.61727 -1.73073 0
M  V30 1350 H 118.388 -4.26227 -0.450357 0
M  V30 1351 H 122.572 -4.95711 0.241748 0
M  V30 1352 H 117.828 -5.99487 1.20106 0
M  V30 1353 H 122.002 -6.70284 1.88924 0
M  V30 1354 H 119.629 -7.2215 2.37494 0
M  V30 1355 N 121.204 0.198386 -1.56346 0
M  V30 1356 C 122.134 1.24865 -1.9731 0
M  V30 1357 C 123.115 1.47651 -0.844576 0
M  V30 1358 O 124.3 1.59444 -1.10866 0
M  V30 1359 C 121.43 2.59358 -2.30977 0
M  V30 1360 C 120.384 2.5119 -3.46537 0
M  V30 1361 C 119.71 3.89926 -3.65871 0
M  V30 1362 C 121.01 2.03977 -4.80823 0
M  V30 1363 H 122.704 0.908252 -2.85291 0
M  V30 1364 H 120.25 0.435462 -1.37258 0
M  V30 1365 H 122.203 3.33011 -2.58228 0
M  V30 1366 H 120.927 2.95132 -1.39874 0
M  V30 1367 H 119.586 1.79993 -3.19371 0
M  V30 1368 H 119.234 4.23046 -2.72105 0
M  V30 1369 H 118.934 3.85336 -4.4361 0
M  V30 1370 H 120.458 4.65205 -3.95495 0
M  V30 1371 H 121.872 2.67386 -5.07127 0
M  V30 1372 H 120.269 2.10397 -5.62008 0
M  V30 1373 H 121.339 0.992861 -4.74626 0
M  V30 1374 N 122.682 1.50554 0.465978 0
M  V30 1375 C 123.928 1.62038 1.21949 0
M  V30 1376 C 124.261 0.322116 1.9151 0
M  V30 1377 O 123.536 -0.676723 1.82348 0
M  V30 1378 C 123.819 2.80421 2.25912 0
M  V30 1379 C 123.672 4.20144 1.60622 0
M  V30 1380 C 124.991 2.94354 3.27176 0
M  V30 1381 H 122.11 0.589752 0.441998 0
M  V30 1382 H 124.752 1.82956 0.51257 0
M  V30 1383 H 122.902 2.62717 2.86203 0
M  V30 1384 H 124.574 4.49449 1.03889 0
M  V30 1385 H 122.817 4.24165 0.909211 0
M  V30 1386 H 123.488 4.98914 2.36196 0
M  V30 1387 H 125.964 3.10578 2.76913 0
M  V30 1388 H 124.84 3.788 3.97242 0
M  V30 1389 H 125.101 2.05186 3.916 0
M  V30 1390 N 124.16 -0.719506 1.40217 0
M  V30 1391 C 125.093 -1.84298 1.34571 0
M  V30 1392 C 126.071 -1.61149 0.216741 0
M  V30 1393 O 127.255 -1.84212 0.399756 0
M  V30 1394 C 124.382 -3.20568 1.09335 0
M  V30 1395 C 123.428 -3.62551 2.24631 0
M  V30 1396 S 124.261 -3.7012 3.87004 0
M  V30 1397 C 125.417 -5.09154 3.64024 0
M  V30 1398 H 125.65 -1.88807 2.2965 0
M  V30 1399 H 123.183 -0.885901 1.26456 0
M  V30 1400 H 125.141 -3.99246 0.954602 0
M  V30 1401 H 123.802 -3.13696 0.159164 0
M  V30 1402 H 122.995 -4.61483 2.02606 0
M  V30 1403 H 122.597 -2.91119 2.34789 0
M  V30 1404 H 124.889 -5.95955 3.22248 0
M  V30 1405 H 125.832 -5.36213 4.62473 0
M  V30 1406 H 126.24 -4.79562 2.97793 0
M  V30 1407 N 125.638 -1.25649 -0.95132 0
M  V30 1408 C 126.548 -1.08073 -2.08224 0
M  V30 1409 C 127.564 -0.0169666 -1.73992 0
M  V30 1410 O 128.74 -0.218593 -2.0021 0
M  V30 1411 C 125.805 -0.704922 -3.39458 0
M  V30 1412 C 124.866 -1.84699 -3.87537 0
M  V30 1413 C 124.099 -1.48902 -5.12508 0
M  V30 1414 O 124.322 -0.386156 -5.69091 0
M  V30 1415 O 123.256 -2.32033 -5.55378 0
M  V30 1416 H 127.082 -2.02924 -2.25954 0
M  V30 1417 H 124.667 -1.04618 -1.06656 0
M  V30 1418 H 126.549 -0.507609 -4.18332 0
M  V30 1419 H 125.224 0.214291 -3.2299 0
M  V30 1420 H 124.131 -2.09919 -3.09653 0
M  V30 1421 H 125.464 -2.74557 -4.08509 0
M  V30 1422 N 127.117 1.15442 -1.07289 0
M  V30 1423 C 128.347 1.89821 -0.815576 0
M  V30 1424 C 128.755 1.7823 0.634867 0
M  V30 1425 O 128.098 1.13152 1.44715 0
M  V30 1426 C 128.16 3.40817 -1.14385 0
M  V30 1427 C 127.824 3.76193 -2.59476 0
M  V30 1428 C 128.821 3.77269 -3.57721 0
M  V30 1429 C 126.506 4.0652 -2.95037 0
M  V30 1430 C 128.5 4.08176 -4.89562 0
M  V30 1431 C 126.187 4.37092 -4.27076 0
M  V30 1432 C 127.185 4.37902 -5.24148 0
M  V30 1433 O 126.873 4.67741 -6.53815 0
M  V30 1434 H 126.605 0.608465 -0.294528 0
M  V30 1435 H 129.159 1.472 -1.43252 0
M  V30 1436 H 127.389 3.83835 -0.469865 0
M  V30 1437 H 129.078 3.96485 -0.869179 0
M  V30 1438 H 129.844 3.5394 -3.3159 0
M  V30 1439 H 125.723 4.05049 -2.20128 0
M  V30 1440 H 129.267 4.08723 -5.65324 0
M  V30 1441 H 125.164 4.59889 -4.5296 0
M  V30 1442 H 125.932 4.85509 -6.58957 0
M  V30 1443 N 128.595 0.856903 1.32268 0
M  V30 1444 C 129.835 0.467705 1.98977 0
M  V30 1445 C 130.199 -0.959231 1.66321 0
M  V30 1446 O 131.4 -1.4531 2.26138 0
M  V30 1447 C 129.671 0.70256 3.50427 0
M  V30 1448 S 131.23 0.411269 4.36868 0
M  V30 1449 H 128.048 0.175121 0.689096 0
M  V30 1450 H 130.65 1.1101 1.60925 0
M  V30 1451 H 129.354 1.74012 3.71683 0
M  V30 1452 H 128.885 0.0466707 3.93372 0
M  V30 1453 H 130.9 -0.761799 4.90317 0
M  V30 1454 N 130.073 -1.45103 0.615059 0
M  V30 1455 C 131.021 -2.32331 -0.111791 0
M  V30 1456 C 132.015 -1.46409 -0.852102 0
M  V30 1457 O 133.221 -1.62849 -0.766821 0
M  V30 1458 H 129.596 -0.749993 -0.0549072 0
M  V30 1459 H 131.567 -2.91407 0.642225 0
M  V30 1460 C 130.316 -3.3015 -1.09071 0
M  V30 1461 H 129.639 -3.96265 -0.530485 0
M  V30 1462 H 131.079 -3.93898 -1.56908 0
M  V30 1463 C 129.538 -2.57875 -2.168 0
M  V30 1464 O 130.068 -2.36567 -3.24652 0
M  V30 1465 N 128.274 -2.17884 -1.92289 0
M  V30 1466 H 127.821 -2.35413 -1.04587 0
M  V30 1467 H 127.779 -1.6985 -2.64572 0
M  V30 1468 N 131.551 -0.354651 -1.53558 0
M  V30 1469 C 132.799 0.237972 -2.00694 0
M  V30 1470 C 133.12 1.50173 -1.24391 0
M  V30 1471 O 132.39 1.92673 -0.354135 0
M  V30 1472 H 130.97 0.0909256 -0.741446 0
M  V30 1473 H 133.632 -0.478368 -1.88938 0
M  V30 1474 H 132.728 0.47264 -3.085 0
M  V30 1475 N 133.029 1.57378 -0.0835403 0
M  V30 1476 C 134.277 1.93547 0.581718 0
M  V30 1477 C 134.598 0.96524 1.69435 0
M  V30 1478 O 133.868 0.0153369 1.95894 0
M  V30 1479 H 132.448 0.714521 0.217874 0
M  V30 1480 H 135.11 1.94366 -0.144158 0
M  V30 1481 H 134.206 2.95665 0.999423 0
M  V30 1482 N 134.507 -0.190092 1.56449 0
M  V30 1483 C 135.784 -0.935886 1.71757 0
M  V30 1484 C 136.164 -2.01173 0.639726 0
M  V30 1485 O 135.512 -2.25827 -0.348502 0
M  V30 1486 C 135.722 -1.51775 3.1427 0
M  V30 1487 C 137.07 -1.99794 3.74656 0
M  V30 1488 O 138.094 -1.61607 3.1743 0
M  V30 1489 O 136.953 -2.70079 4.751 0
M  V30 1490 H 134.047 -0.439229 0.700719 0
M  V30 1491 H 136.593 -0.179395 1.68749 0
M  V30 1492 H 135.365 -0.742505 3.84191 0
M  V30 1493 H 134.988 -2.33894 3.21527 0
M  V30 1494 N 135.985 -1.50799 -0.457987 0
M  V30 1495 C 136.915 -1.73553 -1.5621 0
M  V30 1496 C 137.896 -0.584774 -1.59732 0
M  V30 1497 O 139.081 -0.825314 -1.7579 0
M  V30 1498 C 136.211 -1.84169 -2.94447 0
M  V30 1499 C 135.165 -2.99461 -3.0579 0
M  V30 1500 C 134.491 -2.95235 -4.45803 0
M  V30 1501 C 135.791 -4.39766 -2.81786 0
M  V30 1502 H 137.485 -2.66 -1.37421 0
M  V30 1503 H 135.031 -1.28002 -0.659662 0
M  V30 1504 H 136.984 -1.98672 -3.71628 0
M  V30 1505 H 135.708 -0.883545 -3.14422 0
M  V30 1506 H 134.367 -2.8463 -2.31044 0
M  V30 1507 H 134.015 -1.97239 -4.62715 0
M  V30 1508 H 133.715 -3.72642 -4.54326 0
M  V30 1509 H 135.239 -3.11803 -5.24987 0
M  V30 1510 H 136.653 -4.55054 -3.4871 0
M  V30 1511 H 135.05 -5.18722 -3.0174 0
M  V30 1512 H 136.12 -4.51229 -1.7754 0
M  V30 1513 N 137.463 0.71206 -1.40597 0
M  V30 1514 C 138.426 1.80785 -1.40888 0
M  V30 1515 C 139.426 1.57937 -0.302103 0
M  V30 1516 O 140.616 1.64913 -0.561182 0
M  V30 1517 C 137.748 3.18927 -1.20409 0
M  V30 1518 H 138.941 1.81924 -2.38419 0
M  V30 1519 H 136.494 0.91805 -1.26497 0
M  V30 1520 H 137.229 3.23436 -0.236522 0
M  V30 1521 H 137.014 3.36911 -2.00582 0
M  V30 1522 H 138.504 3.98949 -1.23408 0
M  V30 1523 N 138.941 1.26152 0.944643 0
M  V30 1524 C 140.218 1.02247 1.66748 0
M  V30 1525 C 140.598 -0.448202 2.06287 0
M  V30 1526 O 139.946 -1.42779 1.78399 0
M  V30 1527 C 140.156 1.96788 2.88228 0
M  V30 1528 C 141.504 2.25201 3.59958 0
M  V30 1529 O 142.528 1.94626 2.98327 0
M  V30 1530 O 141.387 2.77242 4.70956 0
M  V30 1531 H 138.481 0.388517 0.730057 0
M  V30 1532 H 141.027 1.37348 0.99668 0
M  V30 1533 H 139.799 2.96047 2.55875 0
M  V30 1534 H 139.422 1.62145 3.63035 0
M  V30 1535 N 140.419 -1.14872 1.07899 0
M  V30 1536 C 141.649 -1.89386 0.825631 0
M  V30 1537 C 142.057 -1.78565 -0.625406 0
M  V30 1538 O 141.4 -1.13918 -1.44113 0
M  V30 1539 C 141.462 -3.40206 1.16191 0
M  V30 1540 C 141.126 -3.74812 2.61467 0
M  V30 1541 C 142.123 -3.75367 3.59716 0
M  V30 1542 C 139.808 -4.0495 2.97189 0
M  V30 1543 C 141.802 -4.05574 4.9172 0
M  V30 1544 C 139.489 -4.34821 4.29388 0
M  V30 1545 C 140.487 -4.35116 5.26463 0
M  V30 1546 O 140.175 -4.64267 6.56286 0
M  V30 1547 H 139.907 -0.606894 0.297751 0
M  V30 1548 H 142.461 -1.46438 1.44031 0
M  V30 1549 H 140.691 -3.8358 0.490214 0
M  V30 1550 H 142.38 -3.96018 0.890193 0
M  V30 1551 H 143.146 -3.52176 3.33462 0
M  V30 1552 H 139.025 -4.03876 2.22273 0
M  V30 1553 H 142.569 -4.05719 5.67484 0
M  V30 1554 H 138.466 -4.5748 4.55392 0
M  V30 1555 H 139.234 -4.82007 6.61522 0
M  V30 1556 N 141.898 -0.863906 -1.31812 0
M  V30 1557 C 142.828 -0.330843 -2.31144 0
M  V30 1558 C 143.809 0.575005 -1.60087 0
M  V30 1559 O 144.994 0.493304 -1.8783 0
M  V30 1560 C 142.124 0.47374 -3.44054 0
M  V30 1561 C 141.078 -0.338481 -4.26659 0
M  V30 1562 C 140.404 0.591412 -5.31419 0
M  V30 1563 C 141.704 -1.56926 -4.98168 0
M  V30 1564 H 143.398 -1.16086 -2.75979 0
M  V30 1565 H 140.944 -0.559657 -1.32679 0
M  V30 1566 H 142.897 0.857143 -4.12591 0
M  V30 1567 H 141.621 1.33721 -2.9797 0
M  V30 1568 H 140.28 -0.703754 -3.59782 0
M  V30 1569 H 139.928 1.45199 -4.81587 0
M  V30 1570 H 139.628 0.0519022 -5.87577 0
M  V30 1571 H 141.152 0.97179 -6.02817 0
M  V30 1572 H 142.566 -1.25764 -5.59336 0
M  V30 1573 H 140.963 -2.04739 -5.64094 0
M  V30 1574 H 142.033 -2.32544 -4.25501 0
M  V30 1575 N 143.376 1.44774 -0.622745 0
M  V30 1576 C 144.308 2.28856 0.125485 0
M  V30 1577 C 145.321 1.40811 0.817069 0
M  V30 1578 O 146.51 1.65044 0.679918 0
M  V30 1579 C 143.61 3.16963 1.19949 0
M  V30 1580 C 142.783 4.33374 0.592064 0
M  V30 1581 C 141.842 5.02577 1.55893 0
M  V30 1582 O 140.868 5.58873 1.07933 0
M  V30 1583 N 142.07 5.03256 2.89334 0
M  V30 1584 H 144.835 2.93713 -0.596068 0
M  V30 1585 H 142.396 1.55129 -0.463303 0
M  V30 1586 H 144.388 3.60123 1.84644 0
M  V30 1587 H 142.958 2.53913 1.82337 0
M  V30 1588 H 142.178 3.93509 -0.233322 0
M  V30 1589 H 143.466 5.08527 0.166738 0
M  V30 1590 H 142.864 4.58836 3.30887 0
M  V30 1591 H 141.421 5.50232 3.49412 0
M  V30 1592 N 144.854 0.36279 1.53368 0
M  V30 1593 C 145.817 -0.472679 2.24273 0
M  V30 1594 C 146.817 -1.012 1.24961 0
M  V30 1595 O 148.007 -0.898194 1.49259 0
M  V30 1596 C 145.139 -1.66039 2.97731 0
M  V30 1597 H 146.332 0.14773 2.99536 0
M  V30 1598 H 143.885 0.114434 1.55881 0
M  V30 1599 H 144.62 -2.31896 2.26704 0
M  V30 1600 H 144.405 -1.28066 3.70596 0
M  V30 1601 H 145.895 -2.25252 3.51641 0
M  V30 1602 N 146.332 -1.57332 0.0918853 0
M  V30 1603 C 147.279 -2.13847 -0.868211 0
M  V30 1604 C 148.249 -1.05618 -1.28196 0
M  V30 1605 O 149.434 -1.33387 -1.36427 0
M  V30 1606 C 146.574 -2.72062 -2.12312 0
M  V30 1607 C 145.687 -3.94514 -1.7602 0
M  V30 1608 C 144.822 -4.40903 -2.96273 0
M  V30 1609 C 143.861 -5.55953 -2.56092 0
M  V30 1610 N 142.998 -5.97209 -3.69169 0
M  V30 1611 H 147.838 -2.95575 -0.379406 0
M  V30 1612 H 145.375 -1.46048 -0.175606 0
M  V30 1613 H 147.333 -3.03931 -2.858 0
M  V30 1614 H 145.963 -1.93068 -2.58698 0
M  V30 1615 H 145.015 -3.68979 -0.925135 0
M  V30 1616 H 146.327 -4.7802 -1.42472 0
M  V30 1617 H 145.481 -4.74539 -3.78018 0
M  V30 1618 H 144.22 -3.56291 -3.33029 0
M  V30 1619 H 143.225 -5.21948 -1.72773 0
M  V30 1620 H 144.45 -6.42311 -2.20484 0
M  V30 1621 H 142.396 -5.15543 -4.05649 0
M  V30 1622 H 142.313 -6.75504 -3.39456 0
M  V30 1623 H 143.581 -6.35475 -4.51434 0
M  V30 1624 N 147.81 0.181792 -1.56548 0
M  V30 1625 C 149.058 0.89832 -1.81038 0
M  V30 1626 C 149.379 1.83232 -0.667164 0
M  V30 1627 O 148.649 1.93372 0.313673 0
M  V30 1628 H 147.229 0.33471 -0.667816 0
M  V30 1629 H 149.891 0.184116 -1.94028 0
M  V30 1630 H 148.987 1.4815 -2.74696 0
M  V30 1631 N 149.288 1.51039 0.449983 0
M  V30 1632 C 150.516 1.66869 1.2232 0
M  V30 1633 C 150.931 0.360727 1.85322 0
M  V30 1634 O 150.288 -0.659531 1.70166 0
M  V30 1635 C 150.339 2.77524 2.31652 0
M  V30 1636 O 150.06 4.03252 1.7123 0
M  V30 1637 C 151.561 3.04512 3.2216 0
M  V30 1638 H 148.781 0.560326 0.369155 0
M  V30 1639 H 151.325 1.97385 0.534719 0
M  V30 1640 H 149.48 2.49642 2.96239 0
M  V30 1641 H 149.894 4.64609 2.43389 0
M  V30 1642 H 151.368 3.85551 3.95038 0
M  V30 1643 H 151.845 2.16415 3.8218 0
M  V30 1644 H 152.451 3.34005 2.63288 0
M  V30 1645 N 150.766 -0.704594 1.40972 0
M  V30 1646 C 151.696 -1.83124 1.44872 0
M  V30 1647 C 152.677 -1.67281 0.30838 0
M  V30 1648 O 153.862 -1.87149 0.518556 0
M  V30 1649 C 150.992 -3.21181 1.32136 0
M  V30 1650 C 149.946 -3.51714 2.43888 0
M  V30 1651 C 149.272 -4.89032 2.16222 0
M  V30 1652 C 150.572 -3.516 3.86232 0
M  V30 1653 H 152.266 -1.80117 2.39161 0
M  V30 1654 H 149.812 -0.865145 1.15114 0
M  V30 1655 H 151.765 -3.99702 1.33479 0
M  V30 1656 H 150.489 -3.24791 0.343279 0
M  V30 1657 H 149.148 -2.75539 2.41813 0
M  V30 1658 H 148.796 -4.89256 1.16778 0
M  V30 1659 H 148.496 -5.10426 2.911 0
M  V30 1660 H 150.02 -5.69873 2.19265 0
M  V30 1661 H 151.434 -4.2014 3.9007 0
M  V30 1662 H 149.831 -3.84523 4.60719 0
M  V30 1663 H 150.901 -2.50757 4.15029 0
M  V30 1664 N 152.244 -1.26651 -0.937939 0
M  V30 1665 C 153.469 -1.15279 -1.72411 0
M  V30 1666 C 153.894 0.287866 -1.85884 0
M  V30 1667 O 153.252 1.20855 -1.35143 0
M  V30 1668 C 153.3 -1.83028 -3.10698 0
M  V30 1669 O 152.404 -1.12128 -3.96864 0
M  V30 1670 H 151.745 -0.401504 -0.528858 0
M  V30 1671 H 154.275 -1.67531 -1.1745 0
M  V30 1672 H 154.285 -1.89981 -3.6107 0
M  V30 1673 H 152.96 -2.87833 -3.00208 0
M  V30 1674 H 151.537 -1.13173 -3.55312 0
M  V30 1675 N 153.722 1.14298 -1.08507 0
M  V30 1676 C 154.632 2.23027 -0.727753 0
M  V30 1677 C 155.648 1.71952 0.26619 0
M  V30 1678 O 156.824 2.011 0.109882 0
M  V30 1679 C 153.889 3.46403 -0.143541 0
M  V30 1680 C 152.95 4.12413 -1.19223 0
M  V30 1681 C 152.183 5.29899 -0.635798 0
M  V30 1682 O 152.406 5.67796 0.544393 0
M  V30 1683 O 151.34 5.85717 -1.38634 0
M  V30 1684 H 155.166 2.55945 -1.63481 0
M  V30 1685 H 152.751 1.22248 -0.858817 0
M  V30 1686 H 154.633 4.21018 0.179404 0
M  V30 1687 H 153.308 3.15206 0.736659 0
M  V30 1688 H 152.215 3.39667 -1.56772 0
M  V30 1689 H 153.548 4.47718 -2.04474 0
M  V30 1690 N 155.201 0.870884 1.31352 0
M  V30 1691 C 156.478 0.402907 1.91405 0
M  V30 1692 C 156.858 -1.11512 1.79244 0
M  V30 1693 O 156.206 -1.94411 1.2007 0
M  V30 1694 C 156.416 0.885301 3.37585 0
M  V30 1695 C 157.764 0.911971 4.14691 0
M  V30 1696 O 158.788 0.831016 3.46371 0
M  V30 1697 O 157.647 1.02927 5.3672 0
M  V30 1698 H 154.741 0.120698 0.818145 0
M  V30 1699 H 157.287 0.958857 1.40014 0
M  V30 1700 H 156.059 1.92889 3.40455 0
M  V30 1701 H 155.682 0.307714 3.96407 0
M  V30 1702 N 156.679 -1.44442 0.630414 0
M  V30 1703 C 157.907 -2.06414 0.141671 0
M  V30 1704 C 158.322 -1.47105 -1.18345 0
M  V30 1705 O 157.679 -0.593662 -1.72574 0
M  V30 1706 C 157.73 -3.61494 0.0199784 0
M  V30 1707 O 157.451 -4.18594 1.29269 0
M  V30 1708 C 158.952 -4.40499 -0.497544 0
M  V30 1709 H 156.172 -0.666292 0.0793452 0
M  V30 1710 H 158.716 -1.85323 0.864614 0
M  V30 1711 H 156.871 -3.8185 -0.653402 0
M  V30 1712 H 157.285 -5.12026 1.13707 0
M  V30 1713 H 158.759 -5.49433 -0.531708 0
M  V30 1714 H 159.236 -4.11895 -1.52445 0
M  V30 1715 H 159.842 -4.25061 0.142562 0
M  V30 1716 N 158.157 -0.370918 -1.53173 0
M  V30 1717 C 159.406 0.218249 -2.00516 0
M  V30 1718 C 159.719 1.49429 -1.26215 0
M  V30 1719 O 160.925 2.16239 -1.64174 0
M  V30 1720 C 159.381 0.43948 -3.57207 0
M  V30 1721 C 158.989 -0.822244 -4.4039 0
M  V30 1722 C 160.733 0.986012 -4.1289 0
M  V30 1723 C 158.64 -0.570304 -5.88644 0
M  V30 1724 H 157.57 0.0853333 -0.749156 0
M  V30 1725 H 160.221 -0.490483 -1.76823 0
M  V30 1726 H 158.603 1.20961 -3.77074 0
M  V30 1727 H 159.777 -1.59557 -4.32294 0
M  V30 1728 H 158.092 -1.29238 -3.95836 0
M  V30 1729 H 160.689 1.18991 -5.21292 0
M  V30 1730 H 161.032 1.94972 -3.6782 0
M  V30 1731 H 161.565 0.27592 -3.96842 0
M  V30 1732 H 158.304 -1.50449 -6.38001 0
M  V30 1733 H 157.824 0.164427 -5.99575 0
M  V30 1734 H 159.503 -0.19784 -6.46697 0
M  V30 1735 N 159.635 1.57281 -0.100228 0
M  V30 1736 C 161.051 1.57527 0.256416 0
M  V30 1737 C 161.251 1.11173 1.68056 0
M  V30 1738 O 160.307 0.79053 2.39806 0
M  V30 1739 C 161.62 3.00673 0.0401747 0
M  V30 1740 C 163.168 3.12815 0.107528 0
M  V30 1741 C 163.643 4.57929 -0.0807834 0
M  V30 1742 N 165.134 4.63193 -0.0261207 0
M  V30 1743 C 165.869 5.73212 -0.146999 0
M  V30 1744 N 165.365 6.92047 -0.322999 0
M  V30 1745 N 167.158 5.62031 -0.0879044 0
M  V30 1746 H 159.309 1.85718 -1.03065 0
M  V30 1747 H 161.572 0.857446 -0.404339 0
M  V30 1748 H 161.278 3.38804 -0.943649 0
M  V30 1749 H 161.152 3.69042 0.780262 0
M  V30 1750 H 163.539 2.74554 1.08186 0
M  V30 1751 H 163.62 2.47028 -0.664134 0
M  V30 1752 H 163.264 4.96886 -1.05201 0
M  V30 1753 H 163.194 5.21783 0.710635 0
M  V30 1754 H 165.685 3.77748 0.107161 0
M  V30 1755 H 165.998 7.7173 -0.406608 0
M  V30 1756 H 164.343 6.94074 -0.358733 0
M  V30 1757 H 167.534 4.68075 0.048498 0
M  V30 1758 H 167.707 6.47734 -0.185557 0
M  V30 1759 N 161.113 -0.173488 1.56642 0
M  V30 1760 C 162.359 -0.891784 1.8214 0
M  V30 1761 C 162.692 -1.8199 0.677736 0
M  V30 1762 O 161.967 -1.91842 -0.320446 0
M  V30 1763 C 162.25 -1.68933 3.18015 0
M  V30 1764 C 162.103 -0.784487 4.42906 0
M  V30 1765 C 163.422 -2.65748 3.50808 0
M  V30 1766 H 160.541 -0.322761 0.662567 0
M  V30 1767 H 163.183 -0.158095 1.89341 0
M  V30 1768 H 161.333 -2.31482 3.12007 0
M  V30 1769 H 163.005 -0.172046 4.60979 0
M  V30 1770 H 161.248 -0.0924117 4.33702 0
M  V30 1771 H 161.919 -1.37799 5.34524 0
M  V30 1772 H 164.395 -2.13327 3.57255 0
M  V30 1773 H 163.271 -3.18619 4.4696 0
M  V30 1774 H 163.532 -3.45842 2.75401 0
M  V30 1775 N 162.591 -1.51276 -0.441967 0
M  V30 1776 C 163.838 -1.63715 -1.19179 0
M  V30 1777 C 164.166 -0.351175 -1.91303 0
M  V30 1778 O 163.421 0.664524 -1.84072 0
M  V30 1779 C 163.72 -2.78746 -2.23686 0
M  V30 1780 C 163.386 -4.18189 -1.68607 0
M  V30 1781 C 162.048 -4.56125 -1.53308 0
M  V30 1782 C 164.4 -5.05222 -1.28062 0
M  V30 1783 C 161.728 -5.78804 -0.959317 0
M  V30 1784 C 164.08 -6.28476 -0.721162 0
M  V30 1785 C 162.744 -6.65188 -0.55504 0
M  V30 1786 H 162.014 -0.599076 -0.436106 0
M  V30 1787 H 164.661 -1.85296 -0.48351 0
M  V30 1788 H 162.966 -2.51369 -3.00535 0
M  V30 1789 H 164.663 -2.8557 -2.81515 0
M  V30 1790 H 161.253 -3.88277 -1.8149 0
M  V30 1791 H 165.437 -4.76524 -1.38704 0
M  V30 1792 H 160.693 -6.05899 -0.81833 0
M  V30 1793 H 164.867 -6.95259 -0.398458 0
M  V30 1794 H 162.494 -7.60123 -0.108311 0
M  V30 1795 N 164.069 0.697108 -1.41344 0
M  V30 1796 C 164.999 1.82353 -1.45841 0
M  V30 1797 C 165.98 1.67115 -0.317247 0
M  V30 1798 O 167.165 1.86871 -0.528474 0
M  V30 1799 C 164.295 3.20476 -1.33838 0
M  V30 1800 C 163.249 3.50415 -2.4575 0
M  V30 1801 C 162.575 4.87878 -2.18813 0
M  V30 1802 C 163.875 3.49546 -3.88091 0
M  V30 1803 H 165.569 1.78846 -2.40113 0
M  V30 1804 H 163.115 0.859028 -1.15571 0
M  V30 1805 H 165.068 3.98988 -1.35596 0
M  V30 1806 H 163.792 3.24604 -0.360498 0
M  V30 1807 H 162.451 2.74253 -2.43271 0
M  V30 1808 H 162.099 4.8863 -1.19371 0
M  V30 1809 H 161.799 5.08875 -2.93803 0
M  V30 1810 H 163.323 5.68702 -2.22284 0
M  V30 1811 H 164.737 4.18066 -3.92293 0
M  V30 1812 H 163.134 3.82075 -4.62751 0
M  V30 1813 H 164.204 2.48552 -4.16353 0
M  V30 1814 N 165.547 1.27147 0.931209 0
M  V30 1815 C 166.497 1.06227 2.01742 0
M  V30 1816 C 167.481 -0.00859065 1.60898 0
M  V30 1817 O 168.673 0.209537 1.75755 0
M  V30 1818 C 165.802 0.707787 3.35924 0
M  V30 1819 C 164.888 1.81661 3.83223 0
M  V30 1820 N 165.279 3.05564 4.03069 0
M  V30 1821 C 163.577 1.70249 4.12227 0
M  V30 1822 C 164.278 3.77697 4.42403 0
M  V30 1823 N 163.254 3.0544 4.49675 0
M  V30 1824 H 167.056 2.00261 2.15111 0
M  V30 1825 H 164.57 1.1781 1.11779 0
M  V30 1826 H 166.567 0.539043 4.134 0
M  V30 1827 H 165.227 -0.224964 3.2392 0
M  V30 1828 H 166.238 3.41363 3.89476 0
M  V30 1829 H 162.915 0.840329 4.08956 0
M  V30 1830 H 164.305 4.84168 4.65866 0
M  V30 1831 N 167.025 -1.13721 1.09112 0
M  V30 1832 C 167.957 -2.1871 0.685467 0
M  V30 1833 C 168.97 -1.60527 -0.271068 0
M  V30 1834 O 170.159 -1.78407 -0.0576148 0
M  V30 1835 C 167.259 -3.38898 -0.0111255 0
M  V30 1836 C 166.432 -4.26597 0.966131 0
M  V30 1837 C 165.491 -5.25324 0.303539 0
M  V30 1838 O 164.517 -5.61213 0.950177 0
M  V30 1839 N 165.719 -5.72779 -0.943651 0
M  V30 1840 H 168.484 -2.54126 1.58871 0
M  V30 1841 H 166.045 -1.29012 0.978143 0
M  V30 1842 H 168.037 -4.02014 -0.465517 0
M  V30 1843 H 166.607 -3.01747 -0.816565 0
M  V30 1844 H 165.827 -3.60306 1.59917 0
M  V30 1845 H 167.115 -4.82048 1.6281 0
M  V30 1846 H 166.513 -5.45762 -1.48862 0
M  V30 1847 H 165.07 -6.37847 -1.34142 0
M  V30 1848 N 168.503 -0.877838 -1.30888 0
M  V30 1849 C 169.752 -0.488793 -1.95688 0
M  V30 1850 C 170.065 0.965485 -1.70111 0
M  V30 1851 O 171.271 1.46104 -2.28836 0
M  V30 1852 C 169.727 -0.823201 -3.50359 0
M  V30 1853 C 169.335 -2.29477 -3.84765 0
M  V30 1854 C 171.079 -0.503009 -4.21509 0
M  V30 1855 C 168.986 -2.57118 -5.32583 0
M  V30 1856 H 167.916 -0.179062 -0.732429 0
M  V30 1857 H 170.567 -1.07183 -1.48943 0
M  V30 1858 H 168.949 -0.169331 -3.95638 0
M  V30 1859 H 170.123 -2.99236 -3.5042 0
M  V30 1860 H 168.438 -2.58178 -3.267 0
M  V30 1861 H 171.035 -0.68665 -5.30273 0
M  V30 1862 H 171.378 0.557109 -4.12555 0
M  V30 1863 H 171.911 -1.11376 -3.8189 0
M  V30 1864 H 168.65 -3.61843 -5.4658 0
M  V30 1865 H 168.17 -1.91961 -5.68253 0
M  V30 1866 H 169.849 -2.42251 -5.99936 0
M  V30 1867 N 169.982 1.44106 -0.638065 0
M  V30 1868 C 170.945 2.29138 0.0531013 0
M  V30 1869 C 171.945 1.41409 0.765506 0
M  V30 1870 O 173.135 1.63206 0.609046 0
M  V30 1871 C 170.267 3.23144 1.08584 0
M  V30 1872 H 171.46 2.91739 -0.694883 0
M  V30 1873 H 169.013 1.51134 -0.398538 0
M  V30 1874 H 169.748 2.65408 1.86357 0
M  V30 1875 H 169.533 3.87804 0.578852 0
M  V30 1876 H 171.023 3.87004 1.56899 0
M  V30 1877 N 171.46 0.379036 1.52974 0
M  V30 1878 C 172.423 -0.448865 2.24762 0
M  V30 1879 C 173.423 -0.998689 1.26027 0
M  V30 1880 O 174.613 -0.882313 1.50203 0
M  V30 1881 C 171.745 -1.62872 2.99476 0
M  V30 1882 H 172.938 0.179491 2.99362 0
M  V30 1883 H 170.491 0.13096 1.5575 0
M  V30 1884 H 171.226 -2.29479 2.29151 0
M  V30 1885 H 171.011 -1.24128 3.71934 0
M  V30 1886 H 172.501 -2.2151 3.5401 0
M  V30 1887 N 172.938 -1.57226 0.108567 0
M  V30 1888 C 173.901 -2.13602 -0.831082 0
M  V30 1889 C 174.901 -1.06841 -1.20173 0
M  V30 1890 O 176.091 -1.32666 -1.12895 0
M  V30 1891 C 173.223 -2.66769 -2.12243 0
M  V30 1892 H 174.416 -2.97951 -0.341317 0
M  V30 1893 H 171.969 -1.55667 -0.14057 0
M  V30 1894 H 172.704 -1.85977 -2.65675 0
M  V30 1895 H 172.489 -3.44839 -1.86625 0
M  V30 1896 H 173.979 -3.10332 -2.79435 0
M  V30 1897 N 174.416 0.165178 -1.56732 0
M  V30 1898 C 175.349 1.23336 -1.91998 0
M  V30 1899 C 176.327 1.42476 -0.783531 0
M  V30 1900 O 177.511 1.57384 -1.03743 0
M  V30 1901 C 174.638 2.59533 -2.17625 0
M  V30 1902 C 173.684 2.57093 -3.40302 0
M  V30 1903 S 174.517 2.05571 -4.9447 0
M  V30 1904 C 175.673 3.43532 -5.23198 0
M  V30 1905 H 175.906 0.932387 -2.82301 0
M  V30 1906 H 173.439 0.370013 -1.49901 0
M  V30 1907 H 175.397 3.37918 -2.3307 0
M  V30 1908 H 174.058 2.86827 -1.28019 0
M  V30 1909 H 173.251 3.57308 -3.55453 0
M  V30 1910 H 172.853 1.86806 -3.24005 0
M  V30 1911 H 175.145 4.39559 -5.15552 0
M  V30 1912 H 176.088 3.33251 -6.2478 0
M  V30 1913 H 176.496 3.39828 -4.50752 0
M  V30 1914 N 175.894 1.51508 0.433938 0
M  V30 1915 C 177.31 1.39759 0.770682 0
M  V30 1916 C 177.51 0.482594 1.95636 0
M  V30 1917 O 176.566 -0.0609691 2.52426 0
M  V30 1918 C 177.879 2.81851 1.04787 0
M  V30 1919 C 179.427 2.91025 1.1521 0
M  V30 1920 C 179.902 4.34032 1.46219 0
M  V30 1921 N 181.393 4.37154 1.53136 0
M  V30 1922 C 182.128 5.4484 1.78709 0
M  V30 1923 N 181.624 6.62682 2.02051 0
M  V30 1924 N 183.417 5.32324 1.80519 0
M  V30 1925 H 175.568 2.09548 -0.346892 0
M  V30 1926 H 177.831 0.943446 -0.0928074 0
M  V30 1927 H 177.537 3.50815 0.249304 0
M  V30 1928 H 177.411 3.21386 1.97461 0
M  V30 1929 H 179.798 2.22257 1.94128 0
M  V30 1930 H 179.879 2.54983 0.204281 0
M  V30 1931 H 179.523 5.03351 0.678274 0
M  V30 1932 H 179.453 4.6759 2.42212 0
M  V30 1933 H 181.944 3.52197 1.36987 0
M  V30 1934 H 182.257 7.40543 2.20943 0
M  V30 1935 H 180.602 6.65791 1.99366 0
M  V30 1936 H 183.793 4.39246 1.61805 0
M  V30 1937 H 183.966 6.16328 2.00111 0
M  V30 1938 N 177.372 -0.689602 1.41712 0
M  V30 1939 C 178.621 -1.44534 1.40686 0
M  V30 1940 C 178.934 -1.95588 0.0213352 0
M  V30 1941 O 180.14 -2.71271 -0.111534 0
M  V30 1942 C 178.596 -2.61387 2.47396 0
M  V30 1943 C 178.204 -2.17094 3.91885 0
M  V30 1944 C 179.948 -3.38986 2.55517 0
M  V30 1945 C 177.855 -3.3094 4.90135 0
M  V30 1946 H 176.785 -0.542925 0.52321 0
M  V30 1947 H 179.436 -0.748054 1.6756 0
M  V30 1948 H 177.818 -3.33412 2.13664 0
M  V30 1949 H 178.992 -1.52318 4.34897 0
M  V30 1950 H 177.307 -1.52473 3.8748 0
M  V30 1951 H 179.904 -4.23747 3.26102 0
M  V30 1952 H 180.247 -3.84578 1.59391 0
M  V30 1953 H 180.78 -2.74021 2.8837 0
M  V30 1954 H 177.519 -2.90355 5.87685 0
M  V30 1955 H 177.039 -3.94546 4.51767 0
M  V30 1956 H 178.718 -3.9663 5.11169 0
M  V30 1957 N 178.85 -1.27639 -0.924453 0
M  V30 1958 C 179.78 -1.13166 -2.04244 0
M  V30 1959 C 180.761 -0.032256 -1.70069 0
M  V30 1960 O 181.946 -0.207328 -1.9309 0
M  V30 1961 C 179.076 -0.781496 -3.38393 0
M  V30 1962 C 178.03 -1.83449 -3.86692 0
M  V30 1963 C 177.356 -1.33822 -5.17683 0
M  V30 1964 C 178.656 -3.23917 -4.09726 0
M  V30 1965 H 180.35 -2.06689 -2.1661 0
M  V30 1966 H 177.896 -0.995136 -1.04082 0
M  V30 1967 H 179.849 -0.667057 -4.16087 0
M  V30 1968 H 178.573 0.189439 -3.2605 0
M  V30 1969 H 177.232 -1.93789 -3.11193 0
M  V30 1970 H 176.88 -0.35665 -5.01734 0
M  V30 1971 H 176.58 -2.04224 -5.50968 0
M  V30 1972 H 178.104 -1.23679 -5.97943 0
M  V30 1973 H 179.518 -3.16559 -4.77978 0
M  V30 1974 H 177.915 -3.92059 -4.54324 0
M  V30 1975 H 178.985 -3.68729 -3.14908 0
M  V30 1976 N 180.328 1.1314 -1.09713 0
M  V30 1977 C 181.278 2.16709 -0.708593 0
M  V30 1978 C 182.262 1.58471 0.278523 0
M  V30 1979 O 183.454 1.76779 0.088427 0
M  V30 1980 C 180.583 3.43039 -0.133923 0
M  V30 1981 C 179.669 4.08277 -1.14763 0
M  V30 1982 N 180.06 4.48637 -2.33577 0
M  V30 1983 C 178.358 4.34954 -0.986446 0
M  V30 1984 C 179.059 4.9952 -2.98085 0
M  V30 1985 N 178.035 4.94561 -2.25632 0
M  V30 1986 H 181.837 2.45672 -1.61315 0
M  V30 1987 H 179.351 1.29967 -0.973775 0
M  V30 1988 H 181.348 4.16583 0.162465 0
M  V30 1989 H 180.008 3.15549 0.765447 0
M  V30 1990 H 181.019 4.41246 -2.7115 0
M  V30 1991 H 177.696 4.17258 -0.142008 0
M  V30 1992 H 179.086 5.40521 -3.99108 0
M  V30 1993 N 181.806 0.884767 1.30421 0
M  V30 1994 C 183.031 0.517288 2.00845 0
M  V30 1995 C 183.456 -0.886779 1.65885 0
M  V30 1996 O 182.814 -1.58768 0.875354 0
M  V30 1997 C 182.862 0.698994 3.5376 0
M  V30 1998 O 181.966 -0.255208 4.1161 0
M  V30 1999 H 181.307 0.203872 0.631927 0
M  V30 2000 H 183.837 1.19225 1.66272 0
M  V30 2001 H 183.847 0.597912 4.03595 0
M  V30 2002 H 182.522 1.72271 3.78544 0
M  V30 2003 H 181.099 -0.10784 3.72744 0
M  V30 2004 N 183.284 -1.43765 0.645699 0
M  V30 2005 C 184.231 -2.30745 -0.0504648 0
M  V30 2006 C 185.201 -1.4432 -0.822241 0
M  V30 2007 O 186.386 -1.73202 -0.800358 0
M  V30 2008 C 183.526 -3.29802 -1.0161 0
M  V30 2009 C 182.639 -4.31326 -0.241219 0
M  V30 2010 C 181.774 -5.17469 -1.19998 0
M  V30 2011 C 180.813 -6.10691 -0.415094 0
M  V30 2012 N 179.95 -6.89483 -1.32506 0
M  V30 2013 H 184.79 -2.8973 0.697155 0
M  V30 2014 H 182.327 -1.42738 0.355563 0
M  V30 2015 H 184.285 -3.85734 -1.58949 0
M  V30 2016 H 182.915 -2.72483 -1.73069 0
M  V30 2017 H 181.967 -3.77749 0.448334 0
M  V30 2018 H 183.279 -4.9743 0.369437 0
M  V30 2019 H 182.433 -5.7799 -1.84424 0
M  V30 2020 H 181.172 -4.51473 -1.84455 0
M  V30 2021 H 180.177 -5.49265 0.242565 0
M  V30 2022 H 181.402 -6.78727 0.224966 0
M  V30 2023 H 179.348 -6.26142 -1.95657 0
M  V30 2024 H 179.265 -7.52081 -0.768783 0
M  V30 2025 H 180.533 -7.54516 -1.9577 0
M  V30 2026 N 184.763 -0.387143 -1.52771 0
M  V30 2027 C 186.011 0.195349 -2.01154 0
M  V30 2028 C 186.332 1.475 -1.27549 0
M  V30 2029 O 185.602 1.91878 -0.394924 0
M  V30 2030 H 184.182 0.075178 -0.743207 0
M  V30 2031 H 186.844 -0.518337 -1.87881 0
M  V30 2032 H 185.94 0.407096 -3.09434 0
M  V30 2033 N 186.241 1.57166 -0.116904 0
M  V30 2034 C 187.49 1.94298 0.541407 0
M  V30 2035 C 187.803 1.00236 1.67964 0
M  V30 2036 O 189.009 1.26826 2.40057 0
M  V30 2037 C 187.465 3.45306 1.01449 0
M  V30 2038 C 187.073 4.47899 -0.0951738 0
M  V30 2039 C 188.817 3.91361 1.6443 0
M  V30 2040 C 186.724 5.90083 0.394491 0
M  V30 2041 H 185.654 0.725308 0.206019 0
M  V30 2042 H 188.305 1.82446 -0.196419 0
M  V30 2043 H 186.687 3.52385 1.80667 0
M  V30 2044 H 187.861 4.52486 -0.871374 0
M  V30 2045 H 186.176 4.11583 -0.631505 0
M  V30 2046 H 188.773 4.95004 2.02176 0
M  V30 2047 H 189.116 3.3122 2.52189 0
M  V30 2048 H 189.649 3.87073 0.917559 0
M  V30 2049 H 186.388 6.53974 -0.447004 0
M  V30 2050 H 185.908 5.88921 1.13722 0
M  V30 2051 H 187.587 6.41307 0.856399 0
M  V30 2052 N 187.719 -0.156864 1.56817 0
M  V30 2053 C 188.968 -0.869504 1.81996 0
M  V30 2054 C 189.281 -1.82777 0.696545 0
M  V30 2055 O 190.487 -2.58384 0.833658 0
M  V30 2056 C 188.943 -1.59679 3.22538 0
M  V30 2057 C 188.551 -0.681431 4.42787 0
M  V30 2058 C 190.295 -2.2968 3.56997 0
M  V30 2059 C 188.202 -1.40978 5.74351 0
M  V30 2060 H 187.132 -0.328438 0.678708 0
M  V30 2061 H 189.783 -0.1223 1.83092 0
M  V30 2062 H 188.165 -2.38927 3.158 0
M  V30 2063 H 189.339 0.0751166 4.60739 0
M  V30 2064 H 187.654 -0.0903431 4.16302 0
M  V30 2065 H 190.251 -2.84794 4.52544 0
M  V30 2066 H 190.594 -3.05707 2.82576 0
M  V30 2067 H 191.127 -1.57361 3.65352 0
M  V30 2068 H 187.866 -0.691561 6.51842 0
M  V30 2069 H 187.386 -2.13929 5.60352 0
M  V30 2070 H 189.065 -1.95337 6.16808 0
M  V30 2071 N 189.197 -1.51736 -0.425897 0
M  V30 2072 C 190.147 -1.70258 -1.51645 0
M  V30 2073 C 191.131 -0.556488 -1.5097 0
M  V30 2074 O 192.323 -0.812879 -1.5723 0
M  V30 2075 C 189.452 -1.84143 -2.89735 0
M  V30 2076 C 188.538 -3.04572 -2.95122 0
M  V30 2077 N 188.929 -4.2756 -2.70233 0
M  V30 2078 C 187.227 -3.04061 -3.26286 0
M  V30 2079 C 187.928 -5.08908 -2.81757 0
M  V30 2080 N 186.904 -4.43797 -3.13919 0
M  V30 2081 H 190.706 -2.63004 -1.31172 0
M  V30 2082 H 188.22 -1.4954 -0.633375 0
M  V30 2083 H 190.217 -1.95525 -3.68206 0
M  V30 2084 H 188.877 -0.925857 -3.1122 0
M  V30 2085 H 189.888 -4.56315 -2.44943 0
M  V30 2086 H 186.565 -2.22179 -3.53473 0
M  V30 2087 H 187.955 -6.16843 -2.66372 0
M  V30 2088 N 190.675 0.682077 -1.42076 0
M  V30 2089 C 192.091 0.994324 -1.24841 0
M  V30 2090 C 192.291 2.0096 -0.147389 0
M  V30 2091 O 191.347 2.47822 0.483782 0
M  V30 2092 C 192.66 1.50607 -2.60265 0
M  V30 2093 C 194.208 1.62421 -2.6756 0
M  V30 2094 C 194.683 2.16994 -4.03333 0
M  V30 2095 N 196.174 2.24337 -4.0525 0
M  V30 2096 C 196.909 2.67621 -5.07116 0
M  V30 2097 N 196.405 3.1041 -6.19368 0
M  V30 2098 N 198.198 2.67305 -4.94474 0
M  V30 2099 H 190.349 0.00973908 -2.12398 0
M  V30 2100 H 192.612 0.0668593 -0.945639 0
M  V30 2101 H 192.318 0.834583 -3.41654 0
M  V30 2102 H 192.192 2.48602 -2.83684 0
M  V30 2103 H 194.579 2.28678 -1.86521 0
M  V30 2104 H 194.66 0.629352 -2.47937 0
M  V30 2105 H 194.304 1.51349 -4.84826 0
M  V30 2106 H 194.234 3.17258 -4.20304 0
M  V30 2107 H 196.725 1.94158 -3.24209 0
M  V30 2108 H 197.038 3.42103 -6.92954 0
M  V30 2109 H 195.383 3.08286 -6.22884 0
M  V30 2110 H 198.574 2.33233 -4.05857 0
M  V30 2111 H 198.747 3.00718 -5.73997 0
M  V30 2112 N 192.153 1.28127 0.917671 0
M  V30 2113 C 193.43 1.05761 1.64542 0
M  V30 2114 C 193.81 -0.404344 2.07191 0
M  V30 2115 O 193.158 -1.38963 1.81388 0
M  V30 2116 C 193.368 2.02857 2.83989 0
M  V30 2117 C 194.716 2.32786 3.551 0
M  V30 2118 O 195.74 2.0091 2.94132 0
M  V30 2119 O 194.599 2.87169 4.64969 0
M  V30 2120 H 191.693 0.403916 0.721652 0
M  V30 2121 H 194.239 1.39431 0.967322 0
M  V30 2122 H 193.011 3.01407 2.49538 0
M  V30 2123 H 192.634 1.69809 3.59514 0
M  V30 2124 N 193.631 -1.12557 1.10312 0
M  V30 2125 C 194.561 -2.20341 0.772798 0
M  V30 2126 C 195.542 -1.68198 -0.25365 0
M  V30 2127 O 196.727 -1.93831 -0.119699 0
M  V30 2128 C 193.857 -3.46709 0.202443 0
M  V30 2129 C 192.811 -4.11996 1.15943 0
M  V30 2130 C 192.137 -5.328 0.450345 0
M  V30 2131 C 193.437 -4.5828 2.50552 0
M  V30 2132 H 195.131 -2.48229 1.674 0
M  V30 2133 H 192.677 -1.19308 0.806326 0
M  V30 2134 H 194.63 -4.2138 -0.0407752 0
M  V30 2135 H 193.354 -3.18245 -0.734001 0
M  V30 2136 H 192.013 -3.39305 1.38808 0
M  V30 2137 H 191.661 -5.00602 -0.490531 0
M  V30 2138 H 191.361 -5.7743 1.08851 0
M  V30 2139 H 192.885 -6.10219 0.215642 0
M  V30 2140 H 194.299 -5.2433 2.31843 0
M  V30 2141 H 192.696 -5.13683 3.10242 0
M  V30 2142 H 193.766 -3.72329 3.10643 0
M  V30 2143 N 195.109 -0.891671 -1.2995 0
M  V30 2144 C 196.056 -0.361736 -2.27948 0
M  V30 2145 C 197.026 0.551761 -1.56668 0
M  V30 2146 O 198.211 0.478736 -1.84696 0
M  V30 2147 C 195.351 0.411825 -3.42634 0
M  V30 2148 C 194.464 -0.531651 -4.28716 0
M  V30 2149 C 193.599 0.258167 -5.30572 0
M  V30 2150 C 192.638 -0.680349 -6.08307 0
M  V30 2151 N 191.775 0.0745613 -7.0206 0
M  V30 2152 H 196.615 -1.20254 -2.72659 0
M  V30 2153 H 194.152 -0.604352 -1.34112 0
M  V30 2154 H 196.11 0.876304 -4.07893 0
M  V30 2155 H 194.74 1.21715 -2.98974 0
M  V30 2156 H 193.792 -1.11463 -3.63703 0
M  V30 2157 H 195.104 -1.25038 -4.82874 0
M  V30 2158 H 194.258 0.784204 -6.0161 0
M  V30 2159 H 192.997 1.01008 -4.77126 0
M  V30 2160 H 192.002 -1.21796 -5.3614 0
M  V30 2161 H 193.227 -1.43145 -6.63842 0
M  V30 2162 H 191.173 0.808883 -6.50994 0
M  V30 2163 H 191.09 -0.584409 -7.53738 0
M  V30 2164 H 192.358 0.581123 -7.77331 0
M  V30 2165 N 196.587 1.43421 -0.653314 0
M  V30 2166 C 197.998 1.85065 -0.246537 0
M  V30 2167 C 198.349 1.54688 1.2069 0
M  V30 2168 O 197.474 0.995896 1.92122 0
M  V30 2169 C 198.069 3.35922 -0.440666 0
M  V30 2170 C 196.628 3.76297 -0.0882064 0
M  V30 2171 C 195.775 2.67147 -0.743484 0
M  V30 2172 H 198.726 1.33572 -0.856979 0
M  V30 2173 H 198.747 3.79204 0.313798 0
M  V30 2174 H 198.259 3.58 -1.49858 0
M  V30 2175 H 196.36 3.5983 0.96711 0
M  V30 2176 H 196.473 4.76338 -0.513738 0
M  V30 2177 H 194.837 2.54086 -0.176712 0
M  V30 2178 H 195.62 2.92053 -1.80443 0
M  V30 2179 N 198.065 0.39524 1.52563 0
M  V30 2180 C 198.997 -0.472201 2.24283 0
M  V30 2181 C 200.01 -1.02178 1.26742 0
M  V30 2182 O 201.199 -0.923097 1.52778 0
M  V30 2183 C 198.299 -1.66775 2.95024 0
M  V30 2184 C 197.472 -1.2445 4.19322 0
M  V30 2185 C 196.531 -2.30539 4.7301 0
M  V30 2186 O 195.557 -1.91702 5.35947 0
M  V30 2187 N 196.759 -3.6253 4.53379 0
M  V30 2188 H 199.524 0.142282 2.99362 0
M  V30 2189 H 197.085 0.2219 1.60372 0
M  V30 2190 H 199.077 -2.37283 3.27839 0
M  V30 2191 H 197.647 -2.18845 2.23217 0
M  V30 2192 H 196.867 -0.368069 3.92478 0
M  V30 2193 H 198.155 -0.938457 5.0007 0
M  V30 2194 H 197.553 -3.96841 4.03154 0
M  V30 2195 H 196.11 -4.29055 4.90668 0
M  V30 2196 N 199.544 -1.57102 0.125237 0
M  V30 2197 C 200.492 -2.16905 -0.839927 0
M  V30 2198 C 201.486 -1.11998 -1.27094 0
M  V30 2199 O 202.692 -1.3029 -1.24195 0
M  V30 2200 H 199.067 -0.694252 -0.288995 0
M  V30 2201 H 201.038 -2.96774 -0.311115 0
M  V30 2202 C 199.787 -2.78795 -2.07771 0
M  V30 2203 H 199.11 -3.59221 -1.755 0
M  V30 2204 H 200.55 -3.2417 -2.73295 0
M  V30 2205 C 199.009 -1.76193 -2.87155 0
M  V30 2206 O 199.539 -1.21909 -3.82755 0
M  V30 2207 N 197.745 -1.45991 -2.51267 0
M  V30 2208 H 197.292 -1.90325 -1.73592 0
M  V30 2209 H 197.25 -0.775844 -3.04677 0
M  V30 2210 N 201.022 0.148545 -1.56898 0
M  V30 2211 C 202.271 0.85984 -1.82454 0
M  V30 2212 C 202.584 1.82406 -0.706229 0
M  V30 2213 O 203.79 2.57938 -0.847349 0
M  V30 2214 C 202.246 1.57967 -3.2338 0
M  V30 2215 C 201.854 0.65794 -4.43142 0
M  V30 2216 C 203.598 2.27784 -3.58211 0
M  V30 2217 C 201.505 1.3793 -5.75091 0
M  V30 2218 H 200.435 0.324834 -0.68044 0
M  V30 2219 H 203.086 0.112588 -1.83154 0
M  V30 2220 H 201.468 2.37249 -3.17063 0
M  V30 2221 H 202.642 -0.0995497 -4.60692 0
M  V30 2222 H 200.957 0.0682643 -4.16344 0
M  V30 2223 H 203.554 2.8239 -4.54048 0
M  V30 2224 H 203.897 3.04204 -2.84193 0
M  V30 2225 H 204.43 1.55421 -3.66182 0
M  V30 2226 H 201.169 0.656982 -6.52199 0
M  V30 2227 H 200.689 2.10954 -5.61479 0
M  V30 2228 H 202.368 1.92063 -6.17835 0
M  V30 2229 N 202.5 1.5196 0.417844 0
M  V30 2230 C 203.43 1.77634 1.51554 0
M  V30 2231 C 204.411 0.626918 1.58126 0
M  V30 2232 O 205.596 0.871632 1.7354 0
M  V30 2233 C 202.726 1.91911 2.8946 0
M  V30 2234 C 201.68 3.07463 2.97743 0
M  V30 2235 C 201.006 3.06951 4.37819 0
M  V30 2236 C 202.306 4.47082 2.70027 0
M  V30 2237 H 204 2.6955 1.3032 0
M  V30 2238 H 201.546 1.29706 0.625492 0
M  V30 2239 H 203.499 2.08455 3.6623 0
M  V30 2240 H 202.223 0.966598 3.11969 0
M  V30 2241 H 200.882 2.90656 2.23416 0
M  V30 2242 H 200.53 2.09438 4.57323 0
M  V30 2243 H 200.23 3.84556 4.44286 0
M  V30 2244 H 201.754 3.25613 5.16535 0
M  V30 2245 H 203.168 4.6414 3.36522 0
M  V30 2246 H 201.565 5.2654 2.87881 0
M  V30 2247 H 202.635 4.55777 1.65514 0
M  V30 2248 N 203.978 -0.674533 1.42435 0
M  V30 2249 C 204.908 -1.80009 1.48724 0
M  V30 2250 C 205.889 -1.6659 0.343793 0
M  V30 2251 O 207.074 -1.86007 0.558137 0
M  V30 2252 C 204.204 -3.18306 1.38919 0
M  V30 2253 C 203.158 -3.46461 2.51294 0
M  V30 2254 C 202.484 -4.84335 2.26547 0
M  V30 2255 C 203.784 -3.43328 3.93603 0
M  V30 2256 H 205.478 -1.75004 2.42928 0
M  V30 2257 H 203.024 -0.840533 1.16923 0
M  V30 2258 H 204.977 -3.9678 1.41927 0
M  V30 2259 H 203.701 -3.2399 0.412094 0
M  V30 2260 H 202.36 -2.70348 2.47604 0
M  V30 2261 H 202.008 -4.86669 1.2713 0
M  V30 2262 H 201.708 -5.04136 3.01861 0
M  V30 2263 H 203.232 -5.65094 2.31304 0
M  V30 2264 H 204.646 -4.11772 3.98894 0
M  V30 2265 H 203.043 -3.74664 4.68771 0
M  V30 2266 H 204.113 -2.41897 4.20255 0
M  V30 2267 N 205.456 -1.28612 -0.910864 0
M  V30 2268 C 206.681 -1.1891 -1.69927 0
M  V30 2269 C 207.106 0.248372 -1.86453 0
M  V30 2270 O 206.464 1.17961 -1.37676 0
M  V30 2271 C 206.512 -1.89578 -3.06745 0
M  V30 2272 O 205.616 -1.20521 -3.94396 0
M  V30 2273 H 204.957 -0.412632 -0.520222 0
M  V30 2274 H 207.487 -1.69985 -1.1387 0
M  V30 2275 H 207.497 -1.97597 -3.56958 0
M  V30 2276 H 206.172 -2.94136 -2.94035 0
M  V30 2277 H 204.749 -1.20684 -3.52831 0
M  V30 2278 N 206.934 1.1197 -1.10907 0
M  V30 2279 C 208.164 1.8713 -0.875553 0
M  V30 2280 C 208.572 1.8016 0.577843 0
M  V30 2281 O 207.915 1.17699 1.41042 0
M  V30 2282 C 207.977 3.37005 -1.2517 0
M  V30 2283 C 207.641 3.67748 -2.71313 0
M  V30 2284 C 208.638 3.65698 -3.69542 0
M  V30 2285 C 206.323 3.96928 -3.07821 0
M  V30 2286 C 208.317 3.92395 -5.023 0
M  V30 2287 C 206.004 4.23284 -4.40765 0
M  V30 2288 C 207.002 4.21005 -5.37814 0
M  V30 2289 O 206.69 4.46704 -6.68364 0
M  V30 2290 H 206.422 0.598786 -0.313737 0
M  V30 2291 H 208.976 1.42568 -1.47863 0
M  V30 2292 H 207.206 3.82146 -0.591741 0
M  V30 2293 H 208.895 3.93519 -0.994877 0
M  V30 2294 H 209.661 3.43211 -3.42682 0
M  V30 2295 H 205.54 3.97841 -2.32902 0
M  V30 2296 H 209.084 3.90531 -5.78041 0
M  V30 2297 H 204.981 4.45246 -4.67361 0
M  V30 2298 H 205.749 4.64299 -6.74069 0
M  V30 2299 N 208.412 0.89855 1.29475 0
M  V30 2300 C 209.375 0.380272 2.26023 0
M  V30 2301 C 210.375 -0.484891 1.53315 0
M  V30 2302 O 211.565 -0.290108 1.71767 0
M  V30 2303 C 208.697 -0.45651 3.3783 0
M  V30 2304 H 209.89 1.23295 2.73383 0
M  V30 2305 H 207.443 0.676589 1.40897 0
M  V30 2306 H 208.178 -1.32922 2.95808 0
M  V30 2307 H 207.963 0.163393 3.91759 0
M  V30 2308 H 209.453 -0.810466 4.0966 0
M  V30 2309 N 209.89 -1.43072 0.660911 0
M  V30 2310 C 210.838 -2.32569 -0.0378199 0
M  V30 2311 C 211.832 -1.49046 -0.805092 0
M  V30 2312 O 213.038 -1.65206 -0.714624 0
M  V30 2313 H 209.413 -0.75136 -0.031019 0
M  V30 2314 H 211.384 -2.89216 0.734609 0
M  V30 2315 C 210.133 -3.33453 -0.985124 0
M  V30 2316 H 209.456 -3.97752 -0.404147 0
M  V30 2317 H 210.896 -3.98691 -1.44297 0
M  V30 2318 C 209.355 -2.64642 -2.08486 0
M  V30 2319 O 209.885 -2.46776 -3.16961 0
M  V30 2320 N 208.091 -2.23891 -1.8526 0
M  V30 2321 H 207.638 -2.38621 -0.970449 0
M  V30 2322 H 207.596 -1.78181 -2.59034 0
M  V30 2323 N 211.368 -0.403325 -1.52352 0
M  V30 2324 C 212.784 -0.0539281 -1.59509 0
M  V30 2325 C 212.984 1.43307 -1.41652 0
M  V30 2326 O 212.04 2.19924 -1.24056 0
M  V30 2327 C 213.353 -0.543654 -2.95745 0
M  V30 2328 C 214.901 -0.501125 -3.08962 0
M  V30 2329 C 215.376 -0.967267 -4.47669 0
M  V30 2330 N 216.867 -0.923849 -4.53893 0
M  V30 2331 C 217.602 -1.25578 -5.5948 0
M  V30 2332 N 217.098 -1.65889 -6.72646 0
M  V30 2333 N 218.891 -1.17613 -5.49658 0
M  V30 2334 H 211.042 -1.37123 -1.62206 0
M  V30 2335 H 213.305 -0.56294 -0.76276 0
M  V30 2336 H 213.011 -1.58275 -3.14073 0
M  V30 2337 H 212.885 0.0498042 -3.77167 0
M  V30 2338 H 215.272 0.528909 -2.90321 0
M  V30 2339 H 215.353 -1.13056 -2.2946 0
M  V30 2340 H 214.997 -1.9956 -4.67053 0
M  V30 2341 H 214.927 -0.314698 -5.25659 0
M  V30 2342 H 217.418 -0.627403 -3.72655 0
M  V30 2343 H 217.731 -1.89543 -7.49195 0
M  V30 2344 H 216.076 -1.69787 -6.73942 0
M  V30 2345 H 219.267 -0.860115 -4.6013 0
M  V30 2346 H 219.44 -1.43812 -6.3184 0
M  V30 2347 N 212.846 1.57033 -0.133567 0
M  V30 2348 C 214.262 1.58035 0.222944 0
M  V30 2349 C 214.462 1.14713 1.6566 0
M  V30 2350 O 213.518 0.841218 2.38075 0
M  V30 2351 C 214.831 3.00691 -0.0236116 0
M  V30 2352 C 216.379 3.12973 0.0411512 0
M  V30 2353 C 216.854 4.57654 -0.177899 0
M  V30 2354 N 218.345 4.63033 -0.124365 0
M  V30 2355 C 219.08 5.72771 -0.268553 0
M  V30 2356 N 218.576 6.91206 -0.46972 0
M  V30 2357 N 220.369 5.61718 -0.2071 0
M  V30 2358 H 212.52 1.8349 -1.06981 0
M  V30 2359 H 214.783 0.848677 -0.422436 0
M  V30 2360 H 214.489 3.36726 -1.0153 0
M  V30 2361 H 214.363 3.70614 0.701808 0
M  V30 2362 H 216.75 2.76787 1.02338 0
M  V30 2363 H 216.831 2.45564 -0.716383 0
M  V30 2364 H 216.475 4.94542 -1.15717 0
M  V30 2365 H 216.405 5.23173 0.599797 0
M  V30 2366 H 218.896 3.7789 0.027011 0
M  V30 2367 H 219.209 7.70693 -0.570212 0
M  V30 2368 H 217.554 6.93156 -0.505876 0
M  V30 2369 H 220.745 4.68072 -0.0507986 0
M  V30 2370 H 220.918 6.47195 -0.322909 0
M  V30 2371 N 214.325 -0.140222 1.56975 0
M  V30 2372 C 215.272 -1.17292 1.98774 0
M  V30 2373 C 216.242 -1.4232 0.856408 0
M  V30 2374 O 217.427 -1.54541 1.119 0
M  V30 2375 C 214.567 -2.49973 2.37923 0
M  V30 2376 C 213.68 -2.32062 3.64378 0
M  V30 2377 C 212.815 -3.57825 3.926 0
M  V30 2378 C 211.854 -3.3498 5.12303 0
M  V30 2379 N 210.991 -4.52891 5.36502 0
M  V30 2380 H 215.831 -0.809472 2.86795 0
M  V30 2381 H 213.368 -0.388237 1.41884 0
M  V30 2382 H 215.326 -3.27346 2.58652 0
M  V30 2383 H 213.956 -2.84252 1.52972 0
M  V30 2384 H 213.008 -1.45711 3.51387 0
M  V30 2385 H 214.32 -2.11145 4.51906 0
M  V30 2386 H 213.474 -4.43624 4.13863 0
M  V30 2387 H 212.213 -3.81753 3.03506 0
M  V30 2388 H 211.218 -2.4757 4.90906 0
M  V30 2389 H 212.443 -3.12444 6.02956 0
M  V30 2390 H 210.389 -4.76979 4.50363 0
M  V30 2391 H 210.306 -4.35001 6.18312 0
M  V30 2392 H 211.574 -5.39884 5.62268 0
M  V30 2393 N 215.803 -1.52179 -0.40978 0
M  V30 2394 C 217.028 -1.70347 -1.18308 0
M  V30 2395 C 217.453 -0.411887 -1.83535 0
M  V30 2396 O 216.811 0.630587 -1.6998 0
M  V30 2397 C 216.859 -2.83977 -2.22238 0
M  V30 2398 O 215.963 -2.495 -3.28365 0
M  V30 2399 H 215.304 -0.567103 -0.345384 0
M  V30 2400 H 217.834 -1.98879 -0.480445 0
M  V30 2401 H 217.844 -3.0887 -2.66577 0
M  V30 2402 H 216.519 -3.77685 -1.74146 0
M  V30 2403 H 215.096 -2.35277 -2.89308 0
M  V30 2404 N 217.281 0.66697 -1.42791 0
M  V30 2405 C 218.506 1.46004 -1.47301 0
M  V30 2406 C 218.931 1.87894 -0.0880317 0
M  V30 2407 O 218.289 1.56502 0.915253 0
M  V30 2408 C 218.337 2.68031 -2.41229 0
M  V30 2409 O 217.441 3.6659 -1.88906 0
M  V30 2410 H 216.782 0.43832 -0.49877 0
M  V30 2411 H 219.312 0.817391 -1.87563 0
M  V30 2412 H 219.322 3.1601 -2.58073 0
M  V30 2413 H 217.997 2.36883 -3.41847 0
M  V30 2414 H 216.574 3.25661 -1.81656 0
M  V30 2415 N 218.759 1.29093 0.90403 0
M  V30 2416 C 220.005 1.16986 1.65656 0
M  V30 2417 C 220.338 -0.278925 1.92186 0
M  V30 2418 O 219.613 -1.2019 1.5292 0
M  V30 2419 C 219.896 1.97908 3.0084 0
M  V30 2420 C 219.749 3.50903 2.81403 0
M  V30 2421 C 221.068 1.80208 4.01513 0
M  V30 2422 H 218.187 0.426346 0.601164 0
M  V30 2423 H 220.829 1.58518 1.04747 0
M  V30 2424 H 218.979 1.62616 3.52829 0
M  V30 2425 H 220.651 3.96153 2.36348 0
M  V30 2426 H 218.894 3.76045 2.1627 0
M  V30 2427 H 219.565 4.02791 3.77443 0
M  V30 2428 H 222.041 2.11025 3.58619 0
M  V30 2429 H 220.917 2.39184 4.94047 0
M  V30 2430 H 221.178 0.756119 4.35586 0
M  V30 2431 N 220.237 -1.11381 1.11499 0
M  V30 2432 C 221.462 -1.87475 0.887019 0
M  V30 2433 C 221.887 -1.79639 -0.557796 0
M  V30 2434 O 221.245 -1.15924 -1.39396 0
M  V30 2435 C 221.293 -3.34213 1.35403 0
M  V30 2436 O 220.397 -4.0903 0.526146 0
M  V30 2437 H 219.738 -0.582099 0.319463 0
M  V30 2438 H 222.268 -1.40785 1.48461 0
M  V30 2439 H 222.278 -3.8506 1.34881 0
M  V30 2440 H 220.953 -3.39232 2.40612 0
M  V30 2441 H 219.53 -3.68082 0.597522 0
M  V30 2442 N 221.715 -0.905404 -1.28997 0
M  V30 2443 C 222.963 -0.533192 -1.9494 0
M  V30 2444 C 223.284 0.924618 -1.71685 0
M  V30 2445 O 222.554 1.65268 -1.05183 0
M  V30 2446 H 221.134 -0.194194 -0.721317 0
M  V30 2447 H 223.796 -1.15294 -1.57141 0
M  V30 2448 H 222.892 -0.72059 -3.03667 0
M  V30 2449 N 223.193 1.4272 -0.668489 0
M  V30 2450 C 224.442 2.00846 -0.185389 0
M  V30 2451 C 224.755 1.53442 1.21305 0
M  V30 2452 O 225.961 2.03944 1.79218 0
M  V30 2453 C 224.417 3.58805 -0.280591 0
M  V30 2454 C 224.025 4.15198 -1.68268 0
M  V30 2455 C 225.769 4.24255 0.14412 0
M  V30 2456 C 223.676 5.655 -1.73099 0
M  V30 2457 H 222.606 0.751145 -0.0655475 0
M  V30 2458 H 225.257 1.63516 -0.832752 0
M  V30 2459 H 223.639 3.93608 0.434553 0
M  V30 2460 H 224.813 3.91866 -2.42441 0
M  V30 2461 H 223.128 3.62176 -2.05469 0
M  V30 2462 H 225.725 5.34547 0.128086 0
M  V30 2463 H 226.068 3.99277 1.17827 0
M  V30 2464 H 226.601 3.94389 -0.519798 0
M  V30 2465 H 223.34 5.95268 -2.74475 0
M  V30 2466 H 222.86 5.90842 -1.03274 0
M  V30 2467 H 224.539 6.29808 -1.48158 0
M  V30 2468 N 224.671 0.411399 1.52136 0
M  V30 2469 C 226.087 0.0623865 1.59478 0
M  V30 2470 C 226.287 -1.42554 1.4241 0
M  V30 2471 O 225.343 -2.19263 1.2522 0
M  V30 2472 C 226.656 0.559331 2.95452 0
M  V30 2473 C 228.204 0.517503 3.08692 0
M  V30 2474 C 228.679 0.990994 4.4715 0
M  V30 2475 N 230.17 0.947908 4.53397 0
M  V30 2476 C 230.905 1.28544 5.58806 0
M  V30 2477 N 230.401 1.69454 6.71757 0
M  V30 2478 N 232.194 1.20526 5.49026 0
M  V30 2479 H 224.345 1.37982 1.61477 0
M  V30 2480 H 226.608 0.566977 0.759764 0
M  V30 2481 H 226.314 1.59938 3.1323 0
M  V30 2482 H 226.188 -0.0298014 3.77188 0
M  V30 2483 H 228.575 -0.513505 2.90598 0
M  V30 2484 H 228.656 1.14272 2.28857 0
M  V30 2485 H 228.3 2.02034 4.65988 0
M  V30 2486 H 228.23 0.34257 5.25485 0
M  V30 2487 H 230.721 0.647157 3.72317 0
M  V30 2488 H 231.034 1.93513 7.48179 0
M  V30 2489 H 229.379 1.73359 6.73032 0
M  V30 2490 H 232.57 0.884505 4.59667 0
M  V30 2491 H 232.743 1.47161 6.31069 0
M  V30 2492 N 226.149 -1.5696 0.141893 0
M  V30 2493 C 227.398 -1.95135 -0.510427 0
M  V30 2494 C 227.711 -1.02896 -1.66348 0
M  V30 2495 O 228.917 -1.30629 -2.38009 0
M  V30 2496 C 227.373 -3.46876 -0.959427 0
M  V30 2497 C 226.981 -4.47691 0.166419 0
M  V30 2498 C 228.725 -3.93927 -1.58183 0
M  V30 2499 C 226.632 -5.90636 -0.300565 0
M  V30 2500 H 225.562 -0.728494 -0.194454 0
M  V30 2501 H 228.213 -1.8211 0.22542 0
M  V30 2502 H 226.595 -3.55215 -1.75038 0
M  V30 2503 H 227.769 -4.51043 0.94325 0
M  V30 2504 H 226.084 -4.10527 0.696905 0
M  V30 2505 H 228.681 -4.98158 -1.94275 0
M  V30 2506 H 229.024 -3.3519 -2.46888 0
M  V30 2507 H 229.557 -3.88484 -0.855863 0
M  V30 2508 H 226.296 -6.5318 0.550989 0
M  V30 2509 H 225.816 -5.90655 -1.04338 0
M  V30 2510 H 227.495 -6.42588 -0.754265 0
M  V30 2511 N 227.627 0.131896 -1.57047 0
M  V30 2512 C 228.574 1.16236 -1.99393 0
M  V30 2513 C 229.544 1.41863 -0.863943 0
M  V30 2514 O 230.729 1.53946 -1.12718 0
M  V30 2515 C 227.869 2.48708 -2.39245 0
M  V30 2516 C 226.982 2.30127 -3.65603 0
M  V30 2517 C 226.117 3.55738 -3.94492 0
M  V30 2518 C 225.156 3.32259 -5.14073 0
M  V30 2519 N 224.293 4.50039 -5.38896 0
M  V30 2520 H 229.133 0.794251 -2.87221 0
M  V30 2521 H 226.67 0.380707 -1.42088 0
M  V30 2522 H 228.628 3.25969 -2.60384 0
M  V30 2523 H 227.258 2.83437 -1.54478 0
M  V30 2524 H 226.31 1.43845 -3.52154 0
M  V30 2525 H 227.622 2.08746 -4.5302 0
M  V30 2526 H 226.776 4.41423 -4.1621 0
M  V30 2527 H 225.515 3.80138 -3.05526 0
M  V30 2528 H 224.52 2.44963 -4.92212 0
M  V30 2529 H 225.745 3.09242 -6.04604 0
M  V30 2530 H 223.691 4.74584 -4.52886 0
M  V30 2531 H 223.608 4.31716 -6.2061 0
M  V30 2532 H 224.876 5.36895 -5.65123 0
M  V30 2533 N 229.106 1.52395 0.401703 0
M  V30 2534 C 230.355 1.66044 1.14509 0
M  V30 2535 C 230.668 0.400216 1.91462 0
M  V30 2536 O 231.874 0.416632 2.68284 0
M  V30 2537 C 230.33 2.93388 2.0845 0
M  V30 2538 C 229.938 4.26545 1.36978 0
M  V30 2539 C 231.682 3.16402 2.83001 0
M  V30 2540 C 229.589 5.45007 2.29611 0
M  V30 2541 H 228.519 0.618562 0.431158 0
M  V30 2542 H 231.17 1.78886 0.40892 0
M  V30 2543 H 229.552 2.74263 2.8565 0
M  V30 2544 H 230.726 4.56179 0.650916 0
M  V30 2545 H 229.041 4.09692 0.74438 0
M  V30 2546 H 231.638 4.02085 3.52465 0
M  V30 2547 H 231.981 2.30943 3.46368 0
M  V30 2548 H 232.514 3.36034 2.12898 0
M  V30 2549 H 229.253 6.32835 1.70879 0
M  V30 2550 H 228.773 5.19702 2.9945 0
M  V30 2551 H 230.452 5.7838 2.89974 0
M  V30 2552 N 230.584 -0.659388 1.43143 0
M  V30 2553 C 231.547 -1.75432 1.47501 0
M  V30 2554 C 232.547 -1.56707 0.360512 0
M  V30 2555 O 233.737 -1.62717 0.622002 0
M  V30 2556 C 230.869 -3.14239 1.32162 0
M  V30 2557 H 232.062 -1.7295 2.45006 0
M  V30 2558 H 229.615 -0.870469 1.29817 0
M  V30 2559 H 230.35 -3.22336 0.356401 0
M  V30 2560 H 230.135 -3.29235 2.12948 0
M  V30 2561 H 231.625 -3.94094 1.3813 0
M  V30 2562 N 232.062 -1.29571 -0.897171 0
M  V30 2563 C 233.339 -1.08365 -1.62839 0
M  V30 2564 C 233.719 0.371331 -2.07808 0
M  V30 2565 O 233.067 1.3606 -1.83576 0
M  V30 2566 C 233.277 -2.0735 -2.80726 0
M  V30 2567 C 234.625 -2.38406 -3.51351 0
M  V30 2568 O 235.649 -2.05564 -2.90898 0
M  V30 2569 O 234.508 -2.9453 -4.60341 0
M  V30 2570 H 231.602 -0.415345 -0.715134 0
M  V30 2571 H 234.148 -1.40952 -0.945018 0
M  V30 2572 H 232.92 -3.05339 -2.44711 0
M  V30 2573 H 232.543 -1.75507 -3.56767 0
M  V30 2574 N 233.54 1.10788 -1.12088 0
M  V30 2575 C 234.787 1.82671 -0.873931 0
M  V30 2576 C 235.115 1.85004 0.600311 0
M  V30 2577 O 234.37 1.30365 1.45957 0
M  V30 2578 C 234.669 3.29294 -1.38926 0
M  V30 2579 C 234.335 3.47113 -2.87791 0
M  V30 2580 C 232.997 3.51684 -3.28439 0
M  V30 2581 C 235.349 3.52808 -3.83635 0
M  V30 2582 C 232.677 3.59513 -4.63646 0
M  V30 2583 C 235.029 3.62169 -5.18668 0
M  V30 2584 C 233.693 3.65003 -5.58864 0
M  V30 2585 H 232.963 0.668441 -0.319794 0
M  V30 2586 H 235.61 1.30613 -1.40045 0
M  V30 2587 H 233.915 3.83894 -0.783122 0
M  V30 2588 H 235.612 3.83416 -1.17443 0
M  V30 2589 H 232.202 3.4423 -2.5535 0
M  V30 2590 H 236.386 3.4853 -3.53328 0
M  V30 2591 H 231.642 3.59987 -4.94185 0
M  V30 2592 H 235.816 3.6552 -5.92763 0
M  V30 2593 H 233.443 3.70822 -6.63623 0
M  V30 2594 N 235.018 0.912232 1.28515 0
M  V30 2595 C 236.266 0.543523 1.94654 0
M  V30 2596 C 236.587 -0.9155 1.72173 0
M  V30 2597 O 235.857 -1.64708 1.06058 0
M  V30 2598 H 234.437 0.198017 0.720277 0
M  V30 2599 H 237.099 1.16126 1.56527 0
M  V30 2600 H 236.195 0.736684 3.03281 0
M  V30 2601 N 236.496 -1.42363 0.676048 0
M  V30 2602 C 237.743 -2.01522 0.19883 0
M  V30 2603 C 238.071 -1.53456 -1.19505 0
M  V30 2604 O 237.326 -0.727967 -1.81657 0
M  V30 2605 C 237.625 -3.56929 0.183431 0
M  V30 2606 C 237.291 -4.24431 1.52215 0
M  V30 2607 C 235.953 -4.42585 1.8887 0
M  V30 2608 C 238.305 -4.62459 2.40377 0
M  V30 2609 C 235.633 -4.96039 3.13309 0
M  V30 2610 C 237.985 -5.17294 3.64129 0
M  V30 2611 C 236.649 -5.33661 4.00951 0
M  V30 2612 H 235.919 -0.737419 0.0727571 0
M  V30 2613 H 238.566 -1.70531 0.871281 0
M  V30 2614 H 236.871 -3.87594 -0.572532 0
M  V30 2615 H 238.568 -4.00486 -0.203035 0
M  V30 2616 H 235.158 -4.10661 1.22701 0
M  V30 2617 H 239.342 -4.48105 2.13343 0
M  V30 2618 H 234.598 -5.06896 3.41857 0
M  V30 2619 H 238.772 -5.45704 4.32644 0
M  V30 2620 H 236.399 -5.74845 4.9745 0
M  V30 2621 N 237.974 -0.419461 -1.51915 0
M  V30 2622 C 238.937 0.389116 -2.25873 0
M  V30 2623 C 239.937 0.964924 -1.28631 0
M  V30 2624 O 241.127 0.842179 -1.52489 0
M  V30 2625 C 238.259 1.54874 -3.03689 0
M  V30 2626 H 239.452 -0.258799 -2.98781 0
M  V30 2627 H 237.005 -0.172209 -1.55348 0
M  V30 2628 H 237.74 2.23323 -2.35154 0
M  V30 2629 H 237.525 1.14223 -3.75094 0
M  V30 2630 H 239.015 2.12046 -3.59759 0
M  V30 2631 N 239.452 1.56882 -0.150215 0
M  V30 2632 C 240.868 1.58263 0.20617 0
M  V30 2633 C 241.068 1.16464 1.64434 0
M  V30 2634 O 240.124 0.866422 2.3717 0
M  V30 2635 C 241.437 3.00649 -0.0555025 0
M  V30 2636 C 242.985 3.12999 0.00795388 0
M  V30 2637 C 243.46 4.5744 -0.226429 0
M  V30 2638 N 244.951 4.62875 -0.173469 0
M  V30 2639 C 245.686 5.72454 -0.329288 0
M  V30 2640 N 245.182 6.90669 -0.543005 0
M  V30 2641 N 246.975 5.61467 -0.266666 0
M  V30 2642 H 239.126 1.82345 -1.08922 0
M  V30 2643 H 241.389 0.844149 -0.431413 0
M  V30 2644 H 241.095 3.3563 -1.05096 0
M  V30 2645 H 240.969 3.71337 0.66246 0
M  V30 2646 H 243.356 2.77857 0.993966 0
M  V30 2647 H 243.437 2.4479 -0.742388 0
M  V30 2648 H 243.081 4.93287 -1.20956 0
M  V30 2649 H 243.011 5.2378 0.544274 0
M  V30 2650 H 245.502 3.77898 -0.0130709 0
M  V30 2651 H 245.815 7.70045 -0.651922 0
M  V30 2652 H 244.16 6.92581 -0.579366 0
M  V30 2653 H 247.351 4.67992 -0.100441 0
M  V30 2654 H 247.524 6.46816 -0.391535 0
M  V30 2655 N 240.93 -0.123565 1.57115 0
M  V30 2656 C 242.16 -0.845233 1.88519 0
M  V30 2657 C 242.568 -1.74168 0.739064 0
M  V30 2658 O 241.911 -1.81244 -0.299355 0
M  V30 2659 C 241.973 -1.73452 3.14888 0
M  V30 2660 C 241.637 -1.01285 4.45635 0
M  V30 2661 C 242.634 -0.355774 5.18681 0
M  V30 2662 C 240.319 -0.99538 4.92339 0
M  V30 2663 C 242.313 0.309114 6.3665 0
M  V30 2664 C 240 -0.32669 6.10226 0
M  V30 2665 C 240.998 0.324406 6.82229 0
M  V30 2666 O 240.686 0.982437 7.97874 0
M  V30 2667 H 240.418 -0.248534 0.628655 0
M  V30 2668 H 242.972 -0.113907 2.05084 0
M  V30 2669 H 241.202 -2.50737 2.94394 0
M  V30 2670 H 242.891 -2.33021 3.32349 0
M  V30 2671 H 243.657 -0.360918 4.83655 0
M  V30 2672 H 239.536 -1.49159 4.36202 0
M  V30 2673 H 243.08 0.8179 6.92789 0
M  V30 2674 H 238.977 -0.319294 6.4471 0
M  V30 2675 H 239.745 0.886454 8.13686 0
M  V30 2676 N 242.408 -1.52605 -0.393616 0
M  V30 2677 C 243.338 -1.80022 -1.48709 0
M  V30 2678 C 244.319 -0.651995 -1.57108 0
M  V30 2679 O 245.504 -0.89913 -1.72132 0
M  V30 2680 C 242.634 -1.96492 -2.86371 0
M  V30 2681 C 241.588 -3.12161 -2.92813 0
M  V30 2682 C 240.914 -3.13877 -4.3288 0
M  V30 2683 C 242.214 -4.51322 -2.6288 0
M  V30 2684 H 243.908 -2.71589 -1.26015 0
M  V30 2685 H 241.454 -1.30684 -0.604778 0
M  V30 2686 H 243.407 -2.14255 -3.62867 0
M  V30 2687 H 242.131 -1.01611 -3.10391 0
M  V30 2688 H 240.79 -2.94173 -2.18764 0
M  V30 2689 H 240.438 -2.16687 -4.53933 0
M  V30 2690 H 240.138 -3.91576 -4.38112 0
M  V30 2691 H 241.662 -3.33789 -5.1129 0
M  V30 2692 H 243.076 -4.69435 -3.29096 0
M  V30 2693 H 241.473 -5.31053 -2.79468 0
M  V30 2694 H 242.543 -4.58353 -1.58242 0
M  V30 2695 N 243.887 0.651787 -1.4349 0
M  V30 2696 C 244.837 1.75783 -1.45205 0
M  V30 2697 C 245.821 1.57679 -0.320328 0
M  V30 2698 O 247.013 1.67767 -0.564211 0
M  V30 2699 C 244.142 3.14377 -1.3792 0
M  V30 2700 C 243.228 3.38023 -2.56127 0
M  V30 2701 N 243.619 3.32135 -3.81471 0
M  V30 2702 C 241.917 3.68747 -2.50882 0
M  V30 2703 C 242.618 3.55902 -4.60118 0
M  V30 2704 N 241.594 3.77783 -3.90872 0
M  V30 2705 H 245.396 1.69657 -2.39987 0
M  V30 2706 H 242.91 0.853508 -1.38163 0
M  V30 2707 H 244.907 3.93666 -1.37231 0
M  V30 2708 H 243.567 3.21683 -0.441596 0
M  V30 2709 H 244.578 3.11515 -4.13738 0
M  V30 2710 H 241.255 3.8316 -1.65816 0
M  V30 2711 H 242.645 3.57116 -5.69138 0
M  V30 2712 N 245.365 1.30045 0.890287 0
M  V30 2713 C 246.59 1.21598 1.68014 0
M  V30 2714 C 247.015 -0.218678 1.86825 0
M  V30 2715 O 246.373 -1.15756 1.39536 0
M  V30 2716 C 246.421 1.94434 3.03691 0
M  V30 2717 O 245.525 1.2678 3.92429 0
M  V30 2718 H 244.866 0.420856 0.513592 0
M  V30 2719 H 247.396 1.71775 1.11151 0
M  V30 2720 H 247.406 2.03251 3.5377 0
M  V30 2721 H 246.081 2.98777 2.89318 0
M  V30 2722 H 244.658 1.26282 3.50866 0
M  V30 2723 N 246.843 -1.10192 1.12674 0
M  V30 2724 C 247.791 -2.18694 0.792196 0
M  V30 2725 C 248.785 -1.67938 -0.222058 0
M  V30 2726 O 249.991 -1.79822 -0.0800074 0
M  V30 2727 H 246.366 -0.713223 0.238364 0
M  V30 2728 H 248.337 -2.44149 1.71564 0
M  V30 2729 C 247.086 -3.46682 0.265859 0
M  V30 2730 H 246.409 -3.86101 1.03761 0
M  V30 2731 H 247.849 -4.23942 0.0701128 0
M  V30 2732 C 246.308 -3.21506 -1.00675 0
M  V30 2733 O 246.838 -3.43408 -2.08408 0
M  V30 2734 N 245.044 -2.75158 -0.934692 0
M  V30 2735 H 244.591 -2.57535 -0.0578604 0
M  V30 2736 H 244.549 -2.58691 -1.7868 0
M  V30 2737 N 248.321 -0.919034 -1.28029 0
M  V30 2738 C 249.254 -0.355887 -2.25408 0
M  V30 2739 C 250.232 0.542874 -1.5327 0
M  V30 2740 O 251.416 0.485338 -1.82145 0
M  V30 2741 C 248.543 0.490759 -3.35126 0
M  V30 2742 C 247.589 -0.343358 -4.25116 0
M  V30 2743 S 248.422 -1.75344 -5.05979 0
M  V30 2744 C 249.578 -0.914244 -6.19187 0
M  V30 2745 H 249.811 -1.18123 -2.72826 0
M  V30 2746 H 247.344 -0.720636 -1.36551 0
M  V30 2747 H 249.302 0.973404 -3.98792 0
M  V30 2748 H 247.963 1.29054 -2.86363 0
M  V30 2749 H 247.156 0.304266 -5.03081 0
M  V30 2750 H 246.758 -0.759851 -3.662 0
M  V30 2751 H 249.05 -0.146282 -6.77342 0
M  V30 2752 H 249.993 -1.66661 -6.88208 0
M  V30 2753 H 250.401 -0.460082 -5.62622 0
M  V30 2754 N 249.799 1.42003 -0.683588 0
M  V30 2755 C 250.732 2.28166 0.039592 0
M  V30 2756 C 251.71 1.41562 0.799942 0
M  V30 2757 O 252.894 1.70997 0.793248 0
M  V30 2758 C 250.021 3.21575 1.06335 0
M  V30 2759 C 249.067 4.24643 0.397562 0
M  V30 2760 S 249.9 5.2869 -0.851296 0
M  V30 2761 C 251.056 6.25666 0.171166 0
M  V30 2762 H 251.289 2.89153 -0.691229 0
M  V30 2763 H 248.822 1.46962 -0.473435 0
M  V30 2764 H 250.78 3.75928 1.6489 0
M  V30 2765 H 249.441 2.59707 1.76667 0
M  V30 2766 H 248.634 4.90223 1.17035 0
M  V30 2767 H 248.236 3.73824 -0.114611 0
M  V30 2768 H 250.528 6.69653 1.02819 0
M  V30 2769 H 251.471 7.06666 -0.450397 0
M  V30 2770 H 251.879 5.62095 0.520578 0
M  V30 2771 N 251.277 0.427512 1.51691 0
M  V30 2772 C 252.24 -0.377132 2.26076 0
M  V30 2773 C 253.24 -0.958089 1.29141 0
M  V30 2774 O 254.43 -0.83408 1.52934 0
M  V30 2775 C 251.562 -1.53262 3.04506 0
M  V30 2776 H 252.755 0.27464 2.9864 0
M  V30 2777 H 250.308 0.180445 1.55255 0
M  V30 2778 H 251.043 -2.22072 2.36335 0
M  V30 2779 H 250.828 -1.12232 3.75694 0
M  V30 2780 H 252.318 -2.10135 3.60878 0
M  V30 2781 N 252.755 -1.56801 0.158532 0
M  V30 2782 C 253.718 -2.16138 -0.762705 0
M  V30 2783 C 254.718 -1.1061 -1.16713 0
M  V30 2784 O 255.908 -1.36191 -1.08617 0
M  V30 2785 C 253.04 -2.73386 -2.03649 0
M  V30 2786 H 254.233 -2.98886 -0.246354 0
M  V30 2787 H 251.786 -1.56035 -0.0909744 0
M  V30 2788 H 252.521 -1.94335 -2.59623 0
M  V30 2789 H 252.306 -3.50601 -1.75559 0
M  V30 2790 H 253.796 -3.19065 -2.6942 0
M  V30 2791 N 254.233 0.115231 -1.57178 0
M  V30 2792 C 255.461 0.836437 -1.89239 0
M  V30 2793 C 255.876 1.73256 -0.750175 0
M  V30 2794 O 255.233 1.80357 0.278832 0
M  V30 2795 C 255.284 1.66671 -3.20785 0
M  V30 2796 O 255.005 0.806652 -4.3061 0
M  V30 2797 C 256.506 2.49274 -3.66575 0
M  V30 2798 H 253.726 0.240253 -0.626514 0
M  V30 2799 H 256.27 0.0984932 -2.04263 0
M  V30 2800 H 254.425 2.35737 -3.0742 0
M  V30 2801 H 254.839 1.37969 -5.06028 0
M  V30 2802 H 256.313 3.03055 -4.6137 0
M  V30 2803 H 256.79 3.26807 -2.93417 0
M  V30 2804 H 257.396 1.85443 -3.82741 0
M  V30 2805 N 255.711 1.52812 0.385517 0
M  V30 2806 C 256.641 1.80808 1.47752 0
M  V30 2807 C 257.622 0.660318 1.5676 0
M  V30 2808 O 258.807 0.908246 1.71652 0
M  V30 2809 C 255.937 1.98008 2.85324 0
M  V30 2810 C 254.891 3.13709 2.91154 0
M  V30 2811 C 254.217 3.16169 4.31209 0
M  V30 2812 C 255.517 4.52709 2.60483 0
M  V30 2813 H 257.211 2.72253 1.24573 0
M  V30 2814 H 254.757 1.31003 0.597839 0
M  V30 2815 H 256.71 2.16176 3.61726 0
M  V30 2816 H 255.434 1.03255 3.09848 0
M  V30 2817 H 254.093 2.95329 2.17201 0
M  V30 2818 H 253.741 2.19092 4.52778 0
M  V30 2819 H 253.441 3.93894 4.36029 0
M  V30 2820 H 254.965 3.36496 5.09512 0
M  V30 2821 H 256.379 4.71173 3.26602 0
M  V30 2822 H 254.776 5.32528 2.76648 0
M  V30 2823 H 255.846 4.59186 1.55809 0
M  V30 2824 N 257.189 -0.644168 1.43834 0
M  V30 2825 C 258.429 -1.41565 1.47441 0
M  V30 2826 C 258.793 -1.91743 0.0992723 0
M  V30 2827 O 259.994 -2.68798 0.0100192 0
M  V30 2828 C 258.265 -2.55902 2.49498 0
M  V30 2829 S 259.824 -3.44287 2.72051 0
M  V30 2830 H 256.642 -0.483118 0.521649 0
M  V30 2831 H 259.244 -0.747008 1.80666 0
M  V30 2832 H 257.948 -2.17327 3.48134 0
M  V30 2833 H 257.479 -3.27607 2.17801 0
M  V30 2834 H 259.494 -4.52927 2.0266 0
M  V30 2835 N 258.668 -1.30515 -0.883378 0
M  V30 2836 C 259.916 -1.19194 -1.63209 0
M  V30 2837 C 260.237 0.253205 -1.93349 0
M  V30 2838 O 259.507 1.17025 -1.57105 0
M  V30 2839 H 258.087 -0.438148 -0.605009 0
M  V30 2840 H 260.749 -1.63663 -1.05832 0
M  V30 2841 H 259.845 -1.75396 -2.58153 0
M  V30 2842 N 260.146 1.09593 -1.13257 0
M  V30 2843 C 261.371 1.8604 -0.916732 0
M  V30 2844 C 261.796 1.80504 0.529146 0
M  V30 2845 O 261.154 1.18127 1.37534 0
M  V30 2846 C 261.202 3.32017 -1.40703 0
M  V30 2847 O 260.306 4.08141 -0.591153 0
M  V30 2848 H 259.647 0.576943 -0.328683 0
M  V30 2849 H 262.177 1.38405 -1.50682 0
M  V30 2850 H 262.187 3.82865 -1.4099 0
M  V30 2851 H 260.862 3.35361 -2.45979 0
M  V30 2852 H 259.439 3.67084 -0.656005 0
M  V30 2853 N 261.624 0.925811 1.2754 0
M  V30 2854 C 263.035 0.610102 1.7645 0
M  V30 2855 C 263.386 -0.874723 1.75622 0
M  V30 2856 O 262.511 -1.68444 1.35851 0
M  V30 2857 C 263.106 1.10073 3.20421 0
M  V30 2858 C 261.665 0.835723 3.67005 0
M  V30 2859 C 260.812 1.26054 2.46993 0
M  V30 2860 H 263.763 1.10579 1.13833 0
M  V30 2861 H 263.784 0.447557 3.77859 0
M  V30 2862 H 263.296 2.18143 3.20991 0
M  V30 2863 H 261.397 -0.231249 3.71882 0
M  V30 2864 H 261.51 1.45193 4.56569 0
M  V30 2865 H 259.874 0.679111 2.45479 0
M  V30 2866 H 260.657 2.34984 2.50275 0
M  V30 2867 N 263.102 -1.41638 0.69111 0
M  V30 2868 C 264.035 -2.28183 -0.0274913 0
M  V30 2869 C 265.013 -1.41984 -0.792424 0
M  V30 2870 O 266.197 -1.71415 -0.784169 0
M  V30 2871 C 263.324 -3.22135 -1.04628 0
M  V30 2872 C 262.37 -4.24848 -0.375037 0
M  V30 2873 S 263.203 -5.28231 0.879321 0
M  V30 2874 C 264.359 -6.25748 -0.137983 0
M  V30 2875 H 264.592 -2.88782 0.706553 0
M  V30 2876 H 262.125 -1.46709 0.481222 0
M  V30 2877 H 264.083 -3.76797 -1.62894 0
M  V30 2878 H 262.744 -2.6064 -1.75287 0
M  V30 2879 H 261.937 -4.90837 -1.14433 0
M  V30 2880 H 261.539 -3.73758 0.134434 0
M  V30 2881 H 263.831 -6.70188 -0.992659 0
M  V30 2882 H 264.774 -7.06417 0.487867 0
M  V30 2883 H 265.182 -5.62363 -0.490762 0
M  V30 2884 N 264.58 -0.43555 -1.51462 0
M  V30 2885 C 265.81 0.130053 -2.0619 0
M  V30 2886 C 266.218 1.37164 -1.30317 0
M  V30 2887 O 265.561 1.80225 -0.355598 0
M  V30 2888 C 265.623 0.519418 -3.55728 0
M  V30 2889 C 265.287 -0.615119 -4.52841 0
M  V30 2890 C 266.284 -1.48671 -4.9819 0
M  V30 2891 C 263.969 -0.795341 -4.95963 0
M  V30 2892 C 265.963 -2.52324 -5.8533 0
M  V30 2893 C 263.65 -1.83514 -5.82894 0
M  V30 2894 C 264.648 -2.69748 -6.27475 0
M  V30 2895 O 264.336 -3.71944 -7.1268 0
M  V30 2896 H 264.068 0.0121612 -0.675891 0
M  V30 2897 H 266.622 -0.6129 -1.96043 0
M  V30 2898 H 264.852 1.31505 -3.63653 0
M  V30 2899 H 266.541 1.01597 -3.92979 0
M  V30 2900 H 267.307 -1.359 -4.65571 0
M  V30 2901 H 263.186 -0.133713 -4.60806 0
M  V30 2902 H 266.73 -3.19665 -6.20048 0
M  V30 2903 H 262.627 -1.96306 -6.14926 0
M  V30 2904 H 263.395 -3.68503 -7.30854 0
M  V30 2905 N 266.058 1.56714 -0.166846 0
M  V30 2906 C 266.991 2.13577 0.80375 0
M  V30 2907 C 267.969 1.06464 1.22899 0
M  V30 2908 O 269.153 1.34413 1.32157 0
M  V30 2909 C 266.28 2.67168 2.0818 0
M  V30 2910 C 265.326 3.86612 1.80093 0
M  V30 2911 S 266.159 5.26565 0.97416 0
M  V30 2912 C 267.315 5.83558 2.26297 0
M  V30 2913 H 267.548 2.9557 0.320267 0
M  V30 2914 H 265.081 1.54326 0.0477555 0
M  V30 2915 H 267.039 2.98692 2.8159 0
M  V30 2916 H 265.7 1.85269 2.53642 0
M  V30 2917 H 264.893 4.22422 2.7491 0
M  V30 2918 H 264.495 3.55951 1.14781 0
M  V30 2919 H 266.787 5.962 3.21795 0
M  V30 2920 H 267.73 6.80731 1.94962 0
M  V30 2921 H 268.138 5.11944 2.37853 0
M  V30 2922 N 267.536 -0.106894 1.57237 0
M  V30 2923 C 268.499 -1.11466 2.0027 0
M  V30 2924 C 269.499 -1.33623 0.894519 0
M  V30 2925 O 270.689 -1.29935 1.16028 0
M  V30 2926 C 267.821 -2.46646 2.35327 0
M  V30 2927 H 269.014 -0.744516 2.90512 0
M  V30 2928 H 266.567 -0.351576 1.52295 0
M  V30 2929 H 267.302 -2.88558 1.48003 0
M  V30 2930 H 267.087 -2.31915 3.16161 0
M  V30 2931 H 268.577 -3.19151 2.69318 0
M  V30 2932 N 269.014 -1.53014 -0.377408 0
M  V30 2933 C 270.425 -1.60438 -0.954798 0
M  V30 2934 C 270.776 -0.464418 -1.90624 0
M  V30 2935 O 269.901 0.41087 -2.12464 0
M  V30 2936 C 270.496 -2.90797 -1.73847 0
M  V30 2937 C 269.055 -3.00595 -2.26538 0
M  V30 2938 C 268.202 -2.55645 -1.07429 0
M  V30 2939 H 271.153 -1.57926 -0.156575 0
M  V30 2940 H 271.174 -2.77935 -2.5987 0
M  V30 2941 H 270.686 -3.73746 -1.04574 0
M  V30 2942 H 268.787 -2.22208 -2.99089 0
M  V30 2943 H 268.9 -4.05456 -2.5523 0
M  V30 2944 H 267.264 -2.10239 -1.43777 0
M  V30 2945 H 268.047 -3.41 -0.396728 0
M  V30 2946 N 270.492 0.636531 -1.44174 0
M  V30 2947 C 271.402 1.77754 -1.53103 0
M  V30 2948 C 272.418 1.68928 -0.417034 0
M  V30 2949 O 273.594 1.89801 -0.6736 0
M  V30 2950 C 270.659 3.14115 -1.46741 0
M  V30 2951 C 269.72 3.34612 -2.68948 0
M  V30 2952 C 268.953 4.64467 -2.6288 0
M  V30 2953 O 269.176 5.44919 -1.68581 0
M  V30 2954 O 268.11 4.87049 -3.53648 0
M  V30 2955 H 271.936 1.73174 -2.49489 0
M  V30 2956 H 269.521 0.79709 -1.2636 0
M  V30 2957 H 271.403 3.95412 -1.45696 0
M  V30 2958 H 270.078 3.19249 -0.534975 0
M  V30 2959 H 268.985 2.53014 -2.75562 0
M  V30 2960 H 270.318 3.34336 -3.61221 0
M  V30 2961 N 271.97 1.30982 0.876444 0
M  V30 2962 C 273.216 1.20474 1.63138 0
M  V30 2963 C 273.549 -0.238096 1.92735 0
M  V30 2964 O 272.824 -1.1692 1.55435 0
M  V30 2965 C 273.107 2.04244 2.96574 0
M  V30 2966 C 272.96 3.56793 2.73896 0
M  V30 2967 C 274.279 1.88684 3.97601 0
M  V30 2968 H 271.398 0.439001 0.591985 0
M  V30 2969 H 274.04 1.60704 1.01361 0
M  V30 2970 H 272.19 1.70063 3.493 0
M  V30 2971 H 273.862 4.01077 2.27892 0
M  V30 2972 H 272.105 3.80548 2.08245 0
M  V30 2973 H 272.776 4.10706 3.68815 0
M  V30 2974 H 275.252 2.18584 3.54062 0
M  V30 2975 H 274.128 2.4961 4.88862 0
M  V30 2976 H 274.389 0.848343 4.33884 0
M  V30 2977 N 273.449 -1.08991 1.13837 0
M  V30 2978 C 274.698 -1.80631 0.897509 0
M  V30 2979 C 275.011 -1.86872 -0.57777 0
M  V30 2980 O 276.217 -2.54866 -0.935701 0
M  V30 2981 C 274.673 -3.24517 1.55618 0
M  V30 2982 C 274.281 -3.26529 3.0673 0
M  V30 2983 C 276.025 -4.00882 1.3962 0
M  V30 2984 C 273.932 -4.64965 3.65461 0
M  V30 2985 H 272.862 -0.67691 0.332129 0
M  V30 2986 H 275.513 -1.2246 1.3666 0
M  V30 2987 H 273.895 -3.82778 1.01476 0
M  V30 2988 H 275.069 -2.78008 3.67489 0
M  V30 2989 H 273.384 -2.63656 3.22296 0
M  V30 2990 H 275.981 -5.03167 1.80906 0
M  V30 2991 H 276.324 -4.14896 0.341578 0
M  V30 2992 H 276.857 -3.49075 1.90766 0
M  V30 2993 H 273.596 -4.56153 4.70749 0
M  V30 2994 H 273.116 -5.13792 3.09481 0
M  V30 2995 H 274.795 -5.3394 3.654 0
M  V30 2996 N 274.927 -0.932562 -1.27047 0
M  V30 2997 C 275.86 -0.379774 -2.25018 0
M  V30 2998 C 276.838 0.526587 -1.53837 0
M  V30 2999 O 278.022 0.465992 -1.82649 0
M  V30 3000 C 275.149 0.455187 -3.35627 0
M  V30 3001 C 274.195 -0.388428 -4.24728 0
M  V30 3002 S 275.028 -1.80701 -5.04091 0
M  V30 3003 C 276.184 -0.979865 -6.18182 0
M  V30 3004 H 276.417 -1.2101 -2.71558 0
M  V30 3005 H 273.95 -0.735078 -1.35779 0
M  V30 3006 H 275.908 0.931052 -3.99802 0
M  V30 3007 H 274.569 1.26009 -2.87716 0
M  V30 3008 H 273.762 0.25089 -5.03375 0
M  V30 3009 H 273.364 -0.798649 -3.65373 0
M  V30 3010 H 275.656 -0.218115 -6.77149 0
M  V30 3011 H 276.599 -1.73951 -6.86401 0
M  V30 3012 H 277.007 -0.51973 -5.62102 0
M  V30 3013 N 276.405 1.4127 -0.698611 0
M  V30 3014 C 277.63 2.06024 -0.238512 0
M  V30 3015 C 278.055 1.5224 1.10475 0
M  V30 3016 O 277.413 0.650623 1.69223 0
M  V30 3017 C 277.461 3.59988 -0.209952 0
M  V30 3018 O 276.565 4.04282 0.814235 0
M  V30 3019 H 275.906 0.653829 -0.115775 0
M  V30 3020 H 278.436 1.8098 -0.954326 0
M  V30 3021 H 278.446 4.07979 -0.0418436 0
M  V30 3022 H 277.121 3.98503 -1.1903 0
M  V30 3023 H 275.698 3.6779 0.615234 0
M  V30 3024 N 277.883 0.443576 1.51229 0
M  V30 3025 C 278.815 -0.400608 2.25672 0
M  V30 3026 C 279.828 -0.980945 1.29928 0
M  V30 3027 O 281.017 -0.874024 1.55638 0
M  V30 3028 C 278.117 -1.57304 3.00181 0
M  V30 3029 C 277.29 -1.11046 4.23069 0
M  V30 3030 C 276.349 -2.15374 4.80105 0
M  V30 3031 O 275.375 -1.74554 5.41774 0
M  V30 3032 N 276.577 -3.47922 4.64683 0
M  V30 3033 H 279.342 0.23745 2.98758 0
M  V30 3034 H 276.903 0.272809 1.59585 0
M  V30 3035 H 278.895 -2.26733 3.35223 0
M  V30 3036 H 277.465 -2.11632 2.30066 0
M  V30 3037 H 276.685 -0.243019 3.9345 0
M  V30 3038 H 277.973 -0.778888 5.02803 0
M  V30 3039 H 277.371 -3.83815 4.15575 0
M  V30 3040 H 275.928 -4.13228 5.0407 0
M  V30 3041 N 279.361 -1.56624 0.175154 0
M  V30 3042 C 280.311 -2.14747 -0.766004 0
M  V30 3043 C 281.295 -1.08275 -1.19018 0
M  V30 3044 O 282.487 -1.34388 -1.15191 0
M  V30 3045 C 279.616 -2.79478 -1.99366 0
M  V30 3046 C 278.702 -3.93114 -1.5913 0
M  V30 3047 N 279.093 -4.97752 -0.89872 0
M  V30 3048 C 277.391 -4.04345 -1.88204 0
M  V30 3049 C 278.092 -5.77473 -0.700012 0
M  V30 3050 N 277.068 -5.29207 -1.24263 0
M  V30 3051 H 280.87 -2.93015 -0.22793 0
M  V30 3052 H 278.384 -1.6238 -0.0253843 0
M  V30 3053 H 280.381 -3.19498 -2.67818 0
M  V30 3054 H 279.041 -2.02692 -2.53665 0
M  V30 3055 H 280.052 -5.14903 -0.556347 0
M  V30 3056 H 276.729 -3.38667 -2.44153 0
M  V30 3057 H 278.119 -6.71728 -0.152047 0
M  V30 3058 N 280.839 0.0985539 -1.57292 0
M  V30 3059 C 282.069 0.815135 -1.8984 0
M  V30 3060 C 282.477 1.7297 -0.766679 0
M  V30 3061 O 281.82 1.81698 0.270483 0
M  V30 3062 C 281.882 1.6842 -3.17608 0
M  V30 3063 C 281.546 0.94182 -4.4719 0
M  V30 3064 C 282.543 0.273212 -5.19182 0
M  V30 3065 C 280.228 0.916927 -4.9386 0
M  V30 3066 C 282.222 -0.410361 -6.36078 0
M  V30 3067 C 279.909 0.229567 -6.10669 0
M  V30 3068 C 280.907 -0.432902 -6.81627 0
M  V30 3069 O 280.595 -1.10925 -7.9621 0
M  V30 3070 H 280.327 0.238501 -0.632529 0
M  V30 3071 H 282.881 0.0812659 -2.05239 0
M  V30 3072 H 281.111 2.46022 -2.98345 0
M  V30 3073 H 282.8 2.27704 -3.36015 0
M  V30 3074 H 283.566 0.283927 -4.84168 0
M  V30 3075 H 279.445 1.42201 -4.3852 0
M  V30 3076 H 282.989 -0.928013 -6.914 0
M  V30 3077 H 278.886 0.216686 -6.45136 0
M  V30 3078 H 279.654 -1.01579 -8.12172 0
M  V30 3079 N 282.317 1.53212 0.369288 0
M  V30 3080 C 283.594 1.59815 1.12776 0
M  V30 3081 C 283.974 0.403402 2.0721 0
M  V30 3082 O 283.322 -0.606667 2.20299 0
M  V30 3083 C 283.532 2.94664 1.87013 0
M  V30 3084 C 284.88 3.49109 2.41677 0
M  V30 3085 O 285.904 2.96669 1.97144 0
M  V30 3086 O 284.763 4.40775 3.23079 0
M  V30 3087 H 281.857 0.645376 0.517125 0
M  V30 3088 H 284.403 1.65553 0.37285 0
M  V30 3089 H 283.175 3.73061 1.18071 0
M  V30 3090 H 282.798 2.92401 2.69421 0
M  V30 3091 N 283.795 -0.628877 1.44509 0
M  V30 3092 C 284.758 -1.72263 1.51188 0
M  V30 3093 C 285.758 -1.55907 0.39367 0
M  V30 3094 O 286.948 -1.61361 0.656377 0
M  V30 3095 C 284.08 -3.11365 1.38798 0
M  V30 3096 H 285.273 -1.67714 2.4862 0
M  V30 3097 H 282.826 -0.842737 1.31634 0
M  V30 3098 H 283.561 -3.21507 0.424693 0
M  V30 3099 H 283.346 -3.24644 2.19884 0
M  V30 3100 H 284.836 -3.91075 1.46458 0
M  V30 3101 N 285.273 -1.31445 -0.869486 0
M  V30 3102 C 286.22 -1.19135 -1.97675 0
M  V30 3103 C 287.19 -0.0770266 -1.65921 0
M  V30 3104 O 288.375 -0.249972 -1.89155 0
M  V30 3105 C 285.515 -0.905149 -3.33018 0
M  V30 3106 C 284.628 -2.10285 -3.77365 0
M  V30 3107 C 283.763 -1.75339 -5.01427 0
M  V30 3108 C 282.802 -2.91515 -5.38224 0
M  V30 3109 N 281.939 -2.56762 -6.53466 0
M  V30 3110 H 286.779 -2.13853 -2.07535 0
M  V30 3111 H 284.316 -1.06379 -1.01597 0
M  V30 3112 H 286.274 -0.719765 -4.10944 0
M  V30 3113 H 284.904 0.00519624 -3.228 0
M  V30 3114 H 283.956 -2.39899 -2.95216 0
M  V30 3115 H 285.268 -2.97237 -4.00564 0
M  V30 3116 H 284.422 -1.53266 -5.87022 0
M  V30 3117 H 283.161 -0.855801 -4.80133 0
M  V30 3118 H 282.166 -3.14237 -4.51149 0
M  V30 3119 H 283.391 -3.81985 -5.61484 0
M  V30 3120 H 281.337 -1.69526 -6.33717 0
M  V30 3121 H 281.254 -3.37243 -6.76612 0
M  V30 3122 H 282.522 -2.38083 -7.42251 0
M  V30 3123 N 286.751 1.08385 -1.14413 0
M  V30 3124 C 287.714 2.13486 -0.834048 0
M  V30 3125 C 288.714 1.59988 0.161418 0
M  V30 3126 O 289.904 1.74071 -0.0669575 0
M  V30 3127 C 287.036 3.4003 -0.243354 0
M  V30 3128 H 288.229 2.42425 -1.7655 0
M  V30 3129 H 285.782 1.24101 -0.950189 0
M  V30 3130 H 286.517 3.16726 0.696807 0
M  V30 3131 H 286.302 3.80157 -0.960367 0
M  V30 3132 H 287.792 4.17577 -0.0436242 0
M  V30 3133 N 288.23 0.939286 1.26551 0
M  V30 3134 C 289.507 0.5038 1.89001 0
M  V30 3135 C 289.887 -1.01854 1.84903 0
M  V30 3136 O 289.235 -1.87773 1.30206 0
M  V30 3137 C 289.445 1.063 3.32417 0
M  V30 3138 C 290.793 1.13051 4.09273 0
M  V30 3139 O 291.817 1.01345 3.41479 0
M  V30 3140 O 290.676 1.31233 5.30509 0
M  V30 3141 H 287.77 0.163897 0.810597 0
M  V30 3142 H 290.316 1.03173 1.34735 0
M  V30 3143 H 289.088 2.10665 3.29752 0
M  V30 3144 H 288.711 0.517408 3.94219 0
M  V30 3145 N 289.708 -1.40897 0.706093 0
M  V30 3146 C 290.638 -2.33418 0.0620085 0
M  V30 3147 C 291.619 -1.52385 -0.755827 0
M  V30 3148 O 292.804 -1.80886 -0.706674 0
M  V30 3149 C 289.934 -3.36293 -0.867445 0
M  V30 3150 C 288.888 -4.27716 -0.155932 0
M  V30 3151 C 288.214 -5.2105 -1.20046 0
M  V30 3152 C 289.514 -5.12944 0.984149 0
M  V30 3153 H 291.208 -2.87527 0.83477 0
M  V30 3154 H 288.754 -1.38249 0.402875 0
M  V30 3155 H 290.707 -3.99949 -1.32735 0
M  V30 3156 H 289.431 -2.80556 -1.67199 0
M  V30 3157 H 288.09 -3.65498 0.284047 0
M  V30 3158 H 287.738 -4.61624 -1.99781 0
M  V30 3159 H 287.438 -5.83056 -0.729328 0
M  V30 3160 H 288.962 -5.87584 -1.66066 0
M  V30 3161 H 290.376 -5.70109 0.604048 0
M  V30 3162 H 288.773 -5.83945 1.38304 0
M  V30 3163 H 289.843 -4.49485 1.81911 0
M  V30 3164 N 291.186 -0.45159 -1.50991 0
M  V30 3165 C 292.432 0.102439 -2.03142 0
M  V30 3166 C 292.787 1.39138 -1.32884 0
M  V30 3167 O 292.08 1.86493 -0.439438 0
M  V30 3168 C 292.274 0.361728 -3.55565 0
M  V30 3169 C 292.103 -0.900535 -4.40591 0
M  V30 3170 C 290.873 -1.43821 -4.844 0
M  V30 3171 C 293.071 -1.79063 -4.82121 0
M  V30 3172 N 291.053 -2.65153 -5.53685 0
M  V30 3173 C 292.424 -2.84991 -5.50618 0
M  V30 3174 C 294.479 -1.80334 -4.64095 0
M  V30 3175 C 293.182 -3.92155 -6.02998 0
M  V30 3176 C 295.208 -2.86442 -5.17402 0
M  V30 3177 C 294.57 -3.9109 -5.85857 0
M  V30 3178 H 290.669 -0.00204537 -0.781997 0
M  V30 3179 H 293.253 -0.615446 -1.84717 0
M  V30 3180 H 291.424 1.04865 -3.73976 0
M  V30 3181 H 293.156 0.908372 -3.94374 0
M  V30 3182 H 289.911 -0.990117 -4.63135 0
M  V30 3183 H 290.335 -3.26717 -5.92946 0
M  V30 3184 H 294.977 -1.00753 -4.1062 0
M  V30 3185 H 292.695 -4.72565 -6.55521 0
M  V30 3186 H 296.281 -2.88386 -5.05297 0
M  V30 3187 H 295.161 -4.71845 -6.26364 0
M  V30 3188 N 292.664 1.56529 -0.183458 0
M  V30 3189 C 293.889 2.02064 0.467428 0
M  V30 3190 C 294.314 1.06282 1.55196 0
M  V30 3191 O 293.672 0.0443565 1.81246 0
M  V30 3192 C 293.72 3.46122 1.01153 0
M  V30 3193 O 292.824 3.53437 2.12499 0
M  V30 3194 H 292.165 0.654726 0.110588 0
M  V30 3195 H 294.695 2.02521 -0.290917 0
M  V30 3196 H 294.705 3.85676 1.33108 0
M  V30 3197 H 293.38 4.15331 0.217533 0
M  V30 3198 H 291.957 3.2575 1.81497 0
M  V30 3199 N 294.142 -0.090211 1.57342 0
M  V30 3200 C 295.391 -0.791531 1.8552 0
M  V30 3201 C 295.704 -1.79659 0.773441 0
M  V30 3202 O 296.91 -2.54616 0.942497 0
M  V30 3203 C 295.366 -1.45856 3.2902 0
M  V30 3204 C 294.974 -0.493017 4.45279 0
M  V30 3205 C 296.718 -2.14332 3.66418 0
M  V30 3206 C 294.625 -1.16491 5.79814 0
M  V30 3207 H 293.555 -0.299356 0.692027 0
M  V30 3208 H 296.206 -0.0445343 1.83446 0
M  V30 3209 H 294.588 -2.25318 3.2565 0
M  V30 3210 H 295.762 0.270464 4.60006 0
M  V30 3211 H 294.077 0.0863061 4.16311 0
M  V30 3212 H 296.674 -2.65344 4.64216 0
M  V30 3213 H 297.017 -2.93447 2.95287 0
M  V30 3214 H 297.55 -1.41724 3.71698 0
M  V30 3215 H 294.289 -0.41447 6.54188 0
M  V30 3216 H 293.809 -1.8997 5.68921 0
M  V30 3217 H 295.488 -1.69001 6.24538 0
M  V30 3218 N 295.62 -1.53406 -0.361157 0
M  V30 3219 C 296.868 -1.69467 -1.10115 0
M  V30 3220 C 297.189 -0.451352 -1.89705 0
M  V30 3221 O 296.459 0.534636 -1.88463 0
M  V30 3222 H 295.039 -0.624749 -0.409508 0
M  V30 3223 H 297.701 -1.90609 -0.406699 0
M  V30 3224 H 296.797 -2.55774 -1.78847 0
M  V30 3225 N 297.098 0.621204 -1.44841 0
M  V30 3226 C 298.326 1.40752 -1.51646 0
M  V30 3227 C 298.741 1.88246 -0.144549 0
M  V30 3228 O 298.098 1.61422 0.851416 0
M  V30 3229 C 298.149 2.62119 -2.4895 0
M  V30 3230 O 297.87 2.16602 -3.80808 0
M  V30 3231 C 299.371 3.55135 -2.65319 0
M  V30 3232 H 296.591 0.431325 -0.514004 0
M  V30 3233 H 299.135 0.758835 -1.899 0
M  V30 3234 H 297.29 3.23058 -2.13805 0
M  V30 3235 H 297.704 2.95358 -4.33433 0
M  V30 3236 H 299.178 4.36874 -3.37409 0
M  V30 3237 H 299.655 4.04592 -1.70886 0
M  V30 3238 H 300.261 3.00058 -3.01405 0
M  V30 3239 N 298.576 1.31904 0.862503 0
M  V30 3240 C 299.822 1.22197 1.61851 0
M  V30 3241 C 300.155 -0.217641 1.92977 0
M  V30 3242 O 299.43 -1.15264 1.56666 0
M  V30 3243 C 299.713 2.07378 2.94391 0
M  V30 3244 C 299.566 3.59678 2.70096 0
M  V30 3245 C 300.885 1.92891 3.95577 0
M  V30 3246 H 298.004 0.445255 0.587296 0
M  V30 3247 H 300.646 1.6177 0.99651 0
M  V30 3248 H 298.796 1.73758 3.47477 0
M  V30 3249 H 300.468 4.03472 2.23625 0
M  V30 3250 H 298.711 3.82735 2.04197 0
M  V30 3251 H 299.382 4.14595 3.64438 0
M  V30 3252 H 301.858 2.22327 3.51724 0
M  V30 3253 H 300.734 2.54781 4.86187 0
M  V30 3254 H 300.995 0.894315 4.3296 0
M  V30 3255 N 300.054 -1.07777 1.14986 0
M  V30 3256 C 301.303 -1.79669 0.916617 0
M  V30 3257 C 301.616 -1.87474 -0.557917 0
M  V30 3258 O 302.822 -2.55845 -0.908617 0
M  V30 3259 C 301.278 -3.22848 1.59051 0
M  V30 3260 C 300.886 -3.23257 3.10176 0
M  V30 3261 C 302.63 -3.99379 1.43864 0
M  V30 3262 C 300.537 -4.61063 3.70372 0
M  V30 3263 H 299.467 -0.673349 0.33929 0
M  V30 3264 H 302.118 -1.21003 1.37951 0
M  V30 3265 H 300.5 -3.8168 1.0553 0
M  V30 3266 H 301.674 -2.74095 3.70417 0
M  V30 3267 H 299.989 -2.60222 3.25074 0
M  V30 3268 H 302.586 -5.0122 1.86232 0
M  V30 3269 H 302.929 -4.14511 0.385564 0
M  V30 3270 H 303.462 -3.47032 1.94457 0
M  V30 3271 H 300.201 -4.51135 4.7556 0
M  V30 3272 H 299.721 -5.1048 3.14913 0
M  V30 3273 H 301.4 -5.30034 3.71043 0
M  V30 3274 N 301.532 -0.945985 -1.26051 0
M  V30 3275 C 302.762 -0.612136 -1.97323 0
M  V30 3276 C 303.17 0.818171 -1.70595 0
M  V30 3277 O 302.513 1.55777 -0.973613 0
M  V30 3278 C 302.575 -0.780347 -3.50929 0
M  V30 3279 C 302.239 -2.18619 -4.01317 0
M  V30 3280 C 303.236 -3.16209 -4.12683 0
M  V30 3281 C 300.921 -2.50805 -4.35203 0
M  V30 3282 C 302.915 -4.44085 -4.57238 0
M  V30 3283 C 300.602 -3.78912 -4.79446 0
M  V30 3284 C 301.6 -4.75365 -4.90425 0
M  V30 3285 O 301.288 -6.01191 -5.3369 0
M  V30 3286 H 301.02 -0.229134 -0.635982 0
M  V30 3287 H 303.574 -1.27036 -1.61404 0
M  V30 3288 H 301.804 -0.0649864 -3.86645 0
M  V30 3289 H 303.493 -0.448842 -4.03411 0
M  V30 3290 H 304.259 -2.92668 -3.86744 0
M  V30 3291 H 300.138 -1.76463 -4.2589 0
M  V30 3292 H 303.682 -5.19373 -4.65723 0
M  V30 3293 H 299.579 -4.02265 -5.0483 0
M  V30 3294 H 300.347 -6.04442 -5.51899 0
M  V30 3295 N 303.011 1.40521 -0.713556 0
M  V30 3296 C 303.943 2.29191 -0.0203126 0
M  V30 3297 C 304.956 1.45723 0.725864 0
M  V30 3298 O 306.145 1.69033 0.573581 0
M  V30 3299 C 303.245 3.2395 0.995486 0
M  V30 3300 C 302.418 4.36262 0.315256 0
M  V30 3301 C 301.477 5.11474 1.23616 0
M  V30 3302 O 300.503 5.64606 0.721719 0
M  V30 3303 N 301.705 5.20638 2.56743 0
M  V30 3304 H 304.47 2.89327 -0.781652 0
M  V30 3305 H 302.031 1.51869 -0.561022 0
M  V30 3306 H 304.023 3.71137 1.61368 0
M  V30 3307 H 302.593 2.64995 1.6582 0
M  V30 3308 H 301.813 3.91228 -0.483106 0
M  V30 3309 H 303.101 5.08558 -0.157004 0
M  V30 3310 H 302.499 4.7895 3.01037 0
M  V30 3311 H 301.056 5.71339 3.13712 0
M  V30 3312 N 304.489 0.459591 1.5075 0
M  V30 3313 C 305.729 -0.09824 2.04164 0
M  V30 3314 C 306.093 -1.3801 1.33481 0
M  V30 3315 O 307.294 -2.01959 1.77387 0
M  V30 3316 C 305.565 -0.289467 3.56226 0
M  V30 3317 S 307.124 -0.807507 4.31306 0
M  V30 3318 H 303.942 -0.0213845 0.710678 0
M  V30 3319 H 306.544 0.624098 1.85271 0
M  V30 3320 H 305.248 0.649461 4.05229 0
M  V30 3321 H 304.779 -1.03825 3.79452 0
M  V30 3322 H 306.794 -2.0824 4.50389 0
M  V30 3323 N 305.967 -1.56429 0.191757 0
M  V30 3324 C 306.897 -2.21937 -0.725696 0
M  V30 3325 C 307.878 -1.1814 -1.2238 0
M  V30 3326 O 309.063 -1.46636 -1.27325 0
M  V30 3327 C 306.193 -2.87611 -1.94672 0
M  V30 3328 C 305.147 -3.97623 -1.58366 0
M  V30 3329 C 304.473 -4.50446 -2.88102 0
M  V30 3330 C 305.773 -5.16197 -0.796133 0
M  V30 3331 H 307.467 -2.98861 -0.179606 0
M  V30 3332 H 305.013 -1.43749 -0.0849464 0
M  V30 3333 H 306.966 -3.3212 -2.59373 0
M  V30 3334 H 305.69 -2.08087 -2.51728 0
M  V30 3335 H 304.349 -3.53801 -0.960247 0
M  V30 3336 H 303.997 -3.67688 -3.43241 0
M  V30 3337 H 303.697 -5.24675 -2.64556 0
M  V30 3338 H 305.221 -4.97654 -3.53798 0
M  V30 3339 H 306.635 -5.57271 -1.34618 0
M  V30 3340 H 305.032 -5.96471 -0.658928 0
M  V30 3341 H 306.102 -4.84473 0.203478 0
M  V30 3342 N 307.445 0.0818655 -1.57387 0
M  V30 3343 C 308.691 0.784074 -1.8703 0
M  V30 3344 C 309.024 1.77729 -0.782689 0
M  V30 3345 O 308.299 1.93384 0.208051 0
M  V30 3346 C 308.582 1.50105 -3.27323 0
M  V30 3347 C 308.435 0.524925 -4.46727 0
M  V30 3348 C 309.754 2.44843 -3.65705 0
M  V30 3349 H 306.873 0.283582 -0.680257 0
M  V30 3350 H 309.515 0.0474352 -1.89941 0
M  V30 3351 H 307.665 2.12897 -3.24972 0
M  V30 3352 H 309.337 -0.0970111 -4.61198 0
M  V30 3353 H 307.58 -0.160606 -4.33503 0
M  V30 3354 H 308.251 1.064 -5.41648 0
M  V30 3355 H 310.727 1.92135 -3.69085 0
M  V30 3356 H 309.603 2.92018 -4.64776 0
M  V30 3357 H 309.864 3.29197 -2.95096 0
M  V30 3358 N 308.923 1.53595 0.353017 0
M  V30 3359 C 310.171 1.70049 1.09215 0
M  V30 3360 C 310.492 0.461406 1.89463 0
M  V30 3361 O 309.762 -0.524633 1.88744 0
M  V30 3362 H 308.342 0.626912 0.40619 0
M  V30 3363 H 311.004 1.90822 0.396585 0
M  V30 3364 H 310.1 2.56718 1.77488 0
M  V30 3365 N 310.401 -0.613514 1.45168 0
M  V30 3366 C 311.348 -1.72456 1.53387 0
M  V30 3367 C 312.318 -1.6169 0.380191 0
M  V30 3368 O 313.503 -1.81356 0.592836 0
M  V30 3369 C 310.643 -3.10753 1.50088 0
M  V30 3370 C 309.756 -3.32368 2.75963 0
M  V30 3371 C 308.891 -4.60737 2.64376 0
M  V30 3372 C 307.93 -4.7559 3.85332 0
M  V30 3373 N 307.067 -5.95253 3.72315 0
M  V30 3374 H 311.907 -1.64768 2.48305 0
M  V30 3375 H 309.444 -0.803503 1.23216 0
M  V30 3376 H 311.402 -3.90758 1.46164 0
M  V30 3377 H 310.032 -3.17413 0.587243 0
M  V30 3378 H 309.084 -2.4618 2.89999 0
M  V30 3379 H 310.396 -3.39218 3.65695 0
M  V30 3380 H 309.55 -5.48928 2.58385 0
M  V30 3381 H 308.289 -4.56275 1.72233 0
M  V30 3382 H 307.294 -3.85824 3.91688 0
M  V30 3383 H 308.519 -4.81854 4.78533 0
M  V30 3384 H 306.465 -5.91847 2.82937 0
M  V30 3385 H 306.382 -6.03236 4.55677 0
M  V30 3386 H 307.65 -6.85958 3.70246 0
M  V30 3387 N 311.879 -1.3236 -0.855495 0
M  V30 3388 C 313.29 -1.2056 -1.42556 0
M  V30 3389 C 313.641 0.182209 -1.95352 0
M  V30 3390 O 312.766 1.08088 -1.87472 0
M  V30 3391 C 313.361 -2.1826 -2.59129 0
M  V30 3392 C 311.92 -2.10351 -3.12137 0
M  V30 3393 C 311.067 -2.06674 -1.84882 0
M  V30 3394 H 314.018 -1.442 -0.662727 0
M  V30 3395 H 314.039 -1.78064 -3.36264 0
M  V30 3396 H 313.551 -3.19257 -2.20673 0
M  V30 3397 H 311.652 -1.12599 -3.55179 0
M  V30 3398 H 311.765 -3.00135 -3.73438 0
M  V30 3399 H 310.129 -1.51901 -2.04446 0
M  V30 3400 H 310.912 -3.09451 -1.48643 0
M  V30 3401 N 313.357 1.07166 -1.15556 0
M  V30 3402 C 314.768 1.6127 -0.940693 0
M  V30 3403 C 315.119 1.89251 0.517551 0
M  V30 3404 O 314.244 1.65937 1.38903 0
M  V30 3405 C 314.839 2.92993 -1.7012 0
M  V30 3406 C 313.398 3.43832 -1.53156 0
M  V30 3407 C 312.545 2.1786 -1.71558 0
M  V30 3408 H 315.496 0.90229 -1.30554 0
M  V30 3409 H 315.517 3.62007 -1.17181 0
M  V30 3410 H 315.029 2.72596 -2.76248 0
M  V30 3411 H 313.13 3.69307 -0.494294 0
M  V30 3412 H 313.243 4.19747 -2.30975 0
M  V30 3413 H 311.607 2.2765 -1.14225 0
M  V30 3414 H 312.39 1.99956 -2.79056 0
M  V30 3415 N 314.835 0.952656 1.25548 0
M  V30 3416 C 316.082 0.606373 1.93208 0
M  V30 3417 C 316.41 -0.85631 1.74636 0
M  V30 3418 O 315.665 -1.62951 1.08376 0
M  V30 3419 C 315.964 0.908818 3.45652 0
M  V30 3420 C 315.63 2.35722 3.84378 0
M  V30 3421 C 314.292 2.75312 3.9466 0
M  V30 3422 C 316.644 3.29793 4.03591 0
M  V30 3423 C 313.972 4.08047 4.21562 0
M  V30 3424 C 316.324 4.62138 4.31985 0
M  V30 3425 C 314.988 5.01528 4.40484 0
M  V30 3426 H 314.258 0.221888 0.706998 0
M  V30 3427 H 316.905 1.20132 1.49133 0
M  V30 3428 H 315.21 0.231456 3.91116 0
M  V30 3429 H 316.907 0.619498 3.96186 0
M  V30 3430 H 313.497 2.04017 3.76928 0
M  V30 3431 H 317.681 3.00397 3.95064 0
M  V30 3432 H 312.937 4.38212 4.26357 0
M  V30 3433 H 317.111 5.35012 4.45797 0
M  V30 3434 H 314.738 6.04406 4.61083 0
M  V30 3435 N 316.313 -1.40141 0.720998 0
M  V30 3436 C 317.245 -2.29177 0.0324669 0
M  V30 3437 C 318.258 -1.46105 -0.718126 0
M  V30 3438 O 319.447 -1.69335 -0.564608 0
M  V30 3439 C 316.547 -3.24473 -0.978292 0
M  V30 3440 C 315.72 -4.36423 -0.292115 0
M  V30 3441 C 314.779 -5.12122 -1.20901 0
M  V30 3442 O 313.805 -5.64981 -0.691766 0
M  V30 3443 N 315.007 -5.21992 -2.53978 0
M  V30 3444 H 317.772 -2.88909 0.796984 0
M  V30 3445 H 315.333 -1.51569 0.569068 0
M  V30 3446 H 317.325 -3.71987 -1.59398 0
M  V30 3447 H 315.895 -2.65871 -1.64413 0
M  V30 3448 H 315.115 -3.90967 0.503847 0
M  V30 3449 H 316.403 -5.08467 0.183971 0
M  V30 3450 H 315.801 -4.8054 -2.98493 0
M  V30 3451 H 314.358 -5.72995 -3.10677 0
M  V30 3452 N 317.792 -0.46758 -1.50504 0
M  V30 3453 C 318.755 0.317059 -2.26996 0
M  V30 3454 C 319.755 0.923513 -1.31635 0
M  V30 3455 O 320.945 0.793239 -1.55091 0
M  V30 3456 C 318.077 1.45134 -3.08462 0
M  V30 3457 H 319.27 -0.353723 -2.97807 0
M  V30 3458 H 316.823 -0.221545 -1.54722 0
M  V30 3459 H 317.558 2.15728 -2.4214 0
M  V30 3460 H 317.343 1.02232 -3.78538 0
M  V30 3461 H 318.833 2.00493 -3.66323 0
M  V30 3462 N 319.27 1.56325 -0.20005 0
M  V30 3463 C 320.218 2.20666 0.735482 0
M  V30 3464 C 321.212 1.17934 1.21605 0
M  V30 3465 O 322.418 1.36068 1.17837 0
M  V30 3466 H 318.793 0.70725 0.255542 0
M  V30 3467 H 320.764 2.9792 0.169166 0
M  V30 3468 C 319.513 2.88391 1.94232 0
M  V30 3469 H 318.836 3.67185 1.58161 0
M  V30 3470 H 320.276 3.3684 2.57517 0
M  V30 3471 C 318.735 1.89692 2.78421 0
M  V30 3472 O 319.265 1.40032 3.76502 0
M  V30 3473 N 317.471 1.57813 2.44015 0
M  V30 3474 H 317.018 1.9839 1.64314 0
M  V30 3475 H 316.976 0.920325 3.00628 0
M  V30 3476 N 320.748 -0.0735177 1.57428 0
M  V30 3477 C 321.973 -0.789787 1.91774 0
M  V30 3478 C 322.398 -1.70413 0.796306 0
M  V30 3479 O 321.756 -1.79555 -0.250961 0
M  V30 3480 C 321.804 -1.5609 3.25067 0
M  V30 3481 O 320.908 -2.67144 3.14178 0
M  V30 3482 H 320.249 -0.215582 0.628029 0
M  V30 3483 H 322.779 -0.0422781 2.04556 0
M  V30 3484 H 322.789 -1.94052 3.58898 0
M  V30 3485 H 321.464 -0.890015 4.06265 0
M  V30 3486 H 320.041 -2.32052 2.91901 0
M  V30 3487 N 322.226 -1.5378 -0.344866 0
M  V30 3488 C 323.637 -1.62428 -0.920552 0
M  V30 3489 C 323.988 -0.504747 -1.89596 0
M  V30 3490 O 323.113 0.365711 -2.13287 0
M  V30 3491 C 323.708 -2.94419 -1.67639 0
M  V30 3492 C 322.267 -3.05333 -2.20111 0
M  V30 3493 C 321.414 -2.57866 -1.01982 0
M  V30 3494 H 324.365 -1.58222 -0.123042 0
M  V30 3495 H 324.386 -2.83384 -2.53917 0
M  V30 3496 H 323.898 -3.7588 -0.966224 0
M  V30 3497 H 321.999 -2.28502 -2.94308 0
M  V30 3498 H 322.112 -4.10778 -2.46573 0
M  V30 3499 H 320.476 -2.13241 -1.39285 0
M  V30 3500 H 321.259 -3.41765 -0.324308 0
M  V30 3501 N 323.704 0.605807 -1.45491 0
M  V30 3502 C 324.636 1.73031 -1.5031 0
M  V30 3503 C 325.649 1.57968 -0.393687 0
M  V30 3504 O 326.838 1.65817 -0.660839 0
M  V30 3505 C 323.938 3.11049 -1.34543 0
M  V30 3506 C 323.111 3.52334 -2.59189 0
M  V30 3507 C 322.17 4.69323 -2.37954 0
M  V30 3508 O 321.196 4.7635 -3.11575 0
M  V30 3509 N 322.398 5.62705 -1.4263 0
M  V30 3510 H 325.163 1.6936 -2.4726 0
M  V30 3511 H 322.724 0.79114 -1.41254 0
M  V30 3512 H 324.716 3.87071 -1.18144 0
M  V30 3513 H 323.286 3.09217 -0.458623 0
M  V30 3514 H 322.506 2.66256 -2.90691 0
M  V30 3515 H 323.794 3.76677 -3.42041 0
M  V30 3516 H 323.192 5.59744 -0.818758 0
M  V30 3517 H 321.749 6.38252 -1.32202 0
M  V30 3518 N 325.182 1.32811 0.848464 0
M  V30 3519 C 326.459 1.14334 1.58704 0
M  V30 3520 C 326.839 -0.293948 2.09043 0
M  V30 3521 O 326.187 -1.29153 1.88499 0
M  V30 3522 C 326.397 2.17626 2.72837 0
M  V30 3523 C 327.745 2.51282 3.42261 0
M  V30 3524 O 328.769 2.16219 2.83068 0
M  V30 3525 O 327.628 3.11413 4.49093 0
M  V30 3526 H 324.722 0.441601 0.699226 0
M  V30 3527 H 327.268 1.44362 0.892053 0
M  V30 3528 H 326.04 3.14211 2.3321 0
M  V30 3529 H 325.663 1.88628 3.50008 0
M  V30 3530 N 326.66 -1.06551 1.16123 0
M  V30 3531 C 327.59 -2.15935 0.88851 0
M  V30 3532 C 328.571 -1.69306 -0.164135 0
M  V30 3533 O 329.756 -1.94193 -0.0167857 0
M  V30 3534 C 326.886 -3.45149 0.385942 0
M  V30 3535 C 325.84 -4.05271 1.3762 0
M  V30 3536 C 325.166 -5.29664 0.732137 0
M  V30 3537 C 326.466 -4.44355 2.74493 0
M  V30 3538 H 328.16 -2.39006 1.80323 0
M  V30 3539 H 325.706 -1.14866 0.868435 0
M  V30 3540 H 327.659 -4.21004 0.182647 0
M  V30 3541 H 326.383 -3.21689 -0.564274 0
M  V30 3542 H 325.042 -3.3147 1.56599 0
M  V30 3543 H 324.69 -5.02499 -0.224483 0
M  V30 3544 H 324.39 -5.70848 1.39307 0
M  V30 3545 H 325.914 -6.08218 0.538802 0
M  V30 3546 H 327.328 -5.11303 2.59311 0
M  V30 3547 H 325.725 -4.96515 3.37035 0
M  V30 3548 H 326.795 -3.55339 3.29943 0
M  V30 3549 N 328.138 -0.959301 -1.25041 0
M  V30 3550 C 329.554 -0.664474 -1.4511 0
M  V30 3551 C 329.754 0.776481 -1.85938 0
M  V30 3552 O 328.81 1.55128 -1.99227 0
M  V30 3553 C 330.123 -1.64139 -2.5195 0
M  V30 3554 C 331.671 -1.65309 -2.65786 0
M  V30 3555 C 332.146 -2.61777 -3.75815 0
M  V30 3556 N 333.637 -2.60169 -3.83231 0
M  V30 3557 C 334.372 -3.31489 -4.6787 0
M  V30 3558 N 333.868 -4.12298 -5.56761 0
M  V30 3559 N 335.661 -3.20354 -4.61876 0
M  V30 3560 H 327.812 -1.89043 -0.968332 0
M  V30 3561 H 330.075 -0.813408 -0.4869 0
M  V30 3562 H 329.781 -2.67086 -2.28819 0
M  V30 3563 H 329.655 -1.40756 -3.49954 0
M  V30 3564 H 332.042 -0.630778 -2.8828 0
M  V30 3565 H 332.123 -1.92753 -1.68167 0
M  V30 3566 H 331.767 -3.64137 -3.54071 0
M  V30 3567 H 331.697 -2.31616 -4.72929 0
M  V30 3568 H 334.188 -2.01507 -3.19692 0
M  V30 3569 H 334.501 -4.63625 -6.18281 0
M  V30 3570 H 332.846 -4.16395 -5.56454 0
M  V30 3571 H 336.037 -2.56692 -3.91442 0
M  V30 3572 H 336.21 -3.76201 -5.27614 0
M  V30 3573 N 329.616 1.39756 -0.72842 0
M  V30 3574 C 330.549 2.28176 -0.0330172 0
M  V30 3575 C 331.527 1.44035 0.754501 0
M  V30 3576 O 332.711 1.73434 0.738445 0
M  V30 3577 C 329.838 3.24795 0.960504 0
M  V30 3578 C 328.884 4.25693 0.262264 0
M  V30 3579 S 329.717 5.25714 -1.01906 0
M  V30 3580 C 330.873 6.25894 -0.0279717 0
M  V30 3581 H 331.106 2.86807 -0.78287 0
M  V30 3582 H 328.639 1.45382 -0.519951 0
M  V30 3583 H 330.597 3.80983 1.52846 0
M  V30 3584 H 329.258 2.65196 1.68315 0
M  V30 3585 H 328.451 4.93699 1.01379 0
M  V30 3586 H 328.053 3.7327 -0.233482 0
M  V30 3587 H 330.345 6.72585 0.814621 0
M  V30 3588 H 331.288 7.04876 -0.67499 0
M  V30 3589 H 331.696 5.63466 0.341489 0
M  V30 3590 N 331.094 0.475555 1.50254 0
M  V30 3591 C 332.341 -0.0778919 2.0235 0
M  V30 3592 C 332.669 -1.39319 1.35722 0
M  V30 3593 O 331.924 -1.89888 0.473395 0
M  V30 3594 C 332.223 -0.305114 3.56095 0
M  V30 3595 C 331.889 0.92903 4.41225 0
M  V30 3596 C 330.551 1.26739 4.6421 0
M  V30 3597 C 332.903 1.75054 4.90923 0
M  V30 3598 C 330.231 2.42724 5.34137 0
M  V30 3599 C 332.583 2.9017 5.62125 0
M  V30 3600 C 331.247 3.24416 5.83362 0
M  V30 3601 H 330.517 -0.0285027 0.740452 0
M  V30 3602 H 333.164 0.630543 1.80821 0
M  V30 3603 H 331.469 -1.09584 3.76163 0
M  V30 3604 H 333.166 -0.747377 3.93974 0
M  V30 3605 H 329.756 0.655428 4.23559 0
M  V30 3606 H 333.94 1.50231 4.73016 0
M  V30 3607 H 329.196 2.69525 5.48786 0
M  V30 3608 H 333.37 3.54169 5.99614 0
M  V30 3609 H 330.997 4.14396 6.37323 0
M  V30 3610 N 332.573 -1.56217 0.208337 0
M  V30 3611 C 333.803 -2.02043 -0.431523 0
M  V30 3612 C 334.211 -1.08755 -1.54819 0
M  V30 3613 O 333.554 -0.0870009 -1.83494 0
M  V30 3614 C 333.616 -3.44239 -1.03633 0
M  V30 3615 C 333.28 -4.56965 -0.0567502 0
M  V30 3616 C 334.277 -5.14624 0.738773 0
M  V30 3617 C 331.962 -5.02266 0.0581736 0
M  V30 3618 C 333.956 -6.16045 1.63605 0
M  V30 3619 C 331.643 -6.03528 0.959001 0
M  V30 3620 C 332.641 -6.60293 1.7465 0
M  V30 3621 O 332.329 -7.59586 2.6322 0
M  V30 3622 H 332.061 -0.666772 -0.111313 0
M  V30 3623 H 334.615 -2.02919 0.318277 0
M  V30 3624 H 332.845 -3.40391 -1.83497 0
M  V30 3625 H 334.534 -3.73793 -1.58221 0
M  V30 3626 H 335.3 -4.80483 0.660364 0
M  V30 3627 H 331.179 -4.57771 -0.544633 0
M  V30 3628 H 334.723 -6.60279 2.25116 0
M  V30 3629 H 330.62 -6.37092 1.03848 0
M  V30 3630 H 331.388 -7.77057 2.57148 0
M  V30 3631 N 334.051 0.0651679 -1.57465 0
M  V30 3632 C 334.961 1.09448 -2.07505 0
M  V30 3633 C 335.977 1.41974 -1.00595 0
M  V30 3634 O 337.153 1.52018 -1.32107 0
M  V30 3635 C 334.218 2.38689 -2.51453 0
M  V30 3636 C 333.279 2.13073 -3.72691 0
M  V30 3637 C 332.512 3.36152 -4.14533 0
M  V30 3638 O 332.735 4.45517 -3.56189 0
M  V30 3639 O 331.669 3.23974 -5.07272 0
M  V30 3640 H 335.495 0.69935 -2.95538 0
M  V30 3641 H 333.08 0.279752 -1.46757 0
M  V30 3642 H 334.962 3.14736 -2.80212 0
M  V30 3643 H 333.637 2.77568 -1.66546 0
M  V30 3644 H 332.544 1.34709 -3.49005 0
M  V30 3645 H 333.877 1.79071 -4.5847 0
M  V30 3646 N 335.529 1.53961 0.336706 0
M  V30 3647 C 336.476 1.82428 1.41381 0
M  V30 3648 C 337.446 0.670444 1.51968 0
M  V30 3649 O 338.631 0.915565 1.67398 0
M  V30 3650 C 335.771 2.04564 2.77934 0
M  V30 3651 C 334.884 3.32267 2.76084 0
M  V30 3652 C 334.019 3.44434 4.04399 0
M  V30 3653 C 333.058 4.66061 3.96804 0
M  V30 3654 N 332.195 4.75224 5.16823 0
M  V30 3655 H 337.035 2.74324 1.16405 0
M  V30 3656 H 334.572 1.35869 0.563752 0
M  V30 3657 H 336.53 2.15388 3.57301 0
M  V30 3658 H 335.16 1.15974 3.01247 0
M  V30 3659 H 334.212 3.3025 1.88784 0
M  V30 3660 H 335.524 4.21733 2.66351 0
M  V30 3661 H 334.678 3.54728 4.92192 0
M  V30 3662 H 333.417 2.53037 4.16921 0
M  V30 3663 H 332.422 4.55838 3.07396 0
M  V30 3664 H 333.647 5.58829 3.85858 0
M  V30 3665 H 331.593 3.86739 5.29876 0
M  V30 3666 H 331.51 5.58636 5.09374 0
M  V30 3667 H 332.778 4.89835 6.06367 0
M  V30 3668 N 337.007 -0.598083 1.45811 0
M  V30 3669 C 337.955 -1.72932 1.55555 0
M  V30 3670 C 338.949 -1.63984 0.424921 0
M  V30 3671 O 340.155 -1.69663 0.601205 0
M  V30 3672 H 336.53 -0.571489 0.488779 0
M  V30 3673 H 338.501 -1.61842 2.50699 0
M  V30 3674 C 337.25 -3.11318 1.54843 0
M  V30 3675 H 336.573 -3.18867 2.41172 0
M  V30 3676 H 338.013 -3.90274 1.65717 0
M  V30 3677 C 336.472 -3.3578 0.274427 0
M  V30 3678 O 337.002 -3.9654 -0.641778 0
M  V30 3679 N 335.208 -2.90119 0.167139 0
M  V30 3680 H 334.755 -2.40855 0.913596 0
M  V30 3681 H 334.713 -3.0686 -0.684435 0
M  V30 3682 N 338.485 -1.33259 -0.841409 0
M  V30 3683 C 339.901 -1.12538 -1.13169 0
M  V30 3684 C 340.101 0.0854037 -2.01319 0
M  V30 3685 O 339.157 0.766417 -2.40587 0
M  V30 3686 C 340.47 -2.41156 -1.79623 0
M  V30 3687 C 342.018 -2.47038 -1.922 0
M  V30 3688 C 342.493 -3.7561 -2.6207 0
M  V30 3689 N 343.984 -3.76667 -2.69585 0
M  V30 3690 C 344.719 -4.72861 -3.2433 0
M  V30 3691 N 344.215 -5.79428 -3.79783 0
M  V30 3692 N 346.008 -4.6034 -3.22558 0
M  V30 3693 H 338.159 -2.10868 -0.254676 0
M  V30 3694 H 340.422 -0.931615 -0.175493 0
M  V30 3695 H 340.128 -3.29747 -1.22311 0
M  V30 3696 H 340.002 -2.53114 -2.79666 0
M  V30 3697 H 342.389 -1.58898 -2.48667 0
M  V30 3698 H 342.47 -2.39022 -0.911148 0
M  V30 3699 H 342.114 -4.64131 -2.06263 0
M  V30 3700 H 342.044 -3.80902 -3.63622 0
M  V30 3701 H 344.535 -2.99648 -2.30259 0
M  V30 3702 H 344.848 -6.48867 -4.19752 0
M  V30 3703 H 343.193 -5.83166 -3.78078 0
M  V30 3704 H 346.384 -3.76244 -2.78492 0
M  V30 3705 H 346.557 -5.35478 -3.64921 0
M  V30 3706 N 339.963 1.05934 -1.16686 0
M  V30 3707 C 341.188 1.83029 -0.975455 0
M  V30 3708 C 341.613 1.82096 0.471452 0
M  V30 3709 O 340.971 1.22443 1.33706 0
M  V30 3710 C 341.019 3.27372 -1.51195 0
M  V30 3711 O 340.123 4.06054 -0.720701 0
M  V30 3712 H 339.464 0.566194 -0.346872 0
M  V30 3713 H 341.994 1.33541 -1.55009 0
M  V30 3714 H 342.004 3.78186 -1.53099 0
M  V30 3715 H 340.679 3.27366 -2.56523 0
M  V30 3716 H 339.256 3.64812 -0.772458 0
M  V30 3717 N 341.441 0.965919 1.2453 0
M  V30 3718 C 342.371 0.513476 2.27784 0
M  V30 3719 C 343.352 -0.445974 1.6415 0
M  V30 3720 O 344.537 -0.342485 1.91156 0
M  V30 3721 C 341.667 -0.198839 3.4673 0
M  V30 3722 C 340.621 0.676456 4.2262 0
M  V30 3723 C 339.947 -0.167248 5.34438 0
M  V30 3724 C 341.247 1.96017 4.84123 0
M  V30 3725 H 342.941 1.3765 2.65881 0
M  V30 3726 H 340.487 0.663321 1.27813 0
M  V30 3727 H 342.44 -0.526567 4.18097 0
M  V30 3728 H 341.164 -1.0962 3.07654 0
M  V30 3729 H 339.823 0.98743 3.53052 0
M  V30 3730 H 339.471 -1.0647 4.91603 0
M  V30 3731 H 339.171 0.415181 5.86131 0
M  V30 3732 H 340.695 -0.489688 6.08633 0
M  V30 3733 H 342.109 1.69814 5.47573 0
M  V30 3734 H 340.506 2.48918 5.4604 0
M  V30 3735 H 341.576 2.65622 4.05676 0
M  V30 3736 N 342.919 -1.39368 0.735821 0
M  V30 3737 C 343.852 -2.28155 0.0451175 0
M  V30 3738 C 344.83 -1.44433 -0.746852 0
M  V30 3739 O 346.014 -1.73823 -0.729237 0
M  V30 3740 C 343.141 -3.253 -0.943266 0
M  V30 3741 C 342.187 -4.25826 -0.239685 0
M  V30 3742 S 343.02 -5.25166 1.04693 0
M  V30 3743 C 344.176 -6.2587 0.0611639 0
M  V30 3744 H 344.409 -2.86388 0.79807 0
M  V30 3745 H 341.942 -1.45104 0.527653 0
M  V30 3746 H 343.9 -3.81789 -1.50824 0
M  V30 3747 H 342.561 -2.66085 -1.66906 0
M  V30 3748 H 341.754 -4.94229 -0.987596 0
M  V30 3749 H 341.356 -3.73141 0.253274 0
M  V30 3750 H 343.648 -6.73007 -0.778941 0
M  V30 3751 H 344.591 -7.04508 0.712362 0
M  V30 3752 H 344.999 -5.63639 -0.311602 0
M  V30 3753 N 344.397 -0.483516 -1.5 0
M  V30 3754 C 345.808 -0.0314176 -1.86674 0
M  V30 3755 C 346.159 1.37728 -1.39733 0
M  V30 3756 O 345.284 2.02327 -0.767635 0
M  V30 3757 C 345.879 -0.0502376 -3.38763 0
M  V30 3758 C 344.438 0.346442 -3.74802 0
M  V30 3759 C 343.585 -0.430366 -2.7394 0
M  V30 3760 H 346.536 -0.697182 -1.42566 0
M  V30 3761 H 346.557 0.749116 -3.73053 0
M  V30 3762 H 346.069 -1.07563 -3.72897 0
M  V30 3763 H 344.17 1.37572 -3.46273 0
M  V30 3764 H 344.283 0.0391486 -4.79084 0
M  V30 3765 H 342.647 0.117557 -2.54429 0
M  V30 3766 H 343.43 -1.4555 -3.10918 0
M  V30 3767 N 345.875 1.56104 -0.216619 0
M  V30 3768 C 347.1 2.0301 0.424462 0
M  V30 3769 C 347.525 1.0955 1.52907 0
M  V30 3770 O 346.883 0.0827914 1.81111 0
M  V30 3771 C 346.931 3.4819 0.937883 0
M  V30 3772 O 346.035 3.57865 2.04955 0
M  V30 3773 H 345.376 0.656925 0.0966755 0
M  V30 3774 H 347.906 2.01859 -0.33381 0
M  V30 3775 H 347.916 3.88413 1.24897 0
M  V30 3776 H 346.591 4.15699 0.129387 0
M  V30 3777 H 345.168 3.29527 1.74546 0
M  V30 3778 N 347.353 -0.0568162 1.57498 0
M  V30 3779 C 348.602 -0.752001 1.87157 0
M  V30 3780 C 348.915 -1.77978 0.811375 0
M  V30 3781 O 350.121 -2.52559 0.996293 0
M  V30 3782 C 348.577 -1.38844 3.3204 0
M  V30 3783 C 348.185 -0.398456 4.46225 0
M  V30 3784 C 349.929 -2.06512 3.70882 0
M  V30 3785 C 347.836 -1.04166 5.82154 0
M  V30 3786 H 346.766 -0.28461 0.698222 0
M  V30 3787 H 349.417 -0.00561272 1.83499 0
M  V30 3788 H 347.799 -2.1836 3.30356 0
M  V30 3789 H 348.973 0.367977 4.59328 0
M  V30 3790 H 347.288 0.174592 4.16034 0
M  V30 3791 H 349.885 -2.55437 4.6974 0
M  V30 3792 H 350.228 -2.87117 3.01445 0
M  V30 3793 H 350.761 -1.33808 3.7462 0
M  V30 3794 H 347.5 -0.275614 6.5492 0
M  V30 3795 H 347.02 -1.7786 5.72823 0
M  V30 3796 H 348.699 -1.55715 6.27982 0
M  V30 3797 N 348.832 -1.54138 -0.328536 0
M  V30 3798 C 350.243 -1.63395 -0.903272 0
M  V30 3799 C 350.594 -0.524828 -1.8905 0
M  V30 3800 O 349.719 0.343068 -2.13663 0
M  V30 3801 C 350.314 -2.9618 -1.64507 0
M  V30 3802 C 348.873 -3.0765 -2.1686 0
M  V30 3803 C 348.02 -2.58933 -0.992416 0
M  V30 3804 H 350.971 -1.58344 -0.106253 0
M  V30 3805 H 350.992 -2.86061 -2.50897 0
M  V30 3806 H 350.504 -3.76884 -0.926302 0
M  V30 3807 H 348.605 -2.31611 -2.91868 0
M  V30 3808 H 348.718 -4.1337 -2.42202 0
M  V30 3809 H 347.082 -2.14706 -1.37016 0
M  V30 3810 H 347.865 -3.42089 -0.288041 0
M  V30 3811 N 350.31 0.590341 -1.46126 0
M  V30 3812 C 351.726 0.912917 -1.30912 0
M  V30 3813 C 351.926 1.99616 -0.274893 0
M  V30 3814 O 350.982 2.50397 0.325197 0
M  V30 3815 C 352.295 1.3375 -2.69317 0
M  V30 3816 C 353.843 1.45077 -2.77348 0
M  V30 3817 C 354.318 1.90904 -4.16317 0
M  V30 3818 N 355.809 1.9811 -4.18696 0
M  V30 3819 C 356.544 2.34828 -5.23109 0
M  V30 3820 N 356.04 2.70393 -6.37856 0
M  V30 3821 N 357.833 2.35317 -5.10473 0
M  V30 3822 H 349.984 -0.125358 -2.1203 0
M  V30 3823 H 352.247 0.00658481 -0.947977 0
M  V30 3824 H 351.953 0.615614 -3.4627 0
M  V30 3825 H 351.827 2.30058 -2.9892 0
M  V30 3826 H 354.214 2.16353 -2.00687 0
M  V30 3827 H 354.295 0.4704 -2.51438 0
M  V30 3828 H 353.939 1.20209 -4.9347 0
M  V30 3829 H 353.869 2.89886 -4.39629 0
M  V30 3830 H 356.36 1.73146 -3.359 0
M  V30 3831 H 356.673 2.97341 -7.13308 0
M  V30 3832 H 355.018 2.68048 -6.41229 0
M  V30 3833 H 358.209 2.0695 -4.19868 0
M  V30 3834 H 358.382 2.63605 -5.9196 0
M  V30 3835 N 351.788 1.33704 0.83433 0
M  V30 3836 C 352.698 1.26382 1.97648 0
M  V30 3837 C 353.714 0.173548 1.73132 0
M  V30 3838 O 354.89 0.397962 1.97429 0
M  V30 3839 C 351.955 1.00769 3.31733 0
M  V30 3840 C 351.016 2.1884 3.69334 0
M  V30 3841 C 350.249 1.9444 4.9702 0
M  V30 3842 O 350.472 0.896961 5.63303 0
M  V30 3843 O 349.406 2.81093 5.32231 0
M  V30 3844 H 353.232 2.22444 2.06767 0
M  V30 3845 H 350.817 1.13795 0.968037 0
M  V30 3846 H 352.699 0.882186 4.12062 0
M  V30 3847 H 351.374 0.0773783 3.23608 0
M  V30 3848 H 350.281 2.36946 2.89495 0
M  V30 3849 H 351.614 3.10221 3.82131 0
M  V30 3850 N 353.266 -1.05314 1.17247 0
M  V30 3851 C 354.494 -1.81971 0.984593 0
M  V30 3852 C 354.909 -1.82929 -0.467166 0
M  V30 3853 O 354.266 -1.25564 -1.32438 0
M  V30 3854 C 354.317 -3.28143 1.51672 0
M  V30 3855 O 354.038 -3.27347 2.91163 0
M  V30 3856 C 355.539 -4.21493 1.37326 0
M  V30 3857 H 352.759 -0.573455 0.348411 0
M  V30 3858 H 355.303 -1.32808 1.55506 0
M  V30 3859 H 353.458 -3.74582 0.988302 0
M  V30 3860 H 353.872 -4.18824 3.15732 0
M  V30 3861 H 355.346 -5.22043 1.79375 0
M  V30 3862 H 355.823 -4.38031 0.320169 0
M  V30 3863 H 356.429 -3.80909 1.89178 0
M  V30 3864 N 354.744 -0.972509 -1.24016 0
M  V30 3865 C 355.969 -0.654417 -1.96805 0
M  V30 3866 C 356.394 0.770398 -1.716 0
M  V30 3867 O 355.752 1.52361 -0.982647 0
M  V30 3868 C 355.8 -0.941031 -3.48105 0
M  V30 3869 O 354.904 -0.0289472 -4.1239 0
M  V30 3870 H 354.245 -0.24692 -0.616382 0
M  V30 3871 H 356.775 -1.30396 -1.57664 0
M  V30 3872 H 356.785 -0.87452 -3.98517 0
M  V30 3873 H 355.46 -1.97939 -3.65777 0
M  V30 3874 H 354.037 -0.149192 -3.72601 0
M  V30 3875 N 356.222 1.38976 -0.743202 0
M  V30 3876 C 357.633 1.83123 -0.363732 0
M  V30 3877 C 357.984 1.6205 1.10609 0
M  V30 3878 O 357.109 1.11606 1.854 0
M  V30 3879 C 357.704 3.32439 -0.653408 0
M  V30 3880 C 356.263 3.74974 -0.327338 0
M  V30 3881 C 355.41 2.61878 -0.911875 0
M  V30 3882 H 358.361 1.27852 -0.940191 0
M  V30 3883 H 358.382 3.80432 0.0720031 0
M  V30 3884 H 357.894 3.47745 -1.72323 0
M  V30 3885 H 355.995 3.65252 0.736314 0
M  V30 3886 H 356.108 4.72106 -0.815631 0
M  V30 3887 H 354.472 2.52448 -0.337944 0
M  V30 3888 H 355.255 2.79987 -1.98651 0
M  V30 3889 N 357.7 0.491464 1.49741 0
M  V30 3890 C 358.93 -0.0534375 2.06531 0
M  V30 3891 C 359.338 -1.32233 1.35318 0
M  V30 3892 O 358.681 -1.78781 0.422243 0
M  V30 3893 C 358.743 -0.387034 3.57411 0
M  V30 3894 C 358.407 0.782764 4.50246 0
M  V30 3895 C 359.404 1.67059 4.92329 0
M  V30 3896 C 357.089 0.978866 4.9267 0
M  V30 3897 C 359.083 2.73874 5.75562 0
M  V30 3898 C 356.77 2.05022 5.75682 0
M  V30 3899 C 357.768 2.92851 6.17031 0
M  V30 3900 O 357.456 3.98138 6.98385 0
M  V30 3901 H 357.188 0.0129324 0.675876 0
M  V30 3902 H 359.742 0.685238 1.93633 0
M  V30 3903 H 357.972 -1.17918 3.68283 0
M  V30 3904 H 359.661 -0.869419 3.96479 0
M  V30 3905 H 360.427 1.53086 4.60206 0
M  V30 3906 H 356.306 0.304646 4.59992 0
M  V30 3907 H 359.85 3.42458 6.07757 0
M  V30 3908 H 355.747 2.18993 6.07217 0
M  V30 3909 H 356.515 3.95374 7.16674 0
M  V30 3910 N 359.178 -1.55987 0.224894 0
M  V30 3911 C 360.108 -2.23426 -0.678457 0
M  V30 3912 C 361.089 -1.20709 -1.19847 0
M  V30 3913 O 362.274 -1.49304 -1.24186 0
M  V30 3914 C 359.404 -2.91676 -1.88527 0
M  V30 3915 C 358.358 -4.00893 -1.49896 0
M  V30 3916 C 357.684 -4.56455 -2.78483 0
M  V30 3917 C 358.984 -5.17769 -0.686461 0
M  V30 3918 H 360.678 -2.99175 -0.116173 0
M  V30 3919 H 358.224 -1.43897 -0.054436 0
M  V30 3920 H 360.177 -3.37547 -2.5227 0
M  V30 3921 H 358.901 -2.1338 -2.47258 0
M  V30 3922 H 357.56 -3.55758 -0.884985 0
M  V30 3923 H 357.208 -3.74886 -3.35365 0
M  V30 3924 H 356.908 -5.30169 -2.53368 0
M  V30 3925 H 358.432 -5.05047 -3.43162 0
M  V30 3926 H 359.846 -5.60001 -1.22767 0
M  V30 3927 H 358.243 -5.97735 -0.532259 0
M  V30 3928 H 359.313 -4.83932 0.306196 0
M  V30 3929 N 360.656 0.0484629 -1.57525 0
M  V30 3930 C 361.619 1.03956 -2.04269 0
M  V30 3931 C 362.619 1.30211 -0.943496 0
M  V30 3932 O 363.809 1.25539 -1.20771 0
M  V30 3933 C 360.941 2.37742 -2.44319 0
M  V30 3934 H 362.134 0.636182 -2.93075 0
M  V30 3935 H 359.687 0.294811 -1.53494 0
M  V30 3936 H 360.422 2.82866 -1.5861 0
M  V30 3937 H 360.207 2.20021 -3.24551 0
M  V30 3938 H 361.697 3.08936 -2.80978 0
M  V30 3939 N 362.134 1.5431 0.320358 0
M  V30 3940 C 363.082 1.84647 1.4145 0
M  V30 3941 C 364.076 0.718624 1.53402 0
M  V30 3942 O 365.282 0.902335 1.5575 0
M  V30 3943 H 361.657 0.585349 0.472091 0
M  V30 3944 H 363.628 2.7614 1.13089 0
M  V30 3945 C 362.377 2.09341 2.77617 0
M  V30 3946 H 361.7 2.9559 2.69196 0
M  V30 3947 H 363.14 2.3452 3.53237 0
M  V30 3948 C 361.599 0.885939 3.25043 0
M  V30 3949 O 362.129 0.0967891 4.01583 0
M  V30 3950 N 360.335 0.696682 2.82125 0
M  V30 3951 H 359.882 1.34006 2.2 0
M  V30 3952 H 359.84 -0.109712 3.14209 0
M  V30 3953 N 363.613 -0.582584 1.46437 0
M  V30 3954 C 364.543 -1.70187 1.59871 0
M  V30 3955 C 365.524 -1.64066 0.449042 0
M  V30 3956 O 366.709 -1.82081 0.6753 0
M  V30 3957 C 363.839 -3.08827 1.58881 0
M  V30 3958 C 362.793 -3.29779 2.72819 0
M  V30 3959 C 362.119 -4.68947 2.5689 0
M  V30 3960 C 363.419 -3.17601 4.1464 0
M  V30 3961 H 365.113 -1.592 2.53566 0
M  V30 3962 H 362.659 -0.764472 1.22032 0
M  V30 3963 H 364.612 -3.86951 1.66873 0
M  V30 3964 H 363.336 -3.20713 0.617306 0
M  V30 3965 H 361.995 -2.54054 2.64296 0
M  V30 3966 H 361.643 -4.77599 1.57823 0
M  V30 3967 H 361.343 -4.83919 3.33312 0
M  V30 3968 H 362.867 -5.4924 2.66773 0
M  V30 3969 H 364.281 -3.8557 4.24274 0
M  V30 3970 H 362.678 -3.44094 4.9165 0
M  V30 3971 H 363.748 -2.14681 4.34788 0
M  V30 3972 N 365.091 -1.34144 -0.827227 0
M  V30 3973 C 366.021 -1.28005 -1.95287 0
M  V30 3974 C 367.002 -0.158321 -1.69362 0
M  V30 3975 O 368.187 -0.349987 -1.9102 0
M  V30 3976 C 365.317 -1.03036 -3.31664 0
M  V30 3977 C 364.271 -2.11628 -3.72019 0
M  V30 3978 C 363.597 -1.71854 -5.0633 0
M  V30 3979 C 364.897 -3.53417 -3.8457 0
M  V30 3980 H 366.591 -2.22187 -2.00682 0
M  V30 3981 H 364.137 -1.0696 -0.964135 0
M  V30 3982 H 366.09 -0.973863 -4.09993 0
M  V30 3983 H 364.814 -0.0529391 -3.26557 0
M  V30 3984 H 363.473 -2.16339 -2.95961 0
M  V30 3985 H 363.121 -0.727841 -4.97706 0
M  V30 3986 H 362.821 -2.44531 -5.34302 0
M  V30 3987 H 364.345 -1.67692 -5.87122 0
M  V30 3988 H 365.759 -3.51142 -4.5318 0
M  V30 3989 H 364.156 -4.24679 -4.2399 0
M  V30 3990 H 365.226 -3.91072 -2.86689 0
M  V30 3991 N 366.569 1.04691 -1.17803 0
M  V30 3992 C 367.499 2.14494 -0.92275 0
M  V30 3993 C 368.48 1.69546 0.137179 0
M  V30 3994 O 369.665 1.94195 -0.0141108 0
M  V30 3995 C 366.795 3.44491 -0.440803 0
M  V30 3996 C 365.749 4.03031 -1.4405 0
M  V30 3997 C 365.075 5.28432 -0.81631 0
M  V30 3998 C 366.375 4.39932 -2.81527 0
M  V30 3999 H 368.069 2.36107 -1.84103 0
M  V30 4000 H 365.615 1.1347 -0.886599 0
M  V30 4001 H 367.568 4.2066 -0.249602 0
M  V30 4002 H 366.292 3.22546 0.513025 0
M  V30 4003 H 364.951 3.28937 -1.61853 0
M  V30 4004 H 364.599 5.02792 0.144511 0
M  V30 4005 H 364.299 5.68559 -1.48371 0
M  V30 4006 H 365.823 6.07284 -0.635496 0
M  V30 4007 H 367.237 5.07113 -2.67412 0
M  V30 4008 H 365.634 4.9109 -3.44892 0
M  V30 4009 H 366.704 3.50045 -3.35554 0
M  V30 4010 N 368.047 0.979072 1.23499 0
M  V30 4011 C 369.295 0.645941 1.91499 0
M  V30 4012 C 369.616 -0.822948 1.76784 0
M  V30 4013 O 368.886 -1.58854 1.14639 0
M  V30 4014 H 367.466 0.235919 0.708767 0
M  V30 4015 H 370.128 1.2426 1.50152 0
M  V30 4016 H 369.224 0.896411 2.9895 0
M  V30 4017 N 369.525 -1.3858 0.750561 0
M  V30 4018 C 370.455 -2.33102 0.136237 0
M  V30 4019 C 371.436 -1.54713 -0.706965 0
M  V30 4020 O 372.621 -1.83043 -0.648769 0
M  V30 4021 C 369.751 -3.38882 -0.760017 0
M  V30 4022 C 368.705 -4.27995 -0.0197785 0
M  V30 4023 C 368.031 -5.24605 -1.03408 0
M  V30 4024 C 369.331 -5.09554 1.14684 0
M  V30 4025 H 371.025 -2.84726 0.925822 0
M  V30 4026 H 368.571 -1.36898 0.446654 0
M  V30 4027 H 370.524 -4.0397 -1.19943 0
M  V30 4028 H 369.248 -2.85734 -1.58189 0
M  V30 4029 H 367.907 -3.64409 0.400184 0
M  V30 4030 H 367.555 -4.67746 -1.84994 0
M  V30 4031 H 367.255 -5.85081 -0.543464 0
M  V30 4032 H 368.779 -5.9257 -1.47288 0
M  V30 4033 H 370.193 -5.67899 0.785118 0
M  V30 4034 H 368.59 -5.7925 1.56812 0
M  V30 4035 H 369.66 -4.4347 1.96118 0
M  V30 4036 N 371.003 -0.499398 -1.49478 0
M  V30 4037 C 371.933 0.269244 -2.31943 0
M  V30 4038 C 372.914 0.964054 -1.40143 0
M  V30 4039 O 374.099 0.955767 -1.69052 0
M  V30 4040 C 371.229 1.33504 -3.20615 0
M  V30 4041 C 370.183 0.760202 -4.21195 0
M  V30 4042 C 369.509 1.9264 -4.98792 0
M  V30 4043 C 370.809 -0.247661 -5.21712 0
M  V30 4044 H 372.503 -0.419082 -2.96452 0
M  V30 4045 H 370.049 -0.202988 -1.42562 0
M  V30 4046 H 372.002 1.88048 -3.77115 0
M  V30 4047 H 370.726 2.05253 -2.54045 0
M  V30 4048 H 369.385 0.23653 -3.65836 0
M  V30 4049 H 369.033 2.63154 -4.28671 0
M  V30 4050 H 368.733 1.54785 -5.66847 0
M  V30 4051 H 370.257 2.4762 -5.58137 0
M  V30 4052 H 371.671 0.209579 -5.72917 0
M  V30 4053 H 370.068 -0.541962 -5.97648 0
M  V30 4054 H 371.138 -1.16409 -4.7072 0
M  V30 4055 N 372.481 1.55866 -0.233164 0
M  V30 4056 C 373.413 2.18099 0.704668 0
M  V30 4057 C 374.426 1.15334 1.14899 0
M  V30 4058 O 375.615 1.42262 1.07814 0
M  V30 4059 C 372.715 2.7592 1.96777 0
M  V30 4060 C 371.888 4.03969 1.67713 0
M  V30 4061 C 370.947 4.46242 2.78845 0
M  V30 4062 O 369.973 5.12903 2.46818 0
M  V30 4063 N 371.175 4.12886 4.08051 0
M  V30 4064 H 373.94 2.99205 0.172258 0
M  V30 4065 H 371.501 1.61815 -0.0525945 0
M  V30 4066 H 373.493 3.01165 2.70337 0
M  V30 4067 H 372.063 1.99051 2.41034 0
M  V30 4068 H 371.283 3.86459 0.777391 0
M  V30 4069 H 372.571 4.8748 1.4574 0
M  V30 4070 H 371.969 3.59342 4.3691 0
M  V30 4071 H 370.526 4.42997 4.78118 0
M  V30 4072 N 373.959 -0.0401083 1.57549 0
M  V30 4073 C 375.375 -0.395556 1.54621 0
M  V30 4074 C 375.575 -1.77281 0.957799 0
M  V30 4075 O 374.631 -2.45888 0.574031 0
M  V30 4076 C 375.944 -0.307535 2.99123 0
M  V30 4077 C 377.492 -0.385425 3.10618 0
M  V30 4078 C 377.967 -0.326973 4.56831 0
M  V30 4079 N 379.458 -0.386102 4.61588 0
M  V30 4080 C 380.193 -0.363591 5.72246 0
M  V30 4081 N 379.689 -0.29402 6.92176 0
M  V30 4082 N 381.482 -0.412503 5.60584 0
M  V30 4083 H 373.633 0.861325 1.94152 0
M  V30 4084 H 375.896 0.326445 0.890021 0
M  V30 4085 H 375.602 0.638461 3.45856 0
M  V30 4086 H 375.476 -1.10552 3.60636 0
M  V30 4087 H 377.863 -1.32185 2.63839 0
M  V30 4088 H 377.944 0.44171 2.51957 0
M  V30 4089 H 377.588 0.605738 5.04275 0
M  V30 4090 H 377.518 -1.17207 5.13391 0
M  V30 4091 H 380.009 -0.442832 3.75296 0
M  V30 4092 H 380.322 -0.28164 7.72287 0
M  V30 4093 H 378.667 -0.260232 6.94513 0
M  V30 4094 H 381.858 -0.464769 4.65787 0
M  V30 4095 H 382.031 -0.391492 6.46816 0
M  V30 4096 N 375.437 -1.54477 -0.31217 0
M  V30 4097 C 376.385 -1.85395 -1.40469 0
M  V30 4098 C 377.379 -0.726749 -1.53019 0
M  V30 4099 O 378.585 -0.910582 -1.55269 0
M  V30 4100 H 374.96 -0.587845 -0.46898 0
M  V30 4101 H 376.931 -2.76736 -1.11623 0
M  V30 4102 C 375.68 -2.10811 -2.76503 0
M  V30 4103 H 375.003 -2.97014 -2.67625 0
M  V30 4104 H 376.443 -2.3639 -3.51988 0
M  V30 4105 C 374.902 -0.903165 -3.24568 0
M  V30 4106 O 375.432 -0.118085 -4.01526 0
M  V30 4107 N 373.638 -0.711634 -2.81752 0
M  V30 4108 H 373.185 -1.35171 -2.19286 0
M  V30 4109 H 373.143 0.0930473 -3.14262 0
M  V30 4110 N 376.915 0.57481 -1.46744 0
M  V30 4111 C 377.847 1.69804 -1.53946 0
M  V30 4112 C 378.86 1.57098 -0.427106 0
M  V30 4113 O 380.049 1.64378 -0.695863 0
M  V30 4114 C 377.149 3.08125 -1.4111 0
M  V30 4115 C 376.322 3.46757 -2.66605 0
M  V30 4116 C 375.381 4.6417 -2.47855 0
M  V30 4117 O 374.407 4.69634 -3.21609 0
M  V30 4118 N 375.609 5.59553 -1.54534 0
M  V30 4119 H 378.374 1.64077 -2.50796 0
M  V30 4120 H 375.935 0.761 -1.429 0
M  V30 4121 H 377.927 3.84478 -1.26328 0
M  V30 4122 H 376.497 3.08175 -0.524109 0
M  V30 4123 H 375.717 2.6003 -2.96274 0
M  V30 4124 H 377.005 3.69337 -3.49954 0
M  V30 4125 H 376.403 5.57881 -0.937304 0
M  V30 4126 H 374.96 6.35304 -1.45711 0
M  V30 4127 N 378.394 1.34581 0.820102 0
M  V30 4128 C 379.341 1.2639 1.93117 0
M  V30 4129 C 380.311 0.138554 1.65521 0
M  V30 4130 O 381.496 0.320004 1.88097 0
M  V30 4131 C 378.636 1.02812 3.29429 0
M  V30 4132 C 377.749 2.24146 3.693 0
M  V30 4133 C 376.884 1.93829 4.94574 0
M  V30 4134 C 375.923 3.1129 5.27034 0
M  V30 4135 N 375.06 2.80838 6.43486 0
M  V30 4136 H 379.9 2.21408 1.99455 0
M  V30 4137 H 377.437 1.10077 0.975784 0
M  V30 4138 H 379.395 0.871788 4.0799 0
M  V30 4139 H 378.025 0.114612 3.22596 0
M  V30 4140 H 377.077 2.50691 2.86109 0
M  V30 4141 H 378.389 3.11899 3.89257 0
M  V30 4142 H 377.543 1.74948 5.80929 0
M  V30 4143 H 376.282 1.03341 4.76626 0
M  V30 4144 H 375.287 3.30764 4.39175 0
M  V30 4145 H 376.512 4.02561 5.4692 0
M  V30 4146 H 374.458 1.92929 6.26988 0
M  V30 4147 H 374.375 3.62123 6.63629 0
M  V30 4148 H 375.643 2.65467 7.32903 0
M  V30 4149 N 379.872 -1.04064 1.18357 0
M  V30 4150 C 381.149 -1.74252 0.888581 0
M  V30 4151 C 381.529 -2.02138 -0.60856 0
M  V30 4152 O 380.877 -1.66656 -1.56327 0
M  V30 4153 C 381.087 -3.0277 1.73584 0
M  V30 4154 C 382.435 -3.76506 1.96286 0
M  V30 4155 O 383.459 -3.12668 1.70637 0
M  V30 4156 O 382.318 -4.91243 2.39464 0
M  V30 4157 H 379.412 -0.758271 0.330082 0
M  V30 4158 H 381.958 -1.1013 1.2911 0
M  V30 4159 H 380.73 -2.78299 2.75073 0
M  V30 4160 H 380.353 -3.74631 1.33183 0
M  V30 4161 N 381.35 -0.985608 -1.22978 0
M  V30 4162 C 382.766 -0.695104 -1.43668 0
M  V30 4163 C 382.966 0.736866 -1.87543 0
M  V30 4164 O 382.022 1.50868 -2.02473 0
M  V30 4165 C 383.335 -1.69447 -2.48412 0
M  V30 4166 C 384.883 -1.70909 -2.62219 0
M  V30 4167 C 385.358 -2.6969 -3.70178 0
M  V30 4168 N 386.849 -2.6824 -3.77626 0
M  V30 4169 C 387.584 -3.41339 -4.60733 0
M  V30 4170 N 387.08 -4.24015 -5.4789 0
M  V30 4171 N 388.873 -3.30079 -4.54977 0
M  V30 4172 H 381.024 -1.91054 -0.928016 0
M  V30 4173 H 383.287 -0.823553 -0.469536 0
M  V30 4174 H 382.993 -2.7188 -2.23102 0
M  V30 4175 H 382.867 -1.48147 -3.46889 0
M  V30 4176 H 385.254 -0.691785 -2.86877 0
M  V30 4177 H 385.335 -1.96276 -1.6404 0
M  V30 4178 H 384.979 -3.71566 -3.46268 0
M  V30 4179 H 384.909 -2.41595 -4.67909 0
M  V30 4180 H 387.4 -2.08243 -3.15346 0
M  V30 4181 H 387.713 -4.76636 -6.08308 0
M  V30 4182 H 386.058 -4.28104 -5.47496 0
M  V30 4183 H 389.249 -2.64937 -3.85909 0
M  V30 4184 H 389.422 -3.87308 -5.19516 0
M  V30 4185 N 382.828 1.3818 -0.7579 0
M  V30 4186 C 383.761 2.28055 -0.0814093 0
M  V30 4187 C 384.739 1.45603 0.723779 0
M  V30 4188 O 385.923 1.74961 0.701491 0
M  V30 4189 C 383.05 3.2676 0.891394 0
M  V30 4190 C 382.096 4.26153 0.171909 0
M  V30 4191 S 382.929 5.23434 -1.13035 0
M  V30 4192 C 384.085 6.25694 -0.160727 0
M  V30 4193 H 384.318 2.85082 -0.84353 0
M  V30 4194 H 381.851 1.44246 -0.550671 0
M  V30 4195 H 383.809 3.8414 1.44731 0
M  V30 4196 H 382.47 2.68706 1.62652 0
M  V30 4197 H 381.663 4.95738 0.908843 0
M  V30 4198 H 381.265 3.72691 -0.312606 0
M  V30 4199 H 383.557 6.74161 0.671773 0
M  V30 4200 H 384.5 7.03285 -0.824353 0
M  V30 4201 H 384.908 5.64064 0.221892 0
M  V30 4202 N 384.306 0.507319 1.49211 0
M  V30 4203 C 385.583 -0.0982702 1.95353 0
M  V30 4204 C 385.963 -1.53516 1.449 0
M  V30 4205 O 385.311 -2.18594 0.66551 0
M  V30 4206 C 385.521 -0.00440283 3.49 0
M  V30 4207 C 386.869 -0.175147 4.24239 0
M  V30 4208 O 387.893 -0.0792891 3.56112 0
M  V30 4209 O 386.752 -0.37276 5.45227 0
M  V30 4210 H 383.846 -0.0918236 0.821887 0
M  V30 4211 H 386.392 0.570307 1.5983 0
M  V30 4212 H 385.164 0.997402 3.78375 0
M  V30 4213 H 384.787 -0.712845 3.91158 0
M  V30 4214 N 385.784 -1.5574 0.241426 0
M  V30 4215 C 387.031 -1.9881 -0.384836 0
M  V30 4216 C 387.359 -1.12947 -1.58346 0
M  V30 4217 O 386.614 -0.178993 -1.9488 0
M  V30 4218 C 386.913 -3.47308 -0.843317 0
M  V30 4219 C 386.579 -4.50223 0.246946 0
M  V30 4220 C 385.241 -4.78088 0.546399 0
M  V30 4221 C 387.593 -5.11841 0.983282 0
M  V30 4222 C 384.921 -5.64846 1.58636 0
M  V30 4223 C 387.273 -5.99727 2.01272 0
M  V30 4224 C 385.937 -6.25927 2.31888 0
M  V30 4225 H 385.207 -0.727496 -0.140821 0
M  V30 4226 H 387.854 -1.8831 0.348106 0
M  V30 4227 H 386.159 -3.55112 -1.65537 0
M  V30 4228 H 387.856 -3.78017 -1.33806 0
M  V30 4229 H 384.446 -4.286 0.00340639 0
M  V30 4230 H 388.63 -4.90366 0.765182 0
M  V30 4231 H 383.886 -5.83403 1.82896 0
M  V30 4232 H 388.06 -6.46517 2.58823 0
M  V30 4233 H 385.687 -6.92949 3.12611 0
M  V30 4234 N 387.262 0.0317525 -1.57568 0
M  V30 4235 C 388.172 1.05021 -2.0978 0
M  V30 4236 C 389.188 1.39809 -1.03583 0
M  V30 4237 O 390.364 1.49182 -1.35302 0
M  V30 4238 C 387.429 2.33301 -2.56459 0
M  V30 4239 C 386.49 2.0512 -3.77127 0
M  V30 4240 C 385.723 3.27283 -4.2157 0
M  V30 4241 O 385.946 4.37861 -3.65559 0
M  V30 4242 O 384.88 3.13141 -5.14029 0
M  V30 4243 H 388.706 0.636505 -2.96955 0
M  V30 4244 H 386.291 0.248559 -1.47318 0
M  V30 4245 H 388.173 3.08722 -2.86825 0
M  V30 4246 H 386.848 2.73973 -1.72397 0
M  V30 4247 H 385.755 1.27276 -3.51784 0
M  V30 4248 H 387.088 1.69305 -4.62165 0
M  V30 4249 N 388.74 1.54641 0.303973 0
M  V30 4250 C 389.703 1.84646 1.35789 0
M  V30 4251 C 390.703 0.7192 1.4382 0
M  V30 4252 O 391.893 0.987491 1.43507 0
M  V30 4253 C 389.025 2.02407 2.74307 0
M  V30 4254 H 390.218 2.78829 1.10429 0
M  V30 4255 H 387.771 1.46658 0.540487 0
M  V30 4256 H 388.506 1.10502 3.04893 0
M  V30 4257 H 388.291 2.84453 2.69868 0
M  V30 4258 H 389.781 2.27002 3.50514 0
M  V30 4259 N 390.218 -0.567019 1.47046 0
M  V30 4260 C 391.465 -1.32462 1.53167 0
M  V30 4261 C 391.793 -1.93571 0.189841 0
M  V30 4262 O 391.048 -1.77865 -0.816243 0
M  V30 4263 C 391.347 -2.4623 2.59047 0
M  V30 4264 C 391.013 -2.03014 4.02612 0
M  V30 4265 C 389.675 -1.90944 4.41694 0
M  V30 4266 C 392.027 -1.69895 4.92732 0
M  V30 4267 C 389.355 -1.44035 5.68745 0
M  V30 4268 C 391.707 -1.2446 6.20236 0
M  V30 4269 C 390.371 -1.10979 6.5821 0
M  V30 4270 H 389.641 -0.484713 0.560477 0
M  V30 4271 H 392.288 -0.636888 1.80599 0
M  V30 4272 H 390.593 -3.20517 2.25335 0
M  V30 4273 H 392.29 -3.04427 2.61008 0
M  V30 4274 H 388.88 -2.13348 3.71726 0
M  V30 4275 H 393.064 -1.78098 4.63244 0
M  V30 4276 H 388.32 -1.32254 5.96925 0
M  V30 4277 H 392.494 -0.978924 6.89485 0
M  V30 4278 H 390.121 -0.744078 7.5655 0
M  V30 4279 N 391.696 -1.35014 -0.812953 0
M  V30 4280 C 392.943 -1.27931 -1.56971 0
M  V30 4281 C 393.271 0.148034 -1.93936 0
M  V30 4282 O 392.526 1.11175 -1.61054 0
M  V30 4283 C 392.825 -2.12524 -2.87347 0
M  V30 4284 C 392.491 -3.61401 -2.6963 0
M  V30 4285 C 391.153 -4.01983 -2.64506 0
M  V30 4286 C 393.505 -4.55894 -2.52607 0
M  V30 4287 C 390.833 -5.35235 -2.40293 0
M  V30 4288 C 393.185 -5.89336 -2.29925 0
M  V30 4289 C 391.849 -6.2907 -2.23219 0
M  V30 4290 H 391.119 -0.468131 -0.574399 0
M  V30 4291 H 393.766 -1.66851 -0.939836 0
M  V30 4292 H 392.071 -1.66463 -3.54679 0
M  V30 4293 H 393.768 -2.04383 -3.45005 0
M  V30 4294 H 390.358 -3.29193 -2.74463 0
M  V30 4295 H 394.542 -4.25431 -2.55583 0
M  V30 4296 H 389.798 -5.65028 -2.33566 0
M  V30 4297 H 393.972 -6.62139 -2.15743 0
M  V30 4298 H 391.599 -7.32256 -2.04219 0
M  V30 4299 N 393.175 1.03435 -1.18907 0
M  V30 4300 C 394.4 1.80919 -1.01406 0
M  V30 4301 C 394.825 1.83055 0.432721 0
M  V30 4302 O 394.183 1.25252 1.31079 0
M  V30 4303 C 394.231 3.24091 -1.58105 0
M  V30 4304 O 393.335 4.04434 -0.806669 0
M  V30 4305 H 392.676 0.558709 -0.358803 0
M  V30 4306 H 395.206 1.30223 -1.57807 0
M  V30 4307 H 395.216 3.74853 -1.61087 0
M  V30 4308 H 393.891 3.21851 -2.6341 0
M  V30 4309 H 392.468 3.63091 -0.849666 0
M  V30 4310 N 394.653 0.992116 1.22453 0
M  V30 4311 C 395.603 0.512969 2.22155 0
M  V30 4312 C 396.587 -0.418416 1.55364 0
M  V30 4313 O 397.779 -0.245363 1.75291 0
M  V30 4314 C 394.908 -0.171822 3.4287 0
M  V30 4315 C 393.994 0.779822 4.16869 0
M  V30 4316 N 394.385 1.92734 4.6764 0
M  V30 4317 C 392.683 0.59554 4.42006 0
M  V30 4318 C 393.384 2.52458 5.24061 0
M  V30 4319 N 392.36 1.80735 5.12675 0
M  V30 4320 H 396.162 1.38817 2.5905 0
M  V30 4321 H 393.676 0.854277 1.38115 0
M  V30 4322 H 395.673 -0.532469 4.13486 0
M  V30 4323 H 394.333 -1.04317 3.07487 0
M  V30 4324 H 395.344 2.30816 4.63621 0
M  V30 4325 H 392.021 -0.229805 4.16867 0
M  V30 4326 H 393.411 3.49433 5.73887 0
M  V30 4327 N 396.131 -1.37776 0.765217 0
M  V30 4328 C 397.542 -1.82521 0.392819 0
M  V30 4329 C 397.893 -1.63789 -1.08017 0
M  V30 4330 O 397.018 -1.14542 -1.83601 0
M  V30 4331 C 397.613 -3.31358 0.706214 0
M  V30 4332 C 396.172 -3.74406 0.386952 0
M  V30 4333 C 395.319 -2.60394 0.953422 0
M  V30 4334 H 398.27 -1.2634 0.960412 0
M  V30 4335 H 398.291 -3.80498 -0.0114706 0
M  V30 4336 H 397.803 -3.44959 1.77833 0
M  V30 4337 H 395.904 -3.66377 -0.678112 0
M  V30 4338 H 396.017 -4.70749 0.890636 0
M  V30 4339 H 394.381 -2.51878 0.378064 0
M  V30 4340 H 395.164 -2.76791 2.03081 0
M  V30 4341 N 397.609 -0.515225 -1.4894 0
M  V30 4342 C 398.856 0.024215 -2.02486 0
M  V30 4343 C 399.184 1.35671 -1.39368 0
M  V30 4344 O 398.439 1.88566 -0.523574 0
M  V30 4345 C 398.738 0.210595 -3.56779 0
M  V30 4346 C 398.404 -1.04569 -4.38607 0
M  V30 4347 C 397.066 -1.39002 -4.60686 0
M  V30 4348 C 399.418 -1.88008 -4.86109 0
M  V30 4349 C 396.746 -2.568 -5.27514 0
M  V30 4350 C 399.098 -3.04972 -5.54234 0
M  V30 4351 C 397.762 -3.39768 -5.74555 0
M  V30 4352 H 397.032 0.00886088 -0.740947 0
M  V30 4353 H 399.679 -0.678263 -1.79086 0
M  V30 4354 H 397.984 0.99572 -3.78936 0
M  V30 4355 H 399.681 0.642659 -3.95817 0
M  V30 4356 H 396.271 -0.767497 -4.21672 0
M  V30 4357 H 400.455 -1.62719 -4.68867 0
M  V30 4358 H 395.711 -2.8398 -5.41447 0
M  V30 4359 H 399.885 -3.69943 -5.90013 0
M  V30 4360 H 397.512 -4.31148 -6.26112 0
M  V30 4361 N 399.087 1.5561 -0.249682 0
M  V30 4362 C 400.017 2.24477 0.642826 0
M  V30 4363 C 400.998 1.22601 1.17911 0
M  V30 4364 O 402.183 1.5126 1.21795 0
M  V30 4365 C 399.313 2.94638 1.83863 0
M  V30 4366 C 398.267 4.03227 1.435 0
M  V30 4367 C 397.593 4.60828 2.71186 0
M  V30 4368 C 398.893 5.18796 0.604002 0
M  V30 4369 H 400.587 2.99321 0.0685625 0
M  V30 4370 H 398.133 1.43965 0.0315363 0
M  V30 4371 H 400.086 3.41517 2.46868 0
M  V30 4372 H 398.81 2.17287 2.43832 0
M  V30 4373 H 397.469 3.57121 0.828275 0
M  V30 4374 H 397.117 3.80174 3.29358 0
M  V30 4375 H 396.817 5.34132 2.44901 0
M  V30 4376 H 398.341 5.10442 3.35084 0
M  V30 4377 H 399.755 5.61883 1.13842 0
M  V30 4378 H 398.152 5.98506 0.437097 0
M  V30 4379 H 399.222 4.83384 -0.383147 0
M  V30 4380 N 400.565 -0.0233959 1.57583 0
M  V30 4381 C 401.475 -1.03907 2.10334 0
M  V30 4382 C 402.491 -1.39257 1.04323 0
M  V30 4383 O 403.667 -1.48462 1.36091 0
M  V30 4384 C 400.732 -2.31938 2.57693 0
M  V30 4385 C 399.793 -2.03117 3.78209 0
M  V30 4386 C 399.026 -3.25043 4.233 0
M  V30 4387 O 399.249 -4.35916 3.67876 0
M  V30 4388 O 398.183 -3.10411 5.15683 0
M  V30 4389 H 402.009 -0.620748 2.97288 0
M  V30 4390 H 399.594 -0.240743 1.47448 0
M  V30 4391 H 401.476 -3.07196 2.88458 0
M  V30 4392 H 400.151 -2.73055 1.73847 0
M  V30 4393 H 399.058 -1.25408 3.52454 0
M  V30 4394 H 400.391 -1.66852 4.63056 0
M  V30 4395 N 402.043 -1.548 -0.295768 0
M  V30 4396 C 402.975 -1.82492 -1.3867 0
M  V30 4397 C 403.988 -0.708134 -1.46592 0
M  V30 4398 O 405.177 -0.985686 -1.48817 0
M  V30 4399 C 402.277 -1.95256 -2.76999 0
M  V30 4400 C 401.45 -3.25709 -2.91946 0
M  V30 4401 C 400.509 -3.28824 -4.10806 0
M  V30 4402 O 399.535 -4.02328 -4.02643 0
M  V30 4403 N 400.737 -2.5459 -5.21694 0
M  V30 4404 H 403.502 -2.76646 -1.15269 0
M  V30 4405 H 401.063 -1.54438 -0.485849 0
M  V30 4406 H 403.055 -1.94736 -3.54768 0
M  V30 4407 H 401.625 -1.08072 -2.93324 0
M  V30 4408 H 400.845 -3.38959 -2.01247 0
M  V30 4409 H 402.133 -4.11786 -2.98847 0
M  V30 4410 H 401.531 -1.94512 -5.31208 0
M  V30 4411 H 400.088 -2.59818 -5.97778 0
M  V30 4412 N 403.521 0.559213 -1.47345 0
M  V30 4413 C 404.769 1.31388 -1.53563 0
M  V30 4414 C 405.09 1.93985 -0.198678 0
M  V30 4415 O 404.36 1.79825 0.777167 0
M  V30 4416 H 402.94 0.487901 -0.565652 0
M  V30 4417 H 405.602 0.65315 -1.8363 0
M  V30 4418 H 404.698 2.10844 -2.30111 0
M  V30 4419 N 404.999 1.35443 0.805782 0
M  V30 4420 C 406.41 1.25768 1.37983 0
M  V30 4421 C 406.761 -0.10958 1.95894 0
M  V30 4422 O 405.886 -1.01056 1.91355 0
M  V30 4423 C 406.481 2.27727 2.5085 0
M  V30 4424 C 405.04 2.2179 3.04115 0
M  V30 4425 C 404.187 2.13393 1.77084 0
M  V30 4426 H 407.138 1.4656 0.608752 0
M  V30 4427 H 407.159 1.90422 3.29424 0
M  V30 4428 H 406.671 3.27227 2.08671 0
M  V30 4429 H 404.772 1.25703 3.50756 0
M  V30 4430 H 404.885 3.13788 3.62042 0
M  V30 4431 H 403.249 1.59384 1.98668 0
M  V30 4432 H 404.032 3.14755 1.37056 0
M  V30 4433 N 406.477 -1.02803 1.19454 0
M  V30 4434 C 407.723 -1.76478 0.999171 0
M  V30 4435 C 408.056 -1.88456 -0.468828 0
M  V30 4436 O 407.331 -1.40198 -1.34814 0
M  V30 4437 C 407.614 -3.19044 1.66981 0
M  V30 4438 C 407.467 -3.14932 3.21151 0
M  V30 4439 C 408.786 -4.17456 1.39349 0
M  V30 4440 H 405.905 -0.640614 0.364393 0
M  V30 4441 H 408.547 -1.20005 1.47305 0
M  V30 4442 H 406.697 -3.67263 1.2669 0
M  V30 4443 H 408.369 -2.74605 3.70661 0
M  V30 4444 H 406.612 -2.52625 3.52652 0
M  V30 4445 H 407.283 -4.1566 3.63223 0
M  V30 4446 H 409.759 -3.77842 1.74283 0
M  V30 4447 H 408.635 -5.154 1.88823 0
M  V30 4448 H 408.896 -4.40949 0.318813 0
M  V30 4449 N 407.956 -0.998596 -1.21925 0
M  V30 4450 C 408.903 -0.553621 -2.24062 0
M  V30 4451 C 409.873 0.416999 -1.6078 0
M  V30 4452 O 411.058 0.320482 -1.88089 0
M  V30 4453 C 408.198 0.119959 -3.44891 0
M  V30 4454 C 407.311 -0.893077 -4.22668 0
M  V30 4455 C 406.446 -0.192424 -5.30851 0
M  V30 4456 C 405.485 -1.19344 -6.00353 0
M  V30 4457 N 404.622 -0.520707 -7.00166 0
M  V30 4458 H 409.462 -1.4293 -2.61486 0
M  V30 4459 H 406.999 -0.715838 -1.28507 0
M  V30 4460 H 408.957 0.527459 -4.13852 0
M  V30 4461 H 407.587 0.959389 -3.08214 0
M  V30 4462 H 406.639 -1.41886 -3.52948 0
M  V30 4463 H 407.951 -1.65512 -4.70539 0
M  V30 4464 H 407.105 0.271515 -6.06092 0
M  V30 4465 H 405.844 0.602075 -4.83969 0
M  V30 4466 H 404.849 -1.66795 -5.23889 0
M  V30 4467 H 406.074 -1.98891 -6.49322 0
M  V30 4468 H 404.02 0.254252 -6.55507 0
M  V30 4469 H 403.937 -1.2211 -7.46073 0
M  V30 4470 H 405.205 -0.0797596 -7.79459 0
M  V30 4471 N 409.434 1.37368 -0.772513 0
M  V30 4472 C 410.381 2.30262 -0.157488 0
M  V30 4473 C 411.351 1.51137 0.688965 0
M  V30 4474 O 412.536 1.79704 0.641168 0
M  V30 4475 C 409.676 3.37611 0.715045 0
M  V30 4476 C 408.789 4.31746 -0.148098 0
M  V30 4477 C 407.924 5.26171 0.729213 0
M  V30 4478 C 406.963 6.11948 -0.136418 0
M  V30 4479 N 406.1 6.98613 0.698914 0
M  V30 4480 H 410.94 2.82277 -0.955179 0
M  V30 4481 H 408.477 1.38957 -0.482631 0
M  V30 4482 H 410.435 3.98479 1.23575 0
M  V30 4483 H 409.065 2.86959 1.47833 0
M  V30 4484 H 408.117 3.72178 -0.786613 0
M  V30 4485 H 409.429 4.92084 -0.81579 0
M  V30 4486 H 408.583 5.92247 1.31637 0
M  V30 4487 H 407.322 4.66246 1.43059 0
M  V30 4488 H 406.327 5.4485 -0.736102 0
M  V30 4489 H 407.552 6.73945 -0.835134 0
M  V30 4490 H 405.498 6.41215 1.38489 0
M  V30 4491 H 405.415 7.55948 0.0885358 0
M  V30 4492 H 406.683 7.69077 1.27044 0
M  V30 4493 N 410.912 0.523116 1.48665 0
M  V30 4494 C 412.137 -0.0117284 2.07397 0
M  V30 4495 C 412.562 -1.28031 1.37803 0
M  V30 4496 O 411.92 -1.75836 0.441762 0
M  V30 4497 C 411.968 -0.225786 3.59892 0
M  V30 4498 O 411.072 -1.29592 3.91509 0
M  V30 4499 H 410.413 0.0360673 0.66302 0
M  V30 4500 H 412.943 0.729066 1.9117 0
M  V30 4501 H 412.953 -0.450552 4.05505 0
M  V30 4502 H 411.628 0.700944 4.09951 0
M  V30 4503 H 410.205 -1.05436 3.57684 0
M  V30 4504 N 412.39 -1.55475 0.257931 0
M  V30 4505 C 413.63 -2.01112 -0.365129 0
M  V30 4506 C 413.994 -1.1423 -1.54323 0
M  V30 4507 O 415.195 -1.49371 -2.23477 0
M  V30 4508 C 413.466 -3.49353 -0.754117 0
M  V30 4509 S 415.025 -4.16992 -1.36614 0
M  V30 4510 H 411.843 -0.701737 -0.114397 0
M  V30 4511 H 414.445 -1.91855 0.375747 0
M  V30 4512 H 413.149 -4.10246 0.112441 0
M  V30 4513 H 412.68 -3.6256 -1.52689 0
M  V30 4514 H 414.695 -4.19191 -2.65505 0
M  V30 4515 N 413.868 0.0150385 -1.57593 0
M  V30 4516 C 415.279 0.559832 -1.78109 0
M  V30 4517 C 415.63 1.74814 -0.890756 0
M  V30 4518 O 414.755 2.16216 -0.0892482 0
M  V30 4519 C 415.35 1.02238 -3.23006 0
M  V30 4520 C 413.909 1.51258 -3.44671 0
M  V30 4521 C 413.056 0.456955 -2.73509 0
M  V30 4522 H 416.007 -0.211169 -1.57289 0
M  V30 4523 H 416.028 1.88912 -3.30292 0
M  V30 4524 H 415.54 0.157302 -3.87781 0
M  V30 4525 H 413.641 2.39905 -2.8509 0
M  V30 4526 H 413.754 1.55042 -4.5332 0
M  V30 4527 H 412.118 0.915196 -2.37689 0
M  V30 4528 H 412.901 -0.398896 -3.40975 0
M  V30 4529 N 415.346 1.54954 0.287554 0
M  V30 4530 C 416.592 1.75132 1.02257 0
M  V30 4531 C 416.925 0.542858 1.86458 0
M  V30 4532 O 416.2 -0.459856 1.88986 0
M  V30 4533 C 416.483 3.04812 1.91733 0
M  V30 4534 C 416.336 4.35985 1.10622 0
M  V30 4535 C 417.655 3.30438 2.90687 0
M  V30 4536 H 414.774 0.637194 0.370341 0
M  V30 4537 H 417.416 1.87678 0.296111 0
M  V30 4538 H 415.566 2.94247 2.53675 0
M  V30 4539 H 417.238 4.58487 0.508636 0
M  V30 4540 H 415.481 4.31865 0.409271 0
M  V30 4541 H 416.152 5.23017 1.76513 0
M  V30 4542 H 418.628 3.40701 2.38877 0
M  V30 4543 H 417.504 4.22467 3.50447 0
M  V30 4544 H 417.765 2.49377 3.65053 0
M  V30 4545 N 416.824 -0.551391 1.4764 0
M  V30 4546 C 418.235 -1.13349 1.48354 0
M  V30 4547 C 418.586 -1.94709 0.241432 0
M  V30 4548 O 417.711 -2.06306 -0.653205 0
M  V30 4549 C 418.306 -2.0623 2.68802 0
M  V30 4550 C 416.865 -2.597 2.72457 0
M  V30 4551 C 416.012 -1.36201 2.41546 0
M  V30 4552 H 418.963 -0.337698 1.55065 0
M  V30 4553 H 418.984 -2.90196 2.46103 0
M  V30 4554 H 418.496 -1.46987 3.59188 0
M  V30 4555 H 416.597 -3.22724 1.86225 0
M  V30 4556 H 416.71 -3.00296 3.73308 0
M  V30 4557 H 415.074 -1.67068 1.9225 0
M  V30 4558 H 415.857 -0.787425 3.34147 0
M  V30 4559 N 418.302 -1.35869 -0.798587 0
M  V30 4560 C 419.548 -1.2978 -1.55836 0
M  V30 4561 C 419.881 0.125322 -1.93795 0
M  V30 4562 O 419.156 1.07658 -1.61987 0
M  V30 4563 C 419.439 -2.21188 -2.84162 0
M  V30 4564 C 419.292 -3.72155 -2.52628 0
M  V30 4565 C 420.611 -2.11545 -3.85923 0
M  V30 4566 H 417.73 -0.472769 -0.565383 0
M  V30 4567 H 420.372 -1.66341 -0.918192 0
M  V30 4568 H 418.522 -1.90139 -3.38791 0
M  V30 4569 H 420.194 -4.13682 -2.04121 0
M  V30 4570 H 418.437 -3.92042 -1.85704 0
M  V30 4571 H 419.108 -4.31511 -3.44242 0
M  V30 4572 H 421.584 -2.38855 -3.40716 0
M  V30 4573 H 420.46 -2.77688 -4.73477 0
M  V30 4574 H 420.721 -1.09987 -4.282 0
M  V30 4575 N 419.78 1.02168 -1.19998 0
M  V30 4576 C 421.191 1.57135 -1.00825 0
M  V30 4577 C 421.542 1.91276 0.436818 0
M  V30 4578 O 420.667 1.71679 1.3174 0
M  V30 4579 C 421.262 2.85514 -1.82393 0
M  V30 4580 C 419.821 3.37027 -1.67601 0
M  V30 4581 C 418.968 2.10388 -1.80644 0
M  V30 4582 H 421.919 0.846106 -1.34264 0
M  V30 4583 H 421.94 3.56711 -1.32429 0
M  V30 4584 H 421.452 2.60634 -2.87561 0
M  V30 4585 H 419.553 3.66878 -0.650485 0
M  V30 4586 H 419.666 4.09572 -2.4857 0
M  V30 4587 H 418.03 2.22601 -1.23778 0
M  V30 4588 H 418.813 1.8794 -2.87286 0
M  V30 4589 N 421.258 1.00505 1.21394 0
M  V30 4590 C 422.191 0.51032 2.22421 0
M  V30 4591 C 423.169 -0.436 1.56645 0
M  V30 4592 O 424.353 -0.358709 1.85055 0
M  V30 4593 C 421.48 -0.258733 3.3771 0
M  V30 4594 C 420.526 0.635395 4.2174 0
M  V30 4595 S 421.359 2.09783 4.92698 0
M  V30 4596 C 422.515 1.33862 6.11418 0
M  V30 4597 H 422.748 1.36637 2.64041 0
M  V30 4598 H 420.281 0.812991 1.31262 0
M  V30 4599 H 422.239 -0.696372 4.0455 0
M  V30 4600 H 420.9 -1.0902 2.94573 0
M  V30 4601 H 420.093 0.0430189 5.03982 0
M  V30 4602 H 419.695 1.01031 3.60095 0
M  V30 4603 H 421.987 0.612541 6.74725 0
M  V30 4604 H 422.93 2.13675 6.75092 0
M  V30 4605 H 423.338 0.846568 5.58116 0
M  V30 4606 N 422.737 -1.36956 0.779787 0
M  V30 4607 C 423.967 -2.03459 0.358877 0
M  V30 4608 C 424.375 -1.58939 -1.02641 0
M  V30 4609 O 423.718 -0.769777 -1.66794 0
M  V30 4610 C 423.78 -3.5796 0.332393 0
M  V30 4611 C 423.444 -4.25644 1.66362 0
M  V30 4612 C 424.441 -4.49205 2.61746 0
M  V30 4613 C 422.126 -4.63313 1.94027 0
M  V30 4614 C 424.12 -5.09503 3.82996 0
M  V30 4615 C 421.807 -5.2333 3.15546 0
M  V30 4616 C 422.805 -5.46363 4.0985 0
M  V30 4617 O 422.493 -6.05122 5.29228 0
M  V30 4618 H 422.225 -0.659767 0.147254 0
M  V30 4619 H 424.779 -1.76111 1.05708 0
M  V30 4620 H 423.009 -3.84388 -0.422237 0
M  V30 4621 H 424.698 -4.05852 -0.0625389 0
M  V30 4622 H 425.464 -4.20508 2.41657 0
M  V30 4623 H 421.343 -4.44715 1.21448 0
M  V30 4624 H 424.887 -5.27397 4.56617 0
M  V30 4625 H 420.784 -5.51451 3.35517 0
M  V30 4626 H 421.552 -6.23595 5.30161 0
M  V30 4627 N 424.215 -0.530993 -1.48385 0
M  V30 4628 C 425.44 0.000729535 -2.074 0
M  V30 4629 C 425.865 1.27298 -1.3848 0
M  V30 4630 O 425.223 1.75599 -0.451081 0
M  V30 4631 C 425.271 0.206697 -3.60007 0
M  V30 4632 O 424.375 1.27514 -3.92191 0
M  V30 4633 H 423.716 -0.039583 -0.662819 0
M  V30 4634 H 426.246 -0.739194 -1.9078 0
M  V30 4635 H 426.256 0.42904 -4.05738 0
M  V30 4636 H 424.931 -0.722675 -4.09573 0
M  V30 4637 H 423.508 1.03537 -3.58238 0
M  V30 4638 N 425.693 1.55336 -0.266172 0
M  V30 4639 C 426.941 1.99003 0.35246 0
M  V30 4640 C 427.262 1.15591 1.57047 0
M  V30 4641 O 426.532 0.243268 1.94384 0
M  V30 4642 H 425.112 0.735025 0.133217 0
M  V30 4643 H 427.774 1.91367 -0.369434 0
M  V30 4644 H 426.87 3.05289 0.648453 0
M  V30 4645 N 427.171 -0.0066808 1.57599 0
M  V30 4646 C 428.396 -0.707738 1.94951 0
M  V30 4647 C 428.821 -1.66882 0.867868 0
M  V30 4648 O 428.179 -1.80457 -0.17458 0
M  V30 4649 C 428.227 -1.42162 3.31394 0
M  V30 4650 O 427.331 -2.53578 3.25226 0
M  V30 4651 H 426.672 -0.188752 0.636607 0
M  V30 4652 H 429.202 0.0445193 2.04552 0
M  V30 4653 H 429.212 -1.78655 3.66806 0
M  V30 4654 H 427.887 -0.716903 4.09675 0
M  V30 4655 H 426.464 -2.19463 3.01481 0
M  V30 4656 N 428.649 -1.55105 -0.279332 0
M  V30 4657 C 429.895 -1.75672 -1.01327 0
M  V30 4658 C 430.228 -0.552739 -1.86168 0
M  V30 4659 O 429.503 0.449827 -1.89227 0
M  V30 4660 C 429.786 -3.05825 -1.90114 0
M  V30 4661 C 429.639 -4.36565 -1.08309 0
M  V30 4662 C 430.958 -3.31975 -2.8893 0
M  V30 4663 H 428.077 -0.639149 -0.366957 0
M  V30 4664 H 430.719 -1.87833 -0.286154 0
M  V30 4665 H 428.869 -2.95588 -2.52111 0
M  V30 4666 H 430.541 -4.58751 -0.484314 0
M  V30 4667 H 428.784 -4.32076 -0.386362 0
M  V30 4668 H 429.455 -5.23946 -1.73737 0
M  V30 4669 H 431.931 -3.41963 -2.37067 0
M  V30 4670 H 430.807 -4.2432 -3.48201 0
M  V30 4671 H 431.068 -2.51309 -3.63725 0
M  V30 4672 N 430.127 0.543554 -1.4793 0
M  V30 4673 C 431.352 1.32995 -1.59145 0
M  V30 4674 C 431.777 1.86472 -0.246956 0
M  V30 4675 O 431.135 1.63696 0.779324 0
M  V30 4676 C 431.183 2.46623 -2.63077 0
M  V30 4677 O 430.287 3.49261 -2.19295 0
M  V30 4678 H 429.628 0.394472 -0.534124 0
M  V30 4679 H 432.158 0.655489 -1.93816 0
M  V30 4680 H 432.168 2.93001 -2.83926 0
M  V30 4681 H 430.843 2.07059 -3.60693 0
M  V30 4682 H 429.42 3.09094 -2.08603 0
M  V30 4683 N 431.605 1.3629 0.791371 0
M  V30 4684 C 432.853 1.30154 1.5461 0
M  V30 4685 C 433.174 -0.119409 1.94634 0
M  V30 4686 O 432.444 -1.05924 1.64794 0
M  V30 4687 H 431.024 0.478784 0.573389 0
M  V30 4688 H 433.686 1.70565 0.94306 0
M  V30 4689 H 432.782 1.92762 2.45457 0
M  V30 4690 N 433.083 -1.0153 1.20538 0
M  V30 4691 C 434.308 -1.79283 1.04271 0
M  V30 4692 C 434.733 -1.8372 -0.403544 0
M  V30 4693 O 434.091 -1.27321 -1.2907 0
M  V30 4694 C 434.139 -3.21535 1.63241 0
M  V30 4695 O 433.243 -4.03099 0.870908 0
M  V30 4696 H 432.584 -0.55293 0.367647 0
M  V30 4697 H 435.114 -1.27696 1.59859 0
M  V30 4698 H 435.124 -3.72243 1.6703 0
M  V30 4699 H 433.799 -3.1762 2.68497 0
M  V30 4700 H 432.376 -3.61693 0.907323 0
M  V30 4701 N 434.561 -1.01147 -1.20859 0
M  V30 4702 C 435.786 -0.716698 -1.94623 0
M  V30 4703 C 436.211 0.715415 -1.73964 0
M  V30 4704 O 435.569 1.49157 -1.03062 0
M  V30 4705 C 435.617 -1.0513 -3.44935 0
M  V30 4706 O 434.721 -0.160131 -4.12089 0
M  V30 4707 H 434.062 -0.266404 -0.608214 0
M  V30 4708 H 436.592 -1.35346 -1.53436 0
M  V30 4709 H 436.602 -1.00086 -3.95533 0
M  V30 4710 H 435.277 -2.09475 -3.59295 0
M  V30 4711 H 433.854 -0.267657 -3.71938 0
M  V30 4712 N 436.039 1.36541 -0.78704 0
M  V30 4713 C 437.279 2.01138 -0.363714 0
M  V30 4714 C 437.643 1.61114 1.04433 0
M  V30 4715 O 438.844 2.18285 1.56861 0
M  V30 4716 C 437.115 3.53603 -0.519582 0
M  V30 4717 S 438.674 4.38415 -0.183782 0
M  V30 4718 H 435.492 0.697263 -0.13909 0
M  V30 4719 H 438.094 1.66475 -1.02501 0
M  V30 4720 H 436.798 3.8022 -1.5447 0
M  V30 4721 H 436.329 3.93084 0.15773 0
M  V30 4722 H 438.344 4.85698 1.01547 0
M  V30 4723 N 437.518 0.538854 1.48102 0
M  V30 4724 C 438.766 0.00798599 2.02098 0
M  V30 4725 C 439.087 -1.33922 1.41739 0
M  V30 4726 O 438.357 -1.86932 0.585934 0
M  V30 4727 H 436.937 -3.62179e-05 0.747 0
M  V30 4728 H 439.599 0.7047 1.81714 0
M  V30 4729 H 438.695 -0.0937672 3.11959 0
M  V30 4730 N 438.996 -1.55193 0.274407 0
M  V30 4731 C 440.221 -2.04446 -0.348824 0
M  V30 4732 C 440.646 -1.15149 -1.48735 0
M  V30 4733 O 440.004 -0.149952 -1.80679 0
M  V30 4734 C 440.052 -3.51431 -0.808009 0
M  V30 4735 O 439.156 -3.65225 -1.91531 0
M  V30 4736 H 438.497 -0.66006 -0.0722276 0
M  V30 4737 H 441.027 -2.00481 0.408498 0
M  V30 4738 H 441.037 -3.92781 -1.10395 0
M  V30 4739 H 439.712 -4.15892 0.0249865 0
M  V30 4740 H 438.289 -3.35778 -1.62196 0
M  V30 4741 N 440.474 -0.00167713 -1.576 0
M  V30 4742 C 441.699 0.69739 -1.95323 0
M  V30 4743 C 442.124 1.6642 -0.876706 0
M  V30 4744 O 441.482 1.80548 0.165007 0
M  V30 4745 C 441.53 1.40403 -3.32144 0
M  V30 4746 O 440.634 2.5185 -3.26566 0
M  V30 4747 H 439.975 0.185373 -0.637599 0
M  V30 4748 H 442.505 -0.0553665 -2.04525 0
M  V30 4749 H 442.515 1.76707 -3.67748 0
M  V30 4750 H 441.19 0.695167 -4.10049 0
M  V30 4751 H 439.767 2.17861 -3.0264 0
M  V30 4752 N 441.952 1.55251 0.271103 0
M  V30 4753 C 443.363 1.66635 0.842007 0
M  V30 4754 C 443.714 0.594631 1.86972 0
M  V30 4755 O 442.839 -0.263532 2.14789 0
M  V30 4756 C 443.434 3.02082 1.53401 0
M  V30 4757 C 441.993 3.15487 2.05293 0
M  V30 4758 C 441.14 2.62438 0.895631 0
M  V30 4759 H 444.091 1.58629 0.0474117 0
M  V30 4760 H 444.112 2.95176 2.40107 0
M  V30 4761 H 443.624 3.80062 0.785786 0
M  V30 4762 H 441.725 2.42284 2.83071 0
M  V30 4763 H 441.838 4.22075 2.26693 0
M  V30 4764 H 440.202 2.19644 1.28953 0
M  V30 4765 H 440.985 3.42923 0.160878 0
M  V30 4766 N 443.43 -0.535701 1.48216 0
M  V30 4767 C 444.655 -1.32149 1.59848 0
M  V30 4768 C 445.08 -1.86338 0.256842 0
M  V30 4769 O 444.438 -1.64107 -0.770632 0
M  V30 4770 C 444.486 -2.45224 2.64381 0
M  V30 4771 O 443.59 -3.48093 2.21144 0
M  V30 4772 H 442.931 -0.391634 0.536208 0
M  V30 4773 H 445.461 -0.645202 1.94161 0
M  V30 4774 H 445.471 -2.91491 2.85476 0
M  V30 4775 H 444.146 -2.05143 3.61786 0
M  V30 4776 H 442.723 -3.07984 2.10239 0
M  V30 4777 N 444.908 -1.36708 -0.784132 0
M  V30 4778 C 446.148 -1.32618 -1.55537 0
M  V30 4779 C 446.512 0.0920681 -1.91779 0
M  V30 4780 O 447.713 0.257573 -2.67563 0
M  V30 4781 C 445.984 -2.22788 -2.79464 0
M  V30 4782 S 447.543 -2.36432 -3.69656 0
M  V30 4783 H 444.361 -0.470973 -0.53264 0
M  V30 4784 H 446.963 -1.72333 -0.92312 0
M  V30 4785 H 445.667 -3.24774 -2.50899 0
M  V30 4786 H 445.198 -1.84112 -3.47658 0
M  V30 4787 H 447.213 -1.56573 -4.7085 0
M  V30 4788 N 446.386 1.0089 -1.21074 0
M  V30 4789 C 447.802 1.2695 -0.967257 0
M  V30 4790 C 448.002 1.9846 0.348673 0
M  V30 4791 O 447.058 2.28459 1.0753 0
M  V30 4792 C 448.371 2.09697 -2.15517 0
M  V30 4793 C 449.919 2.22937 -2.197 0
M  V30 4794 C 450.394 3.09064 -3.37999 0
M  V30 4795 N 451.885 3.16653 -3.38061 0
M  V30 4796 C 452.62 3.8354 -4.26245 0
M  V30 4797 N 452.116 4.52488 -5.2462 0
M  V30 4798 N 453.909 3.80141 -4.14064 0
M  V30 4799 H 446.06 0.529005 -2.05707 0
M  V30 4800 H 448.323 0.296148 -0.900556 0
M  V30 4801 H 448.029 1.64497 -3.10859 0
M  V30 4802 H 447.903 3.10444 -2.14253 0
M  V30 4803 H 450.29 2.67357 -1.24916 0
M  V30 4804 H 450.371 1.21673 -2.2501 0
M  V30 4805 H 450.015 2.65347 -4.33074 0
M  V30 4806 H 449.945 4.10433 -3.29928 0
M  V30 4807 H 452.436 2.67566 -2.66865 0
M  V30 4808 H 452.749 5.01219 -5.88217 0
M  V30 4809 H 451.094 4.51288 -5.28549 0
M  V30 4810 H 454.285 3.25427 -3.36474 0
M  V30 4811 H 454.458 4.31992 -4.82998 0
M  V30 4812 N 447.864 1.01787 1.20321 0
M  V30 4813 C 449.111 0.707936 1.89722 0
M  V30 4814 C 449.439 -0.762535 1.78929 0
M  V30 4815 O 448.694 -1.56977 1.16861 0
M  V30 4816 C 448.993 1.09076 3.40349 0
M  V30 4817 C 448.659 2.55765 3.71342 0
M  V30 4818 C 447.321 2.95845 3.79511 0
M  V30 4819 C 449.673 3.50723 3.85542 0
M  V30 4820 C 447.001 4.2982 3.99339 0
M  V30 4821 C 449.353 4.84387 4.06881 0
M  V30 4822 C 448.017 5.24172 4.1328 0
M  V30 4823 H 447.287 0.259052 0.694243 0
M  V30 4824 H 449.934 1.27868 1.42555 0
M  V30 4825 H 448.239 0.438453 3.89339 0
M  V30 4826 H 449.936 0.828636 3.92345 0
M  V30 4827 H 446.526 2.2371 3.65584 0
M  V30 4828 H 450.71 3.20916 3.78585 0
M  V30 4829 H 445.966 4.60196 4.02529 0
M  V30 4830 H 450.14 5.57891 4.1681 0
M  V30 4831 H 447.767 6.27997 4.28396 0
M  V30 4832 N 449.342 -1.36122 0.79427 0
M  V30 4833 C 450.305 -2.28309 0.201889 0
M  V30 4834 C 451.305 -1.49041 -0.603603 0
M  V30 4835 O 452.495 -1.68964 -0.423888 0
M  V30 4836 C 449.627 -3.3321 -0.719978 0
M  V30 4837 H 450.82 -2.82208 1.01481 0
M  V30 4838 H 448.373 -1.45768 0.564037 0
M  V30 4839 H 449.108 -2.84475 -1.55706 0
M  V30 4840 H 448.893 -3.91835 -0.144266 0
M  V30 4841 H 450.383 -4.02044 -1.12916 0
M  V30 4842 N 450.82 -0.546701 -1.47814 0
M  V30 4843 C 452.045 -0.021268 -2.07389 0
M  V30 4844 C 452.47 1.25822 -1.39822 0
M  V30 4845 O 451.828 1.75111 -0.46968 0
M  V30 4846 C 451.876 0.168502 -3.60206 0
M  V30 4847 O 450.98 1.23347 -3.93522 0
M  V30 4848 H 450.321 -0.0466108 -0.662362 0
M  V30 4849 H 452.851 -0.759387 -1.89985 0
M  V30 4850 H 452.861 0.385982 -4.0617 0
M  V30 4851 H 451.536 -0.766075 -4.08784 0
M  V30 4852 H 450.113 0.997319 -3.59316 0
M  V30 4853 N 452.299 1.55045 -0.282633 0
M  V30 4854 C 453.71 1.85473 0.213655 0
M  V30 4855 C 454.061 1.20465 1.54863 0
M  V30 4856 O 453.186 0.495676 2.10647 0
M  V30 4857 C 453.781 3.36496 0.394445 0
M  V30 4858 C 452.34 3.67022 0.834961 0
M  V30 4859 C 451.487 2.77218 -0.0674081 0
M  V30 4860 H 454.438 1.50478 -0.504202 0
M  V30 4861 H 454.459 3.60007 1.23186 0
M  V30 4862 H 453.971 3.83782 -0.577326 0
M  V30 4863 H 452.072 3.25241 1.81794 0
M  V30 4864 H 452.185 4.74433 0.667075 0
M  V30 4865 H 450.549 2.5069 0.450196 0
M  V30 4866 H 451.332 3.2732 -1.0352 0
M  V30 4867 N 453.777 0.010035 1.57597 0
M  V30 4868 C 455.188 -0.531426 1.78977 0
M  V30 4869 C 455.539 -1.73375 0.918454 0
M  V30 4870 O 454.664 -2.16047 0.123635 0
M  V30 4871 C 455.259 -0.97086 3.24592 0
M  V30 4872 C 453.818 -1.45756 3.47033 0
M  V30 4873 C 452.965 -0.413384 2.74201 0
M  V30 4874 H 455.916 0.236166 1.56933 0
M  V30 4875 H 455.937 -1.83633 3.33255 0
M  V30 4876 H 455.449 -0.0955893 3.87982 0
M  V30 4877 H 453.55 -2.35339 2.88871 0
M  V30 4878 H 453.663 -1.4781 4.55729 0
M  V30 4879 H 452.027 -0.877266 2.39115 0
M  V30 4880 H 452.81 0.453092 3.40297 0
M  V30 4881 N 455.255 -1.55392 -0.262866 0
M  V30 4882 C 456.48 -1.80847 -1.01533 0
M  V30 4883 C 456.905 -0.584946 -1.78774 0
M  V30 4884 O 456.263 0.465701 -1.75217 0
M  V30 4885 C 456.311 -3.03866 -1.94159 0
M  V30 4886 O 455.415 -2.79662 -3.03089 0
M  V30 4887 H 454.756 -0.597441 -0.289759 0
M  V30 4888 H 457.286 -2.02553 -0.288698 0
M  V30 4889 H 457.296 -3.32872 -2.35924 0
M  V30 4890 H 455.971 -3.92564 -1.37354 0
M  V30 4891 H 454.548 -2.61781 -2.65566 0
M  V30 4892 N 456.733 0.527833 -1.48498 0
M  V30 4893 C 457.663 1.64136 -1.66077 0
M  V30 4894 C 458.644 1.62286 -0.509625 0
M  V30 4895 O 459.829 1.79449 -0.742413 0
M  V30 4896 C 456.959 3.02717 -1.70234 0
M  V30 4897 C 455.913 3.19426 -2.8487 0
M  V30 4898 C 455.239 4.5909 -2.74118 0
M  V30 4899 C 456.539 3.01993 -4.26142 0
M  V30 4900 H 458.233 1.4968 -2.593 0
M  V30 4901 H 455.779 0.718654 -1.24785 0
M  V30 4902 H 457.732 3.80491 -1.8112 0
M  V30 4903 H 456.456 3.18201 -0.735911 0
M  V30 4904 H 455.115 2.4407 -2.73542 0
M  V30 4905 H 454.763 4.71413 -1.7544 0
M  V30 4906 H 454.463 4.71214 -3.51042 0
M  V30 4907 H 455.987 5.3896 -2.86974 0
M  V30 4908 H 457.401 3.69558 -4.38292 0
M  V30 4909 H 455.798 3.2561 -5.04082 0
M  V30 4910 H 456.868 1.98396 -4.42456 0
M  V30 4911 N 458.211 1.37122 0.776871 0
M  V30 4912 C 459.622 1.28667 1.35284 0
M  V30 4913 C 459.973 -0.0680035 1.96082 0
M  V30 4914 O 459.098 -0.969743 1.93455 0
M  V30 4915 C 459.693 2.32997 2.45963 0
M  V30 4916 C 458.252 2.28191 2.99342 0
M  V30 4917 C 457.399 2.17101 1.72517 0
M  V30 4918 H 460.35 1.47819 0.577527 0
M  V30 4919 H 460.371 1.97366 3.2531 0
M  V30 4920 H 459.883 3.3158 2.01684 0
M  V30 4921 H 457.984 1.33115 3.4801 0
M  V30 4922 H 458.097 3.21397 3.55304 0
M  V30 4923 H 456.461 1.63562 1.95242 0
M  V30 4924 H 457.244 3.17591 1.30348 0
M  V30 4925 N 459.689 -1.00246 1.21608 0
M  V30 4926 C 460.966 -1.71336 0.943568 0
M  V30 4927 C 461.346 -2.03972 -0.543943 0
M  V30 4928 O 460.694 -1.71545 -1.50946 0
M  V30 4929 C 460.904 -2.97094 1.83128 0
M  V30 4930 C 462.252 -3.70071 2.08165 0
M  V30 4931 O 463.276 -3.07081 1.80498 0
M  V30 4932 O 462.135 -4.83376 2.54971 0
M  V30 4933 H 459.229 -0.747386 0.354039 0
M  V30 4934 H 461.775 -1.05967 1.32549 0
M  V30 4935 H 460.547 -2.69407 2.83788 0
M  V30 4936 H 460.17 -3.70204 1.45034 0
M  V30 4937 N 461.167 -1.02423 -1.1978 0
M  V30 4938 C 462.1 -0.545641 -2.21581 0
M  V30 4939 C 463.078 0.411024 -1.57319 0
M  V30 4940 O 464.262 0.329223 -1.85603 0
M  V30 4941 C 461.389 0.204973 -3.38079 0
M  V30 4942 C 460.435 -0.70241 -4.20676 0
M  V30 4943 S 461.268 -2.17595 -4.89298 0
M  V30 4944 C 462.424 -1.43572 -6.09211 0
M  V30 4945 H 462.657 -1.4082 -2.61834 0
M  V30 4946 H 460.19 -0.833771 -1.29952 0
M  V30 4947 H 462.148 0.631924 -4.05607 0
M  V30 4948 H 460.809 1.0432 -2.9627 0
M  V30 4949 H 460.002 -0.123193 -5.03849 0
M  V30 4950 H 459.604 -1.06747 -3.58442 0
M  V30 4951 H 461.896 -0.719806 -6.73665 0
M  V30 4952 H 462.839 -2.24388 -6.71607 0
M  V30 4953 H 463.247 -0.935252 -5.56699 0
M  V30 4954 N 462.645 1.35699 -0.801477 0
M  V30 4955 C 463.577 2.28598 -0.166028 0
M  V30 4956 C 464.59 1.50044 0.631721 0
M  V30 4957 O 465.779 1.72339 0.464921 0
M  V30 4958 C 462.879 3.29625 0.787451 0
M  V30 4959 C 462.052 4.37384 0.037171 0
M  V30 4960 C 461.111 5.183 0.908375 0
M  V30 4961 O 460.137 5.68053 0.361189 0
M  V30 4962 N 461.339 5.35912 2.23112 0
M  V30 4963 H 464.104 2.83771 -0.964071 0
M  V30 4964 H 461.665 1.47994 -0.656469 0
M  V30 4965 H 463.657 3.80648 1.37439 0
M  V30 4966 H 462.227 2.75004 1.48632 0
M  V30 4967 H 461.447 3.87364 -0.730935 0
M  V30 4968 H 462.735 5.0653 -0.480109 0
M  V30 4969 H 462.133 4.97125 2.69968 0
M  V30 4970 H 460.69 5.90133 2.76741 0
M  V30 4971 N 464.123 0.554532 1.47522 0
M  V30 4972 C 465.073 -0.215008 2.26984 0
M  V30 4973 C 466.057 -0.88774 1.34194 0
M  V30 4974 O 467.249 -0.786489 1.58567 0
M  V30 4975 C 464.378 -1.24604 3.19889 0
M  V30 4976 C 463.464 -0.576857 4.20159 0
M  V30 4977 N 463.855 0.351541 5.04577 0
M  V30 4978 C 462.153 -0.831104 4.38188 0
M  V30 4979 C 462.854 0.739995 5.76974 0
M  V30 4980 N 461.83 0.0954407 5.43516 0
M  V30 4981 H 465.632 0.498843 2.89636 0
M  V30 4982 H 463.146 0.374279 1.58028 0
M  V30 4983 H 465.143 -1.81128 3.75498 0
M  V30 4984 H 463.803 -1.96101 2.58794 0
M  V30 4985 H 464.814 0.725556 5.12792 0
M  V30 4986 H 461.491 -1.53479 3.88266 0
M  V30 4987 H 462.881 1.50271 6.5488 0
M  V30 4988 N 465.601 -1.54893 0.290851 0
M  V30 4989 C 466.85 -1.99111 -0.322113 0
M  V30 4990 C 467.163 -1.18283 -1.55784 0
M  V30 4991 O 468.369 -1.5272 -2.24475 0
M  V30 4992 C 466.825 -3.54442 -0.624438 0
M  V30 4993 C 466.433 -4.44066 0.592373 0
M  V30 4994 C 468.177 -4.07211 -1.19916 0
M  V30 4995 C 466.084 -5.90812 0.263762 0
M  V30 4996 H 465.014 -0.743712 -0.124133 0
M  V30 4997 H 467.665 -1.79132 0.39797 0
M  V30 4998 H 466.047 -3.70281 -1.40384 0
M  V30 4999 H 467.221 -4.39999 1.36886 0
M  V30 5000 H 465.536 -4.02015 1.08502 0
M  V30 5001 H 468.133 -5.14407 -1.45909 0
M  V30 5002 H 468.476 -3.57196 -2.13815 0
M  V30 5003 H 469.009 -3.94873 -0.481687 0
M  V30 5004 H 465.748 -6.44955 1.17105 0
M  V30 5005 H 465.268 -5.97911 -0.475655 0
M  V30 5006 H 466.947 -6.46852 -0.138354 0
M  V30 5007 N 467.08 -0.0183926 -1.57589 0
M  V30 5008 C 468.012 0.995557 -2.06449 0
M  V30 5009 C 469.025 1.29556 -0.985849 0
M  V30 5010 O 470.214 1.2621 -1.26227 0
M  V30 5011 C 467.314 2.32572 -2.46502 0
M  V30 5012 C 466.487 2.21245 -3.77319 0
M  V30 5013 C 465.546 3.37104 -4.04039 0
M  V30 5014 O 464.572 3.14468 -4.74445 0
M  V30 5015 N 465.774 4.60553 -3.53372 0
M  V30 5016 H 468.539 0.578746 -2.94059 0
M  V30 5017 H 466.1 0.168603 -1.6102 0
M  V30 5018 H 468.092 3.08887 -2.61478 0
M  V30 5019 H 466.662 2.65931 -1.64315 0
M  V30 5020 H 465.882 1.29723 -3.72244 0
M  V30 5021 H 467.17 2.10868 -4.63047 0
M  V30 5022 H 466.568 4.81839 -2.96391 0
M  V30 5023 H 465.125 5.34072 -3.73644 0
M  V30 5024 N 468.558 1.5553 0.254621 0
M  V30 5025 C 469.468 1.92789 1.33677 0
M  V30 5026 C 470.484 0.827356 1.53071 0
M  V30 5027 O 471.66 1.12807 1.66843 0
M  V30 5028 C 468.725 2.20827 2.67275 0
M  V30 5029 C 467.786 3.4427 2.5647 0
M  V30 5030 C 467.019 3.70961 3.83697 0
M  V30 5031 O 467.242 2.99852 4.85227 0
M  V30 5032 O 466.176 4.64491 3.82794 0
M  V30 5033 H 470.002 2.84945 1.05071 0
M  V30 5034 H 467.587 1.42312 0.454723 0
M  V30 5035 H 469.469 2.40204 3.46237 0
M  V30 5036 H 468.144 1.31851 2.9563 0
M  V30 5037 H 467.051 3.30209 1.75821 0
M  V30 5038 H 468.384 4.33524 2.33062 0
M  V30 5039 N 470.036 -0.519951 1.48776 0
M  V30 5040 C 470.946 -1.65025 1.66745 0
M  V30 5041 C 471.962 -1.6508 0.549954 0
M  V30 5042 O 473.138 -1.83848 0.822295 0
M  V30 5043 C 470.203 -3.0146 1.71238 0
M  V30 5044 C 469.264 -3.12182 2.94688 0
M  V30 5045 C 468.497 -4.42109 2.98958 0
M  V30 5046 O 468.72 -5.29799 2.1135 0
M  V30 5047 O 467.654 -4.57406 3.91233 0
M  V30 5048 H 471.48 -1.52801 2.62461 0
M  V30 5049 H 469.065 -0.694157 1.32294 0
M  V30 5050 H 470.947 -3.82584 1.76657 0
M  V30 5051 H 469.622 -3.13988 0.786975 0
M  V30 5052 H 468.529 -2.30316 2.94797 0
M  V30 5053 H 469.862 -3.04574 3.86646 0
M  V30 5054 N 471.514 -1.37532 -0.769588 0
M  V30 5055 C 472.462 -1.33561 -1.90432 0
M  V30 5056 C 473.456 -0.224027 -1.67912 0
M  V30 5057 O 474.662 -0.392174 -1.75676 0
M  V30 5058 H 471.037 -0.416279 -0.626271 0
M  V30 5059 H 473.008 -2.29348 -1.90899 0
M  V30 5060 C 471.757 -1.16162 -3.27722 0
M  V30 5061 H 471.08 -2.00951 -3.45628 0
M  V30 5062 H 472.52 -1.17434 -4.07413 0
M  V30 5063 C 470.979 0.132583 -3.36639 0
M  V30 5064 O 471.509 1.11539 -3.85904 0
M  V30 5065 N 469.715 0.184013 -2.90017 0
M  V30 5066 H 469.262 -0.616415 -2.50116 0
M  V30 5067 H 469.22 1.04956 -2.96364 0
M  V30 5068 N 472.992 0.995999 -1.22138 0
M  V30 5069 C 473.922 2.10387 -1.01289 0
M  V30 5070 C 474.903 1.69975 0.0651454 0
M  V30 5071 O 476.088 1.9396 -0.0964628 0
M  V30 5072 C 473.218 3.42312 -0.586517 0
M  V30 5073 C 472.172 3.96558 -1.61014 0
M  V30 5074 C 471.498 5.24494 -1.0397 0
M  V30 5075 C 472.798 4.27595 -2.99933 0
M  V30 5076 H 474.492 2.28086 -1.93951 0
M  V30 5077 H 472.038 1.09607 -0.933928 0
M  V30 5078 H 473.991 4.19223 -0.427793 0
M  V30 5079 H 472.715 3.24431 0.375761 0
M  V30 5080 H 471.374 3.21776 -1.75658 0
M  V30 5081 H 471.022 5.02953 -0.0688703 0
M  V30 5082 H 470.722 5.61755 -1.72352 0
M  V30 5083 H 472.246 6.04042 -0.892494 0
M  V30 5084 H 473.66 4.95315 -2.8868 0
M  V30 5085 H 472.057 4.76021 -3.6541 0
M  V30 5086 H 473.127 3.35498 -3.50099 0
M  V30 5087 N 474.47 1.03057 1.19235 0
M  V30 5088 C 475.695 0.74757 1.93458 0
M  V30 5089 C 476.12 -0.687648 1.7508 0
M  V30 5090 O 475.478 -1.47499 1.05422 0
M  V30 5091 C 475.526 1.10604 3.43219 0
M  V30 5092 O 474.63 0.225671 4.11782 0
M  V30 5093 H 473.971 0.276047 0.603899 0
M  V30 5094 H 476.501 1.3777 1.51263 0
M  V30 5095 H 476.511 1.06366 3.93891 0
M  V30 5096 H 475.186 2.15165 3.55917 0
M  V30 5097 H 473.763 0.326795 3.71465 0
M  V30 5098 N 475.948 -1.35272 0.808662 0
M  V30 5099 C 477.173 -2.03477 0.401475 0
M  V30 5100 C 477.598 -1.60537 -0.980279 0
M  V30 5101 O 476.956 -0.78304 -1.63518 0
M  V30 5102 C 477.004 -3.57181 0.495354 0
M  V30 5103 O 476.108 -4.09474 -0.490397 0
M  V30 5104 H 475.449 -0.642561 0.167366 0
M  V30 5105 H 477.979 -1.72824 1.09512 0
M  V30 5106 H 477.989 -4.06356 0.365912 0
M  V30 5107 H 476.664 -3.87784 1.5032 0
M  V30 5108 H 475.241 -3.71516 -0.321023 0
M  V30 5109 N 477.426 -0.562348 -1.47226 0
M  V30 5110 C 478.837 -0.130325 -1.86245 0
M  V30 5111 C 479.188 1.30128 -1.46838 0
M  V30 5112 O 478.313 1.97974 -0.873805 0
M  V30 5113 C 478.908 -0.229738 -3.3802 0
M  V30 5114 C 477.467 0.14728 -3.76112 0
M  V30 5115 C 476.614 -0.574971 -2.71274 0
M  V30 5116 H 479.565 -0.771773 -1.3867 0
M  V30 5117 H 479.586 0.550316 -3.76499 0
M  V30 5118 H 479.098 -1.27178 -3.66671 0
M  V30 5119 H 477.199 1.19023 -3.53078 0
M  V30 5120 H 477.312 -0.214858 -4.78618 0
M  V30 5121 H 475.676 -0.0174756 -2.54694 0
M  V30 5122 H 476.459 -1.61827 -3.02766 0
M  V30 5123 N 478.904 1.54736 -0.299062 0
M  V30 5124 C 480.315 1.8569 0.193971 0
M  V30 5125 C 480.666 1.22101 1.53577 0
M  V30 5126 O 479.791 0.51799 2.10109 0
M  V30 5127 C 480.386 3.36895 0.358733 0
M  V30 5128 C 478.945 3.67887 0.795986 0
M  V30 5129 C 478.092 2.77131 -0.096807 0
M  V30 5130 H 481.043 1.49934 -0.520134 0
M  V30 5131 H 481.064 3.61294 1.19361 0
M  V30 5132 H 480.576 3.83148 -0.617998 0
M  V30 5133 H 478.677 3.27151 1.78334 0
M  V30 5134 H 478.79 4.75114 0.616718 0
M  V30 5135 H 477.154 2.51153 0.423581 0
M  V30 5136 H 477.937 3.26204 -1.06986 0
M  V30 5137 N 480.382 0.0267497 1.57577 0
M  V30 5138 C 481.312 -0.954308 2.13108 0
M  V30 5139 C 482.293 -1.34088 1.04663 0
M  V30 5140 O 483.478 -1.41992 1.32484 0
M  V30 5141 C 480.608 -2.23744 2.65624 0
M  V30 5142 C 479.562 -1.99168 3.78835 0
M  V30 5143 C 478.888 -3.33726 4.17769 0
M  V30 5144 C 480.188 -1.33277 5.0501 0
M  V30 5145 H 481.882 -0.491848 2.95332 0
M  V30 5146 H 479.428 -0.23514 1.42067 0
M  V30 5147 H 481.381 -2.92754 3.03106 0
M  V30 5148 H 480.105 -2.72151 1.80558 0
M  V30 5149 H 478.764 -1.32577 3.41788 0
M  V30 5150 H 478.412 -3.79888 3.29688 0
M  V30 5151 H 478.112 -3.18089 4.94058 0
M  V30 5152 H 479.636 -4.04008 4.57832 0
M  V30 5153 H 481.05 -1.92283 5.40093 0
M  V30 5154 H 479.447 -1.28045 5.8628 0
M  V30 5155 H 480.517 -0.305411 4.83937 0
M  V30 5156 N 481.861 -1.55662 -0.24637 0
M  V30 5157 C 483.109 -1.77168 -0.972411 0
M  V30 5158 C 483.43 -0.590827 -1.85834 0
M  V30 5159 O 482.7 0.393365 -1.9191 0
M  V30 5160 H 481.28 -0.653405 -0.362038 0
M  V30 5161 H 483.942 -1.93101 -0.264189 0
M  V30 5162 H 483.038 -2.68335 -1.59382 0
M  V30 5163 N 483.339 0.512053 -1.4905 0
M  V30 5164 C 484.75 1.09376 -1.51307 0
M  V30 5165 C 485.101 1.94 -0.292971 0
M  V30 5166 O 484.226 2.07965 0.598277 0
M  V30 5167 C 484.821 1.99031 -2.74176 0
M  V30 5168 C 483.38 2.52385 -2.79247 0
M  V30 5169 C 482.527 1.29749 -2.45073 0
M  V30 5170 H 485.478 0.296467 -1.55906 0
M  V30 5171 H 485.499 2.83569 -2.53711 0
M  V30 5172 H 485.011 1.37412 -3.62959 0
M  V30 5173 H 483.112 3.17673 -1.94716 0
M  V30 5174 H 483.225 2.90293 -3.81139 0
M  V30 5175 H 481.589 1.61912 -1.96612 0
M  V30 5176 H 482.372 0.698555 -3.36118 0
M  V30 5177 N 484.817 1.37938 0.762283 0
M  V30 5178 C 486.228 1.30094 1.33912 0
M  V30 5179 C 486.579 -0.0472026 1.96143 0
M  V30 5180 O 485.704 -0.94917 1.94473 0
M  V30 5181 C 486.299 2.35592 2.43478 0
M  V30 5182 C 484.858 2.31353 2.96905 0
M  V30 5183 C 484.005 2.18919 1.70205 0
M  V30 5184 H 486.956 1.48423 0.561816 0
M  V30 5185 H 486.977 2.00806 3.23199 0
M  V30 5186 H 486.489 3.33701 1.98155 0
M  V30 5187 H 484.59 1.36799 3.46579 0
M  V30 5188 H 484.703 3.25147 3.51875 0
M  V30 5189 H 483.067 1.65624 1.93496 0
M  V30 5190 H 483.85 3.18956 1.26973 0
M  V30 5191 N 486.295 -0.989507 1.22664 0
M  V30 5192 C 487.243 -2.10148 0.997035 0
M  V30 5193 C 488.237 -1.6929 -0.0609783 0
M  V30 5194 O 489.443 -1.79766 0.0917523 0
M  V30 5195 H 485.818 -0.687256 0.305259 0
M  V30 5196 H 487.789 -2.26685 1.94053 0
M  V30 5197 C 486.538 -3.4257 0.595085 0
M  V30 5198 H 485.861 -3.74453 1.40089 0
M  V30 5199 H 487.301 -4.21344 0.473869 0
M  V30 5200 C 485.76 -3.29638 -0.695725 0
M  V30 5201 O 486.29 -3.61709 -1.74727 0
M  V30 5202 N 484.496 -2.82814 -0.668173 0
M  V30 5203 H 484.043 -2.56914 0.18787 0
M  V30 5204 H 484.001 -2.74544 -1.5321 0
M  V30 5205 N 487.773 -1.03688 -1.18687 0
M  V30 5206 C 489.003 -0.756819 -1.92239 0
M  V30 5207 C 489.411 0.689374 -1.76194 0
M  V30 5208 O 488.754 1.48126 -1.08648 0
M  V30 5209 C 488.816 -1.03851 -3.44173 0
M  V30 5210 C 488.48 -2.47785 -3.83994 0
M  V30 5211 C 489.477 -3.4595 -3.88091 0
M  V30 5212 C 487.162 -2.82397 -4.154 0
M  V30 5213 C 489.156 -4.76779 -4.23038 0
M  V30 5214 C 486.843 -4.13433 -4.50018 0
M  V30 5215 C 487.841 -5.10434 -4.53813 0
M  V30 5216 O 487.529 -6.39122 -4.87625 0
M  V30 5217 H 487.261 -0.275678 -0.617234 0
M  V30 5218 H 489.815 -1.38658 -1.51536 0
M  V30 5219 H 488.045 -0.351612 -3.85098 0
M  V30 5220 H 489.734 -0.746846 -3.9897 0
M  V30 5221 H 490.5 -3.20549 -3.63969 0
M  V30 5222 H 486.379 -2.07568 -4.11627 0
M  V30 5223 H 489.923 -5.52488 -4.25914 0
M  V30 5224 H 485.82 -4.38604 -4.736 0
M  V30 5225 H 486.588 -6.43715 -5.05542 0
M  V30 5226 N 489.251 1.34841 -0.815825 0
M  V30 5227 C 490.181 2.32187 -0.247298 0
M  V30 5228 C 491.162 1.5791 0.632344 0
M  V30 5229 O 492.347 1.8593 0.560698 0
M  V30 5230 C 489.477 3.42122 0.597466 0
M  V30 5231 C 488.431 4.27602 -0.184446 0
M  V30 5232 C 487.757 5.28942 0.782609 0
M  V30 5233 C 489.057 5.03502 -1.38865 0
M  V30 5234 H 490.751 2.79985 -1.06061 0
M  V30 5235 H 488.297 1.34611 -0.511461 0
M  V30 5236 H 490.25 4.09232 1.00533 0
M  V30 5237 H 488.974 2.92956 1.44376 0
M  V30 5238 H 487.633 3.62085 -0.573592 0
M  V30 5239 H 487.281 4.7604 1.62466 0
M  V30 5240 H 486.981 5.87008 0.263695 0
M  V30 5241 H 488.505 5.98922 1.18848 0
M  V30 5242 H 489.919 5.63506 -1.05518 0
M  V30 5243 H 488.316 5.71108 -1.8427 0
M  V30 5244 H 489.386 4.33608 -2.17054 0
M  V30 5245 N 490.729 0.570148 1.46925 0
M  V30 5246 C 491.661 -0.207909 2.28255 0
M  V30 5247 C 492.674 -0.867301 1.37774 0
M  V30 5248 O 493.863 -0.738976 1.62485 0
M  V30 5249 C 490.963 -1.31298 3.12433 0
M  V30 5250 C 490.136 -0.747915 4.30958 0
M  V30 5251 C 489.195 -1.7391 4.9663 0
M  V30 5252 O 488.221 -1.2801 5.54619 0
M  V30 5253 N 489.423 -3.07288 4.92498 0
M  V30 5254 H 492.188 0.489794 2.95671 0
M  V30 5255 H 489.749 0.407076 1.56699 0
M  V30 5256 H 491.741 -1.97507 3.53232 0
M  V30 5257 H 490.311 -1.91373 2.47175 0
M  V30 5258 H 489.531 0.0913066 3.94094 0
M  V30 5259 H 490.819 -0.349958 5.07595 0
M  V30 5260 H 490.217 -3.47213 4.46609 0
M  V30 5261 H 488.774 -3.69021 5.37277 0
M  V30 5262 N 492.207 -1.54576 0.307264 0
M  V30 5263 C 493.453 -2.0056 -0.300612 0
M  V30 5264 C 493.786 -1.1953 -1.53057 0
M  V30 5265 O 493.061 -0.27337 -1.92569 0
M  V30 5266 C 493.344 -3.54167 -0.650987 0
M  V30 5267 C 493.197 -4.45933 0.588539 0
M  V30 5268 C 494.516 -4.14645 -1.47506 0
M  V30 5269 H 491.635 -0.729075 -0.107788 0
M  V30 5270 H 494.277 -1.85286 0.420606 0
M  V30 5271 H 492.427 -3.67313 -1.26544 0
M  V30 5272 H 494.099 -4.44683 1.22697 0
M  V30 5273 H 492.342 -4.16274 1.22058 0
M  V30 5274 H 493.013 -5.51189 0.299153 0
M  V30 5275 H 495.489 -4.04973 -0.955821 0
M  V30 5276 H 494.365 -5.22269 -1.68899 0
M  V30 5277 H 494.626 -3.66921 -2.4662 0
M  V30 5278 N 493.685 -0.035106 -1.57561 0
M  V30 5279 C 494.91 0.655802 -1.96759 0
M  V30 5280 C 495.335 1.64523 -0.911809 0
M  V30 5281 O 494.693 1.80857 0.126673 0
M  V30 5282 C 494.741 1.33326 -3.35047 0
M  V30 5283 O 493.845 2.44866 -3.31835 0
M  V30 5284 H 493.186 0.171807 -0.641388 0
M  V30 5285 H 495.716 -0.0987369 -2.04362 0
M  V30 5286 H 495.726 1.68867 -3.71413 0
M  V30 5287 H 494.401 0.608033 -4.11431 0
M  V30 5288 H 492.978 2.11392 -3.07193 0
M  V30 5289 N 495.163 1.55791 0.238111 0
M  V30 5290 C 496.11 1.9105 1.29493 0
M  V30 5291 C 497.08 0.765733 1.47397 0
M  V30 5292 O 498.265 1.02017 1.61236 0
M  V30 5293 C 495.405 2.21826 2.64362 0
M  V30 5294 C 494.518 3.49153 2.54394 0
M  V30 5295 C 493.653 3.69455 3.81676 0
M  V30 5296 C 492.692 4.90353 3.66361 0
M  V30 5297 N 491.829 5.07131 4.85554 0
M  V30 5298 H 496.669 2.81172 0.987233 0
M  V30 5299 H 494.206 1.39179 0.476203 0
M  V30 5300 H 496.164 2.37675 3.4288 0
M  V30 5301 H 494.794 1.34897 2.93262 0
M  V30 5302 H 493.846 3.41587 1.67399 0
M  V30 5303 H 495.158 4.37818 2.38991 0
M  V30 5304 H 494.312 3.85311 4.68636 0
M  V30 5305 H 493.051 2.7904 3.99985 0
M  V30 5306 H 492.056 4.74464 2.77784 0
M  V30 5307 H 493.281 5.82237 3.49538 0
M  V30 5308 H 491.227 4.19654 5.04209 0
M  V30 5309 H 491.144 5.89899 4.72816 0
M  V30 5310 H 492.412 5.27407 5.73988 0
M  V30 5311 N 496.642 -0.504142 1.49319 0
M  V30 5312 C 497.919 -1.26548 1.49147 0
M  V30 5313 C 498.299 -2.09977 0.21744 0
M  V30 5314 O 497.647 -2.14028 -0.800269 0
M  V30 5315 C 497.857 -2.12489 2.76857 0
M  V30 5316 C 499.205 -2.7178 3.26222 0
M  V30 5317 O 500.229 -2.22758 2.77952 0
M  V30 5318 O 499.088 -3.61015 4.10281 0
M  V30 5319 H 496.182 -0.572495 0.596806 0
M  V30 5320 H 498.728 -0.51867 1.61579 0
M  V30 5321 H 497.5 -1.50796 3.61077 0
M  V30 5322 H 497.123 -2.94368 2.6727 0
M  V30 5323 N 498.12 -1.38341 -0.754957 0
M  V30 5324 C 499.345 -1.37882 -1.5493 0
M  V30 5325 C 499.77 0.0296385 -1.88077 0
M  V30 5326 O 499.128 1.01133 -1.50472 0
M  V30 5327 C 499.176 -2.23996 -2.82592 0
M  V30 5328 O 498.28 -1.65612 -3.77686 0
M  V30 5329 H 497.621 -0.470384 -0.468652 0
M  V30 5330 H 500.151 -1.82084 -0.933082 0
M  V30 5331 H 500.161 -2.37806 -3.3153 0
M  V30 5332 H 498.836 -3.26365 -2.57796 0
M  V30 5333 H 497.413 -1.60936 -3.36384 0
M  V30 5334 N 499.598 0.982988 -1.23187 0
M  V30 5335 C 500.561 2.05649 -1.01198 0
M  V30 5336 C 501.561 1.6078 0.0252464 0
M  V30 5337 O 502.751 1.72878 -0.214243 0
M  V30 5338 C 499.883 3.36744 -0.530656 0
M  V30 5339 H 501.076 2.2659 -1.96461 0
M  V30 5340 H 498.629 1.15602 -1.05195 0
M  V30 5341 H 499.364 3.21492 0.425873 0
M  V30 5342 H 499.149 3.7065 -1.2791 0
M  V30 5343 H 500.639 4.15705 -0.397366 0
M  V30 5344 N 501.076 1.04316 1.18135 0
M  V30 5345 C 502.301 0.768047 1.92655 0
M  V30 5346 C 502.726 -0.66904 1.758 0
M  V30 5347 O 502.084 -1.46372 1.06981 0
M  V30 5348 C 502.132 1.14239 3.42026 0
M  V30 5349 O 501.236 0.269333 4.1152 0
M  V30 5350 H 500.577 0.282436 0.600937 0
M  V30 5351 H 503.107 1.39367 1.49793 0
M  V30 5352 H 503.117 1.10538 3.92741 0
M  V30 5353 H 501.792 2.18928 3.53615 0
M  V30 5354 H 500.369 0.366175 3.71098 0
M  V30 5355 N 502.554 -1.34406 0.822964 0
M  V30 5356 C 503.782 -2.02508 0.424039 0
M  V30 5357 C 504.197 -1.61975 -0.970022 0
M  V30 5358 O 503.554 -0.825228 -1.62777 0
M  V30 5359 C 503.605 -3.57789 0.516657 0
M  V30 5360 O 503.326 -3.96853 1.85577 0
M  V30 5361 C 504.827 -4.43157 0.112637 0
M  V30 5362 H 502.047 -0.649063 0.170173 0
M  V30 5363 H 504.591 -1.7168 1.11113 0
M  V30 5364 H 502.746 -3.87207 -0.122353 0
M  V30 5365 H 503.16 -4.91538 1.83005 0
M  V30 5366 H 504.634 -5.51527 0.228526 0
M  V30 5367 H 505.111 -4.28939 -0.943837 0
M  V30 5368 H 505.717 -4.19067 0.725449 0
M  V30 5369 N 504.032 -0.577932 -1.46621 0
M  V30 5370 C 505.257 -0.0652536 -2.07297 0
M  V30 5371 C 505.682 1.22828 -1.4246 0
M  V30 5372 O 505.04 1.74075 -0.506718 0
M  V30 5373 C 505.088 0.0920589 -3.60482 0
M  V30 5374 O 504.192 1.14972 -3.96049 0
M  V30 5375 H 503.533 -0.06065 -0.661224 0
M  V30 5376 H 506.063 -0.799515 -1.88332 0
M  V30 5377 H 506.073 0.299741 -4.06897 0
M  V30 5378 H 504.748 -0.852612 -4.07067 0
M  V30 5379 H 503.325 0.920879 -3.61351 0
M  V30 5380 N 505.51 1.54411 -0.315457 0
M  V30 5381 C 506.735 2.05299 0.294496 0
M  V30 5382 C 507.16 1.19052 1.4563 0
M  V30 5383 O 506.518 0.197804 1.80218 0
M  V30 5384 C 506.566 3.5345 0.714549 0
M  V30 5385 O 505.67 3.70175 1.81781 0
M  V30 5386 H 505.011 0.661743 0.0547019 0
M  V30 5387 H 507.541 1.99327 -0.461508 0
M  V30 5388 H 507.551 3.9557 0.999426 0
M  V30 5389 H 506.226 4.1568 -0.135244 0
M  V30 5390 H 504.803 3.3996 1.53236 0
M  V30 5391 N 506.988 0.0434614 1.5754 0
M  V30 5392 C 507.935 -0.93356 2.11077 0
M  V30 5393 C 508.905 -1.31383 1.01626 0
M  V30 5394 O 510.09 -1.40465 1.29129 0
M  V30 5395 C 507.23 -2.20578 2.65404 0
M  V30 5396 C 506.343 -1.88068 3.88914 0
M  V30 5397 C 505.478 -3.09691 4.31584 0
M  V30 5398 C 504.517 -2.73067 5.47815 0
M  V30 5399 N 503.654 -3.87359 5.85574 0
M  V30 5400 H 508.494 -0.470118 2.94268 0
M  V30 5401 H 506.031 -0.220434 1.45439 0
M  V30 5402 H 507.989 -2.95011 2.94999 0
M  V30 5403 H 506.619 -2.64513 1.85021 0
M  V30 5404 H 505.671 -1.03816 3.6596 0
M  V30 5405 H 506.983 -1.57104 4.73413 0
M  V30 5406 H 506.137 -3.92431 4.62691 0
M  V30 5407 H 504.876 -3.43827 3.45882 0
M  V30 5408 H 503.881 -1.88742 5.16388 0
M  V30 5409 H 505.106 -2.40131 6.35227 0
M  V30 5410 H 503.052 -4.21311 5.02825 0
M  V30 5411 H 502.969 -3.60068 6.64746 0
M  V30 5412 H 504.237 -4.70761 6.21292 0
M  V30 5413 N 508.466 -1.55915 -0.229846 0
M  V30 5414 C 509.414 -1.9258 -1.30444 0
M  V30 5415 C 510.408 -0.806839 -1.48951 0
M  V30 5416 O 511.614 -0.991606 -1.50224 0
M  V30 5417 H 507.989 -0.611878 -0.437161 0
M  V30 5418 H 509.96 -2.82264 -0.96797 0
M  V30 5419 C 508.709 -2.25171 -2.6494 0
M  V30 5420 H 508.032 -3.10782 -2.51504 0
M  V30 5421 H 509.472 -2.54716 -3.38963 0
M  V30 5422 C 507.931 -1.07394 -3.19324 0
M  V30 5423 O 508.461 -0.330759 -4.00336 0
M  V30 5424 N 506.667 -0.859984 -2.77584 0
M  V30 5425 H 506.214 -1.46605 -2.11813 0
M  V30 5426 H 506.172 -0.0736671 -3.14314 0
M  V30 5427 N 509.944 0.496216 -1.49584 0
M  V30 5428 C 511.169 1.27865 -1.63295 0
M  V30 5429 C 511.594 1.85592 -0.306156 0
M  V30 5430 O 510.952 1.66092 0.726851 0
M  V30 5431 C 511 2.38128 -2.7079 0
M  V30 5432 O 510.104 3.42108 -2.30296 0
M  V30 5433 H 509.445 0.377279 -0.546403 0
M  V30 5434 H 511.975 0.593497 -1.95803 0
M  V30 5435 H 511.985 2.8382 -2.93104 0
M  V30 5436 H 510.66 1.95479 -3.67098 0
M  V30 5437 H 509.237 3.02301 -2.18331 0
M  V30 5438 N 511.423 1.38739 0.74761 0
M  V30 5439 C 512.648 1.38702 1.54197 0
M  V30 5440 C 513.073 -0.019664 1.8809 0
M  V30 5441 O 512.431 -1.00333 1.51006 0
M  V30 5442 C 512.479 2.25492 2.814 0
M  V30 5443 O 511.583 1.67613 3.76802 0
M  V30 5444 H 510.924 0.472863 0.466151 0
M  V30 5445 H 513.454 1.82577 0.923413 0
M  V30 5446 H 513.464 2.39561 3.30264 0
M  V30 5447 H 512.139 3.27727 2.56062 0
M  V30 5448 H 510.716 1.62718 3.35526 0
M  V30 5449 N 512.901 -0.976442 1.23707 0
M  V30 5450 C 514.141 -1.73331 1.08332 0
M  V30 5451 C 514.505 -1.88346 -0.372781 0
M  V30 5452 O 515.706 -2.60877 -0.647813 0
M  V30 5453 C 513.977 -3.09159 1.7932 0
M  V30 5454 S 515.536 -4.00376 1.79567 0
M  V30 5455 H 512.354 -0.596045 0.387622 0
M  V30 5456 H 514.956 -1.16625 1.56904 0
M  V30 5457 H 513.66 -2.95884 2.84395 0
M  V30 5458 H 513.191 -3.70932 1.31046 0
M  V30 5459 H 515.206 -4.88742 0.857094 0
M  V30 5460 N 514.379 -1.04941 -1.1758 0
M  V30 5461 C 515.656 -0.671918 -1.83697 0
M  V30 5462 C 516.036 0.847929 -1.93322 0
M  V30 5463 O 515.384 1.75287 -1.46583 0
M  V30 5464 C 515.594 -1.35797 -3.21497 0
M  V30 5465 C 516.942 -1.4944 -3.97433 0
M  V30 5466 O 517.966 -1.31678 -3.30967 0
M  V30 5467 O 516.825 -1.78463 -5.1654 0
M  V30 5468 H 513.919 -0.236212 -0.792548 0
M  V30 5469 H 516.465 -1.14884 -1.24899 0
M  V30 5470 H 515.237 -2.39498 -3.09446 0
M  V30 5471 H 514.86 -0.870236 -3.8796 0
M  V30 5472 N 515.857 1.33968 -0.830081 0
M  V30 5473 C 517.085 2.0228 -0.434773 0
M  V30 5474 C 517.5 1.62487 0.961419 0
M  V30 5475 O 516.857 0.833849 1.62337 0
M  V30 5476 C 516.908 3.5751 -0.535625 0
M  V30 5477 O 516.629 3.95864 -1.87679 0
M  V30 5478 C 518.13 4.43091 -0.136137 0
M  V30 5479 H 515.35 0.648151 -0.173613 0
M  V30 5480 H 517.894 1.71089 -1.12022 0
M  V30 5481 H 516.049 3.87266 0.101817 0
M  V30 5482 H 516.463 4.9056 -1.85609 0
M  V30 5483 H 517.937 5.51398 -0.257772 0
M  V30 5484 H 518.414 4.29433 0.921076 0
M  V30 5485 H 519.02 4.18677 -0.747662 0
M  V30 5486 N 517.335 0.585699 1.46312 0
M  V30 5487 C 518.612 0.00542031 1.95599 0
M  V30 5488 C 518.992 -1.45619 1.52834 0
M  V30 5489 O 518.34 -2.14759 0.780446 0
M  V30 5490 C 518.55 0.180601 3.48532 0
M  V30 5491 C 519.898 0.049979 4.24571 0
M  V30 5492 O 520.922 0.109589 3.56031 0
M  V30 5493 O 519.781 -0.0832226 5.46437 0
M  V30 5494 H 516.875 -0.0481281 0.825598 0
M  V30 5495 H 519.421 0.654227 1.56582 0
M  V30 5496 H 518.193 1.19657 3.72556 0
M  V30 5497 H 517.816 -0.504498 3.94386 0
M  V30 5498 N 518.813 -1.54241 0.323641 0
M  V30 5499 C 520.09 -1.92741 -0.333181 0
M  V30 5500 C 520.47 -1.25326 -1.69872 0
M  V30 5501 O 519.818 -0.396991 -2.25025 0
M  V30 5502 C 520.028 -3.46399 -0.425322 0
M  V30 5503 C 521.376 -4.19029 -0.68557 0
M  V30 5504 O 522.4 -3.52555 -0.50824 0
M  V30 5505 O 521.259 -5.36751 -1.02767 0
M  V30 5506 H 518.353 -0.804811 -0.190286 0
M  V30 5507 H 520.899 -1.65542 0.373361 0
M  V30 5508 H 519.671 -3.87643 0.533737 0
M  V30 5509 H 519.294 -3.79704 -1.17944 0
M  V30 5510 N 520.291 -0.0518155 -1.57515 0
M  V30 5511 C 521.538 0.621823 -1.92716 0
M  V30 5512 C 521.866 1.70813 -0.930229 0
M  V30 5513 O 521.121 1.95616 0.0573708 0
M  V30 5514 C 521.42 1.25607 -3.34601 0
M  V30 5515 C 521.086 0.297901 -4.49915 0
M  V30 5516 C 519.748 0.034243 -4.81188 0
M  V30 5517 C 522.1 -0.358738 -5.19964 0
M  V30 5518 C 519.428 -0.893479 -5.79857 0
M  V30 5519 C 521.78 -1.27466 -6.19625 0
M  V30 5520 C 520.444 -1.54698 -6.49326 0
M  V30 5521 H 519.714 0.227541 -0.705199 0
M  V30 5522 H 522.361 -0.118432 -1.91133 0
M  V30 5523 H 520.666 2.07161 -3.32553 0
M  V30 5524 H 522.363 1.78424 -3.59118 0
M  V30 5525 H 518.953 0.513581 -4.25512 0
M  V30 5526 H 523.137 -0.168133 -4.96015 0
M  V30 5527 H 518.393 -1.11193 -6.01204 0
M  V30 5528 H 522.567 -1.78953 -6.73015 0
M  V30 5529 H 520.194 -2.26748 -7.25596 0
M  V30 5530 N 521.769 1.56035 0.221574 0
M  V30 5531 C 523.015 1.79312 0.947372 0
M  V30 5532 C 523.348 0.621453 1.83988 0
M  V30 5533 O 522.623 -0.379287 1.90766 0
M  V30 5534 C 522.906 3.1267 1.78633 0
M  V30 5535 C 522.759 4.40284 0.920312 0
M  V30 5536 C 524.078 3.4247 2.7641 0
M  V30 5537 H 521.197 0.652328 0.342982 0
M  V30 5538 H 523.839 1.88765 0.216244 0
M  V30 5539 H 521.989 3.04741 2.40967 0
M  V30 5540 H 523.661 4.60232 0.313718 0
M  V30 5541 H 521.904 4.33212 0.225734 0
M  V30 5542 H 522.575 5.30033 1.54171 0
M  V30 5543 H 525.051 3.50526 2.24211 0
M  V30 5544 H 523.927 4.3695 3.32213 0
M  V30 5545 H 524.188 2.64635 3.54148 0
M  V30 5546 N 523.247 -0.488276 1.49845 0
M  V30 5547 C 524.177 -1.59675 1.70371 0
M  V30 5548 C 525.158 -1.60878 0.552473 0
M  V30 5549 O 526.343 -1.77417 0.78973 0
M  V30 5550 C 523.473 -2.98098 1.782 0
M  V30 5551 C 522.427 -3.11761 2.93239 0
M  V30 5552 C 521.753 -4.51661 2.86193 0
M  V30 5553 C 523.053 -2.90589 4.33999 0
M  V30 5554 H 524.747 -1.42752 2.63177 0
M  V30 5555 H 522.293 -0.685317 1.26647 0
M  V30 5556 H 524.246 -3.75555 1.91144 0
M  V30 5557 H 522.97 -3.16138 0.820018 0
M  V30 5558 H 521.629 -2.36732 2.79917 0
M  V30 5559 H 521.277 -4.66595 1.87877 0
M  V30 5560 H 520.977 -4.61742 3.63412 0
M  V30 5561 H 522.501 -5.31162 3.01163 0
M  V30 5562 H 523.915 -3.57807 4.47936 0
M  V30 5563 H 522.312 -3.1213 5.12538 0
M  V30 5564 H 523.382 -1.86595 4.4756 0
M  V30 5565 N 524.725 -1.39134 -0.740242 0
M  V30 5566 C 525.971 -1.36273 -1.50192 0
M  V30 5567 C 526.304 0.0430136 -1.94152 0
M  V30 5568 O 525.579 1.00691 -1.66408 0
M  V30 5569 C 525.862 -2.33041 -2.74525 0
M  V30 5570 C 525.715 -3.82535 -2.36617 0
M  V30 5571 C 527.034 -2.27723 -3.76604 0
M  V30 5572 H 524.153 -0.496323 -0.544823 0
M  V30 5573 H 526.795 -1.70085 -0.846815 0
M  V30 5574 H 524.945 -2.04337 -3.30422 0
M  V30 5575 H 526.617 -4.21967 -1.86391 0
M  V30 5576 H 524.86 -3.99565 -1.68909 0
M  V30 5577 H 525.531 -4.45723 -3.2563 0
M  V30 5578 H 528.007 -2.53091 -3.30279 0
M  V30 5579 H 526.883 -2.97519 -4.61274 0
M  V30 5580 H 527.144 -1.28049 -4.2315 0
M  V30 5581 N 526.204 0.969867 -1.24223 0
M  V30 5582 C 527.615 1.52717 -1.07399 0
M  V30 5583 C 527.966 1.92956 0.355298 0
M  V30 5584 O 527.091 1.77112 1.2434 0
M  V30 5585 C 527.686 2.77521 -1.94339 0
M  V30 5586 C 526.245 3.29615 -1.81744 0
M  V30 5587 C 525.392 2.02537 -1.89405 0
M  V30 5588 H 528.343 0.788399 -1.37732 0
M  V30 5589 H 528.364 3.50773 -1.47439 0
M  V30 5590 H 527.876 2.48203 -2.98357 0
M  V30 5591 H 525.977 3.63789 -0.805505 0
M  V30 5592 H 526.09 3.98661 -2.65718 0
M  V30 5593 H 524.454 2.17151 -1.33108 0
M  V30 5594 H 525.237 1.75587 -2.94999 0
M  V30 5595 N 527.682 1.05563 1.17022 0
M  V30 5596 C 528.632 0.630007 2.19123 0
M  V30 5597 C 529.616 -0.335472 1.57364 0
M  V30 5598 O 530.808 -0.1521 1.76345 0
M  V30 5599 C 527.937 0.0101676 3.43298 0
M  V30 5600 C 527.023 0.999698 4.12149 0
M  V30 5601 N 527.414 2.17251 4.56766 0
M  V30 5602 C 525.712 0.829 4.38228 0
M  V30 5603 C 526.413 2.79883 5.09942 0
M  V30 5604 N 525.389 2.07656 5.02374 0
M  V30 5605 H 529.191 1.52353 2.51328 0
M  V30 5606 H 526.705 0.926288 1.33393 0
M  V30 5607 H 528.702 -0.312541 4.15727 0
M  V30 5608 H 527.362 -0.878707 3.12584 0
M  V30 5609 H 528.373 2.55067 4.50734 0
M  V30 5610 H 525.05 -0.00850974 4.17499 0
M  V30 5611 H 526.44 3.79362 5.54558 0
M  V30 5612 N 529.16 -1.33526 0.837174 0
M  V30 5613 C 530.108 -2.31168 0.257698 0
M  V30 5614 C 531.102 -1.5806 -0.609388 0
M  V30 5615 O 532.308 -1.72941 -0.499139 0
M  V30 5616 H 528.683 -0.74922 0.0646058 0
M  V30 5617 H 530.654 -2.77552 1.09578 0
M  V30 5618 C 529.403 -3.4326 -0.553887 0
M  V30 5619 H 528.726 -3.99665 0.104008 0
M  V30 5620 H 530.166 -4.13782 -0.925219 0
M  V30 5621 C 528.625 -2.88965 -1.73207 0
M  V30 5622 O 529.155 -2.85013 -2.83073 0
M  V30 5623 N 527.361 -2.45596 -1.55342 0
M  V30 5624 H 526.908 -2.49009 -0.659705 0
M  V30 5625 H 526.866 -2.0962 -2.34322 0
M  V30 5626 N 530.638 -0.59345 -1.46 0
M  V30 5627 C 531.887 -0.0808084 -2.01538 0
M  V30 5628 C 532.2 1.29112 -1.46934 0
M  V30 5629 O 533.406 1.8957 -1.94359 0
M  V30 5630 C 531.862 -0.0938311 -3.59778 0
M  V30 5631 C 531.47 -1.46474 -4.23379 0
M  V30 5632 C 533.214 0.364306 -4.22934 0
M  V30 5633 C 531.121 -1.4349 -5.73729 0
M  V30 5634 H 530.051 -0.0264407 -0.753536 0
M  V30 5635 H 532.702 -0.746689 -1.67621 0
M  V30 5636 H 531.084 0.638427 -3.9082 0
M  V30 5637 H 532.258 -2.21758 -4.03931 0
M  V30 5638 H 530.573 -1.86379 -3.7236 0
M  V30 5639 H 533.17 0.405584 -5.3316 0
M  V30 5640 H 533.513 1.38409 -3.92618 0
M  V30 5641 H 534.046 -0.31423 -3.96557 0
M  V30 5642 H 530.785 -2.43184 -6.08722 0
M  V30 5643 H 530.305 -0.724431 -5.95409 0
M  V30 5644 H 531.984 -1.15243 -6.36654 0
M  V30 5645 N 532.116 1.54067 -0.331816 0
M  V30 5646 C 533.341 2.05599 0.272705 0
M  V30 5647 C 533.766 1.2059 1.44359 0
M  V30 5648 O 533.124 0.216907 1.79998 0
M  V30 5649 C 533.172 3.54188 0.677021 0
M  V30 5650 O 532.276 3.72082 1.77844 0
M  V30 5651 H 531.617 0.662286 0.0476801 0
M  V30 5652 H 534.147 1.98826 -0.482624 0
M  V30 5653 H 534.157 3.96608 0.957415 0
M  V30 5654 H 532.832 4.15513 -0.179325 0
M  V30 5655 H 531.409 3.41566 1.49622 0
M  V30 5656 N 533.594 0.0601682 1.57485 0
M  V30 5657 C 534.819 -0.624416 1.97777 0
M  V30 5658 C 535.244 -1.63051 0.937867 0
M  V30 5659 O 534.602 -1.81036 -0.0978845 0
M  V30 5660 C 534.65 -1.27979 3.37126 0
M  V30 5661 O 533.754 -2.39556 3.35688 0
M  V30 5662 H 533.095 -0.161581 0.64404 0
M  V30 5663 H 535.625 0.131237 2.04179 0
M  V30 5664 H 535.635 -1.62937 3.74053 0
M  V30 5665 H 534.31 -0.542501 4.12347 0
M  V30 5666 H 532.887 -2.06478 3.10517 0
M  V30 5667 N 535.072 -1.5615 -0.213296 0
M  V30 5668 C 536.349 -1.70349 -0.961281 0
M  V30 5669 C 536.729 -0.609791 -2.02101 0
M  V30 5670 O 536.077 0.381987 -2.25285 0
M  V30 5671 C 536.287 -3.11982 -1.56424 0
M  V30 5672 C 537.635 -3.71649 -2.05334 0
M  V30 5673 O 538.659 -3.14995 -1.66302 0
M  V30 5674 O 537.518 -4.71038 -2.77102 0
M  V30 5675 H 534.612 -0.694121 -0.449582 0
M  V30 5676 H 537.158 -1.68464 -0.204426 0
M  V30 5677 H 535.93 -3.83046 -0.799457 0
M  V30 5678 H 535.553 -3.18019 -2.38641 0
M  V30 5679 N 536.55 0.480323 -1.50102 0
M  V30 5680 C 537.5 1.57685 -1.6468 0
M  V30 5681 C 538.484 1.52878 -0.5017 0
M  V30 5682 O 539.676 1.60058 -0.755668 0
M  V30 5683 C 536.805 2.96185 -1.73578 0
M  V30 5684 C 535.891 3.0591 -2.93734 0
M  V30 5685 N 536.282 2.85471 -4.1754 0
M  V30 5686 C 534.58 3.37036 -2.92101 0
M  V30 5687 C 535.281 2.99921 -4.9842 0
M  V30 5688 N 534.257 3.29715 -4.32191 0
M  V30 5689 H 538.059 1.40568 -2.58104 0
M  V30 5690 H 535.573 0.686874 -1.47159 0
M  V30 5691 H 537.57 3.75015 -1.82124 0
M  V30 5692 H 536.23 3.14356 -0.813057 0
M  V30 5693 H 537.241 2.61235 -4.47188 0
M  V30 5694 H 533.918 3.61253 -2.09291 0
M  V30 5695 H 535.308 2.88436 -6.06839 0
M  V30 5696 N 538.028 1.39524 0.732853 0
M  V30 5697 C 539.253 1.40329 1.52717 0
M  V30 5698 C 539.678 0.000286574 1.881 0
M  V30 5699 O 539.036 -0.987262 1.52062 0
M  V30 5700 C 539.084 2.28464 2.78992 0
M  V30 5701 O 538.188 1.716 3.75003 0
M  V30 5702 H 537.529 0.47778 0.461109 0
M  V30 5703 H 540.059 1.83546 0.903996 0
M  V30 5704 H 540.069 2.43051 3.27705 0
M  V30 5705 H 538.744 3.30425 2.52572 0
M  V30 5706 H 537.321 1.66267 3.33781 0
M  V30 5707 N 539.506 -0.963266 1.24736 0
M  V30 5708 C 540.746 -1.72172 1.10165 0
M  V30 5709 C 541.11 -1.88731 -0.352784 0
M  V30 5710 O 542.311 -2.61549 -0.620107 0
M  V30 5711 C 540.582 -3.0724 1.82589 0
M  V30 5712 S 542.141 -3.98449 1.83803 0
M  V30 5713 H 538.959 -0.591901 0.393922 0
M  V30 5714 H 541.561 -1.14955 1.58132 0
M  V30 5715 H 540.265 -2.92851 2.87518 0
M  V30 5716 H 539.796 -3.69521 1.34973 0
M  V30 5717 H 541.811 -4.87805 0.908883 0
M  V30 5718 N 540.985 -1.06182 -1.16461 0
M  V30 5719 C 542.262 -0.691364 -1.82974 0
M  V30 5720 C 542.642 0.827377 -1.9421 0
M  V30 5721 O 541.99 1.73723 -1.48434 0
M  V30 5722 C 542.2 -1.39199 -3.20038 0
M  V30 5723 C 543.548 -1.53647 -3.95825 0
M  V30 5724 O 544.572 -1.35181 -3.29552 0
M  V30 5725 O 543.431 -1.83932 -5.14618 0
M  V30 5726 H 540.525 -0.244605 -0.789998 0
M  V30 5727 H 543.071 -1.16203 -1.23673 0
M  V30 5728 H 541.843 -2.42766 -3.06888 0
M  V30 5729 H 541.466 -0.911335 -3.87015 0
M  V30 5730 N 542.463 1.3308 -0.844243 0
M  V30 5731 C 543.396 2.27075 -0.226279 0
M  V30 5732 C 544.374 1.49911 0.629716 0
M  V30 5733 O 545.558 1.79068 0.588803 0
M  V30 5734 C 542.685 3.31767 0.681782 0
M  V30 5735 C 541.731 4.26384 -0.0994565 0
M  V30 5736 S 542.564 5.15186 -1.46094 0
M  V30 5737 C 543.72 6.23405 -0.558319 0
M  V30 5738 H 543.953 2.79141 -1.02312 0
M  V30 5739 H 541.486 1.40452 -0.641292 0
M  V30 5740 H 543.444 3.92566 1.20008 0
M  V30 5741 H 542.105 2.78507 1.45234 0
M  V30 5742 H 541.298 5.00514 0.591733 0
M  V30 5743 H 540.9 3.69949 -0.548991 0
M  V30 5744 H 543.192 6.77069 0.241672 0
M  V30 5745 H 544.135 6.96619 -1.26995 0
M  V30 5746 H 544.543 5.64333 -0.13728 0
M  V30 5747 N 543.941 0.601185 1.45683 0
M  V30 5748 C 545.352 0.179659 1.85834 0
M  V30 5749 C 545.703 -1.26189 1.50236 0
M  V30 5750 O 544.828 -1.95587 0.925987 0
M  V30 5751 C 545.423 0.319277 3.37292 0
M  V30 5752 C 543.982 -0.0475092 3.7637 0
M  V30 5753 C 543.129 0.646692 2.69654 0
M  V30 5754 H 546.08 0.808268 1.36575 0
M  V30 5755 H 546.101 -0.4503 3.77826 0
M  V30 5756 H 545.613 1.36855 3.6317 0
M  V30 5757 H 543.714 -1.0962 3.5611 0
M  V30 5758 H 543.827 0.34168 4.7788 0
M  V30 5759 H 542.191 0.0849971 2.54558 0
M  V30 5760 H 542.974 1.69797 2.98369 0
M  V30 5761 N 545.419 -1.53889 0.339982 0
M  V30 5762 C 546.665 -2.01152 -0.258003 0
M  V30 5763 C 546.998 -1.22749 -1.50487 0
M  V30 5764 O 546.273 -0.314156 -1.91946 0
M  V30 5765 C 546.556 -3.55468 -0.575717 0
M  V30 5766 C 546.409 -4.44584 0.682996 0
M  V30 5767 C 547.728 -4.1768 -1.38677 0
M  V30 5768 H 544.847 -0.731198 -0.0922992 0
M  V30 5769 H 547.489 -1.84352 0.459814 0
M  V30 5770 H 545.639 -3.69914 -1.18725 0
M  V30 5771 H 547.311 -4.41981 1.32102 0
M  V30 5772 H 545.554 -4.13592 1.3086 0
M  V30 5773 H 546.225 -5.5043 0.416001 0
M  V30 5774 H 548.701 -4.0691 -0.869705 0
M  V30 5775 H 547.577 -5.25734 -1.57783 0
M  V30 5776 H 547.838 -3.72069 -2.38782 0
M  V30 5777 N 546.897 -0.0685191 -1.57451 0
M  V30 5778 C 548.145 0.60016 -1.92983 0
M  V30 5779 C 548.466 1.70348 -0.949028 0
M  V30 5780 O 547.736 1.959 0.00335647 0
M  V30 5781 H 546.316 0.224682 -0.712409 0
M  V30 5782 H 548.978 -0.125605 -1.94495 0
M  V30 5783 H 548.074 1.02759 -2.94698 0
M  V30 5784 N 548.375 1.56261 0.205012 0
M  V30 5785 C 549.603 1.84141 0.943386 0
M  V30 5786 C 550.018 0.649772 1.77266 0
M  V30 5787 O 549.375 -0.381612 1.78466 0
M  V30 5788 C 549.426 3.10719 1.84759 0
M  V30 5789 O 549.147 4.25286 1.05181 0
M  V30 5790 C 550.648 3.51706 2.69848 0
M  V30 5791 H 547.868 0.611734 0.275721 0
M  V30 5792 H 550.412 2.03364 0.215253 0
M  V30 5793 H 548.567 2.93422 2.52947 0
M  V30 5794 H 548.981 4.97301 1.66709 0
M  V30 5795 H 550.455 4.43266 3.28967 0
M  V30 5796 H 550.932 2.7423 3.43067 0
M  V30 5797 H 551.538 3.71499 2.07047 0
M  V30 5798 N 549.853 -0.472356 1.50355 0
M  V30 5799 C 550.816 -1.5529 1.68576 0
M  V30 5800 C 551.816 -1.50863 0.556511 0
M  V30 5801 O 553.006 -1.53505 0.823516 0
M  V30 5802 C 550.138 -2.94921 1.70981 0
M  V30 5803 H 551.331 -1.40451 2.64978 0
M  V30 5804 H 548.884 -0.698645 1.39816 0
M  V30 5805 H 549.619 -3.15204 0.762675 0
M  V30 5806 H 549.404 -2.99541 2.53017 0
M  V30 5807 H 550.894 -3.73372 1.87037 0
M  V30 5808 N 551.331 -1.39911 -0.725443 0
M  V30 5809 C 552.579 -1.37382 -1.48224 0
M  V30 5810 C 552.9 0.0264107 -1.94982 0
M  V30 5811 O 552.17 0.979408 -1.6966 0
M  V30 5812 H 550.75 -0.505596 -0.549892 0
M  V30 5813 H 553.412 -1.7487 -0.860608 0
M  V30 5814 H 552.508 -2.04254 -2.3598 0
M  V30 5815 N 552.809 0.956637 -1.25245 0
M  V30 5816 C 554.225 1.22733 -1.02023 0
M  V30 5817 C 554.425 1.99761 0.264186 0
M  V30 5818 O 553.481 2.32814 0.977436 0
M  V30 5819 C 554.794 2.00367 -2.24217 0
M  V30 5820 C 556.342 2.13418 -2.28958 0
M  V30 5821 C 556.817 2.9445 -3.50803 0
M  V30 5822 N 558.308 3.02029 -3.51187 0
M  V30 5823 C 559.043 3.65116 -4.42129 0
M  V30 5824 N 558.539 4.2983 -5.43339 0
M  V30 5825 N 560.332 3.62237 -4.29815 0
M  V30 5826 H 552.483 0.441282 -2.07765 0
M  V30 5827 H 554.746 0.257686 -0.912306 0
M  V30 5828 H 554.452 1.51165 -3.17556 0
M  V30 5829 H 554.326 3.01077 -2.27228 0
M  V30 5830 H 556.713 2.61819 -1.36143 0
M  V30 5831 H 556.794 1.1202 -2.29968 0
M  V30 5832 H 556.438 2.46741 -4.43939 0
M  V30 5833 H 556.368 3.9607 -3.47039 0
M  V30 5834 H 558.859 2.56007 -2.77973 0
M  V30 5835 H 559.172 4.75819 -6.08947 0
M  V30 5836 H 557.517 4.28465 -5.47214 0
M  V30 5837 H 560.708 3.10863 -3.49974 0
M  V30 5838 H 560.881 4.11117 -5.00886 0
M  V30 5839 N 554.287 1.06798 1.15896 0
M  V30 5840 C 555.703 0.792423 1.38538 0
M  V30 5841 C 555.903 -0.60592 1.92174 0
M  V30 5842 O 554.959 -1.36561 2.12385 0
M  V30 5843 C 556.272 1.86157 2.36149 0
M  V30 5844 C 557.82 1.88567 2.49823 0
M  V30 5845 C 558.295 2.9455 3.5072 0
M  V30 5846 N 559.786 2.93616 3.58251 0
M  V30 5847 C 560.521 3.72267 4.36125 0
M  V30 5848 N 560.017 4.60751 5.17379 0
M  V30 5849 N 561.81 3.60637 4.31158 0
M  V30 5850 H 553.961 1.96993 0.794198 0
M  V30 5851 H 556.224 0.853942 0.411688 0
M  V30 5852 H 555.93 2.86603 2.03843 0
M  V30 5853 H 555.804 1.71692 3.3586 0
M  V30 5854 H 558.191 0.887765 2.8143 0
M  V30 5855 H 558.272 2.0711 1.5013 0
M  V30 5856 H 557.916 3.94537 3.19849 0
M  V30 5857 H 557.846 2.73255 4.50155 0
M  V30 5858 H 560.337 2.29472 3.00252 0
M  V30 5859 H 560.65 5.17408 5.74028 0
M  V30 5860 H 558.995 4.64803 5.16704 0
M  V30 5861 H 562.186 2.90892 3.66742 0
M  V30 5862 H 562.359 4.22176 4.91601 0
M  V30 5863 N 555.766 -1.3263 0.851289 0
M  V30 5864 C 556.729 -2.27247 0.298541 0
M  V30 5865 C 557.729 -1.51467 -0.539847 0
M  V30 5866 O 558.919 -1.7061 -0.351843 0
M  V30 5867 C 556.051 -3.35964 -0.578004 0
M  V30 5868 H 557.244 -2.7765 1.13359 0
M  V30 5869 H 554.797 -1.43245 0.625354 0
M  V30 5870 H 555.532 -2.90823 -1.435 0
M  V30 5871 H 555.317 -3.92094 0.0220539 0
M  V30 5872 H 556.807 -4.06472 -0.957626 0
M  V30 5873 N 557.244 -0.608902 -1.45362 0
M  V30 5874 C 558.469 -0.10921 -2.07112 0
M  V30 5875 C 558.894 1.19779 -1.45033 0
M  V30 5876 O 558.252 1.72961 -0.543527 0
M  V30 5877 C 558.3 0.0155745 -3.60597 0
M  V30 5878 O 557.404 1.06546 -3.98399 0
M  V30 5879 H 556.745 -0.0746619 -0.659789 0
M  V30 5880 H 559.275 -0.839283 -1.86594 0
M  V30 5881 H 559.285 0.213364 -4.07442 0
M  V30 5882 H 557.96 -0.938765 -4.05167 0
M  V30 5883 H 556.537 0.844024 -3.63223 0
M  V30 5884 N 558.722 1.53707 -0.348139 0
M  V30 5885 C 559.67 2.26671 0.521808 0
M  V30 5886 C 560.664 1.28988 1.09811 0
M  V30 5887 O 561.87 1.4668 1.04332 0
M  V30 5888 H 558.245 0.728387 0.186968 0
M  V30 5889 H 560.216 2.98176 -0.115563 0
M  V30 5890 C 558.965 3.05591 1.6586 0
M  V30 5891 H 558.288 3.80589 1.22443 0
M  V30 5892 H 559.728 3.59851 2.24239 0
M  V30 5893 C 558.187 2.15366 2.59073 0
M  V30 5894 O 558.717 1.7528 3.61441 0
M  V30 5895 N 556.923 1.80352 2.27863 0
M  V30 5896 H 556.47 2.13149 1.44656 0
M  V30 5897 H 556.428 1.20268 2.90488 0
M  V30 5898 N 560.2 0.0768682 1.57412 0
M  V30 5899 C 561.11 -0.903207 2.16516 0
M  V30 5900 C 562.126 -1.32341 1.12968 0
M  V30 5901 O 563.302 -1.39507 1.45258 0
M  V30 5902 C 560.367 -2.1508 2.71922 0
M  V30 5903 C 559.428 -1.78653 3.90361 0
M  V30 5904 C 558.661 -2.97465 4.43114 0
M  V30 5905 O 558.884 -4.11638 3.94854 0
M  V30 5906 O 557.818 -2.76987 5.3438 0
M  V30 5907 H 561.644 -0.430427 3.00634 0
M  V30 5908 H 559.229 -0.146485 1.4868 0
M  V30 5909 H 561.111 -2.8823 3.07411 0
M  V30 5910 H 559.786 -2.61446 1.9086 0
M  V30 5911 H 558.693 -1.0274 3.59716 0
M  V30 5912 H 560.026 -1.37066 4.7273 0
M  V30 5913 N 561.678 -1.56367 -0.196722 0
M  V30 5914 C 562.925 -1.80529 -0.917366 0
M  V30 5915 C 563.253 -0.649817 -1.83324 0
M  V30 5916 O 562.508 0.36451 -1.92275 0
M  V30 5917 C 562.807 -3.10663 -1.767 0
M  V30 5918 C 562.473 -4.3962 -1.00225 0
M  V30 5919 C 561.135 -4.74653 -0.791095 0
M  V30 5920 C 563.487 -5.1913 -0.464035 0
M  V30 5921 C 560.815 -5.86692 -0.0302155 0
M  V30 5922 C 563.167 -6.31964 0.283625 0
M  V30 5923 C 561.831 -6.65581 0.505813 0
M  V30 5924 H 561.101 -0.660602 -0.335688 0
M  V30 5925 H 563.748 -1.90615 -0.183844 0
M  V30 5926 H 562.053 -2.95807 -2.56915 0
M  V30 5927 H 563.75 -3.26563 -2.32718 0
M  V30 5928 H 560.34 -4.12127 -1.17684 0
M  V30 5929 H 564.524 -4.9248 -0.614575 0
M  V30 5930 H 559.78 -6.11211 0.151917 0
M  V30 5931 H 563.954 -6.92791 0.708057 0
M  V30 5932 H 561.581 -7.52239 1.0973 0
M  V30 5933 N 563.156 0.464375 -1.50603 0
M  V30 5934 C 564.086 1.56944 -1.72889 0
M  V30 5935 C 565.067 1.59979 -0.577997 0
M  V30 5936 O 566.252 1.76138 -0.817855 0
M  V30 5937 C 563.382 2.95225 -1.8292 0
M  V30 5938 C 562.336 3.07056 -2.98162 0
M  V30 5939 C 561.662 4.47051 -2.93343 0
M  V30 5940 C 562.962 2.83648 -4.38567 0
M  V30 5941 H 564.656 1.38547 -2.65415 0
M  V30 5942 H 562.202 0.665082 -1.27721 0
M  V30 5943 H 564.155 3.72467 -1.97095 0
M  V30 5944 H 562.879 3.14793 -0.870209 0
M  V30 5945 H 561.538 2.32248 -2.83648 0
M  V30 5946 H 561.186 4.63547 -1.95276 0
M  V30 5947 H 560.886 4.55902 -3.70712 0
M  V30 5948 H 562.41 5.26304 -3.09575 0
M  V30 5949 H 563.824 3.50636 -4.53572 0
M  V30 5950 H 562.221 3.03937 -5.17438 0
M  V30 5951 H 563.291 1.79451 -4.50472 0
M  V30 5952 N 564.634 1.40294 0.718013 0
M  V30 5953 C 565.88 1.38645 1.48005 0
M  V30 5954 C 566.213 -0.0121202 1.94196 0
M  V30 5955 O 565.488 -0.980309 1.67989 0
M  V30 5956 C 565.771 2.37379 2.70782 0
M  V30 5957 C 565.624 3.8625 2.30501 0
M  V30 5958 C 566.943 2.33685 3.72933 0
M  V30 5959 H 564.062 0.504928 0.536858 0
M  V30 5960 H 566.704 1.71411 0.819649 0
M  V30 5961 H 564.854 2.09568 3.27129 0
M  V30 5962 H 566.526 4.24879 1.79655 0
M  V30 5963 H 564.769 4.02202 1.6253 0
M  V30 5964 H 565.44 4.50847 3.18498 0
M  V30 5965 H 567.916 2.58314 3.2621 0
M  V30 5966 H 566.792 3.0482 4.56482 0
M  V30 5967 H 567.053 1.34765 4.21059 0
M  V30 5968 N 566.112 -0.949982 1.2575 0
M  V30 5969 C 567.352 -1.70994 1.11984 0
M  V30 5970 C 567.716 -1.89095 -0.332746 0
M  V30 5971 O 568.917 -2.62192 -0.592331 0
M  V30 5972 C 567.188 -3.05286 1.85837 0
M  V30 5973 S 568.747 -3.96477 1.88019 0
M  V30 5974 H 565.565 -0.587689 0.400178 0
M  V30 5975 H 568.167 -1.13271 1.59342 0
M  V30 5976 H 566.871 -2.89785 2.90608 0
M  V30 5977 H 566.402 -3.68069 1.38885 0
M  V30 5978 H 568.417 -4.86814 0.96057 0
M  V30 5979 N 567.59 -1.07411 -1.15328 0
M  V30 5980 C 568.838 -0.796073 -1.85761 0
M  V30 5981 C 569.159 0.679864 -1.82764 0
M  V30 5982 O 568.429 1.49242 -1.269 0
M  V30 5983 H 567.009 -0.291495 -0.687779 0
M  V30 5984 H 569.671 -1.35799 -1.39802 0
M  V30 5985 H 568.767 -1.13114 -2.90881 0
M  V30 5986 N 569.068 1.32177 -0.85831 0
M  V30 5987 C 570.316 1.96735 -0.462568 0
M  V30 5988 C 570.637 1.6824 0.985911 0
M  V30 5989 O 569.907 0.991564 1.68952 0
M  V30 5990 H 568.487 0.727849 -0.168064 0
M  V30 5991 H 571.149 1.61195 -1.09554 0
M  V30 5992 H 570.245 3.06068 -0.610647 0
M  V30 5993 N 570.547 0.616602 1.45037 0
M  V30 5994 C 571.479 -0.135186 2.28801 0
M  V30 5995 C 572.492 -0.82303 1.40464 0
M  V30 5996 O 573.681 -0.686909 1.64754 0
M  V30 5997 C 570.781 -1.21292 3.16451 0
M  V30 5998 C 569.954 -0.61043 4.3312 0
M  V30 5999 C 569.013 -1.58022 5.01912 0
M  V30 6000 O 568.039 -1.10301 5.58411 0
M  V30 6001 N 569.241 -2.91464 5.02025 0
M  V30 6002 H 572.006 0.583612 2.93963 0
M  V30 6003 H 569.567 0.456723 1.55324 0
M  V30 6004 H 571.559 -1.86169 3.59337 0
M  V30 6005 H 570.129 -1.83412 2.53138 0
M  V30 6006 H 569.349 0.216638 3.93604 0
M  V30 6007 H 570.637 -0.188293 5.08451 0
M  V30 6008 H 570.035 -3.32829 4.57429 0
M  V30 6009 H 568.592 -3.51741 5.48745 0
M  V30 6010 N 572.025 -1.5352 0.356285 0
M  V30 6011 C 573.265 -2.03027 -0.23649 0
M  V30 6012 C 573.629 -1.23813 -1.46746 0
M  V30 6013 O 574.83 -1.63281 -2.13525 0
M  V30 6014 C 573.101 -3.53442 -0.530415 0
M  V30 6015 S 574.66 -4.24836 -1.09819 0
M  V30 6016 H 571.478 -0.707591 -0.0695378 0
M  V30 6017 H 574.08 -1.89077 0.496999 0
M  V30 6018 H 572.784 -4.087 0.373114 0
M  V30 6019 H 572.315 -3.71536 -1.29323 0
M  V30 6020 H 574.33 -4.35228 -2.38309 0
M  V30 6021 N 573.503 -0.0852151 -1.57369 0
M  V30 6022 C 574.435 0.907099 -2.10486 0
M  V30 6023 C 575.448 1.25259 -1.03991 0
M  V30 6024 O 576.637 1.20743 -1.31467 0
M  V30 6025 C 573.737 2.21908 -2.56145 0
M  V30 6026 C 572.91 2.05042 -3.86363 0
M  V30 6027 C 571.969 3.19664 -4.17973 0
M  V30 6028 O 570.995 2.94062 -4.87356 0
M  V30 6029 N 572.197 4.45151 -3.72587 0
M  V30 6030 H 574.962 0.453505 -2.96249 0
M  V30 6031 H 572.523 0.100157 -1.6159 0
M  V30 6032 H 574.515 2.97519 -2.74343 0
M  V30 6033 H 573.085 2.58723 -1.75446 0
M  V30 6034 H 572.305 1.13819 -3.77411 0
M  V30 6035 H 573.593 1.91039 -4.71574 0
M  V30 6036 H 572.991 4.68834 -3.16561 0
M  V30 6037 H 571.548 5.17744 -3.9596 0
M  V30 6038 N 574.981 1.5647 0.188427 0
M  V30 6039 C 576.392 1.70864 0.752494 0
M  V30 6040 C 576.743 0.692905 1.83557 0
M  V30 6041 O 575.868 -0.149307 2.15884 0
M  V30 6042 C 576.463 3.09789 1.37173 0
M  V30 6043 C 575.022 3.25925 1.88281 0
M  V30 6044 C 574.169 2.66817 0.755259 0
M  V30 6045 H 577.12 1.58657 -0.0367408 0
M  V30 6046 H 577.141 3.07489 2.24122 0
M  V30 6047 H 576.653 3.83693 0.583219 0
M  V30 6048 H 574.754 2.56948 2.6983 0
M  V30 6049 H 574.867 4.33498 2.04001 0
M  V30 6050 H 573.231 2.2617 1.17128 0
M  V30 6051 H 574.014 3.43294 -0.0211237 0
M  V30 6052 N 576.459 -0.456382 1.50847 0
M  V30 6053 C 577.687 -1.23026 1.66349 0
M  V30 6054 C 578.102 -1.85473 0.352868 0
M  V30 6055 O 577.459 -1.69885 -0.666739 0
M  V30 6056 C 577.51 -2.32827 2.76539 0
M  V30 6057 O 577.231 -1.72938 4.02522 0
M  V30 6058 C 578.732 -3.23448 3.03144 0
M  V30 6059 H 575.952 -0.371527 0.558756 0
M  V30 6060 H 578.496 -0.543082 1.97157 0
M  V30 6061 H 576.651 -2.97294 2.48384 0
M  V30 6062 H 577.065 -2.45357 4.63573 0
M  V30 6063 H 578.539 -3.96669 3.83872 0
M  V30 6064 H 579.016 -3.83094 2.14793 0
M  V30 6065 H 579.622 -2.64702 3.32886 0
M  V30 6066 N 577.937 -1.40673 -0.710563 0
M  V30 6067 C 579.183 -1.39428 -1.47267 0
M  V30 6068 C 579.516 0.00182129 -1.942 0
M  V30 6069 O 578.791 0.971387 -1.68506 0
M  V30 6070 C 579.074 -2.38812 -2.6952 0
M  V30 6071 C 578.927 -3.87467 -2.28449 0
M  V30 6072 C 580.246 -2.3566 -3.71689 0
M  V30 6073 H 577.365 -0.507768 -0.534173 0
M  V30 6074 H 580.007 -1.71843 -0.810547 0
M  V30 6075 H 578.157 -2.113 -3.26013 0
M  V30 6076 H 579.829 -4.25825 -1.77399 0
M  V30 6077 H 578.072 -4.03058 -1.60395 0
M  V30 6078 H 578.743 -4.5253 -3.16103 0
M  V30 6079 H 581.219 -2.6004 -3.24836 0
M  V30 6080 H 580.095 -3.07237 -4.54859 0
M  V30 6081 H 580.356 -1.36996 -4.20339 0
M  V30 6082 N 579.415 0.9433 -1.26252 0
M  V30 6083 C 580.64 1.72898 -1.14547 0
M  V30 6084 C 581.065 1.85761 0.295743 0
M  V30 6085 O 580.423 1.3463 1.21427 0
M  V30 6086 C 580.471 3.11471 -1.8171 0
M  V30 6087 O 579.575 3.97336 -1.10445 0
M  V30 6088 H 578.916 0.530555 -0.399259 0
M  V30 6089 H 581.446 1.18159 -1.67032 0
M  V30 6090 H 581.456 3.61872 -1.88449 0
M  V30 6091 H 580.131 3.01425 -2.86558 0
M  V30 6092 H 578.708 3.55788 -1.11666 0
M  V30 6093 N 580.893 1.08022 1.14757 0
M  V30 6094 C 582.304 0.829144 1.67279 0
M  V30 6095 C 582.655 -0.644721 1.85305 0
M  V30 6096 O 581.78 -1.49838 1.56133 0
M  V30 6097 C 582.375 1.49855 3.03857 0
M  V30 6098 C 580.934 1.29482 3.53428 0
M  V30 6099 C 580.081 1.56386 2.28995 0
M  V30 6100 H 583.032 1.24134 0.988762 0
M  V30 6101 H 583.053 0.923572 3.69121 0
M  V30 6102 H 582.565 2.57123 2.90705 0
M  V30 6103 H 580.666 0.242669 3.71809 0
M  V30 6104 H 580.779 2.01974 4.34446 0
M  V30 6105 H 579.143 0.985217 2.34874 0
M  V30 6106 H 579.926 2.64851 2.18423 0
M  V30 6107 N 582.371 -1.3172 0.865308 0
M  V30 6108 C 583.321 -2.26157 0.289305 0
M  V30 6109 C 584.305 -1.50428 -0.570977 0
M  V30 6110 O 585.497 -1.71978 -0.418617 0
M  V30 6111 C 582.626 -3.39457 -0.512237 0
M  V30 6112 C 581.712 -4.22561 0.361028 0
M  V30 6113 N 582.103 -4.84501 1.45231 0
M  V30 6114 C 580.401 -4.45739 0.152641 0
M  V30 6115 C 581.102 -5.46586 1.99043 0
M  V30 6116 N 580.078 -5.28119 1.28809 0
M  V30 6117 H 583.88 -2.71581 1.12344 0
M  V30 6118 H 581.394 -1.45932 0.712565 0
M  V30 6119 H 583.391 -4.06133 -0.941379 0
M  V30 6120 H 582.051 -2.95577 -1.34404 0
M  V30 6121 H 583.062 -4.84293 1.83524 0
M  V30 6122 H 579.739 -4.1251 -0.643583 0
M  V30 6123 H 581.129 -6.05817 2.90577 0
M  V30 6124 N 583.85 -0.624285 -1.44708 0
M  V30 6125 C 585.075 -0.131171 -2.06985 0
M  V30 6126 C 585.5 1.18234 -1.46295 0
M  V30 6127 O 584.858 1.72375 -0.561842 0
M  V30 6128 C 584.906 -0.0226724 -3.60593 0
M  V30 6129 O 584.01 1.02314 -3.99507 0
M  V30 6130 H 583.351 -0.0816556 -0.65896 0
M  V30 6131 H 585.88 -0.859027 -1.85693 0
M  V30 6132 H 585.891 0.170138 -4.07645 0
M  V30 6133 H 584.566 -0.981685 -4.04148 0
M  V30 6134 H 583.143 0.805452 -3.64097 0
M  V30 6135 N 585.328 1.53329 -0.364422 0
M  V30 6136 C 586.238 2.29414 0.490552 0
M  V30 6137 C 587.254 1.35335 1.09363 0
M  V30 6138 O 588.43 1.68391 1.10483 0
M  V30 6139 C 585.495 3.06772 1.61529 0
M  V30 6140 C 584.556 4.16516 1.03986 0
M  V30 6141 C 583.789 4.90176 2.111 0
M  V30 6142 O 584.012 4.63687 3.32191 0
M  V30 6143 O 582.946 5.76134 1.74222 0
M  V30 6144 H 586.772 3.03428 -0.12856 0
M  V30 6145 H 584.357 1.48843 -0.128837 0
M  V30 6146 H 586.239 3.55082 2.26924 0
M  V30 6147 H 584.914 2.35596 2.21983 0
M  V30 6148 H 583.821 3.7246 0.349856 0
M  V30 6149 H 585.154 4.89855 0.4799 0
M  V30 6150 N 586.806 0.0935595 1.57322 0
M  V30 6151 C 588.034 -0.578934 1.98635 0
M  V30 6152 C 588.449 -1.61819 0.972626 0
M  V30 6153 O 587.806 -1.82461 -0.0379638 0
M  V30 6154 C 587.857 -1.22802 3.40003 0
M  V30 6155 O 587.578 -0.230334 4.37494 0
M  V30 6156 C 589.079 -1.98627 3.96311 0
M  V30 6157 H 586.299 -0.155324 0.652775 0
M  V30 6158 H 588.843 0.172393 2.03772 0
M  V30 6159 H 586.998 -1.93029 3.35885 0
M  V30 6160 H 587.412 -0.698649 5.19826 0
M  V30 6161 H 588.886 -2.39405 4.97382 0
M  V30 6162 H 589.363 -2.85151 3.34044 0
M  V30 6163 H 589.969 -1.3322 4.03897 0
M  V30 6164 N 588.284 -1.56567 -0.180126 0
M  V30 6165 C 589.247 -1.94852 -1.20686 0
M  V30 6166 C 590.247 -0.831212 -1.3765 0
M  V30 6167 O 591.437 -1.09841 -1.35206 0
M  V30 6168 C 588.569 -2.23565 -2.57355 0
M  V30 6169 H 589.762 -2.86722 -0.879225 0
M  V30 6170 H 587.315 -1.50489 -0.422237 0
M  V30 6171 H 588.05 -1.34381 -2.95148 0
M  V30 6172 H 587.835 -3.04999 -2.46411 0
M  V30 6173 H 589.325 -2.54137 -3.31367 0
M  V30 6174 N 589.762 0.448376 -1.51087 0
M  V30 6175 C 591.173 1.0286 -1.5581 0
M  V30 6176 C 591.524 1.92583 -0.374989 0
M  V30 6177 O 590.649 2.10316 0.509533 0
M  V30 6178 C 591.244 1.87223 -2.8237 0
M  V30 6179 C 589.803 2.40314 -2.897 0
M  V30 6180 C 588.95 1.19238 -2.50355 0
M  V30 6181 H 591.901 0.230075 -1.57023 0
M  V30 6182 H 591.922 2.72553 -2.6551 0
M  V30 6183 H 591.434 1.21894 -3.68461 0
M  V30 6184 H 589.535 3.09129 -2.08014 0
M  V30 6185 H 589.648 2.73866 -3.93108 0
M  V30 6186 H 588.012 1.53428 -2.03303 0
M  V30 6187 H 588.795 0.555367 -3.38778 0
M  V30 6188 N 591.24 1.41047 0.703093 0
M  V30 6189 C 592.489 1.39301 1.4587 0
M  V30 6190 C 592.802 0.00267077 1.956 0
M  V30 6191 O 594.008 -0.137414 2.71152 0
M  V30 6192 C 592.464 2.44891 2.63735 0
M  V30 6193 C 592.072 3.89796 2.20824 0
M  V30 6194 C 593.816 2.5227 3.41409 0
M  V30 6195 C 591.723 4.86955 3.35602 0
M  V30 6196 H 590.653 0.518005 0.547893 0
M  V30 6197 H 593.304 1.66839 0.764009 0
M  V30 6198 H 591.686 2.10472 3.35436 0
M  V30 6199 H 592.86 4.33424 1.56461 0
M  V30 6200 H 591.175 3.86008 1.56163 0
M  V30 6201 H 593.772 3.22044 4.26839 0
M  V30 6202 H 594.115 1.55714 3.86081 0
M  V30 6203 H 594.648 2.85742 2.7676 0
M  V30 6204 H 591.387 5.84888 2.9595 0
M  V30 6205 H 590.907 4.47982 3.98839 0
M  V30 6206 H 592.586 5.07361 4.01489 0
M  V30 6207 N 592.718 -0.936591 1.26751 0
M  V30 6208 C 594.129 -1.49816 1.1141 0
M  V30 6209 C 594.48 -1.9383 -0.304015 0
M  V30 6210 O 593.605 -1.80346 -1.196 0
M  V30 6211 C 594.2 -2.72271 2.01629 0
M  V30 6212 C 592.759 -3.2468 1.9042 0
M  V30 6213 C 591.906 -1.97444 1.94708 0
M  V30 6214 H 594.857 -0.751604 1.39773 0
M  V30 6215 H 594.878 -3.46741 1.56688 0
M  V30 6216 H 594.39 -2.40205 3.04833 0
M  V30 6217 H 592.491 -3.61525 0.901674 0
M  V30 6218 H 592.604 -3.91476 2.76195 0
M  V30 6219 H 590.968 -2.13545 1.38818 0
M  V30 6220 H 591.751 -1.67703 2.9955 0
M  V30 6221 N 594.196 -1.08629 -1.14182 0
M  V30 6222 C 595.442 -0.818556 -1.85546 0
M  V30 6223 C 595.775 0.654076 -1.82854 0
M  V30 6224 O 595.05 1.48099 -1.26083 0
M  V30 6225 C 595.333 -1.34397 -3.3408 0
M  V30 6226 C 595.186 -2.8821 -3.45333 0
M  V30 6227 C 596.505 -0.971069 -4.29253 0
M  V30 6228 H 593.624 -0.298821 -0.673702 0
M  V30 6229 H 596.266 -1.34629 -1.34071 0
M  V30 6230 H 594.416 -0.895064 -3.78049 0
M  V30 6231 H 596.088 -3.41488 -3.10134 0
M  V30 6232 H 594.331 -3.25756 -2.86471 0
M  V30 6233 H 595.002 -3.20047 -4.49749 0
M  V30 6234 H 597.478 -1.35809 -3.93313 0
M  V30 6235 H 596.354 -1.36586 -5.31635 0
M  V30 6236 H 596.615 0.121659 -4.41933 0
M  V30 6237 N 595.674 1.31259 -0.872281 0
M  V30 6238 C 597.085 1.78822 -0.536617 0
M  V30 6239 C 597.436 1.71855 0.946594 0
M  V30 6240 O 596.561 1.28769 1.73918 0
M  V30 6241 C 597.156 3.24698 -0.967294 0
M  V30 6242 C 595.715 3.70147 -0.683251 0
M  V30 6243 C 594.862 2.51994 -1.15733 0
M  V30 6244 H 597.813 1.18308 -1.05777 0
M  V30 6245 H 597.834 3.79386 -0.290929 0
M  V30 6246 H 597.346 3.29737 -2.04683 0
M  V30 6247 H 595.447 3.70607 0.384825 0
M  V30 6248 H 595.56 4.62183 -1.2619 0
M  V30 6249 H 593.924 2.48078 -0.577024 0
M  V30 6250 H 594.707 2.59778 -2.24434 0
M  V30 6251 N 597.152 0.631951 1.44375 0
M  V30 6252 C 598.38 0.143867 2.06399 0
M  V30 6253 C 598.795 -1.18188 1.47231 0
M  V30 6254 O 598.152 -1.72511 0.595498 0
M  V30 6255 C 598.203 0.0238253 3.61492 0
M  V30 6256 O 597.924 1.29715 4.18456 0
M  V30 6257 C 599.425 -0.492856 4.40552 0
M  V30 6258 H 596.645 0.0800542 0.666207 0
M  V30 6259 H 599.189 0.866586 1.85231 0
M  V30 6260 H 597.344 -0.649338 3.81919 0
M  V30 6261 H 597.758 1.14252 5.11905 0
M  V30 6262 H 599.232 -0.525861 5.49489 0
M  V30 6263 H 599.709 -1.52006 4.12057 0
M  V30 6264 H 600.315 0.147085 4.25046 0
M  V30 6265 N 598.631 -1.53133 0.372548 0
M  V30 6266 C 599.563 -2.23557 -0.505444 0
M  V30 6267 C 600.576 -1.25211 -1.04049 0
M  V30 6268 O 601.765 -1.51391 -0.945675 0
M  V30 6269 C 598.865 -2.92516 -1.71136 0
M  V30 6270 C 598.038 -4.17428 -1.30661 0
M  V30 6271 C 597.097 -4.69535 -2.37536 0
M  V30 6272 O 596.123 -5.33042 -1.99637 0
M  V30 6273 N 597.325 -4.47947 -3.6922 0
M  V30 6274 H 600.09 -2.9954 0.0978259 0
M  V30 6275 H 597.651 -1.60684 0.198068 0
M  V30 6276 H 599.643 -3.24281 -2.42124 0
M  V30 6277 H 598.213 -2.19944 -2.22134 0
M  V30 6278 H 597.433 -3.91888 -0.426292 0
M  V30 6279 H 598.721 -4.98622 -1.01259 0
M  V30 6280 H 598.119 -3.97219 -4.02783 0
M  V30 6281 H 596.676 -4.84245 -4.36292 0
M  V30 6282 N 600.109 -0.101901 -1.5727 0
M  V30 6283 C 601.358 0.559922 -1.93772 0
M  V30 6284 C 601.671 1.68913 -0.98629 0
M  V30 6285 O 602.877 2.41256 -1.24529 0
M  V30 6286 C 601.333 1.04739 -3.44322 0
M  V30 6287 C 600.941 -0.05243 -4.47969 0
M  V30 6288 C 602.685 1.68157 -3.89774 0
M  V30 6289 C 600.592 0.450781 -5.8968 0
M  V30 6290 H 599.522 0.212931 -0.723309 0
M  V30 6291 H 602.173 -0.179001 -1.82625 0
M  V30 6292 H 600.555 1.84021 -3.50645 0
M  V30 6293 H 601.729 -0.828157 -4.53297 0
M  V30 6294 H 600.044 -0.592202 -4.12167 0
M  V30 6295 H 602.641 2.0689 -4.93052 0
M  V30 6296 H 602.984 2.55338 -3.28798 0
M  V30 6297 H 603.517 0.954453 -3.8618 0
M  V30 6298 H 600.256 -0.38458 -6.54371 0
M  V30 6299 H 599.776 1.19336 -5.87809 0
M  V30 6300 H 601.455 0.917555 -6.40461 0
M  V30 6301 N 601.587 1.56661 0.17182 0
M  V30 6302 C 603.003 1.50768 0.52357 0
M  V30 6303 C 603.203 0.806072 1.84675 0
M  V30 6304 O 602.259 0.366233 2.4983 0
M  V30 6305 C 603.572 2.955 0.556793 0
M  V30 6306 C 605.12 3.06303 0.644029 0
M  V30 6307 C 605.595 4.52492 0.708148 0
M  V30 6308 N 607.086 4.56737 0.771051 0
M  V30 6309 C 607.821 5.67196 0.841229 0
M  V30 6310 N 607.317 6.87287 0.872272 0
M  V30 6311 N 609.11 5.55165 0.88021 0
M  V30 6312 H 601.261 2.00679 -0.695817 0
M  V30 6313 H 603.524 0.914219 -0.250814 0
M  V30 6314 H 603.23 3.49986 -0.346774 0
M  V30 6315 H 603.104 3.50119 1.40346 0
M  V30 6316 H 605.491 2.51851 1.53802 0
M  V30 6317 H 605.572 2.5477 -0.229297 0
M  V30 6318 H 605.216 5.07575 -0.181585 0
M  V30 6319 H 605.146 5.01781 1.59761 0
M  V30 6320 H 607.637 3.70274 0.755364 0
M  V30 6321 H 607.95 7.6722 0.92698 0
M  V30 6322 H 606.295 6.89898 0.840557 0
M  V30 6323 H 609.486 4.60263 0.852956 0
M  V30 6324 H 609.659 6.41271 0.931439 0
M  V30 6325 N 603.065 -0.440357 1.51323 0
M  V30 6326 C 604.013 -1.55492 1.72988 0
M  V30 6327 C 605.007 -1.58564 0.596138 0
M  V30 6328 O 606.213 -1.62345 0.777443 0
M  V30 6329 H 602.588 -0.516532 0.546533 0
M  V30 6330 H 604.559 -1.34392 2.66423 0
M  V30 6331 C 603.308 -2.93176 1.86931 0
M  V30 6332 H 602.631 -2.91543 2.73574 0
M  V30 6333 H 604.071 -3.70537 2.06103 0
M  V30 6334 C 602.53 -3.30988 0.628365 0
M  V30 6335 O 603.06 -4.01106 -0.218367 0
M  V30 6336 N 601.266 -2.86719 0.473339 0
M  V30 6337 H 600.813 -2.2983 1.16345 0
M  V30 6338 H 600.771 -3.12381 -0.355727 0
M  V30 6339 N 604.543 -1.41418 -0.695603 0
M  V30 6340 C 605.773 -1.43921 -1.48224 0
M  V30 6341 C 606.181 -0.0428855 -1.89151 0
M  V30 6342 O 605.524 0.948138 -1.5734 0
M  V30 6343 C 605.586 -2.28466 -2.77567 0
M  V30 6344 C 605.25 -3.76629 -2.58844 0
M  V30 6345 C 606.247 -4.6879 -2.24793 0
M  V30 6346 C 603.932 -4.2067 -2.74485 0
M  V30 6347 C 605.926 -6.02981 -2.06622 0
M  V30 6348 C 603.613 -5.54926 -2.55931 0
M  V30 6349 C 604.611 -6.45897 -2.2205 0
M  V30 6350 O 604.299 -7.77675 -2.03657 0
M  V30 6351 H 604.031 -0.492252 -0.463318 0
M  V30 6352 H 606.585 -1.86347 -0.863952 0
M  V30 6353 H 604.815 -1.80853 -3.41802 0
M  V30 6354 H 606.504 -2.2267 -3.39371 0
M  V30 6355 H 607.27 -4.36055 -2.12323 0
M  V30 6356 H 603.149 -3.50167 -2.9984 0
M  V30 6357 H 606.693 -6.73951 -1.80099 0
M  V30 6358 H 602.59 -5.8724 -2.67991 0
M  V30 6359 H 603.358 -7.88819 -2.1842 0
M  V30 6360 N 606.021 0.929856 -1.27246 0
M  V30 6361 C 606.953 2.03434 -1.0558 0
M  V30 6362 C 607.966 1.62795 -0.0125762 0
M  V30 6363 O 609.155 1.76685 -0.2539 0
M  V30 6364 C 606.255 3.33915 -0.57912 0
M  V30 6365 C 605.428 4.03259 -1.69415 0
M  V30 6366 C 604.487 5.12014 -1.21357 0
M  V30 6367 O 603.513 5.36097 -1.91282 0
M  V30 6368 N 604.715 5.8046 -0.0680622 0
M  V30 6369 H 607.48 2.22583 -2.00691 0
M  V30 6370 H 605.041 1.1001 -1.18783 0
M  V30 6371 H 607.033 4.03978 -0.241563 0
M  V30 6372 H 605.603 3.11355 0.278703 0
M  V30 6373 H 604.823 3.26958 -2.20209 0
M  V30 6374 H 606.111 4.46337 -2.44255 0
M  V30 6375 H 605.509 5.63345 0.515626 0
M  V30 6376 H 604.066 6.51461 0.210332 0
M  V30 6377 N 607.499 1.09233 1.13605 0
M  V30 6378 C 608.915 0.82163 1.36826 0
M  V30 6379 C 609.115 -0.565021 1.93416 0
M  V30 6380 O 608.171 -1.32026 2.15234 0
M  V30 6381 C 609.484 1.91124 2.32147 0
M  V30 6382 C 611.032 1.93824 2.45767 0
M  V30 6383 C 611.507 3.01923 3.44393 0
M  V30 6384 N 612.998 3.01149 3.51942 0
M  V30 6385 C 613.733 3.81434 4.2813 0
M  V30 6386 N 613.229 4.71621 5.07489 0
M  V30 6387 N 615.022 3.69702 4.23411 0
M  V30 6388 H 607.173 1.98633 0.752234 0
M  V30 6389 H 609.436 0.862482 0.393482 0
M  V30 6390 H 609.142 2.90862 1.97717 0
M  V30 6391 H 609.016 1.78777 3.32142 0
M  V30 6392 H 611.403 0.94726 2.79483 0
M  V30 6393 H 611.484 2.10248 1.45703 0
M  V30 6394 H 611.128 4.01232 3.11408 0
M  V30 6395 H 611.058 2.82742 4.44257 0
M  V30 6396 H 613.549 2.35789 2.95317 0
M  V30 6397 H 613.862 5.29468 5.62924 0
M  V30 6398 H 612.207 4.75658 5.06729 0
M  V30 6399 H 615.398 2.98606 3.60489 0
M  V30 6400 H 615.571 4.32509 4.82535 0
M  V30 6401 N 608.977 -1.30795 0.87923 0
M  V30 6402 C 610.226 -1.95636 0.490875 0
M  V30 6403 C 610.539 -1.70214 -0.963674 0
M  V30 6404 O 611.745 -2.28991 -1.45861 0
M  V30 6405 C 610.201 -3.50271 0.826929 0
M  V30 6406 C 609.809 -3.84521 2.29886 0
M  V30 6407 C 611.553 -4.21456 0.507494 0
M  V30 6408 C 609.46 -5.32309 2.57685 0
M  V30 6409 H 608.39 -0.732238 0.179841 0
M  V30 6410 H 611.041 -1.48829 1.07341 0
M  V30 6411 H 609.423 -3.9562 0.173542 0
M  V30 6412 H 610.597 -3.50102 2.99609 0
M  V30 6413 H 608.912 -3.26425 2.58526 0
M  V30 6414 H 611.509 -5.30199 0.692293 0
M  V30 6415 H 611.852 -4.12614 -0.552718 0
M  V30 6416 H 612.385 -3.81772 1.11782 0
M  V30 6417 H 609.124 -5.46195 3.62424 0
M  V30 6418 H 608.644 -5.68048 1.92566 0
M  V30 6419 H 610.323 -5.99678 2.42889 0
M  V30 6420 N 610.455 -0.639598 -1.44038 0
M  V30 6421 C 611.365 0.0612377 -2.3452 0
M  V30 6422 C 612.381 0.826717 -1.53106 0
M  V30 6423 O 613.557 0.777059 -1.85806 0
M  V30 6424 C 610.622 1.02492 -3.31204 0
M  V30 6425 C 609.683 0.25788 -4.28525 0
M  V30 6426 C 608.916 1.17566 -5.2059 0
M  V30 6427 O 609.139 2.41461 -5.16771 0
M  V30 6428 O 608.073 0.655407 -5.98321 0
M  V30 6429 H 611.899 -0.68318 -2.95916 0
M  V30 6430 H 609.484 -0.399784 -1.43952 0
M  V30 6431 H 611.366 1.57911 -3.90694 0
M  V30 6432 H 610.041 1.7498 -2.7233 0
M  V30 6433 H 608.948 -0.339566 -3.72556 0
M  V30 6434 H 610.281 -0.427154 -4.90343 0
M  V30 6435 N 611.933 1.52934 -0.380664 0
M  V30 6436 C 612.865 2.23822 0.493581 0
M  V30 6437 C 613.878 1.25761 1.03383 0
M  V30 6438 O 615.067 1.5189 0.937633 0
M  V30 6439 C 612.167 2.9342 1.69582 0
M  V30 6440 C 611.34 4.18115 1.28445 0
M  V30 6441 C 610.399 4.70788 2.35042 0
M  V30 6442 O 609.425 5.34093 1.96807 0
M  V30 6443 N 610.627 4.49899 3.66839 0
M  V30 6444 H 613.392 2.99484 -0.11371 0
M  V30 6445 H 610.953 1.60577 -0.206587 0
M  V30 6446 H 612.945 3.2556 2.40401 0
M  V30 6447 H 611.515 2.21119 2.20965 0
M  V30 6448 H 610.735 3.92109 0.405503 0
M  V30 6449 H 612.023 4.99152 0.986132 0
M  V30 6450 H 611.421 3.99349 4.0067 0
M  V30 6451 H 609.978 4.86551 4.33718 0
M  V30 6452 N 613.412 0.11024 1.57214 0
M  V30 6453 C 614.36 -0.860586 2.16094 0
M  V30 6454 C 615.354 -1.28156 1.1078 0
M  V30 6455 O 616.56 -1.25433 1.29099 0
M  V30 6456 H 612.935 -0.295606 0.691463 0
M  V30 6457 H 614.906 -0.33942 2.96463 0
M  V30 6458 C 613.655 -2.10421 2.768 0
M  V30 6459 H 612.978 -1.7892 3.5753 0
M  V30 6460 H 614.418 -2.76375 3.21547 0
M  V30 6461 C 612.877 -2.88823 1.73444 0
M  V30 6462 O 613.407 -3.839 1.18251 0
M  V30 6463 N 611.613 -2.52649 1.43586 0
M  V30 6464 H 611.16 -1.754 1.8866 0
M  V30 6465 H 611.118 -3.05403 0.746735 0
M  V30 6466 N 614.89 -1.56749 -0.16351 0
M  V30 6467 C 615.82 -2.00042 -1.20438 0
M  V30 6468 C 616.801 -0.877256 -1.45733 0
M  V30 6469 O 617.986 -1.1439 -1.56935 0
M  V30 6470 C 615.116 -2.36697 -2.54149 0
M  V30 6471 C 614.07 -3.52046 -2.43408 0
M  V30 6472 C 613.396 -3.74466 -3.81679 0
M  V30 6473 C 614.696 -4.85247 -1.93216 0
M  V30 6474 H 616.39 -2.87244 -0.844477 0
M  V30 6475 H 613.936 -1.38194 -0.40478 0
M  V30 6476 H 615.889 -2.65582 -3.27176 0
M  V30 6477 H 614.613 -1.46414 -2.91943 0
M  V30 6478 H 613.272 -3.23301 -1.72834 0
M  V30 6479 H 612.92 -2.81461 -4.1688 0
M  V30 6480 H 612.62 -4.52084 -3.75359 0
M  V30 6481 H 614.144 -4.0576 -4.5628 0
M  V30 6482 H 615.558 -5.12957 -2.56023 0
M  V30 6483 H 613.955 -5.66556 -1.97825 0
M  V30 6484 H 615.025 -4.7672 -0.88689 0
M  V30 6485 N 616.368 0.432326 -1.51554 0
M  V30 6486 C 617.596 1.20364 -1.68286 0
M  V30 6487 C 618.011 1.84888 -0.38233 0
M  V30 6488 O 617.368 1.70924 0.639627 0
M  V30 6489 C 617.419 2.28398 -2.80208 0
M  V30 6490 O 617.14 1.66512 -4.05223 0
M  V30 6491 C 618.641 3.18584 -3.08251 0
M  V30 6492 H 615.861 0.36259 -0.564596 0
M  V30 6493 H 618.405 0.511647 -1.97996 0
M  V30 6494 H 616.56 2.93305 -2.53083 0
M  V30 6495 H 616.974 2.37951 -4.67418 0
M  V30 6496 H 618.448 3.90511 -3.90135 0
M  V30 6497 H 618.925 3.79628 -2.2086 0
M  V30 6498 H 619.531 2.59372 -3.37055 0
M  V30 6499 N 617.846 1.41785 0.688094 0
M  V30 6500 C 619.071 1.45117 1.48175 0
M  V30 6501 C 619.496 0.060129 1.88004 0
M  V30 6502 O 618.854 -0.938385 1.55126 0
M  V30 6503 C 618.902 2.37224 2.71583 0
M  V30 6504 O 618.006 1.83443 3.69354 0
M  V30 6505 H 617.347 0.492208 0.445676 0
M  V30 6506 H 619.877 1.86329 0.845145 0
M  V30 6507 H 619.887 2.53353 3.19806 0
M  V30 6508 H 618.562 3.38293 2.41931 0
M  V30 6509 H 617.139 1.76802 3.28322 0
M  V30 6510 N 619.324 -0.923095 1.27737 0
M  V30 6511 C 620.552 -1.70525 1.17171 0
M  V30 6512 C 620.967 -1.86847 -0.270881 0
M  V30 6513 O 620.324 -1.38879 -1.18401 0
M  V30 6514 C 620.375 -3.10242 1.85559 0
M  V30 6515 O 620.096 -2.94683 3.24182 0
M  V30 6516 C 621.597 -4.04586 1.81176 0
M  V30 6517 H 618.817 -0.533347 0.407163 0
M  V30 6518 H 621.361 -1.15599 1.68692 0
M  V30 6519 H 619.516 -3.62014 1.3793 0
M  V30 6520 H 619.93 -3.83045 3.58297 0
M  V30 6521 H 621.404 -5.00119 2.33633 0
M  V30 6522 H 621.881 -4.3218 0.782099 0
M  V30 6523 H 622.487 -3.58741 2.2844 0
M  V30 6524 N 620.802 -1.09834 -1.13024 0
M  V30 6525 C 621.765 -0.745058 -2.16752 0
M  V30 6526 C 622.765 0.227435 -1.59183 0
M  V30 6527 O 623.955 0.0050786 -1.74199 0
M  V30 6528 C 621.087 -0.102543 -3.40746 0
M  V30 6529 H 622.28 -1.66375 -2.49518 0
M  V30 6530 H 619.833 -0.898061 -1.27924 0
M  V30 6531 H 620.568 0.827177 -3.13573 0
M  V30 6532 H 620.353 -0.80235 -3.83803 0
M  V30 6533 H 621.843 0.129082 -4.174 0
M  V30 6534 N 622.28 1.30327 -0.886154 0
M  V30 6535 C 623.505 2.0079 -0.519425 0
M  V30 6536 C 623.93 1.65979 0.885013 0
M  V30 6537 O 623.288 0.877043 1.58675 0
M  V30 6538 C 623.336 3.53686 -0.702758 0
M  V30 6539 O 622.44 4.11637 0.250828 0
M  V30 6540 H 621.781 0.63171 -0.204544 0
M  V30 6541 H 624.311 1.66145 -1.19402 0
M  V30 6542 H 624.321 4.03531 -0.602207 0
M  V30 6543 H 622.996 3.78361 -1.72673 0
M  V30 6544 H 621.573 3.72755 0.103873 0
M  V30 6545 N 623.758 0.647228 1.43697 0
M  V30 6546 C 624.983 0.164083 2.0675 0
M  V30 6547 C 625.408 -1.15892 1.48158 0
M  V30 6548 O 624.766 -1.71459 0.589194 0
M  V30 6549 C 624.814 0.0800368 3.60511 0
M  V30 6550 O 623.918 -0.959453 4.01084 0
M  V30 6551 H 623.259 0.0921288 0.657578 0
M  V30 6552 H 625.789 0.88846 1.84303 0
M  V30 6553 H 625.799 -0.105263 4.07864 0
M  V30 6554 H 624.474 1.04586 4.02535 0
M  V30 6555 H 623.051 -0.747425 3.65333 0
M  V30 6556 N 625.236 -1.5273 0.388769 0
M  V30 6557 C 626.484 -2.01174 -0.193208 0
M  V30 6558 C 626.805 -1.27705 -1.47365 0
M  V30 6559 O 626.075 -0.396966 -1.91836 0
M  V30 6560 H 624.655 -0.743287 -0.0743871 0
M  V30 6561 H 627.317 -1.87826 0.520336 0
M  V30 6562 H 626.413 -3.09477 -0.403803 0
M  V30 6563 N 626.714 -0.118576 -1.57153 0
M  V30 6564 C 627.942 0.54726 -1.99531 0
M  V30 6565 C 628.357 1.60251 -0.998246 0
M  V30 6566 O 627.714 1.82498 0.00893106 0
M  V30 6567 C 627.765 1.17378 -3.41913 0
M  V30 6568 O 627.486 0.160703 -4.37805 0
M  V30 6569 C 628.987 1.92297 -3.9942 0
M  V30 6570 H 626.207 0.144919 -0.655164 0
M  V30 6571 H 628.751 -0.20479 -2.03472 0
M  V30 6572 H 626.906 1.87661 -3.38913 0
M  V30 6573 H 627.32 0.61586 -5.20872 0
M  V30 6574 H 628.794 2.31462 -5.01128 0
M  V30 6575 H 629.271 2.79801 -3.38538 0
M  V30 6576 H 629.877 1.26777 -4.05965 0
M  V30 6577 N 628.193 1.56834 0.155195 0
M  V30 6578 C 629.141 1.98584 1.21107 0
M  V30 6579 C 630.135 0.876987 1.44932 0
M  V30 6580 O 631.341 1.06215 1.45322 0
M  V30 6581 H 627.716 0.632039 0.407469 0
M  V30 6582 H 629.687 2.86561 0.832195 0
M  V30 6583 C 628.436 2.37555 2.53895 0
M  V30 6584 H 627.759 3.22428 2.3639 0
M  V30 6585 H 629.199 2.70598 3.26424 0
M  V30 6586 C 627.658 1.22507 3.13837 0
M  V30 6587 O 628.188 0.521388 3.98302 0
M  V30 6588 N 626.394 0.991444 2.73164 0
M  V30 6589 H 625.941 1.56544 2.04577 0
M  V30 6590 H 625.899 0.223546 3.13604 0
M  V30 6591 N 629.671 -0.424282 1.51781 0
M  V30 6592 C 630.917 -1.17434 1.6534 0
M  V30 6593 C 631.25 -1.90549 0.374806 0
M  V30 6594 O 630.525 -1.84145 -0.626179 0
M  V30 6595 C 630.808 -2.18093 2.86544 0
M  V30 6596 C 630.661 -1.48975 4.24413 0
M  V30 6597 C 631.98 -3.18934 3.03264 0
M  V30 6598 H 629.099 -0.425566 0.601716 0
M  V30 6599 H 631.741 -0.461921 1.84299 0
M  V30 6600 H 629.891 -2.78849 2.7051 0
M  V30 6601 H 631.563 -0.914551 4.52143 0
M  V30 6602 H 629.806 -0.791893 4.26511 0
M  V30 6603 H 630.477 -2.22347 5.05238 0
M  V30 6604 H 632.953 -2.68243 3.18096 0
M  V30 6605 H 631.829 -3.86645 3.89611 0
M  V30 6606 H 632.09 -3.85793 2.15908 0
M  V30 6607 N 631.149 -1.42148 -0.680565 0
M  V30 6608 C 632.099 -1.41634 -1.78672 0
M  V30 6609 C 633.083 -0.288494 -1.58293 0
M  V30 6610 O 634.275 -0.530295 -1.68869 0
M  V30 6611 C 631.404 -1.31558 -3.17092 0
M  V30 6612 C 630.49 -2.49265 -3.43115 0
M  V30 6613 N 630.881 -3.74702 -3.39753 0
M  V30 6614 C 629.179 -2.43401 -3.73727 0
M  V30 6615 C 629.88 -4.52854 -3.651 0
M  V30 6616 N 628.856 -3.83181 -3.85582 0
M  V30 6617 H 632.658 -2.3652 -1.74458 0
M  V30 6618 H 630.172 -1.36415 -0.881171 0
M  V30 6619 H 632.169 -1.29272 -3.96351 0
M  V30 6620 H 630.829 -0.376696 -3.22508 0
M  V30 6621 H 631.84 -4.07378 -3.19787 0
M  V30 6622 H 628.517 -1.58062 -3.86423 0
M  V30 6623 H 629.907 -5.61827 -3.6851 0
M  V30 6624 N 632.627 0.916307 -1.28225 0
M  V30 6625 C 633.875 1.6619 -1.15002 0
M  V30 6626 C 634.196 1.92642 0.302329 0
M  V30 6627 O 633.466 1.54076 1.20985 0
M  V30 6628 H 632.046 0.615964 -0.422608 0
M  V30 6629 H 634.708 1.09963 -1.60917 0
M  V30 6630 H 633.804 2.62533 -1.68769 0
M  V30 6631 N 634.105 1.10431 1.1244 0
M  V30 6632 C 635.33 0.869089 1.88313 0
M  V30 6633 C 635.755 -0.574912 1.79099 0
M  V30 6634 O 635.113 -1.40496 1.14589 0
M  V30 6635 C 635.161 1.32208 3.3549 0
M  V30 6636 O 634.265 0.487092 4.09513 0
M  V30 6637 H 633.606 0.313894 0.585121 0
M  V30 6638 H 636.136 1.47111 1.42195 0
M  V30 6639 H 636.146 1.31201 3.86329 0
M  V30 6640 H 634.821 2.37364 3.41513 0
M  V30 6641 H 633.398 0.562372 3.68635 0
M  V30 6642 N 635.583 -1.29855 0.893053 0
M  V30 6643 C 636.994 -1.77946 0.564998 0
M  V30 6644 C 637.345 -1.73339 -0.919134 0
M  V30 6645 O 636.47 -1.3152 -1.71847 0
M  V30 6646 C 637.065 -3.23118 1.01883 0
M  V30 6647 C 635.624 -3.69013 0.742051 0
M  V30 6648 C 634.771 -2.50121 1.19727 0
M  V30 6649 H 637.722 -1.16611 1.07646 0
M  V30 6650 H 637.743 -3.78875 0.351249 0
M  V30 6651 H 637.255 -3.26439 2.09903 0
M  V30 6652 H 635.356 -3.71173 -0.325816 0
M  V30 6653 H 635.469 -4.60117 1.33527 0
M  V30 6654 H 633.833 -2.47128 0.616418 0
M  V30 6655 H 634.616 -2.56174 2.28538 0
M  V30 6656 N 637.061 -0.65484 -1.43351 0
M  V30 6657 C 638.477 -0.32255 -1.56307 0
M  V30 6658 C 638.677 1.17324 -1.63821 0
M  V30 6659 O 637.733 1.95813 -1.59417 0
M  V30 6660 C 639.046 -1.03533 -2.82314 0
M  V30 6661 C 640.594 -1.01574 -2.9606 0
M  V30 6662 C 641.069 -1.70945 -4.24902 0
M  V30 6663 N 642.56 -1.67716 -4.3177 0
M  V30 6664 C 643.295 -2.18265 -5.30234 0
M  V30 6665 N 642.791 -2.7711 -6.34966 0
M  V30 6666 N 644.584 -2.08756 -5.21898 0
M  V30 6667 H 636.735 -1.62549 -1.36717 0
M  V30 6668 H 638.998 -0.683676 -0.656727 0
M  V30 6669 H 638.704 -2.09045 -2.8283 0
M  V30 6670 H 638.578 -0.587913 -3.7259 0
M  V30 6671 H 640.965 0.0309834 -2.95084 0
M  V30 6672 H 641.046 -1.50186 -2.07069 0
M  V30 6673 H 640.69 -2.75574 -4.26639 0
M  V30 6674 H 640.62 -1.19797 -5.12793 0
M  V30 6675 H 643.111 -1.24777 -3.56706 0
M  V30 6676 H 643.424 -3.13353 -7.06421 0
M  V30 6677 H 641.769 -2.81171 -6.35585 0
M  V30 6678 H 644.96 -1.62488 -4.38994 0
M  V30 6679 H 645.133 -2.48459 -5.98475 0
M  V30 6680 N 638.539 1.52521 -0.396863 0
M  V30 6681 C 639.764 2.06571 0.185258 0
M  V30 6682 C 640.189 1.26605 1.39115 0
M  V30 6683 O 639.547 0.293055 1.78916 0
M  V30 6684 C 639.595 3.5674 0.526189 0
M  V30 6685 O 638.699 3.7929 1.61903 0
M  V30 6686 H 638.04 0.663712 0.0195474 0
M  V30 6687 H 640.57 1.966 -0.566519 0
M  V30 6688 H 640.58 4.00311 0.788338 0
M  V30 6689 H 639.255 4.14379 -0.355397 0
M  V30 6690 H 637.832 3.47605 1.35 0
M  V30 6691 N 640.017 0.126909 1.57088 0
M  V30 6692 C 640.98 -0.806097 2.14557 0
M  V30 6693 C 641.98 -1.18918 1.08236 0
M  V30 6694 O 643.17 -1.11339 1.33975 0
M  V30 6695 C 640.302 -2.09116 2.69227 0
M  V30 6696 H 641.495 -0.306522 2.98329 0
M  V30 6697 H 639.048 -0.122393 1.5582 0
M  V30 6698 H 639.783 -2.63486 1.89065 0
M  V30 6699 H 639.568 -1.82588 3.46993 0
M  V30 6700 H 641.058 -2.75794 3.13572 0
M  V30 6701 N 641.495 -1.56914 -0.146875 0
M  V30 6702 C 642.741 -1.83628 -0.860741 0
M  V30 6703 C 643.074 -0.708528 -1.80813 0
M  V30 6704 O 642.349 0.287838 -1.92358 0
M  V30 6705 C 642.632 -3.20836 -1.63511 0
M  V30 6706 C 642.485 -4.44174 -0.709199 0
M  V30 6707 C 643.804 -3.55268 -2.59756 0
M  V30 6708 H 640.923 -0.667949 -0.311468 0
M  V30 6709 H 643.565 -1.89582 -0.125936 0
M  V30 6710 H 641.715 -3.15891 -2.26153 0
M  V30 6711 H 643.387 -4.61205 -0.0937781 0
M  V30 6712 H 641.63 -4.33796 -0.0187856 0
M  V30 6713 H 642.301 -5.36785 -1.28707 0
M  V30 6714 H 644.777 -3.60824 -2.07232 0
M  V30 6715 H 643.653 -4.52303 -3.10987 0
M  V30 6716 H 643.914 -2.81231 -3.41118 0
M  V30 6717 N 642.974 0.416227 -1.52004 0
M  V30 6718 C 644.22 1.16555 -1.6596 0
M  V30 6719 C 644.553 1.90347 -0.384906 0
M  V30 6720 O 643.828 1.84474 0.616405 0
M  V30 6721 C 644.111 2.1657 -2.87696 0
M  V30 6722 C 643.964 1.46722 -4.25197 0
M  V30 6723 C 645.283 3.17321 -3.04951 0
M  V30 6724 H 642.402 0.422369 -0.603965 0
M  V30 6725 H 645.044 0.452141 -1.84542 0
M  V30 6726 H 643.194 2.77411 -2.71985 0
M  V30 6727 H 644.866 0.89056 -4.52622 0
M  V30 6728 H 643.109 0.769263 -4.26925 0
M  V30 6729 H 643.78 2.19665 -5.0641 0
M  V30 6730 H 646.256 2.66552 -3.19514 0
M  V30 6731 H 645.132 3.84573 -3.91656 0
M  V30 6732 H 645.393 3.84643 -2.17951 0
M  V30 6733 N 644.452 1.42507 0.673017 0
M  V30 6734 C 645.868 1.25472 0.986355 0
M  V30 6735 C 646.068 0.160181 2.00862 0
M  V30 6736 O 645.124 -0.467993 2.48125 0
M  V30 6737 C 646.437 2.61219 1.48947 0
M  V30 6738 C 647.985 2.68589 1.60715 0
M  V30 6739 C 648.46 4.04707 2.14422 0
M  V30 6740 N 649.951 4.0667 2.21752 0
M  V30 6741 C 650.686 5.0881 2.64386 0
M  V30 6742 N 650.182 6.21332 3.0646 0
M  V30 6743 N 651.975 4.96166 2.64151 0
M  V30 6744 H 644.126 2.124 -0.00378532 0
M  V30 6745 H 646.389 0.946046 0.0608367 0
M  V30 6746 H 646.095 3.42179 0.812812 0
M  V30 6747 H 645.969 2.85261 2.46791 0
M  V30 6748 H 648.356 1.87974 2.27486 0
M  V30 6749 H 648.437 2.48333 0.613552 0
M  V30 6750 H 648.081 4.8578 1.48258 0
M  V30 6751 H 648.011 4.22315 3.14575 0
M  V30 6752 H 650.502 3.25438 1.92089 0
M  V30 6753 H 650.815 6.95118 3.37684 0
M  V30 6754 H 649.16 6.24835 3.04313 0
M  V30 6755 H 652.351 4.07334 2.30644 0
M  V30 6756 H 652.524 5.759 2.97057 0
M  V30 6757 N 645.93 -0.909495 1.28709 0
M  V30 6758 C 647.346 -1.18862 1.06508 0
M  V30 6759 C 647.546 -2.00604 -0.189864 0
M  V30 6760 O 646.602 -2.36281 -0.890355 0
M  V30 6761 C 647.915 -1.91908 2.31499 0
M  V30 6762 C 649.463 -2.04773 2.36721 0
M  V30 6763 C 649.938 -2.81228 3.6149 0
M  V30 6764 N 651.429 -2.88787 3.62155 0
M  V30 6765 C 652.164 -3.48455 4.55375 0
M  V30 6766 N 651.66 -4.09369 5.58918 0
M  V30 6767 N 653.453 -3.46035 4.42963 0
M  V30 6768 H 645.604 -0.363867 2.0926 0
M  V30 6769 H 647.867 -0.223649 0.921241 0
M  V30 6770 H 647.573 -1.39275 3.22948 0
M  V30 6771 H 647.447 -2.92436 2.38245 0
M  V30 6772 H 649.834 -2.56585 1.45767 0
M  V30 6773 H 649.915 -1.03408 2.33967 0
M  V30 6774 H 649.559 -2.30094 4.5279 0
M  V30 6775 H 649.489 -3.82917 3.61499 0
M  V30 6776 H 651.98 -2.45514 2.87283 0
M  V30 6777 H 652.293 -4.52891 6.26187 0
M  V30 6778 H 650.638 -4.0786 5.62739 0
M  V30 6779 H 653.829 -2.9766 3.6127 0
M  V30 6780 H 654.002 -3.92244 5.15799 0
M  V30 6781 N 647.408 -1.11026 -1.11852 0
M  V30 6782 C 648.633 -0.879064 -1.87849 0
M  V30 6783 C 649.058 0.565406 -1.79401 0
M  V30 6784 O 648.416 1.39886 -1.15333 0
M  V30 6785 C 648.464 -1.33985 -3.34784 0
M  V30 6786 O 647.568 -0.508803 -4.09249 0
M  V30 6787 H 646.909 -0.316992 -0.583448 0
M  V30 6788 H 649.439 -1.47863 -1.41413 0
M  V30 6789 H 649.449 -1.33248 -3.85628 0
M  V30 6790 H 648.124 -2.39172 -3.40249 0
M  V30 6791 H 646.701 -0.581913 -3.68332 0
M  V30 6792 N 648.886 1.2938 -0.899927 0
M  V30 6793 C 649.834 2.29675 -0.367698 0
M  V30 6794 C 650.828 1.60787 0.533282 0
M  V30 6795 O 652.034 1.75126 0.416058 0
M  V30 6796 H 648.409 0.745284 -0.100279 0
M  V30 6797 H 650.38 2.72008 -1.22696 0
M  V30 6798 C 649.129 3.45512 0.389483 0
M  V30 6799 H 648.452 3.98713 -0.294575 0
M  V30 6800 H 649.892 4.17725 0.726744 0
M  V30 6801 C 648.351 2.969 1.59223 0
M  V30 6802 O 648.881 2.98195 2.69152 0
M  V30 6803 N 647.087 2.52728 1.43447 0
M  V30 6804 H 646.634 2.51873 0.540148 0
M  V30 6805 H 646.592 2.20561 2.24054 0
M  V30 6806 N 650.364 0.662433 1.43002 0
M  V30 6807 C 651.592 0.187615 2.06048 0
M  V30 6808 C 652.007 -1.15039 1.49705 0
M  V30 6809 O 651.364 -1.71209 0.631956 0
M  V30 6810 C 651.415 0.100498 3.6136 0
M  V30 6811 O 651.136 1.38562 4.15611 0
M  V30 6812 C 652.637 -0.399298 4.41498 0
M  V30 6813 H 649.857 0.0941675 0.664359 0
M  V30 6814 H 652.401 0.905681 1.83351 0
M  V30 6815 H 650.556 -0.568181 3.83211 0
M  V30 6816 H 650.97 1.25084 5.09366 0
M  V30 6817 H 652.444 -0.409187 5.50481 0
M  V30 6818 H 652.921 -1.43232 4.15188 0
M  V30 6819 H 653.527 0.23721 4.24638 0
M  V30 6820 N 651.842 -1.52309 0.404946 0
M  V30 6821 C 653.067 -2.06666 -0.1743 0
M  V30 6822 C 653.492 -1.27341 -1.38441 0
M  V30 6823 O 652.85 -0.302539 -1.78758 0
M  V30 6824 C 652.898 -3.57014 -0.507262 0
M  V30 6825 O 652.002 -3.80144 -1.59889 0
M  V30 6826 H 651.343 -0.663807 -0.0160273 0
M  V30 6827 H 653.873 -1.96297 0.576937 0
M  V30 6828 H 653.883 -4.00724 -0.767098 0
M  V30 6829 H 652.558 -4.14184 0.377368 0
M  V30 6830 H 651.135 -3.48316 -1.33155 0
M  V30 6831 N 653.32 -0.135238 -1.57019 0
M  V30 6832 C 654.731 0.387521 -1.82634 0
M  V30 6833 C 655.082 1.65528 -1.05332 0
M  V30 6834 O 654.207 2.14381 -0.294926 0
M  V30 6835 C 654.802 0.709852 -3.3128 0
M  V30 6836 C 653.361 1.17718 -3.57518 0
M  V30 6837 C 652.508 0.194183 -2.76619 0
M  V30 6838 H 655.459 -0.360126 -1.5456 0
M  V30 6839 H 655.48 1.5657 -3.46794 0
M  V30 6840 H 654.992 -0.213024 -3.87515 0
M  V30 6841 H 653.093 2.1164 -3.06658 0
M  V30 6842 H 653.206 1.11128 -4.66034 0
M  V30 6843 H 651.57 0.684478 -2.4533 0
M  V30 6844 H 652.353 -0.722076 -3.3562 0
M  V30 6845 N 654.798 1.5699 0.138552 0
M  V30 6846 C 655.731 1.94064 1.2006 0
M  V30 6847 C 656.709 0.807601 1.41126 0
M  V30 6848 O 657.893 1.06399 1.556 0
M  V30 6849 C 655.02 2.21999 2.55801 0
M  V30 6850 C 654.066 3.44617 2.5128 0
M  V30 6851 S 654.899 4.97888 1.97149 0
M  V30 6852 C 656.055 5.28954 3.34602 0
M  V30 6853 H 656.288 2.83843 0.884337 0
M  V30 6854 H 653.821 1.50507 0.344517 0
M  V30 6855 H 655.779 2.38772 3.33914 0
M  V30 6856 H 654.44 1.32869 2.84613 0
M  V30 6857 H 653.633 3.61466 3.51224 0
M  V30 6858 H 653.235 3.27129 1.8128 0
M  V30 6859 H 655.527 5.22938 4.30745 0
M  V30 6860 H 656.47 6.30346 3.22598 0
M  V30 6861 H 656.878 4.56455 3.32128 0
M  V30 6862 N 656.276 -0.40816 1.52223 0
M  V30 6863 C 657.524 -1.15274 1.66001 0
M  V30 6864 C 657.845 -1.91003 0.392803 0
M  V30 6865 O 657.115 -1.8673 -0.592336 0
M  V30 6866 H 655.695 -0.428526 0.611861 0
M  V30 6867 H 658.357 -0.46512 1.89269 0
M  V30 6868 H 657.453 -1.86628 2.50153 0
M  V30 6869 N 657.755 -1.42862 -0.66545 0
M  V30 6870 C 659.002 -1.4383 -1.42546 0
M  V30 6871 C 659.33 -0.0581114 -1.94413 0
M  V30 6872 O 658.585 0.935002 -1.71919 0
M  V30 6873 C 658.884 -2.4175 -2.63233 0
M  V30 6874 C 658.55 -3.87915 -2.29854 0
M  V30 6875 C 657.212 -4.27726 -2.20463 0
M  V30 6876 C 659.564 -4.80074 -2.02924 0
M  V30 6877 C 656.892 -5.57666 -1.82279 0
M  V30 6878 C 659.244 -6.10366 -1.66242 0
M  V30 6879 C 657.908 -6.49167 -1.55367 0
M  V30 6880 H 657.178 -0.52631 -0.521612 0
M  V30 6881 H 659.825 -1.75863 -0.757914 0
M  V30 6882 H 658.13 -2.03077 -3.35063 0
M  V30 6883 H 659.827 -2.39759 -3.21429 0
M  V30 6884 H 656.417 -3.564 -2.3807 0
M  V30 6885 H 660.601 -4.50097 -2.09108 0
M  V30 6886 H 655.857 -5.8658 -1.72436 0
M  V30 6887 H 660.031 -6.81258 -1.44432 0
M  V30 6888 H 657.658 -7.49761 -1.2555 0
M  V30 6889 N 659.233 0.902656 -1.29189 0
M  V30 6890 C 660.163 2.02294 -1.16616 0
M  V30 6891 C 661.144 1.6999 -0.0611175 0
M  V30 6892 O 662.329 1.9271 -0.240072 0
M  V30 6893 C 659.459 3.37018 -0.83882 0
M  V30 6894 C 658.413 3.83522 -1.89986 0
M  V30 6895 C 657.739 5.15337 -1.42589 0
M  V30 6896 C 659.039 4.04169 -3.30824 0
M  V30 6897 H 660.733 2.13071 -2.10336 0
M  V30 6898 H 658.279 1.02378 -1.01266 0
M  V30 6899 H 660.232 4.14895 -0.737584 0
M  V30 6900 H 658.956 3.26325 0.134071 0
M  V30 6901 H 657.615 3.07859 -1.99043 0
M  V30 6902 H 657.263 5.01056 -0.441759 0
M  V30 6903 H 656.963 5.47423 -2.13547 0
M  V30 6904 H 658.487 5.95758 -1.3381 0
M  V30 6905 H 659.901 4.72537 -3.24626 0
M  V30 6906 H 658.298 4.47604 -3.99713 0
M  V30 6907 H 659.368 3.08604 -3.74021 0
M  V30 6908 N 660.711 1.11618 1.11262 0
M  V30 6909 C 662.127 0.850468 1.35053 0
M  V30 6910 C 662.327 -0.523868 1.94571 0
M  V30 6911 O 661.383 -1.2743 2.17986 0
M  V30 6912 C 662.696 1.96005 2.28041 0
M  V30 6913 C 664.244 1.98993 2.416 0
M  V30 6914 C 664.719 3.0916 3.37911 0
M  V30 6915 N 666.21 3.08547 3.45475 0
M  V30 6916 C 666.945 3.9043 4.19943 0
M  V30 6917 N 666.441 4.8228 4.97371 0
M  V30 6918 N 668.234 3.786 4.15474 0
M  V30 6919 H 660.385 2.00184 0.709932 0
M  V30 6920 H 662.648 0.870635 0.375099 0
M  V30 6921 H 662.354 2.9499 1.91503 0
M  V30 6922 H 662.228 1.85782 3.28275 0
M  V30 6923 H 664.615 1.00633 2.77411 0
M  V30 6924 H 664.696 2.13292 1.4121 0
M  V30 6925 H 664.34 4.07748 3.02827 0
M  V30 6926 H 664.27 2.92102 4.3816 0
M  V30 6927 H 666.761 2.42 2.90249 0
M  V30 6928 H 667.074 5.41289 5.51567 0
M  V30 6929 H 665.419 4.863 4.96525 0
M  V30 6930 H 668.61 3.06185 3.54074 0
M  V30 6931 H 668.783 4.42647 4.73253 0
M  V30 6932 N 662.189 -1.289 0.906776 0
M  V30 6933 C 663.6 -1.77336 0.58384 0
M  V30 6934 C 663.951 -1.74304 -0.900697 0
M  V30 6935 O 663.076 -1.33335 -1.70443 0
M  V30 6936 C 663.671 -3.22019 1.05304 0
M  V30 6937 C 662.23 -3.68205 0.781148 0
M  V30 6938 C 661.377 -2.48837 1.22373 0
M  V30 6939 H 664.328 -1.15462 1.08877 0
M  V30 6940 H 664.349 -3.78481 0.391414 0
M  V30 6941 H 663.861 -3.24194 2.13353 0
M  V30 6942 H 661.962 -3.71497 -0.28643 0
M  V30 6943 H 662.075 -4.58675 1.384 0
M  V30 6944 H 660.439 -2.46461 0.642594 0
M  V30 6945 H 661.222 -2.53736 2.31242 0
M  V30 6946 N 663.667 -0.670007 -1.42649 0
M  V30 6947 C 664.915 -0.18991 -2.01206 0
M  V30 6948 C 665.236 1.20617 -1.53221 0
M  V30 6949 O 664.506 1.80898 -0.751856 0
M  V30 6950 H 663.086 -0.0672189 -0.743969 0
M  V30 6951 H 665.748 -0.865442 -1.74631 0
M  V30 6952 H 664.844 -0.187481 -3.11536 0
M  V30 6953 N 665.145 1.52092 -0.413018 0
M  V30 6954 C 666.37 2.06756 0.163338 0
M  V30 6955 C 666.795 1.28073 1.37764 0
M  V30 6956 O 666.153 0.312015 1.78595 0
M  V30 6957 C 666.201 3.57278 0.488322 0
M  V30 6958 O 665.305 3.80986 1.57871 0
M  V30 6959 H 664.646 0.663882 0.0125068 0
M  V30 6960 H 667.176 1.95988 -0.587339 0
M  V30 6961 H 667.186 4.01125 0.745836 0
M  V30 6962 H 665.861 4.13978 -0.399327 0
M  V30 6963 H 664.438 3.49017 1.31306 0
M  V30 6964 N 666.623 0.143563 1.56945 0
M  V30 6965 C 667.863 -0.511198 1.97904 0
M  V30 6966 C 668.227 -1.62262 1.0264 0
M  V30 6967 O 669.428 -2.338 1.32631 0
M  V30 6968 C 667.699 -1.00753 3.42905 0
M  V30 6969 S 669.258 -1.66737 4.05887 0
M  V30 6970 H 666.076 -0.165399 0.691494 0
M  V30 6971 H 668.678 0.234464 1.94089 0
M  V30 6972 H 667.382 -0.187817 4.0997 0
M  V30 6973 H 666.913 -1.7879 3.50425 0
M  V30 6974 H 668.928 -2.95444 3.98657 0
M  V30 6975 N 668.101 -1.57061 -0.130224 0
M  V30 6976 C 669.326 -1.88802 -0.858409 0
M  V30 6977 C 669.751 -0.734353 -1.73173 0
M  V30 6978 O 669.109 0.315529 -1.78533 0
M  V30 6979 C 669.157 -3.19228 -1.67708 0
M  V30 6980 O 668.261 -3.04343 -2.78297 0
M  V30 6981 H 667.602 -0.619849 -0.238083 0
M  V30 6982 H 670.132 -2.04271 -0.115995 0
M  V30 6983 H 670.142 -3.51669 -2.06864 0
M  V30 6984 H 668.817 -4.02793 -1.0359 0
M  V30 6985 H 667.394 -2.83346 -2.42425 0
M  V30 6986 N 669.579 0.400081 -1.52437 0
M  V30 6987 C 670.99 0.97851 -1.59003 0
M  V30 6988 C 671.341 1.91293 -0.436068 0
M  V30 6989 O 670.466 2.1183 0.442365 0
M  V30 6990 C 671.061 1.78145 -2.88184 0
M  V30 6991 C 669.62 2.30976 -2.97199 0
M  V30 6992 C 668.767 1.11212 -2.54022 0
M  V30 6993 H 671.718 0.180002 -1.57676 0
M  V30 6994 H 671.739 2.63968 -2.74046 0
M  V30 6995 H 671.251 1.1011 -3.72152 0
M  V30 6996 H 669.352 3.02355 -2.17744 0
M  V30 6997 H 669.465 2.61221 -4.01622 0
M  V30 6998 H 667.829 1.46882 -2.08081 0
M  V30 6999 H 668.612 0.447307 -3.40373 0
M  V30 7000 N 671.057 1.43213 0.657864 0
M  V30 7001 C 672.303 1.44798 1.41991 0
M  V30 7002 C 672.636 0.070256 1.94073 0
M  V30 7003 O 671.911 -0.908177 1.71995 0
M  V30 7004 C 672.194 2.4865 2.60471 0
M  V30 7005 C 672.047 3.95679 2.13911 0
M  V30 7006 C 673.366 2.49292 3.62686 0
M  V30 7007 H 670.485 0.527244 0.514959 0
M  V30 7008 H 673.127 1.74733 0.74621 0
M  V30 7009 H 671.277 2.23254 3.17946 0
M  V30 7010 H 672.949 4.32116 1.61472 0
M  V30 7011 H 671.192 4.08733 1.45325 0
M  V30 7012 H 671.863 4.6395 2.99089 0
M  V30 7013 H 674.339 2.71917 3.14961 0
M  V30 7014 H 673.215 3.23907 4.43143 0
M  V30 7015 H 673.476 1.52502 4.14964 0
M  V30 7016 N 672.536 -0.895792 1.29666 0
M  V30 7017 C 673.947 -1.46195 1.1612 0
M  V30 7018 C 674.298 -1.94699 -0.242195 0
M  V30 7019 O 673.423 -1.8406 -1.13802 0
M  V30 7020 C 674.018 -2.65718 2.10189 0
M  V30 7021 C 672.577 -3.18458 2.00653 0
M  V30 7022 C 671.724 -1.91149 2.00891 0
M  V30 7023 H 674.675 -0.706756 1.42094 0
M  V30 7024 H 674.696 -3.4158 1.6764 0
M  V30 7025 H 674.208 -2.30386 3.12321 0
M  V30 7026 H 672.309 -3.58474 1.01623 0
M  V30 7027 H 672.422 -3.82491 2.88509 0
M  V30 7028 H 670.786 -2.09021 1.45542 0
M  V30 7029 H 671.569 -1.58089 3.04734 0
M  V30 7030 N 674.014 -1.12206 -1.10668 0
M  V30 7031 C 674.977 -0.790867 -2.15123 0
M  V30 7032 C 675.977 0.193618 -1.5963 0
M  V30 7033 O 677.167 -0.0318728 -1.74171 0
M  V30 7034 C 674.299 -0.174797 -3.40452 0
M  V30 7035 H 675.492 -1.7163 -2.45933 0
M  V30 7036 H 673.045 -0.924993 -1.2599 0
M  V30 7037 H 673.78 0.760478 -3.15257 0
M  V30 7038 H 673.565 -0.88358 -3.82015 0
M  V30 7039 H 675.055 0.0405162 -4.1758 0
M  V30 7040 N 675.492 1.28418 -0.913599 0
M  V30 7041 C 676.769 1.89977 -0.465619 0
M  V30 7042 C 677.149 1.82813 1.05559 0
M  V30 7043 O 676.497 1.26397 1.90358 0
M  V30 7044 C 676.707 3.34492 -0.995813 0
M  V30 7045 C 678.055 4.11468 -1.04782 0
M  V30 7046 O 679.079 3.43451 -0.944445 0
M  V30 7047 O 677.938 5.33046 -1.20518 0
M  V30 7048 H 675.032 0.813734 -0.147532 0
M  V30 7049 H 677.578 1.36786 -1.00437 0
M  V30 7050 H 676.35 3.33929 -2.03978 0
M  V30 7051 H 675.973 3.95181 -0.437878 0
M  V30 7052 N 676.97 0.677563 1.42291 0
M  V30 7053 C 678.198 0.209459 2.05837 0
M  V30 7054 C 678.613 -1.13444 1.50917 0
M  V30 7055 O 677.97 -1.70529 0.65008 0
M  V30 7056 C 678.021 0.138819 3.61233 0
M  V30 7057 O 677.742 1.42962 4.14118 0
M  V30 7058 C 679.243 -0.352449 4.41897 0
M  V30 7059 H 676.463 0.101209 0.663323 0
M  V30 7060 H 679.007 0.925077 1.8238 0
M  V30 7061 H 677.162 -0.527505 3.83792 0
M  V30 7062 H 677.576 1.3048 5.08011 0
M  V30 7063 H 679.05 -0.350778 5.50884 0
M  V30 7064 H 679.527 -1.3882 4.16684 0
M  V30 7065 H 680.133 0.282236 4.24362 0
M  V30 7066 N 678.448 -1.51871 0.421078 0
M  V30 7067 C 679.411 -2.25914 -0.386712 0
M  V30 7068 C 680.411 -1.28733 -0.963555 0
M  V30 7069 O 681.601 -1.52579 -0.840556 0
M  V30 7070 C 678.733 -3.03853 -1.54551 0
M  V30 7071 H 679.926 -2.98754 0.261978 0
M  V30 7072 H 677.479 -1.5533 0.173862 0
M  V30 7073 H 678.214 -2.35392 -2.23072 0
M  V30 7074 H 677.999 -3.75215 -1.13824 0
M  V30 7075 H 679.489 -3.59984 -2.11663 0
M  V30 7076 N 679.926 -0.151884 -1.56866 0
M  V30 7077 C 680.858 0.817008 -2.14144 0
M  V30 7078 C 681.871 1.20735 -1.0921 0
M  V30 7079 O 683.06 1.15058 -1.36469 0
M  V30 7080 C 680.16 2.10844 -2.65326 0
M  V30 7081 C 679.333 1.88471 -3.94712 0
M  V30 7082 C 678.392 3.01649 -4.31155 0
M  V30 7083 O 677.418 2.73127 -4.9939 0
M  V30 7084 N 678.62 4.28947 -3.91132 0
M  V30 7085 H 681.385 0.327448 -2.97906 0
M  V30 7086 H 678.946 0.0315313 -1.61869 0
M  V30 7087 H 680.938 2.85616 -2.86715 0
M  V30 7088 H 679.508 2.51049 -1.86262 0
M  V30 7089 H 678.728 0.977088 -3.81899 0
M  V30 7090 H 680.016 1.70866 -4.79252 0
M  V30 7091 H 679.414 4.54986 -3.36161 0
M  V30 7092 H 677.971 5.00484 -4.17563 0
M  V30 7093 N 681.404 1.57128 0.121893 0
M  V30 7094 C 682.632 1.88883 0.844451 0
M  V30 7095 C 683.047 0.742824 1.73573 0
M  V30 7096 O 682.404 -0.286475 1.80238 0
M  V30 7097 C 682.455 3.20076 1.68029 0
M  V30 7098 O 682.176 4.30264 0.824898 0
M  V30 7099 C 683.677 3.65515 2.50826 0
M  V30 7100 H 680.897 0.62549 0.242907 0
M  V30 7101 H 683.441 2.04219 0.107151 0
M  V30 7102 H 681.596 3.06418 2.37038 0
M  V30 7103 H 682.01 5.05439 1.40113 0
M  V30 7104 H 683.484 4.60081 3.05008 0
M  V30 7105 H 683.961 2.92029 3.28048 0
M  V30 7106 H 684.567 3.81952 1.87064 0
M  V30 7107 N 682.882 -0.391992 1.52647 0
M  V30 7108 C 684.128 -1.139 1.67793 0
M  V30 7109 C 684.461 -1.89711 0.41514 0
M  V30 7110 O 683.736 -1.85431 -0.586979 0
M  V30 7111 C 684.019 -2.11966 2.91105 0
M  V30 7112 C 683.872 -1.39939 4.27478 0
M  V30 7113 C 685.191 -3.1243 3.09961 0
M  V30 7114 H 682.31 -0.412707 0.610608 0
M  V30 7115 H 684.952 -0.422725 1.85238 0
M  V30 7116 H 683.102 -2.73048 2.76364 0
M  V30 7117 H 684.774 -0.818439 4.53982 0
M  V30 7118 H 683.017 -0.701246 4.28095 0
M  V30 7119 H 683.688 -2.1158 5.09841 0
M  V30 7120 H 686.164 -2.61435 3.23714 0
M  V30 7121 H 685.04 -3.78294 3.97725 0
M  V30 7122 H 685.301 -3.81127 2.24042 0
M  V30 7123 N 684.36 -1.4356 -0.65026 0
M  V30 7124 C 685.608 -1.45046 -1.40734 0
M  V30 7125 C 685.929 -0.0769822 -1.94848 0
M  V30 7126 O 685.199 0.888098 -1.74613 0
M  V30 7127 H 683.779 -0.534034 -0.522318 0
M  V30 7128 H 686.441 -1.79186 -0.766703 0
M  V30 7129 H 685.537 -2.16476 -2.24822 0
M  V30 7130 N 685.838 0.888903 -1.30139 0
M  V30 7131 C 687.254 1.17153 -1.08385 0
M  V30 7132 C 687.454 2.0088 0.157925 0
M  V30 7133 O 686.51 2.37668 0.852652 0
M  V30 7134 C 687.823 1.882 -2.34523 0
M  V30 7135 C 689.371 2.00981 -2.39949 0
M  V30 7136 C 689.846 2.75441 -3.65918 0
M  V30 7137 N 691.337 2.82989 -3.66704 0
M  V30 7138 C 692.072 3.41167 -4.60861 0
M  V30 7139 N 691.568 4.00425 -5.6536 0
M  V30 7140 N 693.361 3.38944 -4.48412 0
M  V30 7141 H 685.512 0.33053 -2.09812 0
M  V30 7142 H 687.775 0.208964 -0.924683 0
M  V30 7143 H 687.481 1.34119 -3.25123 0
M  V30 7144 H 687.355 2.88609 -2.42868 0
M  V30 7145 H 689.742 2.54234 -1.4983 0
M  V30 7146 H 689.823 0.996725 -2.35582 0
M  V30 7147 H 689.467 2.22861 -4.56394 0
M  V30 7148 H 689.397 3.77118 -3.67546 0
M  V30 7149 H 691.888 2.40912 -2.91153 0
M  V30 7150 H 692.201 4.42871 -6.33313 0
M  V30 7151 H 690.546 3.98856 -5.69157 0
M  V30 7152 H 693.737 2.91875 -3.6596 0
M  V30 7153 H 693.91 3.83989 -5.21974 0
M  V30 7154 N 687.317 1.12792 1.10072 0
M  V30 7155 C 688.733 0.864745 1.34143 0
M  V30 7156 C 688.933 -0.503201 1.95116 0
M  V30 7157 O 687.989 -1.25111 2.19325 0
M  V30 7158 C 689.302 1.98413 2.25949 0
M  V30 7159 C 690.85 2.01545 2.39476 0
M  V30 7160 C 691.325 3.12727 3.34613 0
M  V30 7161 N 692.816 3.12194 3.42183 0
M  V30 7162 C 693.551 3.94862 4.15779 0
M  V30 7163 N 693.047 4.87528 4.92228 0
M  V30 7164 N 694.84 3.82985 4.11435 0
M  V30 7165 H 686.991 2.00926 0.68866 0
M  V30 7166 H 689.254 0.874564 0.365844 0
M  V30 7167 H 688.96 2.97005 1.88364 0
M  V30 7168 H 688.834 1.89254 3.26287 0
M  V30 7169 H 691.221 1.0357 2.76328 0
M  V30 7170 H 691.302 2.14777 1.3894 0
M  V30 7171 H 690.946 4.10936 2.98486 0
M  V30 7172 H 690.876 2.96732 4.35037 0
M  V30 7173 H 693.367 2.45065 2.87666 0
M  V30 7174 H 693.68 5.47109 5.45794 0
M  V30 7175 H 692.025 4.91539 4.9134 0
M  V30 7176 H 695.216 3.09923 3.50807 0
M  V30 7177 H 695.389 4.47641 4.68531 0
M  V30 7178 N 688.795 -1.27931 0.920396 0
M  V30 7179 C 689.725 -2.29487 0.431024 0
M  V30 7180 C 690.706 -1.62435 -0.504861 0
M  V30 7181 O 691.891 -1.89797 -0.411176 0
M  V30 7182 C 689.021 -3.45788 -0.323709 0
M  V30 7183 C 687.975 -4.24784 0.523658 0
M  V30 7184 C 687.301 -5.33488 -0.359809 0
M  V30 7185 C 688.601 -4.90874 1.78437 0
M  V30 7186 H 690.295 -2.70671 1.27975 0
M  V30 7187 H 687.841 -1.30121 0.616813 0
M  V30 7188 H 689.794 -4.15927 -0.676952 0
M  V30 7189 H 688.518 -3.03502 -1.2064 0
M  V30 7190 H 687.177 -3.56382 0.85951 0
M  V30 7191 H 686.825 -4.87445 -1.24124 0
M  V30 7192 H 686.525 -5.87247 0.203605 0
M  V30 7193 H 688.049 -6.06472 -0.708787 0
M  V30 7194 H 689.463 -5.53339 1.49963 0
M  V30 7195 H 687.86 -5.54659 2.29071 0
M  V30 7196 H 688.93 -4.14988 2.50824 0
M  V30 7197 N 690.273 -0.685099 -1.4193 0
M  V30 7198 C 691.498 -0.218842 -2.06242 0
M  V30 7199 C 691.923 1.11923 -1.51178 0
M  V30 7200 O 691.281 1.69837 -0.634446 0
M  V30 7201 C 691.329 -0.175592 -3.60172 0
M  V30 7202 O 690.433 0.852776 -4.03487 0
M  V30 7203 H 689.774 -0.109531 -0.654904 0
M  V30 7204 H 692.304 -0.937013 -1.81882 0
M  V30 7205 H 692.314 -0.00291151 -4.08 0
M  V30 7206 H 690.989 -1.15222 -3.99621 0
M  V30 7207 H 689.566 0.650301 -3.67186 0
M  V30 7208 N 691.751 1.51645 -0.429126 0
M  V30 7209 C 692.979 2.06433 0.138994 0
M  V30 7210 C 693.394 1.29735 1.37165 0
M  V30 7211 O 692.751 0.354638 1.79021 0
M  V30 7212 C 692.802 3.58439 0.469452 0
M  V30 7213 O 692.523 4.32238 -0.714273 0
M  V30 7214 C 694.024 4.29712 1.08914 0
M  V30 7215 H 691.244 0.6709 0.0115608 0
M  V30 7216 H 693.788 1.9532 -0.605843 0
M  V30 7217 H 691.943 3.69494 1.16419 0
M  V30 7218 H 692.357 5.22704 -0.433633 0
M  V30 7219 H 693.831 5.37182 1.27042 0
M  V30 7220 H 694.308 3.87473 2.06788 0
M  V30 7221 H 694.914 4.2308 0.434028 0
M  V30 7222 N 693.229 0.160201 1.56784 0
M  V30 7223 C 694.477 -0.486625 1.96154 0
M  V30 7224 C 694.798 -1.64525 1.04673 0
M  V30 7225 O 694.068 -1.95586 0.110864 0
M  V30 7226 H 692.648 -0.182764 0.724297 0
M  V30 7227 H 695.31 0.238787 1.93432 0
M  V30 7228 H 694.406 -0.854025 3.00188 0
M  V30 7229 N 694.707 -1.5719 -0.113559 0
M  V30 7230 C 695.932 -1.89702 -0.838336 0
M  V30 7231 C 696.357 -0.752679 -1.72384 0
M  V30 7232 O 695.715 0.296575 -1.78858 0
M  V30 7233 C 695.763 -3.20989 -1.64312 0
M  V30 7234 O 694.867 -3.07278 -2.75053 0
M  V30 7235 H 694.208 -0.622339 -0.231496 0
M  V30 7236 H 696.738 -2.04382 -0.0943228 0
M  V30 7237 H 696.748 -3.53843 -2.03123 0
M  V30 7238 H 695.423 -4.03869 -0.993119 0
M  V30 7239 H 694 -2.85901 -2.39406 0
M  V30 7240 N 696.185 0.383891 -1.52853 0
M  V30 7241 C 697.41 1.154 -1.7233 0
M  V30 7242 C 697.835 1.82809 -0.44298 0
M  V30 7243 O 697.193 1.71026 0.601645 0
M  V30 7244 C 697.241 2.17386 -2.87708 0
M  V30 7245 O 696.345 3.24082 -2.55038 0
M  V30 7246 H 695.686 0.335709 -0.572883 0
M  V30 7247 H 698.216 0.44662 -1.99666 0
M  V30 7248 H 698.226 2.61296 -3.1335 0
M  V30 7249 H 696.901 1.6771 -3.80587 0
M  V30 7250 H 695.478 2.85273 -2.40153 0
M  V30 7251 N 697.663 1.43903 0.642637 0
M  V30 7252 C 699.079 1.27536 0.959519 0
M  V30 7253 C 699.279 0.202751 2.00477 0
M  V30 7254 O 698.335 -0.415256 2.49062 0
M  V30 7255 C 699.648 2.6432 1.43372 0
M  V30 7256 C 701.196 2.71937 1.54981 0
M  V30 7257 C 701.671 4.09164 2.05789 0
M  V30 7258 N 703.162 4.11282 2.13076 0
M  V30 7259 C 703.897 5.14303 2.53534 0
M  V30 7260 N 703.393 6.27693 2.93212 0
M  V30 7261 N 705.186 5.01657 2.53567 0
M  V30 7262 H 697.337 2.12344 -0.0488376 0
M  V30 7263 H 699.6 0.947124 0.0407559 0
M  V30 7264 H 699.306 3.43826 0.740048 0
M  V30 7265 H 699.18 2.90432 2.40685 0
M  V30 7266 H 701.567 1.92757 2.23448 0
M  V30 7267 H 701.648 2.49578 0.560739 0
M  V30 7268 H 701.292 4.88815 1.37921 0
M  V30 7269 H 701.222 4.28893 3.05546 0
M  V30 7270 H 703.713 3.2944 1.85143 0
M  V30 7271 H 704.026 7.02125 3.22863 0
M  V30 7272 H 702.371 6.31149 2.90991 0
M  V30 7273 H 705.562 4.12134 2.21952 0
M  V30 7274 H 705.735 5.82072 2.84774 0
M  V30 7275 N 699.141 -0.881989 1.30609 0
M  V30 7276 C 700.552 -1.44956 1.17664 0
M  V30 7277 C 700.903 -1.94945 -0.221531 0
M  V30 7278 O 700.028 -1.85257 -1.11844 0
M  V30 7279 C 700.623 -2.63474 2.12995 0
M  V30 7280 C 699.182 -3.16312 2.04019 0
M  V30 7281 C 698.329 -1.89008 2.02907 0
M  V30 7282 H 701.28 -0.691645 1.42835 0
M  V30 7283 H 701.301 -3.39783 1.71253 0
M  V30 7284 H 700.813 -2.2706 3.14746 0
M  V30 7285 H 698.914 -3.57376 1.0542 0
M  V30 7286 H 699.027 -3.79409 2.9255 0
M  V30 7287 H 697.391 -2.07465 1.47751 0
M  V30 7288 H 698.174 -1.54848 3.06394 0
M  V30 7289 N 700.619 -1.13374 -1.09472 0
M  V30 7290 C 701.849 -0.917019 -1.85133 0
M  V30 7291 C 702.257 0.537568 -1.81402 0
M  V30 7292 O 701.6 1.38385 -1.20811 0
M  V30 7293 C 701.662 -1.32646 -3.34134 0
M  V30 7294 C 701.326 -2.79437 -3.61613 0
M  V30 7295 C 702.323 -3.77596 -3.57375 0
M  V30 7296 C 700.008 -3.16586 -3.89973 0
M  V30 7297 C 702.002 -5.10916 -3.81108 0
M  V30 7298 C 699.689 -4.50085 -4.13361 0
M  V30 7299 C 700.687 -5.47059 -4.0892 0
M  V30 7300 O 700.375 -6.78149 -4.31705 0
M  V30 7301 H 700.107 -0.326997 -0.591649 0
M  V30 7302 H 702.661 -1.51002 -1.39239 0
M  V30 7303 H 700.891 -0.676719 -3.80733 0
M  V30 7304 H 702.58 -1.08229 -3.91205 0
M  V30 7305 H 703.346 -3.50242 -3.35493 0
M  V30 7306 H 699.225 -2.41707 -3.92554 0
M  V30 7307 H 702.769 -5.86597 -3.77558 0
M  V30 7308 H 698.666 -4.77163 -4.34724 0
M  V30 7309 H 699.434 -6.84244 -4.49168 0
M  V30 7310 N 702.098 1.27442 -0.927168 0
M  V30 7311 C 703.323 1.99036 -0.583042 0
M  V30 7312 C 703.748 1.68711 0.83176 0
M  V30 7313 O 703.106 0.927081 1.55804 0
M  V30 7314 C 703.154 3.51271 -0.814925 0
M  V30 7315 O 702.258 4.12226 0.119742 0
M  V30 7316 H 701.599 0.624883 -0.224538 0
M  V30 7317 H 704.129 1.62263 -1.24628 0
M  V30 7318 H 704.139 4.01411 -0.730282 0
M  V30 7319 H 702.814 3.72676 -1.84623 0
M  V30 7320 H 701.391 3.72897 -0.0147688 0
M  V30 7321 N 703.576 0.692616 1.41565 0
M  V30 7322 C 704.987 0.297478 1.84315 0
M  V30 7323 C 705.338 -1.16379 1.57957 0
M  V30 7324 O 704.463 -1.89303 1.0485 0
M  V30 7325 C 705.058 0.533136 3.34579 0
M  V30 7326 C 703.617 0.191944 3.7591 0
M  V30 7327 C 702.764 0.816873 2.64995 0
M  V30 7328 H 705.715 0.893488 1.31158 0
M  V30 7329 H 705.736 -0.209105 3.79925 0
M  V30 7330 H 705.248 1.59674 3.53731 0
M  V30 7331 H 703.349 -0.867512 3.6236 0
M  V30 7332 H 703.462 0.644902 4.7474 0
M  V30 7333 H 701.826 0.246715 2.53502 0
M  V30 7334 H 702.609 1.88429 2.86966 0
M  V30 7335 N 705.054 -1.51416 0.437162 0
M  V30 7336 C 706.279 -2.0699 -0.130424 0
M  V30 7337 C 706.704 -1.30249 -1.35709 0
M  V30 7338 O 706.062 -0.340388 -1.78076 0
M  V30 7339 C 706.11 -3.5801 -0.43142 0
M  V30 7340 O 705.214 -3.8345 -1.5179 0
M  V30 7341 H 704.555 -0.663997 -0.00194339 0
M  V30 7342 H 707.085 -1.95029 0.618445 0
M  V30 7343 H 707.095 -4.02261 -0.681926 0
M  V30 7344 H 705.77 -4.13291 0.465137 0
M  V30 7345 H 704.347 -3.51062 -1.25737 0
M  V30 7346 N 706.532 -0.168513 -1.56696 0
M  V30 7347 C 707.943 0.348694 -1.83415 0
M  V30 7348 C 708.294 1.63257 -1.0882 0
M  V30 7349 O 707.419 2.13707 -0.340333 0
M  V30 7350 C 708.014 0.639423 -3.32711 0
M  V30 7351 C 706.573 1.10108 -3.59935 0
M  V30 7352 C 705.72 0.135464 -2.76969 0
M  V30 7353 H 708.671 -0.392829 -1.53761 0
M  V30 7354 H 708.692 1.49179 -3.50037 0
M  V30 7355 H 708.204 -0.295173 -3.86976 0
M  V30 7356 H 706.305 2.05088 -3.11079 0
M  V30 7357 H 706.418 1.01218 -4.68286 0
M  V30 7358 H 704.782 0.632286 -2.46727 0
M  V30 7359 H 705.565 -0.793104 -3.34013 0
M  V30 7360 N 708.01 1.57248 0.105221 0
M  V30 7361 C 708.94 2.04374 1.12931 0
M  V30 7362 C 709.921 0.93074 1.42377 0
M  V30 7363 O 711.106 1.20136 1.52581 0
M  V30 7364 C 708.236 2.45967 2.45189 0
M  V30 7365 C 707.19 3.60838 2.30174 0
M  V30 7366 C 706.516 3.88374 3.67518 0
M  V30 7367 C 707.816 4.92084 1.75073 0
M  V30 7368 H 709.51 2.9018 0.737287 0
M  V30 7369 H 707.056 1.39601 0.353211 0
M  V30 7370 H 709.009 2.77542 3.17094 0
M  V30 7371 H 707.733 1.57148 2.86308 0
M  V30 7372 H 706.392 3.29493 1.60716 0
M  V30 7373 H 706.04 2.96739 4.06147 0
M  V30 7374 H 705.74 4.65703 3.58321 0
M  V30 7375 H 707.264 4.22415 4.40906 0
M  V30 7376 H 708.678 5.22106 2.36809 0
M  V30 7377 H 707.075 5.73507 1.76662 0
M  V30 7378 H 708.145 4.79684 0.709347 0
M  V30 7379 N 709.488 -0.375779 1.53054 0
M  V30 7380 C 710.734 -1.12114 1.68992 0
M  V30 7381 C 711.067 -1.8926 0.435238 0
M  V30 7382 O 710.342 -1.86044 -0.567278 0
M  V30 7383 C 710.625 -2.08867 2.93337 0
M  V30 7384 C 710.478 -1.35397 4.28938 0
M  V30 7385 C 711.797 -3.09124 3.13257 0
M  V30 7386 H 708.916 -0.406207 0.614951 0
M  V30 7387 H 711.558 -0.403054 1.85676 0
M  V30 7388 H 709.708 -2.70102 2.79244 0
M  V30 7389 H 711.38 -0.770242 4.54824 0
M  V30 7390 H 709.623 -0.655801 4.28814 0
M  V30 7391 H 710.294 -2.06161 5.12056 0
M  V30 7392 H 712.77 -2.57987 3.26469 0
M  V30 7393 H 711.646 -3.74054 4.01715 0
M  V30 7394 H 711.907 -3.78729 2.28072 0
M  V30 7395 N 710.966 -1.44241 -0.634997 0
M  V30 7396 C 712.214 -1.46531 -1.39187 0
M  V30 7397 C 712.535 -0.0976441 -1.94755 0
M  V30 7398 O 711.805 0.869528 -1.75545 0
M  V30 7399 H 710.385 -0.539544 -0.516625 0
M  V30 7400 H 713.047 -1.79989 -0.747655 0
M  V30 7401 H 712.143 -2.18848 -2.22513 0
M  V30 7402 N 712.444 0.87505 -1.31075 0
M  V30 7403 C 713.672 1.66058 -1.23419 0
M  V30 7404 C 714.087 1.87723 0.201347 0
M  V30 7405 O 713.444 1.43178 1.13165 0
M  V30 7406 C 713.495 3.03142 -1.96945 0
M  V30 7407 O 713.216 2.82448 -3.34895 0
M  V30 7408 C 714.717 3.97583 -1.96067 0
M  V30 7409 H 711.937 0.517868 -0.426677 0
M  V30 7410 H 714.481 1.09258 -1.72867 0
M  V30 7411 H 712.636 3.56645 -1.51271 0
M  V30 7412 H 713.05 3.69483 -3.72267 0
M  V30 7413 H 714.524 4.91104 -2.52034 0
M  V30 7414 H 715.001 4.2898 -0.941961 0
M  V30 7415 H 715.607 3.50015 -2.41597 0
M  V30 7416 N 713.922 1.13953 1.08869 0
M  V30 7417 C 715.171 0.899431 1.80536 0
M  V30 7418 C 715.484 -0.575781 1.86933 0
M  V30 7419 O 716.69 -0.932988 2.54966 0
M  V30 7420 C 715.146 1.55963 3.24351 0
M  V30 7421 C 714.754 3.07077 3.26202 0
M  V30 7422 C 716.498 1.40046 4.00733 0
M  V30 7423 C 714.405 3.65955 4.64576 0
M  V30 7424 H 713.335 0.332849 0.676556 0
M  V30 7425 H 715.986 1.3679 1.22314 0
M  V30 7426 H 714.368 1.01883 3.82669 0
M  V30 7427 H 715.542 3.67785 2.77617 0
M  V30 7428 H 713.857 3.22576 2.63312 0
M  V30 7429 H 716.454 1.81441 5.02974 0
M  V30 7430 H 716.797 0.345993 4.1486 0
M  V30 7431 H 717.33 1.91137 3.48872 0
M  V30 7432 H 714.069 4.71234 4.55652 0
M  V30 7433 H 713.589 3.10027 5.13462 0
M  V30 7434 H 715.268 3.65968 5.33551 0
M  V30 7435 N 715.4 -1.26948 0.933913 0
M  V30 7436 C 716.811 -1.76058 0.621324 0
M  V30 7437 C 717.162 -1.76175 -0.863522 0
M  V30 7438 O 716.287 -1.36921 -1.67576 0
M  V30 7439 C 716.882 -3.19713 1.12111 0
M  V30 7440 C 715.441 -3.66465 0.859074 0
M  V30 7441 C 714.588 -2.46186 1.27624 0
M  V30 7442 H 717.539 -1.13127 1.11301 0
M  V30 7443 H 717.56 -3.77566 0.471608 0
M  V30 7444 H 717.072 -3.19596 2.20182 0
M  V30 7445 H 715.173 -3.72021 -0.207566 0
M  V30 7446 H 715.286 -4.55636 1.48098 0
M  V30 7447 H 713.65 -2.45042 0.694727 0
M  V30 7448 H 714.433 -2.48774 2.36572 0
M  V30 7449 N 716.879 -0.700114 -1.41195 0
M  V30 7450 C 717.789 -0.0382854 -2.34569 0
M  V30 7451 C 718.805 0.761036 -1.56474 0
M  V30 7452 O 719.981 0.697553 -1.88934 0
M  V30 7453 C 717.046 0.883522 -3.35253 0
M  V30 7454 C 716.107 0.0758957 -4.29233 0
M  V30 7455 C 715.34 0.9538 -5.25108 0
M  V30 7456 O 715.563 2.19326 -5.26547 0
M  V30 7457 O 714.497 0.401049 -6.00562 0
M  V30 7458 H 718.323 -0.808073 -2.92752 0
M  V30 7459 H 715.908 -0.460479 -1.42127 0
M  V30 7460 H 717.79 1.41199 -3.9704 0
M  V30 7461 H 716.465 1.63272 -2.79506 0
M  V30 7462 H 715.372 -0.497274 -3.7078 0
M  V30 7463 H 716.705 -0.634741 -4.8809 0
M  V30 7464 N 718.357 1.51182 -0.445186 0
M  V30 7465 C 719.289 2.25714 0.398206 0
M  V30 7466 C 720.302 1.30032 0.979562 0
M  V30 7467 O 721.491 1.55731 0.872368 0
M  V30 7468 C 718.591 3.00348 1.56985 0
M  V30 7469 C 717.764 4.23187 1.10596 0
M  V30 7470 C 716.823 4.80334 2.14863 0
M  V30 7471 O 715.849 5.4196 1.73977 0
M  V30 7472 N 717.051 4.65053 3.47427 0
M  V30 7473 H 719.816 2.98732 -0.240629 0
M  V30 7474 H 717.377 1.59556 -0.274507 0
M  V30 7475 H 719.369 3.35464 2.26376 0
M  V30 7476 H 717.939 2.30291 2.11387 0
M  V30 7477 H 717.159 3.93476 0.238832 0
M  V30 7478 H 718.447 5.02886 0.773537 0
M  V30 7479 H 717.845 4.15984 3.83372 0
M  V30 7480 H 716.402 5.04509 4.12691 0
M  V30 7481 N 719.835 0.176821 1.56605 0
M  V30 7482 C 721.082 -0.466715 1.97048 0
M  V30 7483 C 721.41 -1.6288 1.06302 0
M  V30 7484 O 720.665 -1.95453 0.0982571 0
M  V30 7485 C 720.964 -0.986208 3.43524 0
M  V30 7486 C 720.63 0.0605667 4.50859 0
M  V30 7487 C 719.292 0.348242 4.79938 0
M  V30 7488 C 721.644 0.770794 5.15469 0
M  V30 7489 C 718.972 1.35144 5.70923 0
M  V30 7490 C 721.324 1.76301 6.07537 0
M  V30 7491 C 719.988 2.05808 6.3498 0
M  V30 7492 H 719.258 -0.170783 0.721051 0
M  V30 7493 H 721.905 0.269942 1.89588 0
M  V30 7494 H 720.21 -1.80079 3.47964 0
M  V30 7495 H 721.907 -1.49323 3.72161 0
M  V30 7496 H 718.497 -0.173823 4.28247 0
M  V30 7497 H 722.681 0.56176 4.9311 0
M  V30 7498 H 717.937 1.58616 5.90467 0
M  V30 7499 H 722.111 2.31868 6.56666 0
M  V30 7500 H 719.738 2.8369 7.05283 0
M  V30 7501 N 721.313 -1.57302 -0.09688 0
M  V30 7502 C 722.538 -1.9058 -0.818169 0
M  V30 7503 C 722.963 -0.770921 -1.71576 0
M  V30 7504 O 722.321 0.277588 -1.79162 0
M  V30 7505 C 722.369 -3.22714 -1.60898 0
M  V30 7506 O 721.473 -3.10178 -2.71779 0
M  V30 7507 H 720.814 -0.624759 -0.224882 0
M  V30 7508 H 723.344 -2.04471 -0.07264 0
M  V30 7509 H 723.354 -3.55978 -1.99358 0
M  V30 7510 H 722.029 -4.04899 -0.950227 0
M  V30 7511 H 720.606 -2.88424 -2.3636 0
M  V30 7512 N 722.791 0.367657 -1.53252 0
M  V30 7513 C 723.723 1.47032 -1.75824 0
M  V30 7514 C 724.736 1.49736 -0.63898 0
M  V30 7515 O 725.925 1.53253 -0.915193 0
M  V30 7516 C 723.025 2.85805 -1.82122 0
M  V30 7517 C 722.198 3.06822 -3.11736 0
M  V30 7518 C 721.257 4.25698 -3.09302 0
M  V30 7519 O 720.283 4.20972 -3.83107 0
M  V30 7520 N 721.485 5.33002 -2.29977 0
M  V30 7521 H 724.25 1.28048 -2.70968 0
M  V30 7522 H 721.811 0.557363 -1.52004 0
M  V30 7523 H 723.803 3.63465 -1.77975 0
M  V30 7524 H 722.373 2.98046 -0.942716 0
M  V30 7525 H 721.593 2.1684 -3.29202 0
M  V30 7526 H 722.881 3.17731 -3.97397 0
M  V30 7527 H 722.279 5.39703 -1.69521 0
M  V30 7528 H 720.836 6.09247 -2.3165 0
M  V30 7529 N 724.269 1.44576 0.627338 0
M  V30 7530 C 725.509 1.49083 1.39834 0
M  V30 7531 C 725.873 0.121643 1.91614 0
M  V30 7532 O 727.074 0.0413885 2.68768 0
M  V30 7533 C 725.345 2.52467 2.52973 0
M  V30 7534 S 726.904 2.7605 3.41089 0
M  V30 7535 H 723.722 0.527252 0.476997 0
M  V30 7536 H 726.324 1.81525 0.725872 0
M  V30 7537 H 725.028 3.50646 2.13249 0
M  V30 7538 H 724.559 2.2161 3.25042 0
M  V30 7539 H 726.574 2.07932 4.50531 0
M  V30 7540 N 725.747 -0.868086 1.31537 0
M  V30 7541 C 726.987 -1.63526 1.22632 0
M  V30 7542 C 727.351 -1.90828 -0.211815 0
M  V30 7543 O 728.552 -2.65429 -0.424387 0
M  V30 7544 C 726.823 -2.92849 2.04876 0
M  V30 7545 S 728.382 -3.83717 2.12853 0
M  V30 7546 H 725.2 -0.56105 0.436743 0
M  V30 7547 H 727.802 -1.02908 1.66223 0
M  V30 7548 H 726.506 -2.70717 3.08449 0
M  V30 7549 H 726.037 -3.58491 1.62011 0
M  V30 7550 H 728.052 -4.79719 1.26822 0
M  V30 7551 N 727.225 -1.14528 -1.08264 0
M  V30 7552 C 728.465 -0.924808 -1.82282 0
M  V30 7553 C 728.829 0.538881 -1.84283 0
M  V30 7554 O 730.03 0.877355 -2.54079 0
M  V30 7555 C 728.301 -1.51102 -3.23887 0
M  V30 7556 S 729.86 -1.43232 -4.14765 0
M  V30 7557 H 726.678 -0.333052 -0.62817 0
M  V30 7558 H 729.28 -1.45905 -1.30123 0
M  V30 7559 H 727.984 -2.56942 -3.20014 0
M  V30 7560 H 727.515 -0.975234 -3.8112 0
M  V30 7561 H 729.53 -0.418843 -4.94429 0
M  V30 7562 N 728.703 1.26451 -0.940633 0
M  V30 7563 C 729.951 1.93395 -0.586748 0
M  V30 7564 C 730.272 1.7417 0.876921 0
M  V30 7565 O 729.542 1.097 1.62304 0
M  V30 7566 H 728.122 0.715687 -0.214012 0
M  V30 7567 H 730.784 1.53902 -1.19584 0
M  V30 7568 H 729.88 3.01565 -0.804059 0
M  V30 7569 N 730.181 0.707592 1.40822 0
M  V30 7570 C 731.131 0.0265008 2.27985 0
M  V30 7571 C 732.115 -0.740685 1.42838 0
M  V30 7572 O 733.307 -0.6142 1.66002 0
M  V30 7573 C 730.436 -0.900382 3.31282 0
M  V30 7574 C 729.522 -0.128807 4.23904 0
M  V30 7575 N 729.913 0.883744 4.9802 0
M  V30 7576 C 728.211 -0.362539 4.44524 0
M  V30 7577 C 728.912 1.34666 5.65898 0
M  V30 7578 N 727.888 0.670306 5.39451 0
M  V30 7579 H 731.69 0.802667 2.82727 0
M  V30 7580 H 729.204 0.539475 1.53178 0
M  V30 7581 H 731.201 -1.40357 3.92563 0
M  V30 7582 H 729.861 -1.67601 2.781 0
M  V30 7583 H 730.872 1.26435 5.0223 0
M  V30 7584 H 727.549 -1.11512 4.02332 0
M  V30 7585 H 728.939 2.18756 6.35292 0
M  V30 7586 N 731.66 -1.50943 0.453197 0
M  V30 7587 C 733.071 -1.86699 -0.00619892 0
M  V30 7588 C 733.422 -1.3693 -1.40515 0
M  V30 7589 O 732.547 -0.726715 -2.03833 0
M  V30 7590 C 733.142 -3.38795 -0.018025 0
M  V30 7591 C 731.701 -3.74028 -0.421885 0
M  V30 7592 C 730.848 -2.74752 0.375087 0
M  V30 7593 H 733.799 -1.43942 0.668317 0
M  V30 7594 H 733.82 -3.71468 -0.824125 0
M  V30 7595 H 733.332 -3.74988 1.00028 0
M  V30 7596 H 731.433 -3.43431 -1.44521 0
M  V30 7597 H 731.546 -4.78908 -0.135664 0
M  V30 7598 H 729.91 -2.5414 -0.168794 0
M  V30 7599 H 730.693 -3.13787 1.39256 0
M  V30 7600 N 733.138 -0.185124 -1.56509 0
M  V30 7601 C 734.07 0.771401 -2.15829 0
M  V30 7602 C 735.083 1.18392 -1.11747 0
M  V30 7603 O 736.272 1.12137 -1.38879 0
M  V30 7604 C 733.372 2.05169 -2.69739 0
M  V30 7605 C 732.545 1.80056 -3.98621 0
M  V30 7606 C 731.604 2.92435 -4.37456 0
M  V30 7607 O 730.63 2.62473 -5.05071 0
M  V30 7608 N 731.832 4.20554 -4.00143 0
M  V30 7609 H 734.597 0.264184 -2.98533 0
M  V30 7610 H 732.158 -0.00281069 -1.619 0
M  V30 7611 H 734.15 2.7947 -2.92709 0
M  V30 7612 H 732.72 2.47041 -1.91545 0
M  V30 7613 H 731.94 0.895862 -3.83885 0
M  V30 7614 H 733.228 1.60662 -4.82768 0
M  V30 7615 H 732.626 4.47753 -3.45736 0
M  V30 7616 H 731.183 4.91514 -4.28085 0
M  V30 7617 N 734.616 1.57351 0.0885366 0
M  V30 7618 C 735.864 1.86051 0.789262 0
M  V30 7619 C 736.185 0.774763 1.78948 0
M  V30 7620 O 735.455 -0.198324 1.94894 0
M  V30 7621 H 734.035 0.686508 0.294475 0
M  V30 7622 H 736.697 1.94779 0.0686055 0
M  V30 7623 H 735.793 2.83007 1.31581 0
M  V30 7624 N 736.094 -0.359525 1.53444 0
M  V30 7625 C 737.044 -1.441 1.7669 0
M  V30 7626 C 738.028 -1.48408 0.621599 0
M  V30 7627 O 739.22 -1.53547 0.880468 0
M  V30 7628 C 736.349 -2.81455 1.96566 0
M  V30 7629 C 735.435 -2.81601 3.17115 0
M  V30 7630 N 735.826 -2.51388 4.38905 0
M  V30 7631 C 734.124 -3.12758 3.1796 0
M  V30 7632 C 734.825 -2.59365 5.20677 0
M  V30 7633 N 733.801 -2.94328 4.57025 0
M  V30 7634 H 737.603 -1.19613 2.68458 0
M  V30 7635 H 735.117 -0.567761 1.52152 0
M  V30 7636 H 737.114 -3.59357 2.11348 0
M  V30 7637 H 735.774 -3.06901 1.06029 0
M  V30 7638 H 736.785 -2.24873 4.66533 0
M  V30 7639 H 733.462 -3.43479 2.37336 0
M  V30 7640 H 734.852 -2.39301 6.27841 0
M  V30 7641 N 737.572 -1.44907 -0.619662 0
M  V30 7642 C 738.849 -1.38766 -1.37852 0
M  V30 7643 C 739.229 -0.0521393 -2.11036 0
M  V30 7644 O 738.577 0.965613 -2.07095 0
M  V30 7645 C 738.787 -2.59344 -2.33541 0
M  V30 7646 C 740.135 -3.03909 -2.96521 0
M  V30 7647 O 741.159 -2.59631 -2.43865 0
M  V30 7648 O 740.018 -3.80713 -3.92071 0
M  V30 7649 H 737.112 -0.550083 -0.617525 0
M  V30 7650 H 739.658 -1.57015 -0.643759 0
M  V30 7651 H 738.43 -3.48142 -1.78642 0
M  V30 7652 H 738.053 -2.43367 -3.14417 0
M  V30 7653 N 739.05 0.861098 -1.31996 0
M  V30 7654 C 740.275 1.65264 -1.2531 0
M  V30 7655 C 740.7 1.87265 0.177007 0
M  V30 7656 O 740.058 1.4208 1.12619 0
M  V30 7657 C 740.106 2.99284 -2.0115 0
M  V30 7658 O 739.21 3.89508 -1.3549 0
M  V30 7659 H 738.551 0.50409 -0.432192 0
M  V30 7660 H 741.081 1.07297 -1.74208 0
M  V30 7661 H 741.091 3.49154 -2.11081 0
M  V30 7662 H 739.766 2.82591 -3.05148 0
M  V30 7663 H 738.343 3.47966 -1.34066 0
M  V30 7664 N 740.528 1.15101 1.07655 0
M  V30 7665 C 741.944 0.893004 1.32279 0
M  V30 7666 C 742.144 -0.461701 1.96139 0
M  V30 7667 O 741.2 -1.20431 2.21929 0
M  V30 7668 C 742.513 2.03161 2.21689 0
M  V30 7669 C 744.061 2.06579 2.35147 0
M  V30 7670 C 744.536 3.19754 3.27905 0
M  V30 7671 N 746.027 3.19382 3.35484 0
M  V30 7672 C 746.762 4.03592 4.07309 0
M  V30 7673 N 746.258 4.97859 4.81776 0
M  V30 7674 N 748.051 3.91626 4.03219 0
M  V30 7675 H 740.202 2.02341 0.645886 0
M  V30 7676 H 742.465 0.882127 0.347211 0
M  V30 7677 H 742.171 3.00934 1.82021 0
M  V30 7678 H 742.045 1.96132 3.22199 0
M  V30 7679 H 744.432 1.09408 2.74069 0
M  V30 7680 H 744.513 2.17676 1.34353 0
M  V30 7681 H 744.157 4.17175 2.89702 0
M  V30 7682 H 744.087 3.05893 4.28645 0
M  V30 7683 H 746.578 2.51112 2.82403 0
M  V30 7684 H 746.891 5.58563 5.34067 0
M  V30 7685 H 745.236 5.0185 4.80803 0
M  V30 7686 H 748.427 3.17295 3.44154 0
M  V30 7687 H 748.6 4.57479 4.5893 0
M  V30 7688 N 742.006 -1.2595 0.947325 0
M  V30 7689 C 743.231 -1.98083 0.614633 0
M  V30 7690 C 743.656 -1.70013 -0.804815 0
M  V30 7691 O 743.014 -0.95175 -1.54309 0
M  V30 7692 C 743.062 -3.4993 0.870706 0
M  V30 7693 O 742.166 -4.12364 -0.0541451 0
M  V30 7694 H 741.507 -0.621232 0.234451 0
M  V30 7695 H 744.037 -1.60259 1.27193 0
M  V30 7696 H 744.047 -4.00198 0.794051 0
M  V30 7697 H 742.722 -3.69691 1.90529 0
M  V30 7698 H 741.299 -3.72826 0.0740917 0
M  V30 7699 N 743.484 -0.715051 -1.40445 0
M  V30 7700 C 744.9 -0.388555 -1.54798 0
M  V30 7701 C 745.1 1.10271 -1.68649 0
M  V30 7702 O 744.156 1.88875 -1.67578 0
M  V30 7703 C 745.469 -1.15414 -2.77669 0
M  V30 7704 C 747.017 -1.14039 -2.91486 0
M  V30 7705 C 747.492 -1.88812 -4.1727 0
M  V30 7706 N 748.983 -1.85878 -4.24268 0
M  V30 7707 C 749.718 -2.40558 -5.20499 0
M  V30 7708 N 749.214 -3.03791 -6.22642 0
M  V30 7709 N 751.007 -2.30703 -5.12574 0
M  V30 7710 H 743.158 -1.68201 -1.297 0
M  V30 7711 H 745.421 -0.710915 -0.627139 0
M  V30 7712 H 745.127 -2.20853 -2.7371 0
M  V30 7713 H 745.001 -0.745412 -3.69761 0
M  V30 7714 H 747.388 -0.0941996 -2.9495 0
M  V30 7715 H 747.469 -1.58834 -2.00513 0
M  V30 7716 H 747.113 -2.93422 -4.14568 0
M  V30 7717 H 747.043 -1.41438 -5.0725 0
M  V30 7718 H 749.534 -1.39794 -3.51093 0
M  V30 7719 H 749.847 -3.43032 -6.92495 0
M  V30 7720 H 748.192 -3.07875 -6.23087 0
M  V30 7721 H 751.383 -1.80961 -4.31707 0
M  V30 7722 H 751.556 -2.73618 -5.87398 0
M  V30 7723 N 744.962 1.50701 -0.461195 0
M  V30 7724 C 745.91 2.29918 0.352231 0
M  V30 7725 C 746.904 1.36778 0.999403 0
M  V30 7726 O 748.11 1.54015 0.931639 0
M  V30 7727 H 744.485 0.740249 0.132423 0
M  V30 7728 H 746.456 2.96497 -0.336424 0
M  V30 7729 C 745.205 3.17052 1.42736 0
M  V30 7730 H 744.528 3.88623 0.938747 0
M  V30 7731 H 745.968 3.75493 1.96928 0
M  V30 7732 C 744.427 2.3399 2.42384 0
M  V30 7733 O 744.957 2.01608 3.47444 0
M  V30 7734 N 743.163 1.96758 2.13857 0
M  V30 7735 H 742.71 2.23292 1.28447 0
M  V30 7736 H 742.668 1.41484 2.80766 0
M  V30 7737 N 746.441 0.193421 1.56409 0
M  V30 7738 C 747.666 -0.454552 2.02358 0
M  V30 7739 C 748.091 -1.54516 1.07268 0
M  V30 7740 O 747.449 -1.81214 0.0558962 0
M  V30 7741 C 747.497 -0.989469 3.46759 0
M  V30 7742 O 746.601 -2.10244 3.54783 0
M  V30 7743 H 745.942 -0.106417 0.655417 0
M  V30 7744 H 748.472 0.303807 2.02332 0
M  V30 7745 H 748.482 -1.30649 3.86516 0
M  V30 7746 H 747.157 -0.191083 4.15461 0
M  V30 7747 H 745.734 -1.79419 3.26899 0
M  V30 7748 N 747.919 -1.57396 -0.0801906 0
M  V30 7749 C 749.144 -1.91437 -0.797909 0
M  V30 7750 C 749.569 -0.789075 -1.70749 0
M  V30 7751 O 748.927 0.25857 -1.79447 0
M  V30 7752 C 748.975 -3.24402 -1.57467 0
M  V30 7753 O 748.079 -3.13043 -2.68473 0
M  V30 7754 H 747.42 -0.627109 -0.218243 0
M  V30 7755 H 749.95 -2.04537 -0.050949 0
M  V30 7756 H 749.96 -3.58072 -1.95571 0
M  V30 7757 H 748.635 -4.05884 -0.907229 0
M  V30 7758 H 747.212 -2.90915 -2.33287 0
M  V30 7759 N 749.397 0.351382 -1.53633 0
M  V30 7760 C 750.645 1.09034 -1.70165 0
M  V30 7761 C 750.966 1.89413 -0.463422 0
M  V30 7762 O 750.236 1.888 0.522624 0
M  V30 7763 H 748.816 0.405522 -0.627344 0
M  V30 7764 H 751.478 0.394554 -1.90865 0
M  V30 7765 H 750.574 1.77215 -2.56907 0
M  V30 7766 N 750.875 1.45233 0.611969 0
M  V30 7767 C 752.1 1.52767 1.40274 0
M  V30 7768 C 752.525 0.159701 1.87421 0
M  V30 7769 O 751.883 -0.854837 1.59882 0
M  V30 7770 C 751.931 2.51286 2.58626 0
M  V30 7771 O 751.035 2.02764 3.59111 0
M  V30 7772 H 750.376 0.515141 0.418958 0
M  V30 7773 H 752.906 1.90547 0.745188 0
M  V30 7774 H 752.916 2.69949 3.05927 0
M  V30 7775 H 751.591 3.50641 2.23659 0
M  V30 7776 H 750.168 1.93957 3.18489 0
M  V30 7777 N 752.353 -0.854086 1.3245 0
M  V30 7778 C 753.764 -1.42427 1.20712 0
M  V30 7779 C 754.115 -1.95371 -0.18013 0
M  V30 7780 O 753.24 -1.87587 -1.07889 0
M  V30 7781 C 753.835 -2.58897 2.18536 0
M  V30 7782 C 752.394 -3.11913 2.10683 0
M  V30 7783 C 751.541 -1.84661 2.06871 0
M  V30 7784 H 754.492 -0.661192 1.4427 0
M  V30 7785 H 754.513 -3.36074 1.78422 0
M  V30 7786 H 754.025 -2.20333 3.19492 0
M  V30 7787 H 752.126 -3.55059 1.12977 0
M  V30 7788 H 752.239 -3.73119 3.00532 0
M  V30 7789 H 750.603 -2.04285 1.52118 0
M  V30 7790 H 751.386 -1.48314 3.09609 0
M  V30 7791 N 753.831 -1.1567 -1.07043 0
M  V30 7792 C 755.077 -0.9349 -1.79965 0
M  V30 7793 C 755.41 0.536464 -1.86643 0
M  V30 7794 O 754.685 1.39781 -1.35247 0
M  V30 7795 C 754.968 -1.55371 -3.24857 0
M  V30 7796 C 754.821 -3.09589 -3.26305 0
M  V30 7797 C 756.14 -1.24209 -4.22209 0
M  V30 7798 H 753.259 -0.341061 -0.653335 0
M  V30 7799 H 755.901 -1.42883 -1.25237 0
M  V30 7800 H 754.051 -1.13368 -3.71591 0
M  V30 7801 H 755.723 -3.60521 -2.87789 0
M  V30 7802 H 753.966 -3.43315 -2.65174 0
M  V30 7803 H 754.637 -3.48002 -4.28484 0
M  V30 7804 H 757.113 -1.60548 -3.8388 0
M  V30 7805 H 755.989 -1.70119 -5.21872 0
M  V30 7806 H 756.25 -0.15964 -4.41812 0
M  V30 7807 N 755.309 1.25446 -0.953992 0
M  V30 7808 C 756.72 1.75047 -0.649255 0
M  V30 7809 C 757.071 1.77527 0.835385 0
M  V30 7810 O 756.196 1.39569 1.65377 0
M  V30 7811 C 756.791 3.17889 -1.17183 0
M  V30 7812 C 755.35 3.65052 -0.917267 0
M  V30 7813 C 754.497 2.44124 -1.31525 0
M  V30 7814 H 757.448 1.11342 -1.13087 0
M  V30 7815 H 757.469 3.76768 -0.531616 0
M  V30 7816 H 756.981 3.16052 -2.25239 0
M  V30 7817 H 755.082 3.72305 0.148354 0
M  V30 7818 H 755.195 4.53222 -1.55328 0
M  V30 7819 H 753.559 2.43906 -0.733624 0
M  V30 7820 H 754.342 2.44979 -2.405 0
M  V30 7821 N 756.787 0.722489 1.40064 0
M  V30 7822 C 757.719 0.0349057 2.29173 0
M  V30 7823 C 758.732 -0.716571 1.46182 0
M  V30 7824 O 759.921 -0.562806 1.69395 0
M  V30 7825 C 757.021 -0.974839 3.24577 0
M  V30 7826 C 756.194 -0.287471 4.36454 0
M  V30 7827 C 755.253 -1.20356 5.12251 0
M  V30 7828 O 754.279 -0.685753 5.65054 0
M  V30 7829 N 755.481 -2.53422 5.22262 0
M  V30 7830 H 758.246 0.800058 2.88824 0
M  V30 7831 H 755.807 0.57068 1.51509 0
M  V30 7832 H 757.799 -1.59002 3.72157 0
M  V30 7833 H 756.369 -1.6413 2.66046 0
M  V30 7834 H 755.589 0.508008 3.90913 0
M  V30 7835 H 756.877 0.189382 5.08447 0
M  V30 7836 H 756.275 -2.97981 4.80857 0
M  V30 7837 H 754.832 -3.10067 5.73325 0
M  V30 7838 N 758.265 -1.50454 0.469181 0
M  V30 7839 C 759.228 -2.2703 -0.314643 0
M  V30 7840 C 760.228 -1.31734 -0.922111 0
M  V30 7841 O 761.418 -1.55176 -0.791588 0
M  V30 7842 C 758.55 -3.08616 -1.44806 0
M  V30 7843 H 759.743 -2.97769 0.356892 0
M  V30 7844 H 757.296 -1.54698 0.223191 0
M  V30 7845 H 758.031 -2.42369 -2.1547 0
M  V30 7846 H 757.816 -3.78647 -1.01829 0
M  V30 7847 H 759.306 -3.66536 -2.00103 0
M  V30 7848 N 759.743 -0.201713 -1.56304 0
M  V30 7849 C 760.675 0.748466 -2.16635 0
M  V30 7850 C 761.688 1.172 -1.12996 0
M  V30 7851 O 762.877 1.10658 -1.40061 0
M  V30 7852 C 759.977 2.02296 -2.719 0
M  V30 7853 C 759.15 1.75818 -4.00508 0
M  V30 7854 C 758.209 2.87779 -4.40533 0
M  V30 7855 O 757.235 2.57101 -5.07826 0
M  V30 7856 N 758.437 4.16287 -4.04581 0
M  V30 7857 H 761.202 0.232505 -2.98797 0
M  V30 7858 H 758.763 -0.0199822 -1.61888 0
M  V30 7859 H 760.755 2.7635 -2.95657 0
M  V30 7860 H 759.325 2.44996 -1.94154 0
M  V30 7861 H 758.545 0.855095 -3.84814 0
M  V30 7862 H 759.833 1.55532 -4.84445 0
M  V30 7863 H 759.231 4.44061 -3.50466 0
M  V30 7864 H 757.788 4.86946 -4.33274 0
M  V30 7865 N 761.222 1.57436 0.0718424 0
M  V30 7866 C 762.447 1.91858 0.787745 0
M  V30 7867 C 762.872 0.798119 1.70328 0
M  V30 7868 O 762.23 -0.24905 1.79581 0
M  V30 7869 C 762.278 3.25232 1.55744 0
M  V30 7870 O 761.382 3.14462 2.6681 0
M  V30 7871 H 760.723 0.628258 0.214914 0
M  V30 7872 H 763.253 2.04561 0.0401012 0
M  V30 7873 H 763.263 3.59105 1.9367 0
M  V30 7874 H 761.938 4.0636 0.885691 0
M  V30 7875 H 760.515 2.92148 2.31741 0
M  V30 7876 N 762.7 -0.34323 1.53817 0
M  V30 7877 C 764.111 -0.918823 1.62525 0
M  V30 7878 C 764.462 -1.89542 0.506765 0
M  V30 7879 O 763.587 -2.13326 -0.363441 0
M  V30 7880 C 764.182 -1.67326 2.94597 0
M  V30 7881 C 762.741 -2.19786 3.05567 0
M  V30 7882 C 761.888 -1.01708 2.57974 0
M  V30 7883 H 764.839 -0.121358 1.58235 0
M  V30 7884 H 764.86 -2.53615 2.83654 0
M  V30 7885 H 764.372 -0.962223 3.75983 0
M  V30 7886 H 762.473 -2.94065 2.28816 0
M  V30 7887 H 762.586 -2.46135 4.1104 0
M  V30 7888 H 760.95 -1.39058 2.13389 0
M  V30 7889 H 761.733 -0.320671 3.41799 0
M  V30 7890 N 764.178 -1.45556 -0.604258 0
M  V30 7891 C 765.11 -1.50494 -1.72871 0
M  V30 7892 C 766.123 -0.395368 -1.57926 0
M  V30 7893 O 767.312 -0.662603 -1.65746 0
M  V30 7894 C 764.412 -1.34874 -3.10906 0
M  V30 7895 C 763.585 -2.59564 -3.52058 0
M  V30 7896 C 762.644 -2.38453 -4.6907 0
M  V30 7897 O 761.67 -3.12082 -4.76018 0
M  V30 7898 N 762.872 -1.43229 -5.62553 0
M  V30 7899 H 765.637 -2.4744 -1.69097 0
M  V30 7900 H 763.198 -1.41338 -0.789636 0
M  V30 7901 H 765.19 -1.18556 -3.86945 0
M  V30 7902 H 763.76 -0.461913 -3.09168 0
M  V30 7903 H 762.98 -2.90974 -2.65946 0
M  V30 7904 H 764.268 -3.42441 -3.76313 0
M  V30 7905 H 763.666 -0.824714 -5.59656 0
M  V30 7906 H 762.223 -1.32882 -6.38111 0
M  V30 7907 N 765.656 0.84705 -1.32902 0
M  V30 7908 C 766.881 1.63925 -1.27056 0
M  V30 7909 C 767.306 1.87443 0.157136 0
M  V30 7910 O 766.664 1.43266 1.11106 0
M  V30 7911 C 766.712 2.97134 -2.04313 0
M  V30 7912 O 765.816 3.88049 -1.39614 0
M  V30 7913 H 765.157 0.499477 -0.437514 0
M  V30 7914 H 767.687 1.05443 -1.75336 0
M  V30 7915 H 767.697 3.46896 -2.14772 0
M  V30 7916 H 766.372 2.79339 -3.08128 0
M  V30 7917 H 764.949 3.46525 -1.3775 0
M  V30 7918 N 767.134 1.16236 1.06428 0
M  V30 7919 C 768.064 0.890807 2.1584 0
M  V30 7920 C 769.045 -0.162333 1.69324 0
M  V30 7921 O 770.23 -0.0147191 1.94194 0
M  V30 7922 C 767.36 0.389615 3.45108 0
M  V30 7923 C 766.314 1.38051 4.05125 0
M  V30 7924 C 765.64 0.737773 5.29586 0
M  V30 7925 C 766.94 2.74965 4.44062 0
M  V30 7926 H 768.634 1.80577 2.38814 0
M  V30 7927 H 766.18 0.869657 1.14774 0
M  V30 7928 H 768.133 0.187127 4.20984 0
M  V30 7929 H 766.857 -0.560851 3.21748 0
M  V30 7930 H 765.516 1.56952 3.31303 0
M  V30 7931 H 765.164 -0.219135 5.02522 0
M  V30 7932 H 764.864 1.39914 5.70699 0
M  V30 7933 H 766.388 0.545275 6.0816 0
M  V30 7934 H 767.802 2.59855 5.11027 0
M  V30 7935 H 766.199 3.37563 4.96156 0
M  V30 7936 H 767.269 3.30321 3.54987 0
M  V30 7937 N 768.612 -1.24939 0.960631 0
M  V30 7938 C 769.542 -2.28 0.503815 0
M  V30 7939 C 770.523 -1.63959 -0.452928 0
M  V30 7940 O 771.708 -1.91009 -0.350585 0
M  V30 7941 C 768.838 -3.46643 -0.213535 0
M  V30 7942 C 767.792 -4.22903 0.658535 0
M  V30 7943 C 767.118 -5.34363 -0.189902 0
M  V30 7944 C 768.418 -4.84949 1.93963 0
M  V30 7945 H 770.112 -2.66462 1.36521 0
M  V30 7946 H 767.658 -1.28093 0.657897 0
M  V30 7947 H 769.611 -4.1787 -0.544286 0
M  V30 7948 H 768.335 -3.07187 -1.10923 0
M  V30 7949 H 766.994 -3.53467 0.972455 0
M  V30 7950 H 766.642 -4.91147 -1.08553 0
M  V30 7951 H 766.342 -5.86302 0.390331 0
M  V30 7952 H 767.866 -6.0842 -0.515484 0
M  V30 7953 H 769.28 -5.48288 1.67491 0
M  V30 7954 H 767.677 -5.47091 2.46601 0
M  V30 7955 H 768.747 -4.06799 2.639 0
M  V30 7956 N 770.09 -0.729906 -1.39679 0
M  V30 7957 C 771.315 -0.284345 -2.05442 0
M  V30 7958 C 771.74 1.07056 -1.54663 0
M  V30 7959 O 771.098 1.67732 -0.688157 0
M  V30 7960 C 771.146 -0.290089 -3.59431 0
M  V30 7961 O 770.25 0.723978 -4.05995 0
M  V30 7962 H 769.591 -0.130311 -0.651088 0
M  V30 7963 H 772.121 -0.994403 -1.78809 0
M  V30 7964 H 772.131 -0.132712 -4.07784 0
M  V30 7965 H 770.806 -1.27877 -3.95753 0
M  V30 7966 H 769.383 0.533154 -3.69069 0
M  V30 7967 N 771.568 1.50203 -0.477153 0
M  V30 7968 C 772.816 2.01959 0.0755889 0
M  V30 7969 C 773.137 1.3608 1.39668 0
M  V30 7970 O 772.407 0.508136 1.89195 0
M  V30 7971 H 770.987 0.74636 0.0309248 0
M  V30 7972 H 773.649 1.84473 -0.628959 0
M  V30 7973 H 772.745 3.11305 0.222683 0
M  V30 7974 N 773.046 0.209999 1.56195 0
M  V30 7975 C 774.009 -0.691232 2.18528 0
M  V30 7976 C 775.009 -1.13013 1.14388 0
M  V30 7977 O 776.199 -1.04081 1.39688 0
M  V30 7978 C 773.331 -1.94551 2.79934 0
M  V30 7979 H 774.524 -0.147953 2.99535 0
M  V30 7980 H 772.077 -0.0396243 1.5625 0
M  V30 7981 H 772.812 -2.53094 2.02766 0
M  V30 7982 H 772.597 -1.63938 3.56184 0
M  V30 7983 H 774.087 -2.58785 3.2775 0
M  V30 7984 N 774.524 -1.57472 -0.0634922 0
M  V30 7985 C 775.94 -1.54016 -0.418466 0
M  V30 7986 C 776.14 -0.931376 -1.78683 0
M  V30 7987 O 775.196 -0.537465 -2.46714 0
M  V30 7988 C 776.509 -2.98634 -0.351906 0
M  V30 7989 C 778.057 -3.10012 -0.431494 0
M  V30 7990 C 778.532 -4.56296 -0.394754 0
M  V30 7991 N 780.023 -4.60964 -0.454583 0
M  V30 7992 C 780.758 -5.71643 -0.448501 0
M  V30 7993 N 780.254 -6.91663 -0.396742 0
M  V30 7994 N 782.047 -5.5991 -0.495677 0
M  V30 7995 H 774.198 -1.95409 0.832408 0
M  V30 7996 H 776.461 -0.894769 0.313197 0
M  V30 7997 H 776.167 -3.46766 0.587048 0
M  V30 7998 H 776.041 -3.58955 -1.15893 0
M  V30 7999 H 778.428 -2.61848 -1.36087 0
M  V30 8000 H 778.509 -2.52585 0.404258 0
M  V30 8001 H 778.153 -5.05119 0.530811 0
M  V30 8002 H 778.083 -5.11594 -1.24815 0
M  V30 8003 H 780.574 -3.74598 -0.498496 0
M  V30 8004 H 780.887 -7.71783 -0.396256 0
M  V30 8005 H 779.232 -6.9405 -0.363304 0
M  V30 8006 H 782.423 -4.65046 -0.533864 0
M  V30 8007 H 782.596 -6.46164 -0.487469 0
M  V30 8008 N 776.003 0.335068 -1.53997 0
M  V30 8009 C 776.933 1.41727 -1.85568 0
M  V30 8010 C 777.914 1.54505 -0.7115 0
M  V30 8011 O 779.099 1.68573 -0.964191 0
M  V30 8012 C 776.229 2.7866 -2.07282 0
M  V30 8013 C 775.183 2.80682 -3.23112 0
M  V30 8014 C 774.509 4.20581 -3.30175 0
M  V30 8015 C 775.809 2.45458 -4.61029 0
M  V30 8016 H 777.503 1.15555 -2.76202 0
M  V30 8017 H 775.049 0.554445 -1.32898 0
M  V30 8018 H 777.002 3.54423 -2.27952 0
M  V30 8019 H 775.726 3.06286 -1.13387 0
M  V30 8020 H 774.385 2.07373 -3.02311 0
M  V30 8021 H 774.033 4.4533 -2.33859 0
M  V30 8022 H 773.733 4.22843 -4.08016 0
M  V30 8023 H 775.257 4.98174 -3.53066 0
M  V30 8024 H 776.671 3.10934 -4.81656 0
M  V30 8025 H 775.068 2.5899 -5.41336 0
M  V30 8026 H 776.138 1.40628 -4.6406 0
M  V30 8027 N 777.481 1.45874 0.596531 0
M  V30 8028 C 778.413 1.51408 1.7207 0
M  V30 8029 C 779.426 0.403738 1.57714 0
M  V30 8030 O 780.615 0.671384 1.65393 0
M  V30 8031 C 777.715 1.3652 3.10186 0
M  V30 8032 C 776.888 2.61428 3.50677 0
M  V30 8033 C 775.947 2.40937 4.67799 0
M  V30 8034 O 774.973 3.14602 4.74357 0
M  V30 8035 N 776.175 1.4621 5.61785 0
M  V30 8036 H 778.94 2.48333 1.67782 0
M  V30 8037 H 776.501 1.41755 0.782129 0
M  V30 8038 H 778.493 1.20606 3.86311 0
M  V30 8039 H 777.063 0.478302 3.08919 0
M  V30 8040 H 776.283 2.92381 2.644 0
M  V30 8041 H 777.571 3.44432 3.74491 0
M  V30 8042 H 776.969 0.854382 5.59211 0
M  V30 8043 H 775.526 1.36264 6.37397 0
M  V30 8044 N 778.959 -0.83999 1.33349 0
M  V30 8045 C 780.184 -1.63249 1.27924 0
M  V30 8046 C 780.609 -1.87523 -0.147193 0
M  V30 8047 O 779.967 -1.43853 -1.10345 0
M  V30 8048 C 780.015 -2.96046 2.05886 0
M  V30 8049 O 779.119 -3.87303 1.4167 0
M  V30 8050 H 778.46 -0.49715 0.440157 0
M  V30 8051 H 780.99 -1.04512 1.75893 0
M  V30 8052 H 781 -3.45752 2.16609 0
M  V30 8053 H 779.675 -2.77701 3.09605 0
M  V30 8054 H 778.252 -3.45789 1.39585 0
M  V30 8055 N 780.437 -1.16799 -1.0581 0
M  V30 8056 C 781.4 -0.881396 -2.11575 0
M  V30 8057 C 782.4 0.12574 -1.60308 0
M  V30 8058 O 783.59 -0.105716 -1.73879 0
M  V30 8059 C 780.722 -0.319037 -3.39404 0
M  V30 8060 H 781.915 -1.81907 -2.38432 0
M  V30 8061 H 779.468 -0.977597 -1.21954 0
M  V30 8062 H 780.203 0.626082 -3.18199 0
M  V30 8063 H 779.988 -1.04481 -3.77923 0
M  V30 8064 H 781.478 -0.13663 -4.17376 0
M  V30 8065 N 781.915 1.24427 -0.967243 0
M  V30 8066 C 783.326 1.74349 -0.667785 0
M  V30 8067 C 783.677 1.78403 0.816509 0
M  V30 8068 O 782.802 1.41315 1.63887 0
M  V30 8069 C 783.397 3.16628 -1.20548 0
M  V30 8070 C 781.956 3.64059 -0.955934 0
M  V30 8071 C 781.103 2.42715 -1.34106 0
M  V30 8072 H 784.054 1.10136 -1.14262 0
M  V30 8073 H 784.075 3.76183 -0.571547 0
M  V30 8074 H 783.587 3.13646 -2.28578 0
M  V30 8075 H 781.688 3.72441 0.108858 0
M  V30 8076 H 781.801 4.51549 -1.60126 0
M  V30 8077 H 780.165 2.43114 -0.759452 0
M  V30 8078 H 780.948 2.42414 -2.43085 0
M  V30 8079 N 783.393 0.737304 1.3929 0
M  V30 8080 C 784.621 0.296573 2.04763 0
M  V30 8081 C 785.036 -1.06941 1.55592 0
M  V30 8082 O 784.393 -1.67619 0.721822 0
M  V30 8083 C 784.444 0.291906 3.6032 0
M  V30 8084 O 784.165 1.60397 4.07682 0
M  V30 8085 C 785.666 -0.164708 4.42994 0
M  V30 8086 H 782.886 0.129251 0.658434 0
M  V30 8087 H 785.43 1.0016 1.78293 0
M  V30 8088 H 783.585 -0.364251 3.85684 0
M  V30 8089 H 783.999 1.51909 5.0202 0
M  V30 8090 H 785.473 -0.116814 5.51876 0
M  V30 8091 H 785.95 -1.21022 4.22197 0
M  V30 8092 H 786.556 0.461968 4.22784 0
M  V30 8093 N 784.871 -1.49948 0.485112 0
M  V30 8094 C 785.801 -2.31675 -0.291364 0
M  V30 8095 C 786.782 -1.39216 -0.977383 0
M  V30 8096 O 787.967 -1.68133 -0.971855 0
M  V30 8097 C 785.097 -3.19326 -1.36558 0
M  V30 8098 C 784.051 -4.2045 -0.800359 0
M  V30 8099 C 783.377 -4.96931 -1.97391 0
M  V30 8100 C 784.677 -5.21925 0.197867 0
M  V30 8101 H 786.371 -2.96839 0.390775 0
M  V30 8102 H 783.917 -1.42749 0.189375 0
M  V30 8103 H 785.87 -3.75304 -1.91638 0
M  V30 8104 H 784.594 -2.52074 -2.07668 0
M  V30 8105 H 783.253 -3.65594 -0.271428 0
M  V30 8106 H 782.901 -4.26141 -2.67232 0
M  V30 8107 H 782.601 -5.65344 -1.60187 0
M  V30 8108 H 784.125 -5.55749 -2.52935 0
M  V30 8109 H 785.539 -5.72691 -0.264239 0
M  V30 8110 H 783.936 -5.98138 0.484908 0
M  V30 8111 H 785.006 -4.71809 1.11912 0
M  V30 8112 N 786.349 -0.21828 -1.56081 0
M  V30 8113 C 787.577 0.419258 -2.02608 0
M  V30 8114 C 787.992 1.53578 -1.09814 0
M  V30 8115 O 787.349 1.82185 -0.107149 0
M  V30 8116 C 787.4 0.953955 -3.48686 0
M  V30 8117 O 787.121 -0.11805 -4.37941 0
M  V30 8118 C 788.622 1.66506 -4.10841 0
M  V30 8119 H 785.842 0.10296 -0.663054 0
M  V30 8120 H 788.386 -0.333776 -2.01758 0
M  V30 8121 H 786.541 1.65727 -3.50162 0
M  V30 8122 H 786.955 0.283359 -5.23734 0
M  V30 8123 H 788.429 1.99123 -5.14834 0
M  V30 8124 H 788.906 2.57705 -3.55647 0
M  V30 8125 H 789.512 1.00703 -4.13206 0
M  V30 8126 N 787.827 1.57504 0.0551401 0
M  V30 8127 C 789.104 1.79155 0.785048 0
M  V30 8128 C 789.484 0.809995 1.94942 0
M  V30 8129 O 788.832 -0.153432 2.27984 0
M  V30 8130 C 789.042 3.26134 1.24247 0
M  V30 8131 C 790.39 3.90419 1.66908 0
M  V30 8132 O 791.414 3.30126 1.33772 0
M  V30 8133 O 790.273 4.96523 2.28314 0
M  V30 8134 H 787.367 0.735825 0.377479 0
M  V30 8135 H 789.913 1.69666 0.0339285 0
M  V30 8136 H 788.685 3.89145 0.410089 0
M  V30 8137 H 788.308 3.40411 2.05441 0
M  V30 8138 N 789.305 -0.326896 1.54172 0
M  V30 8139 C 790.554 -1.06274 1.71431 0
M  V30 8140 C 790.867 -1.89282 0.493123 0
M  V30 8141 O 792.073 -2.65933 0.54699 0
M  V30 8142 C 790.529 -1.93892 3.03206 0
M  V30 8143 C 790.137 -1.16011 4.32719 0
M  V30 8144 C 791.881 -2.67232 3.29829 0
M  V30 8145 C 789.788 -2.02755 5.55558 0
M  V30 8146 H 788.718 -0.400475 0.638855 0
M  V30 8147 H 791.369 -0.321184 1.80667 0
M  V30 8148 H 789.751 -2.71933 2.87869 0
M  V30 8149 H 790.925 -0.427643 4.58811 0
M  V30 8150 H 789.24 -0.54367 4.12836 0
M  V30 8151 H 791.837 -3.32434 4.18798 0
M  V30 8152 H 792.18 -3.34692 2.47562 0
M  V30 8153 H 792.713 -1.96255 3.46018 0
M  V30 8154 H 789.452 -1.3981 6.40417 0
M  V30 8155 H 788.972 -2.73745 5.33689 0
M  V30 8156 H 790.651 -2.61419 5.91835 0
M  V30 8157 N 790.784 -1.46188 -0.588786 0
M  V30 8158 C 792.014 -1.54519 -1.3714 0
M  V30 8159 C 792.422 -0.183075 -1.88312 0
M  V30 8160 O 791.765 0.828815 -1.6394 0
M  V30 8161 C 791.827 -2.48426 -2.59856 0
M  V30 8162 C 791.491 -3.94791 -2.30193 0
M  V30 8163 C 792.488 -4.84173 -1.894 0
M  V30 8164 C 790.173 -4.39872 -2.42525 0
M  V30 8165 C 792.167 -6.16647 -1.61325 0
M  V30 8166 C 789.854 -5.72381 -2.14063 0
M  V30 8167 C 790.852 -6.60589 -1.73527 0
M  V30 8168 O 790.54 -7.9064 -1.4541 0
M  V30 8169 H 790.272 -0.525264 -0.425527 0
M  V30 8170 H 792.826 -1.92242 -0.723344 0
M  V30 8171 H 791.056 -2.05709 -3.27446 0
M  V30 8172 H 792.745 -2.4723 -3.21919 0
M  V30 8173 H 793.511 -4.50603 -1.79393 0
M  V30 8174 H 789.39 -3.71444 -2.7304 0
M  V30 8175 H 792.934 -6.85454 -1.29611 0
M  V30 8176 H 788.831 -6.05501 -2.23693 0
M  V30 8177 H 789.599 -8.02847 -1.59306 0
M  V30 8178 N 792.262 0.832906 -1.33792 0
M  V30 8179 C 793.194 1.95042 -1.2038 0
M  V30 8180 C 794.207 1.62253 -0.133299 0
M  V30 8181 O 795.396 1.74315 -0.384261 0
M  V30 8182 C 792.496 3.287 -0.825215 0
M  V30 8183 C 791.669 3.89581 -1.98861 0
M  V30 8184 C 790.728 5.01602 -1.59003 0
M  V30 8185 O 789.754 5.20431 -2.30522 0
M  V30 8186 N 790.956 5.78356 -0.498446 0
M  V30 8187 H 793.721 2.07083 -2.16649 0
M  V30 8188 H 791.282 1.00896 -1.26616 0
M  V30 8189 H 793.274 4.01074 -0.540559 0
M  V30 8190 H 791.844 3.12565 0.0469796 0
M  V30 8191 H 791.064 3.09723 -2.43856 0
M  V30 8192 H 792.352 4.26989 -2.76691 0
M  V30 8193 H 791.75 5.65618 0.0963297 0
M  V30 8194 H 790.307 6.51226 -0.273485 0
M  V30 8195 N 793.74 1.17359 1.05189 0
M  V30 8196 C 794.688 0.886527 2.15043 0
M  V30 8197 C 795.682 -0.148834 1.68745 0
M  V30 8198 O 796.888 -0.00175123 1.8 0
M  V30 8199 H 793.263 0.269147 0.702185 0
M  V30 8200 H 795.234 1.82016 2.36459 0
M  V30 8201 C 793.983 0.416333 3.45198 0
M  V30 8202 H 793.306 1.20449 3.81225 0
M  V30 8203 H 794.746 0.254362 4.23236 0
M  V30 8204 C 793.205 -0.866016 3.25579 0
M  V30 8205 O 793.735 -1.9328 3.52144 0
M  V30 8206 N 791.941 -0.814179 2.78961 0
M  V30 8207 H 791.488 0.0541618 2.57543 0
M  V30 8208 H 791.446 -1.67264 2.66214 0
M  V30 8209 N 795.218 -1.23913 0.973828 0
M  V30 8210 C 796.165 -2.25132 0.508366 0
M  V30 8211 C 797.135 -1.59908 -0.449307 0
M  V30 8212 O 798.32 -1.87405 -0.358313 0
M  V30 8213 C 795.46 -3.4458 -0.189422 0
M  V30 8214 C 794.573 -4.24381 0.807738 0
M  V30 8215 C 793.708 -5.31131 0.0854315 0
M  V30 8216 C 792.747 -6.02635 1.07225 0
M  V30 8217 N 791.884 -7.01073 0.379535 0
M  V30 8218 H 796.724 -2.64313 1.37632 0
M  V30 8219 H 794.261 -1.29924 0.689802 0
M  V30 8220 H 796.219 -4.12706 -0.610733 0
M  V30 8221 H 794.849 -3.06218 -1.02129 0
M  V30 8222 H 793.901 -3.55735 1.34747 0
M  V30 8223 H 795.213 -4.73778 1.55998 0
M  V30 8224 H 794.367 -6.05422 -0.393572 0
M  V30 8225 H 793.106 -4.82658 -0.699461 0
M  V30 8226 H 792.111 -5.27143 1.56207 0
M  V30 8227 H 793.336 -6.53197 1.85769 0
M  V30 8228 H 791.282 -6.54862 -0.386269 0
M  V30 8229 H 791.199 -7.48382 1.07054 0
M  V30 8230 H 792.467 -7.79462 -0.0772984 0
M  V30 8231 N 796.696 -0.74468 -1.38897 0
M  V30 8232 C 797.628 -0.0713608 -2.29089 0
M  V30 8233 C 798.641 0.693224 -1.47303 0
M  V30 8234 O 799.83 0.535785 -1.70269 0
M  V30 8235 C 796.93 0.923078 -3.26087 0
M  V30 8236 C 796.103 0.217998 -4.36856 0
M  V30 8237 C 795.162 1.12192 -5.14101 0
M  V30 8238 O 794.188 0.595771 -5.66073 0
M  V30 8239 N 795.39 2.45082 -5.26227 0
M  V30 8240 H 798.155 -0.845906 -2.87514 0
M  V30 8241 H 795.716 -0.594712 -1.50581 0
M  V30 8242 H 797.708 1.53061 -3.74639 0
M  V30 8243 H 796.278 1.59876 -2.68623 0
M  V30 8244 H 795.498 -0.570134 -3.90055 0
M  V30 8245 H 796.786 -0.270248 -5.08082 0
M  V30 8246 H 796.184 2.90294 -4.85537 0
M  V30 8247 H 794.741 3.00907 -5.78185 0
M  V30 8248 N 798.174 1.49689 -0.493057 0
M  V30 8249 C 799.121 2.28976 0.28959 0
M  V30 8250 C 800.091 1.35011 0.967536 0
M  V30 8251 O 801.276 1.63964 0.975736 0
M  V30 8252 C 798.416 3.1748 1.35279 0
M  V30 8253 C 797.529 4.26496 0.687418 0
M  V30 8254 C 796.664 5.02226 1.73038 0
M  V30 8255 C 795.703 6.03089 1.04645 0
M  V30 8256 N 794.84 6.72014 2.03325 0
M  V30 8257 H 799.68 2.954 -0.392798 0
M  V30 8258 H 797.217 1.45657 -0.205554 0
M  V30 8259 H 799.175 3.67162 1.98111 0
M  V30 8260 H 797.805 2.53057 2.00405 0
M  V30 8261 H 796.857 3.80362 -0.0540001 0
M  V30 8262 H 798.169 4.98578 0.14864 0
M  V30 8263 H 797.323 5.55737 2.43395 0
M  V30 8264 H 796.062 4.29899 2.303 0
M  V30 8265 H 795.067 5.48817 0.328606 0
M  V30 8266 H 796.292 6.77398 0.480428 0
M  V30 8267 H 794.238 6.02464 2.59564 0
M  V30 8268 H 794.155 7.40046 1.54492 0
M  V30 8269 H 795.423 7.30133 2.72995 0
M  V30 8270 N 799.652 0.226554 1.55963 0
M  V30 8271 C 800.582 -0.676079 2.23498 0
M  V30 8272 C 801.563 -1.19718 1.20837 0
M  V30 8273 O 802.748 -1.24027 1.49436 0
M  V30 8274 C 799.878 -1.88217 2.91876 0
M  V30 8275 C 798.832 -1.4947 4.01052 0
M  V30 8276 C 798.158 -2.77997 4.56751 0
M  V30 8277 C 799.458 -0.680951 5.17842 0
M  V30 8278 H 801.152 -0.112989 2.99187 0
M  V30 8279 H 798.698 -0.0529046 1.43903 0
M  V30 8280 H 800.651 -2.51911 3.37815 0
M  V30 8281 H 799.375 -2.47031 2.13643 0
M  V30 8282 H 798.034 -0.881199 3.55852 0
M  V30 8283 H 797.682 -3.34966 3.75243 0
M  V30 8284 H 797.382 -2.52803 5.30438 0
M  V30 8285 H 798.906 -3.42625 5.05411 0
M  V30 8286 H 800.32 -1.22171 5.60131 0
M  V30 8287 H 798.717 -0.525898 5.97791 0
M  V30 8288 H 799.787 0.311346 4.83899 0
M  V30 8289 N 801.13 -1.57531 -0.0467866 0
M  V30 8290 C 802.546 -1.54451 -0.402107 0
M  V30 8291 C 802.746 -0.950275 -1.77685 0
M  V30 8292 O 801.802 -0.563602 -2.4613 0
M  V30 8293 C 803.115 -2.9899 -0.320212 0
M  V30 8294 C 804.663 -3.10452 -0.398588 0
M  V30 8295 C 805.138 -4.56689 -0.346335 0
M  V30 8296 N 806.629 -4.6142 -0.405666 0
M  V30 8297 C 807.364 -5.72087 -0.387845 0
M  V30 8298 N 806.86 -6.92045 -0.32336 0
M  V30 8299 N 808.653 -5.60404 -0.436263 0
M  V30 8300 H 800.804 -1.94515 0.853087 0
M  V30 8301 H 803.067 -0.891397 0.322669 0
M  V30 8302 H 802.773 -3.46124 0.623794 0
M  V30 8303 H 802.647 -3.60164 -1.1208 0
M  V30 8304 H 805.034 -2.63276 -1.33302 0
M  V30 8305 H 805.115 -2.52142 0.431026 0
M  V30 8306 H 804.759 -5.04527 0.584356 0
M  V30 8307 H 804.689 -5.12889 -1.19382 0
M  V30 8308 H 807.18 -3.75105 -0.458737 0
M  V30 8309 H 807.493 -7.7216 -0.314375 0
M  V30 8310 H 805.838 -6.94396 -0.28967 0
M  V30 8311 H 809.029 -4.65586 -0.48451 0
M  V30 8312 H 809.202 -6.46645 -0.418907 0
M  V30 8313 N 802.608 0.318715 -1.54344 0
M  V30 8314 C 803.555 1.39242 -1.84066 0
M  V30 8315 C 804.525 1.51175 -0.688134 0
M  V30 8316 O 805.71 1.66318 -0.935039 0
M  V30 8317 C 802.85 2.75528 -2.07794 0
M  V30 8318 C 801.963 2.72187 -3.35467 0
M  V30 8319 C 801.098 4.00352 -3.4913 0
M  V30 8320 C 800.137 3.91338 -4.7066 0
M  V30 8321 N 799.274 5.11242 -4.81224 0
M  V30 8322 H 804.114 1.13196 -2.75664 0
M  V30 8323 H 801.651 0.547857 -1.36517 0
M  V30 8324 H 803.609 3.54763 -2.19543 0
M  V30 8325 H 802.239 2.99873 -1.19482 0
M  V30 8326 H 801.291 1.84917 -3.3243 0
M  V30 8327 H 802.603 2.61411 -4.24812 0
M  V30 8328 H 801.757 4.88019 -3.60448 0
M  V30 8329 H 800.496 4.1394 -2.57886 0
M  V30 8330 H 799.501 3.02055 -4.59394 0
M  V30 8331 H 800.726 3.7931 -5.63294 0
M  V30 8332 H 798.672 5.25327 -3.92897 0
M  V30 8333 H 798.589 5.0282 -5.64543 0
M  V30 8334 H 799.857 6.0061 -4.96879 0
M  V30 8335 N 804.086 1.46499 0.581025 0
M  V30 8336 C 805.018 1.53225 1.70455 0
M  V30 8337 C 806.031 0.420443 1.57277 0
M  V30 8338 O 807.22 0.688888 1.64671 0
M  V30 8339 C 804.32 1.39803 3.08721 0
M  V30 8340 C 803.493 2.65132 3.47884 0
M  V30 8341 C 802.552 2.45886 4.65217 0
M  V30 8342 O 801.578 3.19615 4.70993 0
M  V30 8343 N 802.78 1.5216 5.60203 0
M  V30 8344 H 805.545 2.50098 1.65139 0
M  V30 8345 H 803.106 1.42576 0.76705 0
M  V30 8346 H 805.098 1.24697 3.8501 0
M  V30 8347 H 803.668 0.51104 3.08394 0
M  V30 8348 H 802.888 2.95169 2.61284 0
M  V30 8349 H 804.176 3.48385 3.70817 0
M  V30 8350 H 803.574 0.913646 5.58273 0
M  V30 8351 H 802.131 1.43017 6.35916 0
M  V30 8352 N 805.565 -0.825799 1.34232 0
M  V30 8353 C 806.515 -1.92533 1.22128 0
M  V30 8354 C 807.499 -1.60444 0.121002 0
M  V30 8355 O 808.691 -1.73497 0.350385 0
M  V30 8356 C 805.82 -3.29134 0.975995 0
M  V30 8357 C 804.906 -3.6735 2.11931 0
M  V30 8358 N 805.297 -3.77154 3.37029 0
M  V30 8359 C 803.595 -3.97179 2.02891 0
M  V30 8360 C 804.296 -4.10552 4.12095 0
M  V30 8361 N 803.272 -4.23619 3.40658 0
M  V30 8362 H 807.074 -1.98287 2.16932 0
M  V30 8363 H 804.588 -1.01929 1.26429 0
M  V30 8364 H 806.585 -4.07717 0.870187 0
M  V30 8365 H 805.245 -3.24679 0.036606 0
M  V30 8366 H 806.256 -3.60723 3.71618 0
M  V30 8367 H 802.933 -4.00861 1.16692 0
M  V30 8368 H 804.323 -4.25365 5.2011 0
M  V30 8369 N 807.043 -1.17915 -1.04565 0
M  V30 8370 C 808.268 -0.996749 -1.81878 0
M  V30 8371 C 808.693 0.450169 -1.82634 0
M  V30 8372 O 808.051 1.32268 -1.23995 0
M  V30 8373 C 808.099 -1.55005 -3.25585 0
M  V30 8374 O 807.203 -0.76804 -4.05185 0
M  V30 8375 H 806.544 -0.353456 -0.562108 0
M  V30 8376 H 809.074 -1.56557 -1.31723 0
M  V30 8377 H 809.084 -1.57503 -3.76373 0
M  V30 8378 H 807.759 -2.60327 -3.2435 0
M  V30 8379 H 806.336 -0.81498 -3.63885 0
M  V30 8380 N 808.521 1.23394 -0.980386 0
M  V30 8381 C 809.798 1.87242 -0.565667 0
M  V30 8382 C 810.178 1.88151 0.957197 0
M  V30 8383 O 809.526 1.36309 1.8339 0
M  V30 8384 C 809.736 3.28743 -1.17172 0
M  V30 8385 C 811.084 4.05335 -1.26446 0
M  V30 8386 O 812.108 3.37962 -1.12517 0
M  V30 8387 O 810.967 5.25908 -1.48604 0
M  V30 8388 H 808.061 0.80477 -0.190459 0
M  V30 8389 H 810.607 1.3127 -1.07547 0
M  V30 8390 H 809.379 3.22647 -2.21392 0
M  V30 8391 H 809.002 3.92305 -0.646739 0
M  V30 8392 N 809.999 0.752036 1.385 0
M  V30 8393 C 811.41 0.375385 1.82887 0
M  V30 8394 C 811.761 -1.09575 1.62751 0
M  V30 8395 O 810.886 -1.84685 1.12785 0
M  V30 8396 C 811.481 0.674563 3.32017 0
M  V30 8397 C 810.04 0.351208 3.74758 0
M  V30 8398 C 809.187 0.928531 2.61292 0
M  V30 8399 H 812.138 0.948313 1.27251 0
M  V30 8400 H 812.159 -0.0477781 3.8047 0
M  V30 8401 H 811.671 1.74533 3.46641 0
M  V30 8402 H 809.772 -0.713042 3.65714 0
M  V30 8403 H 809.885 0.845675 4.71577 0
M  V30 8404 H 808.249 0.354012 2.52228 0
M  V30 8405 H 809.032 2.0043 2.78716 0
M  V30 8406 N 811.477 -1.49425 0.500989 0
M  V30 8407 C 812.723 -2.02753 -0.0436 0
M  V30 8408 C 813.056 -1.37991 -1.36646 0
M  V30 8409 O 812.331 -0.515597 -1.87542 0
M  V30 8410 C 812.614 -3.59565 -0.19616 0
M  V30 8411 C 812.467 -4.34855 1.14982 0
M  V30 8412 C 813.786 -4.30014 -0.936795 0
M  V30 8413 H 810.905 -0.73686 -0.0143711 0
M  V30 8414 H 813.547 -1.78448 0.652397 0
M  V30 8415 H 811.697 -3.80405 -0.788959 0
M  V30 8416 H 813.369 -4.25512 1.7815 0
M  V30 8417 H 811.612 -3.97414 1.73911 0
M  V30 8418 H 812.283 -5.42933 0.996385 0
M  V30 8419 H 814.759 -4.1383 -0.434036 0
M  V30 8420 H 813.635 -5.39483 -1.01238 0
M  V30 8421 H 813.896 -3.95257 -1.9805 0
M  V30 8422 N 812.955 -0.234822 -1.55841 0
M  V30 8423 C 814.195 0.394944 -2.00548 0
M  V30 8424 C 814.559 1.56002 -1.11926 0
M  V30 8425 O 815.76 2.2567 -1.46037 0
M  V30 8426 C 814.031 0.805896 -3.48195 0
M  V30 8427 S 815.59 1.4279 -4.14918 0
M  V30 8428 H 812.408 0.124802 -0.699961 0
M  V30 8429 H 815.01 -0.347224 -1.92392 0
M  V30 8430 H 813.714 -0.0515271 -4.10368 0
M  V30 8431 H 813.245 1.58055 -3.60253 0
M  V30 8432 H 815.26 2.71699 -4.15204 0
M  V30 8433 N 814.433 1.57553 0.0384317 0
M  V30 8434 C 815.844 1.77258 0.586211 0
M  V30 8435 C 816.195 0.864706 1.76117 0
M  V30 8436 O 815.32 0.057141 2.16325 0
M  V30 8437 C 815.915 3.21453 1.07021 0
M  V30 8438 C 814.474 3.42387 1.56358 0
M  V30 8439 C 813.621 2.72801 0.497508 0
M  V30 8440 H 816.572 1.57585 -0.187796 0
M  V30 8441 H 816.593 3.27451 1.93794 0
M  V30 8442 H 816.105 3.87505 0.214851 0
M  V30 8443 H 814.206 2.81497 2.44111 0
M  V30 8444 H 814.319 4.50968 1.61754 0
M  V30 8445 H 812.683 2.36305 0.95038 0
M  V30 8446 H 813.466 3.41529 -0.348234 0
M  V30 8447 N 815.911 -0.310526 1.54511 0
M  V30 8448 C 817.136 -1.07046 1.7764 0
M  V30 8449 C 817.561 -1.80488 0.529696 0
M  V30 8450 O 816.919 -1.73702 -0.519361 0
M  V30 8451 C 816.967 -2.03411 2.97752 0
M  V30 8452 O 816.071 -3.11545 2.7021 0
M  V30 8453 H 815.412 -0.307994 0.588248 0
M  V30 8454 H 817.942 -0.350848 2.01569 0
M  V30 8455 H 817.952 -2.46048 3.2546 0
M  V30 8456 H 816.627 -1.49361 3.88155 0
M  V30 8457 H 815.204 -2.7349 2.53491 0
M  V30 8458 N 817.389 -1.46805 -0.573248 0
M  V30 8459 C 818.339 -1.54497 -1.67674 0
M  V30 8460 C 819.323 -0.405117 -1.55716 0
M  V30 8461 O 820.515 -0.654097 -1.64471 0
M  V30 8462 C 817.644 -1.54717 -3.0646 0
M  V30 8463 C 816.73 -2.7403 -3.2368 0
M  V30 8464 N 817.121 -3.98871 -3.11023 0
M  V30 8465 C 815.419 -2.70453 -3.54642 0
M  V30 8466 C 816.12 -4.78689 -3.30502 0
M  V30 8467 N 815.096 -4.10727 -3.56096 0
M  V30 8468 H 818.898 -2.48809 -1.56433 0
M  V30 8469 H 816.412 -1.42576 -0.777554 0
M  V30 8470 H 818.409 -1.58316 -3.8567 0
M  V30 8471 H 817.069 -0.614886 -3.18825 0
M  V30 8472 H 818.08 -4.29976 -2.88688 0
M  V30 8473 H 814.757 -1.86291 -3.73633 0
M  V30 8474 H 816.147 -5.87615 -3.2582 0
M  V30 8475 N 818.867 0.818669 -1.34668 0
M  V30 8476 C 820.095 1.60674 -1.30351 0
M  V30 8477 C 820.51 1.88408 0.121546 0
M  V30 8478 O 819.867 1.47849 1.06991 0
M  V30 8479 C 819.918 2.94516 -2.09625 0
M  V30 8480 O 819.639 2.6799 -3.46573 0
M  V30 8481 C 821.14 3.8891 -2.12754 0
M  V30 8482 H 818.36 0.499306 -0.448258 0
M  V30 8483 H 820.904 1.01828 -1.77345 0
M  V30 8484 H 819.059 3.49908 -1.66262 0
M  V30 8485 H 819.473 3.53361 -3.87603 0
M  V30 8486 H 820.947 4.79972 -2.72637 0
M  V30 8487 H 821.424 4.24599 -1.12306 0
M  V30 8488 H 822.03 3.39453 -2.56225 0
M  V30 8489 N 820.346 1.18468 1.03938 0
M  V30 8490 C 821.594 0.978895 1.76811 0
M  V30 8491 C 821.915 -0.49257 1.88676 0
M  V30 8492 O 821.185 -1.3572 1.41269 0
M  V30 8493 H 819.765 0.359201 0.654968 0
M  V30 8494 H 822.427 1.49173 1.25433 0
M  V30 8495 H 821.523 1.418 2.78027 0
M  V30 8496 N 821.824 -1.22873 0.986916 0
M  V30 8497 C 822.787 -2.2281 0.537442 0
M  V30 8498 C 823.787 -1.56331 -0.37646 0
M  V30 8499 O 824.977 -1.73376 -0.169247 0
M  V30 8500 C 822.109 -3.40195 -0.219082 0
M  V30 8501 H 823.302 -2.64089 1.42116 0
M  V30 8502 H 820.855 -1.35819 0.773488 0
M  V30 8503 H 821.59 -3.04381 -1.11905 0
M  V30 8504 H 821.375 -3.89657 0.437026 0
M  V30 8505 H 822.865 -4.14326 -0.521926 0
M  V30 8506 N 823.302 -0.75937 -1.38099 0
M  V30 8507 C 824.55 -0.317485 -1.99591 0
M  V30 8508 C 824.871 1.10628 -1.60581 0
M  V30 8509 O 824.141 1.7575 -0.865378 0
M  V30 8510 H 822.721 -0.114397 -0.738189 0
M  V30 8511 H 825.383 -0.974749 -1.68774 0
M  V30 8512 H 824.479 -0.385227 -3.09713 0
M  V30 8513 N 824.78 1.49157 -0.508906 0
M  V30 8514 C 826.01 2.06579 0.0293308 0
M  V30 8515 C 826.418 1.36852 1.30645 0
M  V30 8516 O 825.761 0.443079 1.78276 0
M  V30 8517 C 825.823 3.57838 0.345296 0
M  V30 8518 C 825.487 4.49302 -0.835256 0
M  V30 8519 C 826.484 4.90345 -1.72793 0
M  V30 8520 C 824.169 4.91494 -1.0363 0
M  V30 8521 C 826.163 5.72327 -2.80573 0
M  V30 8522 C 823.85 5.7325 -2.11726 0
M  V30 8523 C 824.848 6.13572 -3.00032 0
M  V30 8524 O 824.536 6.93691 -4.06261 0
M  V30 8525 H 824.268 0.675679 -0.0208193 0
M  V30 8526 H 826.822 1.9282 -0.707789 0
M  V30 8527 H 825.052 3.69634 1.13612 0
M  V30 8528 H 826.741 3.97467 0.823089 0
M  V30 8529 H 827.507 4.58388 -1.58446 0
M  V30 8530 H 823.386 4.59605 -0.358308 0
M  V30 8531 H 826.93 6.03719 -3.49527 0
M  V30 8532 H 822.827 6.0462 -2.26065 0
M  V30 8533 H 823.595 7.12011 -4.03711 0
M  V30 8534 N 826.258 0.243083 1.55714 0
M  V30 8535 C 827.483 -0.389944 2.03701 0
M  V30 8536 C 827.908 -1.51025 1.12129 0
M  V30 8537 O 827.266 -1.80944 0.11352 0
M  V30 8538 C 827.314 -0.878649 3.49731 0
M  V30 8539 O 826.418 -1.98851 3.61292 0
M  V30 8540 H 825.759 -0.0855115 0.658471 0
M  V30 8541 H 828.289 0.368023 2.01263 0
M  V30 8542 H 828.299 -1.18287 3.90477 0
M  V30 8543 H 826.974 -0.0588107 4.15858 0
M  V30 8544 H 825.551 -1.68928 3.32442 0
M  V30 8545 N 827.736 -1.57571 -0.0300757 0
M  V30 8546 C 828.966 -1.93204 -0.731828 0
M  V30 8547 C 829.374 -0.841156 -1.69473 0
M  V30 8548 O 828.717 0.191231 -1.82702 0
M  V30 8549 C 828.779 -3.2463 -1.54453 0
M  V30 8550 C 828.443 -4.50862 -0.746507 0
M  V30 8551 C 829.44 -5.19879 -0.0472309 0
M  V30 8552 C 827.125 -4.9738 -0.701347 0
M  V30 8553 C 829.119 -6.33692 0.686518 0
M  V30 8554 C 826.806 -6.11089 0.036148 0
M  V30 8555 C 827.804 -6.791 0.728841 0
M  V30 8556 O 827.492 -7.90635 1.45436 0
M  V30 8557 H 827.224 -0.6423 -0.210775 0
M  V30 8558 H 829.778 -2.05398 0.00804194 0
M  V30 8559 H 828.008 -3.0876 -2.32818 0
M  V30 8560 H 829.697 -3.45597 -2.1288 0
M  V30 8561 H 830.463 -4.84945 -0.0731582 0
M  V30 8562 H 826.342 -4.44288 -1.23001 0
M  V30 8563 H 829.886 -6.86711 1.22773 0
M  V30 8564 H 825.783 -6.45468 0.064002 0
M  V30 8565 H 826.551 -8.06988 1.36794 0
M  V30 8566 N 829.214 0.302327 -1.54673 0
M  V30 8567 C 830.439 1.06103 -1.78205 0
M  V30 8568 C 830.864 1.80204 -0.53926 0
M  V30 8569 O 830.222 1.73975 0.510142 0
M  V30 8570 C 830.27 2.01829 -2.98827 0
M  V30 8571 O 829.374 3.10108 -2.71858 0
M  V30 8572 H 828.715 0.30487 -0.589873 0
M  V30 8573 H 831.245 0.340153 -2.01753 0
M  V30 8574 H 831.255 2.44319 -3.2676 0
M  V30 8575 H 829.93 1.473 -3.88942 0
M  V30 8576 H 828.507 2.72142 -2.54937 0
M  V30 8577 N 830.692 1.47107 0.565454 0
M  V30 8578 C 832.103 1.47266 1.1476 0
M  V30 8579 C 832.454 0.222841 1.9493 0
M  V30 8580 O 831.579 -0.672862 2.05673 0
M  V30 8581 C 832.174 2.66822 2.08785 0
M  V30 8582 C 830.733 2.69967 2.62288 0
M  V30 8583 C 829.88 2.40236 1.38499 0
M  V30 8584 H 832.831 1.54736 0.352479 0
M  V30 8585 H 832.852 2.43323 2.92531 0
M  V30 8586 H 832.364 3.5777 1.50408 0
M  V30 8587 H 830.465 1.83137 3.24487 0
M  V30 8588 H 830.578 3.70426 3.03845 0
M  V30 8589 H 828.942 1.90648 1.68895 0
M  V30 8590 H 829.725 3.33381 0.819274 0
M  V30 8591 N 832.17 -0.811516 1.35101 0
M  V30 8592 C 833.102 -1.93102 1.23468 0
M  V30 8593 C 834.115 -1.62021 0.159095 0
M  V30 8594 O 835.304 -1.73682 0.411945 0
M  V30 8595 C 832.404 -3.27345 0.877404 0
M  V30 8596 C 831.577 -3.86368 2.05033 0
M  V30 8597 C 830.636 -4.99009 1.66963 0
M  V30 8598 O 829.662 -5.16698 2.38772 0
M  V30 8599 N 830.864 -5.7749 0.590394 0
M  V30 8600 H 833.629 -2.0361 2.19916 0
M  V30 8601 H 831.19 -0.988687 1.28205 0
M  V30 8602 H 833.182 -4.00163 0.604298 0
M  V30 8603 H 831.752 -3.126 0.00275267 0
M  V30 8604 H 830.972 -3.05804 2.48752 0
M  V30 8605 H 832.26 -4.22533 2.83449 0
M  V30 8606 H 831.658 -5.657 -0.00633259 0
M  V30 8607 H 830.215 -6.50708 0.377055 0
M  V30 8608 N 833.648 -1.19017 -1.03309 0
M  V30 8609 C 835.059 -0.993206 -1.5809 0
M  V30 8610 C 835.41 0.45505 -1.9085 0
M  V30 8611 O 834.535 1.33372 -1.70414 0
M  V30 8612 C 835.13 -1.79661 -2.87241 0
M  V30 8613 C 833.689 -1.64377 -3.38611 0
M  V30 8614 C 832.836 -1.78628 -2.12102 0
M  V30 8615 H 835.787 -1.3345 -0.858879 0
M  V30 8616 H 835.808 -1.29019 -3.57958 0
M  V30 8617 H 835.32 -2.85061 -2.63366 0
M  V30 8618 H 833.421 -0.615447 -3.67482 0
M  V30 8619 H 833.534 -2.44651 -4.11926 0
M  V30 8620 H 831.898 -1.21648 -2.23772 0
M  V30 8621 H 832.681 -2.8548 -1.90673 0
M  V30 8622 N 835.127 1.22348 -0.993418 0
M  V30 8623 C 836.352 1.95666 -0.687727 0
M  V30 8624 C 836.777 1.72883 0.741161 0
M  V30 8625 O 836.135 1.00837 1.50671 0
M  V30 8626 C 836.183 3.46457 -0.99998 0
M  V30 8627 O 835.287 4.12281 -0.0989386 0
M  V30 8628 H 834.628 0.612102 -0.257346 0
M  V30 8629 H 837.158 1.55428 -1.33054 0
M  V30 8630 H 837.168 3.96976 -0.942035 0
M  V30 8631 H 835.843 3.62365 -2.04118 0
M  V30 8632 H 834.42 3.72295 -0.212413 0
M  V30 8633 N 836.605 0.766683 1.37694 0
M  V30 8634 C 838.021 0.445739 1.53249 0
M  V30 8635 C 838.221 -1.03935 1.72626 0
M  V30 8636 O 837.277 -1.82525 1.74473 0
M  V30 8637 C 838.59 1.2564 2.73194 0
M  V30 8638 C 840.138 1.24779 2.87053 0
M  V30 8639 C 840.613 2.04169 4.09974 0
M  V30 8640 N 842.104 2.01497 4.17077 0
M  V30 8641 C 842.839 2.5971 5.11212 0
M  V30 8642 N 842.335 3.26691 6.10938 0
M  V30 8643 N 844.128 2.49568 5.03659 0
M  V30 8644 H 836.279 1.72899 1.23368 0
M  V30 8645 H 838.542 0.733701 0.600322 0
M  V30 8646 H 838.248 2.30859 2.65324 0
M  V30 8647 H 838.122 0.882133 3.6674 0
M  V30 8648 H 840.509 0.203603 2.94397 0
M  V30 8649 H 840.59 1.66166 1.9448 0
M  V30 8650 H 840.234 3.08606 4.03392 0
M  V30 8651 H 840.164 1.60167 5.01651 0
M  V30 8652 H 842.655 1.52728 3.45662 0
M  V30 8653 H 842.968 3.68497 6.79286 0
M  V30 8654 H 841.313 3.30789 6.11231 0
M  V30 8655 H 844.504 1.96859 4.24693 0
M  V30 8656 H 844.677 2.95231 5.76839 0
M  V30 8657 N 838.083 -1.48885 0.516809 0
M  V30 8658 C 839.494 -1.86557 0.0729921 0
M  V30 8659 C 839.845 -1.42767 -1.34581 0
M  V30 8660 O 838.97 -0.812514 -2.00567 0
M  V30 8661 C 839.565 -3.38567 0.125686 0
M  V30 8662 C 838.124 -3.75481 -0.262867 0
M  V30 8663 C 837.271 -2.72913 0.491281 0
M  V30 8664 H 840.222 -1.40978 0.728767 0
M  V30 8665 H 840.243 -3.74629 -0.665831 0
M  V30 8666 H 839.755 -3.70408 1.15842 0
M  V30 8667 H 837.856 -3.49251 -1.29824 0
M  V30 8668 H 837.969 -4.79052 0.067579 0
M  V30 8669 H 836.333 -2.54627 -0.0608525 0
M  V30 8670 H 837.116 -3.07599 1.5244 0
M  V30 8671 N 839.561 -0.251338 -1.55583 0
M  V30 8672 C 840.809 0.371434 -1.98657 0
M  V30 8673 C 841.13 1.58143 -1.14087 0
M  V30 8674 O 840.4 1.94607 -0.224708 0
M  V30 8675 H 838.98 0.140225 -0.733721 0
M  V30 8676 H 841.642 -0.351157 -1.9171 0
M  V30 8677 H 840.738 0.677554 -3.04657 0
M  V30 8678 N 841.039 1.57585 0.0217189 0
M  V30 8679 C 842.264 1.94267 0.726309 0
M  V30 8680 C 842.689 0.851904 1.67703 0
M  V30 8681 O 842.047 -0.191792 1.80283 0
M  V30 8682 C 842.095 3.30023 1.45318 0
M  V30 8683 O 841.199 3.22791 2.5667 0
M  V30 8684 H 840.54 0.634777 0.194818 0
M  V30 8685 H 843.07 2.04585 -0.0249985 0
M  V30 8686 H 843.08 3.65084 1.82147 0
M  V30 8687 H 841.755 4.08972 0.755962 0
M  V30 8688 H 840.332 2.99373 2.2233 0
M  V30 8689 N 842.517 -0.29412 1.54831 0
M  V30 8690 C 843.447 -1.36757 1.89261 0
M  V30 8691 C 844.428 -1.52564 0.752214 0
M  V30 8692 O 845.613 -1.65958 1.00855 0
M  V30 8693 C 842.743 -2.73066 2.14597 0
M  V30 8694 C 841.697 -2.72017 3.3044 0
M  V30 8695 C 841.023 -4.11679 3.4121 0
M  V30 8696 C 842.323 -2.33149 4.67375 0
M  V30 8697 H 844.017 -1.08191 2.79169 0
M  V30 8698 H 841.563 -0.519014 1.34321 0
M  V30 8699 H 843.516 -3.48255 2.37269 0
M  V30 8700 H 842.24 -3.03172 1.21467 0
M  V30 8701 H 840.899 -1.99285 3.07703 0
M  V30 8702 H 840.547 -4.38973 2.45584 0
M  V30 8703 H 840.247 -4.11877 4.19084 0
M  V30 8704 H 841.771 -4.88637 3.6615 0
M  V30 8705 H 843.185 -2.98054 4.89731 0
M  V30 8706 H 841.582 -2.44546 5.48012 0
M  V30 8707 H 842.652 -1.28275 4.67626 0
M  V30 8708 N 843.995 -1.47404 -0.557645 0
M  V30 8709 C 845.243 -1.53703 -1.31224 0
M  V30 8710 C 845.564 -0.200742 -1.93964 0
M  V30 8711 O 844.834 0.775253 -1.79907 0
M  V30 8712 H 843.414 -0.566171 -0.487299 0
M  V30 8713 H 846.076 -1.83699 -0.651195 0
M  V30 8714 H 845.172 -2.30335 -2.10599 0
M  V30 8715 N 845.473 0.80434 -1.35529 0
M  V30 8716 C 846.701 1.59283 -1.32048 0
M  V30 8717 C 847.116 1.88527 0.101556 0
M  V30 8718 O 846.473 1.48975 1.05417 0
M  V30 8719 C 846.524 2.92276 -2.12737 0
M  V30 8720 O 846.245 2.64299 -3.49396 0
M  V30 8721 C 847.746 3.86631 -2.16867 0
M  V30 8722 H 844.966 0.494523 -0.453528 0
M  V30 8723 H 847.51 0.999415 -1.78415 0
M  V30 8724 H 845.665 3.48125 -1.69964 0
M  V30 8725 H 846.079 3.4923 -3.91329 0
M  V30 8726 H 847.553 4.77053 -2.77712 0
M  V30 8727 H 848.03 4.23384 -1.16803 0
M  V30 8728 H 848.636 3.36717 -2.59811 0
M  V30 8729 N 846.951 1.19563 1.02676 0
M  V30 8730 C 848.176 1.02556 1.80269 0
M  V30 8731 C 848.601 -0.421056 1.83327 0
M  V30 8732 O 847.959 -1.30279 1.26084 0
M  V30 8733 C 848.007 1.60165 3.23078 0
M  V30 8734 O 847.111 0.832404 4.03912 0
M  V30 8735 H 846.452 0.362354 0.556413 0
M  V30 8736 H 848.982 1.58633 1.29216 0
M  V30 8737 H 848.992 1.6347 3.7382 0
M  V30 8738 H 847.667 2.65454 3.20167 0
M  V30 8739 H 846.244 0.872768 3.62543 0
M  V30 8740 N 848.429 -1.21819 0.999893 0
M  V30 8741 C 849.84 -1.72517 0.713775 0
M  V30 8742 C 850.191 -1.80505 -0.768922 0
M  V30 8743 O 849.316 -1.45611 -1.60083 0
M  V30 8744 C 849.911 -3.13321 1.28901 0
M  V30 8745 C 848.47 -3.61396 1.05212 0
M  V30 8746 C 847.617 -2.39074 1.40494 0
M  V30 8747 H 850.568 -1.07068 1.17141 0
M  V30 8748 H 850.589 -3.74535 0.671084 0
M  V30 8749 H 850.101 -3.07475 2.36814 0
M  V30 8750 H 848.202 -3.72599 -0.0100732 0
M  V30 8751 H 848.315 -4.47145 1.72042 0
M  V30 8752 H 846.679 -2.41015 0.823642 0
M  V30 8753 H 847.462 -2.35884 2.49427 0
M  V30 8754 N 849.908 -0.773975 -1.37286 0
M  V30 8755 C 851.136 -0.350758 -2.03905 0
M  V30 8756 C 851.551 1.02779 -1.58373 0
M  V30 8757 O 850.908 1.65646 -0.766009 0
M  V30 8758 C 850.959 -0.387335 -3.59419 0
M  V30 8759 O 850.68 -1.7115 -4.03286 0
M  V30 8760 C 852.181 0.047198 -4.43275 0
M  V30 8761 H 849.401 -0.146663 -0.654775 0
M  V30 8762 H 851.945 -1.04852 -1.75574 0
M  V30 8763 H 850.1 0.261865 -3.86514 0
M  V30 8764 H 850.514 -1.65166 -4.97816 0
M  V30 8765 H 851.988 -0.0295474 -5.51992 0
M  V30 8766 H 852.465 1.09786 -4.25257 0
M  V30 8767 H 853.071 -0.573899 -4.2141 0
M  V30 8768 N 851.386 1.48609 -0.524698 0
M  V30 8769 C 852.333 2.29539 0.240956 0
M  V30 8770 C 853.303 1.37033 0.938681 0
M  V30 8771 O 854.488 1.65996 0.940737 0
M  V30 8772 C 851.628 3.20278 1.28514 0
M  V30 8773 C 850.741 4.27858 0.596798 0
M  V30 8774 C 849.876 5.05784 1.62346 0
M  V30 8775 C 848.915 6.05173 0.918287 0
M  V30 8776 N 848.052 6.76176 1.89025 0
M  V30 8777 H 852.892 2.945 -0.455368 0
M  V30 8778 H 850.429 1.45188 -0.236403 0
M  V30 8779 H 852.387 3.71281 1.90279 0
M  V30 8780 H 851.017 2.57251 1.94992 0
M  V30 8781 H 850.069 3.80162 -0.134668 0
M  V30 8782 H 851.381 4.98782 0.0428506 0
M  V30 8783 H 850.535 5.60775 2.31553 0
M  V30 8784 H 849.274 4.34687 2.2113 0
M  V30 8785 H 848.279 5.49391 0.21212 0
M  V30 8786 H 849.504 6.78265 0.336633 0
M  V30 8787 H 847.45 6.07834 2.46726 0
M  V30 8788 H 847.367 7.43157 1.3876 0
M  V30 8789 H 848.635 7.35759 2.57446 0
M  V30 8790 N 852.864 0.259585 1.55447 0
M  V30 8791 C 853.814 -0.648769 2.18575 0
M  V30 8792 C 854.798 -1.1299 1.14552 0
M  V30 8793 O 855.99 -1.07756 1.4042 0
M  V30 8794 C 853.119 -1.83963 2.89849 0
M  V30 8795 C 852.205 -1.37641 4.01143 0
M  V30 8796 N 852.596 -0.628269 5.01883 0
M  V30 8797 C 850.894 -1.66066 4.1393 0
M  V30 8798 C 851.595 -0.386746 5.80413 0
M  V30 8799 N 850.571 -0.954665 5.35151 0
M  V30 8800 H 854.373 -0.0691616 2.93819 0
M  V30 8801 H 851.887 0.0624525 1.6228 0
M  V30 8802 H 853.884 -2.50151 3.33512 0
M  V30 8803 H 852.544 -2.42334 2.16112 0
M  V30 8804 H 853.555 -0.277123 5.17158 0
M  V30 8805 H 850.232 -2.25484 3.51373 0
M  V30 8806 H 851.622 0.211382 6.71567 0
M  V30 8807 N 854.342 -1.57594 -0.0133615 0
M  V30 8808 C 855.272 -2.10611 -1.00823 0
M  V30 8809 C 856.253 -1.01217 -1.36708 0
M  V30 8810 O 857.438 -1.28827 -1.45318 0
M  V30 8811 C 854.568 -2.59844 -2.30431 0
M  V30 8812 C 853.522 -3.73644 -2.08745 0
M  V30 8813 C 852.848 -4.09141 -3.4425 0
M  V30 8814 C 854.148 -5.01454 -1.46086 0
M  V30 8815 H 855.842 -2.93985 -0.566849 0
M  V30 8816 H 853.388 -1.41423 -0.271219 0
M  V30 8817 H 855.341 -2.95557 -3.00373 0
M  V30 8818 H 854.065 -1.73573 -2.76658 0
M  V30 8819 H 852.724 -3.38303 -1.41232 0
M  V30 8820 H 852.372 -3.19914 -3.88155 0
M  V30 8821 H 852.072 -4.85802 -3.3056 0
M  V30 8822 H 853.596 -4.47402 -4.15528 0
M  V30 8823 H 855.01 -5.35024 -2.05966 0
M  V30 8824 H 853.407 -5.82832 -1.42924 0
M  V30 8825 H 854.477 -4.83003 -0.428471 0
M  V30 8826 N 855.82 0.285905 -1.54985 0
M  V30 8827 C 857.068 1.01718 -1.74636 0
M  V30 8828 C 857.389 1.87277 -0.543342 0
M  V30 8829 O 856.659 1.90847 0.442078 0
M  V30 8830 H 855.239 0.378549 -0.643979 0
M  V30 8831 H 857.901 0.313247 -1.92366 0
M  V30 8832 H 856.997 1.66159 -2.64192 0
M  V30 8833 N 857.298 1.47698 0.54982 0
M  V30 8834 C 858.523 1.58579 1.33669 0
M  V30 8835 C 858.948 0.239049 1.86575 0
M  V30 8836 O 858.306 -0.786256 1.63364 0
M  V30 8837 C 858.354 2.62029 2.47736 0
M  V30 8838 O 857.458 2.17813 3.50188 0
M  V30 8839 H 856.799 0.532447 0.396732 0
M  V30 8840 H 859.329 1.93536 0.6637 0
M  V30 8841 H 859.339 2.82682 2.94202 0
M  V30 8842 H 858.014 3.59812 2.08586 0
M  V30 8843 H 856.591 2.07291 3.09976 0
M  V30 8844 N 858.776 -0.797141 1.35954 0
M  V30 8845 C 860.001 -1.59097 1.33053 0
M  V30 8846 C 860.426 -1.87897 -0.0874592 0
M  V30 8847 O 859.784 -1.47291 -1.05712 0
M  V30 8848 C 859.832 -2.89346 2.152 0
M  V30 8849 O 858.936 -3.826 1.5392 0
M  V30 8850 H 858.277 -0.482895 0.45575 0
M  V30 8851 H 860.807 -0.988633 1.79129 0
M  V30 8852 H 860.817 -3.38686 2.27499 0
M  V30 8853 H 859.492 -2.6771 3.18283 0
M  V30 8854 H 858.069 -3.41174 1.50516 0
M  V30 8855 N 860.254 -1.20106 -1.0204 0
M  V30 8856 C 861.665 -1.00992 -1.57027 0
M  V30 8857 C 862.016 0.434782 -1.91322 0
M  V30 8858 O 861.141 1.31557 -1.71819 0
M  V30 8859 C 861.736 -1.82697 -2.85319 0
M  V30 8860 C 860.295 -1.67959 -3.36848 0
M  V30 8861 C 859.442 -1.80868 -2.10195 0
M  V30 8862 H 862.393 -1.34354 -0.844676 0
M  V30 8863 H 862.414 -1.32809 -3.5657 0
M  V30 8864 H 861.926 -2.87839 -2.60328 0
M  V30 8865 H 860.027 -0.654389 -3.66809 0
M  V30 8866 H 860.14 -2.49006 -4.09308 0
M  V30 8867 H 858.504 -1.24015 -2.22469 0
M  V30 8868 H 859.287 -2.87486 -1.87635 0
M  V30 8869 N 861.732 1.21287 -1.00634 0
M  V30 8870 C 863.148 1.42467 -0.719389 0
M  V30 8871 C 863.348 1.88767 0.704927 0
M  V30 8872 O 862.404 2.05004 1.47409 0
M  V30 8873 C 863.717 2.455 -1.73639 0
M  V30 8874 C 865.265 2.59281 -1.75335 0
M  V30 8875 C 865.74 3.65547 -2.75934 0
M  V30 8876 N 867.231 3.73019 -2.74611 0
M  V30 8877 C 867.966 4.54873 -3.4911 0
M  V30 8878 N 867.462 5.40614 -4.33253 0
M  V30 8879 N 869.255 4.49309 -3.37754 0
M  V30 8880 H 861.406 0.895454 -1.92602 0
M  V30 8881 H 863.669 0.455491 -0.831404 0
M  V30 8882 H 863.375 2.18455 -2.75627 0
M  V30 8883 H 863.249 3.44325 -1.54014 0
M  V30 8884 H 865.636 2.85661 -0.740377 0
M  V30 8885 H 865.717 1.60685 -1.99032 0
M  V30 8886 H 865.361 3.39911 -3.77389 0
M  V30 8887 H 865.291 4.63741 -2.49503 0
M  V30 8888 H 867.782 3.11766 -2.13565 0
M  V30 8889 H 868.095 6.0013 -4.86892 0
M  V30 8890 H 866.44 5.40151 -4.37335 0
M  V30 8891 H 869.631 3.81357 -2.71449 0
M  V30 8892 H 869.804 5.12867 -3.9607 0
M  V30 8893 N 863.21 0.781244 1.36873 0
M  V30 8894 C 864.435 0.360398 2.04245 0
M  V30 8895 C 864.86 -1.01242 1.58529 0
M  V30 8896 O 864.218 -1.65063 0.749936 0
M  V30 8897 C 864.266 0.42329 3.58107 0
M  V30 8898 O 863.37 -0.572796 4.08403 0
M  V30 8899 H 862.711 0.154386 0.645803 0
M  V30 8900 H 865.241 1.06008 1.74996 0
M  V30 8901 H 865.251 0.283967 4.07011 0
M  V30 8902 H 863.926 1.42477 3.90734 0
M  V30 8903 H 862.503 -0.395809 3.70793 0
M  V30 8904 N 864.689 -1.48329 0.532571 0
M  V30 8905 C 865.914 -2.074 0.00147755 0
M  V30 8906 C 866.339 -1.38615 -1.27151 0
M  V30 8907 O 865.697 -0.452949 -1.75551 0
M  V30 8908 C 865.745 -3.60029 -0.202866 0
M  V30 8909 O 864.849 -3.92327 -1.27097 0
M  V30 8910 H 864.19 -0.662777 0.0402883 0
M  V30 8911 H 866.72 -1.90701 0.741224 0
M  V30 8912 H 866.73 -4.05783 -0.424722 0
M  V30 8913 H 865.405 -4.09496 0.727033 0
M  V30 8914 H 863.982 -3.58348 -1.03156 0
M  V30 8915 N 866.167 -0.267825 -1.55308 0
M  V30 8916 C 867.444 0.402449 -1.91415 0
M  V30 8917 C 867.824 1.7428 -1.1912 0
M  V30 8918 O 867.172 2.2631 -0.315609 0
M  V30 8919 C 867.382 0.549926 -3.4464 0
M  V30 8920 C 868.73 0.836188 -4.16285 0
M  V30 8921 O 869.754 0.635009 -3.50494 0
M  V30 8922 O 868.613 1.22051 -5.32697 0
M  V30 8923 H 865.707 0.219177 -0.797427 0
M  V30 8924 H 868.253 -0.313439 -1.6678 0
M  V30 8925 H 867.025 -0.393641 -3.89315 0
M  V30 8926 H 866.648 1.31556 -3.75205 0
M  V30 8927 N 867.645 1.57599 0.00500368 0
M  V30 8928 C 868.891 1.91471 0.686313 0
M  V30 8929 C 869.246 0.868988 1.71658 0
M  V30 8930 O 868.539 -0.11944 1.91227 0
M  V30 8931 C 868.733 3.29855 1.37588 0
M  V30 8932 C 868.562 4.47791 0.413924 0
M  V30 8933 C 867.332 5.05293 0.0261488 0
M  V30 8934 C 869.53 5.13317 -0.317764 0
M  V30 8935 N 867.512 6.06745 -0.934545 0
M  V30 8936 C 868.883 6.09554 -1.13331 0
M  V30 8937 C 870.938 4.96431 -0.382136 0
M  V30 8938 C 869.641 6.90723 -2.00735 0
M  V30 8939 C 871.667 5.78182 -1.24339 0
M  V30 8940 C 871.029 6.74007 -2.04679 0
M  V30 8941 H 867.128 0.749083 0.224495 0
M  V30 8942 H 869.712 1.94625 -0.0541684 0
M  V30 8943 H 867.883 3.27585 2.08668 0
M  V30 8944 H 869.615 3.51171 2.01149 0
M  V30 8945 H 866.37 4.71963 0.393462 0
M  V30 8946 H 866.794 6.62152 -1.41012 0
M  V30 8947 H 871.436 4.22202 0.224718 0
M  V30 8948 H 869.154 7.64281 -2.6249 0
M  V30 8949 H 872.74 5.67158 -1.29704 0
M  V30 8950 H 871.62 7.36164 -2.70244 0
M  V30 8951 N 869.123 -0.277682 1.55134 0
M  V30 8952 C 870.37 -1.0099 1.7552 0
M  V30 8953 C 870.698 -1.86452 0.553712 0
M  V30 8954 O 869.953 -1.90122 -0.463896 0
M  V30 8955 C 870.252 -1.92599 3.01065 0
M  V30 8956 C 869.918 -1.22926 4.3382 0
M  V30 8957 C 868.58 -1.03659 4.69902 0
M  V30 8958 C 870.932 -0.733071 5.16019 0
M  V30 8959 C 868.26 -0.334933 5.85743 0
M  V30 8960 C 870.612 -0.0450319 6.32584 0
M  V30 8961 C 869.276 0.159393 6.6731 0
M  V30 8962 H 868.546 -0.36955 0.642273 0
M  V30 8963 H 871.193 -0.282611 1.89403 0
M  V30 8964 H 869.498 -2.71934 2.82062 0
M  V30 8965 H 871.195 -2.49367 3.14034 0
M  V30 8966 H 867.785 -1.38933 4.05457 0
M  V30 8967 H 871.969 -0.869565 4.88623 0
M  V30 8968 H 867.225 -0.165783 6.11175 0
M  V30 8969 H 871.399 0.34723 6.95534 0
M  V30 8970 H 869.026 0.70507 7.56923 0
M  V30 8971 N 870.601 -1.47988 -0.541979 0
M  V30 8972 C 871.848 -1.55393 -1.29843 0
M  V30 8973 C 872.176 -0.222668 -1.93221 0
M  V30 8974 O 871.431 0.785936 -1.79225 0
M  V30 8975 C 871.73 -2.63189 -2.41798 0
M  V30 8976 C 871.396 -4.05999 -1.96151 0
M  V30 8977 C 870.058 -4.44872 -1.83419 0
M  V30 8978 C 872.41 -4.95545 -1.61507 0
M  V30 8979 C 869.738 -5.71108 -1.34361 0
M  V30 8980 C 872.09 -6.22259 -1.13915 0
M  V30 8981 C 870.754 -6.59998 -0.997911 0
M  V30 8982 H 870.024 -0.568623 -0.47513 0
M  V30 8983 H 872.671 -1.81654 -0.606142 0
M  V30 8984 H 870.976 -2.30743 -3.16647 0
M  V30 8985 H 872.673 -2.66138 -2.99953 0
M  V30 8986 H 869.263 -3.75294 -2.07008 0
M  V30 8987 H 873.447 -4.662 -1.70209 0
M  V30 8988 H 868.703 -5.99083 -1.22103 0
M  V30 8989 H 872.877 -6.91048 -0.861755 0
M  V30 8990 H 870.504 -7.57704 -0.615561 0
M  V30 8991 N 872.079 0.78992 -1.36375 0
M  V30 8992 C 873.026 1.90254 -1.3066 0
M  V30 8993 C 873.996 1.65171 -0.17539 0
M  V30 8994 O 875.181 1.87338 -0.361824 0
M  V30 8995 C 872.321 3.27057 -1.10125 0
M  V30 8996 C 871.434 3.64215 -2.32317 0
M  V30 8997 C 870.569 4.90134 -2.04798 0
M  V30 8998 C 869.608 5.19969 -3.22953 0
M  V30 8999 N 868.745 6.37071 -2.95102 0
M  V30 9000 H 873.585 1.94474 -2.25796 0
M  V30 9001 H 871.122 0.951022 -1.12223 0
M  V30 9002 H 873.08 4.05947 -0.962453 0
M  V30 9003 H 871.71 3.22261 -0.186444 0
M  V30 9004 H 870.762 2.80454 -2.57002 0
M  V30 9005 H 872.074 3.82212 -3.20492 0
M  V30 9006 H 871.228 5.76888 -1.87845 0
M  V30 9007 H 869.967 4.74205 -1.13932 0
M  V30 9008 H 868.972 4.31699 -3.40465 0
M  V30 9009 H 870.197 5.37817 -4.14644 0
M  V30 9010 H 868.143 6.22535 -2.06848 0
M  V30 9011 H 868.06 6.55398 -3.76815 0
M  V30 9012 H 869.328 7.26808 -2.81727 0
M  V30 9013 N 873.557 1.20646 1.01402 0
M  V30 9014 C 874.785 1.04389 1.78635 0
M  V30 9015 C 875.2 -0.406771 1.84366 0
M  V30 9016 O 874.557 -1.28239 1.2985 0
M  V30 9017 C 874.608 1.62378 3.22979 0
M  V30 9018 O 874.329 3.01768 3.17597 0
M  V30 9019 C 875.83 1.5111 4.1675 0
M  V30 9020 H 873.05 0.367077 0.56169 0
M  V30 9021 H 875.594 1.59789 1.27624 0
M  V30 9022 H 873.749 1.11092 3.7113 0
M  V30 9023 H 874.163 3.29331 4.08217 0
M  V30 9024 H 875.637 1.96441 5.15863 0
M  V30 9025 H 876.114 0.464011 4.36742 0
M  V30 9026 H 876.72 2.01599 3.74483 0
M  V30 9027 N 875.035 -1.20752 1.01276 0
M  V30 9028 C 876.446 -1.7175 0.732033 0
M  V30 9029 C 876.797 -1.8131 -0.749733 0
M  V30 9030 O 875.922 -1.47301 -1.58529 0
M  V30 9031 C 876.517 -3.11936 1.32217 0
M  V30 9032 C 875.076 -3.6026 1.09039 0
M  V30 9033 C 874.223 -2.37571 1.43022 0
M  V30 9034 H 877.174 -1.0582 1.1827 0
M  V30 9035 H 877.195 -3.73802 0.710771 0
M  V30 9036 H 876.707 -3.04946 2.40061 0
M  V30 9037 H 874.808 -3.72588 0.0294464 0
M  V30 9038 H 874.921 -4.45295 1.76775 0
M  V30 9039 H 873.285 -2.40128 0.849159 0
M  V30 9040 H 874.068 -2.33225 2.51915 0
M  V30 9041 N 876.513 -0.788492 -1.36457 0
M  V30 9042 C 877.443 -0.200468 -2.32638 0
M  V30 9043 C 878.424 0.664031 -1.56603 0
M  V30 9044 O 879.609 0.598045 -1.84762 0
M  V30 9045 C 876.739 0.666274 -3.40849 0
M  V30 9046 C 875.693 -0.0982574 -4.27887 0
M  V30 9047 C 875.019 0.889018 -5.27258 0
M  V30 9048 C 876.319 -1.28692 -5.06197 0
M  V30 9049 H 878.013 -1.00399 -2.82065 0
M  V30 9050 H 875.559 -0.484237 -1.35614 0
M  V30 9051 H 877.512 1.08757 -4.07124 0
M  V30 9052 H 876.236 1.50249 -2.89987 0
M  V30 9053 H 874.895 -0.500525 -3.63167 0
M  V30 9054 H 874.543 1.72024 -4.7267 0
M  V30 9055 H 874.243 0.381909 -5.86358 0
M  V30 9056 H 875.767 1.30891 -5.96406 0
M  V30 9057 H 877.181 -0.941429 -5.65517 0
M  V30 9058 H 875.578 -1.72726 -5.74705 0
M  V30 9059 H 876.648 -2.08273 -4.37893 0
M  V30 9060 N 877.991 1.48044 -0.54043 0
M  V30 9061 C 879.402 1.86418 -0.102662 0
M  V30 9062 C 879.753 1.4489 1.32293 0
M  V30 9063 O 878.878 0.844319 1.99249 0
M  V30 9064 C 879.473 3.38324 -0.179533 0
M  V30 9065 C 878.032 3.75852 0.203098 0
M  V30 9066 C 877.179 2.72097 -0.534637 0
M  V30 9067 H 880.13 1.398 -0.751103 0
M  V30 9068 H 880.151 3.75641 0.606147 0
M  V30 9069 H 879.663 3.68518 -1.21721 0
M  V30 9070 H 877.764 3.51272 1.24252 0
M  V30 9071 H 877.877 4.78884 -0.143784 0
M  V30 9072 H 876.241 2.54692 0.0203358 0
M  V30 9073 H 877.024 3.05135 -1.57314 0
M  V30 9074 N 879.47 0.276058 1.55163 0
M  V30 9075 C 880.698 -0.343772 2.04024 0
M  V30 9076 C 881.113 -1.49397 1.15438 0
M  V30 9077 O 880.47 -1.81662 0.174692 0
M  V30 9078 C 880.521 -0.823885 3.51986 0
M  V30 9079 O 880.242 0.280507 4.37201 0
M  V30 9080 C 881.743 -1.51143 4.16738 0
M  V30 9081 H 878.963 -0.07828 0.666418 0
M  V30 9082 H 881.507 0.408427 2.0038 0
M  V30 9083 H 879.662 -1.52617 3.56071 0
M  V30 9084 H 880.076 -0.0887831 5.24425 0
M  V30 9085 H 881.55 -1.79878 5.2187 0
M  V30 9086 H 882.027 -2.44327 3.64967 0
M  V30 9087 H 882.633 -0.852975 4.16659 0
M  V30 9088 N 880.948 -1.576 0.00335426 0
M  V30 9089 C 882.197 -1.89892 -0.680001 0
M  V30 9090 C 882.51 -0.878731 -1.7475 0
M  V30 9091 O 883.716 -1.09199 -2.48572 0
M  V30 9092 C 882.172 -3.37098 -1.26066 0
M  V30 9093 C 881.78 -4.4742 -0.227807 0
M  V30 9094 C 883.524 -3.78495 -1.92202 0
M  V30 9095 C 881.431 -5.85706 -0.81865 0
M  V30 9096 H 880.361 -0.708578 -0.257746 0
M  V30 9097 H 883.012 -1.83387 0.0644472 0
M  V30 9098 H 881.394 -3.38451 -2.05589 0
M  V30 9099 H 882.568 -4.57589 0.54307 0
M  V30 9100 H 880.883 -4.15064 0.333297 0
M  V30 9101 H 883.48 -4.7915 -2.37318 0
M  V30 9102 H 883.823 -3.12187 -2.75399 0
M  V30 9103 H 884.356 -3.79456 -1.19408 0
M  V30 9104 H 881.095 -6.55495 -0.0253787 0
M  V30 9105 H 880.615 -5.79196 -1.55861 0
M  V30 9106 H 882.294 -6.33469 -1.31627 0
M  V30 9107 N 882.426 0.269451 -1.5528 0
M  V30 9108 C 883.675 0.998381 -1.75258 0
M  V30 9109 C 883.988 1.87321 -0.563034 0
M  V30 9110 O 885.194 2.63719 -0.645313 0
M  V30 9111 C 883.65 1.82505 -3.10193 0
M  V30 9112 C 883.258 0.99871 -4.36726 0
M  V30 9113 C 885.002 2.54807 -3.3952 0
M  V30 9114 C 882.909 1.81997 -5.627 0
M  V30 9115 H 881.839 0.376488 -0.653278 0
M  V30 9116 H 884.49 0.253909 -1.81735 0
M  V30 9117 H 882.872 2.61061 -2.97763 0
M  V30 9118 H 884.046 0.257064 -4.60082 0
M  V30 9119 H 882.361 0.390074 -4.14569 0
M  V30 9120 H 884.958 3.16662 -4.30847 0
M  V30 9121 H 885.301 3.25273 -2.59813 0
M  V30 9122 H 885.834 1.83278 -3.53064 0
M  V30 9123 H 882.573 1.15945 -6.45164 0
M  V30 9124 H 882.093 2.53749 -5.43481 0
M  V30 9125 H 883.772 2.39274 -6.0113 0
M  V30 9126 N 883.904 1.48273 0.534124 0
M  V30 9127 C 885.152 1.55771 1.28762 0
M  V30 9128 C 885.473 0.231575 1.9362 0
M  V30 9129 O 884.743 -0.746533 1.81118 0
M  V30 9130 H 883.323 0.573851 0.47823 0
M  V30 9131 H 885.985 1.84712 0.621888 0
M  V30 9132 H 885.081 2.33657 2.06908 0
M  V30 9133 N 885.382 -0.782676 1.36792 0
M  V30 9134 C 886.607 -1.57676 1.34733 0
M  V30 9135 C 887.032 -1.87979 -0.0675253 0
M  V30 9136 O 886.39 -1.48404 -1.04144 0
M  V30 9137 C 886.438 -2.87047 2.18257 0
M  V30 9138 O 885.542 -3.80946 1.57969 0
M  V30 9139 H 884.883 -0.478034 0.460846 0
M  V30 9140 H 887.413 -0.969578 1.80168 0
M  V30 9141 H 887.423 -3.36254 2.31079 0
M  V30 9142 H 886.098 -2.64319 3.21104 0
M  V30 9143 H 884.675 -3.39558 1.54126 0
M  V30 9144 N 886.86 -1.21182 -1.00761 0
M  V30 9145 C 888.271 -1.02652 -1.55947 0
M  V30 9146 C 888.622 0.414466 -1.91772 0
M  V30 9147 O 887.747 1.29727 -1.73204 0
M  V30 9148 C 888.342 -1.85713 -2.83366 0
M  V30 9149 C 886.901 -1.71523 -3.35048 0
M  V30 9150 C 886.048 -1.83087 -2.08265 0
M  V30 9151 H 888.999 -1.35242 -0.830379 0
M  V30 9152 H 889.02 -1.36583 -3.55141 0
M  V30 9153 H 888.532 -2.90584 -2.5726 0
M  V30 9154 H 886.633 -0.693257 -3.66094 0
M  V30 9155 H 886.746 -2.53333 -4.06644 0
M  V30 9156 H 885.11 -1.26367 -2.21141 0
M  V30 9157 H 885.893 -2.8946 -1.84575 0
M  V30 9158 N 888.338 1.20213 -1.01915 0
M  V30 9159 C 889.566 1.93622 -0.729255 0
M  V30 9160 C 889.981 1.74923 0.710444 0
M  V30 9161 O 889.338 1.06484 1.48214 0
M  V30 9162 C 889.389 3.45651 -1.05865 0
M  V30 9163 O 889.11 3.63741 -2.44181 0
M  V30 9164 C 890.611 4.36201 -0.790176 0
M  V30 9165 H 887.831 0.615333 -0.267594 0
M  V30 9166 H 890.375 1.52633 -1.36101 0
M  V30 9167 H 888.53 3.84511 -0.47225 0
M  V30 9168 H 888.944 4.57702 -2.56143 0
M  V30 9169 H 890.418 5.41516 -1.07071 0
M  V30 9170 H 890.895 4.38334 0.275609 0
M  V30 9171 H 891.501 4.03008 -1.35885 0
M  V30 9172 N 889.816 0.795718 1.36037 0
M  V30 9173 C 890.763 0.196548 2.29962 0
M  V30 9174 C 891.733 -0.663213 1.52285 0
M  V30 9175 O 892.918 -0.610574 1.80767 0
M  V30 9176 C 890.058 -0.657639 3.38776 0
M  V30 9177 C 889.171 0.221358 4.31433 0
M  V30 9178 C 888.306 -0.6398 5.27333 0
M  V30 9179 C 887.345 0.240265 6.11628 0
M  V30 9180 N 886.482 -0.580237 6.99698 0
M  V30 9181 H 891.322 1.00295 2.80615 0
M  V30 9182 H 888.859 0.506147 1.38118 0
M  V30 9183 H 890.817 -1.16793 4.00519 0
M  V30 9184 H 889.447 -1.42941 2.89426 0
M  V30 9185 H 888.499 0.84967 3.70789 0
M  V30 9186 H 889.811 0.899195 4.90628 0
M  V30 9187 H 888.965 -1.21566 5.94396 0
M  V30 9188 H 887.704 -1.35124 4.68607 0
M  V30 9189 H 886.709 0.828474 5.43522 0
M  V30 9190 H 887.934 0.949403 6.72431 0
M  V30 9191 H 885.88 -1.27585 6.43473 0
M  V30 9192 H 885.797 0.0397853 7.5599 0
M  V30 9193 H 887.065 -1.13972 7.71123 0
M  V30 9194 N 891.294 -1.47756 0.548274 0
M  V30 9195 C 892.522 -2.06884 0.0254873 0
M  V30 9196 C 892.937 -1.40225 -1.26422 0
M  V30 9197 O 892.294 -0.495776 -1.75637 0
M  V30 9198 C 892.345 -3.61036 -0.183134 0
M  V30 9199 O 892.066 -4.25195 1.05549 0
M  V30 9200 C 893.567 -4.37008 -0.744222 0
M  V30 9201 H 890.787 -0.669697 0.041789 0
M  V30 9202 H 893.331 -1.89888 0.759138 0
M  V30 9203 H 891.486 -3.77576 -0.866886 0
M  V30 9204 H 891.9 -5.17606 0.847629 0
M  V30 9205 H 893.374 -5.45579 -0.839529 0
M  V30 9206 H 893.851 -4.0268 -1.75344 0
M  V30 9207 H 894.457 -4.25191 -0.0964542 0
M  V30 9208 N 892.772 -0.284283 -1.55015 0
M  V30 9209 C 894 0.332948 -2.04203 0
M  V30 9210 C 894.415 1.48783 -1.16229 0
M  V30 9211 O 893.772 1.81567 -0.184323 0
M  V30 9212 C 893.823 0.805207 -3.52418 0
M  V30 9213 O 893.544 -0.303689 -4.37046 0
M  V30 9214 C 895.045 1.48931 -4.17534 0
M  V30 9215 H 892.265 0.0747447 -0.666824 0
M  V30 9216 H 894.809 -0.419048 -2.00161 0
M  V30 9217 H 892.964 1.50727 -3.56876 0
M  V30 9218 H 893.378 0.0609703 -5.24465 0
M  V30 9219 H 894.852 1.77108 -5.22816 0
M  V30 9220 H 895.329 2.42389 -3.66257 0
M  V30 9221 H 895.935 0.830867 -4.17105 0
M  V30 9222 N 894.251 1.57596 -0.0117121 0
M  V30 9223 C 895.214 2.08089 0.960816 0
M  V30 9224 C 896.214 0.992519 1.26514 0
M  V30 9225 O 897.404 1.25475 1.20837 0
M  V30 9226 C 894.536 2.53217 2.28241 0
M  V30 9227 H 895.729 2.9529 0.523829 0
M  V30 9228 H 893.282 1.54508 0.235995 0
M  V30 9229 H 894.017 1.69294 2.76604 0
M  V30 9230 H 893.802 3.32714 2.0747 0
M  V30 9231 H 895.292 2.92568 2.97983 0
M  V30 9232 N 895.729 -0.261212 1.5542 0
M  V30 9233 C 897.14 -0.83138 1.67167 0
M  V30 9234 C 897.491 -1.8659 0.606525 0
M  V30 9235 O 896.616 -2.14953 -0.24985 0
M  V30 9236 C 897.211 -1.51475 3.03052 0
M  V30 9237 C 895.77 -2.0328 3.16787 0
M  V30 9238 C 894.917 -0.878903 2.63003 0
M  V30 9239 H 897.868 -0.0373102 1.58656 0
M  V30 9240 H 897.889 -2.38222 2.96699 0
M  V30 9241 H 897.401 -0.76157 3.80554 0
M  V30 9242 H 895.502 -2.81523 2.44082 0
M  V30 9243 H 895.615 -2.24001 4.2351 0
M  V30 9244 H 893.979 -1.27551 2.2046 0
M  V30 9245 H 894.762 -0.13904 3.43018 0
M  V30 9246 N 897.207 -1.48554 -0.526253 0
M  V30 9247 C 898.454 -1.56761 -1.28188 0
M  V30 9248 C 898.782 -0.24315 -1.92974 0
M  V30 9249 O 898.037 0.766883 -1.80048 0
M  V30 9250 C 898.336 -2.65739 -2.38993 0
M  V30 9251 C 898.002 -4.08057 -1.91834 0
M  V30 9252 C 896.664 -4.46792 -1.78691 0
M  V30 9253 C 899.016 -4.9723 -1.56242 0
M  V30 9254 C 896.344 -5.72501 -1.28296 0
M  V30 9255 C 898.696 -6.23432 -1.07309 0
M  V30 9256 C 897.36 -6.6102 -0.927853 0
M  V30 9257 H 896.63 -0.573631 -0.469072 0
M  V30 9258 H 899.277 -1.82287 -0.586842 0
M  V30 9259 H 897.582 -2.34088 -3.14181 0
M  V30 9260 H 899.279 -2.69304 -2.97113 0
M  V30 9261 H 895.869 -3.77469 -2.03016 0
M  V30 9262 H 900.053 -4.67979 -1.65255 0
M  V30 9263 H 895.309 -6.00345 -1.15742 0
M  V30 9264 H 899.483 -6.91923 -0.788412 0
M  V30 9265 H 897.11 -7.58314 -0.535162 0
M  V30 9266 N 898.685 0.775411 -1.37205 0
M  V30 9267 C 899.632 1.88857 -1.32671 0
M  V30 9268 C 900.602 1.64976 -0.192899 0
M  V30 9269 O 901.787 1.86944 -0.381673 0
M  V30 9270 C 898.927 3.25871 -1.13588 0
M  V30 9271 C 898.04 3.61731 -2.36167 0
M  V30 9272 C 897.175 4.87934 -2.09985 0
M  V30 9273 C 896.214 5.16514 -3.2845 0
M  V30 9274 N 895.351 6.33905 -3.01842 0
M  V30 9275 H 900.191 1.92068 -2.27846 0
M  V30 9276 H 897.728 0.939066 -1.13225 0
M  V30 9277 H 899.686 4.04903 -1.00546 0
M  V30 9278 H 898.316 3.22045 -0.220613 0
M  V30 9279 H 897.368 2.77712 -2.59962 0
M  V30 9280 H 898.68 3.78792 -3.24528 0
M  V30 9281 H 897.834 5.74863 -1.93953 0
M  V30 9282 H 896.573 4.7297 -1.18956 0
M  V30 9283 H 895.578 4.28063 -3.45025 0
M  V30 9284 H 896.803 5.33389 -4.20325 0
M  V30 9285 H 894.749 6.20306 -2.13439 0
M  V30 9286 H 894.666 6.51364 -3.83746 0
M  V30 9287 H 895.934 7.23779 -2.8942 0
M  V30 9288 N 900.163 1.21714 1.00117 0
M  V30 9289 C 901.412 1.03087 1.73367 0
M  V30 9290 C 901.725 -0.435532 1.90689 0
M  V30 9291 O 902.931 -0.741291 2.61184 0
M  V30 9292 C 901.387 1.79593 3.11888 0
M  V30 9293 C 900.995 3.30428 3.02525 0
M  V30 9294 C 902.739 1.69386 3.89241 0
M  V30 9295 C 900.646 3.99408 4.3615 0
M  V30 9296 H 899.576 0.382117 0.650002 0
M  V30 9297 H 902.227 1.45486 1.11831 0
M  V30 9298 H 900.609 1.29988 3.74058 0
M  V30 9299 H 901.783 3.87364 2.49571 0
M  V30 9300 H 900.098 3.4122 2.38659 0
M  V30 9301 H 902.695 2.18251 4.8813 0
M  V30 9302 H 903.038 0.652773 4.1115 0
M  V30 9303 H 903.571 2.16489 3.33733 0
M  V30 9304 H 900.31 5.03735 4.19442 0
M  V30 9305 H 899.83 3.47261 4.8905 0
M  V30 9306 H 901.509 4.04537 5.04934 0
M  V30 9307 N 901.641 -1.19671 1.02551 0
M  V30 9308 C 903.052 -1.70964 0.750208 0
M  V30 9309 C 903.403 -1.82095 -0.730461 0
M  V30 9310 O 902.528 -1.48974 -1.56958 0
M  V30 9311 C 903.123 -3.10516 1.35518 0
M  V30 9312 C 901.682 -3.59083 1.12854 0
M  V30 9313 C 900.829 -2.36041 1.45534 0
M  V30 9314 H 903.78 -1.04559 1.19386 0
M  V30 9315 H 903.801 -3.73028 0.750378 0
M  V30 9316 H 903.313 -3.02383 2.43282 0
M  V30 9317 H 901.414 -3.72536 0.0689627 0
M  V30 9318 H 901.527 -4.43395 1.81488 0
M  V30 9319 H 899.891 -2.39214 0.87458 0
M  V30 9320 H 900.674 -2.3054 2.54374 0
M  V30 9321 N 903.119 -0.802921 -1.35613 0
M  V30 9322 C 904.066 -0.20874 -2.29854 0
M  V30 9323 C 905.036 0.655128 -1.52634 0
M  V30 9324 O 906.221 0.600979 -1.81088 0
M  V30 9325 C 903.361 0.639663 -3.3912 0
M  V30 9326 C 902.474 -0.244234 -4.31309 0
M  V30 9327 C 901.609 0.611825 -5.27665 0
M  V30 9328 C 900.648 -0.272698 -6.11492 0
M  V30 9329 N 899.785 0.543122 -6.99996 0
M  V30 9330 H 904.625 -1.01782 -2.80079 0
M  V30 9331 H 902.162 -0.513465 -1.37848 0
M  V30 9332 H 904.12 1.14668 -4.01132 0
M  V30 9333 H 902.75 1.41404 -2.9018 0
M  V30 9334 H 901.802 -0.869322 -3.70334 0
M  V30 9335 H 903.114 -0.925202 -4.90144 0
M  V30 9336 H 902.268 1.18412 -5.95032 0
M  V30 9337 H 901.007 1.32637 -4.69317 0
M  V30 9338 H 900.012 -0.857287 -5.43075 0
M  V30 9339 H 901.237 -0.985051 -6.71918 0
M  V30 9340 H 899.183 1.24171 -6.44141 0
M  V30 9341 H 899.1 -0.0798767 -7.55958 0
M  V30 9342 H 900.368 1.09881 -7.71717 0
M  V30 9343 N 904.597 1.47463 -0.556102 0
M  V30 9344 C 905.825 2.06868 -0.0364585 0
M  V30 9345 C 906.24 1.40893 1.25677 0
M  V30 9346 O 905.597 0.505083 1.75371 0
M  V30 9347 C 905.648 3.61128 0.163984 0
M  V30 9348 O 905.369 4.24629 -1.07803 0
M  V30 9349 C 906.87 4.37397 0.721036 0
M  V30 9350 H 904.09 0.669466 -0.0453399 0
M  V30 9351 H 906.634 1.89482 -0.769198 0
M  V30 9352 H 904.789 3.78031 0.84685 0
M  V30 9353 H 905.203 5.17149 -0.875067 0
M  V30 9354 H 906.677 5.46016 0.810584 0
M  V30 9355 H 907.154 4.03604 1.73206 0
M  V30 9356 H 907.76 4.25236 0.073904 0
M  V30 9357 N 906.075 0.2925 1.54862 0
M  V30 9358 C 907.007 -0.620889 2.2063 0
M  V30 9359 C 908.02 -1.10412 1.19637 0
M  V30 9360 O 909.209 -1.02304 1.46274 0
M  V30 9361 C 906.309 -1.861 2.83232 0
M  V30 9362 C 905.482 -1.52168 4.10078 0
M  V30 9363 C 904.541 -2.61605 4.56562 0
M  V30 9364 O 903.567 -2.27056 5.21952 0
M  V30 9365 N 904.769 -3.9199 4.28163 0
M  V30 9366 H 907.534 -0.0579028 2.99644 0
M  V30 9367 H 905.095 0.114333 1.61496 0
M  V30 9368 H 907.087 -2.58642 3.11266 0
M  V30 9369 H 905.657 -2.33259 2.08108 0
M  V30 9370 H 904.877 -0.629283 3.89145 0
M  V30 9371 H 906.165 -1.27023 4.92689 0
M  V30 9372 H 905.563 -4.22872 3.7576 0
M  V30 9373 H 904.12 -4.60857 4.60928 0
M  V30 9374 N 907.553 -1.57587 0.0200696 0
M  V30 9375 C 908.516 -2.08595 -0.949767 0
M  V30 9376 C 909.516 -0.999215 -1.25985 0
M  V30 9377 O 910.706 -1.26115 -1.2017 0
M  V30 9378 C 907.838 -2.54424 -2.26895 0
M  V30 9379 H 909.031 -2.95563 -0.508161 0
M  V30 9380 H 906.584 -1.54631 -0.227798 0
M  V30 9381 H 907.319 -1.70758 -2.75703 0
M  V30 9382 H 907.104 -3.3381 -2.05702 0
M  V30 9383 H 908.594 -2.94144 -2.96427 0
M  V30 9384 N 909.032 0.252966 -1.55557 0
M  V30 9385 C 910.257 1.0038 -1.8149 0
M  V30 9386 C 910.682 1.78397 -0.596318 0
M  V30 9387 O 910.04 1.7551 0.454535 0
M  V30 9388 C 910.088 1.9222 -3.05096 0
M  V30 9389 O 909.192 3.01302 -2.81587 0
M  V30 9390 H 908.533 0.285949 -0.599274 0
M  V30 9391 H 911.063 0.275795 -2.02733 0
M  V30 9392 H 911.073 2.338 -3.34368 0
M  V30 9393 H 909.748 1.34852 -3.93431 0
M  V30 9394 H 908.325 2.63894 -2.63466 0
M  V30 9395 N 910.51 1.48831 0.518367 0
M  V30 9396 C 911.735 1.61379 1.30275 0
M  V30 9397 C 912.16 0.278571 1.86026 0
M  V30 9398 O 911.518 -0.751427 1.64995 0
M  V30 9399 C 911.566 2.67225 2.42122 0
M  V30 9400 O 910.67 2.25192 3.45489 0
M  V30 9401 H 910.011 0.540742 0.385349 0
M  V30 9402 H 912.541 1.949 0.622498 0
M  V30 9403 H 912.551 2.88859 2.8814 0
M  V30 9404 H 911.226 3.64155 2.00907 0
M  V30 9405 H 909.803 2.13819 3.05509 0
M  V30 9406 N 911.988 -0.768124 1.37614 0
M  V30 9407 C 912.936 -1.9029 1.33763 0
M  V30 9408 C 913.93 -1.67888 0.225814 0
M  V30 9409 O 915.136 -1.75634 0.394043 0
M  V30 9410 H 911.511 -0.625828 0.416945 0
M  V30 9411 H 913.482 -1.90654 2.29551 0
M  V30 9412 C 912.231 -3.27598 1.16511 0
M  V30 9413 H 911.554 -3.45414 2.01318 0
M  V30 9414 H 912.994 -4.07288 1.17867 0
M  V30 9415 C 911.453 -3.36653 -0.129001 0
M  V30 9416 O 911.983 -3.86023 -1.11128 0
M  V30 9417 N 910.189 -2.90036 -0.180926 0
M  V30 9418 H 909.736 -2.5005 0.619076 0
M  V30 9419 H 909.694 -2.96475 -1.04641 0
M  V30 9420 N 913.466 -1.22244 -0.994698 0
M  V30 9421 C 914.396 -1.01513 -2.10279 0
M  V30 9422 C 915.377 0.0633365 -1.69982 0
M  V30 9423 O 916.562 -0.0985268 -1.9395 0
M  V30 9424 C 913.692 -0.59016 -3.42249 0
M  V30 9425 C 912.646 -1.61436 -3.96387 0
M  V30 9426 C 911.972 -1.04528 -5.24383 0
M  V30 9427 C 913.272 -3.00388 -4.27276 0
M  V30 9428 H 914.966 -1.94194 -2.2788 0
M  V30 9429 H 912.512 -0.935094 -1.09508 0
M  V30 9430 H 914.465 -0.432254 -4.19177 0
M  V30 9431 H 913.189 0.372308 -3.24471 0
M  V30 9432 H 911.848 -1.76001 -3.21589 0
M  V30 9433 H 911.496 -0.0742225 -5.02945 0
M  V30 9434 H 911.196 -1.72949 -5.61571 0
M  V30 9435 H 912.72 -0.898922 -6.03947 0
M  V30 9436 H 914.134 -2.89207 -4.95007 0
M  V30 9437 H 912.531 -3.65916 -4.75631 0
M  V30 9438 H 913.601 -3.50456 -3.35125 0
M  V30 9439 N 914.944 1.19125 -1.03184 0
M  V30 9440 C 915.874 2.24675 -0.635889 0
M  V30 9441 C 916.855 1.66321 0.356565 0
M  V30 9442 O 918.04 1.92728 0.238625 0
M  V30 9443 C 915.17 3.47298 0.011069 0
M  V30 9444 C 914.124 4.18345 -0.903979 0
M  V30 9445 C 913.45 5.34561 -0.12197 0
M  V30 9446 C 914.75 4.72816 -2.21907 0
M  V30 9447 H 916.444 2.5805 -1.51825 0
M  V30 9448 H 913.99 1.24039 -0.73146 0
M  V30 9449 H 915.943 4.20333 0.299729 0
M  V30 9450 H 914.667 3.13131 0.928245 0
M  V30 9451 H 913.326 3.47196 -1.17688 0
M  V30 9452 H 912.974 4.9664 0.797334 0
M  V30 9453 H 912.674 5.83029 -0.731498 0
M  V30 9454 H 914.198 6.10391 0.159881 0
M  V30 9455 H 915.612 5.3759 -1.99173 0
M  V30 9456 H 914.009 5.31782 -2.78078 0
M  V30 9457 H 915.079 3.9072 -2.87168 0
M  V30 9458 N 916.422 0.810101 1.35185 0
M  V30 9459 C 917.385 0.22852 2.28058 0
M  V30 9460 C 918.385 -0.586168 1.49735 0
M  V30 9461 O 919.575 -0.40414 1.69447 0
M  V30 9462 C 916.707 -0.681041 3.34028 0
M  V30 9463 H 917.9 1.04768 2.81005 0
M  V30 9464 H 915.453 0.58101 1.451 0
M  V30 9465 H 916.188 -1.52375 2.86273 0
M  V30 9466 H 915.973 -0.0985276 3.91976 0
M  V30 9467 H 917.463 -1.08217 4.03335 0
M  V30 9468 N 917.9 -1.47166 0.563914 0
M  V30 9469 C 918.83 -2.32894 -0.168148 0
M  V30 9470 C 919.811 -1.44202 -0.902214 0
M  V30 9471 O 920.996 -1.73048 -0.881365 0
M  V30 9472 C 918.126 -3.26116 -1.19439 0
M  V30 9473 C 917.08 -4.24101 -0.576363 0
M  V30 9474 C 916.406 -5.06696 -1.70772 0
M  V30 9475 C 917.706 -5.20142 0.47425 0
M  V30 9476 H 919.4 -2.9435 0.547573 0
M  V30 9477 H 916.946 -1.41545 0.264778 0
M  V30 9478 H 918.899 -3.84935 -1.71474 0
M  V30 9479 H 917.623 -2.62728 -1.94014 0
M  V30 9480 H 916.282 -3.66519 -0.0772534 0
M  V30 9481 H 915.93 -4.39707 -2.44268 0
M  V30 9482 H 915.63 -5.7304 -1.29994 0
M  V30 9483 H 917.154 -5.68375 -2.2312 0
M  V30 9484 H 918.568 -5.73286 0.0397035 0
M  V30 9485 H 916.965 -5.94726 0.801287 0
M  V30 9486 H 918.035 -4.65214 1.36764 0
M  V30 9487 N 919.378 -0.300708 -1.54705 0
M  V30 9488 C 920.624 0.309111 -2.0043 0
M  V30 9489 C 920.957 1.53562 -1.1888 0
M  V30 9490 O 920.232 1.92683 -0.265205 0
M  V30 9491 C 920.515 0.665995 -3.53888 0
M  V30 9492 C 920.368 -0.56963 -4.46178 0
M  V30 9493 C 921.687 1.49262 -4.14016 0
M  V30 9494 H 918.806 0.110878 -0.728612 0
M  V30 9495 H 921.448 -0.412748 -1.85463 0
M  V30 9496 H 919.598 1.281 -3.66773 0
M  V30 9497 H 921.27 -1.20811 -4.45199 0
M  V30 9498 H 919.513 -1.20292 -4.16788 0
M  V30 9499 H 920.184 -0.275785 -5.51311 0
M  V30 9500 H 922.66 0.972979 -4.04564 0
M  V30 9501 H 921.536 1.71111 -5.21548 0
M  V30 9502 H 921.797 2.48174 -3.65872 0
M  V30 9503 N 920.856 1.57574 -0.0284266 0
M  V30 9504 C 922.084 1.96071 0.660575 0
M  V30 9505 C 922.499 0.904881 1.65703 0
M  V30 9506 O 921.856 -0.113379 1.82147 0
M  V30 9507 C 921.907 3.34634 1.36756 0
M  V30 9508 O 921.628 4.36167 0.411041 0
M  V30 9509 C 923.129 3.87758 2.14845 0
M  V30 9510 H 920.349 0.645794 0.182183 0
M  V30 9511 H 922.893 2.04311 -0.0879858 0
M  V30 9512 H 921.048 3.27616 2.06753 0
M  V30 9513 H 921.462 5.16493 0.913 0
M  V30 9514 H 922.936 4.87058 2.59767 0
M  V30 9515 H 923.413 3.21967 2.9872 0
M  V30 9516 H 924.019 3.98043 1.49807 0
M  V30 9517 N 922.334 -0.244713 1.55689 0
M  V30 9518 C 923.75 -0.593331 1.48161 0
M  V30 9519 C 923.95 -1.88234 0.719047 0
M  V30 9520 O 923.006 -2.51266 0.249292 0
M  V30 9521 C 924.319 -0.694032 2.92581 0
M  V30 9522 C 925.867 -0.786213 3.02965 0
M  V30 9523 C 926.342 -0.918457 4.48696 0
M  V30 9524 N 927.833 -0.983272 4.52643 0
M  V30 9525 C 928.568 -1.1049 5.62654 0
M  V30 9526 N 928.064 -1.19193 6.8247 0
M  V30 9527 N 929.857 -1.13823 5.50455 0
M  V30 9528 H 922.008 0.601446 2.03707 0
M  V30 9529 H 924.271 0.207894 0.924924 0
M  V30 9530 H 923.977 0.183133 3.51223 0
M  V30 9531 H 923.851 -1.56525 3.4319 0
M  V30 9532 H 926.238 -1.65383 2.44402 0
M  V30 9533 H 926.319 0.110202 2.55563 0
M  V30 9534 H 925.963 -0.0553881 5.0787 0
M  V30 9535 H 925.893 -1.82994 4.93782 0
M  V30 9536 H 928.384 -0.927269 3.66347 0
M  V30 9537 H 928.697 -1.28387 7.62061 0
M  V30 9538 H 927.042 -1.16147 6.85226 0
M  V30 9539 H 930.233 -1.06673 4.55783 0
M  V30 9540 H 930.406 -1.22957 6.36228 0
M  V30 9541 N 923.813 -1.49104 -0.510467 0
M  V30 9542 C 924.763 -1.6147 -1.6097 0
M  V30 9543 C 925.747 -0.470797 -1.53858 0
M  V30 9544 O 926.939 -0.723266 -1.61548 0
M  V30 9545 C 924.068 -1.67575 -2.99622 0
M  V30 9546 C 923.154 -2.87511 -3.11766 0
M  V30 9547 N 923.545 -4.11704 -2.93826 0
M  V30 9548 C 921.843 -2.85251 -3.42852 0
M  V30 9549 C 922.544 -4.92276 -3.09902 0
M  V30 9550 N 921.52 -4.2546 -3.38355 0
M  V30 9551 H 925.322 -2.5522 -1.45739 0
M  V30 9552 H 922.836 -1.45745 -0.716383 0
M  V30 9553 H 924.833 -1.74531 -3.78609 0
M  V30 9554 H 923.493 -0.749557 -3.1593 0
M  V30 9555 H 924.504 -4.41834 -2.70191 0
M  V30 9556 H 921.181 -2.0197 -3.65396 0
M  V30 9557 H 922.571 -6.00905 -3.00604 0
M  V30 9558 N 925.291 0.760815 -1.38019 0
M  V30 9559 C 926.539 1.51673 -1.33566 0
M  V30 9560 C 926.86 1.94852 0.076024 0
M  V30 9561 O 926.13 1.67112 1.02227 0
M  V30 9562 H 924.71 0.562581 -0.491438 0
M  V30 9563 H 927.372 0.904832 -1.72623 0
M  V30 9564 H 926.468 2.41102 -1.98182 0
M  V30 9565 N 926.769 1.22769 0.988202 0
M  V30 9566 C 928.18 1.0512 1.54294 0
M  V30 9567 C 928.531 -0.383904 1.92407 0
M  V30 9568 O 927.656 -1.26955 1.75246 0
M  V30 9569 C 928.251 1.90198 2.80375 0
M  V30 9570 C 926.81 1.76831 3.32276 0
M  V30 9571 C 925.957 1.86377 2.05326 0
M  V30 9572 H 928.908 1.36546 0.808758 0
M  V30 9573 H 928.929 1.42216 3.52923 0
M  V30 9574 H 928.441 2.9464 2.52605 0
M  V30 9575 H 926.542 0.751412 3.64945 0
M  V30 9576 H 926.655 2.59771 4.02562 0
M  V30 9577 H 925.019 1.2987 2.19103 0
M  V30 9578 H 925.802 2.9236 1.79946 0
M  V30 9579 N 928.247 -1.18576 1.03814 0
M  V30 9580 C 929.21 -2.2033 0.63146 0
M  V30 9581 C 930.21 -1.57787 -0.309816 0
M  V30 9582 O 931.4 -1.73938 -0.0955598 0
M  V30 9583 C 928.532 -3.40818 -0.0745963 0
M  V30 9584 H 929.725 -2.57824 1.53189 0
M  V30 9585 H 927.278 -1.32416 0.830398 0
M  V30 9586 H 928.013 -3.08853 -0.988947 0
M  V30 9587 H 927.798 -3.87453 0.6019 0
M  V30 9588 H 929.288 -4.16166 -0.345727 0
M  V30 9589 N 929.725 -0.817259 -1.34754 0
M  V30 9590 C 930.635 -0.236946 -2.334 0
M  V30 9591 C 931.651 0.625685 -1.62361 0
M  V30 9592 O 932.827 0.534921 -1.94166 0
M  V30 9593 C 929.892 0.596215 -3.41535 0
M  V30 9594 C 928.953 -0.288154 -4.28332 0
M  V30 9595 C 928.186 0.505337 -5.31302 0
M  V30 9596 O 928.409 1.73912 -5.43241 0
M  V30 9597 O 927.343 -0.109374 -6.01801 0
M  V30 9598 H 931.169 -1.05327 -2.84851 0
M  V30 9599 H 928.754 -0.579275 -1.37713 0
M  V30 9600 H 930.636 1.07041 -4.07578 0
M  V30 9601 H 929.311 1.38997 -2.92338 0
M  V30 9602 H 928.218 -0.809724 -3.65232 0
M  V30 9603 H 929.551 -1.04612 -4.80955 0
M  V30 9604 N 931.203 1.46865 -0.571711 0
M  V30 9605 C 932.113 2.33979 0.170571 0
M  V30 9606 C 933.129 1.49083 0.897239 0
M  V30 9607 O 934.305 1.81979 0.862888 0
M  V30 9608 C 931.37 3.26063 1.17831 0
M  V30 9609 C 930.431 4.26855 0.457499 0
M  V30 9610 C 929.664 5.14539 1.41722 0
M  V30 9611 O 929.887 5.04945 2.65305 0
M  V30 9612 O 928.821 5.94612 0.9338 0
M  V30 9613 H 932.647 2.98781 -0.544396 0
M  V30 9614 H 930.232 1.4566 -0.332198 0
M  V30 9615 H 932.114 3.82903 1.75965 0
M  V30 9616 H 930.789 2.63871 1.87493 0
M  V30 9617 H 929.696 3.73734 -0.165406 0
M  V30 9618 H 931.029 4.91802 -0.197953 0
M  V30 9619 N 932.681 0.308908 1.54543 0
M  V30 9620 C 933.613 -0.597453 2.21276 0
M  V30 9621 C 934.626 -1.09137 1.20801 0
M  V30 9622 O 935.815 -1.00747 1.47351 0
M  V30 9623 C 932.915 -1.83085 2.85189 0
M  V30 9624 C 932.088 -1.4781 4.11669 0
M  V30 9625 C 931.147 -2.56748 4.59311 0
M  V30 9626 O 930.173 -2.21507 5.24331 0
M  V30 9627 N 931.375 -3.87427 4.32297 0
M  V30 9628 H 934.14 -0.0261183 2.99689 0
M  V30 9629 H 931.701 0.131456 1.61365 0
M  V30 9630 H 933.693 -2.55326 3.13992 0
M  V30 9631 H 932.263 -2.31039 2.1057 0
M  V30 9632 H 931.483 -0.587974 3.8979 0
M  V30 9633 H 932.771 -1.2179 4.94009 0
M  V30 9634 H 932.169 -4.18863 3.80224 0
M  V30 9635 H 930.726 -4.55942 4.6579 0
M  V30 9636 N 934.159 -1.57557 0.0367827 0
M  V30 9637 C 935.384 -1.96828 -0.653707 0
M  V30 9638 C 935.809 -0.913559 -1.64425 0
M  V30 9639 O 935.167 0.124749 -1.8087 0
M  V30 9640 C 935.215 -3.35189 -1.32969 0
M  V30 9641 O 934.319 -3.32095 -2.44513 0
M  V30 9642 H 933.66 -0.64157 -0.171124 0
M  V30 9643 H 936.19 -2.04351 0.100912 0
M  V30 9644 H 936.2 -3.71593 -1.68472 0
M  V30 9645 H 934.875 -4.11496 -0.603654 0
M  V30 9646 H 933.452 -3.07418 -2.11065 0
M  V30 9647 N 935.637 0.236453 -1.55816 0
M  V30 9648 C 936.584 1.29289 -1.91188 0
M  V30 9649 C 937.554 1.47315 -0.767301 0
M  V30 9650 O 938.739 1.61128 -1.02189 0
M  V30 9651 C 935.879 2.64126 -2.22107 0
M  V30 9652 C 934.992 2.54022 -3.49423 0
M  V30 9653 C 934.127 3.81282 -3.69861 0
M  V30 9654 C 933.166 3.65839 -4.90743 0
M  V30 9655 N 932.303 4.85014 -5.07647 0
M  V30 9656 H 937.143 0.98424 -2.81277 0
M  V30 9657 H 934.68 0.474722 -1.39229 0
M  V30 9658 H 936.638 3.42626 -2.3804 0
M  V30 9659 H 935.268 2.93118 -1.35209 0
M  V30 9660 H 934.32 1.67036 -3.41765 0
M  V30 9661 H 935.632 2.38525 -4.38072 0
M  V30 9662 H 934.786 4.68226 -3.8581 0
M  V30 9663 H 933.525 3.99688 -2.79465 0
M  V30 9664 H 932.53 2.77279 -4.74759 0
M  V30 9665 H 933.755 3.48918 -5.82609 0
M  V30 9666 H 931.701 5.03762 -4.20191 0
M  V30 9667 H 931.618 4.72188 -5.90402 0
M  V30 9668 H 932.886 5.73427 -5.28017 0
M  V30 9669 N 937.115 1.49373 0.502552 0
M  V30 9670 C 938.392 1.49282 1.26389 0
M  V30 9671 C 938.772 0.219674 2.09954 0
M  V30 9672 O 938.12 -0.797991 2.14113 0
M  V30 9673 C 938.33 2.77083 2.12194 0
M  V30 9674 C 939.678 3.26511 2.71433 0
M  V30 9675 O 940.702 2.78189 2.22462 0
M  V30 9676 O 939.561 4.10665 3.60578 0
M  V30 9677 H 936.655 0.597415 0.57186 0
M  V30 9678 H 939.201 1.61634 0.516951 0
M  V30 9679 H 937.973 3.61237 1.50411 0
M  V30 9680 H 937.596 2.67583 2.94084 0
M  V30 9681 N 938.594 -0.753485 1.38421 0
M  V30 9682 C 939.842 -1.50962 1.34368 0
M  V30 9683 C 940.163 -1.94889 -0.0656895 0
M  V30 9684 O 939.433 -1.67652 -1.01339 0
M  V30 9685 H 938.013 -0.559967 0.494415 0
M  V30 9686 H 940.675 -0.895665 1.73101 0
M  V30 9687 H 939.771 -2.40048 1.99458 0
M  V30 9688 N 940.072 -1.23292 -0.981677 0
M  V30 9689 C 941.02 -1.0104 -2.09508 0
M  V30 9690 C 942.014 0.0501977 -1.69326 0
M  V30 9691 O 943.22 -0.103197 -1.79704 0
M  V30 9692 H 939.595 -0.309629 -0.685298 0
M  V30 9693 H 941.566 -1.95493 -2.25444 0
M  V30 9694 C 940.315 -0.616885 -3.42184 0
M  V30 9695 H 939.638 -1.4247 -3.73554 0
M  V30 9696 H 941.078 -0.500688 -4.21033 0
M  V30 9697 C 939.537 0.674721 -3.30074 0
M  V30 9698 O 940.067 1.72421 -3.62814 0
M  V30 9699 N 938.273 0.650151 -2.83234 0
M  V30 9700 H 937.82 -0.204225 -2.56789 0
M  V30 9701 H 937.778 1.51458 -2.75514 0
M  V30 9702 N 941.55 1.18024 -1.04442 0
M  V30 9703 C 942.46 2.25436 -0.649276 0
M  V30 9704 C 943.476 1.70915 0.326189 0
M  V30 9705 O 944.652 2.00592 0.180174 0
M  V30 9706 C 941.717 3.46693 -0.0222558 0
M  V30 9707 C 940.778 4.16332 -1.0472 0
M  V30 9708 C 940.011 5.31799 -0.450011 0
M  V30 9709 O 940.234 5.65544 0.742717 0
M  V30 9710 O 939.168 5.90209 -1.18056 0
M  V30 9711 H 942.994 2.61508 -1.54426 0
M  V30 9712 H 940.579 1.25178 -0.81552 0
M  V30 9713 H 942.461 4.20132 0.326597 0
M  V30 9714 H 941.136 3.12436 0.84649 0
M  V30 9715 H 940.043 3.44944 -1.44792 0
M  V30 9716 H 941.376 4.54598 -1.88684 0
M  V30 9717 N 943.028 0.824394 1.34319 0
M  V30 9718 C 944.439 0.471802 1.8064 0
M  V30 9719 C 944.79 -1.00793 1.6833 0
M  V30 9720 O 943.915 -1.78447 1.22416 0
M  V30 9721 C 944.51 0.849609 3.27974 0
M  V30 9722 C 943.069 0.549365 3.72369 0
M  V30 9723 C 942.216 1.06573 2.56003 0
M  V30 9724 H 945.167 1.01443 1.22045 0
M  V30 9725 H 945.188 0.153968 3.80188 0
M  V30 9726 H 944.7 1.92663 3.36902 0
M  V30 9727 H 942.801 -0.518182 3.68979 0
M  V30 9728 H 942.914 1.09446 4.66432 0
M  V30 9729 H 941.278 0.487214 2.49997 0
M  V30 9730 H 942.061 2.14923 2.677 0
M  V30 9731 N 944.506 -1.46559 0.579492 0
M  V30 9732 C 945.922 -1.57771 0.240921 0
M  V30 9733 C 946.122 -1.57505 -1.25676 0
M  V30 9734 O 945.178 -1.4903 -2.03829 0
M  V30 9735 C 946.491 -2.87311 0.887285 0
M  V30 9736 C 948.039 -3.00937 0.860576 0
M  V30 9737 C 948.514 -4.33208 1.48642 0
M  V30 9738 N 950.005 -4.39899 1.45062 0
M  V30 9739 C 950.74 -5.40856 1.90428 0
M  V30 9740 N 950.236 -6.48503 2.43752 0
M  V30 9741 N 952.029 -5.32037 1.81364 0
M  V30 9742 H 944.18 -1.44976 1.55228 0
M  V30 9743 H 946.443 -0.691354 0.648639 0
M  V30 9744 H 946.149 -2.93307 1.94071 0
M  V30 9745 H 946.023 -3.75141 0.393577 0
M  V30 9746 H 948.41 -2.94524 -0.184223 0
M  V30 9747 H 948.491 -2.14591 1.39227 0
M  V30 9748 H 948.135 -4.40378 2.5304 0
M  V30 9749 H 948.065 -5.18323 0.92998 0
M  V30 9750 H 950.556 -3.62706 1.0608 0
M  V30 9751 H 950.869 -7.21744 2.76234 0
M  V30 9752 H 949.214 -6.49332 2.47776 0
M  V30 9753 H 952.405 -4.46841 1.39465 0
M  V30 9754 H 952.578 -6.10573 2.17035 0
M  V30 9755 N 945.984 -0.3171 -1.54377 0
M  V30 9756 C 946.894 0.560867 -2.27797 0
M  V30 9757 C 947.91 1.13473 -1.31908 0
M  V30 9758 O 949.086 1.15608 -1.64914 0
M  V30 9759 C 946.151 1.70886 -3.0166 0
M  V30 9760 C 945.212 1.16745 -4.13121 0
M  V30 9761 C 944.445 2.26073 -4.83453 0
M  V30 9762 O 944.668 3.46292 -4.53252 0
M  V30 9763 O 943.602 1.91856 -5.70504 0
M  V30 9764 H 947.428 -0.035193 -3.0368 0
M  V30 9765 H 945.013 -0.0830062 -1.49169 0
M  V30 9766 H 946.895 2.37736 -3.47936 0
M  V30 9767 H 945.57 2.29122 -2.28658 0
M  V30 9768 H 944.477 0.464224 -3.71209 0
M  V30 9769 H 945.81 0.630307 -4.88147 0
M  V30 9770 N 947.462 1.57535 -0.0451378 0
M  V30 9771 C 948.702 1.9432 0.633955 0
M  V30 9772 C 949.066 0.922924 1.68363 0
M  V30 9773 O 950.267 1.17751 2.41636 0
M  V30 9774 C 948.538 3.35933 1.21999 0
M  V30 9775 S 950.097 3.94666 1.91793 0
M  V30 9776 H 946.915 0.679798 0.208318 0
M  V30 9777 H 949.517 1.95175 -0.112633 0
M  V30 9778 H 948.221 4.07993 0.443821 0
M  V30 9779 H 947.752 3.38559 2.00353 0
M  V30 9780 H 949.767 3.79401 3.19796 0
M  V30 9781 N 948.94 -0.228186 1.55939 0
M  V30 9782 C 949.903 -1.26621 1.91049 0
M  V30 9783 C 950.903 -1.40141 0.788491 0
M  V30 9784 O 952.093 -1.3852 1.05631 0
M  V30 9785 C 949.225 -2.64108 2.15545 0
M  V30 9786 H 950.418 -0.966978 2.83883 0
M  V30 9787 H 947.971 -0.468313 1.49119 0
M  V30 9788 H 948.706 -2.99141 1.25241 0
M  V30 9789 H 948.491 -2.55673 2.97277 0
M  V30 9790 H 949.981 -3.39025 2.43827 0
M  V30 9791 N 950.418 -1.49637 -0.494624 0
M  V30 9792 C 951.368 -1.63168 -1.59249 0
M  V30 9793 C 952.352 -0.487089 -1.5335 0
M  V30 9794 O 953.544 -0.74036 -1.60772 0
M  V30 9795 C 950.673 -1.70744 -2.97828 0
M  V30 9796 C 949.759 -2.90802 -3.08699 0
M  V30 9797 N 950.15 -4.14797 -2.89442 0
M  V30 9798 C 948.448 -2.88871 -3.39808 0
M  V30 9799 C 949.149 -4.95535 -3.04663 0
M  V30 9800 N 948.125 -4.29025 -3.33824 0
M  V30 9801 H 951.927 -2.56751 -1.43024 0
M  V30 9802 H 949.441 -1.46497 -0.700885 0
M  V30 9803 H 951.438 -1.78537 -3.76736 0
M  V30 9804 H 950.098 -0.783024 -3.15117 0
M  V30 9805 H 951.109 -4.44675 -2.6549 0
M  V30 9806 H 947.786 -2.05834 -3.63233 0
M  V30 9807 H 949.176 -6.0406 -2.94214 0
M  V30 9808 N 951.896 0.746133 -1.38819 0
M  V30 9809 C 953.136 1.51821 -1.36857 0
M  V30 9810 C 953.5 1.9196 0.0391461 0
M  V30 9811 O 954.701 2.68172 0.183689 0
M  V30 9812 C 952.972 2.73214 -2.3041 0
M  V30 9813 S 954.531 3.62995 -2.46536 0
M  V30 9814 H 951.349 0.51945 -0.485482 0
M  V30 9815 H 953.951 0.875244 -1.74813 0
M  V30 9816 H 952.655 2.41847 -3.31569 0
M  V30 9817 H 952.186 3.42449 -1.9363 0
M  V30 9818 H 954.201 4.66353 -1.69498 0
M  V30 9819 N 953.375 1.23811 0.975125 0
M  V30 9820 C 954.305 1.04846 2.08638 0
M  V30 9821 C 955.286 -0.0362859 1.70061 0
M  V30 9822 O 956.471 0.12937 1.93769 0
M  V30 9823 C 953.601 0.644534 3.41267 0
M  V30 9824 C 952.555 1.67722 3.93768 0
M  V30 9825 C 951.881 1.12857 5.22654 0
M  V30 9826 C 953.181 3.07147 4.22443 0
M  V30 9827 H 954.875 1.97795 2.24761 0
M  V30 9828 H 952.421 0.952397 1.08006 0
M  V30 9829 H 954.374 0.498887 4.18436 0
M  V30 9830 H 953.098 -0.320641 3.25022 0
M  V30 9831 H 951.757 1.81095 3.18748 0
M  V30 9832 H 951.405 0.154227 5.02764 0
M  V30 9833 H 951.105 1.81862 5.58749 0
M  V30 9834 H 952.629 0.994891 6.0244 0
M  V30 9835 H 954.043 2.97045 4.90344 0
M  V30 9836 H 952.44 3.73437 4.6975 0
M  V30 9837 H 953.51 3.55743 3.29507 0
M  V30 9838 N 954.853 -1.17469 1.05066 0
M  V30 9839 C 955.783 -2.23635 0.671552 0
M  V30 9840 C 956.764 -1.66867 -0.33006 0
M  V30 9841 O 957.949 -1.93084 -0.207933 0
M  V30 9842 C 955.079 -3.47272 0.0441845 0
M  V30 9843 C 954.033 -4.16854 0.97042 0
M  V30 9844 C 953.359 -5.34299 0.206998 0
M  V30 9845 C 954.659 -4.69225 2.29401 0
M  V30 9846 H 956.353 -2.55602 1.55911 0
M  V30 9847 H 953.899 -1.2286 0.751101 0
M  V30 9848 H 955.852 -4.20756 -0.23282 0
M  V30 9849 H 954.576 -3.14568 -0.878311 0
M  V30 9850 H 953.235 -3.4528 1.23197 0
M  V30 9851 H 952.883 -4.97846 -0.718222 0
M  V30 9852 H 952.583 -5.81792 0.82416 0
M  V30 9853 H 954.107 -6.10568 -0.0627525 0
M  V30 9854 H 955.521 -5.34353 2.077 0
M  V30 9855 H 953.918 -5.27291 2.86503 0
M  V30 9856 H 954.988 -3.86102 2.93348 0
M  V30 9857 N 956.331 -0.831506 -1.3388 0
M  V30 9858 C 957.577 -0.424302 -1.98312 0
M  V30 9859 C 957.91 1.01211 -1.65741 0
M  V30 9860 O 957.185 1.70636 -0.933464 0
M  V30 9861 C 957.468 -0.636815 -3.54424 0
M  V30 9862 C 957.321 -2.11997 -3.96708 0
M  V30 9863 C 958.64 -0.0782411 -4.4003 0
M  V30 9864 H 955.759 -0.155637 -0.720379 0
M  V30 9865 H 958.401 -1.04566 -1.58638 0
M  V30 9866 H 956.551 -0.107907 -3.8835 0
M  V30 9867 H 958.223 -2.71317 -3.73075 0
M  V30 9868 H 956.466 -2.60723 -3.46707 0
M  V30 9869 H 957.137 -2.21944 -5.05416 0
M  V30 9870 H 959.613 -0.530243 -4.12708 0
M  V30 9871 H 958.489 -0.256676 -5.483 0
M  V30 9872 H 958.75 1.01745 -4.30233 0
M  V30 9873 N 957.809 1.4625 -0.587256 0
M  V30 9874 C 958.741 2.28482 0.181256 0
M  V30 9875 C 959.754 1.38777 0.851163 0
M  V30 9876 O 960.943 1.63336 0.719963 0
M  V30 9877 C 958.043 3.13944 1.27643 0
M  V30 9878 C 957.216 4.31802 0.697569 0
M  V30 9879 C 956.275 4.98626 1.68102 0
M  V30 9880 O 955.301 5.56075 1.21529 0
M  V30 9881 N 956.503 4.96051 3.0152 0
M  V30 9882 H 959.268 2.95079 -0.524267 0
M  V30 9883 H 956.829 1.56213 -0.425336 0
M  V30 9884 H 958.821 3.55513 1.93371 0
M  V30 9885 H 957.391 2.49391 1.88475 0
M  V30 9886 H 956.611 3.93961 -0.137293 0
M  V30 9887 H 957.899 5.07969 0.290696 0
M  V30 9888 H 957.297 4.5063 3.41978 0
M  V30 9889 H 955.854 5.41547 3.62725 0
M  V30 9890 N 959.287 0.325282 1.54207 0
M  V30 9891 C 960.535 -0.276229 2.00203 0
M  V30 9892 C 960.856 -1.52519 1.21503 0
M  V30 9893 O 960.126 -1.93313 0.317302 0
M  V30 9894 H 958.706 -0.105059 0.739575 0
M  V30 9895 H 961.368 0.442225 1.89817 0
M  V30 9896 H 960.464 -0.531427 3.07542 0
M  V30 9897 N 960.765 -1.57509 0.0534917 0
M  V30 9898 C 961.99 -1.97511 -0.632794 0
M  V30 9899 C 962.415 -0.930947 -1.63447 0
M  V30 9900 O 961.773 0.105558 -1.80992 0
M  V30 9901 C 961.821 -3.3658 -1.29407 0
M  V30 9902 O 960.925 -3.3467 -2.40977 0
M  V30 9903 H 960.266 -0.643349 -0.16431 0
M  V30 9904 H 962.796 -2.04232 0.12258 0
M  V30 9905 H 962.806 -3.73359 -1.64521 0
M  V30 9906 H 961.481 -4.12113 -0.559976 0
M  V30 9907 H 960.058 -3.09639 -2.07793 0
M  V30 9908 N 962.243 0.219913 -1.56058 0
M  V30 9909 C 963.153 1.29349 -1.95719 0
M  V30 9910 C 964.169 1.5119 -0.861248 0
M  V30 9911 O 965.345 1.64289 -1.16495 0
M  V30 9912 C 962.41 2.6229 -2.26726 0
M  V30 9913 C 961.471 2.48738 -3.49897 0
M  V30 9914 C 960.704 3.75339 -3.79416 0
M  V30 9915 O 960.927 4.78427 -3.10586 0
M  V30 9916 O 959.861 3.72352 -4.72903 0
M  V30 9917 H 963.687 0.986979 -2.87215 0
M  V30 9918 H 961.272 0.42291 -1.43289 0
M  V30 9919 H 963.154 3.408 -2.47857 0
M  V30 9920 H 961.829 2.92619 -1.38404 0
M  V30 9921 H 960.736 1.68422 -3.34043 0
M  V30 9922 H 962.069 2.23347 -4.38608 0
M  V30 9923 N 963.721 1.49897 0.486681 0
M  V30 9924 C 965.137 1.36977 0.819109 0
M  V30 9925 C 965.337 0.41385 1.97204 0
M  V30 9926 O 964.393 -0.149249 2.52059 0
M  V30 9927 C 965.706 2.78013 1.14584 0
M  V30 9928 C 967.254 2.86816 1.25321 0
M  V30 9929 C 967.729 4.28651 1.61316 0
M  V30 9930 N 969.22 4.31528 1.68337 0
M  V30 9931 C 969.955 5.38254 1.97662 0
M  V30 9932 N 969.451 6.55207 2.25113 0
M  V30 9933 N 971.244 5.25683 1.99033 0
M  V30 9934 H 963.395 2.10634 -0.273364 0
M  V30 9935 H 965.658 0.946116 -0.0597418 0
M  V30 9936 H 965.364 3.49728 0.371892 0
M  V30 9937 H 965.238 3.1428 2.08585 0
M  V30 9938 H 967.625 2.15329 2.01785 0
M  V30 9939 H 967.706 2.54112 0.293368 0
M  V30 9940 H 967.35 5.00669 0.853968 0
M  V30 9941 H 967.28 4.5883 2.58424 0
M  V30 9942 H 969.771 3.47189 1.49226 0
M  V30 9943 H 970.084 7.32359 2.46717 0
M  V30 9944 H 968.429 6.58408 2.22538 0
M  V30 9945 H 971.62 4.33316 1.77074 0
M  V30 9946 H 971.793 6.08949 2.21552 0
M  V30 9947 N 965.199 -0.738761 1.39212 0
M  V30 9948 C 966.131 -1.86286 1.3353 0
M  V30 9949 C 967.144 -1.6095 0.244755 0
M  V30 9950 O 968.333 -1.71254 0.50343 0
M  V30 9951 C 965.433 -3.22234 1.04969 0
M  V30 9952 C 964.606 -3.74956 2.25226 0
M  V30 9953 C 963.665 -4.89457 1.9318 0
M  V30 9954 O 962.691 -5.03314 2.65826 0
M  V30 9955 N 963.893 -5.73548 0.895679 0
M  V30 9956 H 966.658 -1.91666 2.304 0
M  V30 9957 H 964.219 -0.919338 1.33266 0
M  V30 9958 H 966.211 -3.96397 0.815566 0
M  V30 9959 H 964.781 -3.12146 0.168451 0
M  V30 9960 H 964.001 -2.92188 2.64612 0
M  V30 9961 H 965.289 -4.06914 3.05448 0
M  V30 9962 H 964.687 -5.64938 0.293541 0
M  V30 9963 H 963.244 -6.47795 0.721451 0
M  V30 9964 N 966.677 -1.24326 -0.968545 0
M  V30 9965 C 968.093 -1.00847 -1.23701 0
M  V30 9966 C 968.293 0.283235 -1.99499 0
M  V30 9967 O 967.349 0.999607 -2.31871 0
M  V30 9968 C 968.662 -2.22295 -2.02498 0
M  V30 9969 C 970.21 -2.26911 -2.15593 0
M  V30 9970 C 970.685 -3.47978 -2.97784 0
M  V30 9971 N 972.176 -3.48289 -3.05367 0
M  V30 9972 C 972.911 -4.38625 -3.69318 0
M  V30 9973 N 972.407 -5.39213 -4.34995 0
M  V30 9974 N 974.2 -4.26339 -3.66322 0
M  V30 9975 H 966.351 -2.07335 -0.461087 0
M  V30 9976 H 968.614 -0.909805 -0.26638 0
M  V30 9977 H 968.32 -3.161 -1.54188 0
M  V30 9978 H 968.194 -2.24344 -3.03232 0
M  V30 9979 H 970.581 -1.33639 -2.63106 0
M  V30 9980 H 970.662 -2.28888 -1.14209 0
M  V30 9981 H 970.306 -4.41564 -2.50965 0
M  V30 9982 H 970.236 -3.43244 -3.99364 0
M  V30 9983 H 972.727 -2.75517 -2.58648 0
M  V30 9984 H 973.04 -6.04378 -4.81608 0
M  V30 9985 H 971.385 -5.43101 -4.33667 0
M  V30 9986 H 974.576 -3.46991 -3.14189 0
M  V30 9987 H 974.749 -4.9694 -4.15878 0
M  V30 9988 N 968.156 1.1691 -1.05688 0
M  V30 9989 C 969.119 2.19297 -0.666433 0
M  V30 9990 C 970.119 1.5826 0.284674 0
M  V30 9991 O 971.309 1.74068 0.0678757 0
M  V30 9992 C 968.441 3.40894 0.0203656 0
M  V30 9993 H 969.634 2.55354 -1.57272 0
M  V30 9994 H 967.187 1.31078 -0.851359 0
M  V30 9995 H 967.922 3.10388 0.939686 0
M  V30 9996 H 967.707 3.86446 -0.663464 0
M  V30 9997 H 969.197 4.16664 0.279475 0
M  V30 9998 N 969.634 0.838594 1.33437 0
M  V30 9999 C 970.544 0.274048 2.32994 0
M  V30 10000 C 971.56 -0.599776 1.63336 0
M  V30 10001 O 972.736 -0.503963 1.94993 0
M  V30 10002 C 969.801 -0.541804 3.4244 0
M  V30 10003 C 968.862 0.356262 4.27819 0
M  V30 10004 C 968.095 -0.420747 5.32039 0
M  V30 10005 O 968.318 -1.65247 5.45939 0
M  V30 10006 O 967.252 0.205101 6.0155 0
M  V30 10007 H 971.078 1.09846 2.83139 0
M  V30 10008 H 968.663 0.601111 1.36774 0
M  V30 10009 H 970.545 -1.00544 4.0923 0
M  V30 10010 H 969.22 -1.34328 2.94513 0
M  V30 10011 H 968.127 0.867726 3.63897 0
M  V30 10012 H 969.46 1.1225 4.79229 0
M  V30 10013 N 971.112 -1.45937 0.595003 0
M  V30 10014 C 972.044 -2.28575 -0.169137 0
M  V30 10015 C 973.057 -1.39226 -0.843792 0
M  V30 10016 O 974.246 -1.63716 -0.711291 0
M  V30 10017 C 971.346 -3.14616 -1.25976 0
M  V30 10018 C 970.519 -4.32166 -0.67466 0
M  V30 10019 C 969.578 -4.99511 -1.65456 0
M  V30 10020 O 968.604 -5.56712 -1.18578 0
M  V30 10021 N 969.806 -4.97643 -2.98885 0
M  V30 10022 H 972.571 -2.94797 0.539908 0
M  V30 10023 H 970.132 -1.55985 0.433614 0
M  V30 10024 H 972.124 -3.56534 -1.91483 0
M  V30 10025 H 970.694 -2.50387 -1.8715 0
M  V30 10026 H 969.914 -3.93882 0.158184 0
M  V30 10027 H 971.202 -5.08116 -0.263753 0
M  V30 10028 H 970.6 -4.52438 -3.39583 0
M  V30 10029 H 969.157 -5.43463 -3.59848 0
M  V30 10030 N 972.59 -0.333456 -1.54032 0
M  V30 10031 C 973.522 0.562174 -2.22199 0
M  V30 10032 C 974.535 1.07202 -1.22522 0
M  V30 10033 O 975.724 0.983897 -1.48935 0
M  V30 10034 C 972.824 1.78525 -2.88066 0
M  V30 10035 C 971.997 1.41242 -4.13968 0
M  V30 10036 C 971.056 2.49408 -4.63338 0
M  V30 10037 O 970.082 2.13138 -5.27789 0
M  V30 10038 N 971.284 3.805 -4.38406 0
M  V30 10039 H 974.049 -0.0215629 -2.99692 0
M  V30 10040 H 971.61 -0.157111 -1.61136 0
M  V30 10041 H 973.602 2.50298 -3.18014 0
M  V30 10042 H 972.172 2.2766 -2.14219 0
M  V30 10043 H 971.392 0.525887 -3.90676 0
M  V30 10044 H 972.68 1.13916 -4.95884 0
M  V30 10045 H 972.078 4.12761 -3.86839 0
M  V30 10046 H 970.635 4.48474 -4.72984 0
M  V30 10047 N 974.068 1.57479 -0.061844 0
M  V30 10048 C 975.293 1.97843 0.622311 0
M  V30 10049 C 975.718 0.939602 1.62951 0
M  V30 10050 O 975.076 -0.095958 1.81046 0
M  V30 10051 C 975.124 3.37262 1.2762 0
M  V30 10052 O 974.228 3.35943 2.39199 0
M  V30 10053 H 973.569 0.644212 0.160896 0
M  V30 10054 H 976.099 2.04165 -0.133409 0
M  V30 10055 H 976.109 3.74226 1.62539 0
M  V30 10056 H 974.784 4.12404 0.538112 0
M  V30 10057 H 973.361 3.10737 2.06148 0
M  V30 10058 N 975.546 -0.211634 1.56173 0
M  V30 10059 C 976.493 -1.26231 1.93221 0
M  V30 10060 C 977.463 -1.46076 0.790641 0
M  V30 10061 O 978.648 -1.59482 1.04739 0
M  V30 10062 C 975.788 -2.60559 2.26281 0
M  V30 10063 C 974.901 -2.48431 3.5342 0
M  V30 10064 C 974.036 -3.7535 3.7588 0
M  V30 10065 C 973.075 -3.57985 4.96501 0
M  V30 10066 N 972.212 -4.76877 5.15299 0
M  V30 10067 H 977.052 -0.939367 2.82807 0
M  V30 10068 H 974.589 -0.452511 1.39967 0
M  V30 10069 H 976.547 -3.38796 2.43461 0
M  V30 10070 H 975.177 -2.9093 1.39855 0
M  V30 10071 H 974.229 -1.61577 3.44379 0
M  V30 10072 H 975.541 -2.31526 4.41811 0
M  V30 10073 H 974.695 -4.62029 3.9321 0
M  V30 10074 H 973.434 -3.95191 2.85788 0
M  V30 10075 H 972.439 -2.69691 4.79111 0
M  V30 10076 H 973.664 -3.39605 5.88086 0
M  V30 10077 H 971.61 -4.97013 4.28152 0
M  V30 10078 H 971.527 -4.62735 5.9784 0
M  V30 10079 H 972.795 -5.64954 5.37073 0
M  V30 10080 N 977.024 -1.50153 -0.478725 0
M  V30 10081 C 977.987 -1.67916 -1.56003 0
M  V30 10082 C 978.987 -0.550111 -1.51097 0
M  V30 10083 O 980.177 -0.817001 -1.53853 0
M  V30 10084 C 977.309 -1.6973 -2.95643 0
M  V30 10085 H 978.502 -2.6438 -1.41573 0
M  V30 10086 H 976.055 -1.39519 -0.704565 0
M  V30 10087 H 976.79 -0.749306 -3.15525 0
M  V30 10088 H 976.575 -2.51745 -3.00611 0
M  V30 10089 H 978.065 -1.85453 -3.74162 0
M  V30 10090 N 978.502 0.731368 -1.39602 0
M  V30 10091 C 979.748 1.49321 -1.37227 0
M  V30 10092 C 980.081 1.94176 0.0306502 0
M  V30 10093 O 979.356 1.67046 0.996294 0
M  V30 10094 C 979.639 2.73035 -2.34784 0
M  V30 10095 C 979.492 2.34176 -3.84033 0
M  V30 10096 C 980.811 3.75146 -2.30116 0
M  V30 10097 H 977.93 0.541652 -0.499783 0
M  V30 10098 H 980.572 0.835968 -1.70621 0
M  V30 10099 H 978.722 3.29114 -2.06437 0
M  V30 10100 H 980.394 1.83701 -4.23145 0
M  V30 10101 H 978.637 1.66361 -4.00633 0
M  V30 10102 H 979.308 3.22786 -4.47787 0
M  V30 10103 H 981.784 3.28661 -2.55189 0
M  V30 10104 H 980.66 4.5937 -3.00451 0
M  V30 10105 H 980.921 4.22326 -1.30741 0
M  V30 10106 N 979.98 1.24838 0.961938 0
M  V30 10107 C 981.227 1.09151 1.70564 0
M  V30 10108 C 981.555 -0.368719 1.90973 0
M  V30 10109 O 980.81 -1.28854 1.47293 0
M  V30 10110 C 981.109 1.78289 3.09754 0
M  V30 10111 C 980.775 3.28216 3.09169 0
M  V30 10112 C 979.437 3.69118 3.08716 0
M  V30 10113 C 981.789 4.24035 3.03058 0
M  V30 10114 C 979.117 5.04263 2.99892 0
M  V30 10115 C 981.469 5.59195 2.95776 0
M  V30 10116 C 980.133 5.99436 2.93655 0
M  V30 10117 H 979.403 0.399414 0.624139 0
M  V30 10118 H 982.05 1.55016 1.12438 0
M  V30 10119 H 980.355 1.24835 3.7138 0
M  V30 10120 H 982.052 1.63612 3.66104 0
M  V30 10121 H 978.642 2.95667 3.10289 0
M  V30 10122 H 982.826 3.93431 3.02532 0
M  V30 10123 H 978.082 5.3463 2.96615 0
M  V30 10124 H 982.256 6.33142 2.90007 0
M  V30 10125 H 979.883 7.04116 2.86573 0
M  V30 10126 N 981.458 -1.16348 1.06306 0
M  V30 10127 C 982.706 -1.86512 0.778311 0
M  V30 10128 C 983.027 -1.82107 -0.697273 0
M  V30 10129 O 982.297 -1.2547 -1.50446 0
M  V30 10130 H 980.877 -0.690529 0.284919 0
M  V30 10131 H 983.539 -1.41092 1.34458 0
M  V30 10132 H 982.635 -2.91947 1.10333 0
M  V30 10133 N 982.937 -0.845659 -1.3299 0
M  V30 10134 C 984.353 -0.53433 -1.5039 0
M  V30 10135 C 984.553 0.936939 -1.78392 0
M  V30 10136 O 983.609 1.72043 -1.84818 0
M  V30 10137 C 984.922 -1.41354 -2.65404 0
M  V30 10138 C 986.47 -1.41303 -2.79289 0
M  V30 10139 C 986.945 -2.27724 -3.97373 0
M  V30 10140 N 988.436 -2.25471 -4.0462 0
M  V30 10141 C 989.171 -2.89074 -4.95201 0
M  V30 10142 N 988.667 -3.61755 -5.90851 0
M  V30 10143 N 990.46 -2.78508 -4.88251 0
M  V30 10144 H 982.611 -1.79798 -1.13078 0
M  V30 10145 H 984.874 -0.767454 -0.556524 0
M  V30 10146 H 984.58 -2.45936 -2.51413 0
M  V30 10147 H 984.454 -1.09445 -3.60973 0
M  V30 10148 H 986.841 -0.374899 -2.92709 0
M  V30 10149 H 986.922 -1.77222 -1.84461 0
M  V30 10150 H 986.566 -3.316 -3.84713 0
M  V30 10151 H 986.496 -1.89142 -4.9146 0
M  V30 10152 H 988.987 -1.72622 -3.3617 0
M  V30 10153 H 989.3 -4.07475 -6.56646 0
M  V30 10154 H 987.645 -3.65863 -5.90906 0
M  V30 10155 H 990.836 -2.21285 -4.12493 0
M  V30 10156 H 991.009 -3.2836 -5.58645 0
M  V30 10157 N 984.415 1.45619 -0.602734 0
M  V30 10158 C 985.64 2.07157 -0.100429 0
M  V30 10159 C 986.065 1.44524 1.20393 0
M  V30 10160 O 985.423 0.536191 1.7319 0
M  V30 10161 C 985.471 3.60587 0.0308604 0
M  V30 10162 O 984.575 3.97944 1.08234 0
M  V30 10163 H 983.916 0.6601 -0.0718643 0
M  V30 10164 H 986.446 1.86948 -0.831366 0
M  V30 10165 H 986.456 4.07348 0.230634 0
M  V30 10166 H 985.131 4.05561 -0.921581 0
M  V30 10167 H 983.708 3.62862 0.859414 0
M  V30 10168 N 985.893 0.34162 1.53853 0
M  V30 10169 C 987.139 -0.255862 2.01179 0
M  V30 10170 C 987.472 -1.50356 1.22909 0
M  V30 10171 O 986.747 -1.91913 0.316198 0
M  V30 10172 C 987.03 -0.571934 3.55529 0
M  V30 10173 C 986.883 0.687727 4.44511 0
M  V30 10174 C 988.202 -1.38233 4.17827 0
M  V30 10175 H 985.321 -0.091521 0.731295 0
M  V30 10176 H 987.963 0.461775 1.84303 0
M  V30 10177 H 986.113 -1.18331 3.70041 0
M  V30 10178 H 987.785 1.32572 4.4184 0
M  V30 10179 H 986.028 1.313 4.13452 0
M  V30 10180 H 986.699 0.421858 5.50386 0
M  V30 10181 H 989.175 -0.865374 4.07002 0
M  V30 10182 H 988.051 -1.57223 5.25901 0
M  V30 10183 H 988.312 -2.38386 3.72323 0
M  V30 10184 N 987.371 -1.57444 0.0701946 0
M  V30 10185 C 988.596 -1.98171 -0.61181 0
M  V30 10186 C 989.021 -0.94823 -1.62451 0
M  V30 10187 O 988.379 0.0863553 -1.81094 0
M  V30 10188 C 988.427 -3.37934 -1.2583 0
M  V30 10189 O 987.531 -3.37207 -2.37414 0
M  V30 10190 H 986.872 -0.645056 -0.157477 0
M  V30 10191 H 989.402 -2.04091 0.144235 0
M  V30 10192 H 989.412 -3.75083 -1.60552 0
M  V30 10193 H 988.087 -4.12684 -0.516234 0
M  V30 10194 H 986.664 -3.11826 -2.04497 0
M  V30 10195 N 988.849 0.203349 -1.56283 0
M  V30 10196 C 990.077 0.941426 -1.84241 0
M  V30 10197 C 990.492 1.77197 -0.651658 0
M  V30 10198 O 989.849 1.78506 0.379713 0
M  V30 10199 C 989.9 1.84429 -3.10915 0
M  V30 10200 O 989.621 1.04729 -4.25398 0
M  V30 10201 C 991.122 2.69474 -3.51993 0
M  V30 10202 H 988.342 0.27507 -0.612027 0
M  V30 10203 H 990.886 0.213088 -2.03387 0
M  V30 10204 H 989.041 2.52635 -2.93691 0
M  V30 10205 H 989.455 1.66179 -4.97478 0
M  V30 10206 H 990.929 3.28495 -4.43616 0
M  V30 10207 H 991.406 3.42775 -2.74594 0
M  V30 10208 H 992.012 2.06652 -3.71719 0
M  V30 10209 N 990.327 1.50405 0.470755 0
M  V30 10210 C 991.575 1.61092 1.2204 0
M  V30 10211 C 991.896 0.313487 1.92464 0
M  V30 10212 O 991.166 -0.669043 1.84121 0
M  V30 10213 H 989.746 0.593618 0.45346 0
M  V30 10214 H 992.408 1.87184 0.542985 0
M  V30 10215 H 991.504 2.42222 1.96812 0
M  V30 10216 N 991.805 -0.723954 1.39988 0
M  V30 10217 C 992.752 -1.83803 1.39589 0
M  V30 10218 C 993.722 -1.64146 0.253996 0
M  V30 10219 O 994.907 -1.85398 0.450793 0
M  V30 10220 C 992.047 -3.21431 1.25604 0
M  V30 10221 C 991.16 -3.52717 2.49429 0
M  V30 10222 C 990.295 -4.79805 2.27949 0
M  V30 10223 C 989.334 -5.03968 3.47394 0
M  V30 10224 N 988.471 -6.22266 3.25161 0
M  V30 10225 H 993.311 -1.83479 2.34818 0
M  V30 10226 H 990.848 -0.896396 1.16633 0
M  V30 10227 H 992.806 -4.00892 1.15504 0
M  V30 10228 H 991.436 -3.21005 0.339986 0
M  V30 10229 H 990.488 -2.67872 2.7009 0
M  V30 10230 H 991.8 -3.66486 3.38363 0
M  V30 10231 H 990.954 -5.67268 2.15155 0
M  V30 10232 H 989.693 -4.68229 1.36428 0
M  V30 10233 H 988.698 -4.14963 3.60674 0
M  V30 10234 H 989.923 -5.17422 4.39831 0
M  V30 10235 H 987.869 -6.11957 2.36314 0
M  V30 10236 H 987.786 -6.36673 4.07656 0
M  V30 10237 H 989.054 -7.12539 3.16083 0
M  V30 10238 N 993.283 -1.25346 -0.955304 0
M  V30 10239 C 994.213 -1.08152 -2.06943 0
M  V30 10240 C 995.194 0.00922598 -1.70097 0
M  V30 10241 O 996.379 -0.160181 -1.93538 0
M  V30 10242 C 993.509 -0.698745 -3.40198 0
M  V30 10243 C 992.463 -1.73965 -3.9105 0
M  V30 10244 C 991.789 -1.21158 -5.20792 0
M  V30 10245 C 993.089 -3.13829 -4.17503 0
M  V30 10246 H 994.783 -2.01345 -2.21586 0
M  V30 10247 H 992.329 -0.969459 -1.06478 0
M  V30 10248 H 994.282 -0.565394 -4.1759 0
M  V30 10249 H 993.006 0.268892 -3.25491 0
M  V30 10250 H 991.665 -1.86143 -3.15827 0
M  V30 10251 H 991.313 -0.234193 -5.02455 0
M  V30 10252 H 991.013 -1.90728 -5.55785 0
M  V30 10253 H 992.537 -1.09061 -6.00781 0
M  V30 10254 H 993.951 -3.04809 -4.85556 0
M  V30 10255 H 992.348 -3.80863 -4.63749 0
M  V30 10256 H 993.418 -3.6094 -3.23806 0
M  V30 10257 N 994.761 1.15782 -1.06922 0
M  V30 10258 C 995.986 1.90896 -0.810771 0
M  V30 10259 C 996.411 1.77246 0.629714 0
M  V30 10260 O 995.769 1.10215 1.43953 0
M  V30 10261 C 995.817 3.39397 -1.21829 0
M  V30 10262 O 994.921 4.10818 -0.360934 0
M  V30 10263 H 994.262 0.594497 -0.295752 0
M  V30 10264 H 996.792 1.46652 -1.42669 0
M  V30 10265 H 996.802 3.90181 -1.19259 0
M  V30 10266 H 995.477 3.4865 -2.2675 0
M  V30 10267 H 994.054 3.7019 -0.448748 0
M  V30 10268 N 996.239 0.8527 1.3254 0
M  V30 10269 C 997.516 0.376491 1.91942 0
M  V30 10270 C 997.896 -1.13972 1.7769 0
M  V30 10271 O 997.244 -1.96047 1.17379 0
M  V30 10272 C 997.454 0.838694 3.38773 0
M  V30 10273 C 998.802 0.854736 4.15908 0
M  V30 10274 O 999.826 0.783203 3.47483 0
M  V30 10275 O 998.685 0.955207 5.38087 0
M  V30 10276 H 995.779 0.109412 0.81973 0
M  V30 10277 H 998.325 0.93947 1.41322 0
M  V30 10278 H 997.097 1.88179 3.43081 0
M  V30 10279 H 996.72 0.253055 3.96794 0
M  V30 10280 N 997.718 -1.45297 0.610449 0
M  V30 10281 C 998.65 -2.28742 -0.144884 0
M  V30 10282 C 999.663 -1.40114 -0.828977 0
M  V30 10283 O 1000.85 -1.64461 -0.693887 0
M  V30 10284 C 997.952 -3.15934 -1.22632 0
M  V30 10285 C 997.125 -4.32857 -0.628785 0
M  V30 10286 C 996.184 -5.01237 -1.60148 0
M  V30 10287 O 995.21 -5.57938 -1.12667 0
M  V30 10288 N 996.412 -5.00785 -2.9359 0
M  V30 10289 H 999.177 -2.94207 0.571145 0
M  V30 10290 H 996.738 -1.55517 0.450134 0
M  V30 10291 H 998.73 -3.58545 -1.87691 0
M  V30 10292 H 997.3 -2.52358 -1.84483 0
M  V30 10293 H 996.52 -3.93693 0.199951 0
M  V30 10294 H 997.808 -5.08367 -0.209845 0
M  V30 10295 H 997.206 -4.56014 -3.34765 0
M  V30 10296 H 995.763 -5.4725 -3.54064 0
M  V30 10297 N 999.196 -0.349774 -1.5367 0
M  V30 10298 C 1000.13 0.538575 -2.22782 0
M  V30 10299 C 1001.14 1.05896 -1.23652 0
M  V30 10300 O 1002.33 0.968045 -1.4997 0
M  V30 10301 C 999.43 1.7546 -2.89943 0
M  V30 10302 C 998.603 1.36843 -4.15443 0
M  V30 10303 C 997.662 2.4448 -4.65957 0
M  V30 10304 O 996.688 2.07528 -5.3002 0
M  V30 10305 N 997.89 3.75829 -4.42417 0
M  V30 10306 H 1000.65 -0.053348 -2.99653 0
M  V30 10307 H 998.216 -0.174193 -1.6096 0
M  V30 10308 H 1000.21 2.46911 -3.20651 0
M  V30 10309 H 998.778 2.25375 -2.16622 0
M  V30 10310 H 997.998 0.484421 -3.91212 0
M  V30 10311 H 999.286 1.0865 -4.97064 0
M  V30 10312 H 998.684 4.08635 -3.91196 0
M  V30 10313 H 997.241 4.43432 -4.77714 0
M  V30 10314 N 1000.67 1.57404 -0.0785433 0
M  V30 10315 C 1001.92 1.93361 0.58786 0
M  V30 10316 C 1002.24 0.959856 1.6974 0
M  V30 10317 O 1001.51 0.0091173 1.95898 0
M  V30 10318 H 1000.09 0.713825 0.220141 0
M  V30 10319 H 1002.75 1.94411 -0.137986 0
M  V30 10320 H 1001.85 2.95346 1.00881 0
M  V30 10321 N 1002.15 -0.195058 1.56388 0
M  V30 10322 C 1003.1 -1.24175 1.94549 0
M  V30 10323 C 1004.07 -1.45229 0.806089 0
M  V30 10324 O 1005.25 -1.58362 1.06425 0
M  V30 10325 C 1002.39 -2.58145 2.29031 0
M  V30 10326 C 1001.51 -2.44669 3.56035 0
M  V30 10327 C 1000.64 -3.71342 3.7984 0
M  V30 10328 C 999.681 -3.52699 5.0027 0
M  V30 10329 N 998.818 -4.71385 5.20328 0
M  V30 10330 H 1003.66 -0.909319 2.83788 0
M  V30 10331 H 1001.19 -0.437641 1.40439 0
M  V30 10332 H 1003.15 -3.36195 2.4704 0
M  V30 10333 H 1001.78 -2.8943 1.42933 0
M  V30 10334 H 1000.83 -1.57916 3.46073 0
M  V30 10335 H 1002.15 -2.26827 4.44242 0
M  V30 10336 H 1001.3 -4.57832 3.98088 0
M  V30 10337 H 1000.04 -3.92138 2.89964 0
M  V30 10338 H 999.045 -2.64594 4.81944 0
M  V30 10339 H 1000.27 -3.33349 5.91655 0
M  V30 10340 H 998.216 -4.92444 4.33399 0
M  V30 10341 H 998.133 -4.56368 6.02714 0
M  V30 10342 H 999.401 -5.59226 5.43035 0
M  V30 10343 N 1003.63 -1.50653 -0.462772 0
M  V30 10344 C 1004.86 -1.65826 -1.23731 0
M  V30 10345 C 1005.27 -0.345002 -1.85621 0
M  V30 10346 O 1004.63 0.673935 -1.69601 0
M  V30 10347 C 1004.68 -2.7555 -2.33997 0
M  V30 10348 O 1004.4 -4.01785 -1.74643 0
M  V30 10349 C 1005.9 -3.0177 -3.2473 0
M  V30 10350 H 1003.12 -0.557177 -0.373892 0
M  V30 10351 H 1005.67 -1.96925 -0.551434 0
M  V30 10352 H 1003.82 -2.47122 -2.98345 0
M  V30 10353 H 1004.24 -4.62529 -2.4732 0
M  V30 10354 H 1005.71 -3.82188 -3.98292 0
M  V30 10355 H 1006.19 -2.13167 -3.84001 0
M  V30 10356 H 1006.79 -3.31761 -2.66111 0
M  V30 10357 N 1005.11 0.71652 -1.4037 0
M  V30 10358 C 1006.52 1.29562 -1.34427 0
M  V30 10359 C 1006.87 1.96192 -0.0173106 0
M  V30 10360 O 1006 1.97488 0.884719 0
M  V30 10361 C 1006.59 2.35601 -2.4347 0
M  V30 10362 C 1005.15 2.89138 -2.4099 0
M  V30 10363 C 1004.3 1.62915 -2.24397 0
M  V30 10364 H 1007.25 0.512715 -1.5019 0
M  V30 10365 H 1007.27 3.16422 -2.11323 0
M  V30 10366 H 1006.78 1.87077 -3.40035 0
M  V30 10367 H 1004.88 3.41894 -1.4812 0
M  V30 10368 H 1004.99 3.40995 -3.3654 0
M  V30 10369 H 1003.36 1.87947 -1.71896 0
M  V30 10370 H 1004.14 1.16417 -3.22958 0
M  V30 10371 N 1006.59 1.25851 0.948643 0
M  V30 10372 C 1007.84 1.10347 1.68838 0
M  V30 10373 C 1008.15 -0.354262 1.92365 0
M  V30 10374 O 1009.35 -0.629847 2.64093 0
M  V30 10375 C 1007.81 1.92659 3.03991 0
M  V30 10376 C 1007.42 3.42962 2.88238 0
M  V30 10377 C 1009.16 1.85743 3.81707 0
M  V30 10378 C 1007.07 4.17547 4.18818 0
M  V30 10379 H 1006 0.409342 0.63321 0
M  V30 10380 H 1008.65 1.50098 1.05559 0
M  V30 10381 H 1007.03 1.45736 3.68208 0
M  V30 10382 H 1008.21 3.97601 2.32917 0
M  V30 10383 H 1006.52 3.51035 2.23972 0
M  V30 10384 H 1009.12 2.38758 4.78434 0
M  V30 10385 H 1009.46 0.826568 4.08012 0
M  V30 10386 H 1009.99 2.30449 3.2425 0
M  V30 10387 H 1006.73 5.21072 3.97699 0
M  V30 10388 H 1006.25 3.6769 4.73882 0
M  V30 10389 H 1007.93 4.25589 4.87322 0
M  V30 10390 N 1008.06 -1.15214 1.07534 0
M  V30 10391 C 1009.3 -1.87708 0.809009 0
M  V30 10392 C 1009.67 -1.80552 -0.653066 0
M  V30 10393 O 1010.87 -2.48095 -1.03452 0
M  V30 10394 C 1009.14 -3.32703 1.30552 0
M  V30 10395 S 1010.7 -4.2291 1.17015 0
M  V30 10396 H 1007.52 -0.647767 0.293118 0
M  V30 10397 H 1010.12 -1.38992 1.37482 0
M  V30 10398 H 1008.82 -3.35456 2.36427 0
M  V30 10399 H 1008.35 -3.86473 0.734995 0
M  V30 10400 H 1010.37 -4.96081 0.108836 0
M  V30 10401 N 1009.54 -0.859717 -1.32086 0
M  V30 10402 C 1010.96 -0.55025 -1.49815 0
M  V30 10403 C 1011.16 0.917966 -1.79376 0
M  V30 10404 O 1010.21 1.70073 -1.86632 0
M  V30 10405 C 1011.53 -1.44161 -2.6389 0
M  V30 10406 C 1013.08 -1.44257 -2.77775 0
M  V30 10407 C 1013.55 -2.31926 -3.94936 0
M  V30 10408 N 1015.04 -2.2975 -4.02206 0
M  V30 10409 C 1015.78 -2.9431 -4.92107 0
M  V30 10410 N 1015.27 -3.68001 -5.86981 0
M  V30 10411 N 1017.07 -2.83671 -4.8527 0
M  V30 10412 H 1009.22 -1.80987 -1.11164 0
M  V30 10413 H 1011.48 -0.773313 -0.548353 0
M  V30 10414 H 1011.19 -2.48588 -2.4879 0
M  V30 10415 H 1011.06 -1.13268 -3.59792 0
M  V30 10416 H 1013.45 -0.405923 -2.92295 0
M  V30 10417 H 1013.53 -1.79169 -1.82571 0
M  V30 10418 H 1013.17 -3.35661 -3.81174 0
M  V30 10419 H 1013.1 -1.94344 -4.89426 0
M  V30 10420 H 1015.59 -1.76177 -3.3432 0
M  V30 10421 H 1015.91 -4.14417 -6.52287 0
M  V30 10422 H 1014.25 -3.72109 -5.86992 0
M  V30 10423 H 1017.44 -2.25647 -4.10123 0
M  V30 10424 H 1017.61 -3.34267 -5.5513 0
M  V30 10425 N 1011.02 1.44971 -0.618145 0
M  V30 10426 C 1011.97 2.27704 0.116119 0
M  V30 10427 C 1012.95 1.37927 0.828558 0
M  V30 10428 O 1014.15 1.61836 0.716806 0
M  V30 10429 C 1011.28 3.25004 1.10578 0
M  V30 10430 C 1010.36 4.22269 0.39364 0
M  V30 10431 N 1010.75 5.02571 -0.570581 0
M  V30 10432 C 1009.05 4.41387 0.639809 0
M  V30 10433 C 1009.75 5.73211 -0.990144 0
M  V30 10434 N 1008.73 5.42587 -0.331653 0
M  V30 10435 H 1012.53 2.87193 -0.624295 0
M  V30 10436 H 1010.04 1.56252 -0.442631 0
M  V30 10437 H 1012.04 3.83017 1.64631 0
M  V30 10438 H 1010.7 2.67075 1.84664 0
M  V30 10439 H 1011.71 5.09153 -0.947814 0
M  V30 10440 H 1008.39 3.94572 1.36453 0
M  V30 10441 H 1009.78 6.47728 -1.78601 0
M  V30 10442 N 1012.5 0.357919 1.53482 0
M  V30 10443 C 1013.43 -0.526753 2.23065 0
M  V30 10444 C 1014.44 -1.05239 1.24212 0
M  V30 10445 O 1015.63 -0.960078 1.50482 0
M  V30 10446 C 1012.73 -1.73919 2.9087 0
M  V30 10447 C 1011.91 -1.34638 4.16163 0
M  V30 10448 C 1010.96 -2.42005 4.67247 0
M  V30 10449 O 1009.99 -2.04714 5.31113 0
M  V30 10450 N 1011.19 -3.73478 4.44404 0
M  V30 10451 H 1013.96 0.0692386 2.9962 0
M  V30 10452 H 1011.52 0.182726 1.60866 0
M  V30 10453 H 1013.51 -2.45207 3.21956 0
M  V30 10454 H 1012.08 -2.24223 2.17814 0
M  V30 10455 H 1011.3 -0.463667 3.91464 0
M  V30 10456 H 1012.59 -1.06012 4.97633 0
M  V30 10457 H 1011.99 -4.06555 3.93357 0
M  V30 10458 H 1010.54 -4.40893 4.80059 0
M  V30 10459 N 1013.98 -1.5736 0.0868897 0
M  V30 10460 C 1015.22 -1.9367 -0.577598 0
M  V30 10461 C 1015.55 -0.968844 -1.69229 0
M  V30 10462 O 1014.82 -0.0195061 -1.9589 0
M  V30 10463 H 1013.4 -0.714983 -0.216353 0
M  V30 10464 H 1016.06 -1.94335 0.148294 0
M  V30 10465 H 1015.15 -2.95877 -0.993128 0
M  V30 10466 N 1015.45 0.186762 -1.56489 0
M  V30 10467 C 1016.68 0.925916 -1.85584 0
M  V30 10468 C 1017.1 1.75708 -0.671446 0
M  V30 10469 O 1016.46 1.7728 0.379687 0
M  V30 10470 C 1016.51 1.79107 -3.12975 0
M  V30 10471 O 1015.61 2.89088 -2.94112 0
M  V30 10472 H 1014.96 0.260275 -0.610863 0
M  V30 10473 H 1017.49 0.189561 -2.0372 0
M  V30 10474 H 1017.5 2.19408 -3.43983 0
M  V30 10475 H 1016.17 1.18044 -3.98796 0
M  V30 10476 H 1014.75 2.52482 -2.74422 0
M  V30 10477 N 1016.93 1.50896 0.454776 0
M  V30 10478 C 1018.16 1.6648 1.22849 0
M  V30 10479 C 1018.58 0.354841 1.85435 0
M  V30 10480 O 1017.93 -0.664931 1.69956 0
M  V30 10481 C 1017.98 2.76787 2.32532 0
M  V30 10482 O 1017.7 4.02706 1.72509 0
M  V30 10483 C 1019.21 3.03488 3.23125 0
M  V30 10484 H 1016.43 0.559152 0.370932 0
M  V30 10485 H 1018.97 1.97215 0.540983 0
M  V30 10486 H 1017.12 2.48701 2.9703 0
M  V30 10487 H 1017.54 4.63834 2.44863 0
M  V30 10488 H 1019.01 3.84294 3.9626 0
M  V30 10489 H 1019.49 2.152 3.82865 0
M  V30 10490 H 1020.1 3.33167 2.64347 0
M  V30 10491 N 1018.41 -0.709066 1.40748 0
M  V30 10492 C 1019.69 -1.4626 1.29874 0
M  V30 10493 C 1020.07 -2.10949 -0.0799322 0
M  V30 10494 O 1019.42 -2.00651 -1.09323 0
M  V30 10495 C 1019.63 -2.49302 2.44232 0
M  V30 10496 C 1020.97 -3.14945 2.84771 0
M  V30 10497 O 1022 -2.59623 2.43873 0
M  V30 10498 O 1020.86 -4.15111 3.5545 0
M  V30 10499 H 1017.95 -0.650716 0.51039 0
M  V30 10500 H 1020.5 -0.740687 1.52682 0
M  V30 10501 H 1019.27 -2.00063 3.36289 0
M  V30 10502 H 1018.89 -3.29021 2.23229 0
M  V30 10503 N 1019.89 -1.26353 -0.941956 0
M  V30 10504 C 1021.11 -1.14731 -1.72776 0
M  V30 10505 C 1021.54 0.293766 -1.85792 0
M  V30 10506 O 1020.9 1.21284 -1.34759 0
M  V30 10507 C 1020.95 -1.82041 -3.11277 0
M  V30 10508 O 1020.05 -1.10867 -3.97218 0
M  V30 10509 H 1019.39 -0.399823 -0.53013 0
M  V30 10510 H 1021.92 -1.67157 -1.17981 0
M  V30 10511 H 1021.93 -1.88834 -3.61671 0
M  V30 10512 H 1020.61 -2.86879 -3.0112 0
M  V30 10513 H 1019.18 -1.12044 -3.55669 0
M  V30 10514 N 1021.37 1.14642 -1.08144 0
M  V30 10515 C 1022.3 2.21775 -0.730609 0
M  V30 10516 C 1023.28 1.67683 0.285702 0
M  V30 10517 O 1024.46 1.93567 0.156667 0
M  V30 10518 C 1021.59 3.47033 -0.136242 0
M  V30 10519 C 1020.55 4.14134 -1.0806 0
M  V30 10520 C 1019.87 5.33563 -0.348585 0
M  V30 10521 C 1021.17 4.62978 -2.41761 0
M  V30 10522 H 1022.87 2.51378 -1.62633 0
M  V30 10523 H 1020.41 1.20825 -0.783411 0
M  V30 10524 H 1022.37 4.21226 0.121182 0
M  V30 10525 H 1021.09 3.16786 0.7946 0
M  V30 10526 H 1019.75 3.41892 -1.32308 0
M  V30 10527 H 1019.4 4.99575 0.585974 0
M  V30 10528 H 1019.1 5.79402 -0.978122 0
M  V30 10529 H 1020.62 6.10519 -0.0991508 0
M  V30 10530 H 1022.04 5.28659 -2.21795 0
M  V30 10531 H 1020.43 5.1951 -3.00383 0
M  V30 10532 H 1021.5 3.78189 -3.03482 0
M  V30 10533 N 1022.85 0.866709 1.31628 0
M  V30 10534 C 1023.79 0.309128 2.30537 0
M  V30 10535 C 1024.79 -0.574028 1.59378 0
M  V30 10536 O 1025.99 -0.460491 1.7401 0
M  V30 10537 H 1022.37 0.081279 0.747595 0
M  V30 10538 H 1024.34 1.15734 2.75042 0
M  V30 10539 C 1023.09 -0.477287 3.44409 0
M  V30 10540 H 1022.41 0.19301 3.99334 0
M  V30 10541 H 1023.85 -0.832818 4.1574 0
M  V30 10542 C 1022.31 -1.66727 2.92752 0
M  V30 10543 O 1022.84 -2.76654 2.91248 0
M  V30 10544 N 1021.05 -1.49833 2.48995 0
M  V30 10545 H 1020.59 -0.604073 2.50417 0
M  V30 10546 H 1020.55 -2.29594 2.14788 0
M  V30 10547 N 1024.32 -1.44642 0.625825 0
M  V30 10548 C 1025.55 -2.06458 0.135116 0
M  V30 10549 C 1025.97 -1.46729 -1.18811 0
M  V30 10550 O 1025.32 -0.58818 -1.72762 0
M  V30 10551 C 1025.37 -3.61499 0.00850114 0
M  V30 10552 O 1025.1 -4.19002 1.2794 0
M  V30 10553 C 1026.6 -4.40339 -0.511527 0
M  V30 10554 H 1023.82 -0.666541 0.0772294 0
M  V30 10555 H 1026.36 -1.85597 0.858726 0
M  V30 10556 H 1024.52 -3.81641 -0.665522 0
M  V30 10557 H 1024.93 -5.12385 1.12081 0
M  V30 10558 H 1026.4 -5.49262 -0.549149 0
M  V30 10559 H 1026.88 -4.11409 -1.53752 0
M  V30 10560 H 1027.49 -4.25104 0.129066 0
M  V30 10561 N 1025.8 -0.366053 -1.5329 0
M  V30 10562 C 1026.71 0.488111 -2.29466 0
M  V30 10563 C 1027.73 1.09219 -1.35452 0
M  V30 10564 O 1028.9 1.10303 -1.68509 0
M  V30 10565 C 1025.97 1.61202 -3.06944 0
M  V30 10566 C 1025.03 1.03543 -4.16626 0
M  V30 10567 C 1024.26 2.10578 -4.904 0
M  V30 10568 O 1024.49 3.31697 -4.6404 0
M  V30 10569 O 1023.42 1.73609 -5.76319 0
M  V30 10570 H 1027.25 -0.131789 -3.03414 0
M  V30 10571 H 1024.83 -0.130421 -1.4883 0
M  V30 10572 H 1026.71 2.26546 -3.55324 0
M  V30 10573 H 1025.39 2.21732 -2.35832 0
M  V30 10574 H 1024.29 0.345892 -3.72498 0
M  V30 10575 H 1025.63 0.474687 -4.89906 0
M  V30 10576 N 1027.28 1.57312 -0.0952337 0
M  V30 10577 C 1028.7 1.57445 0.261416 0
M  V30 10578 C 1028.9 1.10639 1.68408 0
M  V30 10579 O 1027.95 0.782912 2.40056 0
M  V30 10580 C 1029.26 3.00659 0.0497206 0
M  V30 10581 C 1030.81 3.1278 0.117459 0
M  V30 10582 C 1031.29 4.57952 -0.0662441 0
M  V30 10583 N 1032.78 4.63199 -0.0114146 0
M  V30 10584 C 1033.51 5.73255 -0.128799 0
M  V30 10585 N 1033.01 6.92146 -0.301026 0
M  V30 10586 N 1034.8 5.62056 -0.0700599 0
M  V30 10587 H 1026.95 1.86045 -1.02475 0
M  V30 10588 H 1029.22 0.858726 -0.401614 0
M  V30 10589 H 1028.92 3.39102 -0.932888 0
M  V30 10590 H 1028.8 3.68792 0.791975 0
M  V30 10591 H 1031.18 2.74209 1.09057 0
M  V30 10592 H 1031.26 2.47238 -0.656288 0
M  V30 10593 H 1030.91 4.97217 -1.03623 0
M  V30 10594 H 1030.84 5.21555 0.727198 0
M  V30 10595 H 1033.33 3.77712 0.119154 0
M  V30 10596 H 1033.64 7.71855 -0.382104 0
M  V30 10597 H 1031.99 6.94184 -0.336695 0
M  V30 10598 H 1035.18 4.68057 0.0633587 0
M  V30 10599 H 1035.35 6.4779 -0.164991 0
M  V30 10600 N 1028.76 -0.17846 1.56586 0
M  V30 10601 C 1030.17 -0.741599 1.71339 0
M  V30 10602 C 1030.52 -1.83112 0.704579 0
M  V30 10603 O 1029.64 -2.15975 -0.135557 0
M  V30 10604 C 1030.24 -1.35198 3.10656 0
M  V30 10605 C 1028.8 -1.86202 3.27118 0
M  V30 10606 C 1027.95 -0.738255 2.67292 0
M  V30 10607 H 1030.9 0.0468424 1.58631 0
M  V30 10608 H 1030.92 -2.2216 3.0891 0
M  V30 10609 H 1030.43 -0.558776 3.84056 0
M  V30 10610 H 1028.53 -2.68188 2.58661 0
M  V30 10611 H 1028.64 -2.01237 4.34788 0
M  V30 10612 H 1027.01 -1.15686 2.26912 0
M  V30 10613 H 1027.79 0.0429821 3.43273 0
M  V30 10614 N 1030.24 -1.51135 -0.446768 0
M  V30 10615 C 1031.17 -1.66438 -1.56121 0
M  V30 10616 C 1032.15 -0.512061 -1.54327 0
M  V30 10617 O 1033.33 -0.734702 -1.73593 0
M  V30 10618 C 1030.46 -1.66932 -2.94706 0
M  V30 10619 C 1029.5 -2.88016 -3.14562 0
M  V30 10620 S 1030.34 -4.48973 -2.91863 0
M  V30 10621 C 1031.49 -4.52196 -4.32746 0
M  V30 10622 H 1031.73 -2.60702 -1.42904 0
M  V30 10623 H 1029.26 -1.40701 -0.635812 0
M  V30 10624 H 1031.22 -1.679 -3.74593 0
M  V30 10625 H 1029.88 -0.738607 -3.05292 0
M  V30 10626 H 1029.07 -2.84735 -4.15863 0
M  V30 10627 H 1028.67 -2.8474 -2.42485 0
M  V30 10628 H 1030.96 -4.27256 -5.25793 0
M  V30 10629 H 1031.91 -5.53957 -4.41064 0
M  V30 10630 H 1032.32 -3.81624 -4.15961 0
M  V30 10631 N 1031.71 0.701592 -1.41122 0
M  V30 10632 C 1032.99 1.45569 -1.30648 0
M  V30 10633 C 1033.37 2.10988 0.068744 0
M  V30 10634 O 1032.72 2.01228 1.08257 0
M  V30 10635 C 1032.93 2.48003 -2.45551 0
M  V30 10636 C 1034.28 3.13431 -2.86437 0
M  V30 10637 O 1035.3 2.58327 -2.45247 0
M  V30 10638 O 1034.16 4.13221 -3.57646 0
M  V30 10639 H 1031.25 0.648 -0.513834 0
M  V30 10640 H 1033.8 0.73258 -1.53073 0
M  V30 10641 H 1032.57 1.98276 -3.37346 0
M  V30 10642 H 1032.19 3.27832 -2.24971 0
M  V30 10643 N 1033.19 1.2685 0.935242 0
M  V30 10644 C 1034.44 1.12132 1.67658 0
M  V30 10645 C 1034.75 -0.333839 1.9273 0
M  V30 10646 O 1035.96 -0.601801 2.64746 0
M  V30 10647 C 1034.42 1.95873 3.0193 0
M  V30 10648 C 1034.02 3.46 2.84584 0
M  V30 10649 C 1035.77 1.89781 3.79715 0
M  V30 10650 C 1033.67 4.21966 4.14365 0
M  V30 10651 H 1032.6 0.416035 0.628833 0
M  V30 10652 H 1035.26 1.51209 1.03962 0
M  V30 10653 H 1033.64 1.49633 3.66641 0
M  V30 10654 H 1034.81 4.00049 2.28687 0
M  V30 10655 H 1033.13 3.53391 2.20236 0
M  V30 10656 H 1035.72 2.43819 4.75875 0
M  V30 10657 H 1036.07 0.869797 4.07112 0
M  V30 10658 H 1036.6 2.33875 3.21788 0
M  V30 10659 H 1033.34 5.2526 3.9215 0
M  V30 10660 H 1032.86 3.72696 4.69955 0
M  V30 10661 H 1034.54 4.30734 4.82781 0
M  V30 10662 N 1034.67 -1.14067 1.0875 0
M  V30 10663 C 1035.63 -2.17453 0.724341 0
M  V30 10664 C 1036.63 -1.58959 -0.242614 0
M  V30 10665 O 1037.82 -1.74186 -0.0217008 0
M  V30 10666 C 1034.96 -3.40828 0.0700236 0
M  V30 10667 H 1036.15 -2.51094 1.63987 0
M  V30 10668 H 1033.7 -1.28775 0.885813 0
M  V30 10669 H 1034.44 -3.1277 -0.857061 0
M  V30 10670 H 1034.22 -3.84551 0.76569 0
M  V30 10671 H 1035.71 -4.17258 -0.168905 0
M  V30 10672 N 1036.15 -0.873678 -1.31166 0
M  V30 10673 C 1037.56 -0.53852 -1.78765 0
M  V30 10674 C 1037.91 0.944765 -1.71955 0
M  V30 10675 O 1037.04 1.73781 -1.28954 0
M  V30 10676 C 1037.63 -0.970749 -3.24595 0
M  V30 10677 C 1036.19 -0.687189 -3.70074 0
M  V30 10678 C 1035.34 -1.16001 -2.51871 0
M  V30 10679 H 1038.29 -1.05903 -1.18196 0
M  V30 10680 H 1038.31 -0.294966 -3.79355 0
M  V30 10681 H 1037.82 -2.05034 -3.29519 0
M  V30 10682 H 1035.92 0.380881 -3.70648 0
M  V30 10683 H 1036.03 -1.26682 -4.62048 0
M  V30 10684 H 1034.4 -0.579663 -2.48016 0
M  V30 10685 H 1035.18 -2.2471 -2.59539 0
M  V30 10686 N 1037.63 1.44308 -0.633487 0
M  V30 10687 C 1038.59 2.2912 0.060376 0
M  V30 10688 C 1039.59 1.41166 0.769992 0
M  V30 10689 O 1040.78 1.63012 0.614224 0
M  V30 10690 C 1037.91 3.22798 1.0961 0
M  V30 10691 H 1039.1 2.91958 -0.685617 0
M  V30 10692 H 1036.66 1.51259 -0.393738 0
M  V30 10693 H 1037.39 2.64815 1.87199 0
M  V30 10694 H 1037.18 3.87618 0.591161 0
M  V30 10695 H 1038.67 3.86504 1.58127 0
M  V30 10696 N 1039.1 0.374177 1.53094 0
M  V30 10697 C 1040.35 -0.212396 2.00981 0
M  V30 10698 C 1040.67 -1.48576 1.26293 0
M  V30 10699 O 1039.94 -1.92206 0.378642 0
M  V30 10700 H 1038.52 -0.0814763 0.742543 0
M  V30 10701 H 1041.19 0.502389 1.88314 0
M  V30 10702 H 1040.28 -0.433316 3.09077 0
M  V30 10703 N 1040.58 -1.57259 0.103575 0
M  V30 10704 C 1041.55 -2.13337 -0.837859 0
M  V30 10705 C 1042.55 -1.06459 -1.20512 0
M  V30 10706 O 1043.74 -1.32307 -1.13316 0
M  V30 10707 C 1040.87 -2.66093 -2.13089 0
M  V30 10708 H 1042.06 -2.97842 -0.350775 0
M  V30 10709 H 1039.61 -1.55621 -0.145511 0
M  V30 10710 H 1040.35 -1.85133 -2.66264 0
M  V30 10711 H 1040.13 -3.44244 -1.87719 0
M  V30 10712 H 1041.62 -3.09443 -2.80419 0
M  V30 10713 N 1042.06 0.170153 -1.56679 0
M  V30 10714 C 1043.3 0.893073 -1.83857 0
M  V30 10715 C 1043.66 1.79378 -0.684661 0
M  V30 10716 O 1044.87 2.55439 -0.836926 0
M  V30 10717 C 1043.14 1.66679 -3.16153 0
M  V30 10718 S 1044.7 2.43831 -3.64818 0
M  V30 10719 H 1041.51 0.299091 -0.645031 0
M  V30 10720 H 1044.12 0.154628 -1.94888 0
M  V30 10721 H 1042.82 0.996152 -3.98127 0
M  V30 10722 H 1042.35 2.44658 -3.08068 0
M  V30 10723 H 1044.37 3.68555 -3.32237 0
M  V30 10724 N 1043.54 1.5137 0.438746 0
M  V30 10725 C 1044.79 1.63645 1.18595 0
M  V30 10726 C 1045.11 0.354241 1.91755 0
M  V30 10727 O 1044.38 -0.629838 1.85499 0
M  V30 10728 H 1042.96 0.603103 0.440767 0
M  V30 10729 H 1045.62 1.88293 0.503159 0
M  V30 10730 H 1044.72 2.46342 1.9163 0
M  V30 10731 N 1045.02 -0.694098 1.41492 0
M  V30 10732 C 1046.26 -1.45127 1.4065 0
M  V30 10733 C 1046.59 -1.94993 0.0170289 0
M  V30 10734 O 1045.86 -1.71799 -0.941372 0
M  V30 10735 H 1044.44 -0.538493 0.51772 0
M  V30 10736 H 1047.1 -0.821441 1.76744 0
M  V30 10737 H 1046.19 -2.31372 2.0946 0
M  V30 10738 N 1046.49 -1.27344 -0.928501 0
M  V30 10739 C 1047.74 -1.13804 -1.67859 0
M  V30 10740 C 1048.07 0.31555 -1.91619 0
M  V30 10741 O 1047.35 1.23087 -1.50599 0
M  V30 10742 C 1047.63 -1.9213 -3.04562 0
M  V30 10743 C 1047.48 -3.45468 -2.88048 0
M  V30 10744 C 1048.8 -1.72513 -4.04879 0
M  V30 10745 H 1045.92 -0.414796 -0.609191 0
M  V30 10746 H 1048.56 -1.5649 -1.07753 0
M  V30 10747 H 1046.71 -1.55853 -3.55868 0
M  V30 10748 H 1048.39 -3.9157 -2.43865 0
M  V30 10749 H 1046.63 -3.71849 -2.23407 0
M  V30 10750 H 1047.3 -3.95515 -3.85061 0
M  V30 10751 H 1049.78 -2.04143 -3.62581 0
M  V30 10752 H 1048.65 -2.29713 -4.98521 0
M  V30 10753 H 1048.91 -0.672856 -4.3695 0
M  V30 10754 N 1047.97 1.13488 -1.09353 0
M  V30 10755 C 1048.9 2.20988 -0.75409 0
M  V30 10756 C 1049.88 1.67977 0.267901 0
M  V30 10757 O 1051.07 1.93722 0.136128 0
M  V30 10758 C 1048.2 3.46869 -0.173042 0
M  V30 10759 C 1047.15 4.12965 -1.12446 0
M  V30 10760 C 1046.48 5.33163 -0.405157 0
M  V30 10761 C 1047.78 4.60388 -2.46658 0
M  V30 10762 H 1049.47 2.49639 -1.6529 0
M  V30 10763 H 1047.02 1.19987 -0.796182 0
M  V30 10764 H 1048.97 4.21331 0.0764988 0
M  V30 10765 H 1047.7 3.17611 0.760956 0
M  V30 10766 H 1046.35 3.40469 -1.35927 0
M  V30 10767 H 1046 5.00169 0.532955 0
M  V30 10768 H 1045.7 5.78332 -1.03952 0
M  V30 10769 H 1047.23 6.1038 -0.163899 0
M  V30 10770 H 1048.64 5.26276 -2.27389 0
M  V30 10771 H 1047.04 5.16294 -3.05876 0
M  V30 10772 H 1048.11 3.74949 -3.07476 0
M  V30 10773 N 1049.45 0.880621 1.30701 0
M  V30 10774 C 1050.41 0.349087 2.26526 0
M  V30 10775 C 1051.41 -0.505973 1.52632 0
M  V30 10776 O 1052.6 -0.313751 1.71351 0
M  V30 10777 C 1049.74 -0.503023 3.37168 0
M  V30 10778 H 1050.93 1.19516 2.75056 0
M  V30 10779 H 1048.48 0.657107 1.41816 0
M  V30 10780 H 1049.22 -1.36986 2.93948 0
M  V30 10781 H 1049 0.109389 3.91947 0
M  V30 10782 H 1050.49 -0.866845 4.08504 0
M  V30 10783 N 1050.93 -1.4397 0.641131 0
M  V30 10784 C 1052.34 -1.85267 0.230838 0
M  V30 10785 C 1052.69 -1.53659 -1.21998 0
M  V30 10786 O 1051.82 -0.979572 -1.92959 0
M  V30 10787 C 1052.41 -3.36284 0.412171 0
M  V30 10788 C 1050.97 -3.76358 0.0563004 0
M  V30 10789 C 1050.12 -2.67768 0.720809 0
M  V30 10790 H 1053.07 -1.34294 0.845624 0
M  V30 10791 H 1053.09 -3.78924 -0.345936 0
M  V30 10792 H 1052.6 -3.59258 1.46818 0
M  V30 10793 H 1050.7 -3.58997 -0.997582 0
M  V30 10794 H 1050.82 -4.76756 0.473335 0
M  V30 10795 H 1049.18 -2.54227 0.155164 0
M  V30 10796 H 1049.96 -2.93573 1.77961 0
M  V30 10797 N 1052.41 -0.382291 -1.52893 0
M  V30 10798 C 1053.82 0.0932841 -1.86467 0
M  V30 10799 C 1054.17 1.4675 -1.30226 0
M  V30 10800 O 1053.29 2.07001 -0.63084 0
M  V30 10801 C 1053.89 0.176048 -3.38342 0
M  V30 10802 C 1052.45 0.595904 -3.71653 0
M  V30 10803 C 1051.6 -0.246511 -2.76202 0
M  V30 10804 H 1054.55 -0.600443 -1.46903 0
M  V30 10805 H 1054.57 0.996512 -3.67219 0
M  V30 10806 H 1054.08 -0.824264 -3.79246 0
M  V30 10807 H 1052.18 1.60384 -3.36315 0
M  V30 10808 H 1052.29 0.358919 -4.77754 0
M  V30 10809 H 1050.66 0.287162 -2.53076 0
M  V30 10810 H 1051.44 -1.24467 -3.19942 0
M  V30 10811 N 1053.89 1.57202 -0.111913 0
M  V30 10812 C 1054.85 2.13778 0.826534 0
M  V30 10813 C 1055.85 1.07097 1.19945 0
M  V30 10814 O 1057.04 1.32906 1.12613 0
M  V30 10815 C 1054.17 2.6722 2.11675 0
M  V30 10816 H 1055.36 2.98023 0.334975 0
M  V30 10817 H 1052.92 1.55696 0.137256 0
M  V30 10818 H 1053.65 1.86542 2.65278 0
M  V30 10819 H 1053.44 3.45235 1.8589 0
M  V30 10820 H 1054.93 3.10926 2.78774 0
M  V30 10821 N 1055.36 -0.161842 1.56767 0
M  V30 10822 C 1056.61 -0.875192 1.82167 0
M  V30 10823 C 1056.93 -1.82367 0.690444 0
M  V30 10824 O 1056.2 -1.93756 -0.289023 0
M  V30 10825 H 1054.78 -0.326178 0.672024 0
M  V30 10826 H 1057.44 -0.159392 1.94247 0
M  V30 10827 H 1056.54 -1.44639 2.76561 0
M  V30 10828 N 1056.84 -1.516 -0.430713 0
M  V30 10829 C 1058.07 -1.68414 -1.20185 0
M  V30 10830 C 1058.48 -0.384297 -1.84847 0
M  V30 10831 O 1057.84 0.637808 -1.70992 0
M  V30 10832 C 1057.89 -2.80451 -2.28099 0
M  V30 10833 O 1057.61 -4.05399 -1.66081 0
M  V30 10834 C 1059.11 -3.0859 -3.18256 0
M  V30 10835 H 1056.33 -0.564982 -0.361989 0
M  V30 10836 H 1058.88 -1.9805 -0.50954 0
M  V30 10837 H 1057.03 -2.53395 -2.93036 0
M  V30 10838 H 1057.45 -4.67671 -2.37453 0
M  V30 10839 H 1058.92 -3.9055 -3.90096 0
M  V30 10840 H 1059.4 -2.21264 -3.79393 0
M  V30 10841 H 1060 -3.37331 -2.59014 0
M  V30 10842 N 1058.32 0.686584 -1.41858 0
M  V30 10843 C 1059.28 1.78214 -1.44126 0
M  V30 10844 C 1060.28 1.57366 -0.330541 0
M  V30 10845 O 1061.47 1.63874 -0.590837 0
M  V30 10846 C 1058.6 3.16704 -1.26142 0
M  V30 10847 H 1059.8 1.77594 -2.41661 0
M  V30 10848 H 1057.35 0.895085 -1.28132 0
M  V30 10849 H 1058.09 3.22957 -0.294823 0
M  V30 10850 H 1057.87 3.33238 -2.06627 0
M  V30 10851 H 1059.36 3.96658 -1.30584 0
M  V30 10852 N 1059.8 1.27835 0.921735 0
M  V30 10853 C 1060.76 1.11108 2.00469 0
M  V30 10854 C 1061.76 0.053203 1.60712 0
M  V30 10855 O 1062.95 0.298308 1.71627 0
M  V30 10856 C 1060.08 0.694269 3.33755 0
M  V30 10857 H 1061.28 2.07279 2.16738 0
M  V30 10858 H 1058.83 1.10708 1.10333 0
M  V30 10859 H 1059.56 -0.268561 3.23186 0
M  V30 10860 H 1059.35 1.45836 3.6397 0
M  V30 10861 H 1060.84 0.59965 4.13272 0
M  V30 10862 N 1061.28 -1.12907 1.09954 0
M  V30 10863 C 1062.5 -1.88679 0.861099 0
M  V30 10864 C 1062.93 -1.78853 -0.582499 0
M  V30 10865 O 1062.28 -1.13992 -1.4098 0
M  V30 10866 C 1062.33 -3.36047 1.30785 0
M  V30 10867 O 1061.44 -4.09716 0.469728 0
M  V30 10868 H 1060.78 -0.586447 0.31141 0
M  V30 10869 H 1063.31 -1.42818 1.46507 0
M  V30 10870 H 1063.32 -3.86882 1.29562 0
M  V30 10871 H 1061.99 -3.42516 2.35914 0
M  V30 10872 H 1060.57 -3.6887 0.54674 0
M  V30 10873 N 1062.75 -0.88754 -1.30232 0
M  V30 10874 C 1063.98 -0.521562 -2.00735 0
M  V30 10875 C 1064.4 0.883247 -1.66073 0
M  V30 10876 O 1063.76 1.58581 -0.878731 0
M  V30 10877 C 1063.81 -0.706521 -3.53611 0
M  V30 10878 O 1062.91 0.246447 -4.11663 0
M  V30 10879 H 1062.25 -0.205216 -0.631492 0
M  V30 10880 H 1064.78 -1.19579 -1.66018 0
M  V30 10881 H 1064.79 -0.606501 -4.03467 0
M  V30 10882 H 1063.47 -1.73076 -3.78177 0
M  V30 10883 H 1062.05 0.0999062 -3.72766 0
M  V30 10884 N 1064.23 1.43628 -0.648757 0
M  V30 10885 C 1065.18 2.30755 0.0455536 0
M  V30 10886 C 1066.15 1.44495 0.819168 0
M  V30 10887 O 1067.33 1.73372 0.79667 0
M  V30 10888 C 1064.47 3.30017 1.00908 0
M  V30 10889 C 1063.59 4.31376 0.232039 0
M  V30 10890 C 1062.72 5.17723 1.18897 0
M  V30 10891 C 1061.76 6.10778 0.402096 0
M  V30 10892 N 1060.9 6.89763 1.31038 0
M  V30 10893 H 1065.74 2.89581 -0.70332 0
M  V30 10894 H 1063.28 1.42662 -0.3586 0
M  V30 10895 H 1065.23 3.86072 1.58128 0
M  V30 10896 H 1063.86 2.72851 1.72488 0
M  V30 10897 H 1062.92 3.77652 -0.456373 0
M  V30 10898 H 1064.23 4.9735 -0.380023 0
M  V30 10899 H 1063.38 5.78381 1.83194 0
M  V30 10900 H 1062.12 4.51864 1.83494 0
M  V30 10901 H 1061.13 5.49212 -0.254255 0
M  V30 10902 H 1062.35 6.78678 -0.239411 0
M  V30 10903 H 1060.3 6.26557 1.94324 0
M  V30 10904 H 1060.21 7.52243 0.752774 0
M  V30 10905 H 1061.48 7.54931 1.94164 0
M  V30 10906 N 1065.71 0.390394 1.52688 0
M  V30 10907 C 1066.67 -0.432149 2.25089 0
M  V30 10908 C 1067.67 -0.989296 1.26766 0
M  V30 10909 O 1068.86 -0.871126 1.50854 0
M  V30 10910 C 1066 -1.60642 3.00678 0
M  V30 10911 H 1067.19 0.201734 2.99221 0
M  V30 10912 H 1064.74 0.142531 1.55649 0
M  V30 10913 H 1065.48 -2.2777 2.3085 0
M  V30 10914 H 1065.26 -1.21361 3.72846 0
M  V30 10915 H 1066.75 -2.18873 3.55647 0
M  V30 10916 N 1067.19 -1.57141 0.120249 0
M  V30 10917 C 1068.43 -1.95527 -0.538245 0
M  V30 10918 C 1068.77 -1.00373 -1.6625 0
M  V30 10919 O 1068.04 -0.0411734 -1.94456 0
M  V30 10920 C 1068.33 -3.43843 -1.06976 0
M  V30 10921 C 1068.18 -4.49771 0.0511596 0
M  V30 10922 C 1069.5 -3.94035 -1.96022 0
M  V30 10923 H 1066.62 -0.710958 -0.194183 0
M  V30 10924 H 1069.26 -1.88986 0.196061 0
M  V30 10925 H 1067.41 -3.49548 -1.69553 0
M  V30 10926 H 1069.08 -4.56163 0.686503 0
M  V30 10927 H 1067.32 -4.27882 0.714127 0
M  V30 10928 H 1067.99 -5.50812 -0.361995 0
M  V30 10929 H 1070.47 -3.9064 -1.43315 0
M  V30 10930 H 1069.35 -4.98329 -2.3013 0
M  V30 10931 H 1069.61 -3.34803 -2.8872 0
M  V30 10932 N 1068.67 0.153526 -1.5685 0
M  V30 10933 C 1069.6 1.19162 -2.00805 0
M  V30 10934 C 1070.58 1.45172 -0.886518 0
M  V30 10935 O 1071.76 1.56203 -1.15387 0
M  V30 10936 C 1068.89 2.52637 -2.38311 0
M  V30 10937 C 1067.85 2.41161 -3.53589 0
M  V30 10938 C 1067.17 3.79287 -3.76889 0
M  V30 10939 C 1068.47 1.90122 -4.86468 0
M  V30 10940 H 1070.17 0.82617 -2.87776 0
M  V30 10941 H 1067.71 0.395972 -1.38449 0
M  V30 10942 H 1069.67 3.25478 -2.6766 0
M  V30 10943 H 1068.39 2.91005 -1.4827 0
M  V30 10944 H 1067.05 1.70772 -3.24395 0
M  V30 10945 H 1066.7 4.15079 -2.84109 0
M  V30 10946 H 1066.4 3.72472 -4.54465 0
M  V30 10947 H 1067.92 4.53687 -4.08657 0
M  V30 10948 H 1069.33 2.52752 -5.14577 0
M  V30 10949 H 1067.73 1.94214 -5.67804 0
M  V30 10950 H 1068.8 0.856517 -4.77275 0
M  V30 10951 N 1070.14 1.51827 0.422667 0
M  V30 10952 C 1071.39 1.6522 1.17084 0
M  V30 10953 C 1071.72 0.375508 1.90841 0
M  V30 10954 O 1070.97 -0.641029 1.84903 0
M  V30 10955 C 1071.27 2.81572 2.20119 0
M  V30 10956 C 1070.94 4.20303 1.63268 0
M  V30 10957 C 1069.6 4.5804 1.47488 0
M  V30 10958 C 1071.95 5.06812 1.21618 0
M  V30 10959 C 1069.28 5.79979 0.885531 0
M  V30 10960 C 1071.63 6.29343 0.641071 0
M  V30 10961 C 1070.3 6.65841 0.470286 0
M  V30 10962 H 1069.57 0.604581 0.428442 0
M  V30 10963 H 1072.21 1.85896 0.459874 0
M  V30 10964 H 1070.52 2.55175 2.97309 0
M  V30 10965 H 1072.22 2.89132 2.77856 0
M  V30 10966 H 1068.81 3.90557 1.76531 0
M  V30 10967 H 1072.99 4.78251 1.32624 0
M  V30 10968 H 1068.25 6.06892 0.741105 0
M  V30 10969 H 1072.42 6.9571 0.309888 0
M  V30 10970 H 1070.05 7.60199 0.0115038 0
M  V30 10971 N 1071.62 -0.679052 1.4222 0
M  V30 10972 C 1072.85 -1.46747 1.45852 0
M  V30 10973 C 1073.27 -1.88675 0.0685937 0
M  V30 10974 O 1072.62 -1.57861 -0.915757 0
M  V30 10975 C 1072.67 -2.71935 2.38188 0
M  V30 10976 O 1072.39 -2.31768 3.71773 0
M  V30 10977 C 1073.9 -3.65536 2.50796 0
M  V30 10978 H 1071.12 -0.451682 0.49621 0
M  V30 10979 H 1073.66 -0.834723 1.86689 0
M  V30 10980 H 1071.81 -3.31409 2.00616 0
M  V30 10981 H 1072.23 -3.12579 4.21182 0
M  V30 10982 H 1073.7 -4.50113 3.19535 0
M  V30 10983 H 1074.18 -4.11148 1.54447 0
M  V30 10984 H 1074.79 -3.11957 2.89072 0
M  V30 10985 N 1073.1 -1.28322 -0.914942 0
M  V30 10986 C 1074.35 -1.15578 -1.66642 0
M  V30 10987 C 1074.68 0.295209 -1.91943 0
M  V30 10988 O 1073.95 1.21482 -1.51896 0
M  V30 10989 C 1074.24 -1.9535 -3.02507 0
M  V30 10990 C 1074.09 -3.48504 -2.84367 0
M  V30 10991 C 1075.41 -1.76798 -4.03027 0
M  V30 10992 H 1072.53 -0.421234 -0.604757 0
M  V30 10993 H 1075.17 -1.57625 -1.06087 0
M  V30 10994 H 1073.32 -1.59619 -3.54195 0
M  V30 10995 H 1074.99 -3.94135 -2.39699 0
M  V30 10996 H 1073.24 -3.74198 -2.1945 0
M  V30 10997 H 1073.91 -3.99576 -3.80845 0
M  V30 10998 H 1076.38 -2.07977 -3.60395 0
M  V30 10999 H 1075.26 -2.34987 -4.96057 0
M  V30 11000 H 1075.52 -0.719162 -4.36211 0
M  V30 11001 N 1074.58 1.12322 -1.10551 0
M  V30 11002 C 1075.83 1.83495 -0.846998 0
M  V30 11003 C 1076.15 1.8457 0.629205 0
M  V30 11004 O 1075.42 1.30968 1.45686 0
M  V30 11005 H 1074 0.679479 -0.310351 0
M  V30 11006 H 1076.66 1.36004 -1.39602 0
M  V30 11007 H 1075.76 2.87651 -1.21092 0
M  V30 11008 N 1076.06 0.894434 1.2976 0
M  V30 11009 C 1077.28 0.5322 2.00455 0
M  V30 11010 C 1077.71 -0.874427 1.66539 0
M  V30 11011 O 1077.06 -1.58113 0.887129 0
M  V30 11012 C 1077.11 0.725264 3.53231 0
M  V30 11013 O 1076.22 -0.224612 4.11788 0
M  V30 11014 H 1075.56 0.208562 0.630395 0
M  V30 11015 H 1078.09 1.20458 1.65382 0
M  V30 11016 H 1078.1 0.627889 4.0314 0
M  V30 11017 H 1076.77 1.75079 3.77253 0
M  V30 11018 H 1075.35 -0.0801361 3.72814 0
M  V30 11019 N 1077.53 -1.43282 0.656365 0
M  V30 11020 C 1078.95 -1.85012 0.250475 0
M  V30 11021 C 1079.3 -1.54944 -1.20361 0
M  V30 11022 O 1078.42 -0.999983 -1.9191 0
M  V30 11023 C 1079.02 -3.35827 0.447815 0
M  V30 11024 C 1077.58 -3.76277 0.0962151 0
M  V30 11025 C 1076.72 -2.66988 0.749168 0
M  V30 11026 H 1079.67 -1.3339 0.85982 0
M  V30 11027 H 1079.69 -3.7927 -0.305726 0
M  V30 11028 H 1079.21 -3.5768 1.5062 0
M  V30 11029 H 1077.31 -3.60035 -0.959449 0
M  V30 11030 H 1077.42 -4.76227 0.523875 0
M  V30 11031 H 1075.78 -2.54048 0.18212 0
M  V30 11032 H 1076.57 -2.91669 1.81064 0
M  V30 11033 N 1079.01 -0.398486 -1.52479 0
M  V30 11034 C 1080.42 0.0735015 -1.86555 0
M  V30 11035 C 1080.78 1.45361 -1.31775 0
M  V30 11036 O 1079.9 2.0632 -0.652759 0
M  V30 11037 C 1080.5 0.140152 -3.3851 0
M  V30 11038 C 1079.05 0.556451 -3.72264 0
M  V30 11039 C 1078.2 -0.275792 -2.75925 0
M  V30 11040 H 1081.15 -0.615991 -1.46257 0
M  V30 11041 H 1081.17 0.957507 -3.68255 0
M  V30 11042 H 1080.69 -0.864442 -3.7835 0
M  V30 11043 H 1078.79 1.56808 -3.37997 0
M  V30 11044 H 1078.9 0.308227 -4.78107 0
M  V30 11045 H 1077.26 0.260304 -2.53366 0
M  V30 11046 H 1078.05 -1.27854 -3.18604 0
M  V30 11047 N 1080.49 1.57075 -0.12858 0
M  V30 11048 C 1081.44 2.12379 0.829418 0
M  V30 11049 C 1082.43 1.04694 1.2218 0
M  V30 11050 O 1083.62 1.30909 1.1913 0
M  V30 11051 C 1080.75 2.73436 2.07575 0
M  V30 11052 C 1079.83 3.88217 1.7073 0
M  V30 11053 N 1080.22 4.94864 1.04609 0
M  V30 11054 C 1078.52 3.9858 2.00125 0
M  V30 11055 C 1079.22 5.7514 0.871137 0
M  V30 11056 N 1078.2 5.25284 1.39918 0
M  V30 11057 H 1082 2.92209 0.314816 0
M  V30 11058 H 1079.51 1.62233 0.0735788 0
M  V30 11059 H 1081.51 3.11406 2.77185 0
M  V30 11060 H 1080.17 1.95073 2.5957 0
M  V30 11061 H 1081.18 5.13025 0.708961 0
M  V30 11062 H 1077.86 3.3127 2.541 0
M  V30 11063 H 1079.25 6.7098 0.351395 0
M  V30 11064 N 1081.97 -0.145205 1.5693 0
M  V30 11065 C 1083.19 -0.876386 1.87974 0
M  V30 11066 C 1083.62 -1.73866 0.717795 0
M  V30 11067 O 1082.98 -1.78224 -0.332551 0
M  V30 11068 C 1083.03 -1.70746 3.17613 0
M  V30 11069 O 1082.13 -2.81188 3.01674 0
M  V30 11070 H 1081.47 -0.243987 0.617549 0
M  V30 11071 H 1084 -0.135482 2.04151 0
M  V30 11072 H 1084.01 -2.1021 3.49679 0
M  V30 11073 H 1082.69 -1.07429 4.01786 0
M  V30 11074 H 1081.26 -2.45117 2.81019 0
M  V30 11075 N 1083.45 -1.52049 -0.414609 0
M  V30 11076 C 1084.41 -1.74382 -1.4874 0
M  V30 11077 C 1085.41 -0.613701 -1.48628 0
M  V30 11078 O 1086.6 -0.88152 -1.50249 0
M  V30 11079 C 1083.73 -1.82116 -2.88178 0
M  V30 11080 H 1084.93 -2.70147 -1.30233 0
M  V30 11081 H 1082.48 -1.42382 -0.644756 0
M  V30 11082 H 1083.21 -0.882457 -3.12063 0
M  V30 11083 H 1083 -2.64268 -2.89663 0
M  V30 11084 H 1084.49 -2.01155 -3.65959 0
M  V30 11085 N 1084.93 0.6715 -1.42579 0
M  V30 11086 C 1085.89 1.76676 -1.46008 0
M  V30 11087 C 1086.89 1.57007 -0.347213 0
M  V30 11088 O 1088.08 1.63238 -0.608185 0
M  V30 11089 C 1085.21 3.15348 -1.29494 0
M  V30 11090 H 1086.4 1.75021 -2.43531 0
M  V30 11091 H 1083.96 0.881444 -1.29075 0
M  V30 11092 H 1084.69 3.22626 -0.32906 0
M  V30 11093 H 1084.48 3.31028 -2.10149 0
M  V30 11094 H 1085.97 3.95251 -1.34784 0
M  V30 11095 N 1086.4 1.28806 0.908124 0
M  V30 11096 C 1087.37 1.13228 1.99279 0
M  V30 11097 C 1088.37 0.0702456 1.60646 0
M  V30 11098 O 1089.56 0.316494 1.71301 0
M  V30 11099 C 1086.69 0.729629 3.33 0
M  V30 11100 H 1087.88 2.09566 2.14528 0
M  V30 11101 H 1085.43 1.11872 1.09153 0
M  V30 11102 H 1086.17 -0.234268 3.23453 0
M  V30 11103 H 1085.95 1.49688 3.62403 0
M  V30 11104 H 1087.44 0.643449 4.12613 0
M  V30 11105 N 1087.88 -1.11734 1.11145 0
M  V30 11106 C 1089.29 -1.64928 0.874959 0
M  V30 11107 C 1089.64 -1.87012 -0.593375 0
M  V30 11108 O 1088.77 -1.60206 -1.45475 0
M  V30 11109 C 1089.36 -2.99608 1.58178 0
M  V30 11110 C 1087.92 -3.49723 1.39179 0
M  V30 11111 C 1087.07 -2.24595 1.62642 0
M  V30 11112 H 1090.02 -0.954154 1.26813 0
M  V30 11113 H 1090.04 -3.66434 1.02501 0
M  V30 11114 H 1089.55 -2.83504 2.65042 0
M  V30 11115 H 1087.65 -3.70998 0.345111 0
M  V30 11116 H 1087.77 -4.28711 2.13878 0
M  V30 11117 H 1086.13 -2.32067 1.04961 0
M  V30 11118 H 1086.91 -2.11036 2.70774 0
M  V30 11119 N 1089.36 -0.901303 -1.29284 0
M  V30 11120 C 1090.59 -0.543511 -1.99634 0
M  V30 11121 C 1091 0.872154 -1.67448 0
M  V30 11122 O 1090.36 1.57591 -0.920406 0
M  V30 11123 C 1090.41 -0.728148 -3.54091 0
M  V30 11124 O 1090.13 -2.08809 -3.85137 0
M  V30 11125 C 1091.63 -0.375519 -4.41707 0
M  V30 11126 H 1088.85 -0.208405 -0.637815 0
M  V30 11127 H 1091.4 -1.21109 -1.64781 0
M  V30 11128 H 1089.55 -0.107728 -3.8725 0
M  V30 11129 H 1089.97 -2.11863 -4.79807 0
M  V30 11130 H 1091.44 -0.555538 -5.49197 0
M  V30 11131 H 1091.92 0.687532 -4.33785 0
M  V30 11132 H 1092.52 -0.972949 -4.14021 0
M  V30 11133 N 1090.84 1.42931 -0.663954 0
M  V30 11134 C 1092.08 2.03557 -0.185479 0
M  V30 11135 C 1092.44 1.51309 1.18193 0
M  V30 11136 O 1093.64 2.03649 1.75444 0
M  V30 11137 C 1091.91 3.56802 -0.206705 0
M  V30 11138 S 1093.47 4.38333 0.202356 0
M  V30 11139 H 1090.29 0.706791 -0.0772523 0
M  V30 11140 H 1092.89 1.74841 -0.874688 0
M  V30 11141 H 1091.6 3.92328 -1.20445 0
M  V30 11142 H 1091.13 3.90175 0.502693 0
M  V30 11143 H 1093.14 4.7489 1.43853 0
M  V30 11144 N 1092.32 0.406567 1.52266 0
M  V30 11145 C 1093.54 -0.169624 2.06204 0
M  V30 11146 C 1093.96 -1.39076 1.27684 0
M  V30 11147 O 1093.32 -1.79528 0.328023 0
M  V30 11148 C 1093.37 -0.522611 3.57702 0
M  V30 11149 O 1093.09 0.650028 4.33251 0
M  V30 11150 C 1094.59 -1.15281 4.28048 0
M  V30 11151 H 1091.81 -0.0215191 0.670655 0
M  V30 11152 H 1094.35 0.576781 1.96198 0
M  V30 11153 H 1092.51 -1.21891 3.67725 0
M  V30 11154 H 1092.92 0.355989 5.23291 0
M  V30 11155 H 1094.4 -1.35002 5.35237 0
M  V30 11156 H 1094.87 -2.12517 3.84361 0
M  V30 11157 H 1095.48 -0.496786 4.22389 0
M  V30 11158 N 1093.79 -1.57004 0.136909 0
M  V30 11159 C 1094.74 -2.12815 -0.818144 0
M  V30 11160 C 1095.73 -1.0534 -1.21623 0
M  V30 11161 O 1096.92 -1.31539 -1.18434 0
M  V30 11162 C 1094.05 -2.74533 -2.06122 0
M  V30 11163 C 1093.14 -3.89117 -1.68669 0
M  V30 11164 N 1093.53 -4.95412 -1.01983 0
M  V30 11165 C 1091.82 -3.99636 -1.98009 0
M  V30 11166 C 1092.53 -5.75594 -0.840624 0
M  V30 11167 N 1091.5 -5.26019 -1.37131 0
M  V30 11168 H 1095.3 -2.92372 -0.299315 0
M  V30 11169 H 1092.82 -1.6227 -0.0649741 0
M  V30 11170 H 1094.81 -3.12872 -2.7553 0
M  V30 11171 H 1093.47 -1.96446 -2.58532 0
M  V30 11172 H 1094.49 -5.13393 -0.681744 0
M  V30 11173 H 1091.16 -3.32613 -2.52339 0
M  V30 11174 H 1092.55 -6.71157 -0.315807 0
M  V30 11175 N 1095.27 0.136881 -1.57004 0
M  V30 11176 C 1096.21 1.19853 -1.94192 0
M  V30 11177 C 1097.18 1.4104 -0.809103 0
M  V30 11178 O 1098.37 1.55487 -1.06565 0
M  V30 11179 C 1095.49 2.55565 -2.22271 0
M  V30 11180 C 1094.54 2.50913 -3.44884 0
M  V30 11181 S 1095.37 1.96619 -4.98098 0
M  V30 11182 C 1096.53 3.34039 -5.2931 0
M  V30 11183 H 1096.76 0.881316 -2.83937 0
M  V30 11184 H 1094.3 0.342915 -1.50544 0
M  V30 11185 H 1096.25 3.33659 -2.39127 0
M  V30 11186 H 1094.91 2.84472 -1.33172 0
M  V30 11187 H 1094.11 3.50839 -3.6184 0
M  V30 11188 H 1093.71 1.80932 -3.27322 0
M  V30 11189 H 1096 4.30189 -5.23397 0
M  V30 11190 H 1096.94 3.21927 -6.30689 0
M  V30 11191 H 1097.35 3.31642 -4.56808 0
M  V30 11192 N 1096.75 1.52266 0.40654 0
M  V30 11193 C 1098 1.66452 1.15325 0
M  V30 11194 C 1098.33 0.395728 1.90432 0
M  V30 11195 O 1097.58 -0.621382 1.85573 0
M  V30 11196 C 1097.88 2.8389 2.1712 0
M  V30 11197 C 1097.55 4.22011 1.58801 0
M  V30 11198 C 1096.21 4.59579 1.42621 0
M  V30 11199 C 1098.56 5.08074 1.16236 0
M  V30 11200 C 1095.89 5.80885 0.823967 0
M  V30 11201 C 1098.24 6.29988 0.574284 0
M  V30 11202 C 1096.9 6.66303 0.399638 0
M  V30 11203 H 1096.17 0.609092 0.422005 0
M  V30 11204 H 1098.82 1.86374 0.440131 0
M  V30 11205 H 1097.13 2.58314 2.94586 0
M  V30 11206 H 1098.82 2.92063 2.74774 0
M  V30 11207 H 1095.41 3.92408 1.72378 0
M  V30 11208 H 1099.6 4.79631 1.27544 0
M  V30 11209 H 1094.85 6.07644 0.676694 0
M  V30 11210 H 1099.03 6.96 0.236081 0
M  V30 11211 H 1096.65 7.60169 -0.0691262 0
M  V30 11212 N 1098.23 -0.663929 1.42933 0
M  V30 11213 C 1099.16 -1.78899 1.50058 0
M  V30 11214 C 1100.14 -1.66329 0.356164 0
M  V30 11215 O 1101.32 -1.85587 0.571944 0
M  V30 11216 C 1098.45 -3.17265 1.41281 0
M  V30 11217 C 1097.41 -3.44584 2.53861 0
M  V30 11218 C 1096.73 -4.82638 2.3014 0
M  V30 11219 C 1098.03 -3.40394 3.96143 0
M  V30 11220 H 1099.73 -1.73194 2.44222 0
M  V30 11221 H 1097.27 -0.83182 1.17545 0
M  V30 11222 H 1099.23 -3.95715 1.44872 0
M  V30 11223 H 1097.95 -3.23675 0.43616 0
M  V30 11224 H 1096.61 -2.685 2.49606 0
M  V30 11225 H 1096.26 -4.85711 1.30743 0
M  V30 11226 H 1095.96 -5.01879 3.056 0
M  V30 11227 H 1097.48 -5.63359 2.35497 0
M  V30 11228 H 1098.9 -4.08796 4.01943 0
M  V30 11229 H 1097.29 -3.7117 4.71543 0
M  V30 11230 H 1098.36 -2.38767 4.22041 0
M  V30 11231 N 1099.71 -1.29285 -0.901281 0
M  V30 11232 C 1101.12 -1.07263 -1.18182 0
M  V30 11233 C 1101.32 0.177087 -2.0072 0
M  V30 11234 O 1100.38 0.875292 -2.36844 0
M  V30 11235 C 1101.69 -2.32717 -1.9043 0
M  V30 11236 C 1103.24 -2.3802 -2.03262 0
M  V30 11237 C 1103.71 -3.63273 -2.7892 0
M  V30 11238 N 1105.21 -3.63986 -2.86475 0
M  V30 11239 C 1105.94 -4.57585 -3.45549 0
M  V30 11240 N 1105.44 -5.61513 -4.05801 0
M  V30 11241 N 1107.23 -4.45157 -3.43208 0
M  V30 11242 H 1099.38 -2.09487 -0.350536 0
M  V30 11243 H 1101.64 -0.922647 -0.217778 0
M  V30 11244 H 1101.35 -3.23828 -1.37216 0
M  V30 11245 H 1101.22 -2.40102 -2.90913 0
M  V30 11246 H 1103.61 -1.47398 -2.55652 0
M  V30 11247 H 1103.69 -2.3462 -1.01916 0
M  V30 11248 H 1103.34 -4.54246 -2.27206 0
M  V30 11249 H 1103.27 -3.6393 -3.80608 0
M  V30 11250 H 1105.76 -2.8884 -2.43679 0
M  V30 11251 H 1106.07 -6.29058 -4.48894 0
M  V30 11252 H 1104.41 -5.65325 -4.04268 0
M  V30 11253 H 1107.61 -3.63158 -2.95354 0
M  V30 11254 H 1107.78 -5.18286 -3.88952 0
M  V30 11255 N 1101.18 1.11143 -1.11736 0
M  V30 11256 C 1102.41 1.86745 -0.890727 0
M  V30 11257 C 1102.83 1.80315 0.55964 0
M  V30 11258 O 1102.18 1.18663 1.38656 0
M  V30 11259 C 1102.24 3.35436 -1.34779 0
M  V30 11260 O 1101.96 3.41738 -2.74129 0
M  V30 11261 C 1103.46 4.27935 -1.15702 0
M  V30 11262 H 1100.68 0.59044 -0.318781 0
M  V30 11263 H 1103.22 1.40549 -1.48547 0
M  V30 11264 H 1101.38 3.79125 -0.796425 0
M  V30 11265 H 1101.79 4.34347 -2.94012 0
M  V30 11266 H 1103.26 5.30494 -1.52579 0
M  V30 11267 H 1103.74 4.39093 -0.0968735 0
M  V30 11268 H 1104.35 3.90042 -1.69551 0
M  V30 11269 N 1102.66 0.908147 1.28804 0
M  V30 11270 C 1104.08 0.605474 1.47669 0
M  V30 11271 C 1104.28 -0.850759 1.82659 0
M  V30 11272 O 1103.33 -1.63029 1.92816 0
M  V30 11273 C 1104.65 1.53856 2.58358 0
M  V30 11274 C 1106.2 1.54467 2.7223 0
M  V30 11275 C 1106.67 2.46424 3.86056 0
M  V30 11276 N 1108.16 2.44519 3.93402 0
M  V30 11277 C 1108.9 3.12371 4.80845 0
M  V30 11278 N 1108.39 3.89533 5.72919 0
M  V30 11279 N 1110.19 3.01486 4.74407 0
M  V30 11280 H 1102.34 1.84988 1.04371 0
M  V30 11281 H 1104.6 0.793132 0.519274 0
M  V30 11282 H 1104.31 2.57651 2.39393 0
M  V30 11283 H 1104.18 1.26543 3.5534 0
M  V30 11284 H 1106.57 0.514127 2.90587 0
M  V30 11285 H 1106.65 1.85821 1.75796 0
M  V30 11286 H 1106.29 3.49577 3.68454 0
M  V30 11287 H 1106.22 2.12375 4.81876 0
M  V30 11288 H 1108.71 1.88464 3.27551 0
M  V30 11289 H 1109.03 4.3834 6.36457 0
M  V30 11290 H 1107.37 3.93639 5.72777 0
M  V30 11291 H 1110.56 2.40713 4.01466 0
M  V30 11292 H 1110.73 3.5464 5.42342 0
M  V30 11293 N 1104.14 -1.42577 0.671525 0
M  V30 11294 C 1105.37 -2.05924 0.200731 0
M  V30 11295 C 1105.78 -1.50434 -1.14083 0
M  V30 11296 O 1105.14 -0.642845 -1.70803 0
M  V30 11297 C 1105.19 -3.61289 0.123505 0
M  V30 11298 O 1104.91 -4.1472 1.41205 0
M  V30 11299 C 1106.41 -4.41743 -0.371178 0
M  V30 11300 H 1103.63 -0.663746 0.0983958 0
M  V30 11301 H 1106.18 -1.82771 0.917338 0
M  V30 11302 H 1104.33 -3.83565 -0.543769 0
M  V30 11303 H 1104.75 -5.0856 1.28325 0
M  V30 11304 H 1106.22 -5.50731 -0.374128 0
M  V30 11305 H 1106.7 -4.16092 -1.40585 0
M  V30 11306 H 1107.3 -4.24478 0.264244 0
M  V30 11307 N 1105.62 -0.414636 -1.52048 0
M  V30 11308 C 1106.85 0.158686 -2.06291 0
M  V30 11309 C 1107.26 1.38397 -1.2842 0
M  V30 11310 O 1106.62 1.79351 -0.337539 0
M  V30 11311 C 1106.67 0.503634 -3.57975 0
M  V30 11312 O 1106.39 -0.672996 -4.329 0
M  V30 11313 C 1107.89 1.13009 -4.28653 0
M  V30 11314 H 1105.11 0.0179622 -0.67076 0
M  V30 11315 H 1107.66 -0.587177 -1.95889 0
M  V30 11316 H 1105.81 1.19939 -3.68366 0
M  V30 11317 H 1106.22 -0.383735 -5.23094 0
M  V30 11318 H 1107.7 1.32162 -5.35945 0
M  V30 11319 H 1108.18 2.10476 -3.85482 0
M  V30 11320 H 1108.78 0.474379 -4.22646 0
M  V30 11321 N 1107.1 1.56929 -0.145233 0
M  V30 11322 C 1108.32 2.00864 0.516564 0
M  V30 11323 C 1108.75 1.02466 1.57741 0
M  V30 11324 O 1108.1 0.000145439 1.813 0
M  V30 11325 C 1108.15 3.43552 1.09563 0
M  V30 11326 O 1107.26 3.4815 2.21055 0
M  V30 11327 H 1106.6 0.651835 0.126521 0
M  V30 11328 H 1109.13 2.0317 -0.241445 0
M  V30 11329 H 1109.14 3.82316 1.42473 0
M  V30 11330 H 1107.81 4.14677 0.318749 0
M  V30 11331 H 1106.39 3.21228 1.89387 0
M  V30 11332 N 1108.58 -0.128553 1.57075 0
M  V30 11333 C 1109.82 -0.839252 1.8462 0
M  V30 11334 C 1110.15 -1.79974 0.729582 0
M  V30 11335 O 1109.43 -1.92681 -0.265369 0
M  V30 11336 C 1109.71 -1.59756 3.22723 0
M  V30 11337 C 1109.57 -0.657313 4.44971 0
M  V30 11338 C 1110.88 -2.55592 3.58275 0
M  V30 11339 H 1108 -0.303652 0.671539 0
M  V30 11340 H 1110.65 -0.103802 1.89716 0
M  V30 11341 H 1108.8 -2.22451 3.18509 0
M  V30 11342 H 1110.47 -0.0399471 4.61283 0
M  V30 11343 H 1108.71 0.0318416 4.33788 0
M  V30 11344 H 1109.38 -1.22433 5.38251 0
M  V30 11345 H 1111.86 -2.03007 3.63218 0
M  V30 11346 H 1110.73 -3.05687 4.55902 0
M  V30 11347 H 1110.99 -3.37813 2.85193 0
M  V30 11348 N 1110.05 -1.5248 -0.398459 0
M  V30 11349 C 1111.3 -1.66731 -1.14215 0
M  V30 11350 C 1111.62 -0.404957 -1.90749 0
M  V30 11351 O 1110.89 0.580434 -1.87104 0
M  V30 11352 H 1109.47 -0.614577 -0.424622 0
M  V30 11353 H 1112.13 -1.89561 -0.453059 0
M  V30 11354 H 1111.23 -2.51336 -1.85031 0
M  V30 11355 N 1111.53 0.65634 -1.43283 0
M  V30 11356 C 1112.94 1.23744 -1.39801 0
M  V30 11357 C 1113.29 1.95942 -0.100507 0
M  V30 11358 O 1112.42 2.01063 0.800161 0
M  V30 11359 C 1113.01 2.25062 -2.53244 0
M  V30 11360 C 1111.57 2.78657 -2.53036 0
M  V30 11361 C 1110.72 1.53251 -2.31105 0
M  V30 11362 H 1113.67 0.448553 -1.52229 0
M  V30 11363 H 1113.69 3.07174 -2.24553 0
M  V30 11364 H 1113.2 1.72487 -3.47664 0
M  V30 11365 H 1111.3 3.35304 -1.62487 0
M  V30 11366 H 1111.42 3.26414 -3.507 0
M  V30 11367 H 1109.78 1.80487 -1.79713 0
M  V30 11368 H 1110.56 1.02615 -3.27605 0
M  V30 11369 N 1113.01 1.29761 0.894412 0
M  V30 11370 C 1114.23 1.21064 1.68399 0
M  V30 11371 C 1114.66 -0.224608 1.86754 0
M  V30 11372 O 1114.02 -1.16199 1.39167 0
M  V30 11373 C 1114.07 1.93468 3.04306 0
M  V30 11374 O 1113.17 1.25533 3.9283 0
M  V30 11375 H 1112.51 0.419223 0.514925 0
M  V30 11376 H 1115.04 1.71421 1.11696 0
M  V30 11377 H 1115.05 2.02127 3.54413 0
M  V30 11378 H 1113.73 2.97857 2.90265 0
M  V30 11379 H 1112.3 1.25168 3.51266 0
M  V30 11380 N 1114.49 -1.10549 1.12324 0
M  V30 11381 C 1115.44 -2.18944 0.785248 0
M  V30 11382 C 1116.43 -1.67867 -0.227389 0
M  V30 11383 O 1117.64 -1.79796 -0.0857162 0
M  V30 11384 H 1114.01 -0.713976 0.236098 0
M  V30 11385 H 1115.98 -2.44692 1.70788 0
M  V30 11386 C 1114.73 -3.46765 0.25485 0
M  V30 11387 H 1114.05 -3.86428 1.02534 0
M  V30 11388 H 1115.49 -4.23962 0.0566526 0
M  V30 11389 C 1113.95 -3.21185 -1.01695 0
M  V30 11390 O 1114.48 -3.42745 -2.09497 0
M  V30 11391 N 1112.69 -2.7486 -0.943423 0
M  V30 11392 H 1112.24 -2.57515 -0.0660366 0
M  V30 11393 H 1112.19 -2.58122 -1.795 0
M  V30 11394 N 1115.97 -0.914965 -1.28321 0
M  V30 11395 C 1117.19 -0.564023 -1.99583 0
M  V30 11396 C 1117.62 0.847821 -1.6791 0
M  V30 11397 O 1116.97 1.56682 -0.912171 0
M  V30 11398 C 1117.02 -0.781368 -3.52033 0
M  V30 11399 O 1116.13 0.159072 -4.12093 0
M  V30 11400 H 1115.47 -0.218565 -0.626997 0
M  V30 11401 H 1118 -1.23074 -1.63444 0
M  V30 11402 H 1118.01 -0.691946 -4.0209 0
M  V30 11403 H 1116.68 -1.81059 -3.7442 0
M  V30 11404 H 1115.26 0.0208145 -3.72894 0
M  V30 11405 N 1117.44 1.42219 -0.679077 0
M  V30 11406 C 1118.69 2.01081 -0.202718 0
M  V30 11407 C 1119.01 1.53986 1.19639 0
M  V30 11408 O 1118.28 0.763359 1.80415 0
M  V30 11409 H 1116.86 0.743526 -0.0719547 0
M  V30 11410 H 1119.52 1.74077 -0.876544 0
M  V30 11411 H 1118.62 3.11411 -0.207314 0
M  V30 11412 N 1118.92 0.422693 1.51826 0
M  V30 11413 C 1120.17 -0.148348 2.01555 0
M  V30 11414 C 1120.49 -1.44483 1.30956 0
M  V30 11415 O 1119.76 -1.90904 0.439599 0
M  V30 11416 H 1118.34 -0.0578116 0.74476 0
M  V30 11417 H 1121 0.562046 1.8662 0
M  V30 11418 H 1120.1 -0.334766 3.10299 0
M  V30 11419 N 1120.4 -1.5685 0.153553 0
M  V30 11420 C 1121.62 -2.01135 -0.505904 0
M  V30 11421 C 1122.05 -1.03301 -1.57196 0
M  V30 11422 O 1121.41 -0.00976022 -1.81297 0
M  V30 11423 C 1121.46 -3.44129 -1.0774 0
M  V30 11424 O 1120.56 -3.49318 -2.19205 0
M  V30 11425 H 1119.9 -0.652496 -0.123062 0
M  V30 11426 H 1122.43 -2.03039 0.252216 0
M  V30 11427 H 1122.44 -3.83066 -1.40444 0
M  V30 11428 H 1121.12 -4.1484 -0.296754 0
M  V30 11429 H 1119.69 -3.22227 -1.8768 0
M  V30 11430 N 1121.88 0.120221 -1.57141 0
M  V30 11431 C 1122.81 1.14876 -2.03287 0
M  V30 11432 C 1123.79 1.43259 -0.917112 0
M  V30 11433 O 1124.97 1.53721 -1.18674 0
M  V30 11434 C 1122.1 2.47525 -2.43616 0
M  V30 11435 C 1121.06 2.33607 -3.58625 0
M  V30 11436 C 1120.38 3.71207 -3.84849 0
M  V30 11437 C 1121.68 1.79761 -4.90391 0
M  V30 11438 H 1123.38 0.764943 -2.89463 0
M  V30 11439 H 1120.92 0.366516 -1.39258 0
M  V30 11440 H 1122.88 3.19728 -2.74504 0
M  V30 11441 H 1121.6 2.87794 -1.54409 0
M  V30 11442 H 1120.26 1.63853 -3.27945 0
M  V30 11443 H 1119.91 4.0896 -2.9285 0
M  V30 11444 H 1119.61 3.62749 -4.62263 0
M  V30 11445 H 1121.13 4.44917 -4.18188 0
M  V30 11446 H 1122.55 2.4178 -5.19822 0
M  V30 11447 H 1120.94 1.82126 -5.71795 0
M  V30 11448 H 1122.01 0.755087 -4.78985 0
M  V30 11449 N 1123.36 1.52689 0.390367 0
M  V30 11450 C 1124.6 1.69354 1.1445 0
M  V30 11451 C 1124.96 0.423677 1.87267 0
M  V30 11452 O 1126.16 0.466669 2.64718 0
M  V30 11453 C 1124.43 2.89356 2.0978 0
M  V30 11454 S 1125.99 3.26602 2.93047 0
M  V30 11455 H 1122.81 0.596162 0.387442 0
M  V30 11456 H 1125.41 1.90732 0.429119 0
M  V30 11457 H 1124.12 3.80003 1.55004 0
M  V30 11458 H 1123.65 2.70307 2.85828 0
M  V30 11459 H 1125.66 2.76683 4.11899 0
M  V30 11460 N 1124.83 -0.648732 1.43629 0
M  V30 11461 C 1125.8 -1.74331 1.488 0
M  V30 11462 C 1126.8 -1.56434 0.372147 0
M  V30 11463 O 1127.99 -1.6225 0.634078 0
M  V30 11464 C 1125.12 -3.13248 1.34494 0
M  V30 11465 H 1126.31 -1.71125 2.46285 0
M  V30 11466 H 1123.87 -0.860798 1.30461 0
M  V30 11467 H 1124.6 -3.22062 0.380345 0
M  V30 11468 H 1124.39 -3.27643 2.15389 0
M  V30 11469 H 1125.88 -3.93056 1.41055 0
M  V30 11470 N 1126.31 -1.30234 -0.887518 0
M  V30 11471 C 1127.25 -1.10726 -1.99537 0
M  V30 11472 C 1128.22 -0.0156237 -1.62592 0
M  V30 11473 O 1129.41 -0.168687 -1.87744 0
M  V30 11474 C 1126.53 -0.688185 -3.31635 0
M  V30 11475 C 1125.58 -1.78031 -3.87566 0
M  V30 11476 S 1126.41 -3.38219 -4.15172 0
M  V30 11477 C 1127.57 -2.98208 -5.50293 0
M  V30 11478 H 1127.8 -2.04516 -2.15778 0
M  V30 11479 H 1125.34 -1.14519 -1.0356 0
M  V30 11480 H 1127.29 -0.453124 -4.07991 0
M  V30 11481 H 1125.95 0.230315 -3.13254 0
M  V30 11482 H 1125.15 -1.43931 -4.83011 0
M  V30 11483 H 1124.75 -1.96952 -3.1794 0
M  V30 11484 H 1127.04 -2.4601 -6.31257 0
M  V30 11485 H 1127.98 -3.92551 -5.89329 0
M  V30 11486 H 1128.39 -2.36149 -5.12732 0
M  V30 11487 N 1127.79 1.09952 -1.12909 0
M  V30 11488 C 1129.02 1.8633 -0.910821 0
M  V30 11489 C 1129.44 1.80335 0.534874 0
M  V30 11490 O 1128.8 1.1769 1.37908 0
M  V30 11491 C 1128.85 3.32462 -1.39648 0
M  V30 11492 O 1127.95 4.08327 -0.578192 0
M  V30 11493 H 1127.29 0.577984 -0.32685 0
M  V30 11494 H 1129.82 1.38883 -1.50242 0
M  V30 11495 H 1129.83 3.83311 -1.39774 0
M  V30 11496 H 1128.51 3.36141 -2.44913 0
M  V30 11497 H 1127.08 3.67291 -0.644347 0
M  V30 11498 N 1129.27 0.921757 1.27833 0
M  V30 11499 C 1130.52 0.557974 1.94245 0
M  V30 11500 C 1130.84 -0.90268 1.72849 0
M  V30 11501 O 1130.11 -1.63915 1.07279 0
M  V30 11502 H 1128.69 0.203364 0.718785 0
M  V30 11503 H 1131.35 1.17286 1.5566 0
M  V30 11504 H 1130.45 0.759202 3.02725 0
M  V30 11505 N 1130.75 -1.41857 0.686609 0
M  V30 11506 C 1132.16 -1.55549 0.357288 0
M  V30 11507 C 1132.36 -1.66394 -1.13646 0
M  V30 11508 O 1131.42 -1.63739 -1.92213 0
M  V30 11509 C 1132.73 -2.79938 1.09796 0
M  V30 11510 C 1134.28 -2.93724 1.08143 0
M  V30 11511 C 1134.75 -4.20989 1.80367 0
M  V30 11512 N 1136.25 -4.27927 1.77293 0
M  V30 11513 C 1136.98 -5.2524 2.30022 0
M  V30 11514 N 1136.48 -6.28636 2.91185 0
M  V30 11515 N 1138.27 -5.17118 2.20329 0
M  V30 11516 H 1130.42 -1.33063 1.65554 0
M  V30 11517 H 1132.68 -0.641335 0.698135 0
M  V30 11518 H 1132.39 -2.78104 2.15293 0
M  V30 11519 H 1132.26 -3.71188 0.670763 0
M  V30 11520 H 1134.65 -2.9508 0.0347554 0
M  V30 11521 H 1134.73 -2.03673 1.54761 0
M  V30 11522 H 1134.38 -4.20395 2.85009 0
M  V30 11523 H 1134.31 -5.09997 1.3119 0
M  V30 11524 H 1136.8 -3.53838 1.32692 0
M  V30 11525 H 1137.11 -6.99265 3.29011 0
M  V30 11526 H 1135.45 -6.29164 2.95259 0
M  V30 11527 H 1138.65 -4.35265 1.72226 0
M  V30 11528 H 1138.82 -5.92792 2.61728 0
M  V30 11529 N 1132.22 -0.430739 -1.51599 0
M  V30 11530 C 1133.47 0.138133 -2.02329 0
M  V30 11531 C 1133.8 1.42934 -1.31466 0
M  V30 11532 O 1133.08 1.89743 -0.427551 0
M  V30 11533 C 1133.36 0.363677 -3.58259 0
M  V30 11534 C 1133.21 -0.94572 -4.39746 0
M  V30 11535 C 1134.53 1.13637 -4.25176 0
M  V30 11536 H 1131.65 0.0487287 -0.735387 0
M  V30 11537 H 1134.29 -0.568444 -1.81297 0
M  V30 11538 H 1132.44 0.965552 -3.7631 0
M  V30 11539 H 1134.12 -1.58107 -4.33359 0
M  V30 11540 H 1132.36 -1.55183 -4.05094 0
M  V30 11541 H 1133.03 -0.742031 -5.4699 0
M  V30 11542 H 1135.51 0.626608 -4.11355 0
M  V30 11543 H 1134.38 1.26294 -5.34173 0
M  V30 11544 H 1134.64 2.16273 -3.85588 0
M  V30 11545 N 1133.7 1.56767 -0.161869 0
M  V30 11546 C 1134.94 1.98487 0.488067 0
M  V30 11547 C 1135.31 1.04527 1.61053 0
M  V30 11548 O 1136.51 1.35351 2.32236 0
M  V30 11549 C 1134.78 3.44057 0.967446 0
M  V30 11550 S 1136.34 4.07805 1.61989 0
M  V30 11551 H 1133.16 0.693377 0.157318 0
M  V30 11552 H 1135.76 1.93802 -0.257099 0
M  V30 11553 H 1134.46 4.10161 0.139959 0
M  V30 11554 H 1133.99 3.52488 1.74688 0
M  V30 11555 H 1136.01 4.02078 2.90772 0
M  V30 11556 N 1135.18 -0.111886 1.57202 0
M  V30 11557 C 1136.43 -0.819623 1.85499 0
M  V30 11558 C 1136.76 -1.7919 0.748629 0
M  V30 11559 O 1136.03 -1.92952 -0.244918 0
M  V30 11560 C 1136.32 -1.56324 3.24399 0
M  V30 11561 C 1136.17 -0.610081 4.45643 0
M  V30 11562 C 1137.49 -2.51777 3.60966 0
M  V30 11563 H 1134.61 -0.296512 0.674722 0
M  V30 11564 H 1137.25 -0.0836741 1.89816 0
M  V30 11565 H 1135.4 -2.1906 3.2085 0
M  V30 11566 H 1137.07 0.00898038 4.61299 0
M  V30 11567 H 1135.32 0.0778488 4.3373 0
M  V30 11568 H 1135.99 -1.16718 5.39519 0
M  V30 11569 H 1138.46 -1.99143 3.65351 0
M  V30 11570 H 1137.34 -3.00835 4.59118 0
M  V30 11571 H 1137.6 -3.34769 2.8876 0
M  V30 11572 N 1136.66 -1.52894 -0.382264 0
M  V30 11573 C 1137.91 -1.67933 -1.1244 0
M  V30 11574 C 1138.23 -0.425166 -1.90309 0
M  V30 11575 O 1137.5 0.560557 -1.87709 0
M  V30 11576 H 1136.08 -0.619047 -0.418079 0
M  V30 11577 H 1138.74 -1.90031 -0.432928 0
M  V30 11578 H 1137.84 -2.53285 -1.82355 0
M  V30 11579 N 1138.14 0.641106 -1.43971 0
M  V30 11580 C 1139.36 1.43324 -1.4991 0
M  V30 11581 C 1139.79 1.87705 -0.121908 0
M  V30 11582 O 1139.15 1.58127 0.886875 0
M  V30 11583 C 1139.19 2.63637 -2.46025 0
M  V30 11584 O 1138.3 3.63123 -1.95488 0
M  V30 11585 H 1137.64 0.429252 -0.506595 0
M  V30 11586 H 1140.17 0.783427 -1.89007 0
M  V30 11587 H 1140.18 3.11304 -2.63731 0
M  V30 11588 H 1138.85 2.30678 -3.46064 0
M  V30 11589 H 1137.43 3.22332 -1.87501 0
M  V30 11590 N 1139.62 1.30703 0.880598 0
M  V30 11591 C 1141.03 1.17818 1.4483 0
M  V30 11592 C 1141.38 -0.219456 1.94969 0
M  V30 11593 O 1140.5 -1.11646 1.85375 0
M  V30 11594 C 1141.1 2.13275 2.63247 0
M  V30 11595 C 1139.66 2.04356 3.16094 0
M  V30 11596 C 1138.8 2.03108 1.88792 0
M  V30 11597 H 1141.75 1.42909 0.690125 0
M  V30 11598 H 1141.78 1.71615 3.39601 0
M  V30 11599 H 1141.29 3.14988 2.26725 0
M  V30 11600 H 1139.39 1.058 3.57263 0
M  V30 11601 H 1139.5 2.92953 3.79098 0
M  V30 11602 H 1137.87 1.47971 2.07308 0
M  V30 11603 H 1138.65 3.06558 1.54521 0
M  V30 11604 N 1141.09 -1.09351 1.1349 0
M  V30 11605 C 1142.5 -1.63035 0.909746 0
M  V30 11606 C 1142.86 -1.88229 -0.553573 0
M  V30 11607 O 1141.98 -1.63256 -1.42044 0
M  V30 11608 C 1142.58 -2.96186 1.64497 0
M  V30 11609 C 1141.13 -3.46692 1.46566 0
M  V30 11610 C 1140.28 -2.21095 1.67369 0
M  V30 11611 H 1143.23 -0.92704 1.28809 0
M  V30 11612 H 1143.25 -3.64177 1.10251 0
M  V30 11613 H 1142.77 -2.77818 2.70996 0
M  V30 11614 H 1140.87 -3.70183 0.423728 0
M  V30 11615 H 1140.98 -4.24078 2.22923 0
M  V30 11616 H 1139.34 -2.29789 1.0986 0
M  V30 11617 H 1140.13 -2.05245 2.7519 0
M  V30 11618 N 1142.57 -0.928524 -1.27343 0
M  V30 11619 C 1143.82 -0.568267 -1.93946 0
M  V30 11620 C 1144.14 0.893501 -1.73325 0
M  V30 11621 O 1143.41 1.63344 -1.08147 0
M  V30 11622 H 1141.99 -0.207173 -0.717696 0
M  V30 11623 H 1144.65 -1.1811 -1.55036 0
M  V30 11624 H 1143.75 -0.775246 -3.02318 0
M  V30 11625 N 1144.05 1.41491 -0.694123 0
M  V30 11626 C 1145.46 1.84283 -0.299439 0
M  V30 11627 C 1145.81 1.58081 1.16211 0
M  V30 11628 O 1144.94 1.05051 1.89191 0
M  V30 11629 C 1145.53 3.34522 -0.536696 0
M  V30 11630 C 1144.09 3.7589 -0.195944 0
M  V30 11631 C 1143.24 2.64908 -0.819692 0
M  V30 11632 H 1146.19 1.31063 -0.894884 0
M  V30 11633 H 1146.21 3.79947 0.205062 0
M  V30 11634 H 1145.72 3.53561 -1.6005 0
M  V30 11635 H 1143.82 3.62452 0.863655 0
M  V30 11636 H 1143.94 4.74671 -0.649954 0
M  V30 11637 H 1142.3 2.53476 -0.249412 0
M  V30 11638 H 1143.08 2.86765 -1.88734 0
M  V30 11639 N 1145.53 0.438773 1.51369 0
M  V30 11640 C 1146.78 -0.126962 2.01701 0
M  V30 11641 C 1147.1 -1.43086 1.32481 0
M  V30 11642 O 1146.37 -1.90427 0.459823 0
M  V30 11643 H 1144.95 -0.0499092 0.745331 0
M  V30 11644 H 1147.61 0.581808 1.86013 0
M  V30 11645 H 1146.7 -0.301836 3.10637 0
M  V30 11646 N 1147.01 -1.56678 0.170181 0
M  V30 11647 C 1148.25 -1.96849 -0.475064 0
M  V30 11648 C 1148.58 -1.05611 -1.6333 0
M  V30 11649 O 1147.84 -0.0899708 -1.95493 0
M  V30 11650 C 1148.13 -3.43103 -1.00076 0
M  V30 11651 C 1147.8 -4.50881 0.0414538 0
M  V30 11652 C 1146.46 -4.80082 0.327894 0
M  V30 11653 C 1148.81 -5.15791 0.748936 0
M  V30 11654 C 1146.14 -5.71491 1.32722 0
M  V30 11655 C 1148.49 -6.08278 1.73724 0
M  V30 11656 C 1147.16 -6.35847 2.03114 0
M  V30 11657 H 1146.43 -0.72032 -0.173838 0
M  V30 11658 H 1149.08 -1.89701 0.261903 0
M  V30 11659 H 1147.38 -3.47197 -1.81553 0
M  V30 11660 H 1149.08 -3.71525 -1.50899 0
M  V30 11661 H 1145.67 -4.2817 -0.191976 0
M  V30 11662 H 1149.85 -4.93344 0.540852 0
M  V30 11663 H 1145.11 -5.91134 1.56112 0
M  V30 11664 H 1149.28 -6.57643 2.29082 0
M  V30 11665 H 1146.91 -7.06479 2.80698 0
M  V30 11666 N 1148.48 0.103547 -1.57259 0
M  V30 11667 C 1149.73 0.806979 -1.8529 0
M  V30 11668 C 1150.05 1.79679 -0.757653 0
M  V30 11669 O 1149.32 1.94695 0.216913 0
M  V30 11670 H 1147.9 0.301012 -0.683667 0
M  V30 11671 H 1150.56 0.0871886 -1.94705 0
M  V30 11672 H 1149.66 1.34275 -2.81738 0
M  V30 11673 N 1149.96 1.53094 0.37415 0
M  V30 11674 C 1151.19 1.73061 1.143 0
M  V30 11675 C 1151.61 0.454611 1.82524 0
M  V30 11676 O 1150.97 -0.590743 1.71406 0
M  V30 11677 C 1151.02 2.89086 2.15549 0
M  V30 11678 O 1150.12 2.57096 3.22452 0
M  V30 11679 H 1149.46 0.575009 0.332055 0
M  V30 11680 H 1151.99 1.99946 0.433897 0
M  V30 11681 H 1152 3.15007 2.59296 0
M  V30 11682 H 1150.68 3.81647 1.65283 0
M  V30 11683 H 1149.25 2.41965 2.83738 0
M  V30 11684 N 1151.44 -0.633461 1.44309 0
M  V30 11685 C 1152.66 -1.42527 1.50668 0
M  V30 11686 C 1153.09 -1.87637 0.131861 0
M  V30 11687 O 1152.45 -1.58595 -0.878477 0
M  V30 11688 C 1152.5 -2.62328 2.47419 0
M  V30 11689 O 1151.6 -3.62081 1.97411 0
M  V30 11690 H 1150.94 -0.426559 0.508864 0
M  V30 11691 H 1153.47 -0.773392 1.8942 0
M  V30 11692 H 1153.48 -3.09901 2.65378 0
M  V30 11693 H 1152.16 -2.2884 3.47283 0
M  V30 11694 H 1150.73 -3.21333 1.89208 0
M  V30 11695 N 1152.92 -1.31168 -0.873655 0
M  V30 11696 C 1154.33 -1.18584 -1.44203 0
M  V30 11697 C 1154.68 0.209114 -1.95082 0
M  V30 11698 O 1153.81 1.10662 -1.85965 0
M  V30 11699 C 1154.4 -2.14668 -2.62112 0
M  V30 11700 C 1152.96 -2.06029 -3.15006 0
M  V30 11701 C 1152.11 -2.04106 -1.87712 0
M  V30 11702 H 1155.06 -1.43273 -0.682536 0
M  V30 11703 H 1155.08 -1.73413 -3.38686 0
M  V30 11704 H 1154.59 -3.16186 -2.25051 0
M  V30 11705 H 1152.69 -1.07693 -3.56697 0
M  V30 11706 H 1152.8 -2.9496 -3.77539 0
M  V30 11707 H 1151.17 -1.49069 -2.0652 0
M  V30 11708 H 1151.95 -3.07373 -1.52894 0
M  V30 11709 N 1154.4 1.08748 -1.14068 0
M  V30 11710 C 1155.81 1.62551 -0.918379 0
M  V30 11711 C 1156.16 1.8852 0.543583 0
M  V30 11712 O 1155.28 1.64007 1.41176 0
M  V30 11713 C 1155.88 2.95309 -1.66066 0
M  V30 11714 C 1154.44 3.4591 -1.48403 0
M  V30 11715 C 1153.58 2.20204 -1.6854 0
M  V30 11716 H 1156.54 0.920196 -1.29298 0
M  V30 11717 H 1156.56 3.63587 -1.12181 0
M  V30 11718 H 1156.07 2.76377 -2.72465 0
M  V30 11719 H 1154.17 3.69953 -0.443353 0
M  V30 11720 H 1154.28 4.2289 -2.25169 0
M  V30 11721 H 1152.65 2.29203 -1.11077 0
M  V30 11722 H 1153.43 2.03783 -2.76274 0
M  V30 11723 N 1155.87 0.935264 1.26849 0
M  V30 11724 C 1157.12 0.578545 1.93642 0
M  V30 11725 C 1157.44 -0.884296 1.73796 0
M  V30 11726 O 1156.71 -1.62768 1.09011 0
M  V30 11727 H 1155.29 0.210976 0.716588 0
M  V30 11728 H 1157.96 1.1893 1.54407 0
M  V30 11729 H 1157.05 0.791268 3.01903 0
M  V30 11730 N 1157.35 -1.41121 0.701616 0
M  V30 11731 C 1158.32 -2.29148 0.0490091 0
M  V30 11732 C 1159.32 -1.44679 -0.701763 0
M  V30 11733 O 1160.51 -1.65757 -0.53575 0
M  V30 11734 C 1157.64 -3.2766 -0.940837 0
M  V30 11735 H 1158.83 -2.88354 0.824133 0
M  V30 11736 H 1156.38 -1.49209 0.465457 0
M  V30 11737 H 1157.12 -2.73445 -1.74351 0
M  V30 11738 H 1156.9 -3.89997 -0.405551 0
M  V30 11739 H 1158.39 -3.93609 -1.39507 0
M  V30 11740 N 1158.83 -0.446794 -1.51134 0
M  V30 11741 C 1159.74 0.36579 -2.31731 0
M  V30 11742 C 1160.76 1.01886 -1.41051 0
M  V30 11743 O 1161.93 1.01216 -1.74119 0
M  V30 11744 C 1159 1.44705 -3.15058 0
M  V30 11745 C 1158.06 0.813129 -4.21529 0
M  V30 11746 C 1157.29 1.84287 -5.00873 0
M  V30 11747 O 1157.51 3.06633 -4.8097 0
M  V30 11748 O 1156.45 1.42816 -5.84711 0
M  V30 11749 H 1160.27 -0.292436 -3.02289 0
M  V30 11750 H 1157.86 -0.209129 -1.47929 0
M  V30 11751 H 1159.74 2.07393 -3.66833 0
M  V30 11752 H 1158.42 2.08919 -2.47254 0
M  V30 11753 H 1157.32 0.147953 -3.73807 0
M  V30 11754 H 1158.66 0.214331 -4.91733 0
M  V30 11755 N 1160.31 1.56586 -0.178487 0
M  V30 11756 C 1161.27 2.17091 0.73512 0
M  V30 11757 C 1162.27 1.12088 1.15295 0
M  V30 11758 O 1163.46 1.37563 1.06874 0
M  V30 11759 C 1160.59 2.75957 2.00151 0
M  V30 11760 H 1161.79 2.99176 0.208272 0
M  V30 11761 H 1159.34 1.56138 0.0710967 0
M  V30 11762 H 1160.07 1.97626 2.57127 0
M  V30 11763 H 1159.86 3.52809 1.7108 0
M  V30 11764 H 1161.35 3.2247 2.65335 0
M  V30 11765 N 1161.79 -0.095206 1.57312 0
M  V30 11766 C 1162.75 -1.09974 2.01093 0
M  V30 11767 C 1163.75 -1.32954 0.904424 0
M  V30 11768 O 1164.94 -1.29069 1.16991 0
M  V30 11769 C 1162.07 -2.4489 2.37153 0
M  V30 11770 H 1163.26 -0.722906 2.91057 0
M  V30 11771 H 1160.82 -0.340249 1.52552 0
M  V30 11772 H 1161.55 -2.8745 1.50143 0
M  V30 11773 H 1161.34 -2.29559 3.17876 0
M  V30 11774 H 1162.83 -3.17141 2.71683 0
M  V30 11775 N 1163.26 -1.53291 -0.366026 0
M  V30 11776 C 1164.68 -1.61144 -0.942849 0
M  V30 11777 C 1165.03 -0.478571 -1.90274 0
M  V30 11778 O 1164.15 0.395069 -2.12763 0
M  V30 11779 C 1164.75 -2.92081 -1.71681 0
M  V30 11780 C 1163.31 -3.0227 -2.24298 0
M  V30 11781 C 1162.45 -2.56436 -1.05526 0
M  V30 11782 H 1165.4 -1.58038 -0.144835 0
M  V30 11783 H 1165.42 -2.79858 -2.57798 0
M  V30 11784 H 1164.94 -3.74513 -1.01793 0
M  V30 11785 H 1163.04 -2.24425 -2.97429 0
M  V30 11786 H 1163.15 -4.07341 -2.5221 0
M  V30 11787 H 1161.51 -2.11301 -1.42211 0
M  V30 11788 H 1162.3 -3.41285 -0.371376 0
M  V30 11789 N 1164.74 0.6258 -1.44643 0
M  V30 11790 C 1165.97 1.41726 -1.51422 0
M  V30 11791 C 1166.39 1.87565 -0.14181 0
M  V30 11792 O 1165.75 1.59059 0.870054 0
M  V30 11793 C 1165.8 2.61012 -2.48807 0
M  V30 11794 O 1164.9 3.61029 -1.99328 0
M  V30 11795 H 1164.24 0.423855 -0.511119 0
M  V30 11796 H 1166.77 0.763336 -1.89827 0
M  V30 11797 H 1166.78 3.08489 -2.67018 0
M  V30 11798 H 1165.46 2.26995 -3.48491 0
M  V30 11799 H 1164.04 3.20325 -1.90909 0
M  V30 11800 N 1166.22 1.31629 0.866686 0
M  V30 11801 C 1167.15 1.22151 1.99001 0
M  V30 11802 C 1168.13 0.107972 1.69757 0
M  V30 11803 O 1169.32 0.293125 1.91975 0
M  V30 11804 C 1166.45 0.93144 3.34577 0
M  V30 11805 C 1165.4 2.0049 3.78137 0
M  V30 11806 C 1164.73 1.56747 5.11209 0
M  V30 11807 C 1166.03 3.41844 3.94892 0
M  V30 11808 H 1167.72 2.16132 2.0719 0
M  V30 11809 H 1165.27 1.04051 0.995463 0
M  V30 11810 H 1167.22 0.851719 4.12703 0
M  V30 11811 H 1165.94 -0.0440289 3.2657 0
M  V30 11812 H 1164.6 2.07457 3.02253 0
M  V30 11813 H 1164.25 0.579767 4.99648 0
M  V30 11814 H 1163.95 2.28562 5.41326 0
M  V30 11815 H 1165.47 1.50188 5.91841 0
M  V30 11816 H 1166.89 3.37534 4.63405 0
M  V30 11817 H 1165.29 4.11905 4.36411 0
M  V30 11818 H 1166.36 3.82389 2.98172 0
M  V30 11819 N 1167.7 -1.08142 1.14644 0
M  V30 11820 C 1169.12 -1.32656 0.887388 0
M  V30 11821 C 1169.32 -1.95942 -0.470012 0
M  V30 11822 O 1168.37 -2.21417 -1.21371 0
M  V30 11823 C 1169.68 -2.22549 2.02219 0
M  V30 11824 C 1171.23 -2.36021 2.0558 0
M  V30 11825 C 1171.71 -3.29257 3.18361 0
M  V30 11826 N 1173.2 -3.36835 3.17957 0
M  V30 11827 C 1173.93 -4.09017 4.01862 0
M  V30 11828 N 1173.43 -4.83882 4.95812 0
M  V30 11829 N 1175.22 -4.04875 3.89913 0
M  V30 11830 H 1167.37 -0.654457 2.02066 0
M  V30 11831 H 1169.64 -0.350947 0.880648 0
M  V30 11832 H 1169.34 -1.83296 3.00159 0
M  V30 11833 H 1169.22 -3.23027 1.94765 0
M  V30 11834 H 1171.6 -2.74531 1.08245 0
M  V30 11835 H 1171.68 -1.35275 2.17105 0
M  V30 11836 H 1171.33 -2.91468 4.15944 0
M  V30 11837 H 1171.26 -4.29938 3.04074 0
M  V30 11838 H 1173.75 -2.83465 2.49912 0
M  V30 11839 H 1174.06 -5.3643 5.56294 0
M  V30 11840 H 1172.41 -4.82926 4.99808 0
M  V30 11841 H 1175.6 -3.45496 3.15833 0
M  V30 11842 H 1175.77 -4.60866 4.55529 0
M  V30 11843 N 1169.18 -0.941978 -1.26351 0
M  V30 11844 C 1170.41 -0.605868 -1.97517 0
M  V30 11845 C 1170.82 0.823583 -1.70334 0
M  V30 11846 O 1170.16 1.56085 -0.968662 0
M  V30 11847 C 1170.22 -0.769201 -3.51175 0
M  V30 11848 C 1169.88 -2.17343 -4.02009 0
M  V30 11849 C 1170.88 -3.14898 -4.13685 0
M  V30 11850 C 1168.57 -2.49422 -4.35998 0
M  V30 11851 C 1170.56 -4.42631 -4.58646 0
M  V30 11852 C 1168.25 -3.77388 -4.80647 0
M  V30 11853 C 1169.25 -4.73806 -4.91932 0
M  V30 11854 O 1168.93 -5.99493 -5.35596 0
M  V30 11855 H 1168.67 -0.227113 -0.636707 0
M  V30 11856 H 1171.22 -1.26523 -1.61806 0
M  V30 11857 H 1169.45 -0.0527104 -3.86664 0
M  V30 11858 H 1171.14 -0.436032 -4.03551 0
M  V30 11859 H 1171.9 -2.91438 -3.87671 0
M  V30 11860 H 1167.78 -1.7511 -4.26448 0
M  V30 11861 H 1171.33 -5.17892 -4.67369 0
M  V30 11862 H 1167.22 -4.0066 -5.06105 0
M  V30 11863 H 1167.99 -6.02687 -5.53815 0
M  V30 11864 N 1170.66 1.40747 -0.709091 0
M  V30 11865 C 1171.9 2.013 -0.246174 0
M  V30 11866 C 1172.23 1.56078 1.15556 0
M  V30 11867 O 1171.51 0.777941 1.78265 0
M  V30 11868 C 1171.79 3.58685 -0.318945 0
M  V30 11869 C 1171.65 4.13997 -1.75859 0
M  V30 11870 C 1172.96 4.38981 0.31358 0
M  V30 11871 H 1170.08 0.73137 -0.0909255 0
M  V30 11872 H 1172.73 1.67312 -0.900365 0
M  V30 11873 H 1170.88 3.8777 0.23805 0
M  V30 11874 H 1172.55 3.95735 -2.37047 0
M  V30 11875 H 1170.79 3.6853 -2.28841 0
M  V30 11876 H 1171.46 5.23158 -1.76095 0
M  V30 11877 H 1173.94 4.15789 -0.160939 0
M  V30 11878 H 1172.81 5.48409 0.232184 0
M  V30 11879 H 1173.07 4.19474 1.39621 0
M  V30 11880 N 1172.13 0.454803 1.50895 0
M  V30 11881 C 1173.54 -0.00421212 1.867 0
M  V30 11882 C 1173.9 -1.4037 1.3708 0
M  V30 11883 O 1173.02 -2.03755 0.728884 0
M  V30 11884 C 1173.62 -0.0144196 3.38797 0
M  V30 11885 C 1172.17 -0.417905 3.74073 0
M  V30 11886 C 1171.32 0.37801 2.74711 0
M  V30 11887 H 1174.27 0.669849 1.4387 0
M  V30 11888 H 1174.29 -0.820172 3.71555 0
M  V30 11889 H 1173.81 1.00427 3.74881 0
M  V30 11890 H 1171.91 -1.44155 3.43584 0
M  V30 11891 H 1172.02 -0.130568 4.78922 0
M  V30 11892 H 1170.38 -0.166089 2.54158 0
M  V30 11893 H 1171.17 1.3959 3.13639 0
M  V30 11894 N 1173.61 -1.56489 0.186789 0
M  V30 11895 C 1174.84 -2.01429 -0.459326 0
M  V30 11896 C 1175.25 -1.06611 -1.56303 0
M  V30 11897 O 1174.59 -0.0617053 -1.83596 0
M  V30 11898 C 1174.65 -3.42778 -1.08367 0
M  V30 11899 C 1174.32 -4.56843 -0.119719 0
M  V30 11900 C 1175.32 -5.15594 0.667782 0
M  V30 11901 C 1173 -5.02299 -0.0110494 0
M  V30 11902 C 1174.99 -6.18242 1.551 0
M  V30 11903 C 1172.68 -6.04793 0.875738 0
M  V30 11904 C 1173.68 -6.62637 1.65534 0
M  V30 11905 O 1173.37 -7.63141 2.52728 0
M  V30 11906 H 1173.1 -0.665175 -0.120492 0
M  V30 11907 H 1175.65 -2.03338 0.290283 0
M  V30 11908 H 1173.88 -3.3783 -1.8817 0
M  V30 11909 H 1175.57 -3.71577 -1.63357 0
M  V30 11910 H 1176.34 -4.81348 0.594085 0
M  V30 11911 H 1172.22 -4.56977 -0.607667 0
M  V30 11912 H 1175.76 -6.63319 2.15995 0
M  V30 11913 H 1171.66 -6.38462 0.950581 0
M  V30 11914 H 1172.43 -7.80527 2.46415 0
M  V30 11915 N 1175.09 0.086862 -1.5736 0
M  V30 11916 C 1176.34 0.787281 -1.86135 0
M  V30 11917 C 1176.66 1.78866 -0.776667 0
M  V30 11918 O 1175.93 1.94915 0.19625 0
M  V30 11919 H 1174.51 0.293744 -0.686821 0
M  V30 11920 H 1177.17 0.0665326 -1.94786 0
M  V30 11921 H 1176.27 1.3128 -2.83147 0
M  V30 11922 N 1176.57 1.53483 0.357892 0
M  V30 11923 C 1177.53 1.79782 1.42166 0
M  V30 11924 C 1178.53 0.668441 1.46248 0
M  V30 11925 O 1179.72 0.936677 1.46874 0
M  V30 11926 C 1176.85 1.92686 2.8122 0
M  V30 11927 H 1178.05 2.74794 1.20117 0
M  V30 11928 H 1175.6 1.44677 0.591468 0
M  V30 11929 H 1176.33 0.997669 3.08573 0
M  V30 11930 H 1176.12 2.74837 2.79655 0
M  V30 11931 H 1177.61 2.14599 3.58242 0
M  V30 11932 N 1178.05 -0.61812 1.44973 0
M  V30 11933 C 1179.27 -1.40921 1.52171 0
M  V30 11934 C 1179.7 -1.87487 0.151755 0
M  V30 11935 O 1179.05 -1.59518 -0.861606 0
M  V30 11936 C 1179.1 -2.59689 2.50188 0
M  V30 11937 O 1178.21 -3.59967 2.0124 0
M  V30 11938 H 1177.55 -0.421138 0.51336 0
M  V30 11939 H 1180.08 -0.753258 1.90229 0
M  V30 11940 H 1180.09 -3.07069 2.6865 0
M  V30 11941 H 1178.76 -2.25144 3.4969 0
M  V30 11942 H 1177.34 -3.19308 1.92605 0
M  V30 11943 N 1179.52 -1.32087 -0.859693 0
M  V30 11944 C 1180.93 -1.20107 -1.42938 0
M  V30 11945 C 1181.29 0.188411 -1.95293 0
M  V30 11946 O 1180.41 1.08683 -1.87128 0
M  V30 11947 C 1181.01 -2.17436 -2.59821 0
M  V30 11948 C 1179.56 -2.09359 -3.12803 0
M  V30 11949 C 1178.71 -2.06086 -1.85537 0
M  V30 11950 H 1181.66 -1.43989 -0.667302 0
M  V30 11951 H 1181.68 -1.76996 -3.36828 0
M  V30 11952 H 1181.2 -3.18555 -2.21685 0
M  V30 11953 H 1179.3 -1.1147 -3.55535 0
M  V30 11954 H 1179.41 -2.98947 -3.74389 0
M  V30 11955 H 1177.77 -1.51251 -2.04928 0
M  V30 11956 H 1178.56 -3.08978 -1.49625 0
M  V30 11957 N 1181 1.07532 -1.15215 0
M  V30 11958 C 1182.41 1.61567 -0.935568 0
M  V30 11959 C 1182.76 1.89085 0.523557 0
M  V30 11960 O 1181.89 1.65495 1.39429 0
M  V30 11961 C 1182.48 2.93531 -1.69189 0
M  V30 11962 C 1181.04 3.44316 -1.52063 0
M  V30 11963 C 1180.19 2.18404 -1.70866 0
M  V30 11964 H 1183.14 0.906431 -1.30267 0
M  V30 11965 H 1183.16 3.62377 -1.16031 0
M  V30 11966 H 1182.67 2.73471 -2.75381 0
M  V30 11967 H 1180.77 3.69462 -0.482567 0
M  V30 11968 H 1180.89 4.20478 -2.29642 0
M  V30 11969 H 1179.25 2.28012 -1.13502 0
M  V30 11970 H 1180.03 2.00841 -2.7842 0
M  V30 11971 N 1182.48 0.948665 1.2585 0
M  V30 11972 C 1183.71 0.616741 1.98018 0
M  V30 11973 C 1184.13 -0.803005 1.70098 0
M  V30 11974 O 1183.49 -1.54208 0.953392 0
M  V30 11975 C 1183.54 0.874429 3.49837 0
M  V30 11976 O 1182.64 -0.0497568 4.1237 0
M  V30 11977 H 1181.98 0.235112 0.620982 0
M  V30 11978 H 1184.51 1.27364 1.60124 0
M  V30 11979 H 1184.52 0.798309 4.00114 0
M  V30 11980 H 1183.2 1.90922 3.69488 0
M  V30 11981 H 1181.77 0.0780591 3.72818 0
M  V30 11982 N 1183.96 -1.40369 0.716545 0
M  V30 11983 C 1184.89 -2.33365 0.0793533 0
M  V30 11984 C 1185.87 -1.52943 -0.744482 0
M  V30 11985 O 1187.05 -1.81406 -0.693212 0
M  V30 11986 C 1184.18 -3.36928 -0.842429 0
M  V30 11987 C 1183.14 -4.2782 -0.124142 0
M  V30 11988 C 1182.46 -5.21928 -1.1617 0
M  V30 11989 C 1183.76 -5.12199 1.02224 0
M  V30 11990 H 1185.46 -2.86899 0.856115 0
M  V30 11991 H 1183 -1.37946 0.413138 0
M  V30 11992 H 1184.96 -4.00925 -1.29759 0
M  V30 11993 H 1183.68 -2.81791 -1.6511 0
M  V30 11994 H 1182.34 -3.65277 0.311201 0
M  V30 11995 H 1181.99 -4.63096 -1.96345 0
M  V30 11996 H 1181.69 -5.83582 -0.685978 0
M  V30 11997 H 1183.21 -5.88802 -1.61694 0
M  V30 11998 H 1184.63 -5.69644 0.646399 0
M  V30 11999 H 1183.02 -5.82901 1.4264 0
M  V30 12000 H 1184.09 -4.4812 1.85246 0
M  V30 12001 N 1185.44 -0.462799 -1.50652 0
M  V30 12002 C 1186.35 0.341191 -2.32106 0
M  V30 12003 C 1187.36 1.00384 -1.42123 0
M  V30 12004 O 1188.54 0.993635 -1.75182 0
M  V30 12005 C 1185.6 1.41356 -3.16575 0
M  V30 12006 C 1184.66 0.768375 -4.22368 0
M  V30 12007 C 1183.9 1.78964 -5.028 0
M  V30 12008 O 1184.12 3.01515 -4.84195 0
M  V30 12009 O 1183.05 1.36606 -5.86193 0
M  V30 12010 H 1186.88 -0.324482 -3.01962 0
M  V30 12011 H 1184.47 -0.224807 -1.47699 0
M  V30 12012 H 1186.35 2.0349 -3.69012 0
M  V30 12013 H 1185.02 2.06285 -2.49456 0
M  V30 12014 H 1183.93 0.108297 -3.73943 0
M  V30 12015 H 1185.26 0.162164 -4.91933 0
M  V30 12016 N 1186.91 1.56388 -0.195085 0
M  V30 12017 C 1188.16 1.97189 0.44281 0
M  V30 12018 C 1188.48 1.08312 1.62153 0
M  V30 12019 O 1187.75 0.154404 1.95291 0
M  V30 12020 H 1186.33 0.728188 0.166585 0
M  V30 12021 H 1189 1.92852 -0.281815 0
M  V30 12022 H 1188.09 3.02016 0.786945 0
M  V30 12023 N 1188.39 -0.0785156 1.57404 0
M  V30 12024 C 1189.32 -1.09446 2.06262 0
M  V30 12025 C 1190.3 -1.40777 0.954772 0
M  V30 12026 O 1191.49 -1.5052 1.22708 0
M  V30 12027 C 1188.62 -2.40979 2.50093 0
M  V30 12028 C 1187.57 -2.24017 3.64692 0
M  V30 12029 C 1186.9 -3.60873 3.94556 0
M  V30 12030 C 1188.2 -1.66696 4.94985 0
M  V30 12031 H 1189.89 -0.687928 2.9139 0
M  V30 12032 H 1187.44 -0.329466 1.4018 0
M  V30 12033 H 1189.39 -3.12337 2.82884 0
M  V30 12034 H 1188.12 -2.83599 1.61985 0
M  V30 12035 H 1186.77 -1.55101 3.32174 0
M  V30 12036 H 1186.42 -4.01051 3.0359 0
M  V30 12037 H 1186.12 -3.50365 4.71718 0
M  V30 12038 H 1187.65 -4.33673 4.29837 0
M  V30 12039 H 1189.06 -2.27913 5.2605 0
M  V30 12040 H 1187.46 -1.66902 5.76423 0
M  V30 12041 H 1188.53 -0.627827 4.80818 0
M  V30 12042 N 1189.87 -1.5367 -0.349747 0
M  V30 12043 C 1191.12 -1.69835 -1.08807 0
M  V30 12044 C 1191.43 -0.46497 -1.89993 0
M  V30 12045 O 1192.64 -0.507452 -2.66716 0
M  V30 12046 C 1191.09 -3.00294 -1.98372 0
M  V30 12047 C 1190.7 -4.30949 -1.22422 0
M  V30 12048 C 1192.45 -3.25826 -2.72099 0
M  V30 12049 C 1190.35 -5.52486 -2.1098 0
M  V30 12050 H 1189.28 -0.63284 -0.409915 0
M  V30 12051 H 1191.93 -1.80171 -0.347968 0
M  V30 12052 H 1190.32 -2.838 -2.76176 0
M  V30 12053 H 1191.49 -4.58126 -0.495707 0
M  V30 12054 H 1189.81 -4.11983 -0.604896 0
M  V30 12055 H 1192.4 -4.13817 -3.38615 0
M  V30 12056 H 1192.75 -2.42566 -3.3833 0
M  V30 12057 H 1193.28 -3.43067 -2.0137 0
M  V30 12058 H 1190.02 -6.38271 -1.49301 0
M  V30 12059 H 1189.54 -5.29566 -2.81638 0
M  V30 12060 H 1191.22 -5.87889 -2.70176 0
M  V30 12061 N 1191.35 0.610423 -1.45298 0
M  V30 12062 C 1192.58 1.39621 -1.52688 0
M  V30 12063 C 1192.99 1.88133 -0.158535 0
M  V30 12064 O 1192.35 1.62051 0.839396 0
M  V30 12065 C 1192.4 2.60261 -2.50891 0
M  V30 12066 O 1192.12 2.13766 -3.82408 0
M  V30 12067 C 1193.62 3.53154 -2.6795 0
M  V30 12068 H 1190.84 0.427493 -0.517195 0
M  V30 12069 H 1193.39 0.744701 -1.90459 0
M  V30 12070 H 1191.54 3.2146 -2.162 0
M  V30 12071 H 1191.95 2.92128 -4.35616 0
M  V30 12072 H 1193.43 4.34355 -3.40647 0
M  V30 12073 H 1193.91 4.03311 -1.73888 0
M  V30 12074 H 1194.51 2.9781 -3.03627 0
M  V30 12075 N 1192.83 1.32541 0.852676 0
M  V30 12076 C 1194.07 1.23214 1.607 0
M  V30 12077 C 1194.4 -0.205542 1.93411 0
M  V30 12078 O 1193.66 -1.15907 1.57683 0
M  V30 12079 C 1193.96 2.039 2.9353 0
M  V30 12080 C 1193.62 3.53237 2.8024 0
M  V30 12081 C 1192.28 3.93953 2.76323 0
M  V30 12082 C 1194.64 4.48194 2.6603 0
M  V30 12083 C 1191.96 5.27865 2.56077 0
M  V30 12084 C 1194.32 5.82251 2.47319 0
M  V30 12085 C 1192.98 6.22166 2.41796 0
M  V30 12086 H 1192.25 0.450873 0.588043 0
M  V30 12087 H 1194.9 1.63988 0.988954 0
M  V30 12088 H 1193.2 1.55861 3.59464 0
M  V30 12089 H 1194.9 1.94051 3.50921 0
M  V30 12090 H 1191.49 3.209 2.84114 0
M  V30 12091 H 1195.67 4.17656 2.681 0
M  V30 12092 H 1190.93 5.57845 2.50237 0
M  V30 12093 H 1195.1 6.55442 2.35305 0
M  V30 12094 H 1192.73 7.2587 2.25868 0
M  V30 12095 N 1194.3 -1.0692 1.15784 0
M  V30 12096 C 1195.21 -2.17762 0.872753 0
M  V30 12097 C 1196.23 -1.73329 -0.152608 0
M  V30 12098 O 1197.41 -2.01387 0.022519 0
M  V30 12099 C 1194.47 -3.4471 0.370887 0
M  V30 12100 C 1193.53 -4.03686 1.46069 0
M  V30 12101 C 1192.77 -5.24575 0.982675 0
M  V30 12102 O 1192.99 -5.70146 -0.17006 0
M  V30 12103 O 1191.92 -5.7534 1.76828 0
M  V30 12104 H 1195.75 -2.44648 1.79948 0
M  V30 12105 H 1193.33 -1.1634 0.937303 0
M  V30 12106 H 1195.22 -4.21287 0.0976779 0
M  V30 12107 H 1193.89 -3.19366 -0.527912 0
M  V30 12108 H 1192.8 -3.28629 1.78756 0
M  V30 12109 H 1194.13 -4.33312 2.33456 0
M  V30 12110 N 1195.78 -0.955326 -1.25345 0
M  V30 12111 C 1196.75 -0.480564 -2.24105 0
M  V30 12112 C 1197.75 0.416123 -1.55322 0
M  V30 12113 O 1198.94 0.213315 -1.72889 0
M  V30 12114 C 1196.07 0.305589 -3.39528 0
M  V30 12115 H 1197.26 -1.35349 -2.6762 0
M  V30 12116 H 1194.81 -0.738673 -1.37744 0
M  V30 12117 H 1195.55 1.19615 -3.01434 0
M  V30 12118 H 1195.33 -0.337719 -3.90643 0
M  V30 12119 H 1196.82 0.627201 -4.12863 0
M  V30 12120 N 1197.26 1.39987 -0.723979 0
M  V30 12121 C 1198.67 1.83606 -0.338461 0
M  V30 12122 C 1199.02 1.6051 1.12831 0
M  V30 12123 O 1198.15 1.09041 1.8692 0
M  V30 12124 C 1198.74 3.33308 -0.607533 0
M  V30 12125 C 1197.3 3.75389 -0.275632 0
M  V30 12126 C 1196.45 2.6311 -0.875699 0
M  V30 12127 H 1199.4 1.29135 -0.922483 0
M  V30 12128 H 1199.42 3.80297 0.124424 0
M  V30 12129 H 1198.93 3.50087 -1.67514 0
M  V30 12130 H 1197.03 3.64203 0.786579 0
M  V30 12131 H 1197.15 4.73185 -0.750492 0
M  V30 12132 H 1195.51 2.5289 -0.303122 0
M  V30 12133 H 1196.29 2.82698 -1.94774 0
M  V30 12134 N 1198.74 0.470782 1.50404 0
M  V30 12135 C 1199.65 -0.328877 2.32283 0
M  V30 12136 C 1200.67 -0.99629 1.42654 0
M  V30 12137 O 1201.84 -0.984331 1.75707 0
M  V30 12138 C 1198.91 -1.39675 3.1732 0
M  V30 12139 C 1197.97 -0.745965 4.22769 0
M  V30 12140 C 1197.2 -1.76295 5.03742 0
M  V30 12141 O 1197.42 -2.98943 4.85788 0
M  V30 12142 O 1196.36 -1.33495 5.86909 0
M  V30 12143 H 1200.18 0.340491 3.01785 0
M  V30 12144 H 1197.77 0.232637 1.47578 0
M  V30 12145 H 1199.65 -2.0153 3.70086 0
M  V30 12146 H 1198.33 -2.04959 2.50546 0
M  V30 12147 H 1197.23 -0.0884647 3.73995 0
M  V30 12148 H 1198.57 -0.136074 4.92012 0
M  V30 12149 N 1200.22 -1.56282 0.203376 0
M  V30 12150 C 1201.15 -2.2247 -0.709183 0
M  V30 12151 C 1202.13 -1.19046 -1.21499 0
M  V30 12152 O 1203.31 -1.47578 -1.26231 0
M  V30 12153 C 1200.44 -2.8905 -1.92529 0
M  V30 12154 C 1199.4 -3.98789 -1.55407 0
M  V30 12155 C 1198.72 -4.52574 -2.84747 0
M  V30 12156 C 1200.02 -5.16774 -0.75775 0
M  V30 12157 H 1201.72 -2.98986 -0.157392 0
M  V30 12158 H 1199.26 -1.43808 -0.0742613 0
M  V30 12159 H 1201.22 -3.34038 -2.56898 0
M  V30 12160 H 1199.94 -2.09952 -2.50175 0
M  V30 12161 H 1198.6 -3.54504 -0.933928 0
M  V30 12162 H 1198.25 -3.70229 -3.40499 0
M  V30 12163 H 1197.95 -5.26627 -2.6065 0
M  V30 12164 H 1199.47 -5.00269 -3.5009 0
M  V30 12165 H 1200.89 -5.58256 -1.30472 0
M  V30 12166 H 1199.28 -5.96945 -0.614583 0
M  V30 12167 H 1200.35 -4.84308 0.239476 0
M  V30 12168 N 1201.7 0.070167 -1.57444 0
M  V30 12169 C 1203.11 0.621805 -1.76041 0
M  V30 12170 C 1203.46 1.77824 -0.829047 0
M  V30 12171 O 1202.58 2.16396 -0.0135453 0
M  V30 12172 C 1203.18 1.13476 -3.19231 0
M  V30 12173 C 1201.74 1.63225 -3.39167 0
M  V30 12174 C 1200.88 0.552369 -2.71743 0
M  V30 12175 H 1203.83 -0.156009 -1.57931 0
M  V30 12176 H 1203.86 2.00352 -3.2348 0
M  V30 12177 H 1203.37 0.29288 -3.86993 0
M  V30 12178 H 1201.47 2.49733 -2.76522 0
M  V30 12179 H 1201.58 1.70807 -4.47618 0
M  V30 12180 H 1199.95 0.997797 -2.34342 0
M  V30 12181 H 1200.73 -0.279354 -3.42162 0
M  V30 12182 N 1203.17 1.53854 0.341593 0
M  V30 12183 C 1204.08 1.84975 1.44297 0
M  V30 12184 C 1205.1 0.740057 1.57477 0
M  V30 12185 O 1206.28 1.03256 1.72917 0
M  V30 12186 C 1203.34 2.05464 2.79259 0
M  V30 12187 C 1202.4 3.29318 2.75405 0
M  V30 12188 C 1201.63 3.4882 4.03931 0
M  V30 12189 O 1201.86 2.7212 5.01305 0
M  V30 12190 O 1200.79 4.42253 4.08284 0
M  V30 12191 H 1204.62 2.78592 1.20913 0
M  V30 12192 H 1202.2 1.39532 0.533953 0
M  V30 12193 H 1204.08 2.20374 3.59184 0
M  V30 12194 H 1202.76 1.15035 3.0257 0
M  V30 12195 H 1201.67 3.1981 1.94094 0
M  V30 12196 H 1203 4.19746 2.57049 0
M  V30 12197 N 1204.65 -0.602709 1.4562 0
M  V30 12198 C 1205.56 -1.74132 1.5721 0
M  V30 12199 C 1206.58 -1.67909 0.456347 0
M  V30 12200 O 1207.75 -1.88178 0.717714 0
M  V30 12201 C 1204.82 -3.10604 1.54032 0
M  V30 12202 C 1203.88 -3.28244 2.76685 0
M  V30 12203 C 1203.11 -4.58205 2.73649 0
M  V30 12204 O 1203.34 -5.40836 1.81254 0
M  V30 12205 O 1202.27 -4.78663 3.64919 0
M  V30 12206 H 1206.1 -1.67304 2.53462 0
M  V30 12207 H 1203.68 -0.767381 1.28186 0
M  V30 12208 H 1205.56 -3.91904 1.54885 0
M  V30 12209 H 1204.24 -3.17913 0.60934 0
M  V30 12210 H 1203.14 -2.46514 2.81393 0
M  V30 12211 H 1204.48 -3.25814 3.68925 0
M  V30 12212 N 1206.13 -1.32992 -0.845635 0
M  V30 12213 C 1207.36 -1.27087 -1.63268 0
M  V30 12214 C 1207.77 0.159481 -1.88125 0
M  V30 12215 O 1207.13 1.09948 -1.45663 0
M  V30 12216 C 1207.18 -2.03649 -2.98679 0
M  V30 12217 O 1206.9 -3.41104 -2.74918 0
M  V30 12218 C 1208.4 -2.04875 -3.93117 0
M  V30 12219 H 1205.62 -0.438107 -0.508236 0
M  V30 12220 H 1208.17 -1.75257 -1.05381 0
M  V30 12221 H 1206.32 -1.59178 -3.53187 0
M  V30 12222 H 1206.74 -3.80405 -3.61099 0
M  V30 12223 H 1208.21 -2.62911 -4.85368 0
M  V30 12224 H 1208.69 -1.03728 -4.26775 0
M  V30 12225 H 1209.29 -2.49334 -3.44547 0
M  V30 12226 N 1207.61 1.06304 -1.1635 0
M  V30 12227 C 1208.54 2.15745 -0.893103 0
M  V30 12228 C 1209.52 1.69341 0.160531 0
M  V30 12229 O 1210.7 1.94196 0.0126526 0
M  V30 12230 C 1207.83 3.45066 -0.393287 0
M  V30 12231 C 1206.79 4.04978 -1.38482 0
M  V30 12232 C 1206.11 5.29507 -0.743409 0
M  V30 12233 C 1207.41 4.4377 -2.75438 0
M  V30 12234 H 1209.11 2.38622 -1.80831 0
M  V30 12235 H 1206.65 1.14681 -0.870878 0
M  V30 12236 H 1208.61 4.20964 -0.191607 0
M  V30 12237 H 1207.33 3.21808 0.557426 0
M  V30 12238 H 1205.99 3.31136 -1.57304 0
M  V30 12239 H 1205.64 5.02545 0.213787 0
M  V30 12240 H 1205.34 5.7055 -1.40521 0
M  V30 12241 H 1206.86 6.08102 -0.551746 0
M  V30 12242 H 1208.28 5.1075 -2.60398 0
M  V30 12243 H 1206.67 4.95797 -3.38091 0
M  V30 12244 H 1207.74 3.54636 -3.30699 0
M  V30 12245 N 1209.09 0.96196 1.24836 0
M  V30 12246 C 1210.02 0.432188 2.2407 0
M  V30 12247 C 1211 -0.490539 1.55024 0
M  V30 12248 O 1212.18 -0.423236 1.83687 0
M  V30 12249 C 1209.31 -0.37673 3.36598 0
M  V30 12250 C 1208.35 0.48745 4.23705 0
M  V30 12251 S 1209.19 1.92417 4.99736 0
M  V30 12252 C 1210.34 1.12388 6.15727 0
M  V30 12253 H 1210.58 1.27315 2.6866 0
M  V30 12254 H 1208.11 0.766568 1.34026 0
M  V30 12255 H 1210.07 -0.837488 4.01866 0
M  V30 12256 H 1208.73 -1.1926 2.90579 0
M  V30 12257 H 1207.92 -0.133338 5.03824 0
M  V30 12258 H 1207.52 0.883707 3.6341 0
M  V30 12259 H 1209.81 0.376097 6.76455 0
M  V30 12260 H 1210.76 1.89924 6.82154 0
M  V30 12261 H 1211.17 0.650779 5.60736 0
M  V30 12262 N 1210.56 -1.39601 0.731392 0
M  V30 12263 C 1211.47 -2.34425 0.090527 0
M  V30 12264 C 1212.49 -1.58131 -0.725992 0
M  V30 12265 O 1213.67 -1.90441 -0.655294 0
M  V30 12266 C 1210.73 -3.37138 -0.808624 0
M  V30 12267 C 1209.79 -4.29295 0.0197365 0
M  V30 12268 C 1209.02 -5.27102 -0.836593 0
M  V30 12269 O 1209.25 -5.31302 -2.07543 0
M  V30 12270 O 1208.18 -6.01307 -0.267172 0
M  V30 12271 H 1212.01 -2.9088 0.873084 0
M  V30 12272 H 1209.59 -1.41066 0.492024 0
M  V30 12273 H 1211.47 -4.00087 -1.32319 0
M  V30 12274 H 1210.15 -2.83074 -1.57006 0
M  V30 12275 H 1209.06 -3.69581 0.579744 0
M  V30 12276 H 1210.39 -4.86555 0.743308 0
M  V30 12277 N 1212.04 -0.478751 -1.50152 0
M  V30 12278 C 1213.46 -0.133356 -1.59042 0
M  V30 12279 C 1213.66 1.36069 -1.48618 0
M  V30 12280 O 1212.71 2.13468 -1.34862 0
M  V30 12281 C 1214.03 -0.690369 -2.92668 0
M  V30 12282 C 1215.58 -0.654481 -3.06081 0
M  V30 12283 C 1216.05 -1.18917 -4.42293 0
M  V30 12284 N 1217.54 -1.14891 -4.48725 0
M  V30 12285 C 1218.28 -1.53305 -5.52526 0
M  V30 12286 N 1217.77 -1.99205 -6.63543 0
M  V30 12287 N 1219.57 -1.4486 -5.43113 0
M  V30 12288 H 1211.72 -1.45037 -1.55171 0
M  V30 12289 H 1213.98 -0.600254 -0.733757 0
M  V30 12290 H 1213.69 -1.7373 -3.05795 0
M  V30 12291 H 1213.56 -0.138227 -3.76947 0
M  V30 12292 H 1215.95 0.383564 -2.92597 0
M  V30 12293 H 1216.03 -1.24352 -2.2354 0
M  V30 12294 H 1215.67 -2.22588 -4.56527 0
M  V30 12295 H 1215.6 -0.57628 -5.23437 0
M  V30 12296 H 1218.09 -0.812344 -3.69066 0
M  V30 12297 H 1218.41 -2.26645 -7.38818 0
M  V30 12298 H 1216.75 -2.03164 -6.64642 0
M  V30 12299 H 1219.94 -1.08836 -4.55272 0
M  V30 12300 H 1220.11 -1.75123 -6.23888 0
M  V30 12301 N 1213.52 1.56172 -0.211661 0
M  V30 12302 C 1214.43 2.23468 0.714081 0
M  V30 12303 C 1215.45 1.23908 1.22159 0
M  V30 12304 O 1216.62 1.56693 1.26528 0
M  V30 12305 C 1213.69 2.89375 1.90953 0
M  V30 12306 C 1212.75 4.04251 1.44497 0
M  V30 12307 C 1211.98 4.67006 2.58343 0
M  V30 12308 O 1212.2 4.28721 3.76237 0
M  V30 12309 O 1211.14 5.56177 2.3011 0
M  V30 12310 H 1214.96 3.03219 0.170862 0
M  V30 12311 H 1212.55 1.49389 0.0183607 0
M  V30 12312 H 1214.43 3.3101 2.60787 0
M  V30 12313 H 1213.11 2.12591 2.44104 0
M  V30 12314 H 1212.01 3.67205 0.714932 0
M  V30 12315 H 1213.35 4.82748 0.959947 0
M  V30 12316 N 1215 -0.0618163 1.57479 0
M  V30 12317 C 1215.95 -1.07953 2.00824 0
M  V30 12318 C 1216.93 -1.33916 0.891924 0
M  V30 12319 O 1218.12 -1.3405 1.15584 0
M  V30 12320 C 1215.25 -2.39041 2.46403 0
M  V30 12321 C 1214.34 -2.16309 3.64789 0
M  V30 12322 N 1214.73 -1.63534 4.78634 0
M  V30 12323 C 1213.03 -2.46739 3.71531 0
M  V30 12324 C 1213.73 -1.55849 5.60434 0
M  V30 12325 N 1212.71 -2.02255 5.04573 0
M  V30 12326 H 1216.51 -0.66497 2.86278 0
M  V30 12327 H 1214.02 -0.268722 1.60161 0
M  V30 12328 H 1216.02 -3.12722 2.757 0
M  V30 12329 H 1214.68 -2.81204 1.6234 0
M  V30 12330 H 1215.69 -1.32258 5.00728 0
M  V30 12331 H 1212.37 -2.92201 2.98203 0
M  V30 12332 H 1213.76 -1.15814 6.61843 0
M  V30 12333 N 1216.48 -1.54033 -0.333429 0
M  V30 12334 C 1217.7 -1.75716 -1.09232 0
M  V30 12335 C 1218.12 -0.501076 -1.82029 0
M  V30 12336 O 1217.48 0.527772 -1.74702 0
M  V30 12337 C 1217.53 -2.9439 -2.09802 0
M  V30 12338 O 1217.25 -4.15141 -1.39963 0
M  V30 12339 C 1218.75 -3.28206 -2.97987 0
M  V30 12340 H 1215.97 -0.586859 -0.325326 0
M  V30 12341 H 1218.51 -2.0089 -0.382555 0
M  V30 12342 H 1216.67 -2.71518 -2.76327 0
M  V30 12343 H 1217.08 -4.81826 -2.0723 0
M  V30 12344 H 1218.56 -4.14568 -3.64469 0
M  V30 12345 H 1219.03 -2.44944 -3.64553 0
M  V30 12346 H 1219.64 -3.5312 -2.37036 0
M  V30 12347 N 1217.95 0.594978 -1.45938 0
M  V30 12348 C 1219.23 1.35477 -1.41086 0
M  V30 12349 C 1219.61 2.10917 -0.0879512 0
M  V30 12350 O 1218.96 2.08704 0.930323 0
M  V30 12351 C 1219.17 2.29106 -2.63271 0
M  V30 12352 C 1220.52 2.9132 -3.08898 0
M  V30 12353 O 1221.54 2.39423 -2.63733 0
M  V30 12354 O 1220.4 3.85553 -3.87313 0
M  V30 12355 H 1217.49 0.6081 -0.560485 0
M  V30 12356 H 1220.04 0.617016 -1.58085 0
M  V30 12357 H 1218.81 1.72707 -3.51124 0
M  V30 12358 H 1218.44 3.10241 -2.48669 0
M  V30 12359 N 1219.43 1.33438 0.838571 0
M  V30 12360 C 1220.66 1.27951 1.62592 0
M  V30 12361 C 1221.08 -0.149502 1.88207 0
M  V30 12362 O 1220.43 -1.09174 1.46244 0
M  V30 12363 C 1220.48 2.0523 2.97595 0
M  V30 12364 O 1220.2 3.42557 2.73105 0
M  V30 12365 C 1221.71 2.06957 3.92025 0
M  V30 12366 H 1218.93 0.440796 0.505905 0
M  V30 12367 H 1221.47 1.75814 1.0445 0
M  V30 12368 H 1219.62 1.61049 3.52338 0
M  V30 12369 H 1220.04 3.82314 3.59076 0
M  V30 12370 H 1221.51 2.65481 4.83967 0
M  V30 12371 H 1221.99 1.0599 4.26219 0
M  V30 12372 H 1222.6 2.51158 3.4322 0
M  V30 12373 N 1220.91 -1.05686 1.16912 0
M  V30 12374 C 1221.84 -2.15268 0.904532 0
M  V30 12375 C 1222.82 -1.69424 -0.151548 0
M  V30 12376 O 1224.01 -1.942 -0.00235371 0
M  V30 12377 C 1221.14 -3.44853 0.411581 0
M  V30 12378 C 1220.09 -4.04237 1.40628 0
M  V30 12379 C 1219.42 -5.29105 0.771479 0
M  V30 12380 C 1220.72 -4.42303 2.77787 0
M  V30 12381 H 1222.41 -2.37659 1.82094 0
M  V30 12382 H 1219.96 -1.14217 0.876947 0
M  V30 12383 H 1221.91 -4.20857 0.213929 0
M  V30 12384 H 1220.63 -3.22099 -0.540352 0
M  V30 12385 H 1219.29 -3.30297 1.59058 0
M  V30 12386 H 1218.94 -5.02652 -0.187133 0
M  V30 12387 H 1218.64 -5.69797 1.43545 0
M  V30 12388 H 1220.16 -6.07801 0.583988 0
M  V30 12389 H 1221.58 -5.09362 2.63103 0
M  V30 12390 H 1219.98 -4.93997 3.40716 0
M  V30 12391 H 1221.05 -3.52877 3.32575 0
M  V30 12392 N 1222.39 -0.968567 -1.24324 0
M  V30 12393 C 1223.8 -0.675239 -1.44612 0
M  V30 12394 C 1224 0.762641 -1.8651 0
M  V30 12395 O 1223.06 1.53644 -2.00374 0
M  V30 12396 C 1224.37 -1.66007 -2.50723 0
M  V30 12397 C 1225.92 -1.6728 -2.6455 0
M  V30 12398 C 1226.4 -2.64563 -3.73859 0
M  V30 12399 N 1227.89 -2.6301 -3.81287 0
M  V30 12400 C 1228.62 -3.34957 -4.65394 0
M  V30 12401 N 1228.12 -4.16424 -5.53681 0
M  V30 12402 N 1229.91 -3.23778 -4.59483 0
M  V30 12403 H 1222.06 -1.89757 -0.954257 0
M  V30 12404 H 1224.33 -0.817004 -0.480841 0
M  V30 12405 H 1224.03 -2.68779 -2.26827 0
M  V30 12406 H 1223.91 -1.43353 -3.48898 0
M  V30 12407 H 1226.29 -0.652184 -2.87803 0
M  V30 12408 H 1226.37 -1.93997 -1.6673 0
M  V30 12409 H 1226.02 -3.66759 -3.51355 0
M  V30 12410 H 1225.95 -2.35124 -4.71194 0
M  V30 12411 H 1228.44 -2.03877 -3.18186 0
M  V30 12412 H 1228.75 -4.68207 -6.14818 0
M  V30 12413 H 1227.1 -4.20518 -5.53344 0
M  V30 12414 H 1230.29 -2.59594 -3.89524 0
M  V30 12415 H 1230.46 -3.80112 -5.24804 0
M  V30 12416 N 1223.87 1.39211 -0.738786 0
M  V30 12417 C 1224.82 2.27869 -0.0772787 0
M  V30 12418 C 1225.8 1.44452 0.708683 0
M  V30 12419 O 1226.99 1.67329 0.57707 0
M  V30 12420 C 1224.12 3.33206 0.826364 0
M  V30 12421 C 1223.21 4.24086 0.034349 0
M  V30 12422 N 1223.6 4.95928 -0.99446 0
M  V30 12423 C 1221.9 4.45221 0.26343 0
M  V30 12424 C 1222.6 5.62757 -1.47238 0
M  V30 12425 N 1221.57 5.37824 -0.790305 0
M  V30 12426 H 1225.38 2.80869 -0.865447 0
M  V30 12427 H 1222.89 1.51938 -0.573462 0
M  V30 12428 H 1224.89 3.95592 1.31578 0
M  V30 12429 H 1223.55 2.81765 1.61365 0
M  V30 12430 H 1224.56 4.99289 -1.37591 0
M  V30 12431 H 1221.23 4.04717 1.02522 0
M  V30 12432 H 1222.62 6.30261 -2.32853 0
M  V30 12433 N 1225.34 0.486708 1.49896 0
M  V30 12434 C 1226.27 -0.288898 2.31706 0
M  V30 12435 C 1227.26 -0.975901 1.3932 0
M  V30 12436 O 1228.44 -0.970065 1.68236 0
M  V30 12437 C 1225.57 -1.36218 3.19471 0
M  V30 12438 C 1224.52 -0.795884 4.20535 0
M  V30 12439 C 1223.85 -1.96862 4.97141 0
M  V30 12440 C 1225.15 0.203421 5.21904 0
M  V30 12441 H 1226.84 0.393934 2.96797 0
M  V30 12442 H 1224.39 0.190894 1.42729 0
M  V30 12443 H 1226.34 -1.91238 3.75508 0
M  V30 12444 H 1225.07 -2.074 2.52295 0
M  V30 12445 H 1223.73 -0.267538 3.65622 0
M  V30 12446 H 1223.37 -2.66779 4.26425 0
M  V30 12447 H 1223.07 -1.59585 5.65514 0
M  V30 12448 H 1224.6 -2.52343 5.56017 0
M  V30 12449 H 1226.01 -0.258144 5.72719 0
M  V30 12450 H 1224.41 0.491273 5.98086 0
M  V30 12451 H 1225.48 1.12414 4.7169 0
M  V30 12452 N 1226.82 -1.56058 0.219941 0
M  V30 12453 C 1227.77 -2.21585 -0.707321 0
M  V30 12454 C 1228.77 -1.19473 -1.20094 0
M  V30 12455 O 1229.97 -1.37557 -1.16095 0
M  V30 12456 H 1226.35 -0.710447 -0.246515 0
M  V30 12457 H 1228.32 -2.98111 -0.131214 0
M  V30 12458 C 1227.07 -2.90841 -1.90544 0
M  V30 12459 H 1226.39 -3.6917 -1.53472 0
M  V30 12460 H 1227.83 -3.40092 -2.53206 0
M  V30 12461 C 1226.29 -1.93223 -2.75983 0
M  V30 12462 O 1226.82 -1.44815 -3.74689 0
M  V30 12463 N 1225.02 -1.60907 -2.41986 0
M  V30 12464 H 1224.57 -2.00467 -1.61774 0
M  V30 12465 H 1224.53 -0.958534 -2.99432 0
M  V30 12466 N 1228.3 0.053464 -1.57509 0
M  V30 12467 C 1229.55 0.750212 -1.88414 0
M  V30 12468 C 1229.88 1.76288 -0.814619 0
M  V30 12469 O 1229.16 1.93728 0.173136 0
M  V30 12470 C 1229.44 1.44176 -3.29978 0
M  V30 12471 C 1229.29 0.444263 -4.47601 0
M  V30 12472 C 1230.61 2.38207 -3.70061 0
M  V30 12473 H 1227.73 0.271266 -0.685262 0
M  V30 12474 H 1230.37 0.0131676 -1.89995 0
M  V30 12475 H 1228.52 2.07001 -3.2876 0
M  V30 12476 H 1230.19 -0.180182 -4.60948 0
M  V30 12477 H 1228.44 -0.238771 -4.33142 0
M  V30 12478 H 1229.11 0.966134 -5.43479 0
M  V30 12479 H 1231.58 1.85446 -3.7249 0
M  V30 12480 H 1230.46 2.83588 -4.69967 0
M  V30 12481 H 1230.72 3.23821 -3.00985 0
M  V30 12482 N 1229.78 1.54207 0.325255 0
M  V30 12483 C 1230.71 1.78318 1.42401 0
M  V30 12484 C 1231.69 0.633078 1.49769 0
M  V30 12485 O 1232.87 0.870324 1.67205 0
M  V30 12486 C 1230 1.89823 2.80509 0
M  V30 12487 C 1229.05 3.12102 2.9068 0
M  V30 12488 S 1229.88 4.70746 2.55262 0
M  V30 12489 C 1231.04 4.85154 3.95444 0
M  V30 12490 H 1231.27 2.71234 1.21736 0
M  V30 12491 H 1228.8 1.45309 0.521993 0
M  V30 12492 H 1230.76 1.97136 3.60066 0
M  V30 12493 H 1229.42 0.978873 2.98458 0
M  V30 12494 H 1228.61 3.16881 3.91921 0
M  V30 12495 H 1228.22 3.03109 2.19091 0
M  V30 12496 H 1230.51 4.67687 4.90178 0
M  V30 12497 H 1231.45 5.87254 3.95649 0
M  V30 12498 H 1231.86 4.13471 3.8432 0
M  V30 12499 N 1231.26 -0.58723 1.46251 0
M  V30 12500 C 1232.19 -1.70694 1.5933 0
M  V30 12501 C 1233.17 -1.64208 0.443831 0
M  V30 12502 O 1234.35 -1.82294 0.669516 0
M  V30 12503 C 1231.48 -3.0933 1.579 0
M  V30 12504 C 1230.44 -3.30643 2.7177 0
M  V30 12505 C 1229.76 -4.69761 2.554 0
M  V30 12506 C 1231.06 -3.18916 4.1363 0
M  V30 12507 H 1232.76 -1.60004 2.53059 0
M  V30 12508 H 1230.3 -0.768343 1.21789 0
M  V30 12509 H 1232.26 -3.87479 1.65644 0
M  V30 12510 H 1230.98 -3.20907 0.60712 0
M  V30 12511 H 1229.64 -2.54892 2.63488 0
M  V30 12512 H 1229.29 -4.78098 1.56306 0
M  V30 12513 H 1228.99 -4.84974 3.31774 0
M  V30 12514 H 1230.51 -5.50084 2.65028 0
M  V30 12515 H 1231.93 -3.86915 4.23048 0
M  V30 12516 H 1230.32 -3.45653 4.90555 0
M  V30 12517 H 1231.39 -2.1606 4.34104 0
M  V30 12518 N 1232.74 -1.33881 -0.831482 0
M  V30 12519 C 1233.67 -1.19089 -1.94661 0
M  V30 12520 C 1234.65 -0.0845706 -1.6238 0
M  V30 12521 O 1235.83 -0.248163 -1.86859 0
M  V30 12522 C 1232.96 -0.828223 -3.28418 0
M  V30 12523 C 1232 -1.94309 -3.79666 0
M  V30 12524 S 1232.84 -3.55524 -4.00454 0
M  V30 12525 C 1233.99 -3.21279 -5.3715 0
M  V30 12526 H 1234.23 -2.13484 -2.0691 0
M  V30 12527 H 1231.76 -1.18809 -0.986098 0
M  V30 12528 H 1233.72 -0.625759 -4.05702 0
M  V30 12529 H 1232.38 0.0972457 -3.13949 0
M  V30 12530 H 1231.57 -1.64288 -4.76472 0
M  V30 12531 H 1231.17 -2.1026 -3.093 0
M  V30 12532 H 1233.46 -2.72563 -6.20255 0
M  V30 12533 H 1234.41 -4.17193 -5.7215 0
M  V30 12534 H 1234.82 -2.57683 -5.02255 0
M  V30 12535 N 1234.21 1.05064 -1.1747 0
M  V30 12536 C 1235.46 1.78089 -0.963883 0
M  V30 12537 C 1235.79 1.87766 0.507365 0
M  V30 12538 O 1235.04 1.37477 1.39279 0
M  V30 12539 C 1235.34 3.21961 -1.55164 0
M  V30 12540 C 1235.01 3.32339 -3.04732 0
M  V30 12541 C 1233.67 3.34878 -3.45557 0
M  V30 12542 C 1236.02 3.3325 -4.00741 0
M  V30 12543 C 1233.35 3.35959 -4.80987 0
M  V30 12544 C 1235.7 3.3587 -5.36073 0
M  V30 12545 C 1234.37 3.36697 -5.7636 0
M  V30 12546 H 1233.64 0.651672 -0.35271 0
M  V30 12547 H 1236.28 1.23471 -1.4638 0
M  V30 12548 H 1234.59 3.79514 -0.973471 0
M  V30 12549 H 1236.29 3.77087 -1.36406 0
M  V30 12550 H 1232.88 3.31076 -2.72188 0
M  V30 12551 H 1237.06 3.30488 -3.70258 0
M  V30 12552 H 1232.32 3.34911 -5.11512 0
M  V30 12553 H 1236.49 3.35524 -6.10243 0
M  V30 12554 H 1234.12 3.37288 -6.81279 0
M  V30 12555 N 1235.69 0.975146 1.23809 0
M  V30 12556 C 1236.92 0.658978 1.96125 0
M  V30 12557 C 1237.33 -0.773044 1.72248 0
M  V30 12558 O 1236.69 -1.51956 1.01072 0
M  V30 12559 C 1236.74 0.933355 3.49243 0
M  V30 12560 O 1236.46 2.30909 3.72307 0
M  V30 12561 C 1237.96 0.632408 4.38766 0
M  V30 12562 H 1235.18 0.245237 0.62458 0
M  V30 12563 H 1237.73 1.3051 1.5744 0
M  V30 12564 H 1235.88 0.333323 3.85963 0
M  V30 12565 H 1236.3 2.39476 4.66638 0
M  V30 12566 H 1237.77 0.874791 5.45024 0
M  V30 12567 H 1238.25 -0.433453 4.37056 0
M  V30 12568 H 1238.85 1.21268 4.07645 0
M  V30 12569 N 1237.17 -1.38817 0.746158 0
M  V30 12570 C 1238.08 -2.34316 0.115386 0
M  V30 12571 C 1239.1 -1.58892 -0.709179 0
M  V30 12572 O 1240.27 -1.91126 -0.635059 0
M  V30 12573 C 1237.34 -3.37977 -0.772821 0
M  V30 12574 C 1236.4 -4.2925 0.0652679 0
M  V30 12575 C 1235.63 -5.2796 -0.78064 0
M  V30 12576 O 1235.85 -5.33474 -2.01896 0
M  V30 12577 O 1234.79 -6.01556 -0.20338 0
M  V30 12578 H 1238.61 -2.89937 0.903887 0
M  V30 12579 H 1236.2 -1.40536 0.506958 0
M  V30 12580 H 1238.08 -4.01468 -1.28068 0
M  V30 12581 H 1236.76 -2.84723 -1.53994 0
M  V30 12582 H 1235.66 -3.68945 0.61891 0
M  V30 12583 H 1237 -4.85739 0.794871 0
M  V30 12584 N 1238.65 -0.49465 -1.49636 0
M  V30 12585 C 1239.89 0.0505629 -2.04337 0
M  V30 12586 C 1240.25 1.34858 -1.36665 0
M  V30 12587 O 1241.45 1.97763 -1.82052 0
M  V30 12588 C 1239.72 0.206247 -3.56804 0
M  V30 12589 S 1241.28 0.706624 -4.33073 0
M  V30 12590 H 1238.1 0.00479193 -0.710984 0
M  V30 12591 H 1240.7 -0.667169 -1.83764 0
M  V30 12592 H 1239.41 -0.743862 -4.03602 0
M  V30 12593 H 1238.94 0.949406 -3.81772 0
M  V30 12594 H 1240.95 1.97672 -4.55127 0
M  V30 12595 N 1240.13 1.55939 -0.228214 0
M  V30 12596 C 1241.37 1.9877 0.402272 0
M  V30 12597 C 1241.7 1.11587 1.5894 0
M  V30 12598 O 1240.98 0.175032 1.93711 0
M  V30 12599 C 1241.26 3.50396 0.830353 0
M  V30 12600 C 1241.12 4.4835 -0.360876 0
M  V30 12601 C 1242.43 4.06602 1.68413 0
M  V30 12602 H 1239.55 0.722646 0.144746 0
M  V30 12603 H 1242.2 1.87186 -0.325784 0
M  V30 12604 H 1240.35 3.60398 1.4507 0
M  V30 12605 H 1242.02 4.5035 -0.999113 0
M  V30 12606 H 1240.26 4.21946 -1.00719 0
M  V30 12607 H 1240.93 5.51997 -0.0183074 0
M  V30 12608 H 1243.41 3.99585 1.16064 0
M  V30 12609 H 1242.28 5.12998 1.95254 0
M  V30 12610 H 1242.54 3.53897 2.64971 0
M  V30 12611 N 1241.6 -0.0451101 1.57535 0
M  V30 12612 C 1242.53 -1.05046 2.08537 0
M  V30 12613 C 1243.52 -1.3872 0.984418 0
M  V30 12614 O 1244.7 -1.47884 1.25873 0
M  V30 12615 C 1241.83 -2.3562 2.55148 0
M  V30 12616 C 1240.78 -2.16231 3.69362 0
M  V30 12617 C 1240.11 -3.52423 4.02122 0
M  V30 12618 C 1241.41 -1.56159 4.98409 0
M  V30 12619 H 1243.1 -0.625965 2.92783 0
M  V30 12620 H 1240.65 -0.299657 1.40848 0
M  V30 12621 H 1242.6 -3.06266 2.89446 0
M  V30 12622 H 1241.33 -2.80099 1.67964 0
M  V30 12623 H 1239.99 -1.4802 3.35389 0
M  V30 12624 H 1239.63 -3.94522 3.12028 0
M  V30 12625 H 1239.33 -3.4028 4.79044 0
M  V30 12626 H 1240.86 -4.24458 4.38939 0
M  V30 12627 H 1242.27 -2.16703 5.30766 0
M  V30 12628 H 1240.67 -1.54638 5.79834 0
M  V30 12629 H 1241.74 -0.525698 4.82042 0
M  V30 12630 N 1243.08 -1.54377 -0.317073 0
M  V30 12631 C 1244.36 -1.63551 -1.07287 0
M  V30 12632 C 1244.74 -0.473499 -2.05721 0
M  V30 12633 O 1244.09 0.531545 -2.22232 0
M  V30 12634 C 1244.3 -3.00842 -1.76904 0
M  V30 12635 C 1245.65 -3.57111 -2.29689 0
M  V30 12636 O 1246.67 -3.0319 -1.86961 0
M  V30 12637 O 1245.53 -4.51486 -3.07932 0
M  V30 12638 H 1242.62 -0.662557 -0.494922 0
M  V30 12639 H 1245.17 -1.66723 -0.316444 0
M  V30 12640 H 1243.94 -3.76854 -1.05341 0
M  V30 12641 H 1243.56 -3.01377 -2.59341 0
M  V30 12642 N 1244.56 0.579466 -1.4656 0
M  V30 12643 C 1245.49 1.69846 -1.60233 0
M  V30 12644 C 1246.47 1.6397 -0.452533 0
M  V30 12645 O 1247.66 1.81936 -0.679174 0
M  V30 12646 C 1244.79 3.08488 -1.59538 0
M  V30 12647 C 1243.74 3.29197 -2.7352 0
M  V30 12648 C 1243.07 4.684 -2.57887 0
M  V30 12649 C 1244.37 3.16718 -4.15315 0
M  V30 12650 H 1246.06 1.5866 -2.53904 0
M  V30 12651 H 1243.61 0.761873 -1.22194 0
M  V30 12652 H 1245.56 3.86595 -1.67696 0
M  V30 12653 H 1244.28 3.20581 -0.62413 0
M  V30 12654 H 1242.94 2.53491 -2.64836 0
M  V30 12655 H 1242.59 4.77262 -1.58839 0
M  V30 12656 H 1242.29 4.83208 -3.34341 0
M  V30 12657 H 1243.81 5.48671 -2.67942 0
M  V30 12658 H 1245.23 3.84666 -4.25094 0
M  V30 12659 H 1243.63 3.43047 -4.92381 0
M  V30 12660 H 1244.7 2.13755 -4.35244 0
M  V30 12661 N 1246.04 1.3432 0.824371 0
M  V30 12662 C 1247.27 1.29669 1.61226 0
M  V30 12663 C 1247.68 -0.129532 1.88355 0
M  V30 12664 O 1247.04 -1.07616 1.47394 0
M  V30 12665 C 1247.09 2.08375 2.95402 0
M  V30 12666 O 1246.81 3.45434 2.69456 0
M  V30 12667 C 1248.31 2.11103 3.89808 0
M  V30 12668 H 1245.53 0.446137 0.501201 0
M  V30 12669 H 1248.08 1.76912 1.02579 0
M  V30 12670 H 1246.23 1.64777 3.5061 0
M  V30 12671 H 1246.64 3.86101 3.55001 0
M  V30 12672 H 1248.12 2.706 4.81124 0
M  V30 12673 H 1248.6 1.10505 4.25071 0
M  V30 12674 H 1249.2 2.54784 3.40537 0
M  V30 12675 N 1247.52 -1.0444 1.18026 0
M  V30 12676 C 1248.48 -2.10532 0.906028 0
M  V30 12677 C 1249.48 -1.60443 -0.107022 0
M  V30 12678 O 1250.67 -1.73744 0.126001 0
M  V30 12679 C 1247.8 -3.39008 0.358625 0
M  V30 12680 H 1248.99 -2.36293 1.84677 0
M  V30 12681 H 1246.55 -1.20805 0.991763 0
M  V30 12682 H 1247.28 -3.18908 -0.588904 0
M  V30 12683 H 1247.07 -3.76678 1.08884 0
M  V30 12684 H 1248.56 -4.17189 0.185331 0
M  V30 12685 N 1248.99 -0.981699 -1.2329 0
M  V30 12686 C 1249.93 -0.467781 -2.23354 0
M  V30 12687 C 1250.91 0.465814 -1.55785 0
M  V30 12688 O 1252.09 0.393959 -1.84337 0
M  V30 12689 C 1249.22 0.323133 -3.37155 0
M  V30 12690 C 1248.26 -0.554796 -4.22876 0
M  V30 12691 S 1249.1 -2.00343 -4.96612 0
M  V30 12692 C 1250.25 -1.22169 -6.13861 0
M  V30 12693 H 1250.48 -1.31573 -2.66601 0
M  V30 12694 H 1248.02 -0.787793 -1.3279 0
M  V30 12695 H 1249.98 0.773448 -4.03148 0
M  V30 12696 H 1248.64 1.14622 -2.92439 0
M  V30 12697 H 1247.83 0.0531667 -5.03972 0
M  V30 12698 H 1247.43 -0.94141 -3.61958 0
M  V30 12699 H 1249.72 -0.483668 -6.75771 0
M  V30 12700 H 1250.67 -2.00752 -6.79046 0
M  V30 12701 H 1251.07 -0.739905 -5.5963 0
M  V30 12702 N 1250.47 1.3842 -0.753509 0
M  V30 12703 C 1251.89 1.53668 -0.431095 0
M  V30 12704 C 1252.09 1.71626 1.05578 0
M  V30 12705 O 1251.14 1.72723 1.84182 0
M  V30 12706 C 1252.46 2.74381 -1.23027 0
M  V30 12707 C 1254.01 2.8823 -1.22034 0
M  V30 12708 C 1254.48 4.11904 -2.00248 0
M  V30 12709 N 1255.97 4.18981 -1.97508 0
M  V30 12710 C 1256.71 5.13667 -2.5482 0
M  V30 12711 N 1256.2 6.14027 -3.20846 0
M  V30 12712 N 1258 5.06017 -2.44751 0
M  V30 12713 H 1250.15 1.25012 -1.71714 0
M  V30 12714 H 1252.41 0.607296 -0.727939 0
M  V30 12715 H 1252.12 2.67515 -2.28317 0
M  V30 12716 H 1251.99 3.67565 -0.847098 0
M  V30 12717 H 1254.38 2.94578 -0.175502 0
M  V30 12718 H 1254.46 1.96057 -1.64303 0
M  V30 12719 H 1254.1 4.06318 -3.04742 0
M  V30 12720 H 1254.03 5.03157 -1.55373 0
M  V30 12721 H 1256.52 3.47104 -1.49423 0
M  V30 12722 H 1256.84 6.82771 -3.61999 0
M  V30 12723 H 1255.18 6.1436 -3.24941 0
M  V30 12724 H 1258.37 4.26552 -1.92797 0
M  V30 12725 H 1258.54 5.7963 -2.89713 0
M  V30 12726 N 1251.95 0.502579 1.49372 0
M  V30 12727 C 1253.2 -0.0412993 2.02058 0
M  V30 12728 C 1253.52 -1.37338 1.38431 0
M  V30 12729 O 1252.79 -1.88305 0.540175 0
M  V30 12730 H 1251.37 -0.0182522 0.746777 0
M  V30 12731 H 1254.03 0.660179 1.83378 0
M  V30 12732 H 1253.13 -0.169812 3.11638 0
M  V30 12733 N 1253.43 -1.55816 0.23648 0
M  V30 12734 C 1254.68 -1.98294 -0.390373 0
M  V30 12735 C 1255 -1.12573 -1.59224 0
M  V30 12736 O 1254.27 -0.206128 -1.94813 0
M  V30 12737 H 1252.85 -0.732349 -0.14722 0
M  V30 12738 H 1255.51 -1.92037 0.332848 0
M  V30 12739 H 1254.61 -3.03996 -0.706595 0
M  V30 12740 N 1254.91 0.036755 -1.57557 0
M  V30 12741 C 1255.85 1.05823 -2.07133 0
M  V30 12742 C 1256.85 1.37923 -0.983546 0
M  V30 12743 O 1258.05 1.36918 -1.16848 0
M  V30 12744 H 1254.43 0.358761 -0.660905 0
M  V30 12745 H 1256.4 0.614232 -2.9201 0
M  V30 12746 C 1255.15 2.35302 -2.55985 0
M  V30 12747 H 1254.47 2.11461 -3.393 0
M  V30 12748 H 1255.91 3.05139 -2.94391 0
M  V30 12749 C 1254.37 3.0373 -1.45773 0
M  V30 12750 O 1254.9 3.9325 -0.819587 0
M  V30 12751 N 1253.11 2.64931 -1.19416 0
M  V30 12752 H 1252.65 1.92219 -1.71492 0
M  V30 12753 H 1252.61 3.11033 -0.458865 0
M  V30 12754 N 1256.39 1.54543 0.308881 0
M  V30 12755 C 1257.8 1.64532 0.882392 0
M  V30 12756 C 1258.15 0.54886 1.88367 0
M  V30 12757 O 1257.27 -0.315832 2.14083 0
M  V30 12758 C 1257.87 2.98251 1.60722 0
M  V30 12759 C 1256.43 3.10387 2.12925 0
M  V30 12760 C 1255.57 2.60176 0.959362 0
M  V30 12761 H 1258.52 1.58466 0.0860803 0
M  V30 12762 H 1258.55 2.89233 2.47233 0
M  V30 12763 H 1258.06 3.78033 0.878233 0
M  V30 12764 H 1256.16 2.35309 2.88895 0
M  V30 12765 H 1256.27 4.16421 2.36918 0
M  V30 12766 H 1254.64 2.16434 1.3427 0
M  V30 12767 H 1255.42 3.42429 0.244454 0
M  V30 12768 N 1257.86 -0.571685 1.46866 0
M  V30 12769 C 1258.77 -1.70758 1.60869 0
M  V30 12770 C 1259.79 -1.66903 0.49186 0
M  V30 12771 O 1260.97 -1.86613 0.757468 0
M  V30 12772 C 1258.03 -3.07267 1.60586 0
M  V30 12773 C 1257.09 -3.22301 2.83585 0
M  V30 12774 C 1256.32 -4.52298 2.83306 0
M  V30 12775 O 1256.55 -5.36869 1.92685 0
M  V30 12776 O 1255.48 -4.70814 3.7499 0
M  V30 12777 H 1259.31 -1.6189 2.56954 0
M  V30 12778 H 1256.89 -0.740018 1.29785 0
M  V30 12779 H 1258.77 -3.8853 1.63163 0
M  V30 12780 H 1257.45 -3.16549 0.676637 0
M  V30 12781 H 1256.36 -2.4049 2.86558 0
M  V30 12782 H 1257.69 -3.17916 3.75753 0
M  V30 12783 N 1259.34 -1.34755 -0.817236 0
M  V30 12784 C 1260.27 -1.29452 -1.94331 0
M  V30 12785 C 1261.25 -0.170902 -1.69239 0
M  V30 12786 O 1262.44 -0.364173 -1.90755 0
M  V30 12787 C 1259.57 -1.05497 -3.30889 0
M  V30 12788 C 1258.52 -2.14386 -3.70436 0
M  V30 12789 C 1257.85 -1.75612 -5.05039 0
M  V30 12790 C 1259.15 -3.56265 -3.81933 0
M  V30 12791 H 1260.84 -2.23672 -1.99025 0
M  V30 12792 H 1258.39 -1.07674 -0.956159 0
M  V30 12793 H 1260.34 -1.0043 -4.09257 0
M  V30 12794 H 1259.06 -0.0772059 -3.26509 0
M  V30 12795 H 1257.72 -2.18532 -2.94345 0
M  V30 12796 H 1257.37 -0.764809 -4.97152 0
M  V30 12797 H 1257.07 -2.48495 -5.3247 0
M  V30 12798 H 1258.6 -1.72051 -5.85859 0
M  V30 12799 H 1260.01 -3.545 -4.50558 0
M  V30 12800 H 1258.41 -4.27818 -4.20822 0
M  V30 12801 H 1259.48 -3.93192 -2.83775 0
M  V30 12802 N 1260.82 1.03812 -1.18578 0
M  V30 12803 C 1262.06 1.78618 -0.993725 0
M  V30 12804 C 1262.42 1.86206 0.468133 0
M  V30 12805 O 1263.62 2.57243 0.779714 0
M  V30 12806 C 1261.9 3.17883 -1.63357 0
M  V30 12807 S 1263.45 4.08994 -1.58962 0
M  V30 12808 H 1260.27 0.614997 -0.356792 0
M  V30 12809 H 1262.87 1.24458 -1.50766 0
M  V30 12810 H 1261.58 3.09972 -2.68972 0
M  V30 12811 H 1261.11 3.77119 -1.12003 0
M  V30 12812 H 1263.12 4.9247 -0.6073 0
M  V30 12813 N 1262.3 0.988223 1.22768 0
M  V30 12814 C 1263.53 0.679743 1.95415 0
M  V30 12815 C 1263.94 -0.754731 1.73059 0
M  V30 12816 O 1263.3 -1.50876 1.02678 0
M  V30 12817 C 1263.35 0.970344 3.48234 0
M  V30 12818 O 1263.07 2.34845 3.69837 0
M  V30 12819 C 1264.57 0.67891 4.3807 0
M  V30 12820 H 1261.79 0.251847 0.621944 0
M  V30 12821 H 1264.33 1.32173 1.56047 0
M  V30 12822 H 1262.49 0.374241 3.85588 0
M  V30 12823 H 1262.9 2.44412 4.64072 0
M  V30 12824 H 1264.38 0.932549 5.44066 0
M  V30 12825 H 1264.85 -0.387073 4.37491 0
M  V30 12826 H 1265.46 1.25585 4.06335 0
M  V30 12827 N 1263.78 -1.38018 0.760839 0
M  V30 12828 C 1265 -2.04757 0.330038 0
M  V30 12829 C 1265.43 -1.57009 -1.03585 0
M  V30 12830 O 1264.78 -0.725349 -1.66158 0
M  V30 12831 C 1264.83 -3.58696 0.370082 0
M  V30 12832 O 1263.94 -4.07507 -0.633361 0
M  V30 12833 H 1263.28 -0.648023 0.144782 0
M  V30 12834 H 1265.81 -1.7655 1.03399 0
M  V30 12835 H 1265.82 -4.07387 0.223515 0
M  V30 12836 H 1264.49 -3.92806 1.36661 0
M  V30 12837 H 1263.07 -3.70165 -0.45081 0
M  V30 12838 N 1265.25 -0.510493 -1.49103 0
M  V30 12839 C 1266.22 0.251915 -2.27811 0
M  V30 12840 C 1267.22 0.885432 -1.34226 0
M  V30 12841 O 1268.41 0.748494 -1.573 0
M  V30 12842 C 1265.54 1.3624 -3.12492 0
M  V30 12843 H 1266.73 -0.438872 -2.96671 0
M  V30 12844 H 1264.28 -0.265767 -1.54024 0
M  V30 12845 H 1265.02 2.08705 -2.48219 0
M  V30 12846 H 1264.8 0.913485 -3.81311 0
M  V30 12847 H 1266.29 1.89919 -3.71915 0
M  V30 12848 N 1266.73 1.55688 -0.24474 0
M  V30 12849 C 1267.98 1.99186 0.381167 0
M  V30 12850 C 1268.31 1.13266 1.57748 0
M  V30 12851 O 1267.59 0.195568 1.93514 0
M  V30 12852 C 1267.87 3.51257 0.793142 0
M  V30 12853 C 1267.72 4.47942 -0.408409 0
M  V30 12854 C 1269.04 4.08365 1.64091 0
M  V30 12855 H 1266.16 0.724141 0.137073 0
M  V30 12856 H 1268.8 1.8683 -0.345619 0
M  V30 12857 H 1266.95 3.61917 1.4124 0
M  V30 12858 H 1268.62 4.49265 -1.04682 0
M  V30 12859 H 1266.87 4.20854 -1.05189 0
M  V30 12860 H 1267.54 5.51946 -0.0768531 0
M  V30 12861 H 1270.01 4.00794 1.1182 0
M  V30 12862 H 1268.89 5.1504 1.89802 0
M  V30 12863 H 1269.15 3.56687 2.61202 0
M  V30 12864 N 1268.21 -0.0283989 1.57574 0
M  V30 12865 C 1269.43 -0.734537 1.93957 0
M  V30 12866 C 1269.86 -1.68062 0.844787 0
M  V30 12867 O 1269.22 -1.802 -0.199432 0
M  V30 12868 C 1269.27 -1.46716 3.29404 0
M  V30 12869 O 1268.37 -2.58036 3.217 0
M  V30 12870 H 1267.71 -0.197507 0.633946 0
M  V30 12871 H 1270.24 0.0163258 2.04593 0
M  V30 12872 H 1270.25 -1.83693 3.64309 0
M  V30 12873 H 1268.93 -0.773292 4.08648 0
M  V30 12874 H 1267.5 -2.23597 2.98427 0
M  V30 12875 N 1269.69 -1.54705 -0.300681 0
M  V30 12876 C 1270.62 -1.88679 -1.37559 0
M  V30 12877 C 1271.6 -0.74574 -1.52881 0
M  V30 12878 O 1272.78 -1.0015 -1.66384 0
M  V30 12879 C 1269.91 -2.13438 -2.73974 0
M  V30 12880 C 1268.87 -3.29284 -2.73415 0
M  V30 12881 C 1268.19 -3.39462 -4.13122 0
M  V30 12882 C 1269.49 -4.66382 -2.35128 0
M  V30 12883 H 1271.19 -2.78707 -1.09373 0
M  V30 12884 H 1268.73 -1.341 -0.524704 0
M  V30 12885 H 1270.69 -2.35791 -3.49257 0
M  V30 12886 H 1269.41 -1.20181 -3.03684 0
M  V30 12887 H 1268.07 -3.06855 -2.00588 0
M  V30 12888 H 1267.72 -2.43721 -4.4001 0
M  V30 12889 H 1267.42 -4.17334 -4.1365 0
M  V30 12890 H 1268.94 -3.64075 -4.90185 0
M  V30 12891 H 1270.36 -4.88463 -3.00128 0
M  V30 12892 H 1268.75 -5.4697 -2.46867 0
M  V30 12893 H 1269.82 -4.67078 -1.30256 0
M  V30 12894 N 1271.17 0.563888 -1.47167 0
M  V30 12895 C 1272.4 1.34498 -1.56825 0
M  V30 12896 C 1272.8 1.87974 -0.215011 0
M  V30 12897 O 1272.15 1.65323 0.80087 0
M  V30 12898 C 1272.21 2.55602 -2.528 0
M  V30 12899 C 1271.87 2.23459 -3.98642 0
M  V30 12900 C 1272.87 1.81155 -4.87318 0
M  V30 12901 C 1270.56 2.35024 -4.43925 0
M  V30 12902 C 1272.55 1.50835 -6.19296 0
M  V30 12903 C 1270.24 2.04317 -5.75932 0
M  V30 12904 C 1271.23 1.6229 -6.63439 0
M  V30 12905 O 1270.92 1.31969 -7.92994 0
M  V30 12906 H 1270.65 0.416551 -0.532411 0
M  V30 12907 H 1273.21 0.690611 -1.93442 0
M  V30 12908 H 1271.44 3.23907 -2.11237 0
M  V30 12909 H 1273.13 3.17677 -2.52659 0
M  V30 12910 H 1273.89 1.71719 -4.53583 0
M  V30 12911 H 1269.77 2.66696 -3.76024 0
M  V30 12912 H 1273.32 1.17958 -6.87555 0
M  V30 12913 H 1269.21 2.13383 -6.09211 0
M  V30 12914 H 1269.98 1.45656 -8.05436 0
M  V30 12915 N 1272.64 1.35187 0.810078 0
M  V30 12916 C 1273.58 1.23673 1.92971 0
M  V30 12917 C 1274.59 0.160819 1.62004 0
M  V30 12918 O 1275.78 0.413793 1.73638 0
M  V30 12919 C 1272.88 0.880887 3.27252 0
M  V30 12920 C 1272.05 2.05444 3.86149 0
M  V30 12921 C 1271.11 1.67494 4.98831 0
M  V30 12922 O 1270.14 2.39322 5.16443 0
M  V30 12923 N 1271.34 0.596539 5.77427 0
M  V30 12924 H 1274.1 2.20133 2.03376 0
M  V30 12925 H 1271.66 1.2831 0.987322 0
M  V30 12926 H 1273.66 0.608556 4.00098 0
M  V30 12927 H 1272.23 0.00607926 3.12599 0
M  V30 12928 H 1271.45 2.49077 3.05539 0
M  V30 12929 H 1272.73 2.83898 4.22231 0
M  V30 12930 H 1272.13 -0.000312591 5.657 0
M  V30 12931 H 1270.69 0.383979 6.50668 0
M  V30 12932 N 1274.12 -1.03182 1.19127 0
M  V30 12933 C 1275.37 -1.75934 0.986415 0
M  V30 12934 C 1275.68 -1.89519 -0.48392 0
M  V30 12935 O 1276.89 -2.59213 -0.80752 0
M  V30 12936 C 1275.35 -3.16358 1.71597 0
M  V30 12937 C 1274.95 -3.10836 3.22622 0
M  V30 12938 C 1276.7 -3.93426 1.59425 0
M  V30 12939 C 1274.61 -4.46174 3.88179 0
M  V30 12940 H 1273.54 -0.659516 0.365451 0
M  V30 12941 H 1276.19 -1.15497 1.42593 0
M  V30 12942 H 1274.57 -3.77245 1.20426 0
M  V30 12943 H 1275.74 -2.59348 3.80887 0
M  V30 12944 H 1274.06 -2.47266 3.35035 0
M  V30 12945 H 1276.65 -4.93526 2.05757 0
M  V30 12946 H 1277 -4.12678 0.547926 0
M  V30 12947 H 1277.53 -3.39134 2.07925 0
M  V30 12948 H 1274.27 -4.32126 4.92897 0
M  V30 12949 H 1273.79 -4.97729 3.34702 0
M  V30 12950 H 1275.47 -5.15066 3.91556 0
M  V30 12951 N 1275.6 -0.99472 -1.22242 0
M  V30 12952 C 1276.53 -0.504783 -2.23572 0
M  V30 12953 C 1277.55 0.401105 -1.57781 0
M  V30 12954 O 1278.73 0.202948 -1.77343 0
M  V30 12955 C 1275.83 0.287524 -3.37678 0
M  V30 12956 C 1275.01 -0.614941 -4.33056 0
M  V30 12957 C 1274.07 0.125974 -5.26049 0
M  V30 12958 O 1273.09 -0.489234 -5.67094 0
M  V30 12959 N 1274.29 1.40772 -5.63173 0
M  V30 12960 H 1277.06 -1.37612 -2.66238 0
M  V30 12961 H 1274.62 -0.86965 -1.3656 0
M  V30 12962 H 1276.61 0.791884 -3.96877 0
M  V30 12963 H 1275.18 1.05998 -2.9408 0
M  V30 12964 H 1274.4 -1.29994 -3.72149 0
M  V30 12965 H 1275.69 -1.22947 -4.93722 0
M  V30 12966 H 1275.09 1.92884 -5.31801 0
M  V30 12967 H 1273.65 1.85723 -6.2478 0
M  V30 12968 N 1277.08 1.37613 -0.768148 0
M  V30 12969 C 1277.99 2.34103 -0.152649 0
M  V30 12970 C 1279 1.6 0.683811 0
M  V30 12971 O 1280.18 1.92112 0.604572 0
M  V30 12972 C 1277.25 3.39164 0.718954 0
M  V30 12973 C 1276.31 4.29092 -0.13355 0
M  V30 12974 C 1275.54 5.29135 0.696547 0
M  V30 12975 O 1275.76 5.36618 1.93383 0
M  V30 12976 O 1274.7 6.01804 0.107652 0
M  V30 12977 H 1278.52 2.88462 -0.949899 0
M  V30 12978 H 1276.11 1.39711 -0.529252 0
M  V30 12979 H 1277.99 4.03454 1.21665 0
M  V30 12980 H 1276.66 2.87137 1.49445 0
M  V30 12981 H 1275.57 3.67914 -0.677528 0
M  V30 12982 H 1276.9 4.84413 -0.872048 0
M  V30 12983 N 1278.56 0.518393 1.4883 0
M  V30 12984 C 1279.78 -0.0183131 2.07392 0
M  V30 12985 C 1280.21 -1.28468 1.37396 0
M  V30 12986 O 1279.56 -1.75975 0.436177 0
M  V30 12987 C 1279.61 -0.237211 3.59819 0
M  V30 12988 O 1278.72 -1.30835 3.91096 0
M  V30 12989 H 1278.06 0.0339621 0.663131 0
M  V30 12990 H 1280.59 0.722993 1.914 0
M  V30 12991 H 1280.6 -0.463424 4.0536 0
M  V30 12992 H 1279.27 0.687925 4.10171 0
M  V30 12993 H 1277.85 -1.06571 3.57347 0
M  V30 12994 N 1280.03 -1.55556 0.252993 0
M  V30 12995 C 1281.28 -1.99385 -0.370599 0
M  V30 12996 C 1281.61 -1.14101 -1.57145 0
M  V30 12997 O 1280.89 -0.205828 -1.93408 0
M  V30 12998 C 1281.17 -3.51672 -0.774503 0
M  V30 12999 C 1281.02 -4.47719 0.432159 0
M  V30 13000 C 1282.34 -4.0923 -1.61923 0
M  V30 13001 H 1279.46 -0.724858 -0.133231 0
M  V30 13002 H 1282.1 -1.86644 0.355522 0
M  V30 13003 H 1280.25 -3.62661 -1.39318 0
M  V30 13004 H 1281.93 -4.48704 1.07063 0
M  V30 13005 H 1280.17 -4.2029 1.07419 0
M  V30 13006 H 1280.84 -5.51898 0.106123 0
M  V30 13007 H 1283.32 -4.01381 -1.09693 0
M  V30 13008 H 1282.19 -5.16039 -1.87068 0
M  V30 13009 H 1282.45 -3.58067 -2.59307 0
M  V30 13010 N 1281.51 0.0200419 -1.57587 0
M  V30 13011 C 1282.76 0.710078 -1.89962 0
M  V30 13012 C 1283.09 1.74521 -0.851829 0
M  V30 13013 O 1282.37 1.94052 0.132005 0
M  V30 13014 C 1282.65 1.37145 -3.32961 0
M  V30 13015 C 1282.5 0.349221 -4.48442 0
M  V30 13016 C 1283.82 2.30304 -3.75031 0
M  V30 13017 H 1280.94 0.25667 -0.690862 0
M  V30 13018 H 1283.58 -0.0271362 -1.89981 0
M  V30 13019 H 1281.73 1.99981 -3.33076 0
M  V30 13020 H 1283.4 -0.277916 -4.60462 0
M  V30 13021 H 1281.65 -0.330594 -4.32538 0
M  V30 13022 H 1282.32 0.850636 -5.45406 0
M  V30 13023 H 1284.79 1.77503 -3.7634 0
M  V30 13024 H 1283.67 2.73555 -4.75877 0
M  V30 13025 H 1283.93 3.17364 -3.07786 0
M  V30 13026 N 1282.99 1.54862 0.292472 0
M  V30 13027 C 1284.24 1.74807 1.02813 0
M  V30 13028 C 1284.57 0.536935 1.8663 0
M  V30 13029 O 1283.84 -0.465854 1.88839 0
M  V30 13030 C 1284.13 3.04202 1.927 0
M  V30 13031 C 1283.98 4.35631 1.12006 0
M  V30 13032 C 1285.3 3.29514 2.91734 0
M  V30 13033 H 1282.42 0.636015 0.372362 0
M  V30 13034 H 1285.06 1.87583 0.302069 0
M  V30 13035 H 1283.21 2.9344 2.54608 0
M  V30 13036 H 1284.88 4.58323 0.52319 0
M  V30 13037 H 1283.13 4.31733 0.42298 0
M  V30 13038 H 1283.8 5.22454 1.78172 0
M  V30 13039 H 1286.27 3.39941 2.39957 0
M  V30 13040 H 1285.15 4.21352 3.51786 0
M  V30 13041 H 1285.41 2.48216 3.65843 0
M  V30 13042 N 1284.47 -0.556076 1.47464 0
M  V30 13043 C 1285.75 -1.31689 1.44628 0
M  V30 13044 C 1286.13 -2.10609 0.143841 0
M  V30 13045 O 1285.47 -2.11097 -0.874662 0
M  V30 13046 C 1285.68 -2.22045 2.69253 0
M  V30 13047 C 1287.03 -2.83028 3.16513 0
M  V30 13048 O 1288.06 -2.32346 2.69988 0
M  V30 13049 O 1286.91 -3.75148 3.97399 0
M  V30 13050 H 1284.01 -0.593026 0.576411 0
M  V30 13051 H 1286.55 -0.574885 1.59666 0
M  V30 13052 H 1285.33 -1.63337 3.5558 0
M  V30 13053 H 1284.95 -3.03539 2.56807 0
M  V30 13054 N 1285.95 -1.35615 -0.802897 0
M  V30 13055 C 1286.88 -1.24695 -1.92312 0
M  V30 13056 C 1287.89 -0.169409 -1.61916 0
M  V30 13057 O 1289.08 -0.422995 -1.73416 0
M  V30 13058 C 1286.18 -0.898229 -3.2678 0
M  V30 13059 C 1285.35 -2.07489 -3.85054 0
M  V30 13060 C 1284.41 -1.70137 -4.97936 0
M  V30 13061 O 1283.44 -2.42057 -5.15167 0
M  V30 13062 N 1284.64 -0.627153 -5.77102 0
M  V30 13063 H 1287.41 -2.21208 -2.02205 0
M  V30 13064 H 1284.97 -1.28832 -0.980503 0
M  V30 13065 H 1286.96 -0.629766 -3.9977 0
M  V30 13066 H 1285.53 -0.0226571 -3.12592 0
M  V30 13067 H 1284.75 -2.50694 -3.04214 0
M  V30 13068 H 1286.04 -2.86133 -4.2072 0
M  V30 13069 H 1285.44 -0.0296879 -5.65692 0
M  V30 13070 H 1283.99 -0.41848 -6.50455 0
M  V30 13071 N 1287.43 1.02549 -1.19673 0
M  V30 13072 C 1288.67 1.75408 -0.995732 0
M  V30 13073 C 1288.99 1.89773 0.473863 0
M  V30 13074 O 1290.19 2.59638 0.793762 0
M  V30 13075 C 1288.65 3.15444 -1.73273 0
M  V30 13076 C 1288.26 3.09121 -3.24266 0
M  V30 13077 C 1290 3.92575 -1.61509 0
M  V30 13078 C 1287.91 4.44109 -3.9054 0
M  V30 13079 H 1286.84 0.657569 -0.368944 0
M  V30 13080 H 1289.49 1.14739 -1.43203 0
M  V30 13081 H 1287.87 3.76601 -1.22425 0
M  V30 13082 H 1289.05 2.57325 -3.82257 0
M  V30 13083 H 1287.36 2.45485 -3.36342 0
M  V30 13084 H 1289.96 4.92428 -2.08372 0
M  V30 13085 H 1290.3 4.12382 -0.569804 0
M  V30 13086 H 1290.83 3.38027 -2.09721 0
M  V30 13087 H 1287.57 4.29506 -4.95182 0
M  V30 13088 H 1287.09 4.95947 -3.37337 0
M  V30 13089 H 1288.77 5.12982 -3.94282 0
M  V30 13090 N 1288.9 1.00119 1.21713 0
M  V30 13091 C 1290.13 0.700172 1.95224 0
M  V30 13092 C 1290.55 -0.730138 1.73351 0
M  V30 13093 O 1289.91 -1.50026 1.01794 0
M  V30 13094 C 1289.96 1.02202 3.45814 0
M  V30 13095 O 1289.06 0.125188 4.1221 0
M  V30 13096 H 1288.4 0.261238 0.610451 0
M  V30 13097 H 1290.93 1.34041 1.54578 0
M  V30 13098 H 1290.94 0.967293 3.96368 0
M  V30 13099 H 1289.62 2.06422 3.61058 0
M  V30 13100 H 1288.2 0.236114 3.72152 0
M  V30 13101 N 1290.38 -1.37203 0.775435 0
M  V30 13102 C 1291.31 -2.28873 0.122374 0
M  V30 13103 C 1292.33 -1.48811 -0.660239 0
M  V30 13104 O 1293.52 -1.7142 -0.497724 0
M  V30 13105 C 1290.62 -3.28062 -0.850212 0
M  V30 13106 C 1289.79 -4.37234 -0.120633 0
M  V30 13107 C 1288.85 -5.16472 -1.00712 0
M  V30 13108 O 1287.87 -5.6726 -0.469528 0
M  V30 13109 N 1289.08 -5.31556 -2.33299 0
M  V30 13110 H 1291.84 -2.85559 0.909741 0
M  V30 13111 H 1289.4 -1.49219 0.628107 0
M  V30 13112 H 1291.39 -3.77956 -1.44678 0
M  V30 13113 H 1289.96 -2.72118 -1.53853 0
M  V30 13114 H 1289.18 -3.88688 0.656879 0
M  V30 13115 H 1290.47 -5.07354 0.383358 0
M  V30 13116 H 1289.87 -4.91883 -2.79406 0
M  V30 13117 H 1288.43 -5.84745 -2.87953 0
M  V30 13118 N 1291.86 -0.526279 -1.48553 0
M  V30 13119 C 1292.79 0.227364 -2.3239 0
M  V30 13120 C 1293.77 0.93862 -1.41859 0
M  V30 13121 O 1294.96 0.925119 -1.70749 0
M  V30 13122 C 1292.09 1.277 -3.22971 0
M  V30 13123 C 1291.04 0.684107 -4.22497 0
M  V30 13124 C 1290.37 1.83612 -5.02186 0
M  V30 13125 C 1291.67 -0.341723 -5.21181 0
M  V30 13126 H 1293.36 -0.472486 -2.95648 0
M  V30 13127 H 1290.91 -0.228669 -1.42173 0
M  V30 13128 H 1292.86 1.81215 -3.80446 0
M  V30 13129 H 1291.58 2.00638 -2.57705 0
M  V30 13130 H 1290.24 0.170505 -3.66203 0
M  V30 13131 H 1289.89 2.55379 -4.33348 0
M  V30 13132 H 1289.59 1.44536 -5.69547 0
M  V30 13133 H 1291.11 2.37513 -5.62512 0
M  V30 13134 H 1292.53 0.106207 -5.73202 0
M  V30 13135 H 1290.92 -0.649673 -5.96573 0
M  V30 13136 H 1291.99 -1.2488 -4.68543 0
M  V30 13137 N 1293.34 1.5542 -0.261239 0
M  V30 13138 C 1294.56 2.04142 0.366144 0
M  V30 13139 C 1294.99 1.13884 1.49706 0
M  V30 13140 O 1294.35 0.134629 1.80799 0
M  V30 13141 C 1294.39 3.50733 0.837774 0
M  V30 13142 O 1293.5 3.63588 1.94621 0
M  V30 13143 H 1292.84 0.659424 0.077821 0
M  V30 13144 H 1295.37 2.0082 -0.391487 0
M  V30 13145 H 1295.38 3.91831 1.13721 0
M  V30 13146 H 1294.05 4.15899 0.0102742 0
M  V30 13147 H 1292.63 3.34391 1.65037 0
M  V30 13148 N 1294.82 -0.0116844 1.57596 0
M  V30 13149 C 1295.76 -1.00684 2.07681 0
M  V30 13150 C 1296.73 -1.34858 0.969666 0
M  V30 13151 O 1297.92 -1.44896 1.24136 0
M  V30 13152 C 1295.06 -2.29729 2.57524 0
M  V30 13153 C 1294.17 -2.0156 3.82096 0
M  V30 13154 C 1293.31 -3.24601 4.20485 0
M  V30 13155 C 1292.34 -2.92066 5.37925 0
M  V30 13156 N 1291.48 -4.0761 5.71663 0
M  V30 13157 H 1296.32 -0.572787 2.92443 0
M  V30 13158 H 1293.86 -0.271184 1.44579 0
M  V30 13159 H 1295.82 -3.05152 2.84496 0
M  V30 13160 H 1294.45 -2.70824 1.75653 0
M  V30 13161 H 1293.5 -1.16556 3.62103 0
M  V30 13162 H 1294.81 -1.73572 4.67626 0
M  V30 13163 H 1293.96 -4.08379 4.48677 0
M  V30 13164 H 1292.7 -3.55718 3.3364 0
M  V30 13165 H 1291.71 -2.06693 5.09468 0
M  V30 13166 H 1292.93 -2.62209 6.26437 0
M  V30 13167 H 1290.88 -4.38645 4.87777 0
M  V30 13168 H 1290.8 -3.83105 6.51741 0
M  V30 13169 H 1292.06 -4.92211 6.04441 0
M  V30 13170 N 1296.29 -1.55015 -0.284256 0
M  V30 13171 C 1297.57 -1.6579 -1.03794 0
M  V30 13172 C 1297.95 -0.517029 -2.04671 0
M  V30 13173 O 1297.3 0.484287 -2.23309 0
M  V30 13174 C 1297.51 -3.04527 -1.70483 0
M  V30 13175 C 1298.86 -3.61903 -2.22062 0
M  V30 13176 O 1299.88 -3.07087 -1.80488 0
M  V30 13177 O 1298.74 -4.57917 -2.98286 0
M  V30 13178 H 1295.83 -0.672906 -0.480757 0
M  V30 13179 H 1298.38 -1.67357 -0.281009 0
M  V30 13180 H 1297.15 -3.79004 -0.973238 0
M  V30 13181 H 1296.77 -3.0681 -2.5289 0
M  V30 13182 N 1297.77 0.548248 -1.47757 0
M  V30 13183 C 1299.02 1.30458 -1.56052 0
M  V30 13184 C 1299.37 1.91096 -0.22363 0
M  V30 13185 O 1298.67 1.75375 0.771644 0
M  V30 13186 C 1298.86 2.42911 -2.62162 0
M  V30 13187 C 1298.69 1.93293 -4.06039 0
M  V30 13188 C 1297.46 1.76727 -4.73387 0
M  V30 13189 C 1299.66 1.47214 -4.9278 0
M  V30 13190 N 1297.64 1.21543 -6.01748 0
M  V30 13191 C 1299.01 1.03855 -6.1124 0
M  V30 13192 C 1301.06 1.35348 -4.79151 0
M  V30 13193 C 1299.77 0.498086 -7.17573 0
M  V30 13194 C 1301.79 0.827023 -5.85589 0
M  V30 13195 C 1301.16 0.40341 -7.03244 0
M  V30 13196 H 1297.25 0.469075 -0.625694 0
M  V30 13197 H 1299.84 0.620405 -1.84551 0
M  V30 13198 H 1298.01 3.08847 -2.35516 0
M  V30 13199 H 1299.74 3.09924 -2.60249 0
M  V30 13200 H 1296.5 1.99709 -4.29433 0
M  V30 13201 H 1296.92 0.960132 -6.70157 0
M  V30 13202 H 1301.56 1.66708 -3.88546 0
M  V30 13203 H 1299.28 0.172123 -8.07917 0
M  V30 13204 H 1302.87 0.738641 -5.77092 0
M  V30 13205 H 1301.75 0.00236338 -7.842 0
M  V30 13206 N 1299.25 1.36039 0.795694 0
M  V30 13207 C 1300.5 1.29663 1.55023 0
M  V30 13208 C 1300.82 -0.125588 1.94595 0
M  V30 13209 O 1300.09 -1.06447 1.64456 0
M  V30 13210 H 1298.67 0.476962 0.574906 0
M  V30 13211 H 1301.33 1.70265 0.948471 0
M  V30 13212 H 1300.43 1.91982 2.46068 0
M  V30 13213 N 1300.73 -1.01913 1.20215 0
M  V30 13214 C 1302.14 -1.27766 0.956459 0
M  V30 13215 C 1302.34 -1.98158 -0.365486 0
M  V30 13216 O 1301.4 -2.27539 -1.09463 0
M  V30 13217 C 1302.71 -2.11516 2.13732 0
M  V30 13218 C 1304.26 -2.24792 2.17802 0
M  V30 13219 C 1304.74 -3.11919 3.35367 0
M  V30 13220 N 1306.23 -3.19507 3.35364 0
M  V30 13221 C 1306.96 -3.8714 4.22978 0
M  V30 13222 N 1306.46 -4.5692 5.20765 0
M  V30 13223 N 1308.25 -3.83638 4.10827 0
M  V30 13224 H 1300.4 -0.546426 2.05251 0
M  V30 13225 H 1302.67 -0.303772 0.898012 0
M  V30 13226 H 1302.37 -1.67127 3.09453 0
M  V30 13227 H 1302.25 -3.12249 2.11614 0
M  V30 13228 H 1304.63 -2.68407 1.22645 0
M  V30 13229 H 1304.71 -1.23576 2.2397 0
M  V30 13230 H 1304.36 -2.6901 4.30809 0
M  V30 13231 H 1304.29 -4.13215 3.26436 0
M  V30 13232 H 1306.78 -2.69819 2.64587 0
M  V30 13233 H 1307.09 -5.06188 5.83947 0
M  V30 13234 H 1305.44 -4.55753 5.24704 0
M  V30 13235 H 1308.63 -3.28268 3.33703 0
M  V30 13236 H 1308.8 -4.36071 4.79318 0
M  V30 13237 N 1302.21 -1.00763 -1.2118 0
M  V30 13238 C 1303.45 -0.692851 -1.90598 0
M  V30 13239 C 1303.79 0.774698 -1.78079 0
M  V30 13240 O 1303.06 1.56186 -1.15914 0
M  V30 13241 C 1303.34 -1.11792 -3.42308 0
M  V30 13242 C 1303.2 -2.64511 -3.63805 0
M  V30 13243 C 1304.52 -0.682314 -4.34779 0
M  V30 13244 H 1301.63 -0.253175 -0.69215 0
M  V30 13245 H 1304.28 -1.25378 -1.4276 0
M  V30 13246 H 1302.43 -0.640665 -3.83181 0
M  V30 13247 H 1304.1 -3.20021 -3.32242 0
M  V30 13248 H 1302.34 -3.05903 -3.0758 0
M  V30 13249 H 1303.01 -2.89306 -4.70113 0
M  V30 13250 H 1305.49 -1.09247 -4.01503 0
M  V30 13251 H 1304.36 -1.00787 -5.39568 0
M  V30 13252 H 1304.63 0.416441 -4.40134 0
M  V30 13253 N 1303.68 1.3679 -0.7827 0
M  V30 13254 C 1304.59 2.33928 -0.17747 0
M  V30 13255 C 1305.61 1.60716 0.666802 0
M  V30 13256 O 1306.79 1.92742 0.584162 0
M  V30 13257 C 1303.85 3.39907 0.68294 0
M  V30 13258 C 1302.91 4.28926 -0.179053 0
M  V30 13259 C 1302.15 5.29844 0.640386 0
M  V30 13260 O 1302.37 5.38639 1.87681 0
M  V30 13261 O 1301.3 6.01884 0.0438164 0
M  V30 13262 H 1305.13 2.87439 -0.980441 0
M  V30 13263 H 1302.71 1.39142 -0.54404 0
M  V30 13264 H 1304.6 4.04722 1.17379 0
M  V30 13265 H 1303.27 2.88706 1.46391 0
M  V30 13266 H 1302.18 3.67174 -0.716512 0
M  V30 13267 H 1303.51 4.83461 -0.923377 0
M  V30 13268 N 1305.16 0.53415 1.48272 0
M  V30 13269 C 1306.09 -0.263508 2.2768 0
M  V30 13270 C 1307.11 -0.90064 1.35618 0
M  V30 13271 O 1308.3 -0.778379 1.60635 0
M  V30 13272 C 1305.4 -1.38878 3.09138 0
M  V30 13273 C 1304.57 -0.852784 4.29006 0
M  V30 13274 C 1303.63 -1.85969 4.92242 0
M  V30 13275 O 1302.65 -1.41497 5.51332 0
M  V30 13276 N 1303.86 -3.19207 4.84858 0
M  V30 13277 H 1306.62 0.417548 2.96777 0
M  V30 13278 H 1304.18 0.368743 1.57645 0
M  V30 13279 H 1306.17 -2.06062 3.48311 0
M  V30 13280 H 1304.74 -1.97343 2.42434 0
M  V30 13281 H 1303.96 -0.0048227 3.942 0
M  V30 13282 H 1305.25 -0.473634 5.06591 0
M  V30 13283 H 1304.65 -3.58001 4.38009 0
M  V30 13284 H 1303.21 -3.82013 5.28119 0
M  V30 13285 N 1306.64 -1.55279 0.269478 0
M  V30 13286 C 1307.57 -2.25278 -0.614188 0
M  V30 13287 C 1308.55 -1.24092 -1.1634 0
M  V30 13288 O 1309.74 -1.52799 -1.19858 0
M  V30 13289 C 1306.87 -2.96956 -1.80096 0
M  V30 13290 C 1305.82 -4.05021 -1.38353 0
M  V30 13291 C 1305.15 -4.64244 -2.65295 0
M  V30 13292 C 1306.45 -5.19523 -0.537886 0
M  V30 13293 H 1308.14 -2.99385 -0.0304397 0
M  V30 13294 H 1305.69 -1.43994 -0.0132004 0
M  V30 13295 H 1307.64 -3.44633 -2.42499 0
M  V30 13296 H 1306.36 -2.20374 -2.41045 0
M  V30 13297 H 1305.02 -3.58146 -0.78273 0
M  V30 13298 H 1304.67 -3.84337 -3.2449 0
M  V30 13299 H 1304.37 -5.37208 -2.38079 0
M  V30 13300 H 1305.89 -5.14668 -3.28557 0
M  V30 13301 H 1307.31 -5.63287 -1.06677 0
M  V30 13302 H 1305.71 -5.99014 -0.360845 0
M  V30 13303 H 1306.78 -4.82857 0.444672 0
M  V30 13304 N 1308.12 0.00332656 -1.576 0
M  V30 13305 C 1309.36 0.68989 -1.90705 0
M  V30 13306 C 1309.7 1.73608 -0.870291 0
M  V30 13307 O 1308.97 1.94181 0.111416 0
M  V30 13308 C 1309.26 1.33605 -3.34397 0
M  V30 13309 C 1309.11 0.301638 -4.48787 0
M  V30 13310 C 1310.43 2.26313 -3.77453 0
M  V30 13311 H 1307.55 0.249328 -0.693545 0
M  V30 13312 H 1310.19 -0.0472847 -1.89941 0
M  V30 13313 H 1308.34 1.96437 -3.35179 0
M  V30 13314 H 1310.01 -0.326738 -4.60141 0
M  V30 13315 H 1308.25 -0.376451 -4.32163 0
M  V30 13316 H 1308.92 0.792741 -5.46278 0
M  V30 13317 H 1311.4 1.73502 -3.78201 0
M  V30 13318 H 1310.28 2.68492 -4.78752 0
M  V30 13319 H 1310.54 3.14082 -3.11135 0
M  V30 13320 N 1309.6 1.55164 0.276031 0
M  V30 13321 C 1310.53 1.90844 1.34539 0
M  V30 13322 C 1311.51 0.769968 1.51676 0
M  V30 13323 O 1312.69 1.02785 1.64769 0
M  V30 13324 C 1309.82 2.17769 2.70543 0
M  V30 13325 C 1308.78 3.33592 2.68142 0
M  V30 13326 C 1308.1 3.45991 4.07669 0
M  V30 13327 C 1309.4 4.70064 2.27678 0
M  V30 13328 H 1311.1 2.80412 1.04926 0
M  V30 13329 H 1308.64 1.34918 0.503303 0
M  V30 13330 H 1310.6 2.41317 3.45462 0
M  V30 13331 H 1309.32 1.24997 3.01734 0
M  V30 13332 H 1307.98 3.10007 1.95681 0
M  V30 13333 H 1307.63 2.50691 4.36077 0
M  V30 13334 H 1307.33 4.23862 4.06958 0
M  V30 13335 H 1308.85 3.71828 4.84331 0
M  V30 13336 H 1310.26 4.93176 2.92319 0
M  V30 13337 H 1308.66 5.50829 2.38134 0
M  V30 13338 H 1309.73 4.69091 1.22808 0
M  V30 13339 N 1311.07 -0.540404 1.48045 0
M  V30 13340 C 1312.3 -1.31986 1.58944 0
M  V30 13341 C 1312.71 -1.87608 0.244889 0
M  V30 13342 O 1312.06 -1.66576 -0.774467 0
M  V30 13343 C 1312.12 -2.51547 2.56835 0
M  V30 13344 C 1311.78 -2.17089 4.02146 0
M  V30 13345 C 1312.78 -1.73379 4.90138 0
M  V30 13346 C 1310.46 -2.27932 4.47607 0
M  V30 13347 C 1312.46 -1.40964 6.21617 0
M  V30 13348 C 1310.14 -1.95129 5.7911 0
M  V30 13349 C 1311.14 -1.51715 6.65937 0
M  V30 13350 O 1310.83 -1.19337 7.94993 0
M  V30 13351 H 1310.56 -0.408028 0.538971 0
M  V30 13352 H 1313.12 -0.659748 1.94516 0
M  V30 13353 H 1311.35 -3.20505 2.16364 0
M  V30 13354 H 1313.04 -3.13617 2.57681 0
M  V30 13355 H 1313.8 -1.64481 4.56258 0
M  V30 13356 H 1309.68 -2.6068 3.8022 0
M  V30 13357 H 1313.22 -1.07005 6.89344 0
M  V30 13358 H 1309.12 -2.03664 6.12528 0
M  V30 13359 H 1309.89 -1.32824 8.07651 0
M  V30 13360 N 1312.55 -1.36459 -0.788468 0
M  V30 13361 C 1313.49 -1.25222 -1.90774 0
M  V30 13362 C 1314.46 -0.136188 -1.62029 0
M  V30 13363 O 1315.65 -0.307486 -1.85975 0
M  V30 13364 C 1312.77 -0.932287 -3.25616 0
M  V30 13365 C 1311.82 -2.0629 -3.73292 0
M  V30 13366 S 1312.65 -3.68084 -3.8894 0
M  V30 13367 C 1313.81 -3.38206 -5.26657 0
M  V30 13368 H 1314.04 -2.19959 -2.00013 0
M  V30 13369 H 1311.58 -1.21886 -0.947801 0
M  V30 13370 H 1313.53 -0.754514 -4.03506 0
M  V30 13371 H 1312.19 -0.00268413 -3.141 0
M  V30 13372 H 1311.39 -1.79363 -4.71004 0
M  V30 13373 H 1310.99 -2.19994 -3.02454 0
M  V30 13374 H 1313.28 -2.92158 -6.11269 0
M  V30 13375 H 1314.22 -4.35185 -5.58587 0
M  V30 13376 H 1314.63 -2.73531 -4.93802 0
M  V30 13377 N 1314.03 1.01274 -1.20754 0
M  V30 13378 C 1314.98 2.09894 -0.959852 0
M  V30 13379 C 1315.95 1.65726 0.111351 0
M  V30 13380 O 1317.13 1.90769 -0.0341721 0
M  V30 13381 C 1314.27 3.41126 -0.52223 0
M  V30 13382 C 1313.39 3.98749 -1.66202 0
M  V30 13383 C 1312.52 5.18057 -1.17432 0
M  V30 13384 C 1311.56 5.67772 -2.28694 0
M  V30 13385 N 1310.7 6.78338 -1.81114 0
M  V30 13386 H 1315.54 2.30416 -1.88977 0
M  V30 13387 H 1313.07 1.12989 -0.941906 0
M  V30 13388 H 1315.03 4.16451 -0.249799 0
M  V30 13389 H 1313.66 3.20665 0.370688 0
M  V30 13390 H 1312.71 3.20483 -2.04927 0
M  V30 13391 H 1314.03 4.31646 -2.49967 0
M  V30 13392 H 1313.18 6.00601 -0.858086 0
M  V30 13393 H 1311.92 4.86735 -0.306614 0
M  V30 13394 H 1310.92 4.8383 -2.61129 0
M  V30 13395 H 1312.15 6.01127 -3.15948 0
M  V30 13396 H 1310.09 6.48837 -0.966761 0
M  V30 13397 H 1310.01 7.10448 -2.58457 0
M  V30 13398 H 1311.28 7.64437 -1.52502 0
M  V30 13399 N 1315.51 1.01404 1.20644 0
M  V30 13400 C 1316.47 0.586941 2.21557 0
M  V30 13401 C 1317.47 -0.341543 1.57131 0
M  V30 13402 O 1318.66 -0.130585 1.7371 0
M  V30 13403 C 1315.79 -0.143248 3.40599 0
M  V30 13404 H 1316.99 1.47964 2.60858 0
M  V30 13405 H 1314.54 0.803551 1.34063 0
M  V30 13406 H 1315.28 -1.05097 3.06798 0
M  V30 13407 H 1315.06 0.523716 3.88587 0
M  V30 13408 H 1316.55 -0.429504 4.15385 0
M  V30 13409 N 1316.99 -1.36373 0.789944 0
M  V30 13410 C 1317.95 -2.28372 0.194639 0
M  V30 13411 C 1318.95 -1.48849 -0.608332 0
M  V30 13412 O 1320.14 -1.68829 -0.42925 0
M  V30 13413 C 1317.27 -3.3298 -0.730553 0
M  V30 13414 H 1318.47 -2.82529 1.00585 0
M  V30 13415 H 1316.02 -1.45946 0.559406 0
M  V30 13416 H 1316.75 -2.8398 -1.56608 0
M  V30 13417 H 1316.54 -3.91787 -0.156706 0
M  V30 13418 H 1318.03 -4.01684 -1.14192 0
M  V30 13419 N 1318.47 -0.542005 -1.47987 0
M  V30 13420 C 1319.4 0.25143 -2.27817 0
M  V30 13421 C 1320.41 0.893436 -1.36094 0
M  V30 13422 O 1321.6 0.769849 -1.61045 0
M  V30 13423 C 1318.7 1.37236 -3.0987 0
M  V30 13424 C 1317.87 0.830021 -4.29452 0
M  V30 13425 C 1316.93 1.83356 -4.93221 0
M  V30 13426 O 1315.96 1.38571 -5.52075 0
M  V30 13427 N 1317.16 3.16631 -4.86544 0
M  V30 13428 H 1319.92 -0.433281 -2.96551 0
M  V30 13429 H 1317.49 -0.377099 -1.57447 0
M  V30 13430 H 1319.48 2.04212 -3.49399 0
M  V30 13431 H 1318.05 1.96055 -2.43478 0
M  V30 13432 H 1317.27 -0.0160827 -3.94197 0
M  V30 13433 H 1318.56 0.446762 -5.06835 0
M  V30 13434 H 1317.95 3.55673 -4.39901 0
M  V30 13435 H 1316.51 3.79207 -5.30137 0
M  V30 13436 N 1319.94 1.55134 -0.277709 0
M  V30 13437 C 1320.87 2.256 0.602232 0
M  V30 13438 C 1321.85 1.24708 1.15681 0
M  V30 13439 O 1323.04 1.53433 1.19046 0
M  V30 13440 C 1320.17 2.97907 1.78519 0
M  V30 13441 C 1319.12 4.0575 1.36203 0
M  V30 13442 C 1318.45 4.65644 2.62829 0
M  V30 13443 C 1319.75 5.19801 0.510327 0
M  V30 13444 H 1321.44 2.99396 0.0145622 0
M  V30 13445 H 1318.99 1.43999 0.00556389 0
M  V30 13446 H 1320.94 3.45915 2.40668 0
M  V30 13447 H 1319.67 2.21649 2.39873 0
M  V30 13448 H 1318.33 3.58557 0.763726 0
M  V30 13449 H 1317.97 3.86053 3.22447 0
M  V30 13450 H 1317.67 5.38463 2.35227 0
M  V30 13451 H 1319.2 5.16403 3.25823 0
M  V30 13452 H 1320.61 5.63845 1.03689 0
M  V30 13453 H 1319.01 5.99197 0.329073 0
M  V30 13454 H 1320.08 4.82614 -0.470273 0
M  V30 13455 N 1321.42 0.00503138 1.57599 0
M  V30 13456 C 1322.35 -0.983586 2.11773 0
M  V30 13457 C 1323.33 -1.35518 1.02805 0
M  V30 13458 O 1324.52 -1.43804 1.30514 0
M  V30 13459 C 1321.65 -2.27383 2.62515 0
M  V30 13460 C 1320.6 -2.0437 3.76054 0
M  V30 13461 C 1319.93 -3.39451 4.1313 0
M  V30 13462 C 1321.23 -1.40223 5.03125 0
M  V30 13463 H 1322.92 -0.532501 2.94627 0
M  V30 13464 H 1320.47 -0.254696 1.4173 0
M  V30 13465 H 1322.42 -2.96903 2.99043 0
M  V30 13466 H 1321.14 -2.74614 1.7679 0
M  V30 13467 H 1319.8 -1.37275 3.39928 0
M  V30 13468 H 1319.45 -3.84395 3.24422 0
M  V30 13469 H 1319.15 -3.24868 4.89627 0
M  V30 13470 H 1320.68 -4.10279 4.52221 0
M  V30 13471 H 1322.09 -1.99708 5.37392 0
M  V30 13472 H 1320.49 -1.36112 5.8446 0
M  V30 13473 H 1321.56 -0.372073 4.8347 0
M  V30 13474 N 1322.9 -1.55308 -0.267798 0
M  V30 13475 C 1323.86 -1.87765 -1.31442 0
M  V30 13476 C 1324.86 -0.752571 -1.42102 0
M  V30 13477 O 1326.05 -1.02072 -1.41163 0
M  V30 13478 C 1323.18 -2.08754 -2.69508 0
M  V30 13479 H 1324.38 -2.8133 -1.03891 0
M  V30 13480 H 1321.93 -1.47879 -0.506111 0
M  V30 13481 H 1322.67 -1.17588 -3.02231 0
M  V30 13482 H 1322.45 -2.90674 -2.63156 0
M  V30 13483 H 1323.94 -2.3512 -3.4512 0
M  V30 13484 N 1324.38 0.532545 -1.4833 0
M  V30 13485 C 1325.34 1.61955 -1.62183 0
M  V30 13486 C 1326.34 1.52982 -0.495281 0
M  V30 13487 O 1327.53 1.56698 -0.761005 0
M  V30 13488 C 1324.66 3.0157 -1.58961 0
M  V30 13489 H 1325.86 1.51013 -2.59105 0
M  V30 13490 H 1323.41 0.754405 -1.36888 0
M  V30 13491 H 1324.14 3.18021 -0.635069 0
M  V30 13492 H 1323.93 3.09491 -2.40744 0
M  V30 13493 H 1325.42 3.80604 -1.71843 0
M  V30 13494 N 1325.86 1.36875 0.78122 0
M  V30 13495 C 1327.08 1.349 1.57533 0
M  V30 13496 C 1327.51 -0.0655249 1.87986 0
M  V30 13497 O 1326.86 -1.03986 1.48515 0
M  V30 13498 C 1326.91 2.18562 2.86815 0
M  V30 13499 O 1326.02 1.58374 3.80777 0
M  V30 13500 H 1325.36 0.461355 0.477543 0
M  V30 13501 H 1327.89 1.80271 0.96766 0
M  V30 13502 H 1327.9 2.31436 3.36008 0
M  V30 13503 H 1326.57 3.21385 2.63978 0
M  V30 13504 H 1325.15 1.54487 3.39394 0
M  V30 13505 N 1327.33 -1.00632 1.21289 0
M  V30 13506 C 1328.26 -2.11238 0.995021 0
M  V30 13507 C 1329.24 -1.69914 -0.0795537 0
M  V30 13508 O 1330.43 -1.94035 0.0800152 0
M  V30 13509 C 1327.56 -3.42797 0.557475 0
M  V30 13510 C 1326.51 -3.97909 1.57646 0
M  V30 13511 C 1325.84 -5.25357 0.995197 0
M  V30 13512 C 1327.14 -4.30123 2.96297 0
M  V30 13513 H 1328.83 -2.29722 1.9201 0
M  V30 13514 H 1326.38 -1.10395 0.924602 0
M  V30 13515 H 1328.33 -4.19571 0.392236 0
M  V30 13516 H 1327.06 -3.24101 -0.403253 0
M  V30 13517 H 1325.72 -3.23254 1.72924 0
M  V30 13518 H 1325.36 -5.02993 0.026227 0
M  V30 13519 H 1325.06 -5.63196 1.67583 0
M  V30 13520 H 1326.59 -6.04777 0.841251 0
M  V30 13521 H 1328 -4.97744 2.8447 0
M  V30 13522 H 1326.4 -4.79101 3.61361 0
M  V30 13523 H 1327.47 -3.38454 3.47242 0
M  V30 13524 N 1328.81 -1.02043 -1.20104 0
M  V30 13525 C 1329.76 -0.564679 -2.20897 0
M  V30 13526 C 1330.75 0.382041 -1.56299 0
M  V30 13527 O 1331.94 0.204384 -1.75816 0
M  V30 13528 C 1329.07 0.0917516 -3.43177 0
M  V30 13529 C 1328.15 -0.876903 -4.14935 0
M  V30 13530 N 1328.54 -2.03596 -4.63014 0
M  V30 13531 C 1326.84 -0.698538 -4.40496 0
M  V30 13532 C 1327.54 -2.64621 -5.18026 0
M  V30 13533 N 1326.52 -1.92651 -5.08317 0
M  V30 13534 H 1330.32 -1.44825 -2.5574 0
M  V30 13535 H 1327.83 -0.88628 -1.36084 0
M  V30 13536 H 1329.83 0.43582 -4.14616 0
M  V30 13537 H 1328.49 0.971116 -3.09838 0
M  V30 13538 H 1329.5 -2.41573 -4.58108 0
M  V30 13539 H 1326.18 0.132449 -4.1729 0
M  V30 13540 H 1327.57 -3.62732 -5.65575 0
M  V30 13541 N 1330.29 1.35952 -0.797165 0
M  V30 13542 C 1331.22 2.32506 -0.215277 0
M  V30 13543 C 1332.2 1.57023 0.654046 0
M  V30 13544 O 1333.39 1.85139 0.586268 0
M  V30 13545 C 1330.52 3.41266 0.644557 0
M  V30 13546 C 1329.47 4.27816 -0.125501 0
M  V30 13547 C 1328.8 5.27813 0.855428 0
M  V30 13548 C 1330.1 5.05367 -1.31913 0
M  V30 13549 H 1331.79 2.8142 -1.02193 0
M  V30 13550 H 1329.34 1.35303 -0.492862 0
M  V30 13551 H 1331.29 4.07808 1.06163 0
M  V30 13552 H 1330.01 2.90938 1.484 0
M  V30 13553 H 1328.67 3.62841 -0.523639 0
M  V30 13554 H 1328.32 4.73755 1.69011 0
M  V30 13555 H 1328.02 5.86589 0.344566 0
M  V30 13556 H 1329.54 5.97227 1.2709 0
M  V30 13557 H 1330.96 5.64907 -0.977418 0
M  V30 13558 H 1329.36 5.73593 -1.76382 0
M  V30 13559 H 1330.43 4.36558 -2.11057 0
M  V30 13560 N 1331.77 0.549846 1.47697 0
M  V30 13561 C 1332.73 -0.191427 2.28399 0
M  V30 13562 C 1333.73 -0.849533 1.36527 0
M  V30 13563 O 1334.92 -0.706526 1.59229 0
M  V30 13564 C 1332.05 -1.27907 3.15995 0
M  V30 13565 H 1333.25 0.517375 2.95404 0
M  V30 13566 H 1330.8 0.30651 1.53265 0
M  V30 13567 H 1331.53 -2.0205 2.53665 0
M  V30 13568 H 1331.32 -0.812066 3.83599 0
M  V30 13569 H 1332.81 -1.79992 3.76819 0
M  V30 13570 N 1333.25 -1.54984 0.285932 0
M  V30 13571 C 1334.19 -2.2295 -0.596822 0
M  V30 13572 C 1335.16 -1.20674 -1.14136 0
M  V30 13573 O 1336.35 -1.49249 -1.18867 0
M  V30 13574 C 1333.49 -2.9625 -1.77002 0
M  V30 13575 C 1332.6 -4.13268 -1.25831 0
M  V30 13576 C 1331.74 -4.74187 -2.39417 0
M  V30 13577 C 1330.78 -5.83377 -1.85304 0
M  V30 13578 N 1329.91 -6.38313 -2.92405 0
M  V30 13579 H 1334.75 -2.97998 -0.0106104 0
M  V30 13580 H 1332.29 -1.47099 0.00653041 0
M  V30 13581 H 1334.25 -3.36971 -2.4598 0
M  V30 13582 H 1332.88 -2.23606 -2.3281 0
M  V30 13583 H 1331.93 -3.77593 -0.461278 0
M  V30 13584 H 1333.24 -4.91979 -0.822049 0
M  V30 13585 H 1332.4 -5.17683 -3.16369 0
M  V30 13586 H 1331.13 -3.94775 -2.86364 0
M  V30 13587 H 1330.14 -5.3932 -1.06835 0
M  V30 13588 H 1331.36 -6.64664 -1.3928 0
M  V30 13589 H 1329.31 -5.61791 -3.38713 0
M  V30 13590 H 1329.23 -7.12328 -2.53228 0
M  V30 13591 H 1330.5 -6.86468 -3.69299 0
M  V30 13592 N 1334.72 -0.0133892 -1.57594 0
M  V30 13593 C 1335.69 0.958601 -2.08191 0
M  V30 13594 C 1336.69 1.26408 -0.993865 0
M  V30 13595 O 1337.88 1.20703 -1.25604 0
M  V30 13596 C 1335.01 2.27971 -2.5346 0
M  V30 13597 H 1336.2 0.520686 -2.95345 0
M  V30 13598 H 1333.76 0.234351 -1.54533 0
M  V30 13599 H 1334.49 2.76424 -1.69588 0
M  V30 13600 H 1334.28 2.07116 -3.32935 0
M  V30 13601 H 1335.77 2.97672 -2.92884 0
M  V30 13602 N 1336.2 1.55448 0.259558 0
M  V30 13603 C 1337.13 1.85678 1.34373 0
M  V30 13604 C 1338.15 0.742155 1.449 0
M  V30 13605 O 1339.34 1.02015 1.46476 0
M  V30 13606 C 1336.44 2.01668 2.72366 0
M  V30 13607 C 1335.61 3.32434 2.84265 0
M  V30 13608 C 1334.67 3.38322 4.03019 0
M  V30 13609 O 1333.69 4.11616 3.93143 0
M  V30 13610 N 1334.9 2.66697 5.1561 0
M  V30 13611 H 1337.66 2.79261 1.08781 0
M  V30 13612 H 1335.22 1.5553 0.449672 0
M  V30 13613 H 1337.21 2.02963 3.50126 0
M  V30 13614 H 1335.78 1.14889 2.90722 0
M  V30 13615 H 1335 3.43564 1.93281 0
M  V30 13616 H 1336.29 4.18649 2.89155 0
M  V30 13617 H 1335.69 2.06857 5.26523 0
M  V30 13618 H 1334.25 2.73699 5.91551 0
M  V30 13619 N 1337.68 -0.524672 1.4861 0
M  V30 13620 C 1338.93 -1.27671 1.5615 0
M  V30 13621 C 1339.24 -1.94088 0.242709 0
M  V30 13622 O 1340.45 -2.70789 0.196407 0
M  V30 13623 C 1338.9 -2.31686 2.75408 0
M  V30 13624 C 1338.51 -1.71315 4.13951 0
M  V30 13625 C 1340.26 -3.07867 2.92264 0
M  V30 13626 C 1338.16 -2.73302 5.24462 0
M  V30 13627 H 1337.09 -0.480177 0.581332 0
M  V30 13628 H 1339.74 -0.553473 1.74954 0
M  V30 13629 H 1338.13 -3.07069 2.50049 0
M  V30 13630 H 1339.3 -1.02085 4.4935 0
M  V30 13631 H 1337.62 -1.07608 4.02255 0
M  V30 13632 H 1340.21 -3.84088 3.71995 0
M  V30 13633 H 1340.56 -3.64052 2.01921 0
M  V30 13634 H 1341.09 -2.39599 3.17549 0
M  V30 13635 H 1337.83 -2.21929 6.16788 0
M  V30 13636 H 1337.35 -3.40843 4.93544 0
M  V30 13637 H 1339.03 -3.36186 5.528 0
M  V30 13638 N 1339.16 -1.37287 -0.77395 0
M  V30 13639 C 1340.11 -1.32872 -1.88716 0
M  V30 13640 C 1341.08 -0.194655 -1.64955 0
M  V30 13641 O 1342.26 -0.383662 -1.86903 0
M  V30 13642 C 1339.4 -1.13934 -3.2575 0
M  V30 13643 C 1338.51 -2.36552 -3.61479 0
M  V30 13644 C 1337.65 -2.10504 -4.87711 0
M  V30 13645 C 1336.69 -3.28999 -5.16165 0
M  V30 13646 N 1335.82 -3.02517 -6.33584 0
M  V30 13647 H 1340.66 -2.28051 -1.91825 0
M  V30 13648 H 1338.2 -1.13325 -0.93786 0
M  V30 13649 H 1340.16 -1.00976 -4.04796 0
M  V30 13650 H 1338.79 -0.22404 -3.22022 0
M  V30 13651 H 1337.84 -2.60257 -2.77435 0
M  V30 13652 H 1339.15 -3.24931 -3.78446 0
M  V30 13653 H 1338.31 -1.94564 -5.74656 0
M  V30 13654 H 1337.05 -1.19459 -4.72843 0
M  V30 13655 H 1336.05 -3.4548 -4.27696 0
M  V30 13656 H 1337.28 -4.20892 -5.32942 0
M  V30 13657 H 1335.22 -2.14099 -6.20079 0
M  V30 13658 H 1335.14 -3.84439 -6.50955 0
M  V30 13659 H 1336.41 -2.9019 -7.23471 0
M  V30 13660 N 1340.64 0.999871 -1.21821 0
M  V30 13661 C 1341.86 1.7794 -1.06546 0
M  V30 13662 C 1342.29 1.84219 0.380115 0
M  V30 13663 O 1341.64 1.28955 1.27438 0
M  V30 13664 C 1341.69 3.1943 -1.67322 0
M  V30 13665 O 1340.8 4.01957 -0.922171 0
M  V30 13666 H 1340.14 0.548204 -0.374658 0
M  V30 13667 H 1342.67 1.2565 -1.61472 0
M  V30 13668 H 1342.68 3.70086 -1.71757 0
M  V30 13669 H 1341.35 3.14175 -2.7252 0
M  V30 13670 H 1339.93 3.60509 -0.95331 0
M  V30 13671 N 1342.11 1.02678 1.19562 0
M  V30 13672 C 1343.36 0.72059 1.88817 0
M  V30 13673 C 1343.68 -0.752942 1.79877 0
M  V30 13674 O 1342.95 -1.54233 1.20785 0
M  V30 13675 H 1341.53 0.26355 0.698964 0
M  V30 13676 H 1344.2 1.30056 1.4516 0
M  V30 13677 H 1343.29 1.01303 2.95202 0
M  V30 13678 N 1343.59 -1.35528 0.804364 0
M  V30 13679 C 1344.54 -2.29832 0.211186 0
M  V30 13680 C 1345.51 -1.52704 -0.653503 0
M  V30 13681 O 1346.69 -1.81152 -0.599052 0
M  V30 13682 C 1343.83 -3.39188 -0.636054 0
M  V30 13683 C 1342.95 -4.31283 0.248824 0
M  V30 13684 C 1342.08 -5.2773 -0.60621 0
M  V30 13685 C 1341.12 -6.11463 0.279205 0
M  V30 13686 N 1340.26 -7.00054 -0.535672 0
M  V30 13687 H 1345.1 -2.79971 1.0208 0
M  V30 13688 H 1342.64 -1.37793 0.514931 0
M  V30 13689 H 1344.59 -4.01254 -1.14241 0
M  V30 13690 H 1343.22 -2.90331 -1.41095 0
M  V30 13691 H 1342.28 -3.70241 0.873263 0
M  V30 13692 H 1343.59 -4.90046 0.930417 0
M  V30 13693 H 1342.74 -5.95158 -1.17778 0
M  V30 13694 H 1341.48 -4.69458 -1.32138 0
M  V30 13695 H 1340.49 -5.42984 0.863066 0
M  V30 13696 H 1341.71 -6.71813 0.9922 0
M  V30 13697 H 1339.66 -6.44273 -1.23486 0
M  V30 13698 H 1339.57 -7.55949 0.0879213 0
M  V30 13699 H 1340.84 -7.71833 -1.09059 0
M  V30 13700 N 1345.07 -0.557671 -1.47404 0
M  V30 13701 C 1346 0.178019 -2.3282 0
M  V30 13702 C 1346.98 0.908318 -1.43818 0
M  V30 13703 O 1348.17 0.888693 -1.72673 0
M  V30 13704 C 1345.3 1.2082 -3.25607 0
M  V30 13705 C 1344.25 0.594335 -4.23853 0
M  V30 13706 C 1343.58 1.72919 -5.05968 0
M  V30 13707 C 1344.88 -0.452196 -5.20339 0
M  V30 13708 H 1346.57 -0.535091 -2.9458 0
M  V30 13709 H 1344.12 -0.258775 -1.41656 0
M  V30 13710 H 1346.07 1.73104 -3.84204 0
M  V30 13711 H 1344.79 1.95126 -2.61903 0
M  V30 13712 H 1343.45 0.0927898 -3.66483 0
M  V30 13713 H 1343.1 2.4613 -4.38668 0
M  V30 13714 H 1342.8 1.32422 -5.72484 0
M  V30 13715 H 1344.33 2.25527 -5.67424 0
M  V30 13716 H 1345.74 -0.0154011 -5.73298 0
M  V30 13717 H 1344.14 -0.776068 -5.95061 0
M  V30 13718 H 1345.21 -1.34791 -4.65789 0
M  V30 13719 N 1346.55 1.54831 -0.294147 0
M  V30 13720 C 1347.77 2.04873 0.32276 0
M  V30 13721 C 1348.2 1.17034 1.47257 0
M  V30 13722 O 1347.56 0.172949 1.80473 0
M  V30 13723 C 1347.61 3.52431 0.76319 0
M  V30 13724 O 1346.71 3.67635 1.86865 0
M  V30 13725 H 1346.05 0.660926 0.0638162 0
M  V30 13726 H 1348.58 1.99944 -0.433995 0
M  V30 13727 H 1348.59 3.94155 1.05385 0
M  V30 13728 H 1347.27 4.15827 -0.0779464 0
M  V30 13729 H 1345.84 3.37816 1.57907 0
M  V30 13730 N 1348.03 0.0217466 1.57585 0
M  V30 13731 C 1349.44 -0.51811 1.79367 0
M  V30 13732 C 1349.79 -1.72688 0.931313 0
M  V30 13733 O 1348.91 -2.15949 0.139687 0
M  V30 13734 C 1349.51 -0.946711 3.25304 0
M  V30 13735 C 1348.07 -1.43173 3.48107 0
M  V30 13736 C 1347.22 -0.392996 2.74501 0
M  V30 13737 H 1350.17 0.247822 1.56753 0
M  V30 13738 H 1350.19 -1.81152 3.34611 0
M  V30 13739 H 1349.7 -0.0667536 3.88043 0
M  V30 13740 H 1347.8 -2.33186 2.90612 0
M  V30 13741 H 1347.91 -1.44419 4.56815 0
M  V30 13742 H 1346.28 -0.859471 2.39761 0
M  V30 13743 H 1347.06 0.478368 3.39951 0
M  V30 13744 N 1349.51 -1.55583 -0.251311 0
M  V30 13745 C 1350.73 -1.81597 -1.00186 0
M  V30 13746 C 1351.16 -0.598216 -1.78334 0
M  V30 13747 O 1350.51 0.452667 -1.75558 0
M  V30 13748 C 1350.56 -3.05301 -1.91895 0
M  V30 13749 O 1349.67 -2.81907 -3.01002 0
M  V30 13750 H 1349.01 -0.599578 -0.285311 0
M  V30 13751 H 1351.54 -2.02762 -0.273638 0
M  V30 13752 H 1351.55 -3.34616 -2.33444 0
M  V30 13753 H 1350.22 -3.93574 -1.34433 0
M  V30 13754 H 1348.8 -2.63747 -2.63613 0
M  V30 13755 N 1350.98 0.516783 -1.48886 0
M  V30 13756 C 1352.21 1.29628 -1.61258 0
M  V30 13757 C 1352.63 1.86744 -0.27786 0
M  V30 13758 O 1351.98 1.67061 0.734639 0
M  V30 13759 C 1352.03 2.43779 -2.66935 0
M  V30 13760 O 1351.76 1.89014 -3.95228 0
M  V30 13761 C 1353.26 3.35398 -2.89867 0
M  V30 13762 H 1350.48 0.393736 -0.543335 0
M  V30 13763 H 1353.02 0.622069 -1.94809 0
M  V30 13764 H 1351.18 3.0706 -2.36206 0
M  V30 13765 H 1351.59 2.63833 -4.53312 0
M  V30 13766 H 1353.06 4.11812 -3.6758 0
M  V30 13767 H 1353.54 3.91436 -1.99185 0
M  V30 13768 H 1354.15 2.77898 -3.21952 0
M  V30 13769 N 1352.46 1.37696 0.766659 0
M  V30 13770 C 1353.42 1.33688 1.86172 0
M  V30 13771 C 1354.42 0.239922 1.59 0
M  V30 13772 O 1355.61 0.496066 1.66988 0
M  V30 13773 C 1352.75 1.07807 3.23405 0
M  V30 13774 H 1353.94 2.311 1.91136 0
M  V30 13775 H 1351.49 1.22799 0.966961 0
M  V30 13776 H 1352.23 0.109477 3.24115 0
M  V30 13777 H 1352.01 1.87213 3.4452 0
M  V30 13778 H 1353.5 1.07665 4.03482 0
M  V30 13779 N 1353.94 -0.993397 1.22349 0
M  V30 13780 C 1355.19 -1.73544 1.04931 0
M  V30 13781 C 1355.52 -1.89721 -0.414661 0
M  V30 13782 O 1354.79 -1.44001 -1.30743 0
M  V30 13783 C 1355.08 -3.14131 1.7605 0
M  V30 13784 C 1354.93 -3.05604 3.30039 0
M  V30 13785 C 1356.25 -4.13294 1.51249 0
M  V30 13786 H 1353.37 -0.629915 0.382591 0
M  V30 13787 H 1356.01 -1.15737 1.50682 0
M  V30 13788 H 1354.16 -3.63483 1.37157 0
M  V30 13789 H 1355.83 -2.63876 3.78374 0
M  V30 13790 H 1354.07 -2.42421 3.59742 0
M  V30 13791 H 1354.75 -4.05086 3.74979 0
M  V30 13792 H 1357.22 -3.72696 1.85033 0
M  V30 13793 H 1356.1 -5.09781 2.03507 0
M  V30 13794 H 1356.36 -4.39855 0.444973 0
M  V30 13795 N 1355.42 -1.03311 -1.19015 0
M  V30 13796 C 1356.36 -0.617567 -2.22384 0
M  V30 13797 C 1357.33 0.370779 -1.61909 0
M  V30 13798 O 1358.52 0.266481 -1.8893 0
M  V30 13799 C 1355.66 0.0211303 -3.45094 0
M  V30 13800 C 1354.77 -1.01377 -4.19937 0
M  V30 13801 C 1353.91 -0.344385 -5.30082 0
M  V30 13802 C 1352.95 -1.3649 -5.96688 0
M  V30 13803 N 1352.08 -0.721026 -6.98388 0
M  V30 13804 H 1356.92 -1.5036 -2.57286 0
M  V30 13805 H 1354.46 -0.75235 -1.26405 0
M  V30 13806 H 1356.42 0.408713 -4.15193 0
M  V30 13807 H 1355.05 0.870721 -3.10835 0
M  V30 13808 H 1354.1 -1.51937 -3.4874 0
M  V30 13809 H 1355.41 -1.78921 -4.65606 0
M  V30 13810 H 1354.57 0.097814 -6.06621 0
M  V30 13811 H 1353.31 0.463216 -4.85495 0
M  V30 13812 H 1352.31 -1.81732 -5.18897 0
M  V30 13813 H 1353.54 -2.17407 -6.43359 0
M  V30 13814 H 1351.48 0.0664057 -6.55966 0
M  V30 13815 H 1351.4 -1.43428 -7.4227 0
M  V30 13816 H 1352.67 -0.30297 -7.78911 0
M  V30 13817 N 1356.9 1.35099 -0.81154 0
M  V30 13818 C 1357.83 2.28468 -0.183012 0
M  V30 13819 C 1358.84 1.50509 0.620553 0
M  V30 13820 O 1360.03 1.7268 0.4521 0
M  V30 13821 C 1357.13 3.30201 0.762933 0
M  V30 13822 C 1356.3 4.374 0.00466561 0
M  V30 13823 C 1355.36 5.18961 0.869832 0
M  V30 13824 O 1354.39 5.68306 0.318964 0
M  V30 13825 N 1355.59 5.37555 2.19123 0
M  V30 13826 H 1358.35 2.83046 -0.985132 0
M  V30 13827 H 1355.92 1.47502 -0.667449 0
M  V30 13828 H 1357.91 3.81659 1.34606 0
M  V30 13829 H 1356.48 2.76101 1.46584 0
M  V30 13830 H 1355.7 3.8681 -0.759702 0
M  V30 13831 H 1356.99 5.06159 -0.517739 0
M  V30 13832 H 1356.38 4.99118 2.66266 0
M  V30 13833 H 1354.94 5.92174 2.72348 0
M  V30 13834 N 1358.37 0.56548 1.47106 0
M  V30 13835 C 1359.62 0.0445914 2.02751 0
M  V30 13836 C 1359.95 -1.30517 1.43801 0
M  V30 13837 O 1359.23 -1.85123 0.596646 0
M  V30 13838 C 1359.51 -0.0396474 3.60078 0
M  V30 13839 C 1359.36 1.3378 4.29445 0
M  V30 13840 C 1360.68 -0.748954 4.3368 0
M  V30 13841 H 1357.8 0.0176787 0.736788 0
M  V30 13842 H 1360.44 0.729363 1.75443 0
M  V30 13843 H 1358.59 -0.622826 3.83475 0
M  V30 13844 H 1360.27 1.96482 4.17364 0
M  V30 13845 H 1358.51 1.91024 3.89477 0
M  V30 13846 H 1359.18 1.23149 5.38088 0
M  V30 13847 H 1361.66 -0.253707 4.15326 0
M  V30 13848 H 1360.53 -0.776877 5.43374 0
M  V30 13849 H 1360.79 -1.80679 4.03494 0
M  V30 13850 N 1359.85 -1.54672 0.302354 0
M  V30 13851 C 1361.1 -2.00463 -0.306978 0
M  V30 13852 C 1361.43 -1.19043 -1.53435 0
M  V30 13853 O 1360.71 -0.267255 -1.92655 0
M  V30 13854 C 1360.99 -3.53958 -0.662229 0
M  V30 13855 C 1360.84 -4.46118 0.574378 0
M  V30 13856 C 1362.16 -4.14174 -1.48821 0
M  V30 13857 H 1359.28 -0.728729 -0.110102 0
M  V30 13858 H 1361.92 -1.85419 0.414722 0
M  V30 13859 H 1360.07 -3.66909 -1.2771 0
M  V30 13860 H 1361.74 -4.45071 1.21284 0
M  V30 13861 H 1359.99 -4.1666 1.20736 0
M  V30 13862 H 1360.66 -5.51281 0.281651 0
M  V30 13863 H 1363.13 -4.04668 -0.968674 0
M  V30 13864 H 1362.01 -5.2173 -1.70556 0
M  V30 13865 H 1362.27 -3.66136 -2.47784 0
M  V30 13866 N 1361.33 -0.0301034 -1.57571 0
M  V30 13867 C 1362.28 0.951421 -2.10277 0
M  V30 13868 C 1363.25 1.3224 -1.00508 0
M  V30 13869 O 1364.43 1.41554 -1.27934 0
M  V30 13870 C 1361.57 2.2282 -2.63525 0
M  V30 13871 C 1360.69 1.91359 -3.87306 0
M  V30 13872 C 1359.82 3.13339 -4.28943 0
M  V30 13873 C 1358.86 2.77701 -5.4548 0
M  V30 13874 N 1358 3.9231 -5.82269 0
M  V30 13875 H 1362.84 0.495049 -2.93859 0
M  V30 13876 H 1360.37 0.232756 -1.45247 0
M  V30 13877 H 1362.33 2.97502 -2.92487 0
M  V30 13878 H 1360.96 2.66072 -1.82772 0
M  V30 13879 H 1360.01 1.06915 -3.65066 0
M  V30 13880 H 1361.33 1.61112 -4.72064 0
M  V30 13881 H 1360.48 3.9634 -4.59347 0
M  V30 13882 H 1359.22 3.46747 -3.42954 0
M  V30 13883 H 1358.22 1.93113 -5.14769 0
M  V30 13884 H 1359.45 2.45508 -6.33169 0
M  V30 13885 H 1357.39 4.25559 -4.99235 0
M  V30 13886 H 1357.31 3.65691 -6.61669 0
M  V30 13887 H 1358.58 4.76012 -6.17279 0
M  V30 13888 N 1362.81 1.55714 0.243056 0
M  V30 13889 C 1363.76 1.91467 1.32072 0
M  V30 13890 C 1364.75 0.794182 1.4963 0
M  V30 13891 O 1365.96 0.978835 1.51059 0
M  V30 13892 H 1362.33 0.60815 0.442333 0
M  V30 13893 H 1364.3 2.81433 0.991865 0
M  V30 13894 C 1363.05 2.22917 2.6684 0
M  V30 13895 H 1362.37 3.08639 2.5413 0
M  V30 13896 H 1363.81 2.51833 3.4111 0
M  V30 13897 C 1362.27 1.04683 3.20223 0
M  V30 13898 O 1362.8 0.296806 4.00602 0
M  V30 13899 N 1361.01 0.836419 2.78303 0
M  V30 13900 H 1360.56 1.44804 2.13048 0
M  V30 13901 H 1360.51 0.0470167 3.14365 0
M  V30 13902 N 1364.29 -0.50888 1.49158 0
M  V30 13903 C 1365.22 -1.62008 1.68154 0
M  V30 13904 C 1366.2 -1.61624 0.53025 0
M  V30 13905 O 1367.38 -1.78489 0.765205 0
M  V30 13906 C 1364.51 -3.00525 1.74075 0
M  V30 13907 C 1363.47 -3.15773 2.88915 0
M  V30 13908 C 1362.79 -4.55562 2.79942 0
M  V30 13909 C 1364.09 -2.96542 4.29953 0
M  V30 13910 H 1365.79 -1.46365 2.61185 0
M  V30 13911 H 1363.33 -0.702705 1.2569 0
M  V30 13912 H 1365.29 -3.78154 1.8595 0
M  V30 13913 H 1364.01 -3.17238 0.776373 0
M  V30 13914 H 1362.67 -2.40567 2.76628 0
M  V30 13915 H 1362.32 -4.6914 1.81429 0
M  V30 13916 H 1362.02 -4.66706 3.57015 0
M  V30 13917 H 1363.54 -5.35262 2.93814 0
M  V30 13918 H 1364.95 -3.63947 4.42963 0
M  V30 13919 H 1363.35 -3.19164 5.08187 0
M  V30 13920 H 1364.42 -1.92745 4.44946 0
M  V30 13921 N 1365.76 -1.381 -0.759346 0
M  V30 13922 C 1366.71 -1.34972 -1.89434 0
M  V30 13923 C 1367.71 -0.236499 -1.67741 0
M  V30 13924 O 1368.91 -0.405218 -1.7538 0
M  V30 13925 H 1365.29 -0.420922 -0.62316 0
M  V30 13926 H 1367.26 -2.3076 -1.89189 0
M  V30 13927 C 1366.01 -1.18594 -3.2685 0
M  V30 13928 H 1365.33 -2.03514 -3.44125 0
M  V30 13929 H 1366.77 -1.20458 -4.06529 0
M  V30 13930 C 1365.23 0.107562 -3.36728 0
M  V30 13931 O 1365.76 1.08668 -3.86722 0
M  V30 13932 N 1363.97 0.162455 -2.90146 0
M  V30 13933 H 1363.51 -0.634985 -2.49651 0
M  V30 13934 H 1363.47 1.02751 -2.97136 0
M  V30 13935 N 1367.24 0.986894 -1.22875 0
M  V30 13936 C 1368.15 2.11232 -1.02069 0
M  V30 13937 C 1369.17 1.73969 0.0328424 0
M  V30 13938 O 1370.34 2.00754 -0.161197 0
M  V30 13939 C 1367.41 3.41337 -0.60747 0
M  V30 13940 C 1366.47 3.92665 -1.73531 0
M  V30 13941 C 1365.7 5.1656 -1.34171 0
M  V30 13942 O 1365.93 5.69964 -0.223106 0
M  V30 13943 O 1364.86 5.61791 -2.16041 0
M  V30 13944 H 1368.69 2.3167 -1.96374 0
M  V30 13945 H 1366.27 1.09607 -1.01522 0
M  V30 13946 H 1368.15 4.19613 -0.387661 0
M  V30 13947 H 1366.83 3.22244 0.306653 0
M  V30 13948 H 1365.74 3.15534 -2.0097 0
M  V30 13949 H 1367.07 4.162 -2.62751 0
M  V30 13950 N 1368.72 1.0394 1.18466 0
M  V30 13951 C 1370.14 0.758404 1.40429 0
M  V30 13952 C 1370.34 -0.652603 1.90639 0
M  V30 13953 O 1369.39 -1.417 2.08991 0
M  V30 13954 C 1370.71 1.80343 2.40618 0
M  V30 13955 C 1372.25 1.82419 2.54347 0
M  V30 13956 C 1372.73 2.8591 3.57798 0
M  V30 13957 N 1374.22 2.84793 3.65304 0
M  V30 13958 C 1374.95 3.61521 4.45073 0
M  V30 13959 N 1374.45 4.47997 5.28461 0
M  V30 13960 N 1376.24 3.50016 4.39824 0
M  V30 13961 H 1368.39 1.94998 0.842 0
M  V30 13962 H 1370.66 0.843649 0.43239 0
M  V30 13963 H 1370.36 2.81547 2.10771 0
M  V30 13964 H 1370.24 1.63451 3.39947 0
M  V30 13965 H 1372.62 0.818872 2.83511 0
M  V30 13966 H 1372.71 2.03388 1.55136 0
M  V30 13967 H 1372.35 3.8662 3.29375 0
M  V30 13968 H 1372.28 2.62196 4.56684 0
M  V30 13969 H 1374.77 2.22082 3.05758 0
M  V30 13970 H 1375.08 5.03257 5.86475 0
M  V30 13971 H 1373.43 4.52065 5.27885 0
M  V30 13972 H 1376.62 2.81862 3.73726 0
M  V30 13973 H 1376.79 4.10063 5.0175 0
M  V30 13974 N 1370.2 -1.34667 0.818693 0
M  V30 13975 C 1371.43 -2.02348 0.417002 0
M  V30 13976 C 1371.84 -1.61813 -0.980464 0
M  V30 13977 O 1371.18 -0.817232 -1.64521 0
M  V30 13978 C 1371.24 -3.56861 0.434779 0
M  V30 13979 C 1370.91 -4.20704 1.78485 0
M  V30 13980 C 1371.9 -4.41524 2.74504 0
M  V30 13981 C 1369.59 -4.57566 2.07217 0
M  V30 13982 C 1371.58 -4.98324 3.97431 0
M  V30 13983 C 1369.27 -5.14078 3.30405 0
M  V30 13984 C 1370.27 -5.344 4.2533 0
M  V30 13985 O 1369.95 -5.89717 5.46342 0
M  V30 13986 H 1369.69 -0.655279 0.16609 0
M  V30 13987 H 1372.24 -1.73011 1.10708 0
M  V30 13988 H 1370.47 -3.8544 -0.311973 0
M  V30 13989 H 1372.16 -4.05864 0.0537258 0
M  V30 13990 H 1372.93 -4.13414 2.53601 0
M  V30 13991 H 1368.8 -4.41054 1.34135 0
M  V30 13992 H 1372.35 -5.14102 4.71534 0
M  V30 13993 H 1368.25 -5.41616 3.51174 0
M  V30 13994 H 1369.01 -6.08155 5.47804 0
M  V30 13995 N 1371.68 -0.573274 -1.46804 0
M  V30 13996 C 1372.62 0.165358 -2.30207 0
M  V30 13997 C 1373.59 0.89312 -1.40045 0
M  V30 13998 O 1374.78 0.885653 -1.68999 0
M  V30 13999 C 1371.92 1.17915 -3.2433 0
M  V30 14000 C 1371.03 0.455805 -4.29589 0
M  V30 14001 C 1370.17 1.45629 -5.10848 0
M  V30 14002 C 1369.21 0.718822 -6.07865 0
M  V30 14003 N 1368.34 1.66691 -6.82025 0
M  V30 14004 H 1373.18 -0.551947 -2.92844 0
M  V30 14005 H 1370.72 -0.28401 -1.44332 0
M  V30 14006 H 1372.68 1.77969 -3.77337 0
M  V30 14007 H 1371.31 1.86429 -2.63523 0
M  V30 14008 H 1370.36 -0.259584 -3.79513 0
M  V30 14009 H 1371.67 -0.121161 -4.98653 0
M  V30 14010 H 1370.83 2.1299 -5.68084 0
M  V30 14011 H 1369.56 2.06718 -4.41723 0
M  V30 14012 H 1368.57 0.0313773 -5.49791 0
M  V30 14013 H 1369.79 0.113452 -6.79005 0
M  V30 14014 H 1367.74 2.26608 -6.15617 0
M  V30 14015 H 1367.66 1.14251 -7.47317 0
M  V30 14016 H 1368.93 2.33117 -7.43826 0
M  V30 14017 N 1373.15 1.5451 -0.310553 0
M  V30 14018 C 1374.4 2.00326 0.295904 0
M  V30 14019 C 1374.73 1.19887 1.53158 0
M  V30 14020 O 1373.98 0.265615 1.93889 0
M  V30 14021 C 1374.28 3.5072 0.68779 0
M  V30 14022 C 1373.95 4.48677 -0.447229 0
M  V30 14023 C 1372.61 4.7518 -0.758796 0
M  V30 14024 C 1374.96 5.06953 -1.21028 0
M  V30 14025 C 1372.29 5.5722 -1.83637 0
M  V30 14026 C 1374.64 5.90167 -2.27784 0
M  V30 14027 C 1373.31 6.14977 -2.59537 0
M  V30 14028 H 1372.58 0.733046 0.108279 0
M  V30 14029 H 1375.22 1.86572 -0.431633 0
M  V30 14030 H 1373.53 3.62133 1.49556 0
M  V30 14031 H 1375.23 3.83602 1.16836 0
M  V30 14032 H 1371.82 4.28159 -0.1943 0
M  V30 14033 H 1376 4.86471 -0.98283 0
M  V30 14034 H 1371.26 5.74678 -2.08699 0
M  V30 14035 H 1375.43 6.34347 -2.87362 0
M  V30 14036 H 1373.06 6.78338 -3.43165 0
M  V30 14037 N 1374.63 0.0384594 1.57553 0
M  V30 14038 C 1375.87 -0.642187 1.9405 0
M  V30 14039 C 1376.24 -1.68753 0.915779 0
M  V30 14040 O 1377.44 -2.42133 1.16726 0
M  V30 14041 C 1375.71 -1.23422 3.35413 0
M  V30 14042 S 1377.27 -1.93464 3.93849 0
M  V30 14043 H 1374.09 -0.211198 0.678908 0
M  V30 14044 H 1376.69 0.104358 1.95221 0
M  V30 14045 H 1375.39 -0.461112 4.07801 0
M  V30 14046 H 1374.92 -2.01787 3.37707 0
M  V30 14047 H 1376.94 -3.21401 3.78042 0
M  V30 14048 N 1376.11 -1.55841 -0.234795 0
M  V30 14049 C 1377.36 -1.77438 -0.959094 0
M  V30 14050 C 1377.67 -0.604621 -1.86021 0
M  V30 14051 O 1378.88 -0.703897 -2.62217 0
M  V30 14052 C 1377.34 -3.14182 -1.7555 0
M  V30 14053 C 1376.94 -4.38843 -0.90118 0
M  V30 14054 C 1378.69 -3.45112 -2.47181 0
M  V30 14055 C 1376.59 -5.66614 -1.69417 0
M  V30 14056 H 1375.52 -0.661503 -0.361843 0
M  V30 14057 H 1378.18 -1.82255 -0.213364 0
M  V30 14058 H 1376.56 -3.03505 -2.54364 0
M  V30 14059 H 1377.73 -4.60541 -0.154515 0
M  V30 14060 H 1376.05 -4.15335 -0.297631 0
M  V30 14061 H 1378.64 -4.37794 -3.06986 0
M  V30 14062 H 1378.99 -2.66995 -3.19405 0
M  V30 14063 H 1379.52 -3.57059 -1.75368 0
M  V30 14064 H 1376.26 -6.47587 -1.01545 0
M  V30 14065 H 1375.78 -5.48998 -2.4158 0
M  V30 14066 H 1377.46 -6.06311 -2.25824 0
M  V30 14067 N 1377.59 0.500963 -1.49426 0
M  V30 14068 C 1378.82 1.27911 -1.62624 0
M  V30 14069 C 1379.23 1.86439 -0.297651 0
M  V30 14070 O 1378.59 1.67831 0.716879 0
M  V30 14071 C 1378.64 2.40934 -2.69505 0
M  V30 14072 O 1378.36 1.84811 -3.97211 0
M  V30 14073 C 1379.86 3.32305 -2.93408 0
M  V30 14074 H 1377.08 0.387951 -0.547481 0
M  V30 14075 H 1379.63 0.601372 -1.95458 0
M  V30 14076 H 1377.78 3.04537 -2.39449 0
M  V30 14077 H 1378.2 2.59011 -4.56085 0
M  V30 14078 H 1379.67 4.0789 -3.71927 0
M  V30 14079 H 1380.15 3.89301 -2.03325 0
M  V30 14080 H 1380.75 2.74467 -3.24881 0
M  V30 14081 N 1379.07 1.38501 0.752011 0
M  V30 14082 C 1380 1.30236 1.87387 0
M  V30 14083 C 1380.98 0.179099 1.61611 0
M  V30 14084 O 1382.16 0.356686 1.85095 0
M  V30 14085 C 1379.29 1.01829 3.2303 0
M  V30 14086 C 1378.34 2.16114 3.67691 0
M  V30 14087 S 1379.17 3.78266 3.79044 0
M  V30 14088 C 1380.32 3.5205 5.17505 0
M  V30 14089 H 1380.56 2.25185 1.94111 0
M  V30 14090 H 1378.09 1.24356 0.915152 0
M  V30 14091 H 1380.05 0.861231 4.01364 0
M  V30 14092 H 1378.71 0.0859612 3.13982 0
M  V30 14093 H 1377.9 1.91788 4.66083 0
M  V30 14094 H 1377.5 2.27936 2.96515 0
M  V30 14095 H 1379.8 3.08262 6.03308 0
M  V30 14096 H 1380.74 4.49842 5.46853 0
M  V30 14097 H 1381.15 2.86528 4.86377 0
M  V30 14098 N 1380.55 -0.980364 1.23396 0
M  V30 14099 C 1381.79 -1.73674 1.07781 0
M  V30 14100 C 1382.15 -1.88227 -0.378759 0
M  V30 14101 O 1383.35 -2.6067 -0.656092 0
M  V30 14102 C 1381.62 -3.09727 1.78337 0
M  V30 14103 S 1383.18 -4.00944 1.78295 0
M  V30 14104 H 1380 -0.597273 0.385728 0
M  V30 14105 H 1382.6 -1.17123 1.56533 0
M  V30 14106 H 1381.3 -2.96786 2.83455 0
M  V30 14107 H 1380.84 -3.71346 1.29868 0
M  V30 14108 H 1382.85 -4.89011 0.841572 0
M  V30 14109 N 1382.02 -1.04567 -1.17913 0
M  V30 14110 C 1382.97 -0.641119 -2.21717 0
M  V30 14111 C 1383.94 0.353585 -1.62293 0
M  V30 14112 O 1385.13 0.246427 -1.89202 0
M  V30 14113 C 1382.27 -0.0154726 -3.45097 0
M  V30 14114 C 1381.38 -1.05825 -4.18838 0
M  V30 14115 C 1380.51 -0.400588 -5.29687 0
M  V30 14116 C 1379.55 -1.42811 -5.95207 0
M  V30 14117 N 1378.69 -0.795059 -6.97584 0
M  V30 14118 H 1383.53 -1.5308 -2.55676 0
M  V30 14119 H 1381.07 -0.765715 -1.25599 0
M  V30 14120 H 1383.02 0.364653 -4.15603 0
M  V30 14121 H 1381.65 0.837704 -3.11741 0
M  V30 14122 H 1380.71 -1.55627 -3.47109 0
M  V30 14123 H 1382.02 -1.83849 -4.63682 0
M  V30 14124 H 1381.17 0.0334682 -6.06691 0
M  V30 14125 H 1379.91 0.411696 -4.85959 0
M  V30 14126 H 1378.92 -1.87225 -5.1694 0
M  V30 14127 H 1380.14 -2.24218 -6.41017 0
M  V30 14128 H 1378.09 -0.00317202 -6.56 0
M  V30 14129 H 1378 -1.51293 -7.40707 0
M  V30 14130 H 1379.27 -0.385567 -7.78546 0
M  V30 14131 N 1383.5 1.34231 -0.825823 0
M  V30 14132 C 1384.45 2.29467 -0.247724 0
M  V30 14133 C 1385.42 1.53724 0.629127 0
M  V30 14134 O 1386.6 1.82082 0.570156 0
M  V30 14135 C 1383.74 3.40157 0.582012 0
M  V30 14136 C 1382.86 4.30832 -0.317406 0
M  V30 14137 C 1381.99 5.28627 0.522176 0
M  V30 14138 C 1381.03 6.10941 -0.376448 0
M  V30 14139 N 1380.17 7.00817 0.424232 0
M  V30 14140 H 1385.01 2.78311 -1.06521 0
M  V30 14141 H 1382.54 1.36956 -0.536788 0
M  V30 14142 H 1384.5 4.03021 1.07843 0
M  V30 14143 H 1383.13 2.92539 1.36459 0
M  V30 14144 H 1382.18 3.68805 -0.932054 0
M  V30 14145 H 1383.5 4.88503 -1.00826 0
M  V30 14146 H 1382.65 5.96957 1.08295 0
M  V30 14147 H 1381.39 4.71501 1.24652 0
M  V30 14148 H 1380.39 5.41542 -0.94934 0
M  V30 14149 H 1381.62 6.70149 -1.09895 0
M  V30 14150 H 1379.57 6.46156 1.1322 0
M  V30 14151 H 1379.48 7.55713 -0.208175 0
M  V30 14152 H 1380.75 7.7347 0.967664 0
M  V30 14153 N 1384.98 0.581051 1.46498 0
M  V30 14154 C 1385.91 -0.140957 2.33074 0
M  V30 14155 C 1386.89 -0.885323 1.45245 0
M  V30 14156 O 1388.08 -0.86111 1.74065 0
M  V30 14157 C 1385.21 -1.15625 3.27488 0
M  V30 14158 C 1384.16 -0.526829 4.24745 0
M  V30 14159 C 1383.49 -1.64847 5.08655 0
M  V30 14160 C 1384.79 0.53492 5.19554 0
M  V30 14161 H 1386.48 0.581888 2.93691 0
M  V30 14162 H 1384.03 0.281278 1.41226 0
M  V30 14163 H 1385.98 -1.6697 3.8691 0
M  V30 14164 H 1384.7 -1.90935 2.64974 0
M  V30 14165 H 1383.36 -0.0344738 3.66584 0
M  V30 14166 H 1383.01 -2.3912 4.42528 0
M  V30 14167 H 1382.71 -1.23298 5.74518 0
M  V30 14168 H 1384.23 -2.16472 5.7094 0
M  V30 14169 H 1385.65 0.106606 5.73201 0
M  V30 14170 H 1384.04 0.870639 5.93751 0
M  V30 14171 H 1385.11 1.42184 4.63586 0
M  V30 14172 N 1386.46 -1.54343 0.318742 0
M  V30 14173 C 1387.69 -2.04894 -0.287378 0
M  V30 14174 C 1388.1 -1.19514 -1.46157 0
M  V30 14175 O 1387.46 -0.224722 -1.81111 0
M  V30 14176 C 1387.51 -3.54124 -0.726505 0
M  V30 14177 O 1387.23 -4.36261 0.400968 0
M  V30 14178 C 1388.73 -4.20748 -1.39594 0
M  V30 14179 H 1385.95 -0.668323 -0.0598724 0
M  V30 14180 H 1388.49 -1.99177 0.463531 0
M  V30 14181 H 1386.65 -3.60145 -1.4274 0
M  V30 14182 H 1387.06 -5.2447 0.0558714 0
M  V30 14183 H 1388.54 -5.26632 -1.65418 0
M  V30 14184 H 1389.01 -3.71566 -2.3417 0
M  V30 14185 H 1389.62 -4.18852 -0.737749 0
M  V30 14186 N 1387.94 -0.0468143 -1.5753 0
M  V30 14187 C 1388.85 0.944362 -2.14753 0
M  V30 14188 C 1389.86 1.34473 -1.10422 0
M  V30 14189 O 1391.04 1.42254 -1.42569 0
M  V30 14190 C 1388.1 2.2023 -2.67768 0
M  V30 14191 C 1387.16 1.8607 -3.8688 0
M  V30 14192 C 1386.4 3.05867 -4.37357 0
M  V30 14193 O 1386.62 4.19099 -3.86927 0
M  V30 14194 O 1385.55 2.87134 -5.28997 0
M  V30 14195 H 1389.38 0.48772 -2.99758 0
M  V30 14196 H 1386.96 0.174831 -1.48374 0
M  V30 14197 H 1388.85 2.94044 -3.01855 0
M  V30 14198 H 1387.52 2.65041 -1.85836 0
M  V30 14199 H 1386.43 1.09586 -3.5769 0
M  V30 14200 H 1387.76 1.46062 -4.70028 0
M  V30 14201 N 1389.41 1.55964 0.226527 0
M  V30 14202 C 1390.36 1.92007 1.28069 0
M  V30 14203 C 1391.33 0.776666 1.46823 0
M  V30 14204 O 1392.52 1.03213 1.60474 0
M  V30 14205 C 1389.66 2.23784 2.62707 0
M  V30 14206 C 1388.77 3.51034 2.51792 0
M  V30 14207 C 1387.9 3.72281 3.7892 0
M  V30 14208 C 1386.94 4.93062 3.62707 0
M  V30 14209 N 1386.08 5.10725 4.81772 0
M  V30 14210 H 1390.92 2.81898 0.96631 0
M  V30 14211 H 1388.46 1.39529 0.465847 0
M  V30 14212 H 1390.42 2.40217 3.41104 0
M  V30 14213 H 1389.05 1.37073 2.92251 0
M  V30 14214 H 1388.1 3.42822 1.64856 0
M  V30 14215 H 1389.41 4.39582 2.35731 0
M  V30 14216 H 1388.56 3.88783 4.6576 0
M  V30 14217 H 1387.3 2.82004 3.97901 0
M  V30 14218 H 1386.31 4.76515 2.7425 0
M  V30 14219 H 1387.53 5.84819 3.45201 0
M  V30 14220 H 1385.48 4.2339 5.01076 0
M  V30 14221 H 1385.4 5.93397 4.68419 0
M  V30 14222 H 1386.66 5.31658 5.70053 0
M  V30 14223 N 1390.89 -0.493031 1.4969 0
M  V30 14224 C 1391.82 -1.60215 1.69863 0
M  V30 14225 C 1392.8 -1.61053 0.547362 0
M  V30 14226 O 1393.99 -1.77667 0.784093 0
M  V30 14227 C 1391.12 -2.98662 1.77252 0
M  V30 14228 C 1390.07 -3.1269 2.92248 0
M  V30 14229 C 1389.4 -4.52567 2.84758 0
M  V30 14230 C 1390.7 -2.91965 4.33074 0
M  V30 14231 H 1392.39 -1.43587 2.62723 0
M  V30 14232 H 1389.94 -0.689334 1.26429 0
M  V30 14233 H 1391.89 -3.7616 1.89951 0
M  V30 14234 H 1390.62 -3.16397 0.809976 0
M  V30 14235 H 1389.27 -2.37619 2.79164 0
M  V30 14236 H 1388.92 -4.6719 1.86394 0
M  V30 14237 H 1388.62 -4.62893 3.61944 0
M  V30 14238 H 1390.15 -5.32116 2.99475 0
M  V30 14239 H 1391.56 -3.59228 4.46798 0
M  V30 14240 H 1389.96 -3.13756 5.11544 0
M  V30 14241 H 1391.03 -1.88015 4.46966 0
M  V30 14242 N 1392.37 -1.38898 -0.744656 0
M  V30 14243 C 1393.32 -1.36974 -1.87992 0
M  V30 14244 C 1394.31 -0.254277 -1.67481 0
M  V30 14245 O 1395.52 -0.423797 -1.7494 0
M  V30 14246 H 1391.89 -0.427508 -0.618661 0
M  V30 14247 H 1393.86 -2.32754 -1.86731 0
M  V30 14248 C 1392.61 -1.22054 -3.25573 0
M  V30 14249 H 1391.94 -2.07152 -3.41947 0
M  V30 14250 H 1393.38 -1.24763 -4.05228 0
M  V30 14251 C 1391.84 0.0718413 -3.36823 0
M  V30 14252 O 1392.37 1.0456 -3.87853 0
M  V30 14253 N 1390.57 0.131672 -2.90302 0
M  V30 14254 H 1390.12 -0.661428 -2.48964 0
M  V30 14255 H 1390.08 0.995936 -2.98209 0
M  V30 14256 N 1393.85 0.973806 -1.23914 0
M  V30 14257 C 1395.26 1.24128 -1.00322 0
M  V30 14258 C 1395.46 1.99378 0.29169 0
M  V30 14259 O 1394.52 2.31445 1.00943 0
M  V30 14260 C 1395.83 2.03438 -2.21435 0
M  V30 14261 C 1397.38 2.16553 -2.25995 0
M  V30 14262 C 1397.86 2.99257 -3.46712 0
M  V30 14263 N 1399.35 3.0684 -3.46992 0
M  V30 14264 C 1400.08 3.71174 -4.37055 0
M  V30 14265 N 1399.58 4.37277 -5.37364 0
M  V30 14266 N 1401.37 3.68126 -4.24782 0
M  V30 14267 H 1393.52 0.469872 -2.07138 0
M  V30 14268 H 1395.79 0.270234 -0.908668 0
M  V30 14269 H 1395.49 1.55527 -3.15443 0
M  V30 14270 H 1395.37 3.0418 -2.23057 0
M  V30 14271 H 1397.75 2.6367 -1.32522 0
M  V30 14272 H 1397.83 1.15179 -2.28402 0
M  V30 14273 H 1397.48 2.52835 -4.40496 0
M  V30 14274 H 1397.41 4.00815 -3.41547 0
M  V30 14275 H 1399.9 2.59813 -2.74419 0
M  V30 14276 H 1400.21 4.84166 -6.02331 0
M  V30 14277 H 1398.56 4.35965 -5.41257 0
M  V30 14278 H 1401.75 3.15657 -3.45656 0
M  V30 14279 H 1401.92 4.17981 -4.95173 0
M  V30 14280 N 1395.33 1.05191 1.17357 0
M  V30 14281 C 1396.57 0.761984 1.87617 0
M  V30 14282 C 1396.9 -0.710976 1.8104 0
M  V30 14283 O 1396.16 -1.53566 1.21309 0
M  V30 14284 C 1396.46 1.18779 3.37085 0
M  V30 14285 C 1396.12 2.66296 3.63864 0
M  V30 14286 C 1394.78 3.06594 3.70882 0
M  V30 14287 C 1397.14 3.61622 3.75339 0
M  V30 14288 C 1394.46 4.41081 3.86865 0
M  V30 14289 C 1396.82 4.95842 3.9284 0
M  V30 14290 C 1395.48 5.35793 3.98097 0
M  V30 14291 H 1394.75 0.27883 0.686538 0
M  V30 14292 H 1397.4 1.31899 1.38834 0
M  V30 14293 H 1395.7 0.549782 3.87923 0
M  V30 14294 H 1397.4 0.940667 3.89811 0
M  V30 14295 H 1393.99 2.34089 3.59027 0
M  V30 14296 H 1398.17 3.31628 3.69238 0
M  V30 14297 H 1393.43 4.71536 3.89183 0
M  V30 14298 H 1397.6 5.696 4.00661 0
M  V30 14299 H 1395.23 6.40009 4.10234 0
M  V30 14300 N 1396.8 -1.33791 0.83293 0
M  V30 14301 C 1398.05 -1.97973 0.425781 0
M  V30 14302 C 1398.38 -1.66003 -1.01357 0
M  V30 14303 O 1397.63 -0.929016 -1.72243 0
M  V30 14304 C 1397.93 -3.52555 0.586485 0
M  V30 14305 C 1397.6 -4.04461 1.99304 0
M  V30 14306 C 1396.26 -4.18347 2.37779 0
M  V30 14307 C 1398.61 -4.3226 2.91206 0
M  V30 14308 C 1395.94 -4.57364 3.67471 0
M  V30 14309 C 1398.29 -4.72727 4.20371 0
M  V30 14310 C 1396.96 -4.84819 4.5881 0
M  V30 14311 H 1396.23 -0.724435 0.155804 0
M  V30 14312 H 1398.87 -1.59567 1.05881 0
M  V30 14313 H 1397.18 -3.91585 -0.129885 0
M  V30 14314 H 1398.88 -4.00208 0.251835 0
M  V30 14315 H 1395.47 -3.94122 1.68421 0
M  V30 14316 H 1399.65 -4.2106 2.6272 0
M  V30 14317 H 1394.91 -4.64918 3.97065 0
M  V30 14318 H 1399.08 -4.93194 4.91663 0
M  V30 14319 H 1396.71 -5.14809 5.59353 0
M  V30 14320 N 1398.28 -0.588812 -1.46187 0
M  V30 14321 C 1399.51 -0.0806571 -2.07243 0
M  V30 14322 C 1399.93 1.21766 -1.43369 0
M  V30 14323 O 1399.29 1.73694 -0.51964 0
M  V30 14324 C 1399.34 0.065267 -3.60541 0
M  V30 14325 O 1398.44 1.12026 -3.96893 0
M  V30 14326 H 1397.78 -0.0655622 -0.660755 0
M  V30 14327 H 1400.31 -0.813489 -1.87733 0
M  V30 14328 H 1400.32 0.269494 -4.07109 0
M  V30 14329 H 1399 -0.88284 -4.06422 0
M  V30 14330 H 1397.58 0.894 -3.62025 0
M  V30 14331 N 1399.76 1.54172 -0.326923 0
M  V30 14332 C 1401.04 1.92812 0.329078 0
M  V30 14333 C 1401.42 1.25687 1.69605 0
M  V30 14334 O 1400.77 0.401779 2.2494 0
M  V30 14335 C 1400.98 3.46488 0.417949 0
M  V30 14336 C 1402.32 4.19174 0.67665 0
M  V30 14337 O 1403.35 3.52663 0.500735 0
M  V30 14338 O 1402.21 5.36968 1.01625 0
M  V30 14339 H 1399.3 0.805214 0.188573 0
M  V30 14340 H 1401.85 1.65462 -0.376884 0
M  V30 14341 H 1400.62 3.87528 -0.541986 0
M  V30 14342 H 1400.24 3.79954 1.17136 0
M  V30 14343 N 1401.24 0.0551678 1.57503 0
M  V30 14344 C 1402.19 -0.917847 2.11764 0
M  V30 14345 C 1403.16 -1.30624 1.02599 0
M  V30 14346 O 1404.34 -1.39501 1.30169 0
M  V30 14347 C 1401.48 -2.18599 2.67036 0
M  V30 14348 C 1400.59 -1.85173 3.90301 0
M  V30 14349 C 1399.73 -3.06475 4.33874 0
M  V30 14350 C 1398.77 -2.68988 5.49829 0
M  V30 14351 N 1397.9 -3.82997 5.88437 0
M  V30 14352 H 1402.74 -0.448236 2.9461 0
M  V30 14353 H 1400.28 -0.209619 1.45599 0
M  V30 14354 H 1402.24 -2.92811 2.97183 0
M  V30 14355 H 1400.87 -2.6313 1.86982 0
M  V30 14356 H 1399.92 -1.01094 3.66721 0
M  V30 14357 H 1401.23 -1.53582 4.74567 0
M  V30 14358 H 1400.39 -3.88982 4.65594 0
M  V30 14359 H 1399.13 -3.41247 3.48427 0
M  V30 14360 H 1398.13 -1.84899 5.17776 0
M  V30 14361 H 1399.36 -2.35404 6.36994 0
M  V30 14362 H 1397.3 -4.17562 5.05942 0
M  V30 14363 H 1397.22 -3.55118 6.67403 0
M  V30 14364 H 1398.49 -4.66131 6.24773 0
M  V30 14365 N 1402.72 -1.56081 -0.218252 0
M  V30 14366 C 1403.65 -1.89176 -1.29403 0
M  V30 14367 C 1404.66 -0.780312 -1.42881 0
M  V30 14368 O 1405.85 -1.05863 -1.4372 0
M  V30 14369 C 1402.95 -2.08818 -2.66923 0
M  V30 14370 C 1402.12 -3.39854 -2.75351 0
M  V30 14371 C 1401.18 -3.48889 -3.93908 0
M  V30 14372 O 1400.21 -4.21894 -3.82091 0
M  V30 14373 N 1401.41 -2.80273 -5.08357 0
M  V30 14374 H 1404.18 -2.82047 -1.01338 0
M  V30 14375 H 1401.74 -1.56667 -0.408278 0
M  V30 14376 H 1403.73 -2.12175 -3.44622 0
M  V30 14377 H 1402.3 -1.22557 -2.87574 0
M  V30 14378 H 1401.52 -3.48568 -1.84104 0
M  V30 14379 H 1402.81 -4.26168 -2.77954 0
M  V30 14380 H 1402.2 -2.20744 -5.20854 0
M  V30 14381 H 1400.76 -2.89286 -5.84086 0
M  V30 14382 N 1404.2 0.485086 -1.49949 0
M  V30 14383 C 1405.61 0.817651 -1.37064 0
M  V30 14384 C 1405.81 1.9716 -0.415949 0
M  V30 14385 O 1404.87 2.52074 0.146567 0
M  V30 14386 C 1406.18 1.14288 -2.78134 0
M  V30 14387 C 1407.73 1.25016 -2.8695 0
M  V30 14388 C 1408.2 1.60859 -4.28822 0
M  V30 14389 N 1409.69 1.67878 -4.31707 0
M  V30 14390 C 1410.43 1.97089 -5.38464 0
M  V30 14391 N 1409.93 2.24415 -6.55446 0
M  V30 14392 N 1411.72 1.98474 -5.25894 0
M  V30 14393 H 1403.87 -0.275606 -2.10604 0
M  V30 14394 H 1406.13 -0.0607486 -0.946052 0
M  V30 14395 H 1405.84 0.36817 -3.49768 0
M  V30 14396 H 1405.71 2.0825 -3.14502 0
M  V30 14397 H 1408.1 2.01556 -2.15544 0
M  V30 14398 H 1408.18 0.290664 -2.54143 0
M  V30 14399 H 1407.82 0.848639 -5.0076 0
M  V30 14400 H 1407.75 2.57936 -4.59104 0
M  V30 14401 H 1410.25 1.48856 -3.47347 0
M  V30 14402 H 1410.56 2.45938 -7.32622 0
M  V30 14403 H 1408.9 2.21837 -6.58645 0
M  V30 14404 H 1412.09 1.76612 -4.33504 0
M  V30 14405 H 1412.27 2.20904 -6.09184 0
M  V30 14406 N 1405.67 1.39291 0.737279 0
M  V30 14407 C 1406.92 1.3639 1.49679 0
M  V30 14408 C 1407.25 -0.0408859 1.94457 0
M  V30 14409 O 1406.5 -1.02127 1.66939 0
M  V30 14410 C 1406.8 2.28043 2.75193 0
M  V30 14411 C 1406.47 3.75717 2.49294 0
M  V30 14412 C 1405.13 4.15955 2.41941 0
M  V30 14413 C 1407.48 4.69127 2.27088 0
M  V30 14414 C 1404.81 5.47669 2.10419 0
M  V30 14415 C 1407.16 6.01116 1.97084 0
M  V30 14416 C 1405.83 6.4042 1.88197 0
M  V30 14417 H 1405.1 0.499088 0.547716 0
M  V30 14418 H 1407.74 1.71779 0.846416 0
M  V30 14419 H 1406.05 1.85765 3.44962 0
M  V30 14420 H 1407.75 2.23093 3.33212 0
M  V30 14421 H 1404.34 3.43825 2.55896 0
M  V30 14422 H 1408.52 4.38875 2.31739 0
M  V30 14423 H 1403.78 5.77046 2.02059 0
M  V30 14424 H 1407.95 6.73026 1.78909 0
M  V30 14425 H 1405.58 7.42401 1.63537 0
M  V30 14426 N 1407.15 -0.967221 1.24429 0
M  V30 14427 C 1408.4 -1.70458 1.07829 0
M  V30 14428 C 1408.71 -1.91818 -0.38278 0
M  V30 14429 O 1409.92 -2.63129 -0.668982 0
M  V30 14430 C 1408.38 -3.06817 1.88125 0
M  V30 14431 C 1407.98 -2.93298 3.38645 0
M  V30 14432 C 1409.73 -3.84422 1.80056 0
M  V30 14433 C 1407.63 -4.2497 4.11284 0
M  V30 14434 H 1406.56 -0.639217 0.399897 0
M  V30 14435 H 1409.22 -1.07776 1.48515 0
M  V30 14436 H 1407.6 -3.70331 1.40254 0
M  V30 14437 H 1408.77 -2.38793 3.94099 0
M  V30 14438 H 1407.09 -2.29159 3.47671 0
M  V30 14439 H 1409.68 -4.81925 2.31629 0
M  V30 14440 H 1410.03 -4.09194 0.765908 0
M  V30 14441 H 1410.56 -3.27636 2.2561 0
M  V30 14442 H 1407.3 -4.05391 5.1511 0
M  V30 14443 H 1406.82 -4.79288 3.60615 0
M  V30 14444 H 1408.5 -4.93586 4.18308 0
M  V30 14445 N 1408.63 -1.05812 -1.16797 0
M  V30 14446 C 1409.91 -0.685551 -1.83193 0
M  V30 14447 C 1410.29 0.833539 -1.93947 0
M  V30 14448 O 1409.63 1.74193 -1.47882 0
M  V30 14449 C 1409.84 -1.38183 -3.20479 0
M  V30 14450 C 1411.19 -1.52389 -3.96311 0
M  V30 14451 O 1412.22 -1.34134 -3.2998 0
M  V30 14452 O 1411.08 -1.82297 -5.15199 0
M  V30 14453 H 1408.17 -0.242095 -0.790771 0
M  V30 14454 H 1410.72 -1.15809 -1.24041 0
M  V30 14455 H 1409.49 -2.41791 -3.07657 0
M  V30 14456 H 1409.11 -0.899043 -3.87302 0
M  V30 14457 N 1410.11 1.33347 -0.840014 0
M  V30 14458 C 1411.02 2.32965 -0.276527 0
M  V30 14459 C 1412.03 1.634 0.598037 0
M  V30 14460 O 1413.21 1.95046 0.501888 0
M  V30 14461 C 1410.27 3.42498 0.53816 0
M  V30 14462 C 1409.34 4.27781 -0.360814 0
M  V30 14463 C 1408.57 5.32083 0.415085 0
M  V30 14464 O 1408.79 5.46115 1.64666 0
M  V30 14465 O 1407.73 6.01528 -0.211503 0
M  V30 14466 H 1411.55 2.83022 -1.10147 0
M  V30 14467 H 1409.14 1.3671 -0.602566 0
M  V30 14468 H 1411.02 4.09336 1.00108 0
M  V30 14469 H 1409.69 2.94655 1.34015 0
M  V30 14470 H 1408.6 3.63805 -0.871598 0
M  V30 14471 H 1409.93 4.7911 -1.1276 0
M  V30 14472 N 1411.59 0.596556 1.45873 0
M  V30 14473 C 1412.83 0.0850976 2.0152 0
M  V30 14474 C 1413.15 -1.28799 1.47208 0
M  V30 14475 O 1414.35 -1.89156 1.94762 0
M  V30 14476 C 1412.81 0.101488 3.59757 0
M  V30 14477 C 1412.42 1.47374 4.23066 0
M  V30 14478 C 1414.16 -0.355303 4.2301 0
M  V30 14479 C 1412.07 1.44711 5.73422 0
M  V30 14480 H 1411 0.0280444 0.753478 0
M  V30 14481 H 1413.65 0.750255 1.67462 0
M  V30 14482 H 1412.03 -0.630108 3.90955 0
M  V30 14483 H 1413.21 2.22617 4.03458 0
M  V30 14484 H 1411.52 1.87171 3.71962 0
M  V30 14485 H 1414.12 -0.394236 5.33245 0
M  V30 14486 H 1414.46 -1.37573 3.92911 0
M  V30 14487 H 1414.99 0.32267 3.96489 0
M  V30 14488 H 1411.73 2.44479 6.08203 0
M  V30 14489 H 1411.25 0.737102 5.95254 0
M  V30 14490 H 1412.93 1.16598 6.36407 0
M  V30 14491 N 1413.06 -1.53996 0.335095 0
M  V30 14492 C 1414.01 -2.26221 -0.541007 0
M  V30 14493 C 1415.01 -1.28053 -1.109 0
M  V30 14494 O 1416.21 -1.4579 -1.05571 0
M  V30 14495 H 1412.59 -0.726775 -0.193136 0
M  V30 14496 H 1414.56 -2.98263 0.0902792 0
M  V30 14497 C 1413.31 -3.04173 -1.68445 0
M  V30 14498 H 1412.63 -3.79537 -1.25665 0
M  V30 14499 H 1414.07 -3.57937 -2.27282 0
M  V30 14500 C 1412.53 -2.13162 -2.6089 0
M  V30 14501 O 1413.06 -1.7221 -3.62914 0
M  V30 14502 N 1411.26 -1.78414 -2.29384 0
M  V30 14503 H 1410.81 -2.11914 -1.46458 0
M  V30 14504 H 1410.77 -1.178 -2.91497 0
M  V30 14505 N 1414.54 -0.0635198 -1.57472 0
M  V30 14506 C 1415.77 0.620205 -1.9791 0
M  V30 14507 C 1416.19 1.62851 -0.941335 0
M  V30 14508 O 1415.55 1.81056 0.0940313 0
M  V30 14509 C 1415.6 1.27261 -3.37397 0
M  V30 14510 O 1414.7 2.38841 -3.36197 0
M  V30 14511 H 1414.04 0.16021 -0.644382 0
M  V30 14512 H 1416.57 -0.135582 -2.0415 0
M  V30 14513 H 1416.58 1.6214 -3.74399 0
M  V30 14514 H 1415.26 0.533723 -4.12461 0
M  V30 14515 H 1413.83 2.05817 -3.10956 0
M  V30 14516 N 1416.02 1.56195 0.209972 0
M  V30 14517 C 1417.27 1.80011 0.93402 0
M  V30 14518 C 1417.6 0.635109 1.83521 0
M  V30 14519 O 1416.87 -0.365099 1.91043 0
M  V30 14520 C 1417.16 3.13989 1.76304 0
M  V30 14521 C 1417.01 4.40956 0.887567 0
M  V30 14522 C 1418.33 3.44514 2.73857 0
M  V30 14523 H 1415.45 0.654859 0.338125 0
M  V30 14524 H 1418.09 1.88921 0.20221 0
M  V30 14525 H 1416.24 3.06524 2.38695 0
M  V30 14526 H 1417.91 4.60452 0.279507 0
M  V30 14527 H 1416.15 4.33368 0.193533 0
M  V30 14528 H 1416.83 5.31164 1.50228 0
M  V30 14529 H 1419.3 3.52182 2.216 0
M  V30 14530 H 1418.18 4.39407 3.28957 0
M  V30 14531 H 1418.44 2.6726 3.52171 0
M  V30 14532 N 1417.5 -0.477127 1.50204 0
M  V30 14533 C 1418.73 -1.25307 1.64638 0
M  V30 14534 C 1419.14 -1.85942 0.327274 0
M  V30 14535 O 1418.5 -1.6895 -0.690088 0
M  V30 14536 C 1418.55 -2.36616 2.73304 0
M  V30 14537 O 1418.27 -1.78469 4.00101 0
M  V30 14538 C 1419.77 -3.27595 2.98658 0
M  V30 14539 H 1416.99 -0.379192 0.553583 0
M  V30 14540 H 1419.53 -0.5702 1.9639 0
M  V30 14541 H 1417.69 -3.00689 2.44264 0
M  V30 14542 H 1418.1 -2.51722 4.60148 0
M  V30 14543 H 1419.58 -4.01921 3.7837 0
M  V30 14544 H 1420.05 -3.86017 2.09493 0
M  V30 14545 H 1420.66 -2.69264 3.29206 0
M  V30 14546 N 1418.98 -1.3968 -0.729882 0
M  V30 14547 C 1419.94 -1.38577 -1.82562 0
M  V30 14548 C 1420.94 -0.281994 -1.58308 0
M  V30 14549 O 1422.13 -0.540165 -1.65614 0
M  V30 14550 C 1419.26 -1.16343 -3.20433 0
M  V30 14551 H 1420.45 -2.36086 -1.84942 0
M  V30 14552 H 1418.01 -1.25319 -0.934063 0
M  V30 14553 H 1418.74 -0.195372 -3.23711 0
M  V30 14554 H 1418.53 -1.96282 -3.39435 0
M  V30 14555 H 1420.02 -1.18325 -4.00486 0
M  V30 14556 N 1420.45 0.960609 -1.2494 0
M  V30 14557 C 1421.36 2.0902 -1.06527 0
M  V30 14558 C 1422.38 1.74 -0.00406641 0
M  V30 14559 O 1423.56 2.00367 -0.203744 0
M  V30 14560 C 1420.62 3.39971 -0.679736 0
M  V30 14561 C 1419.68 3.88895 -1.81821 0
M  V30 14562 C 1418.92 5.13597 -1.45098 0
M  V30 14563 O 1419.14 5.69362 -0.343954 0
M  V30 14564 O 1418.07 5.57083 -2.27909 0
M  V30 14565 H 1421.9 2.27453 -2.01243 0
M  V30 14566 H 1419.48 1.07429 -1.03824 0
M  V30 14567 H 1421.37 4.18696 -0.47658 0
M  V30 14568 H 1420.04 3.22822 0.238231 0
M  V30 14569 H 1418.95 3.11201 -2.07617 0
M  V30 14570 H 1420.28 4.10533 -2.7152 0
M  V30 14571 N 1421.93 1.0643 1.16234 0
M  V30 14572 C 1422.88 0.676311 2.20669 0
M  V30 14573 C 1423.85 -0.327721 1.62835 0
M  V30 14574 O 1425.03 -0.216296 1.8957 0
M  V30 14575 C 1422.17 0.0703726 3.45028 0
M  V30 14576 C 1421.29 1.12475 4.17101 0
M  V30 14577 C 1420.42 0.484806 5.28983 0
M  V30 14578 C 1419.46 1.52262 5.9286 0
M  V30 14579 N 1418.6 0.905938 6.96231 0
M  V30 14580 H 1423.44 1.57129 2.53209 0
M  V30 14581 H 1420.98 0.7856 1.24365 0
M  V30 14582 H 1422.93 -0.298488 4.16131 0
M  V30 14583 H 1421.56 -0.788002 3.13034 0
M  V30 14584 H 1420.62 1.6113 3.44589 0
M  V30 14585 H 1421.93 1.91202 4.60698 0
M  V30 14586 H 1421.08 0.0630553 6.06667 0
M  V30 14587 H 1419.82 -0.334332 4.86553 0
M  V30 14588 H 1418.83 1.95425 5.13896 0
M  V30 14589 H 1420.05 2.34388 6.37369 0
M  V30 14590 H 1418 0.107536 6.55912 0
M  V30 14591 H 1417.91 1.63058 7.38206 0
M  V30 14592 H 1419.18 0.509378 7.77834 0
M  V30 14593 N 1423.41 -1.329 0.847073 0
M  V30 14594 C 1424.34 -2.31546 0.301422 0
M  V30 14595 C 1425.32 -1.59342 -0.595317 0
M  V30 14596 O 1426.51 -1.87188 -0.517151 0
M  V30 14597 C 1423.64 -3.43423 -0.517454 0
M  V30 14598 C 1422.59 -4.27055 0.284195 0
M  V30 14599 C 1421.92 -5.30624 -0.658944 0
M  V30 14600 C 1423.22 -5.00123 1.50578 0
M  V30 14601 H 1424.91 -2.77433 1.12567 0
M  V30 14602 H 1422.46 -1.3338 0.542739 0
M  V30 14603 H 1424.41 -4.11467 -0.909543 0
M  V30 14604 H 1423.13 -2.96246 -1.37499 0
M  V30 14605 H 1421.79 -3.60648 0.657944 0
M  V30 14606 H 1421.44 -4.79702 -1.51311 0
M  V30 14607 H 1421.14 -5.87464 -0.12662 0
M  V30 14608 H 1422.66 -6.01533 -1.04837 0
M  V30 14609 H 1424.08 -5.6089 1.18641 0
M  V30 14610 H 1422.48 -5.66652 1.97549 0
M  V30 14611 H 1423.55 -4.28424 2.27115 0
M  V30 14612 N 1424.89 -0.604284 -1.45555 0
M  V30 14613 C 1426.14 -0.0957836 -2.01472 0
M  V30 14614 C 1426.45 1.28016 -1.47889 0
M  V30 14615 O 1427.66 1.88121 -1.95762 0
M  V30 14616 C 1426.11 -0.120566 -3.59698 0
M  V30 14617 C 1425.72 -1.49616 -4.22278 0
M  V30 14618 C 1427.46 0.332865 -4.23193 0
M  V30 14619 C 1425.37 -1.4775 -5.72646 0
M  V30 14620 H 1424.3 -0.0320399 -0.753319 0
M  V30 14621 H 1426.95 -0.759125 -1.67061 0
M  V30 14622 H 1425.33 0.609365 -3.91283 0
M  V30 14623 H 1426.51 -2.24753 -4.02272 0
M  V30 14624 H 1424.82 -1.89141 -3.70965 0
M  V30 14625 H 1427.42 0.365951 -5.33446 0
M  V30 14626 H 1427.76 1.35487 -3.93635 0
M  V30 14627 H 1428.3 -0.343692 -3.96313 0
M  V30 14628 H 1425.04 -2.47701 -6.06898 0
M  V30 14629 H 1424.56 -0.768659 -5.94854 0
M  V30 14630 H 1426.23 -1.19971 -6.3578 0
M  V30 14631 N 1426.37 1.53816 -0.343257 0
M  V30 14632 C 1427.6 2.05028 0.254375 0
M  V30 14633 C 1428 1.21793 1.44786 0
M  V30 14634 O 1427.35 0.246075 1.82044 0
M  V30 14635 C 1427.41 3.5194 0.733364 0
M  V30 14636 C 1427.07 4.5573 -0.340434 0
M  V30 14637 C 1428.07 5.06261 -1.18304 0
M  V30 14638 C 1425.76 4.99862 -0.494277 0
M  V30 14639 C 1427.75 5.99504 -2.16503 0
M  V30 14640 C 1425.44 5.92916 -1.47967 0
M  V30 14641 C 1426.43 6.42625 -2.3135 0
M  V30 14642 O 1426.12 7.33848 -3.28211 0
M  V30 14643 H 1425.85 0.673922 0.0529695 0
M  V30 14644 H 1428.41 1.99387 -0.493352 0
M  V30 14645 H 1426.64 3.55044 1.53233 0
M  V30 14646 H 1428.33 3.86124 1.25151 0
M  V30 14647 H 1429.09 4.7293 -1.07527 0
M  V30 14648 H 1424.97 4.60772 0.144904 0
M  V30 14649 H 1428.52 6.38227 -2.81624 0
M  V30 14650 H 1424.41 6.25662 -1.588 0
M  V30 14651 H 1425.18 7.51781 -3.23679 0
M  V30 14652 N 1427.84 0.0718701 1.57436 0
M  V30 14653 C 1428.79 -0.913026 2.13931 0
M  V30 14654 C 1429.79 -1.3082 1.07622 0
M  V30 14655 O 1430.99 -1.28544 1.26002 0
M  V30 14656 H 1427.37 -0.31238 0.684049 0
M  V30 14657 H 1429.34 -0.411613 2.95547 0
M  V30 14658 C 1428.09 -2.17109 2.71586 0
M  V30 14659 H 1427.41 -1.87585 3.53061 0
M  V30 14660 H 1428.85 -2.84134 3.14712 0
M  V30 14661 C 1427.31 -2.92967 1.6635 0
M  V30 14662 O 1427.84 -3.8667 1.08854 0
M  V30 14663 N 1426.05 -2.56075 1.37383 0
M  V30 14664 H 1425.59 -1.79949 1.84326 0
M  V30 14665 H 1425.55 -3.07134 0.672039 0
M  V30 14666 N 1429.32 -1.56304 -0.201686 0
M  V30 14667 C 1430.56 -1.82021 -0.929934 0
M  V30 14668 C 1430.93 -0.648382 -1.80721 0
M  V30 14669 O 1432.13 -0.785292 -2.57073 0
M  V30 14670 C 1430.4 -3.12731 -1.73014 0
M  V30 14671 S 1431.96 -3.59831 -2.51131 0
M  V30 14672 H 1428.78 -0.638874 -0.312027 0
M  V30 14673 H 1431.38 -1.94536 -0.193861 0
M  V30 14674 H 1430.08 -3.96039 -1.07616 0
M  V30 14675 H 1429.61 -3.03076 -2.50816 0
M  V30 14676 H 1431.63 -3.24744 -3.75174 0
M  V30 14677 N 1430.8 0.469154 -1.50455 0
M  V30 14678 C 1431.76 1.5493 -1.68906 0
M  V30 14679 C 1432.76 1.50744 -0.559721 0
M  V30 14680 O 1433.95 1.5333 -0.826781 0
M  V30 14681 C 1431.09 2.94556 -1.71609 0
M  V30 14682 H 1432.28 1.39887 -2.65276 0
M  V30 14683 H 1429.83 0.695667 -1.39965 0
M  V30 14684 H 1430.57 3.15041 -0.769382 0
M  V30 14685 H 1430.35 2.99002 -2.53654 0
M  V30 14686 H 1431.84 3.72973 -1.87831 0
M  V30 14687 N 1432.28 1.40065 0.722464 0
M  V30 14688 C 1433.52 1.38175 1.48444 0
M  V30 14689 C 1433.86 -0.0182857 1.94191 0
M  V30 14690 O 1433.13 -0.985638 1.67677 0
M  V30 14691 C 1433.42 2.36518 2.71535 0
M  V30 14692 C 1433.27 3.85517 2.31726 0
M  V30 14693 C 1434.59 2.325 3.73673 0
M  V30 14694 H 1431.71 0.503221 0.538458 0
M  V30 14695 H 1434.35 1.7115 0.825087 0
M  V30 14696 H 1432.5 2.08529 3.27793 0
M  V30 14697 H 1434.17 4.24306 1.81003 0
M  V30 14698 H 1432.41 4.01684 1.63807 0
M  V30 14699 H 1433.08 4.49834 3.19928 0
M  V30 14700 H 1435.56 2.57277 3.27029 0
M  V30 14701 H 1434.44 3.03369 4.57447 0
M  V30 14702 H 1434.7 1.33427 4.21485 0
M  V30 14703 N 1433.76 -0.95397 1.25448 0
M  V30 14704 C 1434.67 -2.08452 1.07634 0
M  V30 14705 C 1435.68 -1.73995 0.013294 0
M  V30 14706 O 1436.86 -2.00256 0.214367 0
M  V30 14707 C 1433.92 -3.39606 0.697756 0
M  V30 14708 C 1432.99 -3.87926 1.83881 0
M  V30 14709 C 1432.22 -5.12821 1.47819 0
M  V30 14710 O 1432.44 -5.69172 0.374143 0
M  V30 14711 O 1431.38 -5.55866 2.3086 0
M  V30 14712 H 1435.2 -2.26382 2.02447 0
M  V30 14713 H 1432.79 -1.06877 1.04392 0
M  V30 14714 H 1434.67 -4.18438 0.498778 0
M  V30 14715 H 1433.34 -3.22944 -0.221108 0
M  V30 14716 H 1432.25 -3.10095 2.09265 0
M  V30 14717 H 1433.58 -4.09087 2.73694 0
M  V30 14718 N 1435.24 -1.07045 -1.15668 0
M  V30 14719 C 1436.17 -0.632171 -2.19269 0
M  V30 14720 C 1437.15 0.348973 -1.58811 0
M  V30 14721 O 1438.33 0.256137 -1.86752 0
M  V30 14722 C 1435.46 0.0721491 -3.38623 0
M  V30 14723 C 1434.5 -0.866947 -4.17596 0
M  V30 14724 S 1435.34 -2.36628 -4.80382 0
M  V30 14725 C 1436.49 -1.67367 -6.03108 0
M  V30 14726 H 1436.73 -1.50986 -2.56106 0
M  V30 14727 H 1434.26 -0.884123 -1.2658 0
M  V30 14728 H 1436.22 0.472272 -4.07774 0
M  V30 14729 H 1434.88 0.926138 -3.00136 0
M  V30 14730 H 1434.07 -0.320814 -5.02978 0
M  V30 14731 H 1433.67 -1.20731 -3.53977 0
M  V30 14732 H 1435.96 -0.983606 -6.70322 0
M  V30 14733 H 1436.91 -2.50569 -6.62284 0
M  V30 14734 H 1437.32 -1.15299 -5.526 0
M  V30 14735 N 1436.71 1.32449 -0.85411 0
M  V30 14736 C 1437.96 1.97563 -0.4579 0
M  V30 14737 C 1438.29 1.67435 0.983835 0
M  V30 14738 O 1437.57 0.962292 1.69027 0
M  V30 14739 C 1437.85 3.53292 -0.69688 0
M  V30 14740 C 1437.7 3.93053 -2.18699 0
M  V30 14741 C 1439.02 4.39834 -0.152917 0
M  V30 14742 H 1436.14 0.717634 -0.167842 0
M  V30 14743 H 1438.78 1.5684 -1.07243 0
M  V30 14744 H 1436.93 3.88111 -0.173807 0
M  V30 14745 H 1438.61 3.68416 -2.7761 0
M  V30 14746 H 1436.85 3.42232 -2.6657 0
M  V30 14747 H 1437.52 5.01576 -2.3049 0
M  V30 14748 H 1440 4.11748 -0.600216 0
M  V30 14749 H 1438.87 5.47785 -0.349703 0
M  V30 14750 H 1439.13 4.31898 0.944276 0
M  V30 14751 N 1438.19 0.611994 1.45232 0
M  V30 14752 C 1439.12 -0.142449 2.28757 0
M  V30 14753 C 1440.14 -0.827486 1.40202 0
M  V30 14754 O 1441.33 -0.692136 1.64535 0
M  V30 14755 C 1438.43 -1.22296 3.16065 0
M  V30 14756 C 1437.6 -0.624178 4.32924 0
M  V30 14757 C 1436.66 -1.59615 5.01408 0
M  V30 14758 O 1435.68 -1.12073 5.58058 0
M  V30 14759 N 1436.89 -2.93057 5.01097 0
M  V30 14760 H 1439.65 0.574276 2.94147 0
M  V30 14761 H 1437.21 0.451789 1.55469 0
M  V30 14762 H 1439.2 -1.87309 3.58744 0
M  V30 14763 H 1437.77 -1.84215 2.52554 0
M  V30 14764 H 1436.99 0.204141 3.93671 0
M  V30 14765 H 1438.28 -0.204435 5.08389 0
M  V30 14766 H 1437.68 -3.3428 4.5637 0
M  V30 14767 H 1436.24 -3.53481 5.47626 0
M  V30 14768 N 1439.67 -1.53632 0.351409 0
M  V30 14769 C 1440.89 -2.0593 -0.246501 0
M  V30 14770 C 1441.32 -1.22419 -1.42812 0
M  V30 14771 O 1440.68 -0.239811 -1.79707 0
M  V30 14772 C 1440.73 -3.55021 -0.631862 0
M  V30 14773 O 1439.83 -3.74317 -1.73092 0
M  V30 14774 H 1439.17 -0.662839 -0.0392424 0
M  V30 14775 H 1441.7 -1.98196 0.507904 0
M  V30 14776 H 1441.71 -3.97795 -0.906831 0
M  V30 14777 H 1440.39 -4.15251 0.232224 0
M  V30 14778 H 1438.96 -3.43444 -1.4526 0
M  V30 14779 N 1441.15 -0.0802183 -1.57396 0
M  V30 14780 C 1442.11 0.869437 -2.12069 0
M  V30 14781 C 1443.11 1.22079 -1.04658 0
M  V30 14782 O 1444.3 1.15267 -1.3061 0
M  V30 14783 C 1441.43 2.17016 -2.62901 0
M  V30 14784 H 1442.63 0.394952 -2.97288 0
M  V30 14785 H 1440.18 0.168597 -1.55388 0
M  V30 14786 H 1440.91 2.68983 -1.8116 0
M  V30 14787 H 1440.7 1.92808 -3.4142 0
M  V30 14788 H 1442.19 2.84982 -3.05246 0
M  V30 14789 N 1442.63 1.56409 0.193394 0
M  V30 14790 C 1443.59 1.93822 1.22334 0
M  V30 14791 C 1444.59 0.819513 1.3835 0
M  V30 14792 O 1445.78 1.0869 1.36132 0
M  V30 14793 C 1442.91 2.21375 2.59241 0
M  V30 14794 H 1444.1 2.85967 0.903502 0
M  V30 14795 H 1441.66 1.50125 0.43498 0
M  V30 14796 H 1442.39 1.31874 2.96277 0
M  V30 14797 H 1442.18 3.02899 2.48988 0
M  V30 14798 H 1443.67 2.51319 3.33509 0
M  V30 14799 N 1444.1 -0.461169 1.50702 0
M  V30 14800 C 1445.03 -1.56576 1.73223 0
M  V30 14801 C 1446.01 -1.59855 0.581401 0
M  V30 14802 O 1447.2 -1.75964 0.821602 0
M  V30 14803 C 1444.33 -2.94835 1.83548 0
M  V30 14804 C 1443.28 -3.06421 2.98815 0
M  V30 14805 C 1442.61 -4.46425 2.94293 0
M  V30 14806 C 1443.91 -2.82714 4.3917 0
M  V30 14807 H 1445.6 -1.37982 2.65709 0
M  V30 14808 H 1443.15 -0.662362 1.27862 0
M  V30 14809 H 1445.1 -3.72047 1.97887 0
M  V30 14810 H 1443.83 -3.14608 0.876906 0
M  V30 14811 H 1442.49 -2.31644 2.84142 0
M  V30 14812 H 1442.13 -4.63131 1.96262 0
M  V30 14813 H 1441.83 -4.55111 3.71682 0
M  V30 14814 H 1443.36 -5.25644 3.10695 0
M  V30 14815 H 1444.77 -3.4967 4.54317 0
M  V30 14816 H 1443.17 -3.02835 5.18084 0
M  V30 14817 H 1444.24 -1.78492 4.50853 0
M  V30 14818 N 1445.58 -1.40446 -0.715026 0
M  V30 14819 C 1446.86 -1.29253 -1.4681 0
M  V30 14820 C 1447.24 0.0888738 -2.10913 0
M  V30 14821 O 1446.59 1.10172 -2.00186 0
M  V30 14822 C 1446.8 -2.43173 -2.50335 0
M  V30 14823 C 1448.14 -2.83433 -3.1615 0
M  V30 14824 O 1449.17 -2.4277 -2.60655 0
M  V30 14825 O 1448.03 -3.53687 -4.16615 0
M  V30 14826 H 1445.12 -0.507627 -0.652873 0
M  V30 14827 H 1447.67 -1.52367 -0.747153 0
M  V30 14828 H 1446.44 -3.35438 -2.01486 0
M  V30 14829 H 1446.06 -2.21832 -3.29964 0
M  V30 14830 N 1447.06 0.947303 -1.25952 0
M  V30 14831 C 1447.97 2.07878 -1.08738 0
M  V30 14832 C 1448.99 1.73985 -0.0225212 0
M  V30 14833 O 1450.16 2.00139 -0.224984 0
M  V30 14834 C 1447.23 3.39231 -0.715756 0
M  V30 14835 C 1446.29 3.86945 -1.85935 0
M  V30 14836 C 1445.52 5.1203 -1.50537 0
M  V30 14837 O 1445.74 5.68965 -0.404323 0
M  V30 14838 O 1444.68 5.54634 -2.33805 0
M  V30 14839 H 1448.5 2.25305 -2.03645 0
M  V30 14840 H 1446.09 1.06321 -1.04958 0
M  V30 14841 H 1447.97 4.18167 -0.520962 0
M  V30 14842 H 1446.65 3.23057 0.203978 0
M  V30 14843 H 1445.55 3.08981 -2.10906 0
M  V30 14844 H 1446.89 4.0763 -2.75859 0
M  V30 14845 N 1448.54 1.07657 1.15099 0
M  V30 14846 C 1449.47 0.643791 2.18931 0
M  V30 14847 C 1450.45 -0.340546 1.58994 0
M  V30 14848 O 1451.63 -0.24623 1.86885 0
M  V30 14849 C 1448.76 -0.0541901 3.38657 0
M  V30 14850 C 1447.81 0.889081 4.1713 0
M  V30 14851 S 1448.64 2.39173 4.79121 0
M  V30 14852 C 1449.8 1.70563 6.02212 0
M  V30 14853 H 1450.03 1.52342 2.55302 0
M  V30 14854 H 1447.56 0.890824 1.2611 0
M  V30 14855 H 1449.52 -0.45064 4.08019 0
M  V30 14856 H 1448.18 -0.910208 3.00623 0
M  V30 14857 H 1447.37 0.347484 5.02801 0
M  V30 14858 H 1446.98 1.22606 3.53332 0
M  V30 14859 H 1449.27 1.01914 6.69791 0
M  V30 14860 H 1450.21 2.54078 6.60946 0
M  V30 14861 H 1450.62 1.18228 5.51981 0
M  V30 14862 N 1450.02 -1.31994 0.861122 0
M  V30 14863 C 1451.26 -1.97025 0.467678 0
M  V30 14864 C 1451.59 -1.68116 -0.978129 0
M  V30 14865 O 1450.85 -0.965342 -1.70234 0
M  V30 14866 C 1451.15 -3.51232 0.661135 0
M  V30 14867 C 1450.81 -4.00142 2.07839 0
M  V30 14868 C 1449.47 -4.1321 2.466 0
M  V30 14869 C 1451.83 -4.25986 3.00309 0
M  V30 14870 C 1449.15 -4.49467 3.7709 0
M  V30 14871 C 1451.51 -4.63704 4.30304 0
M  V30 14872 C 1450.17 -4.74978 4.68991 0
M  V30 14873 H 1449.44 -0.720967 0.171136 0
M  V30 14874 H 1452.09 -1.57285 1.09242 0
M  V30 14875 H 1450.39 -3.91772 -0.0467947 0
M  V30 14876 H 1452.09 -3.99584 0.336669 0
M  V30 14877 H 1448.68 -3.90461 1.76743 0
M  V30 14878 H 1452.86 -4.15393 2.71592 0
M  V30 14879 H 1448.12 -4.56391 4.06838 0
M  V30 14880 H 1452.29 -4.82654 5.02014 0
M  V30 14881 H 1449.92 -5.02828 5.70147 0
M  V30 14882 N 1451.49 -0.619688 -1.44906 0
M  V30 14883 C 1452.43 0.130316 -2.28829 0
M  V30 14884 C 1453.44 0.820039 -1.40639 0
M  V30 14885 O 1454.63 0.683401 -1.649 0
M  V30 14886 C 1451.73 1.20618 -3.16709 0
M  V30 14887 C 1450.9 0.60121 -4.33248 0
M  V30 14888 C 1449.96 1.56954 -5.02247 0
M  V30 14889 O 1448.99 1.09112 -5.58644 0
M  V30 14890 N 1450.19 2.90395 -5.02644 0
M  V30 14891 H 1452.95 -0.589867 -2.93838 0
M  V30 14892 H 1450.51 -0.460028 -1.55227 0
M  V30 14893 H 1452.51 1.85404 -3.59732 0
M  V30 14894 H 1451.08 1.82873 -2.53528 0
M  V30 14895 H 1450.3 -0.225015 -3.93557 0
M  V30 14896 H 1451.58 0.177471 -5.0849 0
M  V30 14897 H 1450.98 3.31855 -4.58136 0
M  V30 14898 H 1449.54 3.50572 -5.49493 0
M  V30 14899 N 1452.97 1.53444 -0.359552 0
M  V30 14900 C 1453.9 2.23121 0.524379 0
M  V30 14901 C 1454.92 1.24324 1.05106 0
M  V30 14902 O 1456.11 1.50584 0.958476 0
M  V30 14903 C 1453.21 2.91055 1.7361 0
M  V30 14904 C 1452.38 4.16306 1.34195 0
M  V30 14905 C 1451.44 4.67504 2.41508 0
M  V30 14906 O 1450.46 5.3133 2.04149 0
M  V30 14907 N 1451.67 4.44801 3.73005 0
M  V30 14908 H 1454.43 2.99612 -0.072427 0
M  V30 14909 H 1451.99 1.60846 -0.184438 0
M  V30 14910 H 1453.98 3.22216 2.44865 0
M  V30 14911 H 1452.55 2.18052 2.23991 0
M  V30 14912 H 1451.77 3.91513 0.459501 0
M  V30 14913 H 1453.06 4.97746 1.05483 0
M  V30 14914 H 1452.46 3.9379 4.06136 0
M  V30 14915 H 1451.02 4.80528 4.40382 0
M  V30 14916 N 1454.45 0.0885642 1.57351 0
M  V30 14917 C 1455.68 -0.585238 1.9845 0
M  V30 14918 C 1456.09 -1.62127 0.967483 0
M  V30 14919 O 1455.45 -1.82448 -0.0437565 0
M  V30 14920 C 1455.5 -1.23881 3.39611 0
M  V30 14921 O 1455.22 -0.244223 4.37419 0
M  V30 14922 C 1456.72 -1.99885 3.95678 0
M  V30 14923 H 1453.94 -0.157396 0.652279 0
M  V30 14924 H 1456.49 0.165923 2.03826 0
M  V30 14925 H 1454.64 -1.94094 3.3527 0
M  V30 14926 H 1455.06 -0.715149 5.19602 0
M  V30 14927 H 1456.53 -2.40983 4.9662 0
M  V30 14928 H 1457.01 -2.8621 3.33137 0
M  V30 14929 H 1457.61 -1.34501 4.03472 0
M  V30 14930 N 1455.93 -1.56509 -0.185096 0
M  V30 14931 C 1456.84 -1.98552 -1.24958 0
M  V30 14932 C 1457.85 -0.894713 -1.49234 0
M  V30 14933 O 1459.03 -1.20126 -1.61653 0
M  V30 14934 C 1456.1 -2.32513 -2.57175 0
M  V30 14935 C 1455.16 -3.55351 -2.40882 0
M  V30 14936 C 1454.39 -3.87683 -3.66794 0
M  V30 14937 O 1454.61 -3.21167 -4.7139 0
M  V30 14938 O 1453.55 -4.8108 -3.61726 0
M  V30 14939 H 1457.37 -2.89342 -0.922756 0
M  V30 14940 H 1454.96 -1.44196 -0.390887 0
M  V30 14941 H 1456.84 -2.55387 -3.35195 0
M  V30 14942 H 1455.51 -1.44888 -2.89464 0
M  V30 14943 H 1454.42 -3.37712 -1.60939 0
M  V30 14944 H 1455.75 -4.43474 -2.13522 0
M  V30 14945 N 1457.41 0.45317 -1.50944 0
M  V30 14946 C 1458.68 1.21413 -1.53357 0
M  V30 14947 C 1459.06 2.09118 -0.288584 0
M  V30 14948 O 1458.41 2.16621 0.727164 0
M  V30 14949 C 1458.62 2.02969 -2.83909 0
M  V30 14950 C 1459.97 2.60551 -3.35258 0
M  V30 14951 O 1460.99 2.13196 -2.85353 0
M  V30 14952 O 1459.85 3.46881 -4.22298 0
M  V30 14953 H 1456.95 0.551909 -0.615894 0
M  V30 14954 H 1459.49 0.463529 -1.63247 0
M  V30 14955 H 1458.26 1.38453 -3.65987 0
M  V30 14956 H 1457.89 2.85127 -2.77107 0
M  V30 14957 N 1458.88 1.40823 0.707568 0
M  V30 14958 C 1460.13 1.38837 1.46312 0
M  V30 14959 C 1460.45 -0.00353939 1.956 0
M  V30 14960 O 1461.65 -0.146022 2.71107 0
M  V30 14961 C 1460.11 2.44052 2.64512 0
M  V30 14962 C 1459.72 3.89093 2.2206 0
M  V30 14963 C 1461.46 2.51185 3.42208 0
M  V30 14964 C 1459.37 4.85887 3.37147 0
M  V30 14965 H 1458.3 0.516263 0.549535 0
M  V30 14966 H 1460.95 1.66595 0.769302 0
M  V30 14967 H 1459.33 2.09406 3.36103 0
M  V30 14968 H 1460.5 4.32925 1.57837 0
M  V30 14969 H 1458.82 3.8551 1.57388 0
M  V30 14970 H 1461.42 3.20687 4.2786 0
M  V30 14971 H 1461.76 1.54488 3.86574 0
M  V30 14972 H 1462.29 2.84862 2.77666 0
M  V30 14973 H 1459.03 5.83946 2.97805 0
M  V30 14974 H 1458.55 4.46713 4.00259 0
M  V30 14975 H 1460.23 5.06084 4.03098 0
M  V30 14976 N 1460.36 -0.94061 1.26453 0
M  V30 14977 C 1461.61 -1.68937 1.12197 0
M  V30 14978 C 1461.94 -1.91309 -0.33382 0
M  V30 14979 O 1461.22 -1.49417 -1.24518 0
M  V30 14980 C 1461.5 -3.06381 1.89215 0
M  V30 14981 C 1461.35 -2.91331 3.42704 0
M  V30 14982 C 1462.67 -4.06507 1.68642 0
M  V30 14983 H 1459.79 -0.613121 0.408964 0
M  V30 14984 H 1462.43 -1.09242 1.55455 0
M  V30 14985 H 1460.58 -3.57339 1.5245 0
M  V30 14986 H 1462.25 -2.47591 3.89226 0
M  V30 14987 H 1460.5 -2.26945 3.697 0
M  V30 14988 H 1461.17 -3.88818 3.91822 0
M  V30 14989 H 1463.64 -3.64512 2.00674 0
M  V30 14990 H 1462.52 -5.0069 2.24945 0
M  V30 14991 H 1462.78 -4.37572 0.631131 0
M  V30 14992 N 1461.84 -1.08266 -1.14527 0
M  V30 14993 C 1463.07 -0.831673 -1.89121 0
M  V30 14994 C 1463.48 0.619702 -1.78763 0
M  V30 14995 O 1462.82 1.43748 -1.14377 0
M  V30 14996 C 1462.88 -1.17276 -3.39833 0
M  V30 14997 C 1462.55 -2.62662 -3.73975 0
M  V30 14998 C 1463.54 -3.60913 -3.74216 0
M  V30 14999 C 1461.23 -2.9848 -4.03999 0
M  V30 15000 C 1463.22 -4.93012 -4.04002 0
M  V30 15001 C 1460.91 -4.30773 -4.33448 0
M  V30 15002 C 1461.91 -5.27849 -4.33433 0
M  V30 15003 O 1461.6 -6.57765 -4.6217 0
M  V30 15004 H 1461.33 -0.299687 -0.60594 0
M  V30 15005 H 1463.88 -1.44498 -1.45978 0
M  V30 15006 H 1462.11 -0.502458 -3.83422 0
M  V30 15007 H 1463.8 -0.902831 -3.95732 0
M  V30 15008 H 1464.57 -3.34585 -3.5111 0
M  V30 15009 H 1460.45 -2.23561 -4.03164 0
M  V30 15010 H 1463.99 -5.68776 -4.03906 0
M  V30 15011 H 1459.89 -4.5685 -4.56024 0
M  V30 15012 H 1460.66 -6.63057 -4.79893 0
M  V30 15013 N 1463.32 1.31536 -0.86811 0
M  V30 15014 C 1464.74 1.49461 -0.559778 0
M  V30 15015 C 1464.94 1.79957 0.906525 0
M  V30 15016 O 1463.99 1.87711 1.68881 0
M  V30 15017 C 1465.3 2.62967 -1.45839 0
M  V30 15018 C 1466.85 2.76851 -1.46023 0
M  V30 15019 C 1467.33 3.93451 -2.34436 0
M  V30 15020 N 1468.82 4.00735 -2.32306 0
M  V30 15021 C 1469.55 4.90223 -2.97437 0
M  V30 15022 N 1469.05 5.84626 -3.71731 0
M  V30 15023 N 1470.84 4.83454 -2.86755 0
M  V30 15024 H 1462.99 1.1001 -1.81691 0
M  V30 15025 H 1465.26 0.543418 -0.776789 0
M  V30 15026 H 1464.96 2.47203 -2.50168 0
M  V30 15027 H 1464.84 3.59063 -1.15556 0
M  V30 15028 H 1467.22 2.9203 -0.424527 0
M  V30 15029 H 1467.3 1.81427 -1.80327 0
M  V30 15030 H 1466.95 3.79029 -3.38082 0
M  V30 15031 H 1466.88 4.88179 -1.97457 0
M  V30 15032 H 1469.37 3.33191 -1.78303 0
M  V30 15033 H 1469.68 6.49635 -4.18562 0
M  V30 15034 H 1468.03 5.84611 -3.75839 0
M  V30 15035 H 1471.22 4.08678 -2.28254 0
M  V30 15036 H 1471.39 5.52991 -3.37795 0
M  V30 15037 N 1464.8 0.627364 1.44575 0
M  V30 15038 C 1466.03 0.137114 2.06145 0
M  V30 15039 C 1466.44 -1.19201 1.46928 0
M  V30 15040 O 1465.78 -1.7413 0.585199 0
M  V30 15041 C 1465.84 -0.0560229 3.59456 0
M  V30 15042 C 1465.5 1.19435 4.41117 0
M  V30 15043 C 1466.5 2.11717 4.74839 0
M  V30 15044 C 1464.19 1.42871 4.81553 0
M  V30 15045 C 1466.18 3.25749 5.47875 0
M  V30 15046 C 1463.87 2.572 5.54339 0
M  V30 15047 C 1464.87 3.48466 5.87419 0
M  V30 15048 O 1464.55 4.60802 6.58723 0
M  V30 15049 H 1464.29 0.0751614 0.671809 0
M  V30 15050 H 1466.84 0.86076 1.86494 0
M  V30 15051 H 1465.07 -0.834775 3.77582 0
M  V30 15052 H 1466.76 -0.500352 4.02804 0
M  V30 15053 H 1467.52 1.94844 4.44141 0
M  V30 15054 H 1463.4 0.727246 4.55228 0
M  V30 15055 H 1466.95 3.97007 5.73612 0
M  V30 15056 H 1462.84 2.74018 5.84452 0
M  V30 15057 H 1463.61 4.59736 6.77189 0
M  V30 15058 N 1466.28 -1.53251 0.367684 0
M  V30 15059 C 1467.23 -2.22578 -0.494287 0
M  V30 15060 C 1468.21 -1.22175 -1.047 0
M  V30 15061 O 1469.4 -1.47613 -0.976696 0
M  V30 15062 C 1466.53 -3.02007 -1.63238 0
M  V30 15063 C 1465.62 -4.09788 -1.09244 0
M  V30 15064 N 1466.01 -5.05048 -0.275665 0
M  V30 15065 C 1464.31 -4.24532 -1.36705 0
M  V30 15066 C 1465.01 -5.81696 0.0201973 0
M  V30 15067 N 1463.98 -5.40518 -0.577991 0
M  V30 15068 H 1467.78 -2.93583 0.136532 0
M  V30 15069 H 1465.3 -1.61446 0.175813 0
M  V30 15070 H 1467.3 -3.50193 -2.26209 0
M  V30 15071 H 1465.96 -2.32533 -2.26624 0
M  V30 15072 H 1466.97 -5.1783 0.0853053 0
M  V30 15073 H 1463.64 -3.66285 -2.00354 0
M  V30 15074 H 1465.03 -6.68444 0.680622 0
M  V30 15075 N 1467.75 -0.0969077 -1.57302 0
M  V30 15076 C 1468.7 0.861379 -2.14124 0
M  V30 15077 C 1469.67 1.27858 -1.06026 0
M  V30 15078 O 1470.86 1.36001 -1.33822 0
M  V30 15079 C 1468 2.11443 -2.72738 0
M  V30 15080 C 1467.11 1.7476 -3.95074 0
M  V30 15081 C 1466.24 2.94864 -4.41847 0
M  V30 15082 C 1465.28 2.54316 -5.56767 0
M  V30 15083 N 1464.42 3.67261 -5.98384 0
M  V30 15084 H 1469.26 0.369968 -2.95694 0
M  V30 15085 H 1466.8 0.170943 -1.46103 0
M  V30 15086 H 1468.75 2.84829 -3.04842 0
M  V30 15087 H 1467.38 2.5808 -1.93893 0
M  V30 15088 H 1466.44 0.91335 -3.69272 0
M  V30 15089 H 1467.75 1.40946 -4.78472 0
M  V30 15090 H 1466.9 3.76501 -4.75744 0
M  V30 15091 H 1465.64 3.31889 -3.57352 0
M  V30 15092 H 1464.65 1.71106 -5.22497 0
M  V30 15093 H 1465.87 2.18432 -6.43012 0
M  V30 15094 H 1463.82 4.04001 -5.16836 0
M  V30 15095 H 1463.73 3.37298 -6.76584 0
M  V30 15096 H 1465 4.49403 -6.36912 0
M  V30 15097 N 1469.23 1.56605 0.176793 0
M  V30 15098 C 1470.19 1.95109 1.20271 0
M  V30 15099 C 1471.19 0.83414 1.37473 0
M  V30 15100 O 1472.38 1.10128 1.34972 0
M  V30 15101 C 1469.52 2.24112 2.56878 0
M  V30 15102 H 1470.71 2.86909 0.87312 0
M  V30 15103 H 1468.26 1.50578 0.419033 0
M  V30 15104 H 1469 1.35009 2.94861 0
M  V30 15105 H 1468.78 3.05523 2.45761 0
M  V30 15106 H 1470.27 2.54842 3.30825 0
M  V30 15107 N 1470.71 -0.445159 1.51182 0
M  V30 15108 C 1471.67 -1.52224 1.71349 0
M  V30 15109 C 1472.67 -1.49834 0.583632 0
M  V30 15110 O 1473.86 -1.51995 0.85107 0
M  V30 15111 C 1470.99 -2.91789 1.76273 0
M  V30 15112 H 1472.19 -1.35649 2.67468 0
M  V30 15113 H 1469.74 -0.673312 1.41054 0
M  V30 15114 H 1470.48 -3.13777 0.819405 0
M  V30 15115 H 1470.26 -2.94928 2.58379 0
M  V30 15116 H 1471.75 -3.69938 1.93741 0
M  V30 15117 N 1472.19 -1.41197 -0.700089 0
M  V30 15118 C 1473.12 -1.45456 -1.8266 0
M  V30 15119 C 1474.1 -0.313719 -1.67182 0
M  V30 15120 O 1475.28 -0.524528 -1.86982 0
M  V30 15121 C 1472.41 -1.33161 -3.20758 0
M  V30 15122 C 1471.37 -2.4501 -3.50933 0
M  V30 15123 C 1470.69 -2.17782 -4.88339 0
M  V30 15124 C 1471.99 -3.87352 -3.50365 0
M  V30 15125 H 1473.69 -2.39735 -1.79353 0
M  V30 15126 H 1471.23 -1.1539 -0.861465 0
M  V30 15127 H 1473.19 -1.34754 -3.99274 0
M  V30 15128 H 1471.91 -0.353646 -3.2468 0
M  V30 15129 H 1470.57 -2.42692 -2.74766 0
M  V30 15130 H 1470.22 -1.1834 -4.88881 0
M  V30 15131 H 1469.92 -2.92728 -5.09494 0
M  V30 15132 H 1471.44 -2.21083 -5.6917 0
M  V30 15133 H 1472.86 -3.9141 -4.18893 0
M  V30 15134 H 1471.25 -4.61944 -3.83051 0
M  V30 15135 H 1472.32 -4.15827 -2.4943 0
M  V30 15136 N 1473.67 0.933891 -1.2695 0
M  V30 15137 C 1474.6 2.05078 -1.11649 0
M  V30 15138 C 1475.58 1.70089 -0.0196463 0
M  V30 15139 O 1476.76 1.93239 -0.193007 0
M  V30 15140 C 1473.89 3.38963 -0.756387 0
M  V30 15141 C 1472.85 3.88041 -1.80577 0
M  V30 15142 C 1472.17 5.18661 -1.2998 0
M  V30 15143 C 1473.47 4.12116 -3.2087 0
M  V30 15144 H 1475.17 2.18137 -2.05077 0
M  V30 15145 H 1472.71 1.04817 -0.987392 0
M  V30 15146 H 1474.66 4.1657 -0.63619 0
M  V30 15147 H 1473.39 3.25901 0.213607 0
M  V30 15148 H 1472.05 3.12622 -1.91477 0
M  V30 15149 H 1471.7 5.01985 -0.319442 0
M  V30 15150 H 1471.4 5.52467 -2.00134 0
M  V30 15151 H 1472.92 5.98844 -1.19242 0
M  V30 15152 H 1474.33 4.80312 -3.13006 0
M  V30 15153 H 1472.73 4.57218 -3.88679 0
M  V30 15154 H 1473.8 3.17633 -3.66384 0
M  V30 15155 N 1475.14 1.08871 1.13951 0
M  V30 15156 C 1476.07 0.744715 2.21306 0
M  V30 15157 C 1477.05 -0.275019 1.67862 0
M  V30 15158 O 1478.24 -0.144339 1.93663 0
M  V30 15159 C 1475.37 0.158336 3.46939 0
M  V30 15160 C 1474.32 1.10695 4.13438 0
M  V30 15161 C 1473.65 0.382552 5.3333 0
M  V30 15162 C 1474.95 2.44704 4.61429 0
M  V30 15163 H 1476.64 1.6423 2.50337 0
M  V30 15164 H 1474.19 0.791088 1.20324 0
M  V30 15165 H 1476.14 -0.0943587 4.21294 0
M  V30 15166 H 1474.87 -0.774413 3.17286 0
M  V30 15167 H 1473.53 1.34482 3.41043 0
M  V30 15168 H 1473.17 -0.554153 4.99938 0
M  V30 15169 H 1472.87 1.01499 5.78767 0
M  V30 15170 H 1474.4 0.138023 6.10444 0
M  V30 15171 H 1475.81 2.25156 5.27236 0
M  V30 15172 H 1474.21 3.03684 5.17586 0
M  V30 15173 H 1475.28 3.05883 3.76249 0
M  V30 15174 N 1476.62 -1.31073 0.875073 0
M  V30 15175 C 1477.53 -2.3215 0.338196 0
M  V30 15176 C 1478.55 -1.64928 -0.554504 0
M  V30 15177 O 1479.72 -1.96308 -0.449998 0
M  V30 15178 C 1476.79 -3.43804 -0.447163 0
M  V30 15179 C 1475.85 -4.26674 0.474106 0
M  V30 15180 C 1475.08 -5.32997 -0.273867 0
M  V30 15181 O 1475.31 -5.50288 -1.50129 0
M  V30 15182 O 1474.24 -6.00756 0.370913 0
M  V30 15183 H 1478.07 -2.80002 1.17612 0
M  V30 15184 H 1475.65 -1.35064 0.6386 0
M  V30 15185 H 1477.53 -4.11847 -0.892199 0
M  V30 15186 H 1476.21 -2.98105 -1.26155 0
M  V30 15187 H 1475.11 -3.61366 0.967748 0
M  V30 15188 H 1476.45 -4.75952 1.25423 0
M  V30 15189 N 1478.1 -0.635022 -1.4424 0
M  V30 15190 C 1479.35 -0.140788 -2.01609 0
M  V30 15191 C 1479.67 1.24317 -1.50234 0
M  V30 15192 O 1478.94 1.82677 -0.707519 0
M  V30 15193 H 1477.52 -0.0490568 -0.745387 0
M  V30 15194 H 1480.18 -0.8226 -1.7669 0
M  V30 15195 H 1479.28 -0.111456 -3.11901 0
M  V30 15196 N 1479.58 1.53054 -0.375806 0
M  V30 15197 C 1480.51 2.28973 0.45754 0
M  V30 15198 C 1481.49 1.31812 1.07516 0
M  V30 15199 O 1482.67 1.60693 1.09048 0
M  V30 15200 C 1479.8 3.08657 1.59212 0
M  V30 15201 C 1478.76 4.1359 1.10123 0
M  V30 15202 C 1478.08 4.81417 2.32684 0
M  V30 15203 C 1479.38 5.21994 0.17872 0
M  V30 15204 H 1481.08 2.98883 -0.175872 0
M  V30 15205 H 1478.62 1.43743 -0.0860253 0
M  V30 15206 H 1480.58 3.6052 2.18182 0
M  V30 15207 H 1479.3 2.36456 2.25291 0
M  V30 15208 H 1477.96 3.62688 0.534151 0
M  V30 15209 H 1477.61 4.05778 2.97243 0
M  V30 15210 H 1477.31 5.52332 2.00506 0
M  V30 15211 H 1478.83 5.36079 2.92322 0
M  V30 15212 H 1480.25 5.69298 0.676204 0
M  V30 15213 H 1478.64 6.00077 -0.0526605 0
M  V30 15214 H 1479.71 4.78646 -0.776246 0
M  V30 15215 N 1481.06 0.105248 1.57248 0
M  V30 15216 C 1482.28 -0.567515 1.99484 0
M  V30 15217 C 1482.71 -1.60298 0.984182 0
M  V30 15218 O 1482.06 -1.81242 -0.0459944 0
M  V30 15219 C 1482.11 -1.18271 3.40653 0
M  V30 15220 O 1481.22 -2.29843 3.42412 0
M  V30 15221 H 1480.56 -0.143069 0.648404 0
M  V30 15222 H 1483.09 0.189661 2.03719 0
M  V30 15223 H 1483.1 -1.52157 3.78566 0
M  V30 15224 H 1481.77 -0.424179 4.13731 0
M  V30 15225 H 1480.35 -1.975 3.16304 0
M  V30 15226 N 1482.53 -1.56697 -0.168486 0
M  V30 15227 C 1483.95 -1.50879 -0.52036 0
M  V30 15228 C 1484.15 -0.810001 -1.84503 0
M  V30 15229 O 1483.21 -0.371549 -2.49751 0
M  V30 15230 C 1484.52 -2.95618 -0.550502 0
M  V30 15231 C 1486.07 -3.06439 -0.637508 0
M  V30 15232 C 1486.54 -4.52642 -0.698516 0
M  V30 15233 N 1488.03 -4.569 -0.761328 0
M  V30 15234 C 1488.77 -5.67373 -0.829155 0
M  V30 15235 N 1488.26 -6.87471 -0.857642 0
M  V30 15236 N 1490.06 -5.55352 -0.868392 0
M  V30 15237 H 1482.21 -2.00531 0.700087 0
M  V30 15238 H 1484.47 -0.913683 0.252759 0
M  V30 15239 H 1484.18 -3.49912 0.354222 0
M  V30 15240 H 1484.05 -3.50416 -1.396 0
M  V30 15241 H 1486.44 -2.52178 -1.53266 0
M  V30 15242 H 1486.52 -2.54721 0.234719 0
M  V30 15243 H 1486.16 -5.07535 0.192387 0
M  V30 15244 H 1486.09 -5.0212 -1.58693 0
M  V30 15245 H 1488.58 -3.70434 -0.747482 0
M  V30 15246 H 1488.9 -7.67416 -0.910648 0
M  V30 15247 H 1487.24 -6.90076 -0.825872 0
M  V30 15248 H 1490.43 -4.60444 -0.843158 0
M  V30 15249 H 1490.61 -6.41468 -0.917789 0
M  V30 15250 N 1484.01 0.437135 -1.51416 0
M  V30 15251 C 1485.26 1.1835 -1.63328 0
M  V30 15252 C 1485.57 1.92343 -0.355455 0
M  V30 15253 O 1486.78 2.69183 -0.353951 0
M  V30 15254 C 1485.24 2.15235 -2.88447 0
M  V30 15255 C 1484.84 1.46889 -4.23235 0
M  V30 15256 C 1486.59 2.90303 -3.09716 0
M  V30 15257 C 1484.5 2.42259 -5.39504 0
M  V30 15258 H 1483.43 0.445467 -0.608338 0
M  V30 15259 H 1486.08 0.450528 -1.77883 0
M  V30 15260 H 1484.46 2.91968 -2.67527 0
M  V30 15261 H 1485.63 0.757128 -4.54537 0
M  V30 15262 H 1483.95 0.839725 -4.07845 0
M  V30 15263 H 1486.54 3.61747 -3.93756 0
M  V30 15264 H 1486.89 3.5166 -2.22802 0
M  V30 15265 H 1487.42 2.20677 -3.30978 0
M  V30 15266 H 1484.16 1.85591 -6.28678 0
M  V30 15267 H 1483.68 3.11488 -5.12577 0
M  V30 15268 H 1485.36 3.03384 -5.7146 0
M  V30 15269 N 1485.49 1.41566 0.692592 0
M  V30 15270 C 1486.42 1.46423 1.81886 0
M  V30 15271 C 1487.4 0.32258 1.67013 0
M  V30 15272 O 1488.59 0.534437 1.86701 0
M  V30 15273 C 1485.72 1.3486 3.20047 0
M  V30 15274 C 1484.67 2.46867 3.49629 0
M  V30 15275 C 1484 2.20369 4.87177 0
M  V30 15276 C 1485.3 3.89205 3.48306 0
M  V30 15277 H 1486.99 2.40683 1.78079 0
M  V30 15278 H 1484.54 1.15845 0.855334 0
M  V30 15279 H 1486.49 1.36869 3.98553 0
M  V30 15280 H 1485.21 0.370859 3.24488 0
M  V30 15281 H 1483.87 2.44146 2.73475 0
M  V30 15282 H 1483.52 1.20931 4.88247 0
M  V30 15283 H 1483.22 2.95426 5.07934 0
M  V30 15284 H 1484.74 2.24099 5.6799 0
M  V30 15285 H 1486.16 3.93626 4.16811 0
M  V30 15286 H 1484.56 4.63969 3.80595 0
M  V30 15287 H 1485.63 4.17144 2.47222 0
M  V30 15288 N 1486.97 -0.927146 1.27443 0
M  V30 15289 C 1487.9 -2.03209 1.06013 0
M  V30 15290 C 1488.91 -1.62792 0.016041 0
M  V30 15291 O 1490.1 -1.76631 0.25766 0
M  V30 15292 C 1487.2 -3.33791 0.586225 0
M  V30 15293 C 1486.38 -4.02897 1.70273 0
M  V30 15294 C 1485.43 -5.11755 1.22447 0
M  V30 15295 O 1484.46 -5.35688 1.92423 0
M  V30 15296 N 1485.66 -5.80444 0.0804162 0
M  V30 15297 H 1488.43 -2.22155 2.01165 0
M  V30 15298 H 1485.99 -1.09757 1.19017 0
M  V30 15299 H 1487.98 -4.03926 0.250161 0
M  V30 15300 H 1486.55 -3.11414 -0.272076 0
M  V30 15301 H 1485.77 -3.26489 2.20905 0
M  V30 15302 H 1487.06 -4.45816 2.45205 0
M  V30 15303 H 1486.46 -5.63454 -0.503635 0
M  V30 15304 H 1485.01 -6.51504 -0.196466 0
M  V30 15305 N 1488.45 -1.09474 -1.13372 0
M  V30 15306 C 1489.72 -0.743485 -1.80919 0
M  V30 15307 C 1490.1 0.771414 -1.965 0
M  V30 15308 O 1489.45 1.694 -1.53349 0
M  V30 15309 C 1489.66 -1.48309 -3.1592 0
M  V30 15310 C 1491.01 -1.64921 -3.91263 0
M  V30 15311 O 1492.03 -1.44564 -3.25545 0
M  V30 15312 O 1490.89 -1.98595 -5.09139 0
M  V30 15313 H 1487.99 -0.26713 -0.782669 0
M  V30 15314 H 1490.53 -1.19697 -1.20294 0
M  V30 15315 H 1489.3 -2.51456 -2.99809 0
M  V30 15316 H 1488.93 -1.02181 -3.84246 0
M  V30 15317 N 1489.92 1.30607 -0.882012 0
M  V30 15318 C 1491.34 1.78418 -0.549892 0
M  V30 15319 C 1491.69 1.72553 0.933797 0
M  V30 15320 O 1490.81 1.30058 1.72956 0
M  V30 15321 C 1491.41 3.2397 -0.991398 0
M  V30 15322 C 1489.97 3.69629 -0.710739 0
M  V30 15323 C 1489.11 2.51127 -1.17602 0
M  V30 15324 H 1492.06 1.17519 -1.06653 0
M  V30 15325 H 1492.08 3.79159 -0.319115 0
M  V30 15326 H 1491.6 3.28207 -2.07128 0
M  V30 15327 H 1489.7 3.70883 0.357273 0
M  V30 15328 H 1489.81 4.61232 -1.29621 0
M  V30 15329 H 1488.17 2.47642 -0.595444 0
M  V30 15330 H 1488.96 2.58103 -2.26358 0
M  V30 15331 N 1491.4 0.642663 1.43901 0
M  V30 15332 C 1492.37 -0.0457858 2.29154 0
M  V30 15333 C 1493.37 -0.760988 1.41653 0
M  V30 15334 O 1494.56 -0.603832 1.634 0
M  V30 15335 C 1491.69 -1.07552 3.23489 0
M  V30 15336 H 1492.88 0.704193 2.91515 0
M  V30 15337 H 1490.43 0.403361 1.51006 0
M  V30 15338 H 1491.17 -1.85509 2.66002 0
M  V30 15339 H 1490.95 -0.566468 3.87987 0
M  V30 15340 H 1492.44 -1.55663 3.87503 0
M  V30 15341 N 1492.88 -1.52852 0.383918 0
M  V30 15342 C 1494.16 -1.939 -0.25729 0
M  V30 15343 C 1494.54 -1.31895 -1.64824 0
M  V30 15344 O 1493.89 -0.484987 -2.23294 0
M  V30 15345 C 1494.1 -3.47801 -0.289064 0
M  V30 15346 C 1495.44 -4.21396 -0.520611 0
M  V30 15347 O 1496.47 -3.54278 -0.369502 0
M  V30 15348 O 1495.33 -5.4037 -0.816254 0
M  V30 15349 H 1492.42 -0.811658 -0.158558 0
M  V30 15350 H 1494.97 -1.63949 0.438034 0
M  V30 15351 H 1493.74 -3.8525 0.685441 0
M  V30 15352 H 1493.36 -3.8404 -1.02953 0
M  V30 15353 N 1494.36 -0.113586 -1.5719 0
M  V30 15354 C 1495.61 0.545507 -1.94183 0
M  V30 15355 C 1495.92 1.68176 -0.998816 0
M  V30 15356 O 1497.13 2.40324 -1.26319 0
M  V30 15357 C 1495.58 1.02178 -3.45091 0
M  V30 15358 C 1495.19 -0.0857195 -4.47918 0
M  V30 15359 C 1496.94 1.65255 -3.91013 0
M  V30 15360 C 1494.84 0.406946 -5.89998 0
M  V30 15361 H 1493.77 0.20755 -0.724872 0
M  V30 15362 H 1496.42 -0.192567 -1.82487 0
M  V30 15363 H 1494.81 1.81411 -3.52003 0
M  V30 15364 H 1495.98 -0.861821 -4.52669 0
M  V30 15365 H 1494.29 -0.622816 -4.11716 0
M  V30 15366 H 1496.89 2.0322 -4.94576 0
M  V30 15367 H 1497.23 2.52888 -3.30687 0
M  V30 15368 H 1497.77 0.925727 -3.86879 0
M  V30 15369 H 1494.51 -0.433199 -6.54067 0
M  V30 15370 H 1494.03 1.14965 -5.88679 0
M  V30 15371 H 1495.71 0.869934 -6.41125 0
M  V30 15372 N 1495.84 1.56784 0.160173 0
M  V30 15373 C 1496.75 2.00514 1.21783 0
M  V30 15374 C 1497.76 0.918341 1.47792 0
M  V30 15375 O 1498.94 1.22683 1.59721 0
M  V30 15376 C 1496 2.36575 2.53443 0
M  V30 15377 C 1495.07 3.59138 2.35198 0
M  V30 15378 C 1494.3 3.93469 3.6058 0
M  V30 15379 O 1494.52 3.28625 4.6622 0
M  V30 15380 O 1493.46 4.86774 3.54027 0
M  V30 15381 H 1497.28 2.90774 0.876607 0
M  V30 15382 H 1494.87 1.44799 0.367897 0
M  V30 15383 H 1496.75 2.60687 3.31089 0
M  V30 15384 H 1495.42 1.49474 2.87122 0
M  V30 15385 H 1494.33 3.4023 1.55546 0
M  V30 15386 H 1495.66 4.46815 2.0644 0
M  V30 15387 N 1497.32 -0.429099 1.51646 0
M  V30 15388 C 1498.26 -1.54202 1.74139 0
M  V30 15389 C 1499.26 -1.58117 0.607905 0
M  V30 15390 O 1500.46 -1.61763 0.789486 0
M  V30 15391 H 1496.84 -0.512456 0.550357 0
M  V30 15392 H 1498.81 -1.32408 2.67415 0
M  V30 15393 C 1497.56 -2.91779 1.89104 0
M  V30 15394 H 1496.88 -2.89502 2.75733 0
M  V30 15395 H 1498.32 -3.68995 2.08851 0
M  V30 15396 C 1496.78 -3.30512 0.652945 0
M  V30 15397 O 1497.31 -4.01257 -0.188553 0
M  V30 15398 N 1495.52 -2.86359 0.494634 0
M  V30 15399 H 1495.06 -2.28959 1.18049 0
M  V30 15400 H 1495.02 -3.12637 -0.332503 0
M  V30 15401 N 1498.79 -1.41931 -0.685074 0
M  V30 15402 C 1500.04 -1.42062 -1.44728 0
M  V30 15403 C 1500.37 -0.0332072 -1.94172 0
M  V30 15404 O 1499.65 0.940835 -1.70231 0
M  V30 15405 C 1499.93 -2.43634 -2.65168 0
M  V30 15406 C 1499.78 -3.91525 -2.21423 0
M  V30 15407 C 1501.1 -2.42325 -3.67378 0
M  V30 15408 H 1498.22 -0.517321 -0.524927 0
M  V30 15409 H 1500.86 -1.73277 -0.779419 0
M  V30 15410 H 1499.01 -2.17146 -3.22149 0
M  V30 15411 H 1500.69 -4.28956 -1.69689 0
M  V30 15412 H 1498.93 -4.05886 -1.53099 0
M  V30 15413 H 1499.6 -4.58158 -3.07889 0
M  V30 15414 H 1502.08 -2.65857 -3.20093 0
M  V30 15415 H 1500.95 -3.15391 -4.49243 0
M  V30 15416 H 1501.21 -1.44555 -4.17799 0
M  V30 15417 N 1500.27 0.920374 -1.27933 0
M  V30 15418 C 1501.22 2.00832 -1.07937 0
M  V30 15419 C 1502.21 1.60899 -0.005079 0
M  V30 15420 O 1503.4 1.75571 -0.224461 0
M  V30 15421 C 1500.53 3.35311 -0.736301 0
M  V30 15422 C 1499.61 3.81666 -1.8491 0
M  V30 15423 N 1500 4.00458 -3.08977 0
M  V30 15424 C 1498.3 4.10766 -1.73745 0
M  V30 15425 C 1499 4.39178 -3.81441 0
M  V30 15426 N 1497.98 4.47064 -3.09249 0
M  V30 15427 H 1501.78 2.13402 -2.02081 0
M  V30 15428 H 1499.29 1.10774 -1.18755 0
M  V30 15429 H 1501.29 4.12928 -0.574144 0
M  V30 15430 H 1499.95 3.24099 0.197437 0
M  V30 15431 H 1500.96 3.86562 -3.4466 0
M  V30 15432 H 1497.64 4.08227 -0.875042 0
M  V30 15433 H 1499.03 4.61736 -4.88109 0
M  V30 15434 N 1501.75 1.10074 1.1279 0
M  V30 15435 C 1502.7 0.746173 2.18405 0
M  V30 15436 C 1503.67 -0.275751 1.63795 0
M  V30 15437 O 1504.85 -0.155876 1.90162 0
M  V30 15438 C 1501.99 0.180105 3.4463 0
M  V30 15439 C 1501.1 1.25688 4.13312 0
M  V30 15440 C 1500.24 0.652852 5.27173 0
M  V30 15441 C 1499.28 1.71046 5.87716 0
M  V30 15442 N 1498.42 1.12698 6.92996 0
M  V30 15443 H 1503.26 1.65105 2.48081 0
M  V30 15444 H 1500.79 0.824768 1.21803 0
M  V30 15445 H 1502.75 -0.165948 4.1687 0
M  V30 15446 H 1501.38 -0.688014 3.15383 0
M  V30 15447 H 1500.43 1.72011 3.39288 0
M  V30 15448 H 1501.74 2.05762 4.54382 0
M  V30 15449 H 1500.9 0.25603 6.0616 0
M  V30 15450 H 1499.64 -0.17937 4.8737 0
M  V30 15451 H 1498.64 2.11676 5.07418 0
M  V30 15452 H 1499.87 2.54547 6.29589 0
M  V30 15453 H 1497.81 0.316154 6.55238 0
M  V30 15454 H 1497.73 1.86461 7.32645 0
M  V30 15455 H 1499 0.756582 7.7582 0
M  V30 15456 N 1503.23 -1.30138 0.888926 0
M  V30 15457 C 1504.46 -1.99853 0.523676 0
M  V30 15458 C 1504.87 -1.66783 -0.893312 0
M  V30 15459 O 1504.21 -0.903292 -1.59957 0
M  V30 15460 C 1504.27 -3.54055 0.623332 0
M  V30 15461 C 1503.93 -4.10652 2.00534 0
M  V30 15462 C 1504.93 -4.26353 2.97522 0
M  V30 15463 C 1502.62 -4.45938 2.3118 0
M  V30 15464 C 1504.61 -4.76557 4.23288 0
M  V30 15465 C 1502.3 -4.95841 3.57191 0
M  V30 15466 C 1503.3 -5.11103 4.53059 0
M  V30 15467 O 1502.98 -5.59927 5.76833 0
M  V30 15468 H 1502.72 -0.645553 0.200591 0
M  V30 15469 H 1505.27 -1.66899 1.19724 0
M  V30 15470 H 1503.5 -3.86551 -0.107221 0
M  V30 15471 H 1505.19 -4.05009 0.26879 0
M  V30 15472 H 1505.95 -3.9939 2.75159 0
M  V30 15473 H 1501.83 -4.33324 1.57326 0
M  V30 15474 H 1505.38 -4.88385 4.98123 0
M  V30 15475 H 1501.27 -5.22239 3.7939 0
M  V30 15476 H 1502.04 -5.78263 5.79271 0
M  V30 15477 N 1504.71 -0.650285 -1.43559 0
M  V30 15478 C 1505.65 0.043098 -2.3076 0
M  V30 15479 C 1506.62 0.81763 -1.44582 0
M  V30 15480 O 1507.81 0.794825 -1.73457 0
M  V30 15481 C 1504.95 1.00557 -3.30125 0
M  V30 15482 C 1504.06 0.227448 -4.31401 0
M  V30 15483 C 1503.2 1.18345 -5.17849 0
M  V30 15484 C 1502.23 0.395596 -6.1082 0
M  V30 15485 N 1501.37 1.30304 -6.89902 0
M  V30 15486 H 1506.21 -0.706402 -2.89506 0
M  V30 15487 H 1503.75 -0.360118 -1.42624 0
M  V30 15488 H 1505.71 1.57717 -3.8624 0
M  V30 15489 H 1504.34 1.72198 -2.73034 0
M  V30 15490 H 1503.39 -0.460391 -3.77604 0
M  V30 15491 H 1504.7 -0.385316 -4.9731 0
M  V30 15492 H 1503.85 1.82578 -5.78576 0
M  V30 15493 H 1502.59 1.83013 -4.52059 0
M  V30 15494 H 1501.6 -0.260099 -5.49184 0
M  V30 15495 H 1502.82 -0.246633 -6.78652 0
M  V30 15496 H 1500.77 1.93657 -6.26764 0
M  V30 15497 H 1500.69 0.744768 -7.52323 0
M  V30 15498 H 1501.95 1.93361 -7.55137 0
M  V30 15499 N 1506.18 1.52647 -0.392018 0
M  V30 15500 C 1507.42 2.03524 0.189041 0
M  V30 15501 C 1507.79 1.27204 1.43816 0
M  V30 15502 O 1508.99 1.6822 2.09656 0
M  V30 15503 C 1507.26 3.54584 0.447779 0
M  V30 15504 S 1508.82 4.27283 0.998734 0
M  V30 15505 H 1505.64 0.709022 0.0530042 0
M  V30 15506 H 1508.24 1.87866 -0.540993 0
M  V30 15507 H 1506.94 4.07718 -0.468401 0
M  V30 15508 H 1506.47 3.74453 1.20616 0
M  V30 15509 H 1508.49 4.40671 2.28086 0
M  V30 15510 N 1507.66 0.121921 1.57128 0
M  V30 15511 C 1508.89 -0.546325 2.00075 0
M  V30 15512 C 1509.31 -1.59245 1.00113 0
M  V30 15513 O 1508.67 -1.8128 -0.0267687 0
M  V30 15514 C 1508.72 -1.14651 3.41888 0
M  V30 15515 O 1507.82 -2.26199 3.4483 0
M  V30 15516 H 1507.16 -0.136184 0.649885 0
M  V30 15517 H 1509.69 0.211257 2.03506 0
M  V30 15518 H 1509.7 -1.48133 3.80159 0
M  V30 15519 H 1508.38 -0.380273 4.14158 0
M  V30 15520 H 1506.96 -1.94134 3.18381 0
M  V30 15521 N 1509.14 -1.56867 -0.151857 0
M  V30 15522 C 1510.39 -1.82273 -0.863689 0
M  V30 15523 C 1510.7 -0.702377 -1.82554 0
M  V30 15524 O 1511.91 -0.841903 -2.58117 0
M  V30 15525 C 1510.36 -3.23046 -1.58649 0
M  V30 15526 C 1509.97 -4.43003 -0.667292 0
M  V30 15527 C 1511.72 -3.57729 -2.28539 0
M  V30 15528 C 1509.62 -5.74798 -1.39144 0
M  V30 15529 H 1508.55 -0.679753 -0.326269 0
M  V30 15530 H 1511.2 -1.8313 -0.116454 0
M  V30 15531 H 1509.59 -3.16561 -2.37918 0
M  V30 15532 H 1510.76 -4.60712 0.0898254 0
M  V30 15533 H 1509.08 -4.16329 -0.0770521 0
M  V30 15534 H 1511.67 -4.53451 -2.83348 0
M  V30 15535 H 1512.02 -2.8355 -3.04803 0
M  V30 15536 H 1512.55 -3.65853 -1.56194 0
M  V30 15537 H 1509.29 -6.52059 -0.670747 0
M  V30 15538 H 1508.81 -5.61032 -2.12139 0
M  V30 15539 H 1510.49 -6.17429 -1.93367 0
M  V30 15540 N 1510.62 0.421051 -1.51871 0
M  V30 15541 C 1511.53 1.5371 -1.7723 0
M  V30 15542 C 1512.54 1.61109 -0.657256 0
M  V30 15543 O 1513.72 1.78047 -0.941343 0
M  V30 15544 C 1510.79 2.89555 -1.9068 0
M  V30 15545 C 1509.85 2.9214 -3.14567 0
M  V30 15546 C 1509.08 4.21505 -3.27367 0
M  V30 15547 O 1509.3 5.14764 -2.45712 0
M  V30 15548 O 1508.24 4.30706 -4.20448 0
M  V30 15549 H 1512.06 1.35221 -2.71935 0
M  V30 15550 H 1509.65 0.605712 -1.3657 0
M  V30 15551 H 1511.53 3.70147 -2.01418 0
M  V30 15552 H 1510.2 3.08137 -0.991627 0
M  V30 15553 H 1509.11 2.10444 -3.09296 0
M  V30 15554 H 1510.44 2.78505 -4.05827 0
M  V30 15555 N 1512.1 1.42293 0.677538 0
M  V30 15556 C 1513.51 1.25158 0.990334 0
M  V30 15557 C 1513.71 0.153803 2.00912 0
M  V30 15558 O 1512.77 -0.475868 2.47975 0
M  V30 15559 C 1514.08 2.60745 1.49775 0
M  V30 15560 C 1515.63 2.68077 1.61566 0
M  V30 15561 C 1516.1 4.04024 2.15705 0
M  V30 15562 N 1517.6 4.05964 2.23042 0
M  V30 15563 C 1518.33 5.07968 2.66 0
M  V30 15564 N 1517.83 6.20356 3.08432 0
M  V30 15565 N 1519.62 4.95325 2.65725 0
M  V30 15566 H 1511.77 2.124 0.00295822 0
M  V30 15567 H 1514.03 0.945848 0.06384 0
M  V30 15568 H 1513.74 3.41919 0.823672 0
M  V30 15569 H 1513.61 2.84476 2.47695 0
M  V30 15570 H 1516 1.87251 2.28082 0
M  V30 15571 H 1516.08 2.48137 0.621434 0
M  V30 15572 H 1515.73 4.85306 1.498 0
M  V30 15573 H 1515.66 4.21314 3.15914 0
M  V30 15574 H 1518.15 3.24827 1.93122 0
M  V30 15575 H 1518.46 6.94043 3.39889 0
M  V30 15576 H 1516.8 6.23865 3.06296 0
M  V30 15577 H 1520 4.06599 2.31936 0
M  V30 15578 H 1520.17 5.74954 2.98884 0
M  V30 15579 N 1513.57 -0.913576 1.28419 0
M  V30 15580 C 1514.99 -1.192 1.0613 0
M  V30 15581 C 1515.19 -2.00542 -0.196232 0
M  V30 15582 O 1514.25 -2.35998 -0.897853 0
M  V30 15583 C 1515.56 -1.92642 2.30889 0
M  V30 15584 C 1517.11 -2.05524 2.3607 0
M  V30 15585 C 1517.58 -2.82374 3.60595 0
M  V30 15586 N 1519.07 -2.89935 3.61236 0
M  V30 15587 C 1519.81 -3.49899 4.54266 0
M  V30 15588 N 1519.3 -4.11141 5.57615 0
M  V30 15589 N 1521.1 -3.4744 4.41862 0
M  V30 15590 H 1513.25 -0.370509 2.09143 0
M  V30 15591 H 1515.51 -0.226573 0.920526 0
M  V30 15592 H 1515.22 -1.40299 3.22504 0
M  V30 15593 H 1515.09 -2.93191 2.37316 0
M  V30 15594 H 1517.48 -2.57047 1.44951 0
M  V30 15595 H 1517.56 -1.0415 2.33637 0
M  V30 15596 H 1517.2 -2.3153 4.52058 0
M  V30 15597 H 1517.13 -3.84063 3.60282 0
M  V30 15598 H 1519.62 -2.46424 2.86502 0
M  V30 15599 H 1519.94 -4.54877 6.24746 0
M  V30 15600 H 1518.28 -4.09645 5.61441 0
M  V30 15601 H 1521.47 -2.98806 3.60323 0
M  V30 15602 H 1521.65 -3.9388 5.14551 0
M  V30 15603 N 1515.05 -1.1067 -1.12204 0
M  V30 15604 C 1515.98 -0.779829 -2.20093 0
M  V30 15605 C 1516.96 0.248279 -1.68278 0
M  V30 15606 O 1518.15 0.113511 -1.93868 0
M  V30 15607 C 1515.28 -0.213511 -3.46643 0
M  V30 15608 C 1514.23 -1.17258 -4.11624 0
M  V30 15609 C 1513.56 -0.467352 -5.32654 0
M  V30 15610 C 1514.86 -2.52014 -4.57478 0
M  V30 15611 H 1516.55 -1.68192 -2.47693 0
M  V30 15612 H 1514.1 -0.810131 -1.1905 0
M  V30 15613 H 1516.05 0.0273225 -4.21391 0
M  V30 15614 H 1514.78 0.723837 -3.18478 0
M  V30 15615 H 1513.43 -1.39891 -3.3886 0
M  V30 15616 H 1513.08 0.474547 -5.00756 0
M  V30 15617 H 1512.78 -1.10694 -5.77079 0
M  V30 15618 H 1514.31 -0.235122 -6.10147 0
M  V30 15619 H 1515.72 -2.33516 -5.23587 0
M  V30 15620 H 1514.12 -3.1188 -5.1269 0
M  V30 15621 H 1515.19 -3.11831 -3.71335 0
M  V30 15622 N 1516.53 1.29665 -0.895815 0
M  V30 15623 C 1517.76 2.00399 -0.534333 0
M  V30 15624 C 1518.18 1.66632 0.872654 0
M  V30 15625 O 1517.54 0.888811 1.58018 0
M  V30 15626 C 1517.59 3.53154 -0.729023 0
M  V30 15627 O 1516.69 4.11812 0.22023 0
M  V30 15628 H 1516.03 0.630173 -0.209233 0
M  V30 15629 H 1518.56 1.65253 -1.20634 0
M  V30 15630 H 1518.57 4.03073 -0.632179 0
M  V30 15631 H 1517.25 3.77067 -1.75481 0
M  V30 15632 H 1515.82 3.72822 0.0761687 0
M  V30 15633 N 1518.01 0.657889 1.43212 0
M  V30 15634 C 1518.97 -0.0214783 2.2919 0
M  V30 15635 C 1519.97 -0.745921 1.42452 0
M  V30 15636 O 1521.16 -0.586468 1.64031 0
M  V30 15637 C 1518.29 -1.04115 3.24612 0
M  V30 15638 H 1519.49 0.735072 2.90752 0
M  V30 15639 H 1517.04 0.419354 1.50569 0
M  V30 15640 H 1517.77 -1.82677 2.67954 0
M  V30 15641 H 1517.56 -0.525285 3.88566 0
M  V30 15642 H 1519.05 -1.51544 3.89132 0
M  V30 15643 N 1519.49 -1.52437 0.400108 0
M  V30 15644 C 1520.42 -2.29672 -0.421054 0
M  V30 15645 C 1521.4 -1.33506 -1.05405 0
M  V30 15646 O 1522.58 -1.62408 -1.06477 0
M  V30 15647 C 1519.71 -3.1115 -1.54281 0
M  V30 15648 C 1518.67 -4.1529 -1.0353 0
M  V30 15649 C 1517.99 -4.85058 -2.24996 0
M  V30 15650 C 1519.29 -5.22212 -0.0956529 0
M  V30 15651 H 1520.99 -2.98565 0.2234 0
M  V30 15652 H 1518.53 -1.43588 0.108883 0
M  V30 15653 H 1520.49 -3.63945 -2.12419 0
M  V30 15654 H 1519.21 -2.4001 -2.21501 0
M  V30 15655 H 1517.87 -3.63492 -0.476383 0
M  V30 15656 H 1517.52 -4.10455 -2.9075 0
M  V30 15657 H 1517.22 -5.55452 -1.91694 0
M  V30 15658 H 1518.74 -5.40661 -2.83756 0
M  V30 15659 H 1520.15 -5.70302 -0.585548 0
M  V30 15660 H 1518.55 -5.99917 0.148121 0
M  V30 15661 H 1519.62 -4.77351 0.852296 0
M  V30 15662 N 1520.96 -0.130252 -1.57061 0
M  V30 15663 C 1522.2 0.527958 -1.97464 0
M  V30 15664 C 1522.57 1.63126 -1.01261 0
M  V30 15665 O 1523.77 2.34916 -1.30644 0
M  V30 15666 C 1522.04 1.03657 -3.42038 0
M  V30 15667 S 1523.6 1.70173 -4.04459 0
M  V30 15668 H 1520.42 0.171256 -0.690067 0
M  V30 15669 H 1523.02 -0.218 -1.94281 0
M  V30 15670 H 1521.72 0.222568 -4.09796 0
M  V30 15671 H 1521.25 1.81754 -3.48897 0
M  V30 15672 H 1523.27 2.98813 -3.96138 0
M  V30 15673 N 1522.44 1.56945 0.143535 0
M  V30 15674 C 1523.39 1.94945 1.18239 0
M  V30 15675 C 1524.38 0.821157 1.38368 0
M  V30 15676 O 1525.57 1.08465 1.39873 0
M  V30 15677 C 1522.7 2.33653 2.51518 0
M  V30 15678 C 1521.78 3.53061 2.34966 0
M  V30 15679 N 1522.18 4.69493 1.88176 0
M  V30 15680 C 1520.47 3.58213 2.65706 0
M  V30 15681 C 1521.17 5.51581 1.84751 0
M  V30 15682 N 1520.15 4.93386 2.28192 0
M  V30 15683 H 1523.95 2.82438 0.81278 0
M  V30 15684 H 1521.47 1.58549 0.351555 0
M  V30 15685 H 1523.46 2.59083 3.26621 0
M  V30 15686 H 1522.12 1.47513 2.89257 0
M  V30 15687 H 1523.13 4.93182 1.5809 0
M  V30 15688 H 1519.81 2.82622 3.07297 0
M  V30 15689 H 1521.2 6.54934 1.50038 0
M  V30 15690 N 1523.92 -0.412991 1.52093 0
M  V30 15691 C 1525.15 -1.18667 1.70096 0
M  V30 15692 C 1525.57 -1.83622 0.408012 0
M  V30 15693 O 1524.93 -1.69847 -0.634174 0
M  V30 15694 C 1524.98 -2.22837 2.83507 0
M  V30 15695 O 1524.08 -3.2889 2.48807 0
M  V30 15696 H 1523.42 -0.346581 0.566373 0
M  V30 15697 H 1525.95 -0.484642 1.98777 0
M  V30 15698 H 1525.96 -2.67229 3.08306 0
M  V30 15699 H 1524.64 -1.74942 3.77317 0
M  V30 15700 H 1523.21 -2.89804 2.34665 0
M  V30 15701 N 1525.4 -1.4265 -0.669982 0
M  V30 15702 C 1526.63 -1.46784 -1.45816 0
M  V30 15703 C 1527.04 -0.080606 -1.88628 0
M  V30 15704 O 1526.4 0.905687 -1.58441 0
M  V30 15705 C 1526.45 -2.39915 -2.70413 0
M  V30 15706 O 1526.17 -3.73241 -2.29396 0
M  V30 15707 C 1527.67 -2.53118 -3.63931 0
M  V30 15708 H 1524.89 -0.499076 -0.448513 0
M  V30 15709 H 1527.44 -1.87216 -0.822819 0
M  V30 15710 H 1525.59 -2.02722 -3.30125 0
M  V30 15711 H 1526.01 -4.23164 -3.09891 0
M  V30 15712 H 1527.48 -3.22395 -4.48069 0
M  V30 15713 H 1527.96 -1.57062 -4.10156 0
M  V30 15714 H 1528.56 -2.91052 -3.10111 0
M  V30 15715 N 1526.88 0.906753 -1.28902 0
M  V30 15716 C 1527.84 1.99158 -1.1344 0
M  V30 15717 C 1528.84 1.60639 -0.0719551 0
M  V30 15718 O 1530.03 1.71267 -0.318317 0
M  V30 15719 C 1527.16 3.32923 -0.733172 0
M  V30 15720 H 1528.36 2.14305 -2.09794 0
M  V30 15721 H 1525.91 1.09034 -1.11988 0
M  V30 15722 H 1526.64 3.23477 0.230826 0
M  V30 15723 H 1526.43 3.62244 -1.50073 0
M  V30 15724 H 1527.92 4.12544 -0.64784 0
M  V30 15725 N 1528.36 1.11264 1.11616 0
M  V30 15726 C 1529.58 0.882802 1.87121 0
M  V30 15727 C 1530 -0.567279 1.80076 0
M  V30 15728 O 1529.36 -1.39158 1.18074 0
M  V30 15729 C 1529.41 1.33355 3.36004 0
M  V30 15730 O 1529.13 2.72678 3.42897 0
M  V30 15731 C 1530.63 1.13886 4.28421 0
M  V30 15732 H 1527.85 0.316275 0.591786 0
M  V30 15733 H 1530.39 1.4795 1.41177 0
M  V30 15734 H 1528.55 0.780347 3.79459 0
M  V30 15735 H 1528.96 2.92168 4.35589 0
M  V30 15736 H 1530.44 1.50329 5.31136 0
M  V30 15737 H 1530.91 0.078259 4.3913 0
M  V30 15738 H 1531.52 1.67896 3.90757 0
M  V30 15739 N 1529.83 -1.29188 0.902679 0
M  V30 15740 C 1531.08 -1.95727 0.530909 0
M  V30 15741 C 1531.41 -1.70971 -0.921014 0
M  V30 15742 O 1530.69 -1.02436 -1.65339 0
M  V30 15743 C 1530.97 -3.50463 0.827523 0
M  V30 15744 C 1530.82 -3.84665 2.33137 0
M  V30 15745 C 1532.14 -4.38964 0.316053 0
M  V30 15746 H 1529.26 -0.71091 0.194361 0
M  V30 15747 H 1531.9 -1.52752 1.1299 0
M  V30 15748 H 1530.05 -3.87199 0.317732 0
M  V30 15749 H 1531.73 -3.57859 2.91093 0
M  V30 15750 H 1529.97 -3.32102 2.79088 0
M  V30 15751 H 1530.64 -4.92676 2.48947 0
M  V30 15752 H 1533.12 -4.09237 0.75262 0
M  V30 15753 H 1531.99 -5.4611 0.552769 0
M  V30 15754 H 1532.25 -4.35105 -0.783329 0
M  V30 15755 O 1531.35 -0.804804 -1.40018 0
M  V30 15756 H 1532.04 -0.380402 -1.89928 0
M  V30 END ATOM
M  V30 BEGIN BOND
M  V30 END BOND
M  V30 END CTAB
M  END
$$$$
