drugbank_target|Q8IY84 Serine/threonine-protein kinase NIM1 (DB12010)
 OpenBabel12092121133D

  0  0  0     0  0            999 V3000
M  V30 BEGIN CTAB
M  V30 COUNTS 7008 7079 0 0 0
M  V30 BEGIN ATOM
M  V30 1 H -0.908 1.98254 -0.117106 0
M  V30 2 N 0 1.576 0 0
M  V30 3 C 0.933 2.03868 1.02534 0
M  V30 4 C 1.911 0.928543 1.3348 0
M  V30 5 O 3.095 1.19667 1.45644 0
M  V30 6 C 0.222 2.43627 2.35294 0
M  V30 7 C -0.732 3.65373 2.2001 0
M  V30 8 S 0.101 5.13292 1.52614 0
M  V30 9 C 1.257 5.56322 2.86805 0
M  V30 10 H 1.49 2.90518 0.631377 0
M  V30 11 H -0.977 1.52953 0.210867 0
M  V30 12 H 0.981 2.67203 3.11629 0
M  V30 13 H -0.358 1.57376 2.7183 0
M  V30 14 H -1.165 3.90944 3.18086 0
M  V30 15 H -1.563 3.418 1.51819 0
M  V30 16 H 0.729 5.58782 3.83104 0
M  V30 17 H 1.672 6.56266 2.65933 0
M  V30 18 H 2.08 4.83886 2.90714 0
M  V30 19 N 1.4781 -0.272755 1.55222 0
M  V30 20 C 2.7061 -1.02255 1.79865 0
M  V30 21 C 3.1211 -1.79924 0.572088 0
M  V30 22 O 2.4781 -1.76638 -0.458842 0
M  V30 23 C 2.5291 -1.98094 3.02392 0
M  V30 24 O 2.2501 -1.23572 4.20311 0
M  V30 25 C 3.7511 -2.84884 3.39641 0
M  V30 26 H 0.9711 -0.302057 0.599168 0
M  V30 27 H 3.5151 -0.303465 2.02236 0
M  V30 28 H 1.6701 -2.65465 2.82147 0
M  V30 29 H 2.0841 -1.88172 4.89583 0
M  V30 30 H 3.5581 -3.47927 4.28545 0
M  V30 31 H 4.0351 -3.54665 2.59055 0
M  V30 32 H 4.6411 -2.23003 3.62146 0
M  V30 33 N 2.9562 -1.48159 -0.537278 0
M  V30 34 C 3.9192 -1.61665 -1.62472 0
M  V30 35 C 4.9192 -0.490395 -1.5314 0
M  V30 36 O 6.1092 -0.755998 -1.5694 0
M  V30 37 C 3.2412 -1.57997 -3.02076 0
M  V30 38 H 4.4342 -2.58621 -1.51839 0
M  V30 39 H 1.9872 -1.36647 -0.758771 0
M  V30 40 H 2.7222 -0.624913 -3.18222 0
M  V30 41 H 2.5072 -2.39755 -3.10258 0
M  V30 42 H 3.9972 -1.70627 -3.81151 0
M  V30 43 N 4.4343 0.785586 -1.36625 0
M  V30 44 C 5.6803 1.54591 -1.31261 0
M  V30 45 C 6.0133 1.93906 0.106823 0
M  V30 46 O 5.2883 1.63007 1.06108 0
M  V30 47 C 5.5713 2.82038 -2.23889 0
M  V30 48 C 5.4243 2.49066 -3.74548 0
M  V30 49 C 6.7433 3.83887 -2.15217 0
M  V30 50 H 3.8623 0.560846 -0.478143 0
M  V30 51 H 6.5043 0.902278 -1.67209 0
M  V30 52 H 4.6543 3.36961 -1.93363 0
M  V30 53 H 6.3263 2.00164 -4.15611 0
M  V30 54 H 4.5693 1.81954 -3.93796 0
M  V30 55 H 5.2403 3.40109 -4.34776 0
M  V30 56 H 7.7163 3.38421 -2.42096 0
M  V30 57 H 6.5923 4.70806 -2.82193 0
M  V30 58 H 6.8533 4.27131 -1.14068 0
M  V30 59 N 5.9124 1.20967 1.01018 0
M  V30 60 C 7.1424 1.04803 1.78044 0
M  V30 61 C 7.5504 -0.405462 1.84804 0
M  V30 62 O 6.8934 -1.2932 1.30468 0
M  V30 63 C 6.9554 1.56377 3.23707 0
M  V30 64 C 6.6194 3.04767 3.40538 0
M  V30 65 C 7.6164 4.02366 3.29239 0
M  V30 66 C 5.3014 3.43862 3.66147 0
M  V30 67 C 7.2954 5.37049 3.43304 0
M  V30 68 C 4.9824 4.78699 3.79855 0
M  V30 69 C 5.9804 5.75101 3.68439 0
M  V30 70 O 5.6684 7.07493 3.81719 0
M  V30 71 H 5.4004 0.368778 0.56655 0
M  V30 72 H 7.9544 1.60642 1.27997 0
M  V30 73 H 6.1844 0.949297 3.74867 0
M  V30 74 H 7.8734 1.36136 3.8239 0
M  V30 75 H 8.6394 3.73506 3.09384 0
M  V30 76 H 4.5184 2.69364 3.74118 0
M  V30 77 H 8.0624 6.12277 3.34309 0
M  V30 78 H 3.9594 5.07247 3.99213 0
M  V30 79 H 4.7274 7.1483 3.98697 0
M  V30 80 N 7.3905 -1.2043 1.01659 0
M  V30 81 C 8.3235 -2.21924 0.531521 0
M  V30 82 C 9.3015 -1.57054 -0.421032 0
M  V30 83 O 10.4855 -1.85389 -0.341035 0
M  V30 84 C 7.6125 -3.37942 -0.226496 0
M  V30 85 C 6.6585 -4.21115 0.67561 0
M  V30 86 S 7.4915 -4.90674 2.14475 0
M  V30 87 C 8.6475 -6.10113 1.3969 0
M  V30 88 H 8.8805 -2.62725 1.3915 0
M  V30 89 H 6.4135 -1.30481 0.825479 0
M  V30 90 H 8.3715 -4.05196 -0.657738 0
M  V30 91 H 7.0325 -2.956 -1.06205 0
M  V30 92 H 6.2255 -5.03918 0.091108 0
M  V30 93 H 5.8275 -3.59115 1.04463 0
M  V30 94 H 8.1195 -6.7411 0.676897 0
M  V30 95 H 9.0625 -6.73022 2.20107 0
M  V30 96 H 9.4705 -5.57283 0.899786 0
M  V30 97 N 8.8686 -0.792821 -1.36206 0
M  V30 98 C 9.8166 -0.181555 -2.3189 0
M  V30 99 C 10.8106 0.661025 -1.55971 0
M  V30 100 O 12.0166 0.555728 -1.71206 0
M  V30 101 H 8.3916 -0.0399382 -0.750939 0
M  V30 102 H 10.3626 -1.00394 -2.81005 0
M  V30 103 C 9.1116 0.666444 -3.41253 0
M  V30 104 H 8.4346 0.0274489 -3.99791 0
M  V30 105 H 9.8746 1.06076 -4.10517 0
M  V30 106 C 8.3336 1.82614 -2.83114 0
M  V30 107 O 8.8636 2.9229 -2.75553 0
M  V30 108 N 7.0696 1.63333 -2.40356 0
M  V30 109 H 6.6166 0.741217 -2.46706 0
M  V30 110 H 6.5746 2.41087 -2.01803 0
M  V30 111 N 10.3467 1.47872 -0.545128 0
M  V30 112 C 11.5947 2.02093 -0.016553 0
M  V30 113 C 11.9157 1.42305 1.3332 0
M  V30 114 O 11.1857 0.593853 1.86682 0
M  V30 115 H 9.7657 0.746993 -0.00313038 0
M  V30 116 H 12.4277 1.81414 -0.712397 0
M  V30 117 H 11.5237 3.11996 0.0805422 0
M  V30 118 N 11.8248 0.280983 1.55075 0
M  V30 119 C 13.0728 -0.333455 1.9933 0
M  V30 120 C 13.3938 -1.55937 1.17085 0
M  V30 121 O 12.6638 -1.94143 0.261805 0
M  V30 122 H 11.2438 -0.126197 0.736263 0
M  V30 123 H 13.9058 0.387678 1.91005 0
M  V30 124 H 13.0018 -0.619292 3.05894 0
M  V30 125 N 13.3029 -1.57598 0.00835791 0
M  V30 126 C 14.5509 -1.90551 -0.6734 0
M  V30 127 C 14.8719 -0.883301 -1.73847 0
M  V30 128 O 14.1419 0.0781442 -1.95744 0
M  V30 129 H 12.7219 -0.703312 -0.251717 0
M  V30 130 H 15.3839 -1.94833 0.0512592 0
M  V30 131 H 14.4799 -2.9056 -1.13935 0
M  V30 132 N 14.781 0.264519 -1.55364 0
M  V30 133 C 15.711 1.33121 -1.91836 0
M  V30 134 C 16.692 1.51101 -0.781192 0
M  V30 135 O 17.877 1.64003 -1.04003 0
M  V30 136 C 15.007 2.68921 -2.19769 0
M  V30 137 C 13.961 2.65661 -3.35571 0
M  V30 138 C 13.287 4.05093 -3.49004 0
M  V30 139 C 14.587 2.24187 -4.71739 0
M  V30 140 H 16.281 1.02844 -2.81182 0
M  V30 141 H 13.827 0.493286 -1.35287 0
M  V30 142 H 15.78 3.43663 -2.43872 0
M  V30 143 H 14.504 3.00799 -1.27231 0
M  V30 144 H 13.163 1.93377 -3.1145 0
M  V30 145 H 12.811 4.34206 -2.53917 0
M  V30 146 H 12.511 4.03804 -4.26868 0
M  V30 147 H 14.035 4.81561 -3.75408 0
M  V30 148 H 15.449 2.88654 -4.9533 0
M  V30 149 H 13.846 2.34044 -5.52579 0
M  V30 150 H 14.916 1.19327 -4.69988 0
M  V30 151 N 16.2591 1.48442 0.529413 0
M  V30 152 C 17.5051 1.5672 1.28711 0
M  V30 153 C 17.8381 0.2406 1.92704 0
M  V30 154 O 17.1131 -0.753454 1.79313 0
M  V30 155 C 17.3961 2.70587 2.37603 0
M  V30 156 C 17.2491 4.12953 1.78297 0
M  V30 157 C 18.5681 2.80212 3.39366 0
M  V30 158 H 15.6871 0.570474 0.466613 0
M  V30 159 H 18.3291 1.80617 0.589706 0
M  V30 160 H 16.4791 2.50342 2.97088 0
M  V30 161 H 18.1511 4.44639 1.22858 0
M  V30 162 H 16.3941 4.19927 1.0883 0
M  V30 163 H 17.0651 4.88448 2.57144 0
M  V30 164 H 19.5411 2.98553 2.89836 0
M  V30 165 H 18.4171 3.61611 4.12951 0
M  V30 166 H 18.6781 1.88393 3.99951 0
M  V30 167 N 17.7372 -0.778329 1.37039 0
M  V30 168 C 18.6852 -1.91278 1.32345 0
M  V30 169 C 19.6792 -1.68051 0.213331 0
M  V30 170 O 20.8852 -1.75922 0.38098 0
M  V30 171 H 17.2602 -0.628909 0.412283 0
M  V30 172 H 19.2312 -1.92355 2.28127 0
M  V30 173 C 17.9802 -3.28455 1.14073 0
M  V30 174 H 17.3032 -3.46901 1.98746 0
M  V30 175 H 18.7432 -4.08152 1.14837 0
M  V30 176 C 17.2022 -3.36548 -0.154015 0
M  V30 177 O 17.7322 -3.85186 -1.13993 0
M  V30 178 N 15.9382 -2.89894 -0.202475 0
M  V30 179 H 15.4852 -2.50504 0.600476 0
M  V30 180 H 15.4432 -2.9569 -1.06841 0
M  V30 181 N 19.2153 -1.21501 -1.00376 0
M  V30 182 C 20.6263 -1.03146 -1.55621 0
M  V30 183 C 20.9773 0.408375 -1.91903 0
M  V30 184 O 20.1023 1.29177 -1.73616 0
M  V30 185 C 20.6973 -1.86612 -2.82775 0
M  V30 186 C 19.2563 -1.72586 -3.34501 0
M  V30 187 C 18.4033 -1.83747 -2.07683 0
M  V30 188 H 21.3543 -1.35505 -0.826081 0
M  V30 189 H 21.3753 -1.3771 -3.54706 0
M  V30 190 H 20.8873 -2.91399 -2.56336 0
M  V30 191 H 18.9883 -0.704877 -3.65872 0
M  V30 192 H 19.1013 -2.54623 -4.05837 0
M  V30 193 H 17.4653 -1.27069 -2.20739 0
M  V30 194 H 18.2483 -2.90044 -1.83655 0
M  V30 195 N 20.6934 1.19889 -1.02296 0
M  V30 196 C 21.6434 2.20777 -0.56934 0
M  V30 197 C 22.6274 1.56379 0.378741 0
M  V30 198 O 23.8194 1.75859 0.200673 0
M  V30 199 C 20.9484 3.43196 0.0845077 0
M  V30 200 C 20.0344 4.14749 -0.88566 0
M  V30 201 N 20.4254 4.62584 -2.04573 0
M  V30 202 C 18.7234 4.40347 -0.707835 0
M  V30 203 C 19.4244 5.17466 -2.65714 0
M  V30 204 N 18.4004 5.0791 -1.93723 0
M  V30 205 H 22.2024 2.55434 -1.45365 0
M  V30 206 H 19.7164 1.35897 -0.88915 0
M  V30 207 H 21.7134 4.14707 0.427067 0
M  V30 208 H 20.3734 3.10042 0.964574 0
M  V30 209 H 21.3844 4.57597 -2.4254 0
M  V30 210 H 18.0614 4.17317 0.12364 0
M  V30 211 H 19.4514 5.64808 -3.63925 0
M  V30 212 N 22.1715 0.800033 1.35784 0
M  V30 213 C 23.4015 0.389041 2.02904 0
M  V30 214 C 23.8095 -1.0027 1.60445 0
M  V30 215 O 23.1525 -1.65633 0.794453 0
M  V30 216 C 23.2145 0.385495 3.57427 0
M  V30 217 C 22.8785 1.72662 4.23127 0
M  V30 218 C 23.8755 2.68385 4.4527 0
M  V30 219 C 21.5605 2.00883 4.60381 0
M  V30 220 C 23.5545 3.90517 5.03761 0
M  V30 221 C 21.2415 3.2328 5.18588 0
M  V30 222 C 22.2395 4.17915 5.40218 0
M  V30 223 O 21.9275 5.38153 5.97199 0
M  V30 224 H 21.6595 0.157032 0.657508 0
M  V30 225 H 24.2135 1.08311 1.74522 0
M  V30 226 H 22.4435 -0.365128 3.84972 0
M  V30 227 H 24.1325 -0.00228296 4.059 0
M  V30 228 H 24.8985 2.47872 4.16874 0
M  V30 229 H 20.7775 1.28037 4.42863 0
M  V30 230 H 24.3215 4.64395 5.2056 0
M  V30 231 H 20.2185 3.43667 5.4641 0
M  V30 232 H 20.9865 5.3936 6.15656 0
M  V30 233 N 23.6496 -1.47581 0.552962 0
M  V30 234 C 24.6126 -2.28439 -0.186605 0
M  V30 235 C 25.6126 -1.36706 -0.84665 0
M  V30 236 O 26.8026 -1.59378 -0.703164 0
M  V30 237 C 23.9346 -3.16264 -1.2724 0
M  V30 238 H 25.1276 -2.95294 0.523609 0
M  V30 239 H 22.6806 -1.532 0.309745 0
M  V30 240 H 23.4156 -2.54091 -2.01514 0
M  V30 241 H 23.2006 -3.83769 -0.803968 0
M  V30 242 H 24.6906 -3.77198 -1.79196 0
M  V30 243 N 25.1277 -0.289203 -1.54924 0
M  V30 244 C 26.5437 0.0645403 -1.59469 0
M  V30 245 C 26.7437 1.53419 -1.30632 0
M  V30 246 O 25.7997 2.2852 -1.074 0
M  V30 247 C 27.1127 -0.32278 -2.98963 0
M  V30 248 C 28.6607 -0.270564 -3.11828 0
M  V30 249 C 29.1357 -0.632532 -4.53611 0
M  V30 250 N 30.6267 -0.584617 -4.59496 0
M  V30 251 C 31.3617 -0.837314 -5.67254 0
M  V30 252 N 30.8577 -1.15536 -6.83098 0
M  V30 253 N 32.6507 -0.765166 -5.56868 0
M  V30 254 H 24.8017 -1.24714 -1.71931 0
M  V30 255 H 27.0647 -0.504809 -0.802416 0
M  V30 256 H 26.7707 -1.34541 -3.24948 0
M  V30 257 H 26.6447 0.32944 -3.75759 0
M  V30 258 H 29.0317 0.742805 -2.85598 0
M  V30 259 H 29.1127 -0.957242 -2.37214 0
M  V30 260 H 28.7567 -1.64365 -4.80569 0
M  V30 261 H 28.6867 0.07609 -5.26545 0
M  V30 262 H 31.1777 -0.349248 -3.76283 0
M  V30 263 H 31.4907 -1.33447 -7.61191 0
M  V30 264 H 29.8357 -1.19328 -6.84679 0
M  V30 265 H 33.0267 -0.516432 -4.65243 0
M  V30 266 H 33.1997 -0.965477 -6.40767 0
M  V30 267 N 26.6058 1.57591 -0.0167156 0
M  V30 268 C 27.8518 1.92399 0.659861 0
M  V30 269 C 28.2068 0.892561 1.70444 0
M  V30 270 O 27.4998 -0.0930755 1.91374 0
M  V30 271 C 27.6938 3.3172 1.33029 0
M  V30 272 C 27.5228 4.48319 0.352174 0
M  V30 273 C 26.2928 5.05281 -0.0434883 0
M  V30 274 C 28.4908 5.12831 -0.388474 0
M  V30 275 N 26.4728 6.05399 -1.01807 0
M  V30 276 C 27.8438 6.07934 -1.2172 0
M  V30 277 C 29.8988 4.95858 -0.450513 0
M  V30 278 C 28.6018 6.87891 -2.10235 0
M  V30 279 C 30.6278 5.76413 -1.32295 0
M  V30 280 C 29.9898 6.71123 -2.13948 0
M  V30 281 H 26.0888 0.752106 0.21415 0
M  V30 282 H 28.6728 1.94532 -0.0809846 0
M  V30 283 H 26.8438 3.3043 2.04134 0
M  V30 284 H 28.5758 3.5391 1.9629 0
M  V30 285 H 25.3308 4.7246 0.328384 0
M  V30 286 H 25.7548 6.60145 -1.50123 0
M  V30 287 H 30.3968 4.22472 0.166512 0
M  V30 288 H 28.1148 7.60591 -2.72997 0
M  V30 289 H 31.7008 5.65317 -1.37508 0
M  V30 290 H 30.5808 7.3237 -2.80364 0
M  V30 291 N 28.0839 -0.256276 1.55502 0
M  V30 292 C 29.3609 -1.00789 1.67633 0
M  V30 293 C 29.7409 -2.03706 0.553826 0
M  V30 294 O 29.0889 -2.24145 -0.443969 0
M  V30 295 C 29.2989 -1.64968 3.07549 0
M  V30 296 C 30.6469 -2.15505 3.65845 0
M  V30 297 O 31.6709 -1.74925 3.1029 0
M  V30 298 O 30.5299 -2.89986 4.63217 0
M  V30 299 H 27.6239 -0.468553 0.681459 0
M  V30 300 H 30.1699 -0.250806 1.67836 0
M  V30 301 H 28.9419 -0.904785 3.80696 0
M  V30 302 H 28.5649 -2.47321 3.11317 0
M  V30 303 N 29.562 -1.4872 -0.521534 0
M  V30 304 C 30.978 -1.35028 -0.850855 0
M  V30 305 C 31.178 -0.367712 -1.98116 0
M  V30 306 O 30.234 0.208037 -2.51642 0
M  V30 307 C 31.547 -2.75263 -1.21041 0
M  V30 308 C 33.095 -2.83813 -1.31981 0
M  V30 309 C 33.57 -4.24769 -1.71276 0
M  V30 310 N 35.061 -4.27482 -1.78363 0
M  V30 311 C 35.796 -5.33494 -2.1017 0
M  V30 312 N 35.292 -6.49775 -2.40343 0
M  V30 313 N 37.085 -5.20894 -2.11248 0
M  V30 314 H 29.236 -2.11214 0.22413 0
M  V30 315 H 31.499 -0.947252 0.0376439 0
M  V30 316 H 31.205 -3.48765 -0.453415 0
M  V30 317 H 31.079 -3.09327 -2.15863 0
M  V30 318 H 33.466 -2.10561 -2.06756 0
M  V30 319 H 33.547 -2.53358 -0.352596 0
M  V30 320 H 33.191 -4.9854 -0.970588 0
M  V30 321 H 33.121 -4.52673 -2.69062 0
M  V30 322 H 35.612 -3.43611 -1.57288 0
M  V30 323 H 35.925 -7.26402 -2.63743 0
M  V30 324 H 34.27 -6.53035 -2.37844 0
M  V30 325 H 37.461 -4.29065 -1.87139 0
M  V30 326 H 37.634 -6.03612 -2.35704 0
M  V30 327 N 31.0401 0.771051 -1.3745 0
M  V30 328 C 32.4561 1.07171 -1.18265 0
M  V30 329 C 32.6561 2.01491 -0.019287 0
M  V30 330 O 31.7121 2.44244 0.640408 0
M  V30 331 C 33.0251 1.66854 -2.50161 0
M  V30 332 C 34.5731 1.79109 -2.56689 0
M  V30 333 C 35.0481 2.42205 -3.88717 0
M  V30 334 N 36.5391 2.49655 -3.90162 0
M  V30 335 C 37.2741 2.9933 -4.8907 0
M  V30 336 N 36.7701 3.49172 -5.98374 0
M  V30 337 N 38.5631 2.9821 -4.76474 0
M  V30 338 H 30.7141 0.144796 -2.11906 0
M  V30 339 H 32.9771 0.126863 -0.939473 0
M  V30 340 H 32.6831 1.05017 -3.35655 0
M  V30 341 H 32.5571 2.6614 -2.673 0
M  V30 342 H 34.9441 2.40077 -1.71601 0
M  V30 343 H 35.0251 0.785757 -2.43433 0
M  V30 344 H 34.6691 1.81875 -4.74219 0
M  V30 345 H 34.5991 3.43345 -3.99276 0
M  V30 346 H 37.0901 2.14383 -3.11205 0
M  V30 347 H 37.4031 3.8548 -6.69795 0
M  V30 348 H 35.7481 3.47275 -6.02018 0
M  V30 349 H 38.9391 2.58572 -3.90203 0
M  V30 350 H 39.1121 3.36613 -5.53711 0
M  V30 351 N 32.5182 1.22032 0.997298 0
M  V30 352 C 33.7952 0.950823 1.70935 0
M  V30 353 C 34.1752 -0.535292 2.042 0
M  V30 354 O 33.5232 -1.50217 1.72183 0
M  V30 355 C 33.7332 1.84386 2.96315 0
M  V30 356 C 35.0812 2.09732 3.69185 0
M  V30 357 O 36.1052 1.81798 3.06314 0
M  V30 358 O 34.9642 2.57018 4.82291 0
M  V30 359 H 32.0582 0.357204 0.745878 0
M  V30 360 H 34.6042 1.32997 1.05404 0
M  V30 361 H 33.3762 2.84928 2.68201 0
M  V30 362 H 32.9992 1.46602 3.69586 0
M  V30 363 N 33.9963 -1.19345 1.0293 0
M  V30 364 C 35.2213 -1.93538 0.745511 0
M  V30 365 C 35.6463 -1.75007 -0.689511 0
M  V30 366 O 35.0043 -1.05265 -1.47611 0
M  V30 367 C 35.0523 -3.43336 1.10239 0
M  V30 368 O 34.1563 -4.11806 0.221289 0
M  V30 369 H 33.4973 -0.604193 0.275404 0
M  V30 370 H 36.0273 -1.5141 1.37609 0
M  V30 371 H 36.0373 -3.94004 1.05947 0
M  V30 372 H 34.7123 -3.56146 2.14786 0
M  V30 373 H 33.2893 -3.715 0.322842 0
M  V30 374 N 35.4744 -0.807222 -1.35358 0
M  V30 375 C 36.7204 -0.388463 -1.99045 0
M  V30 376 C 37.0534 1.04184 -1.63888 0
M  V30 377 O 36.3284 1.72292 -0.902535 0
M  V30 378 C 36.6114 -0.572783 -3.55515 0
M  V30 379 C 36.4644 -2.04807 -4.00468 0
M  V30 380 C 37.7834 0.00114064 -4.401 0
M  V30 381 H 34.9024 -0.142619 -0.723069 0
M  V30 382 H 37.5444 -1.01687 -1.60498 0
M  V30 383 H 35.6944 -0.0378425 -3.88482 0
M  V30 384 H 37.3664 -2.64544 -3.77908 0
M  V30 385 H 35.6094 -2.54427 -3.51353 0
M  V30 386 H 36.2804 -2.12792 -5.09337 0
M  V30 387 H 38.7564 -0.455716 -4.13597 0
M  V30 388 H 37.6324 -0.157737 -5.48673 0
M  V30 389 H 37.8934 1.09488 -4.28328 0
M  V30 390 N 36.9525 1.47285 -0.560781 0
M  V30 391 C 37.8625 2.33846 0.187954 0
M  V30 392 C 38.8785 1.48412 0.908293 0
M  V30 393 O 40.0545 1.81332 0.876388 0
M  V30 394 C 37.1195 3.25178 1.2025 0
M  V30 395 C 36.1805 4.26504 0.489208 0
M  V30 396 C 35.4135 5.13472 1.45542 0
M  V30 397 O 35.6365 5.02959 2.6905 0
M  V30 398 O 34.5705 5.93902 0.977963 0
M  V30 399 H 38.3965 2.99177 -0.522177 0
M  V30 400 H 35.9815 1.45903 -0.321364 0
M  V30 401 H 37.8635 3.81584 1.78805 0
M  V30 402 H 36.5385 2.6247 1.89449 0
M  V30 403 H 35.4455 3.73847 -0.137627 0
M  V30 404 H 36.7785 4.91935 -0.161399 0
M  V30 405 N 38.4306 0.297415 1.54768 0
M  V30 406 C 39.6556 -0.318435 2.04941 0
M  V30 407 C 40.0806 -1.4701 1.17345 0
M  V30 408 O 39.4386 -1.80436 0.176758 0
M  V30 409 C 39.4866 -0.755749 3.52592 0
M  V30 410 O 38.5906 -1.86088 3.68028 0
M  V30 411 H 37.9316 -0.062421 0.661059 0
M  V30 412 H 40.4616 0.438215 1.99852 0
M  V30 413 H 40.4716 -1.04552 3.94376 0
M  V30 414 H 39.1466 0.0867233 4.1581 0
M  V30 415 H 37.7236 -1.57193 3.38149 0
M  V30 416 N 39.9087 -1.5758 0.0250728 0
M  V30 417 C 41.1567 -1.91255 -0.653151 0
M  V30 418 C 41.4777 -0.901691 -1.729 0
M  V30 419 O 40.7477 0.0573785 -1.95816 0
M  V30 420 H 39.3277 -0.705942 -0.244243 0
M  V30 421 H 41.9897 -1.94767 0.0719209 0
M  V30 422 H 41.0857 -2.91752 -1.10847 0
M  V30 423 N 41.3868 0.248026 -1.55636 0
M  V30 424 C 42.6268 0.983592 -1.79178 0
M  V30 425 C 42.9908 1.82567 -0.594414 0
M  V30 426 O 44.1918 2.59292 -0.708583 0
M  V30 427 C 42.4628 1.82228 -3.07454 0
M  V30 428 S 44.0218 2.61709 -3.52213 0
M  V30 429 H 40.8398 0.330866 -0.629324 0
M  V30 430 H 43.4418 0.251562 -1.93875 0
M  V30 431 H 42.1458 1.19333 -3.92668 0
M  V30 432 H 41.6768 2.59708 -2.95492 0
M  V30 433 H 43.6918 3.84655 -3.13457 0
M  V30 434 N 42.8649 1.48995 0.513639 0
M  V30 435 C 43.7969 1.60836 1.63293 0
M  V30 436 C 44.8099 0.491701 1.55197 0
M  V30 437 O 45.9989 0.763238 1.6136 0
M  V30 438 C 43.0989 1.53731 3.02027 0
M  V30 439 C 42.2719 2.80715 3.35437 0
M  V30 440 C 41.3309 2.66837 4.53525 0
M  V30 441 O 40.3569 3.40753 4.55934 0
M  V30 442 N 41.5589 1.77539 5.52684 0
M  V30 443 H 44.3239 2.57366 1.53566 0
M  V30 444 H 41.8849 1.45925 0.701259 0
M  V30 445 H 43.8769 1.42118 3.78926 0
M  V30 446 H 42.4469 0.651092 3.05744 0
M  V30 447 H 41.6669 3.06772 2.47557 0
M  V30 448 H 42.9549 3.64927 3.54551 0
M  V30 449 H 42.3529 1.16719 5.53528 0
M  V30 450 H 40.9099 1.71856 6.28736 0
M  V30 451 N 44.343 -0.763751 1.37857 0
M  V30 452 C 45.571 -1.55293 1.36718 0
M  V30 453 C 45.986 -1.88745 -0.0455434 0
M  V30 454 O 45.343 -1.52039 -1.00947 0
M  V30 455 C 45.394 -2.85831 2.2132 0
M  V30 456 O 45.115 -2.5381 3.57089 0
M  V30 457 C 46.616 -3.80023 2.28249 0
M  V30 458 H 43.836 -0.480841 0.468009 0
M  V30 459 H 46.38 -0.946009 1.81303 0
M  V30 460 H 44.535 -3.42926 1.80223 0
M  V30 461 H 44.949 -3.37459 4.01524 0
M  V30 462 H 46.423 -4.68599 2.91752 0
M  V30 463 H 46.9 -4.1973 1.2932 0
M  V30 464 H 47.506 -3.28855 2.69693 0
M  V30 465 N 45.8211 -1.22559 -0.990812 0
M  V30 466 C 46.7311 -1.01394 -2.11557 0
M  V30 467 C 47.7471 0.0383962 -1.73958 0
M  V30 468 O 48.9231 -0.154787 -2.00804 0
M  V30 469 C 45.9881 -0.596569 -3.41529 0
M  V30 470 C 45.0491 -1.72276 -3.93217 0
M  V30 471 C 44.2821 -1.32521 -5.16985 0
M  V30 472 O 44.5051 -0.204909 -5.70032 0
M  V30 473 O 43.4391 -2.14247 -5.62478 0
M  V30 474 H 47.2651 -1.95633 -2.32296 0
M  V30 475 H 44.8501 -1.01172 -1.0993 0
M  V30 476 H 46.7321 -0.374263 -4.19735 0
M  V30 477 H 45.4071 0.316939 -3.22145 0
M  V30 478 H 44.3141 -1.99961 -3.16174 0
M  V30 479 H 45.6471 -2.61421 -4.17037 0
M  V30 480 N 47.2992 1.18797 -1.03562 0
M  V30 481 C 48.5242 1.9314 -0.755764 0
M  V30 482 C 48.9492 1.7537 0.68022 0
M  V30 483 O 48.3072 1.06046 1.47051 0
M  V30 484 C 48.3552 3.42747 -1.12058 0
M  V30 485 O 47.4592 4.11683 -0.243124 0
M  V30 486 H 46.8002 0.602724 -0.278604 0
M  V30 487 H 49.3302 1.50678 -1.3841 0
M  V30 488 H 49.3402 3.93437 -1.08035 0
M  V30 489 H 48.0152 3.55002 -2.16672 0
M  V30 490 H 46.5922 3.71323 -0.342539 0
M  V30 491 N 48.7773 0.814389 1.34928 0
M  V30 492 C 50.0023 0.410097 2.03305 0
M  V30 493 C 50.4273 -0.973464 1.60951 0
M  V30 494 O 49.7853 -1.63185 0.789964 0
M  V30 495 C 49.8333 0.51049 3.56968 0
M  V30 496 O 48.9373 -0.473035 4.09678 0
M  V30 497 H 48.2783 0.170088 0.641846 0
M  V30 498 H 50.8083 1.10244 1.72358 0
M  V30 499 H 50.8183 0.383135 4.06197 0
M  V30 500 H 49.4933 1.51963 3.87144 0
M  V30 501 H 48.0703 -0.305272 3.71648 0
M  V30 502 N 50.2554 -1.46986 0.568584 0
M  V30 503 C 51.2024 -2.30153 -0.172707 0
M  V30 504 C 52.1724 -1.39759 -0.897586 0
M  V30 505 O 53.3574 -1.68716 -0.891044 0
M  V30 506 C 50.4974 -3.23952 -1.1895 0
M  V30 507 C 49.6104 -4.29441 -0.469517 0
M  V30 508 C 48.7454 -5.1038 -1.47259 0
M  V30 509 C 47.7844 -6.07632 -0.738225 0
M  V30 510 N 46.9214 -6.8149 -1.68868 0
M  V30 511 H 51.7614 -2.93019 0.542596 0
M  V30 512 H 49.2984 -1.44422 0.279401 0
M  V30 513 H 51.2564 -3.76767 -1.79173 0
M  V30 514 H 49.8864 -2.62926 -1.87269 0
M  V30 515 H 48.9384 -3.79594 0.247467 0
M  V30 516 H 50.2504 -4.98689 0.105241 0
M  V30 517 H 49.4044 -5.67402 -2.14803 0
M  V30 518 H 48.1434 -4.4106 -2.08128 0
M  V30 519 H 47.1484 -5.49778 -0.0489293 0
M  V30 520 H 48.3734 -6.78966 -0.135129 0
M  V30 521 H 46.3194 -6.14891 -2.28573 0
M  V30 522 H 46.2364 -7.46948 -1.16636 0
M  V30 523 H 47.5044 -7.43078 -2.3549 0
M  V30 524 N 51.7335 -0.305618 -1.54608 0
M  V30 525 C 52.6435 0.57778 -2.27374 0
M  V30 526 C 53.6595 1.14451 -1.31061 0
M  V30 527 O 54.8355 1.16831 -1.6405 0
M  V30 528 C 51.9005 1.73123 -3.00382 0
M  V30 529 C 50.9615 1.19812 -4.12242 0
M  V30 530 C 50.1945 2.2966 -4.81759 0
M  V30 531 O 50.4175 3.49651 -4.50666 0
M  V30 532 O 49.3515 1.96091 -5.69062 0
M  V30 533 H 53.1775 -0.012624 -3.03697 0
M  V30 534 H 50.7625 -0.0719184 -1.49227 0
M  V30 535 H 52.6445 2.40315 -3.4616 0
M  V30 536 H 51.3195 2.30815 -2.26949 0
M  V30 537 H 50.2265 0.491798 -3.70853 0
M  V30 538 H 51.5595 0.666566 -4.87666 0
M  V30 539 N 53.2116 1.57565 -0.0334293 0
M  V30 540 C 54.4596 1.91598 0.642999 0
M  V30 541 C 54.7806 0.910847 1.7242 0
M  V30 542 O 54.0506 -0.0469931 1.95844 0
M  V30 543 H 52.6306 0.707228 0.240496 0
M  V30 544 H 55.2926 1.94726 -0.0822488 0
M  V30 545 H 54.3886 2.92336 1.09298 0
M  V30 546 N 54.6897 -0.239769 1.55765 0
M  V30 547 C 55.5997 -1.31831 1.94056 0
M  V30 548 C 56.6157 -1.52275 0.841925 0
M  V30 549 O 57.7917 -1.65759 1.14394 0
M  V30 550 C 54.8567 -2.65156 2.23368 0
M  V30 551 C 53.9177 -2.53173 3.46701 0
M  V30 552 C 53.1507 -3.8014 3.74606 0
M  V30 553 O 53.3737 -4.82343 3.04469 0
M  V30 554 O 52.3077 -3.78344 4.68123 0
M  V30 555 H 56.1337 -1.02347 2.85935 0
M  V30 556 H 53.7187 -0.441123 1.42739 0
M  V30 557 H 55.6007 -3.43929 2.43497 0
M  V30 558 H 54.2757 -2.94358 1.34666 0
M  V30 559 H 53.1827 -1.72662 3.31871 0
M  V30 560 H 54.5157 -2.28915 4.35728 0
M  V30 561 N 56.1678 -1.49265 -0.50573 0
M  V30 562 C 57.0778 -1.68312 -1.63427 0
M  V30 563 C 58.0938 -0.565682 -1.64548 0
M  V30 564 O 59.2698 -0.839801 -1.83055 0
M  V30 565 C 56.3348 -1.74107 -2.99813 0
M  V30 566 C 55.3958 -2.97653 -3.09356 0
M  V30 567 C 54.6288 -3.03163 -4.39236 0
M  V30 568 O 54.8518 -2.16396 -5.27758 0
M  V30 569 O 53.7858 -3.9558 -4.53652 0
M  V30 570 H 57.6118 -2.63907 -1.50289 0
M  V30 571 H 55.1968 -1.32951 -0.681502 0
M  V30 572 H 57.0788 -1.803 -3.80881 0
M  V30 573 H 55.7538 -0.816901 -3.13223 0
M  V30 574 H 54.6608 -2.96981 -2.27493 0
M  V30 575 H 55.9938 -3.89535 -3.00871 0
M  V30 576 N 57.6459 0.756429 -1.3826 0
M  V30 577 C 58.8939 1.51248 -1.34047 0
M  V30 578 C 59.2149 1.94875 0.0698372 0
M  V30 579 O 58.4849 1.67436 1.01696 0
M  V30 580 H 57.0649 0.561018 -0.493222 0
M  V30 581 H 59.7269 0.899347 -1.7291 0
M  V30 582 H 58.8229 2.40472 -1.98947 0
M  V30 583 N 59.124 1.23083 0.984299 0
M  V30 584 C 60.056 0.96636 2.07832 0
M  V30 585 C 61.069 -0.0582135 1.62696 0
M  V30 586 O 62.258 0.176843 1.77622 0
M  V30 587 C 59.358 0.433397 3.36117 0
M  V30 588 C 58.531 1.51722 4.10243 0
M  V30 589 C 57.59 0.989821 5.16807 0
M  V30 590 O 56.616 1.67794 5.43906 0
M  V30 591 N 57.818 -0.184367 5.80207 0
M  V30 592 H 60.583 1.90824 2.31098 0
M  V30 593 H 58.144 1.13888 1.1507 0
M  V30 594 H 60.136 0.065699 4.04647 0
M  V30 595 H 58.706 -0.413806 3.09849 0
M  V30 596 H 57.926 2.05786 3.36223 0
M  V30 597 H 59.214 2.24619 4.56534 0
M  V30 598 H 58.612 -0.760062 5.60571 0
M  V30 599 H 57.169 -0.493366 6.4993 0
M  V30 600 N 60.6021 -1.18246 1.0419 0
M  V30 601 C 62.0131 -1.69914 0.773698 0
M  V30 602 C 62.3641 -1.83085 -0.705297 0
M  V30 603 O 61.4891 -1.51123 -1.5489 0
M  V30 604 C 62.0841 -3.08619 1.39784 0
M  V30 605 C 60.6431 -3.57494 1.17792 0
M  V30 606 C 59.7901 -2.34013 1.48773 0
M  V30 607 H 62.7411 -1.02904 1.20816 0
M  V30 608 H 62.7621 -3.71958 0.801714 0
M  V30 609 H 62.2741 -2.99001 2.47426 0
M  V30 610 H 60.3751 -3.72406 0.120295 0
M  V30 611 H 60.4881 -4.40852 1.87581 0
M  V30 612 H 58.8521 -2.37986 0.907463 0
M  V30 613 H 59.6351 -2.27013 2.57527 0
M  V30 614 N 62.0802 -0.821533 -1.34494 0
M  V30 615 C 63.4962 -0.507117 -1.51329 0
M  V30 616 C 63.6962 0.968964 -1.76673 0
M  V30 617 O 62.7522 1.75348 -1.81685 0
M  V30 618 C 64.0652 -1.36544 -2.67911 0
M  V30 619 C 65.6132 -1.36242 -2.81793 0
M  V30 620 C 66.0882 -2.2052 -4.01416 0
M  V30 621 N 67.5792 -2.18136 -4.08621 0
M  V30 622 C 68.3142 -2.80095 -5.00334 0
M  V30 623 N 67.8102 -3.51039 -5.9728 0
M  V30 624 N 69.6032 -2.69656 -4.93196 0
M  V30 625 H 61.7542 -1.77729 -1.16302 0
M  V30 626 H 64.0172 -0.757291 -0.570276 0
M  V30 627 H 63.7232 -2.41361 -2.55808 0
M  V30 628 H 63.5972 -1.02917 -3.62888 0
M  V30 629 H 65.9842 -0.322041 -2.93338 0
M  V30 630 H 66.0652 -1.73866 -1.87628 0
M  V30 631 H 65.7092 -3.24607 -3.90631 0
M  V30 632 H 65.6392 -1.80247 -4.94791 0
M  V30 633 H 68.1302 -1.6653 -3.39229 0
M  V30 634 H 68.4432 -3.95565 -6.63889 0
M  V30 635 H 66.7882 -3.55145 -5.97409 0
M  V30 636 H 69.9792 -2.13808 -4.16418 0
M  V30 637 H 70.1522 -3.1823 -5.64476 0
M  V30 638 N 63.5583 1.46682 -0.576371 0
M  V30 639 C 64.4903 2.28341 0.198231 0
M  V30 640 C 65.5033 1.38141 0.861453 0
M  V30 641 O 66.6923 1.62797 0.732082 0
M  V30 642 C 63.7923 3.12986 1.29972 0
M  V30 643 C 62.9653 4.31271 0.729639 0
M  V30 644 C 62.0243 4.97363 1.71803 0
M  V30 645 O 61.0503 5.55156 1.25658 0
M  V30 646 N 62.2523 4.93796 3.05198 0
M  V30 647 H 65.0173 2.9546 -0.502324 0
M  V30 648 H 62.5783 1.56525 -0.413715 0
M  V30 649 H 64.5703 3.54066 1.96008 0
M  V30 650 H 63.1403 2.47984 1.90323 0
M  V30 651 H 62.3603 3.94052 -0.108012 0
M  V30 652 H 63.6483 5.07739 0.328438 0
M  V30 653 H 63.0463 4.48077 3.45317 0
M  V30 654 H 61.6033 5.38837 3.6674 0
M  V30 655 N 65.0364 0.313813 1.54444 0
M  V30 656 C 65.9664 -0.549454 2.26943 0
M  V30 657 C 66.9474 -1.12741 1.27372 0
M  V30 658 O 68.1324 -1.15436 1.56167 0
M  V30 659 C 65.2624 -1.71523 3.01989 0
M  V30 660 C 64.2164 -1.26703 4.08816 0
M  V30 661 C 63.5424 -2.51898 4.71647 0
M  V30 662 C 64.8424 -0.388962 5.2085 0
M  V30 663 H 66.5364 0.0552661 2.99349 0
M  V30 664 H 64.0824 0.0280207 1.43973 0
M  V30 665 H 66.0354 -2.32535 3.51433 0
M  V30 666 H 64.7594 -2.34639 2.27183 0
M  V30 667 H 63.4184 -0.679896 3.6024 0
M  V30 668 H 63.0664 -3.13356 3.93468 0
M  V30 669 H 62.7664 -2.22605 5.43802 0
M  V30 670 H 64.2904 -3.1369 5.23861 0
M  V30 671 H 65.7044 -0.905107 5.6611 0
M  V30 672 H 64.1014 -0.18924 5.99802 0
M  V30 673 H 65.1714 0.582699 4.81386 0
M  V30 674 N 66.5145 -1.57545 0.0417849 0
M  V30 675 C 67.7425 -1.96624 -0.643928 0
M  V30 676 C 68.1575 -0.918897 -1.64929 0
M  V30 677 O 67.5145 0.0979323 -1.82237 0
M  V30 678 C 67.5655 -3.35781 -1.33914 0
M  V30 679 O 67.2865 -4.365 -0.374048 0
M  V30 680 C 68.7875 -3.89566 -2.1155 0
M  V30 681 H 66.0075 -0.647316 -0.176702 0
M  V30 682 H 68.5515 -2.04229 0.105304 0
M  V30 683 H 66.7065 -3.29357 -2.03968 0
M  V30 684 H 67.1205 -5.17248 -0.869179 0
M  V30 685 H 68.5945 -4.89242 -2.55628 0
M  V30 686 H 69.0715 -3.24488 -2.9598 0
M  V30 687 H 69.6775 -3.99298 -1.46427 0
M  V30 688 N 67.9926 0.231505 -1.5589 0
M  V30 689 C 69.4036 0.799327 -1.68724 0
M  V30 690 C 69.7546 1.85398 -0.642022 0
M  V30 691 O 68.8796 2.1539 0.208784 0
M  V30 692 C 69.4746 1.45664 -3.05888 0
M  V30 693 C 68.0336 1.97197 -3.20609 0
M  V30 694 C 67.1806 0.828552 -2.64632 0
M  V30 695 H 70.1316 0.00702616 -1.58698 0
M  V30 696 H 70.1526 2.32517 -3.01191 0
M  V30 697 H 69.6646 0.688808 -3.81939 0
M  V30 698 H 67.7656 2.76813 -2.4941 0
M  V30 699 H 67.8786 2.15878 -4.27707 0
M  V30 700 H 66.2426 1.23321 -2.22854 0
M  V30 701 H 67.0256 0.0735544 -3.43221 0
M  V30 702 N 69.4707 1.49531 0.497807 0
M  V30 703 C 70.7177 1.59179 1.25173 0
M  V30 704 C 71.0457 0.279932 1.92475 0
M  V30 705 O 70.3007 -0.732383 1.81479 0
M  V30 706 C 70.5997 2.70252 2.33878 0
M  V30 707 C 70.2657 4.11644 1.84012 0
M  V30 708 C 68.9277 4.50121 1.70132 0
M  V30 709 C 71.2797 5.00121 1.46725 0
M  V30 710 C 68.6077 5.74845 1.17348 0
M  V30 711 C 70.9597 6.25366 0.95392 0
M  V30 712 C 69.6237 6.6267 0.801538 0
M  V30 713 H 68.8937 0.582478 0.45804 0
M  V30 714 H 71.5407 1.83373 0.551948 0
M  V30 715 H 69.8457 2.40041 3.09657 0
M  V30 716 H 71.5427 2.74925 2.9192 0
M  V30 717 H 68.1327 3.81274 1.95775 0
M  V30 718 H 72.3167 4.71048 1.56294 0
M  V30 719 H 67.5727 6.02444 1.04264 0
M  V30 720 H 71.7467 6.93301 0.656225 0
M  V30 721 H 69.3737 7.59197 0.390351 0
M  V30 722 N 70.9488 -0.749086 1.3866 0
M  V30 723 C 71.8588 -1.89358 1.38494 0
M  V30 724 C 72.8748 -1.71708 0.281476 0
M  V30 725 O 74.0508 -1.94554 0.520643 0
M  V30 726 C 71.1158 -3.24782 1.21316 0
M  V30 727 C 70.1768 -3.54926 2.41508 0
M  V30 728 C 69.4098 -4.83888 2.2514 0
M  V30 729 O 69.6328 -5.56592 1.24746 0
M  V30 730 O 68.5668 -5.13612 3.13826 0
M  V30 731 H 72.3928 -1.92452 2.34938 0
M  V30 732 H 69.9778 -0.894981 1.19626 0
M  V30 733 H 71.8598 -4.05739 1.13814 0
M  V30 734 H 70.5348 -3.2249 0.279592 0
M  V30 735 H 69.4418 -2.74112 2.54585 0
M  V30 736 H 70.7748 -3.61983 3.3351 0
M  V30 737 N 72.4269 -1.23603 -0.977757 0
M  V30 738 C 73.3739 -1.01954 -2.07061 0
M  V30 739 C 74.3439 0.0638697 -1.65977 0
M  V30 740 O 75.5289 -0.0887624 -1.90593 0
M  V30 741 C 72.6689 -0.619658 -3.39491 0
M  V30 742 C 71.7819 -1.77547 -3.93829 0
M  V30 743 C 70.9169 -1.32212 -5.14484 0
M  V30 744 C 69.9559 -2.44852 -5.60994 0
M  V30 745 N 69.0929 -2.00456 -6.72876 0
M  V30 746 H 73.9329 -1.95495 -2.24913 0
M  V30 747 H 71.4699 -0.973861 -1.10247 0
M  V30 748 H 73.4279 -0.368898 -4.15566 0
M  V30 749 H 72.0579 0.278752 -3.21594 0
M  V30 750 H 71.1099 -2.14016 -3.14486 0
M  V30 751 H 72.4219 -2.62219 -4.24314 0
M  V30 752 H 71.5759 -1.02965 -5.97899 0
M  V30 753 H 70.3149 -0.445808 -4.85658 0
M  V30 754 H 69.3199 -2.74871 -4.76157 0
M  V30 755 H 70.5449 -3.33024 -5.91837 0
M  V30 756 H 68.4909 -1.15208 -6.45804 0
M  V30 757 H 68.4079 -2.78687 -7.02759 0
M  V30 758 H 69.6759 -1.7432 -7.59758 0
M  V30 759 N 73.905 1.17692 -1.04816 0
M  V30 760 C 74.835 2.23777 -0.666791 0
M  V30 761 C 75.816 1.66796 0.33361 0
M  V30 762 O 77.001 1.93039 0.212042 0
M  V30 763 C 74.131 3.47281 -0.0367933 0
M  V30 764 C 73.085 4.17059 -0.961546 0
M  V30 765 C 72.411 5.34342 -0.195626 0
M  V30 766 C 73.711 4.69713 -2.28402 0
M  V30 767 H 75.405 2.55933 -1.55367 0
M  V30 768 H 72.951 1.23019 -0.748484 0
M  V30 769 H 74.904 4.20706 0.241775 0
M  V30 770 H 73.628 3.14381 0.885004 0
M  V30 771 H 72.287 3.45541 -1.22462 0
M  V30 772 H 71.935 4.97692 0.728816 0
M  V30 773 H 71.635 5.81966 -0.811775 0
M  V30 774 H 73.159 6.10553 0.0757473 0
M  V30 775 H 74.573 5.34794 -2.06563 0
M  V30 776 H 72.97 5.279 -2.8538 0
M  V30 777 H 74.04 3.86726 -2.92525 0
M  V30 778 N 75.3831 0.828654 1.34056 0
M  V30 779 C 76.6111 0.43262 2.02326 0
M  V30 780 C 77.0261 -0.963147 1.62385 0
M  V30 781 O 76.3831 -1.62425 0.832121 0
M  V30 782 C 76.4341 0.53182 3.57567 0
M  V30 783 O 76.1551 1.87258 3.96063 0
M  V30 784 C 77.6561 0.131422 4.43105 0
M  V30 785 H 74.8761 0.172923 0.648335 0
M  V30 786 H 77.4201 1.1184 1.71208 0
M  V30 787 H 75.5751 -0.105938 3.87255 0
M  V30 788 H 75.9891 1.85087 4.90758 0
M  V30 789 H 77.4631 0.251904 5.51425 0
M  V30 790 H 77.9401 -0.925645 4.29335 0
M  V30 791 H 78.5461 0.743207 4.18756 0
M  V30 792 N 76.8612 -1.46375 0.584142 0
M  V30 793 C 77.7932 -2.28443 -0.186119 0
M  V30 794 C 78.8062 -1.38596 -0.854115 0
M  V30 795 O 79.9952 -1.63183 -0.723438 0
M  V30 796 C 77.0952 -3.13671 -1.28311 0
M  V30 797 C 76.2682 -4.31652 -0.706758 0
M  V30 798 C 75.3272 -4.98267 -1.69163 0
M  V30 799 O 74.3532 -5.55815 -1.22712 0
M  V30 800 N 75.5552 -4.95408 -3.02575 0
M  V30 801 H 78.3202 -2.9519 0.517986 0
M  V30 802 H 75.8812 -1.56303 0.42201 0
M  V30 803 H 77.8732 -3.55101 -1.94128 0
M  V30 804 H 76.4432 -2.48989 -1.89005 0
M  V30 805 H 75.6632 -3.93989 0.128908 0
M  V30 806 H 76.9512 -5.07906 -0.301506 0
M  V30 807 H 76.3492 -4.49902 -3.42936 0
M  V30 808 H 74.9062 -5.40774 -3.63877 0
M  V30 809 N 78.3393 -0.321999 -1.54275 0
M  V30 810 C 79.6163 0.335232 -1.92706 0
M  V30 811 C 79.9963 1.70006 -1.25145 0
M  V30 812 O 79.3443 2.25067 -0.394596 0
M  V30 813 C 79.5543 0.429008 -3.46353 0
M  V30 814 C 80.9023 0.690029 -4.18956 0
M  V30 815 O 81.9263 0.511992 -3.52501 0
M  V30 816 O 80.7853 1.03338 -5.36641 0
M  V30 817 H 77.8793 0.191143 -0.804608 0
M  V30 818 H 80.4253 -0.3716 -1.65581 0
M  V30 819 H 79.1973 -0.529611 -3.87699 0
M  V30 820 H 78.8203 1.18348 -3.79578 0
M  V30 821 N 79.8174 1.5752 -0.0501392 0
M  V30 822 C 80.7504 2.07026 0.959962 0
M  V30 823 C 81.7284 0.970539 1.30458 0
M  V30 824 O 82.9124 1.2424 1.41763 0
M  V30 825 C 80.0394 2.5099 2.27424 0
M  V30 826 C 79.0854 3.72188 2.08275 0
M  V30 827 S 79.9184 5.17888 1.36207 0
M  V30 828 C 81.0744 5.65165 2.6896 0
M  V30 829 H 81.3074 2.9238 0.538631 0
M  V30 830 H 78.8404 1.53547 0.162099 0
M  V30 831 H 80.7984 2.76982 3.02971 0
M  V30 832 H 79.4594 1.65944 2.66686 0
M  V30 833 H 78.6524 4.00866 3.05487 0
M  V30 834 H 78.2544 3.46457 1.40868 0
M  V30 835 H 80.5464 5.70687 3.65133 0
M  V30 836 H 81.4894 6.64394 2.4492 0
M  V30 837 H 81.8974 4.9289 2.75172 0
M  V30 838 N 81.2955 -0.223234 1.56011 0
M  V30 839 C 82.5205 -0.968978 1.83373 0
M  V30 840 C 82.9455 -1.77227 0.630254 0
M  V30 841 O 82.3035 -1.76345 -0.420959 0
M  V30 842 C 82.3515 -1.86363 3.08709 0
M  V30 843 O 81.4555 -2.95873 2.87285 0
M  V30 844 H 80.7965 -0.274461 0.604622 0
M  V30 845 H 83.3265 -0.237056 2.03222 0
M  V30 846 H 83.3365 -2.27376 3.38768 0
M  V30 847 H 82.0115 -1.27319 3.95933 0
M  V30 848 H 80.5885 -2.58818 2.68454 0
M  V30 849 N 82.7736 -1.49793 -0.48987 0
M  V30 850 C 83.7056 -1.63413 -1.60713 0
M  V30 851 C 84.7186 -0.516329 -1.54395 0
M  V30 852 O 85.9076 -0.788812 -1.60125 0
M  V30 853 C 83.0076 -1.58516 -2.99543 0
M  V30 854 C 82.1806 -2.86016 -3.30928 0
M  V30 855 C 81.2396 -2.74018 -4.49222 0
M  V30 856 O 80.2656 -3.47964 -4.50455 0
M  V30 857 N 81.4676 -1.86309 -5.4979 0
M  V30 858 H 84.2326 -2.59777 -1.49452 0
M  V30 859 H 81.7936 -1.47022 -0.677955 0
M  V30 860 H 83.7856 -1.48128 -3.76617 0
M  V30 861 H 82.3556 -0.69965 -3.0467 0
M  V30 862 H 81.5756 -3.10672 -2.42645 0
M  V30 863 H 82.8636 -3.70521 -3.487 0
M  V30 864 H 82.2616 -1.2551 -5.51601 0
M  V30 865 H 80.8186 -1.81837 -6.25922 0
M  V30 866 N 84.2517 0.741722 -1.39055 0
M  V30 867 C 85.5287 1.49252 -1.26425 0
M  V30 868 C 85.9087 2.10705 0.129144 0
M  V30 869 O 85.2567 1.98045 1.13976 0
M  V30 870 C 85.4667 2.54934 -2.38347 0
M  V30 871 C 86.8147 3.21506 -2.77343 0
M  V30 872 O 87.8387 2.65245 -2.37747 0
M  V30 873 O 86.6977 4.23294 -3.45665 0
M  V30 874 H 83.7917 0.662451 -0.495064 0
M  V30 875 H 86.3377 0.776121 -1.50912 0
M  V30 876 H 85.1097 2.07857 -3.31529 0
M  V30 877 H 84.7327 3.34141 -2.15489 0
M  V30 878 N 85.7298 1.2412 0.971189 0
M  V30 879 C 86.6398 1.04747 2.09917 0
M  V30 880 C 87.6558 -0.0107162 1.73997 0
M  V30 881 O 88.8318 0.186714 2.00533 0
M  V30 882 C 85.8968 0.650828 3.40537 0
M  V30 883 C 84.9578 1.7851 3.90426 0
M  V30 884 C 84.1908 1.40729 5.14812 0
M  V30 885 O 84.4138 0.29557 5.69634 0
M  V30 886 O 83.3478 2.23168 5.58999 0
M  V30 887 H 87.1738 1.99304 2.29154 0
M  V30 888 H 84.7588 1.02908 1.08307 0
M  V30 889 H 86.6408 0.440992 4.19086 0
M  V30 890 H 85.3158 -0.265649 3.22608 0
M  V30 891 H 84.2228 2.04966 3.12953 0
M  V30 892 H 85.5558 2.68023 4.12825 0
M  V30 893 N 87.2079 -1.17134 1.05439 0
M  V30 894 C 88.1549 -2.21235 0.657539 0
M  V30 895 C 89.1249 -1.62551 -0.341543 0
M  V30 896 O 90.3099 -1.89379 -0.232393 0
M  V30 897 C 87.4499 -3.45076 0.0410575 0
M  V30 898 C 86.5629 -4.18042 1.08927 0
M  V30 899 C 85.6979 -5.29376 0.439848 0
M  V30 900 C 84.7369 -5.94132 1.4722 0
M  V30 901 N 83.8739 -6.96975 0.846756 0
M  V30 902 H 88.7139 -2.54534 1.54972 0
M  V30 903 H 86.2509 -1.25028 0.775006 0
M  V30 904 H 88.2089 -4.15862 -0.33383 0
M  V30 905 H 86.8389 -3.12353 -0.814568 0
M  V30 906 H 85.8909 -3.45945 1.58196 0
M  V30 907 H 87.2029 -4.62306 1.87282 0
M  V30 908 H 86.3569 -6.06699 0.0115125 0
M  V30 909 H 85.0959 -4.86251 -0.375656 0
M  V30 910 H 84.1009 -5.15538 1.91052 0
M  V30 911 H 85.3259 -6.39337 2.28965 0
M  V30 912 H 83.2719 -6.5598 0.0518075 0
M  V30 913 H 83.1889 -7.39565 1.5678 0
M  V30 914 H 84.4569 -7.78239 0.443277 0
M  V30 915 N 88.686 -0.835752 -1.33615 0
M  V30 916 C 89.932 -0.430596 -1.98176 0
M  V30 917 C 90.265 1.00684 -1.66061 0
M  V30 918 O 89.54 1.70339 -0.938877 0
M  V30 919 C 89.823 -0.648065 -3.5422 0
M  V30 920 C 89.676 -2.13255 -3.96033 0
M  V30 921 C 90.995 -0.0922113 -4.40003 0
M  V30 922 H 88.114 -0.157924 -0.719881 0
M  V30 923 H 90.756 -1.05069 -1.58305 0
M  V30 924 H 88.906 -0.120237 -3.88314 0
M  V30 925 H 90.578 -2.725 -3.72211 0
M  V30 926 H 88.821 -2.61823 -3.45878 0
M  V30 927 H 89.492 -2.23547 -5.04708 0
M  V30 928 H 91.968 -0.543343 -4.12537 0
M  V30 929 H 90.844 -0.274083 -5.48215 0
M  V30 930 H 91.105 1.00378 -4.30554 0
M  V30 931 N 90.1641 1.46063 -0.591896 0
M  V30 932 C 91.4101 2.02638 -0.0811191 0
M  V30 933 C 91.7431 1.4613 1.27905 0
M  V30 934 O 91.0181 0.629908 1.84017 0
M  V30 935 C 91.3011 3.60091 -0.0252436 0
M  V30 936 C 91.1541 4.26965 -1.41496 0
M  V30 937 C 92.4731 4.3496 0.670685 0
M  V30 938 H 89.5921 0.73635 -0.0309524 0
M  V30 939 H 92.2341 1.741 -0.760859 0
M  V30 940 H 90.3841 3.84535 0.553624 0
M  V30 941 H 92.0561 4.13756 -2.0397 0
M  V30 942 H 90.2991 3.85971 -1.98011 0
M  V30 943 H 90.9701 5.35781 -1.32825 0
M  V30 944 H 93.4461 4.15716 0.178825 0
M  V30 945 H 92.3221 5.44686 0.678837 0
M  V30 946 H 92.5831 4.06685 1.73379 0
M  V30 947 N 91.6422 0.330177 1.54103 0
M  V30 948 C 93.0582 -0.0222371 1.59585 0
M  V30 949 C 93.2582 -1.49902 1.34654 0
M  V30 950 O 92.3142 -2.25592 1.13421 0
M  V30 951 C 93.6272 0.401932 2.98002 0
M  V30 952 C 95.1752 0.353145 3.11001 0
M  V30 953 C 95.6502 0.752576 4.51775 0
M  V30 954 N 97.1412 0.706239 4.57784 0
M  V30 955 C 97.8762 0.987417 5.64834 0
M  V30 956 N 97.3722 1.33607 6.79795 0
M  V30 957 N 99.1652 0.91254 5.54643 0
M  V30 958 H 91.3162 1.29228 1.68564 0
M  V30 959 H 93.5792 0.525906 0.78875 0
M  V30 960 H 93.2852 1.4311 3.21267 0
M  V30 961 H 93.1592 -0.229699 3.765 0
M  V30 962 H 95.5462 -0.666822 2.87467 0
M  V30 963 H 95.6272 1.0198 2.34593 0
M  V30 964 H 95.2712 1.77049 4.76042 0
M  V30 965 H 95.2012 0.0635409 5.26562 0
M  V30 966 H 97.6922 0.44889 3.75224 0
M  V30 967 H 98.0052 1.53582 7.57385 0
M  V30 968 H 96.3502 1.37439 6.81275 0
M  V30 969 H 99.5412 0.639601 4.6371 0
M  V30 970 H 99.7142 1.13503 6.37982 0
M  V30 971 N 93.1203 -1.57491 0.0584922 0
M  V30 972 C 94.0303 -2.15448 -0.928414 0
M  V30 973 C 95.0463 -1.11416 -1.3365 0
M  V30 974 O 96.2223 -1.4362 -1.41193 0
M  V30 975 C 93.2873 -2.69393 -2.18239 0
M  V30 976 C 92.3483 -3.88249 -1.83196 0
M  V30 977 C 91.5813 -4.39613 -3.02616 0
M  V30 978 O 91.8043 -3.90023 -4.16219 0
M  V30 979 O 90.7383 -5.31111 -2.83204 0
M  V30 980 H 94.5643 -3.00112 -0.465483 0
M  V30 981 H 92.1493 -1.48499 -0.163826 0
M  V30 982 H 94.0313 -3.04026 -2.91798 0
M  V30 983 H 92.7063 -1.87796 -2.63656 0
M  V30 984 H 91.6133 -3.58492 -1.06931 0
M  V30 985 H 92.9463 -4.71098 -1.42573 0
M  V30 986 N 94.5984 0.214957 -1.56127 0
M  V30 987 C 95.8474 0.936451 -1.78643 0
M  V30 988 C 96.1604 1.85237 -0.628229 0
M  V30 989 O 97.3664 2.613 -0.737186 0
M  V30 990 C 95.8224 1.7154 -3.16389 0
M  V30 991 C 95.4304 0.845299 -4.39953 0
M  V30 992 C 97.1744 2.42772 -3.48227 0
M  V30 993 C 95.0814 1.62198 -5.68723 0
M  V30 994 H 94.0114 0.353401 -0.666051 0
M  V30 995 H 96.6624 0.190169 -1.82512 0
M  V30 996 H 95.0444 2.50484 -3.06715 0
M  V30 997 H 96.2184 0.0959353 -4.607 0
M  V30 998 H 94.5334 0.244789 -4.1568 0
M  V30 999 H 97.1304 3.01394 -4.41663 0
M  V30 1000 H 97.4734 3.15984 -2.71035 0
M  V30 1001 H 98.0064 1.70813 -3.5926 0
M  V30 1002 H 94.7454 0.933011 -6.48826 0
M  V30 1003 H 94.2654 2.34579 -5.52026 0
M  V30 1004 H 95.9444 2.18095 -6.09133 0
M  V30 1005 N 96.0765 1.50051 0.48192 0
M  V30 1006 C 97.3045 1.64237 1.25832 0
M  V30 1007 C 97.7195 0.321336 1.86045 0
M  V30 1008 O 97.0765 -0.695478 1.68729 0
M  V30 1009 C 97.1275 2.72548 2.37487 0
M  V30 1010 O 96.8485 3.99529 1.79745 0
M  V30 1011 C 98.3495 2.9761 3.28547 0
M  V30 1012 H 95.5695 0.55237 0.380957 0
M  V30 1013 H 98.1135 1.96207 0.576467 0
M  V30 1014 H 96.2685 2.43303 3.01467 0
M  V30 1015 H 96.6825 4.59342 2.5319 0
M  V30 1016 H 98.1565 3.77084 4.03127 0
M  V30 1017 H 98.6335 2.0826 3.86684 0
M  V30 1018 H 99.2395 3.28345 2.70314 0
M  V30 1019 N 97.5546 -0.734337 1.39446 0
M  V30 1020 C 98.4846 -1.86155 1.40955 0
M  V30 1021 C 99.4656 -1.67898 0.272827 0
M  V30 1022 O 100.651 -1.88207 0.478743 0
M  V30 1023 C 97.7806 -3.23912 1.25294 0
M  V30 1024 C 96.7346 -3.56808 2.36373 0
M  V30 1025 C 96.0606 -4.93508 2.058 0
M  V30 1026 C 97.3606 -3.59713 3.78687 0
M  V30 1027 H 99.0546 -1.8515 2.35287 0
M  V30 1028 H 96.6006 -0.889367 1.13253 0
M  V30 1029 H 98.5536 -4.02443 1.2497 0
M  V30 1030 H 97.2776 -3.25446 0.274308 0
M  V30 1031 H 95.9366 -2.80606 2.35914 0
M  V30 1032 H 95.5846 -4.91623 1.06374 0
M  V30 1033 H 95.2846 -5.16486 2.80208 0
M  V30 1034 H 96.8086 -5.74396 2.07128 0
M  V30 1035 H 98.2226 -4.2832 3.81071 0
M  V30 1036 H 96.6196 -3.94209 4.52459 0
M  V30 1037 H 97.6896 -2.59504 4.09617 0
M  V30 1038 N 99.0327 -1.24633 -0.964593 0
M  V30 1039 C 100.281 -1.08573 -1.70459 0
M  V30 1040 C 100.602 0.375655 -1.91347 0
M  V30 1041 O 99.8717 1.26779 -1.49345 0
M  V30 1042 H 98.4517 -0.398784 -0.631649 0
M  V30 1043 H 101.114 -1.56601 -1.16026 0
M  V30 1044 H 100.21 -1.58623 -2.68785 0
M  V30 1045 N 100.511 1.16574 -1.06058 0
M  V30 1046 C 101.458 2.20883 -0.669263 0
M  V30 1047 C 102.428 1.62729 0.332918 0
M  V30 1048 O 103.613 1.895 0.222346 0
M  V30 1049 C 100.753 3.45049 -0.0593572 0
M  V30 1050 C 99.8658 4.17458 -1.11143 0
M  V30 1051 C 99.0008 5.29135 -0.467916 0
M  V30 1052 C 98.0398 5.93343 -1.50369 0
M  V30 1053 N 97.1768 6.96516 -0.883706 0
M  V30 1054 H 102.017 2.53709 -1.5632 0
M  V30 1055 H 99.5538 1.24616 -0.781625 0
M  V30 1056 H 101.512 4.16033 0.311771 0
M  V30 1057 H 100.142 3.12781 0.797992 0
M  V30 1058 H 99.1938 3.45101 -1.60029 0
M  V30 1059 H 100.506 4.61307 -1.89731 0
M  V30 1060 H 99.6598 6.06684 -0.0436871 0
M  V30 1061 H 98.3988 4.86443 0.349864 0
M  V30 1062 H 97.4038 5.14517 -1.93784 0
M  V30 1063 H 98.6288 6.38114 -2.32352 0
M  V30 1064 H 96.5748 6.55943 -0.086595 0
M  V30 1065 H 96.4918 7.38723 -1.607 0
M  V30 1066 H 97.7598 7.77993 -0.484543 0
M  V30 1067 N 101.989 0.842826 1.3317 0
M  V30 1068 C 103.405 0.531128 1.50503 0
M  V30 1069 C 103.605 -0.940734 1.78192 0
M  V30 1070 O 102.661 -1.72436 1.84451 0
M  V30 1071 C 103.974 1.40789 2.65705 0
M  V30 1072 C 105.522 1.40708 2.79589 0
M  V30 1073 C 105.997 2.26878 3.97857 0
M  V30 1074 N 107.488 2.24609 4.05099 0
M  V30 1075 C 108.223 2.88019 4.95815 0
M  V30 1076 N 107.719 3.60496 5.9162 0
M  V30 1077 N 109.512 2.77469 4.88843 0
M  V30 1078 H 101.663 1.79557 1.1346 0
M  V30 1079 H 103.926 0.766267 0.558156 0
M  V30 1080 H 103.632 2.454 2.51936 0
M  V30 1081 H 103.506 1.08677 3.61205 0
M  V30 1082 H 105.893 0.368668 2.92788 0
M  V30 1083 H 105.974 1.76829 1.84838 0
M  V30 1084 H 105.618 3.3078 3.85418 0
M  V30 1085 H 105.548 1.88096 4.91861 0
M  V30 1086 H 108.039 1.71906 3.36536 0
M  V30 1087 H 108.352 4.06076 6.57512 0
M  V30 1088 H 106.697 3.64604 5.91683 0
M  V30 1089 H 109.888 2.20406 4.12963 0
M  V30 1090 H 110.061 3.2717 5.59342 0
M  V30 1091 N 103.467 -1.45747 0.599634 0
M  V30 1092 C 104.716 -2.01502 0.0893511 0
M  V30 1093 C 105.029 -1.4748 -1.28488 0
M  V30 1094 O 106.235 -1.95161 -1.88745 0
M  V30 1095 C 104.691 -3.59735 0.109082 0
M  V30 1096 C 104.299 -4.22754 1.48267 0
M  V30 1097 C 106.043 -4.23085 -0.346374 0
M  V30 1098 C 103.95 -5.73115 1.45921 0
M  V30 1099 H 102.88 -0.753417 0.0296347 0
M  V30 1100 H 105.531 -1.67303 0.753788 0
M  V30 1101 H 103.913 -3.91087 -0.621854 0
M  V30 1102 H 105.087 -4.02987 2.23468 0
M  V30 1103 H 103.402 -3.71567 1.87955 0
M  V30 1104 H 105.999 -5.33327 -0.38298 0
M  V30 1105 H 106.342 -3.93201 -1.36743 0
M  V30 1106 H 106.875 -3.9642 0.331038 0
M  V30 1107 H 103.614 -6.07685 2.45762 0
M  V30 1108 H 103.134 -5.95097 0.749665 0
M  V30 1109 H 104.813 -6.3616 1.17941 0
M  V30 1110 N 104.945 -0.338344 -1.53925 0
M  V30 1111 C 106.193 0.259245 -2.0043 0
M  V30 1112 C 106.514 1.51484 -1.22791 0
M  V30 1113 O 105.784 1.93037 -0.33368 0
M  V30 1114 H 104.364 0.0987845 -0.740439 0
M  V30 1115 H 107.026 -0.458302 -1.89435 0
M  V30 1116 H 106.122 0.505334 -3.07982 0
M  V30 1117 N 106.423 1.57458 -0.0668435 0
M  V30 1118 C 107.67 1.93301 0.603406 0
M  V30 1119 C 107.998 0.946486 1.69917 0
M  V30 1120 O 107.253 -0.0387021 1.95662 0
M  V30 1121 C 107.552 3.35784 1.22409 0
M  V30 1122 C 107.218 4.50179 0.254955 0
M  V30 1123 C 105.88 4.81199 -0.0116746 0
M  V30 1124 C 108.232 5.19598 -0.408338 0
M  V30 1125 C 105.56 5.78978 -0.94877 0
M  V30 1126 C 107.912 6.18381 -1.33372 0
M  V30 1127 C 106.576 6.47821 -1.60887 0
M  V30 1128 H 105.846 0.707338 0.220802 0
M  V30 1129 H 108.493 1.91012 -0.136665 0
M  V30 1130 H 106.798 3.34515 2.03978 0
M  V30 1131 H 108.495 3.60804 1.74989 0
M  V30 1132 H 105.085 4.25983 0.472954 0
M  V30 1133 H 109.269 4.95832 -0.215456 0
M  V30 1134 H 104.525 6.00115 -1.16925 0
M  V30 1135 H 108.699 6.71277 -1.85367 0
M  V30 1136 H 106.326 7.23399 -2.33661 0
M  V30 1137 N 107.901 -0.206675 1.56239 0
M  V30 1138 C 109.131 -0.943975 1.83773 0
M  V30 1139 C 109.539 -1.77841 0.645703 0
M  V30 1140 O 108.882 -1.79403 -0.395008 0
M  V30 1141 C 108.944 -1.899 3.05251 0
M  V30 1142 C 108.608 -1.24764 4.39639 0
M  V30 1143 C 109.605 -0.630216 5.16066 0
M  V30 1144 C 107.29 -1.25496 4.8637 0
M  V30 1145 C 109.284 -0.0287946 6.37393 0
M  V30 1146 C 106.971 -0.649698 6.07637 0
M  V30 1147 C 107.969 -0.0376845 6.8299 0
M  V30 1148 O 107.657 0.55812 8.0196 0
M  V30 1149 H 107.389 -0.281508 0.614597 0
M  V30 1150 H 109.943 -0.222458 2.04192 0
M  V30 1151 H 108.173 -2.6599 2.80689 0
M  V30 1152 H 109.862 -2.5031 3.1953 0
M  V30 1153 H 110.628 -0.616785 4.81062 0
M  V30 1154 H 106.507 -1.72072 4.27683 0
M  V30 1155 H 110.051 0.449518 6.9615 0
M  V30 1156 H 105.948 -0.660592 6.42111 0
M  V30 1157 H 106.716 0.453891 8.17241 0
M  V30 1158 N 109.379 -1.50304 -0.473955 0
M  V30 1159 C 110.795 -1.37667 -0.807466 0
M  V30 1160 C 110.995 -0.430555 -1.96846 0
M  V30 1161 O 110.051 0.127874 -2.52176 0
M  V30 1162 C 111.364 -2.78974 -1.12223 0
M  V30 1163 C 112.912 -2.87868 -1.22885 0
M  V30 1164 C 113.387 -4.30003 -1.57676 0
M  V30 1165 N 114.878 -4.3294 -1.64673 0
M  V30 1166 C 115.613 -5.3991 -1.93091 0
M  V30 1167 N 115.109 -6.57092 -2.1955 0
M  V30 1168 N 116.902 -5.27351 -1.94569 0
M  V30 1169 H 109.053 -2.10394 0.291212 0
M  V30 1170 H 111.316 -0.945575 0.0677609 0
M  V30 1171 H 111.022 -3.50031 -0.342229 0
M  V30 1172 H 110.896 -3.16038 -2.05913 0
M  V30 1173 H 113.283 -2.17032 -1.99953 0
M  V30 1174 H 113.364 -2.54352 -0.271814 0
M  V30 1175 H 113.008 -5.01375 -0.81149 0
M  V30 1176 H 112.938 -4.61004 -2.54525 0
M  V30 1177 H 115.429 -3.48441 -1.46277 0
M  V30 1178 H 115.742 -7.34425 -2.405 0
M  V30 1179 H 114.087 -6.60272 -2.16948 0
M  V30 1180 H 117.278 -4.34801 -1.73394 0
M  V30 1181 H 117.451 -6.10805 -2.16381 0
M  V30 1182 N 110.857 0.726932 -1.39834 0
M  V30 1183 C 112.106 1.48214 -1.36805 0
M  V30 1184 C 112.419 1.95576 0.0305291 0
M  V30 1185 O 113.625 2.7088 0.183417 0
M  V30 1186 C 112.081 2.67854 -2.40379 0
M  V30 1187 C 111.689 2.27408 -3.85992 0
M  V30 1188 C 113.433 3.45641 -2.46439 0
M  V30 1189 C 111.34 3.43819 -4.81189 0
M  V30 1190 H 110.27 0.556606 -0.508631 0
M  V30 1191 H 112.921 0.792216 -1.65518 0
M  V30 1192 H 111.303 3.3896 -2.04749 0
M  V30 1193 H 112.477 1.63795 -4.30706 0
M  V30 1194 H 110.792 1.62692 -3.83302 0
M  V30 1195 H 113.389 4.32244 -3.14753 0
M  V30 1196 H 113.732 3.88669 -1.49139 0
M  V30 1197 H 114.265 2.8157 -2.81004 0
M  V30 1198 H 111.004 3.05834 -5.79781 0
M  V30 1199 H 110.524 4.06385 -4.41148 0
M  V30 1200 H 112.203 4.10043 -5.00474 0
M  V30 1201 N 112.336 1.25143 0.95797 0
M  V30 1202 C 113.752 1.01892 1.22842 0
M  V30 1203 C 113.952 -0.266311 1.99732 0
M  V30 1204 O 113.008 -0.979913 2.3271 0
M  V30 1205 C 114.321 2.24004 2.00606 0
M  V30 1206 C 115.869 2.28731 2.13662 0
M  V30 1207 C 116.344 3.5049 2.94823 0
M  V30 1208 N 117.835 3.50866 3.02403 0
M  V30 1209 C 118.57 4.4174 3.65586 0
M  V30 1210 N 118.066 5.42882 4.30408 0
M  V30 1211 N 119.859 4.29429 3.62694 0
M  V30 1212 H 112.01 2.07718 0.443493 0
M  V30 1213 H 114.273 0.912031 0.258657 0
M  V30 1214 H 113.979 3.17395 1.51503 0
M  V30 1215 H 113.853 2.26907 3.01319 0
M  V30 1216 H 116.24 1.35865 2.61963 0
M  V30 1217 H 116.321 2.29848 1.12265 0
M  V30 1218 H 115.965 4.43676 2.47213 0
M  V30 1219 H 115.895 3.46617 3.96439 0
M  V30 1220 H 118.386 2.777 2.56302 0
M  V30 1221 H 118.699 6.0844 4.76467 0
M  V30 1222 H 117.044 5.46758 4.29047 0
M  V30 1223 H 120.235 3.49643 3.11236 0
M  V30 1224 H 120.408 5.00448 4.1165 0
M  V30 1225 N 113.814 -1.1601 1.06675 0
M  V30 1226 C 115.062 -1.86264 0.784229 0
M  V30 1227 C 115.383 -1.82328 -0.691488 0
M  V30 1228 O 114.653 -1.25947 -1.50047 0
M  V30 1229 H 113.233 -0.689621 0.28711 0
M  V30 1230 H 115.895 -1.40664 1.34906 0
M  V30 1231 H 114.991 -2.91595 1.11259 0
M  V30 1232 N 115.292 -0.849877 -1.32721 0
M  V30 1233 C 116.202 -0.293791 -2.32753 0
M  V30 1234 C 117.218 0.585906 -1.63839 0
M  V30 1235 O 118.394 0.487413 -1.95413 0
M  V30 1236 C 115.459 0.512752 -3.42887 0
M  V30 1237 C 114.52 -0.39252 -4.27502 0
M  V30 1238 C 113.753 0.375625 -5.32377 0
M  V30 1239 O 113.976 1.60613 -5.4732 0
M  V30 1240 O 112.91 -0.256094 -6.01355 0
M  V30 1241 H 116.736 -1.12242 -2.82197 0
M  V30 1242 H 114.321 -0.612685 -1.36259 0
M  V30 1243 H 116.203 0.970704 -4.10067 0
M  V30 1244 H 114.878 1.31826 -2.95641 0
M  V30 1245 H 113.785 -0.898547 -3.63149 0
M  V30 1246 H 115.118 -1.16309 -4.7826 0
M  V30 1247 N 116.77 1.45427 -0.607355 0
M  V30 1248 C 118.019 2.01452 -0.100036 0
M  V30 1249 C 118.332 1.48159 1.27704 0
M  V30 1250 O 119.538 1.96159 1.87707 0
M  V30 1251 C 117.994 3.59672 -0.128158 0
M  V30 1252 C 117.602 4.21962 -1.50507 0
M  V30 1253 C 119.346 4.23262 0.323932 0
M  V30 1254 C 117.253 5.72333 -1.48959 0
M  V30 1255 H 116.183 0.75325 -0.0336299 0
M  V30 1256 H 118.834 1.66901 -0.76265 0
M  V30 1257 H 117.216 3.91411 0.601105 0
M  V30 1258 H 118.39 4.01796 -2.25602 0
M  V30 1259 H 116.705 3.70565 -1.89923 0
M  V30 1260 H 119.302 5.33522 0.354691 0
M  V30 1261 H 119.645 3.93921 1.34656 0
M  V30 1262 H 120.178 3.96239 -0.352056 0
M  V30 1263 H 116.917 6.06373 -2.48981 0
M  V30 1264 H 116.437 5.94691 -0.781214 0
M  V30 1265 H 118.116 6.35525 -1.21313 0
M  V30 1266 N 118.248 0.346503 1.53744 0
M  V30 1267 C 119.496 -0.248612 2.00565 0
M  V30 1268 C 119.817 -1.5083 1.23593 0
M  V30 1269 O 119.087 -1.92858 0.343912 0
M  V30 1270 H 117.667 -0.0948564 0.740953 0
M  V30 1271 H 120.329 0.468341 1.89189 0
M  V30 1272 H 119.425 -0.488994 3.08245 0
M  V30 1273 N 119.726 -1.57421 0.075193 0
M  V30 1274 C 120.951 -1.98364 -0.605515 0
M  V30 1275 C 121.376 -0.953383 -1.62149 0
M  V30 1276 O 120.734 0.0806053 -1.81121 0
M  V30 1277 C 120.782 -3.38332 -1.24756 0
M  V30 1278 O 119.886 -3.37959 -2.36342 0
M  V30 1279 H 119.227 -0.645553 -0.155428 0
M  V30 1280 H 121.757 -2.04044 0.150714 0
M  V30 1281 H 121.767 -3.75591 -1.5936 0
M  V30 1282 H 120.442 -4.12846 -0.503129 0
M  V30 1283 H 119.019 -3.12474 -2.03506 0
M  V30 1284 N 121.204 0.198386 -1.56346 0
M  V30 1285 C 122.452 0.91747 -1.80075 0
M  V30 1286 C 122.773 1.83929 -0.647692 0
M  V30 1287 O 122.043 1.93029 0.334166 0
M  V30 1288 H 120.623 0.341774 -0.664228 0
M  V30 1289 H 123.285 0.204684 -1.93822 0
M  V30 1290 H 122.381 1.51055 -2.7311 0
M  V30 1291 N 122.682 1.50554 0.465978 0
M  V30 1292 C 123.63 1.70324 1.58406 0
M  V30 1293 C 124.624 0.569139 1.59553 0
M  V30 1294 O 125.83 0.749776 1.63641 0
M  V30 1295 H 122.205 0.537688 0.525734 0
M  V30 1296 H 124.176 2.64104 1.38894 0
M  V30 1297 C 122.925 1.81928 2.96307 0
M  V30 1298 H 122.248 2.68586 2.96144 0
M  V30 1299 H 123.688 1.99784 3.73982 0
M  V30 1300 C 122.147 0.572095 3.32007 0
M  V30 1301 O 122.677 -0.286416 4.00678 0
M  V30 1302 N 120.883 0.424606 2.87481 0
M  V30 1303 H 120.43 1.12427 2.31771 0
M  V30 1304 H 120.388 -0.408697 3.11732 0
M  V30 1305 N 124.16 -0.719506 1.40217 0
M  V30 1306 C 125.407 -1.47933 1.38283 0
M  V30 1307 C 125.735 -1.94493 -0.0161536 0
M  V30 1308 O 124.99 -1.68224 -0.999956 0
M  V30 1309 C 125.289 -2.72271 2.31524 0
M  V30 1310 C 124.955 -2.44496 3.78857 0
M  V30 1311 C 123.617 -2.36631 4.18998 0
M  V30 1312 C 125.969 -2.21104 4.71977 0
M  V30 1313 C 123.297 -2.03437 5.503 0
M  V30 1314 C 125.649 -1.89423 6.03574 0
M  V30 1315 C 124.313 -1.80038 6.42762 0
M  V30 1316 H 123.583 -0.541325 0.506012 0
M  V30 1317 H 126.23 -0.824502 1.72842 0
M  V30 1318 H 124.535 -3.42572 1.90137 0
M  V30 1319 H 126.232 -3.30348 2.27313 0
M  V30 1320 H 122.822 -2.51503 3.47051 0
M  V30 1321 H 127.006 -2.26139 4.41786 0
M  V30 1322 H 122.262 -1.94705 5.79569 0
M  V30 1323 H 126.436 -1.70336 6.75247 0
M  V30 1324 H 124.063 -1.54083 7.44421 0
M  V30 1325 N 125.638 -1.25649 -0.95132 0
M  V30 1326 C 126.863 -1.13443 -1.73624 0
M  V30 1327 C 127.288 0.307565 -1.85568 0
M  V30 1328 O 126.646 1.22282 -1.33854 0
M  V30 1329 C 126.694 -1.79723 -3.12621 0
M  V30 1330 O 125.798 -1.07912 -3.98031 0
M  V30 1331 H 125.139 -0.395872 -0.533086 0
M  V30 1332 H 127.669 -1.66276 -1.1922 0
M  V30 1333 H 127.679 -1.86141 -3.63064 0
M  V30 1334 H 126.354 -2.84633 -3.03244 0
M  V30 1335 H 124.931 -1.09398 -3.56492 0
M  V30 1336 N 127.117 1.15442 -1.07289 0
M  V30 1337 C 128.049 2.19773 -0.650585 0
M  V30 1338 C 129.062 1.60076 0.296572 0
M  V30 1339 O 130.251 1.78293 0.0859905 0
M  V30 1340 C 127.351 3.38838 0.0650398 0
M  V30 1341 C 126.524 4.2808 -0.898141 0
M  V30 1342 C 125.583 5.2574 -0.219926 0
M  V30 1343 O 124.609 5.62654 -0.860773 0
M  V30 1344 N 125.811 5.71205 1.03466 0
M  V30 1345 H 128.576 2.56622 -1.54808 0
M  V30 1346 H 126.137 1.30551 -0.957494 0
M  V30 1347 H 128.129 4.01222 0.529415 0
M  V30 1348 H 126.699 3.00409 0.864466 0
M  V30 1349 H 125.919 3.62804 -1.54165 0
M  V30 1350 H 127.207 4.84577 -1.5512 0
M  V30 1351 H 126.605 5.43325 1.57526 0
M  V30 1352 H 125.162 6.35633 1.44272 0
M  V30 1353 N 128.595 0.856903 1.32268 0
M  V30 1354 C 129.841 0.462069 1.97466 0
M  V30 1355 C 130.174 -0.980298 1.67642 0
M  V30 1356 O 129.449 -1.68824 0.965858 0
M  V30 1357 C 129.732 0.704336 3.53145 0
M  V30 1358 C 129.585 2.19529 3.9259 0
M  V30 1359 C 130.904 0.1622 4.39801 0
M  V30 1360 H 128.023 0.169357 0.717278 0
M  V30 1361 H 130.665 1.07574 1.56614 0
M  V30 1362 H 128.815 0.181999 3.88073 0
M  V30 1363 H 130.487 2.78387 3.67829 0
M  V30 1364 H 128.73 2.67292 3.41668 0
M  V30 1365 H 129.401 2.31549 5.01088 0
M  V30 1366 H 131.877 0.608905 4.11621 0
M  V30 1367 H 130.753 0.361265 5.4771 0
M  V30 1368 H 131.014 -0.935158 4.32096 0
M  V30 1369 N 130.073 -1.45103 0.615059 0
M  V30 1370 C 131.02 -2.30586 -0.0993978 0
M  V30 1371 C 131.99 -1.42544 -0.852669 0
M  V30 1372 O 133.175 -1.71465 -0.836917 0
M  V30 1373 C 130.315 -3.27572 -1.08583 0
M  V30 1374 C 129.428 -4.30717 -0.332656 0
M  V30 1375 C 128.563 -5.14807 -1.30947 0
M  V30 1376 C 127.602 -6.09673 -0.544538 0
M  V30 1377 N 126.739 -6.86517 -1.47101 0
M  V30 1378 H 131.579 -2.91144 0.635542 0
M  V30 1379 H 129.116 -1.4346 0.325206 0
M  V30 1380 H 131.074 -3.82276 -1.67095 0
M  V30 1381 H 129.704 -2.68751 -1.78809 0
M  V30 1382 H 128.756 -3.78615 0.368107 0
M  V30 1383 H 130.068 -4.98102 0.263842 0
M  V30 1384 H 129.222 -5.73948 -1.96643 0
M  V30 1385 H 127.961 -4.47458 -1.9399 0
M  V30 1386 H 126.966 -5.49656 0.126003 0
M  V30 1387 H 128.191 -6.79052 0.080947 0
M  V30 1388 H 126.137 -6.21851 -2.08895 0
M  V30 1389 H 126.054 -7.50281 -0.928137 0
M  V30 1390 H 127.322 -7.50194 -2.11731 0
M  V30 1391 N 131.551 -0.354651 -1.53558 0
M  V30 1392 C 132.481 0.489091 -2.2832 0
M  V30 1393 C 133.462 1.09324 -1.30316 0
M  V30 1394 O 134.647 1.11255 -1.59173 0
M  V30 1395 C 131.777 1.63456 -3.0643 0
M  V30 1396 C 130.731 1.1582 -4.12031 0
M  V30 1397 C 130.057 2.39305 -4.7816 0
M  V30 1398 C 131.357 0.250731 -5.21698 0
M  V30 1399 H 133.051 -0.134614 -2.99097 0
M  V30 1400 H 130.597 -0.0661826 -1.43848 0
M  V30 1401 H 132.55 2.23136 -3.57475 0
M  V30 1402 H 131.274 2.28533 -2.33325 0
M  V30 1403 H 129.933 0.584146 -3.61916 0
M  V30 1404 H 129.581 3.02814 -4.01637 0
M  V30 1405 H 129.281 2.08109 -5.49513 0
M  V30 1406 H 130.805 2.99691 -5.31994 0
M  V30 1407 H 132.219 0.754695 -5.68311 0
M  V30 1408 H 130.616 0.0301468 -6.00092 0
M  V30 1409 H 131.686 -0.710125 -4.79672 0
M  V30 1410 N 133.029 1.57378 -0.0835403 0
M  V30 1411 C 134.277 1.93547 0.581718 0
M  V30 1412 C 134.598 0.96524 1.69435 0
M  V30 1413 O 133.868 0.0153369 1.95894 0
M  V30 1414 H 132.448 0.714521 0.217874 0
M  V30 1415 H 135.11 1.94366 -0.144158 0
M  V30 1416 H 134.206 2.95665 0.999423 0
M  V30 1417 N 134.507 -0.190092 1.56449 0
M  V30 1418 C 135.756 -0.907912 1.80111 0
M  V30 1419 C 136.069 -1.84214 0.657619 0
M  V30 1420 O 137.275 -2.60094 0.778663 0
M  V30 1421 C 135.731 -1.66485 3.19078 0
M  V30 1422 C 135.339 -0.7752 4.41242 0
M  V30 1423 C 137.083 -2.37201 3.52045 0
M  V30 1424 C 134.99 -1.53129 5.71231 0
M  V30 1425 H 133.92 -0.34276 0.671589 0
M  V30 1426 H 136.571 -0.161109 1.82791 0
M  V30 1427 H 134.953 -2.45572 3.10661 0
M  V30 1428 H 136.127 -0.0226298 4.60794 0
M  V30 1429 H 134.442 -0.178627 4.16017 0
M  V30 1430 H 137.039 -2.94329 4.46402 0
M  V30 1431 H 137.382 -3.11632 2.76028 0
M  V30 1432 H 137.915 -1.65075 3.61932 0
M  V30 1433 H 134.654 -0.82967 6.50228 0
M  V30 1434 H 134.174 -2.25767 5.55688 0
M  V30 1435 H 135.853 -2.08377 6.12526 0
M  V30 1436 N 135.985 -1.50799 -0.457987 0
M  V30 1437 C 136.935 -1.67003 -1.55222 0
M  V30 1438 C 137.919 -0.52434 -1.52117 0
M  V30 1439 O 139.111 -0.779345 -1.58919 0
M  V30 1440 C 136.24 -1.77956 -2.93576 0
M  V30 1441 C 135.326 -2.98243 -3.01516 0
M  V30 1442 N 135.717 -4.21732 -2.79241 0
M  V30 1443 C 134.015 -2.97072 -3.32662 0
M  V30 1444 C 134.716 -5.02817 -2.92489 0
M  V30 1445 N 133.692 -4.37038 -3.23262 0
M  V30 1446 H 137.494 -2.60163 -1.36721 0
M  V30 1447 H 135.008 -1.48163 -0.664952 0
M  V30 1448 H 137.005 -1.87671 -3.72271 0
M  V30 1449 H 135.665 -0.859634 -3.13114 0
M  V30 1450 H 136.676 -4.51016 -2.54567 0
M  V30 1451 H 133.353 -2.14631 -3.58106 0
M  V30 1452 H 134.743 -6.11054 -2.79396 0
M  V30 1453 N 137.463 0.71206 -1.40597 0
M  V30 1454 C 138.688 1.50617 -1.42581 0
M  V30 1455 C 139.113 1.88079 -0.0282102 0
M  V30 1456 O 138.471 1.53511 0.964579 0
M  V30 1457 C 138.519 2.7557 -2.3258 0
M  V30 1458 O 137.623 3.72414 -1.77148 0
M  V30 1459 H 136.964 0.453966 -0.484573 0
M  V30 1460 H 139.494 0.876649 -1.84868 0
M  V30 1461 H 139.504 3.2406 -2.47889 0
M  V30 1462 H 138.179 2.47639 -3.34138 0
M  V30 1463 H 136.756 3.31276 -1.71204 0
M  V30 1464 N 138.941 1.26152 0.944643 0
M  V30 1465 C 139.871 1.09902 2.06019 0
M  V30 1466 C 140.852 0.00519538 1.70099 0
M  V30 1467 O 142.037 0.176583 1.93396 0
M  V30 1468 C 139.167 0.727562 3.39594 0
M  V30 1469 C 138.121 1.77274 3.89561 0
M  V30 1470 C 137.447 1.25569 5.19747 0
M  V30 1471 C 138.747 3.17357 4.14827 0
M  V30 1472 H 140.441 2.03217 2.19871 0
M  V30 1473 H 137.987 0.978452 1.05652 0
M  V30 1474 H 139.94 0.600777 4.17095 0
M  V30 1475 H 138.664 -0.241287 3.25707 0
M  V30 1476 H 137.323 1.88814 3.14237 0
M  V30 1477 H 136.971 0.276783 5.02238 0
M  V30 1478 H 136.671 1.95433 5.54148 0
M  V30 1479 H 138.195 1.1415 5.99835 0
M  V30 1480 H 139.609 3.08914 4.82954 0
M  V30 1481 H 138.006 3.84781 4.60504 0
M  V30 1482 H 139.076 3.63673 3.20734 0
M  V30 1483 N 140.419 -1.14872 1.07899 0
M  V30 1484 C 141.647 -1.89661 0.82683 0
M  V30 1485 C 142.062 -1.78312 -0.620519 0
M  V30 1486 O 141.419 -1.13888 -1.42604 0
M  V30 1487 C 141.47 -3.39817 1.23316 0
M  V30 1488 O 141.191 -3.50845 2.62372 0
M  V30 1489 C 142.692 -4.31615 1.0111 0
M  V30 1490 H 139.912 -0.60092 0.298557 0
M  V30 1491 H 142.456 -1.4551 1.43691 0
M  V30 1492 H 140.611 -3.8161 0.667286 0
M  V30 1493 H 141.025 -4.44076 2.79101 0
M  V30 1494 H 142.499 -5.35367 1.34486 0
M  V30 1495 H 142.976 -4.39169 -0.0522168 0
M  V30 1496 H 143.582 -3.95572 1.56215 0
M  V30 1497 N 141.898 -0.863906 -1.31812 0
M  V30 1498 C 142.845 -0.313303 -2.28664 0
M  V30 1499 C 143.815 0.584868 -1.55462 0
M  V30 1500 O 145 0.517805 -1.83639 0
M  V30 1501 C 142.14 0.48441 -3.41683 0
M  V30 1502 C 141.253 -0.440594 -4.29747 0
M  V30 1503 C 140.388 0.370652 -5.29905 0
M  V30 1504 C 139.427 -0.551164 -6.09613 0
M  V30 1505 N 138.564 0.223462 -7.01744 0
M  V30 1506 H 143.404 -1.14444 -2.75148 0
M  V30 1507 H 140.941 -0.575769 -1.35364 0
M  V30 1508 H 142.899 0.962627 -4.05943 0
M  V30 1509 H 141.529 1.28029 -2.96325 0
M  V30 1510 H 140.581 -1.03724 -3.65986 0
M  V30 1511 H 141.893 -1.14767 -4.85417 0
M  V30 1512 H 141.047 0.911638 -5.99812 0
M  V30 1513 H 139.786 1.11105 -4.74876 0
M  V30 1514 H 138.791 -1.10396 -5.38603 0
M  V30 1515 H 140.016 -1.29032 -6.66729 0
M  V30 1516 H 137.962 0.946787 -6.49132 0
M  V30 1517 H 137.879 -0.424399 -7.54808 0
M  V30 1518 H 139.147 0.745876 -7.75923 0
M  V30 1519 N 143.376 1.44774 -0.622745 0
M  V30 1520 C 144.286 2.34433 0.0886031 0
M  V30 1521 C 145.302 1.52131 0.844529 0
M  V30 1522 O 146.478 1.84886 0.798691 0
M  V30 1523 C 143.543 3.29986 1.0635 0
M  V30 1524 C 142.604 4.28195 0.307873 0
M  V30 1525 C 141.837 5.19183 1.23633 0
M  V30 1526 O 142.06 5.13918 2.47476 0
M  V30 1527 O 140.994 5.97515 0.725189 0
M  V30 1528 H 144.82 2.96693 -0.648599 0
M  V30 1529 H 142.405 1.44408 -0.382957 0
M  V30 1530 H 144.287 3.88825 1.6246 0
M  V30 1531 H 142.962 2.70269 1.78146 0
M  V30 1532 H 141.869 3.72927 -0.296064 0
M  V30 1533 H 143.202 4.90808 -0.3699 0
M  V30 1534 N 144.854 0.36279 1.53368 0
M  V30 1535 C 145.801 -0.485008 2.25646 0
M  V30 1536 C 146.771 -1.07982 1.2621 0
M  V30 1537 O 147.956 -1.11284 1.54986 0
M  V30 1538 C 145.096 -1.62023 3.04701 0
M  V30 1539 C 144.209 -1.05086 4.19024 0
M  V30 1540 C 143.344 -2.15496 4.85525 0
M  V30 1541 C 142.383 -1.5601 5.91884 0
M  V30 1542 N 141.52 -2.60241 6.52088 0
M  V30 1543 H 146.36 0.137864 2.97681 0
M  V30 1544 H 143.897 0.0798061 1.46883 0
M  V30 1545 H 145.855 -2.28887 3.48807 0
M  V30 1546 H 144.485 -2.2138 2.34927 0
M  V30 1547 H 143.537 -0.27259 3.79422 0
M  V30 1548 H 144.849 -0.575926 4.95464 0
M  V30 1549 H 144.003 -2.90186 5.32801 0
M  V30 1550 H 142.742 -2.66341 4.08551 0
M  V30 1551 H 141.747 -0.798338 5.43973 0
M  V30 1552 H 142.972 -1.05994 6.70777 0
M  V30 1553 H 140.918 -3.10304 5.77968 0
M  V30 1554 H 140.835 -2.17426 7.24059 0
M  V30 1555 H 142.103 -3.34641 7.04014 0
M  V30 1556 N 146.332 -1.57332 0.0918853 0
M  V30 1557 C 147.578 -1.94524 -0.573425 0
M  V30 1558 C 147.911 -0.973578 -1.68033 0
M  V30 1559 O 147.186 -0.00609226 -1.94499 0
M  V30 1560 C 147.469 -3.41858 -1.13161 0
M  V30 1561 C 147.322 -4.4979 -0.0299747 0
M  V30 1562 C 148.641 -3.90435 -2.03098 0
M  V30 1563 H 145.76 -0.70734 -0.206975 0
M  V30 1564 H 148.402 -1.89309 0.161942 0
M  V30 1565 H 146.552 -3.46433 -1.7583 0
M  V30 1566 H 148.224 -4.57327 0.604112 0
M  V30 1567 H 146.467 -4.291 0.636833 0
M  V30 1568 H 147.138 -5.50069 -0.461287 0
M  V30 1569 H 149.614 -3.87992 -1.50338 0
M  V30 1570 H 148.49 -4.94097 -2.39081 0
M  V30 1571 H 148.751 -3.29541 -2.94712 0
M  V30 1572 N 147.81 0.181792 -1.56548 0
M  V30 1573 C 148.773 1.20894 -1.94724 0
M  V30 1574 C 149.773 1.37738 -0.829747 0
M  V30 1575 O 150.963 1.35323 -1.09697 0
M  V30 1576 C 148.095 2.57593 -2.23291 0
M  V30 1577 H 149.288 0.882275 -2.86629 0
M  V30 1578 H 146.841 0.423838 -1.50444 0
M  V30 1579 H 147.576 2.95291 -1.34067 0
M  V30 1580 H 147.361 2.46735 -3.04736 0
M  V30 1581 H 148.851 3.31637 -2.53785 0
M  V30 1582 N 149.288 1.51039 0.449983 0
M  V30 1583 C 150.537 1.62317 1.19733 0
M  V30 1584 C 150.85 0.339101 1.92638 0
M  V30 1585 O 152.056 0.331069 2.69474 0
M  V30 1586 C 150.512 2.86608 2.17678 0
M  V30 1587 C 150.12 4.21972 1.50479 0
M  V30 1588 C 151.864 3.07239 2.92924 0
M  V30 1589 C 149.771 5.37426 2.46834 0
M  V30 1590 H 148.701 0.604532 0.450619 0
M  V30 1591 H 151.352 1.77494 0.465625 0
M  V30 1592 H 149.734 2.65037 2.94231 0
M  V30 1593 H 150.908 4.53878 0.795716 0
M  V30 1594 H 149.223 4.07117 0.874344 0
M  V30 1595 H 151.82 3.90668 3.65079 0
M  V30 1596 H 152.163 2.19807 3.5354 0
M  V30 1597 H 152.696 3.29091 2.23481 0
M  V30 1598 H 149.435 6.27079 1.90926 0
M  V30 1599 H 148.955 5.09912 3.15832 0
M  V30 1600 H 150.634 5.68862 3.08228 0
M  V30 1601 N 150.766 -0.704594 1.40972 0
M  V30 1602 C 151.713 -1.81862 1.42109 0
M  V30 1603 C 152.683 -1.63781 0.276593 0
M  V30 1604 O 153.868 -1.84759 0.4763 0
M  V30 1605 C 151.008 -3.19669 1.30022 0
M  V30 1606 C 150.121 -3.49246 2.54267 0
M  V30 1607 C 149.256 -4.76618 2.3454 0
M  V30 1608 C 148.295 -4.99133 3.54306 0
M  V30 1609 N 147.432 -6.17726 3.33706 0
M  V30 1610 H 152.272 -1.80226 2.37324 0
M  V30 1611 H 149.809 -0.880238 1.17857 0
M  V30 1612 H 151.767 -3.99263 1.21018 0
M  V30 1613 H 150.397 -3.20506 0.384192 0
M  V30 1614 H 149.449 -2.64125 2.73756 0
M  V30 1615 H 150.761 -3.61788 3.43381 0
M  V30 1616 H 149.915 -5.64249 2.22952 0
M  V30 1617 H 148.654 -4.66305 1.42867 0
M  V30 1618 H 147.659 -4.09953 3.66359 0
M  V30 1619 H 148.884 -5.11311 4.4692 0
M  V30 1620 H 146.83 -6.08642 2.44725 0
M  V30 1621 H 146.747 -6.30995 4.16391 0
M  V30 1622 H 148.015 -7.08115 3.25873 0
M  V30 1623 N 152.244 -1.26651 -0.937939 0
M  V30 1624 C 153.493 -1.11775 -1.67897 0
M  V30 1625 C 153.806 0.33794 -1.92659 0
M  V30 1626 O 155.012 0.607434 -2.64618 0
M  V30 1627 C 153.468 -1.9523 -3.02346 0
M  V30 1628 C 153.076 -3.45393 -2.8532 0
M  V30 1629 C 154.82 -1.88972 -3.80118 0
M  V30 1630 C 152.727 -4.21083 -4.15263 0
M  V30 1631 H 151.657 -0.414696 -0.629717 0
M  V30 1632 H 154.308 -1.50988 -1.04283 0
M  V30 1633 H 152.69 -1.48853 -3.66959 0
M  V30 1634 H 153.864 -3.99561 -2.29537 0
M  V30 1635 H 152.179 -3.52921 -2.20988 0
M  V30 1636 H 154.776 -2.42805 -4.76392 0
M  V30 1637 H 155.119 -0.86113 -4.07296 0
M  V30 1638 H 155.652 -2.33189 -3.22285 0
M  V30 1639 H 152.391 -5.24425 -3.93267 0
M  V30 1640 H 151.911 -3.71695 -4.70747 0
M  V30 1641 H 153.59 -4.29706 -4.83696 0
M  V30 1642 N 153.722 1.14298 -1.08507 0
M  V30 1643 C 154.652 2.21542 -0.737646 0
M  V30 1644 C 155.633 1.67773 0.280377 0
M  V30 1645 O 156.818 1.93616 0.150521 0
M  V30 1646 C 153.948 3.46988 -0.147259 0
M  V30 1647 C 152.902 4.13789 -1.09374 0
M  V30 1648 C 152.228 5.33449 -0.365524 0
M  V30 1649 C 153.528 4.62208 -2.4323 0
M  V30 1650 H 155.222 2.5086 -1.6343 0
M  V30 1651 H 152.768 1.20576 -0.787243 0
M  V30 1652 H 154.721 4.21262 0.107808 0
M  V30 1653 H 153.445 3.17037 0.784538 0
M  V30 1654 H 152.104 3.4147 -1.33393 0
M  V30 1655 H 151.752 4.99759 0.57011 0
M  V30 1656 H 151.452 5.79088 -0.996512 0
M  V30 1657 H 152.976 6.10485 -0.118534 0
M  V30 1658 H 154.39 5.27952 -2.23472 0
M  V30 1659 H 152.787 5.18553 -3.02031 0
M  V30 1660 H 153.857 3.77224 -3.04681 0
M  V30 1661 N 155.201 0.870884 1.31352 0
M  V30 1662 C 156.478 0.402907 1.91405 0
M  V30 1663 C 156.858 -1.11512 1.79244 0
M  V30 1664 O 156.206 -1.94411 1.2007 0
M  V30 1665 C 156.416 0.885301 3.37585 0
M  V30 1666 C 157.764 0.911971 4.14691 0
M  V30 1667 O 158.788 0.831016 3.46371 0
M  V30 1668 O 157.647 1.02927 5.3672 0
M  V30 1669 H 154.741 0.120698 0.818145 0
M  V30 1670 H 157.287 0.958857 1.40014 0
M  V30 1671 H 156.059 1.92889 3.40455 0
M  V30 1672 H 155.682 0.307714 3.96407 0
M  V30 1673 N 156.679 -1.44442 0.630414 0
M  V30 1674 C 157.626 -2.30678 -0.0749355 0
M  V30 1675 C 158.596 -1.4344 -0.837502 0
M  V30 1676 O 159.781 -1.72343 -0.818684 0
M  V30 1677 C 156.921 -3.28706 -1.05103 0
M  V30 1678 C 156.034 -4.31046 -0.286954 0
M  V30 1679 C 155.169 -5.16167 -1.2548 0
M  V30 1680 C 154.208 -6.10216 -0.479843 0
M  V30 1681 N 153.345 -6.88039 -1.39811 0
M  V30 1682 H 158.185 -2.90454 0.666386 0
M  V30 1683 H 155.722 -1.43107 0.340404 0
M  V30 1684 H 157.68 -3.84027 -1.63031 0
M  V30 1685 H 156.31 -2.70632 -1.75949 0
M  V30 1686 H 155.362 -3.78203 0.408243 0
M  V30 1687 H 156.674 -4.97794 0.316657 0
M  V30 1688 H 155.828 -5.76002 -1.90544 0
M  V30 1689 H 154.567 -4.49491 -1.89233 0
M  V30 1690 H 153.572 -5.49491 0.184295 0
M  V30 1691 H 154.797 -6.78928 0.152965 0
M  V30 1692 H 152.743 -6.24032 -2.02287 0
M  V30 1693 H 152.66 -7.51223 -0.848508 0
M  V30 1694 H 153.928 -7.52397 -2.03762 0
M  V30 1695 N 158.157 -0.370918 -1.53173 0
M  V30 1696 C 159.385 0.217704 -2.05751 0
M  V30 1697 C 159.8 1.42018 -1.24404 0
M  V30 1698 O 159.157 1.80245 -0.286033 0
M  V30 1699 C 159.208 0.605954 -3.56385 0
M  V30 1700 O 158.929 -0.548734 -4.3465 0
M  V30 1701 C 160.43 1.2524 -4.25241 0
M  V30 1702 H 157.65 0.0371659 -0.66997 0
M  V30 1703 H 160.194 -0.530832 -1.9749 0
M  V30 1704 H 158.349 1.3044 -3.6478 0
M  V30 1705 H 158.763 -0.23376 -5.23979 0
M  V30 1706 H 160.237 1.47458 -5.3194 0
M  V30 1707 H 160.714 2.2143 -3.79296 0
M  V30 1708 H 161.32 0.595233 -4.21114 0
M  V30 1709 N 159.635 1.57281 -0.100228 0
M  V30 1710 C 160.582 2.14305 0.856858 0
M  V30 1711 C 161.552 1.06296 1.27634 0
M  V30 1712 O 162.737 1.34109 1.35718 0
M  V30 1713 C 159.877 2.73184 2.10866 0
M  V30 1714 C 158.99 3.95442 1.73925 0
M  V30 1715 C 158.125 4.42468 2.93931 0
M  V30 1716 C 157.164 5.57303 2.5314 0
M  V30 1717 N 156.301 5.99158 3.65997 0
M  V30 1718 H 161.141 2.95772 0.363726 0
M  V30 1719 H 158.678 1.46139 0.167858 0
M  V30 1720 H 160.636 3.05442 2.84185 0
M  V30 1721 H 159.266 1.94437 2.57671 0
M  V30 1722 H 158.318 3.69464 0.905554 0
M  V30 1723 H 159.63 4.78769 1.39935 0
M  V30 1724 H 158.784 4.76537 3.75496 0
M  V30 1725 H 157.523 3.58052 3.31134 0
M  V30 1726 H 156.528 5.22857 1.70003 0
M  V30 1727 H 157.753 6.43471 2.17075 0
M  V30 1728 H 155.699 5.17687 4.02909 0
M  V30 1729 H 155.616 6.77295 3.35869 0
M  V30 1730 H 156.884 6.3786 4.48057 0
M  V30 1731 N 161.113 -0.173488 1.56642 0
M  V30 1732 C 162.043 -1.2171 1.99271 0
M  V30 1733 C 163.024 -1.46289 0.867959 0
M  V30 1734 O 164.209 -1.5766 1.13388 0
M  V30 1735 C 161.339 -2.55651 2.35074 0
M  V30 1736 C 160.293 -2.45645 3.50489 0
M  V30 1737 C 159.619 -3.84056 3.72028 0
M  V30 1738 C 160.919 -1.96302 4.84007 0
M  V30 1739 H 162.613 -0.86275 2.867 0
M  V30 1740 H 160.159 -0.413571 1.37933 0
M  V30 1741 H 162.112 -3.2886 2.63494 0
M  V30 1742 H 160.836 -2.92869 1.44552 0
M  V30 1743 H 159.495 -1.7489 3.22194 0
M  V30 1744 H 159.143 -4.18664 2.788 0
M  V30 1745 H 158.843 -3.7823 4.49684 0
M  V30 1746 H 160.367 -4.58854 4.02846 0
M  V30 1747 H 161.781 -2.59284 5.11317 0
M  V30 1748 H 160.178 -2.01429 5.65284 0
M  V30 1749 H 161.248 -0.917226 4.76146 0
M  V30 1750 N 162.591 -1.51276 -0.441967 0
M  V30 1751 C 163.868 -1.54252 -1.20273 0
M  V30 1752 C 164.248 -0.30408 -2.08898 0
M  V30 1753 O 163.596 0.711084 -2.17154 0
M  V30 1754 C 163.806 -2.85406 -2.00859 0
M  V30 1755 C 165.154 -3.37181 -2.58059 0
M  V30 1756 O 166.178 -2.86925 -2.11074 0
M  V30 1757 O 165.037 -4.24858 -3.43741 0
M  V30 1758 H 162.131 -0.619969 -0.547328 0
M  V30 1759 H 164.677 -1.63586 -0.451413 0
M  V30 1760 H 163.449 -3.67003 -1.35736 0
M  V30 1761 H 163.072 -2.79213 -2.83065 0
M  V30 1762 N 164.069 0.697108 -1.41344 0
M  V30 1763 C 165.001 1.8224 -1.39001 0
M  V30 1764 C 166.014 1.60152 -0.292428 0
M  V30 1765 O 167.203 1.69684 -0.554048 0
M  V30 1766 C 164.303 3.18976 -1.14489 0
M  V30 1767 C 163.476 3.68105 -2.36258 0
M  V30 1768 C 162.535 4.83506 -2.07625 0
M  V30 1769 O 161.561 4.95201 -2.8065 0
M  V30 1770 N 162.763 5.70637 -1.06555 0
M  V30 1771 H 165.528 1.84742 -2.35988 0
M  V30 1772 H 163.089 0.87937 -1.35936 0
M  V30 1773 H 165.081 3.93801 -0.932885 0
M  V30 1774 H 163.651 3.11508 -0.261043 0
M  V30 1775 H 162.871 2.84204 -2.7317 0
M  V30 1776 H 164.159 3.97667 -3.17393 0
M  V30 1777 H 163.557 5.63817 -0.461125 0
M  V30 1778 H 162.114 6.45368 -0.913444 0
M  V30 1779 N 165.547 1.27147 0.931209 0
M  V30 1780 C 166.494 1.09568 2.03134 0
M  V30 1781 C 167.464 -0.00222433 1.661 0
M  V30 1782 O 168.649 0.159439 1.90133 0
M  V30 1783 C 165.789 0.745231 3.36957 0
M  V30 1784 C 164.902 1.92041 3.86968 0
M  V30 1785 C 164.037 1.51216 5.09222 0
M  V30 1786 C 163.076 2.65504 5.5152 0
M  V30 1787 N 162.213 2.25291 6.64972 0
M  V30 1788 H 167.053 2.03708 2.17502 0
M  V30 1789 H 164.59 1.01411 1.06556 0
M  V30 1790 H 166.548 0.522878 4.1391 0
M  V30 1791 H 165.178 -0.159202 3.22407 0
M  V30 1792 H 164.23 2.25541 3.06326 0
M  V30 1793 H 165.542 2.77787 4.1429 0
M  V30 1794 H 164.696 1.25084 5.93666 0
M  V30 1795 H 163.435 0.625749 4.83669 0
M  V30 1796 H 162.44 2.92354 4.65628 0
M  V30 1797 H 163.665 3.54761 5.7907 0
M  V30 1798 H 161.611 1.39098 6.41083 0
M  V30 1799 H 161.528 3.04577 6.91931 0
M  V30 1800 H 162.796 2.02398 7.52765 0
M  V30 1801 N 167.025 -1.13721 1.09112 0
M  V30 1802 C 168.253 -1.88773 0.846899 0
M  V30 1803 C 168.668 -1.7896 -0.601572 0
M  V30 1804 O 168.025 -1.15394 -1.41388 0
M  V30 1805 C 168.076 -3.3849 1.26913 0
M  V30 1806 O 167.797 -3.48043 2.66079 0
M  V30 1807 C 169.298 -4.30518 1.05682 0
M  V30 1808 H 166.518 -0.59772 0.304914 0
M  V30 1809 H 169.062 -1.43977 1.45227 0
M  V30 1810 H 167.217 -3.80881 0.707723 0
M  V30 1811 H 167.631 -4.4109 2.83795 0
M  V30 1812 H 169.105 -5.3391 1.40156 0
M  V30 1813 H 169.582 -4.392 -0.00563416 0
M  V30 1814 H 170.188 -3.93893 1.60402 0
M  V30 1815 N 168.503 -0.877838 -1.30888 0
M  V30 1816 C 169.435 -0.296607 -2.27273 0
M  V30 1817 C 170.448 0.544799 -1.53414 0
M  V30 1818 O 171.637 0.365511 -1.74718 0
M  V30 1819 C 168.737 0.597481 -3.33592 0
M  V30 1820 C 167.91 -0.213251 -4.3688 0
M  V30 1821 C 166.969 0.610208 -5.2265 0
M  V30 1822 O 165.995 0.035441 -5.69189 0
M  V30 1823 N 167.197 1.92071 -5.47804 0
M  V30 1824 H 169.962 -1.12492 -2.77787 0
M  V30 1825 H 167.523 -0.740105 -1.43993 0
M  V30 1826 H 169.515 1.15425 -3.87891 0
M  V30 1827 H 168.085 1.32647 -2.83061 0
M  V30 1828 H 167.305 -0.951466 -3.82545 0
M  V30 1829 H 168.593 -0.769262 -5.02951 0
M  V30 1830 H 167.991 2.4107 -5.11763 0
M  V30 1831 H 166.548 2.42508 -6.05007 0
M  V30 1832 N 169.982 1.44106 -0.638065 0
M  V30 1833 C 171.398 1.56672 -0.304286 0
M  V30 1834 C 171.598 1.6244 1.19228 0
M  V30 1835 O 170.654 1.57121 1.9766 0
M  V30 1836 C 171.967 2.83503 -1.00231 0
M  V30 1837 C 173.515 2.97226 -0.981116 0
M  V30 1838 C 173.99 4.26868 -1.65974 0
M  V30 1839 N 175.481 4.33698 -1.62666 0
M  V30 1840 C 176.216 5.32745 -2.12063 0
M  V30 1841 N 175.712 6.38157 -2.6968 0
M  V30 1842 N 177.505 5.24299 -2.02651 0
M  V30 1843 H 169.656 1.38605 -1.60942 0
M  V30 1844 H 171.919 0.664661 -0.675965 0
M  V30 1845 H 171.625 2.85251 -2.0573 0
M  V30 1846 H 171.499 3.73251 -0.54439 0
M  V30 1847 H 173.886 2.95027 0.0654188 0
M  V30 1848 H 173.967 2.08808 -1.47759 0
M  V30 1849 H 173.611 4.29826 -2.70576 0
M  V30 1850 H 173.541 5.14156 -1.13804 0
M  V30 1851 H 176.032 3.58138 -1.20606 0
M  V30 1852 H 176.345 7.10029 -3.05087 0
M  V30 1853 H 174.69 6.38823 -2.73734 0
M  V30 1854 H 177.881 4.4086 -1.57353 0
M  V30 1855 H 178.054 6.01334 -2.41457 0
M  V30 1856 N 171.46 0.379036 1.52974 0
M  V30 1857 C 172.39 -0.452706 2.29069 0
M  V30 1858 C 173.371 -1.07237 1.32039 0
M  V30 1859 O 174.556 -1.08708 1.60923 0
M  V30 1860 C 171.686 -1.5856 3.08992 0
M  V30 1861 C 170.64 -1.0925 4.13822 0
M  V30 1862 C 169.966 -2.31668 4.81907 0
M  V30 1863 C 171.266 -0.167702 5.22031 0
M  V30 1864 H 172.96 0.182181 2.98845 0
M  V30 1865 H 170.506 0.0890592 1.43724 0
M  V30 1866 H 172.459 -2.1742 3.6098 0
M  V30 1867 H 171.183 -2.24792 2.36931 0
M  V30 1868 H 169.842 -0.526494 3.628 0
M  V30 1869 H 169.49 -2.96386 4.06404 0
M  V30 1870 H 169.19 -1.9934 5.52754 0
M  V30 1871 H 170.714 -2.91189 5.36695 0
M  V30 1872 H 172.128 -0.664186 5.6944 0
M  V30 1873 H 170.525 0.0653265 6.00064 0
M  V30 1874 H 171.595 0.786347 4.78482 0
M  V30 1875 N 172.938 -1.57226 0.108567 0
M  V30 1876 C 173.868 -2.17778 -0.84232 0
M  V30 1877 C 174.849 -1.11487 -1.2847 0
M  V30 1878 O 176.034 -1.39681 -1.34918 0
M  V30 1879 C 173.164 -2.76888 -2.09644 0
M  V30 1880 C 172.118 -3.88669 -1.79221 0
M  V30 1881 C 171.444 -4.34541 -3.11574 0
M  V30 1882 C 172.744 -5.11251 -1.06864 0
M  V30 1883 H 174.438 -2.97489 -0.337774 0
M  V30 1884 H 171.984 -1.43097 -0.161025 0
M  V30 1885 H 173.937 -3.17904 -2.76614 0
M  V30 1886 H 172.661 -1.94451 -2.62405 0
M  V30 1887 H 171.32 -3.48213 -1.14644 0
M  V30 1888 H 170.968 -3.48977 -3.62249 0
M  V30 1889 H 170.668 -5.09914 -2.91996 0
M  V30 1890 H 172.192 -4.782 -3.7968 0
M  V30 1891 H 173.606 -5.49352 -1.63968 0
M  V30 1892 H 172.003 -5.9214 -0.974178 0
M  V30 1893 H 173.073 -4.8487 -0.0536168 0
M  V30 1894 N 174.416 0.165178 -1.56732 0
M  V30 1895 C 175.641 0.900253 -1.86843 0
M  V30 1896 C 176.066 1.74766 -0.695596 0
M  V30 1897 O 175.424 1.77786 0.35522 0
M  V30 1898 C 175.472 1.74777 -3.15413 0
M  V30 1899 O 174.576 2.85007 -2.98068 0
M  V30 1900 H 173.917 0.251832 -0.614391 0
M  V30 1901 H 176.447 0.161468 -2.03962 0
M  V30 1902 H 176.457 2.14646 -3.46974 0
M  V30 1903 H 175.132 1.12537 -4.00385 0
M  V30 1904 H 173.709 2.48676 -2.77875 0
M  V30 1905 N 175.894 1.51508 0.433938 0
M  V30 1906 C 177.31 1.39759 0.770682 0
M  V30 1907 C 177.51 0.482594 1.95636 0
M  V30 1908 O 176.566 -0.0609691 2.52426 0
M  V30 1909 C 177.879 2.81851 1.04787 0
M  V30 1910 C 179.427 2.91025 1.1521 0
M  V30 1911 C 179.902 4.34032 1.46219 0
M  V30 1912 N 181.393 4.37154 1.53136 0
M  V30 1913 C 182.128 5.4484 1.78709 0
M  V30 1914 N 181.624 6.62682 2.02051 0
M  V30 1915 N 183.417 5.32324 1.80519 0
M  V30 1916 H 175.568 2.09548 -0.346892 0
M  V30 1917 H 177.831 0.943446 -0.0928074 0
M  V30 1918 H 177.537 3.50815 0.249304 0
M  V30 1919 H 177.411 3.21386 1.97461 0
M  V30 1920 H 179.798 2.22257 1.94128 0
M  V30 1921 H 179.879 2.54983 0.204281 0
M  V30 1922 H 179.523 5.03351 0.678274 0
M  V30 1923 H 179.453 4.6759 2.42212 0
M  V30 1924 H 181.944 3.52197 1.36987 0
M  V30 1925 H 182.257 7.40543 2.20943 0
M  V30 1926 H 180.602 6.65791 1.99366 0
M  V30 1927 H 183.793 4.39246 1.61805 0
M  V30 1928 H 183.966 6.16328 2.00111 0
M  V30 1929 N 177.372 -0.689602 1.41712 0
M  V30 1930 C 178.282 -1.83314 1.46401 0
M  V30 1931 C 179.298 -1.7036 0.35405 0
M  V30 1932 O 180.474 -1.92171 0.602692 0
M  V30 1933 C 177.539 -3.19344 1.34982 0
M  V30 1934 C 176.6 -3.44363 2.56344 0
M  V30 1935 C 175.833 -4.73904 2.45461 0
M  V30 1936 O 176.056 -5.508 1.48241 0
M  V30 1937 O 174.99 -4.99839 3.35328 0
M  V30 1938 H 178.816 -1.82314 2.42889 0
M  V30 1939 H 176.401 -0.843438 1.23315 0
M  V30 1940 H 178.283 -4.00547 1.3092 0
M  V30 1941 H 176.958 -3.21014 0.41612 0
M  V30 1942 H 175.865 -2.63067 2.65982 0
M  V30 1943 H 177.198 -3.47512 3.48563 0
M  V30 1944 N 178.85 -1.27639 -0.924453 0
M  V30 1945 C 180.099 -1.13549 -1.66702 0
M  V30 1946 C 180.412 0.317487 -1.93006 0
M  V30 1947 O 181.618 0.579333 -2.65247 0
M  V30 1948 C 180.074 -1.98426 -3.00259 0
M  V30 1949 C 179.682 -3.484 -2.81641 0
M  V30 1950 C 181.426 -1.92993 -3.78092 0
M  V30 1951 C 179.333 -4.25464 -4.10773 0
M  V30 1952 H 178.263 -0.421351 -0.625283 0
M  V30 1953 H 180.914 -1.52085 -1.02676 0
M  V30 1954 H 179.296 -1.52736 -3.6536 0
M  V30 1955 H 180.47 -4.01973 -2.25287 0
M  V30 1956 H 178.785 -3.55245 -2.17232 0
M  V30 1957 H 181.382 -2.47844 -4.7379 0
M  V30 1958 H 181.725 -0.904281 -4.0636 0
M  V30 1959 H 182.258 -2.36595 -3.19793 0
M  V30 1960 H 178.997 -5.28566 -3.87683 0
M  V30 1961 H 178.517 -3.76667 -4.66779 0
M  V30 1962 H 180.196 -4.34812 -4.79111 0
M  V30 1963 N 180.328 1.1314 -1.09713 0
M  V30 1964 C 181.553 1.88862 -0.857081 0
M  V30 1965 C 181.978 1.78729 0.586304 0
M  V30 1966 O 181.336 1.13692 1.41222 0
M  V30 1967 C 181.384 3.36325 -1.30069 0
M  V30 1968 O 180.488 4.09815 -0.461007 0
M  V30 1969 H 179.829 0.587108 -0.310162 0
M  V30 1970 H 182.359 1.43129 -1.46203 0
M  V30 1971 H 182.369 3.87157 -1.28738 0
M  V30 1972 H 181.044 3.43017 -2.35185 0
M  V30 1973 H 179.621 3.68986 -0.538888 0
M  V30 1974 N 181.806 0.884767 1.30421 0
M  V30 1975 C 183.031 0.517288 2.00845 0
M  V30 1976 C 183.456 -0.886779 1.65885 0
M  V30 1977 O 182.814 -1.58768 0.875354 0
M  V30 1978 C 182.862 0.698994 3.5376 0
M  V30 1979 O 181.966 -0.255208 4.1161 0
M  V30 1980 H 181.307 0.203872 0.631927 0
M  V30 1981 H 183.837 1.19225 1.66272 0
M  V30 1982 H 183.847 0.597912 4.03595 0
M  V30 1983 H 182.522 1.72271 3.78544 0
M  V30 1984 H 181.099 -0.10784 3.72744 0
M  V30 1985 N 183.284 -1.43765 0.645699 0
M  V30 1986 C 184.217 -2.2798 -0.100072 0
M  V30 1987 C 185.195 -1.39391 -0.837194 0
M  V30 1988 O 186.379 -1.68833 -0.838306 0
M  V30 1989 C 183.506 -3.18643 -1.14823 0
M  V30 1990 C 182.552 -4.2344 -0.510009 0
M  V30 1991 S 183.385 -5.30761 0.710824 0
M  V30 1992 C 184.541 -6.24992 -0.33699 0
M  V30 1993 H 184.774 -2.90884 0.614322 0
M  V30 1994 H 182.307 -1.48166 0.434304 0
M  V30 1995 H 184.265 -3.71424 -1.74799 0
M  V30 1996 H 182.926 -2.54932 -1.8349 0
M  V30 1997 H 182.119 -4.86948 -1.29991 0
M  V30 1998 H 181.721 -3.73997 0.0154577 0
M  V30 1999 H 184.013 -6.66691 -1.20537 0
M  V30 2000 H 184.956 -7.07612 0.262879 0
M  V30 2001 H 185.364 -5.60517 -0.669425 0
M  V30 2002 N 184.763 -0.387143 -1.52771 0
M  V30 2003 C 185.673 0.456442 -2.30117 0
M  V30 2004 C 186.689 1.07342 -1.36944 0
M  V30 2005 O 187.865 1.07971 -1.70013 0
M  V30 2006 C 184.93 1.56957 -3.09136 0
M  V30 2007 C 183.991 0.977916 -4.18014 0
M  V30 2008 C 183.224 2.038 -4.93256 0
M  V30 2009 O 183.447 3.25271 -4.68567 0
M  V30 2010 O 182.381 1.6565 -5.78657 0
M  V30 2011 H 186.207 -0.17359 -3.03203 0
M  V30 2012 H 183.792 -0.150919 -1.48636 0
M  V30 2013 H 185.674 2.21628 -3.58412 0
M  V30 2014 H 184.349 2.18461 -2.38865 0
M  V30 2015 H 183.256 0.294525 -3.72939 0
M  V30 2016 H 184.589 0.407128 -4.90513 0
M  V30 2017 N 186.241 1.57166 -0.116904 0
M  V30 2018 C 187.188 2.15202 0.83408 0
M  V30 2019 C 188.158 1.07644 1.26499 0
M  V30 2020 O 189.343 1.35541 1.34288 0
M  V30 2021 C 186.483 2.75405 2.07957 0
M  V30 2022 C 185.596 3.97264 1.69721 0
M  V30 2023 C 184.731 4.45561 2.89221 0
M  V30 2024 C 183.77 5.59956 2.47215 0
M  V30 2025 N 182.907 6.03006 3.59622 0
M  V30 2026 H 187.747 2.96141 0.332335 0
M  V30 2027 H 185.284 1.46309 0.152349 0
M  V30 2028 H 187.242 3.08439 2.80929 0
M  V30 2029 H 185.872 1.97159 2.55594 0
M  V30 2030 H 184.924 3.70404 0.866316 0
M  V30 2031 H 186.236 4.80226 1.34849 0
M  V30 2032 H 185.39 4.80493 3.7042 0
M  V30 2033 H 184.129 3.61544 3.27318 0
M  V30 2034 H 183.134 5.2463 1.64448 0
M  V30 2035 H 184.359 6.45738 2.10238 0
M  V30 2036 H 182.305 5.21931 3.97396 0
M  V30 2037 H 182.222 6.80819 3.28667 0
M  V30 2038 H 183.49 6.42576 4.41267 0
M  V30 2039 N 187.719 -0.156864 1.56817 0
M  V30 2040 C 188.649 -1.19589 2.00551 0
M  V30 2041 C 189.63 -1.4536 0.883426 0
M  V30 2042 O 190.815 -1.56449 1.15054 0
M  V30 2043 C 187.945 -2.53143 2.37773 0
M  V30 2044 C 186.899 -2.41913 3.53075 0
M  V30 2045 C 186.225 -3.80088 3.76081 0
M  V30 2046 C 187.525 -1.91157 4.86062 0
M  V30 2047 H 189.219 -0.832293 2.87599 0
M  V30 2048 H 186.765 -0.398918 1.38364 0
M  V30 2049 H 188.718 -3.26047 2.66967 0
M  V30 2050 H 187.442 -2.91319 1.4765 0
M  V30 2051 H 186.101 -1.71462 3.24031 0
M  V30 2052 H 185.749 -4.15683 2.83225 0
M  V30 2053 H 185.449 -3.73439 4.53671 0
M  V30 2054 H 186.973 -4.54556 4.0769 0
M  V30 2055 H 188.387 -2.53846 5.14038 0
M  V30 2056 H 186.784 -1.95422 5.67389 0
M  V30 2057 H 187.854 -0.866673 4.77092 0
M  V30 2058 N 189.197 -1.51736 -0.425897 0
M  V30 2059 C 190.147 -1.70258 -1.51645 0
M  V30 2060 C 191.131 -0.556488 -1.5097 0
M  V30 2061 O 192.323 -0.812879 -1.5723 0
M  V30 2062 C 189.452 -1.84143 -2.89735 0
M  V30 2063 C 188.538 -3.04572 -2.95122 0
M  V30 2064 N 188.929 -4.2756 -2.70233 0
M  V30 2065 C 187.227 -3.04061 -3.26286 0
M  V30 2066 C 187.928 -5.08908 -2.81757 0
M  V30 2067 N 186.904 -4.43797 -3.13919 0
M  V30 2068 H 190.706 -2.63004 -1.31172 0
M  V30 2069 H 188.22 -1.4954 -0.633375 0
M  V30 2070 H 190.217 -1.95525 -3.68206 0
M  V30 2071 H 188.877 -0.925857 -3.1122 0
M  V30 2072 H 189.888 -4.56315 -2.44943 0
M  V30 2073 H 186.565 -2.22179 -3.53473 0
M  V30 2074 H 187.955 -6.16843 -2.66372 0
M  V30 2075 N 190.675 0.682077 -1.42076 0
M  V30 2076 C 191.625 1.78823 -1.41444 0
M  V30 2077 C 192.609 1.58323 -0.28681 0
M  V30 2078 O 193.801 1.68926 -0.528498 0
M  V30 2079 C 190.93 3.17232 -1.3122 0
M  V30 2080 C 190.016 3.4338 -2.489 0
M  V30 2081 N 190.407 3.40152 -3.7434 0
M  V30 2082 C 188.705 3.73986 -2.43003 0
M  V30 2083 C 189.406 3.65581 -4.52466 0
M  V30 2084 N 188.382 3.85989 -3.8277 0
M  V30 2085 H 192.184 1.7471 -2.36334 0
M  V30 2086 H 189.698 0.882622 -1.36321 0
M  V30 2087 H 191.695 3.96489 -1.2885 0
M  V30 2088 H 190.355 3.22547 -0.373263 0
M  V30 2089 H 191.366 3.20221 -4.07037 0
M  V30 2090 H 188.043 3.86591 -1.57651 0
M  V30 2091 H 189.433 3.69108 -5.61435 0
M  V30 2092 N 192.153 1.28127 0.917671 0
M  V30 2093 C 193.564 1.13622 1.48145 0
M  V30 2094 C 193.915 -0.275207 1.9426 0
M  V30 2095 O 193.04 -1.1691 1.82102 0
M  V30 2096 C 193.635 2.05648 2.69248 0
M  V30 2097 C 192.194 1.95219 3.21818 0
M  V30 2098 C 191.341 1.97618 1.94532 0
M  V30 2099 H 194.292 1.40874 0.730772 0
M  V30 2100 H 194.313 1.61818 3.44377 0
M  V30 2101 H 193.825 3.08365 2.35653 0
M  V30 2102 H 191.926 0.955244 3.60147 0
M  V30 2103 H 192.039 2.81976 3.87333 0
M  V30 2104 H 190.403 1.41973 2.11461 0
M  V30 2105 H 191.186 3.02007 1.63238 0
M  V30 2106 N 193.631 -1.12557 1.10312 0
M  V30 2107 C 194.579 -2.20325 0.745629 0
M  V30 2108 C 195.573 -1.67429 -0.25763 0
M  V30 2109 O 196.779 -1.79612 -0.118132 0
M  V30 2110 H 193.154 -0.718118 0.223182 0
M  V30 2111 H 195.125 -2.47733 1.66346 0
M  V30 2112 C 193.874 -3.47168 0.192262 0
M  V30 2113 H 193.197 -3.88215 0.955475 0
M  V30 2114 H 194.637 -4.23995 -0.0198274 0
M  V30 2115 C 193.096 -3.19298 -1.07472 0
M  V30 2116 O 193.626 -3.3891 -2.15645 0
M  V30 2117 N 191.832 -2.73113 -0.992847 0
M  V30 2118 H 191.379 -2.57354 -0.112474 0
M  V30 2119 H 191.337 -2.54842 -1.84127 0
M  V30 2120 N 195.109 -0.891671 -1.2995 0
M  V30 2121 C 196.358 -0.509521 -1.95158 0
M  V30 2122 C 196.671 0.947388 -1.71125 0
M  V30 2123 O 197.877 1.43669 -2.30372 0
M  V30 2124 C 196.333 -0.860315 -3.49466 0
M  V30 2125 C 195.941 -2.33545 -3.8231 0
M  V30 2126 C 197.685 -0.547687 -4.20952 0
M  V30 2127 C 195.592 -2.62752 -5.29826 0
M  V30 2128 H 194.522 -0.18682 -0.730489 0
M  V30 2129 H 197.173 -1.08756 -1.47798 0
M  V30 2130 H 195.555 -0.211285 -3.95436 0
M  V30 2131 H 196.729 -3.02936 -3.47227 0
M  V30 2132 H 195.044 -2.61629 -3.23944 0
M  V30 2133 H 197.641 -0.742854 -5.29515 0
M  V30 2134 H 197.984 0.51332 -4.13123 0
M  V30 2135 H 198.517 -1.1542 -3.80688 0
M  V30 2136 H 195.256 -3.6762 -5.42712 0
M  V30 2137 H 194.776 -1.97977 -5.66185 0
M  V30 2138 H 196.455 -2.48601 -5.97333 0
M  V30 2139 N 196.587 1.43421 -0.653314 0
M  V30 2140 C 197.836 2.01032 -0.164076 0
M  V30 2141 C 198.149 1.52147 1.22926 0
M  V30 2142 O 199.355 2.02031 1.81371 0
M  V30 2143 C 197.811 3.59082 -0.24252 0
M  V30 2144 C 197.419 4.1696 -1.63855 0
M  V30 2145 C 199.163 4.24079 0.18911 0
M  V30 2146 C 197.07 5.67304 -1.67092 0
M  V30 2147 H 196 0.751798 -0.0575769 0
M  V30 2148 H 198.651 1.6439 -0.815362 0
M  V30 2149 H 197.033 3.93125 0.476276 0
M  V30 2150 H 198.207 3.94416 -2.38271 0
M  V30 2151 H 196.522 3.64335 -2.01616 0
M  V30 2152 H 199.119 5.34381 0.184775 0
M  V30 2153 H 199.462 3.98005 1.22056 0
M  V30 2154 H 199.995 3.94918 -0.477938 0
M  V30 2155 H 196.734 5.98145 -2.68146 0
M  V30 2156 H 196.254 5.91904 -0.970014 0
M  V30 2157 H 197.933 6.31344 -1.4147 0
M  V30 2158 N 198.065 0.39524 1.52563 0
M  V30 2159 C 199.481 0.0454682 1.59535 0
M  V30 2160 C 199.681 -1.44056 1.4089 0
M  V30 2161 O 198.737 -2.20579 1.22888 0
M  V30 2162 C 200.05 0.527963 2.96029 0
M  V30 2163 C 201.598 0.484733 3.09224 0
M  V30 2164 C 202.073 0.943512 4.48176 0
M  V30 2165 N 203.564 0.899765 4.54377 0
M  V30 2166 C 204.299 1.22609 5.60138 0
M  V30 2167 N 203.795 1.62319 6.73516 0
M  V30 2168 N 205.588 1.14696 5.50274 0
M  V30 2169 H 197.739 1.36261 1.62931 0
M  V30 2170 H 200.002 0.558887 0.765735 0
M  V30 2171 H 199.708 1.56607 3.14908 0
M  V30 2172 H 199.582 -0.0698056 3.77135 0
M  V30 2173 H 201.969 -0.544298 2.90037 0
M  V30 2174 H 202.05 1.11838 2.30056 0
M  V30 2175 H 201.694 1.9708 4.68104 0
M  V30 2176 H 201.624 0.286817 5.25818 0
M  V30 2177 H 204.115 0.607632 3.72983 0
M  V30 2178 H 204.428 1.85567 7.5019 0
M  V30 2179 H 202.773 1.66211 6.74833 0
M  V30 2180 H 205.964 0.835701 4.6058 0
M  V30 2181 H 206.137 1.40459 6.32594 0
M  V30 2182 N 199.544 -1.57102 0.125237 0
M  V30 2183 C 200.474 -2.18659 -0.819174 0
M  V30 2184 C 201.455 -1.12843 -1.27281 0
M  V30 2185 O 202.64 -1.41104 -1.33429 0
M  V30 2186 C 199.77 -2.79096 -2.06695 0
M  V30 2187 C 198.724 -3.90548 -1.75088 0
M  V30 2188 C 198.05 -4.37821 -3.06948 0
M  V30 2189 C 199.35 -5.12356 -1.01435 0
M  V30 2190 H 201.044 -2.9783 -0.306202 0
M  V30 2191 H 198.59 -1.4326 -0.145839 0
M  V30 2192 H 200.543 -3.2082 -2.73226 0
M  V30 2193 H 199.267 -1.97223 -2.60328 0
M  V30 2194 H 197.926 -3.49409 -1.10944 0
M  V30 2195 H 197.574 -3.52799 -3.58527 0
M  V30 2196 H 197.274 -5.12982 -2.86571 0
M  V30 2197 H 198.798 -4.822 -3.74587 0
M  V30 2198 H 200.212 -5.5106 -1.58132 0
M  V30 2199 H 198.609 -5.9314 -0.911319 0
M  V30 2200 H 199.679 -4.849 -0.00218681 0
M  V30 2201 N 201.022 0.148545 -1.56898 0
M  V30 2202 C 202.252 0.875118 -1.8715 0
M  V30 2203 C 202.66 1.75322 -0.711262 0
M  V30 2204 O 202.003 1.80745 0.328151 0
M  V30 2205 C 202.065 1.7844 -3.12089 0
M  V30 2206 C 201.729 1.08361 -4.43967 0
M  V30 2207 C 202.726 0.438247 -5.1805 0
M  V30 2208 C 200.411 1.07358 -4.90693 0
M  V30 2209 C 202.405 -0.20779 -6.37061 0
M  V30 2210 C 200.092 0.42373 -6.09629 0
M  V30 2211 C 201.09 -0.215829 -6.82659 0
M  V30 2212 O 200.778 -0.855378 -7.99336 0
M  V30 2213 H 200.51 0.258504 -0.624621 0
M  V30 2214 H 203.064 0.14652 -2.04877 0
M  V30 2215 H 201.294 2.55389 -2.90367 0
M  V30 2216 H 202.983 2.38279 -3.286 0
M  V30 2217 H 203.749 0.437817 -4.8302 0
M  V30 2218 H 199.628 1.5608 -4.33774 0
M  V30 2219 H 203.172 -0.70758 -6.94002 0
M  V30 2220 H 199.069 0.421822 -6.4412 0
M  V30 2221 H 199.837 -0.756892 -8.14993 0
M  V30 2222 N 202.5 1.5196 0.417844 0
M  V30 2223 C 203.41 1.77554 1.53336 0
M  V30 2224 C 204.426 0.660655 1.6097 0
M  V30 2225 O 205.602 0.945099 1.77848 0
M  V30 2226 C 202.667 1.91291 2.89152 0
M  V30 2227 C 201.728 3.15183 2.91475 0
M  V30 2228 C 200.961 3.28256 4.20813 0
M  V30 2229 O 201.184 2.46798 5.14244 0
M  V30 2230 O 200.118 4.21356 4.29817 0
M  V30 2231 H 203.944 2.7222 1.34647 0
M  V30 2232 H 201.529 1.36698 0.602828 0
M  V30 2233 H 203.411 2.02199 3.69721 0
M  V30 2234 H 202.086 0.998129 3.07927 0
M  V30 2235 H 200.993 3.09739 2.09791 0
M  V30 2236 H 202.326 4.06414 2.77648 0
M  V30 2237 N 203.978 -0.674533 1.42435 0
M  V30 2238 C 205.224 -1.43671 1.43131 0
M  V30 2239 C 205.557 -1.94142 0.0476021 0
M  V30 2240 O 204.832 -1.70924 -0.928188 0
M  V30 2241 C 205.115 -2.63355 2.45594 0
M  V30 2242 C 204.968 -2.18514 3.93156 0
M  V30 2243 C 206.287 -3.65571 2.45043 0
M  V30 2244 H 203.406 -0.521077 0.521198 0
M  V30 2245 H 206.048 -0.766551 1.7385 0
M  V30 2246 H 204.198 -3.2053 2.19528 0
M  V30 2247 H 205.87 -1.66504 4.30202 0
M  V30 2248 H 204.113 -1.50086 4.07009 0
M  V30 2249 H 204.784 -3.04484 4.60428 0
M  V30 2250 H 207.26 -3.18113 2.68223 0
M  V30 2251 H 206.136 -4.46893 3.18713 0
M  V30 2252 H 206.397 -4.16716 1.47649 0
M  V30 2253 N 205.456 -1.28612 -0.910864 0
M  V30 2254 C 206.702 -1.16106 -1.66274 0
M  V30 2255 C 207.035 0.289113 -1.92036 0
M  V30 2256 O 206.31 1.21 -1.52281 0
M  V30 2257 C 206.593 -1.96309 -3.01885 0
M  V30 2258 C 206.446 -3.49405 -2.8326 0
M  V30 2259 C 207.765 -1.78076 -4.02463 0
M  V30 2260 H 204.884 -0.423152 -0.603417 0
M  V30 2261 H 207.526 -1.57961 -1.05586 0
M  V30 2262 H 205.676 -1.60742 -3.53687 0
M  V30 2263 H 207.348 -3.94894 -2.38446 0
M  V30 2264 H 205.591 -3.74893 -2.18261 0
M  V30 2265 H 206.262 -4.00784 -3.79574 0
M  V30 2266 H 208.738 -2.0912 -3.59733 0
M  V30 2267 H 207.614 -2.36561 -4.95308 0
M  V30 2268 H 207.875 -0.733008 -4.35981 0
M  V30 2269 N 206.934 1.1197 -1.10907 0
M  V30 2270 C 207.844 2.21433 -0.774896 0
M  V30 2271 C 208.86 1.72478 0.229657 0
M  V30 2272 O 210.036 2.01288 0.0672008 0
M  V30 2273 C 207.101 3.4602 -0.216986 0
M  V30 2274 C 206.162 4.09791 -1.27944 0
M  V30 2275 C 205.395 5.28431 -0.748055 0
M  V30 2276 O 205.618 5.68823 0.423833 0
M  V30 2277 O 204.552 5.82644 -1.51027 0
M  V30 2278 H 208.378 2.5242 -1.68873 0
M  V30 2279 H 205.963 1.20399 -0.884555 0
M  V30 2280 H 207.845 4.21304 0.090059 0
M  V30 2281 H 206.52 3.16698 0.669633 0
M  V30 2282 H 205.427 3.36265 -1.63941 0
M  V30 2283 H 206.76 4.4328 -2.13925 0
M  V30 2284 N 208.412 0.89855 1.29475 0
M  V30 2285 C 209.64 0.539261 1.99749 0
M  V30 2286 C 210.055 -0.875716 1.67262 0
M  V30 2287 O 209.412 -1.57786 0.917049 0
M  V30 2288 C 209.463 0.72061 3.54245 0
M  V30 2289 O 209.184 2.07989 3.8558 0
M  V30 2290 C 210.685 0.366118 4.41786 0
M  V30 2291 H 207.905 0.207047 0.638258 0
M  V30 2292 H 210.449 1.20758 1.65039 0
M  V30 2293 H 208.604 0.0994862 3.87272 0
M  V30 2294 H 209.018 2.10841 4.80257 0
M  V30 2295 H 210.492 0.543848 5.49314 0
M  V30 2296 H 210.969 -0.696763 4.33638 0
M  V30 2297 H 211.575 0.964135 4.14228 0
M  V30 2298 N 209.89 -1.43072 0.660911 0
M  V30 2299 C 210.82 -2.33497 -0.0122829 0
M  V30 2300 C 211.801 -1.49903 -0.803925 0
M  V30 2301 O 212.986 -1.78546 -0.763864 0
M  V30 2302 C 210.116 -3.33363 -0.973994 0
M  V30 2303 C 209.07 -4.27003 -0.291928 0
M  V30 2304 C 208.396 -5.16967 -1.36562 0
M  V30 2305 C 209.696 -5.15816 0.820462 0
M  V30 2306 H 211.39 -2.90038 0.742873 0
M  V30 2307 H 208.936 -1.39461 0.358688 0
M  V30 2308 H 210.889 -3.95524 -1.45392 0
M  V30 2309 H 209.613 -2.75095 -1.7604 0
M  V30 2310 H 208.272 -3.66217 0.167623 0
M  V30 2311 H 207.92 -4.55034 -2.14366 0
M  V30 2312 H 207.62 -5.80441 -0.914454 0
M  V30 2313 H 209.144 -5.82003 -1.84675 0
M  V30 2314 H 210.558 -5.71742 0.422366 0
M  V30 2315 H 208.955 -5.8805 1.19656 0
M  V30 2316 H 210.025 -4.55045 1.67518 0
M  V30 2317 N 211.368 -0.403325 -1.52352 0
M  V30 2318 C 212.593 0.176499 -2.06648 0
M  V30 2319 C 213.018 1.38577 -1.27193 0
M  V30 2320 O 212.376 1.7879 -0.300637 0
M  V30 2321 C 212.424 0.511061 -3.5696 0
M  V30 2322 O 211.528 1.60294 -3.79973 0
M  V30 2323 H 210.869 0.0167337 -0.663789 0
M  V30 2324 H 213.399 -0.574848 -1.96359 0
M  V30 2325 H 213.409 0.771362 -4.00642 0
M  V30 2326 H 212.084 -0.37296 -4.14224 0
M  V30 2327 H 210.661 1.33526 -3.48174 0
M  V30 2328 N 212.846 1.57033 -0.133567 0
M  V30 2329 C 213.793 2.16074 0.811208 0
M  V30 2330 C 214.763 1.08979 1.2535 0
M  V30 2331 O 215.948 1.36958 1.32843 0
M  V30 2332 C 213.088 2.77595 2.05024 0
M  V30 2333 C 212.201 3.99042 1.65498 0
M  V30 2334 C 211.336 4.48603 2.84479 0
M  V30 2335 C 210.375 5.62547 2.41262 0
M  V30 2336 N 209.512 6.06787 3.53206 0
M  V30 2337 H 214.352 2.96477 0.300906 0
M  V30 2338 H 211.889 1.46462 0.136822 0
M  V30 2339 H 213.847 3.11402 2.77642 0
M  V30 2340 H 212.477 1.99859 2.53488 0
M  V30 2341 H 211.529 3.71302 0.826981 0
M  V30 2342 H 212.841 4.81629 1.29748 0
M  V30 2343 H 211.995 4.84395 3.65303 0
M  V30 2344 H 210.734 3.64995 3.23465 0
M  V30 2345 H 209.739 5.26345 1.58874 0
M  V30 2346 H 210.964 6.47931 2.03377 0
M  V30 2347 H 208.91 5.26117 3.91838 0
M  V30 2348 H 208.827 6.84266 3.21427 0
M  V30 2349 H 210.095 6.4722 4.34427 0
M  V30 2350 N 214.325 -0.140222 1.56975 0
M  V30 2351 C 215.255 -1.17456 2.01808 0
M  V30 2352 C 216.236 -1.44415 0.898794 0
M  V30 2353 O 217.421 -1.5522 1.16707 0
M  V30 2354 C 214.551 -2.50607 2.40444 0
M  V30 2355 C 213.505 -2.38155 3.55621 0
M  V30 2356 C 212.831 -3.76078 3.80091 0
M  V30 2357 C 214.131 -1.85991 4.88062 0
M  V30 2358 H 215.825 -0.801743 2.88466 0
M  V30 2359 H 213.371 -0.38422 1.38779 0
M  V30 2360 H 215.324 -3.23197 2.7041 0
M  V30 2361 H 214.048 -2.89737 1.50732 0
M  V30 2362 H 212.707 -1.68016 3.25832 0
M  V30 2363 H 212.355 -4.12656 2.87618 0
M  V30 2364 H 212.055 -3.68606 4.57606 0
M  V30 2365 H 213.579 -4.50206 4.12488 0
M  V30 2366 H 214.993 -2.4838 5.16701 0
M  V30 2367 H 213.39 -1.89393 5.6943 0
M  V30 2368 H 214.46 -0.816023 4.77984 0
M  V30 2369 N 215.803 -1.52179 -0.40978 0
M  V30 2370 C 216.753 -1.71857 -1.49831 0
M  V30 2371 C 217.737 -0.572469 -1.50372 0
M  V30 2372 O 218.929 -0.829509 -1.56359 0
M  V30 2373 C 216.058 -1.87206 -2.87765 0
M  V30 2374 C 215.144 -3.07685 -2.91875 0
M  V30 2375 N 215.535 -4.30403 -2.65683 0
M  V30 2376 C 213.833 -3.07505 -3.23043 0
M  V30 2377 C 214.534 -5.11868 -2.76344 0
M  V30 2378 N 213.51 -4.47101 -3.09195 0
M  V30 2379 H 217.312 -2.64381 -1.28375 0
M  V30 2380 H 214.826 -1.50203 -0.617479 0
M  V30 2381 H 216.823 -1.99419 -3.66111 0
M  V30 2382 H 215.483 -0.958814 -3.10221 0
M  V30 2383 H 216.494 -4.58887 -2.4009 0
M  V30 2384 H 213.171 -2.25915 -3.51096 0
M  V30 2385 H 214.561 -6.19634 -2.59814 0
M  V30 2386 N 217.281 0.66697 -1.42791 0
M  V30 2387 C 218.211 1.79218 -1.49677 0
M  V30 2388 C 219.192 1.66405 -0.352623 0
M  V30 2389 O 220.377 1.85708 -0.567993 0
M  V30 2390 C 217.507 3.17565 -1.40605 0
M  V30 2391 C 216.461 3.45124 -2.53127 0
M  V30 2392 C 215.787 4.83127 -2.29112 0
M  V30 2393 C 217.087 3.41236 -3.95418 0
M  V30 2394 H 218.781 1.73713 -2.43853 0
M  V30 2395 H 216.327 0.83432 -1.17367 0
M  V30 2396 H 218.28 3.96022 -1.44029 0
M  V30 2397 H 217.004 3.23767 -0.429271 0
M  V30 2398 H 215.663 2.69031 -2.49034 0
M  V30 2399 H 215.311 4.85988 -1.29709 0
M  V30 2400 H 215.011 5.02528 -3.04531 0
M  V30 2401 H 216.535 5.63859 -2.34297 0
M  V30 2402 H 217.949 4.09651 -4.01073 0
M  V30 2403 H 216.346 3.72173 -4.70752 0
M  V30 2404 H 217.416 2.39665 -4.21532 0
M  V30 2405 N 218.759 1.29093 0.90403 0
M  V30 2406 C 220.005 1.16986 1.65656 0
M  V30 2407 C 220.338 -0.278925 1.92186 0
M  V30 2408 O 219.613 -1.2019 1.5292 0
M  V30 2409 C 219.896 1.97908 3.0084 0
M  V30 2410 C 219.749 3.50903 2.81403 0
M  V30 2411 C 221.068 1.80208 4.01513 0
M  V30 2412 H 218.187 0.426346 0.601164 0
M  V30 2413 H 220.829 1.58518 1.04747 0
M  V30 2414 H 218.979 1.62616 3.52829 0
M  V30 2415 H 220.651 3.96153 2.36348 0
M  V30 2416 H 218.894 3.76045 2.1627 0
M  V30 2417 H 219.565 4.02791 3.77443 0
M  V30 2418 H 222.041 2.11025 3.58619 0
M  V30 2419 H 220.917 2.39184 4.94047 0
M  V30 2420 H 221.178 0.756119 4.35586 0
M  V30 2421 N 220.237 -1.11381 1.11499 0
M  V30 2422 C 221.17 -2.16621 0.71769 0
M  V30 2423 C 222.148 -1.60058 -0.286413 0
M  V30 2424 O 223.332 -1.87613 -0.182689 0
M  V30 2425 C 220.459 -3.38646 0.0607265 0
M  V30 2426 C 219.505 -4.13874 1.03008 0
M  V30 2427 S 220.338 -4.70731 2.55289 0
M  V30 2428 C 221.494 -5.96079 1.90895 0
M  V30 2429 H 221.727 -2.49987 1.60915 0
M  V30 2430 H 219.26 -1.23015 0.933092 0
M  V30 2431 H 221.218 -4.09313 -0.311965 0
M  V30 2432 H 219.879 -3.03537 -0.807702 0
M  V30 2433 H 219.072 -5.01333 0.517853 0
M  V30 2434 H 218.674 -3.4897 1.34522 0
M  V30 2435 H 220.966 -6.65948 1.24577 0
M  V30 2436 H 221.909 -6.51946 2.76354 0
M  V30 2437 H 222.317 -5.47652 1.36885 0
M  V30 2438 N 221.715 -0.905404 -1.28997 0
M  V30 2439 C 222.625 -0.392246 -2.31298 0
M  V30 2440 C 223.641 0.515889 -1.66176 0
M  V30 2441 O 224.817 0.404093 -1.97304 0
M  V30 2442 C 221.882 0.36686 -3.44754 0
M  V30 2443 C 220.943 -0.573485 -4.25452 0
M  V30 2444 C 220.176 0.149488 -5.33491 0
M  V30 2445 O 220.399 1.37255 -5.5364 0
M  V30 2446 O 219.333 -0.510919 -5.99728 0
M  V30 2447 H 223.159 -1.2411 -2.77183 0
M  V30 2448 H 220.744 -0.669926 -1.33538 0
M  V30 2449 H 222.626 0.795907 -4.13816 0
M  V30 2450 H 221.301 1.19169 -3.00966 0
M  V30 2451 H 220.208 -1.05176 -3.59011 0
M  V30 2452 H 221.541 -1.36489 -4.72897 0
M  V30 2453 N 223.193 1.4272 -0.668489 0
M  V30 2454 C 224.423 2.05668 -0.196063 0
M  V30 2455 C 224.831 1.5028 1.14946 0
M  V30 2456 O 224.174 0.6348 1.72383 0
M  V30 2457 C 224.236 3.59469 -0.0468879 0
M  V30 2458 C 223.9 4.37518 -1.32012 0
M  V30 2459 C 224.897 4.68584 -2.25222 0
M  V30 2460 C 222.582 4.77266 -1.56596 0
M  V30 2461 C 224.576 5.38326 -3.41297 0
M  V30 2462 C 222.263 5.4675 -2.72962 0
M  V30 2463 C 223.261 5.77204 -3.65137 0
M  V30 2464 O 222.949 6.45264 -4.79468 0
M  V30 2465 H 222.681 0.669382 -0.0943599 0
M  V30 2466 H 225.235 1.83954 -0.913788 0
M  V30 2467 H 223.465 3.79817 0.726357 0
M  V30 2468 H 225.154 4.04071 0.384852 0
M  V30 2469 H 225.92 4.38382 -2.07477 0
M  V30 2470 H 221.799 4.52959 -0.857249 0
M  V30 2471 H 225.343 5.62014 -4.13263 0
M  V30 2472 H 221.24 5.76369 -2.90635 0
M  V30 2473 H 222.008 6.63753 -4.78931 0
M  V30 2474 N 224.671 0.411399 1.52136 0
M  V30 2475 C 225.634 -0.401089 2.25663 0
M  V30 2476 C 226.634 -0.971732 1.28117 0
M  V30 2477 O 227.824 -0.850254 1.52041 0
M  V30 2478 C 224.956 -1.56483 3.02863 0
M  V30 2479 H 226.149 0.24295 2.98914 0
M  V30 2480 H 223.702 0.163968 1.55438 0
M  V30 2481 H 224.437 -2.24567 2.33967 0
M  V30 2482 H 224.222 -1.16211 3.74483 0
M  V30 2483 H 225.712 -2.13951 3.58629 0
M  V30 2484 N 226.149 -1.5696 0.141893 0
M  V30 2485 C 227.397 -1.95573 -0.509484 0
M  V30 2486 C 227.718 -1.02746 -1.65736 0
M  V30 2487 O 226.988 -0.0880311 -1.95702 0
M  V30 2488 H 225.568 -0.722115 -0.191205 0
M  V30 2489 H 228.23 -1.93697 0.216196 0
M  V30 2490 H 227.326 -2.99171 -0.889 0
M  V30 2491 N 227.627 0.131896 -1.57047 0
M  V30 2492 C 228.875 0.840269 -1.83804 0
M  V30 2493 C 229.196 1.81017 -0.72512 0
M  V30 2494 O 228.466 1.94272 0.251995 0
M  V30 2495 H 227.046 0.313294 -0.678127 0
M  V30 2496 H 229.708 0.122294 -1.94516 0
M  V30 2497 H 228.804 1.39335 -2.79271 0
M  V30 2498 N 229.106 1.52395 0.401703 0
M  V30 2499 C 230.354 1.66488 1.14569 0
M  V30 2500 C 230.675 0.400897 1.90835 0
M  V30 2501 O 229.945 -0.584415 1.8698 0
M  V30 2502 H 228.525 0.613672 0.425929 0
M  V30 2503 H 231.187 1.89464 0.457093 0
M  V30 2504 H 230.283 2.50942 1.85566 0
M  V30 2505 N 230.584 -0.659388 1.43143 0
M  V30 2506 C 231.494 -1.80167 1.50256 0
M  V30 2507 C 232.51 -1.69571 0.390106 0
M  V30 2508 O 233.686 -1.90849 0.643319 0
M  V30 2509 C 230.751 -3.16409 1.41725 0
M  V30 2510 C 229.812 -3.38848 2.63591 0
M  V30 2511 C 229.045 -4.68591 2.55458 0
M  V30 2512 O 229.268 -5.47532 1.59891 0
M  V30 2513 O 228.202 -4.92614 3.45854 0
M  V30 2514 H 232.028 -1.77121 2.46702 0
M  V30 2515 H 229.613 -0.817092 1.25076 0
M  V30 2516 H 231.495 -3.9768 1.39387 0
M  V30 2517 H 230.17 -3.20059 0.484118 0
M  V30 2518 H 229.077 -2.57366 2.71502 0
M  V30 2519 H 230.41 -3.4004 3.55856 0
M  V30 2520 N 232.062 -1.29571 -0.897171 0
M  V30 2521 C 232.992 -1.17473 -2.01798 0
M  V30 2522 C 233.973 -0.068323 -1.69963 0
M  V30 2523 O 235.158 -0.248239 -1.92607 0
M  V30 2524 C 232.288 -0.853099 -3.36659 0
M  V30 2525 C 231.242 -1.9161 -3.82713 0
M  V30 2526 C 230.568 -1.44773 -5.14728 0
M  V30 2527 C 231.868 -3.32535 -4.02763 0
M  V30 2528 H 233.562 -2.11237 -2.12177 0
M  V30 2529 H 231.108 -1.01699 -1.01948 0
M  V30 2530 H 233.061 -0.755165 -4.14578 0
M  V30 2531 H 231.785 0.120236 -3.26379 0
M  V30 2532 H 230.444 -2.00346 -3.07013 0
M  V30 2533 H 230.092 -0.462995 -5.00865 0
M  V30 2534 H 229.792 -2.15865 -5.46513 0
M  V30 2535 H 231.316 -1.36334 -5.95185 0
M  V30 2536 H 232.73 -3.26626 -4.71156 0
M  V30 2537 H 231.127 -4.01607 -4.45905 0
M  V30 2538 H 232.197 -3.75326 -3.07016 0
M  V30 2539 N 233.54 1.10788 -1.12088 0
M  V30 2540 C 234.787 1.82671 -0.873931 0
M  V30 2541 C 235.115 1.85004 0.600311 0
M  V30 2542 O 234.37 1.30365 1.45957 0
M  V30 2543 C 234.669 3.29294 -1.38926 0
M  V30 2544 C 234.335 3.47113 -2.87791 0
M  V30 2545 C 232.997 3.51684 -3.28439 0
M  V30 2546 C 235.349 3.52808 -3.83635 0
M  V30 2547 C 232.677 3.59513 -4.63646 0
M  V30 2548 C 235.029 3.62169 -5.18668 0
M  V30 2549 C 233.693 3.65003 -5.58864 0
M  V30 2550 H 232.963 0.668441 -0.319794 0
M  V30 2551 H 235.61 1.30613 -1.40045 0
M  V30 2552 H 233.915 3.83894 -0.783122 0
M  V30 2553 H 235.612 3.83416 -1.17443 0
M  V30 2554 H 232.202 3.4423 -2.5535 0
M  V30 2555 H 236.386 3.4853 -3.53328 0
M  V30 2556 H 231.642 3.59987 -4.94185 0
M  V30 2557 H 235.816 3.6552 -5.92763 0
M  V30 2558 H 233.443 3.70822 -6.63623 0
M  V30 2559 N 235.018 0.912232 1.28515 0
M  V30 2560 C 236.266 0.543523 1.94654 0
M  V30 2561 C 236.587 -0.9155 1.72173 0
M  V30 2562 O 235.857 -1.64708 1.06058 0
M  V30 2563 H 234.437 0.198017 0.720277 0
M  V30 2564 H 237.099 1.16126 1.56527 0
M  V30 2565 H 236.195 0.736684 3.03281 0
M  V30 2566 N 236.496 -1.42363 0.676048 0
M  V30 2567 C 237.443 -2.308 -0.00150904 0
M  V30 2568 C 238.413 -1.46032 -0.791444 0
M  V30 2569 O 239.598 -1.74861 -0.76344 0
M  V30 2570 C 236.738 -3.31883 -0.945919 0
M  V30 2571 C 235.851 -4.31741 -0.149675 0
M  V30 2572 C 234.986 -5.19898 -1.08995 0
M  V30 2573 C 234.025 -6.11434 -0.285465 0
M  V30 2574 N 233.162 -6.92138 -1.17851 0
M  V30 2575 H 238.002 -2.88187 0.758455 0
M  V30 2576 H 235.539 -1.41952 0.38576 0
M  V30 2577 H 237.497 -3.89019 -1.50731 0
M  V30 2578 H 236.127 -2.76093 -1.6725 0
M  V30 2579 H 235.179 -3.76713 0.528359 0
M  V30 2580 H 236.491 -4.96534 0.474866 0
M  V30 2581 H 235.645 -5.81772 -1.72123 0
M  V30 2582 H 234.384 -4.55284 -1.74837 0
M  V30 2583 H 233.389 -5.48627 0.359018 0
M  V30 2584 H 234.614 -6.78097 0.368883 0
M  V30 2585 H 232.56 -6.30152 -1.82332 0
M  V30 2586 H 232.477 -7.53542 -0.609082 0
M  V30 2587 H 233.745 -7.58499 -1.79722 0
M  V30 2588 N 237.974 -0.419461 -1.51915 0
M  V30 2589 C 239.223 0.154346 -2.01109 0
M  V30 2590 C 239.536 1.45338 -1.30905 0
M  V30 2591 O 240.742 2.10906 -1.7097 0
M  V30 2592 C 239.198 0.325615 -3.58424 0
M  V30 2593 C 238.806 -0.961934 -4.37551 0
M  V30 2594 C 240.55 0.854155 -4.15818 0
M  V30 2595 C 238.457 -0.757287 -5.86531 0
M  V30 2596 H 237.387 0.0614563 -0.751491 0
M  V30 2597 H 240.038 -0.54649 -1.75173 0
M  V30 2598 H 238.42 1.08903 -3.80731 0
M  V30 2599 H 239.594 -1.7323 -4.26999 0
M  V30 2600 H 237.909 -1.41766 -3.91524 0
M  V30 2601 H 240.506 1.02346 -5.24814 0
M  V30 2602 H 240.849 1.83172 -3.73837 0
M  V30 2603 H 241.382 0.149528 -3.97519 0
M  V30 2604 H 238.121 -1.70671 -6.32892 0
M  V30 2605 H 237.641 -0.0264061 -5.99794 0
M  V30 2606 H 239.32 -0.403482 -6.45741 0
M  V30 2607 N 239.452 1.56882 -0.150215 0
M  V30 2608 C 240.677 2.01027 0.510184 0
M  V30 2609 C 241.102 1.02966 1.57415 0
M  V30 2610 O 240.46 0.00590158 1.81299 0
M  V30 2611 C 240.508 3.43899 1.08472 0
M  V30 2612 O 239.612 3.4885 2.19948 0
M  V30 2613 H 238.953 0.652233 0.124451 0
M  V30 2614 H 241.483 2.03093 -0.247894 0
M  V30 2615 H 241.493 3.82766 1.41259 0
M  V30 2616 H 240.168 4.14776 0.305582 0
M  V30 2617 H 238.745 3.21827 1.88366 0
M  V30 2618 N 240.93 -0.123565 1.57115 0
M  V30 2619 C 242.158 -0.846461 1.88793 0
M  V30 2620 C 242.573 -1.73652 0.740976 0
M  V30 2621 O 241.93 -1.80207 -0.288393 0
M  V30 2622 C 241.981 -1.6837 3.19897 0
M  V30 2623 O 241.702 -0.829477 4.30176 0
M  V30 2624 C 243.203 -2.51214 3.65248 0
M  V30 2625 H 240.423 -0.243573 0.625231 0
M  V30 2626 H 242.967 -0.109324 2.04208 0
M  V30 2627 H 241.122 -2.37364 3.06165 0
M  V30 2628 H 241.536 -1.40651 5.0529 0
M  V30 2629 H 243.01 -3.05497 4.59756 0
M  V30 2630 H 243.487 -3.28359 2.9168 0
M  V30 2631 H 244.093 -1.8747 3.81752 0
M  V30 2632 N 242.408 -1.52605 -0.393616 0
M  V30 2633 C 243.318 -1.79971 -1.50492 0
M  V30 2634 C 244.334 -0.686181 -1.59899 0
M  V30 2635 O 245.51 -0.973274 -1.76322 0
M  V30 2636 C 242.575 -1.95867 -2.86072 0
M  V30 2637 C 241.636 -3.19781 -2.86424 0
M  V30 2638 C 240.869 -3.34909 -4.15538 0
M  V30 2639 O 241.092 -2.54948 -5.10253 0
M  V30 2640 O 240.026 -4.28141 -4.23059 0
M  V30 2641 H 243.852 -2.74328 -1.30299 0
M  V30 2642 H 241.437 -1.3764 -0.581005 0
M  V30 2643 H 243.319 -2.08056 -3.66457 0
M  V30 2644 H 241.994 -1.04699 -3.063 0
M  V30 2645 H 240.901 -3.13038 -2.04837 0
M  V30 2646 H 242.234 -4.1078 -2.71147 0
M  V30 2647 N 243.887 0.651787 -1.4349 0
M  V30 2648 C 245.135 1.40888 -1.44897 0
M  V30 2649 C 245.456 1.94856 -0.0749086 0
M  V30 2650 O 244.726 1.74518 0.889956 0
M  V30 2651 H 243.306 0.522887 -0.533478 0
M  V30 2652 H 245.968 0.768609 -1.79104 0
M  V30 2653 H 245.064 2.25052 -2.16236 0
M  V30 2654 N 245.365 1.30045 0.890287 0
M  V30 2655 C 246.312 1.15976 1.99545 0
M  V30 2656 C 247.282 0.0506202 1.66023 0
M  V30 2657 O 248.467 0.219847 1.89529 0
M  V30 2658 C 245.607 0.852054 3.34416 0
M  V30 2659 C 244.72 2.04255 3.80662 0
M  V30 2660 C 243.855 1.6734 5.04154 0
M  V30 2661 C 242.894 2.82916 5.42794 0
M  V30 2662 N 242.031 2.46333 6.57468 0
M  V30 2663 H 246.871 2.10524 2.10911 0
M  V30 2664 H 244.408 1.04749 1.03276 0
M  V30 2665 H 246.366 0.654296 4.12037 0
M  V30 2666 H 244.996 -0.0565502 3.2275 0
M  V30 2667 H 244.048 2.35172 2.98995 0
M  V30 2668 H 245.36 2.90826 4.05242 0
M  V30 2669 H 244.514 1.43908 5.89386 0
M  V30 2670 H 243.253 0.779308 4.81433 0
M  V30 2671 H 242.258 3.0702 4.56091 0
M  V30 2672 H 243.483 3.73004 5.6749 0
M  V30 2673 H 241.429 1.59423 6.36334 0
M  V30 2674 H 241.346 3.26436 6.81891 0
M  V30 2675 H 242.614 2.26244 7.45945 0
M  V30 2676 N 246.843 -1.10192 1.12674 0
M  V30 2677 C 247.773 -2.18652 0.819362 0
M  V30 2678 C 248.754 -1.68698 -0.217915 0
M  V30 2679 O 249.939 -1.94041 -0.0785581 0
M  V30 2680 C 247.069 -3.46202 0.27594 0
M  V30 2681 C 246.023 -4.09444 1.24656 0
M  V30 2682 C 245.349 -5.31725 0.563258 0
M  V30 2683 C 246.649 -4.52863 2.60217 0
M  V30 2684 H 248.343 -2.44622 1.72628 0
M  V30 2685 H 245.889 -1.17571 0.831451 0
M  V30 2686 H 247.842 -4.21372 0.0486149 0
M  V30 2687 H 246.566 -3.1973 -0.666331 0
M  V30 2688 H 245.225 -3.36284 1.45974 0
M  V30 2689 H 244.873 -5.0153 -0.384235 0
M  V30 2690 H 244.573 -5.74991 1.21075 0
M  V30 2691 H 246.097 -6.09624 0.34503 0
M  V30 2692 H 247.511 -5.19294 2.42913 0
M  V30 2693 H 245.908 -5.06986 3.21068 0
M  V30 2694 H 246.978 -3.65656 3.18471 0
M  V30 2695 N 248.321 -0.919034 -1.28029 0
M  V30 2696 C 249.546 -0.570357 -1.99403 0
M  V30 2697 C 249.971 0.842486 -1.68178 0
M  V30 2698 O 249.329 1.56391 -0.917141 0
M  V30 2699 C 249.377 -0.792541 -3.51783 0
M  V30 2700 O 248.481 0.145988 -4.12142 0
M  V30 2701 H 247.822 -0.220555 -0.6263 0
M  V30 2702 H 250.352 -1.23592 -1.63053 0
M  V30 2703 H 250.362 -0.704708 -4.01868 0
M  V30 2704 H 249.037 -1.82247 -3.73844 0
M  V30 2705 H 247.614 0.00897528 -3.72899 0
M  V30 2706 N 249.799 1.42003 -0.683588 0
M  V30 2707 C 250.709 2.34597 -0.0109075 0
M  V30 2708 C 251.725 1.55576 0.779245 0
M  V30 2709 O 252.901 1.88107 0.719555 0
M  V30 2710 C 249.966 3.34199 0.922588 0
M  V30 2711 C 249.027 4.29115 0.125984 0
M  V30 2712 C 248.26 5.23959 1.01502 0
M  V30 2713 O 248.483 5.23952 2.25456 0
M  V30 2714 O 247.417 6.00053 0.47111 0
M  V30 2715 H 251.243 2.93675 -0.773853 0
M  V30 2716 H 248.828 1.42654 -0.443861 0
M  V30 2717 H 250.71 3.95365 1.45823 0
M  V30 2718 H 249.385 2.77582 1.66523 0
M  V30 2719 H 248.292 3.71335 -0.453969 0
M  V30 2720 H 249.625 4.88798 -0.577736 0
M  V30 2721 N 251.277 0.427512 1.51691 0
M  V30 2722 C 252.688 -0.0378867 1.86662 0
M  V30 2723 C 253.039 -1.42819 1.34525 0
M  V30 2724 O 252.164 -2.05037 0.692014 0
M  V30 2725 C 252.759 -0.0755266 3.38716 0
M  V30 2726 C 251.318 -0.485309 3.73258 0
M  V30 2727 C 250.465 0.328399 2.75349 0
M  V30 2728 H 253.416 0.64379 1.45055 0
M  V30 2729 H 253.437 -0.887056 3.70016 0
M  V30 2730 H 252.949 0.936487 3.76632 0
M  V30 2731 H 251.05 -1.50329 3.40928 0
M  V30 2732 H 251.163 -0.21693 4.78609 0
M  V30 2733 H 249.527 -0.211905 2.53817 0
M  V30 2734 H 250.31 1.3391 3.16106 0
M  V30 2735 N 252.755 -1.56801 0.158532 0
M  V30 2736 C 253.665 -2.20916 -0.789518 0
M  V30 2737 C 254.681 -1.1969 -1.26294 0
M  V30 2738 O 255.857 -1.52308 -1.31773 0
M  V30 2739 C 252.922 -2.82727 -2.00665 0
M  V30 2740 C 251.983 -3.99114 -1.58134 0
M  V30 2741 C 251.216 -4.57968 -2.74045 0
M  V30 2742 O 251.439 -4.15704 -3.90572 0
M  V30 2743 O 250.373 -5.48047 -2.48855 0
M  V30 2744 H 254.199 -3.02464 -0.273681 0
M  V30 2745 H 251.784 -1.4924 -0.0690548 0
M  V30 2746 H 253.666 -3.21968 -2.71872 0
M  V30 2747 H 252.341 -2.04184 -2.51179 0
M  V30 2748 H 251.248 -3.64567 -0.839155 0
M  V30 2749 H 252.581 -4.79212 -1.12325 0
M  V30 2750 N 254.233 0.115231 -1.57178 0
M  V30 2751 C 255.458 0.840354 -1.89612 0
M  V30 2752 C 255.883 1.72464 -0.750845 0
M  V30 2753 O 255.241 1.78826 0.298478 0
M  V30 2754 C 255.289 1.64654 -3.20814 0
M  V30 2755 O 254.393 2.7538 -3.06985 0
M  V30 2756 H 253.734 0.232158 -0.622092 0
M  V30 2757 H 256.264 0.0964977 -2.04372 0
M  V30 2758 H 256.274 2.03499 -3.53627 0
M  V30 2759 H 254.949 0.997416 -4.03763 0
M  V30 2760 H 253.526 2.3971 -2.85646 0
M  V30 2761 N 255.711 1.52812 0.385517 0
M  V30 2762 C 256.658 1.77838 1.47113 0
M  V30 2763 C 257.628 0.621757 1.54024 0
M  V30 2764 O 258.813 0.861846 1.70226 0
M  V30 2765 C 255.953 1.95618 2.84302 0
M  V30 2766 C 255.066 3.23316 2.86515 0
M  V30 2767 C 254.201 3.31394 4.15152 0
M  V30 2768 C 253.24 4.53201 4.1143 0
M  V30 2769 N 252.377 4.58542 5.3168 0
M  V30 2770 H 257.217 2.70482 1.25073 0
M  V30 2771 H 254.754 1.34006 0.606692 0
M  V30 2772 H 256.712 2.03912 3.63972 0
M  V30 2773 H 255.342 1.06331 3.04784 0
M  V30 2774 H 254.394 3.24076 1.99195 0
M  V30 2775 H 255.706 4.13045 2.79634 0
M  V30 2776 H 254.86 3.3889 5.03228 0
M  V30 2777 H 253.599 2.39645 4.24761 0
M  V30 2778 H 252.604 4.45827 3.21742 0
M  V30 2779 H 253.829 5.46271 4.03442 0
M  V30 2780 H 251.775 3.69686 5.41912 0
M  V30 2781 H 251.692 5.42148 5.26889 0
M  V30 2782 H 252.96 4.70296 6.21644 0
M  V30 2783 N 257.189 -0.644168 1.43834 0
M  V30 2784 C 258.119 -1.76814 1.52509 0
M  V30 2785 C 259.1 -1.65823 0.379052 0
M  V30 2786 O 260.285 -1.84781 0.597466 0
M  V30 2787 C 257.415 -3.15288 1.4564 0
M  V30 2788 C 256.369 -3.41053 2.58586 0
M  V30 2789 C 255.695 -4.79421 2.36769 0
M  V30 2790 C 256.995 -3.34902 4.00797 0
M  V30 2791 H 258.689 -1.69812 2.46586 0
M  V30 2792 H 256.235 -0.815542 1.1868 0
M  V30 2793 H 258.188 -3.93681 1.50311 0
M  V30 2794 H 256.912 -3.23043 0.480725 0
M  V30 2795 H 255.571 -2.65035 2.53282 0
M  V30 2796 H 255.219 -4.83863 1.37424 0
M  V30 2797 H 254.919 -4.9762 3.12487 0
M  V30 2798 H 256.443 -5.6006 2.43238 0
M  V30 2799 H 257.857 -4.03218 4.07539 0
M  V30 2800 H 256.254 -3.64637 4.76613 0
M  V30 2801 H 257.324 -2.32928 4.25291 0
M  V30 2802 N 258.668 -1.30515 -0.883378 0
M  V30 2803 C 259.917 -1.18795 -1.63005 0
M  V30 2804 C 260.23 0.255923 -1.93919 0
M  V30 2805 O 261.436 0.494654 -2.66956 0
M  V30 2806 C 259.892 -2.07878 -2.93794 0
M  V30 2807 C 259.5 -3.57184 -2.70414 0
M  V30 2808 C 261.244 -2.04924 -3.71761 0
M  V30 2809 C 259.151 -4.38317 -3.97029 0
M  V30 2810 H 258.081 -0.441031 -0.611562 0
M  V30 2811 H 260.732 -1.55275 -0.977854 0
M  V30 2812 H 259.114 -1.64283 -3.60315 0
M  V30 2813 H 260.288 -4.08937 -2.12384 0
M  V30 2814 H 258.603 -3.61976 -2.0582 0
M  V30 2815 H 261.2 -2.62792 -4.65665 0
M  V30 2816 H 261.543 -1.0331 -4.03277 0
M  V30 2817 H 262.076 -2.46649 -3.12104 0
M  V30 2818 H 258.815 -5.40632 -3.70671 0
M  V30 2819 H 258.335 -3.91326 -4.54559 0
M  V30 2820 H 260.014 -4.49834 -4.65036 0
M  V30 2821 N 260.146 1.09593 -1.13257 0
M  V30 2822 C 261.393 1.81734 -0.893257 0
M  V30 2823 C 261.721 1.8563 0.580656 0
M  V30 2824 O 260.976 1.31906 1.44566 0
M  V30 2825 C 261.275 3.27802 -1.42411 0
M  V30 2826 C 260.941 3.44041 -2.91456 0
M  V30 2827 C 259.603 3.48181 -3.3215 0
M  V30 2828 C 261.955 3.48719 -3.87356 0
M  V30 2829 C 259.283 3.54575 -4.67433 0
M  V30 2830 C 261.635 3.56648 -5.2248 0
M  V30 2831 C 260.299 3.59055 -5.62704 0
M  V30 2832 H 259.569 0.665011 -0.326866 0
M  V30 2833 H 262.216 1.2912 -1.41422 0
M  V30 2834 H 260.521 3.83042 -0.823795 0
M  V30 2835 H 262.218 3.82149 -1.21503 0
M  V30 2836 H 258.808 3.41502 -2.58987 0
M  V30 2837 H 262.992 3.44763 -3.57004 0
M  V30 2838 H 258.248 3.54725 -4.97976 0
M  V30 2839 H 262.422 3.59212 -5.96607 0
M  V30 2840 H 260.049 3.63763 -6.67518 0
M  V30 2841 N 261.624 0.925811 1.2754 0
M  V30 2842 C 262.849 0.580924 1.99098 0
M  V30 2843 C 263.274 -0.833555 1.68622 0
M  V30 2844 O 262.632 -1.55903 0.925422 0
M  V30 2845 C 262.68 0.811186 3.51358 0
M  V30 2846 O 261.784 -0.124129 4.12213 0
M  V30 2847 H 261.125 0.223873 0.625122 0
M  V30 2848 H 263.655 1.24455 1.62395 0
M  V30 2849 H 263.665 0.72601 4.01489 0
M  V30 2850 H 262.34 1.84227 3.72872 0
M  V30 2851 H 260.917 0.0108006 3.72898 0
M  V30 2852 N 263.102 -1.41638 0.69111 0
M  V30 2853 C 264.034 -2.29194 -0.0161523 0
M  V30 2854 C 265.047 -1.44549 -0.748955 0
M  V30 2855 O 266.236 -1.681 -0.6004 0
M  V30 2856 C 263.336 -3.22325 -1.0469 0
M  V30 2857 C 262.509 -4.35706 -0.384621 0
M  V30 2858 C 261.568 -5.09443 -1.31737 0
M  V30 2859 O 260.594 -5.63386 -0.811451 0
M  V30 2860 N 261.796 -5.16487 -2.64993 0
M  V30 2861 H 264.561 -2.90534 0.735523 0
M  V30 2862 H 262.122 -1.52742 0.53679 0
M  V30 2863 H 264.114 -3.68522 -1.67252 0
M  V30 2864 H 262.684 -2.62323 -1.70015 0
M  V30 2865 H 261.904 -3.91948 0.420804 0
M  V30 2866 H 263.192 -5.08743 0.0760765 0
M  V30 2867 H 262.59 -4.741 -3.08619 0
M  V30 2868 H 261.147 -5.66276 -3.22761 0
M  V30 2869 N 264.58 -0.43555 -1.51462 0
M  V30 2870 C 265.829 0.133007 -2.01261 0
M  V30 2871 C 266.142 1.43942 -1.32439 0
M  V30 2872 O 267.348 2.09081 -1.73198 0
M  V30 2873 C 265.804 0.287581 -3.58749 0
M  V30 2874 C 265.412 -1.00829 -4.36506 0
M  V30 2875 C 267.156 0.810004 -4.167 0
M  V30 2876 C 265.063 -0.819454 -5.85695 0
M  V30 2877 H 263.993 0.0534822 -0.752101 0
M  V30 2878 H 266.644 -0.565038 -1.74584 0
M  V30 2879 H 265.026 1.04859 -3.81865 0
M  V30 2880 H 266.2 -1.77749 -4.25138 0
M  V30 2881 H 264.515 -1.45911 -3.89999 0
M  V30 2882 H 267.112 0.967743 -5.2587 0
M  V30 2883 H 267.455 1.79196 -3.75758 0
M  V30 2884 H 267.988 0.107357 -3.97655 0
M  V30 2885 H 264.727 -1.77374 -6.31046 0
M  V30 2886 H 264.247 -0.0900208 -5.99732 0
M  V30 2887 H 265.926 -0.471949 -6.45276 0
M  V30 2888 N 266.058 1.56714 -0.166846 0
M  V30 2889 C 267.304 1.97039 0.479962 0
M  V30 2890 C 267.637 1.05264 1.63197 0
M  V30 2891 O 266.912 0.0988833 1.94248 0
M  V30 2892 C 267.195 3.46867 0.967212 0
M  V30 2893 C 267.048 4.49421 -0.18466 0
M  V30 2894 C 268.367 3.9968 1.84238 0
M  V30 2895 H 265.486 0.71641 0.172992 0
M  V30 2896 H 268.128 1.8832 -0.252079 0
M  V30 2897 H 266.278 3.54428 1.59101 0
M  V30 2898 H 267.95 4.53924 -0.821621 0
M  V30 2899 H 266.193 4.25573 -0.840837 0
M  V30 2900 H 266.864 5.51644 0.198317 0
M  V30 2901 H 269.34 3.94723 1.31655 0
M  V30 2902 H 268.216 5.04941 2.15234 0
M  V30 2903 H 268.477 3.43226 2.78654 0
M  V30 2904 N 267.536 -0.106894 1.57237 0
M  V30 2905 C 268.761 -0.830287 1.90055 0
M  V30 2906 C 269.186 -1.72064 0.75998 0
M  V30 2907 O 268.544 -1.78982 -0.288991 0
M  V30 2908 C 268.592 -1.6295 3.21683 0
M  V30 2909 O 267.696 -2.73748 3.08441 0
M  V30 2910 H 267.037 -0.228855 0.623315 0
M  V30 2911 H 269.567 -0.085658 2.04421 0
M  V30 2912 H 269.577 -2.01621 3.54701 0
M  V30 2913 H 268.252 -0.975989 4.04286 0
M  V30 2914 H 266.829 -2.38192 2.86913 0
M  V30 2915 N 269.014 -1.53014 -0.377408 0
M  V30 2916 C 269.977 -1.77957 -1.44444 0
M  V30 2917 C 270.977 -0.649763 -1.47087 0
M  V30 2918 O 272.167 -0.917897 -1.48055 0
M  V30 2919 C 269.299 -1.89089 -2.83651 0
M  V30 2920 H 270.492 -2.73243 -1.23606 0
M  V30 2921 H 268.045 -1.43912 -0.609844 0
M  V30 2922 H 268.78 -0.958293 -3.09818 0
M  V30 2923 H 268.565 -2.71254 -2.83132 0
M  V30 2924 H 270.055 -2.1002 -3.60945 0
M  V30 2925 N 270.492 0.636531 -1.44174 0
M  V30 2926 C 271.738 1.39826 -1.4689 0
M  V30 2927 C 272.071 1.93947 -0.0990585 0
M  V30 2928 O 271.346 1.73325 0.882544 0
M  V30 2929 C 271.629 2.56751 -2.5249 0
M  V30 2930 C 271.482 2.08014 -3.98811 0
M  V30 2931 C 272.801 3.58946 -2.54649 0
M  V30 2932 H 269.92 0.507075 -0.53483 0
M  V30 2933 H 272.562 0.720188 -1.75822 0
M  V30 2934 H 270.712 3.14597 -2.2795 0
M  V30 2935 H 272.384 1.5504 -4.34466 0
M  V30 2936 H 270.627 1.39242 -4.10846 0
M  V30 2937 H 271.298 2.92169 -4.68339 0
M  V30 2938 H 273.774 3.1089 -2.76563 0
M  V30 2939 H 272.65 4.38286 -3.3045 0
M  V30 2940 H 272.911 4.12655 -1.58646 0
M  V30 2941 N 271.97 1.30982 0.876444 0
M  V30 2942 C 272.917 1.18085 1.98304 0
M  V30 2943 C 273.887 0.0682263 1.6596 0
M  V30 2944 O 275.072 0.239937 1.89285 0
M  V30 2945 C 272.212 0.887475 3.33493 0
M  V30 2946 C 271.325 2.08281 3.78475 0
M  V30 2947 C 270.46 1.72678 5.0235 0
M  V30 2948 C 269.499 2.88657 5.39762 0
M  V30 2949 N 268.636 2.53292 6.54819 0
M  V30 2950 H 273.476 2.1275 2.08666 0
M  V30 2951 H 271.013 1.05839 1.02159 0
M  V30 2952 H 272.971 0.697961 4.1132 0
M  V30 2953 H 271.601 -0.022315 3.22792 0
M  V30 2954 H 270.653 2.3833 2.96484 0
M  V30 2955 H 271.965 2.95108 4.02135 0
M  V30 2956 H 271.119 1.50151 5.87826 0
M  V30 2957 H 269.858 0.830327 4.8058 0
M  V30 2958 H 268.863 3.1184 4.52809 0
M  V30 2959 H 270.088 3.79002 5.63502 0
M  V30 2960 H 268.034 1.66163 6.34607 0
M  V30 2961 H 267.951 3.3365 6.7839 0
M  V30 2962 H 269.219 2.34143 7.43503 0
M  V30 2963 N 273.449 -1.08991 1.13837 0
M  V30 2964 C 274.399 -2.1393 0.788535 0
M  V30 2965 C 275.383 -1.59396 -0.219516 0
M  V30 2966 O 276.575 -1.76985 -0.0227557 0
M  V30 2967 C 273.704 -3.42305 0.261147 0
M  V30 2968 C 272.79 -4.03736 1.29837 0
M  V30 2969 N 273.181 -4.39659 2.50067 0
M  V30 2970 C 271.479 -4.30993 1.1472 0
M  V30 2971 C 272.18 -4.88113 3.16419 0
M  V30 2972 N 271.156 -4.85846 2.43832 0
M  V30 2973 H 274.958 -2.39516 1.70322 0
M  V30 2974 H 272.472 -1.26263 1.02134 0
M  V30 2975 H 274.469 -4.16899 -0.0077405 0
M  V30 2976 H 273.129 -3.18172 -0.647805 0
M  V30 2977 H 274.14 -4.30878 2.8734 0
M  V30 2978 H 270.817 -4.16444 0.296773 0
M  V30 2979 H 272.207 -5.25336 4.18894 0
M  V30 2980 N 274.927 -0.932562 -1.27047 0
M  V30 2981 C 275.86 -0.379774 -2.25018 0
M  V30 2982 C 276.838 0.526587 -1.53837 0
M  V30 2983 O 278.022 0.465992 -1.82649 0
M  V30 2984 C 275.149 0.455187 -3.35627 0
M  V30 2985 C 274.195 -0.388428 -4.24728 0
M  V30 2986 S 275.028 -1.80701 -5.04091 0
M  V30 2987 C 276.184 -0.979865 -6.18182 0
M  V30 2988 H 276.417 -1.2101 -2.71558 0
M  V30 2989 H 273.95 -0.735078 -1.35779 0
M  V30 2990 H 275.908 0.931052 -3.99802 0
M  V30 2991 H 274.569 1.26009 -2.87716 0
M  V30 2992 H 273.762 0.25089 -5.03375 0
M  V30 2993 H 273.364 -0.798649 -3.65373 0
M  V30 2994 H 275.656 -0.218115 -6.77149 0
M  V30 2995 H 276.599 -1.73951 -6.86401 0
M  V30 2996 H 277.007 -0.51973 -5.62102 0
M  V30 2997 N 276.405 1.4127 -0.698611 0
M  V30 2998 C 277.355 2.27997 -0.0119836 0
M  V30 2999 C 278.339 1.42363 0.749765 0
M  V30 3000 O 279.531 1.65607 0.624758 0
M  V30 3001 C 276.66 3.30702 0.921458 0
M  V30 3002 C 275.746 4.23814 0.155796 0
M  V30 3003 N 276.137 4.98572 -0.852015 0
M  V30 3004 C 274.435 4.44284 0.390836 0
M  V30 3005 C 275.136 5.66744 -1.3106 0
M  V30 3006 N 274.112 5.39867 -0.635944 0
M  V30 3007 H 277.914 2.83232 -0.784649 0
M  V30 3008 H 275.428 1.53518 -0.529711 0
M  V30 3009 H 277.425 3.91661 1.42854 0
M  V30 3010 H 276.085 2.77028 1.69369 0
M  V30 3011 H 277.096 5.03024 -1.23235 0
M  V30 3012 H 273.773 4.01614 1.14071 0
M  V30 3013 H 275.163 6.36672 -2.14707 0
M  V30 3014 N 277.883 0.443576 1.51229 0
M  V30 3015 C 278.793 -0.370721 2.31652 0
M  V30 3016 C 279.809 -1.02186 1.40833 0
M  V30 3017 O 280.985 -1.01586 1.73903 0
M  V30 3018 C 278.05 -1.45376 3.14749 0
M  V30 3019 C 277.111 -0.822099 4.21355 0
M  V30 3020 C 276.344 -1.85353 5.0048 0
M  V30 3021 O 276.567 -3.07656 4.80316 0
M  V30 3022 O 275.501 -1.4406 5.84406 0
M  V30 3023 H 279.327 0.286002 3.0235 0
M  V30 3024 H 276.912 0.20598 1.47973 0
M  V30 3025 H 278.794 -2.08173 3.66391 0
M  V30 3026 H 277.469 -2.09445 2.46809 0
M  V30 3027 H 276.376 -0.155909 3.73775 0
M  V30 3028 H 277.709 -0.224797 4.91686 0
M  V30 3029 N 279.361 -1.56624 0.175154 0
M  V30 3030 C 280.309 -2.19468 -0.770495 0
M  V30 3031 C 281.303 -1.15985 -1.23466 0
M  V30 3032 O 282.509 -1.34176 -1.19987 0
M  V30 3033 H 278.884 -0.703095 -0.266761 0
M  V30 3034 H 280.855 -2.97613 -0.216542 0
M  V30 3035 C 279.604 -2.85264 -1.98796 0
M  V30 3036 H 278.927 -3.64623 -1.63983 0
M  V30 3037 H 280.367 -3.327 -2.62843 0
M  V30 3038 C 278.826 -1.85239 -2.81404 0
M  V30 3039 O 279.356 -1.34024 -3.78682 0
M  V30 3040 N 277.562 -1.53911 -2.46495 0
M  V30 3041 H 277.109 -1.95751 -1.67449 0
M  V30 3042 H 277.067 -0.872382 -3.02054 0
M  V30 3043 N 280.839 0.0985539 -1.57292 0
M  V30 3044 C 281.771 1.14595 -1.98496 0
M  V30 3045 C 282.784 1.36512 -0.887031 0
M  V30 3046 O 283.973 1.35225 -1.16518 0
M  V30 3047 C 281.073 2.50216 -2.28572 0
M  V30 3048 C 280.246 2.48624 -3.59868 0
M  V30 3049 C 279.305 3.66146 -3.7792 0
M  V30 3050 O 278.331 3.48795 -4.49812 0
M  V30 3051 N 279.533 4.85496 -3.18235 0
M  V30 3052 H 282.298 0.795277 -2.88956 0
M  V30 3053 H 279.859 0.287579 -1.59325 0
M  V30 3054 H 281.851 3.27432 -2.37845 0
M  V30 3055 H 280.421 2.77387 -1.44136 0
M  V30 3056 H 279.641 1.56978 -3.61596 0
M  V30 3057 H 280.929 2.44635 -4.46129 0
M  V30 3058 H 280.327 5.02497 -2.59833 0
M  V30 3059 H 278.884 5.60317 -3.32999 0
M  V30 3060 N 282.317 1.53212 0.369288 0
M  V30 3061 C 283.566 1.68436 1.10961 0
M  V30 3062 C 283.879 0.440738 1.9057 0
M  V30 3063 O 285.085 0.473446 2.6734 0
M  V30 3064 C 283.541 2.97744 2.0218 0
M  V30 3065 C 283.149 4.29355 1.279 0
M  V30 3066 C 284.893 3.22334 2.76226 0
M  V30 3067 C 282.8 5.49755 2.17999 0
M  V30 3068 H 281.73 0.627568 0.41794 0
M  V30 3069 H 284.381 1.79713 0.370884 0
M  V30 3070 H 282.763 2.8026 2.79768 0
M  V30 3071 H 283.937 4.57458 0.554007 0
M  V30 3072 H 282.252 4.11179 0.657311 0
M  V30 3073 H 284.849 4.09471 3.43857 0
M  V30 3074 H 285.192 2.38238 3.41392 0
M  V30 3075 H 285.725 3.40475 2.05723 0
M  V30 3076 H 282.464 6.36318 1.57417 0
M  V30 3077 H 281.984 5.25937 2.88359 0
M  V30 3078 H 283.663 5.84401 2.77641 0
M  V30 3079 N 283.795 -0.628877 1.44509 0
M  V30 3080 C 285.044 -1.38437 1.4669 0
M  V30 3081 C 285.357 -1.95322 0.104272 0
M  V30 3082 O 286.563 -2.715 0.00362163 0
M  V30 3083 C 285.019 -2.50659 2.5826 0
M  V30 3084 C 284.627 -2.00277 4.0074 0
M  V30 3085 C 286.371 -3.27844 2.69664 0
M  V30 3086 C 284.278 -3.09854 5.0373 0
M  V30 3087 H 283.208 -0.520245 0.545766 0
M  V30 3088 H 285.859 -0.676313 1.70582 0
M  V30 3089 H 284.241 -3.2405 2.27612 0
M  V30 3090 H 285.415 -1.33736 4.40966 0
M  V30 3091 H 283.73 -1.35901 3.93599 0
M  V30 3092 H 286.327 -4.09534 3.43781 0
M  V30 3093 H 286.67 -3.77471 1.75559 0
M  V30 3094 H 287.203 -2.61543 2.99733 0
M  V30 3095 H 283.942 -2.65168 5.99472 0
M  V30 3096 H 283.462 -3.7503 4.68095 0
M  V30 3097 H 285.141 -3.74592 5.27532 0
M  V30 3098 N 285.273 -1.31445 -0.869486 0
M  V30 3099 C 286.223 -1.15731 -1.96444 0
M  V30 3100 C 287.207 -0.0681855 -1.60755 0
M  V30 3101 O 288.399 -0.293154 -1.74555 0
M  V30 3102 C 285.528 -0.867255 -3.32165 0
M  V30 3103 C 284.614 -1.99738 -3.74119 0
M  V30 3104 N 285.005 -3.24447 -3.88031 0
M  V30 3105 C 283.303 -1.89723 -4.03635 0
M  V30 3106 C 284.004 -3.98374 -4.23879 0
M  V30 3107 N 282.98 -3.26547 -4.3459 0
M  V30 3108 H 286.782 -2.10296 -2.05312 0
M  V30 3109 H 284.296 -1.23009 -1.06031 0
M  V30 3110 H 286.293 -0.735668 -4.10358 0
M  V30 3111 H 284.953 0.0701614 -3.24624 0
M  V30 3112 H 285.964 -3.59557 -3.72746 0
M  V30 3113 H 282.641 -1.03449 -4.04481 0
M  V30 3114 H 284.031 -5.05844 -4.42235 0
M  V30 3115 N 286.751 1.08385 -1.14413 0
M  V30 3116 C 288.167 1.32844 -0.884563 0
M  V30 3117 C 288.367 1.95841 0.474181 0
M  V30 3118 O 287.423 2.21158 1.21842 0
M  V30 3119 C 288.736 2.22978 -2.01745 0
M  V30 3120 C 290.284 2.36458 -2.05077 0
M  V30 3121 C 290.759 3.29934 -3.1766 0
M  V30 3122 N 292.25 3.37511 -3.17239 0
M  V30 3123 C 292.985 4.09871 -4.0099 0
M  V30 3124 N 292.481 4.84936 -4.94781 0
M  V30 3125 N 294.274 4.05704 -3.89051 0
M  V30 3126 H 286.425 0.658756 -2.01926 0
M  V30 3127 H 288.688 0.352821 -0.879899 0
M  V30 3128 H 288.394 1.83934 -2.99769 0
M  V30 3129 H 288.268 3.23441 -1.94077 0
M  V30 3130 H 290.655 2.7476 -1.0766 0
M  V30 3131 H 290.736 1.35736 -2.16816 0
M  V30 3132 H 290.38 2.92352 -4.15322 0
M  V30 3133 H 290.31 4.30584 -3.03158 0
M  V30 3134 H 292.801 2.83996 -2.49308 0
M  V30 3135 H 293.114 5.37612 -5.55151 0
M  V30 3136 H 291.459 4.83988 -4.98779 0
M  V30 3137 H 294.65 3.46167 -3.15097 0
M  V30 3138 H 294.823 4.61834 -4.54547 0
M  V30 3139 N 288.23 0.939286 1.26551 0
M  V30 3140 C 289.507 0.5038 1.89001 0
M  V30 3141 C 289.887 -1.01854 1.84903 0
M  V30 3142 O 289.235 -1.87773 1.30206 0
M  V30 3143 C 289.445 1.063 3.32417 0
M  V30 3144 C 290.793 1.13051 4.09273 0
M  V30 3145 O 291.817 1.01345 3.41479 0
M  V30 3146 O 290.676 1.31233 5.30509 0
M  V30 3147 H 287.77 0.163897 0.810597 0
M  V30 3148 H 290.316 1.03173 1.34735 0
M  V30 3149 H 289.088 2.10665 3.29752 0
M  V30 3150 H 288.711 0.517408 3.94219 0
M  V30 3151 N 289.708 -1.40897 0.706093 0
M  V30 3152 C 290.638 -2.33418 0.0620085 0
M  V30 3153 C 291.619 -1.52385 -0.755827 0
M  V30 3154 O 292.804 -1.80886 -0.706674 0
M  V30 3155 C 289.934 -3.36293 -0.867445 0
M  V30 3156 C 288.888 -4.27716 -0.155932 0
M  V30 3157 C 288.214 -5.2105 -1.20046 0
M  V30 3158 C 289.514 -5.12944 0.984149 0
M  V30 3159 H 291.208 -2.87527 0.83477 0
M  V30 3160 H 288.754 -1.38249 0.402875 0
M  V30 3161 H 290.707 -3.99949 -1.32735 0
M  V30 3162 H 289.431 -2.80556 -1.67199 0
M  V30 3163 H 288.09 -3.65498 0.284047 0
M  V30 3164 H 287.738 -4.61624 -1.99781 0
M  V30 3165 H 287.438 -5.83056 -0.729328 0
M  V30 3166 H 288.962 -5.87584 -1.66066 0
M  V30 3167 H 290.376 -5.70109 0.604048 0
M  V30 3168 H 288.773 -5.83945 1.38304 0
M  V30 3169 H 289.843 -4.49485 1.81911 0
M  V30 3170 N 291.186 -0.45159 -1.50991 0
M  V30 3171 C 292.133 0.352625 -2.2809 0
M  V30 3172 C 293.103 1.0044 -1.32291 0
M  V30 3173 O 294.288 1.02058 -1.6121 0
M  V30 3174 C 291.428 1.43983 -3.13629 0
M  V30 3175 C 290.541 0.804772 -4.24438 0
M  V30 3176 C 289.676 1.86822 -4.97263 0
M  V30 3177 C 288.715 1.21236 -5.99973 0
M  V30 3178 N 287.852 2.2178 -6.66152 0
M  V30 3179 H 292.692 -0.311186 -2.96371 0
M  V30 3180 H 290.229 -0.165308 -1.46168 0
M  V30 3181 H 292.187 2.08161 -3.61559 0
M  V30 3182 H 290.817 2.07307 -2.47434 0
M  V30 3183 H 289.869 0.0509129 -3.80366 0
M  V30 3184 H 291.181 0.286076 -4.97979 0
M  V30 3185 H 290.335 2.58628 -5.48813 0
M  V30 3186 H 289.074 2.42068 -4.23385 0
M  V30 3187 H 288.079 0.479828 -5.47702 0
M  V30 3188 H 289.304 0.667051 -6.75816 0
M  V30 3189 H 287.25 2.76079 -5.95077 0
M  V30 3190 H 287.167 1.74841 -7.35504 0
M  V30 3191 H 288.435 2.93026 -7.22327 0
M  V30 3192 N 292.664 1.56529 -0.183458 0
M  V30 3193 C 293.627 2.17324 0.728223 0
M  V30 3194 C 294.627 1.12453 1.14939 0
M  V30 3195 O 295.817 1.37902 1.06437 0
M  V30 3196 C 292.949 2.76591 1.99274 0
M  V30 3197 H 294.142 2.99241 0.198772 0
M  V30 3198 H 291.695 1.5616 0.0661391 0
M  V30 3199 H 292.43 1.98441 2.56499 0
M  V30 3200 H 292.215 3.5335 1.69959 0
M  V30 3201 H 293.705 3.23311 2.6431 0
M  V30 3202 N 294.142 -0.090211 1.57342 0
M  V30 3203 C 295.052 -1.12735 2.05738 0
M  V30 3204 C 296.068 -1.43557 0.983231 0
M  V30 3205 O 297.244 -1.54101 1.29672 0
M  V30 3206 C 294.309 -2.42659 2.47624 0
M  V30 3207 C 293.37 -2.18975 3.69254 0
M  V30 3208 C 292.603 -3.42704 4.09133 0
M  V30 3209 O 292.826 -4.51127 3.49057 0
M  V30 3210 O 291.76 -3.32003 5.02053 0
M  V30 3211 H 295.586 -0.746279 2.94388 0
M  V30 3212 H 293.171 -0.303064 1.46294 0
M  V30 3213 H 295.053 -3.19155 2.7517 0
M  V30 3214 H 293.728 -2.80182 1.62109 0
M  V30 3215 H 292.635 -1.40244 3.46818 0
M  V30 3216 H 293.968 -1.86342 4.55563 0
M  V30 3217 N 295.62 -1.53406 -0.361157 0
M  V30 3218 C 296.568 -1.80832 -1.46296 0
M  V30 3219 C 297.562 -0.677699 -1.55253 0
M  V30 3220 O 298.768 -0.860723 -1.58087 0
M  V30 3221 H 295.143 -0.572627 -0.487445 0
M  V30 3222 H 297.114 -2.73045 -1.20371 0
M  V30 3223 C 295.863 -2.01907 -2.8307 0
M  V30 3224 H 295.186 -2.88349 -2.76938 0
M  V30 3225 H 296.626 -2.25072 -3.59331 0
M  V30 3226 C 295.085 -0.799449 -3.27277 0
M  V30 3227 O 295.615 0.00971761 -4.01699 0
M  V30 3228 N 293.821 -0.621637 -2.83873 0
M  V30 3229 H 293.368 -1.28126 -2.23476 0
M  V30 3230 H 293.326 0.19298 -3.13807 0
M  V30 3231 N 297.098 0.621204 -1.44841 0
M  V30 3232 C 298.344 1.3826 -1.48365 0
M  V30 3233 C 298.677 1.93831 -0.119624 0
M  V30 3234 O 297.952 1.74251 0.864111 0
M  V30 3235 C 298.235 2.54058 -2.55199 0
M  V30 3236 C 298.088 2.03772 -4.00995 0
M  V30 3237 C 299.407 3.56225 -2.58442 0
M  V30 3238 H 296.526 0.501374 -0.540179 0
M  V30 3239 H 299.168 0.7015 -1.76576 0
M  V30 3240 H 297.318 3.12162 -2.31274 0
M  V30 3241 H 298.99 1.50423 -4.36086 0
M  V30 3242 H 297.233 1.34876 -4.12299 0
M  V30 3243 H 297.904 2.87185 -4.71411 0
M  V30 3244 H 300.38 3.07939 -2.79844 0
M  V30 3245 H 299.256 4.34756 -3.3508 0
M  V30 3246 H 299.517 4.10949 -1.63013 0
M  V30 3247 N 298.576 1.31904 0.862503 0
M  V30 3248 C 299.823 1.22017 1.61611 0
M  V30 3249 C 300.151 -0.21991 1.93253 0
M  V30 3250 O 299.406 -1.17076 1.56817 0
M  V30 3251 C 299.705 2.01713 2.95037 0
M  V30 3252 C 299.371 3.51145 2.82857 0
M  V30 3253 C 298.033 3.91889 2.79243 0
M  V30 3254 C 300.385 4.46204 2.69353 0
M  V30 3255 C 297.713 5.25947 2.59993 0
M  V30 3256 C 300.065 5.80397 2.5164 0
M  V30 3257 C 298.729 6.20352 2.46413 0
M  V30 3258 H 297.999 0.44649 0.591378 0
M  V30 3259 H 300.646 1.63248 1.00111 0
M  V30 3260 H 298.951 1.53185 3.60613 0
M  V30 3261 H 300.648 1.91437 3.52353 0
M  V30 3262 H 297.238 3.1878 2.86491 0
M  V30 3263 H 301.422 4.15652 2.71196 0
M  V30 3264 H 296.678 5.5597 2.54376 0
M  V30 3265 H 300.852 6.53676 2.40169 0
M  V30 3266 H 298.479 7.24172 2.31256 0
M  V30 3267 N 300.054 -1.07777 1.14986 0
M  V30 3268 C 301.284 -1.83752 0.944402 0
M  V30 3269 C 301.692 -1.8218 -0.51058 0
M  V30 3270 O 301.035 -1.22852 -1.36576 0
M  V30 3271 C 301.097 -3.32128 1.37592 0
M  V30 3272 C 300.761 -3.57425 2.84775 0
M  V30 3273 C 301.758 -3.5173 3.8286 0
M  V30 3274 C 299.443 -3.8523 3.2234 0
M  V30 3275 C 301.437 -3.73482 5.16517 0
M  V30 3276 C 299.124 -4.06634 4.56171 0
M  V30 3277 C 300.122 -4.00754 5.53069 0
M  V30 3278 O 299.81 -4.2159 6.84483 0
M  V30 3279 H 299.542 -0.58673 0.335744 0
M  V30 3280 H 302.096 -1.36982 1.53052 0
M  V30 3281 H 300.326 -3.79686 0.733165 0
M  V30 3282 H 302.015 -3.89555 1.14024 0
M  V30 3283 H 302.781 -3.30256 3.55184 0
M  V30 3284 H 298.66 -3.88923 2.47508 0
M  V30 3285 H 302.204 -3.68808 5.92137 0
M  V30 3286 H 298.101 -4.27593 4.83564 0
M  V30 3287 H 298.869 -4.38961 6.90837 0
M  V30 3288 N 301.532 -0.945985 -1.26051 0
M  V30 3289 C 302.76 -0.613025 -1.9761 0
M  V30 3290 C 303.175 0.813035 -1.70397 0
M  V30 3291 O 302.532 1.54274 -0.974979 0
M  V30 3292 C 302.583 -0.85159 -3.51326 0
M  V30 3293 O 302.304 -2.22157 -3.77595 0
M  V30 3294 C 303.805 -0.529831 -4.40122 0
M  V30 3295 H 301.025 -0.230593 -0.630133 0
M  V30 3296 H 303.569 -1.268 -1.60443 0
M  V30 3297 H 301.724 -0.243151 -3.86636 0
M  V30 3298 H 302.138 -2.2852 -4.721 0
M  V30 3299 H 303.612 -0.747348 -5.46917 0
M  V30 3300 H 304.089 0.535341 -4.35925 0
M  V30 3301 H 304.695 -1.11721 -4.10364 0
M  V30 3302 N 303.011 1.40521 -0.713556 0
M  V30 3303 C 304.236 2.05759 -0.26035 0
M  V30 3304 C 304.661 1.53403 1.08854 0
M  V30 3305 O 304.019 0.668535 1.68524 0
M  V30 3306 C 304.067 3.59745 -0.248122 0
M  V30 3307 O 303.171 4.05123 0.77131 0
M  V30 3308 H 302.512 0.652564 -0.122703 0
M  V30 3309 H 305.042 1.79958 -0.973467 0
M  V30 3310 H 305.052 4.07911 -0.0851129 0
M  V30 3311 H 303.727 3.97218 -1.2325 0
M  V30 3312 H 302.304 3.68422 0.57619 0
M  V30 3313 N 304.489 0.459591 1.5075 0
M  V30 3314 C 305.437 -0.354678 2.2988 0
M  V30 3315 C 306.431 -1.00086 1.36672 0
M  V30 3316 O 307.637 -0.933277 1.53915 0
M  V30 3317 H 304.012 -0.13321 0.740107 0
M  V30 3318 H 305.983 0.333269 2.96533 0
M  V30 3319 C 304.732 -1.43073 3.169 0
M  V30 3320 H 304.055 -0.942882 3.88523 0
M  V30 3321 H 305.495 -1.97328 3.75284 0
M  V30 3322 C 303.954 -2.42633 2.33732 0
M  V30 3323 O 304.484 -3.47658 2.01238 0
M  V30 3324 N 302.69 -2.14066 1.9653 0
M  V30 3325 H 302.237 -1.28685 2.23155 0
M  V30 3326 H 302.195 -2.80917 1.41185 0
M  V30 3327 N 305.967 -1.56429 0.191757 0
M  V30 3328 C 307.195 -2.01867 -0.453586 0
M  V30 3329 C 307.61 -1.07191 -1.5542 0
M  V30 3330 O 306.967 -0.0762108 -1.82341 0
M  V30 3331 C 307.018 -3.47017 -1.013 0
M  V30 3332 O 306.739 -4.38078 0.0437005 0
M  V30 3333 C 308.24 -4.07956 -1.73456 0
M  V30 3334 H 305.46 -0.661211 -0.114199 0
M  V30 3335 H 308.004 -2.02295 0.299483 0
M  V30 3336 H 306.159 -3.47298 -1.71647 0
M  V30 3337 H 306.573 -5.23178 -0.372212 0
M  V30 3338 H 308.047 -5.1138 -2.07833 0
M  V30 3339 H 308.524 -3.51222 -2.63704 0
M  V30 3340 H 309.13 -4.11437 -1.07702 0
M  V30 3341 N 307.445 0.0818655 -1.57387 0
M  V30 3342 C 308.685 0.788375 -1.88584 0
M  V30 3343 C 309.049 1.75248 -0.784351 0
M  V30 3344 O 310.25 2.50334 -0.979105 0
M  V30 3345 C 308.521 1.48654 -3.25018 0
M  V30 3346 S 310.08 2.22951 -3.7794 0
M  V30 3347 H 306.898 0.262383 -0.660815 0
M  V30 3348 H 309.5 0.0448995 -1.95448 0
M  V30 3349 H 308.204 0.770919 -4.03094 0
M  V30 3350 H 307.735 2.26965 -3.21326 0
M  V30 3351 H 309.75 3.49309 -3.52417 0
M  V30 3352 N 308.923 1.53595 0.353017 0
M  V30 3353 C 310.169 1.70638 1.09593 0
M  V30 3354 C 310.502 0.463286 1.88593 0
M  V30 3355 O 309.777 -0.539597 1.86865 0
M  V30 3356 C 310.06 2.96406 2.04489 0
M  V30 3357 C 309.913 4.30901 1.29014 0
M  V30 3358 C 311.232 3.17812 3.0444 0
M  V30 3359 H 308.351 0.620913 0.397034 0
M  V30 3360 H 310.993 1.86254 0.375446 0
M  V30 3361 H 309.143 2.83223 2.65927 0
M  V30 3362 H 310.815 4.55917 0.702638 0
M  V30 3363 H 309.058 4.29741 0.592071 0
M  V30 3364 H 309.729 5.1506 1.98537 0
M  V30 3365 H 312.205 3.30263 2.53112 0
M  V30 3366 H 311.081 4.07223 3.6805 0
M  V30 3367 H 311.342 2.33669 3.75301 0
M  V30 3368 N 310.401 -0.613514 1.45168 0
M  V30 3369 C 311.348 -1.72456 1.53387 0
M  V30 3370 C 312.318 -1.6169 0.380191 0
M  V30 3371 O 313.503 -1.81356 0.592836 0
M  V30 3372 C 310.643 -3.10753 1.50088 0
M  V30 3373 C 309.756 -3.32368 2.75963 0
M  V30 3374 C 308.891 -4.60737 2.64376 0
M  V30 3375 C 307.93 -4.7559 3.85332 0
M  V30 3376 N 307.067 -5.95253 3.72315 0
M  V30 3377 H 311.907 -1.64768 2.48305 0
M  V30 3378 H 309.444 -0.803503 1.23216 0
M  V30 3379 H 311.402 -3.90758 1.46164 0
M  V30 3380 H 310.032 -3.17413 0.587243 0
M  V30 3381 H 309.084 -2.4618 2.89999 0
M  V30 3382 H 310.396 -3.39218 3.65695 0
M  V30 3383 H 309.55 -5.48928 2.58385 0
M  V30 3384 H 308.289 -4.56275 1.72233 0
M  V30 3385 H 307.294 -3.85824 3.91688 0
M  V30 3386 H 308.519 -4.81854 4.78533 0
M  V30 3387 H 306.465 -5.91847 2.82937 0
M  V30 3388 H 306.382 -6.03236 4.55677 0
M  V30 3389 H 307.65 -6.85958 3.70246 0
M  V30 3390 N 311.879 -1.3236 -0.855495 0
M  V30 3391 C 313.125 -1.23054 -1.612 0
M  V30 3392 C 313.458 0.207404 -1.93089 0
M  V30 3393 O 312.733 1.14432 -1.57275 0
M  V30 3394 C 313.016 -2.08937 -2.93287 0
M  V30 3395 C 312.869 -3.61105 -2.68185 0
M  V30 3396 C 314.188 -1.94986 -3.94549 0
M  V30 3397 H 311.307 -0.448364 -0.584926 0
M  V30 3398 H 313.949 -1.62297 -0.987917 0
M  V30 3399 H 312.099 -1.75599 -3.46551 0
M  V30 3400 H 313.771 -4.04652 -2.21483 0
M  V30 3401 H 312.014 -3.83813 -2.02164 0
M  V30 3402 H 312.685 -4.16522 -3.62234 0
M  V30 3403 H 315.161 -2.24189 -3.5054 0
M  V30 3404 H 314.037 -2.57356 -4.84829 0
M  V30 3405 H 314.298 -0.917263 -4.3248 0
M  V30 3406 N 313.357 1.07166 -1.15556 0
M  V30 3407 C 314.605 1.79443 -0.929764 0
M  V30 3408 C 314.926 1.87246 0.544414 0
M  V30 3409 O 314.196 1.37473 1.39564 0
M  V30 3410 H 312.776 0.664625 -0.341003 0
M  V30 3411 H 315.438 1.29499 -1.45657 0
M  V30 3412 H 314.534 2.81832 -1.34079 0
M  V30 3413 N 314.835 0.952656 1.25548 0
M  V30 3414 C 316.112 0.523818 1.88456 0
M  V30 3415 C 316.492 -0.998871 1.85973 0
M  V30 3416 O 315.84 -1.86381 1.3219 0
M  V30 3417 C 316.05 1.0982 3.31271 0
M  V30 3418 C 317.398 1.17385 4.08051 0
M  V30 3419 O 318.422 1.04961 3.40384 0
M  V30 3420 O 317.281 1.36852 5.29088 0
M  V30 3421 H 314.375 0.172485 0.808813 0
M  V30 3422 H 316.921 1.04596 1.33633 0
M  V30 3423 H 315.693 2.1415 3.27499 0
M  V30 3424 H 315.316 0.559191 3.93648 0
M  V30 3425 N 316.313 -1.40141 0.720998 0
M  V30 3426 C 317.56 -2.00787 0.262842 0
M  V30 3427 C 317.888 -1.5718 -1.14563 0
M  V30 3428 O 317.143 -0.785391 -1.79249 0
M  V30 3429 C 317.442 -3.56165 0.296892 0
M  V30 3430 C 317.108 -4.19373 1.65641 0
M  V30 3431 C 315.77 -4.36352 2.02855 0
M  V30 3432 C 318.122 -4.54578 2.54968 0
M  V30 3433 C 315.45 -4.8582 3.28931 0
M  V30 3434 C 317.802 -5.05447 3.80402 0
M  V30 3435 C 316.466 -5.20635 4.17726 0
M  V30 3436 H 315.736 -0.734731 0.0961807 0
M  V30 3437 H 318.383 -1.67673 0.925093 0
M  V30 3438 H 316.688 -3.8922 -0.448932 0
M  V30 3439 H 318.385 -4.00929 -0.0755208 0
M  V30 3440 H 314.975 -4.06549 1.35704 0
M  V30 3441 H 319.159 -4.41091 2.27491 0
M  V30 3442 H 314.415 -4.95764 3.57811 0
M  V30 3443 H 318.589 -5.31663 4.49786 0
M  V30 3444 H 316.216 -5.58728 5.15487 0
M  V30 3445 N 317.792 -0.46758 -1.50504 0
M  V30 3446 C 319.04 0.0884469 -2.01906 0
M  V30 3447 C 319.361 1.40532 -1.35188 0
M  V30 3448 O 318.631 1.89515 -0.496079 0
M  V30 3449 H 317.211 0.0356765 -0.746148 0
M  V30 3450 H 319.873 -0.6172 -1.84869 0
M  V30 3451 H 318.969 0.2425 -3.11156 0
M  V30 3452 N 319.27 1.56325 -0.20005 0
M  V30 3453 C 320.517 1.97719 0.437411 0
M  V30 3454 C 320.845 1.08709 1.61284 0
M  V30 3455 O 320.1 0.127261 1.95286 0
M  V30 3456 C 320.399 3.4495 0.935103 0
M  V30 3457 C 320.065 4.5072 -0.12749 0
M  V30 3458 C 318.727 4.79368 -0.419451 0
M  V30 3459 C 321.079 5.14268 -0.847231 0
M  V30 3460 C 318.407 5.68854 -1.43604 0
M  V30 3461 C 320.759 6.04852 -1.85301 0
M  V30 3462 C 319.423 6.31855 -2.15211 0
M  V30 3463 H 318.693 0.723507 0.16006 0
M  V30 3464 H 321.34 1.89166 -0.298056 0
M  V30 3465 H 319.645 3.50599 1.74894 0
M  V30 3466 H 321.342 3.74337 1.43781 0
M  V30 3467 H 317.932 4.28458 0.11023 0
M  V30 3468 H 322.116 4.92222 -0.634901 0
M  V30 3469 H 317.372 5.88047 -1.67364 0
M  V30 3470 H 321.546 6.53152 -2.41591 0
M  V30 3471 H 319.173 7.00994 -2.94129 0
M  V30 3472 N 320.748 -0.0735177 1.57428 0
M  V30 3473 C 321.973 -0.789787 1.91774 0
M  V30 3474 C 322.398 -1.70413 0.796306 0
M  V30 3475 O 321.756 -1.79555 -0.250961 0
M  V30 3476 C 321.804 -1.5609 3.25067 0
M  V30 3477 O 320.908 -2.67144 3.14178 0
M  V30 3478 H 320.249 -0.215582 0.628029 0
M  V30 3479 H 322.779 -0.0422781 2.04556 0
M  V30 3480 H 322.789 -1.94052 3.58898 0
M  V30 3481 H 321.464 -0.890015 4.06265 0
M  V30 3482 H 320.041 -2.32052 2.91901 0
M  V30 3483 N 322.226 -1.5378 -0.344866 0
M  V30 3484 C 323.454 -1.74899 -1.10534 0
M  V30 3485 C 323.869 -0.487534 -1.82397 0
M  V30 3486 O 323.226 0.540741 -1.74305 0
M  V30 3487 C 323.277 -2.92822 -2.11984 0
M  V30 3488 O 322.998 -4.14089 -1.43044 0
M  V30 3489 C 324.499 -3.25982 -3.00417 0
M  V30 3490 H 321.719 -0.584426 -0.329678 0
M  V30 3491 H 324.263 -2.006 -0.397474 0
M  V30 3492 H 322.418 -2.69457 -2.78338 0
M  V30 3493 H 322.832 -4.80272 -2.10805 0
M  V30 3494 H 324.306 -4.11848 -3.67539 0
M  V30 3495 H 324.783 -2.42228 -3.66363 0
M  V30 3496 H 325.389 -3.51349 -2.39654 0
M  V30 3497 N 323.704 0.605807 -1.45491 0
M  V30 3498 C 324.95 1.36679 -1.49823 0
M  V30 3499 C 325.283 1.93693 -0.140175 0
M  V30 3500 O 324.558 1.75158 0.845581 0
M  V30 3501 C 324.841 2.51337 -2.57879 0
M  V30 3502 C 324.694 1.99508 -4.03134 0
M  V30 3503 C 326.013 3.53463 -2.62205 0
M  V30 3504 H 323.132 0.495617 -0.545466 0
M  V30 3505 H 325.774 0.682732 -1.7731 0
M  V30 3506 H 323.924 3.09691 -2.34571 0
M  V30 3507 H 325.596 1.45789 -4.37656 0
M  V30 3508 H 323.839 1.30496 -4.13707 0
M  V30 3509 H 324.51 2.82169 -4.74431 0
M  V30 3510 H 326.986 3.04953 -2.83095 0
M  V30 3511 H 325.862 4.31178 -3.39672 0
M  V30 3512 H 326.123 4.09197 -1.67363 0
M  V30 3513 N 325.182 1.32811 0.848464 0
M  V30 3514 C 326.407 1.26882 1.6406 0
M  V30 3515 C 326.832 -0.15913 1.87426 0
M  V30 3516 O 326.19 -1.11258 1.43148 0
M  V30 3517 C 326.238 2.03997 2.97351 0
M  V30 3518 O 325.342 1.39201 3.88197 0
M  V30 3519 H 324.683 0.436982 0.499943 0
M  V30 3520 H 327.213 1.75224 1.0563 0
M  V30 3521 H 327.223 2.14403 3.47124 0
M  V30 3522 H 325.898 3.0783 2.79666 0
M  V30 3523 H 324.475 1.37381 3.46671 0
M  V30 3524 N 326.66 -1.06551 1.16123 0
M  V30 3525 C 327.607 -2.13961 0.865414 0
M  V30 3526 C 328.577 -1.65066 -0.185055 0
M  V30 3527 O 329.762 -1.90732 -0.05083 0
M  V30 3528 C 326.902 -3.43113 0.369776 0
M  V30 3529 C 326.015 -4.05756 1.48276 0
M  V30 3530 C 325.15 -5.22773 0.942414 0
M  V30 3531 C 324.189 -5.77395 2.03179 0
M  V30 3532 N 323.326 -6.85731 1.50721 0
M  V30 3533 H 328.166 -2.38605 1.78527 0
M  V30 3534 H 325.703 -1.17072 0.890646 0
M  V30 3535 H 327.661 -4.17151 0.0640643 0
M  V30 3536 H 326.291 -3.18695 -0.513143 0
M  V30 3537 H 325.343 -3.29292 1.9045 0
M  V30 3538 H 326.655 -4.42351 2.30493 0
M  V30 3539 H 325.809 -6.03827 0.589729 0
M  V30 3540 H 324.548 -4.87618 0.0895191 0
M  V30 3541 H 323.553 -4.94981 2.3932 0
M  V30 3542 H 324.778 -6.14603 2.8886 0
M  V30 3543 H 322.724 -6.52499 0.676811 0
M  V30 3544 H 322.641 -7.21254 2.26557 0
M  V30 3545 H 323.909 -7.7047 1.18303 0
M  V30 3546 N 328.138 -0.959301 -1.25041 0
M  V30 3547 C 329.085 -0.482057 -2.2571 0
M  V30 3548 C 330.055 0.467939 -1.59372 0
M  V30 3549 O 331.24 0.380159 -1.86974 0
M  V30 3550 C 328.38 0.229623 -3.44335 0
M  V30 3551 C 327.493 -0.758156 -4.25295 0
M  V30 3552 C 326.628 -0.0234403 -5.31195 0
M  V30 3553 C 325.667 -1.00184 -6.03846 0
M  V30 3554 N 324.804 -0.29769 -7.01469 0
M  V30 3555 H 329.644 -1.34538 -2.65901 0
M  V30 3556 H 327.181 -0.674592 -1.3072 0
M  V30 3557 H 329.139 0.658856 -4.11965 0
M  V30 3558 H 327.769 1.05696 -3.05005 0
M  V30 3559 H 326.821 -1.30586 -3.57284 0
M  V30 3560 H 328.133 -1.50458 -4.75567 0
M  V30 3561 H 327.287 0.464201 -6.04922 0
M  V30 3562 H 326.026 0.755741 -4.81809 0
M  V30 3563 H 325.031 -1.50044 -5.2893 0
M  V30 3564 H 326.256 -1.78133 -6.55321 0
M  V30 3565 H 324.202 0.462668 -6.54366 0
M  V30 3566 H 324.119 -0.983128 -7.4958 0
M  V30 3567 H 325.387 0.16826 -7.79318 0
M  V30 3568 N 329.616 1.39756 -0.72842 0
M  V30 3569 C 330.864 2.00248 -0.272946 0
M  V30 3570 C 331.185 1.58077 1.14178 0
M  V30 3571 O 330.455 0.826014 1.77634 0
M  V30 3572 H 329.035 0.740554 -0.0979247 0
M  V30 3573 H 331.697 1.70903 -0.936912 0
M  V30 3574 H 330.793 3.10495 -0.316142 0
M  V30 3575 N 331.094 0.475555 1.50254 0
M  V30 3576 C 332.004 -0.321501 2.32387 0
M  V30 3577 C 333.02 -0.991755 1.42969 0
M  V30 3578 O 334.196 -0.978747 1.76018 0
M  V30 3579 C 331.261 -1.38667 3.17762 0
M  V30 3580 C 330.322 -0.732538 4.23004 0
M  V30 3581 C 329.555 -1.74695 5.04299 0
M  V30 3582 O 329.778 -2.97399 4.86734 0
M  V30 3583 O 328.712 -1.31631 5.8733 0
M  V30 3584 H 332.538 0.350071 3.01676 0
M  V30 3585 H 330.123 0.237321 1.47503 0
M  V30 3586 H 332.005 -2.00354 3.70724 0
M  V30 3587 H 330.68 -2.04163 2.51196 0
M  V30 3588 H 329.587 -0.0765902 3.74022 0
M  V30 3589 H 330.92 -0.120452 4.92053 0
M  V30 3590 N 332.573 -1.56217 0.208337 0
M  V30 3591 C 333.506 -2.15633 -0.746842 0
M  V30 3592 C 334.484 -1.09685 -1.20034 0
M  V30 3593 O 335.668 -1.3787 -1.28547 0
M  V30 3594 C 332.795 -2.72594 -2.01023 0
M  V30 3595 C 331.841 -3.91251 -1.69779 0
M  V30 3596 S 332.674 -5.28962 -0.834209 0
M  V30 3597 C 333.83 -5.89353 -2.10745 0
M  V30 3598 H 334.063 -2.96315 -0.241789 0
M  V30 3599 H 331.596 -1.54398 -0.00682183 0
M  V30 3600 H 333.554 -3.06053 -2.73572 0
M  V30 3601 H 332.215 -1.91929 -2.48641 0
M  V30 3602 H 331.408 -4.29562 -2.63614 0
M  V30 3603 H 331.01 -3.58869 -1.05303 0
M  V30 3604 H 333.302 -6.04522 -3.05875 0
M  V30 3605 H 334.245 -6.85661 -1.76845 0
M  V30 3606 H 334.653 -5.1807 -2.24196 0
M  V30 3607 N 334.051 0.0651679 -1.57465 0
M  V30 3608 C 334.981 1.07693 -2.07182 0
M  V30 3609 C 335.962 1.39962 -0.966673 0
M  V30 3610 O 337.147 1.49475 -1.2398 0
M  V30 3611 C 334.277 2.3885 -2.52127 0
M  V30 3612 C 333.231 2.20917 -3.66579 0
M  V30 3613 C 332.557 3.57515 -3.97601 0
M  V30 3614 C 333.857 1.62493 -4.9638 0
M  V30 3615 H 335.551 0.663199 -2.91962 0
M  V30 3616 H 333.097 0.317569 -1.40455 0
M  V30 3617 H 335.05 3.09928 -2.85522 0
M  V30 3618 H 333.774 2.82215 -1.64384 0
M  V30 3619 H 332.433 1.52279 -3.33477 0
M  V30 3620 H 332.081 3.98463 -3.06979 0
M  V30 3621 H 331.781 3.46353 -4.74672 0
M  V30 3622 H 333.305 4.30013 -4.33499 0
M  V30 3623 H 334.719 2.23445 -5.27963 0
M  V30 3624 H 333.116 1.62009 -5.77818 0
M  V30 3625 H 334.186 0.587041 -4.81333 0
M  V30 3626 N 335.529 1.53961 0.336706 0
M  V30 3627 C 336.477 1.83136 1.43401 0
M  V30 3628 C 337.471 0.702313 1.54156 0
M  V30 3629 O 338.677 0.885765 1.56698 0
M  V30 3630 H 335.052 0.580309 0.478273 0
M  V30 3631 H 337.023 2.74925 1.16012 0
M  V30 3632 C 335.772 2.06385 2.79822 0
M  V30 3633 H 335.095 2.92718 2.72316 0
M  V30 3634 H 336.535 2.30761 3.55704 0
M  V30 3635 C 334.994 0.851414 3.25964 0
M  V30 3636 O 335.524 0.0541904 4.01663 0
M  V30 3637 N 333.73 0.66672 2.82848 0
M  V30 3638 H 333.277 1.31665 2.21409 0
M  V30 3639 H 333.235 -0.143032 3.14074 0
M  V30 3640 N 337.007 -0.598083 1.45811 0
M  V30 3641 C 338.235 -1.38322 1.53866 0
M  V30 3642 C 338.65 -1.87992 0.174479 0
M  V30 3643 O 338.007 -1.62756 -0.825627 0
M  V30 3644 C 338.058 -2.58125 2.53089 0
M  V30 3645 O 337.779 -2.10516 3.84206 0
M  V30 3646 C 339.28 -3.50869 2.70935 0
M  V30 3647 H 336.5 -0.423093 0.520801 0
M  V30 3648 H 339.044 -0.728527 1.91083 0
M  V30 3649 H 337.199 -3.19615 2.18917 0
M  V30 3650 H 337.613 -2.88425 4.38077 0
M  V30 3651 H 339.087 -4.31451 3.44317 0
M  V30 3652 H 339.564 -4.01822 1.77301 0
M  V30 3653 H 340.17 -2.95225 3.06141 0
M  V30 3654 N 338.485 -1.33259 -0.841409 0
M  V30 3655 C 339.732 -1.24572 -1.5965 0
M  V30 3656 C 340.06 0.189137 -1.93578 0
M  V30 3657 O 339.315 1.14566 -1.5866 0
M  V30 3658 C 339.614 -2.06381 -2.9179 0
M  V30 3659 C 339.28 -3.556 -2.77235 0
M  V30 3660 C 337.942 -3.96282 -2.72973 0
M  V30 3661 C 340.294 -4.50433 -2.62221 0
M  V30 3662 C 337.622 -5.30017 -2.51592 0
M  V30 3663 C 339.974 -5.84327 -2.42374 0
M  V30 3664 C 338.638 -6.24194 -2.36512 0
M  V30 3665 H 337.908 -0.455842 -0.5842 0
M  V30 3666 H 340.555 -1.6482 -0.975016 0
M  V30 3667 H 338.86 -1.58903 -3.5813 0
M  V30 3668 H 340.557 -1.97019 -3.49263 0
M  V30 3669 H 337.147 -3.23298 -2.81384 0
M  V30 3670 H 341.331 -4.19914 -2.64549 0
M  V30 3671 H 336.587 -5.59947 -2.45499 0
M  V30 3672 H 340.761 -6.57414 -2.29739 0
M  V30 3673 H 338.388 -7.27759 -2.19706 0
M  V30 3674 N 339.963 1.05934 -1.16686 0
M  V30 3675 C 341.203 1.80382 -0.961345 0
M  V30 3676 C 341.567 1.85331 0.501643 0
M  V30 3677 O 342.768 2.55795 0.825986 0
M  V30 3678 C 341.039 3.20777 -1.57596 0
M  V30 3679 S 342.598 4.11795 -1.51559 0
M  V30 3680 H 339.416 0.621332 -0.345641 0
M  V30 3681 H 342.018 1.27157 -1.48497 0
M  V30 3682 H 340.722 3.14773 -2.63337 0
M  V30 3683 H 340.253 3.79078 -1.05182 0
M  V30 3684 H 342.268 4.93485 -0.518374 0
M  V30 3685 N 341.441 0.965919 1.2453 0
M  V30 3686 C 342.689 0.625593 1.92174 0
M  V30 3687 C 343.01 -0.841652 1.75901 0
M  V30 3688 O 342.28 -1.60061 1.12948 0
M  V30 3689 H 340.86 0.228388 0.71123 0
M  V30 3690 H 343.522 1.2266 1.51461 0
M  V30 3691 H 342.618 0.864653 2.99884 0
M  V30 3692 N 342.919 -1.39368 0.735821 0
M  V30 3693 C 344.144 -2.05319 0.293052 0
M  V30 3694 C 344.569 -1.55115 -1.064 0
M  V30 3695 O 343.927 -0.695261 -1.67439 0
M  V30 3696 C 343.975 -3.59305 0.305323 0
M  V30 3697 O 343.079 -4.06299 -0.706761 0
M  V30 3698 H 342.42 -0.650529 0.13307 0
M  V30 3699 H 344.95 -1.78386 1.00197 0
M  V30 3700 H 344.96 -4.07724 0.149997 0
M  V30 3701 H 343.635 -3.95207 1.29553 0
M  V30 3702 H 342.212 -3.69292 -0.517504 0
M  V30 3703 N 344.397 -0.483516 -1.5 0
M  V30 3704 C 345.808 -0.0314176 -1.86674 0
M  V30 3705 C 346.159 1.37728 -1.39733 0
M  V30 3706 O 345.284 2.02327 -0.767635 0
M  V30 3707 C 345.879 -0.0502376 -3.38763 0
M  V30 3708 C 344.438 0.346442 -3.74802 0
M  V30 3709 C 343.585 -0.430366 -2.7394 0
M  V30 3710 H 346.536 -0.697182 -1.42566 0
M  V30 3711 H 346.557 0.749116 -3.73053 0
M  V30 3712 H 346.069 -1.07563 -3.72897 0
M  V30 3713 H 344.17 1.37572 -3.46273 0
M  V30 3714 H 344.283 0.0391486 -4.79084 0
M  V30 3715 H 342.647 0.117557 -2.54429 0
M  V30 3716 H 343.43 -1.4555 -3.10918 0
M  V30 3717 N 345.875 1.56104 -0.216619 0
M  V30 3718 C 347.286 1.844 0.292128 0
M  V30 3719 C 347.637 1.13788 1.59833 0
M  V30 3720 O 346.762 0.405888 2.12559 0
M  V30 3721 C 347.357 3.3452 0.53681 0
M  V30 3722 C 345.916 3.63151 0.989876 0
M  V30 3723 C 345.063 2.77255 0.0502302 0
M  V30 3724 H 348.014 1.52481 -0.439926 0
M  V30 3725 H 348.035 3.54459 1.38345 0
M  V30 3726 H 347.547 3.85885 -0.414031 0
M  V30 3727 H 345.648 3.17238 1.95425 0
M  V30 3728 H 345.761 4.71177 0.867698 0
M  V30 3729 H 344.125 2.48555 0.556117 0
M  V30 3730 H 344.908 3.31416 -0.89544 0
M  V30 3731 N 347.353 -0.0568162 1.57498 0
M  V30 3732 C 348.583 -0.764515 1.91934 0
M  V30 3733 C 348.991 -1.70877 0.81227 0
M  V30 3734 O 348.334 -1.82351 -0.222213 0
M  V30 3735 C 348.396 -1.5994 3.21962 0
M  V30 3736 C 348.06 -0.822925 4.4953 0
M  V30 3737 C 349.057 -0.135464 5.19723 0
M  V30 3738 C 346.742 -0.785666 4.96117 0
M  V30 3739 C 348.736 0.578861 6.34766 0
M  V30 3740 C 346.423 -0.0675784 6.11063 0
M  V30 3741 C 347.421 0.613471 6.80239 0
M  V30 3742 O 347.109 1.31996 7.92989 0
M  V30 3743 H 346.841 -0.221647 0.63863 0
M  V30 3744 H 349.395 -0.0268218 2.05382 0
M  V30 3745 H 347.625 -2.38026 3.04763 0
M  V30 3746 H 349.314 -2.18715 3.41934 0
M  V30 3747 H 350.08 -0.155458 4.84751 0
M  V30 3748 H 345.959 -1.30524 4.42136 0
M  V30 3749 H 349.503 1.111 6.88696 0
M  V30 3750 H 345.4 -0.0455636 6.45484 0
M  V30 3751 H 346.168 1.23077 8.09194 0
M  V30 3752 N 348.832 -1.54138 -0.328536 0
M  V30 3753 C 349.795 -1.82462 -1.38709 0
M  V30 3754 C 350.795 -0.696229 -1.44946 0
M  V30 3755 O 351.985 -0.964535 -1.4506 0
M  V30 3756 C 349.117 -1.98018 -2.77492 0
M  V30 3757 H 350.31 -2.77037 -1.14851 0
M  V30 3758 H 347.863 -1.45779 -0.563751 0
M  V30 3759 H 348.598 -1.05637 -3.06613 0
M  V30 3760 H 348.383 -2.80124 -2.74359 0
M  V30 3761 H 349.873 -2.21396 -3.54081 0
M  V30 3762 N 350.31 0.590341 -1.46126 0
M  V30 3763 C 351.273 1.68194 -1.55703 0
M  V30 3764 C 352.273 1.54808 -0.434868 0
M  V30 3765 O 353.463 1.59564 -0.698928 0
M  V30 3766 C 350.595 3.07575 -1.47005 0
M  V30 3767 H 351.788 1.61064 -2.52979 0
M  V30 3768 H 349.341 0.807541 -1.33823 0
M  V30 3769 H 350.076 3.20268 -0.509785 0
M  V30 3770 H 349.861 3.187 -2.28414 0
M  V30 3771 H 351.351 3.87055 -1.56776 0
M  V30 3772 N 351.788 1.33704 0.83433 0
M  V30 3773 C 353.199 1.22813 1.4062 0
M  V30 3774 C 353.55 -0.151107 1.95617 0
M  V30 3775 O 352.675 -1.05092 1.89168 0
M  V30 3776 C 353.27 2.22355 2.55624 0
M  V30 3777 C 351.829 2.1529 3.08751 0
M  V30 3778 C 350.976 2.09589 1.8157 0
M  V30 3779 H 353.927 1.45236 0.639702 0
M  V30 3780 H 353.948 1.83391 3.33389 0
M  V30 3781 H 353.46 3.22728 2.15566 0
M  V30 3782 H 351.561 1.18235 3.53343 0
M  V30 3783 H 351.674 3.06038 3.68616 0
M  V30 3784 H 350.038 1.55134 2.02004 0
M  V30 3785 H 350.821 3.11777 1.43701 0
M  V30 3786 N 353.266 -1.05314 1.17247 0
M  V30 3787 C 354.176 -2.16538 0.90268 0
M  V30 3788 C 355.192 -1.73523 -0.128707 0
M  V30 3789 O 356.368 -2.01337 0.0502701 0
M  V30 3790 C 353.433 -3.44167 0.418356 0
M  V30 3791 C 352.494 -4.01635 1.51618 0
M  V30 3792 C 351.727 -5.23171 1.05487 0
M  V30 3793 O 351.95 -5.70327 -0.0914715 0
M  V30 3794 O 350.884 -5.72848 1.8474 0
M  V30 3795 H 354.71 -2.42145 1.83302 0
M  V30 3796 H 352.295 -1.15037 0.953246 0
M  V30 3797 H 354.177 -4.21112 0.155726 0
M  V30 3798 H 352.852 -3.20063 -0.48385 0
M  V30 3799 H 351.759 -3.26135 1.83268 0
M  V30 3800 H 353.092 -4.30053 2.39405 0
M  V30 3801 N 354.744 -0.972509 -1.24016 0
M  V30 3802 C 355.674 -0.525548 -2.27509 0
M  V30 3803 C 356.655 0.437262 -1.64384 0
M  V30 3804 O 357.84 0.332343 -1.91335 0
M  V30 3805 C 354.97 0.180448 -3.46831 0
M  V30 3806 C 353.924 -0.698859 -4.22256 0
M  V30 3807 C 353.25 0.138903 -5.3452 0
M  V30 3808 C 354.55 -1.98582 -4.83076 0
M  V30 3809 H 356.244 -1.39058 -2.65148 0
M  V30 3810 H 353.79 -0.67009 -1.27459 0
M  V30 3811 H 355.743 0.504387 -4.18371 0
M  V30 3812 H 354.467 1.07987 -3.08231 0
M  V30 3813 H 353.126 -1.00614 -3.52523 0
M  V30 3814 H 352.774 1.03862 -4.9216 0
M  V30 3815 H 352.474 -0.446259 -5.85903 0
M  V30 3816 H 353.998 0.457404 -6.08884 0
M  V30 3817 H 355.412 -1.72715 -5.46665 0
M  V30 3818 H 353.809 -2.5181 -5.44713 0
M  V30 3819 H 354.879 -2.67769 -4.04262 0
M  V30 3820 N 356.222 1.38976 -0.743202 0
M  V30 3821 C 357.469 2.00343 -0.294752 0
M  V30 3822 C 357.797 1.58983 1.12047 0
M  V30 3823 O 357.052 0.813809 1.77977 0
M  V30 3824 C 357.351 3.55647 -0.353517 0
M  V30 3825 C 357.017 4.16685 -1.72292 0
M  V30 3826 C 355.679 4.3307 -2.09771 0
M  V30 3827 C 358.031 4.50464 -2.62168 0
M  V30 3828 C 355.359 4.80526 -3.36618 0
M  V30 3829 C 357.711 4.99332 -3.88395 0
M  V30 3830 C 356.375 5.13924 -4.25956 0
M  V30 3831 H 355.645 0.733108 -0.107857 0
M  V30 3832 H 358.292 1.6618 -0.951651 0
M  V30 3833 H 356.597 3.89884 0.386954 0
M  V30 3834 H 358.294 4.00998 0.0117269 0
M  V30 3835 H 354.884 4.04339 -1.42155 0
M  V30 3836 H 359.068 4.37416 -2.3448 0
M  V30 3837 H 354.324 4.90008 -3.65653 0
M  V30 3838 H 358.498 5.2444 -4.58187 0
M  V30 3839 H 356.125 5.50457 -5.2431 0
M  V30 3840 N 357.7 0.491464 1.49741 0
M  V30 3841 C 359.116 0.146835 1.58923 0
M  V30 3842 C 359.316 -1.34804 1.49767 0
M  V30 3843 O 358.372 -2.12317 1.36667 0
M  V30 3844 C 359.685 0.715157 2.92072 0
M  V30 3845 C 361.233 0.680407 3.05515 0
M  V30 3846 C 361.708 1.22663 4.41269 0
M  V30 3847 N 363.199 1.18691 4.47735 0
M  V30 3848 C 363.934 1.57984 5.51207 0
M  V30 3849 N 363.43 2.04824 6.6183 0
M  V30 3850 N 365.223 1.49459 5.41866 0
M  V30 3851 H 357.374 1.46347 1.53936 0
M  V30 3852 H 359.637 0.606453 0.728642 0
M  V30 3853 H 359.343 1.76317 3.04311 0
M  V30 3854 H 359.217 0.17018 3.76816 0
M  V30 3855 H 361.604 -0.358743 2.92911 0
M  V30 3856 H 361.685 1.26242 2.22478 0
M  V30 3857 H 361.329 2.26451 4.54623 0
M  V30 3858 H 361.259 0.620637 5.2293 0
M  V30 3859 H 363.75 0.843605 3.68364 0
M  V30 3860 H 364.063 2.32901 7.3687 0
M  V30 3861 H 362.408 2.08791 6.62896 0
M  V30 3862 H 365.599 1.12692 4.54333 0
M  V30 3863 H 365.772 1.80406 6.22381 0
M  V30 3864 N 359.178 -1.55987 0.224894 0
M  V30 3865 C 360.455 -1.90232 -0.455083 0
M  V30 3866 C 360.835 -1.14269 -1.77499 0
M  V30 3867 O 360.183 -0.253079 -2.27094 0
M  V30 3868 C 360.393 -3.42993 -0.644758 0
M  V30 3869 C 361.741 -4.13821 -0.950669 0
M  V30 3870 O 362.765 -3.4861 -0.731423 0
M  V30 3871 O 361.624 -5.29128 -1.36695 0
M  V30 3872 H 358.718 -0.79108 -0.241084 0
M  V30 3873 H 361.264 -1.67581 0.267327 0
M  V30 3874 H 360.036 -3.90252 0.28613 0
M  V30 3875 H 359.659 -3.71434 -1.41853 0
M  V30 3876 N 360.656 0.0484629 -1.57525 0
M  V30 3877 C 361.566 1.07241 -2.08654 0
M  V30 3878 C 362.582 1.409 -1.02095 0
M  V30 3879 O 363.758 1.50609 -1.33712 0
M  V30 3880 C 360.823 2.36008 -2.5397 0
M  V30 3881 C 359.884 2.09108 -3.7493 0
M  V30 3882 C 359.117 3.31736 -4.18075 0
M  V30 3883 O 359.34 4.41714 -3.60895 0
M  V30 3884 O 358.274 3.18576 -5.10679 0
M  V30 3885 H 362.1 0.667965 -2.96263 0
M  V30 3886 H 359.685 0.26417 -1.47046 0
M  V30 3887 H 361.567 3.11747 -2.83535 0
M  V30 3888 H 360.242 2.75786 -1.69481 0
M  V30 3889 H 359.149 1.31 -3.50414 0
M  V30 3890 H 360.482 1.74198 -4.60343 0
M  V30 3891 N 362.134 1.5431 0.320358 0
M  V30 3892 C 363.084 1.803 1.39556 0
M  V30 3893 C 364.068 0.659166 1.46778 0
M  V30 3894 O 365.26 0.91926 1.51257 0
M  V30 3895 C 362.389 2.03665 2.76361 0
M  V30 3896 C 361.475 3.24178 2.73439 0
M  V30 3897 N 361.866 4.4516 2.40137 0
M  V30 3898 C 360.164 3.25816 3.04565 0
M  V30 3899 C 360.865 5.27109 2.4603 0
M  V30 3900 N 359.841 4.64368 2.82601 0
M  V30 3901 H 363.643 2.71416 1.12742 0
M  V30 3902 H 361.157 1.53548 0.528856 0
M  V30 3903 H 363.154 2.20425 3.53862 0
M  V30 3904 H 361.814 1.13805 3.04103 0
M  V30 3905 H 362.825 4.72104 2.12927 0
M  V30 3906 H 359.502 2.46001 3.37328 0
M  V30 3907 H 360.892 6.33728 2.23246 0
M  V30 3908 N 363.613 -0.582584 1.46437 0
M  V30 3909 C 364.843 -1.36484 1.55099 0
M  V30 3910 C 365.251 -1.88233 0.191056 0
M  V30 3911 O 364.594 -1.6429 -0.821858 0
M  V30 3912 C 364.656 -2.588 2.49525 0
M  V30 3913 C 364.32 -2.28517 3.95764 0
M  V30 3914 C 365.317 -1.87346 4.84972 0
M  V30 3915 C 363.002 -2.40658 4.40896 0
M  V30 3916 C 364.996 -1.5871 6.17325 0
M  V30 3917 C 362.683 -2.11635 5.73284 0
M  V30 3918 C 363.681 -1.70725 6.61318 0
M  V30 3919 O 363.369 -1.42057 7.91249 0
M  V30 3920 H 363.101 -0.423297 0.527063 0
M  V30 3921 H 365.655 -0.715188 1.92547 0
M  V30 3922 H 363.885 -3.26571 2.07095 0
M  V30 3923 H 365.574 -3.20868 2.48593 0
M  V30 3924 H 366.34 -1.77481 4.5136 0
M  V30 3925 H 362.219 -2.71463 3.72598 0
M  V30 3926 H 365.763 -1.26704 6.85997 0
M  V30 3927 H 361.66 -2.21124 6.06444 0
M  V30 3928 H 362.428 -1.55901 8.03515 0
M  V30 3929 N 365.091 -1.34144 -0.827227 0
M  V30 3930 C 366.34 -1.25602 -1.5782 0
M  V30 3931 C 366.653 0.173445 -1.94829 0
M  V30 3932 O 367.859 0.380984 -2.68814 0
M  V30 3933 C 366.315 -2.20151 -2.84713 0
M  V30 3934 C 365.923 -3.68331 -2.55021 0
M  V30 3935 C 367.667 -2.20508 -3.62735 0
M  V30 3936 C 365.574 -4.54762 -3.78082 0
M  V30 3937 H 364.504 -0.466573 -0.592306 0
M  V30 3938 H 367.155 -1.59283 -0.911116 0
M  V30 3939 H 365.537 -1.79417 -3.53023 0
M  V30 3940 H 366.711 -4.17577 -1.94849 0
M  V30 3941 H 365.026 -3.7038 -1.90283 0
M  V30 3942 H 367.623 -2.82306 -4.54101 0
M  V30 3943 H 367.966 -1.20322 -3.98533 0
M  V30 3944 H 368.499 -2.59664 -3.01362 0
M  V30 3945 H 365.238 -5.55867 -3.47407 0
M  V30 3946 H 364.758 -4.10254 -4.37552 0
M  V30 3947 H 366.437 -4.69153 -4.45538 0
M  V30 3948 N 366.569 1.04691 -1.17803 0
M  V30 3949 C 367.817 1.7743 -0.967617 0
M  V30 3950 C 368.138 1.88359 0.504574 0
M  V30 3951 O 367.408 1.40402 1.36617 0
M  V30 3952 H 365.988 0.657242 -0.355024 0
M  V30 3953 H 368.65 1.2638 -1.48371 0
M  V30 3954 H 367.746 2.78924 -1.40027 0
M  V30 3955 N 368.047 0.979072 1.23499 0
M  V30 3956 C 369.296 0.642751 1.91185 0
M  V30 3957 C 369.609 -0.827253 1.77245 0
M  V30 3958 O 370.815 -1.27458 2.39722 0
M  V30 3959 C 369.271 1.09901 3.42709 0
M  V30 3960 C 368.879 2.59327 3.65313 0
M  V30 3961 C 370.623 0.836371 4.16179 0
M  V30 3962 C 368.53 2.98627 5.10467 0
M  V30 3963 H 367.46 0.236698 0.715884 0
M  V30 3964 H 370.111 1.1868 1.39955 0
M  V30 3965 H 368.493 0.48319 3.93041 0
M  V30 3966 H 369.667 3.26136 3.25533 0
M  V30 3967 H 367.982 2.83323 3.05151 0
M  V30 3968 H 370.579 1.10586 5.23139 0
M  V30 3969 H 370.922 -0.227509 4.15678 0
M  V30 3970 H 371.455 1.41371 3.71832 0
M  V30 3971 H 368.194 4.04133 5.16098 0
M  V30 3972 H 367.714 2.3651 5.51201 0
M  V30 3973 H 369.393 2.89159 5.78788 0
M  V30 3974 N 369.525 -1.3858 0.750561 0
M  V30 3975 C 370.755 -2.04175 0.31564 0
M  V30 3976 C 371.163 -1.56726 -1.05989 0
M  V30 3977 O 370.506 -0.734225 -1.68389 0
M  V30 3978 C 370.568 -3.58585 0.256389 0
M  V30 3979 C 370.232 -4.29077 1.57296 0
M  V30 3980 C 371.229 -4.54656 2.52159 0
M  V30 3981 C 368.914 -4.67324 1.84156 0
M  V30 3982 C 370.908 -5.17512 3.72103 0
M  V30 3983 C 368.595 -5.29905 3.04374 0
M  V30 3984 C 369.593 -5.54933 3.98168 0
M  V30 3985 O 369.281 -6.16212 5.16273 0
M  V30 3986 H 369.013 -0.662742 0.133226 0
M  V30 3987 H 371.567 -1.78313 1.01948 0
M  V30 3988 H 369.797 -3.83406 -0.503677 0
M  V30 3989 H 371.486 -4.05628 -0.148612 0
M  V30 3990 H 372.252 -4.25539 2.32683 0
M  V30 3991 H 368.131 -4.47191 1.11988 0
M  V30 3992 H 371.675 -5.36963 4.45327 0
M  V30 3993 H 367.572 -5.58444 3.23745 0
M  V30 3994 H 368.34 -6.34701 5.16815 0
M  V30 3995 N 371.003 -0.499398 -1.49478 0
M  V30 3996 C 372.249 0.0457576 -2.02748 0
M  V30 3997 C 372.582 1.36793 -1.37846 0
M  V30 3998 O 371.857 1.87596 -0.513601 0
M  V30 3999 C 372.14 0.199986 -3.59544 0
M  V30 4000 C 371.993 -1.1452 -4.34977 0
M  V30 4001 C 373.312 0.94137 -4.29914 0
M  V30 4002 H 370.431 0.0151552 -0.736844 0
M  V30 4003 H 373.073 -0.650498 -1.78518 0
M  V30 4004 H 371.223 0.793007 -3.8032 0
M  V30 4005 H 372.895 -1.77697 -4.25701 0
M  V30 4006 H 371.138 -1.73488 -3.97598 0
M  V30 4007 H 371.809 -0.990607 -5.43039 0
M  V30 4008 H 374.285 0.43844 -4.13784 0
M  V30 4009 H 373.161 1.01812 -5.39375 0
M  V30 4010 H 373.422 1.98471 -3.95046 0
M  V30 4011 N 372.481 1.55866 -0.233164 0
M  V30 4012 C 373.758 1.90471 0.444988 0
M  V30 4013 C 374.138 1.15209 1.7689 0
M  V30 4014 O 373.486 0.265119 2.26957 0
M  V30 4015 C 373.696 3.4333 0.626559 0
M  V30 4016 C 375.044 4.14319 0.92871 0
M  V30 4017 O 376.068 3.48993 0.712926 0
M  V30 4018 O 374.927 5.29846 1.33887 0
M  V30 4019 H 372.021 0.792347 0.236885 0
M  V30 4020 H 374.567 1.67437 -0.276211 0
M  V30 4021 H 373.339 3.90095 -0.306822 0
M  V30 4022 H 372.962 3.72181 1.39881 0
M  V30 4023 N 373.959 -0.0401083 1.57549 0
M  V30 4024 C 375.208 -0.732108 1.87944 0
M  V30 4025 C 375.521 -1.77107 0.830206 0
M  V30 4026 O 376.727 -2.51488 1.02302 0
M  V30 4027 C 375.183 -1.35315 3.33494 0
M  V30 4028 C 374.791 -0.351105 4.46622 0
M  V30 4029 C 376.535 -2.02566 3.73051 0
M  V30 4030 C 374.442 -0.979859 5.83226 0
M  V30 4031 H 373.372 -0.277188 0.701201 0
M  V30 4032 H 376.023 0.0138501 1.83495 0
M  V30 4033 H 374.405 -2.14844 3.32653 0
M  V30 4034 H 375.579 0.416674 4.58912 0
M  V30 4035 H 373.894 0.218708 4.15825 0
M  V30 4036 H 376.491 -2.50441 4.72423 0
M  V30 4037 H 376.834 -2.83904 3.04474 0
M  V30 4038 H 377.367 -1.29827 3.76018 0
M  V30 4039 H 374.106 -0.206135 6.55176 0
M  V30 4040 H 373.626 -1.71774 5.74677 0
M  V30 4041 H 375.305 -1.49046 6.29599 0
M  V30 4042 N 375.437 -1.54477 -0.31217 0
M  V30 4043 C 376.683 -1.74417 -1.04644 0
M  V30 4044 C 377.038 -0.517641 -1.85306 0
M  V30 4045 O 376.331 0.489973 -1.85229 0
M  V30 4046 C 376.525 -2.967 -1.99258 0
M  V30 4047 C 376.354 -4.31128 -1.27901 0
M  V30 4048 C 375.124 -4.95087 -1.01079 0
M  V30 4049 C 377.322 -5.09662 -0.689119 0
M  V30 4050 N 375.304 -6.13322 -0.266323 0
M  V30 4051 C 376.675 -6.19952 -0.0768523 0
M  V30 4052 C 378.73 -4.94355 -0.593061 0
M  V30 4053 C 377.433 -7.16604 0.622165 0
M  V30 4054 C 379.459 -5.91328 0.0922792 0
M  V30 4055 C 378.821 -7.00978 0.693443 0
M  V30 4056 H 374.92 -0.69094 -0.366231 0
M  V30 4057 H 377.504 -1.91946 -0.326319 0
M  V30 4058 H 375.675 -2.80616 -2.68532 0
M  V30 4059 H 377.407 -3.05216 -2.65755 0
M  V30 4060 H 374.162 -4.55235 -1.30607 0
M  V30 4061 H 374.586 -6.76937 0.0920973 0
M  V30 4062 H 379.228 -4.09719 -1.04355 0
M  V30 4063 H 376.946 -8.0079 1.08445 0
M  V30 4064 H 380.532 -5.81562 0.166396 0
M  V30 4065 H 379.412 -7.74725 1.21533 0
M  V30 4066 N 376.915 0.57481 -1.46744 0
M  V30 4067 C 377.878 1.66533 -1.57478 0
M  V30 4068 C 378.878 1.54338 -0.451263 0
M  V30 4069 O 380.068 1.58814 -0.715813 0
M  V30 4070 C 377.2 3.05999 -1.50259 0
M  V30 4071 H 378.393 1.58372 -2.54673 0
M  V30 4072 H 375.946 0.793301 -1.34672 0
M  V30 4073 H 376.681 3.19709 -0.543725 0
M  V30 4074 H 376.466 3.16259 -2.31781 0
M  V30 4075 H 377.956 3.8537 -1.60872 0
M  V30 4076 N 378.394 1.34581 0.820102 0
M  V30 4077 C 379.324 1.29038 1.94606 0
M  V30 4078 C 380.305 0.1673 1.69275 0
M  V30 4079 O 381.49 0.360112 1.90832 0
M  V30 4080 C 378.62 1.04793 3.31113 0
M  V30 4081 C 377.574 2.13597 3.70891 0
M  V30 4082 C 376.9 1.74537 5.05412 0
M  V30 4083 C 378.2 3.55451 3.8269 0
M  V30 4084 H 379.894 2.23248 1.99501 0
M  V30 4085 H 377.44 1.0747 0.958449 0
M  V30 4086 H 379.393 0.995592 4.0947 0
M  V30 4087 H 378.117 0.0702565 3.26524 0
M  V30 4088 H 376.776 2.17905 2.9481 0
M  V30 4089 H 376.424 0.754226 4.97313 0
M  V30 4090 H 376.124 2.47361 5.32997 0
M  V30 4091 H 377.648 1.70803 5.86224 0
M  V30 4092 H 379.062 3.5354 4.51312 0
M  V30 4093 H 377.459 4.26922 4.21732 0
M  V30 4094 H 378.529 3.92587 2.84611 0
M  V30 4095 N 379.872 -1.04064 1.18357 0
M  V30 4096 C 381.12 -1.76915 0.977013 0
M  V30 4097 C 381.441 -1.88624 -0.494577 0
M  V30 4098 O 380.711 -1.41125 -1.3587 0
M  V30 4099 H 379.291 -0.65535 0.358504 0
M  V30 4100 H 381.953 -1.25592 1.49039 0
M  V30 4101 H 381.049 -2.78178 1.41504 0
M  V30 4102 N 381.35 -0.985608 -1.22978 0
M  V30 4103 C 382.596 -0.65836 -1.91816 0
M  V30 4104 C 382.929 0.806692 -1.76653 0
M  V30 4105 O 382.204 1.58252 -1.13078 0
M  V30 4106 C 382.487 -1.056 -3.44268 0
M  V30 4107 C 382.34 -2.57906 -3.68516 0
M  V30 4108 C 383.659 -0.603781 -4.35939 0
M  V30 4109 H 380.778 -0.24065 -0.696604 0
M  V30 4110 H 383.42 -1.22783 -1.44998 0
M  V30 4111 H 381.57 -0.571445 -3.84274 0
M  V30 4112 H 383.242 -3.13976 -3.3796 0
M  V30 4113 H 381.485 -3.00305 -3.13048 0
M  V30 4114 H 382.156 -2.80779 -4.75255 0
M  V30 4115 H 384.632 -1.01987 -4.03408 0
M  V30 4116 H 383.508 -0.910383 -5.41298 0
M  V30 4117 H 383.769 0.495761 -4.39312 0
M  V30 4118 N 382.828 1.3818 -0.7579 0
M  V30 4119 C 383.758 2.33027 -0.148597 0
M  V30 4120 C 384.739 1.55085 0.69875 0
M  V30 4121 O 385.924 1.83384 0.639053 0
M  V30 4122 C 383.054 3.3928 0.742034 0
M  V30 4123 C 382.008 4.28 -0.00291946 0
M  V30 4124 C 381.334 5.25146 1.00625 0
M  V30 4125 C 382.634 5.08938 -1.17385 0
M  V30 4126 H 384.328 2.84231 -0.940909 0
M  V30 4127 H 381.874 1.36659 -0.453908 0
M  V30 4128 H 383.827 4.046 1.17799 0
M  V30 4129 H 382.551 2.86569 1.56671 0
M  V30 4130 H 381.21 3.64192 -0.419504 0
M  V30 4131 H 380.858 4.68721 1.8251 0
M  V30 4132 H 380.558 5.85361 0.512428 0
M  V30 4133 H 382.082 5.93342 1.44143 0
M  V30 4134 H 383.496 5.67474 -0.815224 0
M  V30 4135 H 381.893 5.7841 -1.59882 0
M  V30 4136 H 382.963 4.42424 -1.98468 0
M  V30 4137 N 384.306 0.507319 1.49211 0
M  V30 4138 C 385.236 -0.256939 2.32082 0
M  V30 4139 C 386.217 -0.956609 1.40652 0
M  V30 4140 O 387.402 -0.946788 1.69557 0
M  V30 4141 C 384.532 -1.31802 3.21318 0
M  V30 4142 C 383.486 -0.737855 4.21592 0
M  V30 4143 C 382.812 -1.89992 4.99807 0
M  V30 4144 C 384.112 0.275325 5.21574 0
M  V30 4145 H 385.806 0.434798 2.96226 0
M  V30 4146 H 383.352 0.210546 1.42452 0
M  V30 4147 H 385.305 -1.86045 3.78107 0
M  V30 4148 H 384.029 -2.03903 2.5513 0
M  V30 4149 H 382.688 -0.217126 3.65956 0
M  V30 4150 H 382.336 -2.60877 4.30061 0
M  V30 4151 H 382.036 -1.51777 5.6766 0
M  V30 4152 H 383.56 -2.44657 5.59442 0
M  V30 4153 H 384.974 -0.179193 5.7302 0
M  V30 4154 H 383.371 0.573649 5.97352 0
M  V30 4155 H 384.441 1.18903 4.70096 0
M  V30 4156 N 385.784 -1.5574 0.241426 0
M  V30 4157 C 387.014 -2.02913 -0.38857 0
M  V30 4158 C 387.422 -1.12014 -1.52478 0
M  V30 4159 O 386.765 -0.125903 -1.83268 0
M  V30 4160 C 386.827 -3.4636 -0.963075 0
M  V30 4161 C 386.491 -4.56982 0.0401916 0
M  V30 4162 C 387.488 -5.12941 0.847766 0
M  V30 4163 C 385.173 -5.0203 0.164699 0
M  V30 4164 C 387.167 -6.12437 1.76636 0
M  V30 4165 C 384.854 -6.01358 1.0868 0
M  V30 4166 C 385.852 -6.5644 1.88616 0
M  V30 4167 O 385.54 -7.53831 2.79273 0
M  V30 4168 H 385.272 -0.668983 -0.0971452 0
M  V30 4169 H 387.826 -2.02198 0.361248 0
M  V30 4170 H 386.056 -3.44206 -1.76235 0
M  V30 4171 H 387.745 -3.77065 -1.50257 0
M  V30 4172 H 388.511 -4.78974 0.762133 0
M  V30 4173 H 384.39 -4.58824 -0.447411 0
M  V30 4174 H 387.934 -6.55355 2.39071 0
M  V30 4175 H 383.831 -6.34746 1.17338 0
M  V30 4176 H 384.599 -7.71428 2.73572 0
M  V30 4177 N 387.262 0.0317525 -1.57568 0
M  V30 4178 C 388.509 0.723104 -1.89149 0
M  V30 4179 C 388.837 1.75504 -0.838377 0
M  V30 4180 O 388.092 1.95037 0.160982 0
M  V30 4181 C 388.391 1.43167 -3.27472 0
M  V30 4182 C 388.057 0.535972 -4.47703 0
M  V30 4183 C 386.719 0.289262 -4.8033 0
M  V30 4184 C 389.071 -0.0826125 -5.21135 0
M  V30 4185 C 386.399 -0.584853 -5.83778 0
M  V30 4186 C 388.751 -0.944414 -6.25511 0
M  V30 4187 C 387.415 -1.20061 -6.56614 0
M  V30 4188 H 386.685 0.264602 -0.692146 0
M  V30 4189 H 389.332 -0.0169496 -1.91492 0
M  V30 4190 H 387.637 2.24497 -3.21105 0
M  V30 4191 H 389.334 1.97209 -3.49155 0
M  V30 4192 H 385.924 0.738414 -4.22191 0
M  V30 4193 H 390.108 0.0950302 -4.96209 0
M  V30 4194 H 385.364 -0.79168 -6.06253 0
M  V30 4195 H 389.538 -1.43026 -6.81554 0
M  V30 4196 H 387.165 -1.87967 -7.36595 0
M  V30 4197 N 388.74 1.54641 0.303973 0
M  V30 4198 C 389.673 1.80263 1.3993 0
M  V30 4199 C 390.651 0.653657 1.48883 0
M  V30 4200 O 391.835 0.893284 1.6599 0
M  V30 4201 C 388.962 1.9367 2.77866 0
M  V30 4202 C 388.008 3.16078 2.86351 0
M  V30 4203 S 388.841 4.74219 2.4875 0
M  V30 4204 C 389.997 4.90558 3.88721 0
M  V30 4205 H 390.23 2.72886 1.17986 0
M  V30 4206 H 387.763 1.46014 0.501918 0
M  V30 4207 H 389.721 2.0208 3.57315 0
M  V30 4208 H 388.382 1.01991 2.9708 0
M  V30 4209 H 387.575 3.22252 3.87517 0
M  V30 4210 H 387.177 3.06099 2.14893 0
M  V30 4211 H 389.469 4.74398 4.83687 0
M  V30 4212 H 390.412 5.92651 3.87518 0
M  V30 4213 H 390.82 4.18728 3.78585 0
M  V30 4214 N 390.218 -0.567019 1.47046 0
M  V30 4215 C 391.464 -1.32658 1.53394 0
M  V30 4216 C 391.797 -1.93254 0.19148 0
M  V30 4217 O 391.072 -1.77338 -0.798844 0
M  V30 4218 C 391.355 -2.44412 2.64452 0
M  V30 4219 C 391.208 -1.88749 4.08282 0
M  V30 4220 C 392.527 -3.46387 2.71485 0
M  V30 4221 H 389.646 -0.48098 0.558415 0
M  V30 4222 H 392.288 -0.635481 1.79058 0
M  V30 4223 H 390.438 -3.03363 2.427 0
M  V30 4224 H 392.11 -1.34134 4.41368 0
M  V30 4225 H 390.353 -1.19481 4.17021 0
M  V30 4226 H 391.024 -2.69491 4.81745 0
M  V30 4227 H 393.5 -2.9734 2.91081 0
M  V30 4228 H 392.376 -4.2202 3.50985 0
M  V30 4229 H 392.637 -4.04616 1.78153 0
M  V30 4230 N 391.696 -1.35014 -0.812953 0
M  V30 4231 C 392.924 -1.31031 -1.6012 0
M  V30 4232 C 393.339 0.113558 -1.88458 0
M  V30 4233 O 392.696 1.06363 -1.48301 0
M  V30 4234 C 392.747 -2.10872 -2.93624 0
M  V30 4235 O 392.468 -3.47706 -2.66518 0
M  V30 4236 C 393.969 -2.14401 -3.88004 0
M  V30 4237 H 391.189 -0.45037 -0.497401 0
M  V30 4238 H 393.733 -1.77775 -1.01076 0
M  V30 4239 H 391.888 -1.67744 -3.492 0
M  V30 4240 H 392.302 -3.89097 -3.51715 0
M  V30 4241 H 393.776 -2.74669 -4.78812 0
M  V30 4242 H 394.253 -1.14105 -4.24119 0
M  V30 4243 H 394.859 -2.57662 -3.38364 0
M  V30 4244 N 393.175 1.03435 -1.18907 0
M  V30 4245 C 394.423 1.76394 -0.986382 0
M  V30 4246 C 394.744 1.88883 0.484567 0
M  V30 4247 O 394.014 1.41843 1.3512 0
M  V30 4248 H 392.594 0.65344 -0.361975 0
M  V30 4249 H 395.256 1.248 -1.49703 0
M  V30 4250 H 394.352 2.77424 -1.42978 0
M  V30 4251 N 394.653 0.992116 1.22453 0
M  V30 4252 C 395.881 0.685944 1.95198 0
M  V30 4253 C 396.296 -0.749233 1.73297 0
M  V30 4254 O 395.653 -1.50549 1.03156 0
M  V30 4255 C 395.704 0.981395 3.47924 0
M  V30 4256 O 395.425 2.36018 3.6909 0
M  V30 4257 C 396.926 0.692815 4.37853 0
M  V30 4258 H 394.146 0.253821 0.621141 0
M  V30 4259 H 396.69 1.32668 1.55626 0
M  V30 4260 H 394.845 0.386481 3.85467 0
M  V30 4261 H 395.259 2.45884 4.63294 0
M  V30 4262 H 396.733 0.949818 5.43767 0
M  V30 4263 H 397.21 -0.373181 4.37612 0
M  V30 4264 H 397.816 1.26874 4.05935 0
M  V30 4265 N 396.131 -1.37776 0.765217 0
M  V30 4266 C 397.064 -2.28008 0.0935025 0
M  V30 4267 C 398.042 -1.45985 -0.716047 0
M  V30 4268 O 399.226 -1.75331 -0.692203 0
M  V30 4269 C 396.353 -3.27228 -0.874052 0
M  V30 4270 C 395.399 -4.26239 -0.149307 0
M  V30 4271 S 396.232 -5.22827 1.15809 0
M  V30 4272 C 397.388 -6.256 0.193906 0
M  V30 4273 H 397.621 -2.84631 0.858637 0
M  V30 4274 H 395.154 -1.43952 0.558313 0
M  V30 4275 H 397.112 -3.84902 -1.42691 0
M  V30 4276 H 395.773 -2.69565 -1.61225 0
M  V30 4277 H 394.966 -4.96213 -0.88254 0
M  V30 4278 H 394.568 -3.7252 0.332366 0
M  V30 4279 H 396.86 -6.74508 -0.636011 0
M  V30 4280 H 397.803 -7.02838 0.861638 0
M  V30 4281 H 398.211 -5.64173 -0.191975 0
M  V30 4282 N 397.609 -0.515225 -1.4894 0
M  V30 4283 C 399.02 -0.0710067 -1.86565 0
M  V30 4284 C 399.371 1.34733 -1.42623 0
M  V30 4285 O 398.496 2.00653 -0.810379 0
M  V30 4286 C 399.091 -0.122083 -3.3858 0
M  V30 4287 C 397.65 0.266863 -3.75453 0
M  V30 4288 C 396.797 -0.488376 -2.72966 0
M  V30 4289 H 399.748 -0.727266 -1.41055 0
M  V30 4290 H 399.769 0.669818 -3.74558 0
M  V30 4291 H 399.281 -1.15448 -3.70531 0
M  V30 4292 H 397.382 1.30196 -3.49113 0
M  V30 4293 H 397.495 -0.0624811 -4.79059 0
M  V30 4294 H 395.859 0.0635622 -2.54621 0
M  V30 4295 H 396.642 -1.52113 -3.07761 0
M  V30 4296 N 399.087 1.5561 -0.249682 0
M  V30 4297 C 400.334 1.99011 0.374287 0
M  V30 4298 C 400.662 1.13785 1.57744 0
M  V30 4299 O 399.917 0.189326 1.94782 0
M  V30 4300 C 400.216 3.4775 0.824887 0
M  V30 4301 C 399.882 4.50086 -0.270819 0
M  V30 4302 C 398.544 4.77791 -0.571746 0
M  V30 4303 C 400.896 5.11312 -1.01041 0
M  V30 4304 C 398.224 5.63997 -1.61629 0
M  V30 4305 C 400.576 5.98651 -2.0445 0
M  V30 4306 C 399.24 6.24688 -2.35204 0
M  V30 4307 H 398.51 0.728233 0.136961 0
M  V30 4308 H 401.157 1.88122 -0.358087 0
M  V30 4309 H 399.462 3.55985 1.63651 0
M  V30 4310 H 401.159 3.78721 1.31799 0
M  V30 4311 H 397.749 4.28592 -0.026136 0
M  V30 4312 H 401.933 4.89953 -0.791177 0
M  V30 4313 H 397.189 5.82425 -1.85988 0
M  V30 4314 H 401.363 6.45135 -2.62248 0
M  V30 4315 H 398.99 6.91281 -3.16282 0
M  V30 4316 N 400.565 -0.0233959 1.57583 0
M  V30 4317 C 401.981 -0.379134 1.55031 0
M  V30 4318 C 402.181 -1.76255 0.976548 0
M  V30 4319 O 401.237 -2.45266 0.600078 0
M  V30 4320 C 402.55 -0.275792 2.99433 0
M  V30 4321 C 404.098 -0.352458 3.11009 0
M  V30 4322 C 404.573 -0.278501 4.57152 0
M  V30 4323 N 406.064 -0.337123 4.61972 0
M  V30 4324 C 406.799 -0.302876 5.726 0
M  V30 4325 N 406.295 -0.220589 6.92449 0
M  V30 4326 N 408.088 -0.353023 5.6099 0
M  V30 4327 H 400.239 0.881869 1.93227 0
M  V30 4328 H 402.502 0.335867 0.886509 0
M  V30 4329 H 402.208 0.675108 3.4516 0
M  V30 4330 H 402.082 -1.06721 3.61788 0
M  V30 4331 H 404.469 -1.29379 2.65226 0
M  V30 4332 H 404.55 0.468409 2.51475 0
M  V30 4333 H 404.194 0.659189 5.03604 0
M  V30 4334 H 404.124 -1.11755 5.14605 0
M  V30 4335 H 406.615 -0.403002 3.75745 0
M  V30 4336 H 406.928 -0.199713 7.72542 0
M  V30 4337 H 405.273 -0.186555 6.9475 0
M  V30 4338 H 408.464 -0.415339 4.66254 0
M  V30 4339 H 408.637 -0.322866 6.47195 0
M  V30 4340 N 402.043 -1.548 -0.295768 0
M  V30 4341 C 403.006 -1.85363 -1.34808 0
M  V30 4342 C 404.006 -0.726817 -1.43436 0
M  V30 4343 O 405.196 -0.995088 -1.42981 0
M  V30 4344 C 402.328 -2.03859 -2.73229 0
M  V30 4345 H 403.521 -2.7941 -1.08949 0
M  V30 4346 H 401.074 -1.46942 -0.532702 0
M  V30 4347 H 401.809 -1.12117 -3.04303 0
M  V30 4348 H 401.594 -2.8588 -2.68356 0
M  V30 4349 H 403.084 -2.28857 -3.49305 0
M  V30 4350 N 403.521 0.559213 -1.47345 0
M  V30 4351 C 404.431 1.69388 -1.62311 0
M  V30 4352 C 405.447 1.6648 -0.505993 0
M  V30 4353 O 406.623 1.85964 -0.773262 0
M  V30 4354 C 403.688 3.05894 -1.63185 0
M  V30 4355 C 402.749 3.19885 -2.86307 0
M  V30 4356 C 401.982 4.49879 -2.87131 0
M  V30 4357 O 402.205 5.35217 -1.97229 0
M  V30 4358 O 401.139 4.67618 -3.78968 0
M  V30 4359 H 404.965 1.59706 -2.58317 0
M  V30 4360 H 402.55 0.728989 -1.30407 0
M  V30 4361 H 404.432 3.87133 -1.66451 0
M  V30 4362 H 403.107 3.15964 -0.70345 0
M  V30 4363 H 402.014 2.38052 -2.88587 0
M  V30 4364 H 403.347 3.14718 -3.78435 0
M  V30 4365 N 404.999 1.35443 0.805782 0
M  V30 4366 C 406.227 1.31878 1.59423 0
M  V30 4367 C 406.642 -0.103562 1.88516 0
M  V30 4368 O 405.999 -1.05575 1.48863 0
M  V30 4369 C 406.05 2.12426 2.92502 0
M  V30 4370 O 405.771 3.49115 2.6467 0
M  V30 4371 C 407.272 2.16455 3.86862 0
M  V30 4372 H 404.492 0.453002 0.495005 0
M  V30 4373 H 407.036 1.78309 1.00131 0
M  V30 4374 H 405.191 1.69593 3.48306 0
M  V30 4375 H 405.605 3.90957 3.49647 0
M  V30 4376 H 407.079 2.77204 4.77349 0
M  V30 4377 H 407.556 1.16352 4.23508 0
M  V30 4378 H 408.162 2.59453 3.36993 0
M  V30 4379 N 406.477 -1.02803 1.19454 0
M  V30 4380 C 407.723 -1.76478 0.999171 0
M  V30 4381 C 408.056 -1.88456 -0.468828 0
M  V30 4382 O 407.331 -1.40198 -1.34814 0
M  V30 4383 C 407.614 -3.19044 1.66981 0
M  V30 4384 C 407.467 -3.14932 3.21151 0
M  V30 4385 C 408.786 -4.17456 1.39349 0
M  V30 4386 H 405.905 -0.640614 0.364393 0
M  V30 4387 H 408.547 -1.20005 1.47305 0
M  V30 4388 H 406.697 -3.67263 1.2669 0
M  V30 4389 H 408.369 -2.74605 3.70661 0
M  V30 4390 H 406.612 -2.52625 3.52652 0
M  V30 4391 H 407.283 -4.1566 3.63223 0
M  V30 4392 H 409.759 -3.77842 1.74283 0
M  V30 4393 H 408.635 -5.154 1.88823 0
M  V30 4394 H 408.896 -4.40949 0.318813 0
M  V30 4395 N 407.956 -0.998596 -1.21925 0
M  V30 4396 C 408.919 -0.558679 -2.22287 0
M  V30 4397 C 409.919 0.361525 -1.56683 0
M  V30 4398 O 411.109 0.152695 -1.73529 0
M  V30 4399 C 408.241 0.18661 -3.40389 0
M  V30 4400 H 409.434 -1.4463 -2.62721 0
M  V30 4401 H 406.987 -0.786413 -1.35075 0
M  V30 4402 H 407.722 1.08996 -3.05435 0
M  V30 4403 H 407.507 -0.474188 -3.89222 0
M  V30 4404 H 408.997 0.482367 -4.14805 0
M  V30 4405 N 409.434 1.37368 -0.772513 0
M  V30 4406 C 410.381 2.30262 -0.157488 0
M  V30 4407 C 411.351 1.51137 0.688965 0
M  V30 4408 O 412.536 1.79704 0.641168 0
M  V30 4409 C 409.676 3.37611 0.715045 0
M  V30 4410 C 408.789 4.31746 -0.148098 0
M  V30 4411 C 407.924 5.26171 0.729213 0
M  V30 4412 C 406.963 6.11948 -0.136418 0
M  V30 4413 N 406.1 6.98613 0.698914 0
M  V30 4414 H 410.94 2.82277 -0.955179 0
M  V30 4415 H 408.477 1.38957 -0.482631 0
M  V30 4416 H 410.435 3.98479 1.23575 0
M  V30 4417 H 409.065 2.86959 1.47833 0
M  V30 4418 H 408.117 3.72178 -0.786613 0
M  V30 4419 H 409.429 4.92084 -0.81579 0
M  V30 4420 H 408.583 5.92247 1.31637 0
M  V30 4421 H 407.322 4.66246 1.43059 0
M  V30 4422 H 406.327 5.4485 -0.736102 0
M  V30 4423 H 407.552 6.73945 -0.835134 0
M  V30 4424 H 405.498 6.41215 1.38489 0
M  V30 4425 H 405.415 7.55948 0.0885358 0
M  V30 4426 H 406.683 7.69077 1.27044 0
M  V30 4427 N 410.912 0.523116 1.48665 0
M  V30 4428 C 411.842 -0.23231 2.32342 0
M  V30 4429 C 412.823 -0.941637 1.41659 0
M  V30 4430 O 414.008 -0.928751 1.70552 0
M  V30 4431 C 411.138 -1.28387 3.22698 0
M  V30 4432 C 410.092 -0.693098 4.22351 0
M  V30 4433 C 409.418 -1.8468 5.01794 0
M  V30 4434 C 410.718 0.33063 5.21252 0
M  V30 4435 H 412.412 0.466192 2.95748 0
M  V30 4436 H 409.958 0.225643 1.42221 0
M  V30 4437 H 411.911 -1.82024 3.80059 0
M  V30 4438 H 410.635 -2.01186 2.57278 0
M  V30 4439 H 409.294 -0.178299 3.66166 0
M  V30 4440 H 408.942 -2.56301 4.32804 0
M  V30 4441 H 408.642 -1.45747 5.69238 0
M  V30 4442 H 410.166 -2.38709 5.62006 0
M  V30 4443 H 411.58 -0.118407 5.73178 0
M  V30 4444 H 409.977 0.636974 5.9671 0
M  V30 4445 H 411.047 1.23883 4.68808 0
M  V30 4446 N 412.39 -1.55475 0.257931 0
M  V30 4447 C 413.337 -2.21837 -0.636939 0
M  V30 4448 C 414.307 -1.18596 -1.16294 0
M  V30 4449 O 415.492 -1.47081 -1.21539 0
M  V30 4450 C 412.632 -2.9301 -1.82317 0
M  V30 4451 C 411.745 -4.10931 -1.33265 0
M  V30 4452 C 410.88 -4.69791 -2.47931 0
M  V30 4453 C 409.919 -5.7994 -1.95796 0
M  V30 4454 N 409.056 -6.32935 -3.0387 0
M  V30 4455 H 413.896 -2.9793 -0.0643591 0
M  V30 4456 H 411.433 -1.47086 -0.0200031 0
M  V30 4457 H 413.391 -3.3248 -2.52018 0
M  V30 4458 H 412.021 -2.1937 -2.36805 0
M  V30 4459 H 411.073 -3.76699 -0.52931 0
M  V30 4460 H 412.385 -4.90417 -0.910654 0
M  V30 4461 H 411.539 -5.11892 -3.25656 0
M  V30 4462 H 410.278 -3.89545 -2.93438 0
M  V30 4463 H 409.283 -5.37305 -1.16546 0
M  V30 4464 H 410.508 -6.62043 -1.51246 0
M  V30 4465 H 408.454 -5.55591 -3.48791 0
M  V30 4466 H 408.371 -7.07645 -2.66035 0
M  V30 4467 H 409.639 -6.79695 -3.81621 0
M  V30 4468 N 413.868 0.0150385 -1.57593 0
M  V30 4469 C 414.815 1.01126 -2.07466 0
M  V30 4470 C 415.785 1.35064 -0.966794 0
M  V30 4471 O 416.97 1.4516 -1.23827 0
M  V30 4472 C 414.11 2.30276 -2.57035 0
M  V30 4473 C 413.223 2.02373 -3.81666 0
M  V30 4474 C 412.358 3.25496 -4.19793 0
M  V30 4475 C 411.397 2.93211 -5.37303 0
M  V30 4476 N 410.534 4.08826 -5.70794 0
M  V30 4477 H 415.374 0.57901 -2.92321 0
M  V30 4478 H 412.911 0.27426 -1.44521 0
M  V30 4479 H 414.869 3.05757 -2.83846 0
M  V30 4480 H 413.499 2.71197 -1.75077 0
M  V30 4481 H 412.551 1.17327 -3.61854 0
M  V30 4482 H 413.863 1.74567 -4.67256 0
M  V30 4483 H 413.017 4.09333 -4.47807 0
M  V30 4484 H 411.756 3.56428 -3.32882 0
M  V30 4485 H 410.761 2.07777 -5.09027 0
M  V30 4486 H 411.986 2.63542 -6.25877 0
M  V30 4487 H 409.932 4.39682 -4.86842 0
M  V30 4488 H 409.849 3.84491 -6.50924 0
M  V30 4489 H 411.117 4.93496 -6.03392 0
M  V30 4490 N 415.346 1.54954 0.287554 0
M  V30 4491 C 416.571 1.79209 1.04397 0
M  V30 4492 C 416.996 0.556431 1.79682 0
M  V30 4493 O 416.354 -0.493518 1.74454 0
M  V30 4494 C 416.402 3.00739 1.98969 0
M  V30 4495 O 415.506 2.74805 3.075 0
M  V30 4496 H 414.847 0.592755 0.299227 0
M  V30 4497 H 417.377 2.02068 0.320886 0
M  V30 4498 H 417.387 3.29077 2.4119 0
M  V30 4499 H 416.062 3.90329 1.43582 0
M  V30 4500 H 414.639 2.57523 2.69697 0
M  V30 4501 N 416.824 -0.551391 1.4764 0
M  V30 4502 C 418.073 -1.30467 1.53822 0
M  V30 4503 C 418.386 -1.94495 0.207661 0
M  V30 4504 O 419.592 -2.71099 0.147533 0
M  V30 4505 C 418.048 -2.36616 2.71184 0
M  V30 4506 C 417.656 -1.78754 4.10793 0
M  V30 4507 C 419.4 -3.13088 2.86663 0
M  V30 4508 C 417.307 -2.82717 5.19447 0
M  V30 4509 H 416.237 -0.490584 0.572576 0
M  V30 4510 H 418.888 -0.58494 1.73927 0
M  V30 4511 H 417.27 -3.11529 2.4447 0
M  V30 4512 H 418.444 -1.10173 4.47435 0
M  V30 4513 H 416.759 -1.14846 4.00249 0
M  V30 4514 H 419.356 -3.90736 3.65007 0
M  V30 4515 H 419.699 -3.67635 1.95321 0
M  V30 4516 H 420.232 -2.45288 3.13175 0
M  V30 4517 H 416.971 -2.33018 6.12685 0
M  V30 4518 H 416.491 -3.4969 4.87316 0
M  V30 4519 H 418.17 -3.46102 5.46646 0
M  V30 4520 N 418.302 -1.35869 -0.798587 0
M  V30 4521 C 419.232 -1.32118 -1.92528 0
M  V30 4522 C 420.213 -0.194209 -1.68988 0
M  V30 4523 O 421.398 -0.390426 -1.90235 0
M  V30 4524 C 418.528 -1.10047 -3.29404 0
M  V30 4525 C 417.482 -2.19471 -3.67446 0
M  V30 4526 C 416.808 -1.82555 -5.02571 0
M  V30 4527 C 418.108 -3.61495 -3.76987 0
M  V30 4528 H 419.802 -2.26394 -1.95924 0
M  V30 4529 H 417.348 -1.08981 -0.94123 0
M  V30 4530 H 419.301 -1.06061 -4.07835 0
M  V30 4531 H 418.025 -0.122195 -3.26371 0
M  V30 4532 H 416.684 -2.22568 -2.91306 0
M  V30 4533 H 416.332 -0.833249 -4.9605 0
M  V30 4534 H 416.032 -2.5581 -5.28995 0
M  V30 4535 H 417.556 -1.80108 -5.83432 0
M  V30 4536 H 418.97 -3.60676 -4.4563 0
M  V30 4537 H 417.367 -4.33577 -4.14887 0
M  V30 4538 H 418.437 -3.97065 -2.78329 0
M  V30 4539 N 419.78 1.02168 -1.19998 0
M  V30 4540 C 420.69 2.14069 -0.959774 0
M  V30 4541 C 421.706 1.73804 0.082655 0
M  V30 4542 O 422.882 2.01133 -0.103633 0
M  V30 4543 C 419.947 3.42936 -0.509459 0
M  V30 4544 C 419.008 3.97474 -1.62213 0
M  V30 4545 C 418.241 5.2019 -1.19321 0
M  V30 4546 O 418.464 5.70369 -0.0597726 0
M  V30 4547 O 417.398 5.67749 -1.99863 0
M  V30 4548 H 421.224 2.37199 -1.89658 0
M  V30 4549 H 418.809 1.12469 -0.983411 0
M  V30 4550 H 420.691 4.20551 -0.267322 0
M  V30 4551 H 419.366 3.21234 0.398821 0
M  V30 4552 H 418.273 3.21161 -1.9185 0
M  V30 4553 H 419.606 4.23555 -2.50723 0
M  V30 4554 N 421.258 1.00505 1.21394 0
M  V30 4555 C 422.506 0.686415 1.90086 0
M  V30 4556 C 422.827 -0.785264 1.7849 0
M  V30 4557 O 422.097 -1.56387 1.17983 0
M  V30 4558 H 420.677 0.2509 0.703604 0
M  V30 4559 H 423.339 1.27417 1.47482 0
M  V30 4560 H 422.435 0.959621 2.96981 0
M  V30 4561 N 422.737 -1.36956 0.779787 0
M  V30 4562 C 423.965 -2.03755 0.359398 0
M  V30 4563 C 424.38 -1.58807 -1.02106 0
M  V30 4564 O 423.737 -0.773024 -1.6532 0
M  V30 4565 C 423.788 -3.59251 0.402568 0
M  V30 4566 O 423.509 -4.02557 1.72858 0
M  V30 4567 C 425.01 -4.43291 -0.0284068 0
M  V30 4568 H 422.23 -0.654148 0.149437 0
M  V30 4569 H 424.774 -1.75128 1.05595 0
M  V30 4570 H 422.929 -3.86621 -0.245478 0
M  V30 4571 H 423.343 -4.97111 1.67275 0
M  V30 4572 H 424.817 -5.51975 0.0529466 0
M  V30 4573 H 425.294 -4.25719 -1.07982 0
M  V30 4574 H 425.9 -4.21163 0.591758 0
M  V30 4575 N 424.215 -0.530993 -1.48385 0
M  V30 4576 C 425.445 -0.00133928 -2.066 0
M  V30 4577 C 425.853 1.28599 -1.38777 0
M  V30 4578 O 425.196 1.77599 -0.469495 0
M  V30 4579 C 425.258 0.292137 -3.58311 0
M  V30 4580 C 424.922 -0.901864 -4.48013 0
M  V30 4581 C 425.919 -1.80053 -4.87726 0
M  V30 4582 C 423.604 -1.10915 -4.89901 0
M  V30 4583 C 425.598 -2.89038 -5.68098 0
M  V30 4584 C 423.285 -2.20213 -5.70043 0
M  V30 4585 C 424.283 -3.09107 -6.0905 0
M  V30 4586 O 423.971 -4.16514 -6.87583 0
M  V30 4587 H 423.703 -0.0308475 -0.675296 0
M  V30 4588 H 426.257 -0.736335 -1.91748 0
M  V30 4589 H 424.487 1.08112 -3.7128 0
M  V30 4590 H 426.176 0.763994 -3.98645 0
M  V30 4591 H 426.942 -1.65234 -4.55986 0
M  V30 4592 H 422.821 -0.426498 -4.59023 0
M  V30 4593 H 426.365 -3.58451 -5.98464 0
M  V30 4594 H 422.262 -2.35016 -6.01197 0
M  V30 4595 H 423.03 -4.14237 -7.05939 0
M  V30 4596 N 425.693 1.55336 -0.266172 0
M  V30 4597 C 426.918 2.04258 0.359661 0
M  V30 4598 C 427.343 1.14359 1.49344 0
M  V30 4599 O 426.701 0.140369 1.80756 0
M  V30 4600 C 426.749 3.50997 0.826635 0
M  V30 4601 O 425.853 3.64204 1.93466 0
M  V30 4602 H 425.194 0.659668 0.075727 0
M  V30 4603 H 427.724 2.00694 -0.39786 0
M  V30 4604 H 427.734 3.9219 1.12477 0
M  V30 4605 H 426.409 4.159 -0.00293032 0
M  V30 4606 H 424.986 3.34913 1.63974 0
M  V30 4607 N 427.171 -0.0066808 1.57599 0
M  V30 4608 C 428.417 -0.693947 1.90558 0
M  V30 4609 C 428.75 -1.73792 0.866594 0
M  V30 4610 O 428.025 -1.94156 -0.115548 0
M  V30 4611 C 428.308 -1.34317 3.34112 0
M  V30 4612 C 428.161 -0.311189 4.48722 0
M  V30 4613 C 429.48 -2.27116 3.7697 0
M  V30 4614 H 426.599 -0.250803 0.693013 0
M  V30 4615 H 429.241 0.043242 1.89951 0
M  V30 4616 H 427.391 -1.9715 3.3476 0
M  V30 4617 H 429.063 0.316944 4.6021 0
M  V30 4618 H 427.306 0.367253 4.32243 0
M  V30 4619 H 427.977 -0.804366 5.46108 0
M  V30 4620 H 430.453 -1.74306 3.77831 0
M  V30 4621 H 429.329 -2.69511 4.78179 0
M  V30 4622 H 429.59 -3.14743 3.10466 0
M  V30 4623 N 428.649 -1.55105 -0.279332 0
M  V30 4624 C 430.06 -1.66186 -0.850832 0
M  V30 4625 C 430.411 -0.584707 -1.87285 0
M  V30 4626 O 429.536 0.274919 -2.14647 0
M  V30 4627 C 430.131 -3.01264 -1.55001 0
M  V30 4628 C 428.69 -3.14394 -2.06963 0
M  V30 4629 C 427.837 -2.61959 -0.909536 0
M  V30 4630 H 430.788 -1.58602 -0.0558235 0
M  V30 4631 H 430.809 -2.93899 -2.41669 0
M  V30 4632 H 430.321 -3.7964 -0.805931 0
M  V30 4633 H 428.422 -2.4078 -2.84352 0
M  V30 4634 H 428.535 -4.20867 -2.28928 0
M  V30 4635 H 426.899 -2.18957 -1.30116 0
M  V30 4636 H 427.682 -3.42833 -0.179062 0
M  V30 4637 N 430.127 0.543554 -1.4793 0
M  V30 4638 C 431.538 1.12561 -1.48953 0
M  V30 4639 C 431.889 1.94578 -0.251754 0
M  V30 4640 O 431.014 2.0665 0.642255 0
M  V30 4641 C 431.609 2.04801 -2.69892 0
M  V30 4642 C 430.168 2.58251 -2.73831 0
M  V30 4643 C 429.315 1.34918 -2.42265 0
M  V30 4644 H 432.266 0.32947 -1.55242 0
M  V30 4645 H 432.287 2.88886 -2.47639 0
M  V30 4646 H 431.799 1.4508 -3.59963 0
M  V30 4647 H 429.9 3.21732 -1.87934 0
M  V30 4648 H 430.013 2.98312 -3.74895 0
M  V30 4649 H 428.377 1.66046 -1.93134 0
M  V30 4650 H 429.16 0.769693 -3.3456 0
M  V30 4651 N 431.605 1.3629 0.791371 0
M  V30 4652 C 432.555 1.26988 1.89362 0
M  V30 4653 C 433.539 0.161795 1.60084 0
M  V30 4654 O 434.731 0.394426 1.72549 0
M  V30 4655 C 431.86 1.05944 3.26544 0
M  V30 4656 C 430.946 2.21211 3.61838 0
M  V30 4657 N 431.337 3.46518 3.68455 0
M  V30 4658 C 429.635 2.12933 3.91887 0
M  V30 4659 C 430.336 4.2241 3.99931 0
M  V30 4660 N 429.312 3.51329 4.14812 0
M  V30 4661 H 433.114 2.21908 1.92702 0
M  V30 4662 H 430.628 1.28982 0.986787 0
M  V30 4663 H 432.625 0.973666 4.05371 0
M  V30 4664 H 431.285 0.119223 3.24481 0
M  V30 4665 H 432.296 3.80677 3.51148 0
M  V30 4666 H 428.973 1.26855 3.97761 0
M  V30 4667 H 430.363 5.30767 4.1199 0
M  V30 4668 N 433.083 -1.0153 1.20538 0
M  V30 4669 C 434.329 -1.75408 1.01783 0
M  V30 4670 C 434.662 -1.88943 -0.448814 0
M  V30 4671 O 433.937 -1.4162 -1.33319 0
M  V30 4672 C 434.22 -3.17255 1.70356 0
M  V30 4673 C 434.073 -3.11508 3.24473 0
M  V30 4674 C 435.392 -4.15955 1.43769 0
M  V30 4675 H 432.511 -0.636713 0.371167 0
M  V30 4676 H 435.153 -1.18436 1.4857 0
M  V30 4677 H 433.303 -3.65898 1.30578 0
M  V30 4678 H 434.975 -2.70658 3.73553 0
M  V30 4679 H 433.218 -2.4887 3.55311 0
M  V30 4680 H 433.889 -4.11784 3.67611 0
M  V30 4681 H 436.365 -3.75973 1.7828 0
M  V30 4682 H 435.241 -5.13368 1.94279 0
M  V30 4683 H 435.502 -4.40586 0.365564 0
M  V30 4684 N 434.561 -1.01147 -1.20859 0
M  V30 4685 C 435.786 -0.716698 -1.94623 0
M  V30 4686 C 436.211 0.715415 -1.73964 0
M  V30 4687 O 435.569 1.49157 -1.03062 0
M  V30 4688 C 435.617 -1.0513 -3.44935 0
M  V30 4689 O 434.721 -0.160131 -4.12089 0
M  V30 4690 H 434.062 -0.266404 -0.608214 0
M  V30 4691 H 436.592 -1.35346 -1.53436 0
M  V30 4692 H 436.602 -1.00086 -3.95533 0
M  V30 4693 H 435.277 -2.09475 -3.59295 0
M  V30 4694 H 433.854 -0.267657 -3.71938 0
M  V30 4695 N 436.039 1.36541 -0.78704 0
M  V30 4696 C 436.949 2.3387 -0.184896 0
M  V30 4697 C 437.965 1.60927 0.661697 0
M  V30 4698 O 439.141 1.92927 0.57804 0
M  V30 4699 C 436.206 3.40122 0.672145 0
M  V30 4700 C 435.267 4.28867 -0.19267 0
M  V30 4701 C 434.5 5.30045 0.623561 0
M  V30 4702 O 434.723 5.39232 1.8597 0
M  V30 4703 O 433.657 6.01895 0.0247068 0
M  V30 4704 H 437.483 2.87126 -0.989562 0
M  V30 4705 H 435.068 1.38969 -0.548455 0
M  V30 4706 H 436.95 4.05093 1.16094 0
M  V30 4707 H 435.625 2.89169 1.45474 0
M  V30 4708 H 434.532 3.66945 -0.728166 0
M  V30 4709 H 435.865 4.83165 -0.938722 0
M  V30 4710 N 437.518 0.538854 1.48102 0
M  V30 4711 C 438.929 0.100679 1.86428 0
M  V30 4712 C 439.28 -1.32447 1.44749 0
M  V30 4713 O 438.405 -1.99339 0.842199 0
M  V30 4714 C 439 0.175933 3.38343 0
M  V30 4715 C 437.559 -0.207098 3.7583 0
M  V30 4716 C 436.706 0.531741 2.72154 0
M  V30 4717 H 439.657 0.749614 1.3988 0
M  V30 4718 H 439.678 -0.610144 3.75576 0
M  V30 4719 H 439.19 1.21328 3.68648 0
M  V30 4720 H 437.291 -1.24626 3.5114 0
M  V30 4721 H 437.404 0.138687 4.78899 0
M  V30 4722 H 435.768 -0.0230462 2.5469 0
M  V30 4723 H 436.551 1.56989 3.05302 0
M  V30 4724 N 438.996 -1.55193 0.274407 0
M  V30 4725 C 440.236 -2.01488 -0.343778 0
M  V30 4726 C 440.6 -1.1586 -1.53103 0
M  V30 4727 O 441.801 -1.51732 -2.2188 0
M  V30 4728 C 440.072 -3.50134 -0.717021 0
M  V30 4729 S 441.631 -4.18417 -1.32184 0
M  V30 4730 H 438.449 -0.70291 -0.106948 0
M  V30 4731 H 441.051 -1.91446 0.396075 0
M  V30 4732 H 439.755 -4.10104 0.155947 0
M  V30 4733 H 439.286 -3.64159 -1.48835 0
M  V30 4734 H 441.301 -4.21984 -2.61044 0
M  V30 4735 N 440.474 -0.00167713 -1.576 0
M  V30 4736 C 441.424 0.997744 -2.0501 0
M  V30 4737 C 442.408 1.30214 -0.94515 0
M  V30 4738 O 443.6 1.29284 -1.20891 0
M  V30 4739 C 440.729 2.2892 -2.55833 0
M  V30 4740 C 439.815 2.01437 -3.73208 0
M  V30 4741 N 440.206 1.44119 -4.84833 0
M  V30 4742 C 438.504 2.31571 -3.8117 0
M  V30 4743 C 439.205 1.33145 -5.66257 0
M  V30 4744 N 438.181 1.81763 -5.12312 0
M  V30 4745 H 441.983 0.549098 -2.88725 0
M  V30 4746 H 439.497 0.20398 -1.61114 0
M  V30 4747 H 441.494 3.01361 -2.88075 0
M  V30 4748 H 440.154 2.74436 -1.73537 0
M  V30 4749 H 441.165 1.11978 -5.0565 0
M  V30 4750 H 437.842 2.7995 -3.09732 0
M  V30 4751 H 439.232 0.890567 -6.65972 0
M  V30 4752 N 441.952 1.55251 0.271103 0
M  V30 4753 C 443.368 1.47133 0.618393 0
M  V30 4754 C 443.568 0.686994 1.89427 0
M  V30 4755 O 442.624 0.206609 2.51653 0
M  V30 4756 C 443.937 2.91361 0.743593 0
M  V30 4757 C 445.485 3.01587 0.837522 0
M  V30 4758 C 445.96 4.47073 0.994483 0
M  V30 4759 N 447.451 4.50909 1.05996 0
M  V30 4760 C 448.186 5.60698 1.20024 0
M  V30 4761 N 447.682 6.80348 1.30759 0
M  V30 4762 N 449.475 5.48444 1.23149 0
M  V30 4763 H 441.626 2.04698 -0.566784 0
M  V30 4764 H 443.889 0.928319 -0.192165 0
M  V30 4765 H 443.595 3.51483 -0.123493 0
M  V30 4766 H 443.469 3.40484 1.62328 0
M  V30 4767 H 445.856 2.4156 1.69507 0
M  V30 4768 H 445.937 2.55713 -0.0668086 0
M  V30 4769 H 445.581 5.07703 0.141582 0
M  V30 4770 H 445.511 4.90605 1.91349 0
M  V30 4771 H 448.002 3.6472 0.989316 0
M  V30 4772 H 448.315 7.59772 1.41303 0
M  V30 4773 H 446.66 6.83156 1.27761 0
M  V30 4774 H 449.851 4.53907 1.14394 0
M  V30 4775 H 450.024 6.34049 1.33738 0
M  V30 4776 N 443.43 -0.535701 1.48216 0
M  V30 4777 C 444.36 -1.65014 1.65204 0
M  V30 4778 C 445.341 -1.62554 0.501011 0
M  V30 4779 O 446.526 -1.7984 0.732886 0
M  V30 4780 C 443.656 -3.03616 1.68626 0
M  V30 4781 C 442.61 -3.20932 2.83172 0
M  V30 4782 C 441.936 -4.60537 2.71679 0
M  V30 4783 C 443.236 -3.04249 4.24535 0
M  V30 4784 H 444.93 -1.51053 2.58502 0
M  V30 4785 H 442.476 -0.725262 1.24402 0
M  V30 4786 H 444.429 -3.81446 1.79099 0
M  V30 4787 H 443.153 -3.18587 0.719026 0
M  V30 4788 H 441.812 -2.45517 2.72244 0
M  V30 4789 H 441.46 -4.72336 1.72937 0
M  V30 4790 H 441.16 -4.73069 3.48538 0
M  V30 4791 H 442.684 -5.40475 2.84112 0
M  V30 4792 H 444.098 -3.71877 4.36326 0
M  V30 4793 H 442.495 -3.28278 5.02348 0
M  V30 4794 H 443.565 -2.00739 4.41397 0
M  V30 4795 N 444.908 -1.36708 -0.784132 0
M  V30 4796 C 446.157 -1.30559 -1.53744 0
M  V30 4797 C 446.47 0.111374 -1.95283 0
M  V30 4798 O 447.676 0.29527 -2.6989 0
M  V30 4799 C 446.132 -2.29098 -2.77565 0
M  V30 4800 C 445.74 -3.76258 -2.43174 0
M  V30 4801 C 447.484 -2.31936 -3.55536 0
M  V30 4802 C 445.391 -4.6656 -3.63422 0
M  V30 4803 H 444.321 -0.48518 -0.577162 0
M  V30 4804 H 446.972 -1.62101 -0.859981 0
M  V30 4805 H 445.354 -1.90557 -3.47137 0
M  V30 4806 H 446.528 -4.23565 -1.81465 0
M  V30 4807 H 444.843 -3.76246 -1.78403 0
M  V30 4808 H 447.44 -2.9661 -4.44889 0
M  V30 4809 H 447.783 -1.3294 -3.94503 0
M  V30 4810 H 448.316 -2.6912 -2.92949 0
M  V30 4811 H 445.055 -5.66638 -3.29547 0
M  V30 4812 H 444.575 -4.23966 -4.24279 0
M  V30 4813 H 446.254 -4.8309 -4.30387 0
M  V30 4814 N 446.386 1.0089 -1.21074 0
M  V30 4815 C 447.802 1.2695 -0.967257 0
M  V30 4816 C 448.002 1.9846 0.348673 0
M  V30 4817 O 447.058 2.28459 1.0753 0
M  V30 4818 C 448.371 2.09697 -2.15517 0
M  V30 4819 C 449.919 2.22937 -2.197 0
M  V30 4820 C 450.394 3.09064 -3.37999 0
M  V30 4821 N 451.885 3.16653 -3.38061 0
M  V30 4822 C 452.62 3.8354 -4.26245 0
M  V30 4823 N 452.116 4.52488 -5.2462 0
M  V30 4824 N 453.909 3.80141 -4.14064 0
M  V30 4825 H 446.06 0.529005 -2.05707 0
M  V30 4826 H 448.323 0.296148 -0.900556 0
M  V30 4827 H 448.029 1.64497 -3.10859 0
M  V30 4828 H 447.903 3.10444 -2.14253 0
M  V30 4829 H 450.29 2.67357 -1.24916 0
M  V30 4830 H 450.371 1.21673 -2.2501 0
M  V30 4831 H 450.015 2.65347 -4.33074 0
M  V30 4832 H 449.945 4.10433 -3.29928 0
M  V30 4833 H 452.436 2.67566 -2.66865 0
M  V30 4834 H 452.749 5.01219 -5.88217 0
M  V30 4835 H 451.094 4.51288 -5.28549 0
M  V30 4836 H 454.285 3.25427 -3.36474 0
M  V30 4837 H 454.458 4.31992 -4.82998 0
M  V30 4838 N 447.864 1.01787 1.20321 0
M  V30 4839 C 449.112 0.706538 1.89347 0
M  V30 4840 C 449.433 -0.766289 1.79313 0
M  V30 4841 O 448.703 -1.55126 1.19635 0
M  V30 4842 H 447.283 0.258348 0.700903 0
M  V30 4843 H 449.945 1.28974 1.46122 0
M  V30 4844 H 449.041 0.991066 2.95946 0
M  V30 4845 N 449.342 -1.36122 0.79427 0
M  V30 4846 C 450.588 -1.99406 0.369452 0
M  V30 4847 C 450.921 -1.62886 -1.05743 0
M  V30 4848 O 450.196 -0.886053 -1.73145 0
M  V30 4849 C 450.479 -3.56046 0.538833 0
M  V30 4850 C 450.332 -4.02404 2.00976 0
M  V30 4851 C 451.651 -4.40079 -0.0431359 0
M  V30 4852 H 448.77 -0.724397 0.135712 0
M  V30 4853 H 451.412 -1.61461 1.00151 0
M  V30 4854 H 449.562 -3.885 0.000771004 0
M  V30 4855 H 451.234 -3.80415 2.60926 0
M  V30 4856 H 449.477 -3.53765 2.51063 0
M  V30 4857 H 450.148 -5.11344 2.07922 0
M  V30 4858 H 452.624 -4.14013 0.416228 0
M  V30 4859 H 451.5 -5.48799 0.105374 0
M  V30 4860 H 451.761 -4.27264 -1.13571 0
M  V30 4861 N 450.82 -0.546701 -1.47814 0
M  V30 4862 C 451.75 0.195317 -2.32682 0
M  V30 4863 C 452.731 0.918981 -1.43139 0
M  V30 4864 O 453.916 0.901501 -1.72008 0
M  V30 4865 C 451.046 1.23237 -3.247 0
M  V30 4866 C 450 0.625818 -4.234 0
M  V30 4867 C 449.326 1.76674 -5.04669 0
M  V30 4868 C 450.626 -0.413515 -5.2066 0
M  V30 4869 H 452.32 -0.513184 -2.94969 0
M  V30 4870 H 449.866 -0.248241 -1.41844 0
M  V30 4871 H 451.819 1.75955 -3.82907 0
M  V30 4872 H 450.543 1.97067 -2.60446 0
M  V30 4873 H 449.202 0.120023 -3.66403 0
M  V30 4874 H 448.85 2.49383 -4.36826 0
M  V30 4875 H 448.55 1.36673 -5.71484 0
M  V30 4876 H 450.074 2.29738 -5.65732 0
M  V30 4877 H 451.488 0.0272042 -5.73294 0
M  V30 4878 H 449.885 -0.731825 -5.95621 0
M  V30 4879 H 450.955 -1.31325 -4.66778 0
M  V30 4880 N 452.299 1.55045 -0.282633 0
M  V30 4881 C 453.231 2.2023 0.634924 0
M  V30 4882 C 454.244 1.18931 1.11172 0
M  V30 4883 O 455.433 1.4562 1.03233 0
M  V30 4884 C 452.533 2.82041 1.87899 0
M  V30 4885 C 451.706 4.091 1.54776 0
M  V30 4886 C 450.765 4.54887 2.64507 0
M  V30 4887 O 449.791 5.20496 2.30375 0
M  V30 4888 N 450.993 4.25659 3.94709 0
M  V30 4889 H 453.758 2.99601 0.0769811 0
M  V30 4890 H 451.319 1.61565 -0.104048 0
M  V30 4891 H 453.311 3.09613 2.60619 0
M  V30 4892 H 451.881 2.06618 2.3458 0
M  V30 4893 H 451.101 3.88736 0.654049 0
M  V30 4894 H 452.389 4.9187 1.30158 0
M  V30 4895 H 451.787 3.7306 4.25256 0
M  V30 4896 H 450.344 4.57984 4.63782 0
M  V30 4897 N 453.777 0.010035 1.57597 0
M  V30 4898 C 454.709 -1.00649 2.05918 0
M  V30 4899 C 455.722 -1.30077 0.978964 0
M  V30 4900 O 456.911 -1.26878 1.25556 0
M  V30 4901 C 454.011 -2.33876 2.45265 0
M  V30 4902 C 453.184 -2.23242 3.7614 0
M  V30 4903 C 452.243 -3.39242 4.02245 0
M  V30 4904 O 451.269 -3.1698 4.72771 0
M  V30 4905 N 452.471 -4.6242 3.50924 0
M  V30 4906 H 455.236 -0.594333 2.93748 0
M  V30 4907 H 452.797 -0.17714 1.60928 0
M  V30 4908 H 454.789 -3.1027 2.59836 0
M  V30 4909 H 453.359 -2.66799 1.62902 0
M  V30 4910 H 452.579 -1.31696 3.71551 0
M  V30 4911 H 453.867 -2.13321 4.61922 0
M  V30 4912 H 453.265 -4.83404 2.93832 0
M  V30 4913 H 451.822 -5.36046 3.70807 0
M  V30 4914 N 455.255 -1.55392 -0.262866 0
M  V30 4915 C 456.504 -1.75679 -0.990943 0
M  V30 4916 C 456.817 -0.57097 -1.87081 0
M  V30 4917 O 458.023 -0.656486 -2.63444 0
M  V30 4918 C 456.479 -3.10964 -1.81188 0
M  V30 4919 C 456.087 -4.37146 -0.980188 0
M  V30 4920 C 457.831 -3.40597 -2.53365 0
M  V30 4921 C 455.738 -5.63466 -1.7961 0
M  V30 4922 H 454.668 -0.654868 -0.373716 0
M  V30 4923 H 457.319 -1.81841 -0.246203 0
M  V30 4924 H 455.701 -2.98867 -2.59797 0
M  V30 4925 H 456.875 -4.60187 -0.237558 0
M  V30 4926 H 455.19 -4.14731 -0.372497 0
M  V30 4927 H 457.787 -4.32186 -3.14833 0
M  V30 4928 H 458.13 -2.6119 -3.24169 0
M  V30 4929 H 458.663 -3.53838 -1.81779 0
M  V30 4930 H 455.402 -6.4565 -1.13209 0
M  V30 4931 H 454.922 -5.44552 -2.51443 0
M  V30 4932 H 456.601 -6.02139 -2.36723 0
M  V30 4933 N 456.733 0.527833 -1.48498 0
M  V30 4934 C 458.144 1.10975 -1.50138 0
M  V30 4935 C 458.495 1.943 -0.272378 0
M  V30 4936 O 457.62 2.07319 0.620301 0
M  V30 4937 C 458.215 2.01927 -2.72049 0
M  V30 4938 C 456.774 2.55332 -2.76554 0
M  V30 4939 C 455.921 1.32341 -2.43683 0
M  V30 4940 H 458.872 0.312986 -1.55583 0
M  V30 4941 H 458.893 2.86244 -2.50689 0
M  V30 4942 H 458.405 1.41254 -3.61481 0
M  V30 4943 H 456.506 3.19721 -1.91336 0
M  V30 4944 H 456.619 2.94319 -3.78038 0
M  V30 4945 H 454.983 1.63989 -1.94884 0
M  V30 4946 H 455.766 0.734165 -3.35358 0
M  V30 4947 N 458.211 1.37122 0.776871 0
M  V30 4948 C 459.439 1.3523 1.5659 0
M  V30 4949 C 459.854 -0.0635518 1.88693 0
M  V30 4950 O 459.211 -1.02394 1.51069 0
M  V30 4951 C 459.262 2.18583 2.8793 0
M  V30 4952 O 458.983 3.5465 2.57206 0
M  V30 4953 C 460.484 2.24612 3.82183 0
M  V30 4954 H 457.704 0.4634 0.485285 0
M  V30 4955 H 460.248 1.80392 0.963266 0
M  V30 4956 H 458.403 1.76943 3.4463 0
M  V30 4957 H 458.817 3.98286 3.41275 0
M  V30 4958 H 460.291 2.87267 4.71361 0
M  V30 4959 H 460.768 1.25309 4.20944 0
M  V30 4960 H 461.374 2.66543 3.31414 0
M  V30 4961 N 459.689 -1.00246 1.21608 0
M  V30 4962 C 460.599 -2.12515 0.993709 0
M  V30 4963 C 461.615 -1.73913 -0.0549939 0
M  V30 4964 O 462.791 -2.00943 0.135619 0
M  V30 4965 C 459.856 -3.42083 0.563953 0
M  V30 4966 C 458.917 -3.94843 1.68516 0
M  V30 4967 C 458.15 -5.18226 1.27582 0
M  V30 4968 O 458.373 -5.70201 0.150506 0
M  V30 4969 O 457.307 -5.64497 2.0887 0
M  V30 4970 H 461.133 -2.34152 1.93407 0
M  V30 4971 H 458.718 -1.10891 1.00118 0
M  V30 4972 H 460.6 -4.20073 0.334194 0
M  V30 4973 H 459.275 -3.21828 -0.347665 0
M  V30 4974 H 458.182 -3.18068 1.96935 0
M  V30 4975 H 459.515 -4.19512 2.5743 0
M  V30 4976 N 461.167 -1.02423 -1.1978 0
M  V30 4977 C 462.583 -0.740459 -1.41384 0
M  V30 4978 C 462.783 0.676827 -1.89793 0
M  V30 4979 O 461.839 1.4435 -2.0717 0
M  V30 4980 C 463.152 -1.77264 -2.42895 0
M  V30 4981 C 464.7 -1.79165 -2.56649 0
M  V30 4982 C 465.175 -2.8133 -3.6141 0
M  V30 4983 N 466.666 -2.80118 -3.68901 0
M  V30 4984 C 467.401 -3.55824 -4.49641 0
M  V30 4985 N 466.897 -4.41231 -5.34123 0
M  V30 4986 N 468.69 -3.44387 -4.44246 0
M  V30 4987 H 460.841 -1.9391 -0.866764 0
M  V30 4988 H 463.104 -0.838074 -0.443098 0
M  V30 4989 H 462.81 -2.7884 -2.14339 0
M  V30 4990 H 462.684 -1.59108 -3.42001 0
M  V30 4991 H 465.071 -0.782702 -2.84531 0
M  V30 4992 H 465.152 -2.01396 -1.57713 0
M  V30 4993 H 464.796 -3.82394 -3.34271 0
M  V30 4994 H 464.726 -2.56359 -4.59986 0
M  V30 4995 H 467.217 -2.1817 -3.08562 0
M  V30 4996 H 467.53 -4.95747 -5.92836 0
M  V30 4997 H 465.875 -4.45306 -5.33599 0
M  V30 4998 H 469.066 -2.7708 -3.77285 0
M  V30 4999 H 469.239 -4.0364 -5.06931 0
M  V30 5000 N 462.645 1.35699 -0.801477 0
M  V30 5001 C 463.875 2.02862 -0.3912 0
M  V30 5002 C 464.283 1.60552 1.00099 0
M  V30 5003 O 463.626 0.796215 1.65548 0
M  V30 5004 C 463.688 3.57386 -0.389299 0
M  V30 5005 C 463.352 4.22943 -1.73113 0
M  V30 5006 C 464.349 4.44984 -2.68859 0
M  V30 5007 C 462.034 4.60167 -2.01373 0
M  V30 5008 C 464.028 5.03345 -3.91053 0
M  V30 5009 C 461.715 5.18243 -3.23832 0
M  V30 5010 C 462.713 5.39773 -4.1849 0
M  V30 5011 O 462.401 5.96626 -5.38788 0
M  V30 5012 H 462.133 0.657341 -0.157732 0
M  V30 5013 H 464.687 1.74407 -1.08496 0
M  V30 5014 H 462.917 3.85011 0.361031 0
M  V30 5015 H 464.606 4.059 -0.0020365 0
M  V30 5016 H 465.372 4.1661 -2.48316 0
M  V30 5017 H 461.251 4.42726 -1.28508 0
M  V30 5018 H 464.795 5.20065 -4.64949 0
M  V30 5019 H 460.692 5.46044 -3.44248 0
M  V30 5020 H 461.46 6.15082 -5.40015 0
M  V30 5021 N 464.123 0.554532 1.47522 0
M  V30 5022 C 465.371 0.0294208 2.02079 0
M  V30 5023 C 465.692 -1.32411 1.43151 0
M  V30 5024 O 464.962 -1.863 0.605728 0
M  V30 5025 H 463.542 0.00788672 0.746958 0
M  V30 5026 H 466.204 0.723934 1.80956 0
M  V30 5027 H 465.3 -0.0606745 3.12041 0
M  V30 5028 N 465.601 -1.54893 0.290851 0
M  V30 5029 C 466.85 -1.99111 -0.322113 0
M  V30 5030 C 467.163 -1.18283 -1.55784 0
M  V30 5031 O 468.369 -1.5272 -2.24475 0
M  V30 5032 C 466.825 -3.54442 -0.624438 0
M  V30 5033 C 466.433 -4.44066 0.592373 0
M  V30 5034 C 468.177 -4.07211 -1.19916 0
M  V30 5035 C 466.084 -5.90812 0.263762 0
M  V30 5036 H 465.014 -0.743712 -0.124133 0
M  V30 5037 H 467.665 -1.79132 0.39797 0
M  V30 5038 H 466.047 -3.70281 -1.40384 0
M  V30 5039 H 467.221 -4.39999 1.36886 0
M  V30 5040 H 465.536 -4.02015 1.08502 0
M  V30 5041 H 468.133 -5.14407 -1.45909 0
M  V30 5042 H 468.476 -3.57196 -2.13815 0
M  V30 5043 H 469.009 -3.94873 -0.481687 0
M  V30 5044 H 465.748 -6.44955 1.17105 0
M  V30 5045 H 465.268 -5.97911 -0.475655 0
M  V30 5046 H 466.947 -6.46852 -0.138354 0
M  V30 5047 N 467.08 -0.0183926 -1.57589 0
M  V30 5048 C 468.357 0.700621 -1.82622 0
M  V30 5049 C 468.737 1.90951 -0.90005 0
M  V30 5050 O 468.085 2.28452 0.0469145 0
M  V30 5051 C 468.295 1.08899 -3.31575 0
M  V30 5052 C 469.643 1.48514 -3.9778 0
M  V30 5053 O 470.667 1.18227 -3.36007 0
M  V30 5054 O 469.526 2.04903 -5.06633 0
M  V30 5055 H 466.62 0.342743 -0.752633 0
M  V30 5056 H 469.166 -0.0452548 -1.6964 0
M  V30 5057 H 467.938 0.228113 -3.90635 0
M  V30 5058 H 467.561 1.89338 -3.49624 0
M  V30 5059 N 468.558 1.5553 0.254621 0
M  V30 5060 C 469.798 1.7876 0.991179 0
M  V30 5061 C 470.162 0.586669 1.82817 0
M  V30 5062 O 471.363 0.697585 2.5959 0
M  V30 5063 C 469.634 3.06679 1.83529 0
M  V30 5064 S 471.193 3.511 2.632 0
M  V30 5065 H 468.011 0.627916 0.333531 0
M  V30 5066 H 470.613 1.93766 0.259778 0
M  V30 5067 H 469.317 3.92158 1.20996 0
M  V30 5068 H 468.848 2.94388 2.60958 0
M  V30 5069 H 470.863 3.11823 3.8598 0
M  V30 5070 N 470.036 -0.519951 1.48776 0
M  V30 5071 C 471.285 -1.27175 1.56555 0
M  V30 5072 C 471.598 -1.9401 0.248869 0
M  V30 5073 O 472.804 -2.70725 0.205004 0
M  V30 5074 C 471.26 -2.30811 2.76142 0
M  V30 5075 C 470.868 -1.7 4.14493 0
M  V30 5076 C 472.612 -3.06937 2.9324 0
M  V30 5077 C 470.519 -2.71635 5.25327 0
M  V30 5078 H 469.449 -0.478329 0.582853 0
M  V30 5079 H 472.1 -0.547916 1.75129 0
M  V30 5080 H 470.482 -3.06274 2.51023 0
M  V30 5081 H 471.656 -1.00658 4.49672 0
M  V30 5082 H 469.971 -1.06331 4.02595 0
M  V30 5083 H 472.568 -3.82905 3.73213 0
M  V30 5084 H 472.911 -3.63409 2.03075 0
M  V30 5085 H 473.444 -2.38589 3.18308 0
M  V30 5086 H 470.183 -2.1997 6.1749 0
M  V30 5087 H 469.703 -3.39275 4.94624 0
M  V30 5088 H 471.382 -3.34429 5.53865 0
M  V30 5089 N 471.514 -1.37532 -0.769588 0
M  V30 5090 C 472.447 -1.27839 -1.8903 0
M  V30 5091 C 473.425 -0.158504 -1.61826 0
M  V30 5092 O 474.609 -0.333086 -1.85534 0
M  V30 5093 C 471.736 -0.977072 -3.24301 0
M  V30 5094 C 470.782 -2.11414 -3.70414 0
M  V30 5095 S 471.615 -3.73409 -3.83831 0
M  V30 5096 C 472.771 -3.45432 -5.21946 0
M  V30 5097 H 473.004 -2.22694 -1.96963 0
M  V30 5098 H 470.537 -1.2318 -0.930914 0
M  V30 5099 H 472.495 -0.810049 -4.02428 0
M  V30 5100 H 471.156 -0.0459701 -3.14066 0
M  V30 5101 H 470.349 -1.85837 -4.68488 0
M  V30 5102 H 469.951 -2.24141 -2.99394 0
M  V30 5103 H 472.243 -3.00554 -6.07185 0
M  V30 5104 H 473.186 -4.42841 -5.52537 0
M  V30 5105 H 473.594 -2.80311 -4.89986 0
M  V30 5106 N 472.992 0.995999 -1.22138 0
M  V30 5107 C 473.94 2.10673 -0.985876 0
M  V30 5108 C 474.934 1.69255 0.0699553 0
M  V30 5109 O 476.14 1.79812 -0.0822176 0
M  V30 5110 H 472.515 0.688865 -0.30161 0
M  V30 5111 H 474.486 2.27711 -1.92848 0
M  V30 5112 C 473.235 3.42881 -0.576909 0
M  V30 5113 H 472.558 3.75191 -1.38101 0
M  V30 5114 H 473.998 4.21589 -0.451518 0
M  V30 5115 C 472.457 3.29265 0.713196 0
M  V30 5116 O 472.987 3.60777 1.76643 0
M  V30 5117 N 471.193 2.82456 0.683162 0
M  V30 5118 H 470.74 2.5701 -0.174242 0
M  V30 5119 H 470.698 2.73727 1.54663 0
M  V30 5120 N 474.47 1.03057 1.19235 0
M  V30 5121 C 475.747 0.642608 1.84743 0
M  V30 5122 C 476.127 -0.878577 1.91948 0
M  V30 5123 O 475.475 -1.77597 1.43776 0
M  V30 5124 C 475.685 1.30665 3.23616 0
M  V30 5125 C 477.033 1.43098 3.9976 0
M  V30 5126 O 478.057 1.26396 3.3302 0
M  V30 5127 O 476.916 1.70223 5.19313 0
M  V30 5128 H 474.01 0.223573 0.796206 0
M  V30 5129 H 476.556 1.12883 1.26711 0
M  V30 5130 H 475.328 2.34544 3.13217 0
M  V30 5131 H 474.951 0.808405 3.89295 0
M  V30 5132 N 475.948 -1.35272 0.808662 0
M  V30 5133 C 476.858 -2.33546 0.222079 0
M  V30 5134 C 477.874 -1.6196 -0.636011 0
M  V30 5135 O 479.05 -1.93822 -0.547274 0
M  V30 5136 C 476.115 -3.41148 -0.61795 0
M  V30 5137 C 475.176 -4.28507 0.260875 0
M  V30 5138 C 474.409 -5.3097 -0.539156 0
M  V30 5139 O 474.632 -5.42123 -1.77367 0
M  V30 5140 O 473.566 -6.01858 0.0710526 0
M  V30 5141 H 477.392 -2.85515 1.03512 0
M  V30 5142 H 474.977 -1.38079 0.570495 0
M  V30 5143 H 476.859 -4.06889 -1.09634 0
M  V30 5144 H 475.534 -2.91447 -1.40855 0
M  V30 5145 H 474.441 -3.6574 0.786451 0
M  V30 5146 H 475.774 -4.81611 1.01547 0
M  V30 5147 N 477.426 -0.562348 -1.47226 0
M  V30 5148 C 478.672 -0.0485293 -2.03342 0
M  V30 5149 C 479.027 1.28898 -1.42839 0
M  V30 5150 O 478.32 1.82719 -0.576563 0
M  V30 5151 C 478.514 0.0969817 -3.57268 0
M  V30 5152 C 478.343 -1.22487 -4.32697 0
M  V30 5153 C 477.113 -1.79357 -4.72397 0
M  V30 5154 C 479.311 -2.14332 -4.67511 0
M  V30 5155 N 477.293 -3.05493 -5.32491 0
M  V30 5156 C 478.664 -3.25049 -5.27961 0
M  V30 5157 C 480.719 -2.14263 -4.4944 0
M  V30 5158 C 479.422 -4.35804 -5.72248 0
M  V30 5159 C 481.448 -3.24033 -4.94729 0
M  V30 5160 C 480.81 -4.3347 -5.55233 0
M  V30 5161 H 476.909 -0.0600464 -0.779691 0
M  V30 5162 H 479.493 -0.750769 -1.79643 0
M  V30 5163 H 477.664 0.768353 -3.80724 0
M  V30 5164 H 479.396 0.613333 -4.00025 0
M  V30 5165 H 476.151 -1.33093 -4.54514 0
M  V30 5166 H 476.575 -3.698 -5.67077 0
M  V30 5167 H 481.217 -1.30935 -4.02015 0
M  V30 5168 H 478.935 -5.19888 -6.18661 0
M  V30 5169 H 482.521 -3.25073 -4.82513 0
M  V30 5170 H 481.401 -5.17008 -5.89638 0
M  V30 5171 N 478.904 1.54736 -0.299062 0
M  V30 5172 C 479.837 2.1962 0.619851 0
M  V30 5173 C 480.815 1.16496 1.13434 0
M  V30 5174 O 481.999 1.4513 1.2029 0
M  V30 5175 C 479.126 2.8385 1.84788 0
M  V30 5176 C 478.172 4.00484 1.46679 0
M  V30 5177 S 479.005 5.32926 0.524389 0
M  V30 5178 C 480.161 6.00638 1.76026 0
M  V30 5179 H 480.394 2.97221 0.0686177 0
M  V30 5180 H 477.927 1.54176 -0.0832085 0
M  V30 5181 H 479.885 3.21483 2.55263 0
M  V30 5182 H 478.546 2.06099 2.37028 0
M  V30 5183 H 477.739 4.44201 2.38121 0
M  V30 5184 H 477.341 3.64398 0.842008 0
M  V30 5185 H 479.633 6.21327 2.70109 0
M  V30 5186 H 480.576 6.94805 1.36569 0
M  V30 5187 H 480.984 5.3026 1.93609 0
M  V30 5188 N 480.382 0.0267497 1.57577 0
M  V30 5189 C 481.314 -0.984594 2.06974 0
M  V30 5190 C 482.327 -1.29032 0.992705 0
M  V30 5191 O 483.516 -1.25539 1.26895 0
M  V30 5192 C 480.616 -2.31262 2.47732 0
M  V30 5193 C 479.789 -2.1924 3.78487 0
M  V30 5194 C 478.848 -3.34956 4.05821 0
M  V30 5195 O 477.874 -3.11948 4.76106 0
M  V30 5196 N 479.076 -4.58672 3.55809 0
M  V30 5197 H 481.841 -0.563143 2.94362 0
M  V30 5198 H 479.402 -0.160061 1.61107 0
M  V30 5199 H 481.394 -3.07496 2.63112 0
M  V30 5200 H 479.964 -2.65056 1.65723 0
M  V30 5201 H 479.184 -1.27747 3.72927 0
M  V30 5202 H 480.472 -2.08409 4.64158 0
M  V30 5203 H 479.87 -4.8026 2.98942 0
M  V30 5204 H 478.427 -5.32083 3.76472 0
M  V30 5205 N 481.861 -1.55662 -0.24637 0
M  V30 5206 C 483.109 -1.77168 -0.972411 0
M  V30 5207 C 483.43 -0.590827 -1.85834 0
M  V30 5208 O 482.7 0.393365 -1.9191 0
M  V30 5209 H 481.28 -0.653405 -0.362038 0
M  V30 5210 H 483.942 -1.93101 -0.264189 0
M  V30 5211 H 483.038 -2.68335 -1.59382 0
M  V30 5212 N 483.339 0.512053 -1.4905 0
M  V30 5213 C 484.585 1.26874 -1.58212 0
M  V30 5214 C 484.918 1.9241 -0.263073 0
M  V30 5215 O 484.193 1.80181 0.732476 0
M  V30 5216 C 484.476 2.34428 -2.73341 0
M  V30 5217 C 484.329 1.73466 -4.15006 0
M  V30 5218 C 485.648 3.36073 -2.84154 0
M  V30 5219 H 482.767 0.459924 -0.575881 0
M  V30 5220 H 485.409 0.568587 -1.81293 0
M  V30 5221 H 483.559 2.94146 -2.53792 0
M  V30 5222 H 485.231 1.17661 -4.46042 0
M  V30 5223 H 483.474 1.03921 -4.21168 0
M  V30 5224 H 484.145 2.51426 -4.91415 0
M  V30 5225 H 486.621 2.86332 -3.01916 0
M  V30 5226 H 485.497 4.08703 -3.66406 0
M  V30 5227 H 485.758 3.97725 -1.93048 0
M  V30 5228 N 484.817 1.37938 0.762283 0
M  V30 5229 C 486.228 1.30094 1.33912 0
M  V30 5230 C 486.579 -0.0472026 1.96143 0
M  V30 5231 O 485.704 -0.94917 1.94473 0
M  V30 5232 C 486.299 2.35592 2.43478 0
M  V30 5233 C 484.858 2.31353 2.96905 0
M  V30 5234 C 484.005 2.18919 1.70205 0
M  V30 5235 H 486.956 1.48423 0.561816 0
M  V30 5236 H 486.977 2.00806 3.23199 0
M  V30 5237 H 486.489 3.33701 1.98155 0
M  V30 5238 H 484.59 1.36799 3.46579 0
M  V30 5239 H 484.703 3.25147 3.51875 0
M  V30 5240 H 483.067 1.65624 1.93496 0
M  V30 5241 H 483.85 3.18956 1.26973 0
M  V30 5242 N 486.295 -0.989507 1.22664 0
M  V30 5243 C 487.525 -1.7624 1.0781 0
M  V30 5244 C 487.933 -1.85466 -0.374036 0
M  V30 5245 O 487.276 -1.32645 -1.27087 0
M  V30 5246 C 487.338 -3.21007 1.61849 0
M  V30 5247 C 487.002 -3.35316 3.10503 0
M  V30 5248 C 487.999 -3.22362 4.07896 0
M  V30 5249 C 485.684 -3.60258 3.50028 0
M  V30 5250 C 487.678 -3.34139 5.42798 0
M  V30 5251 C 485.365 -3.71676 4.85078 0
M  V30 5252 C 486.363 -3.58625 5.81272 0
M  V30 5253 O 486.051 -3.69655 7.1387 0
M  V30 5254 H 485.783 -0.560209 0.378341 0
M  V30 5255 H 488.337 -1.25252 1.62792 0
M  V30 5256 H 486.567 -3.73202 1.01279 0
M  V30 5257 H 488.256 -3.80024 1.42606 0
M  V30 5258 H 489.022 -3.03 3.78703 0
M  V30 5259 H 484.901 -3.69492 2.75675 0
M  V30 5260 H 488.445 -3.23869 6.17863 0
M  V30 5261 H 484.342 -3.90545 5.1395 0
M  V30 5262 H 485.11 -3.86507 7.21495 0
M  V30 5263 N 487.773 -1.03688 -1.18687 0
M  V30 5264 C 489.184 -0.766488 -1.70241 0
M  V30 5265 C 489.535 0.713052 -1.82784 0
M  V30 5266 O 488.66 1.55529 -1.50465 0
M  V30 5267 C 489.255 -1.38475 -3.09209 0
M  V30 5268 C 487.814 -1.16276 -3.5799 0
M  V30 5269 C 486.961 -1.4778 -2.34641 0
M  V30 5270 H 489.912 -1.20378 -1.03415 0
M  V30 5271 H 489.933 -0.785939 -3.72295 0
M  V30 5272 H 489.445 -2.46157 -3.00048 0
M  V30 5273 H 487.546 -0.104508 -3.72453 0
M  V30 5274 H 487.659 -1.8571 -4.41643 0
M  V30 5275 H 486.023 -0.897366 -2.38368 0
M  V30 5276 H 486.806 -2.56562 -2.28102 0
M  V30 5277 N 489.251 1.34841 -0.815825 0
M  V30 5278 C 490.479 2.0273 -0.413294 0
M  V30 5279 C 490.894 1.61459 0.978599 0
M  V30 5280 O 490.251 0.816584 1.63212 0
M  V30 5281 C 490.302 3.58058 -0.497676 0
M  V30 5282 O 490.023 3.97832 -1.8347 0
M  V30 5283 C 491.524 4.4321 -0.0891339 0
M  V30 5284 H 488.744 0.649956 -0.166728 0
M  V30 5285 H 491.288 1.72267 -1.10201 0
M  V30 5286 H 489.443 3.87136 0.142886 0
M  V30 5287 H 489.857 4.92501 -1.80396 0
M  V30 5288 H 491.331 5.5164 -0.199274 0
M  V30 5289 H 491.808 4.28432 0.966571 0
M  V30 5290 H 492.414 4.19446 -0.703214 0
M  V30 5291 N 490.729 0.570148 1.46925 0
M  V30 5292 C 492.14 0.1402 1.86173 0
M  V30 5293 C 492.491 -1.29347 1.47526 0
M  V30 5294 O 491.616 -1.97508 0.884292 0
M  V30 5295 C 492.211 0.247661 3.37894 0
M  V30 5296 C 490.77 -0.127332 3.76185 0
M  V30 5297 C 489.917 0.589349 2.70965 0
M  V30 5298 H 492.868 0.779117 1.38259 0
M  V30 5299 H 492.889 -0.530341 3.76786 0
M  V30 5300 H 492.401 1.29121 3.65991 0
M  V30 5301 H 490.502 -1.17149 3.53704 0
M  V30 5302 H 490.615 0.240238 4.78497 0
M  V30 5303 H 488.979 0.0309824 2.54681 0
M  V30 5304 H 489.762 1.6343 3.01903 0
M  V30 5305 N 492.207 -1.54576 0.307264 0
M  V30 5306 C 493.137 -2.26708 -0.55907 0
M  V30 5307 C 494.118 -1.26893 -1.1328 0
M  V30 5308 O 495.303 -1.55677 -1.16097 0
M  V30 5309 C 492.433 -3.01259 -1.72801 0
M  V30 5310 C 491.387 -4.08275 -1.28435 0
M  V30 5311 C 490.713 -4.70575 -2.53895 0
M  V30 5312 C 492.013 -5.2068 -0.411038 0
M  V30 5313 H 493.707 -2.9937 0.042576 0
M  V30 5314 H 491.253 -1.43983 0.0219173 0
M  V30 5315 H 493.206 -3.50444 -2.34023 0
M  V30 5316 H 491.93 -2.26187 -2.356 0
M  V30 5317 H 490.589 -3.59949 -0.695161 0
M  V30 5318 H 490.237 -3.92136 -3.15021 0
M  V30 5319 H 489.937 -5.42854 -2.24908 0
M  V30 5320 H 491.461 -5.22527 -3.15908 0
M  V30 5321 H 492.875 -5.65721 -0.929097 0
M  V30 5322 H 491.272 -5.99716 -0.214664 0
M  V30 5323 H 492.342 -4.81629 0.562287 0
M  V30 5324 N 493.685 -0.035106 -1.57561 0
M  V30 5325 C 494.595 0.960295 -2.14046 0
M  V30 5326 C 495.611 1.3529 -1.0942 0
M  V30 5327 O 496.787 1.43309 -1.41508 0
M  V30 5328 C 493.852 2.22214 -2.66124 0
M  V30 5329 C 492.913 1.8894 -3.85487 0
M  V30 5330 C 492.146 3.09109 -4.35072 0
M  V30 5331 O 492.369 4.21963 -3.83802 0
M  V30 5332 O 491.303 2.91058 -5.26848 0
M  V30 5333 H 495.129 0.509983 -2.99387 0
M  V30 5334 H 492.714 0.185853 -1.48239 0
M  V30 5335 H 494.596 2.96279 -2.99661 0
M  V30 5336 H 493.271 2.66414 -1.83862 0
M  V30 5337 H 492.178 1.12241 -3.56865 0
M  V30 5338 H 493.511 1.49551 -4.6893 0
M  V30 5339 N 495.163 1.55791 0.238111 0
M  V30 5340 C 496.574 1.68383 0.806472 0
M  V30 5341 C 496.925 0.634157 1.85669 0
M  V30 5342 O 496.05 -0.217913 2.153 0
M  V30 5343 C 496.645 3.05268 1.46959 0
M  V30 5344 C 495.204 3.1977 1.98555 0
M  V30 5345 C 494.351 2.64279 0.839763 0
M  V30 5346 H 497.302 1.58694 0.0137535 0
M  V30 5347 H 497.323 3.00203 2.33792 0
M  V30 5348 H 496.835 3.81643 0.704993 0
M  V30 5349 H 494.936 2.48234 2.77868 0
M  V30 5350 H 495.049 4.26788 2.17689 0
M  V30 5351 H 493.413 2.22329 1.24265 0
M  V30 5352 H 494.196 3.43187 0.0881032 0
M  V30 5353 N 496.642 -0.504142 1.49319 0
M  V30 5354 C 497.889 -1.25846 1.58647 0
M  V30 5355 C 498.217 -1.92592 0.27177 0
M  V30 5356 O 497.472 -1.81167 -0.74007 0
M  V30 5357 C 497.771 -2.35021 2.69258 0
M  V30 5358 C 497.437 -1.85755 4.1086 0
M  V30 5359 C 496.099 -1.72038 4.49395 0
M  V30 5360 C 498.451 -1.48844 4.99495 0
M  V30 5361 C 495.779 -1.19783 5.74342 0
M  V30 5362 C 498.131 -0.980422 6.24956 0
M  V30 5363 C 496.795 -0.829622 6.62324 0
M  V30 5364 H 496.065 -0.460505 0.580531 0
M  V30 5365 H 498.712 -0.559716 1.83138 0
M  V30 5366 H 497.017 -3.10672 2.38726 0
M  V30 5367 H 498.714 -2.93083 2.73685 0
M  V30 5368 H 495.304 -1.9739 3.80441 0
M  V30 5369 H 499.488 -1.5829 4.70381 0
M  V30 5370 H 494.744 -1.06817 6.01997 0
M  V30 5371 H 498.918 -0.685608 6.93017 0
M  V30 5372 H 496.545 -0.42253 7.59025 0
M  V30 5373 N 498.12 -1.38341 -0.754957 0
M  V30 5374 C 499.052 -1.31347 -1.87831 0
M  V30 5375 C 500.065 -0.225955 -1.61224 0
M  V30 5376 O 501.254 -0.48341 -1.7183 0
M  V30 5377 C 498.354 -1.01201 -3.23437 0
M  V30 5378 C 497.527 -2.20834 -3.77559 0
M  V30 5379 C 496.586 -1.87454 -4.91678 0
M  V30 5380 O 495.612 -2.59934 -5.06382 0
M  V30 5381 N 496.814 -0.828682 -5.74555 0
M  V30 5382 H 499.579 -2.28147 -1.94342 0
M  V30 5383 H 497.14 -1.32184 -0.934828 0
M  V30 5384 H 499.132 -0.769249 -3.97322 0
M  V30 5385 H 497.702 -0.132011 -3.12321 0
M  V30 5386 H 496.922 -2.61184 -2.95256 0
M  V30 5387 H 498.21 -3.00678 -4.10451 0
M  V30 5388 H 497.608 -0.227591 -5.65242 0
M  V30 5389 H 496.165 -0.645802 -6.48593 0
M  V30 5390 N 499.598 0.982988 -1.23187 0
M  V30 5391 C 500.528 2.09301 -1.03515 0
M  V30 5392 C 501.509 1.70035 0.0471136 0
M  V30 5393 O 502.694 1.93847 -0.117029 0
M  V30 5394 C 499.824 3.4167 -0.622791 0
M  V30 5395 C 498.778 3.94828 -1.65211 0
M  V30 5396 C 498.104 5.23362 -1.09527 0
M  V30 5397 C 499.404 4.2439 -3.04451 0
M  V30 5398 H 501.098 2.26016 -1.96359 0
M  V30 5399 H 498.644 1.08611 -0.945501 0
M  V30 5400 H 500.597 4.18746 -0.472233 0
M  V30 5401 H 499.321 3.24811 0.341329 0
M  V30 5402 H 497.98 3.19895 -1.79061 0
M  V30 5403 H 497.628 5.02852 -0.122211 0
M  V30 5404 H 497.328 5.59895 -1.783 0
M  V30 5405 H 498.852 6.03062 -0.956511 0
M  V30 5406 H 500.266 4.92225 -2.93917 0
M  V30 5407 H 498.663 4.72118 -3.70438 0
M  V30 5408 H 499.733 3.31765 -3.53638 0
M  V30 5409 N 501.076 1.04316 1.18135 0
M  V30 5410 C 502.353 0.662166 1.84051 0
M  V30 5411 C 502.733 -0.858169 1.9287 0
M  V30 5412 O 502.081 -1.76062 1.45652 0
M  V30 5413 C 502.291 1.3409 3.22212 0
M  V30 5414 C 503.639 1.4733 3.9822 0
M  V30 5415 O 504.663 1.29921 3.31661 0
M  V30 5416 O 503.522 1.75722 5.17479 0
M  V30 5417 H 500.616 0.232005 0.79379 0
M  V30 5418 H 503.162 1.1422 1.25506 0
M  V30 5419 H 501.934 2.37853 3.10711 0
M  V30 5420 H 501.557 0.849649 3.88416 0
M  V30 5421 N 502.554 -1.34406 0.822964 0
M  V30 5422 C 503.965 -1.8069 0.469879 0
M  V30 5423 C 504.316 -1.68223 -1.00972 0
M  V30 5424 O 503.441 -1.22226 -1.78577 0
M  V30 5425 C 504.036 -3.28064 0.846118 0
M  V30 5426 C 502.595 -3.72428 0.545402 0
M  V30 5427 C 501.742 -2.56116 1.06301 0
M  V30 5428 H 504.693 -1.22153 1.01313 0
M  V30 5429 H 504.714 -3.80205 0.149922 0
M  V30 5430 H 504.226 -3.37107 1.92304 0
M  V30 5431 H 502.327 -3.68924 -0.522109 0
M  V30 5432 H 502.44 -4.66548 1.0895 0
M  V30 5433 H 500.804 -2.50048 0.484554 0
M  V30 5434 H 501.587 -2.67928 2.14638 0
M  V30 5435 N 504.032 -0.577932 -1.46621 0
M  V30 5436 C 504.979 0.158048 -2.30258 0
M  V30 5437 C 505.949 0.888669 -1.40328 0
M  V30 5438 O 507.134 0.880283 -1.6928 0
M  V30 5439 C 504.274 1.16884 -3.24703 0
M  V30 5440 C 503.387 0.442163 -4.29731 0
M  V30 5441 C 502.522 1.44007 -5.11308 0
M  V30 5442 C 501.561 0.69952 -6.0809 0
M  V30 5443 N 500.698 1.64525 -6.82551 0
M  V30 5444 H 505.538 -0.561242 -2.92667 0
M  V30 5445 H 503.075 -0.288591 -1.44241 0
M  V30 5446 H 505.033 1.7677 -3.779 0
M  V30 5447 H 503.663 1.85591 -2.64113 0
M  V30 5448 H 502.715 -0.271632 -3.79429 0
M  V30 5449 H 504.027 -0.136992 -4.98612 0
M  V30 5450 H 503.181 2.11186 -5.68758 0
M  V30 5451 H 501.92 2.05315 -4.42377 0
M  V30 5452 H 500.925 0.0139217 -5.49798 0
M  V30 5453 H 502.15 0.091894 -6.79038 0
M  V30 5454 H 500.096 2.24653 -6.16334 0
M  V30 5455 H 500.013 1.11878 -7.47676 0
M  V30 5456 H 501.281 2.30754 -7.44562 0
M  V30 5457 N 505.51 1.54411 -0.315457 0
M  V30 5458 C 506.46 2.20772 0.569549 0
M  V30 5459 C 507.444 1.18551 1.08787 0
M  V30 5460 O 508.636 1.44213 1.02624 0
M  V30 5461 C 505.765 2.96293 1.73394 0
M  V30 5462 C 504.851 4.05844 1.2309 0
M  V30 5463 N 505.242 5.03822 0.446927 0
M  V30 5464 C 503.54 4.19648 1.51035 0
M  V30 5465 C 504.241 5.8143 0.17725 0
M  V30 5466 N 503.217 5.38245 0.761118 0
M  V30 5467 H 507.019 2.93877 -0.0368076 0
M  V30 5468 H 504.533 1.61949 -0.120915 0
M  V30 5469 H 506.53 3.42313 2.37965 0
M  V30 5470 H 505.19 2.24708 2.34386 0
M  V30 5471 H 506.201 5.17821 0.0905027 0
M  V30 5472 H 502.878 3.59274 2.1267 0
M  V30 5473 H 504.268 6.70369 -0.45335 0
M  V30 5474 N 506.988 0.0434614 1.5754 0
M  V30 5475 C 507.918 -0.931651 2.14109 0
M  V30 5476 C 508.899 -1.32971 1.06079 0
M  V30 5477 O 510.084 -1.40579 1.33982 0
M  V30 5478 C 507.214 -2.20914 2.67982 0
M  V30 5479 C 506.168 -1.95139 3.80926 0
M  V30 5480 C 505.494 -3.29276 4.21285 0
M  V30 5481 C 506.794 -1.27913 5.06395 0
M  V30 5482 H 508.488 -0.460497 2.95837 0
M  V30 5483 H 506.034 -0.220058 1.42309 0
M  V30 5484 H 507.987 -2.89522 3.06194 0
M  V30 5485 H 506.711 -2.70221 1.83434 0
M  V30 5486 H 505.37 -1.28945 3.43175 0
M  V30 5487 H 505.018 -3.76369 3.33699 0
M  V30 5488 H 504.718 -3.12831 4.97404 0
M  V30 5489 H 506.242 -3.99129 4.62091 0
M  V30 5490 H 507.656 -1.86544 5.42102 0
M  V30 5491 H 506.053 -1.2182 5.87605 0
M  V30 5492 H 507.123 -0.254066 4.84234 0
M  V30 5493 N 508.466 -1.55915 -0.229846 0
M  V30 5494 C 509.691 -1.8296 -0.976743 0
M  V30 5495 C 510.116 -0.622735 -1.77493 0
M  V30 5496 O 509.474 0.428431 -1.76165 0
M  V30 5497 C 509.522 -3.07916 -1.8767 0
M  V30 5498 O 508.626 -2.86028 -2.97088 0
M  V30 5499 H 507.967 -0.603453 -0.277021 0
M  V30 5500 H 510.497 -2.0312 -0.245669 0
M  V30 5501 H 510.507 -3.37802 -2.2881 0
M  V30 5502 H 509.182 -3.95389 -1.28996 0
M  V30 5503 H 507.759 -2.67355 -2.59954 0
M  V30 5504 N 509.944 0.496216 -1.49584 0
M  V30 5505 C 510.854 1.62352 -1.69349 0
M  V30 5506 C 511.87 1.64184 -0.576147 0
M  V30 5507 O 513.046 1.82517 -0.85144 0
M  V30 5508 C 510.111 2.98698 -1.76013 0
M  V30 5509 C 509.172 3.07454 -2.99617 0
M  V30 5510 C 508.405 4.37296 -3.05953 0
M  V30 5511 O 508.628 5.2637 -2.19752 0
M  V30 5512 O 507.562 4.51124 -3.9846 0
M  V30 5513 H 511.388 1.48606 -2.64859 0
M  V30 5514 H 508.973 0.673022 -1.33382 0
M  V30 5515 H 510.855 3.79725 -1.82721 0
M  V30 5516 H 509.53 3.12696 -0.836828 0
M  V30 5517 H 508.437 2.25597 -2.98424 0
M  V30 5518 H 509.77 2.98385 -3.91443 0
M  V30 5519 N 511.423 1.38739 0.74761 0
M  V30 5520 C 512.651 1.38521 1.53686 0
M  V30 5521 C 513.066 -0.0235129 1.88785 0
M  V30 5522 O 512.423 -0.991662 1.53207 0
M  V30 5523 C 512.474 2.24641 2.83229 0
M  V30 5524 O 512.195 3.60026 2.49625 0
M  V30 5525 C 513.696 2.32669 3.77333 0
M  V30 5526 H 510.916 0.473589 0.475347 0
M  V30 5527 H 513.46 1.82395 0.924786 0
M  V30 5528 H 511.615 1.84213 3.40799 0
M  V30 5529 H 512.029 4.05435 3.3275 0
M  V30 5530 H 513.503 2.97201 4.65162 0
M  V30 5531 H 513.98 1.3421 4.18192 0
M  V30 5532 H 514.586 2.73512 3.25685 0
M  V30 5533 N 512.901 -0.976442 1.23707 0
M  V30 5534 C 514.126 -1.75875 1.09922 0
M  V30 5535 C 514.551 -1.84911 -0.34489 0
M  V30 5536 O 513.909 -1.31363 -1.24954 0
M  V30 5537 C 513.957 -3.16179 1.73388 0
M  V30 5538 O 513.061 -4.00124 0.99871 0
M  V30 5539 H 512.402 -0.540954 0.385052 0
M  V30 5540 H 514.932 -1.22546 1.6384 0
M  V30 5541 H 514.942 -3.66741 1.78788 0
M  V30 5542 H 513.617 -3.08917 2.78466 0
M  V30 5543 H 512.194 -3.58624 1.02193 0
M  V30 5544 N 514.379 -1.04941 -1.1758 0
M  V30 5545 C 515.607 -0.778294 -1.91703 0
M  V30 5546 C 516.022 0.665697 -1.76675 0
M  V30 5547 O 515.379 1.45456 -1.10222 0
M  V30 5548 C 515.43 -1.14628 -3.42845 0
M  V30 5549 O 515.151 -2.53359 -3.57409 0
M  V30 5550 C 516.652 -0.900931 -4.34049 0
M  V30 5551 H 513.872 -0.283167 -0.608323 0
M  V30 5552 H 516.416 -1.39942 -1.49119 0
M  V30 5553 H 514.571 -0.569953 -3.83184 0
M  V30 5554 H 514.985 -2.67709 -4.51035 0
M  V30 5555 H 516.459 -1.20817 -5.38616 0
M  V30 5556 H 516.936 0.163966 -4.38894 0
M  V30 5557 H 517.542 -1.46097 -3.99419 0
M  V30 5558 N 515.857 1.33968 -0.830081 0
M  V30 5559 C 516.787 2.31911 -0.271911 0
M  V30 5560 C 517.768 1.58571 0.61556 0
M  V30 5561 O 518.953 1.86514 0.540946 0
M  V30 5562 C 516.083 3.42737 0.561146 0
M  V30 5563 C 515.037 4.27383 -0.229789 0
M  V30 5564 C 514.363 5.29742 0.726463 0
M  V30 5565 C 515.663 5.02 -1.44197 0
M  V30 5566 H 517.357 2.78844 -1.09025 0
M  V30 5567 H 514.903 1.34061 -0.52571 0
M  V30 5568 H 516.856 4.10276 0.961867 0
M  V30 5569 H 515.58 2.94471 1.41261 0
M  V30 5570 H 514.239 3.61456 -0.611964 0
M  V30 5571 H 513.887 4.77736 1.57408 0
M  V30 5572 H 513.587 5.87255 0.20142 0
M  V30 5573 H 515.111 6.00149 1.12489 0
M  V30 5574 H 516.525 5.62355 -1.11488 0
M  V30 5575 H 514.922 5.69122 -1.90317 0
M  V30 5576 H 515.992 4.31281 -2.2164 0
M  V30 5577 N 517.335 0.585699 1.46312 0
M  V30 5578 C 518.282 -0.145835 2.30339 0
M  V30 5579 C 519.252 -0.881215 1.40797 0
M  V30 5580 O 520.437 -0.871293 1.69744 0
M  V30 5581 C 517.577 -1.15161 3.25318 0
M  V30 5582 C 516.69 -0.419367 4.2996 0
M  V30 5583 C 515.825 -1.41293 5.12064 0
M  V30 5584 C 514.864 -0.667261 6.08452 0
M  V30 5585 N 514.001 -1.60903 6.83414 0
M  V30 5586 H 518.841 0.576755 2.92365 0
M  V30 5587 H 516.378 0.296237 1.44086 0
M  V30 5588 H 518.336 -1.74763 3.78832 0
M  V30 5589 H 516.966 -1.84188 2.65094 0
M  V30 5590 H 516.018 0.291751 3.7928 0
M  V30 5591 H 517.33 0.163433 4.98532 0
M  V30 5592 H 516.484 -2.08167 5.6987 0
M  V30 5593 H 515.223 -2.02966 4.43459 0
M  V30 5594 H 514.228 0.0152356 5.49798 0
M  V30 5595 H 515.453 -0.0558817 6.79077 0
M  V30 5596 H 513.399 -2.21381 6.17516 0
M  V30 5597 H 513.316 -1.07911 7.48259 0
M  V30 5598 H 514.584 -2.26802 7.45775 0
M  V30 5599 N 518.813 -1.54241 0.323641 0
M  V30 5600 C 519.723 -2.28033 -0.551205 0
M  V30 5601 C 520.739 -1.32388 -1.12913 0
M  V30 5602 O 521.915 -1.65403 -1.14908 0
M  V30 5603 C 518.98 -3.02382 -1.69606 0
M  V30 5604 C 518.041 -4.13612 -1.14993 0
M  V30 5605 C 517.274 -4.84407 -2.24022 0
M  V30 5606 O 517.497 -4.54716 -3.44368 0
M  V30 5607 O 516.431 -5.71312 -1.89436 0
M  V30 5608 H 520.257 -3.03662 0.048066 0
M  V30 5609 H 517.842 -1.49133 0.0893289 0
M  V30 5610 H 519.724 -3.48941 -2.36259 0
M  V30 5611 H 518.399 -2.29628 -2.28151 0
M  V30 5612 H 517.306 -3.71402 -0.448484 0
M  V30 5613 H 518.639 -4.8841 -0.609608 0
M  V30 5614 N 520.291 -0.0518155 -1.57515 0
M  V30 5615 C 521.201 0.937539 -2.15052 0
M  V30 5616 C 522.217 1.34121 -1.10849 0
M  V30 5617 O 523.393 1.418 -1.4302 0
M  V30 5618 C 520.458 2.19379 -2.68466 0
M  V30 5619 C 519.519 1.84841 -3.87469 0
M  V30 5620 C 518.752 3.04477 -4.38326 0
M  V30 5621 O 518.975 4.17868 -3.88256 0
M  V30 5622 O 517.909 2.85453 -5.29906 0
M  V30 5623 H 521.735 0.478201 -2.99912 0
M  V30 5624 H 519.32 0.17012 -1.48428 0
M  V30 5625 H 521.202 2.93084 -3.02787 0
M  V30 5626 H 519.877 2.64449 -1.86677 0
M  V30 5627 H 518.784 1.08449 -3.58036 0
M  V30 5628 H 520.117 1.44569 -4.7049 0
M  V30 5629 N 521.769 1.56035 0.221574 0
M  V30 5630 C 522.679 1.95581 1.29558 0
M  V30 5631 C 523.695 0.859639 1.51282 0
M  V30 5632 O 524.871 1.16321 1.64413 0
M  V30 5633 C 521.936 2.26447 2.62531 0
M  V30 5634 C 520.997 3.49632 2.4911 0
M  V30 5635 C 520.23 3.79017 3.75742 0
M  V30 5636 O 520.453 3.10077 4.78757 0
M  V30 5637 O 519.387 4.72507 3.72855 0
M  V30 5638 H 523.213 2.8711 0.990035 0
M  V30 5639 H 520.798 1.43244 0.424434 0
M  V30 5640 H 522.68 2.47494 3.41064 0
M  V30 5641 H 521.355 1.38092 2.92766 0
M  V30 5642 H 520.262 3.33864 1.68777 0
M  V30 5643 H 521.595 4.3837 2.23814 0
M  V30 5644 N 523.247 -0.488276 1.49845 0
M  V30 5645 C 524.195 -1.60917 1.67954 0
M  V30 5646 C 525.189 -1.6038 0.54539 0
M  V30 5647 O 526.395 -1.64736 0.7254 0
M  V30 5648 H 522.77 -0.533658 0.529824 0
M  V30 5649 H 524.741 -1.428 2.62013 0
M  V30 5650 C 523.49 -2.98975 1.77509 0
M  V30 5651 H 522.813 -3.00099 2.6416 0
M  V30 5652 H 524.253 -3.76906 1.9421 0
M  V30 5653 C 522.712 -3.3282 0.522745 0
M  V30 5654 O 523.242 -4.00208 -0.345866 0
M  V30 5655 N 521.448 -2.8808 0.381882 0
M  V30 5656 H 520.995 -2.33415 1.08974 0
M  V30 5657 H 520.953 -3.11091 -0.454929 0
M  V30 5658 N 524.725 -1.39134 -0.740242 0
M  V30 5659 C 525.635 -1.39697 -1.88473 0
M  V30 5660 C 526.651 -0.292403 -1.71526 0
M  V30 5661 O 527.827 -0.533021 -1.94219 0
M  V30 5662 C 524.892 -1.23382 -3.24003 0
M  V30 5663 C 523.953 -2.43763 -3.53381 0
M  V30 5664 C 523.186 -2.28216 -4.82445 0
M  V30 5665 O 523.409 -1.28288 -5.55786 0
M  V30 5666 O 522.343 -3.1709 -5.11603 0
M  V30 5667 H 526.169 -2.36159 -1.90952 0
M  V30 5668 H 523.754 -1.20194 -0.887346 0
M  V30 5669 H 525.636 -1.16395 -4.05006 0
M  V30 5670 H 524.311 -0.300121 -3.22306 0
M  V30 5671 H 523.218 -2.56325 -2.72485 0
M  V30 5672 H 524.551 -3.35808 -3.59852 0
M  V30 5673 N 526.204 0.969867 -1.24223 0
M  V30 5674 C 527.45 1.7151 -1.08223 0
M  V30 5675 C 527.783 1.90478 0.37838 0
M  V30 5676 O 527.058 1.4647 1.27971 0
M  V30 5677 C 527.341 3.10714 -1.82013 0
M  V30 5678 C 527.194 2.9925 -3.35811 0
M  V30 5679 C 528.513 4.10332 -1.59108 0
M  V30 5680 H 525.632 0.622499 -0.394543 0
M  V30 5681 H 528.274 1.1284 -1.52863 0
M  V30 5682 H 526.424 3.608 -1.44068 0
M  V30 5683 H 528.096 2.56608 -3.83341 0
M  V30 5684 H 526.339 2.35512 -3.64303 0
M  V30 5685 H 527.01 3.97857 -3.82641 0
M  V30 5686 H 529.486 3.69097 -1.92111 0
M  V30 5687 H 528.362 5.05804 -2.13198 0
M  V30 5688 H 528.623 4.38926 -0.528832 0
M  V30 5689 N 527.682 1.05563 1.17022 0
M  V30 5690 C 528.629 0.659893 2.21165 0
M  V30 5691 C 529.599 -0.339813 1.62587 0
M  V30 5692 O 530.784 -0.230378 1.89404 0
M  V30 5693 C 527.924 0.0447297 3.45071 0
M  V30 5694 C 527.037 1.09372 4.17926 0
M  V30 5695 C 526.172 0.445481 5.29329 0
M  V30 5696 C 525.211 1.47852 5.93975 0
M  V30 5697 N 524.348 0.854172 6.96885 0
M  V30 5698 H 529.188 1.55243 2.54369 0
M  V30 5699 H 526.725 0.776336 1.24946 0
M  V30 5700 H 528.683 -0.329404 4.15898 0
M  V30 5701 H 527.313 -0.811244 3.1244 0
M  V30 5702 H 526.365 1.58564 3.45777 0
M  V30 5703 H 527.677 1.87773 4.62107 0
M  V30 5704 H 526.831 0.0179688 6.06697 0
M  V30 5705 H 525.57 -0.370481 4.86291 0
M  V30 5706 H 524.575 1.91601 5.15334 0
M  V30 5707 H 525.8 2.29645 6.39093 0
M  V30 5708 H 523.746 0.0587882 6.55974 0
M  V30 5709 H 523.663 1.57567 7.39397 0
M  V30 5710 H 524.931 0.451559 7.78191 0
M  V30 5711 N 529.16 -1.33526 0.837174 0
M  V30 5712 C 530.385 -2.0258 0.444545 0
M  V30 5713 C 530.81 -1.6258 -0.946006 0
M  V30 5714 O 530.168 -0.817548 -1.6182 0
M  V30 5715 C 530.216 -3.5605 0.571006 0
M  V30 5716 O 529.32 -4.10422 -0.403431 0
M  V30 5717 H 528.661 -0.638866 0.180958 0
M  V30 5718 H 531.191 -1.70462 1.13154 0
M  V30 5719 H 531.201 -4.05488 0.452024 0
M  V30 5720 H 529.876 -3.84509 1.58512 0
M  V30 5721 H 528.453 -3.72113 -0.242147 0
M  V30 5722 N 530.638 -0.59345 -1.46 0
M  V30 5723 C 531.866 -0.0890934 -2.06708 0
M  V30 5724 C 532.281 1.2205 -1.44046 0
M  V30 5725 O 531.638 1.74029 -0.549551 0
M  V30 5726 C 531.689 0.0720263 -3.61428 0
M  V30 5727 O 531.41 -1.18574 -4.21748 0
M  V30 5728 C 532.911 0.609487 -4.3909 0
M  V30 5729 H 530.131 -0.0623628 -0.668096 0
M  V30 5730 H 532.675 -0.817171 -1.87464 0
M  V30 5731 H 530.83 0.750369 -3.80063 0
M  V30 5732 H 531.244 -1.0064 -5.14754 0
M  V30 5733 H 532.718 0.671363 -5.47902 0
M  V30 5734 H 533.195 1.62878 -4.07882 0
M  V30 5735 H 533.801 -0.03434 -4.25286 0
M  V30 5736 N 532.116 1.54067 -0.331816 0
M  V30 5737 C 533.046 2.27569 0.522932 0
M  V30 5738 C 534.027 1.28679 1.11247 0
M  V30 5739 O 535.212 1.57504 1.13605 0
M  V30 5740 C 532.342 3.0397 1.67987 0
M  V30 5741 C 531.296 4.10267 1.21924 0
M  V30 5742 C 530.622 4.74555 2.46377 0
M  V30 5743 C 531.922 5.21268 0.32815 0
M  V30 5744 H 533.616 2.99264 -0.0901977 0
M  V30 5745 H 531.162 1.4393 -0.044821 0
M  V30 5746 H 533.115 3.54123 2.28418 0
M  V30 5747 H 531.839 2.29906 2.31971 0
M  V30 5748 H 530.498 3.61009 0.637809 0
M  V30 5749 H 530.146 3.97098 3.08743 0
M  V30 5750 H 529.846 5.46363 2.16243 0
M  V30 5751 H 531.37 5.27487 3.07555 0
M  V30 5752 H 532.784 5.67128 0.838978 0
M  V30 5753 H 531.181 5.99982 0.119228 0
M  V30 5754 H 532.251 4.80673 -0.638839 0
M  V30 5755 N 533.594 0.0601682 1.57485 0
M  V30 5756 C 534.504 -0.926121 2.15546 0
M  V30 5757 C 535.52 -1.33532 1.11558 0
M  V30 5758 O 536.696 -1.4104 1.4377 0
M  V30 5759 C 533.761 -2.17952 2.69625 0
M  V30 5760 C 532.822 -1.82783 3.88444 0
M  V30 5761 C 532.055 -3.02148 4.39935 0
M  V30 5762 O 532.278 -4.15803 3.90466 0
M  V30 5763 O 531.212 -2.82639 5.31412 0
M  V30 5764 H 535.038 -0.462289 3.00161 0
M  V30 5765 H 532.623 -0.162246 1.48516 0
M  V30 5766 H 534.505 -2.91474 3.04337 0
M  V30 5767 H 533.18 -2.63456 1.88077 0
M  V30 5768 H 532.087 -1.06549 3.58606 0
M  V30 5769 H 533.42 -1.42072 4.7125 0
M  V30 5770 N 535.072 -1.5615 -0.213296 0
M  V30 5771 C 536.022 -1.89485 -1.26804 0
M  V30 5772 C 537.006 -0.758713 -1.41889 0
M  V30 5773 O 538.198 -1.02127 -1.44565 0
M  V30 5774 C 535.327 -2.22219 -2.61675 0
M  V30 5775 C 534.413 -3.42245 -2.50458 0
M  V30 5776 N 534.804 -4.60645 -2.089 0
M  V30 5777 C 533.102 -3.46023 -2.81397 0
M  V30 5778 C 533.803 -5.42805 -2.09135 0
M  V30 5779 N 532.779 -4.82732 -2.49941 0
M  V30 5780 H 536.581 -2.78537 -0.937771 0
M  V30 5781 H 534.095 -1.56826 -0.421824 0
M  V30 5782 H 536.092 -2.44278 -3.37837 0
M  V30 5783 H 534.752 -1.34484 -2.95541 0
M  V30 5784 H 535.763 -4.85651 -1.79899 0
M  V30 5785 H 532.44 -2.68654 -3.1958 0
M  V30 5786 H 533.83 -6.47601 -1.79059 0
M  V30 5787 N 536.55 0.480323 -1.50102 0
M  V30 5788 C 537.48 1.58769 -1.71215 0
M  V30 5789 C 538.461 1.60583 -0.560997 0
M  V30 5790 O 539.646 1.76996 -0.799127 0
M  V30 5791 C 536.776 2.97148 -1.79778 0
M  V30 5792 C 535.73 3.10201 -2.94888 0
M  V30 5793 C 535.056 4.50137 -2.88584 0
M  V30 5794 C 536.356 2.88283 -4.35534 0
M  V30 5795 H 538.05 1.41354 -2.6393 0
M  V30 5796 H 535.596 0.678591 -1.27008 0
M  V30 5797 H 537.549 3.74536 -1.93133 0
M  V30 5798 H 536.273 3.15699 -0.836772 0
M  V30 5799 H 534.932 2.35244 -2.81169 0
M  V30 5800 H 534.58 4.65593 -1.90349 0
M  V30 5801 H 534.28 4.59808 -3.65856 0
M  V30 5802 H 535.804 5.29558 -3.03976 0
M  V30 5803 H 537.218 3.55427 -4.49827 0
M  V30 5804 H 535.615 3.09408 -5.14186 0
M  V30 5805 H 536.685 1.84219 -4.48544 0
M  V30 5806 N 538.028 1.39524 0.732853 0
M  V30 5807 C 539.276 1.36594 1.48951 0
M  V30 5808 C 539.597 -0.0367507 1.94965 0
M  V30 5809 O 538.867 -0.988391 1.69138 0
M  V30 5810 H 537.447 0.502673 0.552566 0
M  V30 5811 H 540.109 1.74411 0.869869 0
M  V30 5812 H 539.205 2.03 2.3706 0
M  V30 5813 N 539.506 -0.963266 1.24736 0
M  V30 5814 C 540.755 -1.70115 1.08369 0
M  V30 5815 C 541.068 -1.91939 -0.376688 0
M  V30 5816 O 542.274 -2.6334 -0.660624 0
M  V30 5817 C 540.73 -3.06218 1.89099 0
M  V30 5818 C 540.338 -2.92221 3.39574 0
M  V30 5819 C 542.082 -3.83848 1.81275 0
M  V30 5820 C 539.989 -4.23662 4.12631 0
M  V30 5821 H 538.919 -0.637944 0.401924 0
M  V30 5822 H 541.57 -1.07304 1.48856 0
M  V30 5823 H 539.952 -3.69884 1.41429 0
M  V30 5824 H 541.126 -2.37541 3.94856 0
M  V30 5825 H 539.441 -2.28054 3.48397 0
M  V30 5826 H 542.038 -4.81188 2.33158 0
M  V30 5827 H 542.381 -4.08949 0.778895 0
M  V30 5828 H 542.914 -3.26918 2.26649 0
M  V30 5829 H 539.653 -4.03753 5.16395 0
M  V30 5830 H 539.173 -4.78141 3.62135 0
M  V30 5831 H 540.852 -4.92256 4.19873 0
M  V30 5832 N 540.985 -1.06182 -1.16461 0
M  V30 5833 C 542.213 -0.798583 -1.90867 0
M  V30 5834 C 542.628 0.646921 -1.77371 0
M  V30 5835 O 541.985 1.44279 -1.11758 0
M  V30 5836 C 542.036 -1.18258 -3.4161 0
M  V30 5837 O 541.757 -2.57135 -3.54701 0
M  V30 5838 C 543.258 -0.946917 -4.33069 0
M  V30 5839 H 540.478 -0.289603 -0.605286 0
M  V30 5840 H 543.022 -1.41515 -1.47627 0
M  V30 5841 H 541.177 -0.610562 -3.82558 0
M  V30 5842 H 541.591 -2.72477 -4.4817 0
M  V30 5843 H 543.065 -1.26523 -5.37304 0
M  V30 5844 H 543.542 0.117406 -4.39043 0
M  V30 5845 H 544.148 -1.50326 -3.97847 0
M  V30 5846 N 542.463 1.3308 -0.844243 0
M  V30 5847 C 543.373 2.32876 -0.283922 0
M  V30 5848 C 544.389 1.63589 0.592846 0
M  V30 5849 O 545.565 1.95205 0.495693 0
M  V30 5850 C 542.63 3.42667 0.527283 0
M  V30 5851 C 541.691 4.27664 -0.374394 0
M  V30 5852 C 540.924 5.32212 0.39819 0
M  V30 5853 O 541.147 5.46635 1.62932 0
M  V30 5854 O 540.081 6.01458 -0.2306 0
M  V30 5855 H 543.907 2.82671 -1.11045 0
M  V30 5856 H 541.492 1.36518 -0.606903 0
M  V30 5857 H 543.374 4.09652 0.988078 0
M  V30 5858 H 542.049 2.95079 1.33078 0
M  V30 5859 H 540.956 3.63526 -0.883144 0
M  V30 5860 H 542.289 4.78749 -1.1428 0
M  V30 5861 N 543.941 0.601185 1.45683 0
M  V30 5862 C 544.851 -0.123395 2.34275 0
M  V30 5863 C 545.867 -0.86702 1.5086 0
M  V30 5864 O 547.043 -0.826049 1.8368 0
M  V30 5865 C 544.108 -1.11237 3.2837 0
M  V30 5866 C 543.169 -0.371405 4.2769 0
M  V30 5867 C 542.402 -1.31327 5.1729 0
M  V30 5868 O 542.625 -2.55078 5.10188 0
M  V30 5869 O 541.559 -0.813811 5.96373 0
M  V30 5870 H 545.385 0.604483 2.97623 0
M  V30 5871 H 542.97 0.361477 1.44961 0
M  V30 5872 H 544.852 -1.68214 3.8637 0
M  V30 5873 H 543.527 -1.82139 2.67595 0
M  V30 5874 H 542.434 0.24067 3.73325 0
M  V30 5875 H 543.767 0.296998 4.91303 0
M  V30 5876 N 545.419 -1.53889 0.339982 0
M  V30 5877 C 546.369 -2.2165 -0.534354 0
M  V30 5878 C 547.353 -1.20266 -1.06887 0
M  V30 5879 O 548.545 -1.45827 -1.00316 0
M  V30 5880 C 545.674 -2.99014 -1.68659 0
M  V30 5881 C 544.76 -4.07751 -1.16618 0
M  V30 5882 N 545.151 -5.04469 -0.366717 0
M  V30 5883 C 543.449 -4.21998 -1.4434 0
M  V30 5884 C 544.15 -5.81638 -0.0847275 0
M  V30 5885 N 543.126 -5.39388 -0.675391 0
M  V30 5886 H 546.928 -2.93781 0.0835562 0
M  V30 5887 H 544.442 -1.61736 0.146665 0
M  V30 5888 H 546.439 -3.46056 -2.32489 0
M  V30 5889 H 545.099 -2.28408 -2.30781 0
M  V30 5890 H 546.11 -5.17899 -0.00811038 0
M  V30 5891 H 542.787 -3.62612 -2.06928 0
M  V30 5892 H 544.177 -6.69563 0.559943 0
M  V30 5893 N 546.897 -0.0685191 -1.57451 0
M  V30 5894 C 548.146 0.600898 -1.92541 0
M  V30 5895 C 548.459 1.70967 -0.950239 0
M  V30 5896 O 549.665 2.43844 -1.19384 0
M  V30 5897 C 548.121 1.12019 -3.42023 0
M  V30 5898 C 547.729 0.0426028 -4.4798 0
M  V30 5899 C 549.473 1.76386 -3.86119 0
M  V30 5900 C 547.38 0.575759 -5.88591 0
M  V30 5901 H 546.31 0.228225 -0.71863 0
M  V30 5902 H 548.961 -0.140223 -1.82963 0
M  V30 5903 H 547.343 1.91418 -3.46663 0
M  V30 5904 H 548.517 -0.73182 -4.54952 0
M  V30 5905 H 546.832 -0.504642 -4.13331 0
M  V30 5906 H 549.429 2.17302 -4.88553 0
M  V30 5907 H 549.772 2.62255 -3.23308 0
M  V30 5908 H 550.305 1.03615 -3.84069 0
M  V30 5909 H 547.044 -0.245691 -6.55039 0
M  V30 5910 H 546.564 1.31778 -5.85145 0
M  V30 5911 H 548.243 1.0532 -6.3837 0
M  V30 5912 N 548.375 1.56261 0.205012 0
M  V30 5913 C 549.791 1.49623 0.555433 0
M  V30 5914 C 549.991 0.766719 1.86343 0
M  V30 5915 O 549.047 0.313158 2.50551 0
M  V30 5916 C 550.36 2.94253 0.619347 0
M  V30 5917 C 551.908 3.04868 0.708855 0
M  V30 5918 C 552.383 4.50888 0.803969 0
M  V30 5919 N 553.874 4.54999 0.867758 0
M  V30 5920 C 554.609 5.65284 0.96135 0
M  V30 5921 N 554.105 6.85282 1.01786 0
M  V30 5922 N 555.898 5.53174 0.997771 0
M  V30 5923 H 548.049 2.0211 -0.653094 0
M  V30 5924 H 550.312 0.919333 -0.231366 0
M  V30 5925 H 550.018 3.50643 -0.272458 0
M  V30 5926 H 549.892 3.47063 1.47741 0
M  V30 5927 H 552.279 2.48532 1.5911 0
M  V30 5928 H 552.36 2.55199 -0.175205 0
M  V30 5929 H 552.004 5.07846 -0.0738798 0
M  V30 5930 H 551.934 4.98279 1.70369 0
M  V30 5931 H 554.425 3.68588 0.833735 0
M  V30 5932 H 554.738 7.65081 1.08951 0
M  V30 5933 H 553.083 6.8796 0.986706 0
M  V30 5934 H 556.274 4.5835 0.950392 0
M  V30 5935 H 556.447 6.39151 1.06725 0
M  V30 5936 N 549.853 -0.472356 1.50355 0
M  V30 5937 C 550.801 -1.59126 1.69651 0
M  V30 5938 C 551.795 -1.59793 0.56237 0
M  V30 5939 O 553.001 -1.63957 0.742832 0
M  V30 5940 H 549.376 -0.528008 0.535454 0
M  V30 5941 H 551.347 -1.40013 2.63513 0
M  V30 5942 C 550.096 -2.97075 1.8067 0
M  V30 5943 H 549.419 -2.9728 2.67329 0
M  V30 5944 H 550.859 -3.74825 1.98197 0
M  V30 5945 C 549.318 -3.32247 0.558016 0
M  V30 5946 O 549.848 -4.00553 -0.303399 0
M  V30 5947 N 548.054 -2.87659 0.412415 0
M  V30 5948 H 547.601 -2.32246 1.11443 0
M  V30 5949 H 547.559 -3.11556 -0.421908 0
M  V30 5950 N 551.331 -1.39911 -0.725443 0
M  V30 5951 C 552.279 -1.39552 -1.86086 0
M  V30 5952 C 553.273 -0.277334 -1.67114 0
M  V30 5953 O 554.479 -0.447865 -1.74339 0
M  V30 5954 H 550.854 -0.435993 -0.612711 0
M  V30 5955 H 552.825 -2.35305 -1.83505 0
M  V30 5956 C 551.574 -1.26529 -3.2386 0
M  V30 5957 H 550.897 -2.11845 -3.3906 0
M  V30 5958 H 552.337 -1.30336 -4.03471 0
M  V30 5959 C 550.796 0.0254168 -3.3689 0
M  V30 5960 O 551.326 0.992048 -3.89257 0
M  V30 5961 N 549.532 0.0916528 -2.90455 0
M  V30 5962 H 549.079 -0.695675 -2.48028 0
M  V30 5963 H 549.037 0.954745 -2.99553 0
M  V30 5964 N 552.809 0.956637 -1.25245 0
M  V30 5965 C 553.741 2.05628 -1.01242 0
M  V30 5966 C 554.754 1.62785 0.0219579 0
M  V30 5967 O 555.943 1.77184 -0.216365 0
M  V30 5968 C 553.043 3.35069 -0.508161 0
M  V30 5969 C 552.216 4.06761 -1.60823 0
M  V30 5970 C 551.275 5.14473 -1.1047 0
M  V30 5971 O 550.301 5.40033 -1.79868 0
M  V30 5972 N 551.503 5.80474 0.0550773 0
M  V30 5973 H 554.268 2.2679 -1.95925 0
M  V30 5974 H 551.829 1.12505 -1.16423 0
M  V30 5975 H 553.821 4.044 -0.155819 0
M  V30 5976 H 552.391 3.10694 0.344683 0
M  V30 5977 H 551.611 3.31555 -2.13224 0
M  V30 5978 H 552.899 4.51418 -2.34733 0
M  V30 5979 H 552.297 5.62125 0.635004 0
M  V30 5980 H 550.854 6.50868 0.348469 0
M  V30 5981 N 554.287 1.06798 1.15896 0
M  V30 5982 C 555.535 0.786211 1.8618 0
M  V30 5983 C 555.856 -0.689547 1.82401 0
M  V30 5984 O 555.126 -1.49913 1.26107 0
M  V30 5985 H 553.706 0.287843 0.689315 0
M  V30 5986 H 556.368 1.35055 1.40521 0
M  V30 5987 H 555.464 1.1157 2.91477 0
M  V30 5988 N 555.766 -1.3263 0.851289 0
M  V30 5989 C 557.182 -1.50162 0.5407 0
M  V30 5990 C 557.382 -1.78788 -0.929369 0
M  V30 5991 O 556.438 -1.85545 -1.71258 0
M  V30 5992 C 557.751 -2.64803 1.42478 0
M  V30 5993 C 559.299 -2.78688 1.42485 0
M  V30 5994 C 559.774 -3.96405 2.29407 0
M  V30 5995 N 561.265 -4.0366 2.27184 0
M  V30 5996 C 562 -4.93971 2.9117 0
M  V30 5997 N 561.496 -5.89313 3.64256 0
M  V30 5998 N 563.289 -4.87066 2.80576 0
M  V30 5999 H 555.44 -1.12315 1.80275 0
M  V30 6000 H 557.703 -0.553266 0.769806 0
M  V30 6001 H 557.409 -2.50368 2.46999 0
M  V30 6002 H 557.283 -3.60506 1.10974 0
M  V30 6003 H 559.67 -2.92547 0.387304 0
M  V30 6004 H 559.751 -1.83708 1.78002 0
M  V30 6005 H 559.395 -3.83304 3.33228 0
M  V30 6006 H 559.325 -4.90654 1.91224 0
M  V30 6007 H 561.816 -3.35435 1.74045 0
M  V30 6008 H 562.129 -6.54913 4.10255 0
M  V30 6009 H 560.474 -5.8935 3.68364 0
M  V30 6010 H 563.665 -4.11552 2.23031 0
M  V30 6011 H 563.838 -5.57248 3.30725 0
M  V30 6012 N 557.244 -0.608902 -1.45362 0
M  V30 6013 C 558.521 -0.0365378 -1.95566 0
M  V30 6014 C 558.901 1.43169 -1.55131 0
M  V30 6015 O 558.249 2.1349 -0.814513 0
M  V30 6016 C 558.459 -0.236026 -3.48201 0
M  V30 6017 C 559.807 -0.117518 -4.24437 0
M  V30 6018 O 560.831 -0.166217 -3.55812 0
M  V30 6019 O 559.69 -0.00372127 -5.465 0
M  V30 6020 H 556.784 0.0349874 -0.82626 0
M  V30 6021 H 559.33 -0.679055 -1.55521 0
M  V30 6022 H 558.102 -1.25569 -3.70605 0
M  V30 6023 H 557.725 0.441691 -3.95139 0
M  V30 6024 N 558.722 1.53707 -0.348139 0
M  V30 6025 C 559.685 2.23812 0.494058 0
M  V30 6026 C 560.685 1.23989 1.02388 0
M  V30 6027 O 561.875 1.48395 0.912396 0
M  V30 6028 C 559.007 2.96133 1.68872 0
M  V30 6029 H 560.2 2.99663 -0.119141 0
M  V30 6030 H 557.753 1.55983 -0.0995539 0
M  V30 6031 H 558.488 2.24481 2.34049 0
M  V30 6032 H 558.273 3.69357 1.31596 0
M  V30 6033 H 559.763 3.49475 2.28597 0
M  V30 6034 N 560.2 0.0768682 1.57412 0
M  V30 6035 C 561.616 -0.279772 1.57129 0
M  V30 6036 C 561.816 -1.69688 1.08666 0
M  V30 6037 O 560.872 -2.40953 0.754843 0
M  V30 6038 C 562.185 -0.0848055 3.0058 0
M  V30 6039 C 563.733 -0.153954 3.12621 0
M  V30 6040 C 564.208 0.0127946 4.57998 0
M  V30 6041 N 565.699 -0.0426435 4.6318 0
M  V30 6042 C 566.434 0.0618892 5.73367 0
M  V30 6043 N 565.93 0.220229 6.9245 0
M  V30 6044 N 567.723 0.00446072 5.621 0
M  V30 6045 H 559.874 1.00297 1.87228 0
M  V30 6046 H 562.137 0.391565 0.863354 0
M  V30 6047 H 561.843 0.89325 3.40168 0
M  V30 6048 H 561.717 -0.834961 3.67843 0
M  V30 6049 H 564.104 -1.1225 2.72917 0
M  V30 6050 H 564.185 0.627389 2.47987 0
M  V30 6051 H 563.829 0.978128 4.98392 0
M  V30 6052 H 563.759 -0.788016 5.20671 0
M  V30 6053 H 566.25 -0.163226 3.77547 0
M  V30 6054 H 566.563 0.291999 7.72248 0
M  V30 6055 H 564.908 0.255658 6.9453 0
M  V30 6056 H 568.099 -0.117979 4.67951 0
M  V30 6057 H 568.272 0.0893796 6.47938 0
M  V30 6058 N 561.678 -1.56367 -0.196722 0
M  V30 6059 C 562.903 -1.84991 -0.937714 0
M  V30 6060 C 563.328 -0.660244 -1.76132 0
M  V30 6061 O 562.686 0.390967 -1.77034 0
M  V30 6062 C 562.734 -3.11828 -1.81096 0
M  V30 6063 O 561.838 -2.92266 -2.90955 0
M  V30 6064 H 561.179 -0.609193 -0.264159 0
M  V30 6065 H 563.709 -2.03595 -0.202529 0
M  V30 6066 H 563.719 -3.42579 -2.21594 0
M  V30 6067 H 562.394 -3.98037 -1.2058 0
M  V30 6068 H 560.971 -2.72809 -2.54224 0
M  V30 6069 N 563.156 0.464375 -1.50603 0
M  V30 6070 C 564.381 1.24372 -1.65971 0
M  V30 6071 C 564.806 1.84901 -0.345453 0
M  V30 6072 O 564.164 1.67596 0.691457 0
M  V30 6073 C 564.212 2.32331 -2.7578 0
M  V30 6074 O 563.316 3.37146 -2.375 0
M  V30 6075 H 562.657 0.365604 -0.554283 0
M  V30 6076 H 565.187 0.55183 -1.97018 0
M  V30 6077 H 565.197 2.77539 -2.99059 0
M  V30 6078 H 563.872 1.87648 -3.71162 0
M  V30 6079 H 562.449 2.97602 -2.24694 0
M  V30 6080 N 564.634 1.40294 0.718013 0
M  V30 6081 C 565.883 1.37746 1.4734 0
M  V30 6082 C 566.196 -0.0180754 1.95592 0
M  V30 6083 O 567.402 -0.166166 2.70991 0
M  V30 6084 C 565.858 2.4208 2.66318 0
M  V30 6085 C 565.466 3.87432 2.24945 0
M  V30 6086 C 567.21 2.48635 3.44065 0
M  V30 6087 C 565.117 4.83368 3.40748 0
M  V30 6088 H 564.047 0.512165 0.553356 0
M  V30 6089 H 566.698 1.66019 0.781661 0
M  V30 6090 H 565.08 2.06903 3.3765 0
M  V30 6091 H 566.254 4.3174 1.6105 0
M  V30 6092 H 564.569 3.8433 1.60249 0
M  V30 6093 H 567.166 3.17499 4.30231 0
M  V30 6094 H 567.509 1.51611 3.87711 0
M  V30 6095 H 568.042 2.82791 2.79775 0
M  V30 6096 H 564.781 5.81716 3.02136 0
M  V30 6097 H 564.301 4.43726 4.03568 0
M  V30 6098 H 565.98 5.03074 4.06848 0
M  V30 6099 N 566.112 -0.949982 1.2575 0
M  V30 6100 C 567.34 -1.72972 1.13527 0
M  V30 6101 C 567.755 -1.8623 -0.310453 0
M  V30 6102 O 567.112 -1.36336 -1.2132 0
M  V30 6103 C 567.163 -3.14108 1.78936 0
M  V30 6104 O 566.884 -3.01493 3.17858 0
M  V30 6105 C 568.385 -4.08338 1.72554 0
M  V30 6106 H 565.605 -0.541864 0.395758 0
M  V30 6107 H 568.149 -1.19151 1.66202 0
M  V30 6108 H 566.304 -3.64858 1.30221 0
M  V30 6109 H 566.718 -3.90559 3.50092 0
M  V30 6110 H 568.192 -5.04963 2.22973 0
M  V30 6111 H 568.669 -4.33742 0.690251 0
M  V30 6112 H 569.275 -3.63506 2.2078 0
M  V30 6113 N 567.59 -1.07411 -1.15328 0
M  V30 6114 C 568.838 -0.796073 -1.85761 0
M  V30 6115 C 569.159 0.679864 -1.82764 0
M  V30 6116 O 568.429 1.49242 -1.269 0
M  V30 6117 H 567.009 -0.291495 -0.687779 0
M  V30 6118 H 569.671 -1.35799 -1.39802 0
M  V30 6119 H 568.767 -1.13114 -2.90881 0
M  V30 6120 N 569.068 1.32177 -0.85831 0
M  V30 6121 C 570.314 1.97417 -0.46417 0
M  V30 6122 C 570.647 1.67746 0.978514 0
M  V30 6123 O 569.922 0.967654 1.68721 0
M  V30 6124 C 570.205 3.53069 -0.708094 0
M  V30 6125 C 570.058 3.92357 -2.19946 0
M  V30 6126 C 571.377 4.39783 -0.166881 0
M  V30 6127 H 568.496 0.717097 -0.17012 0
M  V30 6128 H 571.138 1.56499 -1.07741 0
M  V30 6129 H 569.288 3.88054 -0.186128 0
M  V30 6130 H 570.96 3.67533 -2.78779 0
M  V30 6131 H 569.203 3.41384 -2.67656 0
M  V30 6132 H 569.874 5.00841 -2.32082 0
M  V30 6133 H 572.35 4.11556 -0.613285 0
M  V30 6134 H 571.226 5.47671 -0.367093 0
M  V30 6135 H 571.487 4.32196 0.930559 0
M  V30 6136 N 570.547 0.616602 1.45037 0
M  V30 6137 C 571.777 0.121791 2.06241 0
M  V30 6138 C 572.185 -1.20289 1.46038 0
M  V30 6139 O 571.528 -1.7456 0.572242 0
M  V30 6140 C 571.59 -0.0827345 3.59405 0
M  V30 6141 C 571.254 1.16153 4.41993 0
M  V30 6142 C 572.251 2.08183 4.76399 0
M  V30 6143 C 569.936 1.39288 4.82601 0
M  V30 6144 C 571.93 3.21668 5.5028 0
M  V30 6145 C 569.617 2.53073 5.56235 0
M  V30 6146 C 570.615 3.44091 5.89992 0
M  V30 6147 O 570.303 4.55894 6.6213 0
M  V30 6148 H 570.035 0.0701667 0.672349 0
M  V30 6149 H 572.589 0.846877 1.87129 0
M  V30 6150 H 570.819 -0.862812 3.76952 0
M  V30 6151 H 572.508 -0.530273 4.02421 0
M  V30 6152 H 573.274 1.91538 4.45576 0
M  V30 6153 H 569.153 0.693396 4.55755 0
M  V30 6154 H 572.697 3.92733 5.76547 0
M  V30 6155 H 568.594 2.69667 5.86472 0
M  V30 6156 H 569.362 4.5469 6.80587 0
M  V30 6157 N 572.025 -1.5352 0.356285 0
M  V30 6158 C 573.441 -1.59599 0.00485267 0
M  V30 6159 C 573.641 -1.37179 -1.47595 0
M  V30 6160 O 572.697 -1.17234 -2.23635 0
M  V30 6161 C 574.01 -2.97277 0.452454 0
M  V30 6162 C 575.558 -3.10357 0.405881 0
M  V30 6163 C 576.033 -4.50432 0.829148 0
M  V30 6164 N 577.524 -4.5652 0.783838 0
M  V30 6165 C 578.259 -5.63077 1.08315 0
M  V30 6166 N 577.755 -6.77429 1.45126 0
M  V30 6167 N 579.548 -5.53014 1.00655 0
M  V30 6168 H 571.699 -1.66346 1.32071 0
M  V30 6169 H 573.962 -0.77971 0.539218 0
M  V30 6170 H 573.668 -3.18792 1.48542 0
M  V30 6171 H 573.542 -3.76836 -0.165762 0
M  V30 6172 H 575.929 -2.88558 -0.617934 0
M  V30 6173 H 576.01 -2.32828 1.05947 0
M  V30 6174 H 575.654 -4.72968 1.85103 0
M  V30 6175 H 575.584 -5.26378 0.152906 0
M  V30 6176 H 578.075 -3.74408 0.512513 0
M  V30 6177 H 578.388 -7.54669 1.66415 0
M  V30 6178 H 576.733 -6.78844 1.48983 0
M  V30 6179 H 579.924 -4.62557 0.718215 0
M  V30 6180 H 580.097 -6.35964 1.24315 0
M  V30 6181 N 573.503 -0.0852151 -1.57369 0
M  V30 6182 C 574.752 0.580443 -1.93168 0
M  V30 6183 C 575.065 1.6995 -0.968319 0
M  V30 6184 O 576.271 2.42564 -1.21963 0
M  V30 6185 C 574.727 1.08386 -3.43192 0
M  V30 6186 C 574.335 -0.00491388 -4.48 0
M  V30 6187 C 576.079 1.72281 -3.87968 0
M  V30 6188 C 573.986 0.513299 -5.89168 0
M  V30 6189 H 572.916 0.22059 -0.72101 0
M  V30 6190 H 575.567 -0.159621 -1.82804 0
M  V30 6191 H 573.949 1.8773 -3.48674 0
M  V30 6192 H 575.123 -0.780032 -4.5415 0
M  V30 6193 H 573.438 -0.548453 -4.12772 0
M  V30 6194 H 576.035 2.12108 -4.9083 0
M  V30 6195 H 576.378 2.58811 -3.26071 0
M  V30 6196 H 576.911 0.995359 -3.85146 0
M  V30 6197 H 573.65 -0.315153 -6.54742 0
M  V30 6198 H 573.17 1.25564 -5.8651 0
M  V30 6199 H 574.849 0.985433 -6.39451 0
M  V30 6200 N 574.981 1.5647 0.188427 0
M  V30 6201 C 576.23 1.80207 0.905995 0
M  V30 6202 C 576.543 0.659579 1.84144 0
M  V30 6203 O 577.749 0.781431 2.60011 0
M  V30 6204 C 576.205 3.19255 1.66145 0
M  V30 6205 C 575.813 4.41324 0.770504 0
M  V30 6206 C 577.557 3.52298 2.36826 0
M  V30 6207 C 575.464 5.71394 1.52521 0
M  V30 6208 H 574.394 0.671953 0.342045 0
M  V30 6209 H 577.045 1.82808 0.159164 0
M  V30 6210 H 575.427 3.10922 2.45242 0
M  V30 6211 H 576.601 4.60797 0.0177261 0
M  V30 6212 H 574.916 4.16035 0.174199 0
M  V30 6213 H 577.513 4.46715 2.93854 0
M  V30 6214 H 577.856 2.76359 3.11338 0
M  V30 6215 H 578.389 3.62108 1.6469 0
M  V30 6216 H 575.128 6.50316 0.82275 0
M  V30 6217 H 574.648 5.55928 2.25175 0
M  V30 6218 H 576.327 6.12747 2.07725 0
M  V30 6219 N 576.459 -0.456382 1.50847 0
M  V30 6220 C 577.389 -1.56025 1.73719 0
M  V30 6221 C 578.37 -1.5967 0.586473 0
M  V30 6222 O 579.555 -1.75702 0.827185 0
M  V30 6223 C 576.685 -2.94251 1.84483 0
M  V30 6224 C 575.639 -3.05471 2.99786 0
M  V30 6225 C 574.965 -4.45489 2.95709 0
M  V30 6226 C 576.265 -2.81318 4.40065 0
M  V30 6227 H 577.959 -1.37138 2.66146 0
M  V30 6228 H 575.505 -0.658299 1.28072 0
M  V30 6229 H 577.458 -3.71417 1.99067 0
M  V30 6230 H 576.182 -3.14328 0.886891 0
M  V30 6231 H 574.841 -2.30741 2.84876 0
M  V30 6232 H 574.489 -4.62505 1.97732 0
M  V30 6233 H 574.189 -4.53929 3.73125 0
M  V30 6234 H 575.713 -5.24655 3.12362 0
M  V30 6235 H 577.127 -3.48226 4.55425 0
M  V30 6236 H 575.524 -3.01188 5.19043 0
M  V30 6237 H 576.594 -1.7706 4.51418 0
M  V30 6238 N 577.937 -1.40673 -0.710563 0
M  V30 6239 C 578.887 -1.37812 -1.81636 0
M  V30 6240 C 579.871 -0.254853 -1.58869 0
M  V30 6241 O 581.063 -0.494356 -1.69956 0
M  V30 6242 C 578.192 -1.24802 -3.19811 0
M  V30 6243 C 577.278 -2.41931 -3.48325 0
M  V30 6244 N 577.669 -3.67411 -3.47625 0
M  V30 6245 C 575.967 -2.35419 -3.78806 0
M  V30 6246 C 576.668 -4.45008 -3.74623 0
M  V30 6247 N 575.644 -3.74916 -3.93623 0
M  V30 6248 H 579.446 -2.32766 -1.79436 0
M  V30 6249 H 576.96 -1.34516 -0.909909 0
M  V30 6250 H 578.957 -1.20835 -3.99004 0
M  V30 6251 H 577.617 -0.308202 -3.23234 0
M  V30 6252 H 578.628 -4.00503 -3.28356 0
M  V30 6253 H 575.305 -1.4983 -3.89689 0
M  V30 6254 H 576.695 -5.53884 -3.80344 0
M  V30 6255 N 579.415 0.9433 -1.26252 0
M  V30 6256 C 580.831 1.21644 -1.03319 0
M  V30 6257 C 581.031 2.0003 0.242983 0
M  V30 6258 O 580.087 2.33838 0.952688 0
M  V30 6259 C 581.4 1.97978 -2.2633 0
M  V30 6260 C 582.948 2.10978 -2.31209 0
M  V30 6261 C 583.423 2.90713 -3.53907 0
M  V30 6262 N 584.914 2.98287 -3.54371 0
M  V30 6263 C 585.649 3.60406 -4.45976 0
M  V30 6264 N 585.145 4.24043 -5.47868 0
M  V30 6265 N 586.938 3.57658 -4.33633 0
M  V30 6266 H 579.089 0.419221 -2.08222 0
M  V30 6267 H 581.352 0.247995 -0.914988 0
M  V30 6268 H 581.058 1.47788 -3.19142 0
M  V30 6269 H 580.932 2.9865 -2.30408 0
M  V30 6270 H 583.319 2.6036 -1.38913 0
M  V30 6271 H 583.4 1.09575 -2.31143 0
M  V30 6272 H 583.044 2.42018 -4.46531 0
M  V30 6273 H 582.974 3.92367 -3.5122 0
M  V30 6274 H 585.465 2.53044 -2.80673 0
M  V30 6275 H 585.778 4.69334 -6.13959 0
M  V30 6276 H 584.123 4.22637 -5.51728 0
M  V30 6277 H 587.314 3.07134 -3.53251 0
M  V30 6278 H 587.487 4.05782 -5.05218 0
M  V30 6279 N 580.893 1.08022 1.14757 0
M  V30 6280 C 582.139 0.808705 1.85978 0
M  V30 6281 C 582.472 -0.663764 1.82504 0
M  V30 6282 O 581.747 -1.48765 1.25296 0
M  V30 6283 C 582.03 1.32623 3.34788 0
M  V30 6284 C 581.883 2.86375 3.46856 0
M  V30 6285 C 583.202 0.948291 4.29762 0
M  V30 6286 H 580.321 0.295244 0.675278 0
M  V30 6287 H 582.963 1.33917 1.34783 0
M  V30 6288 H 581.113 0.875002 3.78518 0
M  V30 6289 H 582.785 3.39839 3.11941 0
M  V30 6290 H 581.028 3.24232 2.88194 0
M  V30 6291 H 581.699 3.17658 4.51439 0
M  V30 6292 H 584.175 1.33722 3.94028 0
M  V30 6293 H 583.051 1.33765 5.32352 0
M  V30 6294 H 583.312 -0.145094 4.41862 0
M  V30 6295 N 582.371 -1.3172 0.865308 0
M  V30 6296 C 583.303 -2.27545 0.274906 0
M  V30 6297 C 584.316 -1.52887 -0.559413 0
M  V30 6298 O 585.505 -1.74361 -0.382166 0
M  V30 6299 C 582.605 -3.33006 -0.629286 0
M  V30 6300 C 581.778 -4.37063 0.171553 0
M  V30 6301 C 580.837 -5.22044 -0.660052 0
M  V30 6302 O 579.863 -5.69129 -0.0897527 0
M  V30 6303 N 581.065 -5.45946 -1.97289 0
M  V30 6304 H 583.83 -2.78848 1.09836 0
M  V30 6305 H 581.391 -1.44693 0.726331 0
M  V30 6306 H 583.383 -3.86772 -1.19121 0
M  V30 6307 H 581.953 -2.81782 -1.35342 0
M  V30 6308 H 581.173 -3.83436 0.914919 0
M  V30 6309 H 582.461 -5.03662 0.721235 0
M  V30 6310 H 581.859 -5.0944 -2.45942 0
M  V30 6311 H 580.416 -6.02665 -2.4827 0
M  V30 6312 N 583.85 -0.624285 -1.44708 0
M  V30 6313 C 585.266 -0.289322 -1.56956 0
M  V30 6314 C 585.466 1.20773 -1.61295 0
M  V30 6315 O 584.522 1.9915 -1.55227 0
M  V30 6316 C 585.835 -0.975215 -2.84447 0
M  V30 6317 C 587.383 -0.952709 -2.98148 0
M  V30 6318 C 587.858 -1.61893 -4.28433 0
M  V30 6319 N 589.349 -1.5852 -4.35231 0
M  V30 6320 C 590.084 -2.06969 -5.34744 0
M  V30 6321 N 589.58 -2.63579 -6.40701 0
M  V30 6322 N 591.373 -1.97638 -5.26209 0
M  V30 6323 H 583.524 -1.59612 -1.40135 0
M  V30 6324 H 585.787 -0.669592 -0.671081 0
M  V30 6325 H 585.493 -2.02999 -2.87201 0
M  V30 6326 H 585.367 -0.508749 -3.73753 0
M  V30 6327 H 587.754 0.093568 -2.94952 0
M  V30 6328 H 587.835 -1.4576 -2.10209 0
M  V30 6329 H 587.479 -2.66463 -4.32389 0
M  V30 6330 H 587.409 -1.08893 -5.15218 0
M  V30 6331 H 589.899 -1.17183 -3.59272 0
M  V30 6332 H 590.213 -2.98298 -7.12908 0
M  V30 6333 H 588.558 -2.67626 -6.41406 0
M  V30 6334 H 591.749 -1.5314 -4.42341 0
M  V30 6335 H 591.922 -2.35708 -6.03611 0
M  V30 6336 N 585.328 1.53329 -0.364422 0
M  V30 6337 C 586.275 2.25698 0.482607 0
M  V30 6338 C 587.245 1.26325 1.07848 0
M  V30 6339 O 588.43 1.55104 1.11119 0
M  V30 6340 C 585.57 3.04873 1.61699 0
M  V30 6341 C 584.683 4.19135 1.0464 0
M  V30 6342 C 583.818 4.85754 2.14979 0
M  V30 6343 C 582.857 5.9205 1.5538 0
M  V30 6344 N 581.994 6.52365 2.59547 0
M  V30 6345 H 586.834 2.97666 -0.141032 0
M  V30 6346 H 584.371 1.46875 -0.0813692 0
M  V30 6347 H 586.329 3.49051 2.28516 0
M  V30 6348 H 584.959 2.35162 2.2113 0
M  V30 6349 H 584.011 3.79451 0.268553 0
M  V30 6350 H 585.323 4.95525 0.570653 0
M  V30 6351 H 584.477 5.3311 2.89619 0
M  V30 6352 H 583.216 4.08834 2.65906 0
M  V30 6353 H 582.221 5.44058 0.792549 0
M  V30 6354 H 583.446 6.7089 1.0528 0
M  V30 6355 H 581.392 5.78298 3.09689 0
M  V30 6356 H 581.309 7.2429 2.16655 0
M  V30 6357 H 582.577 7.0437 3.33892 0
M  V30 6358 N 586.806 0.0935595 1.57322 0
M  V30 6359 C 587.753 -0.865935 2.1394 0
M  V30 6360 C 588.723 -1.28083 1.05754 0
M  V30 6361 O 589.908 -1.36285 1.33533 0
M  V30 6362 C 587.048 -2.12023 2.72287 0
M  V30 6363 C 586.161 -1.756 3.94701 0
M  V30 6364 C 585.296 -2.95804 4.41218 0
M  V30 6365 C 584.335 -2.555 5.56225 0
M  V30 6366 N 583.472 -3.68534 5.97601 0
M  V30 6367 H 588.312 -0.376261 2.95615 0
M  V30 6368 H 585.849 -0.174052 1.46067 0
M  V30 6369 H 587.807 -2.85477 3.04235 0
M  V30 6370 H 586.437 -2.58492 1.93343 0
M  V30 6371 H 585.489 -0.921208 3.69077 0
M  V30 6372 H 586.801 -1.41964 4.78171 0
M  V30 6373 H 585.955 -3.77513 4.74941 0
M  V30 6374 H 584.694 -3.32649 3.56645 0
M  V30 6375 H 583.699 -1.72218 5.22131 0
M  V30 6376 H 584.924 -2.19801 6.42545 0
M  V30 6377 H 582.87 -4.051 5.15974 0
M  V30 6378 H 582.787 -3.38737 6.75865 0
M  V30 6379 H 584.055 -4.50757 6.35955 0
M  V30 6380 N 588.284 -1.56567 -0.180126 0
M  V30 6381 C 589.247 -1.94852 -1.20686 0
M  V30 6382 C 590.247 -0.831212 -1.3765 0
M  V30 6383 O 591.437 -1.09841 -1.35206 0
M  V30 6384 C 588.569 -2.23565 -2.57355 0
M  V30 6385 H 589.762 -2.86722 -0.879225 0
M  V30 6386 H 587.315 -1.50489 -0.422237 0
M  V30 6387 H 588.05 -1.34381 -2.95148 0
M  V30 6388 H 587.835 -3.04999 -2.46411 0
M  V30 6389 H 589.325 -2.54137 -3.31367 0
M  V30 6390 N 589.762 0.448376 -1.51087 0
M  V30 6391 C 590.692 1.55102 -1.74544 0
M  V30 6392 C 591.673 1.59357 -0.594932 0
M  V30 6393 O 592.858 1.75261 -0.836491 0
M  V30 6394 C 589.988 2.93268 -1.86041 0
M  V30 6395 C 588.942 3.03877 -3.01402 0
M  V30 6396 C 588.268 4.43914 -2.98068 0
M  V30 6397 C 589.568 2.7898 -4.41551 0
M  V30 6398 H 591.262 1.35724 -2.66869 0
M  V30 6399 H 588.808 0.651498 -1.28419 0
M  V30 6400 H 590.761 3.70356 -2.01034 0
M  V30 6401 H 589.485 3.13853 -0.903548 0
M  V30 6402 H 588.144 2.29227 -2.86096 0
M  V30 6403 H 587.792 4.6145 -2.00182 0
M  V30 6404 H 587.492 4.51944 -3.75527 0
M  V30 6405 H 589.016 5.22991 -3.1514 0
M  V30 6406 H 590.43 3.45805 -4.57265 0
M  V30 6407 H 588.827 2.98431 -5.20633 0
M  V30 6408 H 589.897 1.74663 -4.5235 0
M  V30 6409 N 591.24 1.41047 0.703093 0
M  V30 6410 C 592.15 1.44645 1.84703 0
M  V30 6411 C 593.166 0.337778 1.7069 0
M  V30 6412 O 594.342 0.584327 1.92737 0
M  V30 6413 C 591.407 1.31928 3.20618 0
M  V30 6414 C 590.468 2.53047 3.46794 0
M  V30 6415 C 589.701 2.40927 4.76224 0
M  V30 6416 O 589.924 1.42978 5.5219 0
M  V30 6417 O 588.858 3.30543 5.03016 0
M  V30 6418 H 592.684 2.41139 1.84624 0
M  V30 6419 H 590.269 1.22504 0.855167 0
M  V30 6420 H 592.151 1.27092 4.01778 0
M  V30 6421 H 590.826 0.385469 3.21397 0
M  V30 6422 H 589.733 2.6346 2.65593 0
M  V30 6423 H 591.066 3.45231 3.50822 0
M  V30 6424 N 592.718 -0.936591 1.26751 0
M  V30 6425 C 593.943 -1.72288 1.15462 0
M  V30 6426 C 594.368 -1.85915 -0.285887 0
M  V30 6427 O 593.726 -1.35272 -1.20711 0
M  V30 6428 C 593.774 -3.10503 1.83359 0
M  V30 6429 O 592.878 -3.96745 1.1255 0
M  V30 6430 H 592.219 -0.52843 0.402067 0
M  V30 6431 H 594.749 -1.17271 1.67656 0
M  V30 6432 H 594.759 -3.60867 1.90365 0
M  V30 6433 H 593.434 -2.99901 2.88153 0
M  V30 6434 H 592.011 -3.55191 1.13551 0
M  V30 6435 N 594.196 -1.08629 -1.14182 0
M  V30 6436 C 595.442 -0.818556 -1.85546 0
M  V30 6437 C 595.775 0.654076 -1.82854 0
M  V30 6438 O 595.05 1.48099 -1.26083 0
M  V30 6439 C 595.333 -1.34397 -3.3408 0
M  V30 6440 C 595.186 -2.8821 -3.45333 0
M  V30 6441 C 596.505 -0.971069 -4.29253 0
M  V30 6442 H 593.624 -0.298821 -0.673702 0
M  V30 6443 H 596.266 -1.34629 -1.34071 0
M  V30 6444 H 594.416 -0.895064 -3.78049 0
M  V30 6445 H 596.088 -3.41488 -3.10134 0
M  V30 6446 H 594.331 -3.25756 -2.86471 0
M  V30 6447 H 595.002 -3.20047 -4.49749 0
M  V30 6448 H 597.478 -1.35809 -3.93313 0
M  V30 6449 H 596.354 -1.36586 -5.31635 0
M  V30 6450 H 596.615 0.121659 -4.41933 0
M  V30 6451 N 595.674 1.31259 -0.872281 0
M  V30 6452 C 597.085 1.78822 -0.536617 0
M  V30 6453 C 597.436 1.71855 0.946594 0
M  V30 6454 O 596.561 1.28769 1.73918 0
M  V30 6455 C 597.156 3.24698 -0.967294 0
M  V30 6456 C 595.715 3.70147 -0.683251 0
M  V30 6457 C 594.862 2.51994 -1.15733 0
M  V30 6458 H 597.813 1.18308 -1.05777 0
M  V30 6459 H 597.834 3.79386 -0.290929 0
M  V30 6460 H 597.346 3.29737 -2.04683 0
M  V30 6461 H 595.447 3.70607 0.384825 0
M  V30 6462 H 595.56 4.62183 -1.2619 0
M  V30 6463 H 593.924 2.48078 -0.577024 0
M  V30 6464 H 594.707 2.59778 -2.24434 0
M  V30 6465 N 597.152 0.631951 1.44375 0
M  V30 6466 C 598.398 0.13697 2.02337 0
M  V30 6467 C 598.731 -1.23826 1.49602 0
M  V30 6468 O 598.006 -1.8221 0.680415 0
M  V30 6469 C 598.289 0.124536 3.59885 0
M  V30 6470 C 598.142 1.53217 4.229 0
M  V30 6471 C 599.461 -0.550481 4.36644 0
M  V30 6472 H 596.58 0.051247 0.735216 0
M  V30 6473 H 599.222 0.808581 1.71936 0
M  V30 6474 H 597.372 -0.44737 3.85916 0
M  V30 6475 H 599.044 2.15303 4.07973 0
M  V30 6476 H 597.287 2.0858 3.80364 0
M  V30 6477 H 597.958 1.4755 5.31914 0
M  V30 6478 H 600.434 -0.0641154 4.16051 0
M  V30 6479 H 599.31 -0.528371 5.46351 0
M  V30 6480 H 599.571 -1.62097 4.11311 0
M  V30 6481 N 598.631 -1.53133 0.372548 0
M  V30 6482 C 599.564 -2.22328 -0.514361 0
M  V30 6483 C 600.542 -1.21776 -1.07747 0
M  V30 6484 O 601.726 -1.50704 -1.13228 0
M  V30 6485 C 598.853 -2.92343 -1.71035 0
M  V30 6486 C 597.899 -4.07026 -1.27405 0
M  V30 6487 S 598.732 -5.34821 -0.269526 0
M  V30 6488 C 599.888 -6.08352 -1.47168 0
M  V30 6489 H 600.121 -2.9721 0.0732683 0
M  V30 6490 H 597.654 -1.53603 0.156673 0
M  V30 6491 H 599.612 -3.33296 -2.39634 0
M  V30 6492 H 598.273 -2.17173 -2.26925 0
M  V30 6493 H 597.466 -4.55056 -2.16656 0
M  V30 6494 H 597.068 -3.68001 -0.66719 0
M  V30 6495 H 599.36 -6.33507 -2.40157 0
M  V30 6496 H 600.303 -7.0053 -1.03263 0
M  V30 6497 H 600.711 -5.38893 -1.6809 0
M  V30 6498 N 600.109 -0.101901 -1.5727 0
M  V30 6499 C 601.042 0.891377 -2.10071 0
M  V30 6500 C 602.02 1.27197 -1.01291 0
M  V30 6501 O 603.204 1.37602 -1.28833 0
M  V30 6502 C 600.331 2.19049 -2.58331 0
M  V30 6503 C 599.377 1.95925 -3.78834 0
M  V30 6504 S 600.21 1.19106 -5.22086 0
M  V30 6505 C 601.366 2.50234 -5.73702 0
M  V30 6506 H 601.599 0.442212 -2.93993 0
M  V30 6507 H 599.132 0.111529 -1.53997 0
M  V30 6508 H 601.09 2.937 -2.86793 0
M  V30 6509 H 599.751 2.61086 -1.74622 0
M  V30 6510 H 598.944 2.92143 -4.10693 0
M  V30 6511 H 598.546 1.29401 -3.50901 0
M  V30 6512 H 600.838 3.46173 -5.82384 0
M  V30 6513 H 601.781 2.22944 -6.72088 0
M  V30 6514 H 602.189 2.58818 -5.01671 0
M  V30 6515 N 601.587 1.56661 0.17182 0
M  V30 6516 C 602.517 1.99401 1.21498 0
M  V30 6517 C 603.498 0.869516 1.46197 0
M  V30 6518 O 604.683 1.13556 1.57539 0
M  V30 6519 C 601.813 2.35346 2.55401 0
M  V30 6520 C 600.767 3.5075 2.45272 0
M  V30 6521 C 600.093 3.72437 3.8366 0
M  V30 6522 C 601.393 4.84216 1.95787 0
M  V30 6523 H 603.087 2.86792 0.859699 0
M  V30 6524 H 600.633 1.37977 0.412103 0
M  V30 6525 H 602.586 2.63843 3.2858 0
M  V30 6526 H 601.31 1.44864 2.92715 0
M  V30 6527 H 599.969 3.2238 1.74547 0
M  V30 6528 H 599.617 2.79246 4.18367 0
M  V30 6529 H 599.317 4.50087 3.77751 0
M  V30 6530 H 600.841 4.03334 4.58426 0
M  V30 6531 H 602.255 5.11592 2.5874 0
M  V30 6532 H 600.652 5.65498 2.00827 0
M  V30 6533 H 601.722 4.76243 0.912159 0
M  V30 6534 N 603.065 -0.440357 1.51323 0
M  V30 6535 C 604.476 -1.02032 1.56353 0
M  V30 6536 C 604.827 -1.92382 0.385197 0
M  V30 6537 O 603.952 -2.10583 -0.498373 0
M  V30 6538 C 604.547 -1.85723 2.83359 0
M  V30 6539 C 603.106 -2.38774 2.90971 0
M  V30 6540 C 602.253 -1.17908 2.50984 0
M  V30 6541 H 605.204 -0.221744 1.57143 0
M  V30 6542 H 605.225 -2.71141 2.66951 0
M  V30 6543 H 604.737 -1.19939 3.69102 0
M  V30 6544 H 602.838 -3.08021 2.09651 0
M  V30 6545 H 602.951 -2.71778 3.94555 0
M  V30 6546 H 601.315 -1.52347 2.04114 0
M  V30 6547 H 602.098 -0.537393 3.39068 0
M  V30 6548 N 604.543 -1.41418 -0.695603 0
M  V30 6549 C 605.82 -1.31264 -1.45014 0
M  V30 6550 C 606.2 0.0597994 -2.11015 0
M  V30 6551 O 605.548 1.07403 -2.01685 0
M  V30 6552 C 605.758 -2.466 -2.4696 0
M  V30 6553 C 607.106 -2.87763 -3.12214 0
M  V30 6554 O 608.13 -2.46339 -2.57285 0
M  V30 6555 O 606.989 -3.59395 -4.11701 0
M  V30 6556 H 604.083 -0.516576 -0.645816 0
M  V30 6557 H 606.629 -1.53382 -0.726084 0
M  V30 6558 H 605.401 -3.38183 -1.96845 0
M  V30 6559 H 605.024 -2.26358 -3.26876 0
M  V30 6560 N 606.021 0.929856 -1.27246 0
M  V30 6561 C 607.432 1.49223 -1.12203 0
M  V30 6562 C 607.783 1.93989 0.293731 0
M  V30 6563 O 606.908 1.80978 1.18642 0
M  V30 6564 C 607.503 2.71198 -2.0307 0
M  V30 6565 C 606.062 3.23666 -1.92139 0
M  V30 6566 C 605.209 1.96409 -1.95752 0
M  V30 6567 H 608.16 0.744181 -1.4017 0
M  V30 6568 H 608.181 3.45905 -1.58524 0
M  V30 6569 H 607.693 2.38585 -3.06102 0
M  V30 6570 H 605.794 3.61042 -0.920834 0
M  V30 6571 H 605.907 3.90006 -2.78267 0
M  V30 6572 H 604.271 2.12806 -1.39949 0
M  V30 6573 H 605.054 1.66113 -3.00436 0
M  V30 6574 N 607.499 1.09233 1.13605 0
M  V30 6575 C 608.446 0.729921 2.18954 0
M  V30 6576 C 609.416 -0.287916 1.63586 0
M  V30 6577 O 610.601 -0.170003 1.90041 0
M  V30 6578 C 607.741 0.154489 3.44754 0
M  V30 6579 C 606.854 1.22613 4.14234 0
M  V30 6580 C 605.989 0.613657 5.27644 0
M  V30 6581 C 605.028 1.66674 5.8897 0
M  V30 6582 N 604.165 1.07545 6.93814 0
M  V30 6583 H 609.005 1.63257 2.49302 0
M  V30 6584 H 606.542 0.815693 1.22413 0
M  V30 6585 H 608.5 -0.196923 4.16735 0
M  V30 6586 H 607.13 -0.711433 3.14863 0
M  V30 6587 H 606.182 1.69485 3.40557 0
M  V30 6588 H 607.494 2.0238 4.55899 0
M  V30 6589 H 606.648 0.210976 6.06333 0
M  V30 6590 H 605.387 -0.215584 4.87223 0
M  V30 6591 H 604.392 2.07899 5.08978 0
M  V30 6592 H 605.617 2.49861 6.31464 0
M  V30 6593 H 603.563 0.267451 6.55455 0
M  V30 6594 H 603.48 1.81011 7.3401 0
M  V30 6595 H 604.748 0.698906 7.7636 0
M  V30 6596 N 608.977 -1.30795 0.87923 0
M  V30 6597 C 609.887 -2.32041 0.345565 0
M  V30 6598 C 610.903 -1.65103 -0.549265 0
M  V30 6599 O 612.079 -1.9645 -0.443763 0
M  V30 6600 C 609.144 -3.43944 -0.436245 0
M  V30 6601 C 608.205 -4.26521 0.48765 0
M  V30 6602 C 607.438 -5.33081 -0.256943 0
M  V30 6603 O 607.661 -5.50762 -1.48381 0
M  V30 6604 O 606.595 -6.00635 0.389985 0
M  V30 6605 H 610.421 -2.79627 1.18501 0
M  V30 6606 H 608.006 -1.3486 0.642885 0
M  V30 6607 H 609.888 -4.12128 -0.879119 0
M  V30 6608 H 608.563 -2.98504 -1.25208 0
M  V30 6609 H 607.47 -3.61057 0.979216 0
M  V30 6610 H 608.803 -4.75551 1.26933 0
M  V30 6611 N 610.455 -0.639598 -1.44038 0
M  V30 6612 C 611.871 -0.305953 -1.5664 0
M  V30 6613 C 612.071 1.19055 -1.62567 0
M  V30 6614 O 611.127 1.97492 -1.57331 0
M  V30 6615 C 612.44 -1.00533 -2.83397 0
M  V30 6616 C 613.988 -0.984278 -2.97121 0
M  V30 6617 C 614.463 -1.66428 -4.26691 0
M  V30 6618 N 615.954 -1.63127 -4.33525 0
M  V30 6619 C 616.689 -2.12629 -5.32519 0
M  V30 6620 N 616.185 -2.70359 -6.3787 0
M  V30 6621 N 617.978 -2.03208 -5.24083 0
M  V30 6622 H 610.129 -1.6109 -1.38434 0
M  V30 6623 H 612.392 -0.676672 -0.663942 0
M  V30 6624 H 612.098 -2.06034 -2.85032 0
M  V30 6625 H 611.972 -0.548362 -3.73193 0
M  V30 6626 H 614.359 0.0622792 -2.95034 0
M  V30 6627 H 614.44 -1.47981 -2.08651 0
M  V30 6628 H 614.084 -2.71034 -4.29538 0
M  V30 6629 H 614.014 -1.14351 -5.14034 0
M  V30 6630 H 616.505 -1.20987 -3.58009 0
M  V30 6631 H 616.818 -3.05842 -7.09704 0
M  V30 6632 H 615.163 -2.74414 -6.38531 0
M  V30 6633 H 618.354 -1.57823 -4.40692 0
M  V30 6634 H 618.527 -2.42097 -6.01077 0
M  V30 6635 N 611.933 1.52934 -0.380664 0
M  V30 6636 C 613.21 1.93845 0.261417 0
M  V30 6637 C 613.59 1.31544 1.65104 0
M  V30 6638 O 612.938 0.480234 2.23397 0
M  V30 6639 C 613.148 3.47739 0.296466 0
M  V30 6640 C 614.496 4.21284 0.529578 0
M  V30 6641 O 615.52 3.54199 0.377041 0
M  V30 6642 O 614.379 5.40195 0.827753 0
M  V30 6643 H 611.473 0.811318 0.160285 0
M  V30 6644 H 614.019 1.64042 -0.434544 0
M  V30 6645 H 612.791 3.85395 -0.67724 0
M  V30 6646 H 612.414 3.8382 1.0377 0
M  V30 6647 N 613.412 0.11024 1.57214 0
M  V30 6648 C 614.342 -0.840002 2.17867 0
M  V30 6649 C 615.323 -1.28352 1.11624 0
M  V30 6650 O 616.508 -1.3477 1.39824 0
M  V30 6651 C 613.638 -2.09349 2.77111 0
M  V30 6652 C 612.592 -1.78807 3.8886 0
M  V30 6653 C 611.918 -3.11112 4.34872 0
M  V30 6654 C 613.218 -1.0632 5.11364 0
M  V30 6655 H 614.912 -0.334608 2.97524 0
M  V30 6656 H 612.458 -0.159502 1.43114 0
M  V30 6657 H 614.411 -2.76275 3.18198 0
M  V30 6658 H 613.135 -2.62198 1.9473 0
M  V30 6659 H 611.794 -1.14273 3.48335 0
M  V30 6660 H 611.442 -3.61877 3.49362 0
M  V30 6661 H 611.142 -2.91453 5.10224 0
M  V30 6662 H 612.666 -3.79171 4.78604 0
M  V30 6663 H 614.08 -1.63383 5.49526 0
M  V30 6664 H 612.477 -0.967876 5.92243 0
M  V30 6665 H 613.547 -0.0484569 4.84876 0
M  V30 6666 N 614.89 -1.56749 -0.16351 0
M  V30 6667 C 615.837 -1.97011 -1.2023 0
M  V30 6668 C 616.807 -0.835186 -1.43575 0
M  V30 6669 O 617.992 -1.09594 -1.56185 0
M  V30 6670 C 615.132 -2.34186 -2.53478 0
M  V30 6671 C 614.245 -3.60893 -2.37446 0
M  V30 6672 C 613.38 -3.87245 -3.63614 0
M  V30 6673 C 612.419 -5.07274 -3.42548 0
M  V30 6674 N 611.556 -5.29719 -4.60806 0
M  V30 6675 H 616.396 -2.85562 -0.851958 0
M  V30 6676 H 613.933 -1.41292 -0.409257 0
M  V30 6677 H 615.891 -2.53764 -3.31149 0
M  V30 6678 H 614.521 -1.48736 -2.86492 0
M  V30 6679 H 613.573 -3.49185 -1.50911 0
M  V30 6680 H 614.885 -4.48722 -2.1783 0
M  V30 6681 H 614.039 -4.07232 -4.49719 0
M  V30 6682 H 612.778 -2.97806 -3.86216 0
M  V30 6683 H 611.783 -4.87177 -2.5483 0
M  V30 6684 H 613.008 -5.98251 -3.2136 0
M  V30 6685 H 610.954 -4.43233 -4.83612 0
M  V30 6686 H 610.871 -6.11786 -4.44132 0
M  V30 6687 H 612.139 -5.54192 -5.48171 0
M  V30 6688 N 616.368 0.432326 -1.51554 0
M  V30 6689 C 617.315 1.52512 -1.7323 0
M  V30 6690 C 618.285 1.55863 -0.5741 0
M  V30 6691 O 619.47 1.72796 -0.809093 0
M  V30 6692 C 616.61 2.90183 -1.86783 0
M  V30 6693 C 615.723 2.96322 -3.14352 0
M  V30 6694 C 614.858 4.25147 -3.18471 0
M  V30 6695 C 613.897 4.25172 -4.40335 0
M  V30 6696 N 613.034 5.45529 -4.41975 0
M  V30 6697 H 617.874 1.33332 -2.66508 0
M  V30 6698 H 615.411 0.647613 -1.32077 0
M  V30 6699 H 617.369 3.70071 -1.92623 0
M  V30 6700 H 615.999 3.0791 -0.969087 0
M  V30 6701 H 615.051 2.09066 -3.17798 0
M  V30 6702 H 616.363 2.92203 -4.04251 0
M  V30 6703 H 615.517 5.13411 -3.23255 0
M  V30 6704 H 614.256 4.31929 -2.2647 0
M  V30 6705 H 613.261 3.353 -4.35723 0
M  V30 6706 H 614.486 4.20049 -5.33606 0
M  V30 6707 H 612.432 5.53024 -3.52847 0
M  V30 6708 H 612.349 5.43311 -5.25689 0
M  V30 6709 H 613.617 6.35812 -4.50958 0
M  V30 6710 N 617.846 1.41785 0.688094 0
M  V30 6711 C 619.094 1.41264 1.4453 0
M  V30 6712 C 619.415 0.0252946 1.94984 0
M  V30 6713 O 618.685 -0.934081 1.72197 0
M  V30 6714 H 617.265 0.519998 0.536294 0
M  V30 6715 H 619.927 1.7709 0.813941 0
M  V30 6716 H 619.023 2.10439 2.30482 0
M  V30 6717 N 619.324 -0.923095 1.27737 0
M  V30 6718 C 620.549 -1.71054 1.17283 0
M  V30 6719 C 620.974 -1.86208 -0.266153 0
M  V30 6720 O 620.332 -1.36545 -1.1927 0
M  V30 6721 C 620.38 -3.0854 1.86642 0
M  V30 6722 O 619.484 -3.95528 1.16752 0
M  V30 6723 H 618.825 -0.524136 0.407649 0
M  V30 6724 H 621.355 -1.15487 1.6889 0
M  V30 6725 H 621.365 -3.58828 1.94182 0
M  V30 6726 H 620.04 -2.96828 2.91317 0
M  V30 6727 H 618.617 -3.53967 1.17312 0
M  V30 6728 N 620.802 -1.09834 -1.13024 0
M  V30 6729 C 622.218 -0.828875 -1.36388 0
M  V30 6730 C 622.418 0.554756 -1.93713 0
M  V30 6731 O 621.474 1.30882 -2.15931 0
M  V30 6732 C 622.787 -1.92352 -2.3113 0
M  V30 6733 C 624.335 -1.95124 -2.44735 0
M  V30 6734 C 624.81 -3.03745 -3.42787 0
M  V30 6735 N 626.301 -3.03012 -3.5034 0
M  V30 6736 C 627.036 -3.83699 -4.26101 0
M  V30 6737 N 626.532 -4.74306 -5.04981 0
M  V30 6738 N 628.325 -3.71942 -4.21445 0
M  V30 6739 H 620.476 -1.99029 -0.74169 0
M  V30 6740 H 622.739 -0.864557 -0.388903 0
M  V30 6741 H 622.445 -2.91906 -1.96172 0
M  V30 6742 H 622.319 -1.80536 -3.3119 0
M  V30 6743 H 624.706 -0.962069 -2.78977 0
M  V30 6744 H 624.787 -2.11018 -1.44586 0
M  V30 6745 H 624.431 -4.02878 -3.09276 0
M  V30 6746 H 624.361 -2.85094 -4.42752 0
M  V30 6747 H 626.852 -2.37352 -2.94062 0
M  V30 6748 H 627.165 -5.32446 -5.60108 0
M  V30 6749 H 625.51 -4.78339 -5.04199 0
M  V30 6750 H 628.701 -3.00513 -3.589 0
M  V30 6751 H 628.874 -4.35062 -4.80235 0
M  V30 6752 N 622.28 1.30327 -0.886154 0
M  V30 6753 C 623.526 1.96388 -0.505941 0
M  V30 6754 C 623.859 1.69784 0.942712 0
M  V30 6755 O 623.134 1.00322 1.6663 0
M  V30 6756 C 623.417 3.51488 -0.782826 0
M  V30 6757 C 623.27 3.87603 -2.28219 0
M  V30 6758 C 624.589 4.39331 -0.260128 0
M  V30 6759 H 621.708 0.713327 -0.185292 0
M  V30 6760 H 624.35 1.54178 -1.11036 0
M  V30 6761 H 622.5 3.87572 -0.268399 0
M  V30 6762 H 624.172 3.61537 -2.86512 0
M  V30 6763 H 622.415 3.3563 -2.74837 0
M  V30 6764 H 623.086 4.95806 -2.42653 0
M  V30 6765 H 625.562 4.10162 -0.700444 0
M  V30 6766 H 624.438 5.46769 -0.483179 0
M  V30 6767 H 624.699 4.34072 0.838674 0
M  V30 6768 N 623.758 0.647228 1.43697 0
M  V30 6769 C 624.988 0.16551 2.05936 0
M  V30 6770 C 625.396 -1.17164 1.48557 0
M  V30 6771 O 624.739 -1.73307 0.60914 0
M  V30 6772 C 624.801 -0.00648082 3.59499 0
M  V30 6773 C 624.465 1.25503 4.39429 0
M  V30 6774 C 625.462 2.18241 4.71876 0
M  V30 6775 C 623.147 1.49494 4.79538 0
M  V30 6776 C 625.141 3.33268 5.43333 0
M  V30 6777 C 622.828 2.64815 5.50742 0
M  V30 6778 C 623.826 3.56528 5.82561 0
M  V30 6779 O 623.514 4.69836 6.52311 0
M  V30 6780 H 623.246 0.0844124 0.670709 0
M  V30 6781 H 625.8 0.88638 1.8529 0
M  V30 6782 H 624.03 -0.782661 3.78697 0
M  V30 6783 H 625.719 -0.444794 4.03456 0
M  V30 6784 H 626.485 2.00946 4.41413 0
M  V30 6785 H 622.364 0.789912 4.54182 0
M  V30 6786 H 625.908 4.04874 5.68087 0
M  V30 6787 H 621.805 2.82047 5.8062 0
M  V30 6788 H 622.573 4.69024 6.70789 0
M  V30 6789 N 625.236 -1.5273 0.388769 0
M  V30 6790 C 626.652 -1.59553 0.0387049 0
M  V30 6791 C 626.852 -1.40278 -1.44652 0
M  V30 6792 O 625.908 -1.21951 -2.21098 0
M  V30 6793 C 627.221 -2.9625 0.515409 0
M  V30 6794 C 628.769 -3.09426 0.471621 0
M  V30 6795 C 629.244 -4.48572 0.924505 0
M  V30 6796 N 630.735 -4.54754 0.880496 0
M  V30 6797 C 631.47 -5.60653 1.20234 0
M  V30 6798 N 630.966 -6.74198 1.59463 0
M  V30 6799 N 632.759 -5.50755 1.12363 0
M  V30 6800 H 624.91 -1.63508 1.35569 0
M  V30 6801 H 627.173 -0.768097 0.555636 0
M  V30 6802 H 626.879 -3.15569 1.5527 0
M  V30 6803 H 626.753 -3.77102 -0.085792 0
M  V30 6804 H 629.14 -2.89804 -0.556588 0
M  V30 6805 H 629.221 -2.30528 1.10862 0
M  V30 6806 H 628.865 -4.68936 1.95094 0
M  V30 6807 H 628.795 -5.25935 0.264524 0
M  V30 6808 H 631.286 -3.73237 0.591815 0
M  V30 6809 H 631.599 -7.5097 1.82385 0
M  V30 6810 H 629.944 -6.75531 1.63349 0
M  V30 6811 H 633.135 -4.6093 0.816169 0
M  V30 6812 H 633.308 -6.33184 1.37777 0
M  V30 6813 N 626.714 -0.118576 -1.57153 0
M  V30 6814 C 627.962 0.538461 -1.94795 0
M  V30 6815 C 628.283 1.67243 -1.00274 0
M  V30 6816 O 627.553 1.95811 -0.0589692 0
M  V30 6817 H 626.133 0.201904 -0.719197 0
M  V30 6818 H 628.795 -0.187418 -1.93997 0
M  V30 6819 H 627.891 0.933315 -2.97818 0
M  V30 6820 N 628.193 1.56834 0.155195 0
M  V30 6821 C 629.442 1.82088 0.867567 0
M  V30 6822 C 629.755 0.69849 1.82703 0
M  V30 6823 O 630.961 0.836407 2.58295 0
M  V30 6824 C 629.417 3.22707 1.59336 0
M  V30 6825 C 629.025 4.42859 0.676719 0
M  V30 6826 C 630.769 3.57242 2.293 0
M  V30 6827 C 628.676 5.74501 1.40367 0
M  V30 6828 H 627.606 0.679057 0.327715 0
M  V30 6829 H 630.257 1.83105 0.120351 0
M  V30 6830 H 628.639 3.16054 2.38591 0
M  V30 6831 H 629.813 4.60731 -0.0800196 0
M  V30 6832 H 628.128 4.16311 0.0859129 0
M  V30 6833 H 630.725 4.52847 2.84312 0
M  V30 6834 H 631.068 2.82901 3.05406 0
M  V30 6835 H 631.601 3.6552 1.56972 0
M  V30 6836 H 628.34 6.51915 0.684623 0
M  V30 6837 H 627.86 5.60579 2.13332 0
M  V30 6838 H 629.539 6.17016 1.94681 0
M  V30 6839 N 629.671 -0.424282 1.51781 0
M  V30 6840 C 631.087 -0.761768 1.40247 0
M  V30 6841 C 631.287 -1.95324 0.495041 0
M  V30 6842 O 630.343 -2.5246 -0.0448949 0
M  V30 6843 C 631.656 -1.0299 2.82513 0
M  V30 6844 C 633.204 -1.13354 2.91753 0
M  V30 6845 C 633.679 -1.43453 4.34954 0
M  V30 6846 N 635.17 -1.5035 4.3812 0
M  V30 6847 C 635.905 -1.75236 5.45967 0
M  V30 6848 N 635.401 -1.97827 6.63955 0
M  V30 6849 N 637.194 -1.77126 5.33463 0
M  V30 6850 H 629.345 0.360228 2.09323 0
M  V30 6851 H 631.608 0.0988128 0.942836 0
M  V30 6852 H 631.314 -0.226961 3.50967 0
M  V30 6853 H 631.188 -1.95411 3.22637 0
M  V30 6854 H 633.575 -1.92709 2.23489 0
M  V30 6855 H 633.656 -0.188041 2.55108 0
M  V30 6856 H 633.3 -0.646209 5.03772 0
M  V30 6857 H 633.23 -2.3923 4.69123 0
M  V30 6858 H 635.721 -1.34742 3.53062 0
M  V30 6859 H 636.034 -2.16223 7.41935 0
M  V30 6860 H 634.379 -1.95123 6.67047 0
M  V30 6861 H 637.57 -1.59005 4.40267 0
M  V30 6862 H 637.743 -1.96182 6.17589 0
M  V30 6863 N 631.149 -1.42148 -0.680565 0
M  V30 6864 C 632.099 -1.41634 -1.78672 0
M  V30 6865 C 633.083 -0.288494 -1.58293 0
M  V30 6866 O 634.275 -0.530295 -1.68869 0
M  V30 6867 C 631.404 -1.31558 -3.17092 0
M  V30 6868 C 630.49 -2.49265 -3.43115 0
M  V30 6869 N 630.881 -3.74702 -3.39753 0
M  V30 6870 C 629.179 -2.43401 -3.73727 0
M  V30 6871 C 629.88 -4.52854 -3.651 0
M  V30 6872 N 628.856 -3.83181 -3.85582 0
M  V30 6873 H 632.658 -2.3652 -1.74458 0
M  V30 6874 H 630.172 -1.36415 -0.881171 0
M  V30 6875 H 632.169 -1.29272 -3.96351 0
M  V30 6876 H 630.829 -0.376696 -3.22508 0
M  V30 6877 H 631.84 -4.07378 -3.19787 0
M  V30 6878 H 628.517 -1.58062 -3.86423 0
M  V30 6879 H 629.907 -5.61827 -3.6851 0
M  V30 6880 N 632.627 0.916307 -1.28225 0
M  V30 6881 C 633.855 1.69901 -1.18073 0
M  V30 6882 C 634.27 1.86988 0.260968 0
M  V30 6883 O 633.627 1.39505 1.17663 0
M  V30 6884 C 633.678 3.09254 -1.87201 0
M  V30 6885 O 633.399 2.92959 -3.2574 0
M  V30 6886 C 634.9 4.0362 -1.83319 0
M  V30 6887 H 632.12 0.531181 -0.409985 0
M  V30 6888 H 634.664 1.14703 -1.69303 0
M  V30 6889 H 632.819 3.61277 -1.39848 0
M  V30 6890 H 633.233 3.81139 -3.60324 0
M  V30 6891 H 634.707 4.98873 -2.36282 0
M  V30 6892 H 635.184 4.3176 -0.805007 0
M  V30 6893 H 635.79 3.57524 -2.3034 0
M  V30 6894 N 634.105 1.10431 1.1244 0
M  V30 6895 C 635.33 0.869089 1.88313 0
M  V30 6896 C 635.755 -0.574912 1.79099 0
M  V30 6897 O 635.113 -1.40496 1.14589 0
M  V30 6898 C 635.161 1.32208 3.3549 0
M  V30 6899 O 634.265 0.487092 4.09513 0
M  V30 6900 H 633.606 0.313894 0.585121 0
M  V30 6901 H 636.136 1.47111 1.42195 0
M  V30 6902 H 636.146 1.31201 3.86329 0
M  V30 6903 H 634.821 2.37364 3.41513 0
M  V30 6904 H 633.398 0.562372 3.68635 0
M  V30 6905 N 635.583 -1.29855 0.893053 0
M  V30 6906 C 636.53 -2.27909 0.364161 0
M  V30 6907 C 637.5 -1.56726 -0.550093 0
M  V30 6908 O 638.685 -1.84747 -0.47677 0
M  V30 6909 C 635.825 -3.42678 -0.408178 0
M  V30 6910 C 634.938 -4.28659 0.536212 0
M  V30 6911 C 634.073 -5.30599 -0.252521 0
M  V30 6912 C 633.112 -6.08234 0.686822 0
M  V30 6913 N 632.249 -7.02068 -0.0670902 0
M  V30 6914 H 637.089 -2.72531 1.20544 0
M  V30 6915 H 634.626 -1.34047 0.605779 0
M  V30 6916 H 636.584 -4.07986 -0.871962 0
M  V30 6917 H 635.214 -2.99103 -1.21397 0
M  V30 6918 H 634.266 -3.63584 1.1185 0
M  V30 6919 H 635.578 -4.8274 1.25552 0
M  V30 6920 H 634.732 -6.01694 -0.777801 0
M  V30 6921 H 633.471 -4.77233 -1.005 0
M  V30 6922 H 632.476 -5.3601 1.22366 0
M  V30 6923 H 633.701 -6.63689 1.43852 0
M  V30 6924 H 631.647 -6.5108 -0.801955 0
M  V30 6925 H 631.564 -7.53675 0.59243 0
M  V30 6926 H 632.832 -7.77392 -0.572851 0
M  V30 6927 N 637.061 -0.65484 -1.43351 0
M  V30 6928 C 638.308 -0.168892 -2.01794 0
M  V30 6929 C 638.636 1.2177 -1.51665 0
M  V30 6930 O 637.891 1.82717 -0.70092 0
M  V30 6931 C 638.19 -0.130424 -3.57162 0
M  V30 6932 C 637.856 -1.45898 -4.26643 0
M  V30 6933 C 636.518 -1.82279 -4.4534 0
M  V30 6934 C 638.87 -2.33485 -4.65976 0
M  V30 6935 C 636.198 -3.0591 -5.00635 0
M  V30 6936 C 638.55 -3.5641 -5.22642 0
M  V30 6937 C 637.214 -3.92985 -5.39555 0
M  V30 6938 H 636.484 -0.061802 -0.738418 0
M  V30 6939 H 639.131 -0.845869 -1.71806 0
M  V30 6940 H 637.436 0.630008 -3.86702 0
M  V30 6941 H 639.133 0.262465 -4.0014 0
M  V30 6942 H 635.723 -1.16591 -4.12437 0
M  V30 6943 H 639.907 -2.06668 -4.51223 0
M  V30 6944 H 635.163 -3.34295 -5.11915 0
M  V30 6945 H 639.337 -4.24495 -5.52066 0
M  V30 6946 H 636.964 -4.88862 -5.82167 0
M  V30 6947 N 638.539 1.52521 -0.396863 0
M  V30 6948 C 639.779 2.03583 0.182578 0
M  V30 6949 C 640.143 1.2766 1.43412 0
M  V30 6950 O 641.344 1.68884 2.09121 0
M  V30 6951 C 639.615 3.54724 0.436519 0
M  V30 6952 S 641.174 4.27598 0.985163 0
M  V30 6953 H 637.992 0.709186 0.0507529 0
M  V30 6954 H 640.594 1.87693 -0.546955 0
M  V30 6955 H 639.298 4.07567 -0.481343 0
M  V30 6956 H 638.829 3.74834 1.19427 0
M  V30 6957 H 640.844 4.41393 2.26686 0
M  V30 6958 N 640.017 0.126909 1.57088 0
M  V30 6959 C 641.242 -0.53997 2.00248 0
M  V30 6960 C 641.667 -1.58927 1.00618 0
M  V30 6961 O 641.025 -1.81288 -0.0210131 0
M  V30 6962 C 641.073 -1.13565 3.4225 0
M  V30 6963 O 640.177 -2.25103 3.45547 0
M  V30 6964 H 639.518 -0.13412 0.650314 0
M  V30 6965 H 642.048 0.217718 2.03438 0
M  V30 6966 H 642.058 -1.46925 3.80627 0
M  V30 6967 H 640.733 -0.367122 4.14277 0
M  V30 6968 H 639.31 -1.93123 3.18995 0
M  V30 6969 N 641.495 -1.56914 -0.146875 0
M  V30 6970 C 642.744 -1.82546 -0.857898 0
M  V30 6971 C 643.057 -0.708169 -1.8233 0
M  V30 6972 O 644.263 -0.850093 -2.57848 0
M  V30 6973 C 642.719 -3.23548 -1.57623 0
M  V30 6974 C 642.327 -4.43212 -0.653224 0
M  V30 6975 C 644.071 -3.58453 -2.27402 0
M  V30 6976 C 641.978 -5.75237 -1.37318 0
M  V30 6977 H 640.908 -0.680786 -0.32411 0
M  V30 6978 H 643.559 -1.83166 -0.110639 0
M  V30 6979 H 641.941 -3.17315 -2.36912 0
M  V30 6980 H 643.115 -4.60682 0.104452 0
M  V30 6981 H 641.43 -4.16351 -0.0638336 0
M  V30 6982 H 644.027 -4.54349 -2.81907 0
M  V30 6983 H 644.37 -2.84516 -3.03901 0
M  V30 6984 H 644.903 -3.66347 -1.55032 0
M  V30 6985 H 641.642 -6.52269 -0.650041 0
M  V30 6986 H 641.162 -5.61703 -2.10357 0
M  V30 6987 H 642.841 -6.18039 -1.91406 0
M  V30 6988 N 642.974 0.416227 -1.52004 0
M  V30 6989 C 643.904 1.51365 -1.77795 0
M  V30 6990 C 644.885 1.58059 -0.628601 0
M  V30 6991 O 646.07 1.73447 -0.873478 0
M  V30 6992 C 643.2 2.89256 -1.92219 0
M  V30 6993 C 642.154 2.97415 -3.0778 0
M  V30 6994 C 641.48 4.37492 -3.07417 0
M  V30 6995 C 642.78 2.69551 -4.47369 0
M  V30 6996 H 644.474 1.30033 -2.69688 0
M  V30 6997 H 642.02 0.624112 -1.29772 0
M  V30 6998 H 643.973 3.66008 -2.08845 0
M  V30 6999 H 642.697 3.11866 -0.969917 0
M  V30 7000 H 641.356 2.23107 -2.90893 0
M  V30 7001 H 641.004 4.571 -2.09925 0
M  V30 7002 H 640.704 4.43877 -3.85029 0
M  V30 7003 H 642.228 5.16188 -3.26162 0
M  V30 7004 H 643.642 3.36028 -4.64497 0
M  V30 7005 H 642.039 2.87321 -5.26846 0
M  V30 7006 H 643.109 1.65029 -4.55953 0
M  V30 7007 O 644.491 1.51403 0.562082 0
M  V30 7008 H 645.182 1.50679 1.21719 0
M  V30 END ATOM
M  V30 BEGIN BOND
M  V30 END BOND
M  V30 END CTAB
M  END
$$$$
