drugbank_target|Q8KNZ7 Long-chain N-acyl amino acid synthase (DB08275)
 OpenBabel12092120503D

  0  0  0     0  0            999 V3000
M  V30 BEGIN CTAB
M  V30 COUNTS 3030 3067 0 0 0
M  V30 BEGIN ATOM
M  V30 1 H -0.908 1.98254 -0.117106 0
M  V30 2 N 0 1.576 0 0
M  V30 3 C 0.933 2.03868 1.02534 0
M  V30 4 C 1.911 0.928543 1.3348 0
M  V30 5 O 3.095 1.19667 1.45644 0
M  V30 6 C 0.222 2.43627 2.35294 0
M  V30 7 C -0.732 3.65373 2.2001 0
M  V30 8 S 0.101 5.13292 1.52614 0
M  V30 9 C 1.257 5.56322 2.86805 0
M  V30 10 H 1.49 2.90518 0.631377 0
M  V30 11 H -0.977 1.52953 0.210867 0
M  V30 12 H 0.981 2.67203 3.11629 0
M  V30 13 H -0.358 1.57376 2.7183 0
M  V30 14 H -1.165 3.90944 3.18086 0
M  V30 15 H -1.563 3.418 1.51819 0
M  V30 16 H 0.729 5.58782 3.83104 0
M  V30 17 H 1.672 6.56266 2.65933 0
M  V30 18 H 2.08 4.83886 2.90714 0
M  V30 19 N 1.4781 -0.272755 1.55222 0
M  V30 20 C 2.7061 -1.02255 1.79865 0
M  V30 21 C 3.1211 -1.79924 0.572088 0
M  V30 22 O 2.4781 -1.76638 -0.458842 0
M  V30 23 C 2.5291 -1.98094 3.02392 0
M  V30 24 O 2.2501 -1.23572 4.20311 0
M  V30 25 C 3.7511 -2.84884 3.39641 0
M  V30 26 H 0.9711 -0.302057 0.599168 0
M  V30 27 H 3.5151 -0.303465 2.02236 0
M  V30 28 H 1.6701 -2.65465 2.82147 0
M  V30 29 H 2.0841 -1.88172 4.89583 0
M  V30 30 H 3.5581 -3.47927 4.28545 0
M  V30 31 H 4.0351 -3.54665 2.59055 0
M  V30 32 H 4.6411 -2.23003 3.62146 0
M  V30 33 N 2.9562 -1.48159 -0.537278 0
M  V30 34 C 4.3672 -1.49429 -1.11928 0
M  V30 35 C 4.7182 -0.26 -1.9447 0
M  V30 36 O 3.8432 0.633489 -2.0692 0
M  V30 37 C 4.4382 -2.70758 -2.03656 0
M  V30 38 C 2.9972 -2.74923 -2.57088 0
M  V30 39 C 2.1442 -2.42835 -1.3389 0
M  V30 40 H 5.0952 -1.55381 -0.322886 0
M  V30 41 H 5.1162 -2.48861 -2.87834 0
M  V30 42 H 4.6282 -3.60575 -1.43553 0
M  V30 43 H 2.7292 -1.89296 -3.20933 0
M  V30 44 H 2.8422 -3.76157 -2.9672 0
M  V30 45 H 1.2062 -1.93836 -1.65226 0
M  V30 46 H 1.9892 -3.34884 -0.755504 0
M  V30 47 N 4.4343 0.785586 -1.36625 0
M  V30 48 C 5.8503 1.08419 -1.17122 0
M  V30 49 C 6.0503 2.015 0.00208491 0
M  V30 50 O 5.1063 2.43551 0.666278 0
M  V30 51 C 6.4193 1.69498 -2.48377 0
M  V30 52 C 7.9673 1.81821 -2.54775 0
M  V30 53 C 8.4423 2.46315 -3.86126 0
M  V30 54 N 9.9333 2.53779 -3.87492 0
M  V30 55 C 10.6683 3.045 -4.85868 0
M  V30 56 N 10.1643 3.55499 -5.94637 0
M  V30 57 N 11.9573 3.03247 -4.73284 0
M  V30 58 H 4.1083 0.167264 -2.1174 0
M  V30 59 H 6.3713 0.13682 -0.938075 0
M  V30 60 H 6.0773 1.08571 -3.34522 0
M  V30 61 H 5.9513 2.6896 -2.64462 0
M  V30 62 H 8.3383 2.41884 -1.69045 0
M  V30 63 H 8.4193 0.811532 -2.42586 0
M  V30 64 H 8.0633 1.86895 -4.72263 0
M  V30 65 H 7.9933 3.47561 -3.95612 0
M  V30 66 H 10.4843 2.17672 -3.08913 0
M  V30 67 H 10.7973 3.92562 -6.65669 0
M  V30 68 H 9.1423 3.5364 -5.98301 0
M  V30 69 H 12.3333 2.62696 -3.87438 0
M  V30 70 H 12.5063 3.42467 -5.50109 0
M  V30 71 N 5.9124 1.20967 1.01018 0
M  V30 72 C 6.8594 0.964281 2.09691 0
M  V30 73 C 7.8294 -0.107853 1.65749 0
M  V30 74 O 9.0144 0.0381987 1.90762 0
M  V30 75 C 6.1544 0.52943 3.41015 0
M  V30 76 C 5.2674 1.67043 3.98398 0
M  V30 77 C 4.4024 1.18525 5.17808 0
M  V30 78 C 3.4414 2.29892 5.67288 0
M  V30 79 N 2.5784 1.82546 6.77954 0
M  V30 80 H 7.4184 1.89463 2.30017 0
M  V30 81 H 4.9554 0.944289 1.1279 0
M  V30 82 H 6.9134 0.258588 4.16398 0
M  V30 83 H 5.5434 -0.363919 3.20742 0
M  V30 84 H 4.5954 2.05603 3.20049 0
M  V30 85 H 5.9074 2.50877 4.31117 0
M  V30 86 H 5.0614 0.870762 6.00419 0
M  V30 87 H 3.8004 0.316887 4.86669 0
M  V30 88 H 2.8054 2.6215 4.83278 0
M  V30 89 H 4.0304 3.17216 6.00459 0
M  V30 90 H 1.9764 0.980454 6.48632 0
M  V30 91 H 1.8934 2.59956 7.09901 0
M  V30 92 H 3.1614 1.54115 7.64113 0
M  V30 93 N 7.3905 -1.2043 1.01659 0
M  V30 94 C 8.6365 -1.90079 0.706963 0
M  V30 95 C 8.9695 -1.78648 -0.761474 0
M  V30 96 O 8.2445 -1.17069 -1.55323 0
M  V30 97 C 8.5275 -3.41469 1.14327 0
M  V30 98 C 8.3805 -3.61833 2.67201 0
M  V30 99 C 9.6995 -4.34261 0.714529 0
M  V30 100 H 6.8185 -0.690254 0.2583 0
M  V30 101 H 9.4605 -1.41826 1.26433 0
M  V30 102 H 7.6105 -3.82696 0.669056 0
M  V30 103 H 9.2825 -3.2986 3.22475 0
M  V30 104 H 7.5255 -3.05304 3.08175 0
M  V30 105 H 8.1965 -4.67955 2.92783 0
M  V30 106 H 10.6725 -4.00682 1.12221 0
M  V30 107 H 9.5485 -5.38806 1.04784 0
M  V30 108 H 9.8095 -4.40431 -0.383799 0
M  V30 109 N 8.8686 -0.792821 -1.36206 0
M  V30 110 C 9.8316 -0.199459 -2.2833 0
M  V30 111 C 10.8316 0.605189 -1.48977 0
M  V30 112 O 12.0216 0.425685 -1.68919 0
M  V30 113 C 9.1536 0.723523 -3.33134 0
M  V30 114 H 10.3466 -1.01181 -2.82316 0
M  V30 115 H 7.8996 -0.562485 -1.45828 0
M  V30 116 H 8.6346 1.56008 -2.84309 0
M  V30 117 H 8.4196 0.148436 -3.91819 0
M  V30 118 H 9.9096 1.13344 -4.01924 0
M  V30 119 N 10.3467 1.47872 -0.545128 0
M  V30 120 C 11.7627 1.5829 -0.204032 0
M  V30 121 C 11.9627 1.54529 1.29317 0
M  V30 122 O 11.0187 1.44232 2.07252 0
M  V30 123 C 12.3317 2.89304 -0.819987 0
M  V30 124 C 13.8797 3.02864 -0.790105 0
M  V30 125 C 14.3547 4.3656 -1.38491 0
M  V30 126 N 15.8457 4.43165 -1.34755 0
M  V30 127 C 16.5807 5.45153 -1.77753 0
M  V30 128 N 16.0767 6.54016 -2.2855 0
M  V30 129 N 17.8697 5.36125 -1.68897 0
M  V30 130 H 10.0207 1.4856 -1.51802 0
M  V30 131 H 12.2837 0.706305 -0.632327 0
M  V30 132 H 11.9897 2.97757 -1.87173 0
M  V30 133 H 11.8637 3.75957 -0.305915 0
M  V30 134 H 14.2507 2.94014 0.252913 0
M  V30 135 H 14.3317 2.17782 -1.34181 0
M  V30 136 H 13.9757 4.46164 -2.42693 0
M  V30 137 H 13.9057 5.20353 -0.808754 0
M  V30 138 H 16.3967 3.65083 -0.975855 0
M  V30 139 H 16.7097 7.27994 -2.59314 0
M  V30 140 H 15.0547 6.54938 -2.32553 0
M  V30 141 H 18.2457 4.49975 -1.28998 0
M  V30 142 H 18.4187 6.15472 -2.02726 0
M  V30 143 N 11.8248 0.280983 1.55075 0
M  V30 144 C 13.0738 -0.334784 1.98902 0
M  V30 145 C 13.3868 -1.56534 1.17288 0
M  V30 146 O 14.5928 -2.25443 1.51287 0
M  V30 147 C 13.0488 -0.646994 3.54037 0
M  V30 148 C 12.6568 0.564085 4.44435 0
M  V30 149 C 14.4008 -1.22506 4.06439 0
M  V30 150 C 12.3078 0.226137 5.90967 0
M  V30 151 H 11.2378 -0.128866 0.742906 0
M  V30 152 H 13.8888 0.386556 1.79382 0
M  V30 153 H 12.2708 -1.42739 3.6938 0
M  V30 154 H 13.4448 1.34082 4.40861 0
M  V30 155 H 11.7598 1.0594 4.02698 0
M  V30 156 H 14.3568 -1.49182 5.13468 0
M  V30 157 H 14.6998 -2.16085 3.55827 0
M  V30 158 H 15.2328 -0.50682 3.94558 0
M  V30 159 H 11.9718 1.12996 6.45687 0
M  V30 160 H 11.4918 -0.513717 5.97596 0
M  V30 161 H 13.1708 -0.179539 6.46751 0
M  V30 162 N 13.3029 -1.57598 0.00835791 0
M  V30 163 C 14.2329 -2.1198 -0.979113 0
M  V30 164 C 15.2139 -1.03091 -1.35301 0
M  V30 165 O 16.3989 -1.30818 -1.43528 0
M  V30 166 C 13.5289 -2.62995 -2.26828 0
M  V30 167 C 12.4829 -3.76485 -2.03576 0
M  V30 168 C 11.8089 -4.13846 -3.38579 0
M  V30 169 C 13.1089 -5.0342 -1.39161 0
M  V30 170 H 14.8029 -2.94738 -0.526281 0
M  V30 171 H 12.3489 -1.41783 -0.251704 0
M  V30 172 H 14.3019 -2.99669 -2.96271 0
M  V30 173 H 13.0259 -1.7737 -2.7424 0
M  V30 174 H 11.6849 -3.40217 -1.36557 0
M  V30 175 H 11.3329 -3.25232 -3.83709 0
M  V30 176 H 11.0329 -4.90312 -3.23834 0
M  V30 177 H 12.5569 -4.53086 -4.09323 0
M  V30 178 H 13.9709 -5.37812 -1.98573 0
M  V30 179 H 12.3679 -5.84746 -1.34878 0
M  V30 180 H 13.4379 -4.83548 -0.361868 0
M  V30 181 N 14.781 0.264519 -1.55364 0
M  V30 182 C 16.027 0.99646 -1.76631 0
M  V30 183 C 16.36 1.85632 -0.570478 0
M  V30 184 O 15.635 1.89647 0.43175 0
M  V30 185 C 15.918 1.87187 -3.07625 0
M  V30 186 C 15.771 1.04138 -4.37579 0
M  V30 187 C 17.09 2.85749 -3.34717 0
M  V30 188 H 14.209 0.360841 -0.642622 0
M  V30 189 H 16.851 0.268218 -1.88097 0
M  V30 190 H 15.001 2.49279 -2.9798 0
M  V30 191 H 16.673 0.440517 -4.59192 0
M  V30 192 H 14.916 0.345115 -4.32425 0
M  V30 193 H 15.587 1.68729 -5.2558 0
M  V30 194 H 18.063 2.33793 -3.4421 0
M  V30 195 H 16.939 3.44136 -4.27623 0
M  V30 196 H 17.2 3.61311 -2.54768 0
M  V30 197 N 16.2591 1.48442 0.529413 0
M  V30 198 C 17.2221 1.62524 1.61612 0
M  V30 199 C 18.2221 0.498509 1.52877 0
M  V30 200 O 19.4121 0.76431 1.56537 0
M  V30 201 C 16.5441 1.59597 3.01233 0
M  V30 202 H 17.7371 2.59423 1.50465 0
M  V30 203 H 15.2901 1.37047 0.751514 0
M  V30 204 H 16.0251 0.641781 3.17886 0
M  V30 205 H 15.8101 2.41397 3.08982 0
M  V30 206 H 17.3001 1.72646 3.80241 0
M  V30 207 N 17.7372 -0.778329 1.37039 0
M  V30 208 C 19.1482 -1.35421 1.28523 0
M  V30 209 C 19.4992 -1.96075 -0.0700901 0
M  V30 210 O 18.6242 -1.93352 -0.971801 0
M  V30 211 C 19.2192 -2.46211 2.32735 0
M  V30 212 C 17.7782 -2.99585 2.27873 0
M  V30 213 C 16.9252 -1.72748 2.16918 0
M  V30 214 H 19.8762 -0.5791 1.47757 0
M  V30 215 H 19.8972 -3.2552 1.9702 0
M  V30 216 H 19.4092 -2.02036 3.31365 0
M  V30 217 H 17.5102 -3.48152 1.32745 0
M  V30 218 H 17.6232 -3.55646 3.21018 0
M  V30 219 H 15.9872 -1.95416 1.63354 0
M  V30 220 H 16.7702 -1.30686 3.17452 0
M  V30 221 N 19.2153 -1.21501 -1.00376 0
M  V30 222 C 20.1633 -0.972442 -2.11297 0
M  V30 223 C 21.1573 0.080731 -1.69208 0
M  V30 224 O 22.3633 -0.0707666 -1.79861 0
M  V30 225 H 18.7383 -0.297218 -0.690772 0
M  V30 226 H 20.7093 -1.91394 -2.28934 0
M  V30 227 C 19.4583 -0.555065 -3.43241 0
M  V30 228 H 18.7813 -1.35709 -3.76062 0
M  V30 229 H 20.2213 -0.424664 -4.21868 0
M  V30 230 C 18.6803 0.734147 -3.28804 0
M  V30 231 O 19.2103 1.78937 -3.59645 0
M  V30 232 N 17.4163 0.701133 -2.82015 0
M  V30 233 H 16.9633 -0.157874 -2.57116 0
M  V30 234 H 16.9213 1.56403 -2.72737 0
M  V30 235 N 20.6934 1.19889 -1.02296 0
M  V30 236 C 21.6034 2.26571 -0.608508 0
M  V30 237 C 22.6194 1.70299 0.356964 0
M  V30 238 O 23.7954 2.00235 0.216326 0
M  V30 239 C 20.8604 3.46677 0.0402814 0
M  V30 240 C 19.9214 4.18153 -0.97194 0
M  V30 241 C 19.1544 5.32525 -0.354016 0
M  V30 242 O 19.3774 5.64112 0.844604 0
M  V30 243 O 18.3114 5.92242 -1.07391 0
M  V30 244 H 22.1374 2.64251 -1.49684 0
M  V30 245 H 19.7224 1.26629 -0.792809 0
M  V30 246 H 21.6044 4.19475 0.402324 0
M  V30 247 H 20.2794 3.10858 0.902707 0
M  V30 248 H 19.1864 3.47499 -1.38546 0
M  V30 249 H 20.5194 4.57927 -1.80454 0
M  V30 250 N 22.1715 0.800033 1.35784 0
M  V30 251 C 23.5875 0.482977 1.52117 0
M  V30 252 C 23.7875 -0.996948 1.75109 0
M  V30 253 O 22.8435 -1.78216 1.78872 0
M  V30 254 C 24.1565 1.32264 2.70049 0
M  V30 255 C 25.7045 1.31742 2.83924 0
M  V30 256 C 26.1795 2.14106 4.04874 0
M  V30 257 N 27.6705 2.11607 4.12039 0
M  V30 258 C 28.4055 2.72099 5.04727 0
M  V30 259 N 27.9015 3.41492 6.02789 0
M  V30 260 N 29.6945 2.61776 4.97423 0
M  V30 261 H 21.8455 1.75856 1.19115 0
M  V30 262 H 24.1085 0.748122 0.582252 0
M  V30 263 H 23.8145 2.37261 2.59616 0
M  V30 264 H 23.6885 0.971303 3.6448 0
M  V30 265 H 26.0755 0.275333 2.93813 0
M  V30 266 H 26.1565 1.70859 1.9037 0
M  V30 267 H 25.8005 3.18351 3.95746 0
M  V30 268 H 25.7305 1.72353 4.97596 0
M  V30 269 H 28.2215 1.61112 3.41835 0
M  V30 270 H 28.5345 3.84953 6.70098 0
M  V30 271 H 26.8795 3.45596 6.02983 0
M  V30 272 H 30.0705 2.07157 4.19766 0
M  V30 273 H 30.2435 3.0921 5.69468 0
M  V30 274 N 23.6496 -1.47581 0.552962 0
M  V30 275 C 24.9266 -1.95563 -0.0381515 0
M  V30 276 C 25.3066 -1.49552 -1.48988 0
M  V30 277 O 24.6546 -0.732414 -2.16444 0
M  V30 278 C 24.8646 -3.48848 0.102919 0
M  V30 279 C 26.2126 -4.24577 -0.0446082 0
M  V30 280 O 27.2366 -3.56187 0.0302548 0
M  V30 281 O 26.0956 -5.46116 -0.204923 0
M  V30 282 H 23.1896 -0.824321 -0.0665067 0
M  V30 283 H 25.7356 -1.58001 0.619186 0
M  V30 284 H 24.5076 -3.75129 1.11328 0
M  V30 285 H 24.1306 -3.93165 -0.592224 0
M  V30 286 N 25.1277 -0.289203 -1.54924 0
M  V30 287 C 26.0907 0.579144 -2.21762 0
M  V30 288 C 27.0907 1.07047 -1.1999 0
M  V30 289 O 28.2807 0.968384 -1.44803 0
M  V30 290 C 25.4127 1.80055 -2.8947 0
M  V30 291 H 26.6057 -0.00464908 -2.999 0
M  V30 292 H 24.1587 -0.0399306 -1.56249 0
M  V30 293 H 24.8937 2.42449 -2.15381 0
M  V30 294 H 24.6787 1.45602 -3.64064 0
M  V30 295 H 26.1687 2.41773 -3.40493 0
M  V30 296 N 26.6058 1.57591 -0.0167156 0
M  V30 297 C 27.5688 2.08393 0.954204 0
M  V30 298 C 28.5688 0.996531 1.26198 0
M  V30 299 O 29.7588 1.25858 1.20438 0
M  V30 300 C 26.8908 2.5394 2.27436 0
M  V30 301 H 28.0838 2.95455 0.514451 0
M  V30 302 H 25.6368 1.54582 0.231089 0
M  V30 303 H 26.3718 1.70171 2.76066 0
M  V30 304 H 26.1568 3.33371 2.06412 0
M  V30 305 H 27.6468 2.93512 2.97053 0
M  V30 306 N 28.0839 -0.256276 1.55502 0
M  V30 307 C 29.4999 -0.604325 1.47716 0
M  V30 308 C 29.6999 -1.88763 0.705039 0
M  V30 309 O 28.7559 -2.51445 0.230613 0
M  V30 310 C 30.0689 -0.715756 2.92057 0
M  V30 311 C 31.6169 -0.808706 3.02372 0
M  V30 312 C 32.0919 -0.951777 4.48001 0
M  V30 313 N 33.5829 -1.01688 4.519 0
M  V30 314 C 34.3179 -1.14668 5.61817 0
M  V30 315 N 33.8139 -1.24261 6.81565 0
M  V30 316 N 35.6069 -1.1791 5.49594 0
M  V30 317 H 27.7579 0.586291 2.04148 0
M  V30 318 H 30.0209 0.201015 0.926443 0
M  V30 319 H 29.7269 0.157027 3.51349 0
M  V30 320 H 29.6009 -1.59071 3.42018 0
M  V30 321 H 31.9879 -1.67195 2.43166 0
M  V30 322 H 32.0689 0.0912063 2.55637 0
M  V30 323 H 31.7129 -0.0931291 5.07815 0
M  V30 324 H 31.6429 -1.86659 4.92408 0
M  V30 325 H 34.1339 -0.954468 3.65648 0
M  V30 326 H 34.4469 -1.34046 7.61086 0
M  V30 327 H 32.7919 -1.21236 6.84344 0
M  V30 328 H 35.9829 -1.10057 4.54978 0
M  V30 329 H 36.1559 -1.27681 6.35296 0
M  V30 330 N 29.562 -1.4872 -0.521534 0
M  V30 331 C 30.978 -1.35028 -0.850855 0
M  V30 332 C 31.178 -0.367712 -1.98116 0
M  V30 333 O 30.234 0.208037 -2.51642 0
M  V30 334 C 31.547 -2.75263 -1.21041 0
M  V30 335 C 33.095 -2.83813 -1.31981 0
M  V30 336 C 33.57 -4.24769 -1.71276 0
M  V30 337 N 35.061 -4.27482 -1.78363 0
M  V30 338 C 35.796 -5.33494 -2.1017 0
M  V30 339 N 35.292 -6.49775 -2.40343 0
M  V30 340 N 37.085 -5.20894 -2.11248 0
M  V30 341 H 29.236 -2.11214 0.22413 0
M  V30 342 H 31.499 -0.947252 0.0376439 0
M  V30 343 H 31.205 -3.48765 -0.453415 0
M  V30 344 H 31.079 -3.09327 -2.15863 0
M  V30 345 H 33.466 -2.10561 -2.06756 0
M  V30 346 H 33.547 -2.53358 -0.352596 0
M  V30 347 H 33.191 -4.9854 -0.970588 0
M  V30 348 H 33.121 -4.52673 -2.69062 0
M  V30 349 H 35.612 -3.43611 -1.57288 0
M  V30 350 H 35.925 -7.26402 -2.63743 0
M  V30 351 H 34.27 -6.53035 -2.37844 0
M  V30 352 H 37.461 -4.29065 -1.87139 0
M  V30 353 H 37.634 -6.03612 -2.35704 0
M  V30 354 N 31.0401 0.771051 -1.3745 0
M  V30 355 C 32.2891 1.52491 -1.3202 0
M  V30 356 C 32.6021 1.9538 0.0927347 0
M  V30 357 O 33.8081 2.70159 0.269503 0
M  V30 358 C 32.2641 2.75366 -2.31736 0
M  V30 359 C 31.8721 2.39573 -3.78562 0
M  V30 360 C 33.6161 3.53307 -2.35318 0
M  V30 361 C 31.5231 3.58954 -4.70007 0
M  V30 362 H 30.4531 0.572506 -0.490666 0
M  V30 363 H 33.1041 0.844474 -1.62914 0
M  V30 364 H 31.4861 3.45303 -1.93861 0
M  V30 365 H 32.6601 1.77415 -4.25277 0
M  V30 366 H 30.9751 1.74805 -3.77932 0
M  V30 367 H 33.5721 4.42039 -3.00842 0
M  V30 368 H 33.9151 3.93217 -1.36698 0
M  V30 369 H 34.4481 2.90367 -2.71904 0
M  V30 370 H 31.1871 3.24125 -5.69757 0
M  V30 371 H 30.7071 4.20214 -4.27996 0
M  V30 372 H 32.3861 4.25758 -4.87175 0
M  V30 373 N 32.5182 1.22032 0.997298 0
M  V30 374 C 33.7642 1.04376 1.73878 0
M  V30 375 C 34.0972 -0.420716 1.89588 0
M  V30 376 O 33.3722 -1.31202 1.43583 0
M  V30 377 C 33.6552 1.75047 3.14691 0
M  V30 378 C 33.5082 3.29062 3.06656 0
M  V30 379 C 34.8272 1.49928 4.13775 0
M  V30 380 H 31.9462 0.380578 0.631133 0
M  V30 381 H 34.5882 1.50312 1.16217 0
M  V30 382 H 32.7382 1.35996 3.63919 0
M  V30 383 H 34.4102 3.7753 2.65083 0
M  V30 384 H 32.6532 3.58967 2.43568 0
M  V30 385 H 33.3242 3.73683 4.06282 0
M  V30 386 H 35.8002 1.83842 3.73285 0
M  V30 387 H 34.6762 2.01878 5.10428 0
M  V30 388 H 34.9372 0.430929 4.39995 0
M  V30 389 N 33.9963 -1.19345 1.0293 0
M  V30 390 C 35.4123 -1.41069 0.746446 0
M  V30 391 C 35.6123 -1.90078 -0.668776 0
M  V30 392 O 34.6683 -2.0778 -1.4347 0
M  V30 393 C 35.9813 -2.42141 1.78292 0
M  V30 394 C 37.5293 -2.55887 1.80252 0
M  V30 395 C 38.0043 -3.60214 2.8286 0
M  V30 396 N 39.4953 -3.67711 2.81679 0
M  V30 397 C 40.2303 -4.48128 3.57727 0
M  V30 398 N 39.7263 -5.32248 4.43491 0
M  V30 399 N 41.5193 -4.42782 3.46267 0
M  V30 400 H 33.6703 -0.858536 1.94275 0
M  V30 401 H 35.9333 -0.439541 0.839945 0
M  V30 402 H 35.6393 -2.13155 2.79746 0
M  V30 403 H 35.5133 -3.41323 1.60557 0
M  V30 404 H 37.9003 -2.84196 0.794757 0
M  V30 405 H 37.9813 -1.56858 2.02062 0
M  V30 406 H 37.6253 -3.32647 3.83807 0
M  V30 407 H 37.5553 -4.58895 2.58307 0
M  V30 408 H 40.0463 -3.07634 2.19476 0
M  V30 409 H 40.3593 -5.90729 4.98256 0
M  V30 410 H 38.7043 -5.31707 4.47564 0
M  V30 411 H 41.8953 -3.76107 2.78677 0
M  V30 412 H 42.0683 -5.05215 4.05785 0
M  V30 413 N 35.4744 -0.807222 -1.35358 0
M  V30 414 C 36.7024 -0.400377 -2.02989 0
M  V30 415 C 37.1174 0.988859 -1.60832 0
M  V30 416 O 36.4744 1.63729 -0.806175 0
M  V30 417 C 36.5254 -0.474867 -3.58368 0
M  V30 418 O 36.2464 -1.80933 -3.98992 0
M  V30 419 C 37.7474 -0.0609112 -4.43258 0
M  V30 420 H 34.9674 -0.162587 -0.651004 0
M  V30 421 H 37.5114 -1.09102 -1.72965 0
M  V30 422 H 35.6664 0.167534 -3.87038 0
M  V30 423 H 36.0804 -1.77256 -4.9364 0
M  V30 424 H 37.5544 -0.164145 -5.51756 0
M  V30 425 H 38.0314 0.993831 -4.27808 0
M  V30 426 H 38.6374 -0.676492 -4.19885 0
M  V30 427 N 36.9525 1.47285 -0.560781 0
M  V30 428 C 38.1805 2.06855 -0.0430262 0
M  V30 429 C 38.5955 1.41291 1.25229 0
M  V30 430 O 37.9525 0.510648 1.7521 0
M  V30 431 C 38.0035 3.61178 0.152518 0
M  V30 432 O 37.7245 4.24285 -1.0915 0
M  V30 433 C 39.2255 4.37624 0.707145 0
M  V30 434 H 36.4455 0.669319 -0.0474652 0
M  V30 435 H 38.9895 1.89237 -0.77521 0
M  V30 436 H 37.1445 3.78298 0.834843 0
M  V30 437 H 37.5585 5.16868 -0.891482 0
M  V30 438 H 39.0325 5.46271 0.793244 0
M  V30 439 H 39.5095 4.04152 1.71923 0
M  V30 440 H 40.1155 4.25257 0.0604027 0
M  V30 441 N 38.4306 0.297415 1.54768 0
M  V30 442 C 39.6606 -0.315165 2.04182 0
M  V30 443 C 40.0686 -1.4834 1.17439 0
M  V30 444 O 39.4116 -1.82695 0.191891 0
M  V30 445 C 39.4736 -0.837583 3.49607 0
M  V30 446 C 39.1376 0.204912 4.5654 0
M  V30 447 C 40.1346 1.03214 5.09552 0
M  V30 448 C 37.8196 0.345578 5.0111 0
M  V30 449 C 39.8136 1.986 6.05671 0
M  V30 450 C 37.5006 1.30289 5.97049 0
M  V30 451 C 38.4986 2.12159 6.49213 0
M  V30 452 O 38.1866 3.06268 7.43273 0
M  V30 453 H 37.9186 -0.0729646 0.672051 0
M  V30 454 H 40.4726 0.433907 2.00765 0
M  V30 455 H 38.7026 -1.63712 3.50336 0
M  V30 456 H 40.3916 -1.36566 3.82236 0
M  V30 457 H 41.1576 0.934312 4.75916 0
M  V30 458 H 37.0366 -0.28171 4.60138 0
M  V30 459 H 40.5806 2.62542 6.46311 0
M  V30 460 H 36.4776 1.40145 6.30103 0
M  V30 461 H 37.2456 3.01205 7.61064 0
M  V30 462 N 39.9087 -1.5758 0.0250728 0
M  V30 463 C 40.8187 -2.1343 -0.973905 0
M  V30 464 C 41.8347 -1.08556 -1.35984 0
M  V30 465 O 43.0107 -1.40592 -1.44207 0
M  V30 466 C 40.0757 -2.64703 -2.23904 0
M  V30 467 C 39.1367 -3.84276 -1.91391 0
M  V30 468 C 38.3697 -4.33095 -3.11873 0
M  V30 469 O 38.5927 -3.81107 -4.24398 0
M  V30 470 O 37.5267 -5.24984 -2.94406 0
M  V30 471 H 41.3527 -2.99057 -0.529036 0
M  V30 472 H 38.9377 -1.48118 -0.195288 0
M  V30 473 H 40.8197 -2.97769 -2.98181 0
M  V30 474 H 39.4947 -1.82161 -2.6758 0
M  V30 475 H 38.4017 -3.56143 -1.14511 0
M  V30 476 H 39.7347 -4.67968 -1.52534 0
M  V30 477 N 41.3868 0.248026 -1.55636 0
M  V30 478 C 42.3498 1.29044 -1.89421 0
M  V30 479 C 43.3498 1.41134 -0.770581 0
M  V30 480 O 44.5398 1.39854 -1.03858 0
M  V30 481 C 41.6718 2.66831 -2.12165 0
M  V30 482 H 42.8648 1.00305 -2.82629 0
M  V30 483 H 40.4178 0.487265 -1.48511 0
M  V30 484 H 41.1528 3.00711 -1.21422 0
M  V30 485 H 40.9378 2.59438 -2.93997 0
M  V30 486 H 42.4278 3.42103 -2.3949 0
M  V30 487 N 42.8649 1.48995 0.513639 0
M  V30 488 C 43.7969 1.60836 1.63293 0
M  V30 489 C 44.8099 0.491701 1.55197 0
M  V30 490 O 45.9989 0.763238 1.6136 0
M  V30 491 C 43.0989 1.53731 3.02027 0
M  V30 492 C 42.2719 2.80715 3.35437 0
M  V30 493 C 41.3309 2.66837 4.53525 0
M  V30 494 O 40.3569 3.40753 4.55934 0
M  V30 495 N 41.5589 1.77539 5.52684 0
M  V30 496 H 44.3239 2.57366 1.53566 0
M  V30 497 H 41.8849 1.45925 0.701259 0
M  V30 498 H 43.8769 1.42118 3.78926 0
M  V30 499 H 42.4469 0.651092 3.05744 0
M  V30 500 H 41.6669 3.06772 2.47557 0
M  V30 501 H 42.9549 3.64927 3.54551 0
M  V30 502 H 42.3529 1.16719 5.53528 0
M  V30 503 H 40.9099 1.71856 6.28736 0
M  V30 504 N 44.343 -0.763751 1.37857 0
M  V30 505 C 45.591 -1.51957 1.33243 0
M  V30 506 C 45.912 -1.94835 -0.0801709 0
M  V30 507 O 45.182 -1.66894 -1.02582 0
M  V30 508 H 43.762 -0.563626 0.49024 0
M  V30 509 H 46.424 -0.908504 1.7243 0
M  V30 510 H 45.52 -2.41523 1.97669 0
M  V30 511 N 45.8211 -1.22559 -0.990812 0
M  V30 512 C 47.0511 -1.07623 -1.76355 0
M  V30 513 C 47.4591 0.37601 -1.85426 0
M  V30 514 O 46.8021 1.27228 -1.32509 0
M  V30 515 C 46.8641 -1.61507 -3.21179 0
M  V30 516 C 46.5281 -3.10146 -3.35646 0
M  V30 517 C 47.5251 -4.07553 -3.22796 0
M  V30 518 C 45.2101 -3.49644 -3.60631 0
M  V30 519 C 47.2041 -5.42442 -3.34716 0
M  V30 520 C 44.8911 -4.84682 -3.72192 0
M  V30 521 C 45.8891 -5.8089 -3.59243 0
M  V30 522 O 45.5771 -7.13476 -3.70415 0
M  V30 523 H 45.3091 -0.377745 -0.560611 0
M  V30 524 H 47.8631 -1.62658 -1.25425 0
M  V30 525 H 46.0931 -1.00881 -3.73309 0
M  V30 526 H 47.7821 -1.42202 -3.80175 0
M  V30 527 H 48.5481 -3.78381 -3.03403 0
M  V30 528 H 44.4271 -2.75282 -3.69785 0
M  V30 529 H 47.9711 -6.17518 -3.24526 0
M  V30 530 H 43.8681 -5.13534 -3.91092 0
M  V30 531 H 44.6361 -7.21083 -3.87275 0
M  V30 532 N 47.2992 1.18797 -1.03562 0
M  V30 533 C 48.2622 2.20464 -0.626769 0
M  V30 534 C 49.2622 1.57721 0.313173 0
M  V30 535 O 50.4522 1.73917 0.0992615 0
M  V30 536 C 47.5842 3.40802 0.0818498 0
M  V30 537 H 48.7772 2.58149 -1.5264 0
M  V30 538 H 46.3302 1.32593 -0.827578 0
M  V30 539 H 47.0652 3.08642 0.995518 0
M  V30 540 H 46.8502 3.8758 -0.593652 0
M  V30 541 H 48.3402 4.16092 0.354584 0
M  V30 542 N 48.7773 0.814389 1.34928 0
M  V30 543 C 50.0263 0.394871 1.97797 0
M  V30 544 C 50.3393 -1.04555 1.65311 0
M  V30 545 O 51.5453 -1.56856 2.21604 0
M  V30 546 C 50.0013 0.655103 3.53888 0
M  V30 547 C 49.6093 2.10858 3.95276 0
M  V30 548 C 51.3533 0.301329 4.23429 0
M  V30 549 C 49.2603 2.31415 5.44244 0
M  V30 550 H 48.1903 0.143913 0.740139 0
M  V30 551 H 50.8413 0.999544 1.53888 0
M  V30 552 H 49.2233 -0.0196253 3.95995 0
M  V30 553 H 50.3973 2.82176 3.64298 0
M  V30 554 H 48.7123 2.42297 3.38646 0
M  V30 555 H 51.3093 0.432869 5.32945 0
M  V30 556 H 51.6523 -0.75331 4.09428 0
M  V30 557 H 52.1853 0.930288 3.86769 0
M  V30 558 H 48.9243 3.35353 5.63222 0
M  V30 559 H 48.4443 1.6463 5.76764 0
M  V30 560 H 50.1233 2.13352 6.10811 0
M  V30 561 N 50.2554 -1.46986 0.568584 0
M  V30 562 C 51.5324 -1.95592 -0.0174074 0
M  V30 563 C 51.9124 -1.51124 -1.47393 0
M  V30 564 O 51.2604 -0.755329 -2.15655 0
M  V30 565 C 51.4704 -3.48719 0.139913 0
M  V30 566 C 52.8184 -4.246 0.000426376 0
M  V30 567 O 53.8424 -3.56135 0.0680316 0
M  V30 568 O 52.7014 -5.46302 -0.146988 0
M  V30 569 H 49.7954 -0.82498 -0.0577599 0
M  V30 570 H 52.3414 -1.57335 0.635909 0
M  V30 571 H 51.1134 -3.73927 1.15301 0
M  V30 572 H 50.7364 -3.93771 -0.550491 0
M  V30 573 N 51.7335 -0.305618 -1.54608 0
M  V30 574 C 52.6435 0.57778 -2.27374 0
M  V30 575 C 53.6595 1.14451 -1.31061 0
M  V30 576 O 54.8355 1.16831 -1.6405 0
M  V30 577 C 51.9005 1.73123 -3.00382 0
M  V30 578 C 50.9615 1.19812 -4.12242 0
M  V30 579 C 50.1945 2.2966 -4.81759 0
M  V30 580 O 50.4175 3.49651 -4.50666 0
M  V30 581 O 49.3515 1.96091 -5.69062 0
M  V30 582 H 53.1775 -0.012624 -3.03697 0
M  V30 583 H 50.7625 -0.0719184 -1.49227 0
M  V30 584 H 52.6445 2.40315 -3.4616 0
M  V30 585 H 51.3195 2.30815 -2.26949 0
M  V30 586 H 50.2265 0.491798 -3.70853 0
M  V30 587 H 51.5595 0.666566 -4.87666 0
M  V30 588 N 53.2116 1.57565 -0.0334293 0
M  V30 589 C 54.4366 1.96689 0.657895 0
M  V30 590 C 54.8616 0.910057 1.64619 0
M  V30 591 O 54.2196 -0.128598 1.80843 0
M  V30 592 C 54.2676 3.34905 1.33683 0
M  V30 593 O 53.3716 3.31574 2.45219 0
M  V30 594 H 52.7126 0.641205 0.172489 0
M  V30 595 H 55.2426 2.04372 -0.0965621 0
M  V30 596 H 55.2526 3.71234 1.69262 0
M  V30 597 H 53.9276 4.11366 0.612411 0
M  V30 598 H 52.5046 3.06968 2.11719 0
M  V30 599 N 54.6897 -0.239769 1.55765 0
M  V30 600 C 55.9367 -0.966801 1.7793 0
M  V30 601 C 56.2647 -1.85046 0.599015 0
M  V30 602 O 55.5197 -1.91197 -0.417395 0
M  V30 603 C 55.8187 -1.852 3.05672 0
M  V30 604 C 55.4847 -1.1231 4.36689 0
M  V30 605 C 54.1467 -0.921689 4.72291 0
M  V30 606 C 56.4987 -0.607019 5.17653 0
M  V30 607 C 53.8267 -0.191996 5.86386 0
M  V30 608 C 56.1787 0.109241 6.32506 0
M  V30 609 C 54.8427 0.322073 6.66723 0
M  V30 610 H 54.1127 -0.353778 0.651093 0
M  V30 611 H 56.7597 -0.23634 1.90036 0
M  V30 612 H 55.0647 -2.64975 2.8861 0
M  V30 613 H 56.7617 -2.41635 3.20021 0
M  V30 614 H 53.3517 -1.29004 4.08725 0
M  V30 615 H 57.5357 -0.750153 4.90598 0
M  V30 616 H 52.7917 -0.0166949 6.11398 0
M  V30 617 H 56.9657 0.516737 6.9448 0
M  V30 618 H 54.5927 0.88944 7.54979 0
M  V30 619 N 56.1678 -1.49265 -0.50573 0
M  V30 620 C 57.1308 -1.65075 -1.59006 0
M  V30 621 C 58.1308 -0.522768 -1.52065 0
M  V30 622 O 59.3208 -0.789117 -1.55302 0
M  V30 623 C 56.4528 -1.64369 -2.98656 0
M  V30 624 H 57.6458 -2.61784 -1.46319 0
M  V30 625 H 55.1988 -1.38226 -0.729616 0
M  V30 626 H 55.9338 -0.692272 -3.16825 0
M  V30 627 H 55.7188 -2.46282 -3.05103 0
M  V30 628 H 57.2088 -1.78674 -3.77446 0
M  V30 629 N 57.6459 0.756429 -1.3826 0
M  V30 630 C 58.8739 1.54565 -1.3754 0
M  V30 631 C 59.2889 1.88767 0.0355331 0
M  V30 632 O 58.6459 1.52572 1.0014 0
M  V30 633 C 58.6969 2.84654 -2.22833 0
M  V30 634 O 58.4179 2.51912 -3.5843 0
M  V30 635 C 59.9189 3.78807 -2.30261 0
M  V30 636 H 57.1389 0.478353 -0.470553 0
M  V30 637 H 59.6829 0.936381 -1.81803 0
M  V30 638 H 57.8379 3.41965 -1.8204 0
M  V30 639 H 58.2519 3.35325 -4.03308 0
M  V30 640 H 59.7259 4.67045 -2.94233 0
M  V30 641 H 60.2029 4.19038 -1.31545 0
M  V30 642 H 60.8089 3.2742 -2.71433 0
M  V30 643 N 59.124 1.23083 0.984299 0
M  V30 644 C 60.371 1.06057 1.72505 0
M  V30 645 C 60.699 -0.403105 1.90277 0
M  V30 646 O 59.954 -1.3149 1.44944 0
M  V30 647 C 60.253 1.72673 3.1292 0
M  V30 648 C 59.919 3.22586 3.15038 0
M  V30 649 C 58.581 3.63489 3.15324 0
M  V30 650 C 60.933 4.185 3.10657 0
M  V30 651 C 58.261 4.98772 3.08939 0
M  V30 652 C 60.613 5.53769 3.05814 0
M  V30 653 C 59.277 5.94041 3.04419 0
M  V30 654 H 58.547 0.388091 0.631242 0
M  V30 655 H 61.194 1.52963 1.15215 0
M  V30 656 H 59.499 1.18116 3.73572 0
M  V30 657 H 61.196 1.56982 3.68996 0
M  V30 658 H 57.786 2.90022 3.15571 0
M  V30 659 H 61.97 3.87911 3.09579 0
M  V30 660 H 57.226 5.29193 3.0621 0
M  V30 661 H 61.4 6.27808 3.0138 0
M  V30 662 H 59.027 6.98833 2.99227 0
M  V30 663 N 60.6021 -1.18246 1.0419 0
M  V30 664 C 61.5321 -2.24127 0.654914 0
M  V30 665 C 62.5131 -1.66617 -0.342451 0
M  V30 666 O 63.6981 -1.92924 -0.222277 0
M  V30 667 C 60.8281 -3.47295 0.0183757 0
M  V30 668 C 59.7821 -4.17563 0.939414 0
M  V30 669 C 59.1081 -5.34438 0.167286 0
M  V30 670 C 60.4081 -4.70917 2.25908 0
M  V30 671 H 62.1021 -2.56753 1.54007 0
M  V30 672 H 59.6481 -1.23414 0.74195 0
M  V30 673 H 61.6011 -4.20572 -0.264082 0
M  V30 674 H 60.3251 -3.13907 -0.901664 0
M  V30 675 H 58.9841 -3.46186 1.20628 0
M  V30 676 H 58.6321 -4.97298 -0.7552 0
M  V30 677 H 58.3321 -5.82388 0.780901 0
M  V30 678 H 59.8561 -6.10504 -0.108125 0
M  V30 679 H 61.2701 -5.35882 2.03724 0
M  V30 680 H 59.6671 -5.29406 2.82577 0
M  V30 681 H 60.7371 -3.88272 2.9047 0
M  V30 682 N 62.0802 -0.821533 -1.34494 0
M  V30 683 C 62.9902 -0.244355 -2.33324 0
M  V30 684 C 64.0062 0.620527 -1.62559 0
M  V30 685 O 65.1822 0.528754 -1.94335 0
M  V30 686 C 62.2472 0.585368 -3.41723 0
M  V30 687 C 61.3082 -0.301752 -4.28238 0
M  V30 688 C 60.5412 0.488466 -5.3146 0
M  V30 689 O 60.7642 1.72186 -5.4379 0
M  V30 690 O 59.6982 -0.12848 -6.01763 0
M  V30 691 H 63.5242 -1.06231 -2.84515 0
M  V30 692 H 61.1092 -0.583645 -1.37528 0
M  V30 693 H 62.9912 1.05747 -4.07916 0
M  V30 694 H 61.6662 1.38068 -2.92778 0
M  V30 695 H 60.5732 -0.821315 -3.64973 0
M  V30 696 H 61.9062 -1.06138 -4.8062 0
M  V30 697 N 63.5583 1.46682 -0.576371 0
M  V30 698 C 64.8063 2.02013 -0.0594163 0
M  V30 699 C 65.1273 1.45101 1.30271 0
M  V30 700 O 64.3973 0.633317 1.8538 0
M  V30 701 H 62.9773 0.746759 -0.0189745 0
M  V30 702 H 65.6393 1.79862 -0.750717 0
M  V30 703 H 64.7353 3.12097 0.014345 0
M  V30 704 N 65.0364 0.313813 1.54444 0
M  V30 705 C 66.4474 -0.176243 1.85866 0
M  V30 706 C 66.7984 -1.52405 1.23561 0
M  V30 707 O 65.9234 -2.09605 0.538016 0
M  V30 708 C 66.5184 -0.32657 3.37222 0
M  V30 709 C 65.0774 -0.760846 3.6863 0
M  V30 710 C 64.2244 0.123247 2.77026 0
M  V30 711 H 67.1754 0.534418 1.49431 0
M  V30 712 H 67.1964 -1.15908 3.62416 0
M  V30 713 H 66.7084 0.654531 3.82541 0
M  V30 714 H 64.8094 -1.75204 3.28838 0
M  V30 715 H 64.9224 -0.571353 4.75681 0
M  V30 716 H 63.2864 -0.399597 2.51546 0
M  V30 717 H 64.0694 1.10094 3.25168 0
M  V30 718 N 66.5145 -1.57545 0.0417849 0
M  V30 719 C 67.7395 -1.97035 -0.647455 0
M  V30 720 C 68.1645 -0.918775 -1.64135 0
M  V30 721 O 67.5225 0.119006 -1.80909 0
M  V30 722 C 67.5705 -3.35609 -1.31905 0
M  V30 723 O 66.6745 -3.3287 -2.43457 0
M  V30 724 H 66.0155 -0.64211 -0.169086 0
M  V30 725 H 68.5455 -2.04318 0.107399 0
M  V30 726 H 68.5555 -3.72126 -1.67291 0
M  V30 727 H 67.2305 -4.11685 -0.590586 0
M  V30 728 H 65.8075 -3.08087 -2.10088 0
M  V30 729 N 67.9926 0.231505 -1.5589 0
M  V30 730 C 68.9556 1.27028 -1.90779 0
M  V30 731 C 69.9556 1.40308 -0.785507 0
M  V30 732 O 71.1456 1.38744 -1.05336 0
M  V30 733 C 68.2776 2.64566 -2.14983 0
M  V30 734 H 69.4706 0.973017 -2.83677 0
M  V30 735 H 67.0236 0.471486 -1.49019 0
M  V30 736 H 67.7586 2.99406 -1.24604 0
M  V30 737 H 67.5436 2.56305 -2.96732 0
M  V30 738 H 69.0336 3.39543 -2.43105 0
M  V30 739 N 69.4707 1.49531 0.497807 0
M  V30 740 C 70.6987 1.62893 1.27567 0
M  V30 741 C 71.1137 0.301585 1.86376 0
M  V30 742 O 70.4707 -0.713335 1.67982 0
M  V30 743 C 70.5217 2.70013 2.40364 0
M  V30 744 O 70.2427 3.976 1.83972 0
M  V30 745 C 71.7437 2.94109 3.31685 0
M  V30 746 H 68.9637 0.548298 0.386794 0
M  V30 747 H 71.5077 1.95584 0.597245 0
M  V30 748 H 69.6627 2.40092 3.04031 0
M  V30 749 H 70.0767 4.56631 2.58047 0
M  V30 750 H 71.5507 3.72788 4.07104 0
M  V30 751 H 72.0277 2.04147 3.88871 0
M  V30 752 H 72.6337 3.2546 2.73781 0
M  V30 753 N 70.9488 -0.749086 1.3866 0
M  V30 754 C 72.1768 -1.53834 1.38358 0
M  V30 755 C 72.5918 -1.88783 -0.0255219 0
M  V30 756 O 71.9488 -1.53101 -0.993292 0
M  V30 757 C 71.9998 -2.83468 2.2434 0
M  V30 758 O 71.7208 -2.50008 3.5976 0
M  V30 759 C 73.2218 -3.7758 2.32267 0
M  V30 760 H 70.4418 -0.47585 0.473083 0
M  V30 761 H 72.9858 -0.926726 1.82297 0
M  V30 762 H 71.1408 -3.40995 1.83851 0
M  V30 763 H 71.5548 -3.33182 4.05081 0
M  V30 764 H 73.0288 -4.65478 2.96706 0
M  V30 765 H 73.5058 -4.18334 1.33765 0
M  V30 766 H 74.1118 -3.25976 2.73166 0
M  V30 767 N 72.4269 -1.23603 -0.977757 0
M  V30 768 C 73.6739 -1.06971 -1.71941 0
M  V30 769 C 74.0019 0.393009 -1.90488 0
M  V30 770 O 73.2569 1.30719 -1.4564 0
M  V30 771 C 73.5559 -1.7433 -3.11999 0
M  V30 772 C 73.2219 -3.24252 -3.13323 0
M  V30 773 C 71.8839 -3.65156 -3.13392 0
M  V30 774 C 74.2359 -4.20141 -3.08433 0
M  V30 775 C 71.5639 -5.00403 -3.0629 0
M  V30 776 C 73.9159 -5.55384 -3.02873 0
M  V30 777 C 72.5799 -5.95647 -3.01265 0
M  V30 778 H 71.8499 -0.391433 -0.629175 0
M  V30 779 H 74.4969 -1.53572 -1.14403 0
M  V30 780 H 72.8019 -1.20096 -3.7294 0
M  V30 781 H 74.4989 -1.58936 -3.68158 0
M  V30 782 H 71.0889 -2.91692 -3.14029 0
M  V30 783 H 75.2729 -3.89547 -3.07517 0
M  V30 784 H 70.5289 -5.3081 -3.03399 0
M  V30 785 H 74.7029 -6.29398 -2.98046 0
M  V30 786 H 72.3299 -7.0041 -2.95516 0
M  V30 787 N 73.905 1.17692 -1.04816 0
M  V30 788 C 75.153 1.87488 -0.754497 0
M  V30 789 C 75.474 1.81205 0.720407 0
M  V30 790 O 74.744 1.23544 1.52032 0
M  V30 791 H 73.324 0.694101 -0.276102 0
M  V30 792 H 75.986 1.42793 -1.32651 0
M  V30 793 H 75.082 2.93328 -1.06606 0
M  V30 794 N 75.3831 0.828654 1.34056 0
M  V30 795 C 76.3131 0.269443 2.3194 0
M  V30 796 C 77.2941 -0.617247 1.58506 0
M  V30 797 O 78.4791 -0.542931 1.86456 0
M  V30 798 C 75.6091 -0.564793 3.42677 0
M  V30 799 C 74.5631 0.225241 4.27407 0
M  V30 800 C 73.8891 -0.7321 5.29664 0
M  V30 801 C 75.1891 1.43663 5.02154 0
M  V30 802 H 76.8831 1.08728 2.7896 0
M  V30 803 H 74.4291 0.524283 1.34117 0
M  V30 804 H 76.3821 -0.966233 4.10173 0
M  V30 805 H 75.1061 -1.41574 2.9432 0
M  V30 806 H 73.7651 0.608117 3.61521 0
M  V30 807 H 73.4131 -1.57916 4.77568 0
M  V30 808 H 73.1131 -0.20767 5.87233 0
M  V30 809 H 74.6371 -1.13128 6.00029 0
M  V30 810 H 76.0511 1.1089 5.62473 0
M  V30 811 H 74.4481 1.89711 5.69324 0
M  V30 812 H 75.5181 2.21181 4.31517 0
M  V30 813 N 76.8612 -1.46375 0.584142 0
M  V30 814 C 78.1082 -2.02378 0.0702675 0
M  V30 815 C 78.4362 -1.45545 -1.29023 0
M  V30 816 O 77.6912 -0.610967 -1.85918 0
M  V30 817 C 77.9902 -3.57373 -0.0439342 0
M  V30 818 C 77.6562 -4.33252 1.24915 0
M  V30 819 C 76.3182 -4.53701 1.60341 0
M  V30 820 C 78.6702 -4.7681 2.1048 0
M  V30 821 C 75.9982 -5.1496 2.81128 0
M  V30 822 C 78.3502 -5.39404 3.30494 0
M  V30 823 C 77.0142 -5.5808 3.66201 0
M  V30 824 H 76.2842 -0.740554 0.0257127 0
M  V30 825 H 78.9312 -1.75727 0.761065 0
M  V30 826 H 77.2362 -3.83169 -0.817869 0
M  V30 827 H 78.9332 -3.98384 -0.457318 0
M  V30 828 H 75.5232 -4.17633 0.963364 0
M  V30 829 H 79.7072 -4.60766 1.84414 0
M  V30 830 H 74.9632 -5.27611 3.08928 0
M  V30 831 H 79.1372 -5.72114 3.97063 0
M  V30 832 H 76.7642 -6.05318 4.59885 0
M  V30 833 N 78.3393 -0.321999 -1.54275 0
M  V30 834 C 79.2873 0.560206 -2.25753 0
M  V30 835 C 80.2813 1.11984 -1.27106 0
M  V30 836 O 81.4873 1.06806 -1.44888 0
M  V30 837 H 77.8623 0.199304 -0.725108 0
M  V30 838 H 79.8333 -0.0649365 -2.98329 0
M  V30 839 C 78.5823 1.71023 -3.02731 0
M  V30 840 H 77.9053 1.28885 -3.78456 0
M  V30 841 H 79.3453 2.30314 -3.55993 0
M  V30 842 C 77.8043 2.62692 -2.10938 0
M  V30 843 O 78.3343 3.64364 -1.6912 0
M  V30 844 N 76.5403 2.30891 -1.76459 0
M  V30 845 H 76.0873 1.48253 -2.10663 0
M  V30 846 H 76.0453 2.92487 -1.1532 0
M  V30 847 N 79.8174 1.5752 -0.0501392 0
M  V30 848 C 81.0654 1.9227 0.622642 0
M  V30 849 C 81.3864 0.929083 1.71444 0
M  V30 850 O 80.6564 -0.0262186 1.95882 0
M  V30 851 H 79.2364 0.709739 0.232981 0
M  V30 852 H 81.8984 1.94628 -0.102898 0
M  V30 853 H 80.9944 2.93479 1.06191 0
M  V30 854 N 81.2955 -0.223234 1.56011 0
M  V30 855 C 82.2055 -1.29766 1.95443 0
M  V30 856 C 83.2215 -1.51373 0.858028 0
M  V30 857 O 84.3975 -1.64536 1.16146 0
M  V30 858 C 81.4625 -2.62772 2.26167 0
M  V30 859 C 80.5235 -2.49482 3.49367 0
M  V30 860 C 79.7565 -3.76145 3.78616 0
M  V30 861 O 79.9795 -4.79087 3.09568 0
M  V30 862 O 78.9135 -3.73358 4.72109 0
M  V30 863 H 82.7395 -0.99309 2.87004 0
M  V30 864 H 80.3245 -0.425958 1.43199 0
M  V30 865 H 82.2065 -3.41327 2.47131 0
M  V30 866 H 80.8815 -2.92913 1.37781 0
M  V30 867 H 79.7885 -1.69133 3.33684 0
M  V30 868 H 81.1215 -2.2428 4.38131 0
M  V30 869 N 82.7736 -1.49793 -0.48987 0
M  V30 870 C 84.0196 -1.60078 -1.24511 0
M  V30 871 C 84.3526 -0.291608 -1.91998 0
M  V30 872 O 83.6276 0.705647 -1.81248 0
M  V30 873 C 83.9106 -2.76791 -2.30345 0
M  V30 874 C 83.7636 -4.17535 -1.67286 0
M  V30 875 C 85.0826 -2.89111 -3.31817 0
M  V30 876 H 82.2016 -0.582645 -0.451324 0
M  V30 877 H 84.8436 -1.82117 -0.541612 0
M  V30 878 H 82.9936 -2.5813 -2.90346 0
M  V30 879 H 84.6656 -4.4774 -1.11026 0
M  V30 880 H 82.9086 -4.22665 -0.976577 0
M  V30 881 H 83.5796 -4.95094 -2.44103 0
M  V30 882 H 86.0556 -3.06133 -2.81819 0
M  V30 883 H 84.9316 -3.72433 -4.03219 0
M  V30 884 H 85.1926 -1.9893 -3.94815 0
M  V30 885 N 84.2517 0.741722 -1.39055 0
M  V30 886 C 85.1817 1.869 -1.39966 0
M  V30 887 C 86.1627 1.6804 -0.26392 0
M  V30 888 O 87.3477 1.88458 -0.468755 0
M  V30 889 C 84.4777 3.24572 -1.23574 0
M  V30 890 C 83.4317 3.58056 -2.34477 0
M  V30 891 C 82.7577 4.94593 -2.0318 0
M  V30 892 C 84.0577 3.61716 -3.76774 0
M  V30 893 H 85.7517 1.86395 -2.34302 0
M  V30 894 H 83.2977 0.895361 -1.1278 0
M  V30 895 H 85.2507 4.031 -1.22834 0
M  V30 896 H 83.9747 3.25587 -0.257045 0
M  V30 897 H 82.6337 2.81854 -2.34423 0
M  V30 898 H 82.2817 4.92181 -1.03765 0
M  V30 899 H 81.9817 5.17964 -2.77465 0
M  V30 900 H 83.5057 5.75486 -2.04079 0
M  V30 901 H 84.9197 4.30335 -3.78794 0
M  V30 902 H 83.3167 3.96603 -4.50362 0
M  V30 903 H 84.3867 2.61672 -4.08235 0
M  V30 904 N 85.7298 1.2412 0.971189 0
M  V30 905 C 86.9598 1.10415 1.7462 0
M  V30 906 C 87.3678 -0.346462 1.86001 0
M  V30 907 O 86.7108 -1.25104 1.34517 0
M  V30 908 C 86.7728 1.66596 3.18568 0
M  V30 909 C 86.4368 3.15446 3.3067 0
M  V30 910 C 87.4338 4.12636 3.16271 0
M  V30 911 C 85.1188 3.55337 3.55022 0
M  V30 912 C 87.1128 5.47699 3.26044 0
M  V30 913 C 84.7998 4.90542 3.64434 0
M  V30 914 C 85.7978 5.86532 3.49956 0
M  V30 915 O 85.4858 7.19279 3.59017 0
M  V30 916 H 85.2178 0.386616 0.55453 0
M  V30 917 H 87.7718 1.64633 1.22821 0
M  V30 918 H 86.0018 1.06808 3.71657 0
M  V30 919 H 87.6908 1.48232 3.77865 0
M  V30 920 H 88.4568 3.8316 2.97344 0
M  V30 921 H 84.3358 2.8113 3.65359 0
M  V30 922 H 87.8798 6.22603 3.14661 0
M  V30 923 H 83.7768 5.19691 3.82873 0
M  V30 924 H 84.5448 7.27153 3.75754 0
M  V30 925 N 87.2079 -1.17134 1.05439 0
M  V30 926 C 88.4559 -1.87085 0.764429 0
M  V30 927 C 88.7769 -1.81584 -0.710787 0
M  V30 928 O 88.0469 -1.24349 -1.51374 0
M  V30 929 H 86.6269 -0.692627 0.279779 0
M  V30 930 H 89.2889 -1.42087 1.33406 0
M  V30 931 H 88.3849 -2.92759 1.0816 0
M  V30 932 N 88.686 -0.835752 -1.33615 0
M  V30 933 C 89.914 -0.443344 -2.02094 0
M  V30 934 C 90.329 0.954522 -1.62894 0
M  V30 935 O 89.686 1.61982 -0.840723 0
M  V30 936 C 89.737 -0.550775 -3.5728 0
M  V30 937 O 89.458 -1.89356 -3.95065 0
M  V30 938 C 90.959 -0.154919 -4.43029 0
M  V30 939 H 88.179 -0.176359 -0.647409 0
M  V30 940 H 90.723 -1.12746 -1.70612 0
M  V30 941 H 88.878 0.0853997 -3.87306 0
M  V30 942 H 89.292 -1.87687 -4.89769 0
M  V30 943 H 90.766 -0.281144 -5.51284 0
M  V30 944 H 91.243 0.902863 -4.2982 0
M  V30 945 H 91.849 -0.765404 -4.18356 0
M  V30 946 N 90.1641 1.46063 -0.591896 0
M  V30 947 C 91.4131 2.01547 -0.0786637 0
M  V30 948 C 91.7261 1.46796 1.29268 0
M  V30 949 O 92.9321 1.94157 1.89777 0
M  V30 950 C 91.3881 3.59787 -0.0900024 0
M  V30 951 C 90.9961 4.23534 -1.46023 0
M  V30 952 C 92.7401 4.22895 0.368806 0
M  V30 953 C 90.6471 5.73881 -1.4288 0
M  V30 954 H 89.5771 0.753564 -0.0256388 0
M  V30 955 H 92.2281 1.677 -0.744905 0
M  V30 956 H 90.6101 3.90752 0.642586 0
M  V30 957 H 91.7841 4.04167 -2.21328 0
M  V30 958 H 90.0991 3.72558 -1.85982 0
M  V30 959 H 92.6961 5.33116 0.411258 0
M  V30 960 H 93.0391 3.9247 1.38827 0
M  V30 961 H 93.5721 3.9659 -0.31001 0
M  V30 962 H 90.3111 6.0898 -2.42536 0
M  V30 963 H 89.8311 5.95486 -0.718095 0
M  V30 964 H 91.5101 6.36776 -1.14565 0
M  V30 965 N 91.6422 0.330177 1.54103 0
M  V30 966 C 92.8672 -0.274893 2.0557 0
M  V30 967 C 93.2922 -1.44487 1.20437 0
M  V30 968 O 92.6502 -1.80021 0.214991 0
M  V30 969 C 92.6982 -0.68079 3.54115 0
M  V30 970 O 91.8022 -1.7824 3.71893 0
M  V30 971 H 91.1432 -0.0483849 0.662235 0
M  V30 972 H 93.6732 0.480508 1.98878 0
M  V30 973 H 93.6832 -0.961635 3.96505 0
M  V30 974 H 92.3582 0.174903 4.15532 0
M  V30 975 H 90.9352 -1.49985 3.41407 0
M  V30 976 N 93.1203 -1.57491 0.0584922 0
M  V30 977 C 94.3693 -1.92155 -0.613146 0
M  V30 978 C 94.6823 -0.939334 -1.71569 0
M  V30 979 O 95.8883 -1.17829 -2.44599 0
M  V30 980 C 94.3443 -3.41303 -1.14195 0
M  V30 981 C 93.9523 -4.47944 -0.0711265 0
M  V30 982 C 95.6963 -3.84988 -1.78841 0
M  V30 983 C 93.6033 -5.88212 -0.613225 0
M  V30 984 H 92.5333 -0.717162 -0.232796 0
M  V30 985 H 95.1843 -1.83049 0.12857 0
M  V30 986 H 93.5663 -3.45437 -1.93621 0
M  V30 987 H 94.7403 -4.55408 0.702836 0
M  V30 988 H 93.0553 -4.13644 0.478313 0
M  V30 989 H 95.6523 -4.87159 -2.20408 0
M  V30 990 H 95.9953 -3.21632 -2.64308 0
M  V30 991 H 96.5283 -3.83401 -1.06059 0
M  V30 992 H 93.2673 -6.55183 0.203978 0
M  V30 993 H 92.7873 -5.84294 -1.35501 0
M  V30 994 H 94.4663 -6.37687 -1.09383 0
M  V30 995 N 94.5984 0.214957 -1.56127 0
M  V30 996 C 95.8474 0.936451 -1.78643 0
M  V30 997 C 96.1604 1.85237 -0.628229 0
M  V30 998 O 97.3664 2.613 -0.737186 0
M  V30 999 C 95.8224 1.7154 -3.16389 0
M  V30 1000 C 95.4304 0.845299 -4.39953 0
M  V30 1001 C 97.1744 2.42772 -3.48227 0
M  V30 1002 C 95.0814 1.62198 -5.68723 0
M  V30 1003 H 94.0114 0.353401 -0.666051 0
M  V30 1004 H 96.6624 0.190169 -1.82512 0
M  V30 1005 H 95.0444 2.50484 -3.06715 0
M  V30 1006 H 96.2184 0.0959353 -4.607 0
M  V30 1007 H 94.5334 0.244789 -4.1568 0
M  V30 1008 H 97.1304 3.01394 -4.41663 0
M  V30 1009 H 97.4734 3.15984 -2.71035 0
M  V30 1010 H 98.0064 1.70813 -3.5926 0
M  V30 1011 H 94.7454 0.933011 -6.48826 0
M  V30 1012 H 94.2654 2.34579 -5.52026 0
M  V30 1013 H 95.9444 2.18095 -6.09133 0
M  V30 1014 N 96.0765 1.50051 0.48192 0
M  V30 1015 C 97.0245 1.68635 1.60203 0
M  V30 1016 C 98.0185 0.552184 1.60148 0
M  V30 1017 O 99.2245 0.732377 1.64427 0
M  V30 1018 H 95.5995 0.532081 0.531407 0
M  V30 1019 H 97.5705 2.62616 1.41688 0
M  V30 1020 C 96.3195 1.78775 2.9822 0
M  V30 1021 H 95.6425 2.6543 2.98976 0
M  V30 1022 H 97.0825 1.95806 3.7608 0
M  V30 1023 C 95.5415 0.536849 3.32595 0
M  V30 1024 O 96.0715 -0.328897 4.00351 0
M  V30 1025 N 94.2775 0.394091 2.87915 0
M  V30 1026 H 93.8245 1.09962 2.32951 0
M  V30 1027 H 93.7825 -0.441737 3.11281 0
M  V30 1028 N 97.5546 -0.734337 1.39446 0
M  V30 1029 C 98.8316 -1.48579 1.27215 0
M  V30 1030 C 99.2116 -2.1077 -0.117968 0
M  V30 1031 O 98.5596 -1.98646 -1.12924 0
M  V30 1032 C 98.7696 -2.53667 2.39696 0
M  V30 1033 C 100.118 -3.20031 2.79044 0
M  V30 1034 O 101.142 -2.6398 2.39151 0
M  V30 1035 O 100.001 -4.21455 3.47905 0
M  V30 1036 H 97.0946 -0.659816 0.49857 0
M  V30 1037 H 99.6406 -0.768106 1.51322 0
M  V30 1038 H 98.4126 -2.06096 3.32626 0
M  V30 1039 H 98.0356 -3.32994 2.17258 0
M  V30 1040 N 99.0327 -1.24633 -0.964593 0
M  V30 1041 C 100.281 -1.08573 -1.70459 0
M  V30 1042 C 100.602 0.375655 -1.91347 0
M  V30 1043 O 99.8717 1.26779 -1.49345 0
M  V30 1044 H 98.4517 -0.398784 -0.631649 0
M  V30 1045 H 101.114 -1.56601 -1.16026 0
M  V30 1046 H 100.21 -1.58623 -2.68785 0
M  V30 1047 N 100.511 1.16574 -1.06058 0
M  V30 1048 C 101.474 2.19085 -0.673392 0
M  V30 1049 C 102.474 1.5835 0.279648 0
M  V30 1050 O 103.664 1.74088 0.0623488 0
M  V30 1051 C 100.796 3.40899 0.00954234 0
M  V30 1052 H 101.989 2.54853 -1.58081 0
M  V30 1053 H 99.5418 1.30808 -0.855516 0
M  V30 1054 H 100.277 3.10684 0.929826 0
M  V30 1055 H 100.062 3.86233 -0.67573 0
M  V30 1056 H 101.552 4.1675 0.266245 0
M  V30 1057 N 101.989 0.842826 1.3317 0
M  V30 1058 C 102.921 0.236245 2.27979 0
M  V30 1059 C 103.934 -0.585282 1.51915 0
M  V30 1060 O 105.123 -0.411705 1.73687 0
M  V30 1061 C 102.223 -0.685717 3.3189 0
M  V30 1062 C 101.396 0.0973448 4.37292 0
M  V30 1063 C 100.455 -0.748565 5.20848 0
M  V30 1064 O 99.4809 -0.186339 5.68895 0
M  V30 1065 N 100.683 -2.06527 5.42519 0
M  V30 1066 H 103.448 1.05088 2.80672 0
M  V30 1067 H 101.009 0.701667 1.45905 0
M  V30 1068 H 103.001 -1.25669 3.84694 0
M  V30 1069 H 101.571 -1.40105 2.79445 0
M  V30 1070 H 100.791 0.849706 3.84933 0
M  V30 1071 H 102.079 0.635643 5.04814 0
M  V30 1072 H 101.477 -2.54554 5.05192 0
M  V30 1073 H 100.034 -2.58464 5.98364 0
M  V30 1074 N 103.467 -1.45747 0.599634 0
M  V30 1075 C 104.715 -2.01893 0.0915472 0
M  V30 1076 C 105.036 -1.47155 -1.27946 0
M  V30 1077 O 104.306 -0.66273 -1.84349 0
M  V30 1078 H 102.886 -0.746363 0.0308524 0
M  V30 1079 H 105.548 -1.78645 0.779237 0
M  V30 1080 H 104.644 -3.1208 0.0353086 0
M  V30 1081 N 104.945 -0.338344 -1.53925 0
M  V30 1082 C 105.875 0.51328 -2.27789 0
M  V30 1083 C 106.856 1.107 -1.29149 0
M  V30 1084 O 108.041 1.12937 -1.57984 0
M  V30 1085 C 105.171 1.66697 -3.04679 0
M  V30 1086 C 104.125 1.20183 -4.1078 0
M  V30 1087 C 103.451 2.44363 -4.75595 0
M  V30 1088 C 104.751 0.30605 -5.21403 0
M  V30 1089 H 106.445 -0.102883 -2.99223 0
M  V30 1090 H 103.991 -0.0509219 -1.4391 0
M  V30 1091 H 105.944 2.26915 -3.55088 0
M  V30 1092 H 104.668 2.30995 -2.30887 0
M  V30 1093 H 103.327 0.622499 -3.61276 0
M  V30 1094 H 102.975 3.07057 -3.98403 0
M  V30 1095 H 102.675 2.13925 -5.47275 0
M  V30 1096 H 104.199 3.05317 -5.28786 0
M  V30 1097 H 105.613 0.814929 -5.67478 0
M  V30 1098 H 104.01 0.0937929 -6.00027 0
M  V30 1099 H 105.08 -0.65921 -4.80398 0
M  V30 1100 N 106.423 1.57458 -0.0668435 0
M  V30 1101 C 107.834 1.80776 0.466558 0
M  V30 1102 C 108.185 0.980361 1.69951 0
M  V30 1103 O 107.31 0.201441 2.1546 0
M  V30 1104 C 107.905 3.27881 0.85321 0
M  V30 1105 C 106.464 3.52062 1.3315 0
M  V30 1106 C 105.611 2.75513 0.314264 0
M  V30 1107 H 108.562 1.5598 -0.292588 0
M  V30 1108 H 108.583 3.39659 1.715 0
M  V30 1109 H 108.095 3.88075 -0.0443439 0
M  V30 1110 H 106.196 2.97167 2.24772 0
M  V30 1111 H 106.309 4.60762 1.31285 0
M  V30 1112 H 104.673 2.42123 0.790492 0
M  V30 1113 H 105.456 3.38442 -0.575477 0
M  V30 1114 N 107.901 -0.206675 1.56239 0
M  V30 1115 C 108.834 -1.28383 1.88661 0
M  V30 1116 C 109.812 -1.44504 0.745481 0
M  V30 1117 O 110.996 -1.60079 0.995336 0
M  V30 1118 C 108.123 -2.65211 2.10667 0
M  V30 1119 C 107.169 -2.66025 3.33366 0
M  V30 1120 S 108.002 -2.18609 4.88846 0
M  V30 1121 C 109.158 -3.57283 5.13906 0
M  V30 1122 H 109.391 -1.00691 2.7973 0
M  V30 1123 H 106.924 -0.409627 1.48867 0
M  V30 1124 H 108.882 -3.43979 2.24029 0
M  V30 1125 H 107.543 -2.90121 1.20369 0
M  V30 1126 H 106.736 -3.66607 3.45855 0
M  V30 1127 H 106.338 -1.95331 3.18938 0
M  V30 1128 H 108.63 -4.53074 5.03717 0
M  V30 1129 H 109.573 -3.49699 6.15724 0
M  V30 1130 H 109.981 -3.51659 4.41583 0
M  V30 1131 N 109.379 -1.50304 -0.473955 0
M  V30 1132 C 110.656 -1.51667 -1.23518 0
M  V30 1133 C 111.036 -0.259701 -2.09496 0
M  V30 1134 O 110.384 0.756986 -2.15597 0
M  V30 1135 C 110.594 -2.81082 -2.06868 0
M  V30 1136 C 111.942 -3.31631 -2.65153 0
M  V30 1137 O 112.966 -2.82384 -2.17113 0
M  V30 1138 O 111.825 -4.17471 -3.52675 0
M  V30 1139 H 108.919 -0.60822 -0.560355 0
M  V30 1140 H 111.465 -1.62592 -0.486011 0
M  V30 1141 H 110.237 -3.64041 -1.4349 0
M  V30 1142 H 109.86 -2.73146 -2.88924 0
M  V30 1143 N 110.857 0.726932 -1.39834 0
M  V30 1144 C 112.082 1.52121 -1.40976 0
M  V30 1145 C 112.507 1.88098 -0.00826029 0
M  V30 1146 O 111.865 1.52479 0.980807 0
M  V30 1147 C 111.913 2.78021 -2.29644 0
M  V30 1148 O 111.017 3.74272 -1.73188 0
M  V30 1149 H 110.358 0.45908 -0.479731 0
M  V30 1150 H 112.888 0.896207 -1.83927 0
M  V30 1151 H 112.898 3.26671 -2.44438 0
M  V30 1152 H 111.573 2.51169 -3.31492 0
M  V30 1153 H 110.15 3.33073 -1.6768 0
M  V30 1154 N 112.336 1.25143 0.95797 0
M  V30 1155 C 113.585 1.0909 1.69654 0
M  V30 1156 C 113.898 -0.368548 1.92097 0
M  V30 1157 O 115.104 -0.649455 2.63618 0
M  V30 1158 C 113.56 1.90395 3.05414 0
M  V30 1159 C 113.168 3.4081 2.90779 0
M  V30 1160 C 114.912 1.82901 3.83076 0
M  V30 1161 C 112.819 4.14423 4.21909 0
M  V30 1162 H 111.749 0.404625 0.636235 0
M  V30 1163 H 114.4 1.4931 1.06672 0
M  V30 1164 H 112.782 1.42996 3.69281 0
M  V30 1165 H 113.956 3.95859 2.35865 0
M  V30 1166 H 112.271 3.49361 2.26575 0
M  V30 1167 H 114.868 2.35196 4.80195 0
M  V30 1168 H 115.211 0.796224 4.08615 0
M  V30 1169 H 115.744 2.28033 3.25954 0
M  V30 1170 H 112.483 5.18102 4.01561 0
M  V30 1171 H 112.003 3.64159 4.76601 0
M  V30 1172 H 113.682 4.21956 4.90471 0
M  V30 1173 N 113.814 -1.1601 1.06675 0
M  V30 1174 C 115.044 -1.90251 0.805497 0
M  V30 1175 C 115.452 -1.77891 -0.64431 0
M  V30 1176 O 114.795 -1.12383 -1.45313 0
M  V30 1177 C 114.857 -3.41419 1.12576 0
M  V30 1178 C 114.521 -3.77564 2.57477 0
M  V30 1179 C 115.518 -3.79161 3.55715 0
M  V30 1180 C 113.203 -4.08079 2.92877 0
M  V30 1181 C 115.197 -4.10767 4.8739 0
M  V30 1182 C 112.884 -4.39351 4.24751 0
M  V30 1183 C 113.882 -4.40675 5.21818 0
M  V30 1184 O 113.57 -4.71202 6.51325 0
M  V30 1185 H 113.302 -0.610018 0.291297 0
M  V30 1186 H 115.856 -1.47958 1.4247 0
M  V30 1187 H 114.086 -3.84079 0.449503 0
M  V30 1188 H 115.775 -3.9694 0.84814 0
M  V30 1189 H 116.541 -3.55693 3.29708 0
M  V30 1190 H 112.42 -4.06211 2.17976 0
M  V30 1191 H 115.964 -4.11715 5.63148 0
M  V30 1192 H 111.861 -4.62285 4.50514 0
M  V30 1193 H 112.629 -4.88996 6.56373 0
M  V30 1194 N 115.292 -0.849877 -1.32721 0
M  V30 1195 C 116.255 -0.296122 -2.27279 0
M  V30 1196 C 117.255 0.541458 -1.5141 0
M  V30 1197 O 118.445 0.353658 -1.70572 0
M  V30 1198 C 115.577 0.581579 -3.35902 0
M  V30 1199 H 116.77 -1.13064 -2.77771 0
M  V30 1200 H 114.323 -0.62383 -1.43311 0
M  V30 1201 H 115.058 1.43809 -2.9067 0
M  V30 1202 H 114.843 -0.0178814 -3.92096 0
M  V30 1203 H 116.333 0.961951 -4.0637 0
M  V30 1204 N 116.77 1.45427 -0.607355 0
M  V30 1205 C 118.016 2.0254 -0.102607 0
M  V30 1206 C 118.349 1.47478 1.26348 0
M  V30 1207 O 117.624 0.64939 1.83339 0
M  V30 1208 C 117.907 3.60044 -0.0634347 0
M  V30 1209 C 117.76 4.2544 -1.46017 0
M  V30 1210 C 119.079 4.35646 0.624514 0
M  V30 1211 H 116.198 0.73598 -0.0387607 0
M  V30 1212 H 118.84 1.73284 -0.779282 0
M  V30 1213 H 116.99 3.85101 0.512808 0
M  V30 1214 H 118.662 4.11569 -2.08347 0
M  V30 1215 H 116.905 3.83849 -2.02094 0
M  V30 1216 H 117.576 5.34342 -1.385 0
M  V30 1217 H 120.052 4.15882 0.134723 0
M  V30 1218 H 118.928 5.45376 0.621028 0
M  V30 1219 H 119.189 4.08501 1.69055 0
M  V30 1220 N 118.248 0.346503 1.53744 0
M  V30 1221 C 119.158 -0.517293 2.28826 0
M  V30 1222 C 120.174 -1.10935 1.3405 0
M  V30 1223 O 121.35 -1.1244 1.6709 0
M  V30 1224 C 118.415 -1.65098 3.04866 0
M  V30 1225 C 117.476 -1.0884 4.15274 0
M  V30 1226 C 116.709 -2.16806 4.87679 0
M  V30 1227 O 116.932 -3.3758 4.59778 0
M  V30 1228 O 115.866 -1.80934 5.74061 0
M  V30 1229 H 119.692 0.0931396 3.03557 0
M  V30 1230 H 117.277 0.111458 1.48984 0
M  V30 1231 H 119.159 -2.31053 3.5241 0
M  V30 1232 H 117.834 -2.24717 2.32989 0
M  V30 1233 H 116.741 -0.3933 3.72027 0
M  V30 1234 H 118.074 -0.537036 4.89261 0
M  V30 1235 N 119.726 -1.57421 0.075193 0
M  V30 1236 C 120.656 -2.15942 -0.888324 0
M  V30 1237 C 121.637 -1.08737 -1.30806 0
M  V30 1238 O 122.822 -1.36787 -1.37851 0
M  V30 1239 C 119.952 -2.72379 -2.1547 0
M  V30 1240 C 118.906 -3.8478 -1.87425 0
M  V30 1241 C 118.232 -4.27834 -3.20721 0
M  V30 1242 C 119.532 -5.08869 -1.17684 0
M  V30 1243 H 121.226 -2.96705 -0.400799 0
M  V30 1244 H 118.772 -1.42723 -0.191342 0
M  V30 1245 H 120.725 -3.11965 -2.83295 0
M  V30 1246 H 119.449 -1.88841 -2.6647 0
M  V30 1247 H 118.108 -3.45703 -1.22004 0
M  V30 1248 H 117.756 -3.41214 -3.6957 0
M  V30 1249 H 117.456 -5.03605 -3.02746 0
M  V30 1250 H 118.98 -4.70039 -3.89738 0
M  V30 1251 H 120.394 -5.4575 -1.75584 0
M  V30 1252 H 118.791 -5.8994 -1.09956 0
M  V30 1253 H 119.861 -4.84648 -0.156453 0
M  V30 1254 N 121.204 0.198386 -1.56346 0
M  V30 1255 C 122.167 1.22952 -1.93431 0
M  V30 1256 C 123.167 1.38611 -0.815092 0
M  V30 1257 O 124.357 1.36479 -1.08255 0
M  V30 1258 C 121.489 2.59946 -2.20546 0
M  V30 1259 H 122.682 0.912626 -2.85677 0
M  V30 1260 H 120.235 0.43977 -1.49986 0
M  V30 1261 H 120.97 2.96696 -1.30927 0
M  V30 1262 H 120.755 2.49953 -3.02102 0
M  V30 1263 H 122.245 3.3431 -2.50253 0
M  V30 1264 N 122.682 1.50554 0.465978 0
M  V30 1265 C 123.645 1.69233 1.54574 0
M  V30 1266 C 124.645 0.562901 1.50626 0
M  V30 1267 O 125.835 0.830016 1.53155 0
M  V30 1268 C 122.967 1.7223 2.94193 0
M  V30 1269 H 124.16 2.65571 1.39327 0
M  V30 1270 H 121.713 1.40111 0.692711 0
M  V30 1271 H 122.448 0.77603 3.14878 0
M  V30 1272 H 122.233 2.54285 2.98466 0
M  V30 1273 H 123.723 1.88618 3.72576 0
M  V30 1274 N 124.16 -0.719506 1.40217 0
M  V30 1275 C 125.406 -1.48034 1.39491 0
M  V30 1276 C 125.761 -1.92399 -0.00443536 0
M  V30 1277 O 125.054 -1.64993 -0.974061 0
M  V30 1278 C 125.248 -2.72271 2.31524 0
M  V30 1279 C 125.077 -2.40055 3.80268 0
M  V30 1280 C 123.847 -2.31588 4.49105 0
M  V30 1281 C 126.045 -2.04581 4.71859 0
M  V30 1282 N 124.027 -1.92006 5.83101 0
M  V30 1283 C 125.398 -1.75568 5.94623 0
M  V30 1284 C 127.453 -1.91183 4.59732 0
M  V30 1285 C 126.156 -1.34505 7.06612 0
M  V30 1286 C 128.182 -1.51524 5.71659 0
M  V30 1287 C 127.544 -1.23406 6.93506 0
M  V30 1288 H 123.643 -0.539927 0.565688 0
M  V30 1289 H 126.227 -0.834764 1.75897 0
M  V30 1290 H 124.398 -3.34584 1.97251 0
M  V30 1291 H 126.13 -3.38584 2.21682 0
M  V30 1292 H 122.885 -2.49199 4.02737 0
M  V30 1293 H 123.309 -1.74764 6.54054 0
M  V30 1294 H 127.951 -2.11584 3.66049 0
M  V30 1295 H 125.669 -1.12846 8.00182 0
M  V30 1296 H 129.255 -1.41741 5.6427 0
M  V30 1297 H 128.135 -0.931788 7.78645 0
M  V30 1298 N 125.638 -1.25649 -0.95132 0
M  V30 1299 C 127.054 -1.02542 -1.223 0
M  V30 1300 C 127.254 0.255715 -1.99871 0
M  V30 1301 O 126.31 0.967558 -2.33226 0
M  V30 1302 C 127.623 -2.25065 -1.99415 0
M  V30 1303 C 129.171 -2.29861 -2.12446 0
M  V30 1304 C 129.646 -3.52048 -2.92961 0
M  V30 1305 N 131.137 -3.52465 -3.00538 0
M  V30 1306 C 131.872 -4.43672 -3.63239 0
M  V30 1307 N 131.368 -5.45157 -4.27523 0
M  V30 1308 N 133.161 -4.31346 -3.60412 0
M  V30 1309 H 125.312 -2.07951 -0.432471 0
M  V30 1310 H 127.575 -0.91339 -0.253816 0
M  V30 1311 H 127.281 -3.18194 -1.49817 0
M  V30 1312 H 127.155 -2.28502 -3.00111 0
M  V30 1313 H 129.542 -1.37252 -2.61239 0
M  V30 1314 H 129.623 -2.3044 -1.11044 0
M  V30 1315 H 129.267 -4.44981 -2.44856 0
M  V30 1316 H 129.197 -3.48715 -3.94596 0
M  V30 1317 H 131.688 -2.79056 -2.54826 0
M  V30 1318 H 132.001 -6.10958 -4.73234 0
M  V30 1319 H 130.346 -5.49025 -4.26141 0
M  V30 1320 H 133.537 -3.51288 -3.09377 0
M  V30 1321 H 133.71 -5.02624 -4.0899 0
M  V30 1322 N 127.117 1.15442 -1.07289 0
M  V30 1323 C 128.365 1.85845 -0.794096 0
M  V30 1324 C 128.686 1.82692 0.681809 0
M  V30 1325 O 127.956 1.26741 1.49377 0
M  V30 1326 H 126.536 0.688089 -0.290763 0
M  V30 1327 H 129.198 1.39947 -1.3565 0
M  V30 1328 H 128.294 2.91001 -1.12804 0
M  V30 1329 N 128.595 0.856903 1.32268 0
M  V30 1330 C 129.505 0.306131 2.32594 0
M  V30 1331 C 130.521 -0.577209 1.64147 0
M  V30 1332 O 131.697 -0.477043 1.95669 0
M  V30 1333 C 128.762 -0.494561 3.43154 0
M  V30 1334 C 127.823 0.415186 4.27288 0
M  V30 1335 C 127.056 -0.347387 5.32568 0
M  V30 1336 O 127.279 -1.57708 5.48165 0
M  V30 1337 O 126.213 0.287982 6.01211 0
M  V30 1338 H 130.039 1.13737 2.81598 0
M  V30 1339 H 127.624 0.619902 1.35932 0
M  V30 1340 H 129.506 -0.948944 4.10576 0
M  V30 1341 H 128.181 -1.30257 2.96336 0
M  V30 1342 H 127.088 0.917793 3.62667 0
M  V30 1343 H 128.421 1.18844 4.77637 0
M  V30 1344 N 130.073 -1.45103 0.615059 0
M  V30 1345 C 131.321 -2.01784 0.112955 0
M  V30 1346 C 131.642 -1.48504 -1.26378 0
M  V30 1347 O 130.912 -0.682245 -1.83636 0
M  V30 1348 H 129.492 -0.745993 0.0387668 0
M  V30 1349 H 132.154 -1.77808 0.798141 0
M  V30 1350 H 131.25 -3.12025 0.0684069 0
M  V30 1351 N 131.551 -0.354651 -1.53558 0
M  V30 1352 C 132.498 0.496968 -2.25386 0
M  V30 1353 C 133.468 1.0865 -1.25636 0
M  V30 1354 O 134.653 1.12104 -1.54394 0
M  V30 1355 C 131.793 1.63637 -3.03837 0
M  V30 1356 C 130.906 1.07307 -4.18461 0
M  V30 1357 C 130.041 2.18068 -4.84376 0
M  V30 1358 C 129.08 1.59147 -5.91049 0
M  V30 1359 N 128.217 2.63695 -6.50699 0
M  V30 1360 H 133.057 -0.122075 -2.9775 0
M  V30 1361 H 130.594 -0.0720154 -1.46924 0
M  V30 1362 H 132.552 2.30734 -3.47589 0
M  V30 1363 H 131.182 2.22623 -2.33749 0
M  V30 1364 H 130.234 0.292708 -3.79272 0
M  V30 1365 H 131.546 0.602193 -4.95152 0
M  V30 1366 H 130.7 2.93007 -5.31255 0
M  V30 1367 H 129.439 2.68504 -4.07133 0
M  V30 1368 H 128.444 0.827175 -5.43542 0
M  V30 1369 H 129.669 1.09549 -6.70206 0
M  V30 1370 H 127.615 3.13365 -5.76315 0
M  V30 1371 H 127.532 2.21263 -7.22896 0
M  V30 1372 H 128.8 3.3837 -7.02229 0
M  V30 1373 N 133.029 1.57378 -0.0835403 0
M  V30 1374 C 133.976 2.13384 0.879539 0
M  V30 1375 C 134.946 1.04936 1.28754 0
M  V30 1376 O 136.131 1.32662 1.37133 0
M  V30 1377 C 133.271 2.70932 2.13752 0
M  V30 1378 C 132.384 3.93575 1.7811 0
M  V30 1379 C 131.519 4.39326 2.98607 0
M  V30 1380 C 130.558 5.54587 2.59037 0
M  V30 1381 N 129.695 5.95243 3.72331 0
M  V30 1382 H 134.535 2.9537 0.395076 0
M  V30 1383 H 132.072 1.45953 0.183349 0
M  V30 1384 H 134.03 3.02411 2.87408 0
M  V30 1385 H 132.66 1.91693 2.59718 0
M  V30 1386 H 131.712 3.68483 0.94469 0
M  V30 1387 H 133.024 4.77258 1.45005 0
M  V30 1388 H 132.178 4.72528 3.80529 0
M  V30 1389 H 130.917 3.5452 3.34913 0
M  V30 1390 H 129.922 5.21024 1.75539 0
M  V30 1391 H 131.147 6.41133 2.23887 0
M  V30 1392 H 129.093 5.13385 4.08378 0
M  V30 1393 H 129.01 6.73694 3.43034 0
M  V30 1394 H 130.278 6.33072 4.54797 0
M  V30 1395 N 134.507 -0.190092 1.56449 0
M  V30 1396 C 135.437 -1.23816 1.97969 0
M  V30 1397 C 136.418 -1.47201 0.852395 0
M  V30 1398 O 137.603 -1.58854 1.1171 0
M  V30 1399 C 134.733 -2.5813 2.3235 0
M  V30 1400 C 133.687 -2.49348 3.47864 0
M  V30 1401 C 133.013 -3.8798 3.67934 0
M  V30 1402 C 134.313 -2.01424 4.81898 0
M  V30 1403 H 136.007 -0.89311 2.85769 0
M  V30 1404 H 133.553 -0.428177 1.37487 0
M  V30 1405 H 135.506 -3.31637 2.59991 0
M  V30 1406 H 134.23 -2.94386 1.41438 0
M  V30 1407 H 132.889 -1.78297 3.20321 0
M  V30 1408 H 132.537 -4.21597 2.74344 0
M  V30 1409 H 132.237 -3.82978 4.45648 0
M  V30 1410 H 133.761 -4.63101 3.97957 0
M  V30 1411 H 135.175 -2.64693 5.08538 0
M  V30 1412 H 133.572 -2.07413 5.63116 0
M  V30 1413 H 134.642 -0.967677 4.75146 0
M  V30 1414 N 135.985 -1.50799 -0.457987 0
M  V30 1415 C 136.948 -1.7005 -1.53674 0
M  V30 1416 C 137.948 -0.570881 -1.50325 0
M  V30 1417 O 139.138 -0.838126 -1.52712 0
M  V30 1418 C 136.27 -1.73788 -2.93276 0
M  V30 1419 H 137.463 -2.66306 -1.37917 0
M  V30 1420 H 135.016 -1.40477 -0.685271 0
M  V30 1421 H 135.751 -0.792717 -3.14462 0
M  V30 1422 H 135.536 -2.55864 -2.97113 0
M  V30 1423 H 137.026 -1.90591 -3.71571 0
M  V30 1424 N 137.463 0.71206 -1.40597 0
M  V30 1425 C 138.373 1.8562 -1.43466 0
M  V30 1426 C 139.389 1.70902 -0.326902 0
M  V30 1427 O 140.565 1.93105 -0.572043 0
M  V30 1428 C 137.63 3.21451 -1.29884 0
M  V30 1429 C 136.691 3.48398 -2.50833 0
M  V30 1430 C 135.924 4.77749 -2.3789 0
M  V30 1431 O 136.147 5.53089 -1.39459 0
M  V30 1432 O 135.081 5.05111 -3.27333 0
M  V30 1433 H 138.907 1.86155 -2.39958 0
M  V30 1434 H 136.492 0.86295 -1.21957 0
M  V30 1435 H 138.374 4.02579 -1.24531 0
M  V30 1436 H 137.049 3.21636 -0.364997 0
M  V30 1437 H 135.956 2.67265 -2.61763 0
M  V30 1438 H 137.289 3.53014 -3.4299 0
M  V30 1439 N 138.941 1.26152 0.944643 0
M  V30 1440 C 140.187 1.11657 1.69294 0
M  V30 1441 C 140.52 -0.339926 1.91202 0
M  V30 1442 O 139.795 -1.24994 1.49019 0
M  V30 1443 C 140.078 1.88236 3.06984 0
M  V30 1444 C 139.931 3.41772 2.92424 0
M  V30 1445 C 141.25 1.67343 4.07043 0
M  V30 1446 H 138.369 0.407004 0.614424 0
M  V30 1447 H 141.011 1.55106 1.09737 0
M  V30 1448 H 139.161 1.51308 3.57824 0
M  V30 1449 H 140.833 3.88433 2.48832 0
M  V30 1450 H 139.076 3.68974 2.28124 0
M  V30 1451 H 139.747 3.90579 3.90067 0
M  V30 1452 H 142.223 1.99509 3.65151 0
M  V30 1453 H 141.099 2.23346 5.01406 0
M  V30 1454 H 141.36 0.617158 4.37771 0
M  V30 1455 N 140.419 -1.14872 1.07899 0
M  V30 1456 C 141.665 -1.86064 0.806725 0
M  V30 1457 C 141.998 -1.82434 -0.665706 0
M  V30 1458 O 141.273 -1.25138 -1.48899 0
M  V30 1459 C 141.556 -3.34929 1.32267 0
M  V30 1460 C 141.409 -3.47161 2.86006 0
M  V30 1461 C 142.728 -4.29863 0.943717 0
M  V30 1462 H 139.847 -0.675591 0.294526 0
M  V30 1463 H 142.489 -1.34925 1.33773 0
M  V30 1464 H 140.639 -3.78611 0.870974 0
M  V30 1465 H 142.311 -3.12302 3.39507 0
M  V30 1466 H 140.554 -2.88539 3.23925 0
M  V30 1467 H 141.225 -4.51777 3.17177 0
M  V30 1468 H 143.701 -3.9417 1.33302 0
M  V30 1469 H 142.577 -5.32494 1.33198 0
M  V30 1470 H 142.838 -4.41846 -0.149796 0
M  V30 1471 N 141.898 -0.863906 -1.31812 0
M  V30 1472 C 142.83 -0.272485 -2.27575 0
M  V30 1473 C 143.843 0.56104 -1.52827 0
M  V30 1474 O 145.032 0.384021 -1.7432 0
M  V30 1475 C 142.132 0.63283 -3.32939 0
M  V30 1476 C 141.305 -0.166902 -4.37081 0
M  V30 1477 C 140.364 0.665608 -5.21973 0
M  V30 1478 O 139.39 0.0958091 -5.69119 0
M  V30 1479 N 140.592 1.9787 -5.45736 0
M  V30 1480 H 143.357 -1.0954 -2.78964 0
M  V30 1481 H 140.918 -0.724791 -1.4477 0
M  V30 1482 H 142.91 1.19532 -3.86645 0
M  V30 1483 H 141.48 1.35642 -2.81638 0
M  V30 1484 H 140.7 -0.910838 -3.83533 0
M  V30 1485 H 141.988 -0.715874 -5.03739 0
M  V30 1486 H 141.386 2.46484 -5.09178 0
M  V30 1487 H 139.943 2.48911 -6.024 0
M  V30 1488 N 143.376 1.44774 -0.622745 0
M  V30 1489 C 144.623 2.02121 -0.1239 0
M  V30 1490 C 144.951 1.48915 1.25118 0
M  V30 1491 O 144.206 0.660045 1.84233 0
M  V30 1492 C 144.505 3.57364 -0.0508323 0
M  V30 1493 C 144.171 4.29787 -1.36358 0
M  V30 1494 C 142.833 4.4929 -1.72314 0
M  V30 1495 C 145.185 4.71062 -2.23048 0
M  V30 1496 C 142.513 5.07325 -2.94682 0
M  V30 1497 C 144.865 5.30452 -3.44679 0
M  V30 1498 C 143.529 5.48175 -3.80868 0
M  V30 1499 H 142.799 0.739612 -0.0453381 0
M  V30 1500 H 145.446 1.73648 -0.807389 0
M  V30 1501 H 143.751 3.85202 0.715991 0
M  V30 1502 H 145.448 3.99456 0.351533 0
M  V30 1503 H 142.038 4.14932 -1.07375 0
M  V30 1504 H 146.222 4.55715 -1.96565 0
M  V30 1505 H 141.478 5.19235 -3.22809 0
M  V30 1506 H 145.652 5.61385 -4.12092 0
M  V30 1507 H 143.279 5.92912 -4.75773 0
M  V30 1508 N 144.854 0.36279 1.53368 0
M  V30 1509 C 145.817 -0.472679 2.24273 0
M  V30 1510 C 146.817 -1.012 1.24961 0
M  V30 1511 O 148.007 -0.898194 1.49259 0
M  V30 1512 C 145.139 -1.66039 2.97731 0
M  V30 1513 H 146.332 0.14773 2.99536 0
M  V30 1514 H 143.885 0.114434 1.55881 0
M  V30 1515 H 144.62 -2.31896 2.26704 0
M  V30 1516 H 144.405 -1.28066 3.70596 0
M  V30 1517 H 145.895 -2.25252 3.51641 0
M  V30 1518 N 146.332 -1.57332 0.0918853 0
M  V30 1519 C 147.265 -2.09499 -0.904735 0
M  V30 1520 C 148.243 -1.00479 -1.27839 0
M  V30 1521 O 149.427 -1.27954 -1.38419 0
M  V30 1522 C 146.554 -2.56931 -2.2069 0
M  V30 1523 C 145.6 -3.77579 -1.98334 0
M  V30 1524 S 146.433 -5.21317 -1.22428 0
M  V30 1525 C 147.589 -5.72097 -2.53882 0
M  V30 1526 H 147.822 -2.93705 -0.460922 0
M  V30 1527 H 145.355 -1.53923 -0.121332 0
M  V30 1528 H 147.313 -2.84917 -2.95521 0
M  V30 1529 H 145.974 -1.72956 -2.62192 0
M  V30 1530 H 145.167 -4.08824 -2.94752 0
M  V30 1531 H 144.769 -3.5007 -1.31633 0
M  V30 1532 H 147.061 -5.80168 -3.49874 0
M  V30 1533 H 148.004 -6.70654 -2.27219 0
M  V30 1534 H 148.412 -5.00012 -2.62007 0
M  V30 1535 N 147.81 0.181792 -1.56548 0
M  V30 1536 C 149.087 0.926765 -1.72251 0
M  V30 1537 C 149.467 2.00831 -0.650386 0
M  V30 1538 O 148.815 2.26008 0.336521 0
M  V30 1539 C 149.025 1.50106 -3.1507 0
M  V30 1540 C 150.373 1.97805 -3.75711 0
M  V30 1541 O 151.397 1.59922 -3.18282 0
M  V30 1542 O 150.256 2.67555 -4.76525 0
M  V30 1543 H 147.35 0.435506 -0.703039 0
M  V30 1544 H 149.896 0.170443 -1.68842 0
M  V30 1545 H 148.668 0.72212 -3.84579 0
M  V30 1546 H 148.291 2.32186 -3.22763 0
M  V30 1547 N 149.288 1.51039 0.449983 0
M  V30 1548 C 150.238 1.67824 1.54335 0
M  V30 1549 C 151.222 0.5324 1.51836 0
M  V30 1550 O 152.414 0.787762 1.58503 0
M  V30 1551 C 149.543 1.7951 2.92628 0
M  V30 1552 C 148.629 2.99838 2.9993 0
M  V30 1553 N 149.02 4.23207 2.77001 0
M  V30 1554 C 147.318 2.98832 3.31082 0
M  V30 1555 C 148.019 5.04361 2.89818 0
M  V30 1556 N 146.995 4.38746 3.2094 0
M  V30 1557 H 150.797 2.60884 1.35339 0
M  V30 1558 H 148.311 1.48513 0.657085 0
M  V30 1559 H 150.308 1.89642 3.7127 0
M  V30 1560 H 148.968 0.876227 3.12654 0
M  V30 1561 H 149.979 4.5236 2.52172 0
M  V30 1562 H 146.656 2.16527 3.56963 0
M  V30 1563 H 148.046 6.12528 2.76151 0
M  V30 1564 N 150.766 -0.704594 1.40972 0
M  V30 1565 C 151.994 -1.49354 1.43182 0
M  V30 1566 C 152.409 -1.88768 0.0345508 0
M  V30 1567 O 151.766 -1.56184 -0.944081 0
M  V30 1568 C 151.817 -2.76187 2.33244 0
M  V30 1569 O 151.538 -2.38436 3.67532 0
M  V30 1570 C 153.039 -3.7 2.44162 0
M  V30 1571 H 150.259 -0.460559 0.487982 0
M  V30 1572 H 152.803 -0.868261 1.85153 0
M  V30 1573 H 150.958 -3.34974 1.94606 0
M  V30 1574 H 151.372 -3.20126 4.15475 0
M  V30 1575 H 152.846 -4.55803 3.11364 0
M  V30 1576 H 153.323 -4.13867 1.47006 0
M  V30 1577 H 153.929 -3.17121 2.83398 0
M  V30 1578 N 152.244 -1.26651 -0.937939 0
M  V30 1579 C 153.174 -1.10993 -2.05433 0
M  V30 1580 C 154.155 -0.0142161 -1.70094 0
M  V30 1581 O 155.34 -0.186837 -1.93299 0
M  V30 1582 C 152.47 -0.745561 -3.39203 0
M  V30 1583 C 151.424 -1.79337 -3.88616 0
M  V30 1584 C 150.75 -1.28324 -5.19073 0
M  V30 1585 C 152.05 -3.19553 -4.13138 0
M  V30 1586 H 153.744 -2.0438 -2.1879 0
M  V30 1587 H 151.29 -0.984041 -1.05131 0
M  V30 1588 H 153.243 -0.622888 -4.16771 0
M  V30 1589 H 151.967 0.22401 -3.25831 0
M  V30 1590 H 150.626 -1.90477 -3.13231 0
M  V30 1591 H 150.274 -0.303414 -5.02084 0
M  V30 1592 H 149.974 -1.98369 -5.53103 0
M  V30 1593 H 151.498 -1.1733 -5.99221 0
M  V30 1594 H 152.912 -3.11471 -4.81309 0
M  V30 1595 H 151.309 -3.87218 -4.58457 0
M  V30 1596 H 152.379 -3.65368 -3.18801 0
M  V30 1597 N 153.722 1.14298 -1.08507 0
M  V30 1598 C 154.952 1.88945 -0.835663 0
M  V30 1599 C 155.36 1.78894 0.615928 0
M  V30 1600 O 154.703 1.1468 1.43506 0
M  V30 1601 C 154.765 3.39585 -1.17994 0
M  V30 1602 C 154.429 3.7342 -2.63451 0
M  V30 1603 C 155.426 3.73454 -3.61702 0
M  V30 1604 C 153.111 4.03368 -2.99332 0
M  V30 1605 C 155.105 4.02961 -4.93864 0
M  V30 1606 C 152.792 4.32538 -4.31687 0
M  V30 1607 C 153.79 4.32318 -5.28763 0
M  V30 1608 O 153.478 4.6078 -6.58739 0
M  V30 1609 H 153.21 0.605307 -0.300965 0
M  V30 1610 H 155.764 1.45673 -1.44806 0
M  V30 1611 H 153.994 3.83315 -0.51055 0
M  V30 1612 H 155.683 3.9554 -0.911182 0
M  V30 1613 H 156.449 3.50403 -3.35325 0
M  V30 1614 H 152.328 4.02692 -2.24411 0
M  V30 1615 H 155.872 4.02704 -5.69627 0
M  V30 1616 H 151.769 4.55059 -4.57812 0
M  V30 1617 H 152.537 4.78492 -6.64069 0
M  V30 1618 N 155.201 0.870884 1.31352 0
M  V30 1619 C 156.111 0.330783 2.32256 0
M  V30 1620 C 157.127 -0.559767 1.6475 0
M  V30 1621 O 158.303 -0.456263 1.96164 0
M  V30 1622 C 155.368 -0.458137 3.4366 0
M  V30 1623 C 154.429 0.460482 4.26823 0
M  V30 1624 C 153.662 -0.290881 5.32907 0
M  V30 1625 O 153.885 -1.51885 5.49806 0
M  V30 1626 O 152.819 0.351732 6.00871 0
M  V30 1627 H 156.645 1.16718 2.80376 0
M  V30 1628 H 154.23 0.634285 1.35267 0
M  V30 1629 H 156.112 -0.905343 4.1156 0
M  V30 1630 H 154.787 -1.27106 2.97701 0
M  V30 1631 H 153.694 0.956207 3.61673 0
M  V30 1632 H 155.027 1.23903 4.7635 0
M  V30 1633 N 156.679 -1.44442 0.630414 0
M  V30 1634 C 157.642 -2.29107 -0.0652523 0
M  V30 1635 C 158.642 -1.41002 -0.772995 0
M  V30 1636 O 159.832 -1.62881 -0.617692 0
M  V30 1637 C 156.964 -3.22564 -1.10296 0
M  V30 1638 H 158.157 -2.92103 0.679401 0
M  V30 1639 H 155.71 -1.51343 0.390517 0
M  V30 1640 H 156.445 -2.64416 -1.87762 0
M  V30 1641 H 156.23 -3.87491 -0.59941 0
M  V30 1642 H 157.72 -3.86167 -1.5895 0
M  V30 1643 N 158.157 -0.370918 -1.53173 0
M  V30 1644 C 159.403 0.217423 -2.01631 0
M  V30 1645 C 159.736 1.47983 -1.25756 0
M  V30 1646 O 159.011 1.91274 -0.352764 0
M  V30 1647 C 159.294 0.503982 -3.56556 0
M  V30 1648 C 159.147 -0.77243 -4.43118 0
M  V30 1649 C 160.466 1.30234 -4.20389 0
M  V30 1650 H 157.585 0.0775486 -0.732909 0
M  V30 1651 H 160.227 -0.496863 -1.83388 0
M  V30 1652 H 158.377 1.11248 -3.72231 0
M  V30 1653 H 160.049 -1.4098 -4.39229 0
M  V30 1654 H 158.292 -1.39167 -4.10871 0
M  V30 1655 H 158.963 -0.526815 -5.4948 0
M  V30 1656 H 161.439 0.787546 -4.08579 0
M  V30 1657 H 160.315 1.47158 -5.28806 0
M  V30 1658 H 160.576 2.31237 -3.76805 0
M  V30 1659 N 159.635 1.57281 -0.100228 0
M  V30 1660 C 160.598 2.13158 0.842398 0
M  V30 1661 C 161.598 1.06202 1.20738 0
M  V30 1662 O 162.788 1.32066 1.13597 0
M  V30 1663 C 159.92 2.65639 2.13655 0
M  V30 1664 H 161.113 2.97766 0.357114 0
M  V30 1665 H 158.666 1.5559 0.148823 0
M  V30 1666 H 159.401 1.84566 2.66657 0
M  V30 1667 H 159.186 3.43844 1.88451 0
M  V30 1668 H 160.676 3.08846 2.81077 0
M  V30 1669 N 161.113 -0.173488 1.56642 0
M  V30 1670 C 162.361 -0.888706 1.81512 0
M  V30 1671 C 162.682 -1.82875 0.676872 0
M  V30 1672 O 161.952 -1.93536 -0.303414 0
M  V30 1673 H 160.532 -0.331164 0.669582 0
M  V30 1674 H 163.194 -0.173823 1.94123 0
M  V30 1675 H 162.29 -1.46691 2.75478 0
M  V30 1676 N 162.591 -1.51276 -0.441967 0
M  V30 1677 C 163.554 -1.7167 -1.51862 0
M  V30 1678 C 164.554 -0.586793 -1.49711 0
M  V30 1679 O 165.744 -0.854276 -1.51815 0
M  V30 1680 C 162.876 -1.76889 -2.91416 0
M  V30 1681 H 164.069 -2.67754 -1.35084 0
M  V30 1682 H 161.622 -1.41196 -0.670333 0
M  V30 1683 H 162.357 -0.826026 -3.13604 0
M  V30 1684 H 162.142 -2.59001 -2.94382 0
M  V30 1685 H 163.632 -1.94522 -3.69528 0
M  V30 1686 N 164.069 0.697108 -1.41344 0
M  V30 1687 C 165.016 1.81106 -1.43071 0
M  V30 1688 C 165.986 1.63632 -0.285275 0
M  V30 1689 O 167.171 1.84504 -0.486091 0
M  V30 1690 C 164.311 3.18975 -1.31715 0
M  V30 1691 C 163.424 3.47892 -2.56115 0
M  V30 1692 C 162.559 4.75367 -2.37064 0
M  V30 1693 C 161.598 4.97247 -3.56948 0
M  V30 1694 N 160.735 6.15947 -3.36977 0
M  V30 1695 H 165.575 1.78965 -2.38276 0
M  V30 1696 H 163.112 0.873975 -1.18322 0
M  V30 1697 H 165.07 3.98615 -1.23133 0
M  V30 1698 H 163.7 3.20297 -0.401183 0
M  V30 1699 H 162.752 2.62669 -2.75153 0
M  V30 1700 H 164.064 3.59962 -3.45295 0
M  V30 1701 H 163.218 5.63059 -2.25941 0
M  V30 1702 H 161.957 4.65541 -1.45338 0
M  V30 1703 H 160.962 4.08004 -3.68527 0
M  V30 1704 H 162.187 5.08934 -4.49626 0
M  V30 1705 H 160.133 6.07336 -2.47949 0
M  V30 1706 H 160.05 6.28777 -4.19732 0
M  V30 1707 H 161.318 7.06377 -3.29623 0
M  V30 1708 N 165.547 1.27147 0.931209 0
M  V30 1709 C 166.958 1.12044 1.49342 0
M  V30 1710 C 167.309 -0.295795 1.93957 0
M  V30 1711 O 166.434 -1.18835 1.80852 0
M  V30 1712 C 167.029 2.02781 2.71414 0
M  V30 1713 C 165.588 1.91794 3.2387 0
M  V30 1714 C 164.735 1.95543 1.96617 0
M  V30 1715 H 167.686 1.40091 0.745672 0
M  V30 1716 H 167.707 1.58156 3.46074 0
M  V30 1717 H 167.219 3.05848 2.38911 0
M  V30 1718 H 165.32 0.916992 3.6114 0
M  V30 1719 H 165.433 2.77852 3.90302 0
M  V30 1720 H 163.797 1.39722 2.12955 0
M  V30 1721 H 164.58 3.00259 1.66432 0
M  V30 1722 N 167.025 -1.13721 1.09112 0
M  V30 1723 C 168.25 -1.89314 0.847053 0
M  V30 1724 C 168.675 -1.78416 -0.595774 0
M  V30 1725 O 168.033 -1.12942 -1.41823 0
M  V30 1726 C 168.081 -3.3701 1.28284 0
M  V30 1727 O 167.185 -4.10054 0.439267 0
M  V30 1728 H 166.526 -0.588745 0.307044 0
M  V30 1729 H 169.056 -1.43902 1.45442 0
M  V30 1730 H 169.066 -3.87834 1.26683 0
M  V30 1731 H 167.741 -3.4426 2.33363 0
M  V30 1732 H 166.318 -3.69266 0.519312 0
M  V30 1733 N 168.503 -0.877838 -1.30888 0
M  V30 1734 C 169.914 -0.544193 -1.78593 0
M  V30 1735 C 170.265 0.939301 -1.72254 0
M  V30 1736 O 169.39 1.7337 -1.29505 0
M  V30 1737 C 169.985 -0.98105 -3.24285 0
M  V30 1738 C 168.544 -0.698935 -3.69854 0
M  V30 1739 C 167.691 -1.168 -2.51502 0
M  V30 1740 H 170.642 -1.06278 -1.17859 0
M  V30 1741 H 170.663 -0.307009 -3.79259 0
M  V30 1742 H 170.175 -2.06079 -3.28866 0
M  V30 1743 H 168.276 0.369112 -3.70767 0
M  V30 1744 H 168.389 -1.28148 -4.61644 0
M  V30 1745 H 166.753 -0.587535 -2.47831 0
M  V30 1746 H 167.536 -2.25533 -2.58824 0
M  V30 1747 N 169.982 1.44106 -0.638065 0
M  V30 1748 C 171.229 2.01978 -0.14533 0
M  V30 1749 C 171.557 1.50234 1.23532 0
M  V30 1750 O 170.812 0.679548 1.83523 0
M  V30 1751 C 171.111 3.5729 -0.0887327 0
M  V30 1752 C 170.777 4.28317 -1.40909 0
M  V30 1753 C 169.439 4.47437 -1.77069 0
M  V30 1754 C 171.791 4.6867 -2.28031 0
M  V30 1755 C 169.119 5.04171 -3.00047 0
M  V30 1756 C 171.471 5.26766 -3.50286 0
M  V30 1757 C 170.135 5.44104 -3.86661 0
M  V30 1758 H 169.405 0.739089 -0.0531801 0
M  V30 1759 H 172.052 1.72781 -0.825761 0
M  V30 1760 H 170.357 3.8594 0.675095 0
M  V30 1761 H 172.054 3.99807 0.309145 0
M  V30 1762 H 168.644 4.1377 -1.1177 0
M  V30 1763 H 172.828 4.53604 -2.01388 0
M  V30 1764 H 168.084 5.15782 -3.28298 0
M  V30 1765 H 172.258 5.56983 -4.18023 0
M  V30 1766 H 169.885 5.87832 -4.82034 0
M  V30 1767 N 171.46 0.379036 1.52974 0
M  V30 1768 C 172.37 -0.468639 2.29872 0
M  V30 1769 C 173.386 -1.08067 1.36373 0
M  V30 1770 O 174.562 -1.08871 1.69438 0
M  V30 1771 C 171.627 -1.58594 3.083 0
M  V30 1772 C 170.688 -1.00007 4.17489 0
M  V30 1773 C 169.921 -2.06413 4.92168 0
M  V30 1774 O 170.144 -3.27751 4.66835 0
M  V30 1775 O 169.078 -1.68717 5.7777 0
M  V30 1776 H 172.904 0.157508 3.03291 0
M  V30 1777 H 170.489 0.143035 1.48714 0
M  V30 1778 H 172.371 -2.23525 3.57232 0
M  V30 1779 H 171.046 -2.19724 2.37703 0
M  V30 1780 H 169.953 -0.314299 3.72777 0
M  V30 1781 H 171.286 -0.433135 4.90291 0
M  V30 1782 N 172.938 -1.57226 0.108567 0
M  V30 1783 C 173.901 -2.13602 -0.831082 0
M  V30 1784 C 174.901 -1.06841 -1.20173 0
M  V30 1785 O 176.091 -1.32666 -1.12895 0
M  V30 1786 C 173.223 -2.66769 -2.12243 0
M  V30 1787 H 174.416 -2.97951 -0.341317 0
M  V30 1788 H 171.969 -1.55667 -0.14057 0
M  V30 1789 H 172.704 -1.85977 -2.65675 0
M  V30 1790 H 172.489 -3.44839 -1.86625 0
M  V30 1791 H 173.979 -3.10332 -2.79435 0
M  V30 1792 N 174.416 0.165178 -1.56732 0
M  V30 1793 C 175.379 1.18822 -1.95995 0
M  V30 1794 C 176.379 1.3685 -0.84431 0
M  V30 1795 O 177.569 1.34152 -1.11126 0
M  V30 1796 C 174.701 2.5521 -2.26011 0
M  V30 1797 H 175.894 0.851825 -2.87548 0
M  V30 1798 H 173.447 0.407857 -1.50885 0
M  V30 1799 H 174.182 2.93852 -1.37191 0
M  V30 1800 H 173.967 2.43489 -3.07336 0
M  V30 1801 H 175.457 3.28927 -2.57288 0
M  V30 1802 N 175.894 1.51508 0.433938 0
M  V30 1803 C 177.119 1.68443 1.21003 0
M  V30 1804 C 177.544 0.382636 1.84167 0
M  V30 1805 O 176.902 -0.65755 1.68956 0
M  V30 1806 C 176.95 2.80405 2.26727 0
M  V30 1807 O 176.054 2.44245 3.32292 0
M  V30 1808 H 175.395 0.561536 0.354363 0
M  V30 1809 H 177.925 1.9809 0.512024 0
M  V30 1810 H 177.935 3.0459 2.71457 0
M  V30 1811 H 176.61 3.74867 1.80132 0
M  V30 1812 H 175.187 2.30644 2.93015 0
M  V30 1813 N 177.372 -0.689602 1.41712 0
M  V30 1814 C 178.302 -1.81577 1.46806 0
M  V30 1815 C 179.283 -1.66945 0.326105 0
M  V30 1816 O 180.468 -1.86588 0.538377 0
M  V30 1817 C 177.598 -3.19762 1.35535 0
M  V30 1818 C 176.552 -3.49107 2.47605 0
M  V30 1819 C 175.878 -4.86711 2.21397 0
M  V30 1820 C 177.178 -3.47483 3.89939 0
M  V30 1821 H 178.872 -1.7757 2.41058 0
M  V30 1822 H 176.418 -0.852887 1.16025 0
M  V30 1823 H 178.371 -3.98263 1.3771 0
M  V30 1824 H 177.095 -3.24409 0.377708 0
M  V30 1825 H 175.754 -2.72959 2.44722 0
M  V30 1826 H 175.402 -4.8799 1.21961 0
M  V30 1827 H 175.102 -5.0731 2.96497 0
M  V30 1828 H 176.626 -5.67515 2.25297 0
M  V30 1829 H 178.04 -4.1598 3.94505 0
M  V30 1830 H 176.437 -3.79615 4.64771 0
M  V30 1831 H 177.507 -2.46341 4.17665 0
M  V30 1832 N 178.85 -1.27639 -0.924453 0
M  V30 1833 C 180.097 -1.14167 -1.67249 0
M  V30 1834 C 180.425 0.311863 -1.91984 0
M  V30 1835 O 179.68 1.24425 -1.51053 0
M  V30 1836 C 179.979 -1.87407 -3.04325 0
M  V30 1837 C 179.645 -3.37249 -2.99289 0
M  V30 1838 C 178.307 -3.7812 -2.97622 0
M  V30 1839 C 180.659 -4.32845 -2.90336 0
M  V30 1840 C 177.987 -5.12944 -2.8479 0
M  V30 1841 C 180.339 -5.6773 -2.79045 0
M  V30 1842 C 179.003 -6.07889 -2.7573 0
M  V30 1843 H 178.273 -0.417766 -0.612007 0
M  V30 1844 H 180.92 -1.58286 -1.07786 0
M  V30 1845 H 179.225 -1.35805 -3.67511 0
M  V30 1846 H 180.922 -1.74408 -3.61086 0
M  V30 1847 H 177.512 -3.04748 -3.01374 0
M  V30 1848 H 181.696 -4.02239 -2.90719 0
M  V30 1849 H 176.952 -5.432 -2.80612 0
M  V30 1850 H 181.126 -6.41472 -2.71083 0
M  V30 1851 H 178.753 -7.12314 -2.65544 0
M  V30 1852 N 180.328 1.1314 -1.09713 0
M  V30 1853 C 181.556 1.88321 -0.856898 0
M  V30 1854 C 181.971 1.79276 0.592073 0
M  V30 1855 O 181.328 1.16142 1.40774 0
M  V30 1856 C 181.379 3.37812 -1.28706 0
M  V30 1857 O 181.1 3.46627 -2.67921 0
M  V30 1858 C 182.601 4.29952 -1.07964 0
M  V30 1859 H 179.821 0.596094 -0.308079 0
M  V30 1860 H 182.365 1.43205 -1.45988 0
M  V30 1861 H 180.52 3.805 -0.727912 0
M  V30 1862 H 180.934 4.39579 -2.8613 0
M  V30 1863 H 182.408 5.33159 -1.42986 0
M  V30 1864 H 182.885 4.39196 -0.0176577 0
M  V30 1865 H 183.491 3.93036 -1.62489 0
M  V30 1866 N 181.806 0.884767 1.30421 0
M  V30 1867 C 182.739 0.295999 2.26272 0
M  V30 1868 C 183.717 -0.58332 1.51777 0
M  V30 1869 O 184.901 -0.53346 1.80794 0
M  V30 1870 C 182.028 -0.57944 3.33707 0
M  V30 1871 C 181.074 0.230525 4.25877 0
M  V30 1872 S 181.907 1.61867 5.1045 0
M  V30 1873 C 183.063 0.749756 6.21393 0
M  V30 1874 H 183.296 1.10848 2.75862 0
M  V30 1875 H 180.829 0.684178 1.38414 0
M  V30 1876 H 182.787 -1.07879 3.96071 0
M  V30 1877 H 181.448 -1.36601 2.82841 0
M  V30 1878 H 180.641 -0.437542 5.02097 0
M  V30 1879 H 180.243 0.662493 3.68086 0
M  V30 1880 H 182.535 -0.0333547 6.77492 0
M  V30 1881 H 183.478 1.48356 6.92384 0
M  V30 1882 H 183.886 0.310751 5.63644 0
M  V30 1883 N 183.284 -1.43765 0.645699 0
M  V30 1884 C 184.53 -2.02197 0.156271 0
M  V30 1885 C 184.863 -1.50776 -1.22393 0
M  V30 1886 O 184.138 -0.697771 -1.81553 0
M  V30 1887 C 184.421 -3.59749 0.158872 0
M  V30 1888 C 184.274 -4.21419 1.57245 0
M  V30 1889 C 185.593 -4.37149 -0.50879 0
M  V30 1890 H 182.712 -0.734694 0.0582602 0
M  V30 1891 H 185.354 -1.71157 0.824951 0
M  V30 1892 H 183.504 -3.86325 -0.410525 0
M  V30 1893 H 185.176 -4.059 2.19186 0
M  V30 1894 H 183.419 -3.78356 2.122 0
M  V30 1895 H 184.09 -5.30482 1.52619 0
M  V30 1896 H 186.566 -4.16093 -0.024412 0
M  V30 1897 H 185.442 -5.4683 -0.476213 0
M  V30 1898 H 185.703 -4.12839 -1.58165 0
M  V30 1899 N 184.763 -0.387143 -1.52771 0
M  V30 1900 C 185.693 0.440551 -2.29306 0
M  V30 1901 C 186.674 1.06535 -1.32606 0
M  V30 1902 O 187.859 1.07853 -1.61497 0
M  V30 1903 C 184.989 1.56919 -3.09829 0
M  V30 1904 C 183.943 1.07054 -4.14395 0
M  V30 1905 C 183.269 2.29109 -4.83129 0
M  V30 1906 C 184.569 0.140015 -5.22112 0
M  V30 1907 H 186.263 -0.198026 -2.98744 0
M  V30 1908 H 183.809 -0.09668 -1.43675 0
M  V30 1909 H 185.762 2.15503 -3.62128 0
M  V30 1910 H 184.486 2.23532 -2.3812 0
M  V30 1911 H 183.145 0.507247 -3.63074 0
M  V30 1912 H 182.793 2.94227 -4.0797 0
M  V30 1913 H 182.493 1.96406 -5.53804 0
M  V30 1914 H 184.017 2.88339 -5.38231 0
M  V30 1915 H 185.431 0.633978 -5.69784 0
M  V30 1916 H 183.828 -0.0971485 -6.00021 0
M  V30 1917 H 184.898 -0.811711 -4.78058 0
M  V30 1918 N 186.241 1.57166 -0.116904 0
M  V30 1919 C 187.469 1.99473 0.549383 0
M  V30 1920 C 187.884 0.996541 1.60357 0
M  V30 1921 O 187.241 -0.0108731 1.82497 0
M  V30 1922 C 187.292 3.41788 1.17741 0
M  V30 1923 O 187.013 4.37788 0.165362 0
M  V30 1924 C 188.514 3.99216 1.92722 0
M  V30 1925 H 185.734 0.655009 0.145616 0
M  V30 1926 H 188.278 2.03494 -0.202625 0
M  V30 1927 H 186.433 3.38713 1.88021 0
M  V30 1928 H 186.847 5.20806 0.621403 0
M  V30 1929 H 188.321 5.00882 2.31995 0
M  V30 1930 H 188.798 3.3824 2.80161 0
M  V30 1931 H 189.404 4.0583 1.27209 0
M  V30 1932 N 187.719 -0.156864 1.56817 0
M  V30 1933 C 188.949 -0.885031 1.86684 0
M  V30 1934 C 189.357 -1.75696 0.701954 0
M  V30 1935 O 188.7 -1.80569 -0.337732 0
M  V30 1936 C 188.762 -1.80092 3.11138 0
M  V30 1937 C 188.426 -1.10714 4.43386 0
M  V30 1938 C 189.423 -0.465714 5.1781 0
M  V30 1939 C 187.108 -1.09959 4.90117 0
M  V30 1940 C 189.102 0.174002 6.37162 0
M  V30 1941 C 186.789 -0.456055 6.09396 0
M  V30 1942 C 187.787 0.179622 6.82764 0
M  V30 1943 O 187.475 0.812975 7.99779 0
M  V30 1944 H 187.207 -0.261813 0.623242 0
M  V30 1945 H 189.761 -0.157383 2.04796 0
M  V30 1946 H 187.991 -2.56926 2.89009 0
M  V30 1947 H 189.68 -2.40018 3.27332 0
M  V30 1948 H 190.446 -0.463427 4.82781 0
M  V30 1949 H 186.325 -1.58378 4.3294 0
M  V30 1950 H 189.869 0.670765 6.94368 0
M  V30 1951 H 185.766 -0.455975 6.43888 0
M  V30 1952 H 186.534 0.71366 8.15383 0
M  V30 1953 N 189.197 -1.51736 -0.425897 0
M  V30 1954 C 190.16 -1.73271 -1.50032 0
M  V30 1955 C 191.16 -0.602639 -1.4908 0
M  V30 1956 O 192.35 -0.87033 -1.509 0
M  V30 1957 C 189.482 -1.79969 -2.89523 0
M  V30 1958 H 190.675 -2.69172 -1.32237 0
M  V30 1959 H 188.228 -1.41899 -0.65532 0
M  V30 1960 H 188.963 -0.859241 -3.1271 0
M  V30 1961 H 188.748 -2.62109 -2.91619 0
M  V30 1962 H 190.238 -1.9843 -3.67444 0
M  V30 1963 N 190.675 0.682077 -1.42076 0
M  V30 1964 C 191.605 1.80796 -1.47767 0
M  V30 1965 C 192.586 1.6677 -0.334954 0
M  V30 1966 O 193.771 1.863 -0.548264 0
M  V30 1967 C 190.901 3.19038 -1.37229 0
M  V30 1968 C 189.855 3.47789 -2.49453 0
M  V30 1969 C 189.181 4.8553 -2.23975 0
M  V30 1970 C 190.481 3.45411 -3.91776 0
M  V30 1971 H 192.175 1.7629 -2.41997 0
M  V30 1972 H 189.721 0.846721 -1.16476 0
M  V30 1973 H 191.674 3.97528 -1.39821 0
M  V30 1974 H 190.398 3.24204 -0.394907 0
M  V30 1975 H 189.057 2.71657 -2.46166 0
M  V30 1976 H 188.705 4.87337 -1.24547 0
M  V30 1977 H 188.405 5.0573 -2.99184 0
M  V30 1978 H 189.929 5.66312 -2.28304 0
M  V30 1979 H 191.343 4.13882 -3.96705 0
M  V30 1980 H 189.74 3.77145 -4.66778 0
M  V30 1981 H 190.81 2.44122 -4.18966 0
M  V30 1982 N 192.153 1.28127 0.917671 0
M  V30 1983 C 193.063 1.13556 2.05286 0
M  V30 1984 C 194.079 0.0630914 1.73886 0
M  V30 1985 O 195.255 0.271598 1.9956 0
M  V30 1986 C 192.32 0.794676 3.3747 0
M  V30 1987 C 191.381 1.94909 3.82504 0
M  V30 1988 C 190.614 1.62437 5.0838 0
M  V30 1989 O 190.837 0.536905 5.67867 0
M  V30 1990 O 189.771 2.46677 5.4903 0
M  V30 1991 H 193.597 2.08844 2.20495 0
M  V30 1992 H 191.182 1.07409 1.03845 0
M  V30 1993 H 193.064 0.618344 4.16839 0
M  V30 1994 H 191.739 -0.128581 3.23445 0
M  V30 1995 H 190.646 2.18055 3.03978 0
M  V30 1996 H 191.979 2.85291 4.01086 0
M  V30 1997 N 193.631 -1.12557 1.10312 0
M  V30 1998 C 194.859 -1.87864 0.866873 0
M  V30 1999 C 195.274 -1.79588 -0.582557 0
M  V30 2000 O 194.631 -1.16887 -1.40156 0
M  V30 2001 C 194.682 -3.37125 1.30496 0
M  V30 2002 O 194.403 -3.45201 2.69755 0
M  V30 2003 C 195.904 -4.29373 1.10243 0
M  V30 2004 H 193.124 -0.594452 0.311236 0
M  V30 2005 H 195.668 -1.42429 1.46745 0
M  V30 2006 H 193.823 -3.80109 0.748081 0
M  V30 2007 H 194.237 -4.38056 2.88457 0
M  V30 2008 H 195.711 -5.32394 1.45811 0
M  V30 2009 H 196.188 -4.39181 0.0409492 0
M  V30 2010 H 196.794 -3.92169 1.64571 0
M  V30 2011 N 195.109 -0.891671 -1.2995 0
M  V30 2012 C 196.059 -0.334811 -2.25528 0
M  V30 2013 C 197.043 0.540553 -1.51548 0
M  V30 2014 O 198.235 0.383882 -1.72787 0
M  V30 2015 C 195.364 0.44374 -3.4042 0
M  V30 2016 C 194.45 -0.44609 -4.21747 0
M  V30 2017 N 194.841 -1.54963 -4.81477 0
M  V30 2018 C 193.139 -0.242415 -4.45341 0
M  V30 2019 C 193.84 -2.10015 -5.42465 0
M  V30 2020 N 192.816 -1.39423 -5.25416 0
M  V30 2021 H 196.618 -1.17792 -2.69262 0
M  V30 2022 H 194.132 -0.741822 -1.44467 0
M  V30 2023 H 196.129 0.859362 -4.07947 0
M  V30 2024 H 194.789 1.28421 -2.98225 0
M  V30 2025 H 195.8 -1.93244 -4.80497 0
M  V30 2026 H 192.477 0.560342 -4.13723 0
M  V30 2027 H 193.867 -3.02724 -5.9984 0
M  V30 2028 N 196.587 1.43421 -0.653314 0
M  V30 2029 C 197.836 2.01032 -0.164076 0
M  V30 2030 C 198.149 1.52147 1.22926 0
M  V30 2031 O 199.355 2.02031 1.81371 0
M  V30 2032 C 197.811 3.59082 -0.24252 0
M  V30 2033 C 197.419 4.1696 -1.63855 0
M  V30 2034 C 199.163 4.24079 0.18911 0
M  V30 2035 C 197.07 5.67304 -1.67092 0
M  V30 2036 H 196 0.751798 -0.0575769 0
M  V30 2037 H 198.651 1.6439 -0.815362 0
M  V30 2038 H 197.033 3.93125 0.476276 0
M  V30 2039 H 198.207 3.94416 -2.38271 0
M  V30 2040 H 196.522 3.64335 -2.01616 0
M  V30 2041 H 199.119 5.34381 0.184775 0
M  V30 2042 H 199.462 3.98005 1.22056 0
M  V30 2043 H 199.995 3.94918 -0.477938 0
M  V30 2044 H 196.734 5.98145 -2.68146 0
M  V30 2045 H 196.254 5.91904 -0.970014 0
M  V30 2046 H 197.933 6.31344 -1.4147 0
M  V30 2047 N 198.065 0.39524 1.52563 0
M  V30 2048 C 199.342 -0.242908 1.94086 0
M  V30 2049 C 199.722 -1.63841 1.33114 0
M  V30 2050 O 199.07 -2.22928 0.501529 0
M  V30 2051 C 199.28 -0.26327 3.48006 0
M  V30 2052 C 200.628 -0.489354 4.21771 0
M  V30 2053 O 201.652 -0.343226 3.54543 0
M  V30 2054 O 200.511 -0.776169 5.4096 0
M  V30 2055 H 197.605 -0.152536 0.812811 0
M  V30 2056 H 200.151 0.450178 1.6362 0
M  V30 2057 H 198.923 0.713985 3.84731 0
M  V30 2058 H 198.546 -1.00103 3.84792 0
M  V30 2059 N 199.544 -1.57102 0.125237 0
M  V30 2060 C 200.774 -1.99472 -0.538015 0
M  V30 2061 C 201.182 -1.00395 -1.60366 0
M  V30 2062 O 200.525 0.0103875 -1.83697 0
M  V30 2063 C 200.587 -3.38262 -1.21734 0
M  V30 2064 C 200.251 -4.56021 -0.298897 0
M  V30 2065 C 201.248 -5.17817 0.464943 0
M  V30 2066 C 198.933 -5.01869 -0.208149 0
M  V30 2067 C 200.927 -6.23852 1.3072 0
M  V30 2068 C 198.614 -6.07763 0.637736 0
M  V30 2069 C 199.612 -6.68622 1.39403 0
M  V30 2070 O 199.3 -7.7247 2.22586 0
M  V30 2071 H 199.032 -0.659934 -0.146501 0
M  V30 2072 H 201.586 -2.04321 0.210267 0
M  V30 2073 H 199.816 -3.30185 -2.01282 0
M  V30 2074 H 201.505 -3.6488 -1.77813 0
M  V30 2075 H 202.271 -4.83308 0.404741 0
M  V30 2076 H 198.15 -4.54241 -0.786522 0
M  V30 2077 H 201.694 -6.71284 1.898 0
M  V30 2078 H 197.591 -6.41701 0.699309 0
M  V30 2079 H 198.359 -7.89595 2.15596 0
M  V30 2080 N 201.022 0.148545 -1.56898 0
M  V30 2081 C 201.952 1.18524 -2.01182 0
M  V30 2082 C 202.933 1.4489 -0.891123 0
M  V30 2083 O 204.118 1.55836 -1.15882 0
M  V30 2084 C 201.248 2.51879 -2.39112 0
M  V30 2085 C 200.202 2.40038 -3.54353 0
M  V30 2086 C 199.528 3.78089 -3.78091 0
M  V30 2087 C 200.828 1.88577 -4.87069 0
M  V30 2088 H 202.522 0.817029 -2.88036 0
M  V30 2089 H 200.068 0.391575 -1.38574 0
M  V30 2090 H 202.021 3.24627 -2.68692 0
M  V30 2091 H 200.745 2.90532 -1.49193 0
M  V30 2092 H 199.404 1.69742 -3.24936 0
M  V30 2093 H 199.052 4.14175 -2.85426 0
M  V30 2094 H 198.752 3.71028 -4.55645 0
M  V30 2095 H 200.276 4.52387 -4.10095 0
M  V30 2096 H 201.69 2.51117 -5.15377 0
M  V30 2097 H 200.087 1.9241 -5.68417 0
M  V30 2098 H 201.157 0.84136 -4.77545 0
M  V30 2099 N 202.5 1.5196 0.417844 0
M  V30 2100 C 203.74 1.67262 1.17486 0
M  V30 2101 C 204.104 0.38983 1.88001 0
M  V30 2102 O 205.305 0.418845 2.65517 0
M  V30 2103 C 203.576 2.85526 2.14965 0
M  V30 2104 S 205.135 3.21263 2.98891 0
M  V30 2105 H 201.953 0.589077 0.398132 0
M  V30 2106 H 204.555 1.89927 0.463452 0
M  V30 2107 H 203.259 3.77145 1.61833 0
M  V30 2108 H 202.79 2.65107 2.90657 0
M  V30 2109 H 204.805 2.69208 4.16823 0
M  V30 2110 N 203.978 -0.674533 1.42435 0
M  V30 2111 C 205.227 -1.43034 1.42212 0
M  V30 2112 C 205.54 -1.95555 0.0420788 0
M  V30 2113 O 206.746 -2.71374 -0.0827558 0
M  V30 2114 C 205.202 -2.58748 2.50155 0
M  V30 2115 C 204.81 -2.12925 3.94166 0
M  V30 2116 C 206.554 -3.36257 2.59098 0
M  V30 2117 C 204.461 -3.25723 4.93618 0
M  V30 2118 H 203.391 -0.537345 0.528939 0
M  V30 2119 H 206.042 -0.73024 1.68344 0
M  V30 2120 H 204.424 -3.31128 2.17188 0
M  V30 2121 H 205.598 -1.47697 4.36488 0
M  V30 2122 H 203.913 -1.48354 3.89076 0
M  V30 2123 H 206.51 -4.20264 3.30578 0
M  V30 2124 H 206.853 -3.82866 1.63461 0
M  V30 2125 H 207.386 -2.70947 2.9126 0
M  V30 2126 H 204.125 -2.84105 5.90732 0
M  V30 2127 H 203.645 -3.89732 4.55926 0
M  V30 2128 H 205.324 -3.91186 5.15347 0
M  V30 2129 N 205.456 -1.28612 -0.910864 0
M  V30 2130 C 206.681 -1.1891 -1.69927 0
M  V30 2131 C 207.106 0.248372 -1.86453 0
M  V30 2132 O 206.464 1.17961 -1.37676 0
M  V30 2133 C 206.512 -1.89578 -3.06745 0
M  V30 2134 O 205.616 -1.20521 -3.94396 0
M  V30 2135 H 204.957 -0.412632 -0.520222 0
M  V30 2136 H 207.487 -1.69985 -1.1387 0
M  V30 2137 H 207.497 -1.97597 -3.56958 0
M  V30 2138 H 206.172 -2.94136 -2.94035 0
M  V30 2139 H 204.749 -1.20684 -3.52831 0
M  V30 2140 N 206.934 1.1197 -1.10907 0
M  V30 2141 C 208.183 1.82947 -0.849302 0
M  V30 2142 C 208.496 1.85275 0.627112 0
M  V30 2143 O 209.702 2.52296 1.00295 0
M  V30 2144 C 208.158 3.28529 -1.46959 0
M  V30 2145 C 207.766 3.34546 -2.97965 0
M  V30 2146 C 209.51 4.04443 -1.28942 0
M  V30 2147 C 207.417 4.74491 -3.53004 0
M  V30 2148 H 206.347 0.685477 -0.314065 0
M  V30 2149 H 208.998 1.2604 -1.33365 0
M  V30 2150 H 207.38 3.85333 -0.912917 0
M  V30 2151 H 208.554 2.87654 -3.59989 0
M  V30 2152 H 206.869 2.72108 -3.15192 0
M  V30 2153 H 209.466 5.07787 -1.67502 0
M  V30 2154 H 209.809 4.15656 -0.231456 0
M  V30 2155 H 210.342 3.5401 -1.81443 0
M  V30 2156 H 207.081 4.68474 -4.58489 0
M  V30 2157 H 206.601 5.21816 -2.9575 0
M  V30 2158 H 208.28 5.4344 -3.51115 0
M  V30 2159 N 208.412 0.89855 1.29475 0
M  V30 2160 C 209.36 0.365253 2.29714 0
M  V30 2161 C 210.354 -0.534993 1.6073 0
M  V30 2162 O 211.56 -0.417921 1.75081 0
M  V30 2163 H 207.935 0.0994853 0.74539 0
M  V30 2164 H 209.906 1.22406 2.72138 0
M  V30 2165 C 208.655 -0.393159 3.4547 0
M  V30 2166 H 207.978 0.290332 3.98744 0
M  V30 2167 H 209.418 -0.731189 4.17648 0
M  V30 2168 C 207.877 -1.59539 2.9673 0
M  V30 2169 O 208.407 -2.69469 2.97908 0
M  V30 2170 N 206.613 -1.43716 2.52575 0
M  V30 2171 H 206.16 -0.542828 2.51816 0
M  V30 2172 H 206.118 -2.24288 2.20323 0
M  V30 2173 N 209.89 -1.43072 0.660911 0
M  V30 2174 C 211.301 -1.84932 0.256348 0
M  V30 2175 C 211.652 -1.55325 -1.19868 0
M  V30 2176 O 210.777 -1.00607 -1.91591 0
M  V30 2177 C 211.372 -3.35684 0.458475 0
M  V30 2178 C 209.931 -3.76245 0.108161 0
M  V30 2179 C 209.078 -2.66749 0.757641 0
M  V30 2180 H 212.029 -1.33116 0.864051 0
M  V30 2181 H 212.05 -3.79365 -0.293683 0
M  V30 2182 H 211.562 -3.572 1.51755 0
M  V30 2183 H 209.663 -3.60338 -0.948014 0
M  V30 2184 H 209.776 -4.76058 0.538992 0
M  V30 2185 H 208.14 -2.53989 0.190185 0
M  V30 2186 H 208.923 -2.91092 1.81989 0
M  V30 2187 N 211.368 -0.403325 -1.52352 0
M  V30 2188 C 212.315 0.425011 -2.26853 0
M  V30 2189 C 213.285 1.04598 -1.29029 0
M  V30 2190 O 214.47 1.07135 -1.57882 0
M  V30 2191 C 211.61 1.53888 -3.08889 0
M  V30 2192 C 210.723 0.939396 -4.21663 0
M  V30 2193 C 209.858 2.02547 -4.91068 0
M  V30 2194 C 208.897 1.40263 -5.95813 0
M  V30 2195 N 208.034 2.4286 -6.58759 0
M  V30 2196 H 212.874 -0.21674 -2.97211 0
M  V30 2197 H 210.411 -0.118722 -1.4662 0
M  V30 2198 H 212.369 2.19558 -3.54753 0
M  V30 2199 H 210.999 2.15074 -2.40714 0
M  V30 2200 H 210.051 0.171898 -3.80011 0
M  V30 2201 H 211.363 0.44436 -4.96817 0
M  V30 2202 H 210.517 2.75958 -5.40308 0
M  V30 2203 H 209.256 2.55415 -4.15469 0
M  V30 2204 H 208.261 0.653833 -5.45898 0
M  V30 2205 H 209.486 0.881719 -6.73352 0
M  V30 2206 H 207.432 2.94871 -5.85992 0
M  V30 2207 H 207.349 1.98152 -7.2957 0
M  V30 2208 H 208.617 3.15858 -7.12639 0
M  V30 2209 N 212.846 1.57033 -0.133567 0
M  V30 2210 C 213.796 2.12641 0.822671 0
M  V30 2211 C 214.78 1.05081 1.21847 0
M  V30 2212 O 215.972 1.31287 1.18713 0
M  V30 2213 C 213.101 2.74094 2.06706 0
M  V30 2214 C 212.187 3.88757 1.69497 0
M  V30 2215 N 212.578 4.95194 1.03037 0
M  V30 2216 C 210.876 3.99213 1.98859 0
M  V30 2217 C 211.577 5.75414 0.852873 0
M  V30 2218 N 210.553 5.25726 1.3825 0
M  V30 2219 H 214.355 2.92308 0.305537 0
M  V30 2220 H 211.869 1.62256 0.0684276 0
M  V30 2221 H 213.866 3.12285 2.76195 0
M  V30 2222 H 212.526 1.95896 2.5895 0
M  V30 2223 H 213.537 5.13247 0.692669 0
M  V30 2224 H 210.214 3.32075 2.53047 0
M  V30 2225 H 211.604 6.71089 0.330091 0
M  V30 2226 N 214.325 -0.140222 1.56975 0
M  V30 2227 C 215.602 -0.880769 1.74648 0
M  V30 2228 C 215.982 -1.99036 0.703404 0
M  V30 2229 O 215.33 -2.26821 -0.27648 0
M  V30 2230 C 215.54 -1.417 3.18939 0
M  V30 2231 C 216.888 -1.87774 3.80823 0
M  V30 2232 O 217.912 -1.51427 3.2241 0
M  V30 2233 O 216.771 -2.54827 4.83452 0
M  V30 2234 H 213.865 -0.416713 0.714338 0
M  V30 2235 H 216.411 -0.125618 1.69234 0
M  V30 2236 H 215.183 -0.619902 3.86359 0
M  V30 2237 H 214.806 -2.23546 3.28805 0
M  V30 2238 N 215.803 -1.52179 -0.40978 0
M  V30 2239 C 217.031 -1.70054 -1.17853 0
M  V30 2240 C 217.446 -0.409735 -1.843 0
M  V30 2241 O 216.803 0.614183 -1.71855 0
M  V30 2242 C 216.854 -2.83568 -2.24213 0
M  V30 2243 O 216.575 -4.0765 -1.60478 0
M  V30 2244 C 218.076 -3.12947 -3.13973 0
M  V30 2245 H 215.296 -0.569917 -0.354169 0
M  V30 2246 H 217.84 -1.98734 -0.482198 0
M  V30 2247 H 215.995 -2.57409 -2.89516 0
M  V30 2248 H 216.409 -4.70899 -2.30986 0
M  V30 2249 H 217.883 -3.95889 -3.84677 0
M  V30 2250 H 218.36 -2.26472 -3.76307 0
M  V30 2251 H 218.966 -3.40868 -2.5434 0
M  V30 2252 N 217.281 0.66697 -1.42791 0
M  V30 2253 C 218.528 1.42699 -1.43678 0
M  V30 2254 C 218.856 1.94419 -0.0560425 0
M  V30 2255 O 218.111 1.7182 0.936831 0
M  V30 2256 C 218.41 2.6349 -2.4147 0
M  V30 2257 C 218.076 2.30267 -3.8767 0
M  V30 2258 C 216.738 2.20918 -4.27491 0
M  V30 2259 C 219.09 2.03435 -4.79858 0
M  V30 2260 C 216.418 1.82873 -5.57471 0
M  V30 2261 C 218.77 1.66892 -6.10188 0
M  V30 2262 C 217.434 1.56058 -6.49001 0
M  V30 2263 H 216.704 0.522171 -0.525755 0
M  V30 2264 H 219.351 0.759785 -1.75783 0
M  V30 2265 H 217.656 3.35279 -2.0272 0
M  V30 2266 H 219.353 3.21684 -2.39417 0
M  V30 2267 H 215.943 2.38449 -3.56146 0
M  V30 2268 H 220.127 2.09586 -4.49875 0
M  V30 2269 H 215.383 1.7306 -5.86396 0
M  V30 2270 H 219.557 1.45157 -6.81104 0
M  V30 2271 H 217.184 1.26348 -7.49627 0
M  V30 2272 N 218.759 1.29093 0.90403 0
M  V30 2273 C 219.989 1.19516 1.68522 0
M  V30 2274 C 220.397 -0.24738 1.87576 0
M  V30 2275 O 219.74 -1.17798 1.40959 0
M  V30 2276 C 219.802 1.83249 3.0929 0
M  V30 2277 C 219.466 3.32531 3.13484 0
M  V30 2278 C 220.463 4.28821 2.93953 0
M  V30 2279 C 218.148 3.73656 3.35688 0
M  V30 2280 C 220.142 5.64212 2.96553 0
M  V30 2281 C 217.829 5.0917 3.37919 0
M  V30 2282 C 218.827 6.04258 3.18373 0
M  V30 2283 O 218.515 7.37298 3.20385 0
M  V30 2284 H 218.247 0.415467 0.533257 0
M  V30 2285 H 220.801 1.70912 1.13922 0
M  V30 2286 H 219.031 1.26358 3.65473 0
M  V30 2287 H 220.72 1.68054 3.69476 0
M  V30 2288 H 221.486 3.98382 2.76616 0
M  V30 2289 H 217.365 3.00101 3.49943 0
M  V30 2290 H 220.909 6.38407 2.81216 0
M  V30 2291 H 216.806 5.39256 3.54787 0
M  V30 2292 H 217.574 7.46048 3.36681 0
M  V30 2293 N 220.237 -1.11381 1.11499 0
M  V30 2294 C 221.462 -1.87475 0.887019 0
M  V30 2295 C 221.887 -1.79639 -0.557796 0
M  V30 2296 O 221.245 -1.15924 -1.39396 0
M  V30 2297 C 221.293 -3.34213 1.35403 0
M  V30 2298 O 220.397 -4.0903 0.526146 0
M  V30 2299 H 219.738 -0.582099 0.319463 0
M  V30 2300 H 222.268 -1.40785 1.48461 0
M  V30 2301 H 222.278 -3.8506 1.34881 0
M  V30 2302 H 220.953 -3.39232 2.40612 0
M  V30 2303 H 219.53 -3.68082 0.597522 0
M  V30 2304 N 221.715 -0.905404 -1.28997 0
M  V30 2305 C 222.645 -0.404212 -2.29975 0
M  V30 2306 C 223.626 0.523784 -1.61835 0
M  V30 2307 O 224.811 0.433298 -1.89304 0
M  V30 2308 C 221.941 0.364042 -3.45387 0
M  V30 2309 C 220.895 -0.474048 -4.25367 0
M  V30 2310 C 220.221 0.422045 -5.33032 0
M  V30 2311 C 221.521 -1.72696 -4.92923 0
M  V30 2312 H 223.215 -1.24807 -2.72146 0
M  V30 2313 H 220.761 -0.601585 -1.30832 0
M  V30 2314 H 222.714 0.725447 -4.15109 0
M  V30 2315 H 221.438 1.24174 -3.02074 0
M  V30 2316 H 220.097 -0.81786 -3.57361 0
M  V30 2317 H 219.745 1.29804 -4.85963 0
M  V30 2318 H 219.445 -0.135057 -5.87445 0
M  V30 2319 H 220.969 0.779517 -6.05604 0
M  V30 2320 H 222.383 -1.43495 -5.55051 0
M  V30 2321 H 220.78 -2.22582 -5.57295 0
M  V30 2322 H 221.85 -2.45964 -4.17887 0
M  V30 2323 N 223.193 1.4272 -0.668489 0
M  V30 2324 C 224.123 2.335 -0.000100175 0
M  V30 2325 C 225.104 1.50328 0.795964 0
M  V30 2326 O 226.289 1.78949 0.754385 0
M  V30 2327 C 223.419 3.33874 0.956302 0
M  V30 2328 C 222.373 4.27152 0.269278 0
M  V30 2329 C 221.699 5.17684 1.33818 0
M  V30 2330 C 222.999 5.15373 -0.847805 0
M  V30 2331 H 224.693 2.89639 -0.758244 0
M  V30 2332 H 222.239 1.39269 -0.366079 0
M  V30 2333 H 224.192 3.9629 1.43292 0
M  V30 2334 H 222.916 2.76025 1.74579 0
M  V30 2335 H 221.575 3.66123 -0.187042 0
M  V30 2336 H 221.223 4.56165 2.1195 0
M  V30 2337 H 220.923 5.80918 0.883659 0
M  V30 2338 H 222.447 5.82974 1.81586 0
M  V30 2339 H 223.861 5.7151 -0.452681 0
M  V30 2340 H 222.258 5.87407 -1.22773 0
M  V30 2341 H 223.328 4.5415 -1.69929 0
M  V30 2342 N 224.671 0.411399 1.52136 0
M  V30 2343 C 225.919 -0.163322 2.01439 0
M  V30 2344 C 226.24 -1.45453 1.29879 0
M  V30 2345 O 225.51 -1.91225 0.4254 0
M  V30 2346 H 224.09 -0.0633447 0.744309 0
M  V30 2347 H 226.752 0.548161 1.87033 0
M  V30 2348 H 225.848 -0.357817 3.10042 0
M  V30 2349 N 226.149 -1.5696 0.141893 0
M  V30 2350 C 227.396 -1.9596 -0.510492 0
M  V30 2351 C 227.724 -1.02648 -1.65208 0
M  V30 2352 O 226.979 -0.0546947 -1.95624 0
M  V30 2353 C 227.278 -3.41242 -1.06249 0
M  V30 2354 C 226.944 -4.50882 -0.0398791 0
M  V30 2355 C 225.606 -4.80595 0.241247 0
M  V30 2356 C 227.958 -5.17058 0.65578 0
M  V30 2357 C 225.286 -5.73792 1.22393 0
M  V30 2358 C 227.638 -6.11313 1.62724 0
M  V30 2359 C 226.302 -6.39407 1.91612 0
M  V30 2360 H 225.572 -0.717068 -0.186802 0
M  V30 2361 H 228.219 -1.90142 0.227643 0
M  V30 2362 H 226.524 -3.43866 -1.87785 0
M  V30 2363 H 228.221 -3.68742 -1.57576 0
M  V30 2364 H 224.811 -4.27754 -0.269174 0
M  V30 2365 H 228.995 -4.94239 0.451779 0
M  V30 2366 H 224.251 -5.93853 1.45424 0
M  V30 2367 H 228.425 -6.61668 2.17183 0
M  V30 2368 H 226.052 -7.11427 2.6791 0
M  V30 2369 N 227.627 0.131896 -1.57047 0
M  V30 2370 C 228.855 0.856461 -1.88341 0
M  V30 2371 C 229.27 1.74042 -0.731757 0
M  V30 2372 O 228.627 1.80051 0.297945 0
M  V30 2373 C 228.678 1.70064 -3.18999 0
M  V30 2374 O 228.399 0.852278 -4.2973 0
M  V30 2375 C 229.9 2.53148 -3.63911 0
M  V30 2376 H 227.12 0.246885 -0.62393 0
M  V30 2377 H 229.664 0.120152 -2.04147 0
M  V30 2378 H 227.819 2.38984 -3.04902 0
M  V30 2379 H 228.233 1.43329 -5.04537 0
M  V30 2380 H 229.707 3.07931 -4.58129 0
M  V30 2381 H 230.184 3.29901 -2.89935 0
M  V30 2382 H 230.79 1.89492 -3.80753 0
M  V30 2383 N 229.106 1.52395 0.401703 0
M  V30 2384 C 230.038 1.72505 1.50912 0
M  V30 2385 C 231.051 0.605468 1.51122 0
M  V30 2386 O 232.24 0.880828 1.55254 0
M  V30 2387 C 229.34 1.75711 2.89791 0
M  V30 2388 C 228.513 3.04824 3.1369 0
M  V30 2389 C 227.572 2.99743 4.32482 0
M  V30 2390 O 226.598 3.73635 4.29402 0
M  V30 2391 N 227.8 2.18047 5.37992 0
M  V30 2392 H 230.565 2.68049 1.34052 0
M  V30 2393 H 228.126 1.50724 0.591084 0
M  V30 2394 H 230.118 1.69834 3.6734 0
M  V30 2395 H 228.688 0.876092 3.00072 0
M  V30 2396 H 227.908 3.2429 2.24119 0
M  V30 2397 H 229.196 3.90221 3.26504 0
M  V30 2398 H 228.594 1.57456 5.43345 0
M  V30 2399 H 227.151 2.18021 6.14256 0
M  V30 2400 N 230.584 -0.659388 1.43143 0
M  V30 2401 C 231.833 -1.41518 1.43721 0
M  V30 2402 C 232.146 -1.95499 0.0628176 0
M  V30 2403 O 233.352 -2.71446 -0.0539683 0
M  V30 2404 C 231.808 -2.5608 2.52885 0
M  V30 2405 C 231.416 -2.08733 3.96402 0
M  V30 2406 C 233.16 -3.3349 2.62649 0
M  V30 2407 C 231.067 -3.20469 4.97045 0
M  V30 2408 H 229.997 -0.531705 0.534608 0
M  V30 2409 H 232.648 -0.712343 1.69109 0
M  V30 2410 H 231.03 -3.28805 2.20688 0
M  V30 2411 H 232.204 -1.43059 4.3803 0
M  V30 2412 H 230.519 -1.44219 3.90627 0
M  V30 2413 H 233.116 -4.16734 3.35017 0
M  V30 2414 H 233.459 -3.8111 1.67513 0
M  V30 2415 H 233.992 -2.67842 2.94118 0
M  V30 2416 H 230.731 -2.77824 5.93712 0
M  V30 2417 H 230.251 -3.84874 4.60034 0
M  V30 2418 H 231.93 -3.85698 5.19467 0
M  V30 2419 N 232.062 -1.29571 -0.897171 0
M  V30 2420 C 233.31 -1.17456 -1.64464 0
M  V30 2421 C 233.631 0.273698 -1.9307 0
M  V30 2422 O 232.901 1.18684 -1.55855 0
M  V30 2423 H 231.481 -0.431706 -0.609622 0
M  V30 2424 H 234.143 -1.62531 -1.07562 0
M  V30 2425 H 233.239 -1.72648 -2.59998 0
M  V30 2426 N 233.54 1.10788 -1.12088 0
M  V30 2427 C 234.503 2.15207 -0.788577 0
M  V30 2428 C 235.503 1.59609 0.195317 0
M  V30 2429 O 236.693 1.74174 -0.0300193 0
M  V30 2430 C 233.825 3.4047 -0.171174 0
M  V30 2431 H 235.018 2.46116 -1.71368 0
M  V30 2432 H 232.571 1.26089 -0.923652 0
M  V30 2433 H 233.306 3.15176 0.763832 0
M  V30 2434 H 233.091 3.82109 -0.879514 0
M  V30 2435 H 234.581 4.17576 0.04496 0
M  V30 2436 N 235.018 0.912232 1.28515 0
M  V30 2437 C 235.948 0.416403 2.29757 0
M  V30 2438 C 236.929 -0.515194 1.6211 0
M  V30 2439 O 238.114 -0.423253 1.89532 0
M  V30 2440 C 235.244 -0.34572 3.45575 0
M  V30 2441 C 234.198 0.496599 4.25109 0
M  V30 2442 C 233.524 -0.393771 5.33248 0
M  V30 2443 C 234.824 1.75307 4.92001 0
M  V30 2444 H 236.518 1.26249 2.7148 0
M  V30 2445 H 234.064 0.608515 1.30511 0
M  V30 2446 H 236.017 -0.703422 4.15488 0
M  V30 2447 H 234.741 -1.2257 3.02728 0
M  V30 2448 H 233.4 0.8368 3.56922 0
M  V30 2449 H 233.048 -1.27225 4.86644 0
M  V30 2450 H 232.748 0.166209 5.87365 0
M  V30 2451 H 234.272 -0.747389 6.06009 0
M  V30 2452 H 235.686 1.46437 5.54283 0
M  V30 2453 H 234.083 2.25534 5.56106 0
M  V30 2454 H 235.153 2.48176 4.16577 0
M  V30 2455 N 236.496 -1.42363 0.676048 0
M  V30 2456 C 237.443 -2.308 -0.00150904 0
M  V30 2457 C 238.413 -1.46032 -0.791444 0
M  V30 2458 O 239.598 -1.74861 -0.76344 0
M  V30 2459 C 236.738 -3.31883 -0.945919 0
M  V30 2460 C 235.851 -4.31741 -0.149675 0
M  V30 2461 C 234.986 -5.19898 -1.08995 0
M  V30 2462 C 234.025 -6.11434 -0.285465 0
M  V30 2463 N 233.162 -6.92138 -1.17851 0
M  V30 2464 H 238.002 -2.88187 0.758455 0
M  V30 2465 H 235.539 -1.41952 0.38576 0
M  V30 2466 H 237.497 -3.89019 -1.50731 0
M  V30 2467 H 236.127 -2.76093 -1.6725 0
M  V30 2468 H 235.179 -3.76713 0.528359 0
M  V30 2469 H 236.491 -4.96534 0.474866 0
M  V30 2470 H 235.645 -5.81772 -1.72123 0
M  V30 2471 H 234.384 -4.55284 -1.74837 0
M  V30 2472 H 233.389 -5.48627 0.359018 0
M  V30 2473 H 234.614 -6.78097 0.368883 0
M  V30 2474 H 232.56 -6.30152 -1.82332 0
M  V30 2475 H 232.477 -7.53542 -0.609082 0
M  V30 2476 H 233.745 -7.58499 -1.79722 0
M  V30 2477 N 237.974 -0.419461 -1.51915 0
M  V30 2478 C 238.924 0.418496 -2.24126 0
M  V30 2479 C 239.908 1.00495 -1.25656 0
M  V30 2480 O 241.1 0.926058 -1.50842 0
M  V30 2481 C 238.229 1.52899 -3.07371 0
M  V30 2482 C 237.315 0.952797 -4.13258 0
M  V30 2483 N 237.706 0.104175 -5.05693 0
M  V30 2484 C 236.004 1.22224 -4.28926 0
M  V30 2485 C 236.705 -0.21752 -5.81293 0
M  V30 2486 N 235.681 0.394293 -5.42168 0
M  V30 2487 H 239.483 -0.236048 -2.92951 0
M  V30 2488 H 236.997 -0.230481 -1.60756 0
M  V30 2489 H 238.994 2.14199 -3.57665 0
M  V30 2490 H 237.654 2.18605 -2.40088 0
M  V30 2491 H 238.665 -0.260924 -5.17242 0
M  V30 2492 H 235.342 1.87812 -3.72871 0
M  V30 2493 H 236.732 -0.906992 -6.6575 0
M  V30 2494 N 239.452 1.56882 -0.150215 0
M  V30 2495 C 240.682 2.00302 0.506213 0
M  V30 2496 C 241.09 1.02934 1.58749 0
M  V30 2497 O 240.433 0.0188384 1.8369 0
M  V30 2498 C 240.495 3.40156 1.16337 0
M  V30 2499 C 240.159 4.56439 0.226311 0
M  V30 2500 C 241.156 5.17012 -0.547265 0
M  V30 2501 C 238.841 5.02136 0.128279 0
M  V30 2502 C 240.835 6.21693 -1.40629 0
M  V30 2503 C 238.522 6.06672 -0.734345 0
M  V30 2504 C 239.52 6.6632 -1.50023 0
M  V30 2505 O 239.208 7.68831 -2.34848 0
M  V30 2506 H 238.94 0.662182 0.135984 0
M  V30 2507 H 241.494 2.03961 -0.242746 0
M  V30 2508 H 239.724 3.33346 1.96004 0
M  V30 2509 H 241.413 3.67663 1.71985 0
M  V30 2510 H 242.179 4.82603 -0.48158 0
M  V30 2511 H 238.058 4.55435 0.714157 0
M  V30 2512 H 241.602 6.68179 -2.00455 0
M  V30 2513 H 237.499 6.40507 -0.801309 0
M  V30 2514 H 238.267 7.86065 -2.28131 0
M  V30 2515 N 240.93 -0.123565 1.57115 0
M  V30 2516 C 242.178 -0.83051 1.84247 0
M  V30 2517 C 242.499 -1.80629 0.73471 0
M  V30 2518 O 241.769 -1.94403 -0.241688 0
M  V30 2519 H 240.349 -0.309694 0.679778 0
M  V30 2520 H 243.011 -0.111976 1.94578 0
M  V30 2521 H 242.107 -1.37852 2.80006 0
M  V30 2522 N 242.408 -1.52605 -0.393616 0
M  V30 2523 C 243.636 -1.71294 -1.16043 0
M  V30 2524 C 244.051 -0.429259 -1.83855 0
M  V30 2525 O 243.408 0.595921 -1.72496 0
M  V30 2526 C 243.459 -2.8593 -2.21193 0
M  V30 2527 O 243.18 -4.09329 -1.56146 0
M  V30 2528 C 244.681 -3.16259 -3.10636 0
M  V30 2529 H 241.901 -0.573641 -0.348104 0
M  V30 2530 H 244.445 -1.99234 -0.461092 0
M  V30 2531 H 242.6 -2.60465 -2.86769 0
M  V30 2532 H 243.014 -4.73323 -2.25978 0
M  V30 2533 H 244.488 -3.99946 -3.80456 0
M  V30 2534 H 244.965 -2.3045 -3.73884 0
M  V30 2535 H 245.571 -3.43547 -2.50711 0
M  V30 2536 N 243.887 0.651787 -1.4349 0
M  V30 2537 C 245.133 1.41376 -1.45398 0
M  V30 2538 C 245.466 1.94041 -0.0784823 0
M  V30 2539 O 244.741 1.72379 0.900878 0
M  V30 2540 C 245.024 2.59414 -2.49752 0
M  V30 2541 C 244.877 2.12232 -3.96582 0
M  V30 2542 C 246.196 3.61626 -2.50827 0
M  V30 2543 H 243.315 0.512719 -0.529422 0
M  V30 2544 H 245.957 0.738796 -1.75048 0
M  V30 2545 H 244.107 3.16997 -2.246 0
M  V30 2546 H 245.779 1.59639 -4.32797 0
M  V30 2547 H 244.022 1.43592 -4.09346 0
M  V30 2548 H 244.693 2.9712 -4.65214 0
M  V30 2549 H 247.169 3.13805 -2.7325 0
M  V30 2550 H 246.045 4.41766 -3.25783 0
M  V30 2551 H 246.306 4.14314 -1.5426 0
M  V30 2552 N 245.365 1.30045 0.890287 0
M  V30 2553 C 246.313 1.15873 2.01683 0
M  V30 2554 C 247.307 0.0719403 1.69247 0
M  V30 2555 O 248.513 0.232414 1.78493 0
M  V30 2556 H 244.888 0.358203 0.661207 0
M  V30 2557 H 246.859 2.11229 2.10772 0
M  V30 2558 C 245.608 0.861842 3.36849 0
M  V30 2559 H 244.931 1.69016 3.62317 0
M  V30 2560 H 246.371 0.802762 4.16331 0
M  V30 2561 C 244.83 -0.435132 3.34078 0
M  V30 2562 O 245.36 -1.4583 3.74295 0
M  V30 2563 N 243.566 -0.444377 2.87182 0
M  V30 2564 H 243.113 0.388723 2.5465 0
M  V30 2565 H 243.071 -1.31213 2.85711 0
M  V30 2566 N 246.843 -1.10192 1.12674 0
M  V30 2567 C 247.806 -2.14786 0.799979 0
M  V30 2568 C 248.806 -1.59711 -0.18685 0
M  V30 2569 O 249.996 -1.74156 0.0392558 0
M  V30 2570 C 247.128 -3.40374 0.189228 0
M  V30 2571 H 248.321 -2.45203 1.72671 0
M  V30 2572 H 245.874 -1.25597 0.930326 0
M  V30 2573 H 246.609 -3.15577 -0.747107 0
M  V30 2574 H 246.394 -3.81637 0.899766 0
M  V30 2575 H 247.884 -4.17594 -0.0228143 0
M  V30 2576 N 248.321 -0.919034 -1.28029 0
M  V30 2577 C 249.732 -0.600735 -1.76771 0
M  V30 2578 C 250.083 0.884024 -1.75156 0
M  V30 2579 O 249.208 1.69163 -1.34956 0
M  V30 2580 C 249.803 -1.08372 -3.21 0
M  V30 2581 C 248.362 -0.816248 -3.67443 0
M  V30 2582 C 247.509 -1.24742 -2.47658 0
M  V30 2583 H 250.46 -1.09974 -1.14418 0
M  V30 2584 H 250.481 -0.427512 -3.78091 0
M  V30 2585 H 249.993 -2.16437 -3.22144 0
M  V30 2586 H 248.094 0.250968 -3.71754 0
M  V30 2587 H 248.207 -1.4277 -4.57333 0
M  V30 2588 H 246.571 -0.666083 -2.45836 0
M  V30 2589 H 247.354 -2.33653 -2.51518 0
M  V30 2590 N 249.799 1.42003 -0.683588 0
M  V30 2591 C 250.762 2.29191 -0.0198243 0
M  V30 2592 C 251.762 1.43773 0.72013 0
M  V30 2593 O 252.952 1.65061 0.556815 0
M  V30 2594 C 250.084 3.26435 0.982487 0
M  V30 2595 H 251.277 2.8938 -0.787345 0
M  V30 2596 H 248.83 1.49789 -0.446418 0
M  V30 2597 H 249.565 2.71203 1.77819 0
M  V30 2598 H 249.35 3.89449 0.455182 0
M  V30 2599 H 250.84 3.918 1.44508 0
M  V30 2600 N 251.277 0.427512 1.51691 0
M  V30 2601 C 252.526 -0.143679 2.01188 0
M  V30 2602 C 252.839 -1.44642 1.31674 0
M  V30 2603 O 254.045 -2.09997 1.72086 0
M  V30 2604 C 252.501 -0.306602 3.58592 0
M  V30 2605 C 252.109 0.985125 4.37035 0
M  V30 2606 C 253.853 -0.832091 4.16265 0
M  V30 2607 C 251.76 0.788382 5.86122 0
M  V30 2608 H 250.69 -0.0574701 0.751807 0
M  V30 2609 H 253.341 0.555772 1.74881 0
M  V30 2610 H 251.723 -1.06882 3.81303 0
M  V30 2611 H 252.897 1.75492 4.26074 0
M  V30 2612 H 251.212 1.4384 3.90767 0
M  V30 2613 H 253.809 -0.995617 5.25349 0
M  V30 2614 H 254.152 -1.81186 3.74803 0
M  V30 2615 H 254.685 -0.128444 3.97593 0
M  V30 2616 H 251.424 1.74025 6.31978 0
M  V30 2617 H 250.944 0.0582143 5.99772 0
M  V30 2618 H 252.623 0.437722 6.45518 0
M  V30 2619 N 252.755 -1.56801 0.158532 0
M  V30 2620 C 253.718 -2.16138 -0.762705 0
M  V30 2621 C 254.718 -1.1061 -1.16713 0
M  V30 2622 O 255.908 -1.36191 -1.08617 0
M  V30 2623 C 253.04 -2.73386 -2.03649 0
M  V30 2624 H 254.233 -2.98886 -0.246354 0
M  V30 2625 H 251.786 -1.56035 -0.0909744 0
M  V30 2626 H 252.521 -1.94335 -2.59623 0
M  V30 2627 H 252.306 -3.50601 -1.75559 0
M  V30 2628 H 253.796 -3.19065 -2.6942 0
M  V30 2629 N 254.233 0.115231 -1.57178 0
M  V30 2630 C 255.649 0.468877 -1.52557 0
M  V30 2631 C 255.849 1.81649 -0.872125 0
M  V30 2632 O 254.905 2.48347 -0.45606 0
M  V30 2633 C 256.218 0.4499 -2.97315 0
M  V30 2634 C 257.766 0.533185 -3.08425 0
M  V30 2635 C 258.241 0.54456 -4.54751 0
M  V30 2636 N 259.732 0.605892 -4.5922 0
M  V30 2637 C 260.467 0.636203 -5.6986 0
M  V30 2638 N 259.963 0.623931 -6.89985 0
M  V30 2639 N 261.756 0.679496 -5.57978 0
M  V30 2640 H 253.907 -0.767712 -1.9804 0
M  V30 2641 H 256.17 -0.283609 -0.904583 0
M  V30 2642 H 255.876 -0.472721 -3.48509 0
M  V30 2643 H 255.75 1.27632 -3.5495 0
M  V30 2644 H 258.137 1.44623 -2.57232 0
M  V30 2645 H 258.218 -0.320995 -2.53778 0
M  V30 2646 H 257.862 -0.364452 -5.06591 0
M  V30 2647 H 257.792 1.41568 -5.07214 0
M  V30 2648 H 260.283 0.621386 -3.72756 0
M  V30 2649 H 260.596 0.649787 -7.70063 0
M  V30 2650 H 258.941 0.591296 -6.9248 0
M  V30 2651 H 262.132 0.686472 -4.63039 0
M  V30 2652 H 262.305 0.69965 -6.44212 0
M  V30 2653 N 255.711 1.52812 0.385517 0
M  V30 2654 C 256.674 1.77188 1.45386 0
M  V30 2655 C 257.674 0.641953 1.4743 0
M  V30 2656 O 258.864 0.910033 1.4854 0
M  V30 2657 C 255.996 1.87582 2.8465 0
M  V30 2658 H 257.189 2.72583 1.25054 0
M  V30 2659 H 254.742 1.43586 0.617467 0
M  V30 2660 H 255.477 0.941849 3.10322 0
M  V30 2661 H 255.262 2.69748 2.84567 0
M  V30 2662 H 256.752 2.08102 3.62054 0
M  V30 2663 N 257.189 -0.644168 1.43834 0
M  V30 2664 C 258.119 -1.76814 1.52509 0
M  V30 2665 C 259.1 -1.65823 0.379052 0
M  V30 2666 O 260.285 -1.84781 0.597466 0
M  V30 2667 C 257.415 -3.15288 1.4564 0
M  V30 2668 C 256.369 -3.41053 2.58586 0
M  V30 2669 C 255.695 -4.79421 2.36769 0
M  V30 2670 C 256.995 -3.34902 4.00797 0
M  V30 2671 H 258.689 -1.69812 2.46586 0
M  V30 2672 H 256.235 -0.815542 1.1868 0
M  V30 2673 H 258.188 -3.93681 1.50311 0
M  V30 2674 H 256.912 -3.23043 0.480725 0
M  V30 2675 H 255.571 -2.65035 2.53282 0
M  V30 2676 H 255.219 -4.83863 1.37424 0
M  V30 2677 H 254.919 -4.9762 3.12487 0
M  V30 2678 H 256.443 -5.6006 2.43238 0
M  V30 2679 H 257.857 -4.03218 4.07539 0
M  V30 2680 H 256.254 -3.64637 4.76613 0
M  V30 2681 H 257.324 -2.32928 4.25291 0
M  V30 2682 N 258.668 -1.30515 -0.883378 0
M  V30 2683 C 259.898 -1.22182 -1.66599 0
M  V30 2684 C 260.306 0.217507 -1.87946 0
M  V30 2685 O 259.649 1.1554 -1.42815 0
M  V30 2686 C 259.711 -1.88146 -3.06335 0
M  V30 2687 C 259.375 -3.37476 -3.08154 0
M  V30 2688 C 260.372 -4.33443 -2.87094 0
M  V30 2689 C 258.057 -3.7895 -3.29701 0
M  V30 2690 C 260.051 -5.68858 -2.8754 0
M  V30 2691 C 257.738 -5.14482 -3.29776 0
M  V30 2692 C 258.736 -6.09246 -3.0872 0
M  V30 2693 O 258.424 -7.42302 -3.08615 0
M  V30 2694 H 258.156 -0.423898 -0.52658 0
M  V30 2695 H 260.71 -1.72703 -1.11188 0
M  V30 2696 H 258.94 -1.32157 -3.63416 0
M  V30 2697 H 260.629 -1.7391 -3.66756 0
M  V30 2698 H 261.395 -4.02733 -2.70243 0
M  V30 2699 H 257.274 -3.05631 -3.45124 0
M  V30 2700 H 260.818 -6.428 -2.71024 0
M  V30 2701 H 256.715 -5.44832 -3.46163 0
M  V30 2702 H 257.483 -7.5131 -3.24769 0
M  V30 2703 N 260.146 1.09593 -1.13257 0
M  V30 2704 C 261.392 1.82003 -0.89458 0
M  V30 2705 C 261.725 1.85402 0.577906 0
M  V30 2706 O 261 1.32099 1.42759 0
M  V30 2707 C 261.283 3.28237 -1.48096 0
M  V30 2708 C 261.136 3.3312 -3.02244 0
M  V30 2709 C 262.455 4.24871 -1.14774 0
M  V30 2710 H 259.574 0.66077 -0.326424 0
M  V30 2711 H 262.216 1.28389 -1.40058 0
M  V30 2712 H 260.366 3.74024 -1.05062 0
M  V30 2713 H 262.038 2.95748 -3.54021 0
M  V30 2714 H 260.281 2.72756 -3.37323 0
M  V30 2715 H 260.952 4.3613 -3.38371 0
M  V30 2716 H 263.428 3.87361 -1.51957 0
M  V30 2717 H 262.304 5.25532 -1.58452 0
M  V30 2718 H 262.565 4.42058 -0.0611849 0
M  V30 2719 N 261.624 0.925811 1.2754 0
M  V30 2720 C 263.035 0.610102 1.7645 0
M  V30 2721 C 263.386 -0.874723 1.75622 0
M  V30 2722 O 262.511 -1.68444 1.35851 0
M  V30 2723 C 263.106 1.10073 3.20421 0
M  V30 2724 C 261.665 0.835723 3.67005 0
M  V30 2725 C 260.812 1.26054 2.46993 0
M  V30 2726 H 263.763 1.10579 1.13833 0
M  V30 2727 H 263.784 0.447557 3.77859 0
M  V30 2728 H 263.296 2.18143 3.20991 0
M  V30 2729 H 261.397 -0.231249 3.71882 0
M  V30 2730 H 261.51 1.45193 4.56569 0
M  V30 2731 H 259.874 0.679111 2.45479 0
M  V30 2732 H 260.657 2.34984 2.50275 0
M  V30 2733 N 263.102 -1.41638 0.69111 0
M  V30 2734 C 264.012 -2.34588 0.0233487 0
M  V30 2735 C 265.028 -1.55987 -0.770984 0
M  V30 2736 O 266.204 -1.88486 -0.709569 0
M  V30 2737 C 263.269 -3.34684 -0.904851 0
M  V30 2738 C 262.33 -4.29176 -0.103225 0
M  V30 2739 C 261.563 -5.2449 -0.987216 0
M  V30 2740 O 261.786 -5.2514 -2.22674 0
M  V30 2741 O 260.72 -6.00295 -0.439281 0
M  V30 2742 H 264.546 -2.93261 0.789416 0
M  V30 2743 H 262.131 -1.42417 0.45142 0
M  V30 2744 H 264.013 -3.96133 -1.43724 0
M  V30 2745 H 262.688 -2.78461 -1.65049 0
M  V30 2746 H 261.595 -3.71089 0.473655 0
M  V30 2747 H 262.928 -4.88484 0.60365 0
M  V30 2748 N 264.58 -0.43555 -1.51462 0
M  V30 2749 C 265.826 0.123979 -2.03022 0
M  V30 2750 C 266.181 1.4054 -1.31401 0
M  V30 2751 O 265.474 1.86948 -0.419634 0
M  V30 2752 C 265.668 0.39942 -3.55161 0
M  V30 2753 C 265.497 -0.853754 -4.41521 0
M  V30 2754 C 264.267 -1.38675 -4.85898 0
M  V30 2755 C 266.465 -1.73939 -4.83994 0
M  V30 2756 N 264.447 -2.59265 -5.56466 0
M  V30 2757 C 265.818 -2.79135 -5.5361 0
M  V30 2758 C 267.873 -1.75402 -4.65981 0
M  V30 2759 C 266.576 -3.85737 -6.07124 0
M  V30 2760 C 268.602 -2.80938 -5.20411 0
M  V30 2761 C 267.964 -3.84854 -5.89972 0
M  V30 2762 H 264.063 0.00624887 -0.781975 0
M  V30 2763 H 266.647 -0.59582 -1.85359 0
M  V30 2764 H 264.818 1.08825 -3.72843 0
M  V30 2765 H 266.55 0.95015 -3.93388 0
M  V30 2766 H 263.305 -0.94094 -4.64159 0
M  V30 2767 H 263.729 -3.2041 -5.96378 0
M  V30 2768 H 268.371 -0.963926 -4.11665 0
M  V30 2769 H 266.089 -4.65586 -6.60496 0
M  V30 2770 H 269.675 -2.8301 -5.08327 0
M  V30 2771 H 268.555 -4.65176 -6.31333 0
M  V30 2772 N 266.058 1.56714 -0.166846 0
M  V30 2773 C 267.474 1.58473 0.189372 0
M  V30 2774 C 267.674 1.18201 1.63189 0
M  V30 2775 O 266.73 0.891528 2.36237 0
M  V30 2776 C 268.043 3.00573 -0.0873872 0
M  V30 2777 C 269.591 3.1299 -0.0252443 0
M  V30 2778 C 270.066 4.57174 -0.274934 0
M  V30 2779 N 271.557 4.62665 -0.222553 0
M  V30 2780 C 272.292 5.72072 -0.389985 0
M  V30 2781 N 271.788 6.90054 -0.616229 0
M  V30 2782 N 273.581 5.61153 -0.326202 0
M  V30 2783 H 265.732 1.8118 -1.10849 0
M  V30 2784 H 267.995 0.839525 -0.440342 0
M  V30 2785 H 267.701 3.34497 -1.0865 0
M  V30 2786 H 267.575 3.72019 0.623037 0
M  V30 2787 H 269.962 2.78895 0.96444 0
M  V30 2788 H 270.043 2.43989 -0.768309 0
M  V30 2789 H 269.687 4.91976 -1.26181 0
M  V30 2790 H 269.617 5.24328 0.48869 0
M  V30 2791 H 272.108 3.77863 -0.0531512 0
M  V30 2792 H 272.421 7.69311 -0.733559 0
M  V30 2793 H 270.766 6.91927 -0.652791 0
M  V30 2794 H 273.957 4.67859 -0.150072 0
M  V30 2795 H 274.13 6.46364 -0.460116 0
M  V30 2796 N 267.536 -0.106894 1.57237 0
M  V30 2797 C 268.761 -0.830287 1.90055 0
M  V30 2798 C 269.186 -1.72064 0.75998 0
M  V30 2799 O 268.544 -1.78982 -0.288991 0
M  V30 2800 C 268.592 -1.6295 3.21683 0
M  V30 2801 O 267.696 -2.73748 3.08441 0
M  V30 2802 H 267.037 -0.228855 0.623315 0
M  V30 2803 H 269.567 -0.085658 2.04421 0
M  V30 2804 H 269.577 -2.01621 3.54701 0
M  V30 2805 H 268.252 -0.975989 4.04286 0
M  V30 2806 H 266.829 -2.38192 2.86913 0
M  V30 2807 N 269.014 -1.53014 -0.377408 0
M  V30 2808 C 269.946 -1.74884 -1.48149 0
M  V30 2809 C 270.959 -0.629433 -1.5014 0
M  V30 2810 O 272.148 -0.905416 -1.53833 0
M  V30 2811 C 269.248 -1.80299 -2.86959 0
M  V30 2812 C 268.421 -3.09776 -3.08801 0
M  V30 2813 C 267.48 -3.06586 -4.27658 0
M  V30 2814 O 266.506 -3.80419 -4.23403 0
M  V30 2815 N 267.708 -2.26578 -5.34455 0
M  V30 2816 H 270.473 -2.70147 -1.29771 0
M  V30 2817 H 268.034 -1.51646 -0.56703 0
M  V30 2818 H 270.026 -1.75657 -3.64591 0
M  V30 2819 H 268.596 -0.92372 -2.98641 0
M  V30 2820 H 267.816 -3.27815 -2.18931 0
M  V30 2821 H 269.104 -3.95366 -3.20255 0
M  V30 2822 H 268.502 -1.66081 -5.40771 0
M  V30 2823 H 267.059 -2.27766 -6.10709 0
M  V30 2824 N 270.492 0.636531 -1.44174 0
M  V30 2825 C 271.72 1.42353 -1.50144 0
M  V30 2826 C 272.135 1.88389 -0.124575 0
M  V30 2827 O 271.492 1.6051 0.868489 0
M  V30 2828 C 271.543 2.64744 -2.46156 0
M  V30 2829 O 271.264 2.20629 -3.7849 0
M  V30 2830 C 272.765 3.57929 -2.61537 0
M  V30 2831 H 269.985 0.436752 -0.5094 0
M  V30 2832 H 272.529 0.778933 -1.89084 0
M  V30 2833 H 270.684 3.25307 -2.10366 0
M  V30 2834 H 271.098 2.99938 -4.30276 0
M  V30 2835 H 272.572 4.40428 -3.32757 0
M  V30 2836 H 273.049 4.06382 -1.66585 0
M  V30 2837 H 273.655 3.03238 -2.98206 0
M  V30 2838 N 271.97 1.30982 0.876444 0
M  V30 2839 C 272.9 1.20668 1.99903 0
M  V30 2840 C 273.881 0.095354 1.69833 0
M  V30 2841 O 275.066 0.27885 1.92188 0
M  V30 2842 C 272.196 0.90655 3.3526 0
M  V30 2843 C 271.15 1.97675 3.79617 0
M  V30 2844 C 270.476 1.52943 5.1236 0
M  V30 2845 C 271.776 3.389 3.97422 0
M  V30 2846 H 273.47 2.14586 2.0879 0
M  V30 2847 H 271.016 1.03308 1.00317 0
M  V30 2848 H 272.969 0.821025 4.13324 0
M  V30 2849 H 271.693 -0.0682969 3.26529 0
M  V30 2850 H 270.352 2.05205 3.03787 0
M  V30 2851 H 270 0.54262 5.00065 0
M  V30 2852 H 269.7 2.24532 5.43009 0
M  V30 2853 H 271.224 1.45786 5.92941 0
M  V30 2854 H 272.638 3.34081 4.659 0
M  V30 2855 H 271.035 4.0865 4.3946 0
M  V30 2856 H 272.105 3.80163 3.01006 0
M  V30 2857 N 273.449 -1.08991 1.13837 0
M  V30 2858 C 274.379 -2.17771 0.842507 0
M  V30 2859 C 275.36 -1.6892 -0.20001 0
M  V30 2860 O 276.545 -1.94113 -0.0579731 0
M  V30 2861 C 273.675 -3.4589 0.312644 0
M  V30 2862 C 272.629 -4.08099 1.28992 0
M  V30 2863 C 271.955 -5.31098 0.619623 0
M  V30 2864 C 273.255 -4.50077 2.65005 0
M  V30 2865 H 274.949 -2.42777 1.75213 0
M  V30 2866 H 272.495 -1.16682 0.843875 0
M  V30 2867 H 274.448 -4.21297 0.0933043 0
M  V30 2868 H 273.172 -3.20419 -0.632382 0
M  V30 2869 H 271.831 -3.34717 1.49533 0
M  V30 2870 H 271.479 -5.0191 -0.33102 0
M  V30 2871 H 271.179 -5.73674 1.27167 0
M  V30 2872 H 272.703 -6.09224 0.409669 0
M  V30 2873 H 274.117 -5.16688 2.48407 0
M  V30 2874 H 272.514 -5.03553 3.26427 0
M  V30 2875 H 273.584 -3.62257 3.22332 0
M  V30 2876 N 274.927 -0.932562 -1.27047 0
M  V30 2877 C 275.89 -0.440064 -2.24936 0
M  V30 2878 C 276.89 0.444071 -1.54547 0
M  V30 2879 O 278.08 0.244465 -1.72476 0
M  V30 2880 C 275.212 0.36678 -3.38921 0
M  V30 2881 H 276.405 -1.305 -2.70018 0
M  V30 2882 H 273.958 -0.713707 -1.39054 0
M  V30 2883 H 274.693 1.25033 -2.99228 0
M  V30 2884 H 274.478 -0.267204 -3.91188 0
M  V30 2885 H 275.968 0.701567 -4.11665 0
M  V30 2886 N 276.405 1.4127 -0.698611 0
M  V30 2887 C 277.337 2.292 0.00399731 0
M  V30 2888 C 278.35 1.44944 0.741279 0
M  V30 2889 O 279.539 1.68416 0.591477 0
M  V30 2890 C 276.639 3.22875 1.02979 0
M  V30 2891 C 275.812 4.35904 0.36151 0
M  V30 2892 C 274.871 5.10134 1.29033 0
M  V30 2893 O 273.897 5.63809 0.781562 0
M  V30 2894 N 275.099 5.17885 2.6225 0
M  V30 2895 H 277.864 2.9014 -0.750921 0
M  V30 2896 H 275.425 1.52455 -0.544882 0
M  V30 2897 H 277.417 3.69404 1.65296 0
M  V30 2898 H 275.987 2.63221 1.68622 0
M  V30 2899 H 275.207 3.91719 -0.441584 0
M  V30 2900 H 276.495 5.08696 -0.103055 0
M  V30 2901 H 275.893 4.7573 3.061 0
M  V30 2902 H 274.45 5.6798 3.19754 0
M  V30 2903 N 277.883 0.443576 1.51229 0
M  V30 2904 C 279.13 -0.120796 2.02139 0
M  V30 2905 C 279.458 -1.42166 1.32736 0
M  V30 2906 O 278.713 -1.90849 0.43301 0
M  V30 2907 C 279.012 -0.380579 3.55368 0
M  V30 2908 C 278.678 0.83523 4.43097 0
M  V30 2909 C 277.34 1.16864 4.66794 0
M  V30 2910 C 279.692 1.64601 4.94526 0
M  V30 2911 C 277.02 2.31339 5.39165 0
M  V30 2912 C 279.372 2.78181 5.68153 0
M  V30 2913 C 278.036 3.11969 5.90112 0
M  V30 2914 H 277.306 -0.0442023 0.73968 0
M  V30 2915 H 279.953 0.592046 1.82118 0
M  V30 2916 H 278.258 -1.17538 3.73754 0
M  V30 2917 H 279.955 -0.830777 3.923 0
M  V30 2918 H 276.545 0.565437 4.24854 0
M  V30 2919 H 280.729 1.40163 4.76097 0
M  V30 2920 H 275.985 2.57823 5.5438 0
M  V30 2921 H 280.159 3.41371 6.06992 0
M  V30 2922 H 277.786 4.00784 6.45969 0
M  V30 2923 N 279.361 -1.56624 0.175154 0
M  V30 2924 C 280.294 -2.14 -0.792412 0
M  V30 2925 C 281.272 -1.07114 -1.22333 0
M  V30 2926 O 282.456 -1.35112 -1.31442 0
M  V30 2927 C 279.583 -2.68268 -2.0676 0
M  V30 2928 C 278.629 -3.87562 -1.7804 0
M  V30 2929 S 279.462 -5.27074 -0.946222 0
M  V30 2930 C 280.618 -5.8475 -2.23199 0
M  V30 2931 H 280.851 -2.95736 -0.304588 0
M  V30 2932 H 278.384 -1.54349 -0.0395705 0
M  V30 2933 H 280.342 -3.00182 -2.80002 0
M  V30 2934 H 279.003 -1.86612 -2.52656 0
M  V30 2935 H 278.196 -4.23874 -2.72666 0
M  V30 2936 H 277.798 -3.56555 -1.12891 0
M  V30 2937 H 280.09 -5.97898 -3.18629 0
M  V30 2938 H 281.033 -6.81756 -1.91349 0
M  V30 2939 H 281.441 -5.13198 -2.35134 0
M  V30 2940 N 280.839 0.0985539 -1.57292 0
M  V30 2941 C 282.116 0.834155 -1.76921 0
M  V30 2942 C 282.496 1.97101 -0.755928 0
M  V30 2943 O 281.844 2.27474 0.216245 0
M  V30 2944 C 282.054 1.33194 -3.22584 0
M  V30 2945 C 283.402 1.77611 -3.85668 0
M  V30 2946 O 284.426 1.42825 -3.26312 0
M  V30 2947 O 283.285 2.4192 -4.90038 0
M  V30 2948 H 280.379 0.397628 -0.725135 0
M  V30 2949 H 282.925 0.0807044 -1.69508 0
M  V30 2950 H 281.697 0.517248 -3.87866 0
M  V30 2951 H 281.32 2.1475 -3.34616 0
M  V30 2952 N 282.317 1.53212 0.369288 0
M  V30 2953 C 283.28 1.7872 1.43498 0
M  V30 2954 C 284.28 0.657554 1.46741 0
M  V30 2955 O 285.47 0.925736 1.47566 0
M  V30 2956 C 282.602 1.90591 2.82645 0
M  V30 2957 H 283.795 2.73894 1.22156 0
M  V30 2958 H 281.348 1.44233 0.602203 0
M  V30 2959 H 282.083 0.974709 3.09306 0
M  V30 2960 H 281.868 2.72751 2.8169 0
M  V30 2961 H 283.358 2.11931 3.59826 0
M  V30 2962 N 283.795 -0.628877 1.44509 0
M  V30 2963 C 284.705 -1.7694 1.54044 0
M  V30 2964 C 285.721 -1.68705 0.425987 0
M  V30 2965 O 286.897 -1.89442 0.683656 0
M  V30 2966 C 283.962 -3.13332 1.48405 0
M  V30 2967 C 283.023 -3.33181 2.70719 0
M  V30 2968 C 282.256 -4.63067 2.6534 0
M  V30 2969 O 282.479 -5.44017 1.71469 0
M  V30 2970 O 281.413 -4.85167 3.56226 0
M  V30 2971 H 285.239 -1.71848 2.50403 0
M  V30 2972 H 282.824 -0.790378 1.26781 0
M  V30 2973 H 284.706 -3.94634 1.47791 0
M  V30 2974 H 283.381 -3.1896 0.551898 0
M  V30 2975 H 282.288 -2.51549 2.769 0
M  V30 2976 H 283.621 -3.32416 3.62988 0
M  V30 2977 N 285.273 -1.31445 -0.869486 0
M  V30 2978 C 286.689 -1.10113 -1.15531 0
M  V30 2979 C 286.889 0.128087 -2.01092 0
M  V30 2980 O 285.945 0.817276 -2.38908 0
M  V30 2981 C 287.258 -2.37291 -1.84698 0
M  V30 2982 C 288.806 -2.42906 -1.97397 0
M  V30 2983 C 289.281 -3.69967 -2.69979 0
M  V30 2984 N 290.772 -3.70864 -2.77514 0
M  V30 2985 C 291.507 -4.65875 -3.34287 0
M  V30 2986 N 291.003 -5.71242 -3.91988 0
M  V30 2987 N 292.796 -4.53394 -3.3225 0
M  V30 2988 H 284.947 -2.1028 -0.299347 0
M  V30 2989 H 287.21 -0.927683 -0.195214 0
M  V30 2990 H 286.916 -3.27078 -1.29278 0
M  V30 2991 H 286.79 -2.47125 -2.84972 0
M  V30 2992 H 289.177 -1.53588 -2.51982 0
M  V30 2993 H 289.258 -2.37036 -0.961643 0
M  V30 2994 H 288.902 -4.59652 -2.16062 0
M  V30 2995 H 288.832 -3.73103 -3.7162 0
M  V30 2996 H 291.323 -2.94697 -2.36563 0
M  V30 2997 H 291.636 -6.39817 -4.33421 0
M  V30 2998 H 289.981 -5.75015 -3.90362 0
M  V30 2999 H 293.172 -3.70252 -2.8641 0
M  V30 3000 H 293.345 -5.27617 -3.76197 0
M  V30 3001 N 286.751 1.08385 -1.14413 0
M  V30 3002 C 287.976 1.85057 -0.936413 0
M  V30 3003 C 288.401 1.81055 0.509971 0
M  V30 3004 O 287.759 1.1958 1.36273 0
M  V30 3005 C 287.807 3.30505 -1.44217 0
M  V30 3006 O 286.911 4.07491 -0.634409 0
M  V30 3007 H 286.252 0.573425 -0.334784 0
M  V30 3008 H 288.782 1.36799 -1.52142 0
M  V30 3009 H 288.792 3.81348 -1.45043 0
M  V30 3010 H 287.467 3.32734 -2.49522 0
M  V30 3011 H 286.044 3.66368 -0.694902 0
M  V30 3012 N 288.23 0.939286 1.26551 0
M  V30 3013 C 289.18 0.418284 2.2413 0
M  V30 3014 C 290.164 -0.483935 1.5345 0
M  V30 3015 O 291.356 -0.319489 1.74093 0
M  V30 3016 C 288.485 -0.31709 3.41832 0
M  V30 3017 C 287.571 0.602311 4.19801 0
M  V30 3018 N 287.962 1.72726 4.75394 0
M  V30 3019 C 286.26 0.407534 4.44134 0
M  V30 3020 C 286.961 2.30004 5.34297 0
M  V30 3021 N 285.937 1.58828 5.1988 0
M  V30 3022 H 289.739 1.27705 2.64705 0
M  V30 3023 H 287.253 0.794929 1.41614 0
M  V30 3024 H 289.25 -0.707364 4.10855 0
M  V30 3025 H 287.91 -1.17264 3.02786 0
M  V30 3026 H 288.921 2.10944 4.72994 0
M  V30 3027 H 285.598 -0.406406 4.15517 0
M  V30 3028 H 286.988 3.24778 5.88191 0
M  V30 3029 O 289.747 -1.37657 0.844552 0
M  V30 3030 H 290.438 -1.88761 0.43461 0
M  V30 END ATOM
M  V30 BEGIN BOND
M  V30 END BOND
M  V30 END CTAB
M  END
$$$$
