drugbank_target|Q8KN66 WbpP (DB01861; DB02196)
 OpenBabel12092120233D

  0  0  0     0  0            999 V3000
M  V30 BEGIN CTAB
M  V30 COUNTS 5270 5328 0 0 0
M  V30 BEGIN ATOM
M  V30 1 H -0.908 1.98254 -0.117106 0
M  V30 2 N 0 1.576 0 0
M  V30 3 C 0.933 2.03868 1.02534 0
M  V30 4 C 1.911 0.928543 1.3348 0
M  V30 5 O 3.095 1.19667 1.45644 0
M  V30 6 C 0.222 2.43627 2.35294 0
M  V30 7 C -0.732 3.65373 2.2001 0
M  V30 8 S 0.101 5.13292 1.52614 0
M  V30 9 C 1.257 5.56322 2.86805 0
M  V30 10 H 1.49 2.90518 0.631377 0
M  V30 11 H -0.977 1.52953 0.210867 0
M  V30 12 H 0.981 2.67203 3.11629 0
M  V30 13 H -0.358 1.57376 2.7183 0
M  V30 14 H -1.165 3.90944 3.18086 0
M  V30 15 H -1.563 3.418 1.51819 0
M  V30 16 H 0.729 5.58782 3.83104 0
M  V30 17 H 1.672 6.56266 2.65933 0
M  V30 18 H 2.08 4.83886 2.90714 0
M  V30 19 N 1.4781 -0.272755 1.55222 0
M  V30 20 C 2.4111 -1.3627 1.83046 0
M  V30 21 C 3.3891 -1.47536 0.683521 0
M  V30 22 O 4.5731 -1.64157 0.926545 0
M  V30 23 C 1.7001 -2.73908 1.99229 0
M  V30 24 C 0.7461 -2.79925 3.21783 0
M  V30 25 S 1.5791 -2.39146 4.79134 0
M  V30 26 C 2.7351 -3.78758 4.9829 0
M  V30 27 H 2.9681 -1.12464 2.75207 0
M  V30 28 H 0.5011 -0.472398 1.46996 0
M  V30 29 H 2.4591 -3.53171 2.09238 0
M  V30 30 H 1.1201 -2.94965 1.07956 0
M  V30 31 H 0.3131 -3.80946 3.29994 0
M  V30 32 H -0.0849 -2.08683 3.10367 0
M  V30 33 H 2.2071 -4.7403 4.84047 0
M  V30 34 H 3.1501 -3.75499 6.00338 0
M  V30 35 H 3.5581 -3.70072 4.26271 0
M  V30 36 N 2.9562 -1.48159 -0.537278 0
M  V30 37 C 4.1812 -1.59707 -1.32319 0
M  V30 38 C 4.6062 -0.254859 -1.86365 0
M  V30 39 O 3.9642 0.772378 -1.64024 0
M  V30 40 C 4.0122 -2.6412 -2.45505 0
M  V30 41 O 3.1162 -2.20774 -3.48328 0
M  V30 42 H 2.4572 -0.535791 -0.392204 0
M  V30 43 H 4.9872 -1.94092 -0.647268 0
M  V30 44 H 4.9972 -2.85166 -2.91795 0
M  V30 45 H 3.6722 -3.61567 -2.05528 0
M  V30 46 H 2.2492 -2.09911 -3.08207 0
M  V30 47 N 4.4343 0.785586 -1.36625 0
M  V30 48 C 5.8503 1.08419 -1.17122 0
M  V30 49 C 6.0503 2.015 0.00208491 0
M  V30 50 O 5.1063 2.43551 0.666278 0
M  V30 51 C 6.4193 1.69498 -2.48377 0
M  V30 52 C 7.9673 1.81821 -2.54775 0
M  V30 53 C 8.4423 2.46315 -3.86126 0
M  V30 54 N 9.9333 2.53779 -3.87492 0
M  V30 55 C 10.6683 3.045 -4.85868 0
M  V30 56 N 10.1643 3.55499 -5.94637 0
M  V30 57 N 11.9573 3.03247 -4.73284 0
M  V30 58 H 4.1083 0.167264 -2.1174 0
M  V30 59 H 6.3713 0.13682 -0.938075 0
M  V30 60 H 6.0773 1.08571 -3.34522 0
M  V30 61 H 5.9513 2.6896 -2.64462 0
M  V30 62 H 8.3383 2.41884 -1.69045 0
M  V30 63 H 8.4193 0.811532 -2.42586 0
M  V30 64 H 8.0633 1.86895 -4.72263 0
M  V30 65 H 7.9933 3.47561 -3.95612 0
M  V30 66 H 10.4843 2.17672 -3.08913 0
M  V30 67 H 10.7973 3.92562 -6.65669 0
M  V30 68 H 9.1423 3.5364 -5.98301 0
M  V30 69 H 12.3333 2.62696 -3.87438 0
M  V30 70 H 12.5063 3.42467 -5.50109 0
M  V30 71 N 5.9124 1.20967 1.01018 0
M  V30 72 C 7.1424 1.04803 1.78044 0
M  V30 73 C 7.5504 -0.405462 1.84804 0
M  V30 74 O 6.8934 -1.2932 1.30468 0
M  V30 75 C 6.9554 1.56377 3.23707 0
M  V30 76 C 6.6194 3.04767 3.40538 0
M  V30 77 C 7.6164 4.02366 3.29239 0
M  V30 78 C 5.3014 3.43862 3.66147 0
M  V30 79 C 7.2954 5.37049 3.43304 0
M  V30 80 C 4.9824 4.78699 3.79855 0
M  V30 81 C 5.9804 5.75101 3.68439 0
M  V30 82 O 5.6684 7.07493 3.81719 0
M  V30 83 H 5.4004 0.368778 0.56655 0
M  V30 84 H 7.9544 1.60642 1.27997 0
M  V30 85 H 6.1844 0.949297 3.74867 0
M  V30 86 H 7.8734 1.36136 3.8239 0
M  V30 87 H 8.6394 3.73506 3.09384 0
M  V30 88 H 4.5184 2.69364 3.74118 0
M  V30 89 H 8.0624 6.12277 3.34309 0
M  V30 90 H 3.9594 5.07247 3.99213 0
M  V30 91 H 4.7274 7.1483 3.98697 0
M  V30 92 N 7.3905 -1.2043 1.01659 0
M  V30 93 C 8.3005 -2.2689 0.596484 0
M  V30 94 C 9.3165 -1.70107 -0.36599 0
M  V30 95 O 10.4925 -2.00117 -0.226942 0
M  V30 96 C 7.5575 -3.4665 -0.0586659 0
M  V30 97 C 6.6185 -4.18662 0.949751 0
M  V30 98 C 5.8515 -5.32705 0.32577 0
M  V30 99 O 6.0745 -5.63656 -0.874509 0
M  V30 100 O 5.0085 -5.92803 1.04249 0
M  V30 101 H 8.8345 -2.65041 1.4828 0
M  V30 102 H 6.4195 -1.27048 0.786082 0
M  V30 103 H 8.3015 -4.19256 -0.424564 0
M  V30 104 H 6.9765 -3.10375 -0.91918 0
M  V30 105 H 5.8835 -3.48229 1.36702 0
M  V30 106 H 7.2165 -4.58878 1.78023 0
M  V30 107 N 8.8686 -0.792821 -1.36206 0
M  V30 108 C 9.7786 -0.194808 -2.3379 0
M  V30 109 C 10.7946 0.654869 -1.61206 0
M  V30 110 O 11.9706 0.569856 -1.9317 0
M  V30 111 C 9.0356 0.657721 -3.40404 0
M  V30 112 C 8.0966 -0.210849 -4.28782 0
M  V30 113 C 7.3296 0.601086 -5.30304 0
M  V30 114 O 7.5526 1.83682 -5.40016 0
M  V30 115 O 6.4866 -0.000808277 -6.019 0
M  V30 116 H 10.3126 -1.00172 -2.86704 0
M  V30 117 H 7.8976 -0.554341 -1.38735 0
M  V30 118 H 9.7796 1.14375 -4.05581 0
M  V30 119 H 8.4546 1.44247 -2.89784 0
M  V30 120 H 7.3616 -0.743714 -3.66633 0
M  V30 121 H 8.6946 -0.959195 -4.82763 0
M  V30 122 N 10.3467 1.47872 -0.545128 0
M  V30 123 C 11.2767 2.32661 0.197793 0
M  V30 124 C 12.2577 1.43041 0.920504 0
M  V30 125 O 13.4427 1.71912 0.90333 0
M  V30 126 C 10.5727 3.24569 1.23582 0
M  V30 127 C 9.5267 4.23333 0.630323 0
M  V30 128 C 8.8527 5.0448 1.77211 0
M  V30 129 C 10.1527 5.20704 -0.407974 0
M  V30 130 H 11.8467 2.95024 -0.510045 0
M  V30 131 H 9.3927 1.4187 -0.246731 0
M  V30 132 H 11.3457 3.8272 1.76362 0
M  V30 133 H 10.0697 2.60236 1.97344 0
M  V30 134 H 8.7287 3.6639 0.123922 0
M  V30 135 H 8.3767 4.36561 2.49847 0
M  V30 136 H 8.0767 5.71339 1.37281 0
M  V30 137 H 9.6007 5.65487 2.3034 0
M  V30 138 H 11.0147 5.7329 0.033305 0
M  V30 139 H 9.4117 5.95699 -0.725486 0
M  V30 140 H 10.4817 4.66917 -1.30828 0
M  V30 141 N 11.8248 0.280983 1.55075 0
M  V30 142 C 13.2408 -0.0729964 1.59433 0
M  V30 143 C 13.4408 -1.5411 1.29817 0
M  V30 144 O 12.4968 -2.29086 1.06187 0
M  V30 145 C 13.8098 0.306921 2.9913 0
M  V30 146 C 15.3578 0.254023 3.11968 0
M  V30 147 C 15.8328 0.608467 4.5394 0
M  V30 148 N 17.3238 0.560241 4.59799 0
M  V30 149 C 18.0588 0.80722 5.6769 0
M  V30 150 N 17.5548 1.11912 6.83701 0
M  V30 151 N 19.3478 0.735623 5.57266 0
M  V30 152 H 11.4988 1.238 1.7259 0
M  V30 153 H 13.7618 0.500547 0.805082 0
M  V30 154 H 13.4678 1.32816 3.25657 0
M  V30 155 H 13.3418 -0.349363 3.75579 0
M  V30 156 H 15.7288 -0.75794 2.852 0
M  V30 157 H 15.8098 0.944649 2.37718 0
M  V30 158 H 15.4538 1.61814 4.81434 0
M  V30 159 H 15.3838 -0.104013 5.26497 0
M  V30 160 H 17.8748 0.329288 3.76463 0
M  V30 161 H 18.1878 1.29409 7.61888 0
M  V30 162 H 16.5328 1.15695 6.85303 0
M  V30 163 H 19.7238 0.491752 4.6551 0
M  V30 164 H 19.8968 0.931482 6.4127 0
M  V30 165 N 13.3029 -1.57598 0.00835791 0
M  V30 166 C 14.2499 -2.08945 -0.980346 0
M  V30 167 C 15.2199 -0.986738 -1.33614 0
M  V30 168 O 16.4049 -1.25968 -1.43306 0
M  V30 169 C 13.5449 -2.60425 -2.26435 0
M  V30 170 C 12.6579 -3.84628 -1.96685 0
M  V30 171 C 11.7929 -4.24579 -3.19228 0
M  V30 172 C 10.8319 -5.41596 -2.85202 0
M  V30 173 N 9.9689 -5.768 -4.00307 0
M  V30 174 H 14.8089 -2.93148 -0.535551 0
M  V30 175 H 12.3459 -1.44912 -0.252776 0
M  V30 176 H 14.3039 -2.88354 -3.01509 0
M  V30 177 H 12.9339 -1.79083 -2.68568 0
M  V30 178 H 11.9859 -3.63556 -1.11942 0
M  V30 179 H 13.2979 -4.69796 -1.67611 0
M  V30 180 H 12.4519 -4.53834 -4.02641 0
M  V30 181 H 11.1909 -3.38137 -3.51447 0
M  V30 182 H 10.1959 -5.12056 -2.00198 0
M  V30 183 H 11.4209 -6.29721 -2.54222 0
M  V30 184 H 9.3669 -4.93316 -4.32407 0
M  V30 185 H 9.2839 -6.5656 -3.74786 0
M  V30 186 H 10.5519 -6.10652 -4.84484 0
M  V30 187 N 14.781 0.264519 -1.55364 0
M  V30 188 C 15.691 1.34902 -1.91934 0
M  V30 189 C 16.707 1.53595 -0.817593 0
M  V30 190 O 17.883 1.67558 -1.11742 0
M  V30 191 C 14.948 2.68676 -2.19121 0
M  V30 192 C 14.009 2.58657 -3.4263 0
M  V30 193 C 13.242 3.86051 -3.68511 0
M  V30 194 O 13.465 4.87126 -2.96757 0
M  V30 195 O 12.399 3.85744 -4.62045 0
M  V30 196 H 16.225 1.06883 -2.8427 0
M  V30 197 H 13.81 0.463775 -1.42019 0
M  V30 198 H 15.692 3.47759 -2.37995 0
M  V30 199 H 14.367 2.96463 -1.29966 0
M  V30 200 H 13.274 1.7792 -3.29082 0
M  V30 201 H 14.607 2.35818 -4.32031 0
M  V30 202 N 16.2591 1.48442 0.529413 0
M  V30 203 C 17.1891 1.65902 1.64313 0
M  V30 204 C 18.1701 0.507897 1.6234 0
M  V30 205 O 19.3551 0.740503 1.79528 0
M  V30 206 C 16.4851 1.69911 3.02898 0
M  V30 207 C 15.4391 2.8453 3.19729 0
M  V30 208 C 14.7651 2.73629 4.59381 0
M  V30 209 C 16.0651 4.25821 3.02447 0
M  V30 210 H 17.7591 2.5914 1.49955 0
M  V30 211 H 15.3051 1.24709 0.719982 0
M  V30 212 H 17.2581 1.80715 3.80684 0
M  V30 213 H 15.9821 0.732524 3.18279 0
M  V30 214 H 14.6411 2.73283 2.44361 0
M  V30 215 H 14.2891 1.74938 4.71599 0
M  V30 216 H 13.9891 3.50541 4.71588 0
M  V30 217 H 15.5131 2.86401 5.39265 0
M  V30 218 H 16.9271 4.37898 3.70024 0
M  V30 219 H 15.3241 5.03735 3.26146 0
M  V30 220 H 16.3941 4.42244 1.98867 0
M  V30 221 N 17.7372 -0.778329 1.37039 0
M  V30 222 C 19.1482 -1.35421 1.28523 0
M  V30 223 C 19.4992 -1.96075 -0.0700901 0
M  V30 224 O 18.6242 -1.93352 -0.971801 0
M  V30 225 C 19.2192 -2.46211 2.32735 0
M  V30 226 C 17.7782 -2.99585 2.27873 0
M  V30 227 C 16.9252 -1.72748 2.16918 0
M  V30 228 H 19.8762 -0.5791 1.47757 0
M  V30 229 H 19.8972 -3.2552 1.9702 0
M  V30 230 H 19.4092 -2.02036 3.31365 0
M  V30 231 H 17.5102 -3.48152 1.32745 0
M  V30 232 H 17.6232 -3.55646 3.21018 0
M  V30 233 H 15.9872 -1.95416 1.63354 0
M  V30 234 H 16.7702 -1.30686 3.17452 0
M  V30 235 N 19.2153 -1.21501 -1.00376 0
M  V30 236 C 20.1783 -0.976927 -2.07337 0
M  V30 237 C 21.1783 0.0525322 -1.60714 0
M  V30 238 O 22.3683 -0.184869 -1.73216 0
M  V30 239 C 19.5003 -0.473423 -3.37597 0
M  V30 240 H 20.6933 -1.92587 -2.29892 0
M  V30 241 H 18.2463 -1.03217 -1.17371 0
M  V30 242 H 18.9813 0.480379 -3.20722 0
M  V30 243 H 18.7663 -1.216 -3.72768 0
M  V30 244 H 20.2563 -0.32675 -4.1632 0
M  V30 245 N 20.6934 1.19889 -1.02296 0
M  V30 246 C 21.6254 2.22334 -0.556787 0
M  V30 247 C 22.6384 1.58674 0.364199 0
M  V30 248 O 23.8274 1.77768 0.161533 0
M  V30 249 C 20.9274 3.38257 0.208694 0
M  V30 250 C 20.1004 4.31504 -0.71577 0
M  V30 251 C 19.1594 5.262 0.00325597 0
M  V30 252 O 18.1854 5.65798 -0.621357 0
M  V30 253 N 19.3874 5.66303 1.27599 0
M  V30 254 H 22.1524 2.62957 -1.43784 0
M  V30 255 H 19.7134 1.34495 -0.901261 0
M  V30 256 H 21.7054 3.98616 0.699111 0
M  V30 257 H 20.2754 2.96472 0.991102 0
M  V30 258 H 19.4954 3.69016 -1.38638 0
M  V30 259 H 20.7834 4.9072 -1.34428 0
M  V30 260 H 20.1814 5.36155 1.80429 0
M  V30 261 H 18.7384 6.28942 1.71102 0
M  V30 262 N 22.1715 0.800033 1.35784 0
M  V30 263 C 23.5825 0.439142 1.81462 0
M  V30 264 C 23.9335 -1.03813 1.66485 0
M  V30 265 O 23.0585 -1.80626 1.19177 0
M  V30 266 C 23.6535 0.790314 3.29453 0
M  V30 267 C 22.2125 0.482111 3.733 0
M  V30 268 C 21.3595 1.01938 2.57883 0
M  V30 269 H 24.3105 0.992254 1.23855 0
M  V30 270 H 24.3315 0.0853677 3.80404 0
M  V30 271 H 23.8435 1.86554 3.40322 0
M  V30 272 H 21.9445 -0.584652 3.67984 0
M  V30 273 H 22.0575 1.01015 4.6833 0
M  V30 274 H 20.4215 0.442043 2.50835 0
M  V30 275 H 21.2045 2.10059 2.71533 0
M  V30 276 N 23.6496 -1.47581 0.552962 0
M  V30 277 C 24.5966 -2.29957 -0.197108 0
M  V30 278 C 25.5666 -1.38799 -0.912359 0
M  V30 279 O 26.7516 -1.67761 -0.908888 0
M  V30 280 C 23.8916 -3.22672 -1.22379 0
M  V30 281 C 23.0046 -4.28919 -0.515038 0
M  V30 282 C 22.1396 -5.0879 -1.52664 0
M  V30 283 C 21.1786 -6.06815 -0.802631 0
M  V30 284 N 20.3156 -6.7966 -1.76086 0
M  V30 285 H 25.1556 -2.93578 0.511486 0
M  V30 286 H 22.6926 -1.4471 0.264067 0
M  V30 287 H 24.6506 -3.74845 -1.83159 0
M  V30 288 H 23.2806 -2.60925 -1.90047 0
M  V30 289 H 22.3326 -3.79835 0.207192 0
M  V30 290 H 23.6446 -4.98773 0.0523425 0
M  V30 291 H 22.7986 -5.65091 -2.20809 0
M  V30 292 H 21.5376 -4.38828 -2.12794 0
M  V30 293 H 20.5426 -5.49695 -0.107238 0
M  V30 294 H 21.7676 -6.78784 -0.207135 0
M  V30 295 H 19.7136 -6.12432 -2.35081 0
M  V30 296 H 19.6306 -7.45669 -1.24552 0
M  V30 297 H 20.8986 -7.40538 -2.43359 0
M  V30 298 N 25.1277 -0.289203 -1.54924 0
M  V30 299 C 26.3737 0.323998 -2.00195 0
M  V30 300 C 26.7067 1.54441 -1.17735 0
M  V30 301 O 25.9817 1.92875 -0.250878 0
M  V30 302 C 26.2647 0.692276 -3.53383 0
M  V30 303 C 26.1177 -0.536457 -4.46589 0
M  V30 304 C 27.4367 1.52335 -4.12895 0
M  V30 305 H 24.5557 0.116289 -0.727768 0
M  V30 306 H 27.1977 -0.398954 -1.85764 0
M  V30 307 H 25.3477 1.30822 -3.65811 0
M  V30 308 H 27.0197 -1.17499 -4.46085 0
M  V30 309 H 25.2627 -1.17192 -4.1767 0
M  V30 310 H 25.9337 -0.234806 -5.515 0
M  V30 311 H 28.4097 1.00302 -4.0383 0
M  V30 312 H 27.2857 1.74982 -5.20262 0
M  V30 313 H 27.5467 2.50886 -3.64018 0
M  V30 314 N 26.6058 1.57591 -0.0167156 0
M  V30 315 C 27.8518 1.92399 0.659861 0
M  V30 316 C 28.2068 0.892561 1.70444 0
M  V30 317 O 27.4998 -0.0930755 1.91374 0
M  V30 318 C 27.6938 3.3172 1.33029 0
M  V30 319 C 27.5228 4.48319 0.352174 0
M  V30 320 C 26.2928 5.05281 -0.0434883 0
M  V30 321 C 28.4908 5.12831 -0.388474 0
M  V30 322 N 26.4728 6.05399 -1.01807 0
M  V30 323 C 27.8438 6.07934 -1.2172 0
M  V30 324 C 29.8988 4.95858 -0.450513 0
M  V30 325 C 28.6018 6.87891 -2.10235 0
M  V30 326 C 30.6278 5.76413 -1.32295 0
M  V30 327 C 29.9898 6.71123 -2.13948 0
M  V30 328 H 26.0888 0.752106 0.21415 0
M  V30 329 H 28.6728 1.94532 -0.0809846 0
M  V30 330 H 26.8438 3.3043 2.04134 0
M  V30 331 H 28.5758 3.5391 1.9629 0
M  V30 332 H 25.3308 4.7246 0.328384 0
M  V30 333 H 25.7548 6.60145 -1.50123 0
M  V30 334 H 30.3968 4.22472 0.166512 0
M  V30 335 H 28.1148 7.60591 -2.72997 0
M  V30 336 H 31.7008 5.65317 -1.37508 0
M  V30 337 H 30.5808 7.3237 -2.80364 0
M  V30 338 N 28.0839 -0.256276 1.55502 0
M  V30 339 C 29.0139 -1.32102 1.92539 0
M  V30 340 C 29.9949 -1.50684 0.789194 0
M  V30 341 O 31.1799 -1.63449 1.04872 0
M  V30 342 C 28.3099 -2.67752 2.21192 0
M  V30 343 C 27.2639 -2.63878 3.36975 0
M  V30 344 C 26.5899 -4.03236 3.51147 0
M  V30 345 C 27.8899 -2.21682 4.72921 0
M  V30 346 H 29.5839 -1.01351 2.81724 0
M  V30 347 H 27.1299 -0.486105 1.35547 0
M  V30 348 H 29.0829 -3.42365 2.45691 0
M  V30 349 H 27.8069 -3.0012 1.28824 0
M  V30 350 H 26.4659 -1.91722 3.12471 0
M  V30 351 H 26.1139 -4.32854 2.56216 0
M  V30 352 H 25.8139 -4.01535 4.29003 0
M  V30 353 H 27.3379 -4.79563 3.77957 0
M  V30 354 H 28.7519 -2.86023 4.96854 0
M  V30 355 H 27.1489 -2.3111 5.53812 0
M  V30 356 H 28.2189 -1.16833 4.70615 0
M  V30 357 N 29.562 -1.4872 -0.521534 0
M  V30 358 C 30.811 -1.56419 -1.27341 0
M  V30 359 C 31.124 -0.246805 -1.94037 0
M  V30 360 O 32.33 -0.202122 -2.70747 0
M  V30 361 C 30.786 -2.75896 -2.31105 0
M  V30 362 C 30.394 -4.14311 -1.70441 0
M  V30 363 C 32.138 -2.92913 -3.07249 0
M  V30 364 C 30.045 -5.25038 -2.72194 0
M  V30 365 H 28.975 -0.582344 -0.478949 0
M  V30 366 H 31.626 -1.75071 -0.549779 0
M  V30 367 H 30.008 -2.50697 -3.06541 0
M  V30 368 H 31.182 -4.49564 -1.01136 0
M  V30 369 H 29.497 -4.02482 -1.06759 0
M  V30 370 H 32.094 -3.72805 -3.83302 0
M  V30 371 H 32.437 -2.02689 -3.63625 0
M  V30 372 H 32.97 -3.18054 -2.38928 0
M  V30 373 H 29.709 -6.17255 -2.20627 0
M  V30 374 H 29.229 -4.94263 -3.39801 0
M  V30 375 H 30.908 -5.53508 -3.35019 0
M  V30 376 N 31.0401 0.771051 -1.3745 0
M  V30 377 C 32.2681 1.56015 -1.35893 0
M  V30 378 C 32.6831 1.88718 0.0555523 0
M  V30 379 O 32.0401 1.51502 1.01752 0
M  V30 380 C 32.0911 2.87001 -2.19801 0
M  V30 381 O 31.8121 2.557 -3.55738 0
M  V30 382 C 33.3131 3.81228 -2.26231 0
M  V30 383 H 30.5331 0.483317 -0.465453 0
M  V30 384 H 33.0771 0.955611 -1.80799 0
M  V30 385 H 31.2321 3.43877 -1.78402 0
M  V30 386 H 31.6461 3.39584 -3.99729 0
M  V30 387 H 33.1201 4.70139 -2.89263 0
M  V30 388 H 33.5971 4.20409 -1.27093 0
M  V30 389 H 34.2031 3.30281 -2.67945 0
M  V30 390 N 32.5182 1.22032 0.997298 0
M  V30 391 C 33.7662 1.04016 1.73278 0
M  V30 392 C 34.0872 -0.426255 1.90284 0
M  V30 393 O 33.3572 -1.30694 1.45931 0
M  V30 394 H 31.9372 0.381897 0.642 0
M  V30 395 H 34.5992 1.5347 1.20137 0
M  V30 396 H 33.6952 1.51441 2.72896 0
M  V30 397 N 33.9963 -1.19345 1.0293 0
M  V30 398 C 35.2423 -1.89318 0.727083 0
M  V30 399 C 35.5753 -1.79446 -0.742483 0
M  V30 400 O 34.8503 -1.1871 -1.54072 0
M  V30 401 C 35.1333 -3.40238 1.17942 0
M  V30 402 C 34.9863 -3.58979 2.71024 0
M  V30 403 C 36.3053 -4.33479 0.760548 0
M  V30 404 H 33.4243 -0.687475 0.265606 0
M  V30 405 H 36.0663 -1.40477 1.2793 0
M  V30 406 H 34.2163 -3.81964 0.709608 0
M  V30 407 H 35.8883 -3.26421 3.25955 0
M  V30 408 H 34.1313 -3.02018 3.11396 0
M  V30 409 H 34.8023 -4.64823 2.9773 0
M  V30 410 H 37.2783 -3.99469 1.16464 0
M  V30 411 H 36.1543 -5.37664 1.10493 0
M  V30 412 H 36.4153 -4.40813 -0.337063 0
M  V30 413 N 35.4744 -0.807222 -1.35358 0
M  V30 414 C 36.4374 -0.223665 -2.28106 0
M  V30 415 C 37.4374 0.589354 -1.4961 0
M  V30 416 O 38.6274 0.407745 -1.69361 0
M  V30 417 C 35.7594 0.688149 -3.33882 0
M  V30 418 H 36.9524 -1.04169 -2.81227 0
M  V30 419 H 34.5054 -0.577921 -1.45223 0
M  V30 420 H 35.2404 1.52984 -2.85948 0
M  V30 421 H 35.0254 0.10687 -3.91954 0
M  V30 422 H 36.5154 1.09075 -4.03104 0
M  V30 423 N 36.9525 1.47285 -0.560781 0
M  V30 424 C 38.2005 2.02064 -0.0379868 0
M  V30 425 C 38.5215 1.43711 1.31803 0
M  V30 426 O 37.7915 0.61362 1.86042 0
M  V30 427 H 36.3715 0.746918 -0.0110531 0
M  V30 428 H 39.0335 1.80648 -0.731598 0
M  V30 429 H 38.1295 3.12064 0.0474463 0
M  V30 430 N 38.4306 0.297415 1.54768 0
M  V30 431 C 39.6776 -0.312913 2.00068 0
M  V30 432 C 40.0056 -1.54171 1.18582 0
M  V30 433 O 39.2606 -1.94108 0.249133 0
M  V30 434 C 39.5596 -0.717561 3.50123 0
M  V30 435 C 39.2256 0.409095 4.4904 0
M  V30 436 C 37.8876 0.718399 4.75807 0
M  V30 437 C 40.2396 1.16717 5.07963 0
M  V30 438 C 37.5676 1.78896 5.5876 0
M  V30 439 C 39.9196 2.22762 5.92081 0
M  V30 440 C 38.5836 2.54303 6.1716 0
M  V30 441 H 37.8536 -0.114503 0.7321 0
M  V30 442 H 40.5006 0.415767 1.86932 0
M  V30 443 H 38.8056 -1.52627 3.60849 0
M  V30 444 H 40.5026 -1.20091 3.82595 0
M  V30 445 H 37.0926 0.157918 4.28309 0
M  V30 446 H 41.2766 0.941466 4.87289 0
M  V30 447 H 36.5326 2.0381 5.7643 0
M  V30 448 H 40.7066 2.81962 6.36765 0
M  V30 449 H 38.3336 3.3739 6.81229 0
M  V30 450 N 39.9087 -1.5758 0.0250728 0
M  V30 451 C 41.1577 -1.90811 -0.653767 0
M  V30 452 C 41.4707 -0.90273 -1.73523 0
M  V30 453 O 42.6767 -1.12614 -2.47043 0
M  V30 454 C 41.1327 -3.38804 -1.21409 0
M  V30 455 C 40.7407 -4.47692 -0.166126 0
M  V30 456 C 42.4847 -3.81108 -1.86967 0
M  V30 457 C 40.3917 -5.86779 -0.737856 0
M  V30 458 H 39.3217 -0.712063 -0.247956 0
M  V30 459 H 41.9727 -1.83281 0.0897137 0
M  V30 460 H 40.3547 -3.41252 -2.00905 0
M  V30 461 H 41.5287 -4.56797 0.606079 0
M  V30 462 H 39.8437 -4.14565 0.390466 0
M  V30 463 H 42.4407 -4.82375 -2.30692 0
M  V30 464 H 42.7837 -3.15953 -2.71071 0
M  V30 465 H 43.3167 -3.81065 -1.14167 0
M  V30 466 H 40.0557 -6.55468 0.0649577 0
M  V30 467 H 39.5757 -5.81288 -1.47864 0
M  V30 468 H 41.2547 -6.35223 -1.22884 0
M  V30 469 N 41.3868 0.248026 -1.55636 0
M  V30 470 C 42.6348 0.974295 -1.77065 0
M  V30 471 C 42.9558 1.85897 -0.588849 0
M  V30 472 O 42.2258 1.91868 0.395407 0
M  V30 473 H 40.8058 0.362733 -0.653019 0
M  V30 474 H 43.4678 0.266244 -1.93073 0
M  V30 475 H 42.5638 1.59667 -2.68166 0
M  V30 476 N 42.8649 1.48995 0.513639 0
M  V30 477 C 44.0899 1.61792 1.29762 0
M  V30 478 C 44.5149 0.284475 1.85936 0
M  V30 479 O 43.8729 -0.746185 1.65232 0
M  V30 480 C 43.9209 2.67993 2.41272 0
M  V30 481 O 43.0249 2.26287 3.44772 0
M  V30 482 H 42.3659 0.541963 0.38363 0
M  V30 483 H 44.8959 1.95097 0.616307 0
M  V30 484 H 44.9059 2.89772 2.87221 0
M  V30 485 H 43.5809 3.64791 1.9975 0
M  V30 486 H 42.1579 2.14788 3.04829 0
M  V30 487 N 44.343 -0.763751 1.37857 0
M  V30 488 C 45.291 -1.89864 1.34367 0
M  V30 489 C 46.285 -1.67816 0.231143 0
M  V30 490 O 47.491 -1.75508 0.399617 0
M  V30 491 H 43.866 -0.624501 0.41893 0
M  V30 492 H 45.837 -1.89925 2.30155 0
M  V30 493 C 44.586 -3.27227 1.1755 0
M  V30 494 H 43.909 -3.44773 2.02414 0
M  V30 495 H 45.349 -4.06911 1.1916 0
M  V30 496 C 43.808 -3.36692 -0.118311 0
M  V30 497 O 44.338 -3.86374 -1.09902 0
M  V30 498 N 42.544 -2.90092 -0.171717 0
M  V30 499 H 42.091 -2.49853 0.627012 0
M  V30 500 H 42.049 -2.96806 -1.03699 0
M  V30 501 N 45.8211 -1.22559 -0.990812 0
M  V30 502 C 46.7511 -1.0218 -2.09956 0
M  V30 503 C 47.7321 0.0579394 -1.70001 0
M  V30 504 O 48.9171 -0.104684 -1.93918 0
M  V30 505 C 46.0471 -0.601023 -3.4206 0
M  V30 506 C 45.0011 -1.62694 -3.95872 0
M  V30 507 C 44.3271 -1.06193 -5.24049 0
M  V30 508 C 45.6271 -3.01743 -4.2632 0
M  V30 509 H 47.3211 -1.94916 -2.27262 0
M  V30 510 H 44.8671 -0.938566 -1.09211 0
M  V30 511 H 46.8201 -0.445561 -4.19038 0
M  V30 512 H 45.5441 0.362005 -3.24588 0
M  V30 513 H 44.2031 -1.77021 -3.21028 0
M  V30 514 H 43.8511 -0.0901903 -5.02919 0
M  V30 515 H 43.5511 -1.74732 -5.61019 0
M  V30 516 H 45.0751 -0.918092 -6.03658 0
M  V30 517 H 46.4891 -2.90777 -4.94087 0
M  V30 518 H 44.8861 -3.67425 -4.74467 0
M  V30 519 H 45.9561 -3.51518 -3.34011 0
M  V30 520 N 47.2992 1.18797 -1.03562 0
M  V30 521 C 48.2292 2.24472 -0.643019 0
M  V30 522 C 49.2102 1.66433 0.351283 0
M  V30 523 O 50.3952 1.92803 0.232505 0
M  V30 524 C 47.5252 3.473 4.24935e-05 0
M  V30 525 C 46.4792 4.18055 -0.917257 0
M  V30 526 C 45.8052 5.34519 -0.138941 0
M  V30 527 C 47.1052 4.72109 -2.23407 0
M  V30 528 H 48.7992 2.57566 -1.52643 0
M  V30 529 H 46.3452 1.23806 -0.735394 0
M  V30 530 H 48.2982 4.20426 0.286383 0
M  V30 531 H 47.0222 3.13424 0.918299 0
M  V30 532 H 45.6812 3.46821 -1.1879 0
M  V30 533 H 45.3292 4.96891 0.781562 0
M  V30 534 H 45.0292 5.82794 -0.750005 0
M  V30 535 H 46.5532 6.10438 0.1405 0
M  V30 536 H 47.9672 5.36955 -2.00879 0
M  V30 537 H 46.3642 5.30897 -2.79765 0
M  V30 538 H 47.4342 3.89807 -2.88407 0
M  V30 539 N 48.7773 0.814389 1.34928 0
M  V30 540 C 49.6873 0.231978 2.3345 0
M  V30 541 C 50.7033 -0.629139 1.62228 0
M  V30 542 O 51.8793 -0.539052 1.94052 0
M  V30 543 C 48.9443 -0.603482 3.41407 0
M  V30 544 C 48.0053 0.279037 4.28392 0
M  V30 545 C 47.2383 -0.516643 5.31193 0
M  V30 546 O 47.4613 -1.75068 5.4287 0
M  V30 547 O 46.3953 0.0965652 6.01823 0
M  V30 548 H 50.2213 1.04721 2.85074 0
M  V30 549 H 47.8063 0.576343 1.37836 0
M  V30 550 H 49.6883 -1.07908 4.0735 0
M  V30 551 H 48.3633 -1.39618 2.92042 0
M  V30 552 H 47.2703 0.801948 3.65403 0
M  V30 553 H 48.6033 1.03588 4.81176 0
M  V30 554 N 50.2554 -1.46986 0.568584 0
M  V30 555 C 51.4834 -2.0683 0.0539956 0
M  V30 556 C 51.8984 -1.41953 -1.24478 0
M  V30 557 O 51.2554 -0.519933 -1.74937 0
M  V30 558 C 51.3064 -3.61254 -0.133362 0
M  V30 559 O 51.0274 -4.237 1.11399 0
M  V30 560 C 52.5284 -4.37992 -0.683927 0
M  V30 561 H 49.7484 -0.669058 0.0510141 0
M  V30 562 H 52.2924 -1.88824 0.785234 0
M  V30 563 H 50.4474 -3.78735 -0.81477 0
M  V30 564 H 50.8614 -5.16388 0.91888 0
M  V30 565 H 52.3354 -5.46684 -0.764263 0
M  V30 566 H 52.8124 -4.05058 -1.69778 0
M  V30 567 H 53.4184 -4.25283 -0.0378494 0
M  V30 568 N 51.7335 -0.305618 -1.54608 0
M  V30 569 C 52.6635 0.561482 -2.26649 0
M  V30 570 C 53.6445 1.13415 -1.26772 0
M  V30 571 O 54.8295 1.16262 -1.55553 0
M  V30 572 C 51.9595 1.73122 -3.01075 0
M  V30 573 C 50.9135 1.2887 -4.08138 0
M  V30 574 C 50.2395 2.54396 -4.70305 0
M  V30 575 C 51.5395 0.416578 -5.20636 0
M  V30 576 H 53.2335 -0.0393902 -2.99374 0
M  V30 577 H 50.7795 -0.020385 -1.43986 0
M  V30 578 H 52.7325 2.34396 -3.50195 0
M  V30 579 H 51.4565 2.3584 -2.25936 0
M  V30 580 H 50.1155 0.698991 -3.59875 0
M  V30 581 H 49.7635 3.15439 -3.918 0
M  V30 582 H 49.4635 2.25486 -5.42614 0
M  V30 583 H 50.9875 3.16464 -5.2219 0
M  V30 584 H 52.4015 0.935116 -5.65622 0
M  V30 585 H 50.7985 0.221046 -5.99693 0
M  V30 586 H 51.8685 -0.557162 -4.81688 0
M  V30 587 N 53.2116 1.57565 -0.0334293 0
M  V30 588 C 54.1416 2.13511 0.945265 0
M  V30 589 C 55.1226 1.05231 1.33643 0
M  V30 590 O 56.3076 1.33084 1.41429 0
M  V30 591 C 53.4376 2.6657 2.22616 0
M  V30 592 C 52.3916 3.79676 1.97561 0
M  V30 593 C 51.7176 4.1918 3.31952 0
M  V30 594 C 53.0176 5.0557 1.31135 0
M  V30 595 H 54.7116 2.95538 0.479325 0
M  V30 596 H 52.2576 1.42166 0.229115 0
M  V30 597 H 54.2106 3.04344 2.91466 0
M  V30 598 H 52.9346 1.8171 2.71384 0
M  V30 599 H 51.5936 3.42347 1.31127 0
M  V30 600 H 51.2416 3.31296 3.78487 0
M  V30 601 H 50.9416 4.95402 3.15992 0
M  V30 602 H 52.4656 4.59541 4.02063 0
M  V30 603 H 53.8796 5.40903 1.89992 0
M  V30 604 H 52.2766 5.86818 1.25559 0
M  V30 605 H 53.3466 4.84062 0.284894 0
M  V30 606 N 54.6897 -0.239769 1.55765 0
M  V30 607 C 55.6367 -1.29696 1.90913 0
M  V30 608 C 56.6067 -1.47478 0.764164 0
M  V30 609 O 57.7917 -1.61345 1.01845 0
M  V30 610 C 54.9317 -2.64598 2.21544 0
M  V30 611 C 54.0447 -2.54765 3.48882 0
M  V30 612 C 53.1797 -3.82069 3.69049 0
M  V30 613 C 52.2187 -3.66883 4.89963 0
M  V30 614 N 51.3557 -4.86094 5.06614 0
M  V30 615 H 56.1957 -0.990224 2.81067 0
M  V30 616 H 53.7327 -0.477684 1.39128 0
M  V30 617 H 55.6907 -3.43132 2.3731 0
M  V30 618 H 54.3207 -2.93405 1.34585 0
M  V30 619 H 53.3727 -1.67763 3.41409 0
M  V30 620 H 54.6847 -2.39457 4.37563 0
M  V30 621 H 53.8387 -4.69046 3.84812 0
M  V30 622 H 52.5777 -4.00282 2.78614 0
M  V30 623 H 51.5827 -2.78289 4.74168 0
M  V30 624 H 52.8077 -3.50157 5.81865 0
M  V30 625 H 50.7537 -5.04655 4.19117 0
M  V30 626 H 50.6707 -4.73443 5.89396 0
M  V30 627 H 51.9387 -5.74549 5.26795 0
M  V30 628 N 56.1678 -1.49265 -0.50573 0
M  V30 629 C 57.0978 -1.68495 -1.61653 0
M  V30 630 C 58.0788 -0.53366 -1.61512 0
M  V30 631 O 59.2638 -0.76897 -1.78327 0
M  V30 632 C 56.3938 -1.74709 -3.00157 0
M  V30 633 C 55.3478 -2.89581 -3.15162 0
M  V30 634 C 54.6738 -2.80903 -4.5497 0
M  V30 635 C 55.9738 -4.30578 -2.95634 0
M  V30 636 H 57.6678 -2.61493 -1.45814 0
M  V30 637 H 55.2138 -1.25838 -0.70005 0
M  V30 638 H 57.1668 -1.86748 -3.77761 0
M  V30 639 H 55.8908 -0.783067 -3.17074 0
M  V30 640 H 54.5498 -2.77136 -2.39982 0
M  V30 641 H 54.1978 -1.82419 -4.68756 0
M  V30 642 H 53.8978 -3.57999 -4.65951 0
M  V30 643 H 55.4218 -2.94944 -5.34641 0
M  V30 644 H 56.8358 -4.4373 -3.63011 0
M  V30 645 H 55.2328 -5.0886 -3.18091 0
M  V30 646 H 56.3028 -4.45352 -1.91806 0
M  V30 647 N 57.6459 0.756429 -1.3826 0
M  V30 648 C 58.9229 1.50584 -1.24835 0
M  V30 649 C 59.3029 2.10556 0.151485 0
M  V30 650 O 58.6509 1.96825 1.1607 0
M  V30 651 C 58.8609 2.57448 -2.3563 0
M  V30 652 C 60.2089 3.24429 -2.73917 0
M  V30 653 O 61.2329 2.67751 -2.34921 0
M  V30 654 O 60.0919 4.26937 -3.41156 0
M  V30 655 H 57.1859 0.667664 -0.48801 0
M  V30 656 H 59.7319 0.792083 -1.5008 0
M  V30 657 H 58.5039 2.11362 -3.29305 0
M  V30 658 H 58.1269 3.36408 -2.11933 0
M  V30 659 N 59.124 1.23083 0.984299 0
M  V30 660 C 60.056 0.96636 2.07832 0
M  V30 661 C 61.069 -0.0582135 1.62696 0
M  V30 662 O 62.258 0.176843 1.77622 0
M  V30 663 C 59.358 0.433397 3.36117 0
M  V30 664 C 58.531 1.51722 4.10243 0
M  V30 665 C 57.59 0.989821 5.16807 0
M  V30 666 O 56.616 1.67794 5.43906 0
M  V30 667 N 57.818 -0.184367 5.80207 0
M  V30 668 H 60.583 1.90824 2.31098 0
M  V30 669 H 58.144 1.13888 1.1507 0
M  V30 670 H 60.136 0.065699 4.04647 0
M  V30 671 H 58.706 -0.413806 3.09849 0
M  V30 672 H 57.926 2.05786 3.36223 0
M  V30 673 H 59.214 2.24619 4.56534 0
M  V30 674 H 58.612 -0.760062 5.60571 0
M  V30 675 H 57.169 -0.493366 6.4993 0
M  V30 676 N 60.6021 -1.18246 1.0419 0
M  V30 677 C 61.5491 -2.2192 0.634037 0
M  V30 678 C 62.5191 -1.62179 -0.358765 0
M  V30 679 O 63.7041 -1.89122 -0.252466 0
M  V30 680 C 60.8441 -3.451 0.00445535 0
M  V30 681 C 59.9571 -4.19174 1.04487 0
M  V30 682 C 59.0921 -5.29813 0.383676 0
M  V30 683 C 58.1311 -5.9566 1.4091 0
M  V30 684 N 57.2681 -6.97834 0.772784 0
M  V30 685 H 62.1081 -2.56164 1.52263 0
M  V30 686 H 59.6451 -1.25843 0.761701 0
M  V30 687 H 61.6031 -4.15485 -0.377919 0
M  V30 688 H 60.2331 -3.11472 -0.847652 0
M  V30 689 H 59.2851 -3.47604 1.54518 0
M  V30 690 H 60.5971 -4.64267 1.82368 0
M  V30 691 H 59.7511 -6.06677 -0.0528366 0
M  V30 692 H 58.4901 -4.85825 -0.427208 0
M  V30 693 H 57.4951 -5.17535 1.85574 0
M  V30 694 H 58.7201 -6.4173 2.22171 0
M  V30 695 H 56.6661 -6.55998 -0.0177708 0
M  V30 696 H 56.5831 -7.41186 1.48928 0
M  V30 697 H 57.8511 -7.78665 0.36071 0
M  V30 698 N 62.0802 -0.821533 -1.34494 0
M  V30 699 C 63.3262 -0.409552 -1.98622 0
M  V30 700 C 63.6592 1.0244 -1.64984 0
M  V30 701 O 62.9342 1.71325 -0.920758 0
M  V30 702 C 63.2172 -0.610458 -3.54888 0
M  V30 703 C 63.0702 -2.09043 -3.98273 0
M  V30 704 C 64.3892 -0.0455379 -4.40076 0
M  V30 705 H 61.5082 -0.15028 -0.721516 0
M  V30 706 H 64.1502 -1.03384 -1.59411 0
M  V30 707 H 62.3002 -0.079044 -3.8842 0
M  V30 708 H 63.9722 -2.68537 -3.75081 0
M  V30 709 H 62.2152 -2.58139 -3.48635 0
M  V30 710 H 62.8862 -2.18182 -5.07051 0
M  V30 711 H 65.3622 -0.499557 -4.1309 0
M  V30 712 H 64.2382 -0.215922 -5.48475 0
M  V30 713 H 64.4992 1.04939 -4.29465 0
M  V30 714 N 63.5583 1.46682 -0.576371 0
M  V30 715 C 64.8043 2.02712 -0.0596221 0
M  V30 716 C 65.1373 1.44765 1.29448 0
M  V30 717 O 64.4123 0.610355 1.84675 0
M  V30 718 C 64.6953 3.60098 0.0129503 0
M  V30 719 C 64.5483 4.28441 -1.3696 0
M  V30 720 C 65.8673 4.34224 0.71678 0
M  V30 721 H 62.9863 0.736637 -0.0231407 0
M  V30 722 H 65.6283 1.74898 -0.742351 0
M  V30 723 H 63.7783 3.83926 0.594378 0
M  V30 724 H 65.4503 4.15896 -1.9957 0
M  V30 725 H 63.6933 3.8805 -1.93907 0
M  V30 726 H 64.3643 5.3716 -1.27135 0
M  V30 727 H 66.8403 4.15503 0.222908 0
M  V30 728 H 65.7163 5.43936 0.73657 0
M  V30 729 H 65.9773 4.04823 1.77682 0
M  V30 730 N 65.0364 0.313813 1.54444 0
M  V30 731 C 66.2844 -0.291099 1.99993 0
M  V30 732 C 66.6054 -1.53418 1.20366 0
M  V30 733 O 65.8754 -1.93544 0.302927 0
M  V30 734 H 64.4554 -0.110552 0.738774 0
M  V30 735 H 67.1174 0.428106 1.9014 0
M  V30 736 H 66.2134 -0.554268 3.07139 0
M  V30 737 N 66.5145 -1.57545 0.0417849 0
M  V30 738 C 67.4445 -2.14009 -0.933929 0
M  V30 739 C 68.4255 -1.05938 -1.33083 0
M  V30 740 O 69.6105 -1.33833 -1.40721 0
M  V30 741 C 66.7405 -2.67747 -2.21199 0
M  V30 742 C 65.6945 -3.80718 -1.95544 0
M  V30 743 C 65.0205 -4.20935 -3.29724 0
M  V30 744 C 66.3205 -5.06258 -1.28452 0
M  V30 745 H 68.0145 -2.95788 -0.463645 0
M  V30 746 H 65.5605 -1.42285 -0.221573 0
M  V30 747 H 67.5135 -3.05886 -2.89848 0
M  V30 748 H 66.2375 -1.83147 -2.70416 0
M  V30 749 H 64.8965 -3.43037 -1.2931 0
M  V30 750 H 64.5445 -3.33298 -3.76724 0
M  V30 751 H 64.2445 -4.9707 -3.13361 0
M  V30 752 H 65.7685 -4.61666 -3.9962 0
M  V30 753 H 67.1825 -5.41903 -1.8712 0
M  V30 754 H 65.5795 -5.87475 -1.22445 0
M  V30 755 H 66.6495 -4.84207 -0.259219 0
M  V30 756 N 67.9926 0.231505 -1.5589 0
M  V30 757 C 69.2696 0.981096 -1.69215 0
M  V30 758 C 69.6496 2.02799 -0.586164 0
M  V30 759 O 68.9976 2.24823 0.408253 0
M  V30 760 C 69.2076 1.60054 -3.10135 0
M  V30 761 C 70.5556 2.09658 -3.69227 0
M  V30 762 O 71.5796 1.69967 -3.13033 0
M  V30 763 O 70.4386 2.8258 -4.67772 0
M  V30 764 H 67.5326 0.457653 -0.688827 0
M  V30 765 H 70.0786 0.224073 -1.68214 0
M  V30 766 H 68.8506 0.844105 -3.82087 0
M  V30 767 H 68.4736 2.42336 -3.15212 0
M  V30 768 N 69.4707 1.49531 0.497807 0
M  V30 769 C 70.4187 1.66926 1.61983 0
M  V30 770 C 71.4127 0.535167 1.60724 0
M  V30 771 O 72.6187 0.714896 1.65195 0
M  V30 772 H 68.9937 0.526415 0.537021 0
M  V30 773 H 70.9647 2.61098 1.44465 0
M  V30 774 C 69.7137 1.75602 3.00099 0
M  V30 775 H 69.0367 2.62244 3.01775 0
M  V30 776 H 70.4767 1.91807 3.78135 0
M  V30 777 C 68.9357 0.501543 3.33146 0
M  V30 778 O 69.4657 -0.371342 3.9998 0
M  V30 779 N 67.6717 0.363531 2.88317 0
M  V30 780 H 67.2187 1.07485 2.34104 0
M  V30 781 H 67.1767 -0.474728 3.10795 0
M  V30 782 N 70.9488 -0.749086 1.3866 0
M  V30 783 C 72.1958 -1.50833 1.35114 0
M  V30 784 C 72.5238 -1.94415 -0.0574049 0
M  V30 785 O 71.7788 -1.66065 -1.03541 0
M  V30 786 C 72.0778 -2.7712 2.25697 0
M  V30 787 C 71.7438 -2.52477 3.73585 0
M  V30 788 C 70.4058 -2.45466 4.13884 0
M  V30 789 C 72.7578 -2.31066 4.67181 0
M  V30 790 C 70.0858 -2.15064 5.45861 0
M  V30 791 C 72.4378 -2.02183 5.9942 0
M  V30 792 C 71.1018 -1.93631 6.38798 0
M  V30 793 H 70.3718 -0.551936 0.494416 0
M  V30 794 H 73.0188 -0.860979 1.71054 0
M  V30 795 H 71.3238 -3.46528 1.82827 0
M  V30 796 H 73.0208 -3.35096 2.20254 0
M  V30 797 H 69.6108 -2.58807 3.41638 0
M  V30 798 H 73.7948 -2.35459 4.3689 0
M  V30 799 H 69.0508 -2.06954 5.75308 0
M  V30 800 H 73.2248 -1.8462 6.71482 0
M  V30 801 H 70.8518 -1.69839 7.40985 0
M  V30 802 N 72.4269 -1.23603 -0.977757 0
M  V30 803 C 73.3899 -1.02069 -2.05218 0
M  V30 804 C 74.3899 0.0184305 -1.60789 0
M  V30 805 O 75.5799 -0.221569 -1.72785 0
M  V30 806 C 72.7119 -0.544926 -3.36517 0
M  V30 807 H 73.9049 -1.9742 -2.25755 0
M  V30 808 H 71.4579 -1.05684 -1.15155 0
M  V30 809 H 72.1929 0.412241 -3.21669 0
M  V30 810 H 71.9779 -1.2948 -3.70105 0
M  V30 811 H 73.4679 -0.414985 -4.15533 0
M  V30 812 N 73.905 1.17692 -1.04816 0
M  V30 813 C 75.133 1.91786 -0.776254 0
M  V30 814 C 75.548 1.76604 0.667577 0
M  V30 815 O 74.905 1.10067 1.45573 0
M  V30 816 C 74.956 3.42967 -1.14263 0
M  V30 817 O 74.677 3.57678 -2.52978 0
M  V30 818 C 76.178 4.34144 -0.896311 0
M  V30 819 H 73.398 0.608624 -0.282519 0
M  V30 820 H 75.942 1.49268 -1.39783 0
M  V30 821 H 74.097 3.83245 -0.565874 0
M  V30 822 H 74.511 4.51319 -2.67229 0
M  V30 823 H 75.985 5.38744 -1.20244 0
M  V30 824 H 76.462 4.38876 0.168636 0
M  V30 825 H 77.068 3.99574 -1.45672 0
M  V30 826 N 75.3831 0.828654 1.34056 0
M  V30 827 C 76.6311 0.41863 1.97717 0
M  V30 828 C 76.9521 -1.02314 1.66002 0
M  V30 829 O 76.2221 -1.71119 0.953683 0
M  V30 830 H 74.8021 0.151809 0.731412 0
M  V30 831 H 77.4641 1.05936 1.63596 0
M  V30 832 H 76.5601 0.542318 3.07352 0
M  V30 833 N 76.8612 -1.46375 0.584142 0
M  V30 834 C 77.8112 -2.27371 -0.169232 0
M  V30 835 C 78.7952 -1.35955 -0.860523 0
M  V30 836 O 79.9872 -1.60119 -0.754382 0
M  V30 837 C 77.1162 -3.22334 -1.18134 0
M  V30 838 C 76.2022 -4.21235 -0.492088 0
M  V30 839 N 76.5932 -5.03766 0.453129 0
M  V30 840 C 74.8912 -4.39773 -0.742652 0
M  V30 841 C 75.5922 -5.75366 0.85609 0
M  V30 842 N 74.5682 -5.43214 0.204926 0
M  V30 843 H 78.3702 -2.88572 0.557097 0
M  V30 844 H 75.8842 -1.57242 0.406042 0
M  V30 845 H 77.8812 -3.79071 -1.73525 0
M  V30 846 H 76.5412 -2.62693 -1.90847 0
M  V30 847 H 77.5522 -5.11227 0.828723 0
M  V30 848 H 74.2292 -3.91279 -1.45625 0
M  V30 849 H 75.6192 -6.5172 1.63434 0
M  V30 850 N 78.3393 -0.321999 -1.54275 0
M  V30 851 C 79.2713 0.578671 -2.21775 0
M  V30 852 C 80.2843 1.08109 -1.21722 0
M  V30 853 O 81.4733 0.994938 -1.482 0
M  V30 854 C 78.5733 1.80661 -2.86731 0
M  V30 855 C 77.7463 1.44314 -4.12907 0
M  V30 856 C 76.8053 2.52845 -4.61472 0
M  V30 857 O 75.8313 2.17054 -5.2619 0
M  V30 858 N 77.0333 3.83748 -4.35566 0
M  V30 859 H 79.7983 0.000709447 -2.997 0
M  V30 860 H 77.3593 -0.145132 -1.61248 0
M  V30 861 H 79.3513 2.52655 -3.16145 0
M  V30 862 H 77.9213 2.29245 -2.12521 0
M  V30 863 H 77.1413 0.554906 -3.90275 0
M  V30 864 H 78.4293 1.17598 -4.95023 0
M  V30 865 H 77.8273 4.15625 -3.83761 0
M  V30 866 H 76.3843 4.51977 -4.69638 0
M  V30 867 N 79.8174 1.5752 -0.0501392 0
M  V30 868 C 81.2334 1.56631 0.306402 0
M  V30 869 C 81.4334 1.0577 1.71508 0
M  V30 870 O 80.4894 0.713837 2.422 0
M  V30 871 C 81.8024 3.00393 0.135811 0
M  V30 872 C 83.3504 3.12315 0.206993 0
M  V30 873 C 83.8254 4.57954 0.064944 0
M  V30 874 N 85.3164 4.63041 0.121254 0
M  V30 875 C 86.0514 5.73389 0.0354381 0
M  V30 876 N 85.5474 6.92724 -0.102666 0
M  V30 877 N 87.3404 5.62026 0.090946 0
M  V30 878 H 79.4914 1.88903 -0.971046 0
M  V30 879 H 81.7544 0.869876 -0.376855 0
M  V30 880 H 81.4604 3.41635 -0.835384 0
M  V30 881 H 81.3344 3.66373 0.897275 0
M  V30 882 H 83.7214 2.70973 1.16866 0
M  V30 883 H 83.8024 2.49016 -0.585208 0
M  V30 884 H 83.4464 4.99981 -0.893394 0
M  V30 885 H 83.3764 5.19258 0.876277 0
M  V30 886 H 85.8674 3.77216 0.227284 0
M  V30 887 H 86.1804 7.72633 -0.160882 0
M  V30 888 H 84.5254 6.94864 -0.137737 0
M  V30 889 H 87.7164 4.67684 0.197388 0
M  V30 890 H 87.8894 6.47997 0.0206089 0
M  V30 891 N 81.2955 -0.223234 1.56011 0
M  V30 892 C 82.2435 -1.29627 1.93131 0
M  V30 893 C 83.2375 -1.48608 0.813146 0
M  V30 894 O 84.4435 -1.49802 0.997966 0
M  V30 895 H 80.8185 -0.434563 0.613726 0
M  V30 896 H 82.7895 -0.955995 2.82672 0
M  V30 897 C 81.5385 -2.63983 2.26292 0
M  V30 898 H 80.8615 -2.50185 3.11846 0
M  V30 899 H 82.3015 -3.3788 2.56151 0
M  V30 900 C 80.7605 -3.18866 1.08747 0
M  V30 901 O 81.2905 -4.00192 0.347727 0
M  V30 902 N 79.4965 -2.77217 0.871743 0
M  V30 903 H 79.0435 -2.1119 1.47501 0
M  V30 904 H 79.0015 -3.1428 0.0869905 0
M  V30 905 N 82.7736 -1.49793 -0.48987 0
M  V30 906 C 83.7036 -1.70201 -1.59856 0
M  V30 907 C 84.6846 -0.55076 -1.60937 0
M  V30 908 O 85.8696 -0.787841 -1.77501 0
M  V30 909 C 82.9996 -1.77882 -2.98287 0
M  V30 910 C 81.9536 -2.92907 -3.12073 0
M  V30 911 C 81.2796 -2.85712 -4.51965 0
M  V30 912 C 82.5796 -4.3369 -2.91051 0
M  V30 913 H 84.2736 -2.63025 -1.43032 0
M  V30 914 H 81.8196 -1.26574 -0.686664 0
M  V30 915 H 83.7726 -1.90744 -3.75759 0
M  V30 916 H 82.4966 -0.816653 -3.16225 0
M  V30 917 H 81.1556 -2.79665 -2.37029 0
M  V30 918 H 80.8036 -1.8738 -4.66795 0
M  V30 919 H 80.5036 -3.62921 -4.62128 0
M  V30 920 H 82.0276 -3.00598 -5.31482 0
M  V30 921 H 83.4416 -4.47555 -3.58284 0
M  V30 922 H 81.8386 -5.12205 -3.12675 0
M  V30 923 H 82.9086 -4.47362 -1.87071 0
M  V30 924 N 84.2517 0.741722 -1.39055 0
M  V30 925 C 85.5287 1.49252 -1.26425 0
M  V30 926 C 85.9087 2.10705 0.129144 0
M  V30 927 O 85.2567 1.98045 1.13976 0
M  V30 928 C 85.4667 2.54934 -2.38347 0
M  V30 929 C 86.8147 3.21506 -2.77343 0
M  V30 930 O 87.8387 2.65245 -2.37747 0
M  V30 931 O 86.6977 4.23294 -3.45665 0
M  V30 932 H 83.7917 0.662451 -0.495064 0
M  V30 933 H 86.3377 0.776121 -1.50912 0
M  V30 934 H 85.1097 2.07857 -3.31529 0
M  V30 935 H 84.7327 3.34141 -2.15489 0
M  V30 936 N 85.7298 1.2412 0.971189 0
M  V30 937 C 86.6398 1.04747 2.09917 0
M  V30 938 C 87.6558 -0.0107162 1.73997 0
M  V30 939 O 88.8318 0.186714 2.00533 0
M  V30 940 C 85.8968 0.650828 3.40537 0
M  V30 941 C 84.9578 1.7851 3.90426 0
M  V30 942 C 84.1908 1.40729 5.14812 0
M  V30 943 O 84.4138 0.29557 5.69634 0
M  V30 944 O 83.3478 2.23168 5.58999 0
M  V30 945 H 87.1738 1.99304 2.29154 0
M  V30 946 H 84.7588 1.02908 1.08307 0
M  V30 947 H 86.6408 0.440992 4.19086 0
M  V30 948 H 85.3158 -0.265649 3.22608 0
M  V30 949 H 84.2228 2.04966 3.12953 0
M  V30 950 H 85.5558 2.68023 4.12825 0
M  V30 951 N 87.2079 -1.17134 1.05439 0
M  V30 952 C 88.4539 -1.87733 0.767077 0
M  V30 953 C 88.7869 -1.8098 -0.704253 0
M  V30 954 O 88.0619 -1.21951 -1.5152 0
M  V30 955 C 88.3449 -3.37659 1.25133 0
M  V30 956 C 88.1979 -3.53149 2.78578 0
M  V30 957 C 89.5169 -4.31768 0.852324 0
M  V30 958 H 86.6359 -0.681687 0.280129 0
M  V30 959 H 89.2779 -1.37732 1.30881 0
M  V30 960 H 87.4279 -3.80373 0.790469 0
M  V30 961 H 89.0999 -3.19434 3.32806 0
M  V30 962 H 87.3429 -2.95345 3.17732 0
M  V30 963 H 88.0139 -4.58403 3.07523 0
M  V30 964 H 90.4899 -3.96909 1.24911 0
M  V30 965 H 89.3659 -5.35199 1.21873 0
M  V30 966 H 89.6269 -4.41429 -0.243485 0
M  V30 967 N 88.686 -0.835752 -1.33615 0
M  V30 968 C 90.102 -0.523139 -1.50783 0
M  V30 969 C 90.302 0.950171 -1.77691 0
M  V30 970 O 89.358 1.73411 -1.83534 0
M  V30 971 C 90.671 -1.39378 -2.66448 0
M  V30 972 C 92.219 -1.39223 -2.80332 0
M  V30 973 C 92.694 -2.24765 -3.99055 0
M  V30 974 N 94.185 -2.22458 -4.06284 0
M  V30 975 C 94.92 -2.85386 -4.97336 0
M  V30 976 N 94.416 -3.57354 -5.93523 0
M  V30 977 N 96.209 -2.74872 -4.90308 0
M  V30 978 H 88.36 -1.78952 -1.14411 0
M  V30 979 H 90.623 -0.763297 -0.562212 0
M  V30 980 H 90.329 -2.44061 -2.53234 0
M  V30 981 H 90.203 -1.0676 -3.61776 0
M  V30 982 H 92.59 -0.353136 -2.92979 0
M  V30 983 H 92.671 -1.75846 -1.85773 0
M  V30 984 H 92.315 -3.28732 -3.87167 0
M  V30 985 H 92.245 -1.85485 -4.92852 0
M  V30 986 H 94.736 -1.70119 -3.37443 0
M  V30 987 H 95.049 -4.02584 -6.59656 0
M  V30 988 H 93.394 -3.61461 -5.93608 0
M  V30 989 H 96.585 -2.18213 -4.14126 0
M  V30 990 H 96.758 -3.24199 -5.61069 0
M  V30 991 N 90.1641 1.46063 -0.591896 0
M  V30 992 C 91.3891 2.07226 -0.0850314 0
M  V30 993 C 91.8141 1.43625 1.21463 0
M  V30 994 O 91.1721 0.523305 1.73583 0
M  V30 995 C 91.2201 3.60554 0.0576567 0
M  V30 996 O 90.3241 3.97128 1.11188 0
M  V30 997 H 89.6651 0.660615 -0.0669568 0
M  V30 998 H 92.1951 1.8756 -0.81745 0
M  V30 999 H 92.2051 4.07165 0.2609 0
M  V30 1000 H 90.8801 4.06235 -0.891416 0
M  V30 1001 H 89.4571 3.62213 0.886356 0
M  V30 1002 N 91.6422 0.330177 1.54103 0
M  V30 1003 C 92.5722 -0.525353 2.27513 0
M  V30 1004 C 93.5532 -1.11383 1.2856 0
M  V30 1005 O 94.7382 -1.13773 1.57383 0
M  V30 1006 C 91.8682 -1.6831 3.03791 0
M  V30 1007 C 90.8222 -1.2236 4.10137 0
M  V30 1008 C 90.1482 -2.46882 4.74293 0
M  V30 1009 C 91.4482 -0.333697 5.21233 0
M  V30 1010 H 93.1422 0.087013 2.99274 0
M  V30 1011 H 90.6882 0.0432893 1.43935 0
M  V30 1012 H 92.6412 -2.28795 3.5388 0
M  V30 1013 H 91.3652 -2.32216 2.29659 0
M  V30 1014 H 90.0242 -0.64165 3.60941 0
M  V30 1015 H 89.6722 -3.09165 3.96769 0
M  V30 1016 H 89.3722 -2.16825 5.46133 0
M  V30 1017 H 90.8962 -3.08117 5.27159 0
M  V30 1018 H 92.3102 -0.845013 5.67038 0
M  V30 1019 H 90.7072 -0.125612 5.99969 0
M  V30 1020 H 91.7772 0.633724 4.80741 0
M  V30 1021 N 93.1203 -1.57491 0.0584922 0
M  V30 1022 C 94.3663 -1.93264 -0.614558 0
M  V30 1023 C 94.6993 -0.937717 -1.7006 0
M  V30 1024 O 93.9743 0.0351652 -1.94468 0
M  V30 1025 C 94.2573 -3.3938 -1.20386 0
M  V30 1026 C 94.1103 -4.49625 -0.125375 0
M  V30 1027 C 95.4293 -3.86039 -2.11334 0
M  V30 1028 H 92.5483 -0.702791 -0.221933 0
M  V30 1029 H 95.1903 -1.8961 0.12175 0
M  V30 1030 H 93.3403 -3.42626 -1.83139 0
M  V30 1031 H 95.0123 -4.58506 0.506971 0
M  V30 1032 H 93.2553 -4.30354 0.545672 0
M  V30 1033 H 93.9263 -5.48967 -0.577861 0
M  V30 1034 H 96.4023 -3.84716 -1.58534 0
M  V30 1035 H 95.2783 -4.88914 -2.49507 0
M  V30 1036 H 95.5393 -3.23215 -3.01636 0
M  V30 1037 N 94.5984 0.214957 -1.56127 0
M  V30 1038 C 95.8234 0.95924 -1.83884 0
M  V30 1039 C 96.2484 1.7689 -0.639644 0
M  V30 1040 O 95.6064 1.76566 0.411601 0
M  V30 1041 C 95.6544 1.84723 -3.09693 0
M  V30 1042 O 94.7584 2.94346 -2.8885 0
M  V30 1043 H 94.0994 0.27125 -0.606069 0
M  V30 1044 H 96.6294 0.226276 -2.03345 0
M  V30 1045 H 96.6394 2.25576 -3.39969 0
M  V30 1046 H 95.3144 1.25218 -3.96602 0
M  V30 1047 H 93.8914 2.57391 -2.69823 0
M  V30 1048 N 96.0765 1.50051 0.48192 0
M  V30 1049 C 96.9865 1.7089 1.60728 0
M  V30 1050 C 98.0025 0.591788 1.63627 0
M  V30 1051 O 99.1785 0.868817 1.81696 0
M  V30 1052 C 96.2435 1.78855 2.97005 0
M  V30 1053 C 95.3045 3.02537 3.04581 0
M  V30 1054 C 94.5375 3.10112 4.34357 0
M  V30 1055 O 94.7605 2.24765 5.24249 0
M  V30 1056 O 93.6945 4.02747 4.47301 0
M  V30 1057 H 97.5205 2.66264 1.46072 0
M  V30 1058 H 95.1055 1.34018 0.660264 0
M  V30 1059 H 96.9875 1.86336 3.77964 0
M  V30 1060 H 95.6625 0.866628 3.11883 0
M  V30 1061 H 94.5695 3.00563 2.22739 0
M  V30 1062 H 95.9025 3.94272 2.94636 0
M  V30 1063 N 97.5546 -0.734337 1.39446 0
M  V30 1064 C 98.5016 -1.84835 1.38219 0
M  V30 1065 C 99.4716 -1.64331 0.24179 0
M  V30 1066 O 100.657 -1.85728 0.437002 0
M  V30 1067 C 97.7966 -3.22355 1.23212 0
M  V30 1068 C 96.9096 -3.5456 2.46801 0
M  V30 1069 C 96.0446 -4.81485 2.24377 0
M  V30 1070 C 95.0836 -5.06536 3.43639 0
M  V30 1071 N 94.2206 -6.24665 3.20528 0
M  V30 1072 H 99.0606 -1.85219 2.33448 0
M  V30 1073 H 96.5976 -0.905039 1.15963 0
M  V30 1074 H 98.5556 -4.0174 1.12522 0
M  V30 1075 H 97.1856 -3.21248 0.316121 0
M  V30 1076 H 96.2376 -2.69872 2.68092 0
M  V30 1077 H 97.5496 -3.6899 3.3563 0
M  V30 1078 H 96.7036 -5.68852 2.10933 0
M  V30 1079 H 95.4426 -4.6923 1.32944 0
M  V30 1080 H 94.4476 -4.17632 3.5758 0
M  V30 1081 H 95.6726 -5.20676 4.35974 0
M  V30 1082 H 93.6186 -6.13696 2.3176 0
M  V30 1083 H 93.5356 -6.39685 4.02913 0
M  V30 1084 H 94.8036 -7.14868 3.10779 0
M  V30 1085 N 99.0327 -1.24633 -0.964593 0
M  V30 1086 C 99.9647 -0.999302 -2.06268 0
M  V30 1087 C 100.978 0.0323226 -1.62768 0
M  V30 1088 O 102.167 -0.205079 -1.77318 0
M  V30 1089 C 99.2667 -0.486816 -3.35385 0
M  V30 1090 C 98.4397 -1.5823 -4.07777 0
M  V30 1091 C 97.4987 -1.07191 -5.15166 0
M  V30 1092 O 96.5247 -1.76426 -5.41168 0
M  V30 1093 N 97.7267 0.0920373 -5.80427 0
M  V30 1094 H 100.492 -1.94477 -2.28033 0
M  V30 1095 H 98.0527 -1.15704 -1.13244 0
M  V30 1096 H 100.045 -0.130066 -4.04491 0
M  V30 1097 H 98.6147 0.364459 -3.10468 0
M  V30 1098 H 97.8347 -2.11109 -3.32906 0
M  V30 1099 H 99.1227 -2.31854 -4.52903 0
M  V30 1100 H 98.5207 0.670784 -5.61709 0
M  V30 1101 H 97.0777 0.389905 -6.50633 0
M  V30 1102 N 100.511 1.16574 -1.06058 0
M  V30 1103 C 101.757 1.87565 -0.78683 0
M  V30 1104 C 102.112 1.80012 0.679214 0
M  V30 1105 O 101.405 1.20327 1.49104 0
M  V30 1106 C 101.599 3.36195 -1.21275 0
M  V30 1107 C 101.428 3.58216 -2.71866 0
M  V30 1108 C 100.198 3.7444 -3.39298 0
M  V30 1109 C 102.396 3.57134 -3.70081 0
M  V30 1110 N 100.378 3.84389 -4.78663 0
M  V30 1111 C 101.749 3.73038 -4.9522 0
M  V30 1112 C 103.804 3.40332 -3.63426 0
M  V30 1113 C 102.507 3.73879 -6.14497 0
M  V30 1114 C 104.533 3.42466 -4.82153 0
M  V30 1115 C 103.895 3.58887 -6.06118 0
M  V30 1116 H 99.9938 0.704081 -0.340284 0
M  V30 1117 H 102.578 1.39885 -1.35426 0
M  V30 1118 H 100.749 3.82522 -0.673179 0
M  V30 1119 H 102.481 3.94839 -0.887917 0
M  V30 1120 H 99.2358 3.74662 -2.89699 0
M  V30 1121 H 99.6598 3.93138 -5.51155 0
M  V30 1122 H 104.302 3.26566 -2.68541 0
M  V30 1123 H 102.02 3.86427 -7.09718 0
M  V30 1124 H 105.606 3.30712 -4.78666 0
M  V30 1125 H 104.486 3.60454 -6.9645 0
M  V30 1126 N 101.989 0.842826 1.3317 0
M  V30 1127 C 103.214 0.453129 2.02389 0
M  V30 1128 C 103.639 -0.939105 1.6298 0
M  V30 1129 O 102.997 -1.61472 0.8244 0
M  V30 1130 C 103.045 0.586094 3.55805 0
M  V30 1131 O 102.149 -0.386029 4.10589 0
M  V30 1132 H 101.49 0.183664 0.638094 0
M  V30 1133 H 104.02 1.13875 1.69981 0
M  V30 1134 H 104.03 0.469209 4.05293 0
M  V30 1135 H 102.705 1.6014 3.83833 0
M  V30 1136 H 101.282 -0.226371 3.72212 0
M  V30 1137 N 103.467 -1.45747 0.599634 0
M  V30 1138 C 104.415 -2.322 -0.136426 0
M  V30 1139 C 105.409 -1.45497 -0.867583 0
M  V30 1140 O 106.615 -1.62027 -0.78405 0
M  V30 1141 H 102.99 -0.749368 -0.0628588 0
M  V30 1142 H 104.961 -2.92072 0.611281 0
M  V30 1143 C 103.71 -3.28974 -1.12567 0
M  V30 1144 H 103.033 -3.9568 -0.572484 0
M  V30 1145 H 104.473 -3.92212 -1.61077 0
M  V30 1146 C 102.932 -2.55561 -2.19523 0
M  V30 1147 O 103.462 -2.33111 -3.27143 0
M  V30 1148 N 101.668 -2.15832 -1.94589 0
M  V30 1149 H 101.215 -2.3429 -1.07078 0
M  V30 1150 H 101.173 -1.67034 -2.66359 0
M  V30 1151 N 104.945 -0.338344 -1.53925 0
M  V30 1152 C 106.192 0.259758 -2.00827 0
M  V30 1153 C 106.52 1.50973 -1.22628 0
M  V30 1154 O 105.775 1.93379 -0.300509 0
M  V30 1155 C 106.074 0.62448 -3.51902 0
M  V30 1156 C 105.74 -0.528006 -4.47798 0
M  V30 1157 C 104.402 -0.844298 -4.73735 0
M  V30 1158 C 106.754 -1.30143 -5.0469 0
M  V30 1159 C 104.082 -1.93648 -5.53821 0
M  V30 1160 C 106.434 -2.38382 -5.85967 0
M  V30 1161 C 105.098 -2.70576 -6.10201 0
M  V30 1162 H 104.368 0.0950523 -0.734878 0
M  V30 1163 H 107.015 -0.465182 -1.85764 0
M  V30 1164 H 105.32 1.43006 -3.64769 0
M  V30 1165 H 107.017 1.09905 -3.85645 0
M  V30 1166 H 103.607 -0.271421 -4.2774 0
M  V30 1167 H 107.791 -1.07033 -4.84621 0
M  V30 1168 H 103.047 -2.19021 -5.70824 0
M  V30 1169 H 107.221 -2.98746 -6.29066 0
M  V30 1170 H 104.848 -3.55333 -6.72044 0
M  V30 1171 N 106.423 1.57458 -0.0668435 0
M  V30 1172 C 107.37 2.12439 0.902122 0
M  V30 1173 C 108.34 1.03565 1.2986 0
M  V30 1174 O 109.525 1.312 1.38532 0
M  V30 1175 C 106.665 2.6865 2.16614 0
M  V30 1176 C 105.778 3.91663 1.82274 0
M  V30 1177 C 104.913 4.36134 3.0325 0
M  V30 1178 C 103.952 5.51808 2.64904 0
M  V30 1179 N 103.089 5.9126 3.78624 0
M  V30 1180 H 107.929 2.94934 0.426382 0
M  V30 1181 H 105.466 1.4575 0.198819 0
M  V30 1182 H 107.424 2.99346 2.90599 0
M  V30 1183 H 106.054 1.88928 2.61737 0
M  V30 1184 H 105.106 3.6746 0.983719 0
M  V30 1185 H 106.418 4.75693 1.50059 0
M  V30 1186 H 105.572 4.68465 3.85519 0
M  V30 1187 H 104.311 3.50948 3.38655 0
M  V30 1188 H 103.316 5.19133 1.81055 0
M  V30 1189 H 104.541 6.38722 2.30675 0
M  V30 1190 H 102.487 5.09024 4.138 0
M  V30 1191 H 102.404 6.70018 3.5016 0
M  V30 1192 H 103.672 6.28212 4.61486 0
M  V30 1193 N 107.901 -0.206675 1.56239 0
M  V30 1194 C 109.148 -0.928842 1.79941 0
M  V30 1195 C 109.476 -1.83734 0.638131 0
M  V30 1196 O 108.731 -1.92039 -0.376746 0
M  V30 1197 C 109.03 -1.78675 3.09532 0
M  V30 1198 C 108.696 -1.03022 4.38973 0
M  V30 1199 C 107.358 -0.821302 4.74139 0
M  V30 1200 C 109.71 -0.497081 5.18824 0
M  V30 1201 C 107.038 -0.0675719 5.86661 0
M  V30 1202 C 109.39 0.24338 6.32132 0
M  V30 1203 C 108.054 0.463422 6.65889 0
M  V30 1204 H 107.324 -0.339887 0.658451 0
M  V30 1205 H 109.971 -0.195977 1.90495 0
M  V30 1206 H 108.276 -2.58794 2.94165 0
M  V30 1207 H 109.973 -2.34792 3.25075 0
M  V30 1208 H 106.563 -1.20306 4.11369 0
M  V30 1209 H 110.747 -0.645921 4.92079 0
M  V30 1210 H 106.003 0.112995 6.11296 0
M  V30 1211 H 110.177 0.66393 6.93228 0
M  V30 1212 H 107.804 1.04938 7.52922 0
M  V30 1213 N 109.379 -1.50304 -0.473955 0
M  V30 1214 C 110.628 -1.60392 -1.22301 0
M  V30 1215 C 110.941 -0.308411 -1.93153 0
M  V30 1216 O 112.147 -0.288156 -2.69966 0
M  V30 1217 C 110.603 -2.83109 -2.2221 0
M  V30 1218 C 110.211 -4.19524 -1.57173 0
M  V30 1219 C 111.955 -3.0254 -2.97775 0
M  V30 1220 C 109.862 -5.33431 -2.55353 0
M  V30 1221 H 108.792 -0.597286 -0.460179 0
M  V30 1222 H 111.443 -1.76731 -0.493803 0
M  V30 1223 H 109.825 -2.60322 -2.9841 0
M  V30 1224 H 110.999 -4.52554 -0.867824 0
M  V30 1225 H 109.314 -4.05674 -0.939002 0
M  V30 1226 H 111.911 -3.84811 -3.71248 0
M  V30 1227 H 112.254 -2.14154 -3.56992 0
M  V30 1228 H 112.787 -3.25494 -2.28688 0
M  V30 1229 H 109.526 -6.23962 -2.00878 0
M  V30 1230 H 109.046 -5.04823 -3.23904 0
M  V30 1231 H 110.725 -5.63887 -3.17239 0
M  V30 1232 N 110.857 0.726932 -1.39834 0
M  V30 1233 C 111.789 1.85147 -1.35104 0
M  V30 1234 C 112.802 1.60736 -0.258392 0
M  V30 1235 O 113.991 1.70821 -0.517931 0
M  V30 1236 C 111.091 3.21332 -1.07697 0
M  V30 1237 C 110.264 3.73033 -2.28396 0
M  V30 1238 C 109.323 4.87802 -1.97322 0
M  V30 1239 O 108.349 5.01043 -2.70083 0
M  V30 1240 N 109.551 5.72768 -0.944273 0
M  V30 1241 H 112.316 1.89706 -2.32017 0
M  V30 1242 H 109.877 0.908006 -1.3404 0
M  V30 1243 H 111.869 3.95691 -0.849144 0
M  V30 1244 H 110.439 3.11992 -0.194909 0
M  V30 1245 H 109.659 2.89934 -2.6708 0
M  V30 1246 H 110.947 4.0431 -3.08887 0
M  V30 1247 H 110.345 5.64669 -0.341427 0
M  V30 1248 H 108.902 6.4716 -0.776346 0
M  V30 1249 N 112.336 1.25143 0.95797 0
M  V30 1250 C 113.584 1.09476 1.69881 0
M  V30 1251 C 113.905 -0.365502 1.91544 0
M  V30 1252 O 113.175 -1.25985 1.50015 0
M  V30 1253 H 111.755 0.402128 0.629525 0
M  V30 1254 H 114.417 1.57214 1.15194 0
M  V30 1255 H 113.513 1.60046 2.6794 0
M  V30 1256 N 113.814 -1.1601 1.06675 0
M  V30 1257 C 115.091 -1.82679 0.699114 0
M  V30 1258 C 115.471 -1.94559 -0.819137 0
M  V30 1259 O 114.819 -1.49169 -1.73092 0
M  V30 1260 C 115.029 -3.19445 1.40555 0
M  V30 1261 C 116.377 -3.95171 1.55323 0
M  V30 1262 O 117.401 -3.28976 1.36577 0
M  V30 1263 O 116.26 -5.13833 1.86112 0
M  V30 1264 H 113.354 -0.788954 0.247951 0
M  V30 1265 H 115.9 -1.23179 1.16726 0
M  V30 1266 H 114.672 -3.05856 2.44065 0
M  V30 1267 H 114.295 -3.86625 0.927733 0
M  V30 1268 N 115.292 -0.849877 -1.32721 0
M  V30 1269 C 116.541 -0.447175 -1.96681 0
M  V30 1270 C 116.854 1.00135 -1.68025 0
M  V30 1271 O 118.06 1.50926 -2.25685 0
M  V30 1272 C 116.516 -0.7487 -3.52026 0
M  V30 1273 C 116.124 -2.21264 -3.89546 0
M  V30 1274 C 117.868 -0.413487 -4.22481 0
M  V30 1275 C 115.775 -2.45763 -5.37917 0
M  V30 1276 H 114.705 -0.163486 -0.736063 0
M  V30 1277 H 117.356 -1.03999 -1.51183 0
M  V30 1278 H 115.738 -0.0853727 -3.95908 0
M  V30 1279 H 116.912 -2.91736 -3.56689 0
M  V30 1280 H 115.227 -2.5119 -3.32103 0
M  V30 1281 H 117.824 -0.574017 -5.3161 0
M  V30 1282 H 118.167 0.644492 -4.11281 0
M  V30 1283 H 118.7 -1.03251 -3.84167 0
M  V30 1284 H 115.439 -3.50168 -5.54132 0
M  V30 1285 H 114.959 -1.79864 -5.72197 0
M  V30 1286 H 116.638 -2.29471 -6.0494 0
M  V30 1287 N 116.77 1.45427 -0.607355 0
M  V30 1288 C 118.186 1.57283 -0.270985 0
M  V30 1289 C 118.386 1.59875 1.22647 0
M  V30 1290 O 117.442 1.52893 2.00948 0
M  V30 1291 C 118.755 2.85566 -0.941952 0
M  V30 1292 C 120.303 2.9924 -0.917849 0
M  V30 1293 C 120.778 4.30293 -1.56882 0
M  V30 1294 N 122.269 4.37051 -1.5343 0
M  V30 1295 C 123.004 5.37123 -2.00715 0
M  V30 1296 N 122.5 6.43734 -2.56084 0
M  V30 1297 N 124.293 5.28479 -1.91484 0
M  V30 1298 H 116.444 1.41988 -1.57966 0
M  V30 1299 H 118.707 0.67885 -0.661715 0
M  V30 1300 H 118.413 2.8955 -1.99633 0
M  V30 1301 H 118.287 3.74322 -0.465096 0
M  V30 1302 H 120.674 2.94822 0.127984 0
M  V30 1303 H 120.755 2.11895 -1.43297 0
M  V30 1304 H 120.399 4.35469 -2.61398 0
M  V30 1305 H 120.329 5.16454 -1.02873 0
M  V30 1306 H 122.82 3.60615 -1.12982 0
M  V30 1307 H 123.133 7.16341 -2.89958 0
M  V30 1308 H 121.478 6.44485 -2.60122 0
M  V30 1309 H 124.669 4.44098 -1.47967 0
M  V30 1310 H 124.842 6.0632 -2.28648 0
M  V30 1311 N 118.248 0.346503 1.53744 0
M  V30 1312 C 119.196 -0.52422 2.26616 0
M  V30 1313 C 120.19 -1.09948 1.28871 0
M  V30 1314 O 121.396 -1.04488 1.46568 0
M  V30 1315 H 117.771 -0.187743 0.728187 0
M  V30 1316 H 119.742 0.11239 2.98188 0
M  V30 1317 C 118.491 -1.66186 3.05414 0
M  V30 1318 H 117.814 -1.22848 3.80458 0
M  V30 1319 H 119.254 -2.24622 3.59612 0
M  V30 1320 C 117.713 -2.59302 2.1509 0
M  V30 1321 O 118.243 -3.61628 1.74895 0
M  V30 1322 N 116.449 -2.28055 1.8011 0
M  V30 1323 H 115.996 -1.44883 2.12994 0
M  V30 1324 H 115.954 -2.90615 1.19958 0
M  V30 1325 N 119.726 -1.57421 0.075193 0
M  V30 1326 C 120.656 -2.15942 -0.888324 0
M  V30 1327 C 121.637 -1.08737 -1.30806 0
M  V30 1328 O 122.822 -1.36787 -1.37851 0
M  V30 1329 C 119.952 -2.72379 -2.1547 0
M  V30 1330 C 118.906 -3.8478 -1.87425 0
M  V30 1331 C 118.232 -4.27834 -3.20721 0
M  V30 1332 C 119.532 -5.08869 -1.17684 0
M  V30 1333 H 121.226 -2.96705 -0.400799 0
M  V30 1334 H 118.772 -1.42723 -0.191342 0
M  V30 1335 H 120.725 -3.11965 -2.83295 0
M  V30 1336 H 119.449 -1.88841 -2.6647 0
M  V30 1337 H 118.108 -3.45703 -1.22004 0
M  V30 1338 H 117.756 -3.41214 -3.6957 0
M  V30 1339 H 117.456 -5.03605 -3.02746 0
M  V30 1340 H 118.98 -4.70039 -3.89738 0
M  V30 1341 H 120.394 -5.4575 -1.75584 0
M  V30 1342 H 118.791 -5.8994 -1.09956 0
M  V30 1343 H 119.861 -4.84648 -0.156453 0
M  V30 1344 N 121.204 0.198386 -1.56346 0
M  V30 1345 C 122.481 0.944982 -1.71258 0
M  V30 1346 C 122.861 2.0151 -0.629048 0
M  V30 1347 O 122.209 2.25639 0.360473 0
M  V30 1348 C 122.419 1.5344 -3.1346 0
M  V30 1349 C 123.767 2.01778 -3.73591 0
M  V30 1350 O 124.791 1.63288 -3.16568 0
M  V30 1351 O 123.65 2.72594 -4.73661 0
M  V30 1352 H 120.744 0.442939 -0.69838 0
M  V30 1353 H 123.29 0.188342 -1.68652 0
M  V30 1354 H 122.062 0.762869 -3.83792 0
M  V30 1355 H 121.685 2.35596 -3.20282 0
M  V30 1356 N 122.682 1.50554 0.465978 0
M  V30 1357 C 123.959 1.5232 1.22712 0
M  V30 1358 C 124.339 0.270807 2.09356 0
M  V30 1359 O 123.687 -0.745541 2.15995 0
M  V30 1360 C 123.897 2.82175 2.05374 0
M  V30 1361 C 125.245 3.33033 2.6339 0
M  V30 1362 O 126.269 2.83531 2.15612 0
M  V30 1363 O 125.128 4.19336 3.50456 0
M  V30 1364 H 122.222 0.611183 0.557122 0
M  V30 1365 H 124.768 1.62847 0.477381 0
M  V30 1366 H 123.54 3.64797 1.41558 0
M  V30 1367 H 123.163 2.74675 2.87471 0
M  V30 1368 N 124.16 -0.719506 1.40217 0
M  V30 1369 C 125.4 -1.49181 1.39729 0
M  V30 1370 C 125.764 -1.92 -0.00250614 0
M  V30 1371 O 126.965 -2.68473 -0.132479 0
M  V30 1372 C 125.236 -2.68767 2.35582 0
M  V30 1373 S 126.795 -3.58224 2.53418 0
M  V30 1374 H 123.613 -0.510091 0.495307 0
M  V30 1375 H 126.215 -0.841724 1.76452 0
M  V30 1376 H 124.919 -2.35475 3.36124 0
M  V30 1377 H 124.45 -3.38691 2.0013 0
M  V30 1378 H 126.465 -4.63033 1.78367 0
M  V30 1379 N 125.638 -1.25649 -0.95132 0
M  V30 1380 C 126.586 -1.06118 -2.06982 0
M  V30 1381 C 127.58 0.00889169 -1.69398 0
M  V30 1382 O 128.786 -0.146988 -1.79399 0
M  V30 1383 H 125.161 -0.326248 -0.677544 0
M  V30 1384 H 127.132 -2.00932 -2.2061 0
M  V30 1385 C 125.881 -0.700145 -3.40578 0
M  V30 1386 H 125.204 -1.51537 -3.69968 0
M  V30 1387 H 126.644 -0.603211 -4.19687 0
M  V30 1388 C 125.103 0.59403 -3.31622 0
M  V30 1389 O 125.633 1.63522 -3.66911 0
M  V30 1390 N 123.839 0.58089 -2.84735 0
M  V30 1391 H 123.386 -0.266783 -2.56215 0
M  V30 1392 H 123.344 1.44695 -2.79125 0
M  V30 1393 N 127.117 1.15442 -1.07289 0
M  V30 1394 C 128.065 2.22225 -0.686952 0
M  V30 1395 C 129.059 1.66688 0.30193 0
M  V30 1396 O 130.265 1.79236 0.165712 0
M  V30 1397 H 126.64 0.723783 -0.204064 0
M  V30 1398 H 128.611 2.52056 -1.5972 0
M  V30 1399 C 127.36 3.47556 -0.100149 0
M  V30 1400 H 126.683 3.90612 -0.852211 0
M  V30 1401 H 128.123 4.23794 0.132235 0
M  V30 1402 C 126.582 3.16337 1.159 0
M  V30 1403 O 127.112 3.33074 2.24555 0
M  V30 1404 N 125.318 2.70385 1.06491 0
M  V30 1405 H 124.865 2.56966 0.180668 0
M  V30 1406 H 124.823 2.49871 1.90819 0
M  V30 1407 N 128.595 0.856903 1.32268 0
M  V30 1408 C 129.558 0.308171 2.27119 0
M  V30 1409 C 130.558 -0.533421 1.51695 0
M  V30 1410 O 131.748 -0.344607 1.70757 0
M  V30 1411 C 128.88 -0.563757 3.36206 0
M  V30 1412 H 130.073 1.14535 2.77167 0
M  V30 1413 H 127.626 0.631421 1.42978 0
M  V30 1414 H 128.361 -1.42266 2.91429 0
M  V30 1415 H 128.146 0.0386749 3.92081 0
M  V30 1416 H 129.636 -0.940386 4.06874 0
M  V30 1417 N 130.073 -1.45103 0.615059 0
M  V30 1418 C 131.313 -2.04069 0.116282 0
M  V30 1419 C 131.677 -1.4721 -1.2326 0
M  V30 1420 O 132.878 -1.97577 -1.82255 0
M  V30 1421 C 131.149 -3.57298 0.085482 0
M  V30 1422 S 132.708 -4.37394 -0.351015 0
M  V30 1423 H 129.526 -0.709006 0.0532183 0
M  V30 1424 H 132.128 -1.77709 0.81484 0
M  V30 1425 H 130.832 -3.9619 1.0706 0
M  V30 1426 H 130.363 -3.88244 -0.634835 0
M  V30 1427 H 132.378 -4.69734 -1.59889 0
M  V30 1428 N 131.551 -0.354651 -1.53558 0
M  V30 1429 C 132.514 0.484566 -2.24019 0
M  V30 1430 C 133.514 1.01861 -1.24422 0
M  V30 1431 O 134.704 0.906097 -1.4878 0
M  V30 1432 C 131.836 1.67615 -2.96847 0
M  V30 1433 H 133.029 -0.131843 -2.9961 0
M  V30 1434 H 130.582 -0.106165 -1.55939 0
M  V30 1435 H 131.317 2.33095 -2.25471 0
M  V30 1436 H 131.102 1.30029 -3.69912 0
M  V30 1437 H 132.592 2.27114 -3.50441 0
M  V30 1438 N 133.029 1.57378 -0.0835403 0
M  V30 1439 C 134.277 1.93547 0.581718 0
M  V30 1440 C 134.598 0.96524 1.69435 0
M  V30 1441 O 133.868 0.0153369 1.95894 0
M  V30 1442 H 132.448 0.714521 0.217874 0
M  V30 1443 H 135.11 1.94366 -0.144158 0
M  V30 1444 H 134.206 2.95665 0.999423 0
M  V30 1445 N 134.507 -0.190092 1.56449 0
M  V30 1446 C 135.753 -0.911052 1.81184 0
M  V30 1447 C 136.086 -1.82699 0.658396 0
M  V30 1448 O 135.361 -1.91491 -0.340775 0
M  V30 1449 C 135.644 -1.72297 3.16205 0
M  V30 1450 C 135.497 -0.831419 4.42049 0
M  V30 1451 C 136.816 -2.69454 3.47969 0
M  V30 1452 H 133.935 -0.32977 0.659106 0
M  V30 1453 H 136.577 -0.178169 1.89163 0
M  V30 1454 H 134.727 -2.34778 3.09534 0
M  V30 1455 H 136.399 -0.220929 4.60771 0
M  V30 1456 H 134.642 -0.138406 4.33579 0
M  V30 1457 H 135.313 -1.43461 5.33032 0
M  V30 1458 H 137.789 -2.17104 3.54972 0
M  V30 1459 H 136.665 -3.23342 4.43555 0
M  V30 1460 H 136.926 -3.48744 2.71717 0
M  V30 1461 N 135.985 -1.50799 -0.457987 0
M  V30 1462 C 137.262 -1.52968 -1.21902 0
M  V30 1463 C 137.642 -0.281906 -2.09209 0
M  V30 1464 O 136.99 0.734076 -2.16388 0
M  V30 1465 C 137.2 -2.8326 -2.03875 0
M  V30 1466 C 138.548 -3.34425 -2.6162 0
M  V30 1467 O 139.572 -2.8467 -2.14106 0
M  V30 1468 O 138.431 -4.21188 -3.48228 0
M  V30 1469 H 135.525 -0.614129 -0.553873 0
M  V30 1470 H 138.071 -1.63098 -0.468739 0
M  V30 1471 H 136.843 -3.65543 -1.39621 0
M  V30 1472 H 136.466 -2.76195 -2.8601 0
M  V30 1473 N 137.463 0.71206 -1.40597 0
M  V30 1474 C 138.693 1.49894 -1.42181 0
M  V30 1475 C 139.101 1.89189 -0.0208078 0
M  V30 1476 O 138.444 1.56223 0.966436 0
M  V30 1477 C 138.506 2.80215 -2.25211 0
M  V30 1478 C 138.17 2.63221 -3.73582 0
M  V30 1479 C 139.167 2.30249 -4.66135 0
M  V30 1480 C 136.852 2.79376 -4.17438 0
M  V30 1481 C 138.846 2.13645 -6.00529 0
M  V30 1482 C 136.533 2.6239 -5.51901 0
M  V30 1483 C 137.531 2.29573 -6.43262 0
M  V30 1484 O 137.219 2.12719 -7.75246 0
M  V30 1485 H 136.951 0.469031 -0.486812 0
M  V30 1486 H 139.505 0.88564 -1.85326 0
M  V30 1487 H 137.735 3.4389 -1.76852 0
M  V30 1488 H 139.424 3.41947 -2.18694 0
M  V30 1489 H 140.19 2.17398 -4.33547 0
M  V30 1490 H 136.069 3.03906 -3.46644 0
M  V30 1491 H 139.613 1.87953 -6.71803 0
M  V30 1492 H 135.51 2.74826 -5.84073 0
M  V30 1493 H 136.278 2.27611 -7.86216 0
M  V30 1494 N 138.941 1.26152 0.944643 0
M  V30 1495 C 140.187 1.11657 1.69294 0
M  V30 1496 C 140.52 -0.339926 1.91202 0
M  V30 1497 O 139.795 -1.24994 1.49019 0
M  V30 1498 C 140.078 1.88236 3.06984 0
M  V30 1499 C 139.931 3.41772 2.92424 0
M  V30 1500 C 141.25 1.67343 4.07043 0
M  V30 1501 H 138.369 0.407004 0.614424 0
M  V30 1502 H 141.011 1.55106 1.09737 0
M  V30 1503 H 139.161 1.51308 3.57824 0
M  V30 1504 H 140.833 3.88433 2.48832 0
M  V30 1505 H 139.076 3.68974 2.28124 0
M  V30 1506 H 139.747 3.90579 3.90067 0
M  V30 1507 H 142.223 1.99509 3.65151 0
M  V30 1508 H 141.099 2.23346 5.01406 0
M  V30 1509 H 141.36 0.617158 4.37771 0
M  V30 1510 N 140.419 -1.14872 1.07899 0
M  V30 1511 C 141.349 -2.2193 0.725887 0
M  V30 1512 C 142.33 -1.67622 -0.28927 0
M  V30 1513 O 143.515 -1.93533 -0.160787 0
M  V30 1514 C 140.645 -3.47061 0.128856 0
M  V30 1515 C 139.599 -4.14363 1.07178 0
M  V30 1516 C 138.925 -5.33636 0.337229 0
M  V30 1517 C 140.225 -4.63492 2.40775 0
M  V30 1518 H 141.919 -2.51724 1.62097 0
M  V30 1519 H 139.465 -1.20991 0.780838 0
M  V30 1520 H 141.418 -4.21199 -0.130147 0
M  V30 1521 H 140.142 -3.16617 -0.80134 0
M  V30 1522 H 138.801 -3.42173 1.3158 0
M  V30 1523 H 138.449 -4.99449 -0.596606 0
M  V30 1524 H 138.149 -5.79609 0.965788 0
M  V30 1525 H 139.673 -6.10539 0.0861567 0
M  V30 1526 H 141.087 -5.2913 2.20669 0
M  V30 1527 H 139.484 -5.20148 2.99276 0
M  V30 1528 H 140.554 -3.78834 3.02676 0
M  V30 1529 N 141.898 -0.863906 -1.31812 0
M  V30 1530 C 142.848 -0.286898 -2.26188 0
M  V30 1531 C 143.832 0.572577 -1.50367 0
M  V30 1532 O 145.024 0.420447 -1.71934 0
M  V30 1533 C 142.153 0.515849 -3.39402 0
M  V30 1534 C 141.239 -0.356531 -4.22599 0
M  V30 1535 N 141.63 -1.44716 -4.84656 0
M  V30 1536 C 139.928 -0.147898 -4.45755 0
M  V30 1537 C 140.629 -1.98462 -5.46798 0
M  V30 1538 N 139.605 -1.28247 -5.28255 0
M  V30 1539 H 143.407 -1.12055 -2.717 0
M  V30 1540 H 140.921 -0.711012 -1.46008 0
M  V30 1541 H 142.918 0.945701 -4.06032 0
M  V30 1542 H 141.578 1.34718 -2.95434 0
M  V30 1543 H 142.589 -1.83008 -4.84488 0
M  V30 1544 H 139.266 0.647973 -4.12441 0
M  V30 1545 H 140.656 -2.89932 -6.06126 0
M  V30 1546 N 143.376 1.44774 -0.622745 0
M  V30 1547 C 144.308 2.28856 0.125485 0
M  V30 1548 C 145.321 1.40811 0.817069 0
M  V30 1549 O 146.51 1.65044 0.679918 0
M  V30 1550 C 143.61 3.16963 1.19949 0
M  V30 1551 C 142.783 4.33374 0.592064 0
M  V30 1552 C 141.842 5.02577 1.55893 0
M  V30 1553 O 140.868 5.58873 1.07933 0
M  V30 1554 N 142.07 5.03256 2.89334 0
M  V30 1555 H 144.835 2.93713 -0.596068 0
M  V30 1556 H 142.396 1.55129 -0.463303 0
M  V30 1557 H 144.388 3.60123 1.84644 0
M  V30 1558 H 142.958 2.53913 1.82337 0
M  V30 1559 H 142.178 3.93509 -0.233322 0
M  V30 1560 H 143.466 5.08527 0.166738 0
M  V30 1561 H 142.864 4.58836 3.30887 0
M  V30 1562 H 141.421 5.50232 3.49412 0
M  V30 1563 N 144.854 0.36279 1.53368 0
M  V30 1564 C 145.817 -0.472679 2.24273 0
M  V30 1565 C 146.817 -1.012 1.24961 0
M  V30 1566 O 148.007 -0.898194 1.49259 0
M  V30 1567 C 145.139 -1.66039 2.97731 0
M  V30 1568 H 146.332 0.14773 2.99536 0
M  V30 1569 H 143.885 0.114434 1.55881 0
M  V30 1570 H 144.62 -2.31896 2.26704 0
M  V30 1571 H 144.405 -1.28066 3.70596 0
M  V30 1572 H 145.895 -2.25252 3.51641 0
M  V30 1573 N 146.332 -1.57332 0.0918853 0
M  V30 1574 C 147.295 -2.12708 -0.85369 0
M  V30 1575 C 148.295 -1.05561 -1.213 0
M  V30 1576 O 149.485 -1.31461 -1.14296 0
M  V30 1577 C 146.617 -2.64503 -2.15061 0
M  V30 1578 H 147.81 -2.97573 -0.3729 0
M  V30 1579 H 145.363 -1.55509 -0.157072 0
M  V30 1580 H 146.098 -1.83149 -2.67632 0
M  V30 1581 H 145.883 -3.4284 -1.90272 0
M  V30 1582 H 147.373 -3.07351 -2.82711 0
M  V30 1583 N 147.81 0.181792 -1.56548 0
M  V30 1584 C 148.74 1.22765 -1.98623 0
M  V30 1585 C 149.721 1.46747 -0.860189 0
M  V30 1586 O 150.906 1.58259 -1.12551 0
M  V30 1587 C 148.036 2.56894 -2.33715 0
M  V30 1588 C 146.99 2.475 -3.49182 0
M  V30 1589 C 146.316 3.86023 -3.69986 0
M  V30 1590 C 147.616 1.98866 -4.82959 0
M  V30 1591 H 149.31 0.877942 -2.86239 0
M  V30 1592 H 146.856 0.42088 -1.37712 0
M  V30 1593 H 148.809 3.30253 -2.61746 0
M  V30 1594 H 147.533 2.93632 -1.42997 0
M  V30 1595 H 146.192 1.76596 -3.21262 0
M  V30 1596 H 145.84 4.20136 -2.76576 0
M  V30 1597 H 145.54 3.80609 -4.47672 0
M  V30 1598 H 147.064 4.60984 -4.00407 0
M  V30 1599 H 148.478 2.61992 -5.09934 0
M  V30 1600 H 146.875 2.04424 -5.64208 0
M  V30 1601 H 147.945 0.942465 -4.75653 0
M  V30 1602 N 149.288 1.51039 0.449983 0
M  V30 1603 C 150.536 1.62759 1.19808 0
M  V30 1604 C 150.857 0.339981 1.92013 0
M  V30 1605 O 150.127 -0.643606 1.85026 0
M  V30 1606 H 148.707 0.599811 0.445237 0
M  V30 1607 H 151.369 1.87914 0.517138 0
M  V30 1608 H 150.465 2.44911 1.93455 0
M  V30 1609 N 150.766 -0.704594 1.40972 0
M  V30 1610 C 151.991 -1.49858 1.43378 0
M  V30 1611 C 152.416 -1.88061 0.038184 0
M  V30 1612 O 151.774 -1.5402 -0.956425 0
M  V30 1613 C 151.822 -2.74333 2.34038 0
M  V30 1614 O 150.926 -3.7147 1.7912 0
M  V30 1615 H 150.267 -0.45139 0.486974 0
M  V30 1616 H 152.797 -0.866832 1.8533 0
M  V30 1617 H 152.807 -3.22741 2.49604 0
M  V30 1618 H 151.482 -2.45863 3.35446 0
M  V30 1619 H 150.059 -3.30363 1.72958 0
M  V30 1620 N 152.244 -1.26651 -0.937939 0
M  V30 1621 C 153.49 -1.12553 -1.687 0
M  V30 1622 C 153.823 0.329782 -1.91379 0
M  V30 1623 O 153.098 1.24202 -1.4968 0
M  V30 1624 C 153.381 -1.89862 -3.05981 0
M  V30 1625 C 153.234 -3.43318 -2.90607 0
M  V30 1626 C 154.553 -1.69499 -4.0615 0
M  V30 1627 H 151.672 -0.410257 -0.612257 0
M  V30 1628 H 154.314 -1.55685 -1.08913 0
M  V30 1629 H 152.464 -1.53204 -3.57017 0
M  V30 1630 H 154.136 -3.89747 -2.46769 0
M  V30 1631 H 152.379 -3.70179 -2.26164 0
M  V30 1632 H 153.05 -3.92642 -3.8799 0
M  V30 1633 H 155.526 -2.01442 -3.64088 0
M  V30 1634 H 154.402 -2.26002 -5.00214 0
M  V30 1635 H 154.663 -0.640365 -4.37438 0
M  V30 1636 N 153.722 1.14298 -1.08507 0
M  V30 1637 C 155.133 1.66926 -0.836227 0
M  V30 1638 C 155.484 1.85576 0.63686 0
M  V30 1639 O 154.609 1.56767 1.49175 0
M  V30 1640 C 155.204 3.03219 -1.51142 0
M  V30 1641 C 153.763 3.52876 -1.30979 0
M  V30 1642 C 152.91 2.2833 -1.57356 0
M  V30 1643 H 155.861 0.983491 -1.24552 0
M  V30 1644 H 155.882 3.68726 -0.939211 0
M  V30 1645 H 155.394 2.89612 -2.58353 0
M  V30 1646 H 153.495 3.71703 -0.258429 0
M  V30 1647 H 153.608 4.33586 -2.03814 0
M  V30 1648 H 151.972 2.34454 -0.995164 0
M  V30 1649 H 152.755 2.17298 -2.65775 0
M  V30 1650 N 155.201 0.870884 1.31352 0
M  V30 1651 C 156.617 0.562932 1.49343 0
M  V30 1652 C 156.817 -0.902725 1.80148 0
M  V30 1653 O 155.873 -1.68484 1.88067 0
M  V30 1654 C 157.186 1.46393 2.62659 0
M  V30 1655 C 158.734 1.46607 2.76542 0
M  V30 1656 C 159.209 2.35266 3.92955 0
M  V30 1657 N 160.7 2.33151 4.00243 0
M  V30 1658 C 161.435 2.98471 4.89594 0
M  V30 1659 N 160.931 3.72964 5.8384 0
M  V30 1660 N 162.724 2.87775 4.82848 0
M  V30 1661 H 154.875 1.81923 1.09626 0
M  V30 1662 H 157.138 0.777934 0.541777 0
M  V30 1663 H 156.844 2.50689 2.46674 0
M  V30 1664 H 156.718 1.16314 3.58819 0
M  V30 1665 H 159.105 0.43069 2.9194 0
M  V30 1666 H 159.186 1.8071 1.81046 0
M  V30 1667 H 158.83 3.38881 3.78315 0
M  V30 1668 H 158.76 1.98487 4.87761 0
M  V30 1669 H 161.251 1.79006 3.32814 0
M  V30 1670 H 161.564 4.19932 6.4875 0
M  V30 1671 H 159.909 3.77073 5.83816 0
M  V30 1672 H 163.1 2.29116 4.08195 0
M  V30 1673 H 163.273 3.38961 5.52277 0
M  V30 1674 N 156.679 -1.44442 0.630414 0
M  V30 1675 C 157.904 -2.06927 0.139944 0
M  V30 1676 C 158.329 -1.46795 -1.17613 0
M  V30 1677 O 157.687 -0.569144 -1.72135 0
M  V30 1678 C 157.735 -3.6058 0.0379581 0
M  V30 1679 O 156.839 -3.99937 -1.0062 0
M  V30 1680 H 156.18 -0.658608 0.0844483 0
M  V30 1681 H 158.71 -1.85327 0.866891 0
M  V30 1682 H 158.72 -4.07714 -0.152856 0
M  V30 1683 H 157.395 -4.03728 0.998809 0
M  V30 1684 H 155.972 -3.64436 -0.79001 0
M  V30 1685 N 158.157 -0.370918 -1.53173 0
M  V30 1686 C 159.406 0.218249 -2.00516 0
M  V30 1687 C 159.719 1.49429 -1.26215 0
M  V30 1688 O 160.925 2.16239 -1.64174 0
M  V30 1689 C 159.381 0.43948 -3.57207 0
M  V30 1690 C 158.989 -0.822244 -4.4039 0
M  V30 1691 C 160.733 0.986012 -4.1289 0
M  V30 1692 C 158.64 -0.570304 -5.88644 0
M  V30 1693 H 157.57 0.0853333 -0.749156 0
M  V30 1694 H 160.221 -0.490483 -1.76823 0
M  V30 1695 H 158.603 1.20961 -3.77074 0
M  V30 1696 H 159.777 -1.59557 -4.32294 0
M  V30 1697 H 158.092 -1.29238 -3.95836 0
M  V30 1698 H 160.689 1.18991 -5.21292 0
M  V30 1699 H 161.032 1.94972 -3.6782 0
M  V30 1700 H 161.565 0.27592 -3.96842 0
M  V30 1701 H 158.304 -1.50449 -6.38001 0
M  V30 1702 H 157.824 0.164427 -5.99575 0
M  V30 1703 H 159.503 -0.19784 -6.46697 0
M  V30 1704 N 159.635 1.57281 -0.100228 0
M  V30 1705 C 160.583 2.15542 0.874328 0
M  V30 1706 C 161.577 1.09962 1.28859 0
M  V30 1707 O 162.783 1.28298 1.26252 0
M  V30 1708 H 159.158 0.689567 0.300003 0
M  V30 1709 H 161.129 2.96241 0.35829 0
M  V30 1710 C 159.878 2.75454 2.1218 0
M  V30 1711 H 159.201 3.56384 1.81193 0
M  V30 1712 H 160.641 3.19781 2.78417 0
M  V30 1713 C 159.1 1.71602 2.89921 0
M  V30 1714 O 159.63 1.15804 3.84646 0
M  V30 1715 N 157.836 1.41975 2.53558 0
M  V30 1716 H 157.383 1.87539 1.76598 0
M  V30 1717 H 157.341 0.727274 3.05873 0
M  V30 1718 N 161.113 -0.173488 1.56642 0
M  V30 1719 C 162.39 -0.917617 1.7274 0
M  V30 1720 C 162.77 -2.00484 0.661027 0
M  V30 1721 O 162.118 -2.26184 -0.32453 0
M  V30 1722 C 162.328 -1.48433 3.15862 0
M  V30 1723 C 163.676 -1.95809 3.76754 0
M  V30 1724 O 164.7 -1.58231 3.19126 0
M  V30 1725 O 163.559 -2.65024 4.77938 0
M  V30 1726 H 160.653 -0.431772 0.705338 0
M  V30 1727 H 163.199 -0.161487 1.6893 0
M  V30 1728 H 161.971 -0.701715 3.84957 0
M  V30 1729 H 161.594 -2.30471 3.23989 0
M  V30 1730 N 162.591 -1.51276 -0.441967 0
M  V30 1731 C 164.002 -1.56244 -1.02199 0
M  V30 1732 C 164.353 -0.383149 -1.92422 0
M  V30 1733 O 163.478 0.500613 -2.1053 0
M  V30 1734 C 164.073 -2.83162 -1.86024 0
M  V30 1735 C 162.632 -2.90716 -2.39084 0
M  V30 1736 C 161.779 -2.50858 -1.18175 0
M  V30 1737 H 164.73 -1.5712 -0.223416 0
M  V30 1738 H 164.751 -2.66663 -2.71425 0
M  V30 1739 H 164.263 -3.68974 -1.20331 0
M  V30 1740 H 162.364 -2.09323 -3.08244 0
M  V30 1741 H 162.477 -3.94266 -2.72198 0
M  V30 1742 H 160.841 -2.03951 -1.52565 0
M  V30 1743 H 161.624 -3.3901 -0.541001 0
M  V30 1744 N 164.069 0.697108 -1.41344 0
M  V30 1745 C 165.318 1.45279 -1.39918 0
M  V30 1746 C 165.631 1.95597 -0.0109624 0
M  V30 1747 O 166.837 2.71208 0.125919 0
M  V30 1748 C 165.293 2.62695 -2.46007 0
M  V30 1749 C 164.901 2.19169 -3.90729 0
M  V30 1750 C 166.645 3.40336 -2.53715 0
M  V30 1751 C 164.552 3.33535 -4.88373 0
M  V30 1752 H 163.482 0.545692 -0.520323 0
M  V30 1753 H 166.133 0.756929 -1.67161 0
M  V30 1754 H 164.515 3.34541 -2.11892 0
M  V30 1755 H 165.689 1.54623 -4.34083 0
M  V30 1756 H 164.004 1.54525 -3.86666 0
M  V30 1757 H 166.601 4.2547 -3.2385 0
M  V30 1758 H 166.944 3.85418 -1.5735 0
M  V30 1759 H 167.477 2.75546 -2.86913 0
M  V30 1760 H 164.216 2.93468 -5.86137 0
M  V30 1761 H 163.736 3.96936 -4.49668 0
M  V30 1762 H 165.415 3.99335 -5.09059 0
M  V30 1763 N 165.547 1.27147 0.931209 0
M  V30 1764 C 166.775 1.16082 1.71267 0
M  V30 1765 C 167.19 -0.282772 1.8667 0
M  V30 1766 O 166.547 -1.19283 1.38122 0
M  V30 1767 C 166.598 1.8358 3.11417 0
M  V30 1768 O 166.319 3.22299 2.96741 0
M  V30 1769 C 167.82 1.78597 4.05732 0
M  V30 1770 H 165.04 0.403758 0.535929 0
M  V30 1771 H 167.584 1.67953 1.16671 0
M  V30 1772 H 165.739 1.35623 3.62885 0
M  V30 1773 H 166.153 3.55851 3.85319 0
M  V30 1774 H 167.627 2.30444 5.01597 0
M  V30 1775 H 168.104 0.754564 4.3267 0
M  V30 1776 H 168.71 2.26152 3.60188 0
M  V30 1777 N 167.025 -1.13721 1.09112 0
M  V30 1778 C 168.25 -1.89314 0.847053 0
M  V30 1779 C 168.675 -1.78416 -0.595774 0
M  V30 1780 O 168.033 -1.12942 -1.41823 0
M  V30 1781 C 168.081 -3.3701 1.28284 0
M  V30 1782 O 167.185 -4.10054 0.439267 0
M  V30 1783 H 166.526 -0.588745 0.307044 0
M  V30 1784 H 169.056 -1.43902 1.45442 0
M  V30 1785 H 169.066 -3.87834 1.26683 0
M  V30 1786 H 167.741 -3.4426 2.33363 0
M  V30 1787 H 166.318 -3.69266 0.519312 0
M  V30 1788 N 168.503 -0.877838 -1.30888 0
M  V30 1789 C 169.451 -0.328662 -2.30266 0
M  V30 1790 C 170.445 0.560496 -1.59859 0
M  V30 1791 O 171.651 0.445722 -1.74394 0
M  V30 1792 H 168.026 -0.0876142 -0.746879 0
M  V30 1793 H 169.997 -1.18061 -2.74051 0
M  V30 1794 C 168.746 0.448071 -3.44801 0
M  V30 1795 H 168.069 -0.226859 -3.99156 0
M  V30 1796 H 169.509 0.797541 -4.16432 0
M  V30 1797 C 167.968 1.64239 -2.94155 0
M  V30 1798 O 168.498 2.74175 -2.93583 0
M  V30 1799 N 166.704 1.47716 -2.50256 0
M  V30 1800 H 166.251 0.582821 -2.5092 0
M  V30 1801 H 166.209 2.27765 -2.16727 0
M  V30 1802 N 169.982 1.44106 -0.638065 0
M  V30 1803 C 170.945 2.29138 0.0531013 0
M  V30 1804 C 171.945 1.41409 0.765506 0
M  V30 1805 O 173.135 1.63206 0.609046 0
M  V30 1806 C 170.267 3.23144 1.08584 0
M  V30 1807 H 171.46 2.91739 -0.694883 0
M  V30 1808 H 169.013 1.51134 -0.398538 0
M  V30 1809 H 169.748 2.65408 1.86357 0
M  V30 1810 H 169.533 3.87804 0.578852 0
M  V30 1811 H 171.023 3.87004 1.56899 0
M  V30 1812 N 171.46 0.379036 1.52974 0
M  V30 1813 C 172.688 -0.20679 2.05864 0
M  V30 1814 C 173.103 -1.41356 1.25155 0
M  V30 1815 O 172.46 -1.8009 0.295588 0
M  V30 1816 C 172.511 -0.587045 3.56702 0
M  V30 1817 O 172.232 0.571776 4.34353 0
M  V30 1818 C 173.733 -1.22983 4.25899 0
M  V30 1819 H 170.953 -0.0336123 0.670158 0
M  V30 1820 H 173.497 0.541298 1.97206 0
M  V30 1821 H 171.652 -1.28504 3.65466 0
M  V30 1822 H 172.066 0.261544 5.23847 0
M  V30 1823 H 173.54 -1.44635 5.32715 0
M  V30 1824 H 174.017 -2.19416 3.80465 0
M  V30 1825 H 174.623 -0.572892 4.21424 0
M  V30 1826 N 172.938 -1.57226 0.108567 0
M  V30 1827 C 173.886 -2.16002 -0.862885 0
M  V30 1828 C 174.88 -1.10644 -1.28274 0
M  V30 1829 O 176.086 -1.28966 -1.2557 0
M  V30 1830 H 172.461 -0.691148 -0.296342 0
M  V30 1831 H 174.432 -2.96427 -0.342575 0
M  V30 1832 C 173.181 -2.76576 -2.10716 0
M  V30 1833 H 172.504 -3.5734 -1.793 0
M  V30 1834 H 173.944 -3.21253 -2.76717 0
M  V30 1835 C 172.403 -1.73137 -2.89007 0
M  V30 1836 O 172.933 -1.17842 -3.84026 0
M  V30 1837 N 171.139 -1.43317 -2.52801 0
M  V30 1838 H 170.686 -1.88473 -1.75601 0
M  V30 1839 H 170.644 -0.743485 -3.05483 0
M  V30 1840 N 174.416 0.165178 -1.56732 0
M  V30 1841 C 175.665 0.879143 -1.81532 0
M  V30 1842 C 175.978 1.83144 -0.686842 0
M  V30 1843 O 177.184 2.58823 -0.819944 0
M  V30 1844 C 175.64 1.61388 -3.21686 0
M  V30 1845 C 175.248 0.704904 -4.4242 0
M  V30 1846 C 176.992 2.3157 -3.55774 0
M  V30 1847 C 174.899 1.44022 -5.73595 0
M  V30 1848 H 173.829 0.332033 -0.676957 0
M  V30 1849 H 176.48 0.132008 -1.83025 0
M  V30 1850 H 174.862 2.40599 -3.14529 0
M  V30 1851 H 176.036 -0.0506815 -4.60772 0
M  V30 1852 H 174.351 0.112419 -4.16248 0
M  V30 1853 H 176.948 2.8719 -4.51028 0
M  V30 1854 H 177.291 3.07201 -2.8095 0
M  V30 1855 H 177.824 1.59297 -3.64513 0
M  V30 1856 H 174.563 0.72612 -6.51466 0
M  V30 1857 H 174.083 2.16898 -5.5921 0
M  V30 1858 H 175.762 1.98606 -6.15764 0
M  V30 1859 N 175.894 1.51508 0.433938 0
M  V30 1860 C 177.171 1.54888 1.19453 0
M  V30 1861 C 177.551 0.315154 2.08734 0
M  V30 1862 O 176.899 -0.699558 2.17528 0
M  V30 1863 C 177.109 2.86467 1.99342 0
M  V30 1864 C 178.457 3.38545 2.56267 0
M  V30 1865 O 179.481 2.88041 2.0955 0
M  V30 1866 O 178.34 4.26675 3.41483 0
M  V30 1867 H 175.434 0.622863 0.544032 0
M  V30 1868 H 177.98 1.63823 0.442732 0
M  V30 1869 H 176.752 3.67718 1.33788 0
M  V30 1870 H 176.375 2.8071 2.8158 0
M  V30 1871 N 177.372 -0.689602 1.41712 0
M  V30 1872 C 178.62 -1.4468 1.4111 0
M  V30 1873 C 178.941 -1.94986 0.0232196 0
M  V30 1874 O 178.211 -1.72097 -0.935913 0
M  V30 1875 H 176.791 -0.536847 0.519427 0
M  V30 1876 H 179.453 -0.815825 1.77004 0
M  V30 1877 H 178.549 -2.30706 2.10193 0
M  V30 1878 N 178.85 -1.27639 -0.924453 0
M  V30 1879 C 180.097 -1.14167 -1.67249 0
M  V30 1880 C 180.425 0.311863 -1.91984 0
M  V30 1881 O 179.68 1.24425 -1.51053 0
M  V30 1882 C 179.979 -1.87407 -3.04325 0
M  V30 1883 C 179.645 -3.37249 -2.99289 0
M  V30 1884 C 178.307 -3.7812 -2.97622 0
M  V30 1885 C 180.659 -4.32845 -2.90336 0
M  V30 1886 C 177.987 -5.12944 -2.8479 0
M  V30 1887 C 180.339 -5.6773 -2.79045 0
M  V30 1888 C 179.003 -6.07889 -2.7573 0
M  V30 1889 H 178.273 -0.417766 -0.612007 0
M  V30 1890 H 180.92 -1.58286 -1.07786 0
M  V30 1891 H 179.225 -1.35805 -3.67511 0
M  V30 1892 H 180.922 -1.74408 -3.61086 0
M  V30 1893 H 177.512 -3.04748 -3.01374 0
M  V30 1894 H 181.696 -4.02239 -2.90719 0
M  V30 1895 H 176.952 -5.432 -2.80612 0
M  V30 1896 H 181.126 -6.41472 -2.71083 0
M  V30 1897 H 178.753 -7.12314 -2.65544 0
M  V30 1898 N 180.328 1.1314 -1.09713 0
M  V30 1899 C 181.258 2.20748 -0.761102 0
M  V30 1900 C 182.239 1.68061 0.262566 0
M  V30 1901 O 183.424 1.93765 0.129977 0
M  V30 1902 C 180.554 3.46812 -0.184054 0
M  V30 1903 C 179.508 4.12606 -1.13757 0
M  V30 1904 C 178.834 5.33031 -0.422083 0
M  V30 1905 C 180.134 4.59603 -2.48118 0
M  V30 1906 H 181.828 2.49113 -1.66082 0
M  V30 1907 H 179.374 1.19734 -0.799987 0
M  V30 1908 H 181.327 4.21353 0.0631215 0
M  V30 1909 H 180.051 3.17851 0.750868 0
M  V30 1910 H 178.71 3.40036 -1.37007 0
M  V30 1911 H 178.358 5.00335 0.517072 0
M  V30 1912 H 178.058 5.77999 -1.05788 0
M  V30 1913 H 179.582 6.10325 -0.183277 0
M  V30 1914 H 180.996 5.25552 -2.29059 0
M  V30 1915 H 179.393 5.15321 -3.07514 0
M  V30 1916 H 180.463 3.73971 -3.08665 0
M  V30 1917 N 181.806 0.884767 1.30421 0
M  V30 1918 C 182.754 0.340869 2.30089 0
M  V30 1919 C 183.748 -0.55201 1.60154 0
M  V30 1920 O 184.954 -0.436467 1.74628 0
M  V30 1921 H 181.329 0.0915739 0.746404 0
M  V30 1922 H 183.3 1.19513 2.73421 0
M  V30 1923 C 182.049 -0.429779 3.45034 0
M  V30 1924 H 181.372 0.248024 3.9903 0
M  V30 1925 H 182.812 -0.775445 4.16849 0
M  V30 1926 C 181.271 -1.62677 2.95022 0
M  V30 1927 O 181.801 -2.72614 2.95033 0
M  V30 1928 N 180.007 -1.46387 2.51036 0
M  V30 1929 H 179.554 -0.569506 2.51226 0
M  V30 1930 H 179.512 -2.26612 2.17932 0
M  V30 1931 N 183.284 -1.43765 0.645699 0
M  V30 1932 C 184.217 -2.2798 -0.100072 0
M  V30 1933 C 185.195 -1.39391 -0.837194 0
M  V30 1934 O 186.379 -1.68833 -0.838306 0
M  V30 1935 C 183.506 -3.18643 -1.14823 0
M  V30 1936 C 182.552 -4.2344 -0.510009 0
M  V30 1937 S 183.385 -5.30761 0.710824 0
M  V30 1938 C 184.541 -6.24992 -0.33699 0
M  V30 1939 H 184.774 -2.90884 0.614322 0
M  V30 1940 H 182.307 -1.48166 0.434304 0
M  V30 1941 H 184.265 -3.71424 -1.74799 0
M  V30 1942 H 182.926 -2.54932 -1.8349 0
M  V30 1943 H 182.119 -4.86948 -1.29991 0
M  V30 1944 H 181.721 -3.73997 0.0154577 0
M  V30 1945 H 184.013 -6.66691 -1.20537 0
M  V30 1946 H 184.956 -7.07612 0.262879 0
M  V30 1947 H 185.364 -5.60517 -0.669425 0
M  V30 1948 N 184.763 -0.387143 -1.52771 0
M  V30 1949 C 185.693 0.440551 -2.29306 0
M  V30 1950 C 186.674 1.06535 -1.32606 0
M  V30 1951 O 187.859 1.07853 -1.61497 0
M  V30 1952 C 184.989 1.56919 -3.09829 0
M  V30 1953 C 183.943 1.07054 -4.14395 0
M  V30 1954 C 183.269 2.29109 -4.83129 0
M  V30 1955 C 184.569 0.140015 -5.22112 0
M  V30 1956 H 186.263 -0.198026 -2.98744 0
M  V30 1957 H 183.809 -0.09668 -1.43675 0
M  V30 1958 H 185.762 2.15503 -3.62128 0
M  V30 1959 H 184.486 2.23532 -2.3812 0
M  V30 1960 H 183.145 0.507247 -3.63074 0
M  V30 1961 H 182.793 2.94227 -4.0797 0
M  V30 1962 H 182.493 1.96406 -5.53804 0
M  V30 1963 H 184.017 2.88339 -5.38231 0
M  V30 1964 H 185.431 0.633978 -5.69784 0
M  V30 1965 H 183.828 -0.0971485 -6.00021 0
M  V30 1966 H 184.898 -0.811711 -4.78058 0
M  V30 1967 N 186.241 1.57166 -0.116904 0
M  V30 1968 C 187.49 1.94298 0.541407 0
M  V30 1969 C 187.803 1.00236 1.67964 0
M  V30 1970 O 189.009 1.26826 2.40057 0
M  V30 1971 C 187.465 3.45306 1.01449 0
M  V30 1972 C 187.073 4.47899 -0.0951738 0
M  V30 1973 C 188.817 3.91361 1.6443 0
M  V30 1974 C 186.724 5.90083 0.394491 0
M  V30 1975 H 185.654 0.725308 0.206019 0
M  V30 1976 H 188.305 1.82446 -0.196419 0
M  V30 1977 H 186.687 3.52385 1.80667 0
M  V30 1978 H 187.861 4.52486 -0.871374 0
M  V30 1979 H 186.176 4.11583 -0.631505 0
M  V30 1980 H 188.773 4.95004 2.02176 0
M  V30 1981 H 189.116 3.3122 2.52189 0
M  V30 1982 H 189.649 3.87073 0.917559 0
M  V30 1983 H 186.388 6.53974 -0.447004 0
M  V30 1984 H 185.908 5.88921 1.13722 0
M  V30 1985 H 187.587 6.41307 0.856399 0
M  V30 1986 N 187.719 -0.156864 1.56817 0
M  V30 1987 C 188.682 -1.17781 1.96622 0
M  V30 1988 C 189.682 -1.36401 0.851555 0
M  V30 1989 O 190.872 -1.33561 1.11836 0
M  V30 1990 C 188.004 -2.54008 2.27361 0
M  V30 1991 H 189.197 -0.836564 2.87996 0
M  V30 1992 H 186.75 -0.39985 1.51099 0
M  V30 1993 H 187.485 -2.9312 1.38748 0
M  V30 1994 H 187.27 -2.41856 3.08623 0
M  V30 1995 H 188.76 -3.27558 2.59029 0
M  V30 1996 N 189.197 -1.51736 -0.425897 0
M  V30 1997 C 190.16 -1.73271 -1.50032 0
M  V30 1998 C 191.16 -0.602639 -1.4908 0
M  V30 1999 O 192.35 -0.87033 -1.509 0
M  V30 2000 C 189.482 -1.79969 -2.89523 0
M  V30 2001 H 190.675 -2.69172 -1.32237 0
M  V30 2002 H 188.228 -1.41899 -0.65532 0
M  V30 2003 H 188.963 -0.859241 -3.1271 0
M  V30 2004 H 188.748 -2.62109 -2.91619 0
M  V30 2005 H 190.238 -1.9843 -3.67444 0
M  V30 2006 N 190.675 0.682077 -1.42076 0
M  V30 2007 C 192.091 0.994324 -1.24841 0
M  V30 2008 C 192.291 2.0096 -0.147389 0
M  V30 2009 O 191.347 2.47822 0.483782 0
M  V30 2010 C 192.66 1.50607 -2.60265 0
M  V30 2011 C 194.208 1.62421 -2.6756 0
M  V30 2012 C 194.683 2.16994 -4.03333 0
M  V30 2013 N 196.174 2.24337 -4.0525 0
M  V30 2014 C 196.909 2.67621 -5.07116 0
M  V30 2015 N 196.405 3.1041 -6.19368 0
M  V30 2016 N 198.198 2.67305 -4.94474 0
M  V30 2017 H 190.349 0.00973908 -2.12398 0
M  V30 2018 H 192.612 0.0668593 -0.945639 0
M  V30 2019 H 192.318 0.834583 -3.41654 0
M  V30 2020 H 192.192 2.48602 -2.83684 0
M  V30 2021 H 194.579 2.28678 -1.86521 0
M  V30 2022 H 194.66 0.629352 -2.47937 0
M  V30 2023 H 194.304 1.51349 -4.84826 0
M  V30 2024 H 194.234 3.17258 -4.20304 0
M  V30 2025 H 196.725 1.94158 -3.24209 0
M  V30 2026 H 197.038 3.42103 -6.92954 0
M  V30 2027 H 195.383 3.08286 -6.22884 0
M  V30 2028 H 198.574 2.33233 -4.05857 0
M  V30 2029 H 198.747 3.00718 -5.73997 0
M  V30 2030 N 192.153 1.28127 0.917671 0
M  V30 2031 C 193.43 1.05761 1.64542 0
M  V30 2032 C 193.81 -0.404344 2.07191 0
M  V30 2033 O 193.158 -1.38963 1.81388 0
M  V30 2034 C 193.368 2.02857 2.83989 0
M  V30 2035 C 194.716 2.32786 3.551 0
M  V30 2036 O 195.74 2.0091 2.94132 0
M  V30 2037 O 194.599 2.87169 4.64969 0
M  V30 2038 H 191.693 0.403916 0.721652 0
M  V30 2039 H 194.239 1.39431 0.967322 0
M  V30 2040 H 193.011 3.01407 2.49538 0
M  V30 2041 H 192.634 1.69809 3.59514 0
M  V30 2042 N 193.631 -1.12557 1.10312 0
M  V30 2043 C 194.594 -2.16434 0.75424 0
M  V30 2044 C 195.594 -1.59278 -0.220685 0
M  V30 2045 O 196.784 -1.742 0.00230591 0
M  V30 2046 C 193.916 -3.40699 0.116987 0
M  V30 2047 H 195.109 -2.48811 1.67431 0
M  V30 2048 H 192.662 -1.27542 0.903475 0
M  V30 2049 H 193.397 -3.13921 -0.813877 0
M  V30 2050 H 193.182 -3.83459 0.818613 0
M  V30 2051 H 194.672 -4.17451 -0.111387 0
M  V30 2052 N 195.109 -0.891671 -1.2995 0
M  V30 2053 C 196.056 -0.361736 -2.27948 0
M  V30 2054 C 197.026 0.551761 -1.56668 0
M  V30 2055 O 198.211 0.478736 -1.84696 0
M  V30 2056 C 195.351 0.411825 -3.42634 0
M  V30 2057 C 194.464 -0.531651 -4.28716 0
M  V30 2058 C 193.599 0.258167 -5.30572 0
M  V30 2059 C 192.638 -0.680349 -6.08307 0
M  V30 2060 N 191.775 0.0745613 -7.0206 0
M  V30 2061 H 196.615 -1.20254 -2.72659 0
M  V30 2062 H 194.152 -0.604352 -1.34112 0
M  V30 2063 H 196.11 0.876304 -4.07893 0
M  V30 2064 H 194.74 1.21715 -2.98974 0
M  V30 2065 H 193.792 -1.11463 -3.63703 0
M  V30 2066 H 195.104 -1.25038 -4.82874 0
M  V30 2067 H 194.258 0.784204 -6.0161 0
M  V30 2068 H 192.997 1.01008 -4.77126 0
M  V30 2069 H 192.002 -1.21796 -5.3614 0
M  V30 2070 H 193.227 -1.43145 -6.63842 0
M  V30 2071 H 191.173 0.808883 -6.50994 0
M  V30 2072 H 191.09 -0.584409 -7.53738 0
M  V30 2073 H 192.358 0.581123 -7.77331 0
M  V30 2074 N 196.587 1.43421 -0.653314 0
M  V30 2075 C 197.833 2.02111 -0.166992 0
M  V30 2076 C 198.166 1.51423 1.21592 0
M  V30 2077 O 197.441 0.707389 1.8118 0
M  V30 2078 C 197.724 3.5966 -0.177948 0
M  V30 2079 C 197.577 4.20579 -1.59478 0
M  V30 2080 C 198.896 4.37413 0.4856 0
M  V30 2081 H 196.015 0.734374 -0.0621557 0
M  V30 2082 H 198.657 1.70717 -0.834016 0
M  V30 2083 H 196.807 3.86537 0.390032 0
M  V30 2084 H 198.479 4.04732 -2.21336 0
M  V30 2085 H 196.722 3.77226 -2.14204 0
M  V30 2086 H 197.393 5.29665 -1.5543 0
M  V30 2087 H 199.869 4.161 0.00234528 0
M  V30 2088 H 198.745 5.47075 0.447207 0
M  V30 2089 H 199.006 4.13672 1.55974 0
M  V30 2090 N 198.065 0.39524 1.52563 0
M  V30 2091 C 198.997 -0.472201 2.24283 0
M  V30 2092 C 200.01 -1.02178 1.26742 0
M  V30 2093 O 201.199 -0.923097 1.52778 0
M  V30 2094 C 198.299 -1.66775 2.95024 0
M  V30 2095 C 197.472 -1.2445 4.19322 0
M  V30 2096 C 196.531 -2.30539 4.7301 0
M  V30 2097 O 195.557 -1.91702 5.35947 0
M  V30 2098 N 196.759 -3.6253 4.53379 0
M  V30 2099 H 199.524 0.142282 2.99362 0
M  V30 2100 H 197.085 0.2219 1.60372 0
M  V30 2101 H 199.077 -2.37283 3.27839 0
M  V30 2102 H 197.647 -2.18845 2.23217 0
M  V30 2103 H 196.867 -0.368069 3.92478 0
M  V30 2104 H 198.155 -0.938457 5.0007 0
M  V30 2105 H 197.553 -3.96841 4.03154 0
M  V30 2106 H 196.11 -4.29055 4.90668 0
M  V30 2107 N 199.544 -1.57102 0.125237 0
M  V30 2108 C 200.769 -2.0019 -0.542101 0
M  V30 2109 C 201.194 -1.00449 -1.59034 0
M  V30 2110 O 200.552 0.0229423 -1.81285 0
M  V30 2111 C 200.6 -3.42129 -1.13929 0
M  V30 2112 O 199.704 -3.45307 -2.2547 0
M  V30 2113 H 199.045 -0.650171 -0.134812 0
M  V30 2114 H 201.575 -2.03461 0.215553 0
M  V30 2115 H 201.585 -3.80471 -1.4733 0
M  V30 2116 H 200.26 -4.14237 -0.371531 0
M  V30 2117 H 198.837 -3.1879 -1.93462 0
M  V30 2118 N 201.022 0.148545 -1.56898 0
M  V30 2119 C 202.269 0.861418 -1.83264 0
M  V30 2120 C 202.597 1.81239 -0.705883 0
M  V30 2121 O 201.852 1.93305 0.305212 0
M  V30 2122 C 202.151 1.67064 -3.1595 0
M  V30 2123 C 201.817 0.866591 -4.42494 0
M  V30 2124 C 200.479 0.644762 -4.76861 0
M  V30 2125 C 202.831 0.30418 -5.20312 0
M  V30 2126 C 200.159 -0.15021 -5.86508 0
M  V30 2127 C 202.511 -0.477824 -6.30793 0
M  V30 2128 C 201.175 -0.710244 -6.63711 0
M  V30 2129 H 200.445 0.315215 -0.670612 0
M  V30 2130 H 203.092 0.125142 -1.91091 0
M  V30 2131 H 201.397 2.47698 -3.03567 0
M  V30 2132 H 203.094 2.22566 -3.33565 0
M  V30 2133 H 199.684 1.04955 -4.15551 0
M  V30 2134 H 203.868 0.462844 -4.94137 0
M  V30 2135 H 199.124 -0.339796 -6.10455 0
M  V30 2136 H 203.298 -0.92076 -6.90286 0
M  V30 2137 H 200.925 -1.3281 -7.48509 0
M  V30 2138 N 202.5 1.5196 0.417844 0
M  V30 2139 C 203.728 1.69426 1.18753 0
M  V30 2140 C 204.143 0.399955 1.84515 0
M  V30 2141 O 203.5 -0.623288 1.71527 0
M  V30 2142 C 203.551 2.82375 2.25714 0
M  V30 2143 O 203.272 4.06793 1.62638 0
M  V30 2144 C 204.773 3.11277 3.15628 0
M  V30 2145 H 201.993 0.568031 0.357186 0
M  V30 2146 H 204.537 1.98475 0.49273 0
M  V30 2147 H 202.692 2.5587 2.90877 0
M  V30 2148 H 203.106 4.69667 2.3348 0
M  V30 2149 H 204.58 3.93843 3.86771 0
M  V30 2150 H 205.057 2.24473 3.77503 0
M  V30 2151 H 205.663 3.39515 2.56144 0
M  V30 2152 N 203.978 -0.674533 1.42435 0
M  V30 2153 C 205.208 -1.46071 1.46105 0
M  V30 2154 C 205.616 -1.89067 0.0709605 0
M  V30 2155 O 204.959 -1.58731 -0.924677 0
M  V30 2156 C 205.021 -2.74145 2.32561 0
M  V30 2157 C 204.685 -2.53224 3.8043 0
M  V30 2158 C 205.682 -2.17809 4.72075 0
M  V30 2159 C 203.367 -2.6821 4.24698 0
M  V30 2160 C 205.361 -1.97648 6.05982 0
M  V30 2161 C 203.048 -2.47665 5.58664 0
M  V30 2162 C 204.046 -2.12437 6.49122 0
M  V30 2163 O 203.734 -1.9209 7.80613 0
M  V30 2164 H 203.466 -0.455959 0.499076 0
M  V30 2165 H 206.02 -0.836193 1.87609 0
M  V30 2166 H 204.25 -3.3908 1.85908 0
M  V30 2167 H 205.939 -3.36028 2.27683 0
M  V30 2168 H 206.705 -2.05826 4.39159 0
M  V30 2169 H 202.584 -2.94609 3.54579 0
M  V30 2170 H 206.128 -1.70075 6.7655 0
M  V30 2171 H 202.025 -2.59244 5.91154 0
M  V30 2172 H 202.793 -2.06686 7.91974 0
M  V30 2173 N 205.456 -1.28612 -0.910864 0
M  V30 2174 C 206.419 -1.12803 -1.9952 0
M  V30 2175 C 207.419 -0.0668264 -1.60661 0
M  V30 2176 O 208.609 -0.312847 -1.71368 0
M  V30 2177 C 205.741 -0.72254 -3.33155 0
M  V30 2178 H 206.934 -2.09109 -2.14973 0
M  V30 2179 H 204.487 -1.11639 -1.09391 0
M  V30 2180 H 205.222 0.241152 -3.23402 0
M  V30 2181 H 205.007 -1.48916 -3.62721 0
M  V30 2182 H 206.497 -0.634666 -4.12749 0
M  V30 2183 N 206.934 1.1197 -1.10907 0
M  V30 2184 C 207.897 2.16031 -0.765707 0
M  V30 2185 C 208.897 1.59393 0.212235 0
M  V30 2186 O 210.087 1.74196 -0.0115441 0
M  V30 2187 C 207.219 3.40632 -0.135053 0
M  V30 2188 H 208.412 2.47919 -1.68748 0
M  V30 2189 H 205.965 1.27061 -0.910226 0
M  V30 2190 H 206.7 3.14348 0.797218 0
M  V30 2191 H 206.485 3.8302 -0.838937 0
M  V30 2192 H 207.975 4.17505 0.0892469 0
M  V30 2193 N 208.412 0.89855 1.29475 0
M  V30 2194 C 209.637 0.538561 2.00285 0
M  V30 2195 C 210.062 -0.869135 1.66816 0
M  V30 2196 O 209.42 -1.57831 0.892145 0
M  V30 2197 C 209.468 0.736475 3.52999 0
M  V30 2198 O 208.572 -0.211537 4.11857 0
M  V30 2199 H 207.913 0.210563 0.62973 0
M  V30 2200 H 210.443 1.20982 1.64998 0
M  V30 2201 H 210.453 0.640685 4.02938 0
M  V30 2202 H 209.128 1.76276 3.76696 0
M  V30 2203 H 207.705 -0.0682991 3.72837 0
M  V30 2204 N 209.89 -1.43072 0.660911 0
M  V30 2205 C 211.115 -2.06584 0.183805 0
M  V30 2206 C 211.54 -1.49257 -1.14472 0
M  V30 2207 O 210.898 -0.605528 -1.70889 0
M  V30 2208 C 210.946 -3.60418 0.114434 0
M  V30 2209 O 210.05 -4.01981 -0.921137 0
M  V30 2210 H 209.391 -0.656669 0.0983994 0
M  V30 2211 H 211.921 -1.83447 0.906006 0
M  V30 2212 H 211.931 -4.07946 -0.0663394 0
M  V30 2213 H 210.606 -4.01519 1.08422 0
M  V30 2214 H 209.183 -3.66029 -0.71253 0
M  V30 2215 N 211.368 -0.403325 -1.52352 0
M  V30 2216 C 212.593 0.176499 -2.06648 0
M  V30 2217 C 213.018 1.38577 -1.27193 0
M  V30 2218 O 212.376 1.7879 -0.300637 0
M  V30 2219 C 212.424 0.511061 -3.5696 0
M  V30 2220 O 211.528 1.60294 -3.79973 0
M  V30 2221 H 210.869 0.0167337 -0.663789 0
M  V30 2222 H 213.399 -0.574848 -1.96359 0
M  V30 2223 H 213.409 0.771362 -4.00642 0
M  V30 2224 H 212.084 -0.37296 -4.14224 0
M  V30 2225 H 210.661 1.33526 -3.48174 0
M  V30 2226 N 212.846 1.57033 -0.133567 0
M  V30 2227 C 214.074 2.00044 0.528195 0
M  V30 2228 C 214.489 1.01349 1.59291 0
M  V30 2229 O 213.846 0.00848369 1.82498 0
M  V30 2230 C 213.897 3.43018 1.1411 0
M  V30 2231 O 213.618 4.37939 0.11892 0
M  V30 2232 C 215.119 4.01237 1.88477 0
M  V30 2233 H 212.339 0.656517 0.138661 0
M  V30 2234 H 214.883 2.03267 -0.224196 0
M  V30 2235 H 213.038 3.40688 1.84418 0
M  V30 2236 H 213.452 5.21436 0.56613 0
M  V30 2237 H 214.926 5.03314 2.26669 0
M  V30 2238 H 215.403 3.41193 2.76558 0
M  V30 2239 H 216.009 4.07156 1.22898 0
M  V30 2240 N 214.325 -0.140222 1.56975 0
M  V30 2241 C 215.555 -0.865181 1.87612 0
M  V30 2242 C 215.963 -1.74942 0.72055 0
M  V30 2243 O 215.306 -1.80917 -0.318561 0
M  V30 2244 C 215.368 -1.76782 3.13031 0
M  V30 2245 C 215.032 -1.06005 4.44536 0
M  V30 2246 C 216.029 -0.410768 5.18275 0
M  V30 2247 C 213.714 -1.04754 4.91255 0
M  V30 2248 C 215.708 0.241572 6.36942 0
M  V30 2249 C 213.395 -0.391394 6.09845 0
M  V30 2250 C 214.393 0.252029 6.82535 0
M  V30 2251 O 214.081 0.897757 7.98871 0
M  V30 2252 H 213.813 -0.255188 0.625983 0
M  V30 2253 H 216.367 -0.135653 2.04952 0
M  V30 2254 H 214.597 -2.53846 2.91718 0
M  V30 2255 H 216.286 -2.36533 3.29859 0
M  V30 2256 H 217.052 -0.412195 4.83245 0
M  V30 2257 H 212.931 -1.53777 4.34596 0
M  V30 2258 H 216.475 0.744375 6.93617 0
M  V30 2259 H 212.372 -0.387656 6.44335 0
M  V30 2260 H 213.14 0.800102 8.1458 0
M  V30 2261 N 215.803 -1.52179 -0.40978 0
M  V30 2262 C 217.051 -1.65878 -1.15451 0
M  V30 2263 C 217.372 -0.390771 -1.91044 0
M  V30 2264 O 216.642 0.594323 -1.86667 0
M  V30 2265 H 215.222 -0.611405 -0.429177 0
M  V30 2266 H 217.884 -1.89219 -0.467134 0
M  V30 2267 H 216.98 -2.49954 -1.86894 0
M  V30 2268 N 217.281 0.66697 -1.42791 0
M  V30 2269 C 218.558 1.4234 -1.34159 0
M  V30 2270 C 218.938 2.11093 0.0172729 0
M  V30 2271 O 218.286 2.03808 1.03318 0
M  V30 2272 C 218.496 2.41942 -2.51526 0
M  V30 2273 C 219.844 3.06353 -2.93995 0
M  V30 2274 O 220.868 2.52269 -2.51473 0
M  V30 2275 O 219.727 4.04376 -3.67617 0
M  V30 2276 H 216.821 0.635277 -0.529483 0
M  V30 2277 H 219.367 0.695034 -1.54814 0
M  V30 2278 H 218.139 1.89991 -3.42081 0
M  V30 2279 H 217.762 3.22249 -2.32898 0
M  V30 2280 N 218.759 1.29093 0.90403 0
M  V30 2281 C 219.709 1.10482 1.99443 0
M  V30 2282 C 220.693 0.0255401 1.6088 0
M  V30 2283 O 221.885 0.24677 1.75271 0
M  V30 2284 C 219.014 0.778882 3.34348 0
M  V30 2285 C 218.1 1.89749 3.79284 0
M  V30 2286 N 218.491 3.14045 3.96497 0
M  V30 2287 C 216.789 1.78955 4.08523 0
M  V30 2288 C 217.49 3.86996 4.34292 0
M  V30 2289 N 216.466 3.14909 4.43095 0
M  V30 2290 H 220.268 2.04778 2.10815 0
M  V30 2291 H 217.782 1.20155 1.09255 0
M  V30 2292 H 219.779 0.62661 4.12164 0
M  V30 2293 H 218.439 -0.156205 3.24324 0
M  V30 2294 H 219.45 3.49548 3.82148 0
M  V30 2295 H 216.127 0.926886 4.07081 0
M  V30 2296 H 217.517 4.93941 4.55491 0
M  V30 2297 N 220.237 -1.11381 1.11499 0
M  V30 2298 C 221.648 -1.6465 0.880191 0
M  V30 2299 C 221.999 -1.87199 -0.587434 0
M  V30 2300 O 221.124 -1.60667 -1.44966 0
M  V30 2301 C 221.719 -2.99105 1.59128 0
M  V30 2302 C 220.278 -3.49279 1.40289 0
M  V30 2303 C 219.425 -2.24077 1.63354 0
M  V30 2304 H 222.376 -0.950123 1.27116 0
M  V30 2305 H 222.397 -3.66107 1.03664 0
M  V30 2306 H 221.909 -2.82661 2.65941 0
M  V30 2307 H 220.01 -3.70887 0.356888 0
M  V30 2308 H 220.123 -4.2803 2.15238 0
M  V30 2309 H 218.487 -2.31733 1.05698 0
M  V30 2310 H 219.27 -2.10175 2.71443 0
M  V30 2311 N 221.715 -0.905404 -1.28997 0
M  V30 2312 C 222.963 -0.533192 -1.9494 0
M  V30 2313 C 223.284 0.924618 -1.71685 0
M  V30 2314 O 222.554 1.65268 -1.05183 0
M  V30 2315 H 221.134 -0.194194 -0.721317 0
M  V30 2316 H 223.796 -1.15294 -1.57141 0
M  V30 2317 H 222.892 -0.72059 -3.03667 0
M  V30 2318 N 223.193 1.4272 -0.668489 0
M  V30 2319 C 224.123 2.335 -0.000100175 0
M  V30 2320 C 225.104 1.50328 0.795964 0
M  V30 2321 O 226.289 1.78949 0.754385 0
M  V30 2322 C 223.419 3.33874 0.956302 0
M  V30 2323 C 222.373 4.27152 0.269278 0
M  V30 2324 C 221.699 5.17684 1.33818 0
M  V30 2325 C 222.999 5.15373 -0.847805 0
M  V30 2326 H 224.693 2.89639 -0.758244 0
M  V30 2327 H 222.239 1.39269 -0.366079 0
M  V30 2328 H 224.192 3.9629 1.43292 0
M  V30 2329 H 222.916 2.76025 1.74579 0
M  V30 2330 H 221.575 3.66123 -0.187042 0
M  V30 2331 H 221.223 4.56165 2.1195 0
M  V30 2332 H 220.923 5.80918 0.883659 0
M  V30 2333 H 222.447 5.82974 1.81586 0
M  V30 2334 H 223.861 5.7151 -0.452681 0
M  V30 2335 H 222.258 5.87407 -1.22773 0
M  V30 2336 H 223.328 4.5415 -1.69929 0
M  V30 2337 N 224.671 0.411399 1.52136 0
M  V30 2338 C 226.082 -0.0576826 1.86611 0
M  V30 2339 C 226.433 -1.44238 1.33003 0
M  V30 2340 O 225.558 -2.05759 0.670228 0
M  V30 2341 C 226.153 -0.111448 3.38617 0
M  V30 2342 C 224.712 -0.52487 3.72723 0
M  V30 2343 C 223.859 0.299176 2.75681 0
M  V30 2344 H 226.81 0.628368 1.4573 0
M  V30 2345 H 226.831 -0.926252 3.69054 0
M  V30 2346 H 226.343 0.896488 3.77604 0
M  V30 2347 H 224.444 -1.53936 3.39315 0
M  V30 2348 H 224.557 -0.267681 4.78352 0
M  V30 2349 H 222.921 -0.238814 2.53578 0
M  V30 2350 H 223.704 1.3055 3.17508 0
M  V30 2351 N 226.149 -1.5696 0.141893 0
M  V30 2352 C 227.096 -2.16501 -0.799737 0
M  V30 2353 C 228.066 -1.09643 -1.24771 0
M  V30 2354 O 229.251 -1.3766 -1.32115 0
M  V30 2355 C 226.391 -2.78679 -2.03549 0
M  V30 2356 C 225.504 -3.99914 -1.6338 0
M  V30 2357 C 224.639 -4.50106 -2.82096 0
M  V30 2358 C 223.678 -5.63819 -2.38275 0
M  V30 2359 N 222.815 -6.08651 -3.49983 0
M  V30 2360 H 227.655 -2.96632 -0.285179 0
M  V30 2361 H 225.192 -1.46533 -0.129053 0
M  V30 2362 H 227.15 -3.1287 -2.75986 0
M  V30 2363 H 225.78 -2.012 -2.52425 0
M  V30 2364 H 224.832 -3.71735 -0.807279 0
M  V30 2365 H 226.144 -4.82311 -1.27192 0
M  V30 2366 H 225.298 -4.86325 -3.62729 0
M  V30 2367 H 224.037 -3.66706 -3.21525 0
M  V30 2368 H 223.042 -5.2718 -1.56081 0
M  V30 2369 H 224.267 -6.49 -1.99938 0
M  V30 2370 H 222.213 -5.28188 -3.89042 0
M  V30 2371 H 222.13 -6.85961 -3.17794 0
M  V30 2372 H 223.398 -6.49515 -4.30988 0
M  V30 2373 N 227.627 0.131896 -1.57047 0
M  V30 2374 C 228.873 0.843179 -1.84441 0
M  V30 2375 C 229.206 1.80129 -0.725749 0
M  V30 2376 O 228.481 1.92624 0.269469 0
M  V30 2377 C 228.764 1.60442 -3.22382 0
M  V30 2378 C 228.617 0.666782 -4.4483 0
M  V30 2379 C 229.936 2.56354 -3.5773 0
M  V30 2380 H 227.055 0.305081 -0.670891 0
M  V30 2381 H 229.697 0.107839 -1.89694 0
M  V30 2382 H 227.847 2.23128 -3.18035 0
M  V30 2383 H 229.519 0.0497646 -4.61273 0
M  V30 2384 H 227.762 -0.022609 -4.33794 0
M  V30 2385 H 228.433 1.23579 -5.37989 0
M  V30 2386 H 230.909 2.0378 -3.62785 0
M  V30 2387 H 229.785 3.06657 -4.5525 0
M  V30 2388 H 230.046 3.38419 -2.84473 0
M  V30 2389 N 229.106 1.52395 0.401703 0
M  V30 2390 C 230.016 1.7917 1.51444 0
M  V30 2391 C 231.032 0.677691 1.6026 0
M  V30 2392 O 232.208 0.963909 1.76835 0
M  V30 2393 C 229.273 1.94347 2.87107 0
M  V30 2394 C 228.334 3.18257 2.88116 0
M  V30 2395 C 227.567 3.32701 4.17308 0
M  V30 2396 O 227.79 2.52238 5.11598 0
M  V30 2397 O 226.724 4.25891 4.25324 0
M  V30 2398 H 230.55 2.73633 1.31752 0
M  V30 2399 H 228.135 1.3733 0.588296 0
M  V30 2400 H 230.017 2.06109 3.67555 0
M  V30 2401 H 228.692 1.03073 3.06851 0
M  V30 2402 H 227.599 3.11947 2.06494 0
M  V30 2403 H 228.932 4.09336 2.73322 0
M  V30 2404 N 230.584 -0.659388 1.43143 0
M  V30 2405 C 231.861 -1.41627 1.34912 0
M  V30 2406 C 232.241 -2.11099 -0.00607785 0
M  V30 2407 O 231.589 -2.04353 -1.02236 0
M  V30 2408 C 231.799 -2.40604 2.52805 0
M  V30 2409 C 233.147 -3.04789 2.95616 0
M  V30 2410 O 234.171 -2.50932 2.52807 0
M  V30 2411 O 233.03 -4.02421 3.69756 0
M  V30 2412 H 230.124 -0.63246 0.532844 0
M  V30 2413 H 232.67 -0.686814 1.5518 0
M  V30 2414 H 231.442 -1.88174 3.43083 0
M  V30 2415 H 231.065 -3.21009 2.34604 0
M  V30 2416 N 232.062 -1.29571 -0.897171 0
M  V30 2417 C 233.29 -1.20583 -1.68129 0
M  V30 2418 C 233.705 0.233181 -1.87354 0
M  V30 2419 O 233.062 1.15579 -1.41236 0
M  V30 2420 C 233.113 -1.91772 -3.06441 0
M  V30 2421 O 232.834 -3.30053 -2.88091 0
M  V30 2422 C 234.335 -1.89291 -4.00854 0
M  V30 2423 H 231.555 -0.417826 -0.525036 0
M  V30 2424 H 234.099 -1.70987 -1.12177 0
M  V30 2425 H 232.254 -1.45196 -3.59161 0
M  V30 2426 H 232.668 -3.65942 -3.75748 0
M  V30 2427 H 234.142 -2.43662 -4.95311 0
M  V30 2428 H 234.619 -0.869014 -4.30517 0
M  V30 2429 H 235.225 -2.35622 -3.54066 0
M  V30 2430 N 233.54 1.10788 -1.12088 0
M  V30 2431 C 234.789 1.82036 -0.868659 0
M  V30 2432 C 235.102 1.85929 0.607426 0
M  V30 2433 O 236.308 2.53346 0.97613 0
M  V30 2434 C 234.764 3.26951 -1.50435 0
M  V30 2435 C 234.372 3.31367 -3.01496 0
M  V30 2436 C 236.116 4.03053 -1.33225 0
M  V30 2437 C 234.023 4.7072 -3.58017 0
M  V30 2438 H 232.953 0.682108 -0.321318 0
M  V30 2439 H 235.604 1.24618 -1.34694 0
M  V30 2440 H 233.986 3.84343 -0.953735 0
M  V30 2441 H 235.16 2.83819 -3.6302 0
M  V30 2442 H 233.475 2.6875 -3.18061 0
M  V30 2443 H 236.072 5.05981 -1.72878 0
M  V30 2444 H 236.415 4.15387 -0.275529 0
M  V30 2445 H 236.948 3.52066 -1.85188 0
M  V30 2446 H 233.687 4.63585 -4.63432 0
M  V30 2447 H 233.207 5.1865 -3.01268 0
M  V30 2448 H 234.886 5.39685 -3.56859 0
M  V30 2449 N 235.018 0.912232 1.28515 0
M  V30 2450 C 236.266 0.543523 1.94654 0
M  V30 2451 C 236.587 -0.9155 1.72173 0
M  V30 2452 O 235.857 -1.64708 1.06058 0
M  V30 2453 H 234.437 0.198017 0.720277 0
M  V30 2454 H 237.099 1.16126 1.56527 0
M  V30 2455 H 236.195 0.736684 3.03281 0
M  V30 2456 N 236.496 -1.42363 0.676048 0
M  V30 2457 C 237.443 -2.308 -0.00150904 0
M  V30 2458 C 238.413 -1.46032 -0.791444 0
M  V30 2459 O 239.598 -1.74861 -0.76344 0
M  V30 2460 C 236.738 -3.31883 -0.945919 0
M  V30 2461 C 235.851 -4.31741 -0.149675 0
M  V30 2462 C 234.986 -5.19898 -1.08995 0
M  V30 2463 C 234.025 -6.11434 -0.285465 0
M  V30 2464 N 233.162 -6.92138 -1.17851 0
M  V30 2465 H 238.002 -2.88187 0.758455 0
M  V30 2466 H 235.539 -1.41952 0.38576 0
M  V30 2467 H 237.497 -3.89019 -1.50731 0
M  V30 2468 H 236.127 -2.76093 -1.6725 0
M  V30 2469 H 235.179 -3.76713 0.528359 0
M  V30 2470 H 236.491 -4.96534 0.474866 0
M  V30 2471 H 235.645 -5.81772 -1.72123 0
M  V30 2472 H 234.384 -4.55284 -1.74837 0
M  V30 2473 H 233.389 -5.48627 0.359018 0
M  V30 2474 H 234.614 -6.78097 0.368883 0
M  V30 2475 H 232.56 -6.30152 -1.82332 0
M  V30 2476 H 232.477 -7.53542 -0.609082 0
M  V30 2477 H 233.745 -7.58499 -1.79722 0
M  V30 2478 N 237.974 -0.419461 -1.51915 0
M  V30 2479 C 239.385 0.0477853 -1.86639 0
M  V30 2480 C 239.736 1.43531 -1.33766 0
M  V30 2481 O 238.861 2.05401 -0.68113 0
M  V30 2482 C 239.456 0.0934885 -3.38671 0
M  V30 2483 C 238.015 0.505097 -3.72996 0
M  V30 2484 C 237.162 -0.313792 -2.75519 0
M  V30 2485 H 240.113 -0.636088 -1.45395 0
M  V30 2486 H 240.134 0.906667 -3.6954 0
M  V30 2487 H 239.646 -0.916501 -3.77123 0
M  V30 2488 H 237.747 1.52135 -3.40126 0
M  V30 2489 H 237.86 0.242309 -4.78487 0
M  V30 2490 H 236.224 0.225363 -2.53701 0
M  V30 2491 H 237.007 -1.32232 -3.16812 0
M  V30 2492 N 239.452 1.56882 -0.150215 0
M  V30 2493 C 240.382 2.19935 0.784284 0
M  V30 2494 C 241.363 1.14854 1.25469 0
M  V30 2495 O 242.548 1.43209 1.31168 0
M  V30 2496 C 239.678 2.82349 2.02229 0
M  V30 2497 C 238.632 3.93285 1.68853 0
M  V30 2498 C 237.958 4.42649 2.99944 0
M  V30 2499 C 239.258 5.13904 0.932714 0
M  V30 2500 H 240.952 2.9828 0.258781 0
M  V30 2501 H 238.498 1.43473 0.123029 0
M  V30 2502 H 240.451 3.25126 2.68088 0
M  V30 2503 H 239.175 2.0134 2.57157 0
M  V30 2504 H 237.834 3.5113 1.05371 0
M  V30 2505 H 237.482 3.58458 3.52869 0
M  V30 2506 H 237.182 5.17476 2.78374 0
M  V30 2507 H 238.706 4.88099 3.66868 0
M  V30 2508 H 240.12 5.53506 1.49345 0
M  V30 2509 H 238.517 5.94515 0.81684 0
M  V30 2510 H 239.587 4.84842 -0.0749568 0
M  V30 2511 N 240.93 -0.123565 1.57115 0
M  V30 2512 C 242.155 -0.850398 1.89164 0
M  V30 2513 C 242.58 -1.7286 0.741688 0
M  V30 2514 O 241.938 -1.78665 -0.307958 0
M  V30 2515 C 241.986 -1.66353 3.19936 0
M  V30 2516 O 241.09 -2.77004 3.0552 0
M  V30 2517 H 240.431 -0.235454 0.620852 0
M  V30 2518 H 242.961 -0.107335 2.04318 0
M  V30 2519 H 242.971 -2.05372 3.52543 0
M  V30 2520 H 241.646 -1.01881 4.03228 0
M  V30 2521 H 240.223 -2.41221 2.84371 0
M  V30 2522 N 242.408 -1.52605 -0.393616 0
M  V30 2523 C 243.819 -1.59417 -0.971761 0
M  V30 2524 C 244.17 -0.444173 -1.91106 0
M  V30 2525 O 243.295 0.433382 -2.12016 0
M  V30 2526 C 243.89 -2.88936 -1.76921 0
M  V30 2527 C 242.449 -2.98175 -2.29714 0
M  V30 2528 C 241.596 -2.54491 -1.10135 0
M  V30 2529 H 244.547 -1.57751 -0.173317 0
M  V30 2530 H 244.568 -2.75163 -2.62804 0
M  V30 2531 H 244.08 -3.72616 -1.08532 0
M  V30 2532 H 242.181 -2.19024 -3.01429 0
M  V30 2533 H 242.294 -4.02726 -2.59517 0
M  V30 2534 H 240.658 -2.08702 -1.45999 0
M  V30 2535 H 241.441 -3.4056 -0.432874 0
M  V30 2536 N 243.887 0.651787 -1.4349 0
M  V30 2537 C 245.117 1.43728 -1.48411 0
M  V30 2538 C 245.525 1.8893 -0.10103 0
M  V30 2539 O 244.868 1.60182 0.899307 0
M  V30 2540 C 244.93 2.70411 -2.36893 0
M  V30 2541 C 244.594 2.4714 -3.8441 0
M  V30 2542 C 245.591 2.10271 -4.75481 0
M  V30 2543 C 243.276 2.6142 -4.28912 0
M  V30 2544 C 245.27 1.87982 -6.0905 0
M  V30 2545 C 242.957 2.38746 -5.62533 0
M  V30 2546 C 243.955 2.02083 -6.5242 0
M  V30 2547 O 243.643 1.79647 -7.8357 0
M  V30 2548 H 243.375 0.447962 -0.506267 0
M  V30 2549 H 245.929 0.80624 -1.88915 0
M  V30 2550 H 244.159 3.36079 -1.91278 0
M  V30 2551 H 245.848 3.32364 -2.33 0
M  V30 2552 H 246.614 1.98814 -4.42378 0
M  V30 2553 H 242.493 2.88931 -3.59222 0
M  V30 2554 H 246.037 1.5929 -6.7917 0
M  V30 2555 H 241.934 2.49806 -5.95203 0
M  V30 2556 H 242.702 1.9406 -7.95162 0
M  V30 2557 N 245.365 1.30045 0.890287 0
M  V30 2558 C 246.328 1.15963 1.977 0
M  V30 2559 C 247.328 0.0923777 1.60534 0
M  V30 2560 O 248.518 0.340071 1.70848 0
M  V30 2561 C 245.65 0.775451 3.31963 0
M  V30 2562 H 246.843 2.12502 2.11619 0
M  V30 2563 H 244.396 1.13366 1.07601 0
M  V30 2564 H 245.131 -0.189671 3.23745 0
M  V30 2565 H 244.916 1.54668 3.60306 0
M  V30 2566 H 246.406 0.700251 4.11687 0
M  V30 2567 N 246.843 -1.10192 1.12674 0
M  V30 2568 C 248.089 -1.82475 0.884915 0
M  V30 2569 C 248.422 -1.85093 -0.58773 0
M  V30 2570 O 247.697 -1.3134 -1.43457 0
M  V30 2571 C 247.98 -3.29018 1.46353 0
M  V30 2572 C 247.833 -3.34718 3.00473 0
M  V30 2573 C 249.152 -4.25473 1.12519 0
M  V30 2574 H 246.271 -0.662492 0.322915 0
M  V30 2575 H 248.913 -1.2913 1.39375 0
M  V30 2576 H 247.063 -3.74576 1.03077 0
M  V30 2577 H 248.735 -2.97622 3.52447 0
M  V30 2578 H 246.978 -2.74541 3.35872 0
M  V30 2579 H 247.649 -4.37918 3.36053 0
M  V30 2580 H 250.125 -3.88161 1.499 0
M  V30 2581 H 249.001 -5.26365 1.55663 0
M  V30 2582 H 249.262 -4.42084 0.0377407 0
M  V30 2583 N 248.321 -0.919034 -1.28029 0
M  V30 2584 C 249.549 -0.570971 -1.98866 0
M  V30 2585 C 249.964 0.848996 -1.68634 0
M  V30 2586 O 249.321 1.56307 -0.942036 0
M  V30 2587 C 249.372 -0.776876 -3.53054 0
M  V30 2588 O 249.093 -2.14097 -3.82222 0
M  V30 2589 C 250.594 -0.436356 -4.41147 0
M  V30 2590 H 247.814 -0.217175 -0.634883 0
M  V30 2591 H 250.358 -1.23368 -1.63097 0
M  V30 2592 H 248.513 -0.161085 -3.87065 0
M  V30 2593 H 248.927 -2.18455 -4.76841 0
M  V30 2594 H 250.401 -0.63117 -5.4838 0
M  V30 2595 H 250.878 0.627686 -4.34692 0
M  V30 2596 H 251.484 -1.02991 -4.12641 0
M  V30 2597 N 249.799 1.42003 -0.683588 0
M  V30 2598 C 250.746 2.30798 -0.0107309 0
M  V30 2599 C 251.716 1.4645 0.783688 0
M  V30 2600 O 252.901 1.75263 0.754156 0
M  V30 2601 C 250.041 3.3238 0.928306 0
M  V30 2602 C 249.154 4.31814 0.126776 0
M  V30 2603 C 248.289 5.20468 1.06236 0
M  V30 2604 C 247.328 6.11577 0.253035 0
M  V30 2605 N 246.465 6.92754 1.14179 0
M  V30 2606 H 251.305 2.8778 -0.773727 0
M  V30 2607 H 248.842 1.41745 -0.393283 0
M  V30 2608 H 250.8 3.89813 1.48666 0
M  V30 2609 H 249.43 2.76976 1.65783 0
M  V30 2610 H 248.482 3.76427 -0.54833 0
M  V30 2611 H 249.794 4.96276 -0.501192 0
M  V30 2612 H 248.948 5.82677 1.69035 0
M  V30 2613 H 247.687 4.56204 1.7242 0
M  V30 2614 H 246.692 5.48428 -0.388108 0
M  V30 2615 H 247.917 6.77892 -0.404839 0
M  V30 2616 H 245.863 6.3111 1.78987 0
M  V30 2617 H 245.78 7.53855 0.569111 0
M  V30 2618 H 247.048 7.59441 1.75697 0
M  V30 2619 N 251.277 0.427512 1.51691 0
M  V30 2620 C 252.507 -0.140986 2.06118 0
M  V30 2621 C 252.915 -1.37854 1.29588 0
M  V30 2622 O 252.258 -1.80411 0.346036 0
M  V30 2623 C 252.32 -0.538276 3.55447 0
M  V30 2624 C 251.984 0.591095 4.53161 0
M  V30 2625 C 252.981 1.46027 4.98971 0
M  V30 2626 C 250.666 0.769028 4.96378 0
M  V30 2627 C 252.66 2.49216 5.8666 0
M  V30 2628 C 250.347 1.80421 5.83859 0
M  V30 2629 C 251.345 2.66417 6.28897 0
M  V30 2630 O 251.033 3.68159 7.14643 0
M  V30 2631 H 250.765 -0.0157455 0.675817 0
M  V30 2632 H 253.319 0.602495 1.96365 0
M  V30 2633 H 251.549 -1.33432 3.6295 0
M  V30 2634 H 253.238 -1.0368 3.92435 0
M  V30 2635 H 254.004 1.33429 4.66285 0
M  V30 2636 H 249.883 0.109273 4.6087 0
M  V30 2637 H 253.427 3.16372 6.21735 0
M  V30 2638 H 249.324 1.93042 6.15959 0
M  V30 2639 H 250.092 3.64622 7.32798 0
M  V30 2640 N 252.755 -1.56801 0.158532 0
M  V30 2641 C 254.001 -1.96781 -0.490405 0
M  V30 2642 C 254.334 -1.04397 -1.63753 0
M  V30 2643 O 253.609 -0.0885805 -1.94298 0
M  V30 2644 C 253.892 -3.4635 -0.985594 0
M  V30 2645 C 253.745 -4.49512 0.160824 0
M  V30 2646 C 255.064 -3.98697 -1.86355 0
M  V30 2647 H 252.183 -0.715482 -0.176788 0
M  V30 2648 H 254.825 -1.88451 0.242088 0
M  V30 2649 H 252.975 -3.53579 -1.60978 0
M  V30 2650 H 254.647 -4.54353 0.797537 0
M  V30 2651 H 252.89 -4.26013 0.818256 0
M  V30 2652 H 253.561 -5.51531 -0.227569 0
M  V30 2653 H 256.037 -3.94019 -1.33746 0
M  V30 2654 H 254.913 -5.03792 -2.17909 0
M  V30 2655 H 255.174 -3.41744 -2.8047 0
M  V30 2656 N 254.233 0.115231 -1.57178 0
M  V30 2657 C 255.181 1.16014 -2.01602 0
M  V30 2658 C 256.175 1.42653 -0.913587 0
M  V30 2659 O 257.381 1.42571 -1.09879 0
M  V30 2660 H 253.756 0.391252 -0.642204 0
M  V30 2661 H 255.727 0.758998 -2.88586 0
M  V30 2662 C 254.476 2.47767 -2.4394 0
M  V30 2663 H 253.799 2.28108 -3.28339 0
M  V30 2664 H 255.239 3.19432 -2.78818 0
M  V30 2665 C 253.698 3.10617 -1.30455 0
M  V30 2666 O 254.228 3.96846 -0.622585 0
M  V30 2667 N 252.434 2.70553 -1.06064 0
M  V30 2668 H 251.981 2.00527 -1.61699 0
M  V30 2669 H 251.939 3.12934 -0.303284 0
M  V30 2670 N 255.711 1.52812 0.385517 0
M  V30 2671 C 256.621 1.80766 1.49535 0
M  V30 2672 C 257.637 0.694651 1.59532 0
M  V30 2673 O 258.813 0.982611 1.75803 0
M  V30 2674 C 255.878 1.97381 2.85029 0
M  V30 2675 C 254.939 3.21295 2.84724 0
M  V30 2676 C 254.172 3.37108 4.13756 0
M  V30 2677 O 254.395 2.5765 5.08893 0
M  V30 2678 O 253.329 4.30378 4.20783 0
M  V30 2679 H 257.155 2.75015 1.28842 0
M  V30 2680 H 254.74 1.37946 0.573697 0
M  V30 2681 H 256.622 2.09996 3.65349 0
M  V30 2682 H 255.297 1.06322 3.05741 0
M  V30 2683 H 254.204 3.1412 2.03174 0
M  V30 2684 H 255.537 4.12212 2.68965 0
M  V30 2685 N 257.189 -0.644168 1.43834 0
M  V30 2686 C 258.119 -1.76814 1.52509 0
M  V30 2687 C 259.1 -1.65823 0.379052 0
M  V30 2688 O 260.285 -1.84781 0.597466 0
M  V30 2689 C 257.415 -3.15288 1.4564 0
M  V30 2690 C 256.369 -3.41053 2.58586 0
M  V30 2691 C 255.695 -4.79421 2.36769 0
M  V30 2692 C 256.995 -3.34902 4.00797 0
M  V30 2693 H 258.689 -1.69812 2.46586 0
M  V30 2694 H 256.235 -0.815542 1.1868 0
M  V30 2695 H 258.188 -3.93681 1.50311 0
M  V30 2696 H 256.912 -3.23043 0.480725 0
M  V30 2697 H 255.571 -2.65035 2.53282 0
M  V30 2698 H 255.219 -4.83863 1.37424 0
M  V30 2699 H 254.919 -4.9762 3.12487 0
M  V30 2700 H 256.443 -5.6006 2.43238 0
M  V30 2701 H 257.857 -4.03218 4.07539 0
M  V30 2702 H 256.254 -3.64637 4.76613 0
M  V30 2703 H 257.324 -2.32928 4.25291 0
M  V30 2704 N 258.668 -1.30515 -0.883378 0
M  V30 2705 C 259.898 -1.22182 -1.66599 0
M  V30 2706 C 260.306 0.217507 -1.87946 0
M  V30 2707 O 259.649 1.1554 -1.42815 0
M  V30 2708 C 259.711 -1.88146 -3.06335 0
M  V30 2709 C 259.375 -3.37476 -3.08154 0
M  V30 2710 C 260.372 -4.33443 -2.87094 0
M  V30 2711 C 258.057 -3.7895 -3.29701 0
M  V30 2712 C 260.051 -5.68858 -2.8754 0
M  V30 2713 C 257.738 -5.14482 -3.29776 0
M  V30 2714 C 258.736 -6.09246 -3.0872 0
M  V30 2715 O 258.424 -7.42302 -3.08615 0
M  V30 2716 H 258.156 -0.423898 -0.52658 0
M  V30 2717 H 260.71 -1.72703 -1.11188 0
M  V30 2718 H 258.94 -1.32157 -3.63416 0
M  V30 2719 H 260.629 -1.7391 -3.66756 0
M  V30 2720 H 261.395 -4.02733 -2.70243 0
M  V30 2721 H 257.274 -3.05631 -3.45124 0
M  V30 2722 H 260.818 -6.428 -2.71024 0
M  V30 2723 H 256.715 -5.44832 -3.46163 0
M  V30 2724 H 257.483 -7.5131 -3.24769 0
M  V30 2725 N 260.146 1.09593 -1.13257 0
M  V30 2726 C 261.109 2.14359 -0.811358 0
M  V30 2727 C 262.109 1.59808 0.178377 0
M  V30 2728 O 263.299 1.74132 -0.0484911 0
M  V30 2729 C 260.431 3.40269 -0.207276 0
M  V30 2730 H 261.624 2.44284 -1.73969 0
M  V30 2731 H 259.177 1.25102 -0.936973 0
M  V30 2732 H 259.912 3.15969 0.73036 0
M  V30 2733 H 259.697 3.81154 -0.919992 0
M  V30 2734 H 261.187 4.176 0.000667944 0
M  V30 2735 N 261.624 0.925811 1.2754 0
M  V30 2736 C 262.901 0.483726 1.89524 0
M  V30 2737 C 263.281 -1.03809 1.83812 0
M  V30 2738 O 262.629 -1.89143 1.28207 0
M  V30 2739 C 262.839 1.02769 3.33526 0
M  V30 2740 C 264.187 1.08703 4.10449 0
M  V30 2741 O 265.211 0.977175 3.42534 0
M  V30 2742 O 264.07 1.25599 5.31871 0
M  V30 2743 H 261.164 0.15529 0.812289 0
M  V30 2744 H 263.71 1.01738 1.35822 0
M  V30 2745 H 262.482 2.07155 3.31967 0
M  V30 2746 H 262.105 0.475567 3.94746 0
M  V30 2747 N 263.102 -1.41638 0.69111 0
M  V30 2748 C 264.348 -2.01598 0.220519 0
M  V30 2749 C 264.681 -1.54594 -1.17535 0
M  V30 2750 O 263.956 -0.755177 -1.79241 0
M  V30 2751 C 264.239 -3.59062 0.273243 0
M  V30 2752 C 264.092 -4.16203 1.70573 0
M  V30 2753 C 265.411 -4.38546 -0.369457 0
M  V30 2754 H 262.53 -0.732468 0.0816045 0
M  V30 2755 H 265.172 -1.68445 0.878986 0
M  V30 2756 H 263.322 -3.87435 -0.287411 0
M  V30 2757 H 264.994 -3.98722 2.31989 0
M  V30 2758 H 263.237 -3.71414 2.2413 0
M  V30 2759 H 263.908 -5.25358 1.69419 0
M  V30 2760 H 266.384 -4.1596 0.107977 0
M  V30 2761 H 265.26 -5.48069 -0.302002 0
M  V30 2762 H 265.521 -4.17662 -1.44951 0
M  V30 2763 N 264.58 -0.43555 -1.51462 0
M  V30 2764 C 265.827 0.131514 -2.02072 0
M  V30 2765 C 266.155 1.42868 -1.31981 0
M  V30 2766 O 265.41 1.91076 -0.422883 0
M  V30 2767 C 265.709 0.39942 -3.55161 0
M  V30 2768 C 265.375 -0.81172 -4.43533 0
M  V30 2769 C 264.037 -1.14387 -4.67407 0
M  V30 2770 C 266.389 -1.61976 -4.95392 0
M  V30 2771 C 263.717 -2.28477 -5.40384 0
M  V30 2772 C 266.069 -2.75164 -5.6962 0
M  V30 2773 C 264.733 -3.08835 -5.91758 0
M  V30 2774 H 264.003 0.0481244 -0.739436 0
M  V30 2775 H 266.65 -0.58238 -1.8243 0
M  V30 2776 H 264.955 1.19519 -3.73125 0
M  V30 2777 H 266.652 0.85157 -3.91854 0
M  V30 2778 H 263.242 -0.542898 -4.25148 0
M  V30 2779 H 267.426 -1.37637 -4.76833 0
M  V30 2780 H 262.682 -2.5488 -5.55739 0
M  V30 2781 H 266.856 -3.38147 -6.08793 0
M  V30 2782 H 264.483 -3.97353 -6.48086 0
M  V30 2783 N 266.058 1.56714 -0.166846 0
M  V30 2784 C 267.283 2.01557 0.488833 0
M  V30 2785 C 267.708 1.0463 1.56314 0
M  V30 2786 O 267.066 0.0251304 1.81283 0
M  V30 2787 C 267.114 3.4503 1.04818 0
M  V30 2788 O 266.218 3.51163 2.16236 0
M  V30 2789 H 265.559 0.653516 0.117526 0
M  V30 2790 H 268.089 2.02818 -0.269421 0
M  V30 2791 H 268.099 3.84243 1.37191 0
M  V30 2792 H 266.774 4.15077 0.261572 0
M  V30 2793 H 265.351 3.23807 1.84942 0
M  V30 2794 N 267.536 -0.106894 1.57237 0
M  V30 2795 C 268.952 -0.46078 1.52804 0
M  V30 2796 C 269.152 -1.81184 0.881746 0
M  V30 2797 O 268.208 -2.48102 0.469224 0
M  V30 2798 C 269.521 -0.434127 2.9755 0
M  V30 2799 C 271.069 -0.516821 3.08704 0
M  V30 2800 C 271.544 -0.520436 4.55033 0
M  V30 2801 N 273.035 -0.58153 4.59535 0
M  V30 2802 C 273.77 -0.605973 5.70189 0
M  V30 2803 N 273.266 -0.587331 6.90306 0
M  V30 2804 N 275.059 -0.649895 5.5833 0
M  V30 2805 H 267.21 0.778203 1.9763 0
M  V30 2806 H 269.473 0.288403 0.903066 0
M  V30 2807 H 269.179 0.491197 3.48253 0
M  V30 2808 H 269.053 -1.25748 3.55622 0
M  V30 2809 H 271.44 -1.43256 2.57995 0
M  V30 2810 H 271.521 0.334449 2.53604 0
M  V30 2811 H 271.165 0.391313 5.0639 0
M  V30 2812 H 271.095 -1.38876 5.07958 0
M  V30 2813 H 273.586 -0.60161 3.73081 0
M  V30 2814 H 273.899 -0.60894 7.70397 0
M  V30 2815 H 272.244 -0.554564 6.92784 0
M  V30 2816 H 275.435 -0.661907 4.63397 0
M  V30 2817 H 275.608 -0.665476 6.44574 0
M  V30 2818 N 269.014 -1.53014 -0.377408 0
M  V30 2819 C 270.254 -1.70318 -1.1301 0
M  V30 2820 C 270.618 -0.439538 -1.86901 0
M  V30 2821 O 271.819 -0.489095 -2.64313 0
M  V30 2822 C 270.09 -2.91125 -2.07319 0
M  V30 2823 S 271.649 -3.29075 -2.90268 0
M  V30 2824 H 268.467 -0.599426 -0.382374 0
M  V30 2825 H 271.069 -1.91089 -0.412933 0
M  V30 2826 H 269.773 -3.81303 -1.51777 0
M  V30 2827 H 269.304 -2.7272 -2.83526 0
M  V30 2828 H 271.319 -2.80165 -4.09539 0
M  V30 2829 N 270.492 0.636531 -1.44174 0
M  V30 2830 C 271.722 1.42146 -1.49927 0
M  V30 2831 C 272.13 1.88812 -0.121063 0
M  V30 2832 O 271.473 1.61126 0.882267 0
M  V30 2833 C 271.535 2.67883 -2.39748 0
M  V30 2834 C 271.199 2.43048 -3.8701 0
M  V30 2835 C 272.196 2.05216 -4.77684 0
M  V30 2836 C 269.881 2.56856 -4.3166 0
M  V30 2837 C 271.875 1.81512 -6.11009 0
M  V30 2838 C 269.562 2.32766 -5.65034 0
M  V30 2839 C 270.56 1.95152 -6.54526 0
M  V30 2840 O 270.248 1.71326 -7.85431 0
M  V30 2841 H 269.98 0.442567 -0.51099 0
M  V30 2842 H 272.534 0.786158 -1.8976 0
M  V30 2843 H 270.764 3.34032 -1.94832 0
M  V30 2844 H 272.453 3.29874 -2.36513 0
M  V30 2845 H 273.219 1.94111 -4.44462 0
M  V30 2846 H 269.098 2.85104 -3.62266 0
M  V30 2847 H 272.642 1.52077 -6.80822 0
M  V30 2848 H 268.539 2.43479 -5.97819 0
M  V30 2849 H 269.307 1.85616 -7.97176 0
M  V30 2850 N 271.97 1.30982 0.876444 0
M  V30 2851 C 273.218 1.20058 1.62575 0
M  V30 2852 C 273.539 -0.242947 1.93481 0
M  V30 2853 O 272.809 -1.1619 1.57724 0
M  V30 2854 H 271.389 0.44135 0.602677 0
M  V30 2855 H 274.051 1.64222 1.04962 0
M  V30 2856 H 273.147 1.76762 2.57219 0
M  V30 2857 N 273.449 -1.08991 1.13837 0
M  V30 2858 C 274.696 -1.81258 0.902882 0
M  V30 2859 C 275.024 -1.85936 -0.570803 0
M  V30 2860 O 274.279 -1.3267 -1.43865 0
M  V30 2861 C 274.578 -3.27042 1.44147 0
M  V30 2862 C 274.244 -3.4249 2.93276 0
M  V30 2863 C 272.906 -3.46414 3.33992 0
M  V30 2864 C 275.258 -3.4666 3.892 0
M  V30 2865 C 272.586 -3.52091 4.69307 0
M  V30 2866 C 274.938 -3.53872 5.24364 0
M  V30 2867 C 273.602 -3.56066 5.646 0
M  V30 2868 H 272.872 -0.663268 0.330388 0
M  V30 2869 H 275.519 -1.28368 1.42105 0
M  V30 2870 H 273.824 -3.82599 0.844097 0
M  V30 2871 H 275.521 -3.81499 1.23528 0
M  V30 2872 H 272.111 -3.40124 2.60794 0
M  V30 2873 H 276.295 -3.42865 3.58828 0
M  V30 2874 H 271.551 -3.52079 4.9985 0
M  V30 2875 H 275.725 -3.56043 5.98503 0
M  V30 2876 H 273.352 -3.60218 6.69438 0
M  V30 2877 N 274.927 -0.932562 -1.27047 0
M  V30 2878 C 276.152 -0.591474 -1.98787 0
M  V30 2879 C 276.577 0.824601 -1.69062 0
M  V30 2880 O 275.935 1.5541 -0.933677 0
M  V30 2881 C 275.983 -0.829808 -3.50922 0
M  V30 2882 O 275.087 0.102266 -4.12273 0
M  V30 2883 H 274.428 -0.227185 -0.623926 0
M  V30 2884 H 276.958 -1.25314 -1.61733 0
M  V30 2885 H 276.968 -0.747292 -4.01098 0
M  V30 2886 H 275.643 -1.86201 -3.7189 0
M  V30 2887 H 274.22 -0.0305761 -3.72887 0
M  V30 2888 N 276.405 1.4127 -0.698611 0
M  V30 2889 C 277.633 2.05503 -0.239992 0
M  V30 2890 C 278.048 1.52584 1.11191 0
M  V30 2891 O 277.405 0.675323 1.69545 0
M  V30 2892 C 277.456 3.60987 -0.192429 0
M  V30 2893 O 277.177 4.1195 -1.49094 0
M  V30 2894 C 278.678 4.42371 0.28681 0
M  V30 2895 H 275.898 0.661748 -0.111045 0
M  V30 2896 H 278.442 1.80987 -0.95205 0
M  V30 2897 H 276.597 3.84533 0.470472 0
M  V30 2898 H 277.011 5.06018 -1.38007 0
M  V30 2899 H 278.485 5.51344 0.26896 0
M  V30 2900 H 278.962 4.18699 1.32619 0
M  V30 2901 H 279.568 4.23897 -0.345201 0
M  V30 2902 N 277.883 0.443576 1.51229 0
M  V30 2903 C 279.132 -0.122332 2.01329 0
M  V30 2904 C 279.445 -1.43237 1.33201 0
M  V30 2905 O 280.651 -2.0816 1.74304 0
M  V30 2906 C 279.107 -0.268551 3.58897 0
M  V30 2907 C 278.715 1.03142 4.35965 0
M  V30 2908 C 280.459 -0.787894 4.17124 0
M  V30 2909 C 278.366 0.850504 5.85252 0
M  V30 2910 H 277.296 -0.0494929 0.752374 0
M  V30 2911 H 279.947 0.574289 1.74282 0
M  V30 2912 H 278.329 -1.02832 3.82415 0
M  V30 2913 H 279.503 1.80001 4.24189 0
M  V30 2914 H 277.818 1.47977 3.89219 0
M  V30 2915 H 280.415 -0.939841 5.26375 0
M  V30 2916 H 280.758 -1.77201 3.76703 0
M  V30 2917 H 281.291 -0.0862669 3.97706 0
M  V30 2918 H 278.03 1.80718 6.30096 0
M  V30 2919 H 277.55 0.121825 5.99676 0
M  V30 2920 H 279.229 0.506163 6.45017 0
M  V30 2921 N 279.361 -1.56624 0.175154 0
M  V30 2922 C 280.609 -1.96609 -0.467885 0
M  V30 2923 C 280.93 -1.06238 -1.63519 0
M  V30 2924 O 280.2 -0.129523 -1.95471 0
M  V30 2925 H 278.78 -0.726008 -0.175845 0
M  V30 2926 H 281.442 -1.93195 0.257234 0
M  V30 2927 H 280.538 -3.00989 -0.825342 0
M  V30 2928 N 280.839 0.0985539 -1.57292 0
M  V30 2929 C 281.769 1.12064 -2.04851 0
M  V30 2930 C 282.75 1.41981 -0.936767 0
M  V30 2931 O 283.935 1.52071 -1.20781 0
M  V30 2932 C 281.065 2.44144 -2.47004 0
M  V30 2933 C 280.019 2.28643 -3.6181 0
M  V30 2934 C 279.345 3.65869 -3.89929 0
M  V30 2935 C 280.645 1.72986 -4.92822 0
M  V30 2936 H 282.339 0.724979 -2.9049 0
M  V30 2937 H 279.885 0.34729 -1.39749 0
M  V30 2938 H 281.838 3.15914 -2.78884 0
M  V30 2939 H 280.562 2.85639 -1.5836 0
M  V30 2940 H 279.221 1.59318 -3.30172 0
M  V30 2941 H 278.869 4.04885 -2.98458 0
M  V30 2942 H 278.569 3.56344 -4.67218 0
M  V30 2943 H 280.093 4.39112 -4.2428 0
M  V30 2944 H 281.507 2.34593 -5.23105 0
M  V30 2945 H 279.904 1.74229 -5.74251 0
M  V30 2946 H 280.974 0.689007 -4.7998 0
M  V30 2947 N 282.317 1.53212 0.369288 0
M  V30 2948 C 283.733 1.42902 0.710712 0
M  V30 2949 C 283.933 0.565135 1.93413 0
M  V30 2950 O 282.989 0.0461484 2.52458 0
M  V30 2951 C 284.302 2.86042 0.927382 0
M  V30 2952 C 285.85 2.9565 1.02762 0
M  V30 2953 C 286.325 4.39843 1.27679 0
M  V30 2954 N 287.816 4.43256 1.34457 0
M  V30 2955 C 288.551 5.51929 1.55439 0
M  V30 2956 N 288.047 6.70655 1.73762 0
M  V30 2957 N 289.84 5.39502 1.57779 0
M  V30 2958 H 281.991 2.07888 -0.435457 0
M  V30 2959 H 284.254 0.938661 -0.132739 0
M  V30 2960 H 283.96 3.51557 0.100287 0
M  V30 2961 H 283.834 3.29472 1.83653 0
M  V30 2962 H 286.221 2.30291 1.84527 0
M  V30 2963 H 286.302 2.5562 0.0959504 0
M  V30 2964 H 285.946 5.05774 0.464175 0
M  V30 2965 H 285.876 4.77443 2.22162 0
M  V30 2966 H 288.367 3.5769 1.21926 0
M  V30 2967 H 288.68 7.49248 1.89335 0
M  V30 2968 H 287.025 6.73648 1.70948 0
M  V30 2969 H 290.216 4.45713 1.43029 0
M  V30 2970 H 290.389 6.2426 1.7379 0
M  V30 2971 N 283.795 -0.628877 1.44509 0
M  V30 2972 C 285.025 -1.41349 1.50678 0
M  V30 2973 C 285.433 -1.88745 0.131075 0
M  V30 2974 O 284.776 -1.61592 -0.87371 0
M  V30 2975 C 284.838 -2.66608 2.41165 0
M  V30 2976 C 284.502 -2.40993 3.88293 0
M  V30 2977 C 285.499 -2.0268 4.78766 0
M  V30 2978 C 283.184 -2.54563 4.33016 0
M  V30 2979 C 285.178 -1.78269 6.11963 0
M  V30 2980 C 282.865 -2.29766 5.6626 0
M  V30 2981 C 283.863 -1.91678 6.55552 0
M  V30 2982 O 283.551 -1.67158 7.86329 0
M  V30 2983 H 283.283 -0.439851 0.51333 0
M  V30 2984 H 285.837 -0.776084 1.90174 0
M  V30 2985 H 284.067 -3.32994 1.96601 0
M  V30 2986 H 285.756 -3.28615 2.38259 0
M  V30 2987 H 286.522 -1.91751 4.45485 0
M  V30 2988 H 282.401 -2.83179 3.63773 0
M  V30 2989 H 285.945 -1.48465 6.81619 0
M  V30 2990 H 281.842 -2.40306 5.99102 0
M  V30 2991 H 282.61 -1.81386 7.98149 0
M  V30 2992 N 285.273 -1.31445 -0.869486 0
M  V30 2993 C 286.52 -1.21158 -1.62256 0
M  V30 2994 C 286.848 0.230155 -1.93133 0
M  V30 2995 O 286.103 1.17906 -1.56194 0
M  V30 2996 C 286.402 -2.00145 -2.96102 0
M  V30 2997 C 286.068 -3.4964 -2.84715 0
M  V30 2998 C 284.73 -3.90403 -2.81317 0
M  V30 2999 C 287.082 -4.44769 -2.71716 0
M  V30 3000 C 284.41 -5.24561 -2.62778 0
M  V30 3001 C 286.762 -5.79054 -2.54714 0
M  V30 3002 C 285.426 -6.19037 -2.49699 0
M  V30 3003 H 284.696 -0.443348 -0.593737 0
M  V30 3004 H 287.343 -1.62715 -1.00976 0
M  V30 3005 H 285.648 -1.5127 -3.6142 0
M  V30 3006 H 287.345 -1.89566 -3.53363 0
M  V30 3007 H 283.935 -3.17256 -2.88178 0
M  V30 3008 H 288.119 -4.14208 -2.73397 0
M  V30 3009 H 283.375 -5.54613 -2.57321 0
M  V30 3010 H 287.549 -6.52393 -2.43632 0
M  V30 3011 H 285.176 -7.22935 -2.35093 0
M  V30 3012 N 286.751 1.08385 -1.14413 0
M  V30 3013 C 287.699 2.17406 -0.826888 0
M  V30 3014 C 288.693 1.6827 0.195312 0
M  V30 3015 O 289.899 1.79927 0.0513892 0
M  V30 3016 H 286.274 0.70934 -0.249681 0
M  V30 3017 H 288.245 2.41388 -1.75426 0
M  V30 3018 C 286.994 3.46215 -0.320979 0
M  V30 3019 H 286.317 3.84401 -1.0989 0
M  V30 3020 H 287.757 4.23777 -0.137549 0
M  V30 3021 C 286.216 3.23067 0.955472 0
M  V30 3022 O 286.746 3.4668 2.02918 0
M  V30 3023 N 284.952 2.7661 0.890798 0
M  V30 3024 H 284.499 2.57594 0.0168815 0
M  V30 3025 H 284.457 2.61501 1.74542 0
M  V30 3026 N 288.23 0.939286 1.26551 0
M  V30 3027 C 289.476 0.586715 1.94128 0
M  V30 3028 C 289.809 -0.8717 1.73537 0
M  V30 3029 O 289.084 -1.62339 1.07127 0
M  V30 3030 C 289.367 0.927497 3.4795 0
M  V30 3031 C 289.22 2.44052 3.77834 0
M  V30 3032 C 290.539 0.441569 4.37879 0
M  V30 3033 H 287.658 0.21463 0.705055 0
M  V30 3034 H 290.3 1.17316 1.49455 0
M  V30 3035 H 288.45 0.428431 3.8613 0
M  V30 3036 H 290.122 3.01216 3.4938 0
M  V30 3037 H 288.365 2.8848 3.23978 0
M  V30 3038 H 289.036 2.62947 4.85348 0
M  V30 3039 H 291.512 0.869448 4.06915 0
M  V30 3040 H 290.388 0.708856 5.44304 0
M  V30 3041 H 290.649 -0.658467 4.37169 0
M  V30 3042 N 289.708 -1.40897 0.706093 0
M  V30 3043 C 290.955 -2.01054 0.241531 0
M  V30 3044 C 291.283 -1.55956 -1.16223 0
M  V30 3045 O 290.538 -0.766336 -1.80072 0
M  V30 3046 C 290.837 -3.5646 0.259099 0
M  V30 3047 C 290.503 -4.21106 1.61184 0
M  V30 3048 C 289.165 -4.38479 1.98216 0
M  V30 3049 C 291.517 -4.57256 2.50132 0
M  V30 3050 C 288.845 -4.89282 3.2376 0
M  V30 3051 C 291.197 -5.09454 3.7502 0
M  V30 3052 C 289.861 -5.25037 4.12181 0
M  V30 3053 H 289.131 -0.73571 0.0883825 0
M  V30 3054 H 291.778 -1.68645 0.907257 0
M  V30 3055 H 290.083 -3.88721 -0.490189 0
M  V30 3056 H 291.78 -4.00826 -0.11804 0
M  V30 3057 H 288.37 -4.07966 1.31384 0
M  V30 3058 H 292.554 -4.43479 2.228 0
M  V30 3059 H 287.81 -4.99531 3.52532 0
M  V30 3060 H 291.984 -5.36404 4.44121 0
M  V30 3061 H 289.611 -5.64164 5.09532 0
M  V30 3062 N 291.186 -0.45159 -1.50991 0
M  V30 3063 C 292.434 0.109857 -2.01801 0
M  V30 3064 C 292.755 1.41958 -1.3369 0
M  V30 3065 O 292.025 1.9003 -0.475951 0
M  V30 3066 H 290.605 0.0435884 -0.745727 0
M  V30 3067 H 293.267 -0.597557 -1.85514 0
M  V30 3068 H 292.363 0.275489 -3.10882 0
M  V30 3069 N 292.664 1.56529 -0.183458 0
M  V30 3070 C 294.08 1.58664 0.172554 0
M  V30 3071 C 294.28 1.19925 1.61926 0
M  V30 3072 O 293.336 0.916534 2.35278 0
M  V30 3073 C 294.649 3.00463 -0.119262 0
M  V30 3074 C 296.197 3.12945 -0.0584396 0
M  V30 3075 C 296.672 4.56857 -0.323408 0
M  V30 3076 N 298.163 4.62403 -0.271612 0
M  V30 3077 C 298.898 5.71626 -0.450639 0
M  V30 3078 N 298.394 6.89362 -0.689384 0
M  V30 3079 N 300.187 5.60775 -0.385701 0
M  V30 3080 H 292.338 1.79994 -1.12765 0
M  V30 3081 H 294.601 0.834808 -0.449222 0
M  V30 3082 H 294.307 3.33326 -1.12192 0
M  V30 3083 H 294.181 3.72659 0.583544 0
M  V30 3084 H 296.568 2.79902 0.934805 0
M  V30 3085 H 296.649 2.4316 -0.794144 0
M  V30 3086 H 296.293 4.9061 -1.31392 0
M  V30 3087 H 296.223 5.24816 0.43305 0
M  V30 3088 H 298.714 3.77785 -0.0932256 0
M  V30 3089 H 299.027 7.68489 -0.815113 0
M  V30 3090 H 297.372 6.91196 -0.726142 0
M  V30 3091 H 300.563 4.67674 -0.199687 0
M  V30 3092 H 300.736 6.4584 -0.528646 0
M  V30 3093 N 294.142 -0.090211 1.57342 0
M  V30 3094 C 295.558 -0.444547 1.53284 0
M  V30 3095 C 295.758 -1.80238 0.900914 0
M  V30 3096 O 294.814 -2.4759 0.495513 0
M  V30 3097 C 296.127 -0.402543 2.97993 0
M  V30 3098 C 297.675 -0.48405 3.09234 0
M  V30 3099 C 298.15 -0.472144 4.5556 0
M  V30 3100 N 299.641 -0.532757 4.60126 0
M  V30 3101 C 300.376 -0.545462 5.708 0
M  V30 3102 N 299.872 -0.514082 6.9089 0
M  V30 3103 N 301.665 -0.59064 5.58988 0
M  V30 3104 H 293.816 0.799121 1.96794 0
M  V30 3105 H 296.079 0.297965 0.899956 0
M  V30 3106 H 295.785 0.528106 3.47712 0
M  V30 3107 H 295.659 -1.21969 3.56936 0
M  V30 3108 H 298.046 -1.40512 2.595 0
M  V30 3109 H 298.127 0.361328 2.53235 0
M  V30 3110 H 297.771 0.445 5.05947 0
M  V30 3111 H 297.701 -1.3348 5.09402 0
M  V30 3112 H 300.192 -0.562006 3.73698 0
M  V30 3113 H 300.505 -0.527195 7.71 0
M  V30 3114 H 298.85 -0.481054 6.93333 0
M  V30 3115 H 302.041 -0.61272 4.64073 0
M  V30 3116 H 302.214 -0.597073 6.45243 0
M  V30 3117 N 295.62 -1.53406 -0.361157 0
M  V30 3118 C 296.552 -1.76446 -1.46286 0
M  V30 3119 C 297.565 -0.645322 -1.49464 0
M  V30 3120 O 298.754 -0.921681 -1.52864 0
M  V30 3121 C 295.854 -1.83332 -2.85031 0
M  V30 3122 C 295.027 -3.13033 -3.05498 0
M  V30 3123 C 294.086 -3.11104 -4.24383 0
M  V30 3124 O 293.112 -3.84888 -4.19344 0
M  V30 3125 N 294.314 -2.32234 -5.32022 0
M  V30 3126 H 297.079 -2.71508 -1.26899 0
M  V30 3127 H 294.64 -1.52238 -0.550915 0
M  V30 3128 H 296.632 -1.79514 -3.62708 0
M  V30 3129 H 295.202 -0.955342 -2.97644 0
M  V30 3130 H 294.422 -3.30119 -2.15442 0
M  V30 3131 H 295.71 -3.9874 -3.16044 0
M  V30 3132 H 295.108 -1.71807 -5.38979 0
M  V30 3133 H 293.665 -2.3423 -6.08259 0
M  V30 3134 N 297.098 0.621204 -1.44841 0
M  V30 3135 C 298.375 1.38 -1.38619 0
M  V30 3136 C 298.755 2.11041 -0.0498935 0
M  V30 3137 O 298.103 2.06992 0.967816 0
M  V30 3138 C 298.313 2.33817 -2.59096 0
M  V30 3139 C 299.661 2.96844 -3.03593 0
M  V30 3140 O 300.685 2.44141 -2.59371 0
M  V30 3141 O 299.544 3.92476 -3.80296 0
M  V30 3142 H 296.638 0.61811 -0.549426 0
M  V30 3143 H 299.184 0.645429 -1.56947 0
M  V30 3144 H 297.956 1.79012 -3.47952 0
M  V30 3145 H 297.579 3.14676 -2.43032 0
M  V30 3146 N 298.576 1.31904 0.862503 0
M  V30 3147 C 299.987 1.19803 1.43193 0
M  V30 3148 C 300.338 -0.192567 1.95253 0
M  V30 3149 O 299.463 -1.09081 1.86896 0
M  V30 3150 C 300.058 2.16883 2.60283 0
M  V30 3151 C 298.617 2.08692 3.13248 0
M  V30 3152 C 297.764 2.05691 1.85975 0
M  V30 3153 H 300.715 1.43846 0.670365 0
M  V30 3154 H 300.736 1.76278 3.37204 0
M  V30 3155 H 300.248 3.18083 2.22363 0
M  V30 3156 H 298.349 1.10713 3.55771 0
M  V30 3157 H 298.462 2.9815 3.75025 0
M  V30 3158 H 296.826 1.50814 2.05249 0
M  V30 3159 H 297.609 3.08659 1.50282 0
M  V30 3160 N 300.054 -1.07777 1.14986 0
M  V30 3161 C 301.002 -2.16964 0.838406 0
M  V30 3162 C 301.996 -1.68372 -0.186386 0
M  V30 3163 O 303.202 -1.79951 -0.0418465 0
M  V30 3164 H 299.577 -0.708006 0.253439 0
M  V30 3165 H 301.548 -2.40454 1.76704 0
M  V30 3166 C 300.297 -3.4604 0.339335 0
M  V30 3167 H 299.62 -3.83813 1.11927 0
M  V30 3168 H 301.06 -4.23698 0.160021 0
M  V30 3169 C 299.519 -3.23569 -0.938325 0
M  V30 3170 O 300.049 -3.47752 -2.01077 0
M  V30 3171 N 298.255 -2.77079 -0.876117 0
M  V30 3172 H 297.802 -2.576 -0.00322037 0
M  V30 3173 H 297.76 -2.62422 -1.73153 0
M  V30 3174 N 301.532 -0.945985 -1.26051 0
M  V30 3175 C 302.78 -0.594941 -1.93145 0
M  V30 3176 C 303.101 0.86953 -1.7454 0
M  V30 3177 O 302.371 1.61838 -1.10387 0
M  V30 3178 H 300.951 -0.217044 -0.714773 0
M  V30 3179 H 303.613 -1.20235 -1.53393 0
M  V30 3180 H 302.709 -0.816835 -3.01221 0
M  V30 3181 N 303.011 1.40521 -0.713556 0
M  V30 3182 C 303.974 2.29098 -0.0684347 0
M  V30 3183 C 304.974 1.45268 0.689472 0
M  V30 3184 O 306.164 1.66205 0.521677 0
M  V30 3185 C 303.296 3.28446 0.913024 0
M  V30 3186 H 304.489 2.87645 -0.84855 0
M  V30 3187 H 302.042 1.48809 -0.47809 0
M  V30 3188 H 302.777 2.74913 1.72027 0
M  V30 3189 H 302.562 3.90327 0.372472 0
M  V30 3190 H 304.052 3.94777 1.36165 0
M  V30 3191 N 304.489 0.459591 1.5075 0
M  V30 3192 C 305.719 -0.0972338 2.06371 0
M  V30 3193 C 306.127 -1.35074 1.32483 0
M  V30 3194 O 305.47 -1.79637 0.384226 0
M  V30 3195 C 305.532 -0.462759 3.56509 0
M  V30 3196 C 305.196 0.687084 4.51805 0
M  V30 3197 C 306.193 1.56578 4.95761 0
M  V30 3198 C 303.878 0.874144 4.94635 0
M  V30 3199 C 305.872 2.61604 5.81242 0
M  V30 3200 C 303.559 1.92765 5.79901 0
M  V30 3201 C 304.557 2.79697 6.23104 0
M  V30 3202 O 304.245 3.83235 7.06673 0
M  V30 3203 H 303.977 -0.00140687 0.675999 0
M  V30 3204 H 306.531 0.644011 1.95043 0
M  V30 3205 H 304.761 -1.25703 3.65699 0
M  V30 3206 H 306.45 -0.953323 3.94546 0
M  V30 3207 H 307.216 1.4329 4.6335 0
M  V30 3208 H 303.095 0.207006 4.60535 0
M  V30 3209 H 306.639 3.29489 6.14884 0
M  V30 3210 H 302.536 2.06064 6.11725 0
M  V30 3211 H 303.304 3.80084 7.24899 0
M  V30 3212 N 305.967 -1.56429 0.191757 0
M  V30 3213 C 306.93 -2.17707 -0.716688 0
M  V30 3214 C 307.93 -1.13061 -1.14341 0
M  V30 3215 O 309.12 -1.38464 -1.05704 0
M  V30 3216 C 306.252 -2.77644 -1.97804 0
M  V30 3217 H 307.445 -2.99342 -0.1829 0
M  V30 3218 H 304.998 -1.56193 -0.0578566 0
M  V30 3219 H 305.733 -1.99799 -2.55443 0
M  V30 3220 H 305.518 -3.54246 -1.68083 0
M  V30 3221 H 307.008 -3.24708 -2.62592 0
M  V30 3222 N 307.445 0.0818655 -1.57387 0
M  V30 3223 C 308.408 1.08265 -2.02018 0
M  V30 3224 C 309.408 1.32183 -0.915664 0
M  V30 3225 O 310.598 1.28073 -1.18081 0
M  V30 3226 C 307.73 2.42871 -2.39221 0
M  V30 3227 H 308.923 0.698204 -2.91659 0
M  V30 3228 H 306.476 0.327303 -1.52835 0
M  V30 3229 H 307.211 2.86167 -1.52575 0
M  V30 3230 H 306.996 2.26855 -3.19811 0
M  V30 3231 H 308.486 3.14826 -2.74362 0
M  V30 3232 N 308.923 1.53595 0.353017 0
M  V30 3233 C 310.169 1.70638 1.09593 0
M  V30 3234 C 310.502 0.463286 1.88593 0
M  V30 3235 O 309.777 -0.539597 1.86865 0
M  V30 3236 C 310.06 2.96406 2.04489 0
M  V30 3237 C 309.913 4.30901 1.29014 0
M  V30 3238 C 311.232 3.17812 3.0444 0
M  V30 3239 H 308.351 0.620913 0.397034 0
M  V30 3240 H 310.993 1.86254 0.375446 0
M  V30 3241 H 309.143 2.83223 2.65927 0
M  V30 3242 H 310.815 4.55917 0.702638 0
M  V30 3243 H 309.058 4.29741 0.592071 0
M  V30 3244 H 309.729 5.1506 1.98537 0
M  V30 3245 H 312.205 3.30263 2.53112 0
M  V30 3246 H 311.081 4.07223 3.6805 0
M  V30 3247 H 311.342 2.33669 3.75301 0
M  V30 3248 N 310.401 -0.613514 1.45168 0
M  V30 3249 C 311.65 -1.36874 1.4815 0
M  V30 3250 C 311.963 -1.952 0.124982 0
M  V30 3251 O 313.169 -2.71481 0.0324176 0
M  V30 3252 C 311.625 -2.47905 2.60904 0
M  V30 3253 C 311.233 -1.96016 4.02842 0
M  V30 3254 C 312.977 -3.24965 2.73126 0
M  V30 3255 C 310.884 -3.04494 5.06988 0
M  V30 3256 H 309.814 -0.514428 0.551253 0
M  V30 3257 H 312.465 -0.658182 1.7129 0
M  V30 3258 H 310.847 -3.21618 2.31037 0
M  V30 3259 H 312.021 -1.29051 4.4236 0
M  V30 3260 H 310.336 -1.31719 3.95018 0
M  V30 3261 H 312.933 -4.05865 3.48106 0
M  V30 3262 H 313.276 -3.75588 1.79553 0
M  V30 3263 H 313.809 -2.5835 3.0249 0
M  V30 3264 H 310.548 -2.58795 6.0225 0
M  V30 3265 H 310.068 -3.70044 4.72046 0
M  V30 3266 H 311.747 -3.68976 5.31475 0
M  V30 3267 N 311.879 -1.3236 -0.855495 0
M  V30 3268 C 313.29 -1.2056 -1.42556 0
M  V30 3269 C 313.641 0.182209 -1.95352 0
M  V30 3270 O 312.766 1.08088 -1.87472 0
M  V30 3271 C 313.361 -2.1826 -2.59129 0
M  V30 3272 C 311.92 -2.10351 -3.12137 0
M  V30 3273 C 311.067 -2.06674 -1.84882 0
M  V30 3274 H 314.018 -1.442 -0.662727 0
M  V30 3275 H 314.039 -1.78064 -3.36264 0
M  V30 3276 H 313.551 -3.19257 -2.20673 0
M  V30 3277 H 311.652 -1.12599 -3.55179 0
M  V30 3278 H 311.765 -3.00135 -3.73438 0
M  V30 3279 H 310.129 -1.51901 -2.04446 0
M  V30 3280 H 310.912 -3.09451 -1.48643 0
M  V30 3281 N 313.357 1.07166 -1.15556 0
M  V30 3282 C 314.304 2.14417 -0.854055 0
M  V30 3283 C 315.274 1.64965 0.193806 0
M  V30 3284 O 316.459 1.90703 0.0609443 0
M  V30 3285 C 313.599 3.43304 -0.351574 0
M  V30 3286 C 312.712 4.06537 -1.46123 0
M  V30 3287 C 311.847 5.23266 -0.914677 0
M  V30 3288 C 310.886 5.78464 -2.00114 0
M  V30 3289 N 310.023 6.86521 -1.47083 0
M  V30 3290 H 314.863 2.39548 -1.77259 0
M  V30 3291 H 312.4 1.17543 -0.884425 0
M  V30 3292 H 314.358 4.17179 -0.0419409 0
M  V30 3293 H 312.988 3.18419 0.530037 0
M  V30 3294 H 312.04 3.30297 -1.88701 0
M  V30 3295 H 313.352 4.43567 -2.28144 0
M  V30 3296 H 312.506 6.04131 -0.557698 0
M  V30 3297 H 311.245 4.87658 -0.0636583 0
M  V30 3298 H 310.25 4.96243 -2.36692 0
M  V30 3299 H 311.475 6.16126 -2.85597 0
M  V30 3300 H 309.421 6.52849 -0.642198 0
M  V30 3301 H 309.338 7.22446 -2.22729 0
M  V30 3302 H 310.606 7.71087 -1.14215 0
M  V30 3303 N 314.835 0.952656 1.25548 0
M  V30 3304 C 316.081 0.616826 1.93822 0
M  V30 3305 C 316.436 -0.836684 1.73255 0
M  V30 3306 O 315.729 -1.59218 1.06584 0
M  V30 3307 C 315.923 0.908818 3.45652 0
M  V30 3308 C 315.752 2.38916 3.80984 0
M  V30 3309 C 314.522 3.04637 4.03143 0
M  V30 3310 C 316.72 3.36838 3.88645 0
M  V30 3311 N 314.702 4.42565 4.25453 0
M  V30 3312 C 316.073 4.60065 4.1562 0
M  V30 3313 C 318.128 3.31704 3.71318 0
M  V30 3314 C 316.831 5.78795 4.2707 0
M  V30 3315 C 318.857 4.4977 3.84006 0
M  V30 3316 C 318.219 5.71783 4.11392 0
M  V30 3317 H 314.318 0.27629 0.731565 0
M  V30 3318 H 316.902 1.22443 1.5138 0
M  V30 3319 H 315.073 0.330166 3.86994 0
M  V30 3320 H 316.805 0.533093 4.01174 0
M  V30 3321 H 313.56 2.55215 3.98952 0
M  V30 3322 H 313.984 5.1399 4.40617 0
M  V30 3323 H 318.626 2.3842 3.49164 0
M  V30 3324 H 316.344 6.72521 4.48041 0
M  V30 3325 H 319.93 4.47342 3.71989 0
M  V30 3326 H 318.81 6.61617 4.2099 0
M  V30 3327 N 316.313 -1.40141 0.720998 0
M  V30 3328 C 317.541 -2.05096 0.272656 0
M  V30 3329 C 317.956 -1.54334 -1.0875 0
M  V30 3330 O 317.313 -0.702211 -1.6845 0
M  V30 3331 C 317.364 -3.60636 0.249835 0
M  V30 3332 O 317.085 -4.09526 1.55629 0
M  V30 3333 C 318.586 -4.42772 -0.216396 0
M  V30 3334 H 315.806 -0.659897 0.121558 0
M  V30 3335 H 318.35 -1.79449 0.980723 0
M  V30 3336 H 316.505 -3.85232 -0.409237 0
M  V30 3337 H 316.919 -5.03758 1.4604 0
M  V30 3338 H 318.393 -5.51702 -0.181212 0
M  V30 3339 H 318.87 -4.20756 -1.25941 0
M  V30 3340 H 319.476 -4.23294 0.412596 0
M  V30 3341 N 317.792 -0.46758 -1.50504 0
M  V30 3342 C 319.017 0.0886943 -2.0721 0
M  V30 3343 C 319.442 1.33057 -1.32956 0
M  V30 3344 O 318.8 1.77354 -0.376197 0
M  V30 3345 C 318.848 0.359202 -3.58806 0
M  V30 3346 O 317.952 1.44034 -3.8643 0
M  V30 3347 H 317.293 -0.0114349 -0.663902 0
M  V30 3348 H 319.823 -0.657613 -1.93744 0
M  V30 3349 H 319.833 0.600742 -4.03553 0
M  V30 3350 H 318.508 -0.548311 -4.1227 0
M  V30 3351 H 317.085 1.18638 -3.53524 0
M  V30 3352 N 319.27 1.56325 -0.20005 0
M  V30 3353 C 320.495 2.02548 0.44597 0
M  V30 3354 C 320.92 1.07922 1.5406 0
M  V30 3355 O 320.278 0.0635775 1.81188 0
M  V30 3356 C 320.326 3.47175 0.974761 0
M  V30 3357 O 319.43 3.55671 2.08739 0
M  V30 3358 H 318.771 0.655862 0.103638 0
M  V30 3359 H 321.301 2.02201 -0.312381 0
M  V30 3360 H 321.311 3.87067 1.2901 0
M  V30 3361 H 319.986 4.15538 0.17347 0
M  V30 3362 H 318.563 3.27657 1.78032 0
M  V30 3363 N 320.748 -0.0735177 1.57428 0
M  V30 3364 C 321.681 -1.11932 1.98863 0
M  V30 3365 C 322.659 -1.37666 0.865266 0
M  V30 3366 O 323.843 -1.51068 1.12742 0
M  V30 3367 C 320.97 -2.46403 2.32386 0
M  V30 3368 C 320.016 -2.36815 3.54713 0
M  V30 3369 S 320.849 -1.76392 5.05614 0
M  V30 3370 C 322.005 -3.12444 5.42337 0
M  V30 3371 H 322.238 -0.766212 2.87257 0
M  V30 3372 H 319.771 -0.281987 1.51803 0
M  V30 3373 H 321.729 -3.23755 2.52375 0
M  V30 3374 H 320.39 -2.78876 1.44524 0
M  V30 3375 H 319.583 -3.35977 3.7568 0
M  V30 3376 H 319.185 -1.67598 3.34345 0
M  V30 3377 H 321.477 -4.08753 5.40303 0
M  V30 3378 H 322.42 -2.96258 6.43146 0
M  V30 3379 H 322.828 -3.1297 4.69798 0
M  V30 3380 N 322.226 -1.5378 -0.344866 0
M  V30 3381 C 323.475 -1.7018 -1.08267 0
M  V30 3382 C 323.788 -0.471 -1.89845 0
M  V30 3383 O 324.994 -0.515917 -2.66553 0
M  V30 3384 C 323.45 -3.00923 -1.97417 0
M  V30 3385 C 323.058 -4.31335 -1.21053 0
M  V30 3386 C 324.802 -3.26688 -2.71063 0
M  V30 3387 C 322.709 -5.53153 -2.09225 0
M  V30 3388 H 321.639 -0.634138 -0.407903 0
M  V30 3389 H 324.29 -1.8028 -0.342246 0
M  V30 3390 H 322.672 -2.84676 -2.75274 0
M  V30 3391 H 323.846 -4.58281 -0.481159 0
M  V30 3392 H 322.161 -4.12173 -0.591813 0
M  V30 3393 H 324.758 -4.1489 -3.37299 0
M  V30 3394 H 325.101 -2.43639 -3.37558 0
M  V30 3395 H 325.634 -3.43705 -2.0028 0
M  V30 3396 H 322.373 -6.38741 -1.47274 0
M  V30 3397 H 321.893 -5.30458 -2.79955 0
M  V30 3398 H 323.572 -5.88744 -2.68308 0
M  V30 3399 N 323.704 0.605807 -1.45491 0
M  V30 3400 C 324.636 1.73031 -1.5031 0
M  V30 3401 C 325.649 1.57968 -0.393687 0
M  V30 3402 O 326.838 1.65817 -0.660839 0
M  V30 3403 C 323.938 3.11049 -1.34543 0
M  V30 3404 C 323.111 3.52334 -2.59189 0
M  V30 3405 C 322.17 4.69323 -2.37954 0
M  V30 3406 O 321.196 4.7635 -3.11575 0
M  V30 3407 N 322.398 5.62705 -1.4263 0
M  V30 3408 H 325.163 1.6936 -2.4726 0
M  V30 3409 H 322.724 0.79114 -1.41254 0
M  V30 3410 H 324.716 3.87071 -1.18144 0
M  V30 3411 H 323.286 3.09217 -0.458623 0
M  V30 3412 H 322.506 2.66256 -2.90691 0
M  V30 3413 H 323.794 3.76677 -3.42041 0
M  V30 3414 H 323.192 5.59744 -0.818758 0
M  V30 3415 H 321.749 6.38252 -1.32202 0
M  V30 3416 N 325.182 1.32811 0.848464 0
M  V30 3417 C 326.43 1.23479 1.59991 0
M  V30 3418 C 326.751 -0.201853 1.93952 0
M  V30 3419 O 326.021 -1.12818 1.60153 0
M  V30 3420 H 324.601 0.454034 0.593179 0
M  V30 3421 H 327.263 1.66412 1.01455 0
M  V30 3422 H 326.359 1.82178 2.53412 0
M  V30 3423 N 326.66 -1.06551 1.16123 0
M  V30 3424 C 327.937 -1.76097 0.85142 0
M  V30 3425 C 328.317 -2.00802 -0.6513 0
M  V30 3426 O 327.665 -1.63302 -1.59827 0
M  V30 3427 C 327.875 -3.06384 1.67122 0
M  V30 3428 C 329.223 -3.80585 1.88255 0
M  V30 3429 O 330.247 -3.16218 1.63966 0
M  V30 3430 O 329.106 -4.96212 2.2899 0
M  V30 3431 H 326.2 -0.765102 0.313923 0
M  V30 3432 H 328.746 -1.12844 1.26745 0
M  V30 3433 H 327.518 -2.84071 2.69108 0
M  V30 3434 H 327.141 -3.77371 1.25206 0
M  V30 3435 N 328.138 -0.959301 -1.25041 0
M  V30 3436 C 329.415 -0.533805 -1.88175 0
M  V30 3437 C 329.795 0.988994 -1.865 0
M  V30 3438 O 329.143 1.85677 -1.33177 0
M  V30 3439 C 329.353 -1.11575 -3.30684 0
M  V30 3440 C 330.701 -1.19548 -4.07423 0
M  V30 3441 O 331.725 -1.06765 -3.39823 0
M  V30 3442 O 330.584 -1.39656 -5.28354 0
M  V30 3443 H 327.678 -0.176772 -0.807887 0
M  V30 3444 H 330.224 -1.05303 -1.33076 0
M  V30 3445 H 328.996 -2.15884 -3.26358 0
M  V30 3446 H 328.619 -0.580059 -3.93346 0
M  V30 3447 N 329.616 1.39756 -0.72842 0
M  V30 3448 C 330.862 2.00942 -0.273892 0
M  V30 3449 C 331.195 1.57656 1.13394 0
M  V30 3450 O 330.47 0.802434 1.77176 0
M  V30 3451 C 330.753 3.58211 -0.368346 0
M  V30 3452 C 330.606 4.11534 -1.81548 0
M  V30 3453 C 331.925 4.39372 0.253054 0
M  V30 3454 H 329.044 0.730047 -0.100996 0
M  V30 3455 H 331.686 1.66056 -0.923337 0
M  V30 3456 H 329.836 3.88061 0.184588 0
M  V30 3457 H 331.508 3.92431 -2.42478 0
M  V30 3458 H 329.751 3.65341 -2.33898 0
M  V30 3459 H 330.422 5.20682 -1.83288 0
M  V30 3460 H 332.898 4.15527 -0.218224 0
M  V30 3461 H 331.774 5.48677 0.156585 0
M  V30 3462 H 332.035 4.21358 1.33826 0
M  V30 3463 N 331.094 0.475555 1.50254 0
M  V30 3464 C 332.324 -0.0753399 2.06463 0
M  V30 3465 C 332.732 -1.33661 1.33908 0
M  V30 3466 O 332.075 -1.79219 0.403257 0
M  V30 3467 C 332.137 -0.424921 3.5698 0
M  V30 3468 C 331.801 0.734965 4.51051 0
M  V30 3469 C 332.798 1.61827 4.94073 0
M  V30 3470 C 330.483 0.926557 4.9368 0
M  V30 3471 C 332.477 2.67754 5.78434 0
M  V30 3472 C 330.164 1.98904 5.77824 0
M  V30 3473 C 331.162 2.8629 6.20103 0
M  V30 3474 O 330.85 3.90708 7.02568 0
M  V30 3475 H 330.582 0.00576308 0.675975 0
M  V30 3476 H 333.136 0.664662 1.94349 0
M  V30 3477 H 331.366 -1.21817 3.67012 0
M  V30 3478 H 333.055 -0.911422 3.95535 0
M  V30 3479 H 333.821 1.48196 4.61804 0
M  V30 3480 H 329.7 0.25584 4.6029 0
M  V30 3481 H 333.244 3.35992 6.11355 0
M  V30 3482 H 329.141 2.12541 6.09505 0
M  V30 3483 H 329.909 3.87751 7.20827 0
M  V30 3484 N 332.573 -1.56217 0.208337 0
M  V30 3485 C 333.822 -1.97124 -0.427204 0
M  V30 3486 C 334.135 -1.09859 -1.61835 0
M  V30 3487 O 335.341 -1.40606 -2.32255 0
M  V30 3488 C 333.797 -3.50633 -0.811442 0
M  V30 3489 C 333.405 -4.46582 0.35615 0
M  V30 3490 C 335.149 -4.00282 -1.41332 0
M  V30 3491 C 333.056 -5.91379 -0.0497852 0
M  V30 3492 H 331.986 -0.736086 -0.163381 0
M  V30 3493 H 334.637 -1.8099 0.302456 0
M  V30 3494 H 333.019 -3.62319 -1.59815 0
M  V30 3495 H 334.193 -4.46636 1.1337 0
M  V30 3496 H 332.508 -4.07202 0.870396 0
M  V30 3497 H 335.105 -5.0595 -1.72972 0
M  V30 3498 H 335.448 -3.45359 -2.32449 0
M  V30 3499 H 335.981 -3.91764 -0.690323 0
M  V30 3500 H 332.72 -6.50255 0.827529 0
M  V30 3501 H 332.24 -5.94549 -0.791926 0
M  V30 3502 H 333.919 -6.45209 -0.481042 0
M  V30 3503 N 334.051 0.0651679 -1.57465 0
M  V30 3504 C 334.999 1.09542 -2.05191 0
M  V30 3505 C 335.993 1.39675 -0.958509 0
M  V30 3506 O 337.199 1.39003 -1.14359 0
M  V30 3507 H 333.574 0.370623 -0.654326 0
M  V30 3508 H 335.545 0.666802 -2.90854 0
M  V30 3509 C 334.294 2.39881 -2.51699 0
M  V30 3510 H 333.617 2.17547 -3.3543 0
M  V30 3511 H 335.057 3.104 -2.88839 0
M  V30 3512 C 333.516 3.0631 -1.40271 0
M  V30 3513 O 334.046 3.94664 -0.748523 0
M  V30 3514 N 332.252 2.67041 -1.14618 0
M  V30 3515 H 331.799 1.95281 -1.67997 0
M  V30 3516 H 331.757 3.1181 -0.402688 0
M  V30 3517 N 335.529 1.53961 0.336706 0
M  V30 3518 C 336.777 1.71197 1.07405 0
M  V30 3519 C 337.098 0.481475 1.88962 0
M  V30 3520 O 336.368 -0.504585 1.8929 0
M  V30 3521 H 334.948 0.631185 0.399517 0
M  V30 3522 H 337.61 1.91232 0.376323 0
M  V30 3523 H 336.706 2.58587 1.74755 0
M  V30 3524 N 337.007 -0.598083 1.45811 0
M  V30 3525 C 338.284 -1.35777 1.40797 0
M  V30 3526 C 338.664 -2.10935 0.083462 0
M  V30 3527 O 338.012 -2.08505 -0.934763 0
M  V30 3528 C 338.222 -2.29666 2.62783 0
M  V30 3529 C 339.57 -2.91977 3.08277 0
M  V30 3530 O 340.594 -2.39984 2.63223 0
M  V30 3531 O 339.453 -3.86376 3.86491 0
M  V30 3532 H 336.547 -0.609291 0.55919 0
M  V30 3533 H 339.093 -0.620379 1.57954 0
M  V30 3534 H 337.865 -1.73454 3.50756 0
M  V30 3535 H 337.488 -3.1077 2.48008 0
M  V30 3536 N 338.485 -1.33259 -0.841409 0
M  V30 3537 C 339.733 -1.24326 -1.59334 0
M  V30 3538 C 340.054 0.191564 -1.94057 0
M  V30 3539 O 339.324 1.11967 -1.60749 0
M  V30 3540 H 337.904 -0.457174 -0.590763 0
M  V30 3541 H 340.566 -1.66947 -1.00571 0
M  V30 3542 H 339.662 -1.8352 -2.52442 0
M  V30 3543 N 339.963 1.05934 -1.16686 0
M  V30 3544 C 340.873 2.17014 -0.891183 0
M  V30 3545 C 341.889 1.73453 0.137907 0
M  V30 3546 O 343.065 2.01361 -0.039592 0
M  V30 3547 C 340.13 3.44384 -0.400099 0
M  V30 3548 C 339.191 4.02433 -1.49486 0
M  V30 3549 C 338.424 5.23723 -1.02711 0
M  V30 3550 O 338.647 5.7027 0.121716 0
M  V30 3551 O 337.581 5.7382 -1.81699 0
M  V30 3552 H 341.407 2.43113 -1.82015 0
M  V30 3553 H 338.992 1.15541 -0.947132 0
M  V30 3554 H 340.874 4.21189 -0.133392 0
M  V30 3555 H 339.549 3.19802 0.500817 0
M  V30 3556 H 338.456 3.27102 -1.81535 0
M  V30 3557 H 339.789 4.31317 -2.37121 0
M  V30 3558 N 341.441 0.965919 1.2453 0
M  V30 3559 C 342.669 0.644385 1.96609 0
M  V30 3560 C 343.084 -0.785823 1.71669 0
M  V30 3561 O 342.441 -1.52703 0.999399 0
M  V30 3562 C 342.492 0.907375 3.49927 0
M  V30 3563 O 342.213 2.28136 3.74013 0
M  V30 3564 C 343.714 0.599784 4.39224 0
M  V30 3565 H 340.934 0.240588 0.626385 0
M  V30 3566 H 343.478 1.29337 1.58405 0
M  V30 3567 H 341.633 0.304631 3.862 0
M  V30 3568 H 342.047 2.36002 4.68405 0
M  V30 3569 H 343.521 0.834263 5.45659 0
M  V30 3570 H 343.998 -0.465921 4.36722 0
M  V30 3571 H 344.604 1.18235 4.08535 0
M  V30 3572 N 342.919 -1.39368 0.735821 0
M  V30 3573 C 344.144 -2.05319 0.293052 0
M  V30 3574 C 344.569 -1.55115 -1.064 0
M  V30 3575 O 343.927 -0.695261 -1.67439 0
M  V30 3576 C 343.975 -3.59305 0.305323 0
M  V30 3577 O 343.079 -4.06299 -0.706761 0
M  V30 3578 H 342.42 -0.650529 0.13307 0
M  V30 3579 H 344.95 -1.78386 1.00197 0
M  V30 3580 H 344.96 -4.07724 0.149997 0
M  V30 3581 H 343.635 -3.95207 1.29553 0
M  V30 3582 H 342.212 -3.69292 -0.517504 0
M  V30 3583 N 344.397 -0.483516 -1.5 0
M  V30 3584 C 345.813 -0.138404 -1.58999 0
M  V30 3585 C 346.013 1.35597 -1.4905 0
M  V30 3586 O 345.069 2.13039 -1.35539 0
M  V30 3587 C 346.382 -0.699658 -2.92447 0
M  V30 3588 C 347.93 -0.664195 -3.05872 0
M  V30 3589 C 348.405 -1.20321 -4.41913 0
M  V30 3590 N 349.896 -1.16315 -4.48358 0
M  V30 3591 C 350.631 -1.55058 -5.52037 0
M  V30 3592 N 350.127 -2.01311 -6.62907 0
M  V30 3593 N 351.92 -1.46584 -5.42651 0
M  V30 3594 H 344.071 -1.45529 -1.5471 0
M  V30 3595 H 346.334 -0.60258 -0.731848 0
M  V30 3596 H 346.04 -1.747 -3.05242 0
M  V30 3597 H 345.914 -0.150194 -3.76901 0
M  V30 3598 H 348.301 0.374272 -2.92717 0
M  V30 3599 H 348.382 -1.25061 -2.23144 0
M  V30 3600 H 348.026 -2.24037 -4.55818 0
M  V30 3601 H 347.956 -0.592896 -5.23252 0
M  V30 3602 H 350.447 -0.824058 -3.68806 0
M  V30 3603 H 350.76 -2.2899 -7.38095 0
M  V30 3604 H 349.105 -2.05273 -6.63994 0
M  V30 3605 H 352.296 -1.10281 -4.54924 0
M  V30 3606 H 352.469 -1.77103 -6.23329 0
M  V30 3607 N 345.875 1.56104 -0.216619 0
M  V30 3608 C 347.152 1.89988 0.465165 0
M  V30 3609 C 347.532 1.13326 1.78102 0
M  V30 3610 O 346.88 0.241033 2.27225 0
M  V30 3611 C 347.09 3.42646 0.662939 0
M  V30 3612 C 348.438 4.13311 0.972602 0
M  V30 3613 O 349.462 3.48217 0.749901 0
M  V30 3614 O 348.321 5.28396 1.39499 0
M  V30 3615 H 345.415 0.78979 0.245276 0
M  V30 3616 H 347.961 1.67721 -0.258436 0
M  V30 3617 H 346.733 3.90399 -0.26543 0
M  V30 3618 H 346.356 3.70677 1.43821 0
M  V30 3619 N 347.353 -0.0568162 1.57498 0
M  V30 3620 C 348.6 -0.753104 1.87975 0
M  V30 3621 C 348.928 -1.76815 0.81035 0
M  V30 3622 O 348.183 -1.94756 -0.19199 0
M  V30 3623 C 348.482 -1.48359 3.25153 0
M  V30 3624 C 348.148 -0.60713 4.46794 0
M  V30 3625 C 346.81 -0.365642 4.79809 0
M  V30 3626 C 349.162 -0.000305978 5.212 0
M  V30 3627 C 346.49 0.491905 5.84634 0
M  V30 3628 C 348.842 0.844781 6.26934 0
M  V30 3629 C 347.506 1.096 6.58441 0
M  V30 3630 H 346.776 -0.27558 0.687849 0
M  V30 3631 H 349.423 -0.0135173 1.91495 0
M  V30 3632 H 347.728 -2.29577 3.17492 0
M  V30 3633 H 349.425 -2.02739 3.45974 0
M  V30 3634 H 346.015 -0.805487 4.20963 0
M  V30 3635 H 350.199 -0.173961 4.95995 0
M  V30 3636 H 345.455 0.695131 6.07436 0
M  V30 3637 H 349.629 1.32165 6.83744 0
M  V30 3638 H 347.256 1.76224 7.39492 0
M  V30 3639 N 348.832 -1.54138 -0.328536 0
M  V30 3640 C 350.072 -1.73827 -1.07534 0
M  V30 3641 C 350.436 -0.498777 -1.85408 0
M  V30 3642 O 351.637 -0.572937 -2.62623 0
M  V30 3643 C 349.908 -2.97573 -1.97952 0
M  V30 3644 S 351.467 -3.38143 -2.79652 0
M  V30 3645 H 348.285 -0.611287 -0.36311 0
M  V30 3646 H 350.887 -1.92306 -0.351931 0
M  V30 3647 H 349.591 -3.85939 -1.39569 0
M  V30 3648 H 349.122 -2.81603 -2.74706 0
M  V30 3649 H 351.137 -2.93052 -4.00418 0
M  V30 3650 N 350.31 0.590341 -1.46126 0
M  V30 3651 C 351.54 1.37304 -1.54373 0
M  V30 3652 C 351.948 1.88332 -0.181071 0
M  V30 3653 O 351.291 1.63852 0.830559 0
M  V30 3654 C 351.353 2.6012 -2.48149 0
M  V30 3655 C 351.017 2.30613 -3.94546 0
M  V30 3656 C 352.014 1.89915 -4.83971 0
M  V30 3657 C 349.699 2.42993 -4.39613 0
M  V30 3658 C 351.693 1.61981 -6.16475 0
M  V30 3659 C 349.38 2.14672 -5.72153 0
M  V30 3660 C 350.378 1.7423 -6.60404 0
M  V30 3661 O 350.066 1.46251 -7.90485 0
M  V30 3662 H 349.798 0.426086 -0.524811 0
M  V30 3663 H 352.352 0.72539 -1.92165 0
M  V30 3664 H 350.582 3.27664 -2.05361 0
M  V30 3665 H 352.271 3.22182 -2.46887 0
M  V30 3666 H 353.037 1.79872 -4.50412 0
M  V30 3667 H 348.916 2.73435 -3.71153 0
M  V30 3668 H 352.46 1.30341 -6.85315 0
M  V30 3669 H 348.357 2.24337 -6.05263 0
M  V30 3670 H 349.125 1.6016 -8.02677 0
M  V30 3671 N 351.788 1.33704 0.83433 0
M  V30 3672 C 353.037 1.24763 1.58484 0
M  V30 3673 C 353.35 -0.183775 1.94735 0
M  V30 3674 O 354.556 -0.395234 2.68608 0
M  V30 3675 C 353.012 2.18638 2.85876 0
M  V30 3676 C 352.62 3.66974 2.56971 0
M  V30 3677 C 354.364 2.18581 3.63899 0
M  V30 3678 C 352.271 4.5275 3.80488 0
M  V30 3679 H 351.201 0.463425 0.594772 0
M  V30 3680 H 353.852 1.58797 0.919551 0
M  V30 3681 H 352.234 1.77542 3.5397 0
M  V30 3682 H 353.408 4.16538 1.9706 0
M  V30 3683 H 351.723 3.69366 1.92244 0
M  V30 3684 H 354.32 2.79894 4.55591 0
M  V30 3685 H 354.663 1.18207 3.99165 0
M  V30 3686 H 355.196 2.58062 3.02735 0
M  V30 3687 H 351.935 5.54017 3.5035 0
M  V30 3688 H 351.455 4.07927 4.39722 0
M  V30 3689 H 353.134 4.66784 4.4802 0
M  V30 3690 N 353.266 -1.05314 1.17247 0
M  V30 3691 C 354.176 -2.16538 0.90268 0
M  V30 3692 C 355.192 -1.73523 -0.128707 0
M  V30 3693 O 356.368 -2.01337 0.0502701 0
M  V30 3694 C 353.433 -3.44167 0.418356 0
M  V30 3695 C 352.494 -4.01635 1.51618 0
M  V30 3696 C 351.727 -5.23171 1.05487 0
M  V30 3697 O 351.95 -5.70327 -0.0914715 0
M  V30 3698 O 350.884 -5.72848 1.8474 0
M  V30 3699 H 354.71 -2.42145 1.83302 0
M  V30 3700 H 352.295 -1.15037 0.953246 0
M  V30 3701 H 354.177 -4.21112 0.155726 0
M  V30 3702 H 352.852 -3.20063 -0.48385 0
M  V30 3703 H 351.759 -3.26135 1.83268 0
M  V30 3704 H 353.092 -4.30053 2.39405 0
M  V30 3705 N 354.744 -0.972509 -1.24016 0
M  V30 3706 C 355.692 -0.498562 -2.27194 0
M  V30 3707 C 356.686 0.440372 -1.63576 0
M  V30 3708 O 357.892 0.315133 -1.7722 0
M  V30 3709 H 354.267 -0.142775 -0.738322 0
M  V30 3710 H 356.238 -1.38065 -2.64539 0
M  V30 3711 C 354.987 0.191072 -3.47175 0
M  V30 3712 H 354.31 -0.522318 -3.96373 0
M  V30 3713 H 355.75 0.486445 -4.212 0
M  V30 3714 C 354.209 1.41967 -3.05527 0
M  V30 3715 O 354.739 2.51642 -3.13112 0
M  V30 3716 N 352.945 1.28746 -2.60524 0
M  V30 3717 H 352.492 0.395089 -2.54552 0
M  V30 3718 H 352.45 2.11061 -2.33025 0
M  V30 3719 N 356.222 1.38976 -0.743202 0
M  V30 3720 C 357.45 2.04636 -0.30525 0
M  V30 3721 C 357.865 1.56044 1.06281 0
M  V30 3722 O 357.222 0.728921 1.67311 0
M  V30 3723 C 357.273 3.60193 -0.307177 0
M  V30 3724 O 356.994 4.06998 -1.62124 0
M  V30 3725 C 358.495 4.4306 0.145928 0
M  V30 3726 H 355.715 0.65788 -0.132041 0
M  V30 3727 H 358.259 1.77866 -1.00915 0
M  V30 3728 H 356.414 3.85835 0.347898 0
M  V30 3729 H 356.828 5.01371 -1.54036 0
M  V30 3730 H 358.302 5.51921 0.0934183 0
M  V30 3731 H 358.779 4.22706 1.19231 0
M  V30 3732 H 359.385 4.22584 -0.479886 0
M  V30 3733 N 357.7 0.491464 1.49741 0
M  V30 3734 C 358.946 -0.0565092 2.02721 0
M  V30 3735 C 359.279 -1.37522 1.37118 0
M  V30 3736 O 358.554 -1.87866 0.503645 0
M  V30 3737 C 358.837 -0.219051 3.59433 0
M  V30 3738 C 358.69 1.12211 4.35579 0
M  V30 3739 C 360.009 -0.964157 4.29409 0
M  V30 3740 H 357.128 -0.0190627 0.736753 0
M  V30 3741 H 359.77 0.641021 1.7886 0
M  V30 3742 H 357.92 -0.813165 3.79895 0
M  V30 3743 H 359.592 1.75437 4.26637 0
M  V30 3744 H 357.835 1.71377 3.98513 0
M  V30 3745 H 358.506 0.961794 5.43556 0
M  V30 3746 H 360.982 -0.460378 4.13545 0
M  V30 3747 H 359.858 -1.04671 5.38828 0
M  V30 3748 H 360.119 -2.00563 3.93988 0
M  V30 3749 N 359.178 -1.55987 0.224894 0
M  V30 3750 C 360.11 -2.17722 -0.716224 0
M  V30 3751 C 361.123 -1.14723 -1.15509 0
M  V30 3752 O 362.312 -1.41688 -1.08567 0
M  V30 3753 C 359.412 -2.74873 -1.98238 0
M  V30 3754 C 358.585 -4.03074 -1.69853 0
M  V30 3755 C 357.644 -4.44757 -2.81208 0
M  V30 3756 O 356.67 -5.11587 -2.49534 0
M  V30 3757 N 357.872 -4.10716 -4.10235 0
M  V30 3758 H 360.637 -2.99109 -0.188123 0
M  V30 3759 H 358.198 -1.6184 0.0440123 0
M  V30 3760 H 360.19 -2.99727 -2.7193 0
M  V30 3761 H 358.76 -1.9777 -2.42086 0
M  V30 3762 H 357.98 -3.86041 -0.797875 0
M  V30 3763 H 359.268 -4.86701 -1.48324 0
M  V30 3764 H 358.666 -3.57019 -4.38809 0
M  V30 3765 H 357.223 -4.40455 -4.80461 0
M  V30 3766 N 360.656 0.0484629 -1.57525 0
M  V30 3767 C 361.619 1.03956 -2.04269 0
M  V30 3768 C 362.619 1.30211 -0.943496 0
M  V30 3769 O 363.809 1.25539 -1.20771 0
M  V30 3770 C 360.941 2.37742 -2.44319 0
M  V30 3771 H 362.134 0.636182 -2.93075 0
M  V30 3772 H 359.687 0.294811 -1.53494 0
M  V30 3773 H 360.422 2.82866 -1.5861 0
M  V30 3774 H 360.207 2.20021 -3.24551 0
M  V30 3775 H 361.697 3.08936 -2.80978 0
M  V30 3776 N 362.134 1.5431 0.320358 0
M  V30 3777 C 363.082 1.84647 1.4145 0
M  V30 3778 C 364.076 0.718624 1.53402 0
M  V30 3779 O 365.282 0.902335 1.5575 0
M  V30 3780 H 361.657 0.585349 0.472091 0
M  V30 3781 H 363.628 2.7614 1.13089 0
M  V30 3782 C 362.377 2.09341 2.77617 0
M  V30 3783 H 361.7 2.9559 2.69196 0
M  V30 3784 H 363.14 2.3452 3.53237 0
M  V30 3785 C 361.599 0.885939 3.25043 0
M  V30 3786 O 362.129 0.0967891 4.01583 0
M  V30 3787 N 360.335 0.696682 2.82125 0
M  V30 3788 H 359.882 1.34006 2.2 0
M  V30 3789 H 359.84 -0.109712 3.14209 0
M  V30 3790 N 363.613 -0.582584 1.46437 0
M  V30 3791 C 364.543 -1.70187 1.59871 0
M  V30 3792 C 365.524 -1.64066 0.449042 0
M  V30 3793 O 366.709 -1.82081 0.6753 0
M  V30 3794 C 363.839 -3.08827 1.58881 0
M  V30 3795 C 362.793 -3.29779 2.72819 0
M  V30 3796 C 362.119 -4.68947 2.5689 0
M  V30 3797 C 363.419 -3.17601 4.1464 0
M  V30 3798 H 365.113 -1.592 2.53566 0
M  V30 3799 H 362.659 -0.764472 1.22032 0
M  V30 3800 H 364.612 -3.86951 1.66873 0
M  V30 3801 H 363.336 -3.20713 0.617306 0
M  V30 3802 H 361.995 -2.54054 2.64296 0
M  V30 3803 H 361.643 -4.77599 1.57823 0
M  V30 3804 H 361.343 -4.83919 3.33312 0
M  V30 3805 H 362.867 -5.4924 2.66773 0
M  V30 3806 H 364.281 -3.8557 4.24274 0
M  V30 3807 H 362.678 -3.44094 4.9165 0
M  V30 3808 H 363.748 -2.14681 4.34788 0
M  V30 3809 N 365.091 -1.34144 -0.827227 0
M  V30 3810 C 366.021 -1.28005 -1.95287 0
M  V30 3811 C 367.002 -0.158321 -1.69362 0
M  V30 3812 O 368.187 -0.349987 -1.9102 0
M  V30 3813 C 365.317 -1.03036 -3.31664 0
M  V30 3814 C 364.271 -2.11628 -3.72019 0
M  V30 3815 C 363.597 -1.71854 -5.0633 0
M  V30 3816 C 364.897 -3.53417 -3.8457 0
M  V30 3817 H 366.591 -2.22187 -2.00682 0
M  V30 3818 H 364.137 -1.0696 -0.964135 0
M  V30 3819 H 366.09 -0.973863 -4.09993 0
M  V30 3820 H 364.814 -0.0529391 -3.26557 0
M  V30 3821 H 363.473 -2.16339 -2.95961 0
M  V30 3822 H 363.121 -0.727841 -4.97706 0
M  V30 3823 H 362.821 -2.44531 -5.34302 0
M  V30 3824 H 364.345 -1.67692 -5.87122 0
M  V30 3825 H 365.759 -3.51142 -4.5318 0
M  V30 3826 H 364.156 -4.24679 -4.2399 0
M  V30 3827 H 365.226 -3.91072 -2.86689 0
M  V30 3828 N 366.569 1.04691 -1.17803 0
M  V30 3829 C 367.532 2.10724 -0.901545 0
M  V30 3830 C 368.532 1.6042 0.110437 0
M  V30 3831 O 369.722 1.7377 -0.122303 0
M  V30 3832 C 366.854 3.39084 -0.351409 0
M  V30 3833 H 368.047 2.36686 -1.84174 0
M  V30 3834 H 365.6 1.21015 -0.98919 0
M  V30 3835 H 366.335 3.18782 0.59569 0
M  V30 3836 H 366.12 3.76909 -1.08083 0
M  V30 3837 H 367.61 4.17227 -0.176451 0
M  V30 3838 N 368.047 0.979072 1.23499 0
M  V30 3839 C 369.01 0.523244 2.23147 0
M  V30 3840 C 370.01 -0.386406 1.56088 0
M  V30 3841 O 371.2 -0.180283 1.73265 0
M  V30 3842 C 368.332 -0.240739 3.40049 0
M  V30 3843 H 369.525 1.40432 2.64989 0
M  V30 3844 H 367.078 0.764824 1.36309 0
M  V30 3845 H 367.813 -1.13841 3.03662 0
M  V30 3846 H 367.598 0.412207 3.89927 0
M  V30 3847 H 369.088 -0.548297 4.13985 0
M  V30 3848 N 369.525 -1.3858 0.750561 0
M  V30 3849 C 370.753 -2.04471 0.316098 0
M  V30 3850 C 371.168 -1.56606 -1.05452 0
M  V30 3851 O 370.525 -0.737784 -1.66922 0
M  V30 3852 C 370.576 -3.60025 0.326275 0
M  V30 3853 O 370.297 -4.06133 1.6428 0
M  V30 3854 C 371.798 -4.43131 -0.122429 0
M  V30 3855 H 369.018 -0.65717 0.135528 0
M  V30 3856 H 371.562 -1.77329 1.01857 0
M  V30 3857 H 369.717 -3.86014 -0.327431 0
M  V30 3858 H 370.131 -5.00547 1.56693 0
M  V30 3859 H 371.605 -5.51963 -0.0641473 0
M  V30 3860 H 372.082 -4.23333 -1.16988 0
M  V30 3861 H 372.688 -4.22323 0.50229 0
M  V30 3862 N 371.003 -0.499398 -1.49478 0
M  V30 3863 C 371.966 0.268838 -2.27618 0
M  V30 3864 C 372.966 0.895383 -1.33565 0
M  V30 3865 O 374.156 0.760164 -1.56739 0
M  V30 3866 C 371.288 1.38559 -3.11471 0
M  V30 3867 H 372.481 -0.416812 -2.96989 0
M  V30 3868 H 370.034 -0.254313 -1.54217 0
M  V30 3869 H 370.769 2.10544 -2.46661 0
M  V30 3870 H 370.554 0.941797 -3.80621 0
M  V30 3871 H 372.044 1.92678 -3.70493 0
M  V30 3872 N 372.481 1.55866 -0.233164 0
M  V30 3873 C 373.729 1.9821 0.394593 0
M  V30 3874 C 374.05 1.12234 1.59463 0
M  V30 3875 O 373.32 0.201981 1.94856 0
M  V30 3876 H 371.9 0.732034 0.148778 0
M  V30 3877 H 374.562 1.92107 -0.32876 0
M  V30 3878 H 373.658 3.03845 0.713063 0
M  V30 3879 N 373.959 -0.0401083 1.57549 0
M  V30 3880 C 374.889 -1.04384 2.08869 0
M  V30 3881 C 375.87 -1.38407 0.988817 0
M  V30 3882 O 377.055 -1.47483 1.26342 0
M  V30 3883 C 374.185 -2.34808 2.55895 0
M  V30 3884 C 373.139 -2.15057 3.70047 0
M  V30 3885 C 372.465 -3.51145 4.03239 0
M  V30 3886 C 373.765 -1.54576 4.98902 0
M  V30 3887 H 375.459 -0.616666 2.92981 0
M  V30 3888 H 373.005 -0.295184 1.40942 0
M  V30 3889 H 374.958 -3.05346 2.90417 0
M  V30 3890 H 373.682 -2.79565 1.68853 0
M  V30 3891 H 372.341 -1.46954 3.35857 0
M  V30 3892 H 371.989 -3.93529 3.13279 0
M  V30 3893 H 371.689 -3.38758 4.80122 0
M  V30 3894 H 373.213 -4.23062 4.40285 0
M  V30 3895 H 374.627 -2.15017 5.31451 0
M  V30 3896 H 373.024 -1.52796 5.80322 0
M  V30 3897 H 374.094 -0.51039 4.82206 0
M  V30 3898 N 375.437 -1.54477 -0.31217 0
M  V30 3899 C 376.714 -1.63891 -1.06767 0
M  V30 3900 C 377.094 -0.480028 -2.0557 0
M  V30 3901 O 376.442 0.524487 -2.22399 0
M  V30 3902 C 376.652 -3.01402 -1.75948 0
M  V30 3903 C 378 -3.57838 -2.28554 0
M  V30 3904 O 379.024 -3.03782 -1.85998 0
M  V30 3905 O 377.883 -4.52462 -3.06497 0
M  V30 3906 H 374.977 -0.664125 -0.492816 0
M  V30 3907 H 377.523 -1.66823 -0.311149 0
M  V30 3908 H 376.295 -3.77187 -1.04144 0
M  V30 3909 H 375.918 -3.02199 -2.58383 0
M  V30 3910 N 376.915 0.57481 -1.46744 0
M  V30 3911 C 377.878 1.66533 -1.57478 0
M  V30 3912 C 378.878 1.54338 -0.451263 0
M  V30 3913 O 380.068 1.58814 -0.715813 0
M  V30 3914 C 377.2 3.05999 -1.50259 0
M  V30 3915 H 378.393 1.58372 -2.54673 0
M  V30 3916 H 375.946 0.793301 -1.34672 0
M  V30 3917 H 376.681 3.19709 -0.543725 0
M  V30 3918 H 376.466 3.16259 -2.31781 0
M  V30 3919 H 377.956 3.8537 -1.60872 0
M  V30 3920 N 378.394 1.34581 0.820102 0
M  V30 3921 C 379.81 1.14325 1.11364 0
M  V30 3922 C 380.01 -0.0533648 2.01429 0
M  V30 3923 O 379.066 -0.728044 2.41776 0
M  V30 3924 C 380.379 2.43983 1.75764 0
M  V30 3925 C 381.927 2.50065 1.88246 0
M  V30 3926 C 382.402 3.79732 2.56061 0
M  V30 3927 N 383.893 3.80908 2.63558 0
M  V30 3928 C 384.628 4.77961 3.16766 0
M  V30 3929 N 384.124 5.85397 3.70517 0
M  V30 3930 N 385.917 4.65413 3.15194 0
M  V30 3931 H 378.068 2.11246 0.221096 0
M  V30 3932 H 380.331 0.934289 0.160649 0
M  V30 3933 H 380.037 3.31651 1.1705 0
M  V30 3934 H 379.911 2.57531 2.75604 0
M  V30 3935 H 382.298 1.62834 2.46108 0
M  V30 3936 H 382.379 2.40442 0.873006 0
M  V30 3937 H 382.023 4.67354 1.98853 0
M  V30 3938 H 381.953 3.86639 3.57516 0
M  V30 3939 H 384.444 3.03274 2.25463 0
M  V30 3940 H 384.757 6.55463 4.09376 0
M  V30 3941 H 383.102 5.89107 3.68752 0
M  V30 3942 H 386.293 3.80627 2.72471 0
M  V30 3943 H 386.466 5.41216 3.56356 0
M  V30 3944 N 379.872 -1.04064 1.18357 0
M  V30 3945 C 380.82 -2.14187 0.907007 0
M  V30 3946 C 381.814 -1.68879 -0.132725 0
M  V30 3947 O 383.02 -1.79993 0.0154248 0
M  V30 3948 H 379.395 -0.699585 0.275835 0
M  V30 3949 H 381.366 -2.34711 1.84264 0
M  V30 3950 C 380.115 -3.44785 0.449254 0
M  V30 3951 H 379.438 -3.80058 1.24081 0
M  V30 3952 H 380.878 -4.22974 0.294737 0
M  V30 3953 C 379.337 -3.26391 -0.834909 0
M  V30 3954 O 379.867 -3.53973 -1.89911 0
M  V30 3955 N 378.073 -2.79726 -0.787523 0
M  V30 3956 H 377.62 -2.5748 0.0787347 0
M  V30 3957 H 377.578 -2.67798 -1.64716 0
M  V30 3958 N 381.35 -0.985608 -1.22978 0
M  V30 3959 C 382.282 -0.488154 -2.23941 0
M  V30 3960 C 383.295 0.41282 -1.57479 0
M  V30 3961 O 384.484 0.216121 -1.77187 0
M  V30 3962 C 381.584 0.312611 -3.37455 0
M  V30 3963 C 380.757 -0.582741 -4.33501 0
M  V30 3964 C 379.816 0.165064 -5.25941 0
M  V30 3965 O 378.842 -0.447077 -5.67442 0
M  V30 3966 N 380.044 1.44953 -5.62111 0
M  V30 3967 H 382.809 -1.3563 -2.67254 0
M  V30 3968 H 380.37 -0.859477 -1.37203 0
M  V30 3969 H 382.362 0.821357 -3.96277 0
M  V30 3970 H 380.932 1.0818 -2.93285 0
M  V30 3971 H 380.152 -1.27225 -3.73105 0
M  V30 3972 H 381.44 -1.19275 -4.94622 0
M  V30 3973 H 380.838 1.9683 -5.30353 0
M  V30 3974 H 379.395 1.90361 -6.23383 0
M  V30 3975 N 382.828 1.3818 -0.7579 0
M  V30 3976 C 384.074 2.00316 -0.316453 0
M  V30 3977 C 384.407 1.60026 1.10025 0
M  V30 3978 O 383.682 0.839835 1.75434 0
M  V30 3979 C 383.965 3.57349 -0.444245 0
M  V30 3980 C 383.818 4.07591 -1.90236 0
M  V30 3981 C 385.137 4.3981 0.1598 0
M  V30 3982 H 382.256 0.727741 -0.116459 0
M  V30 3983 H 384.898 1.6406 -0.958352 0
M  V30 3984 H 383.048 3.88365 0.102233 0
M  V30 3985 H 384.72 3.87199 -2.50748 0
M  V30 3986 H 382.963 3.60297 -2.41595 0
M  V30 3987 H 383.634 5.16677 -1.94291 0
M  V30 3988 H 386.11 4.14971 -0.306314 0
M  V30 3989 H 384.986 5.48885 0.0401675 0
M  V30 3990 H 385.247 4.24102 1.24859 0
M  V30 3991 N 384.306 0.507319 1.49211 0
M  V30 3992 C 385.536 -0.0315292 2.06576 0
M  V30 3993 C 385.944 -1.30791 1.36713 0
M  V30 3994 O 385.287 -1.78324 0.441181 0
M  V30 3995 C 385.349 -0.349104 3.57801 0
M  V30 3996 C 385.013 0.830475 4.49391 0
M  V30 3997 C 386.01 1.72271 4.90529 0
M  V30 3998 C 383.695 1.03107 4.91604 0
M  V30 3999 C 385.689 2.79964 5.72625 0
M  V30 4000 C 383.376 2.11116 5.73475 0
M  V30 4001 C 384.374 2.99379 6.1389 0
M  V30 4002 O 384.062 4.05523 6.94123 0
M  V30 4003 H 383.794 0.0201002 0.675701 0
M  V30 4004 H 386.348 0.705737 1.92895 0
M  V30 4005 H 384.578 -1.14005 3.69513 0
M  V30 4006 H 386.267 -0.827319 3.97379 0
M  V30 4007 H 387.033 1.57958 4.58557 0
M  V30 4008 H 382.912 0.353417 4.59643 0
M  V30 4009 H 386.456 3.48884 6.04091 0
M  V30 4010 H 382.353 2.25421 6.0486 0
M  V30 4011 H 383.121 4.02953 7.1244 0
M  V30 4012 N 385.784 -1.5574 0.241426 0
M  V30 4013 C 386.732 -2.22538 -0.676718 0
M  V30 4014 C 387.726 -1.21117 -1.18436 0
M  V30 4015 O 388.932 -1.39144 -1.14188 0
M  V30 4016 H 385.307 -0.713776 -0.236701 0
M  V30 4017 H 387.278 -2.98264 -0.0901187 0
M  V30 4018 C 386.027 -2.93439 -1.86518 0
M  V30 4019 H 385.35 -3.7125 -1.4837 0
M  V30 4020 H 386.79 -3.43549 -2.48495 0
M  V30 4021 C 385.249 -1.97008 -2.73294 0
M  V30 4022 O 385.779 -1.49965 -3.72657 0
M  V30 4023 N 383.985 -1.64227 -2.39745 0
M  V30 4024 H 383.532 -2.02677 -1.58996 0
M  V30 4025 H 383.49 -0.999708 -2.98083 0
M  V30 4026 N 387.262 0.0317525 -1.57568 0
M  V30 4027 C 388.511 0.722131 -1.8833 0
M  V30 4028 C 388.824 1.76664 -0.839587 0
M  V30 4029 O 390.03 2.50942 -1.03635 0
M  V30 4030 C 388.486 1.33544 -3.34207 0
M  V30 4031 C 388.094 0.327415 -4.46802 0
M  V30 4032 C 389.838 2.00585 -3.7412 0
M  V30 4033 C 387.745 0.948915 -5.83738 0
M  V30 4034 H 386.675 0.273466 -0.702661 0
M  V30 4035 H 389.326 -0.0235811 -1.83485 0
M  V30 4036 H 387.708 2.13077 -3.33788 0
M  V30 4037 H 388.882 -0.441006 -4.58685 0
M  V30 4038 H 387.197 -0.240758 -4.15703 0
M  V30 4039 H 389.794 2.47932 -4.73744 0
M  V30 4040 H 390.137 2.82285 -3.05975 0
M  V30 4041 H 390.67 1.27831 -3.76702 0
M  V30 4042 H 387.409 0.171387 -6.55276 0
M  V30 4043 H 386.929 1.68724 -5.7558 0
M  V30 4044 H 388.608 1.45705 -6.3038 0
M  V30 4045 N 388.74 1.54641 0.303973 0
M  V30 4046 C 389.703 1.84646 1.35789 0
M  V30 4047 C 390.703 0.7192 1.4382 0
M  V30 4048 O 391.893 0.987491 1.43507 0
M  V30 4049 C 389.025 2.02407 2.74307 0
M  V30 4050 H 390.218 2.78829 1.10429 0
M  V30 4051 H 387.771 1.46658 0.540487 0
M  V30 4052 H 388.506 1.10502 3.04893 0
M  V30 4053 H 388.291 2.84453 2.69868 0
M  V30 4054 H 389.781 2.27002 3.50514 0
M  V30 4055 N 390.218 -0.567019 1.47046 0
M  V30 4056 C 391.464 -1.32658 1.53394 0
M  V30 4057 C 391.797 -1.93254 0.19148 0
M  V30 4058 O 391.072 -1.77338 -0.798844 0
M  V30 4059 C 391.355 -2.44412 2.64452 0
M  V30 4060 C 391.208 -1.88749 4.08282 0
M  V30 4061 C 392.527 -3.46387 2.71485 0
M  V30 4062 H 389.646 -0.48098 0.558415 0
M  V30 4063 H 392.288 -0.635481 1.79058 0
M  V30 4064 H 390.438 -3.03363 2.427 0
M  V30 4065 H 392.11 -1.34134 4.41368 0
M  V30 4066 H 390.353 -1.19481 4.17021 0
M  V30 4067 H 391.024 -2.69491 4.81745 0
M  V30 4068 H 393.5 -2.9734 2.91081 0
M  V30 4069 H 392.376 -4.2202 3.50985 0
M  V30 4070 H 392.637 -4.04616 1.78153 0
M  V30 4071 N 391.696 -1.35014 -0.812953 0
M  V30 4072 C 392.944 -1.27678 -1.56661 0
M  V30 4073 C 393.265 0.150359 -1.94419 0
M  V30 4074 O 392.535 1.08532 -1.63088 0
M  V30 4075 H 391.115 -0.469602 -0.580933 0
M  V30 4076 H 393.777 -1.69043 -0.970076 0
M  V30 4077 H 392.873 -1.88833 -2.48492 0
M  V30 4078 N 393.175 1.03435 -1.18907 0
M  V30 4079 C 394.423 1.76394 -0.986382 0
M  V30 4080 C 394.744 1.88883 0.484567 0
M  V30 4081 O 394.014 1.41843 1.3512 0
M  V30 4082 H 392.594 0.65344 -0.361975 0
M  V30 4083 H 395.256 1.248 -1.49703 0
M  V30 4084 H 394.352 2.77424 -1.42978 0
M  V30 4085 N 394.653 0.992116 1.22453 0
M  V30 4086 C 396.069 0.702713 1.43297 0
M  V30 4087 C 396.269 -0.726909 1.87932 0
M  V30 4088 O 395.325 -1.49792 2.0327 0
M  V30 4089 C 396.638 1.70762 2.47509 0
M  V30 4090 C 398.186 1.72298 2.61309 0
M  V30 4091 C 398.661 2.71649 3.68742 0
M  V30 4092 N 400.152 2.70239 3.76199 0
M  V30 4093 C 400.887 3.43778 4.58917 0
M  V30 4094 N 400.383 4.26914 5.45633 0
M  V30 4095 N 402.176 3.32487 4.5322 0
M  V30 4096 H 394.327 1.91543 0.917871 0
M  V30 4097 H 396.59 0.826031 0.465162 0
M  V30 4098 H 396.296 2.73059 2.21657 0
M  V30 4099 H 396.17 1.49985 3.46099 0
M  V30 4100 H 398.557 0.706989 2.86506 0
M  V30 4101 H 398.638 1.97143 1.62997 0
M  V30 4102 H 398.282 3.73397 3.44292 0
M  V30 4103 H 398.212 2.44074 4.66622 0
M  V30 4104 H 400.703 2.09912 3.14237 0
M  V30 4105 H 401.016 4.79855 6.05771 0
M  V30 4106 H 399.361 4.31002 5.45218 0
M  V30 4107 H 402.552 2.6698 3.84499 0
M  V30 4108 H 402.725 3.90058 5.17454 0
M  V30 4109 N 396.131 -1.37776 0.765217 0
M  V30 4110 C 397.359 -2.04124 0.337767 0
M  V30 4111 C 397.774 -1.57715 -1.03785 0
M  V30 4112 O 397.131 -0.755447 -1.6613 0
M  V30 4113 C 397.182 -3.59658 0.364442 0
M  V30 4114 O 396.903 -4.04367 1.68579 0
M  V30 4115 C 398.404 -4.43236 -0.0754221 0
M  V30 4116 H 395.624 -0.655696 0.142491 0
M  V30 4117 H 398.168 -1.76238 1.03732 0
M  V30 4118 H 396.323 -3.86339 -0.286471 0
M  V30 4119 H 396.737 -4.98857 1.61993 0
M  V30 4120 H 398.211 -5.52 -0.00560067 0
M  V30 4121 H 398.688 -4.2455 -1.12491 0
M  V30 4122 H 399.294 -4.21767 0.547055 0
M  V30 4123 N 397.609 -0.515225 -1.4894 0
M  V30 4124 C 398.834 0.022727 -2.07388 0
M  V30 4125 C 399.259 1.2876 -1.37122 0
M  V30 4126 O 398.617 1.76067 -0.432431 0
M  V30 4127 C 398.665 0.244869 -3.59768 0
M  V30 4128 O 397.769 1.31667 -3.90817 0
M  V30 4129 H 397.11 -0.0325506 -0.663202 0
M  V30 4130 H 399.64 -0.718918 -1.91553 0
M  V30 4131 H 399.65 0.47205 -4.0526 0
M  V30 4132 H 398.325 -0.679194 -4.10317 0
M  V30 4133 H 396.902 1.07331 -3.5712 0
M  V30 4134 N 399.087 1.5561 -0.249682 0
M  V30 4135 C 400.017 2.24477 0.642826 0
M  V30 4136 C 400.998 1.22601 1.17911 0
M  V30 4137 O 402.183 1.5126 1.21795 0
M  V30 4138 C 399.313 2.94638 1.83863 0
M  V30 4139 C 398.267 4.03227 1.435 0
M  V30 4140 C 397.593 4.60828 2.71186 0
M  V30 4141 C 398.893 5.18796 0.604002 0
M  V30 4142 H 400.587 2.99321 0.0685625 0
M  V30 4143 H 398.133 1.43965 0.0315363 0
M  V30 4144 H 400.086 3.41517 2.46868 0
M  V30 4145 H 398.81 2.17287 2.43832 0
M  V30 4146 H 397.469 3.57121 0.828275 0
M  V30 4147 H 397.117 3.80174 3.29358 0
M  V30 4148 H 396.817 5.34132 2.44901 0
M  V30 4149 H 398.341 5.10442 3.35084 0
M  V30 4150 H 399.755 5.61883 1.13842 0
M  V30 4151 H 398.152 5.98506 0.437097 0
M  V30 4152 H 399.222 4.83384 -0.383147 0
M  V30 4153 N 400.565 -0.0233959 1.57583 0
M  V30 4154 C 401.513 -1.04063 2.08023 0
M  V30 4155 C 402.507 -1.37084 0.995204 0
M  V30 4156 O 403.713 -1.35923 1.18004 0
M  V30 4157 H 400.088 -0.353144 0.663922 0
M  V30 4158 H 402.059 -0.589453 2.9252 0
M  V30 4159 C 400.808 -2.33123 2.57971 0
M  V30 4160 H 400.131 -2.08577 3.4108 0
M  V30 4161 H 401.571 -3.02632 2.96967 0
M  V30 4162 C 400.03 -3.02483 1.48342 0
M  V30 4163 O 400.56 -3.92541 0.852898 0
M  V30 4164 N 398.766 -2.63909 1.21658 0
M  V30 4165 H 398.313 -1.90758 1.73116 0
M  V30 4166 H 398.271 -3.10633 0.485218 0
M  V30 4167 N 402.043 -1.548 -0.295768 0
M  V30 4168 C 402.975 -1.82492 -1.3867 0
M  V30 4169 C 403.988 -0.708134 -1.46592 0
M  V30 4170 O 405.177 -0.985686 -1.48817 0
M  V30 4171 C 402.277 -1.95256 -2.76999 0
M  V30 4172 C 401.45 -3.25709 -2.91946 0
M  V30 4173 C 400.509 -3.28824 -4.10806 0
M  V30 4174 O 399.535 -4.02328 -4.02643 0
M  V30 4175 N 400.737 -2.5459 -5.21694 0
M  V30 4176 H 403.502 -2.76646 -1.15269 0
M  V30 4177 H 401.063 -1.54438 -0.485849 0
M  V30 4178 H 403.055 -1.94736 -3.54768 0
M  V30 4179 H 401.625 -1.08072 -2.93324 0
M  V30 4180 H 400.845 -3.38959 -2.01247 0
M  V30 4181 H 402.133 -4.11786 -2.98847 0
M  V30 4182 H 401.531 -1.94512 -5.31208 0
M  V30 4183 H 400.088 -2.59818 -5.97778 0
M  V30 4184 N 403.521 0.559213 -1.47345 0
M  V30 4185 C 404.451 1.67622 -1.62558 0
M  V30 4186 C 405.432 1.63331 -0.475087 0
M  V30 4187 O 406.617 1.80983 -0.704182 0
M  V30 4188 C 403.747 3.0626 -1.63774 0
M  V30 4189 C 402.701 3.25397 -2.7803 0
M  V30 4190 C 402.027 4.64801 -2.64318 0
M  V30 4191 C 403.327 3.10965 -4.19641 0
M  V30 4192 H 405.021 1.55146 -2.56067 0
M  V30 4193 H 402.567 0.744961 -1.23233 0
M  V30 4194 H 404.52 3.84247 -1.73008 0
M  V30 4195 H 403.244 3.1969 -0.66825 0
M  V30 4196 H 401.903 2.49817 -2.68304 0
M  V30 4197 H 401.551 4.75028 -1.65401 0
M  V30 4198 H 401.251 4.78555 -3.40968 0
M  V30 4199 H 402.775 5.44926 -2.75478 0
M  V30 4200 H 404.189 3.78772 -4.30354 0
M  V30 4201 H 402.586 3.36229 -4.97062 0
M  V30 4202 H 403.656 2.07736 -4.38148 0
M  V30 4203 N 404.999 1.35443 0.805782 0
M  V30 4204 C 406.246 1.28761 1.56291 0
M  V30 4205 C 406.574 -0.137747 1.94012 0
M  V30 4206 O 405.829 -1.1032 1.61642 0
M  V30 4207 C 406.128 2.14045 2.86216 0
M  V30 4208 C 405.794 3.62826 2.67709 0
M  V30 4209 C 404.456 4.0338 2.6237 0
M  V30 4210 C 406.808 4.57227 2.50186 0
M  V30 4211 C 404.136 5.36501 2.37451 0
M  V30 4212 C 406.488 5.90547 2.26797 0
M  V30 4213 C 405.152 6.30245 2.1988 0
M  V30 4214 H 404.422 0.471171 0.571908 0
M  V30 4215 H 407.069 1.67347 0.930974 0
M  V30 4216 H 405.374 1.68342 3.53791 0
M  V30 4217 H 407.071 2.0621 3.43917 0
M  V30 4218 H 403.661 3.30644 2.72713 0
M  V30 4219 H 407.845 4.2678 2.53323 0
M  V30 4220 H 403.101 5.66259 2.30567 0
M  V30 4221 H 407.275 6.63274 2.12228 0
M  V30 4222 H 404.902 7.33328 2.00333 0
M  V30 4223 N 406.477 -1.02803 1.19454 0
M  V30 4224 C 407.724 -1.76217 0.997693 0
M  V30 4225 C 408.052 -1.887 -0.47144 0
M  V30 4226 O 407.307 -1.4011 -1.3663 0
M  V30 4227 C 407.606 -3.18941 1.6128 0
M  V30 4228 C 407.272 -3.26463 3.11019 0
M  V30 4229 C 405.934 -3.28223 3.51885 0
M  V30 4230 C 408.286 -3.25542 4.07028 0
M  V30 4231 C 405.614 -3.26719 4.8731 0
M  V30 4232 C 407.966 -3.25579 5.42385 0
M  V30 4233 C 406.63 -3.25637 5.82681 0
M  V30 4234 H 405.9 -0.644823 0.365082 0
M  V30 4235 H 408.547 -1.20655 1.4871 0
M  V30 4236 H 406.852 -3.77587 1.04572 0
M  V30 4237 H 408.549 -3.74415 1.43577 0
M  V30 4238 H 405.139 -3.25822 2.78457 0
M  V30 4239 H 409.323 -3.23362 3.76498 0
M  V30 4240 H 404.579 -3.25089 5.1781 0
M  V30 4241 H 408.753 -3.23817 6.16535 0
M  V30 4242 H 406.38 -3.24226 6.87591 0
M  V30 4243 N 407.956 -0.998596 -1.21925 0
M  V30 4244 C 408.919 -0.558679 -2.22287 0
M  V30 4245 C 409.919 0.361525 -1.56683 0
M  V30 4246 O 411.109 0.152695 -1.73529 0
M  V30 4247 C 408.241 0.18661 -3.40389 0
M  V30 4248 H 409.434 -1.4463 -2.62721 0
M  V30 4249 H 406.987 -0.786413 -1.35075 0
M  V30 4250 H 407.722 1.08996 -3.05435 0
M  V30 4251 H 407.507 -0.474188 -3.89222 0
M  V30 4252 H 408.997 0.482367 -4.14805 0
M  V30 4253 N 409.434 1.37368 -0.772513 0
M  V30 4254 C 410.364 2.32856 -0.173304 0
M  V30 4255 C 411.345 1.55818 0.682262 0
M  V30 4256 O 412.53 1.84052 0.619566 0
M  V30 4257 C 409.66 3.40048 0.706007 0
M  V30 4258 C 408.614 4.27973 -0.0483144 0
M  V30 4259 C 407.94 5.26184 0.950491 0
M  V30 4260 C 409.24 5.07665 -1.22776 0
M  V30 4261 H 410.934 2.83217 -0.971002 0
M  V30 4262 H 408.48 1.3617 -0.468377 0
M  V30 4263 H 410.433 4.05827 1.13501 0
M  V30 4264 H 409.157 2.88214 1.53623 0
M  V30 4265 H 407.816 3.63726 -0.458107 0
M  V30 4266 H 407.464 4.7063 1.77529 0
M  V30 4267 H 407.164 5.85872 0.450314 0
M  V30 4268 H 408.688 5.94838 1.37842 0
M  V30 4269 H 410.102 5.66578 -0.875366 0
M  V30 4270 H 408.499 5.76681 -1.66007 0
M  V30 4271 H 409.569 4.40294 -2.03149 0
M  V30 4272 N 410.912 0.523116 1.48665 0
M  V30 4273 C 412.328 0.180511 1.58576 0
M  V30 4274 C 412.528 -1.31597 1.52592 0
M  V30 4275 O 411.584 -2.0937 1.4114 0
M  V30 4276 C 412.897 0.776949 2.90489 0
M  V30 4277 C 414.445 0.745058 3.04003 0
M  V30 4278 C 414.92 1.31995 4.38567 0
M  V30 4279 N 416.411 1.28162 4.45117 0
M  V30 4280 C 417.146 1.6964 5.47731 0
M  V30 4281 N 416.642 2.18816 6.57337 0
M  V30 4282 N 418.435 1.6092 5.38573 0
M  V30 4283 H 410.586 1.4958 1.50797 0
M  V30 4284 H 412.849 0.621772 0.715614 0
M  V30 4285 H 412.555 1.82732 3.00503 0
M  V30 4286 H 412.429 0.25007 3.7637 0
M  V30 4287 H 414.816 -0.296532 2.93606 0
M  V30 4288 H 414.897 1.30933 2.1975 0
M  V30 4289 H 414.541 2.36043 4.49718 0
M  V30 4290 H 414.471 0.731418 5.21496 0
M  V30 4291 H 416.962 0.92155 3.66491 0
M  V30 4292 H 417.275 2.48478 7.31764 0
M  V30 4293 H 415.62 2.22805 6.58318 0
M  V30 4294 H 418.811 1.22304 4.5184 0
M  V30 4295 H 418.984 1.93567 6.18414 0
M  V30 4296 N 412.39 -1.55475 0.257931 0
M  V30 4297 C 413.667 -1.91155 -0.414629 0
M  V30 4298 C 414.047 -1.18008 -1.75035 0
M  V30 4299 O 413.395 -0.301193 -2.26506 0
M  V30 4300 C 413.605 -3.44283 -0.571859 0
M  V30 4301 C 414.953 -4.15744 -0.862678 0
M  V30 4302 O 415.977 -3.50083 -0.657314 0
M  V30 4303 O 414.836 -5.31909 -1.2544 0
M  V30 4304 H 411.93 -0.796016 -0.22425 0
M  V30 4305 H 414.476 -1.66976 0.302814 0
M  V30 4306 H 413.248 -3.89558 0.368844 0
M  V30 4307 H 412.871 -3.7436 -1.33943 0
M  V30 4308 N 413.868 0.0150385 -1.57593 0
M  V30 4309 C 415.116 0.701613 -1.8953 0
M  V30 4310 C 415.437 1.75139 -0.857396 0
M  V30 4311 O 414.707 1.95607 0.107194 0
M  V30 4312 H 413.287 0.26213 -0.699498 0
M  V30 4313 H 415.949 -0.0223304 -1.94887 0
M  V30 4314 H 415.045 1.18236 -2.88837 0
M  V30 4315 N 415.346 1.54954 0.287554 0
M  V30 4316 C 416.276 1.89839 1.35954 0
M  V30 4317 C 417.257 0.758675 1.52244 0
M  V30 4318 O 418.442 1.01557 1.65529 0
M  V30 4319 C 415.572 2.15753 2.72154 0
M  V30 4320 C 414.526 3.3159 2.70614 0
M  V30 4321 C 413.852 3.42952 4.10229 0
M  V30 4322 C 415.152 4.68359 2.31165 0
M  V30 4323 H 416.846 2.79625 1.07007 0
M  V30 4324 H 414.392 1.3454 0.513316 0
M  V30 4325 H 416.345 2.38743 3.47246 0
M  V30 4326 H 415.069 1.22752 3.02654 0
M  V30 4327 H 413.728 3.08545 1.97979 0
M  V30 4328 H 413.376 2.47443 4.37928 0
M  V30 4329 H 413.076 4.20826 4.10097 0
M  V30 4330 H 414.6 3.68218 4.87081 0
M  V30 4331 H 416.014 4.9099 2.95976 0
M  V30 4332 H 414.411 5.49044 2.42221 0
M  V30 4333 H 415.481 4.68165 1.26291 0
M  V30 4334 N 416.824 -0.551391 1.4764 0
M  V30 4335 C 417.787 -1.64007 1.60107 0
M  V30 4336 C 418.787 -1.53601 0.47576 0
M  V30 4337 O 419.977 -1.57655 0.740988 0
M  V30 4338 C 417.109 -3.03569 1.55108 0
M  V30 4339 H 418.302 -1.543 2.57161 0
M  V30 4340 H 415.855 -0.771776 1.35917 0
M  V30 4341 H 416.59 -3.18804 0.594519 0
M  V30 4342 H 416.375 -3.12532 2.36783 0
M  V30 4343 H 417.865 -3.82762 1.66982 0
M  V30 4344 N 418.302 -1.35869 -0.798587 0
M  V30 4345 C 419.212 -1.31578 -1.94228 0
M  V30 4346 C 420.228 -0.21939 -1.72611 0
M  V30 4347 O 421.404 -0.450167 -1.96305 0
M  V30 4348 C 418.469 -1.09528 -3.28944 0
M  V30 4349 C 417.53 -2.28556 -3.63402 0
M  V30 4350 C 416.763 -2.07549 -4.9169 0
M  V30 4351 O 416.986 -1.046 -5.60727 0
M  V30 4352 O 415.92 -2.95106 -5.24591 0
M  V30 4353 H 419.746 -2.27847 -2.00796 0
M  V30 4354 H 417.331 -1.16322 -0.937526 0
M  V30 4355 H 419.213 -0.991127 -4.09579 0
M  V30 4356 H 417.888 -0.16315 -3.23289 0
M  V30 4357 H 416.795 -2.44538 -2.83112 0
M  V30 4358 H 418.128 -3.20244 -3.73771 0
M  V30 4359 N 419.78 1.02168 -1.19998 0
M  V30 4360 C 420.728 2.12717 -0.940967 0
M  V30 4361 C 421.722 1.69069 0.105841 0
M  V30 4362 O 422.928 1.79946 -0.0440583 0
M  V30 4363 H 419.303 0.695108 -0.28693 0
M  V30 4364 H 421.274 2.3175 -1.87975 0
M  V30 4365 C 420.023 3.44027 -0.504049 0
M  V30 4366 H 419.346 3.78036 -1.30112 0
M  V30 4367 H 420.786 4.22452 -0.361991 0
M  V30 4368 C 419.245 3.27678 0.782878 0
M  V30 4369 O 419.775 3.56949 1.84256 0
M  V30 4370 N 417.981 2.80943 0.742921 0
M  V30 4371 H 417.528 2.57322 -0.119687 0
M  V30 4372 H 417.486 2.70385 1.60435 0
M  V30 4373 N 421.258 1.00505 1.21394 0
M  V30 4374 C 422.506 0.686415 1.90086 0
M  V30 4375 C 422.827 -0.785264 1.7849 0
M  V30 4376 O 422.097 -1.56387 1.17983 0
M  V30 4377 H 420.677 0.2509 0.703604 0
M  V30 4378 H 423.339 1.27417 1.47482 0
M  V30 4379 H 422.435 0.959621 2.96981 0
M  V30 4380 N 422.737 -1.36956 0.779787 0
M  V30 4381 C 423.983 -1.99787 0.348281 0
M  V30 4382 C 424.316 -1.61756 -1.07465 0
M  V30 4383 O 423.591 -0.867639 -1.74075 0
M  V30 4384 C 423.874 -3.56597 0.50104 0
M  V30 4385 C 423.727 -4.04513 1.96697 0
M  V30 4386 C 425.046 -4.40008 -0.0898097 0
M  V30 4387 H 422.165 -0.725796 0.128022 0
M  V30 4388 H 424.807 -1.62514 0.984331 0
M  V30 4389 H 422.957 -3.88479 -0.0404347 0
M  V30 4390 H 424.629 -3.83161 2.56876 0
M  V30 4391 H 422.872 -3.56408 2.47297 0
M  V30 4392 H 423.543 -5.1352 2.02486 0
M  V30 4393 H 426.019 -4.14431 0.372293 0
M  V30 4394 H 424.895 -5.4888 0.0471605 0
M  V30 4395 H 425.156 -4.26035 -1.18096 0
M  V30 4396 N 424.215 -0.530993 -1.48385 0
M  V30 4397 C 425.44 0.000729535 -2.074 0
M  V30 4398 C 425.865 1.27298 -1.3848 0
M  V30 4399 O 425.223 1.75599 -0.451081 0
M  V30 4400 C 425.271 0.206697 -3.60007 0
M  V30 4401 O 424.375 1.27514 -3.92191 0
M  V30 4402 H 423.716 -0.039583 -0.662819 0
M  V30 4403 H 426.246 -0.739194 -1.9078 0
M  V30 4404 H 426.256 0.42904 -4.05738 0
M  V30 4405 H 424.931 -0.722675 -4.09573 0
M  V30 4406 H 423.508 1.03537 -3.58238 0
M  V30 4407 N 425.693 1.55336 -0.266172 0
M  V30 4408 C 426.923 2.03506 0.356239 0
M  V30 4409 C 427.331 1.14426 1.50676 0
M  V30 4410 O 426.674 0.155043 1.83045 0
M  V30 4411 C 426.736 3.47848 0.90785 0
M  V30 4412 C 426.4 4.56861 -0.112888 0
M  V30 4413 C 427.397 5.11528 -0.929264 0
M  V30 4414 C 425.082 5.01704 -0.244546 0
M  V30 4415 C 427.076 6.09549 -1.86357 0
M  V30 4416 C 424.763 5.99553 -1.18234 0
M  V30 4417 C 425.761 6.53356 -1.99036 0
M  V30 4418 O 425.449 7.49293 -2.91231 0
M  V30 4419 H 425.181 0.670444 0.08649 0
M  V30 4420 H 427.735 2.01598 -0.39337 0
M  V30 4421 H 425.965 3.46967 1.70737 0
M  V30 4422 H 427.654 3.79407 1.44239 0
M  V30 4423 H 428.42 4.77701 -0.838237 0
M  V30 4424 H 424.299 4.59477 0.374359 0
M  V30 4425 H 427.843 6.51469 -2.49467 0
M  V30 4426 H 423.74 6.32799 -1.27421 0
M  V30 4427 H 424.508 7.66978 -2.8581 0
M  V30 4428 N 427.171 -0.0066808 1.57599 0
M  V30 4429 C 428.121 -1.0086 2.04478 0
M  V30 4430 C 429.105 -1.30714 0.938231 0
M  V30 4431 O 430.297 -1.29924 1.20203 0
M  V30 4432 C 427.426 -2.30273 2.54615 0
M  V30 4433 C 426.512 -2.03413 3.72134 0
M  V30 4434 N 426.903 -1.46688 4.84062 0
M  V30 4435 C 425.201 -2.33589 3.79937 0
M  V30 4436 C 425.902 -1.36146 5.65543 0
M  V30 4437 N 424.878 -1.84477 5.1134 0
M  V30 4438 H 428.68 -0.564402 2.8843 0
M  V30 4439 H 426.194 -0.212521 1.61003 0
M  V30 4440 H 428.191 -3.02885 2.86472 0
M  V30 4441 H 426.851 -2.75352 1.72079 0
M  V30 4442 H 427.862 -1.14658 5.05049 0
M  V30 4443 H 424.539 -2.81589 3.08243 0
M  V30 4444 H 425.929 -0.925873 6.6549 0
M  V30 4445 N 428.649 -1.55105 -0.279332 0
M  V30 4446 C 430.065 -1.46803 -0.626187 0
M  V30 4447 C 430.265 -0.676939 -1.89789 0
M  V30 4448 O 429.321 -0.19326 -2.51759 0
M  V30 4449 C 430.634 -2.90962 -0.759034 0
M  V30 4450 C 432.182 -3.01138 -0.853504 0
M  V30 4451 C 432.657 -4.46539 -1.01818 0
M  V30 4452 N 434.148 -4.50341 -1.08386 0
M  V30 4453 C 434.883 -5.60053 -1.22996 0
M  V30 4454 N 434.379 -6.79645 -1.34366 0
M  V30 4455 N 436.172 -5.47783 -1.26056 0
M  V30 4456 H 428.323 -2.04996 0.555921 0
M  V30 4457 H 430.586 -0.929325 0.187239 0
M  V30 4458 H 430.292 -3.51544 0.104852 0
M  V30 4459 H 430.166 -3.39619 -1.64131 0
M  V30 4460 H 432.553 -2.40658 -1.70786 0
M  V30 4461 H 432.634 -2.55745 0.0532466 0
M  V30 4462 H 432.278 -5.0762 -0.168504 0
M  V30 4463 H 432.208 -4.89583 -1.93948 0
M  V30 4464 H 434.699 -3.64191 -1.00864 0
M  V30 4465 H 435.012 -7.59012 -1.4533 0
M  V30 4466 H 433.357 -6.82469 -1.31382 0
M  V30 4467 H 436.548 -4.53294 -1.168 0
M  V30 4468 H 436.721 -6.33331 -1.37098 0
M  V30 4469 N 430.127 0.543554 -1.4793 0
M  V30 4470 C 431.037 1.67657 -1.64098 0
M  V30 4471 C 432.053 1.65934 -0.523622 0
M  V30 4472 O 433.229 1.85133 -0.792943 0
M  V30 4473 C 430.294 3.04146 -1.66421 0
M  V30 4474 C 429.355 3.16831 -2.89684 0
M  V30 4475 C 428.588 4.46809 -2.91886 0
M  V30 4476 O 428.811 5.33095 -2.02895 0
M  V30 4477 O 427.745 4.63573 -3.83906 0
M  V30 4478 H 431.571 1.56957 -2.59997 0
M  V30 4479 H 429.156 0.715116 -1.31173 0
M  V30 4480 H 431.038 3.85346 -1.70548 0
M  V30 4481 H 429.713 3.152 -0.736923 0
M  V30 4482 H 428.62 2.34977 -2.91095 0
M  V30 4483 H 429.953 3.10687 -3.81752 0
M  V30 4484 N 431.605 1.3629 0.791371 0
M  V30 4485 C 433.016 1.27225 1.36641 0
M  V30 4486 C 433.367 -0.0887968 1.95999 0
M  V30 4487 O 432.492 -0.990207 1.92416 0
M  V30 4488 C 433.087 2.30375 2.48421 0
M  V30 4489 C 431.646 2.25004 3.01746 0
M  V30 4490 C 430.793 2.15259 1.7481 0
M  V30 4491 H 433.744 1.47198 0.593173 0
M  V30 4492 H 433.765 1.93905 3.27385 0
M  V30 4493 H 433.277 3.29422 2.05189 0
M  V30 4494 H 431.378 1.29417 3.49403 0
M  V30 4495 H 431.491 3.1761 3.58693 0
M  V30 4496 H 429.855 1.61482 1.96966 0
M  V30 4497 H 430.638 3.16191 1.33709 0
M  V30 4498 N 433.083 -1.0153 1.20538 0
M  V30 4499 C 434.329 -1.75408 1.01783 0
M  V30 4500 C 434.662 -1.88943 -0.448814 0
M  V30 4501 O 433.937 -1.4162 -1.33319 0
M  V30 4502 C 434.22 -3.17255 1.70356 0
M  V30 4503 C 434.073 -3.11508 3.24473 0
M  V30 4504 C 435.392 -4.15955 1.43769 0
M  V30 4505 H 432.511 -0.636713 0.371167 0
M  V30 4506 H 435.153 -1.18436 1.4857 0
M  V30 4507 H 433.303 -3.65898 1.30578 0
M  V30 4508 H 434.975 -2.70658 3.73553 0
M  V30 4509 H 433.218 -2.4887 3.55311 0
M  V30 4510 H 433.889 -4.11784 3.67611 0
M  V30 4511 H 436.365 -3.75973 1.7828 0
M  V30 4512 H 435.241 -5.13368 1.94279 0
M  V30 4513 H 435.502 -4.40586 0.365564 0
M  V30 4514 N 434.561 -1.01147 -1.20859 0
M  V30 4515 C 435.791 -0.715872 -1.93801 0
M  V30 4516 C 436.199 0.726592 -1.74692 0
M  V30 4517 O 435.542 1.50397 -1.05482 0
M  V30 4518 C 435.604 -0.965269 -3.46299 0
M  V30 4519 C 435.268 -2.39584 -3.89164 0
M  V30 4520 C 436.265 -3.3764 -3.95342 0
M  V30 4521 C 433.95 -2.73522 -4.21297 0
M  V30 4522 C 435.944 -4.67698 -4.33056 0
M  V30 4523 C 433.631 -4.03794 -4.58687 0
M  V30 4524 C 434.629 -5.00693 -4.64538 0
M  V30 4525 O 434.317 -6.28635 -5.01072 0
M  V30 4526 H 434.049 -0.262524 -0.622942 0
M  V30 4527 H 436.603 -1.35413 -1.54443 0
M  V30 4528 H 434.833 -0.269847 -3.85757 0
M  V30 4529 H 436.522 -0.662051 -4.00464 0
M  V30 4530 H 437.288 -3.12757 -3.70686 0
M  V30 4531 H 433.167 -1.9879 -4.15937 0
M  V30 4532 H 436.711 -5.4333 -4.37537 0
M  V30 4533 H 432.608 -4.28459 -4.82797 0
M  V30 4534 H 433.376 -6.32847 -5.19083 0
M  V30 4535 N 436.039 1.36541 -0.78704 0
M  V30 4536 C 437.455 1.52571 -0.46844 0
M  V30 4537 C 437.655 1.7415 1.01361 0
M  V30 4538 O 436.711 1.77163 1.79915 0
M  V30 4539 C 438.024 2.71299 -1.29682 0
M  V30 4540 C 439.572 2.85169 -1.29027 0
M  V30 4541 C 440.047 4.06898 -2.10233 0
M  V30 4542 N 441.538 4.1404 -2.07666 0
M  V30 4543 C 442.273 5.07301 -2.67271 0
M  V30 4544 N 441.769 6.06021 -3.35724 0
M  V30 4545 N 443.562 4.99898 -2.57018 0
M  V30 4546 H 435.713 1.20788 -1.74711 0
M  V30 4547 H 437.976 0.589364 -0.742532 0
M  V30 4548 H 437.682 2.61868 -2.34773 0
M  V30 4549 H 437.556 3.6539 -0.936479 0
M  V30 4550 H 439.943 2.94062 -0.247284 0
M  V30 4551 H 440.024 1.91992 -1.69035 0
M  V30 4552 H 439.668 3.98766 -3.1456 0
M  V30 4553 H 439.598 4.99218 -1.67597 0
M  V30 4554 H 442.089 3.43357 -1.57843 0
M  V30 4555 H 442.402 6.73741 -3.78541 0
M  V30 4556 H 440.747 6.06253 -3.39826 0
M  V30 4557 H 443.938 4.21724 -2.03142 0
M  V30 4558 H 444.111 5.72392 -3.03761 0
M  V30 4559 N 437.518 0.538854 1.48102 0
M  V30 4560 C 438.795 -0.0568108 1.95517 0
M  V30 4561 C 439.175 -1.50408 1.48124 0
M  V30 4562 O 438.523 -2.17133 0.711727 0
M  V30 4563 C 438.733 0.0696262 3.48931 0
M  V30 4564 C 440.081 -0.0851202 4.24515 0
M  V30 4565 O 441.105 -0.0037347 3.562 0
M  V30 4566 O 439.964 -0.257025 5.45895 0
M  V30 4567 H 437.058 -0.0743695 0.823649 0
M  V30 4568 H 439.604 0.604081 1.58584 0
M  V30 4569 H 438.376 1.07744 3.76174 0
M  V30 4570 H 437.999 -0.629714 3.92582 0
M  V30 4571 N 438.996 -1.55193 0.274407 0
M  V30 4572 C 440.243 -1.99581 -0.342579 0
M  V30 4573 C 440.571 -1.1628 -1.55914 0
M  V30 4574 O 439.826 -0.22029 -1.94456 0
M  V30 4575 C 440.125 -3.49019 -0.769458 0
M  V30 4576 C 439.791 -4.49598 0.342389 0
M  V30 4577 C 438.453 -4.76821 0.647686 0
M  V30 4578 C 440.805 -5.0964 1.09163 0
M  V30 4579 C 438.133 -5.61354 1.70581 0
M  V30 4580 C 440.485 -5.95323 2.13948 0
M  V30 4581 C 439.149 -6.20867 2.45113 0
M  V30 4582 H 438.419 -0.730319 -0.125358 0
M  V30 4583 H 441.066 -1.87529 0.387971 0
M  V30 4584 H 439.371 -3.58544 -1.57967 0
M  V30 4585 H 441.068 -3.8077 -1.25757 0
M  V30 4586 H 437.658 -4.28496 0.094318 0
M  V30 4587 H 441.842 -4.88632 0.869024 0
M  V30 4588 H 437.098 -5.79392 1.9523 0
M  V30 4589 H 441.272 -6.40881 2.72478 0
M  V30 4590 H 438.899 -6.86162 3.27239 0
M  V30 4591 N 440.474 -0.00167713 -1.576 0
M  V30 4592 C 441.89 0.354422 -1.55615 0
M  V30 4593 C 442.09 1.74679 -1.00447 0
M  V30 4594 O 441.146 2.4428 -0.639022 0
M  V30 4595 C 442.459 0.22812 -2.99833 0
M  V30 4596 C 444.007 0.302934 -3.11531 0
M  V30 4597 C 444.482 0.205737 -4.57538 0
M  V30 4598 N 445.973 0.263584 -4.62449 0
M  V30 4599 C 446.708 0.211742 -5.73009 0
M  V30 4600 N 446.204 0.110399 -6.92712 0
M  V30 4601 N 447.997 0.263729 -5.61481 0
M  V30 4602 H 440.148 -0.912498 -1.918 0
M  V30 4603 H 442.411 -0.349928 -0.881053 0
M  V30 4604 H 442.117 -0.729934 -3.44042 0
M  V30 4605 H 441.991 1.00951 -3.6344 0
M  V30 4606 H 444.378 1.25143 -2.67251 0
M  V30 4607 H 444.459 -0.508357 -2.50698 0
M  V30 4608 H 444.103 -0.739225 -5.02492 0
M  V30 4609 H 444.033 1.03554 -5.16318 0
M  V30 4610 H 446.524 0.343173 -3.76339 0
M  V30 4611 H 446.837 0.0767828 -7.72762 0
M  V30 4612 H 445.182 0.0760025 -6.94958 0
M  V30 4613 H 448.373 0.34111 -4.66855 0
M  V30 4614 H 448.546 0.219862 -6.47627 0
M  V30 4615 N 441.952 1.55251 0.271103 0
M  V30 4616 C 442.862 1.9136 1.35714 0
M  V30 4617 C 443.878 0.811075 1.5394 0
M  V30 4618 O 445.054 1.11031 1.6803 0
M  V30 4619 C 442.119 2.1798 2.69603 0
M  V30 4620 C 441.18 3.4153 2.60107 0
M  V30 4621 C 440.413 3.66871 3.8761 0
M  V30 4622 O 440.636 2.94689 4.8838 0
M  V30 4623 O 439.57 4.60405 3.87699 0
M  V30 4624 H 443.396 2.83815 1.08088 0
M  V30 4625 H 440.981 1.41821 0.469792 0
M  V30 4626 H 442.863 2.36518 3.48765 0
M  V30 4627 H 441.538 1.28708 2.97012 0
M  V30 4628 H 440.445 3.28325 1.79314 0
M  V30 4629 H 441.778 4.31027 2.37647 0
M  V30 4630 N 443.43 -0.535701 1.48216 0
M  V30 4631 C 444.678 -1.28928 1.55634 0
M  V30 4632 C 444.999 -1.93645 0.229514 0
M  V30 4633 O 444.269 -1.81038 -0.74846 0
M  V30 4634 H 442.849 -0.47884 0.573342 0
M  V30 4635 H 445.511 -0.623853 1.84646 0
M  V30 4636 H 444.607 -2.07157 2.33436 0
M  V30 4637 N 444.908 -1.36708 -0.784132 0
M  V30 4638 C 446.185 -1.21776 -1.53069 0
M  V30 4639 C 446.565 0.193876 -2.10208 0
M  V30 4640 O 445.913 1.20012 -1.94446 0
M  V30 4641 C 446.123 -2.30395 -2.62143 0
M  V30 4642 C 447.471 -2.67325 -3.29882 0
M  V30 4643 O 448.495 -2.29478 -2.7243 0
M  V30 4644 O 447.354 -3.32485 -4.33724 0
M  V30 4645 H 444.448 -0.474459 -0.677361 0
M  V30 4646 H 446.994 -1.48454 -0.82216 0
M  V30 4647 H 445.766 -3.2498 -2.17953 0
M  V30 4648 H 445.389 -2.05112 -3.40609 0
M  V30 4649 N 446.386 1.0089 -1.21074 0
M  V30 4650 C 447.632 1.74866 -1.02712 0
M  V30 4651 C 447.965 1.89178 0.438787 0
M  V30 4652 O 447.24 1.42325 1.32567 0
M  V30 4653 C 447.523 3.16347 -1.72036 0
M  V30 4654 C 447.376 3.09782 -3.26121 0
M  V30 4655 C 448.695 4.15187 -1.45973 0
M  V30 4656 H 445.814 0.634736 -0.374539 0
M  V30 4657 H 448.456 1.17646 -1.49196 0
M  V30 4658 H 446.606 3.65201 -1.32517 0
M  V30 4659 H 448.278 2.68673 -3.74983 0
M  V30 4660 H 446.521 2.46982 -3.56626 0
M  V30 4661 H 447.192 4.09829 -3.6979 0
M  V30 4662 H 449.668 3.75022 -1.80272 0
M  V30 4663 H 448.544 5.12331 -1.96999 0
M  V30 4664 H 448.805 4.40386 -0.388924 0
M  V30 4665 N 447.864 1.01787 1.20321 0
M  V30 4666 C 449.28 0.732951 1.41774 0
M  V30 4667 C 449.48 -0.686883 1.89431 0
M  V30 4668 O 448.536 -1.45446 2.06402 0
M  V30 4669 C 449.849 1.75973 2.43832 0
M  V30 4670 C 451.397 1.77802 2.57596 0
M  V30 4671 C 451.872 2.7941 3.62897 0
M  V30 4672 N 453.363 2.78157 3.70382 0
M  V30 4673 C 454.098 3.53434 4.51521 0
M  V30 4674 N 453.594 4.38392 5.36455 0
M  V30 4675 N 455.387 3.42026 4.46066 0
M  V30 4676 H 447.538 1.93447 0.877035 0
M  V30 4677 H 449.801 0.835712 0.447536 0
M  V30 4678 H 449.507 2.77699 2.15815 0
M  V30 4679 H 449.381 1.57292 3.4284 0
M  V30 4680 H 451.768 0.767602 2.84942 0
M  V30 4681 H 451.849 2.00557 1.58779 0
M  V30 4682 H 451.493 3.80616 3.36295 0
M  V30 4683 H 451.423 2.53916 4.61339 0
M  V30 4684 H 453.914 2.16531 3.09714 0
M  V30 4685 H 454.227 4.92596 5.95457 0
M  V30 4686 H 452.572 4.4247 5.35953 0
M  V30 4687 H 455.763 2.75075 3.78749 0
M  V30 4688 H 455.936 4.00946 5.09064 0
M  V30 4689 N 449.342 -1.36122 0.79427 0
M  V30 4690 C 450.292 -2.27373 0.169017 0
M  V30 4691 C 451.276 -1.4719 -0.649913 0
M  V30 4692 O 452.468 -1.69518 -0.50919 0
M  V30 4693 C 449.597 -3.36264 -0.691455 0
M  V30 4694 C 448.683 -4.2388 0.13653 0
M  V30 4695 N 449.074 -4.91519 1.19345 0
M  V30 4696 C 447.372 -4.45921 -0.0838499 0
M  V30 4697 C 448.073 -5.56369 1.6979 0
M  V30 4698 N 447.049 -5.34204 1.00634 0
M  V30 4699 H 450.851 -2.77154 0.977897 0
M  V30 4700 H 448.365 -1.49504 0.634208 0
M  V30 4701 H 450.362 -4.00572 -1.15534 0
M  V30 4702 H 449.022 -2.88037 -1.49883 0
M  V30 4703 H 450.033 -4.9334 1.57594 0
M  V30 4704 H 446.71 -4.08518 -0.861341 0
M  V30 4705 H 448.1 -6.20368 2.58055 0
M  V30 4706 N 450.82 -0.546701 -1.47814 0
M  V30 4707 C 452.045 -0.021268 -2.07389 0
M  V30 4708 C 452.47 1.25822 -1.39822 0
M  V30 4709 O 451.828 1.75111 -0.46968 0
M  V30 4710 C 451.876 0.168502 -3.60206 0
M  V30 4711 O 450.98 1.23347 -3.93522 0
M  V30 4712 H 450.321 -0.0466108 -0.662362 0
M  V30 4713 H 452.851 -0.759387 -1.89985 0
M  V30 4714 H 452.861 0.385982 -4.0617 0
M  V30 4715 H 451.536 -0.766075 -4.08784 0
M  V30 4716 H 450.113 0.997319 -3.59316 0
M  V30 4717 N 452.299 1.55045 -0.282633 0
M  V30 4718 C 453.229 2.2579 0.595066 0
M  V30 4719 C 454.21 1.25074 1.15284 0
M  V30 4720 O 455.395 1.5381 1.18559 0
M  V30 4721 C 452.525 2.98472 1.77572 0
M  V30 4722 C 451.479 4.0618 1.34914 0
M  V30 4723 C 450.805 4.66477 2.6135 0
M  V30 4724 C 452.105 5.1996 0.493821 0
M  V30 4725 H 453.799 2.994 0.00505653 0
M  V30 4726 H 451.345 1.44 0.000992001 0
M  V30 4727 H 453.298 3.46677 2.39568 0
M  V30 4728 H 452.022 2.2241 2.39168 0
M  V30 4729 H 450.681 3.58797 0.752338 0
M  V30 4730 H 450.329 3.87074 3.2122 0
M  V30 4731 H 450.029 5.39207 2.33516 0
M  V30 4732 H 451.553 5.17435 3.24181 0
M  V30 4733 H 452.967 5.64172 1.01898 0
M  V30 4734 H 451.364 5.99299 0.310047 0
M  V30 4735 H 452.434 4.82462 -0.485593 0
M  V30 4736 N 453.777 0.010035 1.57597 0
M  V30 4737 C 454.74 -0.963029 2.07986 0
M  V30 4738 C 455.74 -1.26619 0.991173 0
M  V30 4739 O 456.93 -1.2097 1.25347 0
M  V30 4740 C 454.062 -2.2851 2.52974 0
M  V30 4741 H 455.255 -0.526971 2.95234 0
M  V30 4742 H 452.808 -0.237639 1.54483 0
M  V30 4743 H 453.543 -2.76784 1.69 0
M  V30 4744 H 453.328 -2.07824 3.32493 0
M  V30 4745 H 454.818 -2.98294 2.9225 0
M  V30 4746 N 455.255 -1.55392 -0.262866 0
M  V30 4747 C 456.532 -1.67204 -1.01499 0
M  V30 4748 C 456.912 -0.545186 -2.03939 0
M  V30 4749 O 456.26 0.453467 -2.23955 0
M  V30 4750 C 456.47 -3.06847 -1.6627 0
M  V30 4751 C 457.818 -3.64928 -2.17054 0
M  V30 4752 O 458.842 -3.09545 -1.76239 0
M  V30 4753 O 457.701 -4.61984 -2.91947 0
M  V30 4754 H 454.795 -0.679467 -0.471438 0
M  V30 4755 H 457.341 -1.67729 -0.257918 0
M  V30 4756 H 456.113 -3.80309 -0.920915 0
M  V30 4757 H 455.736 -3.10266 -2.48638 0
M  V30 4758 N 456.733 0.527833 -1.48498 0
M  V30 4759 C 457.982 1.28003 -1.55878 0
M  V30 4760 C 458.295 1.9414 -0.238577 0
M  V30 4761 O 459.501 2.7083 -0.190643 0
M  V30 4762 C 457.957 2.32272 -2.74914 0
M  V30 4763 C 457.565 1.72196 -4.13585 0
M  V30 4764 C 459.309 3.08488 -2.91608 0
M  V30 4765 C 457.216 2.74417 -5.23879 0
M  V30 4766 H 456.146 0.481413 -0.580308 0
M  V30 4767 H 458.797 0.557195 -1.74836 0
M  V30 4768 H 457.179 3.07601 -2.49395 0
M  V30 4769 H 458.353 1.03041 -4.49132 0
M  V30 4770 H 456.668 1.08464 -4.02025 0
M  V30 4771 H 459.265 3.84879 -3.71177 0
M  V30 4772 H 459.608 3.64481 -2.01145 0
M  V30 4773 H 460.141 2.40274 -3.17038 0
M  V30 4774 H 456.88 2.23242 -6.16314 0
M  V30 4775 H 456.4 3.41893 -4.92818 0
M  V30 4776 H 458.079 3.37362 -5.52083 0
M  V30 4777 N 458.211 1.37122 0.776871 0
M  V30 4778 C 459.436 1.354 1.57104 0
M  V30 4779 C 459.861 -0.0595562 1.88006 0
M  V30 4780 O 459.219 -1.03514 1.48844 0
M  V30 4781 C 459.267 2.19472 2.8612 0
M  V30 4782 O 458.371 1.59582 3.80273 0
M  V30 4783 H 457.712 0.462869 0.476076 0
M  V30 4784 H 460.242 1.80577 0.961932 0
M  V30 4785 H 460.252 2.32502 3.35271 0
M  V30 4786 H 458.927 3.22222 2.62956 0
M  V30 4787 H 457.504 1.55564 3.38902 0
M  V30 4788 N 459.689 -1.00246 1.21608 0
M  V30 4789 C 460.636 -2.09073 0.977613 0
M  V30 4790 C 461.606 -1.65815 -0.097297 0
M  V30 4791 O 462.791 -1.90734 0.0503445 0
M  V30 4792 C 459.931 -3.40671 0.551133 0
M  V30 4793 C 459.044 -3.97326 1.69576 0
M  V30 4794 C 458.179 -5.17043 1.2182 0
M  V30 4795 C 457.218 -5.65813 2.335 0
M  V30 4796 N 456.355 -6.76778 1.86859 0
M  V30 4797 H 461.195 -2.28806 1.90924 0
M  V30 4798 H 458.732 -1.12186 0.951452 0
M  V30 4799 H 460.69 -4.16225 0.285097 0
M  V30 4800 H 459.32 -3.20967 -0.343489 0
M  V30 4801 H 458.372 -3.18734 2.07637 0
M  V30 4802 H 459.684 -4.29511 2.53617 0
M  V30 4803 H 458.838 -5.99852 0.908975 0
M  V30 4804 H 457.577 -4.86458 0.347869 0
M  V30 4805 H 456.582 -4.81599 2.65222 0
M  V30 4806 H 457.807 -5.98427 3.21033 0
M  V30 4807 H 455.753 -6.47994 1.02174 0
M  V30 4808 H 455.67 -7.08231 2.64471 0
M  V30 4809 H 456.938 -7.63116 1.58978 0
M  V30 4810 N 461.167 -1.02423 -1.1978 0
M  V30 4811 C 462.13 -0.605703 -2.21052 0
M  V30 4812 C 463.13 0.328209 -1.57415 0
M  V30 4813 O 464.32 0.115853 -1.73814 0
M  V30 4814 C 461.452 0.114366 -3.40708 0
M  V30 4815 H 462.645 -1.5017 -2.59594 0
M  V30 4816 H 460.198 -0.814888 -1.33376 0
M  V30 4817 H 460.933 1.02492 -3.07678 0
M  V30 4818 H 460.718 -0.556641 -3.88129 0
M  V30 4819 H 462.208 0.394272 -4.15735 0
M  V30 4820 N 462.645 1.35699 -0.801477 0
M  V30 4821 C 463.608 2.28199 -0.213994 0
M  V30 4822 C 464.608 1.49359 0.595691 0
M  V30 4823 O 465.798 1.69186 0.414921 0
M  V30 4824 C 462.93 3.33587 0.702297 0
M  V30 4825 H 464.123 2.81666 -1.02976 0
M  V30 4826 H 461.676 1.45467 -0.571759 0
M  V30 4827 H 462.411 2.85297 1.54195 0
M  V30 4828 H 462.196 3.91906 0.123484 0
M  V30 4829 H 463.686 4.02638 1.10783 0
M  V30 4830 N 464.123 0.554532 1.47522 0
M  V30 4831 C 465.07 -0.19466 2.29978 0
M  V30 4832 C 466.04 -0.910882 1.38896 0
M  V30 4833 O 467.225 -0.907102 1.67858 0
M  V30 4834 C 464.365 -1.22035 3.22802 0
M  V30 4835 C 463.478 -0.510474 4.28973 0
M  V30 4836 C 462.613 -1.52123 5.08952 0
M  V30 4837 C 461.652 -0.796173 6.069 0
M  V30 4838 N 460.789 -1.75363 6.79847 0
M  V30 4839 H 465.629 0.51461 2.93523 0
M  V30 4840 H 463.166 0.265607 1.44682 0
M  V30 4841 H 465.124 -1.8276 3.7504 0
M  V30 4842 H 463.754 -1.89769 2.61127 0
M  V30 4843 H 462.806 0.211234 3.79813 0
M  V30 4844 H 464.118 0.0576503 4.98767 0
M  V30 4845 H 463.272 -2.20207 5.65326 0
M  V30 4846 H 462.011 -2.12327 4.39054 0
M  V30 4847 H 461.016 -0.101388 5.49707 0
M  V30 4848 H 462.241 -0.199911 6.78806 0
M  V30 4849 H 460.187 -2.3443 6.12682 0
M  V30 4850 H 460.104 -1.23759 7.45801 0
M  V30 4851 H 461.372 -2.4257 7.40797 0
M  V30 4852 N 465.601 -1.54893 0.290851 0
M  V30 4853 C 466.531 -2.26103 -0.583084 0
M  V30 4854 C 467.512 -1.25684 -1.14619 0
M  V30 4855 O 468.697 -1.54436 -1.17741 0
M  V30 4856 C 465.827 -2.99409 -1.75987 0
M  V30 4857 C 464.781 -4.0689 -1.32758 0
M  V30 4858 C 464.107 -4.67856 -2.58872 0
M  V30 4859 C 465.407 -5.20215 -0.46624 0
M  V30 4860 H 467.101 -2.99398 0.0108214 0
M  V30 4861 H 464.647 -1.43998 0.00664468 0
M  V30 4862 H 466.6 -3.47943 -2.37727 0
M  V30 4863 H 465.324 -2.23675 -2.37985 0
M  V30 4864 H 463.983 -3.59191 -0.733299 0
M  V30 4865 H 463.631 -3.88772 -3.19163 0
M  V30 4866 H 463.331 -5.40438 -2.30653 0
M  V30 4867 H 464.855 -5.19147 -3.21433 0
M  V30 4868 H 466.269 -5.64704 -0.989047 0
M  V30 4869 H 464.666 -5.99455 -0.27826 0
M  V30 4870 H 465.736 -4.82198 0.511173 0
M  V30 4871 N 467.08 -0.0183926 -1.57589 0
M  V30 4872 C 468.01 0.965596 -2.12599 0
M  V30 4873 C 468.991 1.34641 -1.0395 0
M  V30 4874 O 470.176 1.42693 -1.31729 0
M  V30 4875 C 467.306 2.25149 -2.64434 0
M  V30 4876 C 466.26 2.01175 -3.77773 0
M  V30 4877 C 465.586 3.35937 -4.15994 0
M  V30 4878 C 466.886 1.35953 -5.04296 0
M  V30 4879 H 468.58 0.507504 -2.95067 0
M  V30 4880 H 466.126 0.242671 -1.41941 0
M  V30 4881 H 468.079 2.94357 -3.01549 0
M  V30 4882 H 466.803 2.73105 -1.79112 0
M  V30 4883 H 465.462 1.34388 -3.4108 0
M  V30 4884 H 465.11 3.81631 -3.27669 0
M  V30 4885 H 464.81 3.20705 -4.92364 0
M  V30 4886 H 466.334 4.0643 -4.55683 0
M  V30 4887 H 467.748 1.95144 -5.39065 0
M  V30 4888 H 466.145 1.31152 -5.85593 0
M  V30 4889 H 467.215 0.331071 -4.83768 0
M  V30 4890 N 468.558 1.5553 0.254621 0
M  V30 4891 C 469.806 1.7665 0.981793 0
M  V30 4892 C 470.127 0.580963 1.86145 0
M  V30 4893 O 469.397 -0.403537 1.91699 0
M  V30 4894 H 467.977 0.651475 0.365498 0
M  V30 4895 H 470.639 1.92958 0.274426 0
M  V30 4896 H 469.735 2.67486 1.60802 0
M  V30 4897 N 470.036 -0.519951 1.48776 0
M  V30 4898 C 471.266 -1.29783 1.60748 0
M  V30 4899 C 471.674 -1.87253 0.27072 0
M  V30 4900 O 471.017 -1.67628 -0.751438 0
M  V30 4901 C 471.079 -2.47984 2.60277 0
M  V30 4902 C 470.743 -2.11526 4.051 0
M  V30 4903 C 471.74 -1.66608 4.92481 0
M  V30 4904 C 469.425 -2.21742 4.50706 0
M  V30 4905 C 471.419 -1.32384 6.23501 0
M  V30 4906 C 469.106 -1.87129 5.81744 0
M  V30 4907 C 470.104 -1.42523 6.67964 0
M  V30 4908 O 469.792 -1.0837 7.96562 0
M  V30 4909 H 469.524 -0.400562 0.544542 0
M  V30 4910 H 472.078 -0.632879 1.95407 0
M  V30 4911 H 470.308 -3.17493 2.2076 0
M  V30 4912 H 471.997 -3.10036 2.61978 0
M  V30 4913 H 472.763 -1.58178 4.58481 0
M  V30 4914 H 468.642 -2.55415 3.83776 0
M  V30 4915 H 472.186 -0.974949 6.90754 0
M  V30 4916 H 468.083 -1.95204 6.15277 0
M  V30 4917 H 468.851 -1.21681 8.09405 0
M  V30 4918 N 471.514 -1.37532 -0.769588 0
M  V30 4919 C 472.477 -1.33292 -1.86456 0
M  V30 4920 C 473.477 -0.236537 -1.59051 0
M  V30 4921 O 474.667 -0.492511 -1.67093 0
M  V30 4922 C 471.799 -1.07118 -3.23633 0
M  V30 4923 H 472.992 -2.30692 -1.91628 0
M  V30 4924 H 470.545 -1.22593 -0.969572 0
M  V30 4925 H 471.28 -0.102578 -3.24138 0
M  V30 4926 H 471.065 -1.86479 -3.44917 0
M  V30 4927 H 472.555 -1.06806 -4.03711 0
M  V30 4928 N 472.992 0.995999 -1.22138 0
M  V30 4929 C 474.403 1.54961 -1.04135 0
M  V30 4930 C 474.754 1.92159 0.396147 0
M  V30 4931 O 473.879 1.74435 1.28069 0
M  V30 4932 C 474.474 2.81581 -1.88408 0
M  V30 4933 C 473.033 3.33396 -1.74712 0
M  V30 4934 C 472.18 2.06509 -1.85066 0
M  V30 4935 H 475.131 0.817436 -1.36028 0
M  V30 4936 H 475.152 3.53822 -1.39966 0
M  V30 4937 H 474.664 2.54476 -2.93025 0
M  V30 4938 H 472.765 3.65416 -0.728159 0
M  V30 4939 H 472.878 4.04208 -2.57202 0
M  V30 4940 H 471.242 2.19925 -1.28472 0
M  V30 4941 H 472.025 1.81804 -2.91208 0
M  V30 4942 N 474.47 1.03057 1.19235 0
M  V30 4943 C 475.417 0.612832 2.22515 0
M  V30 4944 C 476.387 -0.374224 1.61829 0
M  V30 4945 O 477.572 -0.270501 1.88873 0
M  V30 4946 C 474.712 -0.028475 3.45088 0
M  V30 4947 C 473.825 1.00483 4.20151 0
M  V30 4948 C 472.96 0.333102 5.30155 0
M  V30 4949 C 471.999 1.3522 5.96977 0
M  V30 4950 N 471.136 0.70616 6.9854 0
M  V30 4951 H 475.976 1.49812 2.57605 0
M  V30 4952 H 473.513 0.749658 1.26564 0
M  V30 4953 H 475.471 -0.417548 4.15105 0
M  V30 4954 H 474.101 -0.877334 3.10649 0
M  V30 4955 H 473.153 1.51194 3.49062 0
M  V30 4956 H 474.465 1.77929 4.65986 0
M  V30 4957 H 473.619 -0.110725 6.06599 0
M  V30 4958 H 472.358 -0.473547 4.85396 0
M  V30 4959 H 471.363 1.80627 5.19282 0
M  V30 4960 H 472.588 2.16037 6.4382 0
M  V30 4961 H 470.534 -0.0803667 6.55951 0
M  V30 4962 H 470.451 1.41848 7.42573 0
M  V30 4963 H 471.719 0.286391 7.78974 0
M  V30 4964 N 475.948 -1.35272 0.808662 0
M  V30 4965 C 477.178 -2.02652 0.401953 0
M  V30 4966 C 477.586 -1.6108 -0.992462 0
M  V30 4967 O 476.929 -0.804984 -1.65123 0
M  V30 4968 C 476.991 -3.57174 0.408246 0
M  V30 4969 C 476.655 -4.22019 1.75353 0
M  V30 4970 C 477.652 -4.43552 2.71215 0
M  V30 4971 C 475.337 -4.59093 2.03811 0
M  V30 4972 C 477.331 -5.01264 3.93717 0
M  V30 4973 C 475.018 -5.16519 3.26576 0
M  V30 4974 C 476.016 -5.37546 4.21347 0
M  V30 4975 O 475.704 -5.93761 5.41944 0
M  V30 4976 H 475.436 -0.656495 0.161216 0
M  V30 4977 H 477.99 -1.73829 1.0942 0
M  V30 4978 H 476.22 -3.85197 -0.340608 0
M  V30 4979 H 477.909 -4.05893 0.0235623 0
M  V30 4980 H 478.675 -4.15288 2.50522 0
M  V30 4981 H 474.554 -4.42039 1.30854 0
M  V30 4982 H 478.098 -5.17592 4.67701 0
M  V30 4983 H 473.995 -5.4421 3.47139 0
M  V30 4984 H 474.763 -6.1221 5.43269 0
M  V30 4985 N 477.426 -0.562348 -1.47226 0
M  V30 4986 C 478.703 0.0256985 -1.95583 0
M  V30 4987 C 479.083 1.48032 -1.50498 0
M  V30 4988 O 478.431 2.15973 -0.746181 0
M  V30 4989 C 478.641 -0.125129 -3.48776 0
M  V30 4990 C 479.989 0.0175728 -4.24596 0
M  V30 4991 O 481.013 -0.0529341 -3.56161 0
M  V30 4992 O 479.872 0.170145 -5.46235 0
M  V30 4993 H 476.966 0.0612565 -0.824728 0
M  V30 4994 H 479.512 -0.629233 -1.57603 0
M  V30 4995 H 478.284 -1.13715 -3.74412 0
M  V30 4996 H 477.907 0.567178 -3.93534 0
M  V30 4997 N 478.904 1.54736 -0.299062 0
M  V30 4998 C 480.15 2.00397 0.311244 0
M  V30 4999 C 480.483 1.18716 1.53688 0
M  V30 5000 O 479.758 0.263154 1.92712 0
M  V30 5001 C 480.041 3.53817 0.669761 0
M  V30 5002 C 479.894 4.46239 -0.564882 0
M  V30 5003 C 481.213 4.13856 1.49702 0
M  V30 5004 H 478.332 0.728493 0.111653 0
M  V30 5005 H 480.974 1.85506 -0.410774 0
M  V30 5006 H 479.124 3.66637 1.28491 0
M  V30 5007 H 480.796 4.45328 -1.20337 0
M  V30 5008 H 479.039 4.16916 -1.19849 0
M  V30 5009 H 479.71 5.5134 -0.269918 0
M  V30 5010 H 482.186 4.04461 0.977284 0
M  V30 5011 H 481.062 5.21365 1.71666 0
M  V30 5012 H 481.323 3.65608 2.48563 0
M  V30 5013 N 480.382 0.0267497 1.57577 0
M  V30 5014 C 481.607 -0.666227 1.96408 0
M  V30 5015 C 482.032 -1.65004 0.903071 0
M  V30 5016 O 481.39 -1.80787 -0.136263 0
M  V30 5017 C 481.438 -1.35101 3.34335 0
M  V30 5018 O 480.542 -2.46623 3.30531 0
M  V30 5019 H 479.883 -0.175206 0.640468 0
M  V30 5020 H 482.413 0.0878977 2.04411 0
M  V30 5021 H 482.423 -1.70834 3.70513 0
M  V30 5022 H 481.098 -0.629844 4.11103 0
M  V30 5023 H 479.675 -2.13019 3.06068 0
M  V30 5024 N 481.861 -1.55662 -0.24637 0
M  V30 5025 C 482.824 -1.89558 -1.28842 0
M  V30 5026 C 483.824 -0.772082 -1.41052 0
M  V30 5027 O 485.014 -1.04007 -1.39743 0
M  V30 5028 C 482.146 -2.12449 -2.66605 0
M  V30 5029 H 483.339 -2.82735 -1.00004 0
M  V30 5030 H 480.892 -1.48562 -0.485684 0
M  V30 5031 H 481.627 -1.21742 -3.00582 0
M  V30 5032 H 481.412 -2.94273 -2.59125 0
M  V30 5033 H 482.902 -2.39854 -3.41847 0
M  V30 5034 N 483.339 0.512053 -1.4905 0
M  V30 5035 C 484.587 1.26436 -1.57665 0
M  V30 5036 C 484.908 1.93255 -0.260293 0
M  V30 5037 O 484.178 1.82206 0.719564 0
M  V30 5038 H 482.758 0.469658 -0.580888 0
M  V30 5039 H 485.42 0.594398 -1.85615 0
M  V30 5040 H 484.516 2.03417 -2.36702 0
M  V30 5041 N 484.817 1.37938 0.762283 0
M  V30 5042 C 486.063 1.33866 1.52341 0
M  V30 5043 C 486.396 -0.0738961 1.94059 0
M  V30 5044 O 485.671 -1.03326 1.64785 0
M  V30 5045 C 485.954 2.28644 2.78197 0
M  V30 5046 C 485.807 3.78722 2.42672 0
M  V30 5047 C 487.126 2.21702 3.80179 0
M  V30 5048 H 484.245 0.487593 0.55265 0
M  V30 5049 H 486.887 1.68717 0.873767 0
M  V30 5050 H 485.037 1.99055 3.33631 0
M  V30 5051 H 486.709 4.18948 1.93081 0
M  V30 5052 H 484.952 3.96827 1.75244 0
M  V30 5053 H 485.623 4.40486 3.3268 0
M  V30 5054 H 488.099 2.47805 3.34263 0
M  V30 5055 H 486.975 2.90143 4.65949 0
M  V30 5056 H 487.236 1.21301 4.25133 0
M  V30 5057 N 486.295 -0.989507 1.22664 0
M  V30 5058 C 487.258 -2.06183 1.00106 0
M  V30 5059 C 488.258 -1.60765 -0.0337726 0
M  V30 5060 O 489.448 -1.72989 0.205072 0
M  V30 5061 C 486.58 -3.37021 0.51279 0
M  V30 5062 H 487.773 -2.27629 1.95256 0
M  V30 5063 H 485.326 -1.16158 1.0458 0
M  V30 5064 H 486.061 -3.21261 -0.442917 0
M  V30 5065 H 485.846 -3.71323 1.25942 0
M  V30 5066 H 487.336 -4.1591 0.375315 0
M  V30 5067 N 487.773 -1.03688 -1.18687 0
M  V30 5068 C 488.703 -0.645407 -2.24403 0
M  V30 5069 C 489.684 0.349511 -1.66471 0
M  V30 5070 O 490.869 0.230453 -1.92828 0
M  V30 5071 C 487.999 -0.00365337 -3.473 0
M  V30 5072 C 486.953 -0.921705 -4.17958 0
M  V30 5073 C 486.279 -0.144629 -5.34504 0
M  V30 5074 C 487.579 -2.23909 -4.71871 0
M  V30 5075 H 489.273 -1.52917 -2.57404 0
M  V30 5076 H 486.819 -0.736711 -1.23728 0
M  V30 5077 H 488.772 0.281908 -4.20456 0
M  V30 5078 H 487.496 0.914963 -3.13522 0
M  V30 5079 H 486.155 -1.19159 -3.46694 0
M  V30 5080 H 485.803 0.776274 -4.96974 0
M  V30 5081 H 485.503 -0.756206 -5.82714 0
M  V30 5082 H 487.027 0.134004 -6.10453 0
M  V30 5083 H 488.441 -2.0145 -5.36741 0
M  V30 5084 H 486.838 -2.8033 -5.30599 0
M  V30 5085 H 487.908 -2.88822 -3.895 0
M  V30 5086 N 489.251 1.34841 -0.815825 0
M  V30 5087 C 490.214 2.27959 -0.238185 0
M  V30 5088 C 491.214 1.49983 0.579816 0
M  V30 5089 O 492.404 1.69617 0.396953 0
M  V30 5090 C 489.536 3.34314 0.666876 0
M  V30 5091 H 490.729 2.80558 -1.05958 0
M  V30 5092 H 488.282 1.44852 -0.587156 0
M  V30 5093 H 489.017 2.86916 1.5116 0
M  V30 5094 H 488.802 3.92014 0.0819106 0
M  V30 5095 H 490.292 4.0379 1.06506 0
M  V30 5096 N 490.729 0.570148 1.46925 0
M  V30 5097 C 491.662 -0.218362 2.27153 0
M  V30 5098 C 492.64 -0.90847 1.34854 0
M  V30 5099 O 493.824 -0.924875 1.64251 0
M  V30 5100 C 490.951 -1.3122 3.12248 0
M  V30 5101 C 489.997 -0.729277 4.20219 0
M  V30 5102 S 490.83 0.434159 5.33737 0
M  V30 5103 C 491.986 -0.661188 6.22398 0
M  V30 5104 H 492.219 0.462393 2.93682 0
M  V30 5105 H 489.752 0.356753 1.50222 0
M  V30 5106 H 491.71 -1.93856 3.61842 0
M  V30 5107 H 490.371 -1.96485 2.45056 0
M  V30 5108 H 489.564 -1.5511 4.79538 0
M  V30 5109 H 489.166 -0.178836 3.73572 0
M  V30 5110 H 491.458 -1.55006 6.5953 0
M  V30 5111 H 492.401 -0.105046 7.08022 0
M  V30 5112 H 492.809 -0.959682 5.56283 0
M  V30 5113 N 492.207 -1.54576 0.307264 0
M  V30 5114 C 493.618 -1.8579 -0.184121 0
M  V30 5115 C 493.969 -1.22914 -1.52927 0
M  V30 5116 O 493.094 -0.529126 -2.09831 0
M  V30 5117 C 493.689 -3.37081 -0.340862 0
M  V30 5118 C 492.248 -3.68304 -0.776465 0
M  V30 5119 C 491.395 -2.77076 0.111503 0
M  V30 5120 H 494.346 -1.49656 0.528078 0
M  V30 5121 H 494.367 -3.61922 -1.17443 0
M  V30 5122 H 493.879 -3.82815 0.638309 0
M  V30 5123 H 491.98 -3.28092 -1.76596 0
M  V30 5124 H 492.093 -4.75434 -0.591512 0
M  V30 5125 H 490.457 -2.51374 -0.410256 0
M  V30 5126 H 491.24 -3.25632 1.08714 0
M  V30 5127 N 493.685 -0.035106 -1.57561 0
M  V30 5128 C 494.931 0.637362 -1.93156 0
M  V30 5129 C 495.286 1.69391 -0.912392 0
M  V30 5130 O 494.579 1.91469 0.070735 0
M  V30 5131 C 494.773 1.29149 -3.3325 0
M  V30 5132 C 494.602 0.29983 -4.48699 0
M  V30 5133 C 493.372 -0.102454 -5.05196 0
M  V30 5134 C 495.57 -0.448297 -5.12342 0
M  V30 5135 N 493.552 -1.08866 -6.0417 0
M  V30 5136 C 494.923 -1.28807 -6.06472 0
M  V30 5137 C 496.978 -0.508351 -4.95298 0
M  V30 5138 C 495.681 -2.18248 -6.85391 0
M  V30 5139 C 497.707 -1.39013 -5.7483 0
M  V30 5140 C 497.069 -2.21766 -6.6858 0
M  V30 5141 H 493.168 0.205358 -0.754554 0
M  V30 5142 H 495.752 -0.103682 -1.94424 0
M  V30 5143 H 493.923 2.00264 -3.3279 0
M  V30 5144 H 495.655 1.92147 -3.56177 0
M  V30 5145 H 492.41 0.273223 -4.72811 0
M  V30 5146 H 492.834 -1.57817 -6.58348 0
M  V30 5147 H 497.476 0.117197 -4.22638 0
M  V30 5148 H 495.194 -2.81855 -7.57353 0
M  V30 5149 H 498.78 -1.44096 -5.63673 0
M  V30 5150 H 497.66 -2.88892 -7.29048 0
M  V30 5151 N 495.163 1.55791 0.238111 0
M  V30 5152 C 496.393 1.81834 0.980809 0
M  V30 5153 C 496.801 0.609741 1.79106 0
M  V30 5154 O 496.144 -0.431073 1.78571 0
M  V30 5155 C 496.206 3.01363 1.96011 0
M  V30 5156 C 495.87 4.37037 1.33597 0
M  V30 5157 C 496.867 5.14692 0.734063 0
M  V30 5158 C 494.552 4.83743 1.3527 0
M  V30 5159 C 496.546 6.37206 0.157208 0
M  V30 5160 C 494.233 6.06204 0.77199 0
M  V30 5161 C 495.231 6.82775 0.175282 0
M  V30 5162 O 494.919 8.02922 -0.396432 0
M  V30 5163 H 494.651 0.6088 0.293834 0
M  V30 5164 H 497.205 2.03702 0.263552 0
M  V30 5165 H 495.435 2.75273 2.71591 0
M  V30 5166 H 497.124 3.14422 2.56697 0
M  V30 5167 H 497.89 4.79722 0.713582 0
M  V30 5168 H 493.769 4.24129 1.80653 0
M  V30 5169 H 497.313 6.96915 -0.30917 0
M  V30 5170 H 493.21 6.4065 0.789828 0
M  V30 5171 H 493.978 8.17989 -0.289145 0
M  V30 5172 N 496.642 -0.504142 1.49319 0
M  V30 5173 C 497.891 -1.25507 1.57895 0
M  V30 5174 C 498.204 -1.93735 0.269433 0
M  V30 5175 O 499.41 -2.70492 0.233706 0
M  V30 5176 C 497.866 -2.27869 2.78574 0
M  V30 5177 C 497.474 -1.65594 4.16272 0
M  V30 5178 C 499.218 -3.0381 2.96479 0
M  V30 5179 C 497.125 -2.66048 5.28178 0
M  V30 5180 H 496.055 -0.47212 0.587894 0
M  V30 5181 H 498.706 -0.52931 1.757 0
M  V30 5182 H 497.088 -3.03594 2.54257 0
M  V30 5183 H 498.262 -0.958826 4.50714 0
M  V30 5184 H 496.577 -1.02055 4.037 0
M  V30 5185 H 499.174 -3.78925 3.77253 0
M  V30 5186 H 499.517 -3.61235 2.06918 0
M  V30 5187 H 500.05 -2.352 3.20821 0
M  V30 5188 H 496.789 -2.13408 6.19788 0
M  V30 5189 H 496.309 -3.34009 4.98195 0
M  V30 5190 H 497.988 -3.28536 5.57381 0
M  V30 5191 N 498.12 -1.38341 -0.754957 0
M  V30 5192 C 499.053 -1.29837 -1.87663 0
M  V30 5193 C 500.031 -0.175659 -1.61648 0
M  V30 5194 O 501.215 -0.352745 -1.8517 0
M  V30 5195 C 498.342 -1.01141 -3.23246 0
M  V30 5196 C 497.388 -2.15331 -3.6815 0
M  V30 5197 S 498.221 -3.77459 -3.79849 0
M  V30 5198 C 499.377 -3.50948 -5.18253 0
M  V30 5199 H 499.61 -2.24771 -1.9459 0
M  V30 5200 H 497.143 -1.24161 -0.917796 0
M  V30 5201 H 499.101 -0.852687 -4.01546 0
M  V30 5202 H 497.762 -0.0792784 -3.14 0
M  V30 5203 H 496.955 -1.90795 -4.6649 0
M  V30 5204 H 496.557 -2.27304 -2.97 0
M  V30 5205 H 498.849 -3.06977 -6.03963 0
M  V30 5206 H 499.792 -4.48677 -5.47809 0
M  V30 5207 H 500.2 -2.85492 -4.86985 0
M  V30 5208 N 499.598 0.982988 -1.23187 0
M  V30 5209 C 500.845 1.72392 -1.06241 0
M  V30 5210 C 501.173 1.9032 0.40108 0
M  V30 5211 O 500.428 1.45084 1.31336 0
M  V30 5212 C 500.727 3.12736 -1.73006 0
M  V30 5213 C 500.393 3.14695 -3.22921 0
M  V30 5214 C 499.055 3.14937 -3.63824 0
M  V30 5215 C 501.407 3.10211 -4.1883 0
M  V30 5216 C 498.735 3.08408 -4.99101 0
M  V30 5217 C 501.087 3.05224 -5.54095 0
M  V30 5218 C 499.751 3.03787 -5.94365 0
M  V30 5219 H 499.021 0.630829 -0.388762 0
M  V30 5220 H 501.668 1.15053 -1.53085 0
M  V30 5221 H 499.973 3.73446 -1.18514 0
M  V30 5222 H 501.67 3.68828 -1.57374 0
M  V30 5223 H 498.26 3.15262 -2.90358 0
M  V30 5224 H 502.444 3.09166 -3.8824 0
M  V30 5225 H 497.7 3.05646 -5.29519 0
M  V30 5226 H 501.874 3.00712 -6.28128 0
M  V30 5227 H 499.501 2.98483 -6.99151 0
M  V30 5228 N 501.076 1.04316 1.18135 0
M  V30 5229 C 502.006 0.657299 2.24058 0
M  V30 5230 C 502.987 -0.340678 1.66654 0
M  V30 5231 O 504.172 -0.220223 1.92947 0
M  V30 5232 C 501.302 0.0220715 3.47293 0
M  V30 5233 C 500.256 0.943857 4.17463 0
M  V30 5234 C 499.582 0.172973 5.3442 0
M  V30 5235 C 500.882 2.26409 4.70677 0
M  V30 5236 H 502.576 1.5428 2.56589 0
M  V30 5237 H 500.122 0.743263 1.23335 0
M  V30 5238 H 502.075 -0.259607 4.206 0
M  V30 5239 H 500.799 -0.898323 3.14003 0
M  V30 5240 H 499.458 1.20996 3.46057 0
M  V30 5241 H 499.106 -0.749907 4.97379 0
M  V30 5242 H 498.806 0.787098 5.82304 0
M  V30 5243 H 500.33 -0.101628 6.10515 0
M  V30 5244 H 501.744 2.04294 5.35665 0
M  V30 5245 H 500.141 2.8314 5.29105 0
M  V30 5246 H 501.211 2.90883 3.87962 0
M  V30 5247 N 502.554 -1.34406 0.822964 0
M  V30 5248 C 503.501 -2.29519 0.24284 0
M  V30 5249 C 504.471 -1.5359 -0.632397 0
M  V30 5250 O 505.656 -1.8196 -0.57403 0
M  V30 5251 C 502.796 -3.40032 -0.58925 0
M  V30 5252 C 501.909 -4.30899 0.308236 0
M  V30 5253 C 501.044 -5.28515 -0.533425 0
M  V30 5254 C 500.083 -6.1102 0.363444 0
M  V30 5255 N 499.22 -7.00725 -0.439147 0
M  V30 5256 H 504.06 -2.78537 1.05929 0
M  V30 5257 H 501.597 -1.3707 0.533872 0
M  V30 5258 H 503.555 -4.0279 -1.087 0
M  V30 5259 H 502.185 -2.92248 -1.37081 0
M  V30 5260 H 501.237 -3.69002 0.924203 0
M  V30 5261 H 502.549 -4.88717 0.997862 0
M  V30 5262 H 501.703 -5.96725 -1.09565 0
M  V30 5263 H 500.442 -4.71235 -1.25656 0
M  V30 5264 H 499.447 -5.41743 0.937812 0
M  V30 5265 H 500.672 -6.70381 1.08469 0
M  V30 5266 H 498.618 -6.45913 -1.14595 0
M  V30 5267 H 498.535 -7.55756 0.19209 0
M  V30 5268 H 499.803 -7.73263 -0.984124 0
M  V30 5269 O 504.071 -0.718724 -1.44626 0
M  V30 5270 H 504.762 -0.264938 -1.9188 0
M  V30 END ATOM
M  V30 BEGIN BOND
M  V30 END BOND
M  V30 END CTAB
M  END
$$$$
