drugbank_target|Q8L103 Penicillin binding protein (DB01060)
 OpenBabel12092121213D

  0  0  0     0  0            999 V3000
M  V30 BEGIN CTAB
M  V30 COUNTS 10574 10676 0 0 0
M  V30 BEGIN ATOM
M  V30 1 H -0.908 1.98254 -0.117106 0
M  V30 2 N 0 1.576 0 0
M  V30 3 C 0.933 2.03868 1.02534 0
M  V30 4 C 1.911 0.928543 1.3348 0
M  V30 5 O 3.095 1.19667 1.45644 0
M  V30 6 C 0.222 2.43627 2.35294 0
M  V30 7 C -0.732 3.65373 2.2001 0
M  V30 8 S 0.101 5.13292 1.52614 0
M  V30 9 C 1.257 5.56322 2.86805 0
M  V30 10 H 1.49 2.90518 0.631377 0
M  V30 11 H -0.977 1.52953 0.210867 0
M  V30 12 H 0.981 2.67203 3.11629 0
M  V30 13 H -0.358 1.57376 2.7183 0
M  V30 14 H -1.165 3.90944 3.18086 0
M  V30 15 H -1.563 3.418 1.51819 0
M  V30 16 H 0.729 5.58782 3.83104 0
M  V30 17 H 1.672 6.56266 2.65933 0
M  V30 18 H 2.08 4.83886 2.90714 0
M  V30 19 N 1.4781 -0.272755 1.55222 0
M  V30 20 C 2.4081 -1.34136 1.91127 0
M  V30 21 C 3.3891 -1.51513 0.773168 0
M  V30 22 O 4.5741 -1.64552 1.03132 0
M  V30 23 C 1.7041 -2.70083 2.1834 0
M  V30 24 C 0.6581 -2.67437 3.34158 0
M  V30 25 C -0.0159 -4.06938 3.46851 0
M  V30 26 C 1.2841 -2.26686 4.70543 0
M  V30 27 H 2.9781 -1.04333 2.80633 0
M  V30 28 H 0.5241 -0.500454 1.35024 0
M  V30 29 H 2.4771 -3.44952 2.42046 0
M  V30 30 H 1.2011 -3.01469 1.25634 0
M  V30 31 H -0.1399 -1.95026 3.1042 0
M  V30 32 H -0.4919 -4.35547 2.51611 0
M  V30 33 H -0.7919 -4.06062 4.2472 0
M  V30 34 H 0.7321 -4.83545 3.72849 0
M  V30 35 H 2.1461 -2.91277 4.93792 0
M  V30 36 H 0.5431 -2.36971 5.5133 0
M  V30 37 H 1.6131 -1.21818 4.69349 0
M  V30 38 N 2.9562 -1.48159 -0.537278 0
M  V30 39 C 3.9032 -1.62138 -1.64256 0
M  V30 40 C 4.8732 -0.463668 -1.59497 0
M  V30 41 O 6.0582 -0.686241 -1.78032 0
M  V30 42 C 3.1982 -1.66028 -3.02537 0
M  V30 43 C 2.3112 -2.92855 -3.17585 0
M  V30 44 C 1.4462 -2.87952 -4.46382 0
M  V30 45 C 0.4852 -4.09516 -4.54932 0
M  V30 46 N -0.3778 -4.02733 -5.75109 0
M  V30 47 H 4.4622 -2.56529 -1.51647 0
M  V30 48 H 1.9992 -1.27224 -0.738414 0
M  V30 49 H 3.9572 -1.66265 -3.82638 0
M  V30 50 H 2.5872 -0.751331 -3.13934 0
M  V30 51 H 1.6392 -3.02395 -2.30784 0
M  V30 52 H 2.9512 -3.82822 -3.19764 0
M  V30 53 H 2.1052 -2.8655 -5.34765 0
M  V30 54 H 0.8442 -1.95702 -4.46712 0
M  V30 55 H -0.1508 -4.11201 -3.64957 0
M  V30 56 H 1.0742 -5.02917 -4.56346 0
M  V30 57 H -0.9798 -3.13299 -5.76351 0
M  V30 58 H -1.0628 -4.86397 -5.78752 0
M  V30 59 H 0.2052 -4.05379 -6.65799 0
M  V30 60 N 4.4343 0.785586 -1.36625 0
M  V30 61 C 5.3813 1.89838 -1.31264 0
M  V30 62 C 6.3513 1.65115 -0.180633 0
M  V30 63 O 7.5363 1.87222 -0.36777 0
M  V30 64 C 4.6763 3.26706 -1.11163 0
M  V30 65 C 3.7893 3.63476 -2.33472 0
M  V30 66 C 2.9243 4.89481 -2.06353 0
M  V30 67 C 1.9633 5.18941 -3.24602 0
M  V30 68 N 1.1003 6.36131 -2.97123 0
M  V30 69 H 5.9403 1.93756 -2.26413 0
M  V30 70 H 3.4773 0.947454 -1.12524 0
M  V30 71 H 5.4353 4.05639 -0.975337 0
M  V30 72 H 4.0653 3.222 -0.196674 0
M  V30 73 H 3.1173 2.79636 -2.57891 0
M  V30 74 H 4.4293 3.81193 -3.21704 0
M  V30 75 H 3.5833 5.76288 -1.89675 0
M  V30 76 H 2.3223 4.73841 -1.15437 0
M  V30 77 H 1.3273 4.30615 -3.41834 0
M  V30 78 H 2.5523 5.36498 -4.16349 0
M  V30 79 H 0.4983 6.21875 -2.08823 0
M  V30 80 H 0.4153 6.54198 -3.78894 0
M  V30 81 H 1.6833 7.2591 -2.84033 0
M  V30 82 N 5.9124 1.20967 1.01018 0
M  V30 83 C 7.1614 1.01796 1.74128 0
M  V30 84 C 7.4744 -0.449691 1.90361 0
M  V30 85 O 8.6804 -0.76068 2.60626 0
M  V30 86 C 7.1364 1.7727 3.13215 0
M  V30 87 C 6.7444 3.28171 3.04972 0
M  V30 88 C 8.4884 1.66489 3.90489 0
M  V30 89 C 6.3954 3.96156 4.39107 0
M  V30 90 H 5.3254 0.377276 0.652824 0
M  V30 91 H 7.9764 1.44651 1.12909 0
M  V30 92 H 6.3584 1.27205 3.75013 0
M  V30 93 H 7.5324 3.85499 2.52443 0
M  V30 94 H 5.8474 3.39437 2.41188 0
M  V30 95 H 8.4444 2.14617 4.89738 0
M  V30 96 H 8.7874 0.6222 4.11624 0
M  V30 97 H 9.3204 2.14003 3.35332 0
M  V30 98 H 6.0594 5.00604 4.23174 0
M  V30 99 H 5.5794 3.43617 4.91617 0
M  V30 100 H 7.2584 4.00774 5.07926 0
M  V30 101 N 7.3905 -1.2043 1.01659 0
M  V30 102 C 8.6375 -1.89797 0.705917 0
M  V30 103 C 8.9655 -1.78848 -0.764439 0
M  V30 104 O 8.2205 -1.16694 -1.57102 0
M  V30 105 C 8.5195 -3.40464 1.08714 0
M  V30 106 C 8.1855 -3.71614 2.5537 0
M  V30 107 C 6.8475 -3.79826 2.95441 0
M  V30 108 C 9.1995 -3.85915 3.50313 0
M  V30 109 C 6.5275 -3.99797 4.29394 0
M  V30 110 C 8.8795 -4.07396 4.83954 0
M  V30 111 C 7.5435 -4.13837 5.23732 0
M  V30 112 H 6.8135 -0.694518 0.258313 0
M  V30 113 H 9.4605 -1.42691 1.27717 0
M  V30 114 H 7.7655 -3.89385 0.434309 0
M  V30 115 H 9.4625 -3.92433 0.824461 0
M  V30 116 H 6.0525 -3.65822 2.23321 0
M  V30 117 H 10.2365 -3.78926 3.20513 0
M  V30 118 H 5.4925 -4.03018 4.59768 0
M  V30 119 H 9.6665 -4.17404 5.57447 0
M  V30 120 H 7.2935 -4.29064 6.27541 0
M  V30 121 N 8.8686 -0.792821 -1.36206 0
M  V30 122 C 10.0986 -0.378275 -2.03107 0
M  V30 123 C 10.5066 1.01119 -1.59911 0
M  V30 124 O 9.8496 1.66052 -0.785658 0
M  V30 125 C 9.9116 -0.366535 -3.57627 0
M  V30 126 C 9.5756 -1.70416 -4.24037 0
M  V30 127 C 10.5726 -2.6602 -4.46687 0
M  V30 128 C 8.2576 -1.98439 -4.6144 0
M  V30 129 C 10.2516 -3.8784 -5.05825 0
M  V30 130 C 7.9386 -3.20525 -5.20295 0
M  V30 131 C 8.9366 -4.15044 -5.42427 0
M  V30 132 O 8.6246 -5.34978 -6.00045 0
M  V30 133 H 8.3566 -0.153543 -0.658332 0
M  V30 134 H 10.9106 -1.07383 -1.75094 0
M  V30 135 H 9.1406 0.385539 -3.84773 0
M  V30 136 H 10.8296 0.0238088 -4.05893 0
M  V30 137 H 11.5956 -2.45658 -4.18183 0
M  V30 138 H 7.4746 -1.25686 -4.43536 0
M  V30 139 H 11.0186 -4.61628 -5.23015 0
M  V30 140 H 6.9156 -3.40764 -5.48225 0
M  V30 141 H 7.6836 -5.36088 -6.18508 0
M  V30 142 N 10.3467 1.47872 -0.545128 0
M  V30 143 C 11.5947 2.02093 -0.016553 0
M  V30 144 C 11.9157 1.42305 1.3332 0
M  V30 145 O 11.1857 0.593853 1.86682 0
M  V30 146 H 9.7657 0.746993 -0.00313038 0
M  V30 147 H 12.4277 1.81414 -0.712397 0
M  V30 148 H 11.5237 3.11996 0.0805422 0
M  V30 149 N 11.8248 0.280983 1.55075 0
M  V30 150 C 13.0718 -0.334115 1.99725 0
M  V30 151 C 13.3998 -1.5542 1.1694 0
M  V30 152 O 12.6548 -1.94361 0.228531 0
M  V30 153 C 12.9538 -0.754656 3.49342 0
M  V30 154 C 12.6198 0.361445 4.49449 0
M  V30 155 C 11.2818 0.667893 4.76542 0
M  V30 156 C 13.6338 1.11322 5.09173 0
M  V30 157 C 10.9618 1.7296 5.60626 0
M  V30 158 C 13.3138 2.1647 5.9441 0
M  V30 159 C 11.9778 2.47742 6.19822 0
M  V30 160 H 11.2478 -0.122261 0.730844 0
M  V30 161 H 13.8948 0.395917 1.87363 0
M  V30 162 H 12.1998 -1.56446 3.5921 0
M  V30 163 H 13.8968 -1.24142 3.813 0
M  V30 164 H 10.4868 0.112481 4.28452 0
M  V30 165 H 14.6708 0.88973 4.8826 0
M  V30 166 H 9.9268 1.97684 5.78559 0
M  V30 167 H 14.1008 2.75193 6.3972 0
M  V30 168 H 11.7278 3.30145 6.84769 0
M  V30 169 N 13.3029 -1.57598 0.00835791 0
M  V30 170 C 14.5519 -1.90107 -0.673968 0
M  V30 171 C 14.8649 -0.884275 -1.7447 0
M  V30 172 O 16.0709 -1.09987 -2.48224 0
M  V30 173 C 14.5269 -3.37497 -1.24995 0
M  V30 174 C 14.1349 -4.47491 -0.2136 0
M  V30 175 C 15.8789 -3.79104 -1.90999 0
M  V30 176 C 13.7859 -5.85963 -0.80005 0
M  V30 177 H 12.7159 -0.709393 -0.255495 0
M  V30 178 H 15.3669 -1.83365 0.0702693 0
M  V30 179 H 13.7489 -3.39102 -2.04513 0
M  V30 180 H 14.9229 -4.57414 0.557596 0
M  V30 181 H 13.2379 -4.14956 0.346474 0
M  V30 182 H 15.8349 -4.79901 -2.35795 0
M  V30 183 H 16.1779 -3.1306 -2.74407 0
M  V30 184 H 16.7109 -3.79833 -1.18203 0
M  V30 185 H 13.4499 -6.555 -0.00456708 0
M  V30 186 H 12.9699 -5.79687 -1.54021 0
M  V30 187 H 14.6489 -6.33884 -1.29615 0
M  V30 188 N 14.781 0.264519 -1.55364 0
M  V30 189 C 16.027 0.99646 -1.76631 0
M  V30 190 C 16.36 1.85632 -0.570478 0
M  V30 191 O 15.635 1.89647 0.43175 0
M  V30 192 C 15.918 1.87187 -3.07625 0
M  V30 193 C 15.771 1.04138 -4.37579 0
M  V30 194 C 17.09 2.85749 -3.34717 0
M  V30 195 H 14.209 0.360841 -0.642622 0
M  V30 196 H 16.851 0.268218 -1.88097 0
M  V30 197 H 15.001 2.49279 -2.9798 0
M  V30 198 H 16.673 0.440517 -4.59192 0
M  V30 199 H 14.916 0.345115 -4.32425 0
M  V30 200 H 15.587 1.68729 -5.2558 0
M  V30 201 H 18.063 2.33793 -3.4421 0
M  V30 202 H 16.939 3.44136 -4.27623 0
M  V30 203 H 17.2 3.61311 -2.54768 0
M  V30 204 N 16.2591 1.48442 0.529413 0
M  V30 205 C 17.1891 1.65902 1.64313 0
M  V30 206 C 18.1701 0.507897 1.6234 0
M  V30 207 O 19.3551 0.740503 1.79528 0
M  V30 208 C 16.4851 1.69911 3.02898 0
M  V30 209 C 15.4391 2.8453 3.19729 0
M  V30 210 C 14.7651 2.73629 4.59381 0
M  V30 211 C 16.0651 4.25821 3.02447 0
M  V30 212 H 17.7591 2.5914 1.49955 0
M  V30 213 H 15.3051 1.24709 0.719982 0
M  V30 214 H 17.2581 1.80715 3.80684 0
M  V30 215 H 15.9821 0.732524 3.18279 0
M  V30 216 H 14.6411 2.73283 2.44361 0
M  V30 217 H 14.2891 1.74938 4.71599 0
M  V30 218 H 13.9891 3.50541 4.71588 0
M  V30 219 H 15.5131 2.86401 5.39265 0
M  V30 220 H 16.9271 4.37898 3.70024 0
M  V30 221 H 15.3241 5.03735 3.26146 0
M  V30 222 H 16.3941 4.42244 1.98867 0
M  V30 223 N 17.7372 -0.778329 1.37039 0
M  V30 224 C 18.9842 -1.53665 1.31884 0
M  V30 225 C 19.3122 -1.9425 -0.0986303 0
M  V30 226 O 18.5672 -1.63832 -1.07041 0
M  V30 227 C 18.8662 -2.81845 2.19768 0
M  V30 228 C 18.5322 -2.60345 3.68146 0
M  V30 229 C 17.1942 -2.5419 4.08584 0
M  V30 230 C 19.5462 -2.40923 4.62175 0
M  V30 231 C 16.8742 -2.26594 5.41177 0
M  V30 232 C 19.2262 -2.14852 5.94997 0
M  V30 233 C 17.8902 -2.07137 6.34547 0
M  V30 234 H 17.1602 -0.562299 0.482598 0
M  V30 235 H 19.8072 -0.897069 1.69189 0
M  V30 236 H 18.1122 -3.50328 1.75436 0
M  V30 237 H 19.8092 -3.39692 2.13097 0
M  V30 238 H 16.3992 -2.65996 3.36072 0
M  V30 239 H 20.5832 -2.44673 4.31797 0
M  V30 240 H 15.8392 -2.19111 5.70789 0
M  V30 241 H 20.0132 -1.98822 6.67415 0
M  V30 242 H 17.6402 -1.85518 7.37216 0
M  V30 243 N 19.2153 -1.21501 -1.00376 0
M  V30 244 C 20.1453 -0.999478 -2.11028 0
M  V30 245 C 21.1263 0.0759671 -1.6993 0
M  V30 246 O 22.3113 -0.0841106 -1.94018 0
M  V30 247 C 19.4413 -0.564709 -3.42678 0
M  V30 248 C 18.3953 -1.58486 -3.97576 0
M  V30 249 C 17.7213 -1.00628 -5.25146 0
M  V30 250 C 19.0213 -2.97204 -4.29496 0
M  V30 251 H 20.7153 -1.92495 -2.29317 0
M  V30 252 H 18.2613 -0.92693 -1.102 0
M  V30 253 H 20.2143 -0.401091 -4.19487 0
M  V30 254 H 18.9383 0.396411 -3.24185 0
M  V30 255 H 17.5973 -1.73606 -3.22888 0
M  V30 256 H 17.2453 -0.0368439 -5.02987 0
M  V30 257 H 16.9453 -1.68771 -5.62841 0
M  V30 258 H 18.4693 -0.854015 -6.04598 0
M  V30 259 H 19.8833 -2.8552 -4.97143 0
M  V30 260 H 18.2803 -3.62372 -4.78338 0
M  V30 261 H 19.3503 -3.47956 -3.3772 0
M  V30 262 N 20.6934 1.19889 -1.02296 0
M  V30 263 C 21.9424 1.88743 -0.711257 0
M  V30 264 C 22.2554 1.80112 0.762817 0
M  V30 265 O 23.4614 2.44161 1.18733 0
M  V30 266 C 21.9174 3.38525 -1.22185 0
M  V30 267 C 21.5254 3.55727 -2.72328 0
M  V30 268 C 23.2694 4.12893 -0.985864 0
M  V30 269 C 21.1764 4.99369 -3.16835 0
M  V30 270 H 20.1064 0.706885 -0.262353 0
M  V30 271 H 22.7574 1.35586 -1.23648 0
M  V30 272 H 21.1394 3.91044 -0.624571 0
M  V30 273 H 22.3134 3.13564 -3.3766 0
M  V30 274 H 20.6284 2.94739 -2.9414 0
M  V30 275 H 23.2254 5.18813 -1.29374 0
M  V30 276 H 23.5684 4.16228 0.0775055 0
M  V30 277 H 24.1014 3.66494 -1.54684 0
M  V30 278 H 20.8404 5.01193 -4.22476 0
M  V30 279 H 20.3604 5.42317 -2.56228 0
M  V30 280 H 22.0394 5.67988 -3.09837 0
M  V30 281 N 22.1715 0.800033 1.35784 0
M  V30 282 C 23.4175 0.377901 1.99248 0
M  V30 283 C 23.7505 -1.05052 1.63333 0
M  V30 284 O 23.0255 -1.72768 0.893385 0
M  V30 285 C 23.3085 0.553922 3.55814 0
M  V30 286 C 23.1615 2.0268 4.01548 0
M  V30 287 C 24.4805 -0.0244802 4.40093 0
M  V30 288 H 21.5995 0.138782 0.723815 0
M  V30 289 H 24.2415 1.00835 1.61035 0
M  V30 290 H 22.3915 0.0172398 3.88496 0
M  V30 291 H 24.0635 2.62536 3.79305 0
M  V30 292 H 22.3065 2.5256 3.52698 0
M  V30 293 H 22.9775 2.10087 5.10458 0
M  V30 294 H 25.4535 0.433775 4.13833 0
M  V30 295 H 24.3295 0.128637 5.48749 0
M  V30 296 H 24.5905 -1.11758 4.27741 0
M  V30 297 N 23.6496 -1.47581 0.552962 0
M  V30 298 C 24.8956 -2.02782 0.0273648 0
M  V30 299 C 25.2286 -1.42687 -1.31734 0
M  V30 300 O 24.5036 -0.580897 -1.85623 0
M  V30 301 C 24.7866 -3.60031 -0.0702371 0
M  V30 302 C 24.6396 -4.30566 1.30126 0
M  V30 303 C 25.9586 -4.33028 -0.785771 0
M  V30 304 H 23.0776 -0.736912 0.0114185 0
M  V30 305 H 25.7196 -1.76056 0.714432 0
M  V30 306 H 23.8696 -3.82932 -0.655382 0
M  V30 307 H 25.5416 -4.19018 1.92929 0
M  V30 308 H 23.7846 -3.91086 1.87709 0
M  V30 309 H 24.4556 -5.39114 1.18573 0
M  V30 310 H 26.9316 -4.15095 -0.288982 0
M  V30 311 H 25.8076 -5.42695 -0.823013 0
M  V30 312 H 26.0686 -4.01945 -1.841 0
M  V30 313 N 25.1277 -0.289203 -1.54924 0
M  V30 314 C 26.3757 0.322879 -1.99504 0
M  V30 315 C 26.6967 1.55313 -1.1791 0
M  V30 316 O 25.9667 1.94001 -0.272097 0
M  V30 317 H 24.5467 0.122291 -0.736922 0
M  V30 318 H 27.2087 -0.397802 -1.90797 0
M  V30 319 H 26.3047 0.603061 -3.06218 0
M  V30 320 N 26.6058 1.57591 -0.0167156 0
M  V30 321 C 27.5358 2.12496 0.967858 0
M  V30 322 C 28.5168 1.03807 1.34752 0
M  V30 323 O 29.7018 1.31577 1.42833 0
M  V30 324 C 26.8318 2.64194 2.25431 0
M  V30 325 C 25.7858 3.77559 2.01576 0
M  V30 326 C 25.1118 4.15636 3.36379 0
M  V30 327 C 26.4118 5.04151 1.36489 0
M  V30 328 H 28.1058 2.95013 0.510643 0
M  V30 329 H 25.6518 1.41915 0.244181 0
M  V30 330 H 27.6048 3.01236 2.94678 0
M  V30 331 H 26.3288 1.78821 2.73296 0
M  V30 332 H 24.9878 3.40937 1.34751 0
M  V30 333 H 24.6358 3.27263 3.81979 0
M  V30 334 H 24.3358 4.92022 3.21229 0
M  V30 335 H 25.8598 4.5525 4.06915 0
M  V30 336 H 27.2738 5.38857 1.95718 0
M  V30 337 H 25.6708 5.85453 1.31776 0
M  V30 338 H 26.7408 4.83733 0.336219 0
M  V30 339 N 28.0839 -0.256276 1.55502 0
M  V30 340 C 29.0139 -1.32102 1.92539 0
M  V30 341 C 29.9949 -1.50684 0.789194 0
M  V30 342 O 31.1799 -1.63449 1.04872 0
M  V30 343 C 28.3099 -2.67752 2.21192 0
M  V30 344 C 27.2639 -2.63878 3.36975 0
M  V30 345 C 26.5899 -4.03236 3.51147 0
M  V30 346 C 27.8899 -2.21682 4.72921 0
M  V30 347 H 29.5839 -1.01351 2.81724 0
M  V30 348 H 27.1299 -0.486105 1.35547 0
M  V30 349 H 29.0829 -3.42365 2.45691 0
M  V30 350 H 27.8069 -3.0012 1.28824 0
M  V30 351 H 26.4659 -1.91722 3.12471 0
M  V30 352 H 26.1139 -4.32854 2.56216 0
M  V30 353 H 25.8139 -4.01535 4.29003 0
M  V30 354 H 27.3379 -4.79563 3.77957 0
M  V30 355 H 28.7519 -2.86023 4.96854 0
M  V30 356 H 27.1489 -2.3111 5.53812 0
M  V30 357 H 28.2189 -1.16833 4.70615 0
M  V30 358 N 29.562 -1.4872 -0.521534 0
M  V30 359 C 30.525 -1.63379 -1.60748 0
M  V30 360 C 31.525 -0.50661 -1.52611 0
M  V30 361 O 32.715 -0.772601 -1.5613 0
M  V30 362 C 29.847 -1.61192 -3.00383 0
M  V30 363 H 31.04 -2.60217 -1.49087 0
M  V30 364 H 28.593 -1.37444 -0.744235 0
M  V30 365 H 29.328 -0.65863 -3.17541 0
M  V30 366 H 29.113 -2.43032 -3.07698 0
M  V30 367 H 30.603 -1.7466 -3.7932 0
M  V30 368 N 31.0401 0.771051 -1.3745 0
M  V30 369 C 32.2891 1.52491 -1.3202 0
M  V30 370 C 32.6021 1.9538 0.0927347 0
M  V30 371 O 33.8081 2.70159 0.269503 0
M  V30 372 C 32.2641 2.75366 -2.31736 0
M  V30 373 C 31.8721 2.39573 -3.78562 0
M  V30 374 C 33.6161 3.53307 -2.35318 0
M  V30 375 C 31.5231 3.58954 -4.70007 0
M  V30 376 H 30.4531 0.572506 -0.490666 0
M  V30 377 H 33.1041 0.844474 -1.62914 0
M  V30 378 H 31.4861 3.45303 -1.93861 0
M  V30 379 H 32.6601 1.77415 -4.25277 0
M  V30 380 H 30.9751 1.74805 -3.77932 0
M  V30 381 H 33.5721 4.42039 -3.00842 0
M  V30 382 H 33.9151 3.93217 -1.36698 0
M  V30 383 H 34.4481 2.90367 -2.71904 0
M  V30 384 H 31.1871 3.24125 -5.69757 0
M  V30 385 H 30.7071 4.20214 -4.27996 0
M  V30 386 H 32.3861 4.25758 -4.87175 0
M  V30 387 N 32.5182 1.22032 0.997298 0
M  V30 388 C 33.4482 1.01065 2.10495 0
M  V30 389 C 34.4292 -0.0669542 1.69968 0
M  V30 390 O 35.6142 0.0943987 1.9397 0
M  V30 391 C 32.7442 0.582874 3.42374 0
M  V30 392 C 31.6982 1.60592 3.96729 0
M  V30 393 C 31.0242 1.03412 5.24605 0
M  V30 394 C 32.3242 2.99478 4.27914 0
M  V30 395 H 34.0182 1.93708 2.28292 0
M  V30 396 H 31.5642 0.932761 1.09707 0
M  V30 397 H 33.5172 0.423332 4.19268 0
M  V30 398 H 32.2412 -0.379213 3.24391 0
M  V30 399 H 30.9002 1.75316 3.21963 0
M  V30 400 H 30.5482 0.063518 5.0296 0
M  V30 401 H 30.2482 1.71754 5.61938 0
M  V30 402 H 31.7722 0.886066 6.04137 0
M  V30 403 H 33.1862 2.88153 4.95622 0
M  V30 404 H 31.5832 3.64903 4.76409 0
M  V30 405 H 32.6532 3.49742 3.3587 0
M  V30 406 N 33.9963 -1.19345 1.0293 0
M  V30 407 C 35.2453 -1.88363 0.721256 0
M  V30 408 C 35.5583 -1.80514 -0.753254 0
M  V30 409 O 36.7643 -2.44788 -1.17436 0
M  V30 410 C 35.2203 -3.37872 1.23978 0
M  V30 411 C 34.8283 -3.54278 2.74211 0
M  V30 412 C 36.5723 -4.12365 1.00775 0
M  V30 413 C 34.4793 -4.97682 3.19479 0
M  V30 414 H 33.4093 -0.705484 0.266098 0
M  V30 415 H 36.0603 -1.34928 1.24365 0
M  V30 416 H 34.4423 -3.90707 0.6453 0
M  V30 417 H 35.6163 -3.11769 3.39318 0
M  V30 418 H 33.9313 -2.93174 2.95699 0
M  V30 419 H 36.5283 -5.18119 1.32123 0
M  V30 420 H 36.8713 -4.16263 -0.0554308 0
M  V30 421 H 37.4043 -3.65668 1.56625 0
M  V30 422 H 34.1433 -4.98945 4.25128 0
M  V30 423 H 33.6633 -5.4095 2.591 0
M  V30 424 H 35.3423 -5.66337 3.12845 0
M  V30 425 N 35.4744 -0.807222 -1.35358 0
M  V30 426 C 36.4374 -0.223665 -2.28106 0
M  V30 427 C 37.4374 0.589354 -1.4961 0
M  V30 428 O 38.6274 0.407745 -1.69361 0
M  V30 429 C 35.7594 0.688149 -3.33882 0
M  V30 430 H 36.9524 -1.04169 -2.81227 0
M  V30 431 H 34.5054 -0.577921 -1.45223 0
M  V30 432 H 35.2404 1.52984 -2.85948 0
M  V30 433 H 35.0254 0.10687 -3.91954 0
M  V30 434 H 36.5154 1.09075 -4.03104 0
M  V30 435 N 36.9525 1.47285 -0.560781 0
M  V30 436 C 37.8845 2.28118 0.222438 0
M  V30 437 C 38.8975 1.37219 0.876056 0
M  V30 438 O 40.0865 1.62011 0.749307 0
M  V30 439 C 37.1865 3.1159 1.33285 0
M  V30 440 C 36.3595 4.30473 0.77534 0
M  V30 441 C 35.4185 4.95513 1.77069 0
M  V30 442 O 34.4445 5.53792 1.31539 0
M  V30 443 N 35.6465 4.90531 3.10418 0
M  V30 444 H 38.4115 2.95976 -0.470958 0
M  V30 445 H 35.9725 1.56955 -0.39709 0
M  V30 446 H 37.9645 3.51967 1.99752 0
M  V30 447 H 36.5345 2.45951 1.92943 0
M  V30 448 H 35.7545 3.94144 -0.0662113 0
M  V30 449 H 37.0425 5.07362 0.382272 0
M  V30 450 H 36.4405 4.44389 3.5005 0
M  V30 451 H 34.9975 5.34917 3.72434 0
M  V30 452 N 38.4306 0.297415 1.54768 0
M  V30 453 C 39.6766 -0.313376 2.00364 0
M  V30 454 C 40.0096 -1.53815 1.18553 0
M  V30 455 O 39.2846 -1.92739 0.261103 0
M  V30 456 C 39.5676 -0.673525 3.53745 0
M  V30 457 C 39.4206 0.560133 4.46299 0
M  V30 458 C 40.7396 -1.50143 4.13697 0
M  V30 459 H 37.8586 -0.112428 0.728374 0
M  V30 460 H 40.5006 0.4088 1.8555 0
M  V30 461 H 38.6506 -1.28881 3.665 0
M  V30 462 H 40.3226 1.19863 4.45455 0
M  V30 463 H 38.5656 1.19405 4.17043 0
M  V30 464 H 39.2366 0.26405 5.51368 0
M  V30 465 H 41.7126 -0.981588 4.04356 0
M  V30 466 H 40.5886 -1.72221 5.21182 0
M  V30 467 H 40.8496 -2.48952 3.65343 0
M  V30 468 N 39.9087 -1.5758 0.0250728 0
M  V30 469 C 41.1547 -1.92746 -0.649648 0
M  V30 470 C 41.5097 -0.901588 -1.69968 0
M  V30 471 O 40.8027 0.0829251 -1.9142 0
M  V30 472 C 40.9967 -3.32421 -1.31268 0
M  V30 473 C 40.8257 -4.48499 -0.328394 0
M  V30 474 C 39.5957 -5.05251 0.070284 0
M  V30 475 C 41.7937 -5.12618 0.415665 0
M  V30 476 N 39.7757 -6.04851 1.05016 0
M  V30 477 C 41.1467 -6.0728 1.24943 0
M  V30 478 C 43.2017 -4.95612 0.476803 0
M  V30 479 C 41.9047 -6.86766 2.1388 0
M  V30 480 C 43.9307 -5.75703 1.3535 0
M  V30 481 C 43.2927 -6.69978 2.17504 0
M  V30 482 H 39.3917 -0.753231 -0.210159 0
M  V30 483 H 41.9757 -1.94486 0.0912999 0
M  V30 484 H 40.1467 -3.31508 -2.02379 0
M  V30 485 H 41.8787 -3.54946 -1.94411 0
M  V30 486 H 38.6337 -4.72628 -0.303323 0
M  V30 487 H 39.0577 -6.5934 1.53622 0
M  V30 488 H 43.6997 -4.22554 -0.144105 0
M  V30 489 H 41.4177 -7.59132 2.77027 0
M  V30 490 H 45.0037 -5.64579 1.40504 0
M  V30 491 H 43.8837 -7.30873 2.84244 0
M  V30 492 N 41.3868 0.248026 -1.55636 0
M  V30 493 C 42.6328 0.97767 -1.77678 0
M  V30 494 C 42.9658 1.85016 -0.590135 0
M  V30 495 O 42.2408 1.90095 0.411611 0
M  V30 496 C 42.5238 1.83914 -3.09593 0
M  V30 497 C 42.3768 0.99491 -4.38659 0
M  V30 498 C 43.6958 2.82183 -3.37729 0
M  V30 499 H 40.8148 0.354005 -0.646413 0
M  V30 500 H 43.4568 0.248253 -1.88371 0
M  V30 501 H 41.6068 2.46104 -3.00608 0
M  V30 502 H 43.2788 0.391789 -4.59633 0
M  V30 503 H 41.5218 0.299231 -4.32767 0
M  V30 504 H 42.1928 1.63145 -5.2734 0
M  V30 505 H 44.6688 2.30129 -3.4667 0
M  V30 506 H 43.5448 3.39582 -4.31249 0
M  V30 507 H 43.8058 3.58588 -2.58586 0
M  V30 508 N 42.8649 1.48995 0.513639 0
M  V30 509 C 44.0899 1.61792 1.29762 0
M  V30 510 C 44.5149 0.284475 1.85936 0
M  V30 511 O 43.8729 -0.746185 1.65232 0
M  V30 512 C 43.9209 2.67993 2.41272 0
M  V30 513 O 43.0249 2.26287 3.44772 0
M  V30 514 H 42.3659 0.541963 0.38363 0
M  V30 515 H 44.8959 1.95097 0.616307 0
M  V30 516 H 44.9059 2.89772 2.87221 0
M  V30 517 H 43.5809 3.64791 1.9975 0
M  V30 518 H 42.1579 2.14788 3.04829 0
M  V30 519 N 44.343 -0.763751 1.37857 0
M  V30 520 C 45.571 -1.55293 1.36718 0
M  V30 521 C 45.986 -1.88745 -0.0455434 0
M  V30 522 O 45.343 -1.52039 -1.00947 0
M  V30 523 C 45.394 -2.85831 2.2132 0
M  V30 524 O 45.115 -2.5381 3.57089 0
M  V30 525 C 46.616 -3.80023 2.28249 0
M  V30 526 H 43.836 -0.480841 0.468009 0
M  V30 527 H 46.38 -0.946009 1.81303 0
M  V30 528 H 44.535 -3.42926 1.80223 0
M  V30 529 H 44.949 -3.37459 4.01524 0
M  V30 530 H 46.423 -4.68599 2.91752 0
M  V30 531 H 46.9 -4.1973 1.2932 0
M  V30 532 H 47.506 -3.28855 2.69693 0
M  V30 533 N 45.8211 -1.22559 -0.990812 0
M  V30 534 C 46.7691 -0.994798 -2.10253 0
M  V30 535 C 47.7631 0.0627798 -1.69284 0
M  V30 536 O 48.9691 -0.0898392 -1.79776 0
M  V30 537 H 45.3441 -0.304527 -0.687581 0
M  V30 538 H 47.3151 -1.93812 -2.26891 0
M  V30 539 C 46.0641 -0.591439 -3.42633 0
M  V30 540 H 45.3871 -1.3969 -3.74602 0
M  V30 541 H 46.8271 -0.469385 -4.21394 0
M  V30 542 C 45.2861 0.699232 -3.29564 0
M  V30 543 O 45.8161 1.75112 -3.61523 0
M  V30 544 N 44.0221 0.671182 -2.82743 0
M  V30 545 H 43.5691 -0.185136 -2.56934 0
M  V30 546 H 43.5271 1.53502 -2.7438 0
M  V30 547 N 47.2992 1.18797 -1.03562 0
M  V30 548 C 48.2462 2.22253 -0.622259 0
M  V30 549 C 49.2162 1.61987 0.36736 0
M  V30 550 O 50.4012 1.88986 0.262492 0
M  V30 551 C 47.5412 3.45097 0.0138462 0
M  V30 552 C 46.6542 4.19722 -1.02263 0
M  V30 553 C 45.7892 5.30009 -0.355573 0
M  V30 554 C 44.8282 5.96399 -1.37749 0
M  V30 555 N 43.9652 6.98234 -0.735766 0
M  V30 556 H 48.8052 2.56968 -1.50903 0
M  V30 557 H 46.3422 1.26245 -0.755017 0
M  V30 558 H 48.3002 4.15279 0.399948 0
M  V30 559 H 46.9302 3.11018 0.864158 0
M  V30 560 H 45.9822 3.48418 -1.52673 0
M  V30 561 H 47.2942 4.65227 -1.79903 0
M  V30 562 H 46.4482 6.0664 0.0850095 0
M  V30 563 H 45.1872 4.85592 0.452967 0
M  V30 564 H 44.1922 5.18512 -1.82826 0
M  V30 565 H 45.4172 6.42899 -2.18764 0
M  V30 566 H 43.3632 6.55979 0.0525597 0
M  V30 567 H 43.2802 7.41965 -1.44995 0
M  V30 568 H 44.5482 7.78845 -0.31941 0
M  V30 569 N 48.7773 0.814389 1.34928 0
M  V30 570 C 50.0543 0.321363 1.92942 0
M  V30 571 C 50.4343 -1.19014 1.74353 0
M  V30 572 O 49.7823 -1.99328 1.11716 0
M  V30 573 C 49.9923 0.741323 3.41036 0
M  V30 574 C 51.3403 0.735266 4.18185 0
M  V30 575 O 52.3643 0.68336 3.49584 0
M  V30 576 O 51.2233 0.800703 5.40602 0
M  V30 577 H 48.3173 0.0858893 0.822528 0
M  V30 578 H 50.8633 0.898609 1.43955 0
M  V30 579 H 49.6353 1.78276 3.4833 0
M  V30 580 H 49.2583 0.139307 3.97356 0
M  V30 581 N 50.2554 -1.46986 0.568584 0
M  V30 582 C 51.5044 -2.01646 0.0465894 0
M  V30 583 C 51.8174 -1.44721 -1.31587 0
M  V30 584 O 53.0234 -1.91113 -1.92842 0
M  V30 585 C 51.4794 -3.59885 0.032752 0
M  V30 586 C 51.0874 -4.25804 1.39266 0
M  V30 587 C 52.8314 -4.22255 -0.436038 0
M  V30 588 C 50.7384 -5.76081 1.33732 0
M  V30 589 H 49.6684 -0.753876 0.013647 0
M  V30 590 H 52.3194 -1.68864 0.718131 0
M  V30 591 H 50.7014 -3.8968 -0.704669 0
M  V30 592 H 51.8754 -4.07637 2.1487 0
M  V30 593 H 50.1904 -3.7547 1.80032 0
M  V30 594 H 52.7874 -5.32394 -0.49602 0
M  V30 595 H 53.1304 -3.90212 -1.45053 0
M  V30 596 H 53.6634 -3.97033 0.246877 0
M  V30 597 H 50.4024 -6.12761 2.32817 0
M  V30 598 H 49.9224 -5.96553 0.623267 0
M  V30 599 H 51.6014 -6.38518 1.0442 0
M  V30 600 N 51.7335 -0.305618 -1.54608 0
M  V30 601 C 52.6965 0.555591 -2.22364 0
M  V30 602 C 53.6965 1.05768 -1.21119 0
M  V30 603 O 54.8865 0.952972 -1.45822 0
M  V30 604 C 52.0185 1.76974 -2.91364 0
M  V30 605 H 53.2115 -0.0364572 -2.99878 0
M  V30 606 H 50.7645 -0.0565007 -1.56198 0
M  V30 607 H 51.4995 2.40151 -2.17941 0
M  V30 608 H 51.2845 1.41732 -3.65588 0
M  V30 609 H 52.7745 2.38148 -3.43038 0
M  V30 610 N 53.2116 1.57565 -0.0334293 0
M  V30 611 C 54.1586 2.10478 0.946981 0
M  V30 612 C 55.1286 1.00787 1.32027 0
M  V30 613 O 56.3136 1.28232 1.41284 0
M  V30 614 C 53.4536 2.63994 2.22263 0
M  V30 615 C 52.5666 3.87709 1.90541 0
M  V30 616 C 51.7016 4.29604 3.12433 0
M  V30 617 C 50.7406 5.46065 2.76549 0
M  V30 618 N 49.8776 5.83096 3.9108 0
M  V30 619 H 54.7176 2.93963 0.488846 0
M  V30 620 H 52.2546 1.45296 0.22969 0
M  V30 621 H 54.2126 2.93114 2.96884 0
M  V30 622 H 52.8426 1.83333 2.65685 0
M  V30 623 H 51.8946 3.65291 1.06144 0
M  V30 624 H 53.2066 4.72403 1.60116 0
M  V30 625 H 52.3606 4.60182 3.9537 0
M  V30 626 H 51.0996 3.43685 3.46023 0
M  V30 627 H 50.1046 5.15176 1.92026 0
M  V30 628 H 51.3296 6.33685 2.44171 0
M  V30 629 H 49.2756 5.00132 4.24504 0
M  V30 630 H 49.1926 6.6244 3.64293 0
M  V30 631 H 50.4606 6.18282 4.74708 0
M  V30 632 N 54.6897 -0.239769 1.55765 0
M  V30 633 C 55.9387 -0.964754 1.77131 0
M  V30 634 C 56.2517 -1.86213 0.59868 0
M  V30 635 O 57.4577 -2.6244 0.695522 0
M  V30 636 C 55.9137 -1.76552 3.1362 0
M  V30 637 C 55.5217 -0.915185 4.38553 0
M  V30 638 C 57.2657 -2.48281 3.44321 0
M  V30 639 C 55.1727 -1.71225 5.66071 0
M  V30 640 H 54.1027 -0.363953 0.660344 0
M  V30 641 H 56.7537 -0.219181 1.82186 0
M  V30 642 H 55.1357 -2.55331 3.02691 0
M  V30 643 H 56.3097 -0.169217 4.60489 0
M  V30 644 H 54.6247 -0.310889 4.15238 0
M  V30 645 H 57.2217 -3.08382 4.36812 0
M  V30 646 H 57.5647 -3.20256 2.65973 0
M  V30 647 H 58.0977 -1.76507 3.56497 0
M  V30 648 H 54.8367 -1.03612 6.4726 0
M  V30 649 H 54.3567 -2.43331 5.48224 0
M  V30 650 H 56.0357 -2.27758 6.05587 0
M  V30 651 N 56.1678 -1.49265 -0.50573 0
M  V30 652 C 57.1148 -1.65585 -1.6078 0
M  V30 653 C 58.0848 -0.497396 -1.58478 0
M  V30 654 O 59.2698 -0.72385 -1.76536 0
M  V30 655 C 56.4098 -1.72408 -2.98948 0
M  V30 656 C 55.5228 -2.99525 -3.11301 0
M  V30 657 C 54.6578 -2.97356 -4.40174 0
M  V30 658 C 53.6968 -4.19074 -4.46143 0
M  V30 659 N 52.8338 -4.14841 -5.66437 0
M  V30 660 H 57.6738 -2.59688 -1.46172 0
M  V30 661 H 55.2108 -1.28761 -0.711261 0
M  V30 662 H 57.1688 -1.74344 -3.79025 0
M  V30 663 H 55.7988 -0.817753 -3.1227 0
M  V30 664 H 54.8508 -3.07222 -2.24318 0
M  V30 665 H 56.1628 -3.89518 -3.11572 0
M  V30 666 H 55.3168 -2.97829 -5.28567 0
M  V30 667 H 54.0558 -2.05133 -4.42461 0
M  V30 668 H 53.0608 -4.1885 -3.56153 0
M  V30 669 H 54.2858 -5.12483 -4.45575 0
M  V30 670 H 52.2318 -3.25453 -5.69575 0
M  V30 671 H 52.1488 -4.98564 -5.68304 0
M  V30 672 H 53.4168 -4.1941 -6.57051 0
M  V30 673 N 57.6459 0.756429 -1.3826 0
M  V30 674 C 58.9229 1.50584 -1.24835 0
M  V30 675 C 59.3029 2.10556 0.151485 0
M  V30 676 O 58.6509 1.96825 1.1607 0
M  V30 677 C 58.8609 2.57448 -2.3563 0
M  V30 678 C 60.2089 3.24429 -2.73917 0
M  V30 679 O 61.2329 2.67751 -2.34921 0
M  V30 680 O 60.0919 4.26937 -3.41156 0
M  V30 681 H 57.1859 0.667664 -0.48801 0
M  V30 682 H 59.7319 0.792083 -1.5008 0
M  V30 683 H 58.5039 2.11362 -3.29305 0
M  V30 684 H 58.1269 3.36408 -2.11933 0
M  V30 685 N 59.124 1.23083 0.984299 0
M  V30 686 C 60.354 1.08556 1.75781 0
M  V30 687 C 60.762 -0.366171 1.85623 0
M  V30 688 O 60.105 -1.26524 1.33182 0
M  V30 689 C 60.167 1.63208 3.20318 0
M  V30 690 C 59.831 3.11922 3.33997 0
M  V30 691 C 60.828 4.09259 3.2063 0
M  V30 692 C 58.513 3.51552 3.58771 0
M  V30 693 C 60.507 5.4421 3.31835 0
M  V30 694 C 58.194 4.86649 3.69616 0
M  V30 695 C 59.192 5.82787 3.56157 0
M  V30 696 O 58.88 7.15431 3.66626 0
M  V30 697 H 58.612 0.380713 0.5586 0
M  V30 698 H 61.166 1.63321 1.2456 0
M  V30 699 H 59.396 1.0286 3.72769 0
M  V30 700 H 61.085 1.44216 3.79416 0
M  V30 701 H 61.851 3.79984 3.01392 0
M  V30 702 H 57.73 2.77239 3.6832 0
M  V30 703 H 61.274 6.1923 3.21247 0
M  V30 704 H 57.171 5.15601 3.88363 0
M  V30 705 H 57.939 7.23127 3.83445 0
M  V30 706 N 60.6021 -1.18246 1.0419 0
M  V30 707 C 62.0181 -1.40269 0.761366 0
M  V30 708 C 62.2181 -1.90777 -0.648578 0
M  V30 709 O 61.2741 -2.0929 -1.41258 0
M  V30 710 C 62.5871 -2.40237 1.8085 0
M  V30 711 C 64.1351 -2.53961 1.82955 0
M  V30 712 C 64.6101 -3.57194 2.86664 0
M  V30 713 N 66.1011 -3.64702 2.85563 0
M  V30 714 C 66.8361 -4.44309 3.6246 0
M  V30 715 N 66.3321 -5.27514 4.49111 0
M  V30 716 N 68.1251 -4.39084 3.50944 0
M  V30 717 H 60.2761 -0.837882 1.95175 0
M  V30 718 H 62.5391 -0.430608 0.84456 0
M  V30 719 H 62.2451 -2.10176 2.81991 0
M  V30 720 H 62.1191 -3.39601 1.64168 0
M  V30 721 H 64.5061 -2.83338 0.824855 0
M  V30 722 H 64.5871 -1.54706 2.03715 0
M  V30 723 H 64.2311 -3.28558 3.87314 0
M  V30 724 H 64.1611 -4.5613 2.6316 0
M  V30 725 H 66.6521 -3.05289 2.22727 0
M  V30 726 H 66.9651 -5.85411 5.04493 0
M  V30 727 H 65.3101 -5.2693 4.53178 0
M  V30 728 H 68.5011 -3.7313 2.82651 0
M  V30 729 H 68.6741 -5.00883 4.11121 0
M  V30 730 N 62.0802 -0.821533 -1.34494 0
M  V30 731 C 63.4912 -0.467956 -1.8074 0
M  V30 732 C 63.8422 1.01151 -1.68116 0
M  V30 733 O 62.9672 1.78707 -1.22036 0
M  V30 734 C 63.5622 -0.842627 -3.28154 0
M  V30 735 C 62.1212 -0.541439 -3.72485 0
M  V30 736 C 61.2682 -1.06028 -2.56229 0
M  V30 737 H 64.2192 -1.01183 -1.22261 0
M  V30 738 H 64.2402 -0.145876 -3.8022 0
M  V30 739 H 63.7522 -1.91945 -3.37311 0
M  V30 740 H 61.8532 0.526034 -3.68868 0
M  V30 741 H 61.9662 -1.08453 -4.66663 0
M  V30 742 H 60.3302 -0.481892 -2.501 0
M  V30 743 H 61.1132 -2.14352 -2.68157 0
M  V30 744 N 63.5583 1.46682 -0.576371 0
M  V30 745 C 64.7833 2.07304 -0.0630475 0
M  V30 746 C 65.2083 1.42329 1.2298 0
M  V30 747 O 64.5663 0.504865 1.74129 0
M  V30 748 C 64.6143 3.60472 0.095895 0
M  V30 749 O 63.7183 3.95927 1.15394 0
M  V30 750 H 63.0593 0.661288 -0.0599463 0
M  V30 751 H 65.5893 1.88417 -0.797511 0
M  V30 752 H 65.5993 4.06865 0.304071 0
M  V30 753 H 64.2743 4.07157 -0.84828 0
M  V30 754 H 62.8513 3.61252 0.924724 0
M  V30 755 N 65.0364 0.313813 1.54444 0
M  V30 756 C 66.2824 -0.292108 2.00685 0
M  V30 757 C 66.6154 -1.52548 1.20177 0
M  V30 758 O 65.8904 -1.92452 0.281531 0
M  V30 759 C 66.1734 -0.635968 3.5444 0
M  V30 760 C 66.0264 0.607437 4.4568 0
M  V30 761 C 67.3454 -1.45747 4.15266 0
M  V30 762 H 64.4644 -0.104697 0.729526 0
M  V30 763 H 67.1064 0.428457 1.85106 0
M  V30 764 H 65.2564 -1.24986 3.67846 0
M  V30 765 H 66.9284 1.24581 4.44159 0
M  V30 766 H 65.1714 1.23822 4.15753 0
M  V30 767 H 65.8424 0.322515 5.51057 0
M  V30 768 H 68.3184 -0.938645 4.05375 0
M  V30 769 H 67.1944 -1.66683 5.2298 0
M  V30 770 H 67.4554 -2.45063 3.67963 0
M  V30 771 N 66.5145 -1.57545 0.0417849 0
M  V30 772 C 67.4775 -2.09885 -0.92093 0
M  V30 773 C 68.4775 -1.01648 -1.24596 0
M  V30 774 O 69.6675 -1.27759 -1.1842 0
M  V30 775 C 66.7995 -2.57527 -2.23367 0
M  V30 776 H 67.9925 -2.96236 -0.467382 0
M  V30 777 H 65.5455 -1.5493 -0.206467 0
M  V30 778 H 66.2805 -1.74542 -2.73323 0
M  V30 779 H 66.0655 -3.36613 -2.01083 0
M  V30 780 H 67.5555 -2.98201 -2.92346 0
M  V30 781 N 67.9926 0.231505 -1.5589 0
M  V30 782 C 69.2176 0.978689 -1.82856 0
M  V30 783 C 69.6426 1.77559 -0.620846 0
M  V30 784 O 69.0006 1.76119 0.430305 0
M  V30 785 C 69.0486 1.87997 -3.07716 0
M  V30 786 O 68.1526 2.97393 -2.85712 0
M  V30 787 H 67.4936 0.277663 -0.603158 0
M  V30 788 H 70.0236 0.24783 -2.03093 0
M  V30 789 H 70.0336 2.2917 -3.37558 0
M  V30 790 H 68.7086 1.29417 -3.95252 0
M  V30 791 H 67.2856 2.60238 -2.67078 0
M  V30 792 N 69.4707 1.49531 0.497807 0
M  V30 793 C 70.4027 1.62559 1.61578 0
M  V30 794 C 71.4157 0.508134 1.54667 0
M  V30 795 O 72.6047 0.780309 1.60541 0
M  V30 796 C 69.7047 1.56925 3.00379 0
M  V30 797 C 68.8777 2.84257 3.3244 0
M  V30 798 C 67.9367 2.71632 4.50669 0
M  V30 799 O 66.9627 3.4557 4.52294 0
M  V30 800 N 68.1647 1.83391 5.5077 0
M  V30 801 H 70.9297 2.58981 1.50828 0
M  V30 802 H 68.4907 1.4666 0.685743 0
M  V30 803 H 70.4827 1.46129 3.77397 0
M  V30 804 H 69.0527 0.683483 3.05037 0
M  V30 805 H 68.2727 3.09381 2.44289 0
M  V30 806 H 69.5607 3.68666 3.5066 0
M  V30 807 H 68.9587 1.22583 5.52259 0
M  V30 808 H 67.5157 1.78515 6.26878 0
M  V30 809 N 70.9488 -0.749086 1.3866 0
M  V30 810 C 72.1978 -1.50371 1.3443 0
M  V30 811 C 72.5108 -1.95503 -0.0616397 0
M  V30 812 O 73.7168 -2.70554 -0.226489 0
M  V30 813 C 72.1728 -2.71644 2.36088 0
M  V30 814 C 71.7808 -2.3352 3.82325 0
M  V30 815 C 73.5248 -3.49518 2.40909 0
M  V30 816 C 71.4318 -3.51431 4.75658 0
M  V30 817 H 70.3618 -0.564628 0.499712 0
M  V30 818 H 73.0128 -0.818449 1.64237 0
M  V30 819 H 71.3948 -3.42175 1.9933 0
M  V30 820 H 72.5688 -1.70627 4.28046 0
M  V30 821 H 70.8838 -1.6877 3.80665 0
M  V30 822 H 73.4808 -4.37197 3.07836 0
M  V30 823 H 73.8238 -3.90992 1.42937 0
M  V30 824 H 74.3568 -2.86005 2.76489 0
M  V30 825 H 71.0958 -3.15019 5.74842 0
M  V30 826 H 70.6158 -4.13352 4.34627 0
M  V30 827 H 72.2948 -4.17953 4.93887 0
M  V30 828 N 72.4269 -1.23603 -0.977757 0
M  V30 829 C 73.3569 -1.04401 -2.0886 0
M  V30 830 C 74.3379 0.0399052 -1.70053 0
M  V30 831 O 75.5229 -0.125246 -1.93796 0
M  V30 832 C 72.6529 -0.637269 -3.41403 0
M  V30 833 C 71.6069 -1.66883 -3.94124 0
M  V30 834 C 70.9329 -1.11745 -5.22893 0
M  V30 835 C 72.2329 -3.06247 -4.23096 0
M  V30 836 H 73.9269 -1.97316 -2.25182 0
M  V30 837 H 71.4729 -0.950096 -1.08209 0
M  V30 838 H 73.4259 -0.48998 -4.18542 0
M  V30 839 H 72.1499 0.327557 -3.24953 0
M  V30 840 H 70.8089 -1.80416 -3.19133 0
M  V30 841 H 70.4569 -0.143527 -5.02795 0
M  V30 842 H 70.1569 -1.80672 -5.59134 0
M  V30 843 H 71.6809 -0.982067 -6.02651 0
M  V30 844 H 73.0949 -2.96001 -4.90975 0
M  V30 845 H 71.4919 -3.72436 -4.70544 0
M  V30 846 H 72.5619 -3.55041 -3.30263 0
M  V30 847 N 73.905 1.17692 -1.04816 0
M  V30 848 C 75.182 1.83768 -0.669963 0
M  V30 849 C 75.562 1.93232 0.849986 0
M  V30 850 O 74.91 1.46397 1.75443 0
M  V30 851 C 75.12 3.21641 -1.35455 0
M  V30 852 C 76.468 3.97592 -1.49017 0
M  V30 853 O 77.492 3.31107 -1.31326 0
M  V30 854 O 76.351 5.16729 -1.77914 0
M  V30 855 H 73.445 0.792799 -0.235368 0
M  V30 856 H 75.991 1.25021 -1.14751 0
M  V30 857 H 74.763 3.097 -2.39168 0
M  V30 858 H 74.386 3.88052 -0.866107 0
M  V30 859 N 75.3831 0.828654 1.34056 0
M  V30 860 C 76.7991 0.515135 1.51058 0
M  V30 861 C 76.9991 -0.959581 1.77184 0
M  V30 862 O 76.0551 -1.74382 1.82612 0
M  V30 863 C 77.3681 1.37963 2.67183 0
M  V30 864 C 78.9161 1.37735 2.81066 0
M  V30 865 C 79.3911 2.22645 4.00241 0
M  V30 866 N 80.8821 2.203 4.07458 0
M  V30 867 C 81.6171 2.82744 4.98842 0
M  V30 868 N 81.1131 3.54201 5.9541 0
M  V30 869 N 82.9061 2.72268 4.91759 0
M  V30 870 H 75.0571 1.78343 1.15358 0
M  V30 871 H 77.3201 0.760304 0.566252 0
M  V30 872 H 77.0261 2.42714 2.54525 0
M  V30 873 H 76.9001 1.0484 3.62338 0
M  V30 874 H 79.2871 0.337593 2.93163 0
M  V30 875 H 79.3681 1.74859 1.86703 0
M  V30 876 H 79.0121 3.26674 3.88905 0
M  V30 877 H 78.9421 1.82869 4.93829 0
M  V30 878 H 81.4331 1.68327 3.38341 0
M  V30 879 H 81.7461 3.9908 6.61782 0
M  V30 880 H 80.0911 3.58308 5.95517 0
M  V30 881 H 83.2821 2.16014 4.15278 0
M  V30 882 H 83.4551 3.21219 5.62781 0
M  V30 883 N 76.8612 -1.46375 0.584142 0
M  V30 884 C 77.8082 -2.30323 -0.148286 0
M  V30 885 C 78.7782 -1.40703 -0.882713 0
M  V30 886 O 79.9632 -1.69651 -0.873099 0
M  V30 887 C 77.1032 -3.25196 -1.15507 0
M  V30 888 C 76.2162 -4.29915 -0.423943 0
M  V30 889 C 75.3512 -5.11914 -1.41838 0
M  V30 890 C 74.3902 -6.08381 -0.673736 0
M  V30 891 N 73.5272 -6.83242 -1.6163 0
M  V30 892 H 78.3672 -2.92427 0.573644 0
M  V30 893 H 75.9042 -1.44118 0.294703 0
M  V30 894 H 77.8622 -3.78646 -1.75166 0
M  V30 895 H 76.4922 -2.64898 -1.8447 0
M  V30 896 H 75.5442 -3.7931 0.287714 0
M  V30 897 H 76.8562 -4.98549 0.158128 0
M  V30 898 H 76.0102 -5.69648 -2.08773 0
M  V30 899 H 74.7492 -4.43243 -2.03438 0
M  V30 900 H 73.7542 -5.49799 0.00938483 0
M  V30 901 H 74.9792 -6.79071 -0.0631082 0
M  V30 902 H 72.9252 -6.1728 -2.22038 0
M  V30 903 H 72.8422 -7.48144 -1.08707 0
M  V30 904 H 74.1102 -7.45534 -2.27596 0
M  V30 905 N 78.3393 -0.321999 -1.54275 0
M  V30 906 C 79.5873 0.280489 -2.00144 0
M  V30 907 C 79.9083 1.52777 -1.21178 0
M  V30 908 O 79.1783 1.9338 -0.313187 0
M  V30 909 H 77.7583 0.106632 -0.73935 0
M  V30 910 H 80.4203 -0.438184 -1.8991 0
M  V30 911 H 79.5163 0.537972 -3.07428 0
M  V30 912 N 79.8174 1.5752 -0.0501392 0
M  V30 913 C 81.2334 1.56631 0.306402 0
M  V30 914 C 81.4334 1.0577 1.71508 0
M  V30 915 O 80.4894 0.713837 2.422 0
M  V30 916 C 81.8024 3.00393 0.135811 0
M  V30 917 C 83.3504 3.12315 0.206993 0
M  V30 918 C 83.8254 4.57954 0.064944 0
M  V30 919 N 85.3164 4.63041 0.121254 0
M  V30 920 C 86.0514 5.73389 0.0354381 0
M  V30 921 N 85.5474 6.92724 -0.102666 0
M  V30 922 N 87.3404 5.62026 0.090946 0
M  V30 923 H 79.4914 1.88903 -0.971046 0
M  V30 924 H 81.7544 0.869876 -0.376855 0
M  V30 925 H 81.4604 3.41635 -0.835384 0
M  V30 926 H 81.3344 3.66373 0.897275 0
M  V30 927 H 83.7214 2.70973 1.16866 0
M  V30 928 H 83.8024 2.49016 -0.585208 0
M  V30 929 H 83.4464 4.99981 -0.893394 0
M  V30 930 H 83.3764 5.19258 0.876277 0
M  V30 931 H 85.8674 3.77216 0.227284 0
M  V30 932 H 86.1804 7.72633 -0.160882 0
M  V30 933 H 84.5254 6.94864 -0.137737 0
M  V30 934 H 87.7164 4.67684 0.197388 0
M  V30 935 H 87.8894 6.47997 0.0206089 0
M  V30 936 N 81.2955 -0.223234 1.56011 0
M  V30 937 C 82.2255 -1.27988 1.95298 0
M  V30 938 C 83.2065 -1.48976 0.820979 0
M  V30 939 O 84.3915 -1.61188 1.08315 0
M  V30 940 C 81.5215 -2.63 2.26822 0
M  V30 941 C 80.4755 -2.56671 3.42497 0
M  V30 942 C 79.8015 -3.95697 3.59622 0
M  V30 943 C 81.1015 -2.11601 4.77517 0
M  V30 944 H 82.7955 -0.953525 2.8381 0
M  V30 945 H 80.3415 -0.457244 1.36548 0
M  V30 946 H 82.2945 -3.37077 2.52898 0
M  V30 947 H 81.0185 -2.9732 1.35161 0
M  V30 948 H 79.6775 -1.85051 3.16467 0
M  V30 949 H 79.3255 -4.27322 2.6534 0
M  V30 950 H 79.0255 -3.92345 4.37424 0
M  V30 951 H 80.5495 -4.71438 3.88044 0
M  V30 952 H 81.9635 -2.7542 5.02809 0
M  V30 953 H 80.3605 -2.19311 5.5859 0
M  V30 954 H 81.4305 -1.06824 4.72987 0
M  V30 955 N 82.7736 -1.49793 -0.48987 0
M  V30 956 C 84.0226 -1.59085 -1.23995 0
M  V30 957 C 84.3356 -0.287907 -1.9347 0
M  V30 958 O 85.5416 -0.259506 -2.70257 0
M  V30 959 C 83.9976 -2.80736 -2.252 0
M  V30 960 C 83.6056 -4.17833 -1.61614 0
M  V30 961 C 85.3496 -2.99364 -3.00967 0
M  V30 962 C 83.2566 -5.30693 -2.60996 0
M  V30 963 H 82.1866 -0.592372 -0.466488 0
M  V30 964 H 84.8376 -1.76197 -0.51252 0
M  V30 965 H 83.2196 -2.57142 -3.01154 0
M  V30 966 H 84.3936 -4.51608 -0.915774 0
M  V30 967 H 82.7086 -4.04656 -0.981977 0
M  V30 968 H 85.3056 -3.80851 -3.75308 0
M  V30 969 H 85.6486 -2.10356 -3.59244 0
M  V30 970 H 86.1816 -3.2305 -2.32128 0
M  V30 971 H 82.9206 -6.21796 -2.07485 0
M  V30 972 H 82.4406 -5.01359 -3.2924 0
M  V30 973 H 84.1196 -5.6049 -3.23202 0
M  V30 974 N 84.2517 0.741722 -1.39055 0
M  V30 975 C 85.2147 1.83733 -1.37021 0
M  V30 976 C 86.2147 1.58542 -0.268534 0
M  V30 977 O 87.4047 1.66067 -0.526076 0
M  V30 978 C 84.5367 3.2141 -1.13617 0
M  V30 979 H 85.7297 1.86941 -2.34506 0
M  V30 980 H 83.2827 0.944676 -1.24521 0
M  V30 981 H 84.0177 3.23865 -0.167863 0
M  V30 982 H 83.8027 3.4109 -1.93391 0
M  V30 983 H 85.2927 4.01477 -1.14918 0
M  V30 984 N 85.7298 1.2412 0.971189 0
M  V30 985 C 86.6778 1.02812 2.08644 0
M  V30 986 C 87.6718 -0.0358403 1.69362 0
M  V30 987 O 88.8778 0.118429 1.7961 0
M  V30 988 H 85.2528 0.315428 0.682649 0
M  V30 989 H 87.2238 1.97397 2.23779 0
M  V30 990 C 85.9728 0.645874 3.41649 0
M  V30 991 H 85.2958 1.45632 3.72332 0
M  V30 992 H 86.7358 0.536366 4.20594 0
M  V30 993 C 85.1948 -0.646713 3.30635 0
M  V30 994 O 85.7248 -1.69338 3.64263 0
M  V30 995 N 83.9308 -0.626115 2.83775 0
M  V30 996 H 83.4778 0.225988 2.56607 0
M  V30 997 H 83.4358 -1.49117 2.76788 0
M  V30 998 N 87.2079 -1.17134 1.05439 0
M  V30 999 C 88.4569 -1.86791 0.761049 0
M  V30 1000 C 88.7699 -1.82072 -0.714795 0
M  V30 1001 O 89.9759 -2.47223 -1.12218 0
M  V30 1002 C 88.4319 -3.35166 1.31117 0
M  V30 1003 C 88.0399 -3.48381 2.81664 0
M  V30 1004 C 89.7839 -4.10134 1.09499 0
M  V30 1005 C 87.6909 -4.90793 3.29964 0
M  V30 1006 H 86.6209 -0.699681 0.281002 0
M  V30 1007 H 89.2719 -1.3226 1.27199 0
M  V30 1008 H 87.6539 -3.8925 0.72803 0
M  V30 1009 H 88.8279 -3.04502 3.45855 0
M  V30 1010 H 87.1429 -2.86836 3.01851 0
M  V30 1011 H 89.7399 -5.152 1.43084 0
M  V30 1012 H 90.0829 -4.16287 0.0328772 0
M  V30 1013 H 90.6159 -3.62264 1.64346 0
M  V30 1014 H 87.3549 -4.89816 4.35616 0
M  V30 1015 H 86.8749 -5.35333 2.70516 0
M  V30 1016 H 88.5539 -5.59573 3.24787 0
M  V30 1017 N 88.686 -0.835752 -1.33615 0
M  V30 1018 C 89.916 -0.442701 -2.01801 0
M  V30 1019 C 90.324 0.959807 -1.63047 0
M  V30 1020 O 89.667 1.63468 -0.838088 0
M  V30 1021 C 89.729 -0.480125 -3.56279 0
M  V30 1022 C 89.393 -1.8382 -4.18401 0
M  V30 1023 C 90.39 -2.80097 -4.37998 0
M  V30 1024 C 88.075 -2.13019 -4.54894 0
M  V30 1025 C 90.069 -4.03736 -4.9323 0
M  V30 1026 C 87.756 -3.36916 -5.09834 0
M  V30 1027 C 88.754 -4.32091 -5.28948 0
M  V30 1028 O 88.442 -5.53797 -5.82721 0
M  V30 1029 H 88.174 -0.17441 -0.653114 0
M  V30 1030 H 90.728 -1.129 -1.71589 0
M  V30 1031 H 88.958 0.262931 -3.85805 0
M  V30 1032 H 90.647 -0.105335 -4.05763 0
M  V30 1033 H 91.413 -2.58838 -4.10156 0
M  V30 1034 H 87.292 -1.39733 -4.39313 0
M  V30 1035 H 90.836 -4.78034 -5.08064 0
M  V30 1036 H 86.733 -3.58033 -5.37106 0
M  V30 1037 H 87.501 -5.55494 -6.0114 0
M  V30 1038 N 90.1641 1.46063 -0.591896 0
M  V30 1039 C 91.4411 1.95595 -0.0137119 0
M  V30 1040 C 91.8211 1.5345 1.4497 0
M  V30 1041 O 91.1691 0.789543 2.14426 0
M  V30 1042 C 91.3791 3.48453 -0.195373 0
M  V30 1043 C 92.7271 4.24546 -0.0679765 0
M  V30 1044 O 93.7511 3.55982 -0.124681 0
M  V30 1045 O 92.6101 5.46467 0.0600579 0
M  V30 1046 H 89.7041 0.825795 0.0446279 0
M  V30 1047 H 92.2501 1.56303 -0.660859 0
M  V30 1048 H 91.0221 3.72045 -1.21235 0
M  V30 1049 H 90.6451 3.94597 0.487775 0
M  V30 1050 N 91.6422 0.330177 1.54103 0
M  V30 1051 C 92.5892 -0.532762 2.24567 0
M  V30 1052 C 93.5592 -1.10635 1.23892 0
M  V30 1053 O 94.7442 -1.14546 1.5259 0
M  V30 1054 C 91.8842 -1.6845 3.01195 0
M  V30 1055 C 90.9972 -1.13951 4.167 0
M  V30 1056 C 90.1322 -2.25746 4.80845 0
M  V30 1057 C 89.1712 -1.6853 5.88442 0
M  V30 1058 N 88.3082 -2.74014 6.46421 0
M  V30 1059 H 93.1482 0.0746905 2.97906 0
M  V30 1060 H 90.6852 0.048632 1.4702 0
M  V30 1061 H 92.6432 -2.36234 3.43874 0
M  V30 1062 H 91.2732 -2.26314 2.30178 0
M  V30 1063 H 90.3252 -0.35301 3.78758 0
M  V30 1064 H 91.6372 -0.680892 4.94131 0
M  V30 1065 H 90.7912 -3.01422 5.26526 0
M  V30 1066 H 89.5302 -2.74947 4.0281 0
M  V30 1067 H 88.5352 -0.913543 5.42157 0
M  V30 1068 H 89.7602 -1.20198 6.68378 0
M  V30 1069 H 87.7062 -3.22494 5.71256 0
M  V30 1070 H 87.6232 -2.32735 7.19285 0
M  V30 1071 H 88.8912 -3.49499 6.96757 0
M  V30 1072 N 93.1203 -1.57491 0.0584922 0
M  V30 1073 C 94.0303 -2.15448 -0.928414 0
M  V30 1074 C 95.0463 -1.11416 -1.3365 0
M  V30 1075 O 96.2223 -1.4362 -1.41193 0
M  V30 1076 C 93.2873 -2.69393 -2.18239 0
M  V30 1077 C 92.3483 -3.88249 -1.83196 0
M  V30 1078 C 91.5813 -4.39613 -3.02616 0
M  V30 1079 O 91.8043 -3.90023 -4.16219 0
M  V30 1080 O 90.7383 -5.31111 -2.83204 0
M  V30 1081 H 94.5643 -3.00112 -0.465483 0
M  V30 1082 H 92.1493 -1.48499 -0.163826 0
M  V30 1083 H 94.0313 -3.04026 -2.91798 0
M  V30 1084 H 92.7063 -1.87796 -2.63656 0
M  V30 1085 H 91.6133 -3.58492 -1.06931 0
M  V30 1086 H 92.9463 -4.71098 -1.42573 0
M  V30 1087 N 94.5984 0.214957 -1.56127 0
M  V30 1088 C 95.8454 0.938372 -1.79446 0
M  V30 1089 C 96.1734 1.8407 -0.628378 0
M  V30 1090 O 95.4284 1.91837 0.386925 0
M  V30 1091 C 95.7274 1.80314 -3.0858 0
M  V30 1092 C 95.3934 1.05349 -4.3842 0
M  V30 1093 C 94.0554 0.846435 -4.73697 0
M  V30 1094 C 96.4074 0.524588 -5.18553 0
M  V30 1095 C 93.7354 0.098683 -5.86617 0
M  V30 1096 C 96.0874 -0.209853 -6.32252 0
M  V30 1097 C 94.7514 -0.428102 -6.66126 0
M  V30 1098 H 94.0214 0.343375 -0.656639 0
M  V30 1099 H 96.6684 0.206077 -1.90388 0
M  V30 1100 H 94.9734 2.6035 -2.92789 0
M  V30 1101 H 96.6704 2.36513 -3.23825 0
M  V30 1102 H 93.2604 1.22486 -4.10725 0
M  V30 1103 H 97.4444 0.672008 -4.91729 0
M  V30 1104 H 92.7004 -0.0805753 -6.11347 0
M  V30 1105 H 96.8744 -0.627157 -6.9357 0
M  V30 1106 H 94.5014 -1.00944 -7.53468 0
M  V30 1107 N 96.0765 1.50051 0.48192 0
M  V30 1108 C 97.4925 1.37237 0.814756 0
M  V30 1109 C 97.6925 0.420109 1.97072 0
M  V30 1110 O 96.7485 -0.141246 2.52105 0
M  V30 1111 C 98.0615 2.78375 1.13701 0
M  V30 1112 C 99.6095 2.87213 1.2441 0
M  V30 1113 C 100.084 4.29161 1.59954 0
M  V30 1114 N 101.575 4.32061 1.66967 0
M  V30 1115 C 102.31 5.38879 1.95952 0
M  V30 1116 N 101.806 6.55918 2.23031 0
M  V30 1117 N 103.599 5.26312 1.97363 0
M  V30 1118 H 95.7505 2.10546 -0.28005 0
M  V30 1119 H 98.0135 0.945921 -0.0627454 0
M  V30 1120 H 97.7195 3.49845 0.360787 0
M  V30 1121 H 97.5935 3.14941 2.07586 0
M  V30 1122 H 99.9805 2.15969 2.01101 0
M  V30 1123 H 100.061 2.54204 0.285299 0
M  V30 1124 H 99.7055 5.00938 0.838067 0
M  V30 1125 H 99.6355 4.59648 2.56966 0
M  V30 1126 H 102.126 3.47661 1.48123 0
M  V30 1127 H 102.439 7.33139 2.44391 0
M  V30 1128 H 100.784 6.59112 2.20447 0
M  V30 1129 H 103.975 4.33876 1.75697 0
M  V30 1130 H 104.148 6.09649 2.19618 0
M  V30 1131 N 97.5546 -0.734337 1.39446 0
M  V30 1132 C 98.8016 -1.49391 1.36706 0
M  V30 1133 C 99.1296 -1.94465 -0.0367813 0
M  V30 1134 O 98.3846 -1.67154 -1.01774 0
M  V30 1135 C 98.6836 -2.74711 2.28623 0
M  V30 1136 C 98.3496 -2.48501 3.76242 0
M  V30 1137 C 97.0116 -2.41062 4.16464 0
M  V30 1138 C 99.3636 -2.26098 4.69606 0
M  V30 1139 C 96.6916 -2.09262 5.48112 0
M  V30 1140 C 99.0436 -1.95814 6.01531 0
M  V30 1141 C 97.7076 -1.86845 6.40816 0
M  V30 1142 H 96.9776 -0.546661 0.500243 0
M  V30 1143 H 99.6246 -0.842788 1.71957 0
M  V30 1144 H 97.9296 -3.44569 1.86492 0
M  V30 1145 H 99.6266 -3.32741 2.23796 0
M  V30 1146 H 96.2166 -2.55169 3.44364 0
M  V30 1147 H 100.401 -2.30812 4.39363 0
M  V30 1148 H 95.6566 -2.00841 5.77471 0
M  V30 1149 H 99.8306 -1.77488 6.73403 0
M  V30 1150 H 97.4576 -1.6197 7.42745 0
M  V30 1151 N 99.0327 -1.24633 -0.964593 0
M  V30 1152 C 100.263 -1.11339 -1.74032 0
M  V30 1153 C 100.671 0.336593 -1.86182 0
M  V30 1154 O 100.014 1.24389 -1.35178 0
M  V30 1155 C 100.076 -1.68284 -3.1768 0
M  V30 1156 C 99.7397 -3.17196 -3.28992 0
M  V30 1157 C 100.737 -4.14308 -3.14078 0
M  V30 1158 C 98.4217 -3.57215 -3.53133 0
M  V30 1159 C 100.416 -5.4942 -3.23135 0
M  V30 1160 C 98.1027 -4.92468 -3.61827 0
M  V30 1161 C 99.1007 -5.8838 -3.46841 0
M  V30 1162 O 98.7887 -7.21173 -3.55197 0
M  V30 1163 H 98.5207 -0.389551 -0.552472 0
M  V30 1164 H 101.075 -1.65282 -1.21946 0
M  V30 1165 H 99.3047 -1.08777 -3.71085 0
M  V30 1166 H 100.994 -1.50234 -3.77074 0
M  V30 1167 H 101.76 -3.84731 -2.95308 0
M  V30 1168 H 97.6387 -2.83063 -3.63863 0
M  V30 1169 H 101.183 -6.24263 -3.11355 0
M  V30 1170 H 97.0797 -5.21714 -3.80111 0
M  V30 1171 H 97.8477 -7.29135 -3.71892 0
M  V30 1172 N 100.511 1.16574 -1.06058 0
M  V30 1173 C 101.474 2.19085 -0.673392 0
M  V30 1174 C 102.474 1.5835 0.279648 0
M  V30 1175 O 103.664 1.74088 0.0623488 0
M  V30 1176 C 100.796 3.40899 0.00954234 0
M  V30 1177 H 101.989 2.54853 -1.58081 0
M  V30 1178 H 99.5418 1.30808 -0.855516 0
M  V30 1179 H 100.277 3.10684 0.929826 0
M  V30 1180 H 100.062 3.86233 -0.67573 0
M  V30 1181 H 101.552 4.1675 0.266245 0
M  V30 1182 N 101.989 0.842826 1.3317 0
M  V30 1183 C 103.405 0.531128 1.50503 0
M  V30 1184 C 103.605 -0.940734 1.78192 0
M  V30 1185 O 102.661 -1.72436 1.84451 0
M  V30 1186 C 103.974 1.40789 2.65705 0
M  V30 1187 C 105.522 1.40708 2.79589 0
M  V30 1188 C 105.997 2.26878 3.97857 0
M  V30 1189 N 107.488 2.24609 4.05099 0
M  V30 1190 C 108.223 2.88019 4.95815 0
M  V30 1191 N 107.719 3.60496 5.9162 0
M  V30 1192 N 109.512 2.77469 4.88843 0
M  V30 1193 H 101.663 1.79557 1.1346 0
M  V30 1194 H 103.926 0.766267 0.558156 0
M  V30 1195 H 103.632 2.454 2.51936 0
M  V30 1196 H 103.506 1.08677 3.61205 0
M  V30 1197 H 105.893 0.368668 2.92788 0
M  V30 1198 H 105.974 1.76829 1.84838 0
M  V30 1199 H 105.618 3.3078 3.85418 0
M  V30 1200 H 105.548 1.88096 4.91861 0
M  V30 1201 H 108.039 1.71906 3.36536 0
M  V30 1202 H 108.352 4.06076 6.57512 0
M  V30 1203 H 106.697 3.64604 5.91683 0
M  V30 1204 H 109.888 2.20406 4.12963 0
M  V30 1205 H 110.061 3.2717 5.59342 0
M  V30 1206 N 103.467 -1.45747 0.599634 0
M  V30 1207 C 104.714 -2.02292 0.0917284 0
M  V30 1208 C 105.042 -1.46906 -1.27472 0
M  V30 1209 O 104.297 -0.630652 -1.8526 0
M  V30 1210 C 104.596 -3.57399 -0.00602758 0
M  V30 1211 C 104.262 -4.31902 1.29503 0
M  V30 1212 C 102.924 -4.51974 1.65144 0
M  V30 1213 C 105.276 -4.74551 2.15525 0
M  V30 1214 C 102.604 -5.11949 2.86574 0
M  V30 1215 C 104.956 -5.35868 3.36196 0
M  V30 1216 C 103.62 -5.54165 3.72099 0
M  V30 1217 H 102.89 -0.740239 0.0335658 0
M  V30 1218 H 105.537 -1.7491 0.779661 0
M  V30 1219 H 103.842 -3.84014 -0.777183 0
M  V30 1220 H 105.539 -3.98846 -0.415038 0
M  V30 1221 H 102.129 -4.16588 1.00761 0
M  V30 1222 H 106.313 -4.58784 1.8929 0
M  V30 1223 H 101.569 -5.24305 3.14507 0
M  V30 1224 H 105.743 -5.6787 4.03109 0
M  V30 1225 H 103.37 -6.00406 4.6628 0
M  V30 1226 N 104.945 -0.338344 -1.53925 0
M  V30 1227 C 105.855 0.529421 -2.28548 0
M  V30 1228 C 106.871 1.11645 -1.3346 0
M  V30 1229 O 108.047 1.13325 -1.66492 0
M  V30 1230 C 105.112 1.66713 -3.03987 0
M  V30 1231 C 104.173 1.11041 -4.14691 0
M  V30 1232 C 103.406 2.19389 -4.86522 0
M  V30 1233 O 103.629 3.40013 -4.57982 0
M  V30 1234 O 102.563 1.83976 -5.73094 0
M  V30 1235 H 106.389 -0.0770399 -3.03602 0
M  V30 1236 H 103.974 -0.103555 -1.49041 0
M  V30 1237 H 105.856 2.32918 -3.5118 0
M  V30 1238 H 104.531 2.25949 -2.31794 0
M  V30 1239 H 103.438 0.413024 -3.71813 0
M  V30 1240 H 104.771 0.562975 -4.8897 0
M  V30 1241 N 106.423 1.57458 -0.0668435 0
M  V30 1242 C 107.333 2.15937 0.916975 0
M  V30 1243 C 108.349 1.12123 1.33058 0
M  V30 1244 O 109.525 1.44366 1.40429 0
M  V30 1245 C 106.59 2.70547 2.16807 0
M  V30 1246 C 105.651 3.89215 1.81135 0
M  V30 1247 C 104.884 4.41211 3.0028 0
M  V30 1248 O 105.107 3.92225 4.14144 0
M  V30 1249 O 104.041 5.32605 2.80384 0
M  V30 1250 H 107.867 3.00354 0.449561 0
M  V30 1251 H 105.452 1.48584 0.155949 0
M  V30 1252 H 107.334 3.0557 2.90181 0
M  V30 1253 H 106.009 1.89192 2.62656 0
M  V30 1254 H 104.916 3.59054 1.05028 0
M  V30 1255 H 106.249 4.71848 1.40073 0
M  V30 1256 N 107.901 -0.206675 1.56239 0
M  V30 1257 C 109.15 -0.926964 1.79138 0
M  V30 1258 C 109.463 -1.84901 0.638043 0
M  V30 1259 O 110.669 -2.60906 0.751033 0
M  V30 1260 C 109.125 -1.6986 3.17294 0
M  V30 1261 C 108.733 -0.821956 4.40395 0
M  V30 1262 C 110.477 -2.40922 3.4951 0
M  V30 1263 C 108.384 -1.59179 5.69575 0
M  V30 1264 H 107.314 -0.349864 0.667915 0
M  V30 1265 H 109.965 -0.180487 1.8261 0
M  V30 1266 H 108.347 -2.48853 3.08039 0
M  V30 1267 H 109.521 -0.0715019 4.60745 0
M  V30 1268 H 107.836 -0.222741 4.15804 0
M  V30 1269 H 110.433 -2.99047 4.43255 0
M  V30 1270 H 110.776 -3.14542 2.72707 0
M  V30 1271 H 111.309 -1.68905 3.60161 0
M  V30 1272 H 108.048 -0.898589 6.49312 0
M  V30 1273 H 107.568 -2.31648 5.53262 0
M  V30 1274 H 109.247 -2.14862 6.10281 0
M  V30 1275 N 109.379 -1.50304 -0.473955 0
M  V30 1276 C 110.79 -1.54042 -1.0549 0
M  V30 1277 C 111.141 -0.342248 -1.93192 0
M  V30 1278 O 110.266 0.545157 -2.09421 0
M  V30 1279 C 110.861 -2.79152 -1.91989 0
M  V30 1280 C 109.42 -2.8558 -2.45196 0
M  V30 1281 C 108.567 -2.48295 -1.2347 0
M  V30 1282 H 111.518 -1.5661 -0.256693 0
M  V30 1283 H 111.539 -2.60845 -2.7702 0
M  V30 1284 H 111.051 -3.66339 -1.28131 0
M  V30 1285 H 109.152 -2.02738 -3.12615 0
M  V30 1286 H 109.265 -3.88403 -2.80499 0
M  V30 1287 H 107.629 -2.00669 -1.56856 0
M  V30 1288 H 108.412 -3.37787 -0.612789 0
M  V30 1289 N 110.857 0.726932 -1.39834 0
M  V30 1290 C 112.268 1.30558 -1.3346 0
M  V30 1291 C 112.619 1.962 -0.00273003 0
M  V30 1292 O 111.744 1.96826 0.899371 0
M  V30 1293 C 112.339 2.37404 -2.41713 0
M  V30 1294 C 110.898 2.90921 -2.38835 0
M  V30 1295 C 110.045 1.64578 -2.2318 0
M  V30 1296 H 112.996 0.523862 -1.49804 0
M  V30 1297 H 113.017 3.17984 -2.08966 0
M  V30 1298 H 112.529 1.89599 -3.38635 0
M  V30 1299 H 110.63 3.42985 -1.45575 0
M  V30 1300 H 110.743 3.43487 -3.33997 0
M  V30 1301 H 109.107 1.89219 -1.70494 0
M  V30 1302 H 109.89 1.18814 -3.22084 0
M  V30 1303 N 112.336 1.25143 0.95797 0
M  V30 1304 C 113.752 1.01892 1.22842 0
M  V30 1305 C 113.952 -0.266311 1.99732 0
M  V30 1306 O 113.008 -0.979913 2.3271 0
M  V30 1307 C 114.321 2.24004 2.00606 0
M  V30 1308 C 115.869 2.28731 2.13662 0
M  V30 1309 C 116.344 3.5049 2.94823 0
M  V30 1310 N 117.835 3.50866 3.02403 0
M  V30 1311 C 118.57 4.4174 3.65586 0
M  V30 1312 N 118.066 5.42882 4.30408 0
M  V30 1313 N 119.859 4.29429 3.62694 0
M  V30 1314 H 112.01 2.07718 0.443493 0
M  V30 1315 H 114.273 0.912031 0.258657 0
M  V30 1316 H 113.979 3.17395 1.51503 0
M  V30 1317 H 113.853 2.26907 3.01319 0
M  V30 1318 H 116.24 1.35865 2.61963 0
M  V30 1319 H 116.321 2.29848 1.12265 0
M  V30 1320 H 115.965 4.43676 2.47213 0
M  V30 1321 H 115.895 3.46617 3.96439 0
M  V30 1322 H 118.386 2.777 2.56302 0
M  V30 1323 H 118.699 6.0844 4.76467 0
M  V30 1324 H 117.044 5.46758 4.29047 0
M  V30 1325 H 120.235 3.49643 3.11236 0
M  V30 1326 H 120.408 5.00448 4.1165 0
M  V30 1327 N 113.814 -1.1601 1.06675 0
M  V30 1328 C 115.061 -1.86633 0.785781 0
M  V30 1329 C 115.389 -1.81929 -0.687896 0
M  V30 1330 O 114.644 -1.23253 -1.52011 0
M  V30 1331 C 114.943 -3.35547 1.23057 0
M  V30 1332 C 114.609 -3.60448 2.70902 0
M  V30 1333 C 113.271 -3.66954 3.11285 0
M  V30 1334 C 115.623 -3.7071 3.66365 0
M  V30 1335 C 112.951 -3.81225 4.45965 0
M  V30 1336 C 115.303 -3.86503 5.00797 0
M  V30 1337 C 113.967 -3.91252 5.40813 0
M  V30 1338 H 113.237 -0.682937 0.287538 0
M  V30 1339 H 115.884 -1.37146 1.33654 0
M  V30 1340 H 114.189 -3.87193 0.59907 0
M  V30 1341 H 115.886 -3.88583 0.990163 0
M  V30 1342 H 112.476 -3.56021 2.38636 0
M  V30 1343 H 116.66 -3.64991 3.36296 0
M  V30 1344 H 111.916 -3.83155 4.76447 0
M  V30 1345 H 116.09 -3.93385 5.74649 0
M  V30 1346 H 113.717 -4.02062 6.45174 0
M  V30 1347 N 115.292 -0.849877 -1.32721 0
M  V30 1348 C 116.541 -0.447175 -1.96681 0
M  V30 1349 C 116.854 1.00135 -1.68025 0
M  V30 1350 O 118.06 1.50926 -2.25685 0
M  V30 1351 C 116.516 -0.7487 -3.52026 0
M  V30 1352 C 116.124 -2.21264 -3.89546 0
M  V30 1353 C 117.868 -0.413487 -4.22481 0
M  V30 1354 C 115.775 -2.45763 -5.37917 0
M  V30 1355 H 114.705 -0.163486 -0.736063 0
M  V30 1356 H 117.356 -1.03999 -1.51183 0
M  V30 1357 H 115.738 -0.0853727 -3.95908 0
M  V30 1358 H 116.912 -2.91736 -3.56689 0
M  V30 1359 H 115.227 -2.5119 -3.32103 0
M  V30 1360 H 117.824 -0.574017 -5.3161 0
M  V30 1361 H 118.167 0.644492 -4.11281 0
M  V30 1362 H 118.7 -1.03251 -3.84167 0
M  V30 1363 H 115.439 -3.50168 -5.54132 0
M  V30 1364 H 114.959 -1.79864 -5.72197 0
M  V30 1365 H 116.638 -2.29471 -6.0494 0
M  V30 1366 N 116.77 1.45427 -0.607355 0
M  V30 1367 C 117.68 2.34325 0.113463 0
M  V30 1368 C 118.696 1.51226 0.860617 0
M  V30 1369 O 119.872 1.84029 0.818255 0
M  V30 1370 C 116.937 3.28839 1.09844 0
M  V30 1371 C 115.998 4.27844 0.353271 0
M  V30 1372 C 115.231 5.17842 1.29133 0
M  V30 1373 O 115.454 5.11264 2.52913 0
M  V30 1374 O 114.388 5.96713 0.788523 0
M  V30 1375 H 118.214 2.97364 -0.617094 0
M  V30 1376 H 115.799 1.44807 -0.367619 0
M  V30 1377 H 117.681 3.8708 1.66575 0
M  V30 1378 H 116.356 2.68365 1.81003 0
M  V30 1379 H 115.263 3.7322 -0.256494 0
M  V30 1380 H 116.596 4.91173 -0.317822 0
M  V30 1381 N 118.248 0.346503 1.53744 0
M  V30 1382 C 119.473 -0.253074 2.0585 0
M  V30 1383 C 119.898 -1.43202 1.21962 0
M  V30 1384 O 119.256 -1.79783 0.234073 0
M  V30 1385 C 119.304 -0.643193 3.54817 0
M  V30 1386 O 118.408 -1.74286 3.73762 0
M  V30 1387 H 117.749 -0.0413583 0.662711 0
M  V30 1388 H 120.279 0.501574 1.98357 0
M  V30 1389 H 120.289 -0.919526 3.97503 0
M  V30 1390 H 118.964 0.218966 4.15323 0
M  V30 1391 H 117.541 -1.46356 3.42979 0
M  V30 1392 N 119.726 -1.57421 0.075193 0
M  V30 1393 C 120.656 -2.15942 -0.888324 0
M  V30 1394 C 121.637 -1.08737 -1.30806 0
M  V30 1395 O 122.822 -1.36787 -1.37851 0
M  V30 1396 C 119.952 -2.72379 -2.1547 0
M  V30 1397 C 118.906 -3.8478 -1.87425 0
M  V30 1398 C 118.232 -4.27834 -3.20721 0
M  V30 1399 C 119.532 -5.08869 -1.17684 0
M  V30 1400 H 121.226 -2.96705 -0.400799 0
M  V30 1401 H 118.772 -1.42723 -0.191342 0
M  V30 1402 H 120.725 -3.11965 -2.83295 0
M  V30 1403 H 119.449 -1.88841 -2.6647 0
M  V30 1404 H 118.108 -3.45703 -1.22004 0
M  V30 1405 H 117.756 -3.41214 -3.6957 0
M  V30 1406 H 117.456 -5.03605 -3.02746 0
M  V30 1407 H 118.98 -4.70039 -3.89738 0
M  V30 1408 H 120.394 -5.4575 -1.75584 0
M  V30 1409 H 118.791 -5.8994 -1.09956 0
M  V30 1410 H 119.861 -4.84648 -0.156453 0
M  V30 1411 N 121.204 0.198386 -1.56346 0
M  V30 1412 C 122.134 1.24865 -1.9731 0
M  V30 1413 C 123.115 1.47651 -0.844576 0
M  V30 1414 O 124.3 1.59444 -1.10866 0
M  V30 1415 C 121.43 2.59358 -2.30977 0
M  V30 1416 C 120.384 2.5119 -3.46537 0
M  V30 1417 C 119.71 3.89926 -3.65871 0
M  V30 1418 C 121.01 2.03977 -4.80823 0
M  V30 1419 H 122.704 0.908252 -2.85291 0
M  V30 1420 H 120.25 0.435462 -1.37258 0
M  V30 1421 H 122.203 3.33011 -2.58228 0
M  V30 1422 H 120.927 2.95132 -1.39874 0
M  V30 1423 H 119.586 1.79993 -3.19371 0
M  V30 1424 H 119.234 4.23046 -2.72105 0
M  V30 1425 H 118.934 3.85336 -4.4361 0
M  V30 1426 H 120.458 4.65205 -3.95495 0
M  V30 1427 H 121.872 2.67386 -5.07127 0
M  V30 1428 H 120.269 2.10397 -5.62008 0
M  V30 1429 H 121.339 0.992861 -4.74626 0
M  V30 1430 N 122.682 1.50554 0.465978 0
M  V30 1431 C 123.645 1.69233 1.54574 0
M  V30 1432 C 124.645 0.562901 1.50626 0
M  V30 1433 O 125.835 0.830016 1.53155 0
M  V30 1434 C 122.967 1.7223 2.94193 0
M  V30 1435 H 124.16 2.65571 1.39327 0
M  V30 1436 H 121.713 1.40111 0.692711 0
M  V30 1437 H 122.448 0.77603 3.14878 0
M  V30 1438 H 122.233 2.54285 2.98466 0
M  V30 1439 H 123.723 1.88618 3.72576 0
M  V30 1440 N 124.16 -0.719506 1.40217 0
M  V30 1441 C 125.406 -1.48152 1.38488 0
M  V30 1442 C 125.739 -1.94195 -0.0141867 0
M  V30 1443 O 125.014 -1.67884 -0.982096 0
M  V30 1444 C 125.297 -2.71035 2.37091 0
M  V30 1445 C 125.15 -2.30912 3.86005 0
M  V30 1446 C 126.469 -3.73182 2.33288 0
M  V30 1447 H 123.588 -0.537395 0.504357 0
M  V30 1448 H 126.23 -0.821472 1.71324 0
M  V30 1449 H 124.38 -3.27352 2.0922 0
M  V30 1450 H 126.052 -1.80107 4.24687 0
M  V30 1451 H 124.295 -1.62958 4.02029 0
M  V30 1452 H 124.966 -3.18978 4.50508 0
M  V30 1453 H 127.442 -3.26485 2.57966 0
M  V30 1454 H 126.318 -4.56806 3.04334 0
M  V30 1455 H 126.579 -4.21202 1.34317 0
M  V30 1456 N 125.638 -1.25649 -0.95132 0
M  V30 1457 C 126.548 -1.08073 -2.08224 0
M  V30 1458 C 127.564 -0.0169666 -1.73992 0
M  V30 1459 O 128.74 -0.218593 -2.0021 0
M  V30 1460 C 125.805 -0.704922 -3.39458 0
M  V30 1461 C 124.866 -1.84699 -3.87537 0
M  V30 1462 C 124.099 -1.48902 -5.12508 0
M  V30 1463 O 124.322 -0.386156 -5.69091 0
M  V30 1464 O 123.256 -2.32033 -5.55378 0
M  V30 1465 H 127.082 -2.02924 -2.25954 0
M  V30 1466 H 124.667 -1.04618 -1.06656 0
M  V30 1467 H 126.549 -0.507609 -4.18332 0
M  V30 1468 H 125.224 0.214291 -3.2299 0
M  V30 1469 H 124.131 -2.09919 -3.09653 0
M  V30 1470 H 125.464 -2.74557 -4.08509 0
M  V30 1471 N 127.117 1.15442 -1.07289 0
M  V30 1472 C 128.394 1.82306 -0.708792 0
M  V30 1473 C 128.774 1.94991 0.808807 0
M  V30 1474 O 128.122 1.50085 1.72298 0
M  V30 1475 C 128.332 3.18695 -1.42247 0
M  V30 1476 C 129.68 3.94341 -1.57417 0
M  V30 1477 O 130.704 3.28247 -1.38319 0
M  V30 1478 O 129.563 5.12839 -1.88834 0
M  V30 1479 H 126.657 0.787628 -0.252132 0
M  V30 1480 H 129.203 1.22559 -1.17377 0
M  V30 1481 H 127.975 3.04557 -2.45684 0
M  V30 1482 H 127.598 3.86128 -0.948223 0
M  V30 1483 N 128.595 0.856903 1.32268 0
M  V30 1484 C 129.823 0.475439 2.01363 0
M  V30 1485 C 130.238 -0.928486 1.64392 0
M  V30 1486 O 129.595 -1.60624 0.866387 0
M  V30 1487 C 129.646 0.607545 3.56358 0
M  V30 1488 O 129.367 1.95617 3.92002 0
M  V30 1489 C 130.868 0.225382 4.42727 0
M  V30 1490 H 128.088 0.186636 0.644521 0
M  V30 1491 H 130.632 1.15446 1.68797 0
M  V30 1492 H 128.787 -0.0237719 3.87393 0
M  V30 1493 H 129.201 1.95455 4.86721 0
M  V30 1494 H 130.675 0.368813 5.50767 0
M  V30 1495 H 131.152 -0.834369 4.31202 0
M  V30 1496 H 131.758 0.831864 4.17085 0
M  V30 1497 N 130.073 -1.45103 0.615059 0
M  V30 1498 C 131.003 -2.33339 -0.0865619 0
M  V30 1499 C 131.984 -1.4727 -0.851209 0
M  V30 1500 O 133.169 -1.76026 -0.820281 0
M  V30 1501 C 130.299 -3.30095 -1.07956 0
M  V30 1502 C 129.253 -4.25858 -0.427628 0
M  V30 1503 C 128.579 -5.12361 -1.5294 0
M  V30 1504 C 129.879 -5.18165 0.655944 0
M  V30 1505 H 131.573 -2.92254 0.650224 0
M  V30 1506 H 129.119 -1.40532 0.314138 0
M  V30 1507 H 131.072 -3.90698 -1.57901 0
M  V30 1508 H 129.796 -2.69355 -1.84703 0
M  V30 1509 H 128.455 -3.66564 0.0510292 0
M  V30 1510 H 128.103 -4.47984 -2.28734 0
M  V30 1511 H 127.803 -5.77238 -1.09865 0
M  V30 1512 H 129.327 -5.75833 -2.03098 0
M  V30 1513 H 130.741 -5.72796 0.240257 0
M  V30 1514 H 129.138 -5.91559 1.00888 0
M  V30 1515 H 130.208 -4.60144 1.52957 0
M  V30 1516 N 131.551 -0.354651 -1.53558 0
M  V30 1517 C 132.798 0.238443 -2.01091 0
M  V30 1518 C 133.126 1.49663 -1.24222 0
M  V30 1519 O 132.381 1.93049 -0.321003 0
M  V30 1520 C 132.68 0.587121 -3.52545 0
M  V30 1521 C 132.346 -0.575472 -4.47213 0
M  V30 1522 C 131.008 -0.894497 -4.72813 0
M  V30 1523 C 133.36 -1.35489 -5.03281 0
M  V30 1524 C 130.688 -1.99511 -5.51736 0
M  V30 1525 C 133.04 -2.44583 -5.83405 0
M  V30 1526 C 131.704 -2.77033 -6.07296 0
M  V30 1527 H 130.974 0.0872526 -0.735845 0
M  V30 1528 H 133.621 -0.484859 -1.8526 0
M  V30 1529 H 131.926 1.39129 -3.66265 0
M  V30 1530 H 133.623 1.05809 -3.86789 0
M  V30 1531 H 130.213 -0.316774 -4.27428 0
M  V30 1532 H 134.397 -1.12167 -4.83459 0
M  V30 1533 H 129.653 -2.25063 -5.68469 0
M  V30 1534 H 133.827 -3.05401 -6.25862 0
M  V30 1535 H 131.454 -3.6244 -6.68237 0
M  V30 1536 N 133.029 1.57378 -0.0835403 0
M  V30 1537 C 134.276 1.9393 0.58287 0
M  V30 1538 C 134.604 0.964455 1.68904 0
M  V30 1539 O 133.859 -0.0179474 1.95692 0
M  V30 1540 C 134.158 3.37063 1.1884 0
M  V30 1541 C 133.824 4.50424 0.207194 0
M  V30 1542 C 132.486 4.81159 -0.0627115 0
M  V30 1543 C 134.838 5.19136 -0.463426 0
M  V30 1544 C 132.166 5.77939 -1.01012 0
M  V30 1545 C 134.518 6.16931 -1.39924 0
M  V30 1546 C 133.182 6.46078 -1.67749 0
M  V30 1547 H 132.452 0.70964 0.213287 0
M  V30 1548 H 135.099 1.90856 -0.156916 0
M  V30 1549 H 133.404 3.3666 2.00418 0
M  V30 1550 H 135.101 3.6264 1.71153 0
M  V30 1551 H 131.691 4.2646 0.427747 0
M  V30 1552 H 135.875 4.95576 -0.268034 0
M  V30 1553 H 131.131 5.98842 -1.23283 0
M  V30 1554 H 135.305 6.69273 -1.92476 0
M  V30 1555 H 132.932 7.2088 -2.41321 0
M  V30 1556 N 134.507 -0.190092 1.56449 0
M  V30 1557 C 135.417 -1.25591 1.98152 0
M  V30 1558 C 136.433 -1.49519 0.889944 0
M  V30 1559 O 137.609 -1.62036 1.19609 0
M  V30 1560 C 134.674 -2.57916 2.3169 0
M  V30 1561 C 133.735 -2.42015 3.5458 0
M  V30 1562 C 132.968 -3.6803 3.8651 0
M  V30 1563 O 133.191 -4.72413 3.1966 0
M  V30 1564 O 132.125 -3.6326 4.79923 0
M  V30 1565 H 135.951 -0.931988 2.89046 0
M  V30 1566 H 133.536 -0.395488 1.4407 0
M  V30 1567 H 135.418 -3.36008 2.54316 0
M  V30 1568 H 134.093 -2.89925 1.43963 0
M  V30 1569 H 133 -1.62017 3.37196 0
M  V30 1570 H 134.333 -2.14937 4.4279 0
M  V30 1571 N 135.985 -1.50799 -0.457987 0
M  V30 1572 C 136.935 -1.67003 -1.55222 0
M  V30 1573 C 137.919 -0.52434 -1.52117 0
M  V30 1574 O 139.111 -0.779345 -1.58919 0
M  V30 1575 C 136.24 -1.77956 -2.93576 0
M  V30 1576 C 135.326 -2.98243 -3.01516 0
M  V30 1577 N 135.717 -4.21732 -2.79241 0
M  V30 1578 C 134.015 -2.97072 -3.32662 0
M  V30 1579 C 134.716 -5.02817 -2.92489 0
M  V30 1580 N 133.692 -4.37038 -3.23262 0
M  V30 1581 H 137.494 -2.60163 -1.36721 0
M  V30 1582 H 135.008 -1.48163 -0.664952 0
M  V30 1583 H 137.005 -1.87671 -3.72271 0
M  V30 1584 H 135.665 -0.859634 -3.13114 0
M  V30 1585 H 136.676 -4.51016 -2.54567 0
M  V30 1586 H 133.353 -2.14631 -3.58106 0
M  V30 1587 H 134.743 -6.11054 -2.79396 0
M  V30 1588 N 137.463 0.71206 -1.40597 0
M  V30 1589 C 138.711 1.46907 -1.38791 0
M  V30 1590 C 139.032 1.94998 0.00780391 0
M  V30 1591 O 138.302 1.70587 0.963174 0
M  V30 1592 H 136.882 0.545043 -0.51082 0
M  V30 1593 H 139.544 0.843882 -1.75683 0
M  V30 1594 H 138.64 2.34021 -2.06496 0
M  V30 1595 N 138.941 1.26152 0.944643 0
M  V30 1596 C 140.189 1.11271 1.6871 0
M  V30 1597 C 140.51 -0.345166 1.91921 0
M  V30 1598 O 139.78 -1.24387 1.51343 0
M  V30 1599 H 138.36 0.408783 0.625224 0
M  V30 1600 H 141.022 1.58427 1.1352 0
M  V30 1601 H 140.118 1.62879 2.66227 0
M  V30 1602 N 140.419 -1.14872 1.07899 0
M  V30 1603 C 141.668 -1.85135 0.800499 0
M  V30 1604 C 141.981 -1.83547 -0.676014 0
M  V30 1605 O 143.187 -2.49548 -1.06948 0
M  V30 1606 C 141.643 -3.3231 1.38197 0
M  V30 1607 C 141.251 -3.42329 2.8899 0
M  V30 1608 C 142.995 -4.0772 1.18174 0
M  V30 1609 C 140.902 -4.83684 3.403 0
M  V30 1610 H 139.832 -0.693563 0.29578 0
M  V30 1611 H 142.483 -1.29532 1.29976 0
M  V30 1612 H 140.865 -3.87618 0.810431 0
M  V30 1613 H 142.039 -2.97097 3.52236 0
M  V30 1614 H 140.354 -2.80369 3.07867 0
M  V30 1615 H 142.951 -5.12049 1.5398 0
M  V30 1616 H 143.294 -4.16124 0.12117 0
M  V30 1617 H 143.827 -3.58696 1.71994 0
M  V30 1618 H 140.566 -4.80465 4.45907 0
M  V30 1619 H 140.086 -5.29474 2.81811 0
M  V30 1620 H 141.765 -5.52558 3.36584 0
M  V30 1621 N 141.898 -0.863906 -1.31812 0
M  V30 1622 C 142.846 -0.30422 -2.30602 0
M  V30 1623 C 143.84 0.577419 -1.59255 0
M  V30 1624 O 145.046 0.464194 -1.73912 0
M  V30 1625 H 141.421 -0.0796877 -0.747766 0
M  V30 1626 H 143.392 -1.15148 -2.75288 0
M  V30 1627 C 142.141 0.484617 -3.44306 0
M  V30 1628 H 141.464 -0.18451 -3.99374 0
M  V30 1629 H 142.904 0.841664 -4.15562 0
M  V30 1630 C 141.363 1.6735 -2.92396 0
M  V30 1631 O 141.893 2.77273 -2.90659 0
M  V30 1632 N 140.099 1.50362 -2.48676 0
M  V30 1633 H 139.646 0.609402 -2.50288 0
M  V30 1634 H 139.604 2.30051 -2.14299 0
M  V30 1635 N 143.376 1.44774 -0.622745 0
M  V30 1636 C 144.306 2.33382 0.0741861 0
M  V30 1637 C 145.287 1.47719 0.843387 0
M  V30 1638 O 146.472 1.76458 0.810934 0
M  V30 1639 C 143.602 3.30663 1.06204 0
M  V30 1640 C 142.556 4.26079 0.405037 0
M  V30 1641 C 141.882 5.13165 1.5022 0
M  V30 1642 C 143.182 5.1781 -0.683414 0
M  V30 1643 H 144.876 2.91905 -0.665713 0
M  V30 1644 H 142.422 1.40363 -0.321587 0
M  V30 1645 H 144.375 3.9153 1.55827 0
M  V30 1646 H 143.099 2.70331 1.83272 0
M  V30 1647 H 141.758 3.66532 -0.0704683 0
M  V30 1648 H 141.406 4.49191 2.26355 0
M  V30 1649 H 141.106 5.77812 1.06803 0
M  V30 1650 H 142.63 5.76902 2.00041 0
M  V30 1651 H 144.044 5.72661 -0.270631 0
M  V30 1652 H 142.441 5.91015 -1.04023 0
M  V30 1653 H 143.511 4.59326 -1.55395 0
M  V30 1654 N 144.854 0.36279 1.53368 0
M  V30 1655 C 146.131 -0.284021 1.93527 0
M  V30 1656 C 146.511 -1.66628 1.29608 0
M  V30 1657 O 145.859 -2.23942 0.45413 0
M  V30 1658 C 146.069 -0.337028 3.47369 0
M  V30 1659 C 147.417 -0.578708 4.20638 0
M  V30 1660 O 148.441 -0.418352 3.53735 0
M  V30 1661 O 147.3 -0.89074 5.39192 0
M  V30 1662 H 144.394 -0.169743 0.809393 0
M  V30 1663 H 146.94 0.41537 1.64538 0
M  V30 1664 H 145.712 0.632217 3.86159 0
M  V30 1665 H 145.335 -1.08243 3.82582 0
M  V30 1666 N 146.332 -1.57332 0.0918853 0
M  V30 1667 C 147.295 -2.12708 -0.85369 0
M  V30 1668 C 148.295 -1.05561 -1.213 0
M  V30 1669 O 149.485 -1.31461 -1.14296 0
M  V30 1670 C 146.617 -2.64503 -2.15061 0
M  V30 1671 H 147.81 -2.97573 -0.3729 0
M  V30 1672 H 145.363 -1.55509 -0.157072 0
M  V30 1673 H 146.098 -1.83149 -2.67632 0
M  V30 1674 H 145.883 -3.4284 -1.90272 0
M  V30 1675 H 147.373 -3.07351 -2.82711 0
M  V30 1676 N 147.81 0.181792 -1.56548 0
M  V30 1677 C 149.059 0.898348 -1.8059 0
M  V30 1678 C 149.372 1.83862 -0.667379 0
M  V30 1679 O 150.578 2.59678 -0.792446 0
M  V30 1680 C 149.034 1.64791 -3.19956 0
M  V30 1681 C 148.642 0.751789 -4.41647 0
M  V30 1682 C 150.386 2.35331 -3.53298 0
M  V30 1683 C 148.293 1.50098 -5.72035 0
M  V30 1684 H 147.223 0.339194 -0.673397 0
M  V30 1685 H 149.874 0.151413 -1.82874 0
M  V30 1686 H 148.256 2.43921 -3.11959 0
M  V30 1687 H 149.43 -0.0018076 -4.608 0
M  V30 1688 H 147.745 0.156562 -4.16106 0
M  V30 1689 H 150.342 2.91958 -4.47956 0
M  V30 1690 H 150.685 3.10164 -2.77676 0
M  V30 1691 H 151.218 1.63154 -3.62803 0
M  V30 1692 H 147.957 0.795175 -6.50659 0
M  V30 1693 H 147.477 2.22817 -5.56878 0
M  V30 1694 H 149.156 2.05125 -6.13622 0
M  V30 1695 N 149.288 1.51039 0.449983 0
M  V30 1696 C 150.221 1.66105 1.56474 0
M  V30 1697 C 151.199 0.508776 1.54435 0
M  V30 1698 O 152.383 0.731005 1.73749 0
M  V30 1699 C 149.51 1.66304 2.9506 0
M  V30 1700 C 148.556 2.87346 3.15174 0
M  V30 1701 S 149.389 4.4835 2.92818 0
M  V30 1702 C 150.545 4.51274 4.33708 0
M  V30 1703 H 150.778 2.60397 1.43459 0
M  V30 1704 H 148.311 1.40565 0.638805 0
M  V30 1705 H 150.269 1.67103 3.74949 0
M  V30 1706 H 148.93 0.732108 3.05449 0
M  V30 1707 H 148.123 2.83849 4.16468 0
M  V30 1708 H 147.725 2.84223 2.43091 0
M  V30 1709 H 150.017 4.26136 5.26701 0
M  V30 1710 H 150.96 5.53017 4.42242 0
M  V30 1711 H 151.368 3.80738 4.16772 0
M  V30 1712 N 150.766 -0.704594 1.40972 0
M  V30 1713 C 152.182 -1.01406 1.23244 0
M  V30 1714 C 152.382 -2.01169 0.115399 0
M  V30 1715 O 151.438 -2.47021 -0.523147 0
M  V30 1716 C 152.751 -1.54728 2.57836 0
M  V30 1717 C 154.299 -1.66658 2.64942 0
M  V30 1718 C 154.774 -2.23383 3.9983 0
M  V30 1719 N 156.265 -2.30756 4.01629 0
M  V30 1720 C 157 -2.75655 5.02794 0
M  V30 1721 N 156.496 -3.20225 6.14352 0
M  V30 1722 N 158.289 -2.75138 4.90159 0
M  V30 1723 H 150.44 -0.0435285 2.12355 0
M  V30 1724 H 152.703 -0.0818951 0.944456 0
M  V30 1725 H 152.409 -0.888832 3.40283 0
M  V30 1726 H 152.283 -2.53084 2.79693 0
M  V30 1727 H 154.67 -2.31617 1.8286 0
M  V30 1728 H 154.751 -0.668717 2.46904 0
M  V30 1729 H 154.395 -1.59043 4.82357 0
M  V30 1730 H 154.325 -3.23904 4.15203 0
M  V30 1731 H 156.816 -1.99291 3.21079 0
M  V30 1732 H 157.129 -3.53084 6.87424 0
M  V30 1733 H 155.474 -3.18156 6.17901 0
M  V30 1734 H 158.665 -2.39661 4.02095 0
M  V30 1735 H 158.838 -3.09812 5.6914 0
M  V30 1736 N 152.244 -1.26651 -0.937939 0
M  V30 1737 C 153.207 -1.08546 -2.01867 0
M  V30 1738 C 154.207 -0.0327327 -1.60767 0
M  V30 1739 O 155.397 -0.276427 -1.71993 0
M  V30 1740 C 152.529 -0.651711 -3.34613 0
M  V30 1741 H 153.722 -2.04502 -2.1936 0
M  V30 1742 H 151.275 -1.09294 -1.11734 0
M  V30 1743 H 152.01 0.309696 -3.22818 0
M  V30 1744 H 151.795 -1.41189 -3.65798 0
M  V30 1745 H 153.285 -0.546973 -4.14002 0
M  V30 1746 N 153.722 1.14298 -1.08507 0
M  V30 1747 C 154.655 2.18447 -0.660004 0
M  V30 1748 C 155.633 1.59242 0.328749 0
M  V30 1749 O 156.817 1.87062 0.232367 0
M  V30 1750 C 153.944 3.38688 0.0290807 0
M  V30 1751 C 152.99 4.1646 -0.919982 0
M  V30 1752 S 153.823 4.77334 -2.42718 0
M  V30 1753 C 154.979 6.00931 -1.75024 0
M  V30 1754 H 155.212 2.54166 -1.54231 0
M  V30 1755 H 152.745 1.25446 -0.900149 0
M  V30 1756 H 154.703 4.08342 0.420378 0
M  V30 1757 H 153.364 3.01289 0.887895 0
M  V30 1758 H 152.557 5.02529 -0.384751 0
M  V30 1759 H 152.159 3.52414 -1.25223 0
M  V30 1760 H 154.451 6.69017 -1.06877 0
M  V30 1761 H 155.394 6.59044 -2.58971 0
M  V30 1762 H 155.802 5.51089 -1.22317 0
M  V30 1763 N 155.201 0.870884 1.31352 0
M  V30 1764 C 156.45 0.478408 1.95944 0
M  V30 1765 C 156.763 -0.974493 1.69597 0
M  V30 1766 O 157.969 -1.47316 2.28058 0
M  V30 1767 C 156.425 0.804609 3.50791 0
M  V30 1768 C 156.033 2.27433 3.85977 0
M  V30 1769 C 157.777 0.480648 4.2177 0
M  V30 1770 C 155.684 2.5429 5.33939 0
M  V30 1771 H 154.614 0.175175 0.733369 0
M  V30 1772 H 157.265 1.06391 1.4951 0
M  V30 1773 H 155.647 0.148347 3.95722 0
M  V30 1774 H 156.821 2.97373 3.52002 0
M  V30 1775 H 155.136 2.56442 3.28065 0
M  V30 1776 H 157.733 0.658519 5.30629 0
M  V30 1777 H 158.076 -0.578979 4.12254 0
M  V30 1778 H 158.609 1.09349 3.82476 0
M  V30 1779 H 155.348 3.58939 5.48491 0
M  V30 1780 H 154.868 1.88945 5.69263 0
M  V30 1781 H 156.547 2.39066 6.01212 0
M  V30 1782 N 156.679 -1.44442 0.630414 0
M  V30 1783 C 157.626 -2.30678 -0.0749355 0
M  V30 1784 C 158.596 -1.4344 -0.837502 0
M  V30 1785 O 159.781 -1.72343 -0.818684 0
M  V30 1786 C 156.921 -3.28706 -1.05103 0
M  V30 1787 C 156.034 -4.31046 -0.286954 0
M  V30 1788 C 155.169 -5.16167 -1.2548 0
M  V30 1789 C 154.208 -6.10216 -0.479843 0
M  V30 1790 N 153.345 -6.88039 -1.39811 0
M  V30 1791 H 158.185 -2.90454 0.666386 0
M  V30 1792 H 155.722 -1.43107 0.340404 0
M  V30 1793 H 157.68 -3.84027 -1.63031 0
M  V30 1794 H 156.31 -2.70632 -1.75949 0
M  V30 1795 H 155.362 -3.78203 0.408243 0
M  V30 1796 H 156.674 -4.97794 0.316657 0
M  V30 1797 H 155.828 -5.76002 -1.90544 0
M  V30 1798 H 154.567 -4.49491 -1.89233 0
M  V30 1799 H 153.572 -5.49491 0.184295 0
M  V30 1800 H 154.797 -6.78928 0.152965 0
M  V30 1801 H 152.743 -6.24032 -2.02287 0
M  V30 1802 H 152.66 -7.51223 -0.848508 0
M  V30 1803 H 153.928 -7.52397 -2.03762 0
M  V30 1804 N 158.157 -0.370918 -1.53173 0
M  V30 1805 C 159.105 0.488101 -2.27421 0
M  V30 1806 C 160.099 1.07884 -1.30604 0
M  V30 1807 O 161.305 1.02143 -1.48212 0
M  V30 1808 H 157.68 0.176134 -0.731082 0
M  V30 1809 H 159.651 -0.159815 -2.97972 0
M  V30 1810 C 158.4 1.61306 -3.08019 0
M  V30 1811 H 157.723 1.1678 -3.82364 0
M  V30 1812 H 159.163 2.18872 -3.63141 0
M  V30 1813 C 157.622 2.55848 -2.19188 0
M  V30 1814 O 158.152 3.58799 -1.80626 0
M  V30 1815 N 156.358 2.2516 -1.83715 0
M  V30 1816 H 155.905 1.41476 -2.15273 0
M  V30 1817 H 155.863 2.8867 -1.24567 0
M  V30 1818 N 159.635 1.57281 -0.100228 0
M  V30 1819 C 160.598 2.13158 0.842398 0
M  V30 1820 C 161.598 1.06202 1.20738 0
M  V30 1821 O 162.788 1.32066 1.13597 0
M  V30 1822 C 159.92 2.65639 2.13655 0
M  V30 1823 H 161.113 2.97766 0.357114 0
M  V30 1824 H 158.666 1.5559 0.148823 0
M  V30 1825 H 159.401 1.84566 2.66657 0
M  V30 1826 H 159.186 3.43844 1.88451 0
M  V30 1827 H 160.676 3.08846 2.81077 0
M  V30 1828 N 161.113 -0.173488 1.56642 0
M  V30 1829 C 162.06 -1.21482 1.96242 0
M  V30 1830 C 163.03 -1.44104 0.826027 0
M  V30 1831 O 164.215 -1.5688 1.08597 0
M  V30 1832 C 161.355 -2.54964 2.32567 0
M  V30 1833 C 160.468 -2.39739 3.59373 0
M  V30 1834 C 159.603 -3.66072 3.84921 0
M  V30 1835 C 158.642 -3.45771 5.05083 0
M  V30 1836 N 157.779 -4.64169 5.26775 0
M  V30 1837 H 162.619 -0.870123 2.85014 0
M  V30 1838 H 160.156 -0.418245 1.41029 0
M  V30 1839 H 162.114 -3.32758 2.5165 0
M  V30 1840 H 160.744 -2.87433 1.46908 0
M  V30 1841 H 159.796 -1.53131 3.48217 0
M  V30 1842 H 161.108 -2.20683 4.47326 0
M  V30 1843 H 160.262 -4.52303 4.0436 0
M  V30 1844 H 159.001 -3.88105 2.9534 0
M  V30 1845 H 158.006 -2.57927 4.85545 0
M  V30 1846 H 159.231 -3.25163 5.96193 0
M  V30 1847 H 157.177 -4.86425 4.40144 0
M  V30 1848 H 157.094 -4.48019 6.08946 0
M  V30 1849 H 158.362 -5.51689 5.5069 0
M  V30 1850 N 162.591 -1.51276 -0.441967 0
M  V30 1851 C 163.816 -1.67799 -1.21895 0
M  V30 1852 C 164.241 -0.372864 -1.84367 0
M  V30 1853 O 163.599 0.666501 -1.68604 0
M  V30 1854 C 163.647 -2.79199 -2.28211 0
M  V30 1855 O 162.751 -2.42479 -3.33583 0
M  V30 1856 H 162.092 -0.559649 -0.357336 0
M  V30 1857 H 164.622 -1.97815 -0.522522 0
M  V30 1858 H 164.632 -3.03146 -2.73069 0
M  V30 1859 H 163.307 -3.73906 -1.82118 0
M  V30 1860 H 161.884 -2.29087 -2.94234 0
M  V30 1861 N 164.069 0.697108 -1.41344 0
M  V30 1862 C 165.317 1.45426 -1.40341 0
M  V30 1863 C 165.638 1.94996 -0.0128787 0
M  V30 1864 O 164.908 1.71599 0.945027 0
M  V30 1865 H 163.488 0.539594 -0.516573 0
M  V30 1866 H 166.15 0.825201 -1.76569 0
M  V30 1867 H 165.246 2.31817 -2.08967 0
M  V30 1868 N 165.547 1.27147 0.931209 0
M  V30 1869 C 166.963 1.04475 1.20653 0
M  V30 1870 C 167.163 -0.223885 2.00252 0
M  V30 1871 O 166.219 -0.930332 2.34736 0
M  V30 1872 C 167.532 2.28209 1.95809 0
M  V30 1873 C 169.08 2.33211 2.08762 0
M  V30 1874 C 169.555 3.56665 2.87323 0
M  V30 1875 N 171.046 3.57201 2.94892 0
M  V30 1876 C 171.781 4.49395 3.56134 0
M  V30 1877 N 171.277 5.51889 4.18796 0
M  V30 1878 N 173.07 4.37026 3.53504 0
M  V30 1879 H 165.221 2.08612 0.399333 0
M  V30 1880 H 167.484 0.917312 0.239253 0
M  V30 1881 H 167.19 3.20538 1.44736 0
M  V30 1882 H 167.064 2.33247 2.96438 0
M  V30 1883 H 169.451 1.41391 2.59023 0
M  V30 1884 H 169.532 2.32178 1.07364 0
M  V30 1885 H 169.176 4.4882 2.37746 0
M  V30 1886 H 169.106 3.54948 3.88998 0
M  V30 1887 H 171.597 2.83074 2.50354 0
M  V30 1888 H 171.91 6.18409 4.63454 0
M  V30 1889 H 170.255 5.55735 4.17353 0
M  V30 1890 H 173.446 3.56166 3.03749 0
M  V30 1891 H 173.619 5.09067 4.00942 0
M  V30 1892 N 167.025 -1.13721 1.09112 0
M  V30 1893 C 168.255 -1.88499 0.845671 0
M  V30 1894 C 168.663 -1.79218 -0.606432 0
M  V30 1895 O 168.006 -1.1544 -1.42896 0
M  V30 1896 C 168.068 -3.38954 1.19793 0
M  V30 1897 C 167.732 -3.72018 2.65428 0
M  V30 1898 C 168.729 -3.7153 3.63677 0
M  V30 1899 C 166.414 -4.01775 3.01467 0
M  V30 1900 C 168.408 -4.00336 4.95994 0
M  V30 1901 C 166.095 -4.30243 4.33975 0
M  V30 1902 C 167.093 -4.29508 5.31048 0
M  V30 1903 O 166.781 -4.5728 6.61173 0
M  V30 1904 H 166.513 -0.603702 0.304171 0
M  V30 1905 H 169.067 -1.44903 1.45576 0
M  V30 1906 H 167.297 -3.83039 0.530871 0
M  V30 1907 H 168.986 -3.95052 0.932146 0
M  V30 1908 H 169.752 -3.4862 3.37179 0
M  V30 1909 H 165.631 -4.01496 2.26544 0
M  V30 1910 H 169.175 -3.99678 5.71755 0
M  V30 1911 H 165.072 -4.52625 4.60219 0
M  V30 1912 H 165.84 -4.74964 6.66597 0
M  V30 1913 N 168.503 -0.877838 -1.30888 0
M  V30 1914 C 169.731 -0.507414 -2.00581 0
M  V30 1915 C 170.146 0.902216 -1.65848 0
M  V30 1916 O 169.503 1.59225 -0.891831 0
M  V30 1917 C 169.554 -0.664162 -3.55347 0
M  V30 1918 O 169.275 -2.01829 -3.8884 0
M  V30 1919 C 170.776 -0.295787 -4.42312 0
M  V30 1920 H 167.996 -0.196866 -0.641471 0
M  V30 1921 H 170.54 -1.18117 -1.66939 0
M  V30 1922 H 168.695 -0.0378619 -3.87381 0
M  V30 1923 H 169.109 -2.03174 -4.8355 0
M  V30 1924 H 170.583 -0.456388 -5.5011 0
M  V30 1925 H 171.06 0.765663 -4.32475 0
M  V30 1926 H 171.666 -0.898113 -4.15709 0
M  V30 1927 N 169.982 1.44106 -0.638065 0
M  V30 1928 C 170.892 2.34513 0.0637334 0
M  V30 1929 C 171.908 1.53018 0.828346 0
M  V30 1930 O 173.084 1.85723 0.779036 0
M  V30 1931 C 170.149 3.31095 1.02844 0
M  V30 1932 C 169.21 4.28497 0.26244 0
M  V30 1933 C 168.443 5.20465 1.1812 0
M  V30 1934 O 168.666 5.16514 2.42011 0
M  V30 1935 O 167.6 5.98251 0.661774 0
M  V30 1936 H 171.426 2.95989 -0.68003 0
M  V30 1937 H 169.011 1.43994 -0.398252 0
M  V30 1938 H 170.893 3.90526 1.58327 0
M  V30 1939 H 169.568 2.72144 1.7527 0
M  V30 1940 H 168.475 3.72592 -0.335602 0
M  V30 1941 H 169.808 4.90388 -0.421936 0
M  V30 1942 N 171.46 0.379036 1.52974 0
M  V30 1943 C 172.708 -0.206014 2.01047 0
M  V30 1944 C 173.029 -1.48175 1.26765 0
M  V30 1945 O 172.299 -1.92085 0.384743 0
M  V30 1946 H 170.879 -0.0791184 0.742798 0
M  V30 1947 H 173.541 0.508366 1.88153 0
M  V30 1948 H 172.637 -0.423501 3.09213 0
M  V30 1949 N 172.938 -1.57226 0.108567 0
M  V30 1950 C 174.186 -1.94448 -0.550853 0
M  V30 1951 C 174.507 -0.992074 -1.67878 0
M  V30 1952 O 173.777 -0.0465 -1.95845 0
M  V30 1953 H 172.357 -0.717897 -0.206479 0
M  V30 1954 H 175.019 -1.94112 0.175062 0
M  V30 1955 H 174.115 -2.97218 -0.952259 0
M  V30 1956 N 174.416 0.165178 -1.56732 0
M  V30 1957 C 175.641 0.900253 -1.86843 0
M  V30 1958 C 176.066 1.74766 -0.695596 0
M  V30 1959 O 175.424 1.77786 0.35522 0
M  V30 1960 C 175.472 1.74777 -3.15413 0
M  V30 1961 O 174.576 2.85007 -2.98068 0
M  V30 1962 H 173.917 0.251832 -0.614391 0
M  V30 1963 H 176.447 0.161468 -2.03962 0
M  V30 1964 H 176.457 2.14646 -3.46974 0
M  V30 1965 H 175.132 1.12537 -4.00385 0
M  V30 1966 H 173.709 2.48676 -2.77875 0
M  V30 1967 N 175.894 1.51508 0.433938 0
M  V30 1968 C 177.122 1.68157 1.20543 0
M  V30 1969 C 177.537 0.380362 1.84929 0
M  V30 1970 O 176.894 -0.641446 1.70856 0
M  V30 1971 C 176.945 2.79965 2.28696 0
M  V30 1972 O 176.666 4.05045 1.66943 0
M  V30 1973 C 178.167 3.07912 3.18912 0
M  V30 1974 H 175.387 0.56421 0.363191 0
M  V30 1975 H 177.931 1.97941 0.513754 0
M  V30 1976 H 176.086 2.5277 2.93574 0
M  V30 1977 H 176.5 4.67165 2.38448 0
M  V30 1978 H 177.974 3.89719 3.90926 0
M  V30 1979 H 178.451 2.20456 3.79863 0
M  V30 1980 H 179.057 3.36779 2.59731 0
M  V30 1981 N 177.372 -0.689602 1.41712 0
M  V30 1982 C 178.621 -1.44534 1.40686 0
M  V30 1983 C 178.934 -1.95588 0.0213352 0
M  V30 1984 O 180.14 -2.71271 -0.111534 0
M  V30 1985 C 178.596 -2.61387 2.47396 0
M  V30 1986 C 178.204 -2.17094 3.91885 0
M  V30 1987 C 179.948 -3.38986 2.55517 0
M  V30 1988 C 177.855 -3.3094 4.90135 0
M  V30 1989 H 176.785 -0.542925 0.52321 0
M  V30 1990 H 179.436 -0.748054 1.6756 0
M  V30 1991 H 177.818 -3.33412 2.13664 0
M  V30 1992 H 178.992 -1.52318 4.34897 0
M  V30 1993 H 177.307 -1.52473 3.8748 0
M  V30 1994 H 179.904 -4.23747 3.26102 0
M  V30 1995 H 180.247 -3.84578 1.59391 0
M  V30 1996 H 180.78 -2.74021 2.8837 0
M  V30 1997 H 177.519 -2.90355 5.87685 0
M  V30 1998 H 177.039 -3.94546 4.51767 0
M  V30 1999 H 178.718 -3.9663 5.11169 0
M  V30 2000 N 178.85 -1.27639 -0.924453 0
M  V30 2001 C 180.078 -1.16989 -1.70649 0
M  V30 2002 C 180.493 0.272869 -1.86818 0
M  V30 2003 O 179.85 1.18549 -1.38753 0
M  V30 2004 C 179.901 -1.85229 -3.10439 0
M  V30 2005 O 179.622 -3.23868 -2.95028 0
M  V30 2006 C 181.123 -1.80746 -4.04779 0
M  V30 2007 H 178.343 -0.406595 -0.53378 0
M  V30 2008 H 180.887 -1.68569 -1.15778 0
M  V30 2009 H 179.042 -1.37545 -3.6216 0
M  V30 2010 H 179.456 -3.57889 -3.83426 0
M  V30 2011 H 180.93 -2.33101 -5.00368 0
M  V30 2012 H 181.407 -0.777499 -4.32263 0
M  V30 2013 H 182.013 -2.28059 -3.58984 0
M  V30 2014 N 180.328 1.1314 -1.09713 0
M  V30 2015 C 181.26 2.18343 -0.697056 0
M  V30 2016 C 182.273 1.60669 0.262551 0
M  V30 2017 O 183.462 1.78435 0.0481527 0
M  V30 2018 C 180.562 3.38899 -0.00684728 0
M  V30 2019 C 179.735 4.26078 -0.988741 0
M  V30 2020 C 178.794 5.25155 -0.331394 0
M  V30 2021 O 177.82 5.60701 -0.979926 0
M  V30 2022 N 179.022 5.73271 0.913261 0
M  V30 2023 H 181.787 2.5328 -1.60216 0
M  V30 2024 H 179.348 1.28491 -0.984971 0
M  V30 2025 H 181.34 4.02255 0.444191 0
M  V30 2026 H 179.91 3.02175 0.800551 0
M  V30 2027 H 179.13 3.59453 -1.61826 0
M  V30 2028 H 180.418 4.81178 -1.65364 0
M  V30 2029 H 179.816 5.46544 1.45966 0
M  V30 2030 H 178.373 6.3855 1.30757 0
M  V30 2031 N 181.806 0.884767 1.30421 0
M  V30 2032 C 182.738 0.308655 2.27112 0
M  V30 2033 C 183.751 -0.536655 1.53701 0
M  V30 2034 O 184.94 -0.35624 1.74909 0
M  V30 2035 C 182.04 -0.579782 3.33904 0
M  V30 2036 C 181.213 0.236417 4.36761 0
M  V30 2037 C 180.272 -0.582482 5.22966 0
M  V30 2038 O 179.298 -0.00525502 5.692 0
M  V30 2039 N 180.5 -1.89163 5.48815 0
M  V30 2040 H 183.265 1.13964 2.77186 0
M  V30 2041 H 180.826 0.747731 1.43599 0
M  V30 2042 H 182.818 -1.13366 3.88497 0
M  V30 2043 H 181.388 -1.31144 2.83761 0
M  V30 2044 H 180.608 0.97174 3.82035 0
M  V30 2045 H 181.896 0.795924 5.02536 0
M  V30 2046 H 181.294 -2.38352 5.13035 0
M  V30 2047 H 179.851 -2.39296 6.06284 0
M  V30 2048 N 183.284 -1.43765 0.645699 0
M  V30 2049 C 184.214 -2.33471 -0.0370477 0
M  V30 2050 C 185.195 -1.49042 -0.819779 0
M  V30 2051 O 186.38 -1.77726 -0.782758 0
M  V30 2052 C 183.51 -3.32311 -1.0093 0
M  V30 2053 C 182.464 -4.2667 -0.337201 0
M  V30 2054 C 181.79 -5.1549 -1.42037 0
M  V30 2055 C 183.09 -5.16657 0.765706 0
M  V30 2056 H 184.784 -2.90809 0.712069 0
M  V30 2057 H 182.33 -1.39834 0.343876 0
M  V30 2058 H 184.283 -3.9396 -1.49578 0
M  V30 2059 H 183.007 -2.73213 -1.78948 0
M  V30 2060 H 181.666 -3.66374 0.128771 0
M  V30 2061 H 181.314 -4.52735 -2.1918 0
M  V30 2062 H 181.014 -5.79438 -0.975966 0
M  V30 2063 H 182.538 -5.80012 -1.90838 0
M  V30 2064 H 183.952 -5.72158 0.361702 0
M  V30 2065 H 182.349 -5.89286 1.13413 0
M  V30 2066 H 183.419 -4.56796 1.62683 0
M  V30 2067 N 184.763 -0.387143 -1.52771 0
M  V30 2068 C 186.009 0.196025 -2.0185 0
M  V30 2069 C 186.342 1.46641 -1.27319 0
M  V30 2070 O 185.617 1.90889 -0.373032 0
M  V30 2071 C 185.9 0.466136 -3.5707 0
M  V30 2072 C 185.753 -0.819385 -4.42274 0
M  V30 2073 C 187.072 1.25768 -4.21747 0
M  V30 2074 H 184.191 0.0697708 -0.73369 0
M  V30 2075 H 186.833 -0.516286 -1.82851 0
M  V30 2076 H 184.983 1.07293 -3.7339 0
M  V30 2077 H 186.655 -1.4563 -4.37709 0
M  V30 2078 H 184.898 -1.43517 -4.09372 0
M  V30 2079 H 185.569 -0.585065 -5.48891 0
M  V30 2080 H 188.045 0.744167 -4.09391 0
M  V30 2081 H 186.921 1.41541 -5.30337 0
M  V30 2082 H 187.182 2.27228 -3.79236 0
M  V30 2083 N 186.241 1.57166 -0.116904 0
M  V30 2084 C 187.188 2.15202 0.83408 0
M  V30 2085 C 188.158 1.07644 1.26499 0
M  V30 2086 O 189.343 1.35541 1.34288 0
M  V30 2087 C 186.483 2.75405 2.07957 0
M  V30 2088 C 185.596 3.97264 1.69721 0
M  V30 2089 C 184.731 4.45561 2.89221 0
M  V30 2090 C 183.77 5.59956 2.47215 0
M  V30 2091 N 182.907 6.03006 3.59622 0
M  V30 2092 H 187.747 2.96141 0.332335 0
M  V30 2093 H 185.284 1.46309 0.152349 0
M  V30 2094 H 187.242 3.08439 2.80929 0
M  V30 2095 H 185.872 1.97159 2.55594 0
M  V30 2096 H 184.924 3.70404 0.866316 0
M  V30 2097 H 186.236 4.80226 1.34849 0
M  V30 2098 H 185.39 4.80493 3.7042 0
M  V30 2099 H 184.129 3.61544 3.27318 0
M  V30 2100 H 183.134 5.2463 1.64448 0
M  V30 2101 H 184.359 6.45738 2.10238 0
M  V30 2102 H 182.305 5.21931 3.97396 0
M  V30 2103 H 182.222 6.80819 3.28667 0
M  V30 2104 H 183.49 6.42576 4.41267 0
M  V30 2105 N 187.719 -0.156864 1.56817 0
M  V30 2106 C 188.667 -1.21319 1.98455 0
M  V30 2107 C 189.661 -1.45025 0.875444 0
M  V30 2108 O 190.867 -1.45435 1.0606 0
M  V30 2109 H 187.242 -0.408142 0.631605 0
M  V30 2110 H 189.213 -0.835244 2.86472 0
M  V30 2111 C 187.962 -2.54148 2.37285 0
M  V30 2112 H 187.285 -2.36733 3.22176 0
M  V30 2113 H 188.725 -3.26712 2.70251 0
M  V30 2114 C 187.184 -3.13967 1.22173 0
M  V30 2115 O 187.714 -3.98357 0.517149 0
M  V30 2116 N 185.92 -2.7327 0.988536 0
M  V30 2117 H 185.467 -2.04744 1.56326 0
M  V30 2118 H 185.425 -3.13628 0.220209 0
M  V30 2119 N 189.197 -1.51736 -0.425897 0
M  V30 2120 C 190.13 -1.68574 -1.53812 0
M  V30 2121 C 191.108 -0.53328 -1.53606 0
M  V30 2122 O 192.292 -0.758555 -1.72564 0
M  V30 2123 C 189.419 -1.70977 -2.92377 0
M  V30 2124 C 188.465 -2.92324 -3.10563 0
M  V30 2125 S 189.298 -4.52952 -2.85648 0
M  V30 2126 C 190.454 -4.58117 -4.26474 0
M  V30 2127 H 190.687 -2.62647 -1.39298 0
M  V30 2128 H 188.22 -1.41564 -0.616361 0
M  V30 2129 H 190.178 -1.73047 -3.72243 0
M  V30 2130 H 188.839 -0.78061 -3.04245 0
M  V30 2131 H 188.032 -2.90439 -4.11899 0
M  V30 2132 H 187.634 -2.88055 -2.38538 0
M  V30 2133 H 189.926 -4.34462 -5.19855 0
M  V30 2134 H 190.869 -5.59983 -4.33388 0
M  V30 2135 H 191.277 -3.8732 -4.10662 0
M  V30 2136 N 190.675 0.682077 -1.42076 0
M  V30 2137 C 191.921 1.44428 -1.42367 0
M  V30 2138 C 192.254 1.94164 -0.0373056 0
M  V30 2139 O 191.529 1.70429 0.937239 0
M  V30 2140 C 191.812 2.64654 -2.44194 0
M  V30 2141 C 191.665 2.20596 -3.91991 0
M  V30 2142 C 192.984 3.66865 -2.431 0
M  V30 2143 H 190.103 0.523834 -0.518428 0
M  V30 2144 H 192.745 0.77576 -1.73442 0
M  V30 2145 H 190.895 3.2169 -2.17826 0
M  V30 2146 H 192.567 1.68783 -4.29313 0
M  V30 2147 H 190.81 1.52242 -4.06208 0
M  V30 2148 H 191.481 3.06921 -4.58807 0
M  V30 2149 H 193.957 3.19531 -2.66532 0
M  V30 2150 H 192.833 4.48577 -3.16339 0
M  V30 2151 H 193.094 4.17493 -1.45437 0
M  V30 2152 N 192.153 1.28127 0.917671 0
M  V30 2153 C 193.083 1.14248 2.03641 0
M  V30 2154 C 194.064 0.0412748 1.7005 0
M  V30 2155 O 195.249 0.217566 1.92977 0
M  V30 2156 C 192.379 0.799431 3.37974 0
M  V30 2157 C 191.333 1.85497 3.85713 0
M  V30 2158 C 190.659 1.36565 5.16966 0
M  V30 2159 C 191.959 3.26085 4.08002 0
M  V30 2160 H 193.653 2.07835 2.15511 0
M  V30 2161 H 191.199 1.00064 1.03553 0
M  V30 2162 H 193.152 0.689114 4.15727 0
M  V30 2163 H 191.876 -0.172145 3.26146 0
M  V30 2164 H 190.535 1.95437 3.10161 0
M  V30 2165 H 190.183 0.383253 5.01538 0
M  V30 2166 H 189.883 2.07143 5.49878 0
M  V30 2167 H 191.407 1.26848 5.97279 0
M  V30 2168 H 192.821 3.19089 4.76293 0
M  V30 2169 H 191.218 3.94462 4.52238 0
M  V30 2170 H 192.288 3.70394 3.12948 0
M  V30 2171 N 193.631 -1.12557 1.10312 0
M  V30 2172 C 194.859 -1.87864 0.866873 0
M  V30 2173 C 195.274 -1.79588 -0.582557 0
M  V30 2174 O 194.631 -1.16887 -1.40156 0
M  V30 2175 C 194.682 -3.37125 1.30496 0
M  V30 2176 O 194.403 -3.45201 2.69755 0
M  V30 2177 C 195.904 -4.29373 1.10243 0
M  V30 2178 H 193.124 -0.594452 0.311236 0
M  V30 2179 H 195.668 -1.42429 1.46745 0
M  V30 2180 H 193.823 -3.80109 0.748081 0
M  V30 2181 H 194.237 -4.38056 2.88457 0
M  V30 2182 H 195.711 -5.32394 1.45811 0
M  V30 2183 H 196.188 -4.39181 0.0409492 0
M  V30 2184 H 196.794 -3.92169 1.64571 0
M  V30 2185 N 195.109 -0.891671 -1.2995 0
M  V30 2186 C 196.525 -0.58662 -1.48428 0
M  V30 2187 C 196.725 0.873951 -1.81561 0
M  V30 2188 O 195.781 1.65471 -1.90724 0
M  V30 2189 C 197.094 -1.50553 -2.60296 0
M  V30 2190 C 198.642 -1.50988 -2.74175 0
M  V30 2191 C 199.117 -2.41488 -3.89163 0
M  V30 2192 N 200.608 -2.39489 -3.96483 0
M  V30 2193 C 201.343 -3.06223 -4.84784 0
M  V30 2194 N 200.839 -3.82206 -5.77833 0
M  V30 2195 N 202.632 -2.95421 -4.78208 0
M  V30 2196 H 194.783 -1.83644 -1.06718 0
M  V30 2197 H 197.046 -0.786455 -0.529332 0
M  V30 2198 H 196.752 -2.54581 -2.42654 0
M  V30 2199 H 196.626 -1.22008 -3.56923 0
M  V30 2200 H 199.013 -0.47708 -2.91218 0
M  V30 2201 H 199.094 -1.83567 -1.78148 0
M  V30 2202 H 198.738 -3.44857 -3.72876 0
M  V30 2203 H 198.668 -2.06222 -4.84541 0
M  V30 2204 H 201.159 -1.84278 -3.29924 0
M  V30 2205 H 201.472 -4.302 -6.41988 0
M  V30 2206 H 199.817 -3.86313 -5.77743 0
M  V30 2207 H 203.008 -2.35581 -4.04499 0
M  V30 2208 H 203.181 -3.47704 -5.46814 0
M  V30 2209 N 196.587 1.43421 -0.653314 0
M  V30 2210 C 197.497 2.34568 0.0388565 0
M  V30 2211 C 198.513 1.53888 0.81207 0
M  V30 2212 O 199.689 1.86539 0.759294 0
M  V30 2213 C 196.754 3.32167 0.993269 0
M  V30 2214 C 195.815 4.28751 0.216977 0
M  V30 2215 C 195.048 5.21688 1.12593 0
M  V30 2216 O 195.271 5.19052 2.36519 0
M  V30 2217 O 194.205 5.98919 0.598284 0
M  V30 2218 H 198.031 2.95251 -0.711386 0
M  V30 2219 H 195.616 1.43564 -0.413502 0
M  V30 2220 H 197.498 3.92183 1.54176 0
M  V30 2221 H 196.173 2.73987 1.72374 0
M  V30 2222 H 195.08 3.72215 -0.375101 0
M  V30 2223 H 196.413 4.89913 -0.473924 0
M  V30 2224 N 198.065 0.39524 1.52563 0
M  V30 2225 C 199.012 -0.437036 2.26624 0
M  V30 2226 C 199.982 -1.05281 1.28472 0
M  V30 2227 O 201.167 -1.07971 1.57311 0
M  V30 2228 C 198.307 -1.55524 3.08069 0
M  V30 2229 C 197.42 -0.961745 4.21158 0
M  V30 2230 C 196.555 -2.05149 4.89987 0
M  V30 2231 C 195.594 -1.4342 5.95061 0
M  V30 2232 N 194.731 -2.46351 6.57462 0
M  V30 2233 H 199.571 0.200976 2.97322 0
M  V30 2234 H 197.108 0.110944 1.46681 0
M  V30 2235 H 199.066 -2.21437 3.53584 0
M  V30 2236 H 197.696 -2.16348 2.3957 0
M  V30 2237 H 196.748 -0.192048 3.79915 0
M  V30 2238 H 198.06 -0.470701 4.96574 0
M  V30 2239 H 197.214 -2.78819 5.38837 0
M  V30 2240 H 195.953 -2.57615 4.14109 0
M  V30 2241 H 194.958 -0.682774 5.45544 0
M  V30 2242 H 196.183 -0.917416 6.72875 0
M  V30 2243 H 194.129 -2.97975 5.8442 0
M  V30 2244 H 194.046 -2.02019 7.28508 0
M  V30 2245 H 195.314 -3.19633 7.10954 0
M  V30 2246 N 199.544 -1.57102 0.125237 0
M  V30 2247 C 200.772 -1.99761 -0.538797 0
M  V30 2248 C 201.187 -1.00503 -1.59827 0
M  V30 2249 O 200.544 0.00119474 -1.825 0
M  V30 2250 C 200.595 -3.42408 -1.15927 0
M  V30 2251 O 200.316 -4.37869 -0.142143 0
M  V30 2252 C 201.817 -4.00232 -1.90602 0
M  V30 2253 H 199.037 -0.655772 -0.14214 0
M  V30 2254 H 201.581 -2.03383 0.213413 0
M  V30 2255 H 199.736 -3.39706 -1.86223 0
M  V30 2256 H 200.15 -5.21128 -0.593775 0
M  V30 2257 H 201.624 -5.02105 -2.29335 0
M  V30 2258 H 202.101 -3.39721 -2.78363 0
M  V30 2259 H 202.707 -4.06499 -1.25055 0
M  V30 2260 N 201.022 0.148545 -1.56898 0
M  V30 2261 C 201.952 1.18524 -2.01182 0
M  V30 2262 C 202.933 1.4489 -0.891123 0
M  V30 2263 O 204.118 1.55836 -1.15882 0
M  V30 2264 C 201.248 2.51879 -2.39112 0
M  V30 2265 C 200.202 2.40038 -3.54353 0
M  V30 2266 C 199.528 3.78089 -3.78091 0
M  V30 2267 C 200.828 1.88577 -4.87069 0
M  V30 2268 H 202.522 0.817029 -2.88036 0
M  V30 2269 H 200.068 0.391575 -1.38574 0
M  V30 2270 H 202.021 3.24627 -2.68692 0
M  V30 2271 H 200.745 2.90532 -1.49193 0
M  V30 2272 H 199.404 1.69742 -3.24936 0
M  V30 2273 H 199.052 4.14175 -2.85426 0
M  V30 2274 H 198.752 3.71028 -4.55645 0
M  V30 2275 H 200.276 4.52387 -4.10095 0
M  V30 2276 H 201.69 2.51117 -5.15377 0
M  V30 2277 H 200.087 1.9241 -5.68417 0
M  V30 2278 H 201.157 0.84136 -4.77545 0
M  V30 2279 N 202.5 1.5196 0.417844 0
M  V30 2280 C 203.728 1.69426 1.18753 0
M  V30 2281 C 204.143 0.399955 1.84515 0
M  V30 2282 O 203.5 -0.623288 1.71527 0
M  V30 2283 C 203.551 2.82375 2.25714 0
M  V30 2284 O 203.272 4.06793 1.62638 0
M  V30 2285 C 204.773 3.11277 3.15628 0
M  V30 2286 H 201.993 0.568031 0.357186 0
M  V30 2287 H 204.537 1.98475 0.49273 0
M  V30 2288 H 202.692 2.5587 2.90877 0
M  V30 2289 H 203.106 4.69667 2.3348 0
M  V30 2290 H 204.58 3.93843 3.86771 0
M  V30 2291 H 205.057 2.24473 3.77503 0
M  V30 2292 H 205.663 3.39515 2.56144 0
M  V30 2293 N 203.978 -0.674533 1.42435 0
M  V30 2294 C 205.394 -0.98769 1.25367 0
M  V30 2295 C 205.594 -2.00879 0.158044 0
M  V30 2296 O 204.65 -2.48075 -0.470633 0
M  V30 2297 C 205.963 -1.49224 2.6106 0
M  V30 2298 C 207.511 -1.61 2.68417 0
M  V30 2299 C 207.986 -2.14852 4.04478 0
M  V30 2300 N 209.477 -2.22185 4.06434 0
M  V30 2301 C 210.212 -2.64928 5.08528 0
M  V30 2302 N 209.708 -3.07121 6.21006 0
M  V30 2303 N 211.501 -2.64679 4.95885 0
M  V30 2304 H 203.652 0.00152503 2.124 0
M  V30 2305 H 205.915 -0.0618434 0.945981 0
M  V30 2306 H 205.621 -0.816453 3.42092 0
M  V30 2307 H 205.495 -2.47094 2.84999 0
M  V30 2308 H 207.882 -2.27686 1.87732 0
M  V30 2309 H 207.963 -0.616195 2.48267 0
M  V30 2310 H 207.607 -1.48775 4.85622 0
M  V30 2311 H 207.537 -3.15024 4.2198 0
M  V30 2312 H 210.028 -1.92435 3.25234 0
M  V30 2313 H 210.341 -3.38423 6.94759 0
M  V30 2314 H 208.686 -3.04978 6.24511 0
M  V30 2315 H 211.877 -2.31078 4.07088 0
M  V30 2316 H 212.05 -2.9767 5.75584 0
M  V30 2317 N 205.456 -1.28612 -0.910864 0
M  V30 2318 C 206.403 -1.12786 -2.01365 0
M  V30 2319 C 207.373 -0.024201 -1.66082 0
M  V30 2320 O 208.558 -0.189667 -1.89855 0
M  V30 2321 C 205.698 -0.798743 -3.35729 0
M  V30 2322 C 204.811 -1.98173 -3.83864 0
M  V30 2323 C 203.946 -1.59298 -5.06752 0
M  V30 2324 C 202.985 -2.74245 -5.47226 0
M  V30 2325 N 202.122 -2.35842 -6.61304 0
M  V30 2326 H 206.962 -2.07142 -2.14234 0
M  V30 2327 H 204.499 -1.03093 -1.0493 0
M  V30 2328 H 206.457 -0.588662 -4.13026 0
M  V30 2329 H 205.087 0.10789 -3.2262 0
M  V30 2330 H 204.139 -2.30386 -3.02699 0
M  V30 2331 H 205.451 -2.84343 -4.09818 0
M  V30 2332 H 204.605 -1.34513 -5.916 0
M  V30 2333 H 203.344 -0.702618 -4.82612 0
M  V30 2334 H 202.349 -2.99725 -4.60918 0
M  V30 2335 H 203.574 -3.63928 -5.73353 0
M  V30 2336 H 201.52 -1.49279 -6.38789 0
M  V30 2337 H 201.437 -3.15546 -6.86998 0
M  V30 2338 H 202.705 -2.14348 -7.4945 0
M  V30 2339 N 206.934 1.1197 -1.10907 0
M  V30 2340 C 207.864 2.19928 -0.784473 0
M  V30 2341 C 208.845 1.6833 0.244726 0
M  V30 2342 O 210.03 1.93892 0.109418 0
M  V30 2343 C 207.16 3.46597 -0.220827 0
M  V30 2344 C 206.114 4.11376 -1.18127 0
M  V30 2345 C 205.44 5.32554 -0.478594 0
M  V30 2346 C 206.74 4.56945 -2.52979 0
M  V30 2347 H 208.434 2.47337 -1.68715 0
M  V30 2348 H 205.98 1.18879 -0.812642 0
M  V30 2349 H 207.933 4.21396 0.0184278 0
M  V30 2350 H 206.657 3.1863 0.717113 0
M  V30 2351 H 205.316 3.38564 -1.40606 0
M  V30 2352 H 204.964 5.00856 0.463976 0
M  V30 2353 H 204.664 5.76844 -1.11912 0
M  V30 2354 H 206.188 6.10096 -0.248 0
M  V30 2355 H 207.602 5.23093 -2.3462 0
M  V30 2356 H 205.999 5.1203 -3.12962 0
M  V30 2357 H 207.069 3.70676 -3.12614 0
M  V30 2358 N 208.412 0.89855 1.29475 0
M  V30 2359 C 209.359 0.373819 2.27753 0
M  V30 2360 C 210.329 -0.543444 1.56958 0
M  V30 2361 O 211.514 -0.468934 1.84948 0
M  V30 2362 C 208.654 -0.393648 3.42848 0
M  V30 2363 C 207.767 0.554379 4.28428 0
M  V30 2364 C 206.902 -0.230026 5.30702 0
M  V30 2365 C 205.941 0.712599 6.07938 0
M  V30 2366 N 205.078 -0.0373283 7.0209 0
M  V30 2367 H 209.918 1.21699 2.72017 0
M  V30 2368 H 207.455 0.611456 1.33789 0
M  V30 2369 H 209.413 -0.85466 4.08352 0
M  V30 2370 H 208.043 -1.20128 2.99615 0
M  V30 2371 H 207.095 1.13391 3.63107 0
M  V30 2372 H 208.407 1.27597 4.82204 0
M  V30 2373 H 207.561 -0.752288 6.02018 0
M  V30 2374 H 206.3 -0.984758 4.77654 0
M  V30 2375 H 205.305 1.24637 5.35486 0
M  V30 2376 H 206.53 1.46664 6.63074 0
M  V30 2377 H 204.476 -0.774348 6.51414 0
M  V30 2378 H 204.393 0.624374 7.53417 0
M  V30 2379 H 205.661 -0.539891 7.77628 0
M  V30 2380 N 209.89 -1.43072 0.660911 0
M  V30 2381 C 210.8 -2.34585 -0.0264163 0
M  V30 2382 C 211.816 -1.54316 -0.803898 0
M  V30 2383 O 212.992 -1.86939 -0.749391 0
M  V30 2384 C 210.057 -3.32689 -0.975639 0
M  V30 2385 C 209.118 -4.2886 -0.194236 0
M  V30 2386 C 208.351 -5.22278 -1.09825 0
M  V30 2387 O 208.574 -5.20299 -2.33763 0
M  V30 2388 O 207.508 -5.99228 -0.566513 0
M  V30 2389 H 211.334 -2.94869 0.727034 0
M  V30 2390 H 208.919 -1.43342 0.42111 0
M  V30 2391 H 210.801 -3.92995 -1.52094 0
M  V30 2392 H 209.476 -2.74898 -1.70918 0
M  V30 2393 H 208.383 -3.72011 0.394835 0
M  V30 2394 H 209.716 -4.89655 0.499899 0
M  V30 2395 N 211.368 -0.403325 -1.52352 0
M  V30 2396 C 212.331 0.413051 -2.25447 0
M  V30 2397 C 213.331 0.978513 -1.276 0
M  V30 2398 O 214.521 0.858305 -1.51587 0
M  V30 2399 C 211.653 1.58087 -3.02029 0
M  V30 2400 H 212.846 -0.227094 -2.99039 0
M  V30 2401 H 210.399 -0.155722 -1.55522 0
M  V30 2402 H 211.134 2.25804 -2.32772 0
M  V30 2403 H 210.919 1.18195 -3.73861 0
M  V30 2404 H 212.409 2.1585 -3.57489 0
M  V30 2405 N 212.846 1.57033 -0.133567 0
M  V30 2406 C 214.095 1.94861 0.520768 0
M  V30 2407 C 214.408 1.02012 1.66892 0
M  V30 2408 O 215.614 1.29365 2.38699 0
M  V30 2409 C 214.07 3.46362 0.977809 0
M  V30 2410 C 213.678 4.47773 -0.142674 0
M  V30 2411 C 215.422 3.93083 1.60269 0
M  V30 2412 C 213.329 5.90468 0.331883 0
M  V30 2413 H 212.259 0.727453 0.198315 0
M  V30 2414 H 214.91 1.82227 -0.215759 0
M  V30 2415 H 213.292 3.54282 1.7692 0
M  V30 2416 H 214.466 4.51536 -0.919317 0
M  V30 2417 H 212.781 4.10891 -0.675124 0
M  V30 2418 H 215.378 4.97121 1.96914 0
M  V30 2419 H 215.721 3.33876 2.48662 0
M  V30 2420 H 216.254 3.88025 0.876453 0
M  V30 2421 H 212.993 6.53463 -0.516341 0
M  V30 2422 H 212.513 5.90094 1.07469 0
M  V30 2423 H 214.192 6.42179 0.788332 0
M  V30 2424 N 214.325 -0.140222 1.56975 0
M  V30 2425 C 215.574 -0.850152 1.82908 0
M  V30 2426 C 215.887 -1.82028 0.715892 0
M  V30 2427 O 217.093 -2.57485 0.861016 0
M  V30 2428 C 215.549 -1.5625 3.24213 0
M  V30 2429 C 215.157 -0.63443 4.43485 0
M  V30 2430 C 216.901 -2.25881 3.59413 0
M  V30 2431 C 214.808 -1.34879 5.75814 0
M  V30 2432 H 213.738 -0.321221 0.682153 0
M  V30 2433 H 216.389 -0.102874 1.83211 0
M  V30 2434 H 214.771 -2.35565 3.18316 0
M  V30 2435 H 215.945 0.12398 4.60633 0
M  V30 2436 H 214.26 -0.0461836 4.16374 0
M  V30 2437 H 216.857 -2.79978 4.5554 0
M  V30 2438 H 217.2 -3.02693 2.85802 0
M  V30 2439 H 217.733 -1.53477 3.67001 0
M  V30 2440 H 214.472 -0.622385 6.52539 0
M  V30 2441 H 213.992 -2.07974 5.6259 0
M  V30 2442 H 215.671 -1.88784 6.18845 0
M  V30 2443 N 215.803 -1.52179 -0.40978 0
M  V30 2444 C 217.028 -1.70347 -1.18308 0
M  V30 2445 C 217.453 -0.411887 -1.83535 0
M  V30 2446 O 216.811 0.630587 -1.6998 0
M  V30 2447 C 216.859 -2.83977 -2.22238 0
M  V30 2448 O 215.963 -2.495 -3.28365 0
M  V30 2449 H 215.304 -0.567103 -0.345384 0
M  V30 2450 H 217.834 -1.98879 -0.480445 0
M  V30 2451 H 217.844 -3.0887 -2.66577 0
M  V30 2452 H 216.519 -3.77685 -1.74146 0
M  V30 2453 H 215.096 -2.35277 -2.89308 0
M  V30 2454 N 217.281 0.66697 -1.42791 0
M  V30 2455 C 218.53 1.42278 -1.42968 0
M  V30 2456 C 218.843 1.9553 -0.0524489 0
M  V30 2457 O 220.049 2.71414 0.068363 0
M  V30 2458 C 218.505 2.57418 -2.51524 0
M  V30 2459 C 218.113 2.10832 -3.9529 0
M  V30 2460 C 219.857 3.34878 -2.60877 0
M  V30 2461 C 217.764 3.23101 -4.95338 0
M  V30 2462 H 216.694 0.534533 -0.531781 0
M  V30 2463 H 219.345 0.721302 -1.68729 0
M  V30 2464 H 217.727 3.29971 -2.18941 0
M  V30 2465 H 218.901 1.4538 -4.37266 0
M  V30 2466 H 217.216 1.46289 -3.89857 0
M  V30 2467 H 219.813 4.18505 -3.32802 0
M  V30 2468 H 220.156 3.81993 -1.6549 0
M  V30 2469 H 220.689 2.69398 -2.92693 0
M  V30 2470 H 217.428 2.80969 -5.9223 0
M  V30 2471 H 216.948 3.87309 -4.57987 0
M  V30 2472 H 218.627 3.88447 -5.17415 0
M  V30 2473 N 218.759 1.29093 0.90403 0
M  V30 2474 C 220.175 1.07011 1.1841 0
M  V30 2475 C 220.375 -0.181358 2.00682 0
M  V30 2476 O 219.431 -0.880331 2.36657 0
M  V30 2477 C 220.744 2.32311 1.90924 0
M  V30 2478 C 222.292 2.37587 2.03768 0
M  V30 2479 C 222.767 3.62679 2.79693 0
M  V30 2480 N 224.258 3.63376 2.87249 0
M  V30 2481 C 224.993 4.56848 3.46522 0
M  V30 2482 N 224.489 5.60648 4.06996 0
M  V30 2483 N 226.282 4.44426 3.44154 0
M  V30 2484 H 218.433 2.09412 0.354993 0
M  V30 2485 H 220.696 0.922181 0.219742 0
M  V30 2486 H 220.402 3.23536 1.37905 0
M  V30 2487 H 220.276 2.39483 2.91424 0
M  V30 2488 H 222.663 1.46853 2.55965 0
M  V30 2489 H 222.744 2.34403 1.02415 0
M  V30 2490 H 222.388 4.53762 2.28173 0
M  V30 2491 H 222.318 3.63119 3.81381 0
M  V30 2492 H 224.809 2.88321 2.44293 0
M  V30 2493 H 225.122 6.28101 4.50232 0
M  V30 2494 H 223.467 5.64463 4.05471 0
M  V30 2495 H 226.658 3.62529 2.96126 0
M  V30 2496 H 226.831 5.17457 3.90054 0
M  V30 2497 N 220.237 -1.11381 1.11499 0
M  V30 2498 C 221.486 -1.82494 0.858993 0
M  V30 2499 C 221.799 -1.85605 -0.617278 0
M  V30 2500 O 223.005 -2.52824 -0.989552 0
M  V30 2501 C 221.461 -3.27745 1.48699 0
M  V30 2502 C 221.069 -3.32961 2.99735 0
M  V30 2503 C 222.813 -4.03754 1.31085 0
M  V30 2504 C 220.72 -4.72612 3.55516 0
M  V30 2505 H 219.65 -0.683802 0.317696 0
M  V30 2506 H 222.301 -1.25331 1.34031 0
M  V30 2507 H 220.683 -3.84844 0.933339 0
M  V30 2508 H 221.857 -2.85741 3.61509 0
M  V30 2509 H 220.172 -2.70433 3.16631 0
M  V30 2510 H 222.769 -5.06891 1.70192 0
M  V30 2511 H 223.112 -4.15527 0.253496 0
M  V30 2512 H 223.645 -3.53043 1.83318 0
M  V30 2513 H 220.384 -4.66036 4.60967 0
M  V30 2514 H 219.904 -5.2024 2.98513 0
M  V30 2515 H 221.583 -5.4157 3.53992 0
M  V30 2516 N 221.715 -0.905404 -1.28997 0
M  V30 2517 C 222.625 -0.392246 -2.31298 0
M  V30 2518 C 223.641 0.515889 -1.66176 0
M  V30 2519 O 224.817 0.404093 -1.97304 0
M  V30 2520 C 221.882 0.36686 -3.44754 0
M  V30 2521 C 220.943 -0.573485 -4.25452 0
M  V30 2522 C 220.176 0.149488 -5.33491 0
M  V30 2523 O 220.399 1.37255 -5.5364 0
M  V30 2524 O 219.333 -0.510919 -5.99728 0
M  V30 2525 H 223.159 -1.2411 -2.77183 0
M  V30 2526 H 220.744 -0.669926 -1.33538 0
M  V30 2527 H 222.626 0.795907 -4.13816 0
M  V30 2528 H 221.301 1.19169 -3.00966 0
M  V30 2529 H 220.208 -1.05176 -3.59011 0
M  V30 2530 H 221.541 -1.36489 -4.72897 0
M  V30 2531 N 223.193 1.4272 -0.668489 0
M  V30 2532 C 224.14 2.30796 0.0137489 0
M  V30 2533 C 225.11 1.4561 0.799177 0
M  V30 2534 O 226.295 1.74453 0.772702 0
M  V30 2535 C 223.435 3.31377 0.963507 0
M  V30 2536 C 222.548 4.31655 0.172569 0
M  V30 2537 C 221.683 5.19312 1.1175 0
M  V30 2538 C 220.722 6.11274 0.317886 0
M  V30 2539 N 219.859 6.91504 1.2152 0
M  V30 2540 H 224.699 2.88585 -0.743161 0
M  V30 2541 H 222.236 1.42154 -0.378226 0
M  V30 2542 H 224.194 3.88214 1.52792 0
M  V30 2543 H 222.824 2.75202 1.68712 0
M  V30 2544 H 221.876 3.76988 -0.508374 0
M  V30 2545 H 223.188 4.96779 -0.448527 0
M  V30 2546 H 222.342 5.80851 1.75206 0
M  V30 2547 H 221.081 4.5435 1.77249 0
M  V30 2548 H 220.086 5.48809 -0.329918 0
M  V30 2549 H 221.311 6.78283 -0.332917 0
M  V30 2550 H 219.257 6.29176 1.85671 0
M  V30 2551 H 219.174 7.53209 0.649036 0
M  V30 2552 H 220.442 7.57535 1.83742 0
M  V30 2553 N 224.671 0.411399 1.52136 0
M  V30 2554 C 225.917 -0.163888 2.02137 0
M  V30 2555 C 226.25 -1.44597 1.29636 0
M  V30 2556 O 225.525 -1.90272 0.403353 0
M  V30 2557 C 225.808 -0.40927 3.57767 0
M  V30 2558 C 225.661 0.889643 4.40914 0
M  V30 2559 C 226.98 -1.19042 4.23694 0
M  V30 2560 H 224.099 -0.0580896 0.734707 0
M  V30 2561 H 226.741 0.54531 1.82007 0
M  V30 2562 H 224.891 -1.0134 3.7505 0
M  V30 2563 H 226.563 1.52575 4.35337 0
M  V30 2564 H 224.806 1.50011 4.07037 0
M  V30 2565 H 225.477 0.672314 5.4789 0
M  V30 2566 H 227.953 -0.678942 4.10524 0
M  V30 2567 H 226.829 -1.33086 5.32522 0
M  V30 2568 H 227.09 -2.21166 3.82803 0
M  V30 2569 N 226.149 -1.5696 0.141893 0
M  V30 2570 C 227.079 -2.19516 -0.795936 0
M  V30 2571 C 228.06 -1.14187 -1.26077 0
M  V30 2572 O 229.245 -1.42511 -1.31925 0
M  V30 2573 C 226.375 -2.81272 -2.03723 0
M  V30 2574 C 225.329 -3.92384 -1.70936 0
M  V30 2575 C 224.655 -4.41052 -3.02287 0
M  V30 2576 C 225.955 -5.13403 -0.959954 0
M  V30 2577 H 227.649 -2.98138 -0.274596 0
M  V30 2578 H 225.195 -1.43406 -0.130636 0
M  V30 2579 H 227.148 -3.237 -2.69808 0
M  V30 2580 H 225.872 -1.99973 -2.58221 0
M  V30 2581 H 224.531 -3.50566 -1.07232 0
M  V30 2582 H 224.179 -3.56582 -3.54765 0
M  V30 2583 H 223.879 -5.15993 -2.81114 0
M  V30 2584 H 225.403 -4.86146 -3.69451 0
M  V30 2585 H 226.817 -5.52706 -1.52279 0
M  V30 2586 H 225.214 -5.94073 -0.848357 0
M  V30 2587 H 226.284 -4.84875 0.0492434 0
M  V30 2588 N 227.627 0.131896 -1.57047 0
M  V30 2589 C 228.852 0.860418 -1.8871 0
M  V30 2590 C 229.277 1.73251 -0.73251 0
M  V30 2591 O 228.635 1.785 0.317429 0
M  V30 2592 C 228.683 1.68047 -3.19049 0
M  V30 2593 O 227.787 2.7862 -3.04047 0
M  V30 2594 H 227.128 0.238743 -0.619595 0
M  V30 2595 H 229.658 0.118169 -2.04258 0
M  V30 2596 H 229.668 2.07238 -3.51449 0
M  V30 2597 H 228.343 1.04018 -4.02682 0
M  V30 2598 H 226.92 2.42726 -2.83088 0
M  V30 2599 N 229.106 1.52395 0.401703 0
M  V30 2600 C 230.053 1.76268 1.48991 0
M  V30 2601 C 231.023 0.605386 1.54675 0
M  V30 2602 O 232.208 0.843742 1.7113 0
M  V30 2603 C 229.348 1.92592 2.86361 0
M  V30 2604 C 228.461 3.20259 2.89928 0
M  V30 2605 C 227.596 3.26972 4.18644 0
M  V30 2606 C 226.635 4.48812 4.16214 0
M  V30 2607 N 225.772 4.52877 5.36514 0
M  V30 2608 H 230.612 2.6914 1.27935 0
M  V30 2609 H 228.149 1.33355 0.620871 0
M  V30 2610 H 230.107 2.0004 3.66115 0
M  V30 2611 H 228.737 1.03093 3.05895 0
M  V30 2612 H 227.789 3.21945 2.02621 0
M  V30 2613 H 229.101 4.10056 2.83999 0
M  V30 2614 H 228.255 3.33533 5.06794 0
M  V30 2615 H 226.994 2.35126 4.27278 0
M  V30 2616 H 225.999 4.4239 3.26453 0
M  V30 2617 H 227.224 5.41961 4.09213 0
M  V30 2618 H 225.17 3.63917 5.45802 0
M  V30 2619 H 225.087 5.36529 5.32609 0
M  V30 2620 H 226.355 4.63676 6.26597 0
M  V30 2621 N 230.584 -0.659388 1.43143 0
M  V30 2622 C 231.494 -1.80167 1.50256 0
M  V30 2623 C 232.51 -1.69571 0.390106 0
M  V30 2624 O 233.686 -1.90849 0.643319 0
M  V30 2625 C 230.751 -3.16409 1.41725 0
M  V30 2626 C 229.812 -3.38848 2.63591 0
M  V30 2627 C 229.045 -4.68591 2.55458 0
M  V30 2628 O 229.268 -5.47532 1.59891 0
M  V30 2629 O 228.202 -4.92614 3.45854 0
M  V30 2630 H 232.028 -1.77121 2.46702 0
M  V30 2631 H 229.613 -0.817092 1.25076 0
M  V30 2632 H 231.495 -3.9768 1.39387 0
M  V30 2633 H 230.17 -3.20059 0.484118 0
M  V30 2634 H 229.077 -2.57366 2.71502 0
M  V30 2635 H 230.41 -3.4004 3.55856 0
M  V30 2636 N 232.062 -1.29571 -0.897171 0
M  V30 2637 C 232.972 -1.16808 -2.03453 0
M  V30 2638 C 233.988 -0.0907471 -1.73763 0
M  V30 2639 O 235.164 -0.303312 -1.99103 0
M  V30 2640 C 232.229 -0.848264 -3.36163 0
M  V30 2641 C 231.29 -2.0097 -3.79354 0
M  V30 2642 C 230.523 -1.70505 -5.05731 0
M  V30 2643 O 230.746 -0.62718 -5.66941 0
M  V30 2644 O 229.68 -2.5538 -5.45036 0
M  V30 2645 H 233.506 -2.12325 -2.17144 0
M  V30 2646 H 231.091 -1.09047 -1.02123 0
M  V30 2647 H 232.973 -0.684581 -4.15802 0
M  V30 2648 H 231.648 0.0771071 -3.23608 0
M  V30 2649 H 230.555 -2.22863 -3.00471 0
M  V30 2650 H 231.888 -2.91636 -3.96496 0
M  V30 2651 N 233.54 1.10788 -1.12088 0
M  V30 2652 C 234.789 1.82036 -0.868659 0
M  V30 2653 C 235.102 1.85929 0.607426 0
M  V30 2654 O 236.308 2.53346 0.97613 0
M  V30 2655 C 234.764 3.26951 -1.50435 0
M  V30 2656 C 234.372 3.31367 -3.01496 0
M  V30 2657 C 236.116 4.03053 -1.33225 0
M  V30 2658 C 234.023 4.7072 -3.58017 0
M  V30 2659 H 232.953 0.682108 -0.321318 0
M  V30 2660 H 235.604 1.24618 -1.34694 0
M  V30 2661 H 233.986 3.84343 -0.953735 0
M  V30 2662 H 235.16 2.83819 -3.6302 0
M  V30 2663 H 233.475 2.6875 -3.18061 0
M  V30 2664 H 236.072 5.05981 -1.72878 0
M  V30 2665 H 236.415 4.15387 -0.275529 0
M  V30 2666 H 236.948 3.52066 -1.85188 0
M  V30 2667 H 233.687 4.63585 -4.63432 0
M  V30 2668 H 233.207 5.1865 -3.01268 0
M  V30 2669 H 234.886 5.39685 -3.56859 0
M  V30 2670 N 235.018 0.912232 1.28515 0
M  V30 2671 C 235.948 0.416403 2.29757 0
M  V30 2672 C 236.929 -0.515194 1.6211 0
M  V30 2673 O 238.114 -0.423253 1.89532 0
M  V30 2674 C 235.244 -0.34572 3.45575 0
M  V30 2675 C 234.198 0.496599 4.25109 0
M  V30 2676 C 233.524 -0.393771 5.33248 0
M  V30 2677 C 234.824 1.75307 4.92001 0
M  V30 2678 H 236.518 1.26249 2.7148 0
M  V30 2679 H 234.064 0.608515 1.30511 0
M  V30 2680 H 236.017 -0.703422 4.15488 0
M  V30 2681 H 234.741 -1.2257 3.02728 0
M  V30 2682 H 233.4 0.8368 3.56922 0
M  V30 2683 H 233.048 -1.27225 4.86644 0
M  V30 2684 H 232.748 0.166209 5.87365 0
M  V30 2685 H 234.272 -0.747389 6.06009 0
M  V30 2686 H 235.686 1.46437 5.54283 0
M  V30 2687 H 234.083 2.25534 5.56106 0
M  V30 2688 H 235.153 2.48176 4.16577 0
M  V30 2689 N 236.496 -1.42363 0.676048 0
M  V30 2690 C 237.406 -2.346 -0.00153389 0
M  V30 2691 C 238.422 -1.5516 -0.787485 0
M  V30 2692 O 239.598 -1.87723 -0.729521 0
M  V30 2693 C 236.663 -3.33705 -0.940298 0
M  V30 2694 C 235.724 -4.29042 -0.148739 0
M  V30 2695 C 234.957 -5.23413 -1.04279 0
M  V30 2696 O 235.18 -5.22749 -2.28232 0
M  V30 2697 O 234.114 -5.99795 -0.502925 0
M  V30 2698 H 237.94 -2.94082 0.758268 0
M  V30 2699 H 235.525 -1.42888 0.436289 0
M  V30 2700 H 237.407 -3.94586 -1.47917 0
M  V30 2701 H 236.082 -2.76695 -1.67993 0
M  V30 2702 H 234.989 -3.71571 0.43427 0
M  V30 2703 H 236.322 -4.89097 0.551805 0
M  V30 2704 N 237.974 -0.419461 -1.51915 0
M  V30 2705 C 239.39 -0.0708431 -1.59443 0
M  V30 2706 C 239.59 1.41796 -1.43164 0
M  V30 2707 O 238.646 2.18596 -1.26381 0
M  V30 2708 C 239.959 -0.574991 -2.95151 0
M  V30 2709 C 241.507 -0.533867 -3.08413 0
M  V30 2710 C 241.982 -1.01469 -4.46618 0
M  V30 2711 N 243.473 -0.971939 -4.52888 0
M  V30 2712 C 244.208 -1.31505 -5.58116 0
M  V30 2713 N 243.704 -1.73014 -6.70849 0
M  V30 2714 N 245.497 -1.23436 -5.48379 0
M  V30 2715 H 237.648 -1.38836 -1.60743 0
M  V30 2716 H 239.911 -0.570998 -0.756747 0
M  V30 2717 H 239.617 -1.61597 -3.12377 0
M  V30 2718 H 239.491 0.00979777 -3.77199 0
M  V30 2719 H 241.878 0.498086 -2.90866 0
M  V30 2720 H 241.959 -1.15484 -2.28248 0
M  V30 2721 H 241.603 -2.04502 -4.6491 0
M  V30 2722 H 241.533 -0.370433 -5.25295 0
M  V30 2723 H 244.024 -0.666893 -3.71969 0
M  V30 2724 H 244.337 -1.97479 -7.47143 0
M  V30 2725 H 242.682 -1.76926 -6.72103 0
M  V30 2726 H 245.873 -0.908869 -4.59192 0
M  V30 2727 H 246.046 -1.50506 -6.30279 0
M  V30 2728 N 239.452 1.56882 -0.150215 0
M  V30 2729 C 240.682 2.00302 0.506213 0
M  V30 2730 C 241.09 1.02934 1.58749 0
M  V30 2731 O 240.433 0.0188384 1.8369 0
M  V30 2732 C 240.495 3.40156 1.16337 0
M  V30 2733 C 240.159 4.56439 0.226311 0
M  V30 2734 C 241.156 5.17012 -0.547265 0
M  V30 2735 C 238.841 5.02136 0.128279 0
M  V30 2736 C 240.835 6.21693 -1.40629 0
M  V30 2737 C 238.522 6.06672 -0.734345 0
M  V30 2738 C 239.52 6.6632 -1.50023 0
M  V30 2739 O 239.208 7.68831 -2.34848 0
M  V30 2740 H 238.94 0.662182 0.135984 0
M  V30 2741 H 241.494 2.03961 -0.242746 0
M  V30 2742 H 239.724 3.33346 1.96004 0
M  V30 2743 H 241.413 3.67663 1.71985 0
M  V30 2744 H 242.179 4.82603 -0.48158 0
M  V30 2745 H 238.058 4.55435 0.714157 0
M  V30 2746 H 241.602 6.68179 -2.00455 0
M  V30 2747 H 237.499 6.40507 -0.801309 0
M  V30 2748 H 238.267 7.86065 -2.28131 0
M  V30 2749 N 240.93 -0.123565 1.57115 0
M  V30 2750 C 241.86 -1.15309 2.03042 0
M  V30 2751 C 242.841 -1.43454 0.914061 0
M  V30 2752 O 244.026 -1.53973 1.18347 0
M  V30 2753 C 241.156 -2.48043 2.43089 0
M  V30 2754 C 240.11 -2.3437 3.58127 0
M  V30 2755 C 239.436 -3.72026 3.84059 0
M  V30 2756 C 240.736 -1.80804 4.90007 0
M  V30 2757 H 242.43 -0.771102 2.893 0
M  V30 2758 H 239.976 -0.369479 1.39179 0
M  V30 2759 H 241.929 -3.20311 2.73823 0
M  V30 2760 H 240.653 -2.88122 1.53796 0
M  V30 2761 H 239.312 -1.64551 3.27595 0
M  V30 2762 H 238.96 -4.09582 2.91979 0
M  V30 2763 H 238.66 -3.63732 4.6149 0
M  V30 2764 H 240.184 -4.45806 4.1724 0
M  V30 2765 H 241.598 -2.42886 5.19307 0
M  V30 2766 H 239.995 -1.83343 5.71407 0
M  V30 2767 H 241.065 -0.76528 4.78823 0
M  V30 2768 N 242.408 -1.52605 -0.393616 0
M  V30 2769 C 243.356 -1.77688 -1.50099 0
M  V30 2770 C 244.35 -0.644615 -1.56656 0
M  V30 2771 O 245.556 -0.826997 -1.59877 0
M  V30 2772 H 241.931 -0.562159 -0.499481 0
M  V30 2773 H 243.902 -2.7043 -1.26135 0
M  V30 2774 C 242.651 -1.95858 -2.87289 0
M  V30 2775 H 241.974 -2.8241 -2.82992 0
M  V30 2776 H 243.414 -2.174 -3.64024 0
M  V30 2777 C 241.873 -0.729848 -3.28899 0
M  V30 2778 O 242.403 0.0949217 -4.01588 0
M  V30 2779 N 240.609 -0.561283 -2.85128 0
M  V30 2780 H 240.156 -1.23357 -2.26143 0
M  V30 2781 H 240.114 0.2595 -3.13327 0
M  V30 2782 N 243.887 0.651787 -1.4349 0
M  V30 2783 C 244.819 1.77725 -1.44729 0
M  V30 2784 C 245.832 1.59141 -0.343231 0
M  V30 2785 O 247.021 1.67835 -0.607751 0
M  V30 2786 C 244.121 3.15172 -1.24579 0
M  V30 2787 C 243.294 3.60402 -2.47849 0
M  V30 2788 C 242.353 4.76656 -2.22902 0
M  V30 2789 O 241.379 4.86022 -2.96263 0
M  V30 2790 N 242.581 5.66958 -1.24656 0
M  V30 2791 H 245.346 1.77141 -2.41746 0
M  V30 2792 H 242.907 0.835678 -1.38665 0
M  V30 2793 H 244.899 3.90634 -1.0577 0
M  V30 2794 H 243.469 3.1052 -0.360015 0
M  V30 2795 H 242.689 2.75369 -2.82073 0
M  V30 2796 H 243.977 3.87368 -3.29884 0
M  V30 2797 H 243.375 5.62065 -0.640265 0
M  V30 2798 H 241.932 6.42135 -1.1183 0
M  V30 2799 N 245.365 1.30045 0.890287 0
M  V30 2800 C 246.593 1.21472 1.67487 0
M  V30 2801 C 247.008 -0.223241 1.87476 0
M  V30 2802 O 246.365 -1.14828 1.41847 0
M  V30 2803 C 246.416 1.93394 3.05419 0
M  V30 2804 O 246.137 3.31576 2.86337 0
M  V30 2805 C 247.638 1.91414 3.99844 0
M  V30 2806 H 244.858 0.420604 0.522813 0
M  V30 2807 H 247.402 1.7158 1.11268 0
M  V30 2808 H 245.557 1.47099 3.58386 0
M  V30 2809 H 245.971 3.67929 3.73802 0
M  V30 2810 H 247.445 2.46285 4.94012 0
M  V30 2811 H 247.922 0.891833 4.3005 0
M  V30 2812 H 248.528 2.37496 3.52811 0
M  V30 2813 N 246.843 -1.10192 1.12674 0
M  V30 2814 C 248.09 -1.82205 0.883606 0
M  V30 2815 C 248.418 -1.8532 -0.590492 0
M  V30 2816 O 247.673 -1.31137 -1.45264 0
M  V30 2817 C 247.972 -3.28552 1.4067 0
M  V30 2818 C 247.638 -3.45582 2.89627 0
M  V30 2819 C 246.3 -3.49937 3.30299 0
M  V30 2820 C 248.652 -3.50768 3.85501 0
M  V30 2821 C 245.98 -3.57049 4.65546 0
M  V30 2822 C 248.332 -3.59414 5.20581 0
M  V30 2823 C 246.996 -3.62034 5.60792 0
M  V30 2824 H 246.266 -0.666735 0.323334 0
M  V30 2825 H 248.913 -1.29868 1.40736 0
M  V30 2826 H 247.218 -3.83473 0.80347 0
M  V30 2827 H 248.915 -3.82788 1.19475 0
M  V30 2828 H 245.505 -3.42871 2.57172 0
M  V30 2829 H 249.689 -3.46651 3.55171 0
M  V30 2830 H 244.945 -3.57361 4.96088 0
M  V30 2831 H 249.119 -3.62371 5.94693 0
M  V30 2832 H 246.746 -3.67298 6.6558 0
M  V30 2833 N 248.321 -0.919034 -1.28029 0
M  V30 2834 C 249.568 -0.554934 -1.94748 0
M  V30 2835 C 249.896 0.90231 -1.72304 0
M  V30 2836 O 249.151 1.65767 -1.04018 0
M  V30 2837 C 249.45 -0.816855 -3.4794 0
M  V30 2838 C 249.116 -2.25448 -3.90492 0
M  V30 2839 C 247.778 -2.64752 -4.01821 0
M  V30 2840 C 250.13 -3.18977 -4.12193 0
M  V30 2841 C 247.458 -3.96727 -4.32232 0
M  V30 2842 C 249.81 -4.50523 -4.44086 0
M  V30 2843 C 248.474 -4.89673 -4.53626 0
M  V30 2844 H 247.744 -0.203065 -0.712633 0
M  V30 2845 H 250.391 -1.16136 -1.52265 0
M  V30 2846 H 248.696 -0.127677 -3.91592 0
M  V30 2847 H 250.393 -0.514238 -3.97689 0
M  V30 2848 H 246.983 -1.93952 -3.82205 0
M  V30 2849 H 251.167 -2.89817 -4.02889 0
M  V30 2850 H 246.423 -4.26754 -4.37825 0
M  V30 2851 H 250.597 -5.23005 -4.59825 0
M  V30 2852 H 248.224 -5.91969 -4.76946 0
M  V30 2853 N 249.799 1.42003 -0.683588 0
M  V30 2854 C 251.047 2.01015 -0.209101 0
M  V30 2855 C 251.368 1.54365 1.19149 0
M  V30 2856 O 250.638 0.769083 1.80172 0
M  V30 2857 H 249.218 0.743294 -0.074315 0
M  V30 2858 H 251.88 1.73798 -0.882066 0
M  V30 2859 H 250.976 3.11343 -0.2172 0
M  V30 2860 N 251.277 0.427512 1.51691 0
M  V30 2861 C 252.227 -0.406604 2.24345 0
M  V30 2862 C 253.211 -0.998276 1.26187 0
M  V30 2863 O 254.403 -0.918045 1.51331 0
M  V30 2864 C 251.532 -1.51266 3.08177 0
M  V30 2865 C 250.618 -0.930868 4.13758 0
M  V30 2866 N 251.009 -0.0773552 5.05741 0
M  V30 2867 C 249.307 -1.19948 4.29568 0
M  V30 2868 C 250.008 0.248344 5.8117 0
M  V30 2869 N 248.984 -0.365535 5.4237 0
M  V30 2870 H 252.786 0.251581 2.92821 0
M  V30 2871 H 250.3 0.239003 1.60632 0
M  V30 2872 H 252.297 -2.123 3.58796 0
M  V30 2873 H 250.957 -2.17328 2.41244 0
M  V30 2874 H 251.968 0.288351 5.17097 0
M  V30 2875 H 248.645 -1.85832 3.73862 0
M  V30 2876 H 250.035 0.942286 6.6526 0
M  V30 2877 N 252.755 -1.56801 0.158532 0
M  V30 2878 C 254.003 -1.96102 -0.488712 0
M  V30 2879 C 254.324 -1.04498 -1.64636 0
M  V30 2880 O 253.594 -0.108783 -1.95598 0
M  V30 2881 H 252.174 -0.724102 -0.183535 0
M  V30 2882 H 254.836 -1.93457 0.236728 0
M  V30 2883 H 253.932 -3.00097 -0.857219 0
M  V30 2884 N 254.233 0.115231 -1.57178 0
M  V30 2885 C 255.463 0.835224 -1.88964 0
M  V30 2886 C 255.871 1.73774 -0.74829 0
M  V30 2887 O 255.214 1.81401 0.289739 0
M  V30 2888 C 255.276 1.7178 -3.15804 0
M  V30 2889 C 254.94 0.989198 -4.46166 0
M  V30 2890 C 255.937 0.328263 -5.18863 0
M  V30 2891 C 253.622 0.969256 -4.9286 0
M  V30 2892 C 255.616 -0.342873 -6.36477 0
M  V30 2893 C 253.303 0.294324 -6.10391 0
M  V30 2894 C 254.301 -0.360582 -6.82048 0
M  V30 2895 O 253.989 -1.02474 -7.97342 0
M  V30 2896 H 253.721 0.245197 -0.629964 0
M  V30 2897 H 256.275 0.10303 -2.05141 0
M  V30 2898 H 254.505 2.49173 -2.95719 0
M  V30 2899 H 256.194 2.31255 -3.33581 0
M  V30 2900 H 256.96 0.335263 -4.8384 0
M  V30 2901 H 252.839 1.46844 -4.36987 0
M  V30 2902 H 256.383 -0.854629 -6.92345 0
M  V30 2903 H 252.28 0.285099 -6.4487 0
M  V30 2904 H 253.048 -0.929594 -8.13204 0
M  V30 2905 N 255.711 1.52812 0.385517 0
M  V30 2906 C 256.941 1.71658 1.14966 0
M  V30 2907 C 257.349 0.436253 1.84102 0
M  V30 2908 O 256.692 -0.599313 1.73649 0
M  V30 2909 C 256.754 2.81309 2.23843 0
M  V30 2910 C 256.418 4.22313 1.74644 0
M  V30 2911 C 257.415 5.05352 1.22129 0
M  V30 2912 C 255.1 4.68648 1.80761 0
M  V30 2913 C 257.094 6.32807 0.763838 0
M  V30 2914 C 254.781 5.96086 1.34627 0
M  V30 2915 C 255.779 6.77996 0.825264 0
M  V30 2916 O 255.467 8.03045 0.370669 0
M  V30 2917 H 255.199 0.578022 0.350523 0
M  V30 2918 H 257.753 2.00263 0.456509 0
M  V30 2919 H 255.983 2.48133 2.96592 0
M  V30 2920 H 257.672 2.88524 2.85497 0
M  V30 2921 H 258.438 4.70736 1.16758 0
M  V30 2922 H 254.317 4.04979 2.20256 0
M  V30 2923 H 257.861 6.96689 0.356494 0
M  V30 2924 H 253.758 6.30205 1.39686 0
M  V30 2925 H 254.526 8.17021 0.491829 0
M  V30 2926 N 257.189 -0.644168 1.43834 0
M  V30 2927 C 258.437 -1.40117 1.45642 0
M  V30 2928 C 258.758 -1.94814 0.0852413 0
M  V30 2929 O 258.028 -1.74988 -0.880688 0
M  V30 2930 H 256.608 -0.52005 0.536243 0
M  V30 2931 H 259.27 -0.7591 1.7951 0
M  V30 2932 H 258.366 -2.23902 2.17427 0
M  V30 2933 N 258.668 -1.30515 -0.883378 0
M  V30 2934 C 259.914 -1.19607 -1.63774 0
M  V30 2935 C 260.247 0.248314 -1.92606 0
M  V30 2936 O 259.522 1.17742 -1.54813 0
M  V30 2937 C 259.805 -2.02669 -2.97653 0
M  V30 2938 C 259.658 -3.55335 -2.75784 0
M  V30 2939 C 260.977 -1.86573 -3.98596 0
M  V30 2940 H 258.096 -0.435856 -0.594305 0
M  V30 2941 H 260.738 -1.60165 -1.02212 0
M  V30 2942 H 258.888 -1.68208 -3.50197 0
M  V30 2943 H 260.56 -3.99863 -2.30016 0
M  V30 2944 H 258.803 -3.79438 -2.1026 0
M  V30 2945 H 259.474 -4.08745 -3.70988 0
M  V30 2946 H 261.95 -2.16703 -3.55217 0
M  V30 2947 H 260.826 -2.47014 -4.90179 0
M  V30 2948 H 261.087 -0.825321 -4.34328 0
M  V30 2949 N 260.146 1.09593 -1.13257 0
M  V30 2950 C 261.093 2.1618 -0.808381 0
M  V30 2951 C 262.063 1.64517 0.228754 0
M  V30 2952 O 263.248 1.9053 0.101381 0
M  V30 2953 C 260.388 3.43973 -0.278675 0
M  V30 2954 C 259.501 4.09545 -1.37466 0
M  V30 2955 C 258.636 5.25088 -0.803479 0
M  V30 2956 C 257.675 5.82579 -1.87799 0
M  V30 2957 N 256.812 6.89486 -1.32488 0
M  V30 2958 H 261.652 2.43254 -1.72138 0
M  V30 2959 H 259.189 1.19392 -0.859294 0
M  V30 2960 H 261.147 4.17174 0.0465583 0
M  V30 2961 H 259.777 3.17223 0.597459 0
M  V30 2962 H 258.829 3.34226 -1.81652 0
M  V30 2963 H 260.141 4.48307 -2.18684 0
M  V30 2964 H 259.295 6.05178 -0.429427 0
M  V30 2965 H 258.034 4.87684 0.0397956 0
M  V30 2966 H 257.039 5.01152 -2.26113 0
M  V30 2967 H 258.264 6.22045 -2.72463 0
M  V30 2968 H 256.21 6.54064 -0.503575 0
M  V30 2969 H 256.127 7.27007 -2.07355 0
M  V30 2970 H 257.395 7.73336 -0.978336 0
M  V30 2971 N 261.624 0.925811 1.2754 0
M  V30 2972 C 262.852 0.581509 1.9856 0
M  V30 2973 C 263.267 -0.840041 1.69082 0
M  V30 2974 O 262.624 -1.55805 0.950312 0
M  V30 2975 C 262.675 0.795589 3.52637 0
M  V30 2976 O 262.396 2.16121 3.81082 0
M  V30 2977 C 263.897 0.459744 4.4091 0
M  V30 2978 H 261.117 0.220538 0.633722 0
M  V30 2979 H 263.661 1.24232 1.6244 0
M  V30 2980 H 261.816 0.18161 3.86974 0
M  V30 2981 H 262.23 2.2098 4.75676 0
M  V30 2982 H 263.704 0.660244 5.48037 0
M  V30 2983 H 264.181 -0.604625 4.35018 0
M  V30 2984 H 264.787 1.05178 4.12089 0
M  V30 2985 N 263.102 -1.41638 0.69111 0
M  V30 2986 C 264.065 -2.29178 0.0319786 0
M  V30 2987 C 265.065 -1.44153 -0.712496 0
M  V30 2988 O 266.255 -1.65354 -0.548053 0
M  V30 2989 C 263.387 -3.26952 -0.965161 0
M  V30 2990 H 264.58 -2.88959 0.802681 0
M  V30 2991 H 262.133 -1.4955 0.454356 0
M  V30 2992 H 262.868 -2.72142 -1.76378 0
M  V30 2993 H 262.653 -3.89685 -0.434522 0
M  V30 2994 H 264.143 -3.92561 -1.42428 0
M  V30 2995 N 264.58 -0.43555 -1.51462 0
M  V30 2996 C 265.805 0.132627 -2.06976 0
M  V30 2997 C 266.23 1.35848 -1.30104 0
M  V30 2998 O 265.588 1.78112 -0.338493 0
M  V30 2999 C 265.636 0.43523 -3.57964 0
M  V30 3000 O 264.74 1.52198 -3.83288 0
M  V30 3001 H 264.081 0.00265 -0.663995 0
M  V30 3002 H 266.611 -0.616369 -1.95095 0
M  V30 3003 H 266.621 0.686206 -4.02188 0
M  V30 3004 H 265.296 -0.460739 -4.1334 0
M  V30 3005 H 263.873 1.2611 -3.50928 0
M  V30 3006 N 266.058 1.56714 -0.166846 0
M  V30 3007 C 266.988 2.20754 0.760913 0
M  V30 3008 C 267.969 1.16178 1.24244 0
M  V30 3009 O 269.154 1.44592 1.29641 0
M  V30 3010 C 266.284 2.84478 1.99223 0
M  V30 3011 C 265.238 3.95053 1.64672 0
M  V30 3012 C 264.564 4.45805 2.95232 0
M  V30 3013 C 265.864 5.14865 0.878155 0
M  V30 3014 H 267.558 2.98537 0.22713 0
M  V30 3015 H 265.104 1.43596 0.107805 0
M  V30 3016 H 267.057 3.27951 2.64624 0
M  V30 3017 H 265.781 2.04056 2.55007 0
M  V30 3018 H 264.44 3.52228 1.01641 0
M  V30 3019 H 264.088 3.62181 3.49047 0
M  V30 3020 H 263.788 5.204 2.7287 0
M  V30 3021 H 265.312 4.91962 3.6167 0
M  V30 3022 H 266.726 5.55059 1.43466 0
M  V30 3023 H 265.123 5.95348 0.753738 0
M  V30 3024 H 266.193 4.84735 -0.126377 0
M  V30 3025 N 267.536 -0.106894 1.57237 0
M  V30 3026 C 268.784 -0.810921 1.85117 0
M  V30 3027 C 269.105 -1.7984 0.753827 0
M  V30 3028 O 268.375 -1.94649 -0.221056 0
M  V30 3029 H 266.955 -0.302466 0.683025 0
M  V30 3030 H 269.617 -0.0913324 1.94686 0
M  V30 3031 H 268.713 -1.34875 2.81452 0
M  V30 3032 N 269.014 -1.53014 -0.377408 0
M  V30 3033 C 270.244 -1.72265 -1.14054 0
M  V30 3034 C 270.652 -0.44601 -1.83868 0
M  V30 3035 O 269.995 0.590095 -1.73964 0
M  V30 3036 C 270.057 -2.82492 -2.22348 0
M  V30 3037 C 269.721 -4.23233 -1.72402 0
M  V30 3038 C 270.718 -5.05992 -1.19448 0
M  V30 3039 C 268.403 -4.696 -1.78273 0
M  V30 3040 C 270.397 -6.33203 -0.730268 0
M  V30 3041 C 268.084 -5.96792 -1.31464 0
M  V30 3042 C 269.082 -6.78424 -0.789297 0
M  V30 3043 O 268.77 -8.0323 -0.328077 0
M  V30 3044 H 268.502 -0.579873 -0.347453 0
M  V30 3045 H 271.056 -2.00502 -0.445882 0
M  V30 3046 H 269.286 -2.49702 -2.95272 0
M  V30 3047 H 270.975 -2.90034 -2.83963 0
M  V30 3048 H 271.741 -4.71349 -1.14259 0
M  V30 3049 H 267.62 -4.06142 -2.18106 0
M  V30 3050 H 271.164 -6.96868 -0.319542 0
M  V30 3051 H 267.061 -6.30937 -1.36342 0
M  V30 3052 H 267.829 -8.1727 -0.448493 0
M  V30 3053 N 270.492 0.636531 -1.44174 0
M  V30 3054 C 271.739 1.39619 -1.46672 0
M  V30 3055 C 272.067 1.94257 -0.0972691 0
M  V30 3056 O 271.322 1.73768 0.900175 0
M  V30 3057 C 271.621 2.58309 -2.47005 0
M  V30 3058 C 271.287 2.21992 -3.92467 0
M  V30 3059 C 269.949 2.118 -4.32081 0
M  V30 3060 C 272.301 1.9321 -4.84065 0
M  V30 3061 C 269.629 1.71007 -5.61225 0
M  V30 3062 C 271.981 1.53911 -6.13591 0
M  V30 3063 C 270.645 1.42257 -6.52165 0
M  V30 3064 H 269.915 0.510902 -0.536712 0
M  V30 3065 H 272.562 0.722328 -1.77355 0
M  V30 3066 H 270.867 3.30903 -2.09786 0
M  V30 3067 H 272.564 3.16533 -2.46186 0
M  V30 3068 H 269.154 2.30841 -3.61124 0
M  V30 3069 H 273.338 1.99997 -4.54219 0
M  V30 3070 H 268.594 1.60583 -5.89935 0
M  V30 3071 H 272.768 1.30677 -6.8403 0
M  V30 3072 H 270.395 1.10419 -7.52138 0
M  V30 3073 N 271.97 1.30982 0.876444 0
M  V30 3074 C 272.917 1.18085 1.98304 0
M  V30 3075 C 273.887 0.0682263 1.6596 0
M  V30 3076 O 275.072 0.239937 1.89285 0
M  V30 3077 C 272.212 0.887475 3.33493 0
M  V30 3078 C 271.325 2.08281 3.78475 0
M  V30 3079 C 270.46 1.72678 5.0235 0
M  V30 3080 C 269.499 2.88657 5.39762 0
M  V30 3081 N 268.636 2.53292 6.54819 0
M  V30 3082 H 273.476 2.1275 2.08666 0
M  V30 3083 H 271.013 1.05839 1.02159 0
M  V30 3084 H 272.971 0.697961 4.1132 0
M  V30 3085 H 271.601 -0.022315 3.22792 0
M  V30 3086 H 270.653 2.3833 2.96484 0
M  V30 3087 H 271.965 2.95108 4.02135 0
M  V30 3088 H 271.119 1.50151 5.87826 0
M  V30 3089 H 269.858 0.830327 4.8058 0
M  V30 3090 H 268.863 3.1184 4.52809 0
M  V30 3091 H 270.088 3.79002 5.63502 0
M  V30 3092 H 268.034 1.66163 6.34607 0
M  V30 3093 H 267.951 3.3365 6.7839 0
M  V30 3094 H 269.219 2.34143 7.43503 0
M  V30 3095 N 273.449 -1.08991 1.13837 0
M  V30 3096 C 274.396 -2.15748 0.819835 0
M  V30 3097 C 275.366 -1.64636 -0.220026 0
M  V30 3098 O 276.551 -1.90582 -0.0912757 0
M  V30 3099 C 273.691 -3.4382 0.296913 0
M  V30 3100 C 272.804 -4.0881 1.39636 0
M  V30 3101 C 271.939 -5.24655 0.831314 0
M  V30 3102 C 270.978 -5.81575 1.90886 0
M  V30 3103 N 270.115 -6.88774 1.36142 0
M  V30 3104 H 274.955 -2.42338 1.73426 0
M  V30 3105 H 272.492 -1.18935 0.865613 0
M  V30 3106 H 274.45 -4.17193 -0.0244339 0
M  V30 3107 H 273.08 -3.17535 -0.580628 0
M  V30 3108 H 272.132 -3.33258 1.83422 0
M  V30 3109 H 273.444 -4.47141 2.21058 0
M  V30 3110 H 272.598 -6.04942 0.461515 0
M  V30 3111 H 271.337 -4.87698 -0.013932 0
M  V30 3112 H 270.342 -4.99946 2.28767 0
M  V30 3113 H 271.567 -6.20592 2.75758 0
M  V30 3114 H 269.513 -6.53788 0.538254 0
M  V30 3115 H 269.43 -7.25898 2.11208 0
M  V30 3116 H 270.698 -7.72806 1.01933 0
M  V30 3117 N 274.927 -0.932562 -1.27047 0
M  V30 3118 C 276.338 -0.619451 -1.76124 0
M  V30 3119 C 276.689 0.865397 -1.76083 0
M  V30 3120 O 275.814 1.67722 -1.36742 0
M  V30 3121 C 276.409 -1.11771 -3.19832 0
M  V30 3122 C 274.968 -0.855174 -3.66557 0
M  V30 3123 C 274.115 -1.27362 -2.46321 0
M  V30 3124 H 277.066 -1.11181 -1.13245 0
M  V30 3125 H 277.087 -0.46759 -3.77616 0
M  V30 3126 H 276.599 -2.19842 -3.1983 0
M  V30 3127 H 274.7 0.211524 -3.71999 0
M  V30 3128 H 274.813 -1.47613 -4.55793 0
M  V30 3129 H 273.177 -0.692119 -2.45116 0
M  V30 3130 H 273.96 -2.36307 -2.49025 0
M  V30 3131 N 276.405 1.4127 -0.698611 0
M  V30 3132 C 277.335 2.33447 -0.049629 0
M  V30 3133 C 278.316 1.51982 0.763898 0
M  V30 3134 O 279.501 1.80509 0.716257 0
M  V30 3135 C 276.631 3.35828 0.885267 0
M  V30 3136 C 275.585 4.27627 0.178613 0
M  V30 3137 C 274.911 5.20406 1.22807 0
M  V30 3138 C 276.211 5.13459 -0.956933 0
M  V30 3139 H 277.905 2.87966 -0.81951 0
M  V30 3140 H 275.451 1.38461 -0.395538 0
M  V30 3141 H 277.404 3.9924 1.34854 0
M  V30 3142 H 276.128 2.79666 1.68685 0
M  V30 3143 H 274.787 3.65643 -0.26466 0
M  V30 3144 H 274.435 4.60558 2.02226 0
M  V30 3145 H 274.135 5.82661 0.760239 0
M  V30 3146 H 275.659 5.86695 1.69179 0
M  V30 3147 H 277.073 5.70421 -0.573805 0
M  V30 3148 H 275.47 5.8467 -1.35205 0
M  V30 3149 H 276.54 4.50443 -1.79524 0
M  V30 3150 N 277.883 0.443576 1.51229 0
M  V30 3151 C 279.16 -0.181038 1.9476 0
M  V30 3152 C 279.54 -1.59523 1.38259 0
M  V30 3153 O 278.888 -2.2122 0.572198 0
M  V30 3154 C 279.098 -0.152422 3.48667 0
M  V30 3155 C 280.446 -0.354923 4.23114 0
M  V30 3156 O 281.47 -0.230257 3.55455 0
M  V30 3157 O 280.329 -0.603674 5.43156 0
M  V30 3158 H 277.423 -0.1266 0.817252 0
M  V30 3159 H 279.969 0.502004 1.62105 0
M  V30 3160 H 278.741 0.836022 3.82265 0
M  V30 3161 H 278.364 -0.878107 3.87782 0
M  V30 3162 N 279.361 -1.56624 0.175154 0
M  V30 3163 C 280.308 -2.18149 -0.753634 0
M  V30 3164 C 281.278 -1.12265 -1.22417 0
M  V30 3165 O 282.463 -1.40432 -1.29165 0
M  V30 3166 C 279.603 -2.82933 -1.97592 0
M  V30 3167 C 278.716 -4.03289 -1.5486 0
M  V30 3168 C 277.851 -4.55988 -2.72485 0
M  V30 3169 C 276.89 -5.68746 -2.26262 0
M  V30 3170 N 276.027 -6.15938 -3.36994 0
M  V30 3171 H 280.867 -2.9717 -0.222195 0
M  V30 3172 H 278.404 -1.46774 -0.0979422 0
M  V30 3173 H 280.362 -3.18653 -2.69288 0
M  V30 3174 H 278.992 -2.06509 -2.481 0
M  V30 3175 H 278.044 -3.73364 -0.728246 0
M  V30 3176 H 279.356 -4.849 -1.16933 0
M  V30 3177 H 278.51 -4.9391 -3.52332 0
M  V30 3178 H 277.249 -3.73443 -3.13674 0
M  V30 3179 H 276.254 -5.30372 -1.44863 0
M  V30 3180 H 277.479 -6.53095 -1.86127 0
M  V30 3181 H 275.425 -5.36321 -3.77751 0
M  V30 3182 H 275.342 -6.92548 -3.03172 0
M  V30 3183 H 276.61 -6.58511 -4.17114 0
M  V30 3184 N 280.839 0.0985539 -1.57292 0
M  V30 3185 C 281.769 1.12064 -2.04851 0
M  V30 3186 C 282.75 1.41981 -0.936767 0
M  V30 3187 O 283.935 1.52071 -1.20781 0
M  V30 3188 C 281.065 2.44144 -2.47004 0
M  V30 3189 C 280.019 2.28643 -3.6181 0
M  V30 3190 C 279.345 3.65869 -3.89929 0
M  V30 3191 C 280.645 1.72986 -4.92822 0
M  V30 3192 H 282.339 0.724979 -2.9049 0
M  V30 3193 H 279.885 0.34729 -1.39749 0
M  V30 3194 H 281.838 3.15914 -2.78884 0
M  V30 3195 H 280.562 2.85639 -1.5836 0
M  V30 3196 H 279.221 1.59318 -3.30172 0
M  V30 3197 H 278.869 4.04885 -2.98458 0
M  V30 3198 H 278.569 3.56344 -4.67218 0
M  V30 3199 H 280.093 4.39112 -4.2428 0
M  V30 3200 H 281.507 2.34593 -5.23105 0
M  V30 3201 H 279.904 1.74229 -5.74251 0
M  V30 3202 H 280.974 0.689007 -4.7998 0
M  V30 3203 N 282.317 1.53212 0.369288 0
M  V30 3204 C 283.545 1.73119 1.13303 0
M  V30 3205 C 283.96 0.458455 1.83149 0
M  V30 3206 O 283.317 -0.568403 1.73423 0
M  V30 3207 C 283.368 2.89413 2.16616 0
M  V30 3208 O 283.089 4.11761 1.49614 0
M  V30 3209 C 284.59 3.21161 3.05566 0
M  V30 3210 H 281.81 0.579107 0.338934 0
M  V30 3211 H 284.354 1.99942 0.429338 0
M  V30 3212 H 282.509 2.64994 2.82589 0
M  V30 3213 H 282.923 4.76858 2.18419 0
M  V30 3214 H 284.397 4.05949 3.74045 0
M  V30 3215 H 284.874 2.36369 3.70171 0
M  V30 3216 H 285.48 3.47492 2.45213 0
M  V30 3217 N 283.795 -0.628877 1.44509 0
M  V30 3218 C 284.725 -1.75187 1.54376 0
M  V30 3219 C 285.706 -1.65411 0.396618 0
M  V30 3220 O 286.891 -1.84137 0.617031 0
M  V30 3221 C 284.021 -3.13725 1.48976 0
M  V30 3222 C 282.975 -3.38291 2.62189 0
M  V30 3223 C 282.301 -4.76883 2.41841 0
M  V30 3224 C 283.601 -3.30632 4.04326 0
M  V30 3225 H 285.295 -1.67187 2.48373 0
M  V30 3226 H 282.841 -0.802909 1.19538 0
M  V30 3227 H 284.794 -3.92064 1.54478 0
M  V30 3228 H 283.518 -3.22515 0.514961 0
M  V30 3229 H 282.177 -2.62334 2.56079 0
M  V30 3230 H 281.825 -4.82378 1.42548 0
M  V30 3231 H 281.525 -4.94278 3.17747 0
M  V30 3232 H 283.049 -5.57449 2.49165 0
M  V30 3233 H 284.463 -3.98873 4.11793 0
M  V30 3234 H 282.86 -3.59561 4.80454 0
M  V30 3235 H 283.93 -2.28404 4.27738 0
M  V30 3236 N 285.273 -1.31445 -0.869486 0
M  V30 3237 C 286.22 -1.19135 -1.97675 0
M  V30 3238 C 287.19 -0.0770266 -1.65921 0
M  V30 3239 O 288.375 -0.249972 -1.89155 0
M  V30 3240 C 285.515 -0.905149 -3.33018 0
M  V30 3241 C 284.628 -2.10285 -3.77365 0
M  V30 3242 C 283.763 -1.75339 -5.01427 0
M  V30 3243 C 282.802 -2.91515 -5.38224 0
M  V30 3244 N 281.939 -2.56762 -6.53466 0
M  V30 3245 H 286.779 -2.13853 -2.07535 0
M  V30 3246 H 284.316 -1.06379 -1.01597 0
M  V30 3247 H 286.274 -0.719765 -4.10944 0
M  V30 3248 H 284.904 0.00519624 -3.228 0
M  V30 3249 H 283.956 -2.39899 -2.95216 0
M  V30 3250 H 285.268 -2.97237 -4.00564 0
M  V30 3251 H 284.422 -1.53266 -5.87022 0
M  V30 3252 H 283.161 -0.855801 -4.80133 0
M  V30 3253 H 282.166 -3.14237 -4.51149 0
M  V30 3254 H 283.391 -3.81985 -5.61484 0
M  V30 3255 H 281.337 -1.69526 -6.33717 0
M  V30 3256 H 281.254 -3.37243 -6.76612 0
M  V30 3257 H 282.522 -2.38083 -7.42251 0
M  V30 3258 N 286.751 1.08385 -1.14413 0
M  V30 3259 C 287.661 2.18856 -0.844951 0
M  V30 3260 C 288.677 1.73121 0.174668 0
M  V30 3261 O 289.853 2.014 0.00312857 0
M  V30 3262 C 286.918 3.45155 -0.32696 0
M  V30 3263 C 285.979 4.05513 -1.40916 0
M  V30 3264 C 285.212 5.25784 -0.915793 0
M  V30 3265 O 285.435 5.69884 0.242651 0
M  V30 3266 O 284.369 5.77545 -1.69487 0
M  V30 3267 H 288.195 2.46919 -1.76818 0
M  V30 3268 H 285.78 1.17524 -0.922411 0
M  V30 3269 H 287.662 4.21377 -0.0440211 0
M  V30 3270 H 286.337 3.18668 0.568539 0
M  V30 3271 H 285.244 3.30879 -1.74556 0
M  V30 3272 H 286.577 4.3625 -2.27919 0
M  V30 3273 N 288.23 0.939286 1.26551 0
M  V30 3274 C 289.479 0.581601 1.93133 0
M  V30 3275 C 289.792 -0.883224 1.74524 0
M  V30 3276 O 290.998 -1.3502 2.35546 0
M  V30 3277 C 289.454 0.989425 3.46032 0
M  V30 3278 C 289.062 2.47573 3.73379 0
M  V30 3279 C 290.806 0.703544 4.18629 0
M  V30 3280 C 288.713 2.82235 5.19709 0
M  V30 3281 H 287.643 0.213803 0.723052 0
M  V30 3282 H 290.294 1.14167 1.4366 0
M  V30 3283 H 288.676 0.357902 3.94379 0
M  V30 3284 H 289.85 3.15614 3.35744 0
M  V30 3285 H 288.165 2.73471 3.1401 0
M  V30 3286 H 290.762 0.938869 5.26393 0
M  V30 3287 H 291.105 -0.359639 4.14744 0
M  V30 3288 H 291.638 1.2947 3.76141 0
M  V30 3289 H 288.377 3.87509 5.28694 0
M  V30 3290 H 287.897 2.18854 5.58447 0
M  V30 3291 H 289.576 2.70599 5.87695 0
M  V30 3292 N 289.708 -1.40897 0.706093 0
M  V30 3293 C 290.936 -2.05373 0.250887 0
M  V30 3294 C 291.351 -1.53172 -1.10381 0
M  V30 3295 O 290.708 -0.684305 -1.69185 0
M  V30 3296 C 290.759 -3.6088 0.211571 0
M  V30 3297 O 290.48 -4.11153 1.51276 0
M  V30 3298 C 291.981 -4.42517 -0.263346 0
M  V30 3299 H 289.201 -0.66115 0.114552 0
M  V30 3300 H 291.745 -1.80479 0.961635 0
M  V30 3301 H 289.9 -3.84777 -0.450073 0
M  V30 3302 H 290.314 -5.05279 1.40689 0
M  V30 3303 H 291.788 -5.51479 -0.239718 0
M  V30 3304 H 292.265 -4.19396 -1.30397 0
M  V30 3305 H 292.871 -4.23708 0.367677 0
M  V30 3306 N 291.186 -0.45159 -1.50991 0
M  V30 3307 C 292.119 0.398179 -2.24699 0
M  V30 3308 C 293.097 1.01276 -1.27208 0
M  V30 3309 O 294.281 1.05247 -1.56382 0
M  V30 3310 C 291.408 1.55618 -3.00833 0
M  V30 3311 C 290.454 1.0609 -4.13095 0
M  V30 3312 S 291.287 -0.00865136 -5.35499 0
M  V30 3313 C 292.443 1.15369 -6.15175 0
M  V30 3314 H 292.676 -0.227555 -2.96428 0
M  V30 3315 H 290.209 -0.236251 -1.52582 0
M  V30 3316 H 292.167 2.21997 -3.45293 0
M  V30 3317 H 290.828 2.15337 -2.28667 0
M  V30 3318 H 290.021 1.92726 -4.65696 0
M  V30 3319 H 289.623 0.47513 -3.7097 0
M  V30 3320 H 291.915 2.06925 -6.45126 0
M  V30 3321 H 292.858 0.667344 -7.04948 0
M  V30 3322 H 293.266 1.3987 -5.46897 0
M  V30 3323 N 292.664 1.56529 -0.183458 0
M  V30 3324 C 293.594 2.21549 0.737456 0
M  V30 3325 C 294.575 1.17489 1.23005 0
M  V30 3326 O 295.76 1.45959 1.281 0
M  V30 3327 C 292.89 2.86575 1.96194 0
M  V30 3328 C 291.844 3.96778 1.60473 0
M  V30 3329 C 291.17 4.48911 2.90487 0
M  V30 3330 C 292.47 5.15767 0.823497 0
M  V30 3331 H 294.164 2.98761 0.195453 0
M  V30 3332 H 291.71 1.43702 0.0925686 0
M  V30 3333 H 293.663 3.30739 2.61131 0
M  V30 3334 H 292.387 2.06749 2.52828 0
M  V30 3335 H 291.046 3.53286 0.978997 0
M  V30 3336 H 290.694 3.65862 3.45186 0
M  V30 3337 H 290.394 5.23265 2.67335 0
M  V30 3338 H 291.918 4.95771 3.56432 0
M  V30 3339 H 293.332 5.56549 1.37571 0
M  V30 3340 H 291.729 5.96114 0.690551 0
M  V30 3341 H 292.799 4.84574 -0.177782 0
M  V30 3342 N 294.142 -0.090211 1.57342 0
M  V30 3343 C 295.388 -0.793982 1.86611 0
M  V30 3344 C 295.721 -1.78142 0.773252 0
M  V30 3345 O 294.996 -1.93271 -0.218304 0
M  V30 3346 C 295.279 -1.51839 3.26523 0
M  V30 3347 C 295.132 -0.548609 4.46442 0
M  V30 3348 C 296.451 -2.46779 3.64401 0
M  V30 3349 H 293.57 -0.287186 0.678744 0
M  V30 3350 H 296.212 -0.0575076 1.89913 0
M  V30 3351 H 294.362 -2.14617 3.23839 0
M  V30 3352 H 296.034 0.0725513 4.61243 0
M  V30 3353 H 294.277 0.137614 4.33582 0
M  V30 3354 H 294.948 -1.09271 5.41076 0
M  V30 3355 H 297.424 -1.94089 3.68061 0
M  V30 3356 H 296.3 -2.94479 4.63221 0
M  V30 3357 H 296.561 -3.30758 2.93346 0
M  V30 3358 N 295.62 -1.53406 -0.361157 0
M  V30 3359 C 296.583 -1.79479 -1.42548 0
M  V30 3360 C 297.583 -0.665327 -1.4639 0
M  V30 3361 O 298.773 -0.933549 -1.47073 0
M  V30 3362 C 295.905 -1.92087 -2.8163 0
M  V30 3363 H 297.098 -2.74538 -1.20701 0
M  V30 3364 H 294.651 -1.4455 -0.594546 0
M  V30 3365 H 295.386 -0.991099 -3.08784 0
M  V30 3366 H 295.171 -2.74241 -2.80239 0
M  V30 3367 H 296.661 -2.13836 -3.58697 0
M  V30 3368 N 297.098 0.621204 -1.44841 0
M  V30 3369 C 298.028 1.74366 -1.55303 0
M  V30 3370 C 299.009 1.65199 -0.405385 0
M  V30 3371 O 300.194 1.83807 -0.626787 0
M  V30 3372 C 297.324 3.12931 -1.50637 0
M  V30 3373 C 296.278 3.36896 -2.63979 0
M  V30 3374 C 295.604 4.75594 -2.44366 0
M  V30 3375 C 296.904 3.28483 -4.06074 0
M  V30 3376 H 298.598 1.65867 -2.49256 0
M  V30 3377 H 296.144 0.796558 -1.19962 0
M  V30 3378 H 298.097 3.9124 -1.56555 0
M  V30 3379 H 296.821 3.22237 -0.532057 0
M  V30 3380 H 295.48 2.60972 -2.57467 0
M  V30 3381 H 295.128 4.81616 -1.45105 0
M  V30 3382 H 294.828 4.92586 -3.20364 0
M  V30 3383 H 296.352 5.5612 -2.52117 0
M  V30 3384 H 297.766 3.96684 -4.13902 0
M  V30 3385 H 296.163 3.57008 -4.82354 0
M  V30 3386 H 297.233 2.26133 -4.28943 0
M  V30 3387 N 298.576 1.31904 0.862503 0
M  V30 3388 C 299.987 1.19803 1.43193 0
M  V30 3389 C 300.338 -0.192567 1.95253 0
M  V30 3390 O 299.463 -1.09081 1.86896 0
M  V30 3391 C 300.058 2.16883 2.60283 0
M  V30 3392 C 298.617 2.08692 3.13248 0
M  V30 3393 C 297.764 2.05691 1.85975 0
M  V30 3394 H 300.715 1.43846 0.670365 0
M  V30 3395 H 300.736 1.76278 3.37204 0
M  V30 3396 H 300.248 3.18083 2.22363 0
M  V30 3397 H 298.349 1.10713 3.55771 0
M  V30 3398 H 298.462 2.9815 3.75025 0
M  V30 3399 H 296.826 1.50814 2.05249 0
M  V30 3400 H 297.609 3.08659 1.50282 0
M  V30 3401 N 300.054 -1.07777 1.14986 0
M  V30 3402 C 301.47 -1.32373 0.891596 0
M  V30 3403 C 301.67 -1.9609 -0.463788 0
M  V30 3404 O 300.726 -2.21801 -1.20667 0
M  V30 3405 C 302.039 -2.21905 2.02925 0
M  V30 3406 C 303.587 -2.35367 2.06329 0
M  V30 3407 C 304.062 -3.28245 3.19405 0
M  V30 3408 N 305.553 -3.35824 3.19024 0
M  V30 3409 C 306.288 -4.07739 4.03158 0
M  V30 3410 N 305.784 -4.82306 4.97346 0
M  V30 3411 N 307.577 -4.03635 3.91197 0
M  V30 3412 H 299.728 -0.648039 2.02273 0
M  V30 3413 H 301.991 -0.348149 0.881757 0
M  V30 3414 H 301.697 -1.82342 3.0074 0
M  V30 3415 H 301.571 -3.22407 1.95789 0
M  V30 3416 H 303.958 -2.74186 1.09116 0
M  V30 3417 H 304.039 -1.34585 2.17533 0
M  V30 3418 H 303.683 -2.90146 4.16867 0
M  V30 3419 H 303.613 -4.28971 3.05437 0
M  V30 3420 H 306.104 -2.8267 2.50811 0
M  V30 3421 H 306.417 -5.34661 5.57994 0
M  V30 3422 H 304.762 -4.81337 5.01338 0
M  V30 3423 H 307.953 -3.44491 3.16928 0
M  V30 3424 H 308.126 -4.59417 4.5699 0
M  V30 3425 N 301.532 -0.945985 -1.26051 0
M  V30 3426 C 302.495 -0.463897 -2.24456 0
M  V30 3427 C 303.495 0.427655 -1.55009 0
M  V30 3428 O 304.685 0.226157 -1.72726 0
M  V30 3429 C 301.817 0.330812 -3.39291 0
M  V30 3430 H 303.01 -1.33357 -2.68619 0
M  V30 3431 H 300.563 -0.728416 -1.38289 0
M  V30 3432 H 301.298 1.21852 -3.00537 0
M  V30 3433 H 301.083 -0.308679 -3.90883 0
M  V30 3434 H 302.573 0.657865 -4.12386 0
M  V30 3435 N 303.011 1.40521 -0.713556 0
M  V30 3436 C 304.422 1.83853 -0.324807 0
M  V30 3437 C 304.773 1.59667 1.14021 0
M  V30 3438 O 303.898 1.07649 1.87725 0
M  V30 3439 C 304.493 3.33751 -0.582746 0
M  V30 3440 C 303.052 3.75584 -0.247727 0
M  V30 3441 C 302.199 2.63753 -0.856121 0
M  V30 3442 H 305.15 1.29817 -0.91286 0
M  V30 3443 H 305.171 3.80194 0.152682 0
M  V30 3444 H 304.683 3.51322 -1.64908 0
M  V30 3445 H 302.784 3.63608 0.813624 0
M  V30 3446 H 302.897 4.7373 -0.715307 0
M  V30 3447 H 301.261 2.53108 -0.28432 0
M  V30 3448 H 302.044 2.84137 -1.92668 0
M  V30 3449 N 304.489 0.459591 1.5075 0
M  V30 3450 C 305.714 -0.0996819 2.0716 0
M  V30 3451 C 306.139 -1.33761 1.32249 0
M  V30 3452 O 305.497 -1.77551 0.366786 0
M  V30 3453 C 305.545 -0.378226 3.58611 0
M  V30 3454 O 304.649 -1.46081 3.85661 0
M  V30 3455 H 303.99 0.00791392 0.663953 0
M  V30 3456 H 306.52 0.647329 1.9409 0
M  V30 3457 H 306.53 -0.622135 4.03229 0
M  V30 3458 H 305.205 0.526439 4.12555 0
M  V30 3459 H 303.782 -1.20511 3.5289 0
M  V30 3460 N 305.967 -1.56429 0.191757 0
M  V30 3461 C 307.214 -1.97485 -0.447891 0
M  V30 3462 C 307.542 -1.07852 -1.61859 0
M  V30 3463 O 306.797 -0.116903 -1.95351 0
M  V30 3464 C 307.096 -3.44449 -0.953384 0
M  V30 3465 C 306.762 -4.50781 0.103586 0
M  V30 3466 C 305.424 -4.79584 0.394023 0
M  V30 3467 C 307.776 -5.1471 0.819946 0
M  V30 3468 C 305.104 -5.69607 1.40585 0
M  V30 3469 C 307.456 -6.05827 1.8209 0
M  V30 3470 C 306.12 -6.32987 2.11857 0
M  V30 3471 H 305.39 -0.722648 -0.163895 0
M  V30 3472 H 308.037 -1.89322 0.28802 0
M  V30 3473 H 306.342 -3.49666 -1.76751 0
M  V30 3474 H 308.039 -3.73569 -1.45765 0
M  V30 3475 H 304.629 -4.28394 -0.132951 0
M  V30 3476 H 308.813 -4.92552 0.608789 0
M  V30 3477 H 304.069 -5.88926 1.64243 0
M  V30 3478 H 308.243 -6.54424 2.38123 0
M  V30 3479 H 305.87 -7.02544 2.90407 0
M  V30 3480 N 307.445 0.0818655 -1.57387 0
M  V30 3481 C 308.675 0.794954 -1.90694 0
M  V30 3482 C 309.083 1.72147 -0.784982 0
M  V30 3483 O 308.426 1.81974 0.251196 0
M  V30 3484 C 308.488 1.65042 -3.19376 0
M  V30 3485 C 308.152 0.894337 -4.48164 0
M  V30 3486 C 309.149 0.21813 -5.19442 0
M  V30 3487 C 306.834 0.864495 -4.94805 0
M  V30 3488 C 308.828 -0.477802 -6.35607 0
M  V30 3489 C 306.515 0.164785 -6.10878 0
M  V30 3490 C 307.513 -0.505173 -6.81129 0
M  V30 3491 O 307.201 -1.19363 -7.94989 0
M  V30 3492 H 306.933 0.231779 -0.635023 0
M  V30 3493 H 309.487 0.059493 -2.05314 0
M  V30 3494 H 307.717 2.42844 -3.00938 0
M  V30 3495 H 309.406 2.24127 -3.38411 0
M  V30 3496 H 310.172 0.232558 -4.84442 0
M  V30 3497 H 306.051 1.37542 -4.40004 0
M  V30 3498 H 309.595 -1.00129 -6.90377 0
M  V30 3499 H 305.492 0.148249 -6.4533 0
M  V30 3500 H 306.26 -1.10188 -8.11049 0
M  V30 3501 N 308.923 1.53595 0.353017 0
M  V30 3502 C 310.2 1.61002 1.11075 0
M  V30 3503 C 310.58 0.425356 2.0677 0
M  V30 3504 O 309.928 -0.583267 2.2093 0
M  V30 3505 C 310.138 2.96631 1.83877 0
M  V30 3506 C 311.486 3.51653 2.37961 0
M  V30 3507 O 312.51 2.98743 1.93987 0
M  V30 3508 O 311.369 4.44177 3.18386 0
M  V30 3509 H 308.463 0.650825 0.510251 0
M  V30 3510 H 311.009 1.6594 0.35527 0
M  V30 3511 H 309.781 3.74293 1.14108 0
M  V30 3512 H 309.404 2.95242 2.66304 0
M  V30 3513 N 310.401 -0.613514 1.45168 0
M  V30 3514 C 311.812 -1.19539 1.43413 0
M  V30 3515 C 312.163 -1.95558 0.158632 0
M  V30 3516 O 311.288 -2.0335 -0.740119 0
M  V30 3517 C 311.883 -2.17445 2.59813 0
M  V30 3518 C 310.442 -2.71022 2.61197 0
M  V30 3519 C 309.589 -1.46323 2.35552 0
M  V30 3520 H 312.54 -0.403163 1.53494 0
M  V30 3521 H 312.561 -3.00373 2.33574 0
M  V30 3522 H 312.073 -1.62089 3.52631 0
M  V30 3523 H 310.174 -3.30332 1.7237 0
M  V30 3524 H 310.287 -3.15859 3.60236 0
M  V30 3525 H 308.651 -1.75072 1.84992 0
M  V30 3526 H 309.434 -0.92844 3.30507 0
M  V30 3527 N 311.879 -1.3236 -0.855495 0
M  V30 3528 C 313.107 -1.2587 -1.64208 0
M  V30 3529 C 313.522 0.173457 -1.88002 0
M  V30 3530 O 312.879 1.11027 -1.44842 0
M  V30 3531 C 312.93 -2.01424 -3.00184 0
M  V30 3532 O 312.651 -3.39051 -2.77445 0
M  V30 3533 C 314.152 -2.01948 -3.94629 0
M  V30 3534 H 311.372 -0.434318 -0.511477 0
M  V30 3535 H 313.916 -1.74469 -1.0668 0
M  V30 3536 H 312.071 -1.56549 -3.5436 0
M  V30 3537 H 312.485 -3.77711 -3.63916 0
M  V30 3538 H 313.959 -2.59297 -4.87308 0
M  V30 3539 H 314.436 -1.00554 -4.27534 0
M  V30 3540 H 315.042 -2.46767 -3.4639 0
M  V30 3541 N 313.357 1.07166 -1.15556 0
M  V30 3542 C 314.304 2.14417 -0.854055 0
M  V30 3543 C 315.274 1.64965 0.193806 0
M  V30 3544 O 316.459 1.90703 0.0609443 0
M  V30 3545 C 313.599 3.43304 -0.351574 0
M  V30 3546 C 312.712 4.06537 -1.46123 0
M  V30 3547 C 311.847 5.23266 -0.914677 0
M  V30 3548 C 310.886 5.78464 -2.00114 0
M  V30 3549 N 310.023 6.86521 -1.47083 0
M  V30 3550 H 314.863 2.39548 -1.77259 0
M  V30 3551 H 312.4 1.17543 -0.884425 0
M  V30 3552 H 314.358 4.17179 -0.0419409 0
M  V30 3553 H 312.988 3.18419 0.530037 0
M  V30 3554 H 312.04 3.30297 -1.88701 0
M  V30 3555 H 313.352 4.43567 -2.28144 0
M  V30 3556 H 312.506 6.04131 -0.557698 0
M  V30 3557 H 311.245 4.87658 -0.0636583 0
M  V30 3558 H 310.25 4.96243 -2.36692 0
M  V30 3559 H 311.475 6.16126 -2.85597 0
M  V30 3560 H 309.421 6.52849 -0.642198 0
M  V30 3561 H 309.338 7.22446 -2.22729 0
M  V30 3562 H 310.606 7.71087 -1.14215 0
M  V30 3563 N 314.835 0.952656 1.25548 0
M  V30 3564 C 315.783 0.462354 2.27958 0
M  V30 3565 C 316.777 -0.46634 1.62855 0
M  V30 3566 O 317.983 -0.343287 1.76696 0
M  V30 3567 H 314.358 0.13101 0.7405 0
M  V30 3568 H 316.329 1.33839 2.66702 0
M  V30 3569 C 315.078 -0.24628 3.46827 0
M  V30 3570 H 314.401 0.459192 3.97154 0
M  V30 3571 H 315.841 -0.553393 4.20373 0
M  V30 3572 C 314.3 -1.4681 3.0323 0
M  V30 3573 O 314.83 -2.56591 3.09069 0
M  V30 3574 N 313.036 -1.32874 2.58443 0
M  V30 3575 H 312.583 -0.435536 2.53891 0
M  V30 3576 H 312.541 -2.14742 2.29637 0
M  V30 3577 N 316.313 -1.40141 0.720998 0
M  V30 3578 C 317.243 -2.33339 0.0867621 0
M  V30 3579 C 318.224 -1.53178 -0.739622 0
M  V30 3580 O 319.409 -1.81625 -0.687449 0
M  V30 3581 C 316.539 -3.37194 -0.831728 0
M  V30 3582 C 315.493 -4.27857 -0.110558 0
M  V30 3583 C 314.819 -5.22294 -1.14513 0
M  V30 3584 C 316.119 -5.11872 1.0385 0
M  V30 3585 H 317.813 -2.86626 0.865219 0
M  V30 3586 H 315.359 -1.37814 0.417516 0
M  V30 3587 H 317.312 -4.01335 -1.28485 0
M  V30 3588 H 316.036 -2.82314 -1.64214 0
M  V30 3589 H 314.695 -3.65176 0.322797 0
M  V30 3590 H 314.343 -4.63717 -1.94874 0
M  V30 3591 H 314.043 -5.83797 -0.667446 0
M  V30 3592 H 315.567 -5.89312 -1.59824 0
M  V30 3593 H 316.981 -5.69436 0.664482 0
M  V30 3594 H 315.378 -5.82445 1.4449 0
M  V30 3595 H 316.448 -4.4753 1.86668 0
M  V30 3596 N 317.792 -0.46758 -1.50504 0
M  V30 3597 C 318.702 0.33382 -2.32213 0
M  V30 3598 C 319.718 0.999323 -1.42441 0
M  V30 3599 O 320.894 0.988068 -1.75497 0
M  V30 3600 C 317.959 1.4035 -3.17022 0
M  V30 3601 C 317.02 0.754961 -4.2261 0
M  V30 3602 C 316.253 1.77367 -5.03365 0
M  V30 3603 O 316.476 2.99976 -4.8515 0
M  V30 3604 O 315.41 1.34744 -5.86624 0
M  V30 3605 H 319.236 -0.334067 -3.01857 0
M  V30 3606 H 316.821 -0.229496 -1.47627 0
M  V30 3607 H 318.703 2.02318 -3.69656 0
M  V30 3608 H 317.378 2.05492 -2.5011 0
M  V30 3609 H 316.285 0.0964244 -3.73976 0
M  V30 3610 H 317.618 0.146545 -4.91982 0
M  V30 3611 N 319.27 1.56325 -0.20005 0
M  V30 3612 C 320.517 1.97719 0.437411 0
M  V30 3613 C 320.845 1.08709 1.61284 0
M  V30 3614 O 320.1 0.127261 1.95286 0
M  V30 3615 C 320.399 3.4495 0.935103 0
M  V30 3616 C 320.065 4.5072 -0.12749 0
M  V30 3617 C 318.727 4.79368 -0.419451 0
M  V30 3618 C 321.079 5.14268 -0.847231 0
M  V30 3619 C 318.407 5.68854 -1.43604 0
M  V30 3620 C 320.759 6.04852 -1.85301 0
M  V30 3621 C 319.423 6.31855 -2.15211 0
M  V30 3622 H 318.693 0.723507 0.16006 0
M  V30 3623 H 321.34 1.89166 -0.298056 0
M  V30 3624 H 319.645 3.50599 1.74894 0
M  V30 3625 H 321.342 3.74337 1.43781 0
M  V30 3626 H 317.932 4.28458 0.11023 0
M  V30 3627 H 322.116 4.92222 -0.634901 0
M  V30 3628 H 317.372 5.88047 -1.67364 0
M  V30 3629 H 321.546 6.53152 -2.41591 0
M  V30 3630 H 319.173 7.00994 -2.94129 0
M  V30 3631 N 320.748 -0.0735177 1.57428 0
M  V30 3632 C 321.973 -0.789787 1.91774 0
M  V30 3633 C 322.398 -1.70413 0.796306 0
M  V30 3634 O 321.756 -1.79555 -0.250961 0
M  V30 3635 C 321.804 -1.5609 3.25067 0
M  V30 3636 O 320.908 -2.67144 3.14178 0
M  V30 3637 H 320.249 -0.215582 0.628029 0
M  V30 3638 H 322.779 -0.0422781 2.04556 0
M  V30 3639 H 322.789 -1.94052 3.58898 0
M  V30 3640 H 321.464 -0.890015 4.06265 0
M  V30 3641 H 320.041 -2.32052 2.91901 0
M  V30 3642 N 322.226 -1.5378 -0.344866 0
M  V30 3643 C 323.156 -1.84662 -1.42906 0
M  V30 3644 C 324.137 -0.701648 -1.54955 0
M  V30 3645 O 325.322 -0.953438 -1.69184 0
M  V30 3646 C 322.452 -2.05503 -2.79974 0
M  V30 3647 C 321.406 -3.21318 -2.82734 0
M  V30 3648 C 320.732 -3.2749 -4.22675 0
M  V30 3649 C 322.032 -4.59456 -2.48389 0
M  V30 3650 H 323.726 -2.75461 -1.17311 0
M  V30 3651 H 321.272 -1.32542 -0.562896 0
M  V30 3652 H 323.225 -2.25691 -3.55867 0
M  V30 3653 H 321.949 -1.11434 -3.07002 0
M  V30 3654 H 320.608 -3.00984 -2.09294 0
M  V30 3655 H 320.256 -2.31019 -4.4681 0
M  V30 3656 H 319.956 -4.05316 -4.25433 0
M  V30 3657 H 321.48 -3.49887 -5.00412 0
M  V30 3658 H 322.894 -4.79667 -3.13995 0
M  V30 3659 H 321.291 -5.39675 -2.62432 0
M  V30 3660 H 322.361 -4.63155 -1.4358 0
M  V30 3661 N 323.704 0.605807 -1.45491 0
M  V30 3662 C 324.929 1.39625 -1.53361 0
M  V30 3663 C 325.354 1.87351 -0.167645 0
M  V30 3664 O 324.712 1.60243 0.848051 0
M  V30 3665 C 324.76 2.57559 -2.5238 0
M  V30 3666 O 323.864 3.58248 -2.04285 0
M  V30 3667 H 323.205 0.416771 -0.516912 0
M  V30 3668 H 325.735 0.737103 -1.90861 0
M  V30 3669 H 325.745 3.0478 -2.71244 0
M  V30 3670 H 324.42 2.22171 -3.51586 0
M  V30 3671 H 322.997 3.17664 -1.95305 0
M  V30 3672 N 325.182 1.32811 0.848464 0
M  V30 3673 C 326.598 1.11937 1.13764 0
M  V30 3674 C 326.798 -0.0960789 2.01271 0
M  V30 3675 O 325.854 -0.779165 2.40178 0
M  V30 3676 C 327.167 2.402 1.809 0
M  V30 3677 C 328.715 2.46016 1.93508 0
M  V30 3678 C 329.19 3.74215 2.64059 0
M  V30 3679 N 330.681 3.75232 2.71579 0
M  V30 3680 C 331.416 4.71134 3.26833 0
M  V30 3681 N 330.912 5.77406 3.8285 0
M  V30 3682 N 332.705 4.58623 3.24995 0
M  V30 3683 H 324.856 2.1073 0.265855 0
M  V30 3684 H 327.119 0.930671 0.180431 0
M  V30 3685 H 326.825 3.29093 1.24058 0
M  V30 3686 H 326.699 2.51628 2.81004 0
M  V30 3687 H 329.086 1.57577 2.49506 0
M  V30 3688 H 329.167 2.38536 0.923811 0
M  V30 3689 H 328.811 4.63031 2.08722 0
M  V30 3690 H 328.741 3.78968 3.65637 0
M  V30 3691 H 331.232 2.98423 2.31845 0
M  V30 3692 H 331.545 6.46632 4.23187 0
M  V30 3693 H 329.89 5.81152 3.81165 0
M  V30 3694 H 333.081 3.74762 2.80484 0
M  V30 3695 H 333.254 5.33535 3.67756 0
M  V30 3696 N 326.66 -1.06551 1.16123 0
M  V30 3697 C 327.623 -2.12132 0.867906 0
M  V30 3698 C 328.623 -1.60224 -0.135944 0
M  V30 3699 O 329.813 -1.73943 0.0946422 0
M  V30 3700 C 326.945 -3.396 0.297419 0
M  V30 3701 H 328.138 -2.39586 1.80385 0
M  V30 3702 H 325.691 -1.22574 0.969812 0
M  V30 3703 H 326.426 -3.17794 -0.64633 0
M  V30 3704 H 326.211 -3.78581 1.02073 0
M  V30 3705 H 327.701 -4.17455 0.110052 0
M  V30 3706 N 328.138 -0.959301 -1.25041 0
M  V30 3707 C 329.086 -0.474437 -2.2771 0
M  V30 3708 C 330.08 0.457697 -1.631 0
M  V30 3709 O 331.286 0.333912 -1.76876 0
M  V30 3710 H 327.661 -0.134936 -0.739795 0
M  V30 3711 H 329.632 -1.35251 -2.65988 0
M  V30 3712 C 328.381 0.227884 -3.46952 0
M  V30 3713 H 327.704 -0.480248 -3.96905 0
M  V30 3714 H 329.144 0.531091 -4.20661 0
M  V30 3715 C 327.603 1.452 -3.04004 0
M  V30 3716 O 328.133 2.54949 -3.10426 0
M  V30 3717 N 326.339 1.31502 -2.59144 0
M  V30 3718 H 325.886 0.422065 -2.54119 0
M  V30 3719 H 325.844 2.13521 -2.30773 0
M  V30 3720 N 329.616 1.39756 -0.72842 0
M  V30 3721 C 330.893 1.94574 -0.200079 0
M  V30 3722 C 331.273 1.66569 1.29684 0
M  V30 3723 O 330.621 0.990326 2.05924 0
M  V30 3724 C 330.831 3.45004 -0.526608 0
M  V30 3725 C 332.179 4.21965 -0.472318 0
M  V30 3726 O 333.203 3.53173 -0.463413 0
M  V30 3727 O 332.062 5.44552 -0.461075 0
M  V30 3728 H 329.156 0.826289 -0.0342851 0
M  V30 3729 H 331.702 1.49293 -0.806829 0
M  V30 3730 H 330.474 3.58796 -1.56144 0
M  V30 3731 H 330.097 3.97449 0.109449 0
M  V30 3732 N 331.094 0.475555 1.50254 0
M  V30 3733 C 332.343 -0.0795996 2.01543 0
M  V30 3734 C 332.656 -1.4038 1.36209 0
M  V30 3735 O 333.862 -2.04415 1.7868 0
M  V30 3736 C 332.318 -0.192363 3.59386 0
M  V30 3737 C 331.926 1.12367 4.33679 0
M  V30 3738 C 333.67 -0.699238 4.18701 0
M  V30 3739 C 331.577 0.974453 5.83317 0
M  V30 3740 H 330.507 -0.0335228 0.753254 0
M  V30 3741 H 333.158 0.611128 1.73025 0
M  V30 3742 H 331.54 -0.946974 3.84511 0
M  V30 3743 H 332.714 1.88958 4.20276 0
M  V30 3744 H 331.029 1.562 3.85993 0
M  V30 3745 H 333.626 -0.827978 5.28251 0
M  V30 3746 H 333.969 -1.69171 3.80377 0
M  V30 3747 H 334.502 -0.00188807 3.978 0
M  V30 3748 H 331.241 1.94042 6.26121 0
M  V30 3749 H 330.761 0.248998 5.99283 0
M  V30 3750 H 332.44 0.642867 6.43798 0
M  V30 3751 N 332.573 -1.56217 0.208337 0
M  V30 3752 C 333.503 -2.22694 -0.702116 0
M  V30 3753 C 334.484 -1.19432 -1.2112 0
M  V30 3754 O 335.669 -1.47978 -1.25762 0
M  V30 3755 C 332.799 -2.8966 -1.9161 0
M  V30 3756 C 331.753 -3.9928 -1.5414 0
M  V30 3757 C 331.079 -4.53476 -2.83308 0
M  V30 3758 C 332.379 -5.17012 -0.741339 0
M  V30 3759 H 334.073 -2.99034 -0.147898 0
M  V30 3760 H 331.619 -1.43831 -0.0696951 0
M  V30 3761 H 333.572 -3.34852 -2.55836 0
M  V30 3762 H 332.296 -2.10746 -2.49507 0
M  V30 3763 H 330.955 -3.54799 -0.922668 0
M  V30 3764 H 330.603 -3.71308 -3.39322 0
M  V30 3765 H 330.303 -5.27451 -2.58976 0
M  V30 3766 H 331.827 -5.01378 -3.485 0
M  V30 3767 H 333.241 -5.58667 -1.28699 0
M  V30 3768 H 331.638 -5.97137 -0.595627 0
M  V30 3769 H 332.708 -4.8423 0.254851 0
M  V30 3770 N 334.051 0.0651679 -1.57465 0
M  V30 3771 C 335.467 0.420105 -1.53972 0
M  V30 3772 C 335.667 1.78782 -0.929474 0
M  V30 3773 O 334.723 2.46771 -0.534839 0
M  V30 3774 C 336.036 0.355084 -2.98596 0
M  V30 3775 C 337.584 0.434792 -3.09965 0
M  V30 3776 C 338.059 0.399609 -4.56253 0
M  V30 3777 N 339.55 0.459488 -4.60915 0
M  V30 3778 C 340.285 0.454584 -5.71595 0
M  V30 3779 N 339.781 0.404102 -6.9162 0
M  V30 3780 N 341.574 0.501635 -5.59857 0
M  V30 3781 H 333.725 -0.830328 -1.95498 0
M  V30 3782 H 335.988 -0.312244 -0.895102 0
M  V30 3783 H 335.694 -0.583357 -3.46828 0
M  V30 3784 H 335.568 1.16275 -3.58831 0
M  V30 3785 H 337.955 1.36366 -2.61703 0
M  V30 3786 H 338.036 -0.40157 -2.52628 0
M  V30 3787 H 337.68 -0.525436 -5.05175 0
M  V30 3788 H 337.61 1.25359 -5.11461 0
M  V30 3789 H 340.101 0.502482 -3.74544 0
M  V30 3790 H 340.414 0.404468 -7.71741 0
M  V30 3791 H 338.759 0.37069 -6.94011 0
M  V30 3792 H 341.95 0.538812 -4.64989 0
M  V30 3793 H 342.123 0.494345 -6.46112 0
M  V30 3794 N 335.529 1.53961 0.336706 0
M  V30 3795 C 336.945 1.44378 0.680241 0
M  V30 3796 C 337.145 0.606034 1.9217 0
M  V30 3797 O 336.201 0.099688 2.52303 0
M  V30 3798 C 337.514 2.87945 0.8665 0
M  V30 3799 C 339.062 2.97763 0.964682 0
M  V30 3800 C 339.537 4.42453 1.18321 0
M  V30 3801 N 341.028 4.46008 1.25025 0
M  V30 3802 C 341.763 5.55102 1.43697 0
M  V30 3803 N 341.259 6.7419 1.59498 0
M  V30 3804 N 343.052 5.42727 1.463 0
M  V30 3805 H 335.203 2.06918 -0.479455 0
M  V30 3806 H 337.466 0.935634 -0.152619 0
M  V30 3807 H 337.172 3.51691 0.0256937 0
M  V30 3808 H 337.046 3.33293 1.76623 0
M  V30 3809 H 339.433 2.34153 1.796 0
M  V30 3810 H 339.514 2.55766 0.041708 0
M  V30 3811 H 339.158 5.06645 0.356788 0
M  V30 3812 H 339.088 4.82048 2.11985 0
M  V30 3813 H 341.579 3.60196 1.14312 0
M  V30 3814 H 341.892 7.53095 1.734 0
M  V30 3815 H 340.237 6.77123 1.56621 0
M  V30 3816 H 343.428 4.48647 1.33543 0
M  V30 3817 H 343.601 6.27806 1.6051 0
M  V30 3818 N 337.007 -0.598083 1.45811 0
M  V30 3819 C 337.937 -1.71873 1.58057 0
M  V30 3820 C 338.918 -1.64533 0.431615 0
M  V30 3821 O 340.103 -1.82787 0.65595 0
M  V30 3822 C 337.233 -3.10495 1.55597 0
M  V30 3823 C 336.187 -3.32654 2.69305 0
M  V30 3824 C 335.513 -4.71646 2.51902 0
M  V30 3825 C 336.813 -3.21981 4.11248 0
M  V30 3826 H 338.507 -1.61881 2.51863 0
M  V30 3827 H 336.053 -0.777372 1.21214 0
M  V30 3828 H 338.006 -3.88699 1.6276 0
M  V30 3829 H 336.73 -3.2135 0.583255 0
M  V30 3830 H 335.389 -2.56843 2.61586 0
M  V30 3831 H 335.037 -4.79246 1.52748 0
M  V30 3832 H 334.737 -4.87426 3.2816 0
M  V30 3833 H 336.261 -5.52038 2.60933 0
M  V30 3834 H 337.675 -3.90049 4.20161 0
M  V30 3835 H 336.072 -3.49289 4.87972 0
M  V30 3836 H 337.142 -2.1928 4.32486 0
M  V30 3837 N 338.485 -1.33259 -0.841409 0
M  V30 3838 C 339.715 -1.2742 -1.62628 0
M  V30 3839 C 340.123 0.157604 -1.88542 0
M  V30 3840 O 339.466 1.10938 -1.46419 0
M  V30 3841 C 339.528 -1.97797 -3.00194 0
M  V30 3842 C 339.192 -3.47109 -2.97261 0
M  V30 3843 C 340.189 -4.42358 -2.73159 0
M  V30 3844 C 337.874 -3.89247 -3.17478 0
M  V30 3845 C 339.868 -5.77718 -2.69296 0
M  V30 3846 C 337.555 -5.24713 -3.13241 0
M  V30 3847 C 338.553 -6.1876 -2.89181 0
M  V30 3848 O 338.241 -7.51745 -2.84843 0
M  V30 3849 H 337.973 -0.440436 -0.512827 0
M  V30 3850 H 340.527 -1.76153 -1.05638 0
M  V30 3851 H 338.757 -1.43652 -3.59028 0
M  V30 3852 H 340.446 -1.8549 -3.61038 0
M  V30 3853 H 341.212 -4.11127 -2.57294 0
M  V30 3854 H 337.091 -3.16456 -3.35226 0
M  V30 3855 H 340.635 -6.51097 -2.50436 0
M  V30 3856 H 336.532 -5.55569 -3.28654 0
M  V30 3857 H 337.3 -7.61262 -3.00702 0
M  V30 3858 N 339.963 1.05934 -1.16686 0
M  V30 3859 C 341.188 1.83029 -0.975455 0
M  V30 3860 C 341.613 1.82096 0.471452 0
M  V30 3861 O 340.971 1.22443 1.33706 0
M  V30 3862 C 341.019 3.27372 -1.51195 0
M  V30 3863 O 340.123 4.06054 -0.720701 0
M  V30 3864 H 339.464 0.566194 -0.346872 0
M  V30 3865 H 341.994 1.33541 -1.55009 0
M  V30 3866 H 342.004 3.78186 -1.53099 0
M  V30 3867 H 340.679 3.27366 -2.56523 0
M  V30 3868 H 339.256 3.64812 -0.772458 0
M  V30 3869 N 341.441 0.965919 1.2453 0
M  V30 3870 C 342.371 0.513476 2.27784 0
M  V30 3871 C 343.352 -0.445974 1.6415 0
M  V30 3872 O 344.537 -0.342485 1.91156 0
M  V30 3873 C 341.667 -0.198839 3.4673 0
M  V30 3874 C 340.621 0.676456 4.2262 0
M  V30 3875 C 339.947 -0.167248 5.34438 0
M  V30 3876 C 341.247 1.96017 4.84123 0
M  V30 3877 H 342.941 1.3765 2.65881 0
M  V30 3878 H 340.487 0.663321 1.27813 0
M  V30 3879 H 342.44 -0.526567 4.18097 0
M  V30 3880 H 341.164 -1.0962 3.07654 0
M  V30 3881 H 339.823 0.98743 3.53052 0
M  V30 3882 H 339.471 -1.0647 4.91603 0
M  V30 3883 H 339.171 0.415181 5.86131 0
M  V30 3884 H 340.695 -0.489688 6.08633 0
M  V30 3885 H 342.109 1.69814 5.47573 0
M  V30 3886 H 340.506 2.48918 5.4604 0
M  V30 3887 H 341.576 2.65622 4.05676 0
M  V30 3888 N 342.919 -1.39368 0.735821 0
M  V30 3889 C 344.167 -2.00101 0.283562 0
M  V30 3890 C 344.488 -1.5868 -1.13338 0
M  V30 3891 O 343.758 -0.835423 -1.77193 0
M  V30 3892 H 342.338 -0.740024 0.101851 0
M  V30 3893 H 345 -1.70404 0.945962 0
M  V30 3894 H 344.096 -3.10323 0.332604 0
M  V30 3895 N 344.397 -0.483516 -1.5 0
M  V30 3896 C 345.643 0.0593261 -2.03313 0
M  V30 3897 C 345.998 1.36288 -1.35806 0
M  V30 3898 O 345.291 1.85519 -0.478897 0
M  V30 3899 C 345.485 0.286226 -3.56252 0
M  V30 3900 C 345.314 -0.993788 -4.38582 0
M  V30 3901 C 344.084 -1.54064 -4.81241 0
M  V30 3902 C 346.282 -1.89249 -4.78215 0
M  V30 3903 N 344.264 -2.76838 -5.47936 0
M  V30 3904 C 345.635 -2.96606 -5.44449 0
M  V30 3905 C 347.69 -1.90138 -4.60165 0
M  V30 3906 C 346.393 -4.04857 -5.94544 0
M  V30 3907 C 348.419 -2.97353 -5.1121 0
M  V30 3908 C 347.781 -4.03429 -5.77429 0
M  V30 3909 H 343.88 -0.0186322 -0.781778 0
M  V30 3910 H 346.464 -0.654489 -1.8337 0
M  V30 3911 H 344.635 0.969086 -3.76116 0
M  V30 3912 H 346.367 0.824515 -3.96212 0
M  V30 3913 H 343.122 -1.08813 -4.6093 0
M  V30 3914 H 343.546 -3.39221 -5.85882 0
M  V30 3915 H 348.188 -1.09441 -4.0839 0
M  V30 3916 H 345.906 -4.86363 -6.4535 0
M  V30 3917 H 349.492 -2.99039 -4.99066 0
M  V30 3918 H 348.372 -4.85025 -6.16214 0
M  V30 3919 N 345.875 1.56104 -0.216619 0
M  V30 3920 C 347.124 1.97348 0.416744 0
M  V30 3921 C 347.437 1.10715 1.6125 0
M  V30 3922 O 348.643 1.41836 2.31506 0
M  V30 3923 C 347.099 3.51059 0.792835 0
M  V30 3924 C 346.707 4.46387 -0.379828 0
M  V30 3925 C 348.451 4.01026 1.39208 0
M  V30 3926 C 346.358 5.91397 0.0184223 0
M  V30 3927 H 345.288 0.736942 0.159475 0
M  V30 3928 H 347.939 1.80827 -0.31205 0
M  V30 3929 H 346.321 3.63162 1.57891 0
M  V30 3930 H 347.495 4.46029 -1.15737 0
M  V30 3931 H 345.81 4.06734 -0.891979 0
M  V30 3932 H 348.407 5.0686 1.70286 0
M  V30 3933 H 348.75 3.46587 2.30614 0
M  V30 3934 H 349.283 3.92125 0.669537 0
M  V30 3935 H 346.022 6.49807 -0.862002 0
M  V30 3936 H 345.542 5.94961 0.760384 0
M  V30 3937 H 347.221 6.45455 0.446818 0
M  V30 3938 N 347.353 -0.0568162 1.57498 0
M  V30 3939 C 348.578 -0.769402 1.92601 0
M  V30 3940 C 349.003 -1.69559 0.814336 0
M  V30 3941 O 348.361 -1.79811 -0.231903 0
M  V30 3942 C 348.409 -1.52634 3.26704 0
M  V30 3943 O 347.513 -2.63797 3.16994 0
M  V30 3944 H 346.854 -0.208909 0.63028 0
M  V30 3945 H 349.384 -0.0205798 2.0459 0
M  V30 3946 H 349.394 -1.90234 3.60936 0
M  V30 3947 H 348.069 -0.846875 4.07186 0
M  V30 3948 H 346.646 -2.28943 2.94346 0
M  V30 3949 N 348.832 -1.54138 -0.328536 0
M  V30 3950 C 350.057 -1.76378 -1.09112 0
M  V30 3951 C 350.482 -0.508596 -1.81094 0
M  V30 3952 O 349.84 0.539598 -1.73084 0
M  V30 3953 C 349.888 -2.95358 -2.06872 0
M  V30 3954 O 348.992 -2.66556 -3.14677 0
M  V30 3955 H 348.333 -0.584614 -0.314838 0
M  V30 3956 H 350.863 -2.01146 -0.374348 0
M  V30 3957 H 350.873 -3.22566 -2.4983 0
M  V30 3958 H 349.548 -3.86385 -1.5388 0
M  V30 3959 H 348.125 -2.50282 -2.7643 0
M  V30 3960 N 350.31 0.590341 -1.46126 0
M  V30 3961 C 351.258 1.72105 -1.5647 0
M  V30 3962 C 352.252 1.63756 -0.433612 0
M  V30 3963 O 353.458 1.69342 -0.610194 0
M  V30 3964 H 349.833 0.568889 -0.491802 0
M  V30 3965 H 351.804 1.6051 -2.51553 0
M  V30 3966 C 350.553 3.10493 -1.56491 0
M  V30 3967 H 349.876 3.17583 -2.4286 0
M  V30 3968 H 351.316 3.8939 -1.67785 0
M  V30 3969 C 349.775 3.3563 -0.292231 0
M  V30 3970 O 350.305 3.96875 0.620739 0
M  V30 3971 N 348.511 2.90026 -0.182523 0
M  V30 3972 H 348.058 2.40367 -0.926356 0
M  V30 3973 H 348.016 3.07218 0.668152 0
M  V30 3974 N 351.788 1.33704 0.83433 0
M  V30 3975 C 352.698 1.26382 1.97648 0
M  V30 3976 C 353.714 0.173548 1.73132 0
M  V30 3977 O 354.89 0.397962 1.97429 0
M  V30 3978 C 351.955 1.00769 3.31733 0
M  V30 3979 C 351.016 2.1884 3.69334 0
M  V30 3980 C 350.249 1.9444 4.9702 0
M  V30 3981 O 350.472 0.896961 5.63303 0
M  V30 3982 O 349.406 2.81093 5.32231 0
M  V30 3983 H 353.232 2.22444 2.06767 0
M  V30 3984 H 350.817 1.13795 0.968037 0
M  V30 3985 H 352.699 0.882186 4.12062 0
M  V30 3986 H 351.374 0.0773783 3.23608 0
M  V30 3987 H 350.281 2.36946 2.89495 0
M  V30 3988 H 351.614 3.10221 3.82131 0
M  V30 3989 N 353.266 -1.05314 1.17247 0
M  V30 3990 C 354.196 -2.1498 0.911362 0
M  V30 3991 C 355.177 -1.69471 -0.146169 0
M  V30 3992 O 356.362 -1.942 0.003812 0
M  V30 3993 C 353.492 -3.4472 0.422528 0
M  V30 3994 C 352.446 -4.03789 1.4191 0
M  V30 3995 C 351.772 -5.28858 0.788274 0
M  V30 3996 C 353.072 -4.41418 2.7919 0
M  V30 3997 H 354.766 -2.3708 1.82848 0
M  V30 3998 H 352.312 -1.13938 0.880569 0
M  V30 3999 H 354.265 -4.20787 0.227289 0
M  V30 4000 H 352.989 -3.22269 -0.530123 0
M  V30 4001 H 351.648 -3.2979 1.60106 0
M  V30 4002 H 351.296 -5.02709 -0.171173 0
M  V30 4003 H 350.996 -5.69338 1.45353 0
M  V30 4004 H 352.52 -6.07612 0.603282 0
M  V30 4005 H 353.934 -5.08524 2.64719 0
M  V30 4006 H 352.331 -4.92913 3.42282 0
M  V30 4007 H 353.401 -3.51819 3.33693 0
M  V30 4008 N 354.744 -0.972509 -1.24016 0
M  V30 4009 C 355.691 -0.505969 -2.25186 0
M  V30 4010 C 356.661 0.451009 -1.5986 0
M  V30 4011 O 357.846 0.360307 -1.87367 0
M  V30 4012 C 354.986 0.193089 -3.44559 0
M  V30 4013 C 354.099 -0.803222 -4.24467 0
M  V30 4014 C 353.234 -0.0797793 -5.3114 0
M  V30 4015 C 352.273 -1.06583 -6.02749 0
M  V30 4016 N 351.41 -0.372074 -7.01113 0
M  V30 4017 H 356.25 -1.37351 -2.64459 0
M  V30 4018 H 353.787 -0.688419 -1.29997 0
M  V30 4019 H 355.745 0.615125 -4.1264 0
M  V30 4020 H 354.375 1.02455 -3.06109 0
M  V30 4021 H 353.427 -1.34368 -3.55878 0
M  V30 4022 H 354.739 -1.55494 -4.73944 0
M  V30 4023 H 353.893 0.400015 -6.0538 0
M  V30 4024 H 352.632 0.704597 -4.82583 0
M  V30 4025 H 351.637 -1.55645 -5.27309 0
M  V30 4026 H 352.862 -1.85074 -6.53395 0
M  V30 4027 H 350.808 0.393238 -6.5482 0
M  V30 4028 H 350.725 -1.06258 -7.48495 0
M  V30 4029 H 351.993 0.0855932 -7.79453 0
M  V30 4030 N 356.222 1.38976 -0.743202 0
M  V30 4031 C 357.47 1.99948 -0.29417 0
M  V30 4032 C 357.791 1.59279 1.12495 0
M  V30 4033 O 357.061 0.844808 1.76748 0
M  V30 4034 H 355.641 0.739473 -0.105774 0
M  V30 4035 H 358.303 1.699 -0.954986 0
M  V30 4036 H 357.399 3.10142 -0.349056 0
M  V30 4037 N 357.7 0.491464 1.49741 0
M  V30 4038 C 358.663 -0.280906 2.27472 0
M  V30 4039 C 359.663 -0.902454 1.33088 0
M  V30 4040 O 360.853 -0.768465 1.56334 0
M  V30 4041 C 357.985 -1.40209 3.10732 0
M  V30 4042 H 359.178 0.401056 2.97206 0
M  V30 4043 H 356.731 0.246131 1.5435 0
M  V30 4044 H 357.466 -2.11849 2.45541 0
M  V30 4045 H 357.251 -0.961969 3.80117 0
M  V30 4046 H 358.741 -1.9464 3.69466 0
M  V30 4047 N 359.178 -1.55987 0.224894 0
M  V30 4048 C 360.108 -2.23426 -0.678457 0
M  V30 4049 C 361.089 -1.20709 -1.19847 0
M  V30 4050 O 362.274 -1.49304 -1.24186 0
M  V30 4051 C 359.404 -2.91676 -1.88527 0
M  V30 4052 C 358.358 -4.00893 -1.49896 0
M  V30 4053 C 357.684 -4.56455 -2.78483 0
M  V30 4054 C 358.984 -5.17769 -0.686461 0
M  V30 4055 H 360.678 -2.99175 -0.116173 0
M  V30 4056 H 358.224 -1.43897 -0.054436 0
M  V30 4057 H 360.177 -3.37547 -2.5227 0
M  V30 4058 H 358.901 -2.1338 -2.47258 0
M  V30 4059 H 357.56 -3.55758 -0.884985 0
M  V30 4060 H 357.208 -3.74886 -3.35365 0
M  V30 4061 H 356.908 -5.30169 -2.53368 0
M  V30 4062 H 358.432 -5.05047 -3.43162 0
M  V30 4063 H 359.846 -5.60001 -1.22767 0
M  V30 4064 H 358.243 -5.97735 -0.532259 0
M  V30 4065 H 359.313 -4.83932 0.306196 0
M  V30 4066 N 360.656 0.0484629 -1.57525 0
M  V30 4067 C 361.604 1.07359 -2.06341 0
M  V30 4068 C 362.598 1.3865 -0.973269 0
M  V30 4069 O 363.804 1.37783 -1.15827 0
M  V30 4070 H 360.179 0.363662 -0.65822 0
M  V30 4071 H 362.15 0.635916 -2.91545 0
M  V30 4072 C 360.899 2.37198 -2.54229 0
M  V30 4073 H 360.222 2.13977 -3.37719 0
M  V30 4074 H 361.662 3.07319 -2.92115 0
M  V30 4075 C 360.121 3.04805 -1.43511 0
M  V30 4076 O 360.651 3.93848 -0.79034 0
M  V30 4077 N 358.857 2.65811 -1.17444 0
M  V30 4078 H 358.404 1.93488 -1.70059 0
M  V30 4079 H 358.362 3.11366 -0.435737 0
M  V30 4080 N 362.134 1.5431 0.320358 0
M  V30 4081 C 363.044 1.86946 1.41734 0
M  V30 4082 C 364.06 0.761689 1.56443 0
M  V30 4083 O 365.236 1.05629 1.71477 0
M  V30 4084 C 362.301 2.09293 2.76401 0
M  V30 4085 C 361.362 3.33082 2.70841 0
M  V30 4086 C 360.595 3.54353 3.99086 0
M  V30 4087 O 360.818 2.79002 4.97508 0
M  V30 4088 O 359.752 4.47838 4.0215 0
M  V30 4089 H 363.578 2.80232 1.17062 0
M  V30 4090 H 361.163 1.40255 0.514673 0
M  V30 4091 H 363.045 2.25303 3.56113 0
M  V30 4092 H 361.72 1.19194 3.00956 0
M  V30 4093 H 360.627 3.22454 1.89668 0
M  V30 4094 H 361.96 4.23249 2.5124 0
M  V30 4095 N 363.613 -0.582584 1.46437 0
M  V30 4096 C 364.859 -1.34278 1.51978 0
M  V30 4097 C 365.192 -1.93446 0.170973 0
M  V30 4098 O 364.467 -1.76481 -0.817608 0
M  V30 4099 C 364.75 -2.47203 2.61845 0
M  V30 4100 C 364.603 -1.93069 4.06257 0
M  V30 4101 C 365.922 -3.49247 2.67795 0
M  V30 4102 H 363.041 -0.486876 0.553282 0
M  V30 4103 H 365.683 -0.654437 1.78374 0
M  V30 4104 H 363.833 -3.0592 2.39469 0
M  V30 4105 H 365.505 -1.38808 4.3992 0
M  V30 4106 H 363.748 -1.23898 4.1573 0
M  V30 4107 H 364.419 -2.74586 4.7886 0
M  V30 4108 H 366.895 -3.00411 2.8791 0
M  V30 4109 H 365.771 -4.25719 3.46489 0
M  V30 4110 H 366.032 -4.06482 1.73852 0
M  V30 4111 N 365.091 -1.34144 -0.827227 0
M  V30 4112 C 366.502 -1.23557 -1.39966 0
M  V30 4113 C 366.853 0.140731 -1.95695 0
M  V30 4114 O 365.978 1.04087 -1.89723 0
M  V30 4115 C 366.573 -2.23708 -2.54441 0
M  V30 4116 C 365.132 -2.16924 -3.07605 0
M  V30 4117 C 364.279 -2.10549 -1.80456 0
M  V30 4118 H 367.23 -1.45573 -0.631991 0
M  V30 4119 H 367.251 -1.85157 -3.32411 0
M  V30 4120 H 366.763 -3.23866 -2.13851 0
M  V30 4121 H 364.864 -1.20107 -3.52711 0
M  V30 4122 H 364.977 -3.07988 -3.66988 0
M  V30 4123 H 363.341 -1.56203 -2.01178 0
M  V30 4124 H 364.124 -3.12535 -1.42046 0
M  V30 4125 N 366.569 1.04691 -1.17803 0
M  V30 4126 C 367.818 1.77176 -0.963931 0
M  V30 4127 C 368.131 1.88888 0.508015 0
M  V30 4128 O 369.337 2.58164 0.840465 0
M  V30 4129 C 367.793 3.18518 -1.67555 0
M  V30 4130 C 367.401 3.14919 -3.18637 0
M  V30 4131 C 369.145 3.95424 -1.54402 0
M  V30 4132 C 367.052 4.51081 -3.82466 0
M  V30 4133 H 365.982 0.664116 -0.357023 0
M  V30 4134 H 368.633 1.17303 -1.4111 0
M  V30 4135 H 367.015 3.78748 -1.15613 0
M  V30 4136 H 368.189 2.64178 -3.77554 0
M  V30 4137 H 366.504 2.51512 -3.31859 0
M  V30 4138 H 369.101 4.96106 -1.99456 0
M  V30 4139 H 369.444 4.13343 -0.495329 0
M  V30 4140 H 369.977 3.41754 -2.0359 0
M  V30 4141 H 366.716 4.38368 -4.87354 0
M  V30 4142 H 366.236 5.01951 -3.28337 0
M  V30 4143 H 367.915 5.2001 -3.84965 0
M  V30 4144 N 368.047 0.979072 1.23499 0
M  V30 4145 C 369.296 0.642751 1.91185 0
M  V30 4146 C 369.609 -0.827253 1.77245 0
M  V30 4147 O 370.815 -1.27458 2.39722 0
M  V30 4148 C 369.271 1.09901 3.42709 0
M  V30 4149 C 368.879 2.59327 3.65313 0
M  V30 4150 C 370.623 0.836371 4.16179 0
M  V30 4151 C 368.53 2.98627 5.10467 0
M  V30 4152 H 367.46 0.236698 0.715884 0
M  V30 4153 H 370.111 1.1868 1.39955 0
M  V30 4154 H 368.493 0.48319 3.93041 0
M  V30 4155 H 369.667 3.26136 3.25533 0
M  V30 4156 H 367.982 2.83323 3.05151 0
M  V30 4157 H 370.579 1.10586 5.23139 0
M  V30 4158 H 370.922 -0.227509 4.15678 0
M  V30 4159 H 371.455 1.41371 3.71832 0
M  V30 4160 H 368.194 4.04133 5.16098 0
M  V30 4161 H 367.714 2.3651 5.51201 0
M  V30 4162 H 369.393 2.89159 5.78788 0
M  V30 4163 N 369.525 -1.3858 0.750561 0
M  V30 4164 C 370.755 -2.04175 0.31564 0
M  V30 4165 C 371.163 -1.56726 -1.05989 0
M  V30 4166 O 370.506 -0.734225 -1.68389 0
M  V30 4167 C 370.568 -3.58585 0.256389 0
M  V30 4168 C 370.232 -4.29077 1.57296 0
M  V30 4169 C 371.229 -4.54656 2.52159 0
M  V30 4170 C 368.914 -4.67324 1.84156 0
M  V30 4171 C 370.908 -5.17512 3.72103 0
M  V30 4172 C 368.595 -5.29905 3.04374 0
M  V30 4173 C 369.593 -5.54933 3.98168 0
M  V30 4174 O 369.281 -6.16212 5.16273 0
M  V30 4175 H 369.013 -0.662742 0.133226 0
M  V30 4176 H 371.567 -1.78313 1.01948 0
M  V30 4177 H 369.797 -3.83406 -0.503677 0
M  V30 4178 H 371.486 -4.05628 -0.148612 0
M  V30 4179 H 372.252 -4.25539 2.32683 0
M  V30 4180 H 368.131 -4.47191 1.11988 0
M  V30 4181 H 371.675 -5.36963 4.45327 0
M  V30 4182 H 367.572 -5.58444 3.23745 0
M  V30 4183 H 368.34 -6.34701 5.16815 0
M  V30 4184 N 371.003 -0.499398 -1.49478 0
M  V30 4185 C 371.951 0.293604 -2.3074 0
M  V30 4186 C 372.945 0.96427 -1.39277 0
M  V30 4187 O 374.151 0.892141 -1.56336 0
M  V30 4188 H 370.526 0.113541 -0.743379 0
M  V30 4189 H 372.497 -0.411772 -2.95545 0
M  V30 4190 C 371.246 1.3462 -3.20582 0
M  V30 4191 H 370.569 0.83954 -3.90886 0
M  V30 4192 H 372.009 1.87308 -3.80384 0
M  V30 4193 C 370.468 2.36351 -2.40083 0
M  V30 4194 O 370.998 3.422 -2.10385 0
M  V30 4195 N 369.204 2.0878 -2.02137 0
M  V30 4196 H 368.751 1.22723 -2.26488 0
M  V30 4197 H 368.709 2.77075 -1.48583 0
M  V30 4198 N 372.481 1.55866 -0.233164 0
M  V30 4199 C 373.413 2.18099 0.704668 0
M  V30 4200 C 374.426 1.15334 1.14899 0
M  V30 4201 O 375.615 1.42262 1.07814 0
M  V30 4202 C 372.715 2.7592 1.96777 0
M  V30 4203 C 371.888 4.03969 1.67713 0
M  V30 4204 C 370.947 4.46242 2.78845 0
M  V30 4205 O 369.973 5.12903 2.46818 0
M  V30 4206 N 371.175 4.12886 4.08051 0
M  V30 4207 H 373.94 2.99205 0.172258 0
M  V30 4208 H 371.501 1.61815 -0.0525945 0
M  V30 4209 H 373.493 3.01165 2.70337 0
M  V30 4210 H 372.063 1.99051 2.41034 0
M  V30 4211 H 371.283 3.86459 0.777391 0
M  V30 4212 H 372.571 4.8748 1.4574 0
M  V30 4213 H 371.969 3.59342 4.3691 0
M  V30 4214 H 370.526 4.42997 4.78118 0
M  V30 4215 N 373.959 -0.0401083 1.57549 0
M  V30 4216 C 375.187 -0.745196 1.93014 0
M  V30 4217 C 375.602 -1.6948 0.831984 0
M  V30 4218 O 374.959 -1.81482 -0.192463 0
M  V30 4219 C 375.01 -1.51176 3.28372 0
M  V30 4220 O 374.731 -0.600284 4.33968 0
M  V30 4221 C 376.232 -2.315 3.78051 0
M  V30 4222 H 373.452 -0.210088 0.637263 0
M  V30 4223 H 375.996 -0.000924689 2.045 0
M  V30 4224 H 374.151 -2.20801 3.18317 0
M  V30 4225 H 374.565 -1.13669 5.12035 0
M  V30 4226 H 376.039 -2.80697 4.75303 0
M  V30 4227 H 376.516 -3.12436 3.08675 0
M  V30 4228 H 377.122 -1.66971 3.91153 0
M  V30 4229 N 375.437 -1.54477 -0.31217 0
M  V30 4230 C 376.662 -1.77526 -1.07235 0
M  V30 4231 C 377.087 -0.527775 -1.80544 0
M  V30 4232 O 376.445 0.52121 -1.73646 0
M  V30 4233 C 376.493 -2.97535 -2.03728 0
M  V30 4234 O 375.597 -2.69878 -3.11833 0
M  V30 4235 H 374.938 -0.58792 -0.30862 0
M  V30 4236 H 377.468 -2.01532 -0.352993 0
M  V30 4237 H 377.478 -3.25198 -2.46395 0
M  V30 4238 H 376.153 -3.87996 -1.49774 0
M  V30 4239 H 374.73 -2.53199 -2.7376 0
M  V30 4240 N 376.915 0.57481 -1.46744 0
M  V30 4241 C 378.143 1.35856 -1.56047 0
M  V30 4242 C 378.558 1.87691 -0.204365 0
M  V30 4243 O 377.915 1.64049 0.79963 0
M  V30 4244 C 377.966 2.54066 -2.57163 0
M  V30 4245 O 377.687 2.04377 -3.87507 0
M  V30 4246 C 379.188 3.46514 -2.76483 0
M  V30 4247 H 376.408 0.414754 -0.527466 0
M  V30 4248 H 378.952 0.698035 -1.92218 0
M  V30 4249 H 377.107 3.16092 -2.23974 0
M  V30 4250 H 377.521 2.81419 -4.4261 0
M  V30 4251 H 378.995 4.25919 -3.51137 0
M  V30 4252 H 379.472 3.98951 -1.83671 0
M  V30 4253 H 380.078 2.90318 -3.10799 0
M  V30 4254 N 378.394 1.34581 0.820102 0
M  V30 4255 C 379.326 1.22236 1.93884 0
M  V30 4256 C 380.339 0.148776 1.62119 0
M  V30 4257 O 381.528 0.400877 1.7394 0
M  V30 4258 C 378.628 0.856542 3.27897 0
M  V30 4259 C 377.801 2.02569 3.87666 0
M  V30 4260 C 376.86 1.63782 5.00062 0
M  V30 4261 O 375.886 2.35477 5.18208 0
M  V30 4262 N 377.088 0.553611 5.77854 0
M  V30 4263 H 379.853 2.18615 2.05006 0
M  V30 4264 H 377.414 1.27573 0.99683 0
M  V30 4265 H 379.406 0.578806 4.0054 0
M  V30 4266 H 377.976 -0.0171518 3.12595 0
M  V30 4267 H 377.196 2.468 3.07382 0
M  V30 4268 H 378.484 2.80752 4.24329 0
M  V30 4269 H 377.882 -0.0423528 5.65684 0
M  V30 4270 H 376.439 0.335614 6.50935 0
M  V30 4271 N 379.872 -1.04064 1.18357 0
M  V30 4272 C 380.82 -2.14187 0.907007 0
M  V30 4273 C 381.814 -1.68879 -0.132725 0
M  V30 4274 O 383.02 -1.79993 0.0154248 0
M  V30 4275 H 379.395 -0.699585 0.275835 0
M  V30 4276 H 381.366 -2.34711 1.84264 0
M  V30 4277 C 380.115 -3.44785 0.449254 0
M  V30 4278 H 379.438 -3.80058 1.24081 0
M  V30 4279 H 380.878 -4.22974 0.294737 0
M  V30 4280 C 379.337 -3.26391 -0.834909 0
M  V30 4281 O 379.867 -3.53973 -1.89911 0
M  V30 4282 N 378.073 -2.79726 -0.787523 0
M  V30 4283 H 377.62 -2.5748 0.0787347 0
M  V30 4284 H 377.578 -2.67798 -1.64716 0
M  V30 4285 N 381.35 -0.985608 -1.22978 0
M  V30 4286 C 382.599 -0.652881 -1.90841 0
M  V30 4287 C 382.912 0.817842 -1.77681 0
M  V30 4288 O 384.118 1.26185 -2.40395 0
M  V30 4289 C 382.574 -1.11717 -3.42122 0
M  V30 4290 C 382.182 -2.6126 -3.63933 0
M  V30 4291 C 383.926 -0.85843 -4.1573 0
M  V30 4292 C 381.833 -3.0133 -5.08876 0
M  V30 4293 H 380.763 -0.240491 -0.714619 0
M  V30 4294 H 383.414 -1.1942 -1.39324 0
M  V30 4295 H 381.796 -0.504027 -3.92779 0
M  V30 4296 H 382.97 -3.27858 -3.23799 0
M  V30 4297 H 381.285 -2.84937 -3.03644 0
M  V30 4298 H 383.882 -1.13359 -5.22546 0
M  V30 4299 H 384.225 0.205461 -4.15793 0
M  V30 4300 H 384.758 -1.43341 -3.71077 0
M  V30 4301 H 381.497 -4.06864 -5.13947 0
M  V30 4302 H 381.017 -2.3943 -5.49939 0
M  V30 4303 H 382.696 -2.92224 -5.77247 0
M  V30 4304 N 382.828 1.3818 -0.7579 0
M  V30 4305 C 383.791 2.28764 -0.141286 0
M  V30 4306 C 384.791 1.47388 0.642907 0
M  V30 4307 O 385.981 1.67781 0.468536 0
M  V30 4308 C 383.113 3.31184 0.808069 0
M  V30 4309 H 384.306 2.848 -0.939633 0
M  V30 4310 H 381.859 1.47212 -0.525191 0
M  V30 4311 H 382.594 2.80247 1.63193 0
M  V30 4312 H 382.379 3.91314 0.248104 0
M  V30 4313 H 383.869 3.98909 1.23536 0
M  V30 4314 N 384.306 0.507319 1.49211 0
M  V30 4315 C 385.717 0.0611118 1.866 0
M  V30 4316 C 386.068 -1.35488 1.41907 0
M  V30 4317 O 385.193 -2.0108 0.799726 0
M  V30 4318 C 385.788 0.104125 3.3864 0
M  V30 4319 C 384.347 -0.28677 3.75306 0
M  V30 4320 C 383.494 0.473893 2.73221 0
M  V30 4321 H 386.445 0.719775 1.41439 0
M  V30 4322 H 386.466 -0.689672 3.74198 0
M  V30 4323 H 385.978 1.13482 3.71138 0
M  V30 4324 H 384.079 -1.32046 3.48417 0
M  V30 4325 H 384.192 0.0370745 4.79086 0
M  V30 4326 H 382.556 -0.0770644 2.54583 0
M  V30 4327 H 383.339 1.50478 3.08563 0
M  V30 4328 N 385.784 -1.5574 0.241426 0
M  V30 4329 C 387.014 -2.02913 -0.38857 0
M  V30 4330 C 387.422 -1.12014 -1.52478 0
M  V30 4331 O 386.765 -0.125903 -1.83268 0
M  V30 4332 C 386.827 -3.4636 -0.963075 0
M  V30 4333 C 386.491 -4.56982 0.0401916 0
M  V30 4334 C 387.488 -5.12941 0.847766 0
M  V30 4335 C 385.173 -5.0203 0.164699 0
M  V30 4336 C 387.167 -6.12437 1.76636 0
M  V30 4337 C 384.854 -6.01358 1.0868 0
M  V30 4338 C 385.852 -6.5644 1.88616 0
M  V30 4339 O 385.54 -7.53831 2.79273 0
M  V30 4340 H 385.272 -0.668983 -0.0971452 0
M  V30 4341 H 387.826 -2.02198 0.361248 0
M  V30 4342 H 386.056 -3.44206 -1.76235 0
M  V30 4343 H 387.745 -3.77065 -1.50257 0
M  V30 4344 H 388.511 -4.78974 0.762133 0
M  V30 4345 H 384.39 -4.58824 -0.447411 0
M  V30 4346 H 387.934 -6.55355 2.39071 0
M  V30 4347 H 383.831 -6.34746 1.17338 0
M  V30 4348 H 384.599 -7.71428 2.73572 0
M  V30 4349 N 387.262 0.0317525 -1.57568 0
M  V30 4350 C 388.508 0.724175 -1.8943 0
M  V30 4351 C 388.841 1.75149 -0.838836 0
M  V30 4352 O 388.116 1.93948 0.146422 0
M  V30 4353 C 388.399 1.39615 -3.31933 0
M  V30 4354 C 388.252 0.382537 -4.4817 0
M  V30 4355 C 389.571 2.33084 -3.73309 0
M  V30 4356 H 386.69 0.261797 -0.688935 0
M  V30 4357 H 389.332 -0.013017 -1.89996 0
M  V30 4358 H 387.482 2.02451 -3.31581 0
M  V30 4359 H 389.154 -0.243689 -4.60656 0
M  V30 4360 H 387.397 -0.29844 -4.32772 0
M  V30 4361 H 388.068 0.891145 -5.44759 0
M  V30 4362 H 390.544 1.80295 -3.7501 0
M  V30 4363 H 389.42 2.77084 -4.73831 0
M  V30 4364 H 389.681 3.19643 -3.05419 0
M  V30 4365 N 388.74 1.54641 0.303973 0
M  V30 4366 C 389.986 1.74038 1.04109 0
M  V30 4367 C 390.319 0.523051 1.87024 0
M  V30 4368 O 389.594 -0.479874 1.88487 0
M  V30 4369 C 389.877 3.02761 1.94955 0
M  V30 4370 C 389.73 4.34787 1.1524 0
M  V30 4371 C 391.049 3.27336 2.94175 0
M  V30 4372 H 388.168 0.63323 0.377079 0
M  V30 4373 H 390.81 1.87354 0.316001 0
M  V30 4374 H 388.96 2.9154 2.56782 0
M  V30 4375 H 390.632 4.57922 0.557236 0
M  V30 4376 H 388.875 4.31407 0.455053 0
M  V30 4377 H 389.546 5.21116 1.8205 0
M  V30 4378 H 392.022 3.38148 2.42477 0
M  V30 4379 H 390.898 4.18726 3.54908 0
M  V30 4380 H 391.159 2.45491 3.67677 0
M  V30 4381 N 390.218 -0.567019 1.47046 0
M  V30 4382 C 391.495 -1.3276 1.43646 0
M  V30 4383 C 391.875 -2.1071 0.128186 0
M  V30 4384 O 391.223 -2.10441 -0.890326 0
M  V30 4385 C 391.433 -2.2404 2.67595 0
M  V30 4386 C 392.781 -2.85372 3.14401 0
M  V30 4387 O 393.805 -2.34346 2.68254 0
M  V30 4388 O 392.664 -3.78091 3.946 0
M  V30 4389 H 389.758 -0.597293 0.571988 0
M  V30 4390 H 392.304 -0.586735 1.59234 0
M  V30 4391 H 391.076 -1.65975 3.54356 0
M  V30 4392 H 390.699 -3.05439 2.54544 0
M  V30 4393 N 391.696 -1.35014 -0.812953 0
M  V30 4394 C 392.606 -1.2951 -1.95613 0
M  V30 4395 C 393.622 -0.20107 -1.72834 0
M  V30 4396 O 394.798 -0.42932 -1.96771 0
M  V30 4397 C 391.863 -1.06033 -3.30088 0
M  V30 4398 C 390.924 -2.24688 -3.65805 0
M  V30 4399 C 390.157 -2.02322 -4.93864 0
M  V30 4400 O 390.38 -0.986464 -5.61805 0
M  V30 4401 O 389.314 -2.89525 -5.27692 0
M  V30 4402 H 393.14 -2.25705 -2.03202 0
M  V30 4403 H 390.725 -1.15321 -0.949811 0
M  V30 4404 H 392.607 -0.94763 -4.10607 0
M  V30 4405 H 391.282 -0.128852 -3.23443 0
M  V30 4406 H 390.189 -2.41521 -2.85689 0
M  V30 4407 H 391.522 -3.16261 -3.77147 0
M  V30 4408 N 393.175 1.03435 -1.18907 0
M  V30 4409 C 394.421 1.77005 -0.989798 0
M  V30 4410 C 394.754 1.88205 0.478816 0
M  V30 4411 O 394.029 1.39481 1.35556 0
M  V30 4412 C 394.312 3.19925 -1.65287 0
M  V30 4413 C 394.165 3.1663 -3.19477 0
M  V30 4414 C 395.484 4.18189 -1.37134 0
M  V30 4415 H 392.603 0.642538 -0.360991 0
M  V30 4416 H 395.245 1.20784 -1.46667 0
M  V30 4417 H 393.395 3.67929 -1.24741 0
M  V30 4418 H 395.067 2.76567 -3.692 0
M  V30 4419 H 393.31 2.54491 -3.51307 0
M  V30 4420 H 393.981 4.1758 -3.61013 0
M  V30 4421 H 396.457 3.78761 -1.72276 0
M  V30 4422 H 395.333 5.16394 -1.86087 0
M  V30 4423 H 395.594 4.41112 -0.295424 0
M  V30 4424 N 394.653 0.992116 1.22453 0
M  V30 4425 C 395.583 0.561677 2.26644 0
M  V30 4426 C 396.564 -0.411055 1.65059 0
M  V30 4427 O 397.749 -0.301861 1.9184 0
M  V30 4428 C 394.879 -0.125247 3.47074 0
M  V30 4429 C 393.833 0.765948 4.21091 0
M  V30 4430 C 393.159 -0.0538484 5.34673 0
M  V30 4431 C 394.459 2.06242 4.79856 0
M  V30 4432 H 396.153 1.43259 2.62902 0
M  V30 4433 H 393.699 0.690283 1.26377 0
M  V30 4434 H 395.652 -0.437764 4.1912 0
M  V30 4435 H 394.376 -1.03069 3.0991 0
M  V30 4436 H 393.035 1.0621 3.50878 0
M  V30 4437 H 392.683 -0.960188 4.9375 0
M  V30 4438 H 392.383 0.539415 5.85119 0
M  V30 4439 H 393.907 -0.360477 6.09535 0
M  V30 4440 H 395.321 1.8139 5.43848 0
M  V30 4441 H 393.718 2.60444 5.40638 0
M  V30 4442 H 394.788 2.74167 3.99951 0
M  V30 4443 N 396.131 -1.37776 0.765217 0
M  V30 4444 C 397.078 -2.30342 0.145274 0
M  V30 4445 C 398.048 -1.5077 -0.696971 0
M  V30 4446 O 399.233 -1.79362 -0.650689 0
M  V30 4447 C 396.373 -3.37227 -0.732939 0
M  V30 4448 C 395.486 -4.31819 0.125199 0
M  V30 4449 C 394.621 -5.25777 -0.757107 0
M  V30 4450 C 393.66 -6.12012 0.103963 0
M  V30 4451 N 392.797 -6.98232 -0.735953 0
M  V30 4452 H 397.637 -2.8278 0.940195 0
M  V30 4453 H 395.174 -1.39211 0.475255 0
M  V30 4454 H 397.132 -3.97818 -1.25686 0
M  V30 4455 H 395.762 -2.86171 -1.49353 0
M  V30 4456 H 394.814 -3.7259 0.766865 0
M  V30 4457 H 396.126 -4.92509 0.789683 0
M  V30 4458 H 395.28 -5.91541 -1.34776 0
M  V30 4459 H 394.019 -4.65481 -1.45529 0
M  V30 4460 H 393.024 -5.45233 0.707197 0
M  V30 4461 H 394.249 -6.74379 0.799381 0
M  V30 4462 H 392.195 -6.40472 -1.41887 0
M  V30 4463 H 392.112 -7.55891 -0.128624 0
M  V30 4464 H 393.38 -7.68393 -1.31121 0
M  V30 4465 N 397.609 -0.515225 -1.4894 0
M  V30 4466 C 398.541 0.292481 -2.27326 0
M  V30 4467 C 399.554 0.917838 -1.3446 0
M  V30 4468 O 400.743 0.798772 -1.5963 0
M  V30 4469 C 397.843 1.42803 -3.07344 0
M  V30 4470 C 397.016 0.907347 -4.27885 0
M  V30 4471 C 396.075 1.92222 -4.89834 0
M  V30 4472 O 395.101 1.48506 -5.49486 0
M  V30 4473 N 396.303 3.25355 -4.80754 0
M  V30 4474 H 399.068 -0.379721 -2.97285 0
M  V30 4475 H 396.629 -0.348638 -1.58102 0
M  V30 4476 H 398.621 2.10481 -3.45658 0
M  V30 4477 H 397.191 2.00414 -2.39902 0
M  V30 4478 H 396.411 0.0550218 -3.94162 0
M  V30 4479 H 397.699 0.538108 -5.05946 0
M  V30 4480 H 397.097 3.6355 -4.33414 0
M  V30 4481 H 395.654 3.88707 -5.23211 0
M  V30 4482 N 399.087 1.5561 -0.249682 0
M  V30 4483 C 400.017 2.24477 0.642826 0
M  V30 4484 C 400.998 1.22601 1.17911 0
M  V30 4485 O 402.183 1.5126 1.21795 0
M  V30 4486 C 399.313 2.94638 1.83863 0
M  V30 4487 C 398.267 4.03227 1.435 0
M  V30 4488 C 397.593 4.60828 2.71186 0
M  V30 4489 C 398.893 5.18796 0.604002 0
M  V30 4490 H 400.587 2.99321 0.0685625 0
M  V30 4491 H 398.133 1.43965 0.0315363 0
M  V30 4492 H 400.086 3.41517 2.46868 0
M  V30 4493 H 398.81 2.17287 2.43832 0
M  V30 4494 H 397.469 3.57121 0.828275 0
M  V30 4495 H 397.117 3.80174 3.29358 0
M  V30 4496 H 396.817 5.34132 2.44901 0
M  V30 4497 H 398.341 5.10442 3.35084 0
M  V30 4498 H 399.755 5.61883 1.13842 0
M  V30 4499 H 398.152 5.98506 0.437097 0
M  V30 4500 H 399.222 4.83384 -0.383147 0
M  V30 4501 N 400.565 -0.0233959 1.57583 0
M  V30 4502 C 401.842 -0.748794 1.807 0
M  V30 4503 C 402.222 -1.9327 0.849106 0
M  V30 4504 O 401.57 -2.28247 -0.107468 0
M  V30 4505 C 401.78 -1.17651 3.28571 0
M  V30 4506 C 403.128 -1.59008 3.93702 0
M  V30 4507 O 404.152 -1.27094 3.32755 0
M  V30 4508 O 403.011 -2.18264 5.01022 0
M  V30 4509 H 400.105 -0.362578 0.743281 0
M  V30 4510 H 402.651 0.000261958 1.697 0
M  V30 4511 H 401.423 -0.331603 3.89892 0
M  V30 4512 H 401.046 -1.98541 3.44481 0
M  V30 4513 N 402.043 -1.548 -0.295768 0
M  V30 4514 C 402.975 -1.82492 -1.3867 0
M  V30 4515 C 403.988 -0.708134 -1.46592 0
M  V30 4516 O 405.177 -0.985686 -1.48817 0
M  V30 4517 C 402.277 -1.95256 -2.76999 0
M  V30 4518 C 401.45 -3.25709 -2.91946 0
M  V30 4519 C 400.509 -3.28824 -4.10806 0
M  V30 4520 O 399.535 -4.02328 -4.02643 0
M  V30 4521 N 400.737 -2.5459 -5.21694 0
M  V30 4522 H 403.502 -2.76646 -1.15269 0
M  V30 4523 H 401.063 -1.54438 -0.485849 0
M  V30 4524 H 403.055 -1.94736 -3.54768 0
M  V30 4525 H 401.625 -1.08072 -2.93324 0
M  V30 4526 H 400.845 -3.38959 -2.01247 0
M  V30 4527 H 402.133 -4.11786 -2.98847 0
M  V30 4528 H 401.531 -1.94512 -5.31208 0
M  V30 4529 H 400.088 -2.59818 -5.97778 0
M  V30 4530 N 403.521 0.559213 -1.47345 0
M  V30 4531 C 404.451 1.67622 -1.62558 0
M  V30 4532 C 405.432 1.63331 -0.475087 0
M  V30 4533 O 406.617 1.80983 -0.704182 0
M  V30 4534 C 403.747 3.0626 -1.63774 0
M  V30 4535 C 402.701 3.25397 -2.7803 0
M  V30 4536 C 402.027 4.64801 -2.64318 0
M  V30 4537 C 403.327 3.10965 -4.19641 0
M  V30 4538 H 405.021 1.55146 -2.56067 0
M  V30 4539 H 402.567 0.744961 -1.23233 0
M  V30 4540 H 404.52 3.84247 -1.73008 0
M  V30 4541 H 403.244 3.1969 -0.66825 0
M  V30 4542 H 401.903 2.49817 -2.68304 0
M  V30 4543 H 401.551 4.75028 -1.65401 0
M  V30 4544 H 401.251 4.78555 -3.40968 0
M  V30 4545 H 402.775 5.44926 -2.75478 0
M  V30 4546 H 404.189 3.78772 -4.30354 0
M  V30 4547 H 402.586 3.36229 -4.97062 0
M  V30 4548 H 403.656 2.07736 -4.38148 0
M  V30 4549 N 404.999 1.35443 0.805782 0
M  V30 4550 C 406.276 1.19325 1.54987 0
M  V30 4551 C 406.656 -0.227294 2.09873 0
M  V30 4552 O 406.004 -1.2309 1.92512 0
M  V30 4553 C 406.214 2.26196 2.65775 0
M  V30 4554 C 407.562 2.62043 3.34094 0
M  V30 4555 O 408.586 2.25115 2.76046 0
M  V30 4556 O 407.445 3.25542 4.38958 0
M  V30 4557 H 404.539 0.463623 0.684823 0
M  V30 4558 H 407.085 1.47127 0.845674 0
M  V30 4559 H 405.857 3.21471 2.23096 0
M  V30 4560 H 405.48 1.99667 3.43829 0
M  V30 4561 N 406.477 -1.02803 1.19454 0
M  V30 4562 C 407.725 -1.75869 0.995722 0
M  V30 4563 C 408.046 -1.89138 -0.474543 0
M  V30 4564 O 407.316 -1.42558 -1.34366 0
M  V30 4565 H 405.896 -0.651511 0.365435 0
M  V30 4566 H 408.558 -1.24004 1.50363 0
M  V30 4567 H 407.654 -2.76661 1.44447 0
M  V30 4568 N 407.956 -0.998596 -1.21925 0
M  V30 4569 C 408.886 -0.573688 -2.26343 0
M  V30 4570 C 409.867 0.402296 -1.65274 0
M  V30 4571 O 411.052 0.291683 -1.91997 0
M  V30 4572 C 408.182 0.106839 -3.47136 0
M  V30 4573 C 407.136 -0.788269 -4.20678 0
M  V30 4574 C 406.462 0.0254927 -5.34694 0
M  V30 4575 C 407.762 -2.08784 -4.78755 0
M  V30 4576 H 409.456 -1.44651 -2.62138 0
M  V30 4577 H 407.002 -0.696975 -1.26009 0
M  V30 4578 H 408.955 0.415531 -4.19346 0
M  V30 4579 H 407.679 1.01424 -3.10452 0
M  V30 4580 H 406.338 -1.08069 -3.50309 0
M  V30 4581 H 405.986 0.933989 -4.94253 0
M  V30 4582 H 405.686 -0.570437 -5.84825 0
M  V30 4583 H 407.21 0.328147 -6.09718 0
M  V30 4584 H 408.624 -1.84272 -5.42878 0
M  V30 4585 H 407.021 -2.63307 -5.39249 0
M  V30 4586 H 408.091 -2.76284 -3.98491 0
M  V30 4587 N 409.434 1.37368 -0.772513 0
M  V30 4588 C 410.381 2.30262 -0.157488 0
M  V30 4589 C 411.351 1.51137 0.688965 0
M  V30 4590 O 412.536 1.79704 0.641168 0
M  V30 4591 C 409.676 3.37611 0.715045 0
M  V30 4592 C 408.789 4.31746 -0.148098 0
M  V30 4593 C 407.924 5.26171 0.729213 0
M  V30 4594 C 406.963 6.11948 -0.136418 0
M  V30 4595 N 406.1 6.98613 0.698914 0
M  V30 4596 H 410.94 2.82277 -0.955179 0
M  V30 4597 H 408.477 1.38957 -0.482631 0
M  V30 4598 H 410.435 3.98479 1.23575 0
M  V30 4599 H 409.065 2.86959 1.47833 0
M  V30 4600 H 408.117 3.72178 -0.786613 0
M  V30 4601 H 409.429 4.92084 -0.81579 0
M  V30 4602 H 408.583 5.92247 1.31637 0
M  V30 4603 H 407.322 4.66246 1.43059 0
M  V30 4604 H 406.327 5.4485 -0.736102 0
M  V30 4605 H 407.552 6.73945 -0.835134 0
M  V30 4606 H 405.498 6.41215 1.38489 0
M  V30 4607 H 405.415 7.55948 0.0885358 0
M  V30 4608 H 406.683 7.69077 1.27044 0
M  V30 4609 N 410.912 0.523116 1.48665 0
M  V30 4610 C 412.14 -0.0096312 2.06898 0
M  V30 4611 C 412.555 -1.28784 1.38059 0
M  V30 4612 O 411.912 -1.76453 0.465893 0
M  V30 4613 C 411.963 -0.244386 3.60673 0
M  V30 4614 O 411.684 0.983172 4.26925 0
M  V30 4615 C 413.185 -0.818289 4.35682 0
M  V30 4616 H 410.405 0.0304161 0.67031 0
M  V30 4617 H 412.949 0.726799 1.91149 0
M  V30 4618 H 411.104 -0.930847 3.76051 0
M  V30 4619 H 411.518 0.759653 5.1897 0
M  V30 4620 H 412.992 -0.93201 5.44075 0
M  V30 4621 H 413.469 -1.82153 3.99646 0
M  V30 4622 H 414.075 -0.168609 4.24966 0
M  V30 4623 N 412.39 -1.55475 0.257931 0
M  V30 4624 C 413.322 -2.19192 -0.669881 0
M  V30 4625 C 414.335 -1.17148 -1.1305 0
M  V30 4626 O 415.524 -1.43959 -1.05537 0
M  V30 4627 C 412.624 -2.79016 -1.92363 0
M  V30 4628 C 411.797 -4.06586 -1.61265 0
M  V30 4629 C 410.856 -4.50622 -2.7171 0
M  V30 4630 O 409.882 -5.16765 -2.38627 0
M  V30 4631 N 411.084 -4.19325 -4.01431 0
M  V30 4632 H 413.849 -2.99441 -0.124635 0
M  V30 4633 H 411.41 -1.6171 0.0783311 0
M  V30 4634 H 413.402 -3.05427 -2.65511 0
M  V30 4635 H 411.972 -2.0286 -2.37837 0
M  V30 4636 H 411.192 -3.87646 -0.715811 0
M  V30 4637 H 412.48 -4.89737 -1.37967 0
M  V30 4638 H 411.878 -3.66247 -4.31138 0
M  V30 4639 H 410.435 -4.50547 -4.7101 0
M  V30 4640 N 413.868 0.0150385 -1.57593 0
M  V30 4641 C 415.116 0.701613 -1.8953 0
M  V30 4642 C 415.437 1.75139 -0.857396 0
M  V30 4643 O 414.707 1.95607 0.107194 0
M  V30 4644 H 413.287 0.26213 -0.699498 0
M  V30 4645 H 415.949 -0.0223304 -1.94887 0
M  V30 4646 H 415.045 1.18236 -2.88837 0
M  V30 4647 N 415.346 1.54954 0.287554 0
M  V30 4648 C 416.576 1.78622 1.03816 0
M  V30 4649 C 416.984 0.552451 1.80955 0
M  V30 4650 O 416.327 -0.487665 1.77109 0
M  V30 4651 C 416.389 2.94975 2.055 0
M  V30 4652 C 416.053 4.32565 1.47433 0
M  V30 4653 C 417.05 5.12096 0.897436 0
M  V30 4654 C 414.735 4.79195 1.50591 0
M  V30 4655 C 416.729 6.36383 0.359851 0
M  V30 4656 C 414.416 6.03441 0.964459 0
M  V30 4657 C 415.414 6.81872 0.392413 0
M  V30 4658 O 415.102 8.03777 -0.140788 0
M  V30 4659 H 414.834 0.599144 0.313053 0
M  V30 4660 H 417.388 2.02761 0.328225 0
M  V30 4661 H 415.618 2.66493 2.80211 0
M  V30 4662 H 417.307 3.06097 2.6657 0
M  V30 4663 H 418.073 4.77209 0.865841 0
M  V30 4664 H 413.952 4.18167 1.94055 0
M  V30 4665 H 417.496 6.97545 -0.0872951 0
M  V30 4666 H 413.393 6.37813 0.993246 0
M  V30 4667 H 414.161 8.18495 -0.0287617 0
M  V30 4668 N 416.824 -0.551391 1.4764 0
M  V30 4669 C 418.052 -1.33357 1.58189 0
M  V30 4670 C 418.467 -1.87342 0.234199 0
M  V30 4671 O 417.824 -1.65301 -0.77343 0
M  V30 4672 C 417.875 -2.49942 2.61173 0
M  V30 4673 O 417.596 -1.98187 3.90709 0
M  V30 4674 C 419.097 -3.42072 2.8196 0
M  V30 4675 H 416.317 -0.40631 0.533998 0
M  V30 4676 H 418.861 -0.667367 1.93304 0
M  V30 4677 H 417.016 -3.12489 2.28975 0
M  V30 4678 H 417.43 -2.74342 4.47031 0
M  V30 4679 H 418.904 -4.20278 3.57869 0
M  V30 4680 H 419.381 -3.95978 1.89995 0
M  V30 4681 H 419.987 -2.85336 3.15378 0
M  V30 4682 N 418.302 -1.35869 -0.798587 0
M  V30 4683 C 419.551 -1.28921 -1.5512 0
M  V30 4684 C 419.864 0.13208 -1.95154 0
M  V30 4685 O 421.07 0.323879 -2.69561 0
M  V30 4686 C 419.526 -2.26141 -2.79979 0
M  V30 4687 C 419.134 -3.73658 -2.47151 0
M  V30 4688 C 420.878 -2.28152 -3.57976 0
M  V30 4689 C 418.785 -4.62679 -3.6835 0
M  V30 4690 H 417.715 -0.479031 -0.582276 0
M  V30 4691 H 420.366 -1.61179 -0.877125 0
M  V30 4692 H 418.748 -1.86865 -3.49138 0
M  V30 4693 H 419.922 -4.21616 -1.85947 0
M  V30 4694 H 418.237 -3.74333 -1.82383 0
M  V30 4695 H 420.834 -2.91875 -4.4801 0
M  V30 4696 H 421.177 -1.28748 -3.95891 0
M  V30 4697 H 421.71 -2.65998 -2.95787 0
M  V30 4698 H 418.449 -5.63111 -3.35538 0
M  V30 4699 H 417.969 -4.19442 -4.28752 0
M  V30 4700 H 419.648 -4.78498 -4.35487 0
M  V30 4701 N 419.78 1.02168 -1.19998 0
M  V30 4702 C 420.727 2.10601 -0.944228 0
M  V30 4703 C 421.697 1.65639 0.123664 0
M  V30 4704 O 422.882 1.9079 -0.0199941 0
M  V30 4705 C 420.022 3.41504 -0.496865 0
M  V30 4706 C 419.135 3.99973 -1.63234 0
M  V30 4707 C 418.27 5.18915 -1.13579 0
M  V30 4708 C 417.309 5.69456 -2.24468 0
M  V30 4709 N 416.446 6.79665 -1.76068 0
M  V30 4710 H 421.286 2.31814 -1.8726 0
M  V30 4711 H 418.823 1.13686 -0.933483 0
M  V30 4712 H 420.781 4.16626 -0.218843 0
M  V30 4713 H 419.411 3.2038 0.394508 0
M  V30 4714 H 418.463 3.21997 -2.0254 0
M  V30 4715 H 419.775 4.33492 -2.46752 0
M  V30 4716 H 418.929 6.01222 -0.813429 0
M  V30 4717 H 417.668 4.8695 -0.270434 0
M  V30 4718 H 416.673 4.85757 -2.57526 0
M  V30 4719 H 417.898 6.03459 -3.11472 0
M  V30 4720 H 415.844 6.49538 -0.918516 0
M  V30 4721 H 415.761 7.12349 -2.5317 0
M  V30 4722 H 417.029 7.65549 -1.46817 0
M  V30 4723 N 421.258 1.00505 1.21394 0
M  V30 4724 C 422.188 0.585684 2.26035 0
M  V30 4725 C 423.169 -0.393525 1.65485 0
M  V30 4726 O 424.354 -0.281497 1.92149 0
M  V30 4727 C 421.484 -0.0884283 3.47187 0
M  V30 4728 C 420.438 0.810567 4.20254 0
M  V30 4729 C 419.764 0.00286382 5.347 0
M  V30 4730 C 421.064 2.1132 4.77641 0
M  V30 4731 H 422.758 1.46039 2.61368 0
M  V30 4732 H 420.304 0.703648 1.25638 0
M  V30 4733 H 422.257 -0.393286 4.19561 0
M  V30 4734 H 420.981 -0.997766 3.10986 0
M  V30 4735 H 419.64 1.09925 3.49731 0
M  V30 4736 H 419.288 -0.907765 4.94741 0
M  V30 4737 H 418.988 0.601444 5.84514 0
M  V30 4738 H 420.512 -0.295808 6.09883 0
M  V30 4739 H 421.926 1.87148 5.41893 0
M  V30 4740 H 420.323 2.66164 5.37845 0
M  V30 4741 H 421.393 2.78393 3.9702 0
M  V30 4742 N 422.737 -1.36956 0.779787 0
M  V30 4743 C 423.965 -2.03755 0.359398 0
M  V30 4744 C 424.38 -1.58807 -1.02106 0
M  V30 4745 O 423.737 -0.773024 -1.6532 0
M  V30 4746 C 423.788 -3.59251 0.402568 0
M  V30 4747 O 423.509 -4.02557 1.72858 0
M  V30 4748 C 425.01 -4.43291 -0.0284068 0
M  V30 4749 H 422.23 -0.654148 0.149437 0
M  V30 4750 H 424.774 -1.75128 1.05595 0
M  V30 4751 H 422.929 -3.86621 -0.245478 0
M  V30 4752 H 423.343 -4.97111 1.67275 0
M  V30 4753 H 424.817 -5.51975 0.0529466 0
M  V30 4754 H 425.294 -4.25719 -1.07982 0
M  V30 4755 H 425.9 -4.21163 0.591758 0
M  V30 4756 N 424.215 -0.530993 -1.48385 0
M  V30 4757 C 425.464 0.00474348 -2.01699 0
M  V30 4758 C 425.777 1.35227 -1.41325 0
M  V30 4759 O 426.983 1.97643 -1.86144 0
M  V30 4760 C 425.439 0.0588473 -3.59852 0
M  V30 4761 C 425.047 -1.28385 -4.2921 0
M  V30 4762 C 426.791 0.543358 -4.21008 0
M  V30 4763 C 424.698 -1.19028 -5.79298 0
M  V30 4764 H 423.628 0.00554317 -0.75398 0
M  V30 4765 H 426.279 -0.674924 -1.70637 0
M  V30 4766 H 424.661 0.803612 -3.8776 0
M  V30 4767 H 425.835 -2.04426 -4.12973 0
M  V30 4768 H 424.15 -1.70418 -3.7993 0
M  V30 4769 H 426.747 0.631351 -5.3096 0
M  V30 4770 H 427.09 1.54937 -3.86394 0
M  V30 4771 H 427.623 -0.145754 -3.97533 0
M  V30 4772 H 424.362 -2.17147 -6.18488 0
M  V30 4773 H 423.882 -0.471246 -5.97946 0
M  V30 4774 H 425.561 -0.881365 -6.40969 0
M  V30 4775 N 425.693 1.55336 -0.266172 0
M  V30 4776 C 426.97 1.91372 0.404486 0
M  V30 4777 C 427.35 1.18935 1.74407 0
M  V30 4778 O 426.698 0.3132 2.26343 0
M  V30 4779 C 426.908 3.44581 0.553593 0
M  V30 4780 C 428.256 4.16196 0.840618 0
M  V30 4781 O 429.28 3.50426 0.638739 0
M  V30 4782 O 428.139 5.32567 1.22618 0
M  V30 4783 H 425.233 0.797194 0.220025 0
M  V30 4784 H 427.779 1.66813 -0.311664 0
M  V30 4785 H 426.551 3.89357 -0.389498 0
M  V30 4786 H 426.174 3.75065 1.31955 0
M  V30 4787 N 427.171 -0.0066808 1.57599 0
M  V30 4788 C 428.101 -0.999296 2.11036 0
M  V30 4789 C 429.082 -1.36278 1.01795 0
M  V30 4790 O 430.267 -1.4477 1.29442 0
M  V30 4791 C 427.397 -2.29328 2.60818 0
M  V30 4792 C 426.351 -2.07159 3.74525 0
M  V30 4793 C 425.677 -3.42512 4.10596 0
M  V30 4794 C 426.977 -1.43959 5.02069 0
M  V30 4795 H 428.671 -0.554382 2.94223 0
M  V30 4796 H 426.217 -0.265221 1.41536 0
M  V30 4797 H 428.17 -2.99117 2.96828 0
M  V30 4798 H 426.894 -2.7592 1.74745 0
M  V30 4799 H 425.553 -1.39797 3.38899 0
M  V30 4800 H 425.201 -3.86795 3.21556 0
M  V30 4801 H 424.901 -3.28498 4.87199 0
M  V30 4802 H 426.425 -4.13628 4.4916 0
M  V30 4803 H 427.839 -2.03696 5.35893 0
M  V30 4804 H 426.236 -1.40452 5.83432 0
M  V30 4805 H 427.306 -0.407992 4.83181 0
M  V30 4806 N 428.649 -1.55105 -0.279332 0
M  V30 4807 C 429.926 -1.66119 -1.03267 0
M  V30 4808 C 430.306 -0.523525 -2.04505 0
M  V30 4809 O 429.654 0.477194 -2.23462 0
M  V30 4810 C 429.864 -3.05067 -1.69515 0
M  V30 4811 C 431.212 -3.62606 -2.20912 0
M  V30 4812 O 432.236 -3.07659 -1.79512 0
M  V30 4813 O 431.095 -4.58861 -2.96831 0
M  V30 4814 H 428.189 -0.674429 -0.478618 0
M  V30 4815 H 430.735 -1.67446 -0.275694 0
M  V30 4816 H 429.507 -3.79311 -0.9612 0
M  V30 4817 H 429.13 -3.07611 -2.51915 0
M  V30 4818 N 430.127 0.543554 -1.4793 0
M  V30 4819 C 431.357 1.32324 -1.58663 0
M  V30 4820 C 431.765 1.8766 -0.240896 0
M  V30 4821 O 431.108 1.66411 0.778011 0
M  V30 4822 C 431.17 2.52094 -2.56299 0
M  V30 4823 C 430.834 2.17944 -4.01683 0
M  V30 4824 C 431.831 1.74422 -4.89768 0
M  V30 4825 C 429.516 2.28884 -4.47121 0
M  V30 4826 C 431.51 1.42287 -6.21316 0
M  V30 4827 C 429.197 1.96361 -5.78693 0
M  V30 4828 C 430.195 1.53132 -6.65612 0
M  V30 4829 O 429.883 1.21029 -7.94737 0
M  V30 4830 H 429.615 0.409174 -0.538101 0
M  V30 4831 H 432.169 0.663887 -1.94375 0
M  V30 4832 H 430.399 3.20965 -2.15681 0
M  V30 4833 H 432.088 3.14165 -2.57012 0
M  V30 4834 H 432.854 1.65452 -4.55907 0
M  V30 4835 H 428.733 2.61488 -3.79664 0
M  V30 4836 H 432.277 1.08472 -6.89115 0
M  V30 4837 H 428.174 2.04967 -6.12094 0
M  V30 4838 H 428.942 1.34543 -8.07366 0
M  V30 4839 N 431.605 1.3629 0.791371 0
M  V30 4840 C 432.537 1.26321 1.91248 0
M  V30 4841 C 433.55 0.18313 1.61767 0
M  V30 4842 O 434.739 0.437682 1.73051 0
M  V30 4843 C 431.839 0.925901 3.26007 0
M  V30 4844 C 431.012 2.10746 3.83281 0
M  V30 4845 C 430.071 1.74352 4.96475 0
M  V30 4846 O 429.097 2.46416 5.13096 0
M  V30 4847 N 430.299 0.676058 5.7655 0
M  V30 4848 H 433.064 2.22915 2.00323 0
M  V30 4849 H 430.625 1.29659 0.969546 0
M  V30 4850 H 432.617 0.663636 3.99222 0
M  V30 4851 H 431.187 0.0491581 3.12561 0
M  V30 4852 H 430.407 2.53264 3.02077 0
M  V30 4853 H 431.695 2.8969 4.18279 0
M  V30 4854 H 431.093 0.0776467 5.65647 0
M  V30 4855 H 429.65 0.473612 6.50077 0
M  V30 4856 N 433.083 -1.0153 1.20538 0
M  V30 4857 C 434.499 -1.27461 0.96051 0
M  V30 4858 C 434.699 -1.98273 -0.359193 0
M  V30 4859 O 433.755 -2.27886 -1.0874 0
M  V30 4860 C 435.068 -2.10837 2.14402 0
M  V30 4861 C 436.616 -2.24099 2.18515 0
M  V30 4862 C 437.091 -3.10852 3.36355 0
M  V30 4863 N 438.582 -3.18441 3.36377 0
M  V30 4864 C 439.317 -3.85795 4.24205 0
M  V30 4865 N 438.813 -4.55264 5.22213 0
M  V30 4866 N 440.606 -3.82331 4.12043 0
M  V30 4867 H 432.757 -0.539907 2.05423 0
M  V30 4868 H 435.02 -0.30092 0.898972 0
M  V30 4869 H 434.726 -1.66144 3.09983 0
M  V30 4870 H 434.6 -3.11576 2.12604 0
M  V30 4871 H 436.987 -2.68016 1.23497 0
M  V30 4872 H 437.068 -1.22865 2.24361 0
M  V30 4873 H 436.712 -2.6764 4.31661 0
M  V30 4874 H 436.642 -4.12177 3.27746 0
M  V30 4875 H 439.133 -2.68978 2.65442 0
M  V30 4876 H 439.446 -5.04331 5.85551 0
M  V30 4877 H 437.791 -4.54085 5.26148 0
M  V30 4878 H 440.982 -3.27207 3.34743 0
M  V30 4879 H 441.155 -4.34547 4.807 0
M  V30 4880 N 434.561 -1.01147 -1.20859 0
M  V30 4881 C 435.491 -0.597663 -2.25722 0
M  V30 4882 C 436.472 0.384744 -1.65692 0
M  V30 4883 O 437.657 0.271303 -1.92296 0
M  V30 4884 C 434.787 0.0700149 -3.47229 0
M  V30 4885 C 433.741 -0.832843 -4.19819 0
M  V30 4886 C 433.067 -0.0312202 -5.34691 0
M  V30 4887 C 434.367 -2.1385 -4.76514 0
M  V30 4888 H 436.061 -1.47423 -2.60589 0
M  V30 4889 H 433.607 -0.710301 -1.25263 0
M  V30 4890 H 435.56 0.37103 -4.19763 0
M  V30 4891 H 434.284 0.981259 -3.11511 0
M  V30 4892 H 432.943 -1.11778 -3.49144 0
M  V30 4893 H 432.591 0.881515 -4.95215 0
M  V30 4894 H 432.291 -0.632434 -5.84187 0
M  V30 4895 H 433.815 0.26346 -6.10031 0
M  V30 4896 H 435.229 -1.9002 -5.40893 0
M  V30 4897 H 433.626 -2.69012 -5.36426 0
M  V30 4898 H 434.696 -2.80495 -3.95538 0
M  V30 4899 N 436.039 1.36541 -0.78704 0
M  V30 4900 C 437.002 2.28413 -0.189778 0
M  V30 4901 C 438.002 1.48719 0.611499 0
M  V30 4902 O 439.192 1.68737 0.432842 0
M  V30 4903 C 436.324 3.32824 0.737638 0
M  V30 4904 H 437.517 2.82743 -0.999831 0
M  V30 4905 H 435.07 1.46065 -0.556298 0
M  V30 4906 H 435.805 2.83646 1.57212 0
M  V30 4907 H 435.59 3.91752 0.165044 0
M  V30 4908 H 437.08 4.0144 1.15047 0
M  V30 4909 N 437.518 0.538854 1.48102 0
M  V30 4910 C 438.448 -0.207654 2.32575 0
M  V30 4911 C 439.429 -0.926559 1.4265 0
M  V30 4912 O 440.614 -0.91061 1.71527 0
M  V30 4913 C 437.744 -1.24957 3.24042 0
M  V30 4914 C 436.698 -0.648263 4.23062 0
M  V30 4915 C 436.024 -1.79348 5.03725 0
M  V30 4916 C 437.324 0.385897 5.20872 0
M  V30 4917 H 439.018 0.497534 2.95237 0
M  V30 4918 H 436.564 0.240715 1.41974 0
M  V30 4919 H 438.517 -1.77983 3.81969 0
M  V30 4920 H 437.241 -1.98446 2.59397 0
M  V30 4921 H 435.9 -0.139452 3.66335 0
M  V30 4922 H 435.548 -2.51696 4.35498 0
M  V30 4923 H 435.248 -1.39702 5.70751 0
M  V30 4924 H 436.772 -2.32735 5.64506 0
M  V30 4925 H 438.186 -0.057607 5.73271 0
M  V30 4926 H 436.583 0.700227 5.96001 0
M  V30 4927 H 437.653 1.28848 4.67468 0
M  V30 4928 N 438.996 -1.55193 0.274407 0
M  V30 4929 C 439.906 -2.26164 -0.623473 0
M  V30 4930 C 440.922 -1.28729 -1.17068 0
M  V30 4931 O 442.098 -1.61663 -1.20112 0
M  V30 4932 C 439.163 -2.96833 -1.7914 0
M  V30 4933 C 438.224 -4.09745 -1.28093 0
M  V30 4934 C 437.457 -4.77034 -2.3932 0
M  V30 4935 O 437.68 -4.4353 -3.5866 0
M  V30 4936 O 436.614 -5.64996 -2.07516 0
M  V30 4937 H 440.44 -3.03661 -0.0485661 0
M  V30 4938 H 438.025 -1.49341 0.0418382 0
M  V30 4939 H 439.907 -3.41248 -2.4724 0
M  V30 4940 H 438.582 -2.22253 -2.35341 0
M  V30 4941 H 437.489 -3.69787 -0.566416 0
M  V30 4942 H 438.822 -4.86224 -0.764683 0
M  V30 4943 N 440.474 -0.00167713 -1.576 0
M  V30 4944 C 441.699 0.69739 -1.95323 0
M  V30 4945 C 442.124 1.6642 -0.876706 0
M  V30 4946 O 441.482 1.80548 0.165007 0
M  V30 4947 C 441.53 1.40403 -3.32144 0
M  V30 4948 O 440.634 2.5185 -3.26566 0
M  V30 4949 H 439.975 0.185373 -0.637599 0
M  V30 4950 H 442.505 -0.0553665 -2.04525 0
M  V30 4951 H 442.515 1.76707 -3.67748 0
M  V30 4952 H 441.19 0.695167 -4.10049 0
M  V30 4953 H 439.767 2.17861 -3.0264 0
M  V30 4954 N 441.952 1.55251 0.271103 0
M  V30 4955 C 442.882 1.9127 1.33933 0
M  V30 4956 C 443.863 0.77478 1.5143 0
M  V30 4957 O 445.048 1.03307 1.64442 0
M  V30 4958 C 442.178 2.18627 2.69851 0
M  V30 4959 C 441.132 3.34442 2.67081 0
M  V30 4960 C 440.458 3.47284 4.06569 0
M  V30 4961 C 441.758 4.70784 2.26185 0
M  V30 4962 H 443.452 2.80744 1.04035 0
M  V30 4963 H 440.998 1.35077 0.499017 0
M  V30 4964 H 442.951 2.42413 3.44694 0
M  V30 4965 H 441.675 1.25955 3.01335 0
M  V30 4966 H 440.334 3.10627 1.94695 0
M  V30 4967 H 439.982 2.52074 4.35279 0
M  V30 4968 H 439.682 4.25152 4.0561 0
M  V30 4969 H 441.206 3.73363 4.83148 0
M  V30 4970 H 442.62 4.94102 2.90751 0
M  V30 4971 H 441.017 5.51582 2.36384 0
M  V30 4972 H 442.087 4.69478 1.21319 0
M  V30 4973 N 443.43 -0.535701 1.48216 0
M  V30 4974 C 444.846 -0.863701 1.3421 0
M  V30 4975 C 445.046 -1.98458 0.34879 0
M  V30 4976 O 444.102 -2.51432 -0.23204 0
M  V30 4977 C 445.415 -1.23662 2.74095 0
M  V30 4978 C 446.963 -1.34683 2.82541 0
M  V30 4979 C 447.438 -1.75322 4.23115 0
M  V30 4980 N 448.929 -1.82434 4.2576 0
M  V30 4981 C 449.664 -2.15252 5.31464 0
M  V30 4982 N 449.16 -2.46533 6.47452 0
M  V30 4983 N 450.953 -2.16209 5.18855 0
M  V30 4984 H 443.104 0.203965 2.11418 0
M  V30 4985 H 445.367 0.0286033 0.947568 0
M  V30 4986 H 445.073 -0.486674 3.48316 0
M  V30 4987 H 444.947 -2.18805 3.07253 0
M  V30 4988 H 447.334 -2.08756 2.08579 0
M  V30 4989 H 447.415 -0.376756 2.5301 0
M  V30 4990 H 447.059 -1.01812 4.97591 0
M  V30 4991 H 446.989 -2.7337 4.50085 0
M  V30 4992 H 449.48 -1.6056 3.42095 0
M  V30 4993 H 449.793 -2.70662 7.23852 0
M  V30 4994 H 448.138 -2.44065 6.50736 0
M  V30 4995 H 451.329 -1.91224 4.2726 0
M  V30 4996 H 451.502 -2.41453 6.01335 0
M  V30 4997 N 444.908 -1.36708 -0.784132 0
M  V30 4998 C 446.155 -1.31231 -1.54222 0
M  V30 4999 C 446.483 0.106864 -1.94206 0
M  V30 5000 O 445.738 1.07734 -1.63376 0
M  V30 5001 C 446.037 -2.18571 -2.82774 0
M  V30 5002 C 445.703 -3.67039 -2.61903 0
M  V30 5003 C 444.365 -4.07503 -2.55919 0
M  V30 5004 C 446.717 -4.61149 -2.4288 0
M  V30 5005 C 444.045 -5.40211 -2.28886 0
M  V30 5006 C 446.397 -5.94081 -2.17373 0
M  V30 5007 C 445.061 -6.33664 -2.09825 0
M  V30 5008 H 444.331 -0.48021 -0.56434 0
M  V30 5009 H 446.978 -1.68807 -0.904233 0
M  V30 5010 H 445.283 -1.73949 -3.51068 0
M  V30 5011 H 446.98 -2.11655 -3.40592 0
M  V30 5012 H 443.57 -3.34941 -2.67418 0
M  V30 5013 H 447.754 -4.30756 -2.46501 0
M  V30 5014 H 443.01 -5.69855 -2.21529 0
M  V30 5015 H 447.184 -6.66566 -2.01649 0
M  V30 5016 H 444.811 -7.36423 -1.88641 0
M  V30 5017 N 446.386 1.0089 -1.21074 0
M  V30 5018 C 447.634 1.74262 -1.02358 0
M  V30 5019 C 447.955 1.89869 0.444393 0
M  V30 5020 O 447.225 1.44677 1.32081 0
M  V30 5021 H 445.805 0.645615 -0.375754 0
M  V30 5022 H 448.467 1.21596 -1.52317 0
M  V30 5023 H 447.563 2.74328 -1.4883 0
M  V30 5024 N 447.864 1.01787 1.20321 0
M  V30 5025 C 448.814 0.559976 2.21016 0
M  V30 5026 C 449.798 -0.385366 1.56217 0
M  V30 5027 O 450.99 -0.208126 1.75772 0
M  V30 5028 C 448.119 -0.0990553 3.43157 0
M  V30 5029 C 447.205 0.86807 4.15121 0
M  V30 5030 N 447.596 2.0261 4.63447 0
M  V30 5031 C 445.894 0.689162 4.40643 0
M  V30 5032 C 446.595 2.63518 5.18588 0
M  V30 5033 N 445.571 1.91569 5.08726 0
M  V30 5034 H 449.373 1.44281 2.56048 0
M  V30 5035 H 446.887 0.883381 1.36272 0
M  V30 5036 H 448.884 -0.444643 4.14522 0
M  V30 5037 H 447.544 -0.977709 3.0963 0
M  V30 5038 H 448.555 2.40598 4.58621 0
M  V30 5039 H 445.232 -0.14133 4.17261 0
M  V30 5040 H 446.622 3.61527 5.66346 0
M  V30 5041 N 449.342 -1.36122 0.79427 0
M  V30 5042 C 450.274 -2.28683 0.153903 0
M  V30 5043 C 451.287 -1.49707 -0.639669 0
M  V30 5044 O 452.476 -1.7209 -0.474054 0
M  V30 5045 C 449.576 -3.29202 -0.804921 0
M  V30 5046 C 448.749 -4.37358 -0.060366 0
M  V30 5047 C 447.808 -5.17811 -0.935849 0
M  V30 5048 O 446.834 -5.67853 -0.391309 0
M  V30 5049 N 448.036 -5.34721 -2.25951 0
M  V30 5050 H 450.801 -2.84278 0.949008 0
M  V30 5051 H 448.362 -1.4834 0.648611 0
M  V30 5052 H 450.354 -3.79914 -1.39455 0
M  V30 5053 H 448.924 -2.74212 -1.50088 0
M  V30 5054 H 448.144 -3.87746 0.710382 0
M  V30 5055 H 449.432 -5.06777 0.45324 0
M  V30 5056 H 448.83 -4.95687 -2.72601 0
M  V30 5057 H 447.387 -5.88657 -2.79867 0
M  V30 5058 N 450.82 -0.546701 -1.47814 0
M  V30 5059 C 451.767 0.206854 -2.29871 0
M  V30 5060 C 452.737 0.918235 -1.38411 0
M  V30 5061 O 453.922 0.915991 -1.67375 0
M  V30 5062 C 451.062 1.23746 -3.22151 0
M  V30 5063 C 450.175 0.533216 -4.28697 0
M  V30 5064 C 449.31 1.5482 -5.08138 0
M  V30 5065 C 448.349 0.828347 -6.06469 0
M  V30 5066 N 447.486 1.78966 -6.78908 0
M  V30 5067 H 452.326 -0.499037 -2.93792 0
M  V30 5068 H 449.863 -0.25793 -1.44821 0
M  V30 5069 H 451.821 1.84746 -3.74065 0
M  V30 5070 H 450.451 1.91151 -2.60117 0
M  V30 5071 H 449.503 -0.191089 -3.7992 0
M  V30 5072 H 450.815 -0.0311987 -4.9879 0
M  V30 5073 H 449.969 2.23202 -5.6415 0
M  V30 5074 H 448.708 2.14652 -4.37922 0
M  V30 5075 H 447.713 0.130539 -5.49645 0
M  V30 5076 H 448.938 0.235907 -6.7869 0
M  V30 5077 H 446.884 2.37675 -6.1143 0
M  V30 5078 H 446.801 1.27712 -7.45135 0
M  V30 5079 H 448.069 2.46496 -7.395 0
M  V30 5080 N 452.299 1.55045 -0.282633 0
M  V30 5081 C 453.548 1.98938 0.332667 0
M  V30 5082 C 453.861 1.17455 1.56409 0
M  V30 5083 O 455.067 1.51527 2.25282 0
M  V30 5084 C 453.523 3.54105 0.643226 0
M  V30 5085 C 453.131 4.44374 -0.568814 0
M  V30 5086 C 454.875 4.06569 1.22074 0
M  V30 5087 C 452.782 5.90943 -0.232426 0
M  V30 5088 H 451.712 0.743043 0.128075 0
M  V30 5089 H 454.363 1.79341 -0.388464 0
M  V30 5090 H 452.745 3.69532 1.42346 0
M  V30 5091 H 453.919 4.40718 -1.34551 0
M  V30 5092 H 452.234 4.02585 -1.06369 0
M  V30 5093 H 454.831 5.13626 1.48635 0
M  V30 5094 H 455.174 3.56057 2.15707 0
M  V30 5095 H 455.707 3.94612 0.502621 0
M  V30 5096 H 452.446 6.45567 -1.13683 0
M  V30 5097 H 451.966 5.9765 0.507357 0
M  V30 5098 H 453.645 6.4677 0.172657 0
M  V30 5099 N 453.777 0.010035 1.57597 0
M  V30 5100 C 454.707 -0.976857 2.12084 0
M  V30 5101 C 455.688 -1.35191 1.03235 0
M  V30 5102 O 456.873 -1.43389 1.3097 0
M  V30 5103 C 454.003 -2.26548 2.63236 0
M  V30 5104 C 452.957 -2.03175 3.76701 0
M  V30 5105 C 452.283 -3.38138 4.14206 0
M  V30 5106 C 453.583 -1.38625 5.03568 0
M  V30 5107 H 455.277 -0.523145 2.94794 0
M  V30 5108 H 452.823 -0.250195 1.4181 0
M  V30 5109 H 454.776 -2.95952 2.99984 0
M  V30 5110 H 453.5 -2.74051 1.77661 0
M  V30 5111 H 452.159 -1.36195 3.40362 0
M  V30 5112 H 451.807 -3.83363 3.25641 0
M  V30 5113 H 451.507 -3.23312 4.90656 0
M  V30 5114 H 453.031 -4.08841 4.53521 0
M  V30 5115 H 454.445 -1.98 5.38023 0
M  V30 5116 H 452.842 -1.34256 5.84889 0
M  V30 5117 H 453.912 -0.356722 4.83586 0
M  V30 5118 N 455.255 -1.55392 -0.262866 0
M  V30 5119 C 456.165 -1.92077 -1.34698 0
M  V30 5120 C 457.181 -0.819227 -1.53508 0
M  V30 5121 O 458.357 -1.11921 -1.67439 0
M  V30 5122 C 455.422 -2.19407 -2.68443 0
M  V30 5123 C 454.483 -3.42905 -2.58292 0
M  V30 5124 C 453.716 -3.68921 -3.85659 0
M  V30 5125 O 453.939 -2.97275 -4.8681 0
M  V30 5126 O 452.873 -4.62455 -3.85252 0
M  V30 5127 H 456.699 -2.84384 -1.06581 0
M  V30 5128 H 454.284 -1.42069 -0.462264 0
M  V30 5129 H 456.166 -2.38365 -3.47506 0
M  V30 5130 H 454.841 -1.30282 -2.96325 0
M  V30 5131 H 453.748 -3.29272 -1.7757 0
M  V30 5132 H 455.081 -4.32282 -2.35358 0
M  V30 5133 N 456.733 0.527833 -1.48498 0
M  V30 5134 C 457.68 1.6322 -1.6318 0
M  V30 5135 C 458.65 1.59199 -0.473815 0
M  V30 5136 O 459.835 1.77591 -0.697563 0
M  V30 5137 C 456.975 3.01474 -1.67951 0
M  V30 5138 C 456.088 3.15713 -2.94871 0
M  V30 5139 C 455.223 4.44539 -2.90789 0
M  V30 5140 C 454.262 4.52315 -4.12404 0
M  V30 5141 N 453.399 5.72533 -4.06387 0
M  V30 5142 H 458.239 1.50011 -2.57489 0
M  V30 5143 H 455.776 0.730298 -1.27691 0
M  V30 5144 H 457.734 3.81572 -1.68698 0
M  V30 5145 H 456.364 3.1345 -0.771306 0
M  V30 5146 H 455.416 2.28854 -3.03859 0
M  V30 5147 H 456.728 3.1732 -3.8485 0
M  V30 5148 H 455.882 5.3293 -2.89949 0
M  V30 5149 H 454.621 4.45457 -1.98542 0
M  V30 5150 H 453.626 3.62331 -4.13517 0
M  V30 5151 H 454.851 4.53134 -5.05812 0
M  V30 5152 H 452.797 5.74344 -3.16962 0
M  V30 5153 H 452.714 5.75643 -4.90073 0
M  V30 5154 H 453.982 6.63204 -4.0961 0
M  V30 5155 N 458.211 1.37122 0.776871 0
M  V30 5156 C 459.46 1.31373 1.53049 0
M  V30 5157 C 459.773 -0.101016 1.95339 0
M  V30 5158 O 460.979 -0.280953 2.70042 0
M  V30 5159 C 459.435 2.30567 2.76346 0
M  V30 5160 C 459.043 3.77543 2.41175 0
M  V30 5161 C 460.787 2.33818 3.54301 0
M  V30 5162 C 458.694 4.68481 3.60943 0
M  V30 5163 H 457.624 0.488234 0.574581 0
M  V30 5164 H 460.275 1.62554 0.851372 0
M  V30 5165 H 458.657 1.92396 3.46121 0
M  V30 5166 H 459.831 4.24521 1.79216 0
M  V30 5167 H 458.146 3.77187 1.76405 0
M  V30 5168 H 460.743 2.98965 4.4331 0
M  V30 5169 H 461.086 1.3503 3.93793 0
M  V30 5170 H 461.619 2.7067 2.91518 0
M  V30 5171 H 458.358 5.68378 3.26537 0
M  V30 5172 H 457.878 4.2621 4.22025 0
M  V30 5173 H 459.557 4.85366 4.27819 0
M  V30 5174 N 459.689 -1.00246 1.21608 0
M  V30 5175 C 460.652 -2.07233 0.979133 0
M  V30 5176 C 461.652 -1.6072 -0.0508219 0
M  V30 5177 O 462.842 -1.73196 0.186712 0
M  V30 5178 C 459.974 -3.37546 0.477016 0
M  V30 5179 H 461.167 -2.29687 1.92831 0
M  V30 5180 H 458.72 -1.17261 1.03342 0
M  V30 5181 H 459.455 -3.20773 -0.476966 0
M  V30 5182 H 459.24 -3.72638 1.21997 0
M  V30 5183 H 460.73 -4.16285 0.331181 0
M  V30 5184 N 461.167 -1.02423 -1.1978 0
M  V30 5185 C 462.114 -0.601023 -2.22837 0
M  V30 5186 C 463.084 0.382801 -1.61629 0
M  V30 5187 O 464.269 0.280514 -1.88727 0
M  V30 5188 C 461.409 0.0467755 -3.45068 0
M  V30 5189 C 460.522 -0.98253 -4.20678 0
M  V30 5190 C 459.657 -0.304982 -5.30324 0
M  V30 5191 C 458.696 -1.32052 -5.97686 0
M  V30 5192 N 457.833 -0.669105 -6.98904 0
M  V30 5193 H 462.673 -1.48444 -2.58396 0
M  V30 5194 H 460.21 -0.742936 -1.2696 0
M  V30 5195 H 462.168 0.439556 -4.14878 0
M  V30 5196 H 460.798 0.893796 -3.10179 0
M  V30 5197 H 459.85 -1.49341 -3.49859 0
M  V30 5198 H 461.162 -1.75455 -4.66923 0
M  V30 5199 H 460.316 0.142893 -6.06532 0
M  V30 5200 H 459.055 0.499283 -4.85138 0
M  V30 5201 H 458.06 -1.7787 -5.20233 0
M  V30 5202 H 459.285 -2.1262 -6.44957 0
M  V30 5203 H 457.231 0.115152 -6.55899 0
M  V30 5204 H 457.148 -1.37908 -7.43315 0
M  V30 5205 H 458.416 -0.245076 -7.79115 0
M  V30 5206 N 462.645 1.35699 -0.801477 0
M  V30 5207 C 463.555 2.33661 -0.209691 0
M  V30 5208 C 464.571 1.6162 0.644591 0
M  V30 5209 O 465.747 1.93529 0.557545 0
M  V30 5210 C 462.812 3.40816 0.636033 0
M  V30 5211 C 461.873 4.28639 -0.238147 0
M  V30 5212 C 461.106 5.30676 0.567307 0
M  V30 5213 O 461.329 5.41174 1.8024 0
M  V30 5214 O 460.263 6.01887 -0.0391336 0
M  V30 5215 H 464.089 2.8606 -1.01996 0
M  V30 5216 H 461.674 1.38379 -0.563164 0
M  V30 5217 H 463.556 4.06301 1.11791 0
M  V30 5218 H 462.231 2.90696 1.42399 0
M  V30 5219 H 461.138 3.66152 -0.767044 0
M  V30 5220 H 462.471 4.82143 -0.989915 0
M  V30 5221 N 464.123 0.554532 1.47522 0
M  V30 5222 C 465.07 -0.19466 2.29978 0
M  V30 5223 C 466.04 -0.910882 1.38896 0
M  V30 5224 O 467.225 -0.907102 1.67858 0
M  V30 5225 C 464.365 -1.22035 3.22802 0
M  V30 5226 C 463.478 -0.510474 4.28973 0
M  V30 5227 C 462.613 -1.52123 5.08952 0
M  V30 5228 C 461.652 -0.796173 6.069 0
M  V30 5229 N 460.789 -1.75363 6.79847 0
M  V30 5230 H 465.629 0.51461 2.93523 0
M  V30 5231 H 463.166 0.265607 1.44682 0
M  V30 5232 H 465.124 -1.8276 3.7504 0
M  V30 5233 H 463.754 -1.89769 2.61127 0
M  V30 5234 H 462.806 0.211234 3.79813 0
M  V30 5235 H 464.118 0.0576503 4.98767 0
M  V30 5236 H 463.272 -2.20207 5.65326 0
M  V30 5237 H 462.011 -2.12327 4.39054 0
M  V30 5238 H 461.016 -0.101388 5.49707 0
M  V30 5239 H 462.241 -0.199911 6.78806 0
M  V30 5240 H 460.187 -2.3443 6.12682 0
M  V30 5241 H 460.104 -1.23759 7.45801 0
M  V30 5242 H 461.372 -2.4257 7.40797 0
M  V30 5243 N 465.601 -1.54893 0.290851 0
M  V30 5244 C 467.012 -1.85584 -0.203816 0
M  V30 5245 C 467.363 -1.21285 -1.54222 0
M  V30 5246 O 466.488 -0.506841 -2.10381 0
M  V30 5247 C 467.083 -3.367 -0.376595 0
M  V30 5248 C 465.642 -3.6746 -0.815485 0
M  V30 5249 C 464.789 -2.77178 0.0821087 0
M  V30 5250 H 467.74 -1.50208 0.512175 0
M  V30 5251 H 467.761 -3.60656 -1.21275 0
M  V30 5252 H 467.273 -3.8347 0.59767 0
M  V30 5253 H 465.374 -3.26201 -1.80066 0
M  V30 5254 H 465.487 -4.7478 -0.641905 0
M  V30 5255 H 463.851 -2.50925 -0.436895 0
M  V30 5256 H 464.634 -3.26767 1.05254 0
M  V30 5257 N 467.08 -0.0183926 -1.57589 0
M  V30 5258 C 468.027 0.967022 -2.09565 0
M  V30 5259 C 468.997 1.32983 -0.995225 0
M  V30 5260 O 470.182 1.42501 -1.26878 0
M  V30 5261 C 467.322 2.24772 -2.61861 0
M  V30 5262 C 466.435 1.94232 -3.85873 0
M  V30 5263 C 465.57 3.16518 -4.26603 0
M  V30 5264 C 464.609 2.81748 -5.43401 0
M  V30 5265 N 463.746 3.96626 -5.79338 0
M  V30 5266 H 468.586 0.516874 -2.93483 0
M  V30 5267 H 466.123 0.243544 -1.4507 0
M  V30 5268 H 468.081 2.99667 -2.90268 0
M  V30 5269 H 466.711 2.67423 -1.8079 0
M  V30 5270 H 465.763 1.09625 -3.64262 0
M  V30 5271 H 467.075 1.64616 -4.70853 0
M  V30 5272 H 466.229 3.99743 -4.56389 0
M  V30 5273 H 464.968 3.49286 -3.40368 0
M  V30 5274 H 463.973 1.96933 -5.1332 0
M  V30 5275 H 465.198 2.50207 -6.31327 0
M  V30 5276 H 463.144 4.29257 -4.96059 0
M  V30 5277 H 463.061 3.70598 -6.58933 0
M  V30 5278 H 464.329 4.80586 -6.13724 0
M  V30 5279 N 468.558 1.5553 0.254621 0
M  V30 5280 C 469.786 1.81046 1.00149 0
M  V30 5281 C 470.201 0.593047 1.79244 0
M  V30 5282 O 469.558 -0.438196 1.77161 0
M  V30 5283 C 469.609 3.04684 1.94551 0
M  V30 5284 O 469.33 4.21725 1.18658 0
M  V30 5285 C 470.831 3.42943 2.80901 0
M  V30 5286 H 468.051 0.602653 0.295044 0
M  V30 5287 H 470.595 2.02576 0.279842 0
M  V30 5288 H 468.75 2.85226 2.62154 0
M  V30 5289 H 469.164 4.91746 1.82445 0
M  V30 5290 H 470.638 4.32576 3.42902 0
M  V30 5291 H 471.115 2.63176 3.51617 0
M  V30 5292 H 471.721 3.64724 2.18762 0
M  V30 5293 N 470.036 -0.519951 1.48776 0
M  V30 5294 C 470.984 -1.64443 1.64503 0
M  V30 5295 C 471.978 -1.61501 0.511248 0
M  V30 5296 O 473.184 -1.66238 0.690294 0
M  V30 5297 H 469.559 -0.544776 0.518385 0
M  V30 5298 H 471.53 -1.48325 2.58925 0
M  V30 5299 C 470.279 -3.02673 1.71127 0
M  V30 5300 H 469.602 -3.05635 2.57735 0
M  V30 5301 H 471.042 -3.80941 1.86172 0
M  V30 5302 C 469.501 -3.33854 0.452032 0
M  V30 5303 O 470.031 -3.99385 -0.430678 0
M  V30 5304 N 468.237 -2.88825 0.32069 0
M  V30 5305 H 467.784 -2.35674 1.03998 0
M  V30 5306 H 467.742 -3.10056 -0.520814 0
M  V30 5307 N 471.514 -1.37532 -0.769588 0
M  V30 5308 C 472.477 -1.33292 -1.86456 0
M  V30 5309 C 473.477 -0.236537 -1.59051 0
M  V30 5310 O 474.667 -0.492511 -1.67093 0
M  V30 5311 C 471.799 -1.07118 -3.23633 0
M  V30 5312 H 472.992 -2.30692 -1.91628 0
M  V30 5313 H 470.545 -1.22593 -0.969572 0
M  V30 5314 H 471.28 -0.102578 -3.24138 0
M  V30 5315 H 471.065 -1.86479 -3.44917 0
M  V30 5316 H 472.555 -1.06806 -4.03711 0
M  V30 5317 N 472.992 0.995999 -1.22138 0
M  V30 5318 C 474.217 1.77601 -1.0711 0
M  V30 5319 C 474.642 1.84339 0.374264 0
M  V30 5320 O 474 1.29359 1.27028 0
M  V30 5321 C 474.048 3.18897 -1.68336 0
M  V30 5322 O 473.152 4.01663 -0.934928 0
M  V30 5323 H 472.493 0.547011 -0.376397 0
M  V30 5324 H 475.023 1.25137 -1.6187 0
M  V30 5325 H 475.033 3.69539 -1.72931 0
M  V30 5326 H 473.708 3.13308 -2.73516 0
M  V30 5327 H 472.285 3.60204 -0.964751 0
M  V30 5328 N 474.47 1.03057 1.19235 0
M  V30 5329 C 475.418 0.606391 2.24557 0
M  V30 5330 C 476.412 -0.361826 1.65491 0
M  V30 5331 O 477.618 -0.23022 1.78522 0
M  V30 5332 H 473.993 0.177838 0.730669 0
M  V30 5333 H 475.964 1.50529 2.5765 0
M  V30 5334 C 474.713 -0.0252127 3.47691 0
M  V30 5335 H 474.036 0.710838 3.9343 0
M  V30 5336 H 475.476 -0.284931 4.23042 0
M  V30 5337 C 473.935 -1.27229 3.11953 0
M  V30 5338 O 474.465 -2.36416 3.24762 0
M  V30 5339 N 472.671 -1.16169 2.6637 0
M  V30 5340 H 472.218 -0.273189 2.56147 0
M  V30 5341 H 472.176 -1.99703 2.42829 0
M  V30 5342 N 475.948 -1.35272 0.808662 0
M  V30 5343 C 476.858 -2.33546 0.222079 0
M  V30 5344 C 477.874 -1.6196 -0.636011 0
M  V30 5345 O 479.05 -1.93822 -0.547274 0
M  V30 5346 C 476.115 -3.41148 -0.61795 0
M  V30 5347 C 475.176 -4.28507 0.260875 0
M  V30 5348 C 474.409 -5.3097 -0.539156 0
M  V30 5349 O 474.632 -5.42123 -1.77367 0
M  V30 5350 O 473.566 -6.01858 0.0710526 0
M  V30 5351 H 477.392 -2.85515 1.03512 0
M  V30 5352 H 474.977 -1.38079 0.570495 0
M  V30 5353 H 476.859 -4.06889 -1.09634 0
M  V30 5354 H 475.534 -2.91447 -1.40855 0
M  V30 5355 H 474.441 -3.6574 0.786451 0
M  V30 5356 H 475.774 -4.81611 1.01547 0
M  V30 5357 N 477.426 -0.562348 -1.47226 0
M  V30 5358 C 478.703 0.0256985 -1.95583 0
M  V30 5359 C 479.083 1.48032 -1.50498 0
M  V30 5360 O 478.431 2.15973 -0.746181 0
M  V30 5361 C 478.641 -0.125129 -3.48776 0
M  V30 5362 C 479.989 0.0175728 -4.24596 0
M  V30 5363 O 481.013 -0.0529341 -3.56161 0
M  V30 5364 O 479.872 0.170145 -5.46235 0
M  V30 5365 H 476.966 0.0612565 -0.824728 0
M  V30 5366 H 479.512 -0.629233 -1.57603 0
M  V30 5367 H 478.284 -1.13715 -3.74412 0
M  V30 5368 H 477.907 0.567178 -3.93534 0
M  V30 5369 N 478.904 1.54736 -0.299062 0
M  V30 5370 C 479.814 2.27127 0.587413 0
M  V30 5371 C 480.83 1.30575 1.15005 0
M  V30 5372 O 482.006 1.63554 1.17525 0
M  V30 5373 C 479.071 2.99645 1.74395 0
M  V30 5374 C 478.132 4.11731 1.21559 0
M  V30 5375 C 477.365 4.80781 2.317 0
M  V30 5376 O 477.588 4.4918 3.51558 0
M  V30 5377 O 476.522 5.68226 1.98501 0
M  V30 5378 H 480.348 3.037 0.000250109 0
M  V30 5379 H 477.933 1.49256 -0.0655919 0
M  V30 5380 H 479.815 3.45138 2.4178 0
M  V30 5381 H 478.49 2.25969 2.31775 0
M  V30 5382 H 477.397 3.70641 0.507514 0
M  V30 5383 H 478.73 4.87379 0.687233 0
M  V30 5384 N 480.382 0.0267497 1.57577 0
M  V30 5385 C 481.659 -0.690926 1.82991 0
M  V30 5386 C 482.039 -1.90471 0.910164 0
M  V30 5387 O 481.387 -2.28474 -0.0347985 0
M  V30 5388 C 481.597 -1.07139 3.32148 0
M  V30 5389 C 482.945 -1.46402 3.98562 0
M  V30 5390 O 483.969 -1.16443 3.36629 0
M  V30 5391 O 482.828 -2.02214 5.07712 0
M  V30 5392 H 479.922 -0.338747 0.75444 0
M  V30 5393 H 482.468 0.0542506 1.69613 0
M  V30 5394 H 481.24 -0.207394 3.9075 0
M  V30 5395 H 480.863 -1.87481 3.50623 0
M  V30 5396 N 481.861 -1.55662 -0.24637 0
M  V30 5397 C 482.809 -1.91186 -1.3248 0
M  V30 5398 C 483.803 -0.790996 -1.49799 0
M  V30 5399 O 485.009 -0.975617 -1.51267 0
M  V30 5400 H 481.384 -0.607207 -0.443626 0
M  V30 5401 H 483.355 -2.81221 -0.997853 0
M  V30 5402 C 482.104 -2.22349 -2.67313 0
M  V30 5403 H 481.427 -3.08097 -2.54786 0
M  V30 5404 H 482.867 -2.51107 -3.41645 0
M  V30 5405 C 481.326 -1.04001 -3.20446 0
M  V30 5406 O 481.856 -0.28828 -4.00664 0
M  V30 5407 N 480.062 -0.830494 -2.7848 0
M  V30 5408 H 479.609 -1.4435 -2.13356 0
M  V30 5409 H 479.567 -0.0403258 -3.14374 0
M  V30 5410 N 483.339 0.512053 -1.4905 0
M  V30 5411 C 484.269 1.62365 -1.67809 0
M  V30 5412 C 485.25 1.61737 -0.526809 0
M  V30 5413 O 486.435 1.78651 -0.761404 0
M  V30 5414 C 483.565 3.00895 -1.73435 0
M  V30 5415 C 482.519 3.16387 -2.88242 0
M  V30 5416 C 481.845 4.56157 -2.78971 0
M  V30 5417 C 483.145 2.97457 -4.29321 0
M  V30 5418 H 484.839 1.46921 -2.60873 0
M  V30 5419 H 482.385 0.705379 -1.2554 0
M  V30 5420 H 484.338 3.78549 -1.85145 0
M  V30 5421 H 483.062 3.17403 -0.769619 0
M  V30 5422 H 481.721 2.41155 -2.76116 0
M  V30 5423 H 481.369 4.69525 -1.8043 0
M  V30 5424 H 481.069 4.67465 -3.5602 0
M  V30 5425 H 482.593 5.35886 -2.92675 0
M  V30 5426 H 484.007 3.64888 -4.42187 0
M  V30 5427 H 482.404 3.20245 -5.07507 0
M  V30 5428 H 483.474 1.93692 -4.44535 0
M  V30 5429 N 484.817 1.37938 0.762283 0
M  V30 5430 C 485.765 1.34569 1.89721 0
M  V30 5431 C 486.759 0.232929 1.67791 0
M  V30 5432 O 487.965 0.401485 1.75465 0
M  V30 5433 H 484.34 0.419594 0.624055 0
M  V30 5434 H 486.311 2.30357 1.8968 0
M  V30 5435 C 485.06 1.17898 3.27101 0
M  V30 5436 H 484.383 2.02781 3.44558 0
M  V30 5437 H 485.823 1.19593 4.06784 0
M  V30 5438 C 484.282 -0.114728 3.36705 0
M  V30 5439 O 484.812 -1.0949 3.8649 0
M  V30 5440 N 483.018 -0.16863 2.9011 0
M  V30 5441 H 482.565 0.62967 2.49786 0
M  V30 5442 H 482.523 -1.03383 2.96916 0
M  V30 5443 N 486.295 -0.989507 1.22664 0
M  V30 5444 C 487.258 -2.06183 1.00106 0
M  V30 5445 C 488.258 -1.60765 -0.0337726 0
M  V30 5446 O 489.448 -1.72989 0.205072 0
M  V30 5447 C 486.58 -3.37021 0.51279 0
M  V30 5448 H 487.773 -2.27629 1.95256 0
M  V30 5449 H 485.326 -1.16158 1.0458 0
M  V30 5450 H 486.061 -3.21261 -0.442917 0
M  V30 5451 H 485.846 -3.71323 1.25942 0
M  V30 5452 H 487.336 -4.1591 0.375315 0
M  V30 5453 N 487.773 -1.03688 -1.18687 0
M  V30 5454 C 488.998 -0.757819 -1.93059 0
M  V30 5455 C 489.423 0.678353 -1.75442 0
M  V30 5456 O 488.781 1.46938 -1.06203 0
M  V30 5457 C 488.829 -1.12423 -3.42627 0
M  V30 5458 O 487.933 -0.247505 -4.11657 0
M  V30 5459 H 487.274 -0.279245 -0.602427 0
M  V30 5460 H 489.804 -1.3857 -1.5053 0
M  V30 5461 H 489.814 -1.08454 -3.93322 0
M  V30 5462 H 488.489 -2.17049 -3.54771 0
M  V30 5463 H 487.066 -0.34649 -3.71287 0
M  V30 5464 N 489.251 1.34841 -0.815825 0
M  V30 5465 C 490.184 2.27504 -0.178062 0
M  V30 5466 C 491.162 1.48542 0.661373 0
M  V30 5467 O 492.346 1.77779 0.626653 0
M  V30 5468 C 489.473 3.30246 0.752002 0
M  V30 5469 C 488.519 4.26499 -0.00899172 0
M  V30 5470 S 489.352 5.18169 -1.35134 0
M  V30 5471 C 490.508 6.24449 -0.42596 0
M  V30 5472 H 490.741 2.81248 -0.963684 0
M  V30 5473 H 488.274 1.41781 -0.611355 0
M  V30 5474 H 490.232 3.89933 1.28308 0
M  V30 5475 H 488.893 2.75363 1.51109 0
M  V30 5476 H 488.086 4.99146 0.697766 0
M  V30 5477 H 487.688 3.7103 -0.470396 0
M  V30 5478 H 489.98 6.76404 0.385234 0
M  V30 5479 H 490.923 6.99156 -1.1219 0
M  V30 5480 H 491.331 5.64497 -0.0175461 0
M  V30 5481 N 490.729 0.570148 1.46925 0
M  V30 5482 C 491.978 0.0487352 2.01641 0
M  V30 5483 C 492.291 -1.31433 1.44861 0
M  V30 5484 O 493.497 -1.92638 1.91318 0
M  V30 5485 C 491.953 0.0365817 3.59881 0
M  V30 5486 C 491.561 1.39719 4.25655 0
M  V30 5487 C 493.305 -0.431545 4.22301 0
M  V30 5488 C 491.212 1.34345 5.75939 0
M  V30 5489 H 490.142 0.0144492 0.753862 0
M  V30 5490 H 492.793 0.719928 1.68788 0
M  V30 5491 H 491.175 -0.700522 3.89755 0
M  V30 5492 H 492.349 2.15303 4.07408 0
M  V30 5493 H 490.664 1.80431 3.75278 0
M  V30 5494 H 493.261 -0.490354 5.32447 0
M  V30 5495 H 493.604 -1.44638 3.90366 0
M  V30 5496 H 494.137 0.251102 3.97007 0
M  V30 5497 H 490.876 2.33469 6.12513 0
M  V30 5498 H 490.396 0.629615 5.96486 0
M  V30 5499 H 492.075 1.051 6.38407 0
M  V30 5500 N 492.207 -1.54576 0.307264 0
M  V30 5501 C 493.453 -2.0056 -0.300612 0
M  V30 5502 C 493.786 -1.1953 -1.53057 0
M  V30 5503 O 493.061 -0.27337 -1.92569 0
M  V30 5504 C 493.344 -3.54167 -0.650987 0
M  V30 5505 C 493.197 -4.45933 0.588539 0
M  V30 5506 C 494.516 -4.14645 -1.47506 0
M  V30 5507 H 491.635 -0.729075 -0.107788 0
M  V30 5508 H 494.277 -1.85286 0.420606 0
M  V30 5509 H 492.427 -3.67313 -1.26544 0
M  V30 5510 H 494.099 -4.44683 1.22697 0
M  V30 5511 H 492.342 -4.16274 1.22058 0
M  V30 5512 H 493.013 -5.51189 0.299153 0
M  V30 5513 H 495.489 -4.04973 -0.955821 0
M  V30 5514 H 494.365 -5.22269 -1.68899 0
M  V30 5515 H 494.626 -3.66921 -2.4662 0
M  V30 5516 N 493.685 -0.035106 -1.57561 0
M  V30 5517 C 494.913 0.652258 -1.9635 0
M  V30 5518 C 495.328 1.65317 -0.911897 0
M  V30 5519 O 494.685 1.82194 0.105657 0
M  V30 5520 C 494.736 1.35337 -3.35211 0
M  V30 5521 O 494.457 0.392548 -4.36338 0
M  V30 5522 C 495.958 2.13199 -3.88666 0
M  V30 5523 H 493.178 0.179444 -0.646561 0
M  V30 5524 H 495.722 -0.0966459 -2.04271 0
M  V30 5525 H 493.877 2.05362 -3.28489 0
M  V30 5526 H 494.291 0.891097 -5.16875 0
M  V30 5527 H 495.765 2.577 -4.88154 0
M  V30 5528 H 496.242 2.97353 -3.23231 0
M  V30 5529 H 496.848 1.48118 -3.98674 0
M  V30 5530 N 495.163 1.55791 0.238111 0
M  V30 5531 C 496.44 1.68798 0.98826 0
M  V30 5532 C 496.82 0.577562 2.03045 0
M  V30 5533 O 496.168 -0.41778 2.24648 0
M  V30 5534 C 496.378 3.09454 1.61367 0
M  V30 5535 C 497.726 3.68335 2.11221 0
M  V30 5536 O 498.75 3.1231 1.71292 0
M  V30 5537 O 497.609 4.6657 2.84561 0
M  V30 5538 H 494.703 0.686881 0.460568 0
M  V30 5539 H 497.249 1.68118 0.231202 0
M  V30 5540 H 496.021 3.81726 0.860295 0
M  V30 5541 H 495.644 3.14182 2.4367 0
M  V30 5542 N 496.642 -0.504142 1.49319 0
M  V30 5543 C 497.87 -1.28256 1.62351 0
M  V30 5544 C 498.285 -1.86502 0.293682 0
M  V30 5545 O 497.642 -1.67678 -0.720449 0
M  V30 5546 C 497.693 -2.41507 2.68992 0
M  V30 5547 O 497.414 -1.85656 3.96817 0
M  V30 5548 C 498.915 -3.32929 2.927 0
M  V30 5549 H 496.135 -0.389115 0.546654 0
M  V30 5550 H 498.679 -0.605531 1.95329 0
M  V30 5551 H 496.834 -3.05046 2.38801 0
M  V30 5552 H 497.248 -2.59981 4.55533 0
M  V30 5553 H 498.722 -4.0868 3.71058 0
M  V30 5554 H 499.199 -3.89733 2.02496 0
M  V30 5555 H 499.805 -2.75158 3.24296 0
M  V30 5556 N 498.12 -1.38341 -0.754957 0
M  V30 5557 C 499.345 -1.37882 -1.5493 0
M  V30 5558 C 499.77 0.0296385 -1.88077 0
M  V30 5559 O 499.128 1.01133 -1.50472 0
M  V30 5560 C 499.176 -2.23996 -2.82592 0
M  V30 5561 O 498.28 -1.65612 -3.77686 0
M  V30 5562 H 497.621 -0.470384 -0.468652 0
M  V30 5563 H 500.151 -1.82084 -0.933082 0
M  V30 5564 H 500.161 -2.37806 -3.3153 0
M  V30 5565 H 498.836 -3.26365 -2.57796 0
M  V30 5566 H 497.413 -1.60936 -3.36384 0
M  V30 5567 N 499.598 0.982988 -1.23187 0
M  V30 5568 C 500.826 1.75921 -1.08901 0
M  V30 5569 C 501.241 1.85341 0.359719 0
M  V30 5570 O 500.598 1.33072 1.24892 0
M  V30 5571 C 500.649 3.18742 -1.70545 0
M  V30 5572 O 500.37 3.09814 -3.09753 0
M  V30 5573 C 501.871 4.1277 -1.61667 0
M  V30 5574 H 499.091 0.552166 -0.381252 0
M  V30 5575 H 501.635 1.23516 -1.62985 0
M  V30 5576 H 499.79 3.68182 -1.20501 0
M  V30 5577 H 500.204 3.99703 -3.39614 0
M  V30 5578 H 501.678 5.10697 -2.09506 0
M  V30 5579 H 502.155 4.3542 -0.575009 0
M  V30 5580 H 502.761 3.69232 -2.11064 0
M  V30 5581 N 501.076 1.04316 1.18135 0
M  V30 5582 C 502.324 0.746542 1.87806 0
M  V30 5583 C 502.645 -0.728082 1.80898 0
M  V30 5584 O 501.915 -1.52554 1.22899 0
M  V30 5585 H 500.495 0.273157 0.695265 0
M  V30 5586 H 503.157 1.32044 1.43354 0
M  V30 5587 H 502.253 1.05362 2.93778 0
M  V30 5588 N 502.554 -1.34406 0.822964 0
M  V30 5589 C 503.501 -2.29519 0.24284 0
M  V30 5590 C 504.471 -1.5359 -0.632397 0
M  V30 5591 O 505.656 -1.8196 -0.57403 0
M  V30 5592 C 502.796 -3.40032 -0.58925 0
M  V30 5593 C 501.909 -4.30899 0.308236 0
M  V30 5594 C 501.044 -5.28515 -0.533425 0
M  V30 5595 C 500.083 -6.1102 0.363444 0
M  V30 5596 N 499.22 -7.00725 -0.439147 0
M  V30 5597 H 504.06 -2.78537 1.05929 0
M  V30 5598 H 501.597 -1.3707 0.533872 0
M  V30 5599 H 503.555 -4.0279 -1.087 0
M  V30 5600 H 502.185 -2.92248 -1.37081 0
M  V30 5601 H 501.237 -3.69002 0.924203 0
M  V30 5602 H 502.549 -4.88717 0.997862 0
M  V30 5603 H 501.703 -5.96725 -1.09565 0
M  V30 5604 H 500.442 -4.71235 -1.25656 0
M  V30 5605 H 499.447 -5.41743 0.937812 0
M  V30 5606 H 500.672 -6.70381 1.08469 0
M  V30 5607 H 498.618 -6.45913 -1.14595 0
M  V30 5608 H 498.535 -7.55756 0.19209 0
M  V30 5609 H 499.803 -7.73263 -0.984124 0
M  V30 5610 N 504.032 -0.577932 -1.46621 0
M  V30 5611 C 505.281 -0.0594281 -2.01612 0
M  V30 5612 C 505.594 1.30663 -1.45556 0
M  V30 5613 O 506.8 1.91621 -1.92337 0
M  V30 5614 C 505.256 -0.0556666 -3.59857 0
M  V30 5615 C 504.864 -1.41975 -4.24908 0
M  V30 5616 C 506.608 0.409143 -4.22524 0
M  V30 5617 C 504.515 -1.37397 -5.75218 0
M  V30 5618 H 503.445 -0.0184469 -0.753774 0
M  V30 5619 H 506.096 -0.728869 -1.68404 0
M  V30 5620 H 504.478 0.679843 -3.90121 0
M  V30 5621 H 505.652 -2.17461 -4.0626 0
M  V30 5622 H 503.967 -1.82419 -3.74316 0
M  V30 5623 H 506.564 0.46211 -5.32699 0
M  V30 5624 H 506.907 1.42565 -3.91128 0
M  V30 5625 H 507.44 -0.272152 -3.96868 0
M  V30 5626 H 504.179 -2.36714 -6.11267 0
M  V30 5627 H 503.699 -0.661239 -5.96144 0
M  V30 5628 H 505.378 -1.08484 -6.3784 0
M  V30 5629 N 505.51 1.54411 -0.315457 0
M  V30 5630 C 506.44 2.27002 0.547039 0
M  V30 5631 C 507.421 1.27492 1.12605 0
M  V30 5632 O 508.606 1.5629 1.15269 0
M  V30 5633 C 505.736 3.02171 1.71201 0
M  V30 5634 C 504.69 4.0895 1.26268 0
M  V30 5635 C 504.016 4.71915 2.51396 0
M  V30 5636 C 505.316 5.20891 0.383419 0
M  V30 5637 H 507.01 2.99343 -0.0584517 0
M  V30 5638 H 504.556 1.4397 -0.0295527 0
M  V30 5639 H 506.509 3.51681 2.32161 0
M  V30 5640 H 505.233 2.27433 2.34397 0
M  V30 5641 H 503.892 3.60312 0.676062 0
M  V30 5642 H 503.54 3.93801 3.12937 0
M  V30 5643 H 503.24 5.44039 2.22026 0
M  V30 5644 H 504.764 5.24195 3.13133 0
M  V30 5645 H 506.178 5.66206 0.899082 0
M  V30 5646 H 504.575 5.99821 0.182857 0
M  V30 5647 H 505.645 4.81324 -0.587821 0
M  V30 5648 N 506.988 0.0434614 1.5754 0
M  V30 5649 C 507.951 -0.918696 2.09982 0
M  V30 5650 C 508.951 -1.24488 1.01781 0
M  V30 5651 O 510.141 -1.18284 1.27885 0
M  V30 5652 C 507.273 -2.23093 2.57764 0
M  V30 5653 H 508.466 -0.464229 2.96285 0
M  V30 5654 H 506.019 -0.204818 1.54952 0
M  V30 5655 H 506.754 -2.73137 1.74832 0
M  V30 5656 H 506.539 -2.00724 3.36827 0
M  V30 5657 H 508.029 -2.92028 2.98512 0
M  V30 5658 N 508.466 -1.55915 -0.229846 0
M  V30 5659 C 509.396 -1.94754 -1.28815 0
M  V30 5660 C 510.377 -0.814657 -1.49323 0
M  V30 5661 O 511.562 -1.07631 -1.61645 0
M  V30 5662 C 508.692 -2.25705 -2.63959 0
M  V30 5663 C 507.646 -3.41406 -2.5812 0
M  V30 5664 C 506.972 -3.57941 -3.97218 0
M  V30 5665 C 508.272 -4.76616 -2.13623 0
M  V30 5666 H 509.966 -2.83404 -0.965547 0
M  V30 5667 H 507.512 -1.36353 -0.463028 0
M  V30 5668 H 509.465 -2.51467 -3.38146 0
M  V30 5669 H 508.189 -1.339 -2.9789 0
M  V30 5670 H 506.848 -3.1568 -1.86391 0
M  V30 5671 H 506.496 -2.63526 -4.28443 0
M  V30 5672 H 506.196 -4.35757 -3.94195 0
M  V30 5673 H 507.72 -3.86042 -4.73079 0
M  V30 5674 H 509.134 -5.01637 -2.77549 0
M  V30 5675 H 507.531 -5.57655 -2.21677 0
M  V30 5676 H 508.601 -4.7253 -1.08829 0
M  V30 5677 N 509.944 0.496216 -1.49584 0
M  V30 5678 C 511.19 1.25189 -1.59548 0
M  V30 5679 C 511.523 1.9212 -0.283466 0
M  V30 5680 O 510.798 1.80947 0.713324 0
M  V30 5681 C 511.081 2.31516 -2.75812 0
M  V30 5682 C 510.934 1.69054 -4.16822 0
M  V30 5683 C 512.253 3.3304 -2.87702 0
M  V30 5684 H 509.372 0.45379 -0.580727 0
M  V30 5685 H 512.014 0.549327 -1.81886 0
M  V30 5686 H 510.164 2.91438 -2.56897 0
M  V30 5687 H 511.836 1.12923 -4.47265 0
M  V30 5688 H 510.079 0.994485 -4.22247 0
M  V30 5689 H 510.75 2.462 -4.94054 0
M  V30 5690 H 513.226 2.83114 -3.04936 0
M  V30 5691 H 512.102 4.04794 -3.7072 0
M  V30 5692 H 512.363 3.95655 -1.97255 0
M  V30 5693 N 511.423 1.38739 0.74761 0
M  V30 5694 C 512.671 1.35007 1.50391 0
M  V30 5695 C 512.992 -0.0574274 1.94915 0
M  V30 5696 O 512.262 -1.00628 1.6808 0
M  V30 5697 H 510.842 0.496784 0.557866 0
M  V30 5698 H 513.504 1.73479 0.888319 0
M  V30 5699 H 512.6 2.00474 2.392 0
M  V30 5700 N 512.901 -0.976442 1.23707 0
M  V30 5701 C 514.149 -1.71487 1.06942 0
M  V30 5702 C 514.47 -1.9098 -0.393897 0
M  V30 5703 O 513.74 -1.48128 -1.28198 0
M  V30 5704 H 512.32 -0.635425 0.392739 0
M  V30 5705 H 514.982 -1.17515 1.55487 0
M  V30 5706 H 514.078 -2.70286 1.56051 0
M  V30 5707 N 514.379 -1.04941 -1.1758 0
M  V30 5708 C 515.628 -0.753124 -1.87112 0
M  V30 5709 C 515.941 0.722507 -1.81767 0
M  V30 5710 O 517.147 1.13265 -2.46746 0
M  V30 5711 C 515.603 -1.29695 -3.35719 0
M  V30 5712 C 515.211 -2.80184 -3.49572 0
M  V30 5713 C 516.955 -1.07759 -4.10595 0
M  V30 5714 C 514.862 -3.2788 -4.92187 0
M  V30 5715 H 513.792 -0.278034 -0.700866 0
M  V30 5716 H 516.443 -1.26637 -1.32798 0
M  V30 5717 H 514.825 -0.711522 -3.89555 0
M  V30 5718 H 515.999 -3.44561 -3.05965 0
M  V30 5719 H 514.314 -3.00632 -2.88113 0
M  V30 5720 H 516.911 -1.40899 -5.15802 0
M  V30 5721 H 517.254 -0.0152302 -4.16297 0
M  V30 5722 H 517.787 -1.62809 -3.62957 0
M  V30 5723 H 514.526 -4.33535 -4.91658 0
M  V30 5724 H 514.046 -2.68245 -5.36475 0
M  V30 5725 H 515.725 -3.22412 -5.60945 0
M  V30 5726 N 515.857 1.33968 -0.830081 0
M  V30 5727 C 517.134 1.92554 -0.343858 0
M  V30 5728 C 517.514 1.7573 1.16971 0
M  V30 5729 O 516.862 1.14035 1.98011 0
M  V30 5730 C 517.072 3.40147 -0.781073 0
M  V30 5731 C 518.42 4.17299 -0.78402 0
M  V30 5732 O 519.444 3.48762 -0.724112 0
M  V30 5733 O 518.303 5.39631 -0.863739 0
M  V30 5734 H 515.397 0.821469 -0.0954827 0
M  V30 5735 H 517.943 1.42897 -0.915348 0
M  V30 5736 H 516.715 3.46225 -1.82329 0
M  V30 5737 H 516.338 3.97166 -0.18567 0
M  V30 5738 N 517.335 0.585699 1.46312 0
M  V30 5739 C 518.565 0.0780166 2.06453 0
M  V30 5740 C 518.973 -1.2336 1.43454 0
M  V30 5741 O 518.316 -1.75734 0.535086 0
M  V30 5742 C 518.378 -0.158951 3.59148 0
M  V30 5743 C 518.042 1.06752 4.44357 0
M  V30 5744 C 519.039 1.98031 4.80708 0
M  V30 5745 C 516.724 1.2902 4.85447 0
M  V30 5746 C 518.718 3.09924 5.5698 0
M  V30 5747 C 516.405 2.41218 5.61478 0
M  V30 5748 C 517.403 3.31499 5.97158 0
M  V30 5749 O 517.091 4.41747 6.71651 0
M  V30 5750 H 516.823 0.0558894 0.673686 0
M  V30 5751 H 519.377 0.806994 1.88883 0
M  V30 5752 H 517.607 -0.942575 3.75037 0
M  V30 5753 H 519.296 -0.615513 4.01206 0
M  V30 5754 H 520.062 1.82043 4.49539 0
M  V30 5755 H 515.941 0.596567 4.57124 0
M  V30 5756 H 519.485 3.80415 5.84748 0
M  V30 5757 H 515.382 2.57167 5.9206 0
M  V30 5758 H 516.15 4.40152 6.90079 0
M  V30 5759 N 518.813 -1.54241 0.323641 0
M  V30 5760 C 519.76 -2.24339 -0.542277 0
M  V30 5761 C 520.73 -1.23421 -1.11159 0
M  V30 5762 O 521.915 -1.52104 -1.15192 0
M  V30 5763 C 519.055 -3.00479 -1.69725 0
M  V30 5764 C 518.168 -4.16214 -1.15716 0
M  V30 5765 C 517.303 -4.79884 -2.27783 0
M  V30 5766 C 516.342 -5.87722 -1.71023 0
M  V30 5767 N 515.479 -6.45254 -2.76752 0
M  V30 5768 H 520.319 -2.97935 0.0620613 0
M  V30 5769 H 517.856 -1.47039 0.0423993 0
M  V30 5770 H 519.814 -3.42869 -2.3769 0
M  V30 5771 H 518.444 -2.29217 -2.27288 0
M  V30 5772 H 517.496 -3.78605 -0.369063 0
M  V30 5773 H 518.808 -4.93838 -0.701832 0
M  V30 5774 H 517.962 -5.25243 -3.03651 0
M  V30 5775 H 516.701 -4.01641 -2.76652 0
M  V30 5776 H 515.706 -5.41765 -0.936518 0
M  V30 5777 H 516.931 -6.67863 -1.2303 0
M  V30 5778 H 514.877 -5.69884 -3.24912 0
M  V30 5779 H 514.794 -7.18292 -2.35782 0
M  V30 5780 H 516.062 -6.95269 -3.5245 0
M  V30 5781 N 520.291 -0.0518155 -1.57515 0
M  V30 5782 C 521.238 0.922352 -2.11569 0
M  V30 5783 C 522.208 1.30842 -1.02321 0
M  V30 5784 O 523.393 1.39778 -1.29872 0
M  V30 5785 C 520.533 2.19167 -2.6657 0
M  V30 5786 C 519.646 1.86003 -3.89906 0
M  V30 5787 C 518.781 3.07398 -4.33221 0
M  V30 5788 C 517.82 2.70158 -5.49255 0
M  V30 5789 N 516.957 3.84248 -5.8762 0
M  V30 5790 H 521.797 0.454506 -2.94514 0
M  V30 5791 H 519.334 0.212718 -1.45554 0
M  V30 5792 H 521.292 2.93443 -2.96559 0
M  V30 5793 H 519.922 2.63528 -1.86421 0
M  V30 5794 H 518.974 1.01874 -3.66505 0
M  V30 5795 H 520.286 1.54592 -4.74239 0
M  V30 5796 H 519.44 3.89972 -4.64765 0
M  V30 5797 H 518.179 3.41988 -3.477 0
M  V30 5798 H 517.184 1.86001 -5.17382 0
M  V30 5799 H 518.409 2.36759 -6.36492 0
M  V30 5800 H 516.355 4.18638 -5.05053 0
M  V30 5801 H 516.272 3.56538 -6.66646 0
M  V30 5802 H 517.54 4.6746 -6.2378 0
M  V30 5803 N 521.769 1.56035 0.221574 0
M  V30 5804 C 522.994 1.83476 0.967026 0
M  V30 5805 C 523.419 0.632139 1.7716 0
M  V30 5806 O 522.777 -0.419082 1.7639 0
M  V30 5807 C 522.825 3.08907 1.86034 0
M  V30 5808 O 521.929 2.876 2.95567 0
M  V30 5809 H 521.27 0.604913 0.273817 0
M  V30 5810 H 523.8 2.03247 0.234893 0
M  V30 5811 H 523.81 3.3901 2.27016 0
M  V30 5812 H 522.485 3.96068 1.26898 0
M  V30 5813 H 521.062 2.6873 2.58532 0
M  V30 5814 N 523.247 -0.488276 1.49845 0
M  V30 5815 C 524.21 -1.57069 1.66919 0
M  V30 5816 C 525.21 -1.51445 0.540479 0
M  V30 5817 O 526.4 -1.5437 0.807188 0
M  V30 5818 C 523.532 -2.96718 1.67844 0
M  V30 5819 H 524.725 -1.43254 2.63474 0
M  V30 5820 H 522.278 -0.713435 1.39068 0
M  V30 5821 H 523.013 -3.15996 0.7292 0
M  V30 5822 H 522.798 -3.02208 2.49826 0
M  V30 5823 H 524.288 -3.75335 1.83066 0
M  V30 5824 N 524.725 -1.39134 -0.740242 0
M  V30 5825 C 525.972 -1.36071 -1.49969 0
M  V30 5826 C 526.3 0.0450245 -1.94448 0
M  V30 5827 O 525.555 1.02482 -1.66721 0
M  V30 5828 C 525.854 -2.27457 -2.75678 0
M  V30 5829 C 525.52 -3.75185 -2.50094 0
M  V30 5830 C 524.182 -4.15439 -2.42825 0
M  V30 5831 C 526.534 -4.68643 -2.28086 0
M  V30 5832 C 523.862 -5.4722 -2.11584 0
M  V30 5833 C 526.214 -6.00695 -1.98363 0
M  V30 5834 C 524.878 -6.40018 -1.8956 0
M  V30 5835 H 524.148 -0.497921 -0.548777 0
M  V30 5836 H 526.795 -1.71599 -0.85007 0
M  V30 5837 H 525.1 -1.8503 -3.45356 0
M  V30 5838 H 526.797 -2.22384 -3.33686 0
M  V30 5839 H 523.387 -3.43279 -2.56627 0
M  V30 5840 H 527.571 -4.3838 -2.32672 0
M  V30 5841 H 522.827 -5.76615 -2.03287 0
M  V30 5842 H 527.001 -6.72644 -1.80341 0
M  V30 5843 H 524.628 -7.42051 -1.65117 0
M  V30 5844 N 526.204 0.969867 -1.24223 0
M  V30 5845 C 527.152 2.08535 -1.03034 0
M  V30 5846 C 528.146 1.69366 0.0340379 0
M  V30 5847 O 529.352 1.79597 -0.12034 0
M  V30 5848 H 525.727 0.682313 -0.316154 0
M  V30 5849 H 527.698 2.23569 -1.97635 0
M  V30 5850 C 526.447 3.4158 -0.649509 0
M  V30 5851 H 525.77 3.72177 -1.46028 0
M  V30 5852 H 527.21 4.20536 -0.540841 0
M  V30 5853 C 525.669 3.30703 0.643194 0
M  V30 5854 O 526.199 3.64443 1.68951 0
M  V30 5855 N 524.405 2.83841 0.623095 0
M  V30 5856 H 523.952 2.56583 -0.228719 0
M  V30 5857 H 523.91 2.76946 1.48823 0
M  V30 5858 N 527.682 1.05563 1.17022 0
M  V30 5859 C 529.098 0.777684 1.39371 0
M  V30 5860 C 529.298 -0.626269 1.91521 0
M  V30 5861 O 528.354 -1.38806 2.10924 0
M  V30 5862 C 529.667 1.83642 2.3811 0
M  V30 5863 C 531.215 1.85907 2.51809 0
M  V30 5864 C 531.69 2.90813 3.53824 0
M  V30 5865 N 533.181 2.898 3.61345 0
M  V30 5866 C 533.916 3.6762 4.40049 0
M  V30 5867 N 533.412 4.55237 5.22237 0
M  V30 5868 N 535.205 3.56044 4.34959 0
M  V30 5869 H 527.356 1.9614 0.815047 0
M  V30 5870 H 529.619 0.849527 0.420722 0
M  V30 5871 H 529.325 2.84425 2.06871 0
M  V30 5872 H 529.199 1.6812 3.37662 0
M  V30 5873 H 531.586 0.857865 2.82356 0
M  V30 5874 H 531.667 2.05506 1.52318 0
M  V30 5875 H 531.311 3.91122 3.24015 0
M  V30 5876 H 531.241 2.68465 4.53028 0
M  V30 5877 H 533.732 2.26274 3.02669 0
M  V30 5878 H 534.045 5.11291 5.79484 0
M  V30 5879 H 532.39 4.59296 5.21605 0
M  V30 5880 H 535.581 2.86986 3.69806 0
M  V30 5881 H 535.754 4.16938 4.96051 0
M  V30 5882 N 529.16 -1.33526 0.837174 0
M  V30 5883 C 530.123 -2.27551 0.274421 0
M  V30 5884 C 531.123 -1.50886 -0.555881 0
M  V30 5885 O 532.313 -1.70227 -0.369918 0
M  V30 5886 C 529.445 -3.35332 -0.613605 0
M  V30 5887 H 530.638 -2.78837 1.10408 0
M  V30 5888 H 528.191 -1.439 0.610126 0
M  V30 5889 H 528.926 -2.89285 -1.46577 0
M  V30 5890 H 528.711 -3.92095 -0.0195341 0
M  V30 5891 H 530.201 -4.05433 -1.00068 0
M  V30 5892 N 530.638 -0.59345 -1.46 0
M  V30 5893 C 531.866 -0.0890934 -2.06708 0
M  V30 5894 C 532.281 1.2205 -1.44046 0
M  V30 5895 O 531.638 1.74029 -0.549551 0
M  V30 5896 C 531.689 0.0720263 -3.61428 0
M  V30 5897 O 531.41 -1.18574 -4.21748 0
M  V30 5898 C 532.911 0.609487 -4.3909 0
M  V30 5899 H 530.131 -0.0623628 -0.668096 0
M  V30 5900 H 532.675 -0.817171 -1.87464 0
M  V30 5901 H 530.83 0.750369 -3.80063 0
M  V30 5902 H 531.244 -1.0064 -5.14754 0
M  V30 5903 H 532.718 0.671363 -5.47902 0
M  V30 5904 H 533.195 1.62878 -4.07882 0
M  V30 5905 H 533.801 -0.03434 -4.25286 0
M  V30 5906 N 532.116 1.54067 -0.331816 0
M  V30 5907 C 533.048 2.22139 0.564538 0
M  V30 5908 C 534.061 1.22408 1.07332 0
M  V30 5909 O 535.25 1.4883 0.985481 0
M  V30 5910 C 532.35 2.87876 1.78831 0
M  V30 5911 C 531.523 4.13817 1.41682 0
M  V30 5912 C 530.582 4.63072 2.49901 0
M  V30 5913 O 529.608 5.27562 2.13699 0
M  V30 5914 N 530.81 4.38001 3.80967 0
M  V30 5915 H 533.575 2.99694 -0.0183736 0
M  V30 5916 H 531.136 1.61153 -0.155396 0
M  V30 5917 H 533.128 3.17747 2.50637 0
M  V30 5918 H 531.698 2.13977 2.27887 0
M  V30 5919 H 530.918 3.9062 0.530044 0
M  V30 5920 H 532.206 4.95762 1.14443 0
M  V30 5921 H 531.604 3.864 4.13173 0
M  V30 5922 H 530.161 4.72507 4.48977 0
M  V30 5923 N 533.594 0.0601682 1.57485 0
M  V30 5924 C 534.557 -0.896373 2.10945 0
M  V30 5925 C 535.557 -1.23402 1.03095 0
M  V30 5926 O 536.747 -1.16921 1.29132 0
M  V30 5927 C 533.879 -2.20346 2.60116 0
M  V30 5928 H 535.072 -0.432778 2.96761 0
M  V30 5929 H 532.625 -0.188372 1.55161 0
M  V30 5930 H 533.36 -2.71268 1.7772 0
M  V30 5931 H 533.145 -1.9714 3.38937 0
M  V30 5932 H 534.635 -2.88846 3.01592 0
M  V30 5933 N 535.072 -1.5615 -0.213296 0
M  V30 5934 C 536.019 -1.93086 -1.26437 0
M  V30 5935 C 536.989 -0.789086 -1.4616 0
M  V30 5936 O 538.174 -1.04569 -1.59593 0
M  V30 5937 C 535.314 -2.26003 -2.608 0
M  V30 5938 C 534.427 -3.53156 -2.48807 0
M  V30 5939 C 533.562 -3.7548 -3.7575 0
M  V30 5940 C 532.601 -4.96119 -3.58514 0
M  V30 5941 N 531.738 -5.14791 -4.77425 0
M  V30 5942 H 536.578 -2.82707 -0.942376 0
M  V30 5943 H 534.115 -1.39919 -0.454001 0
M  V30 5944 H 536.073 -2.431 -3.39055 0
M  V30 5945 H 534.703 -1.39546 -2.91079 0
M  V30 5946 H 533.755 -3.44207 -1.61944 0
M  V30 5947 H 535.067 -4.41565 -2.31996 0
M  V30 5948 H 534.221 -3.92718 -4.62447 0
M  V30 5949 H 532.96 -2.85368 -3.95495 0
M  V30 5950 H 531.965 -4.78823 -2.70201 0
M  V30 5951 H 533.19 -5.87724 -3.40231 0
M  V30 5952 H 531.136 -4.27623 -4.97468 0
M  V30 5953 H 531.053 -5.97347 -4.63371 0
M  V30 5954 H 532.321 -5.36471 -5.65525 0
M  V30 5955 N 536.55 0.480323 -1.50102 0
M  V30 5956 C 537.966 0.813295 -1.37323 0
M  V30 5957 C 538.166 1.97027 -0.422206 0
M  V30 5958 O 537.222 2.5212 0.138563 0
M  V30 5959 C 538.535 1.13404 -2.78496 0
M  V30 5960 C 540.083 1.24104 -2.87345 0
M  V30 5961 C 540.558 1.59497 -4.29331 0
M  V30 5962 N 542.049 1.66507 -4.32238 0
M  V30 5963 C 542.784 1.95378 -5.39087 0
M  V30 5964 N 542.28 2.22333 -6.56155 0
M  V30 5965 N 544.073 1.96803 -5.26522 0
M  V30 5966 H 536.224 -0.282291 -2.10516 0
M  V30 5967 H 538.487 -0.063752 -0.945854 0
M  V30 5968 H 538.193 0.357064 -3.49883 0
M  V30 5969 H 538.067 2.07251 -3.15162 0
M  V30 5970 H 540.454 2.00871 -2.16183 0
M  V30 5971 H 540.535 0.282593 -2.54234 0
M  V30 5972 H 540.179 0.832736 -5.01027 0
M  V30 5973 H 540.109 2.56477 -4.59921 0
M  V30 5974 H 542.6 1.47753 -3.47818 0
M  V30 5975 H 542.913 2.43611 -7.33399 0
M  V30 5976 H 541.258 2.19745 -6.59346 0
M  V30 5977 H 544.449 1.75235 -4.34062 0
M  V30 5978 H 544.622 2.18969 -6.09883 0
M  V30 5979 N 538.028 1.39524 0.732853 0
M  V30 5980 C 538.96 1.34318 1.85718 0
M  V30 5981 C 539.973 0.251576 1.60844 0
M  V30 5982 O 541.162 0.510685 1.71039 0
M  V30 5983 C 538.262 1.06334 3.21786 0
M  V30 5984 C 537.435 2.26813 3.73998 0
M  V30 5985 C 536.494 1.95253 4.88634 0
M  V30 5986 O 535.52 2.67957 5.02183 0
M  V30 5987 N 536.722 0.919984 5.73164 0
M  V30 5988 H 539.487 2.3121 1.90688 0
M  V30 5989 H 537.048 1.33654 0.91368 0
M  V30 5990 H 539.04 0.832363 3.96048 0
M  V30 5991 H 537.61 0.181682 3.12072 0
M  V30 5992 H 536.83 2.65849 2.91064 0
M  V30 5993 H 538.118 3.0717 4.05616 0
M  V30 5994 H 537.516 0.317487 5.64808 0
M  V30 5995 H 536.073 0.748905 6.47483 0
M  V30 5996 N 539.506 -0.963266 1.24736 0
M  V30 5997 C 540.753 -1.7068 1.0897 0
M  V30 5998 C 541.081 -1.90934 -0.370751 0
M  V30 5999 O 540.336 -1.47155 -1.29011 0
M  V30 6000 C 540.635 -3.09944 1.7796 0
M  V30 6001 C 540.301 -3.09518 3.27887 0
M  V30 6002 C 538.963 -3.09109 3.68789 0
M  V30 6003 C 541.315 -3.03509 4.23712 0
M  V30 6004 C 538.643 -3.00429 5.03944 0
M  V30 6005 C 540.995 -2.96371 5.5888 0
M  V30 6006 C 539.659 -2.94293 5.99123 0
M  V30 6007 H 538.929 -0.624564 0.398749 0
M  V30 6008 H 541.576 -1.12603 1.54896 0
M  V30 6009 H 539.881 -3.71513 1.2444 0
M  V30 6010 H 541.578 -3.66278 1.63222 0
M  V30 6011 H 538.168 -3.10603 2.95337 0
M  V30 6012 H 542.352 -3.0295 3.93109 0
M  V30 6013 H 537.608 -2.97183 5.34314 0
M  V30 6014 H 541.782 -2.90681 6.32833 0
M  V30 6015 H 539.409 -2.87322 7.03811 0
M  V30 6016 N 540.985 -1.06182 -1.16461 0
M  V30 6017 C 542.233 -0.776326 -1.86595 0
M  V30 6018 C 542.554 0.69921 -1.82033 0
M  V30 6019 O 541.824 1.50579 -1.2531 0
M  V30 6020 H 540.404 -0.284184 -0.690832 0
M  V30 6021 H 543.066 -1.34308 -1.41235 0
M  V30 6022 H 542.162 -1.10022 -2.92064 0
M  V30 6023 N 542.463 1.3308 -0.844243 0
M  V30 6024 C 543.688 2.02341 -0.455282 0
M  V30 6025 C 544.113 1.6308 0.93737 0
M  V30 6026 O 543.471 0.826118 1.61385 0
M  V30 6027 C 543.519 3.55743 -0.58988 0
M  V30 6028 O 542.623 4.1063 0.38166 0
M  V30 6029 H 541.964 0.637898 -0.184343 0
M  V30 6030 H 544.494 1.6986 -1.14056 0
M  V30 6031 H 544.504 4.05243 -0.473522 0
M  V30 6032 H 543.179 3.83662 -1.60549 0
M  V30 6033 H 541.756 3.72236 0.22241 0
M  V30 6034 N 543.941 0.601185 1.45683 0
M  V30 6035 C 544.904 -0.111398 2.28929 0
M  V30 6036 C 545.904 -0.801246 1.39416 0
M  V30 6037 O 547.094 -0.650383 1.61603 0
M  V30 6038 C 544.226 -1.16773 3.20276 0
M  V30 6039 H 545.419 0.620412 2.93413 0
M  V30 6040 H 542.972 0.359946 1.52099 0
M  V30 6041 H 543.707 -1.93051 2.60579 0
M  V30 6042 H 543.492 -0.677358 3.86205 0
M  V30 6043 H 544.982 -1.66698 3.82886 0
M  V30 6044 N 545.419 -1.53889 0.339982 0
M  V30 6045 C 546.668 -2.00035 -0.258604 0
M  V30 6046 C 546.981 -1.23179 -1.51942 0
M  V30 6047 O 548.187 -1.59784 -2.19503 0
M  V30 6048 C 546.643 -3.56249 -0.511359 0
M  V30 6049 C 546.251 -4.41957 0.733349 0
M  V30 6050 C 547.995 -4.1082 -1.069 0
M  V30 6051 C 545.902 -5.89673 0.451591 0
M  V30 6052 H 544.832 -0.747284 -0.10041 0
M  V30 6053 H 547.483 -1.77776 0.454758 0
M  V30 6054 H 545.865 -3.7456 -1.28533 0
M  V30 6055 H 547.039 -4.35421 1.50815 0
M  V30 6056 H 545.354 -3.9836 1.21237 0
M  V30 6057 H 547.951 -5.18789 -1.2947 0
M  V30 6058 H 548.294 -3.63817 -2.02343 0
M  V30 6059 H 548.827 -3.96205 -0.355817 0
M  V30 6060 H 545.566 -6.40903 1.37565 0
M  V30 6061 H 545.086 -5.99122 -0.285193 0
M  V30 6062 H 546.765 -6.46965 0.0675067 0
M  V30 6063 N 546.897 -0.0685191 -1.57451 0
M  V30 6064 C 547.844 0.899861 -2.12535 0
M  V30 6065 C 548.814 1.29749 -1.03703 0
M  V30 6066 O 549.999 1.38392 -1.31348 0
M  V30 6067 C 547.139 2.16328 -2.6888 0
M  V30 6068 C 546.252 1.81857 -3.91857 0
M  V30 6069 C 545.387 3.02786 -4.36457 0
M  V30 6070 C 544.426 2.64317 -5.5209 0
M  V30 6071 N 543.563 3.77994 -5.91663 0
M  V30 6072 H 548.403 0.423243 -2.94979 0
M  V30 6073 H 545.94 0.197268 -1.45771 0
M  V30 6074 H 547.898 2.90281 -2.99655 0
M  V30 6075 H 546.528 2.61536 -1.89206 0
M  V30 6076 H 545.58 0.979808 -3.67565 0
M  V30 6077 H 546.892 1.49553 -4.75852 0
M  V30 6078 H 546.046 3.85021 -4.68875 0
M  V30 6079 H 544.785 3.38281 -3.51308 0
M  V30 6080 H 543.79 1.80503 -5.19325 0
M  V30 6081 H 545.015 2.29995 -6.38967 0
M  V30 6082 H 542.961 4.13258 -5.09464 0
M  V30 6083 H 542.878 3.49447 -6.7039 0
M  V30 6084 H 544.146 4.60818 -6.28703 0
M  V30 6085 N 548.375 1.56261 0.205012 0
M  V30 6086 C 549.786 1.70056 0.770574 0
M  V30 6087 C 550.137 0.673398 1.84282 0
M  V30 6088 O 549.262 -0.172196 2.15714 0
M  V30 6089 C 549.857 3.08316 1.40451 0
M  V30 6090 C 548.416 3.2391 1.91727 0
M  V30 6091 C 547.563 2.66001 0.783516 0
M  V30 6092 H 550.514 1.58688 -0.019911 0
M  V30 6093 H 550.535 3.05094 2.27371 0
M  V30 6094 H 550.047 3.83053 0.623882 0
M  V30 6095 H 548.148 2.54072 2.7254 0
M  V30 6096 H 548.261 4.3131 2.08588 0
M  V30 6097 H 546.625 2.24915 1.19521 0
M  V30 6098 H 547.408 3.43297 0.0152883 0
M  V30 6099 N 549.853 -0.472356 1.50355 0
M  V30 6100 C 551.1 -1.22453 1.61281 0
M  V30 6101 C 551.428 -1.91972 0.31256 0
M  V30 6102 O 550.683 -1.82696 -0.701475 0
M  V30 6103 C 550.982 -2.29257 2.74182 0
M  V30 6104 C 550.648 -1.76999 4.14708 0
M  V30 6105 C 549.31 -1.62467 4.52944 0
M  V30 6106 C 551.662 -1.38215 5.0254 0
M  V30 6107 C 548.99 -1.07574 5.76754 0
M  V30 6108 C 551.342 -0.847638 6.26895 0
M  V30 6109 C 550.006 -0.688946 6.63935 0
M  V30 6110 H 549.276 -0.448087 0.590168 0
M  V30 6111 H 551.923 -0.520744 1.84284 0
M  V30 6112 H 550.228 -3.05538 2.45263 0
M  V30 6113 H 551.925 -2.87212 2.7984 0
M  V30 6114 H 548.515 -1.89276 3.84542 0
M  V30 6115 H 552.699 -1.48276 4.73633 0
M  V30 6116 H 547.955 -0.940237 6.04127 0
M  V30 6117 H 552.129 -0.538455 6.94315 0
M  V30 6118 H 549.756 -0.261435 7.5975 0
M  V30 6119 N 551.331 -1.39911 -0.725443 0
M  V30 6120 C 552.577 -1.37858 -1.48738 0
M  V30 6121 C 552.91 0.0224187 -1.94187 0
M  V30 6122 O 552.185 0.989204 -1.67466 0
M  V30 6123 C 552.468 -2.3594 -2.72038 0
M  V30 6124 C 552.321 -3.85023 -2.32546 0
M  V30 6125 C 553.64 -2.31704 -3.74167 0
M  V30 6126 H 550.759 -0.502074 -0.539528 0
M  V30 6127 H 553.401 -1.70974 -0.828728 0
M  V30 6128 H 551.551 -2.0783 -3.28236 0
M  V30 6129 H 553.223 -4.2392 -1.81905 0
M  V30 6130 H 551.466 -4.01334 -1.64661 0
M  V30 6131 H 552.137 -4.49152 -3.20884 0
M  V30 6132 H 554.613 -2.5658 -3.27576 0
M  V30 6133 H 553.489 -3.02395 -4.58092 0
M  V30 6134 H 553.75 -1.3253 -4.21768 0
M  V30 6135 N 552.809 0.956637 -1.25245 0
M  V30 6136 C 554.039 1.7332 -1.12445 0
M  V30 6137 C 554.447 1.86392 0.324732 0
M  V30 6138 O 553.79 1.35967 1.23526 0
M  V30 6139 C 553.852 3.16603 -1.70303 0
M  V30 6140 C 553.516 3.26966 -3.19284 0
M  V30 6141 C 554.513 3.11434 -4.16299 0
M  V30 6142 C 552.198 3.50851 -3.59456 0
M  V30 6143 C 554.192 3.1963 -5.51467 0
M  V30 6144 C 551.879 3.58684 -4.94761 0
M  V30 6145 C 552.877 3.43087 -5.90576 0
M  V30 6146 O 552.565 3.50598 -7.2342 0
M  V30 6147 H 552.297 0.549981 -0.393061 0
M  V30 6148 H 554.851 1.20892 -1.66055 0
M  V30 6149 H 553.081 3.70385 -1.11138 0
M  V30 6150 H 554.77 3.76109 -1.52632 0
M  V30 6151 H 555.536 2.92853 -3.86604 0
M  V30 6152 H 551.415 3.62053 -2.85375 0
M  V30 6153 H 554.959 3.07373 -6.26233 0
M  V30 6154 H 550.856 3.76782 -5.24124 0
M  V30 6155 H 551.624 3.67242 -7.31489 0
M  V30 6156 N 554.287 1.06798 1.15896 0
M  V30 6157 C 555.219 0.641263 2.20046 0
M  V30 6158 C 556.232 -0.303355 1.59949 0
M  V30 6159 O 557.421 -0.0935478 1.78255 0
M  V30 6160 C 554.521 -0.0794029 3.38807 0
M  V30 6161 C 553.694 0.879986 4.28457 0
M  V30 6162 C 552.753 0.197638 5.25829 0
M  V30 6163 O 551.779 0.836913 5.63014 0
M  V30 6164 N 552.981 -1.05886 5.70761 0
M  V30 6165 H 555.746 1.53718 2.57276 0
M  V30 6166 H 553.307 0.951951 1.30956 0
M  V30 6167 H 555.299 -0.546418 4.00994 0
M  V30 6168 H 553.869 -0.877193 3.0004 0
M  V30 6169 H 553.089 1.52625 3.63454 0
M  V30 6170 H 554.377 1.53065 4.8523 0
M  V30 6171 H 553.775 -1.59828 5.42652 0
M  V30 6172 H 552.332 -1.46965 6.35015 0
M  V30 6173 N 555.766 -1.3263 0.851289 0
M  V30 6174 C 557.015 -1.96633 0.449267 0
M  V30 6175 C 557.328 -1.68131 -0.999562 0
M  V30 6176 O 558.534 -2.25845 -1.50685 0
M  V30 6177 C 556.99 -3.51946 0.752446 0
M  V30 6178 C 556.598 -3.89311 2.21678 0
M  V30 6179 C 558.342 -4.22437 0.417983 0
M  V30 6180 C 556.249 -5.37655 2.46336 0
M  V30 6181 H 555.179 -0.735888 0.164269 0
M  V30 6182 H 557.83 -1.51073 1.0416 0
M  V30 6183 H 556.212 -3.95899 0.0895858 0
M  V30 6184 H 557.386 -3.56378 2.92115 0
M  V30 6185 H 555.701 -3.31836 2.51543 0
M  V30 6186 H 558.298 -5.31549 0.579674 0
M  V30 6187 H 558.641 -4.11349 -0.640115 0
M  V30 6188 H 559.174 -3.84057 1.03659 0
M  V30 6189 H 555.913 -5.5376 3.50757 0
M  V30 6190 H 555.433 -5.72005 1.80473 0
M  V30 6191 H 557.112 -6.04695 2.30115 0
M  V30 6192 N 557.244 -0.608902 -1.45362 0
M  V30 6193 C 558.207 0.0992563 -2.28985 0
M  V30 6194 C 559.207 0.793841 -1.39838 0
M  V30 6195 O 560.397 0.641804 -1.61946 0
M  V30 6196 C 557.529 1.15073 -3.20891 0
M  V30 6197 H 558.722 -0.635964 -2.93079 0
M  V30 6198 H 556.275 -0.368007 -1.51906 0
M  V30 6199 H 557.01 1.91667 -2.616 0
M  V30 6200 H 556.795 0.656867 -3.86559 0
M  V30 6201 H 558.285 1.64665 -3.83765 0
M  V30 6202 N 558.722 1.53707 -0.348139 0
M  V30 6203 C 559.969 2.00988 0.246966 0
M  V30 6204 C 560.297 1.23586 1.50189 0
M  V30 6205 O 559.552 0.312817 1.93184 0
M  V30 6206 C 559.851 3.52292 0.602061 0
M  V30 6207 C 559.517 4.47453 -0.556509 0
M  V30 6208 C 558.179 4.73188 -0.874446 0
M  V30 6209 C 560.531 5.03851 -1.33354 0
M  V30 6210 C 557.859 5.52577 -1.9717 0
M  V30 6211 C 560.211 5.84437 -2.42108 0
M  V30 6212 C 558.875 6.08465 -2.74456 0
M  V30 6213 H 558.145 0.735469 0.0903712 0
M  V30 6214 H 560.792 1.85464 -0.477001 0
M  V30 6215 H 559.097 3.65672 1.40681 0
M  V30 6216 H 560.794 3.86337 1.07447 0
M  V30 6217 H 557.384 4.27558 -0.298652 0
M  V30 6218 H 561.568 4.8393 -1.10117 0
M  V30 6219 H 556.824 5.69418 -2.22651 0
M  V30 6220 H 560.998 6.27151 -3.02745 0
M  V30 6221 H 558.625 6.69768 -3.59604 0
M  V30 6222 N 560.2 0.0768682 1.57412 0
M  V30 6223 C 561.477 -0.632359 1.85096 0
M  V30 6224 C 561.857 -1.87479 0.9703 0
M  V30 6225 O 561.205 -2.28469 0.0379062 0
M  V30 6226 C 561.415 -0.965174 3.35388 0
M  V30 6227 C 562.763 -1.33648 4.03018 0
M  V30 6228 O 563.787 -1.05675 3.40164 0
M  V30 6229 O 562.646 -1.85959 5.13889 0
M  V30 6230 H 559.74 -0.314574 0.764835 0
M  V30 6231 H 562.286 0.108184 1.69355 0
M  V30 6232 H 561.058 -0.0829745 3.91212 0
M  V30 6233 H 560.681 -1.76231 3.5641 0
M  V30 6234 N 561.678 -1.56367 -0.196722 0
M  V30 6235 C 562.626 -1.95304 -1.2633 0
M  V30 6236 C 563.62 -0.838252 -1.47206 0
M  V30 6237 O 564.826 -1.02325 -1.48087 0
M  V30 6238 H 561.201 -0.621013 -0.424083 0
M  V30 6239 H 563.172 -2.84254 -0.907879 0
M  V30 6240 C 561.921 -2.3074 -2.60104 0
M  V30 6241 H 561.244 -3.16047 -2.44856 0
M  V30 6242 H 562.684 -2.61849 -3.33484 0
M  V30 6243 C 561.143 -1.14143 -3.16975 0
M  V30 6244 O 561.673 -0.415602 -3.99544 0
M  V30 6245 N 559.879 -0.91867 -2.75697 0
M  V30 6246 H 559.426 -1.51065 -2.08656 0
M  V30 6247 H 559.384 -0.140321 -3.14087 0
M  V30 6248 N 563.156 0.464375 -1.50603 0
M  V30 6249 C 564.404 1.21356 -1.61608 0
M  V30 6250 C 564.725 1.92329 -0.321643 0
M  V30 6251 O 563.995 1.84403 0.661232 0
M  V30 6252 H 562.575 0.45094 -0.595535 0
M  V30 6253 H 565.237 0.535046 -1.87412 0
M  V30 6254 H 564.333 1.95783 -2.43054 0
M  V30 6255 N 564.634 1.40294 0.718013 0
M  V30 6256 C 565.864 1.41544 1.50495 0
M  V30 6257 C 566.272 0.0127877 1.89196 0
M  V30 6258 O 565.615 -0.97305 1.55812 0
M  V30 6259 C 565.677 2.24021 2.81167 0
M  V30 6260 C 565.341 3.72463 2.64803 0
M  V30 6261 C 566.338 4.65154 2.32223 0
M  V30 6262 C 564.023 4.1625 2.81143 0
M  V30 6263 C 566.017 5.99618 2.16189 0
M  V30 6264 C 563.704 5.50784 2.64727 0
M  V30 6265 C 564.702 6.42283 2.32297 0
M  V30 6266 O 564.39 7.74337 2.16004 0
M  V30 6267 H 564.122 0.484819 0.471091 0
M  V30 6268 H 566.676 1.84948 0.893488 0
M  V30 6269 H 564.906 1.75393 3.44636 0
M  V30 6270 H 566.595 2.17243 3.42871 0
M  V30 6271 H 567.361 4.32622 2.19234 0
M  V30 6272 H 563.24 3.45352 3.05373 0
M  V30 6273 H 566.784 6.71 1.90799 0
M  V30 6274 H 562.681 5.82902 2.773 0
M  V30 6275 H 563.449 7.85244 2.30942 0
M  V30 6276 N 566.112 -0.949982 1.2575 0
M  V30 6277 C 567.337 -1.73503 1.13628 0
M  V30 6278 C 567.762 -1.85601 -0.30559 0
M  V30 6279 O 567.12 -1.33984 -1.22139 0
M  V30 6280 C 567.168 -3.1243 1.80055 0
M  V30 6281 O 566.272 -3.97916 1.08336 0
M  V30 6282 H 565.613 -0.532665 0.396439 0
M  V30 6283 H 568.143 -1.19043 1.66403 0
M  V30 6284 H 568.153 -3.62866 1.86527 0
M  V30 6285 H 566.828 -3.02941 2.84956 0
M  V30 6286 H 565.405 -3.56375 1.09777 0
M  V30 6287 N 567.59 -1.07411 -1.15328 0
M  V30 6288 C 568.818 -0.818782 -1.90009 0
M  V30 6289 C 569.233 0.628072 -1.78047 0
M  V30 6290 O 568.59 1.43085 -1.13282 0
M  V30 6291 C 568.641 -1.21874 -3.40337 0
M  V30 6292 O 568.362 -2.60883 -3.51954 0
M  V30 6293 C 569.863 -0.992796 -4.3204 0
M  V30 6294 H 567.083 -0.296007 -0.60218 0
M  V30 6295 H 569.627 -1.43073 -1.46117 0
M  V30 6296 H 567.782 -0.651103 -3.81889 0
M  V30 6297 H 568.196 -2.77216 -4.45255 0
M  V30 6298 H 569.67 -1.32215 -5.35932 0
M  V30 6299 H 570.147 0.0708331 -4.39143 0
M  V30 6300 H 570.753 -1.54537 -3.9623 0
M  V30 6301 N 569.068 1.32177 -0.85831 0
M  V30 6302 C 570.296 2.01313 -0.477582 0
M  V30 6303 C 570.711 1.6449 0.926736 0
M  V30 6304 O 570.068 0.868096 1.60531 0
M  V30 6305 C 570.119 3.56293 -0.611337 0
M  V30 6306 O 569.84 3.91794 -1.96034 0
M  V30 6307 C 571.341 4.42702 -0.230093 0
M  V30 6308 H 568.561 0.644323 -0.187322 0
M  V30 6309 H 571.105 1.68674 -1.15626 0
M  V30 6310 H 569.26 3.87395 0.0196494 0
M  V30 6311 H 569.674 4.86513 -1.95973 0
M  V30 6312 H 571.148 5.50727 -0.374674 0
M  V30 6313 H 571.625 4.3129 0.829779 0
M  V30 6314 H 572.231 4.16997 -0.836302 0
M  V30 6315 N 570.547 0.616602 1.45037 0
M  V30 6316 C 571.772 0.120192 2.07051 0
M  V30 6317 C 572.197 -1.19008 1.45666 0
M  V30 6318 O 571.555 -1.7267 0.552692 0
M  V30 6319 C 571.603 0.00354901 3.606 0
M  V30 6320 O 570.707 -1.04431 3.98958 0
M  V30 6321 H 570.048 0.0781599 0.659384 0
M  V30 6322 H 572.578 0.849167 1.86146 0
M  V30 6323 H 572.588 -0.191754 4.07549 0
M  V30 6324 H 571.263 0.960239 4.04663 0
M  V30 6325 H 569.84 -0.824749 3.63665 0
M  V30 6326 N 572.025 -1.5352 0.356285 0
M  V30 6327 C 572.972 -2.25439 -0.494569 0
M  V30 6328 C 573.942 -1.25752 -1.08516 0
M  V30 6329 O 575.127 -1.54513 -1.1194 0
M  V30 6330 C 572.267 -3.04011 -1.63313 0
M  V30 6331 C 571.38 -4.18574 -1.06862 0
M  V30 6332 C 570.515 -4.84607 -2.17552 0
M  V30 6333 C 569.554 -5.91218 -1.58518 0
M  V30 6334 N 568.691 -6.50979 -2.63003 0
M  V30 6335 H 573.531 -2.97737 0.125244 0
M  V30 6336 H 571.068 -1.46916 0.0735789 0
M  V30 6337 H 573.026 -3.47834 -2.30363 0
M  V30 6338 H 571.656 -2.33986 -2.22374 0
M  V30 6339 H 570.708 -3.79303 -0.288672 0
M  V30 6340 H 572.02 -4.95215 -0.596924 0
M  V30 6341 H 571.174 -5.31566 -2.92442 0
M  V30 6342 H 569.913 -4.07418 -2.6807 0
M  V30 6343 H 568.918 -5.4363 -0.821391 0
M  V30 6344 H 570.143 -6.70322 -1.08836 0
M  V30 6345 H 568.089 -5.76648 -3.12751 0
M  V30 6346 H 568.006 -7.23131 -2.20493 0
M  V30 6347 H 569.274 -7.02589 -3.37623 0
M  V30 6348 N 573.503 -0.0852151 -1.57369 0
M  V30 6349 C 574.752 0.580443 -1.93168 0
M  V30 6350 C 575.065 1.6995 -0.968319 0
M  V30 6351 O 576.271 2.42564 -1.21963 0
M  V30 6352 C 574.727 1.08386 -3.43192 0
M  V30 6353 C 574.335 -0.00491388 -4.48 0
M  V30 6354 C 576.079 1.72281 -3.87968 0
M  V30 6355 C 573.986 0.513299 -5.89168 0
M  V30 6356 H 572.916 0.22059 -0.72101 0
M  V30 6357 H 575.567 -0.159621 -1.82804 0
M  V30 6358 H 573.949 1.8773 -3.48674 0
M  V30 6359 H 575.123 -0.780032 -4.5415 0
M  V30 6360 H 573.438 -0.548453 -4.12772 0
M  V30 6361 H 576.035 2.12108 -4.9083 0
M  V30 6362 H 576.378 2.58811 -3.26071 0
M  V30 6363 H 576.911 0.995359 -3.85146 0
M  V30 6364 H 573.65 -0.315153 -6.54742 0
M  V30 6365 H 573.17 1.25564 -5.8651 0
M  V30 6366 H 574.849 0.985433 -6.39451 0
M  V30 6367 N 574.981 1.5647 0.188427 0
M  V30 6368 C 576.392 1.70864 0.752494 0
M  V30 6369 C 576.743 0.692905 1.83557 0
M  V30 6370 O 575.868 -0.149307 2.15884 0
M  V30 6371 C 576.463 3.09789 1.37173 0
M  V30 6372 C 575.022 3.25925 1.88281 0
M  V30 6373 C 574.169 2.66817 0.755259 0
M  V30 6374 H 577.12 1.58657 -0.0367408 0
M  V30 6375 H 577.141 3.07489 2.24122 0
M  V30 6376 H 576.653 3.83693 0.583219 0
M  V30 6377 H 574.754 2.56948 2.6983 0
M  V30 6378 H 574.867 4.33498 2.04001 0
M  V30 6379 H 573.231 2.2617 1.17128 0
M  V30 6380 H 574.014 3.43294 -0.0211237 0
M  V30 6381 N 576.459 -0.456382 1.50847 0
M  V30 6382 C 577.736 -1.21739 1.53098 0
M  V30 6383 C 578.116 -2.09179 0.284132 0
M  V30 6384 O 577.464 -2.16466 -0.731773 0
M  V30 6385 C 577.674 -2.03573 2.83477 0
M  V30 6386 C 579.022 -2.61264 3.34703 0
M  V30 6387 O 580.046 -2.13802 2.84898 0
M  V30 6388 O 578.905 -3.47779 4.21559 0
M  V30 6389 H 575.999 -0.553219 0.614718 0
M  V30 6390 H 578.545 -0.467003 1.63148 0
M  V30 6391 H 577.317 -1.39232 3.65691 0
M  V30 6392 H 576.94 -2.85716 2.76499 0
M  V30 6393 N 577.937 -1.40673 -0.710563 0
M  V30 6394 C 579.165 -1.42547 -1.4996 0
M  V30 6395 C 579.58 -0.0265485 -1.88781 0
M  V30 6396 O 578.937 0.950694 -1.55782 0
M  V30 6397 C 578.988 -2.32071 -2.77173 0
M  V30 6398 O 578.709 -3.66518 -2.39992 0
M  V30 6399 C 580.21 -2.42591 -3.71032 0
M  V30 6400 H 577.43 -0.486025 -0.462623 0
M  V30 6401 H 579.974 -1.84783 -0.876102 0
M  V30 6402 H 578.129 -1.93184 -3.35795 0
M  V30 6403 H 578.543 -4.14115 -3.21884 0
M  V30 6404 H 580.017 -3.09429 -4.57119 0
M  V30 6405 H 580.494 -1.4525 -4.14486 0
M  V30 6406 H 581.1 -2.82051 -3.18319 0
M  V30 6407 N 579.415 0.9433 -1.26252 0
M  V30 6408 C 580.378 2.02326 -1.07689 0
M  V30 6409 C 581.378 1.60779 -0.0259174 0
M  V30 6410 O 582.568 1.72108 -0.269134 0
M  V30 6411 C 579.7 3.34886 -0.63752 0
M  V30 6412 H 580.893 2.20225 -2.0357 0
M  V30 6413 H 578.446 1.12197 -1.08819 0
M  V30 6414 H 579.181 3.22684 0.323377 0
M  V30 6415 H 578.966 3.66393 -1.39637 0
M  V30 6416 H 580.456 4.14231 -0.529418 0
M  V30 6417 N 580.893 1.08022 1.14757 0
M  V30 6418 C 582.309 0.807072 1.3769 0
M  V30 6419 C 582.509 -0.585504 1.92806 0
M  V30 6420 O 581.565 -1.34301 2.13821 0
M  V30 6421 C 582.878 1.88651 2.34161 0
M  V30 6422 C 584.426 1.91206 2.47809 0
M  V30 6423 C 584.901 2.98253 3.47576 0
M  V30 6424 N 586.392 2.974 3.55117 0
M  V30 6425 C 587.127 3.76872 4.32152 0
M  V30 6426 N 586.623 4.66212 5.12463 0
M  V30 6427 N 588.416 3.6519 4.27309 0
M  V30 6428 H 580.567 1.97824 0.77326 0
M  V30 6429 H 582.83 0.85826 0.402608 0
M  V30 6430 H 582.536 2.88749 2.00791 0
M  V30 6431 H 582.41 1.75244 3.3402 0
M  V30 6432 H 584.797 0.917564 2.80472 0
M  V30 6433 H 584.878 2.08691 1.47925 0
M  V30 6434 H 584.522 3.97907 3.15646 0
M  V30 6435 H 584.452 2.78014 4.47231 0
M  V30 6436 H 586.943 2.32643 2.97801 0
M  V30 6437 H 587.256 5.23468 5.68508 0
M  V30 6438 H 585.601 4.70257 5.11745 0
M  V30 6439 H 588.792 2.94765 3.63636 0
M  V30 6440 H 588.965 4.27366 4.87095 0
M  V30 6441 N 582.371 -1.3172 0.865308 0
M  V30 6442 C 583.319 -2.30569 0.306674 0
M  V30 6443 C 584.313 -1.59317 -0.575724 0
M  V30 6444 O 585.519 -1.73961 -0.462343 0
M  V30 6445 H 581.894 -0.747681 0.0804834 0
M  V30 6446 H 583.865 -2.75165 1.15441 0
M  V30 6447 C 582.614 -3.44358 -0.480952 0
M  V30 6448 H 581.937 -3.99354 0.18876 0
M  V30 6449 H 583.377 -4.15652 -0.837241 0
M  V30 6450 C 581.836 -2.92574 -1.67039 0
M  V30 6451 O 582.366 -2.90954 -2.76964 0
M  V30 6452 N 580.572 -2.48835 -1.50097 0
M  V30 6453 H 580.119 -2.50353 -0.606738 0
M  V30 6454 H 580.077 -2.14543 -2.29823 0
M  V30 6455 N 583.85 -0.624285 -1.44708 0
M  V30 6456 C 585.096 -0.126051 -2.02107 0
M  V30 6457 C 585.425 1.2496 -1.49048 0
M  V30 6458 O 584.68 1.84163 -0.662005 0
M  V30 6459 C 584.979 -0.0546353 -3.57358 0
M  V30 6460 C 584.644 -1.36815 -4.29642 0
M  V30 6461 C 583.307 -1.72792 -4.49106 0
M  V30 6462 C 585.659 -2.23549 -4.70824 0
M  V30 6463 C 582.986 -2.95222 -5.07012 0
M  V30 6464 C 585.339 -3.45243 -5.30085 0
M  V30 6465 C 584.003 -3.81452 -5.47769 0
M  V30 6466 H 583.273 -0.0461252 -0.739563 0
M  V30 6467 H 585.92 -0.809236 -1.73562 0
M  V30 6468 H 584.225 0.711891 -3.85278 0
M  V30 6469 H 585.922 0.347282 -3.99493 0
M  V30 6470 H 582.512 -1.07817 -4.14817 0
M  V30 6471 H 586.696 -1.9705 -4.55505 0
M  V30 6472 H 581.952 -3.23361 -5.18891 0
M  V30 6473 H 586.125 -4.12689 -5.60946 0
M  V30 6474 H 583.753 -4.76403 -5.92405 0
M  V30 6475 N 585.328 1.53329 -0.364422 0
M  V30 6476 C 586.238 2.29414 0.490552 0
M  V30 6477 C 587.254 1.35335 1.09363 0
M  V30 6478 O 588.43 1.68391 1.10483 0
M  V30 6479 C 585.495 3.06772 1.61529 0
M  V30 6480 C 584.556 4.16516 1.03986 0
M  V30 6481 C 583.789 4.90176 2.111 0
M  V30 6482 O 584.012 4.63687 3.32191 0
M  V30 6483 O 582.946 5.76134 1.74222 0
M  V30 6484 H 586.772 3.03428 -0.12856 0
M  V30 6485 H 584.357 1.48843 -0.128837 0
M  V30 6486 H 586.239 3.55082 2.26924 0
M  V30 6487 H 584.914 2.35596 2.21983 0
M  V30 6488 H 583.821 3.7246 0.349856 0
M  V30 6489 H 585.154 4.89855 0.4799 0
M  V30 6490 N 586.806 0.0935595 1.57322 0
M  V30 6491 C 587.754 -0.883457 2.15169 0
M  V30 6492 C 588.748 -1.29324 1.09415 0
M  V30 6493 O 589.954 -1.26795 1.27762 0
M  V30 6494 H 586.329 -0.302923 0.688289 0
M  V30 6495 H 588.3 -0.370845 2.96087 0
M  V30 6496 C 587.049 -2.13345 2.74552 0
M  V30 6497 H 586.372 -1.82702 3.55612 0
M  V30 6498 H 587.812 -2.7977 3.18598 0
M  V30 6499 C 586.271 -2.90646 1.70371 0
M  V30 6500 O 586.801 -3.85133 1.14173 0
M  V30 6501 N 585.007 -2.54157 1.40899 0
M  V30 6502 H 584.554 -1.77391 1.86789 0
M  V30 6503 H 584.512 -3.06178 0.714301 0
M  V30 6504 N 588.284 -1.56567 -0.180126 0
M  V30 6505 C 589.532 -1.81133 -0.896392 0
M  V30 6506 C 589.853 -0.669114 -1.83161 0
M  V30 6507 O 589.123 0.311616 -1.93406 0
M  V30 6508 H 587.703 -0.668172 -0.333999 0
M  V30 6509 H 590.365 -1.94048 -0.182051 0
M  V30 6510 H 589.461 -2.74854 -1.47857 0
M  V30 6511 N 589.762 0.448376 -1.51087 0
M  V30 6512 C 590.71 1.56407 -1.72161 0
M  V30 6513 C 591.704 1.58878 -0.587721 0
M  V30 6514 O 592.91 1.62755 -0.768822 0
M  V30 6515 H 589.285 0.519423 -0.543786 0
M  V30 6516 H 591.256 1.35803 -2.65707 0
M  V30 6517 C 590.005 2.94163 -1.85373 0
M  V30 6518 H 589.328 2.9299 -2.72024 0
M  V30 6519 H 590.768 3.71625 -2.04135 0
M  V30 6520 C 589.227 3.31317 -0.610803 0
M  V30 6521 O 589.757 4.00985 0.239636 0
M  V30 6522 N 587.963 2.86966 -0.458127 0
M  V30 6523 H 587.51 2.30443 -1.15124 0
M  V30 6524 H 587.468 3.12188 0.372289 0
M  V30 6525 N 591.24 1.41047 0.703093 0
M  V30 6526 C 592.47 1.43133 1.48985 0
M  V30 6527 C 592.878 0.0328537 1.89171 0
M  V30 6528 O 592.221 -0.956469 1.56835 0
M  V30 6529 C 592.283 2.26991 2.78775 0
M  V30 6530 C 591.947 3.7525 2.60837 0
M  V30 6531 C 592.944 4.67591 2.27276 0
M  V30 6532 C 590.629 4.19208 2.76712 0
M  V30 6533 C 592.623 6.01877 2.09817 0
M  V30 6534 C 590.31 5.53561 2.5887 0
M  V30 6535 C 591.308 6.4471 2.25472 0
M  V30 6536 O 590.996 7.76584 2.07778 0
M  V30 6537 H 590.728 0.489788 0.465922 0
M  V30 6538 H 593.282 1.85886 0.873822 0
M  V30 6539 H 591.512 1.79038 3.42757 0
M  V30 6540 H 593.201 2.20867 3.40547 0
M  V30 6541 H 593.967 4.34923 2.14633 0
M  V30 6542 H 589.846 3.48572 3.01693 0
M  V30 6543 H 593.39 6.72986 1.83671 0
M  V30 6544 H 589.287 5.85811 2.71102 0
M  V30 6545 H 590.055 7.87649 2.22601 0
M  V30 6546 N 592.718 -0.936591 1.26751 0
M  V30 6547 C 593.943 -1.72288 1.15462 0
M  V30 6548 C 594.368 -1.85915 -0.285887 0
M  V30 6549 O 593.726 -1.35272 -1.20711 0
M  V30 6550 C 593.774 -3.10503 1.83359 0
M  V30 6551 O 592.878 -3.96745 1.1255 0
M  V30 6552 H 592.219 -0.52843 0.402067 0
M  V30 6553 H 594.749 -1.17271 1.67656 0
M  V30 6554 H 594.759 -3.60867 1.90365 0
M  V30 6555 H 593.434 -2.99901 2.88153 0
M  V30 6556 H 592.011 -3.55191 1.13551 0
M  V30 6557 N 594.196 -1.08629 -1.14182 0
M  V30 6558 C 595.143 -0.718299 -2.19338 0
M  V30 6559 C 596.113 0.296587 -1.63431 0
M  V30 6560 O 597.298 0.180079 -1.89948 0
M  V30 6561 C 594.438 -0.136203 -3.44831 0
M  V30 6562 C 593.551 -1.20414 -4.14879 0
M  V30 6563 C 592.686 -0.585666 -5.27962 0
M  V30 6564 C 591.725 -1.63548 -5.89846 0
M  V30 6565 N 590.862 -1.03864 -6.94375 0
M  V30 6566 H 595.702 -1.61932 -2.50164 0
M  V30 6567 H 593.239 -0.80919 -1.22844 0
M  V30 6568 H 595.197 0.219021 -4.16625 0
M  V30 6569 H 593.827 0.728121 -3.14481 0
M  V30 6570 H 592.879 -1.67676 -3.41451 0
M  V30 6571 H 594.191 -1.99959 -4.56966 0
M  V30 6572 H 593.345 -0.178818 -6.06436 0
M  V30 6573 H 592.084 0.24142 -4.87102 0
M  V30 6574 H 591.089 -2.05197 -5.10073 0
M  V30 6575 H 592.314 -2.46509 -6.3278 0
M  V30 6576 H 590.26 -0.232687 -6.55587 0
M  V30 6577 H 590.177 -1.77116 -7.3496 0
M  V30 6578 H 591.445 -0.657724 -7.7672 0
M  V30 6579 N 595.674 1.31259 -0.872281 0
M  V30 6580 C 596.622 2.30404 -0.318897 0
M  V30 6581 C 597.616 1.5962 0.567267 0
M  V30 6582 O 598.822 1.74204 0.453111 0
M  V30 6583 H 595.197 0.747243 -0.0844474 0
M  V30 6584 H 597.168 2.74549 -1.16899 0
M  V30 6585 C 595.917 3.44608 0.462683 0
M  V30 6586 H 595.24 3.99248 -0.209936 0
M  V30 6587 H 596.68 4.1609 0.815187 0
M  V30 6588 C 595.139 2.93456 1.65485 0
M  V30 6589 O 595.669 2.92418 2.75417 0
M  V30 6590 N 593.875 2.49628 1.48776 0
M  V30 6591 H 593.422 2.50671 0.593452 0
M  V30 6592 H 593.38 2.15759 2.28682 0
M  V30 6593 N 597.152 0.631951 1.44375 0
M  V30 6594 C 598.377 0.142146 2.06912 0
M  V30 6595 C 598.802 -1.17456 1.4692 0
M  V30 6596 O 598.16 -1.72074 0.570975 0
M  V30 6597 C 598.208 0.0417952 3.60576 0
M  V30 6598 O 597.312 -1.00194 4.00044 0
M  V30 6599 H 596.653 0.0851491 0.658518 0
M  V30 6600 H 599.183 0.868863 1.85235 0
M  V30 6601 H 599.193 -0.148517 4.0773 0
M  V30 6602 H 597.868 1.0031 4.03622 0
M  V30 6603 H 596.445 -0.786131 3.64519 0
M  V30 6604 N 598.631 -1.53133 0.372548 0
M  V30 6605 C 599.541 -2.29671 -0.478379 0
M  V30 6606 C 600.557 -1.35913 -1.08644 0
M  V30 6607 O 601.733 -1.68975 -1.09588 0
M  V30 6608 C 598.798 -3.07625 -1.599 0
M  V30 6609 C 597.859 -4.17061 -1.01776 0
M  V30 6610 C 597.092 -4.91289 -2.08497 0
M  V30 6611 O 597.315 -4.65442 -3.29727 0
M  V30 6612 O 596.249 -5.7705 -1.71164 0
M  V30 6613 H 600.075 -3.03355 0.144649 0
M  V30 6614 H 597.66 -1.48773 0.136729 0
M  V30 6615 H 599.542 -3.56281 -2.25038 0
M  V30 6616 H 598.217 -2.3677 -2.2073 0
M  V30 6617 H 597.124 -3.72641 -0.330098 0
M  V30 6618 H 598.457 -4.90102 -0.453915 0
M  V30 6619 N 600.109 -0.101901 -1.5727 0
M  V30 6620 C 601.041 0.884723 -2.11436 0
M  V30 6621 C 602.054 1.24149 -1.05314 0
M  V30 6622 O 603.243 1.19341 -1.3274 0
M  V30 6623 C 600.343 2.19179 -2.58484 0
M  V30 6624 C 599.516 2.00933 -3.88516 0
M  V30 6625 C 598.575 3.15213 -4.2134 0
M  V30 6626 O 597.601 2.88877 -4.90448 0
M  V30 6627 N 598.803 4.41174 -3.77288 0
M  V30 6628 H 601.568 0.422058 -2.96713 0
M  V30 6629 H 599.129 0.0830128 -1.61687 0
M  V30 6630 H 601.121 2.94593 -2.77484 0
M  V30 6631 H 599.691 2.56847 -1.7818 0
M  V30 6632 H 598.911 1.09809 -3.78597 0
M  V30 6633 H 600.199 1.86026 -4.73573 0
M  V30 6634 H 599.597 4.6545 -3.21516 0
M  V30 6635 H 598.154 5.13515 -4.01429 0
M  V30 6636 N 601.587 1.56661 0.17182 0
M  V30 6637 C 602.535 1.97289 1.23207 0
M  V30 6638 C 603.529 0.861566 1.45854 0
M  V30 6639 O 604.735 1.04668 1.4644 0
M  V30 6640 H 601.11 0.627681 0.41415 0
M  V30 6641 H 603.081 2.85662 0.862542 0
M  V30 6642 C 601.83 2.34849 2.564 0
M  V30 6643 H 601.153 3.19903 2.39797 0
M  V30 6644 H 602.593 2.67121 3.29276 0
M  V30 6645 C 601.052 1.19172 3.15119 0
M  V30 6646 O 601.582 0.479113 3.98833 0
M  V30 6647 N 599.788 0.962415 2.74201 0
M  V30 6648 H 599.335 1.54365 2.06226 0
M  V30 6649 H 599.293 0.190272 3.13824 0
M  V30 6650 N 603.065 -0.440357 1.51323 0
M  V30 6651 C 604.015 -1.53263 1.68803 0
M  V30 6652 C 604.999 -1.51494 0.542057 0
M  V30 6653 O 606.191 -1.57999 0.797839 0
M  V30 6654 C 603.32 -2.91479 1.8137 0
M  V30 6655 C 602.406 -2.98015 3.01742 0
M  V30 6656 N 602.797 -2.743 4.24962 0
M  V30 6657 C 601.095 -3.29173 3.00934 0
M  V30 6658 C 601.796 -2.86601 5.06197 0
M  V30 6659 N 600.772 -3.1814 4.40781 0
M  V30 6660 H 604.574 -1.33675 2.61741 0
M  V30 6661 H 602.088 -0.647616 1.48929 0
M  V30 6662 H 604.085 -3.70055 1.92002 0
M  V30 6663 H 602.745 -3.12089 0.896117 0
M  V30 6664 H 603.756 -2.49287 4.53957 0
M  V30 6665 H 600.433 -3.55577 2.18796 0
M  V30 6666 H 601.823 -2.72246 6.14274 0
M  V30 6667 N 604.543 -1.41418 -0.695603 0
M  V30 6668 C 605.506 -1.42988 -1.79129 0
M  V30 6669 C 606.506 -0.320514 -1.57573 0
M  V30 6670 O 607.696 -0.58039 -1.64247 0
M  V30 6671 C 604.828 -1.24122 -3.175 0
M  V30 6672 H 606.021 -2.40526 -1.7913 0
M  V30 6673 H 603.574 -1.2756 -0.903225 0
M  V30 6674 H 604.309 -0.274253 -3.23138 0
M  V30 6675 H 604.094 -2.045 -3.34547 0
M  V30 6676 H 605.584 -1.28056 -3.97481 0
M  V30 6677 N 606.021 0.929856 -1.27246 0
M  V30 6678 C 607.267 1.6802 -1.14634 0
M  V30 6679 C 607.622 1.89965 0.305151 0
M  V30 6680 O 606.915 1.47737 1.22001 0
M  V30 6681 C 607.109 3.05116 -1.86115 0
M  V30 6682 C 606.938 2.96549 -3.38066 0
M  V30 6683 C 605.708 2.98947 -4.0738 0
M  V30 6684 C 607.906 2.7583 -4.34077 0
M  V30 6685 N 605.888 2.80799 -5.45917 0
M  V30 6686 C 607.259 2.66364 -5.59866 0
M  V30 6687 C 609.314 2.60701 -4.24193 0
M  V30 6688 C 608.017 2.43313 -6.76898 0
M  V30 6689 C 610.043 2.39026 -5.40944 0
M  V30 6690 C 609.405 2.30302 -6.65688 0
M  V30 6691 H 605.504 0.62172 -0.474329 0
M  V30 6692 H 608.088 1.09947 -1.60685 0
M  V30 6693 H 606.259 3.61306 -1.42522 0
M  V30 6694 H 607.991 3.69076 -1.66027 0
M  V30 6695 H 604.746 3.09093 -3.58829 0
M  V30 6696 H 605.17 2.74861 -6.18692 0
M  V30 6697 H 609.812 2.66206 -3.28473 0
M  V30 6698 H 607.53 2.36548 -7.72704 0
M  V30 6699 H 611.116 2.28208 -5.35175 0
M  V30 6700 H 609.996 2.13756 -7.54505 0
M  V30 6701 N 607.499 1.09233 1.13605 0
M  V30 6702 C 608.449 0.6994 2.17008 0
M  V30 6703 C 609.433 -0.285238 1.58352 0
M  V30 6704 O 610.625 -0.09592 1.7674 0
M  V30 6705 C 607.754 0.11938 3.43092 0
M  V30 6706 C 606.84 1.13031 4.0876 0
M  V30 6707 N 607.231 2.31673 4.49623 0
M  V30 6708 C 605.529 0.967999 4.35369 0
M  V30 6709 C 606.23 2.95964 5.00779 0
M  V30 6710 N 605.206 2.23534 4.95513 0
M  V30 6711 H 609.008 1.60272 2.46354 0
M  V30 6712 H 606.522 0.968257 1.30378 0
M  V30 6713 H 608.519 -0.180122 4.16511 0
M  V30 6714 H 607.179 -0.778816 3.15221 0
M  V30 6715 H 608.19 2.69277 4.42391 0
M  V30 6716 H 604.867 0.124319 4.17315 0
M  V30 6717 H 606.257 3.96813 5.42208 0
M  V30 6718 N 608.977 -1.30795 0.87923 0
M  V30 6719 C 610.388 -1.78535 0.546093 0
M  V30 6720 C 610.739 -1.72354 -0.937467 0
M  V30 6721 O 609.864 -1.2969 -1.73233 0
M  V30 6722 C 610.459 -3.24181 0.9845 0
M  V30 6723 C 609.018 -3.69779 0.702871 0
M  V30 6724 C 608.165 -2.51377 1.17068 0
M  V30 6725 H 611.116 -1.17746 1.06403 0
M  V30 6726 H 611.137 -3.79227 0.311045 0
M  V30 6727 H 610.649 -3.28647 2.06429 0
M  V30 6728 H 608.75 -3.70806 -0.365166 0
M  V30 6729 H 608.863 -4.61507 1.28639 0
M  V30 6730 H 607.227 -2.47768 0.590172 0
M  V30 6731 H 608.01 -2.58584 2.25808 0
M  V30 6732 N 610.455 -0.639598 -1.44038 0
M  V30 6733 C 611.68 -0.153117 -2.06834 0
M  V30 6734 C 612.105 1.16676 -1.47541 0
M  V30 6735 O 611.463 1.71769 -0.580093 0
M  V30 6736 C 611.511 -0.0609169 -3.60549 0
M  V30 6737 O 610.615 0.98071 -4.00569 0
M  V30 6738 H 609.956 -0.0886402 -0.658057 0
M  V30 6739 H 612.486 -0.878674 -1.84771 0
M  V30 6740 H 612.496 0.126892 -4.07803 0
M  V30 6741 H 611.171 -1.0245 -4.03084 0
M  V30 6742 H 609.748 0.766789 -3.64931 0
M  V30 6743 N 611.933 1.52934 -0.380664 0
M  V30 6744 C 612.881 2.27727 0.47361 0
M  V30 6745 C 613.875 1.31288 1.0705 0
M  V30 6746 O 615.081 1.4886 1.01197 0
M  V30 6747 H 611.456 0.732189 0.171475 0
M  V30 6748 H 613.427 2.97864 -0.178785 0
M  V30 6749 C 612.176 3.0904 1.59341 0
M  V30 6750 H 611.499 3.831 1.14343 0
M  V30 6751 H 612.939 3.64527 2.16555 0
M  V30 6752 C 611.398 2.20813 2.54447 0
M  V30 6753 O 611.928 1.82907 3.57642 0
M  V30 6754 N 610.134 1.85145 2.23986 0
M  V30 6755 H 609.681 2.16169 1.40103 0
M  V30 6756 H 609.639 1.26402 2.87871 0
M  V30 6757 N 613.412 0.11024 1.57214 0
M  V30 6758 C 614.642 -0.557025 1.98949 0
M  V30 6759 C 615.05 -1.61317 0.988606 0
M  V30 6760 O 614.393 -1.83679 -0.0279159 0
M  V30 6761 C 614.455 -1.24956 3.37085 0
M  V30 6762 C 614.119 -0.342398 4.55716 0
M  V30 6763 C 615.116 0.415511 5.18237 0
M  V30 6764 C 612.801 -0.256029 5.01647 0
M  V30 6765 C 614.795 1.24761 6.25071 0
M  V30 6766 C 612.482 0.579713 6.08344 0
M  V30 6767 C 613.48 1.33017 6.69922 0
M  V30 6768 O 613.168 2.15205 7.74559 0
M  V30 6769 H 612.9 -0.152792 0.658506 0
M  V30 6770 H 615.454 0.19076 2.04512 0
M  V30 6771 H 613.684 -2.04424 3.2825 0
M  V30 6772 H 615.373 -1.81286 3.63167 0
M  V30 6773 H 616.139 0.358605 4.83672 0
M  V30 6774 H 612.018 -0.829831 4.5347 0
M  V30 6775 H 615.562 1.83386 6.73064 0
M  V30 6776 H 611.459 0.638044 6.42339 0
M  V30 6777 H 612.227 2.08052 7.91617 0
M  V30 6778 N 614.89 -1.56749 -0.16351 0
M  V30 6779 C 616.115 -1.86938 -0.898264 0
M  V30 6780 C 616.54 -0.697456 -1.74692 0
M  V30 6781 O 615.898 0.353327 -1.77824 0
M  V30 6782 C 615.946 -3.15599 -1.74441 0
M  V30 6783 O 615.05 -2.98371 -2.8469 0
M  V30 6784 H 614.391 -0.614659 -0.251178 0
M  V30 6785 H 616.921 -2.03979 -0.159298 0
M  V30 6786 H 616.931 -3.47202 -2.14277 0
M  V30 6787 H 615.606 -4.00505 -1.1211 0
M  V30 6788 H 614.183 -2.7814 -2.4838 0
M  V30 6789 N 616.368 0.432326 -1.51554 0
M  V30 6790 C 617.784 0.769195 -1.39841 0
M  V30 6791 C 617.984 1.95584 -0.484675 0
M  V30 6792 O 617.04 2.52433 0.0582829 0
M  V30 6793 C 618.353 1.04487 -2.81963 0
M  V30 6794 C 619.901 1.149 -2.91148 0
M  V30 6795 C 620.376 1.45758 -4.34187 0
M  V30 6796 N 621.867 1.52671 -4.37317 0
M  V30 6797 C 622.602 1.78129 -5.4503 0
M  V30 6798 N 622.098 2.01345 -6.62897 0
M  V30 6799 N 623.891 1.79953 -5.32516 0
M  V30 6800 H 616.042 -0.349122 -2.09511 0
M  V30 6801 H 618.305 -0.0938113 -0.943347 0
M  V30 6802 H 618.011 0.24557 -3.50842 0
M  V30 6803 H 617.885 1.97119 -3.21596 0
M  V30 6804 H 620.272 1.93891 -2.22464 0
M  V30 6805 H 620.353 0.201568 -2.55005 0
M  V30 6806 H 619.997 0.672917 -5.03423 0
M  V30 6807 H 619.927 2.41715 -4.67848 0
M  V30 6808 H 622.418 1.36612 -3.52343 0
M  V30 6809 H 622.731 2.20155 -7.40778 0
M  V30 6810 H 621.076 1.98657 -6.66003 0
M  V30 6811 H 624.267 1.61337 -4.39418 0
M  V30 6812 H 624.44 1.99455 -6.1654 0
M  V30 6813 N 617.846 1.41785 0.688094 0
M  V30 6814 C 618.793 1.44221 1.80191 0
M  V30 6815 C 619.763 0.295688 1.63447 0
M  V30 6816 O 620.948 0.49783 1.84191 0
M  V30 6817 C 618.088 1.33743 3.1813 0
M  V30 6818 C 617.201 2.58325 3.46254 0
M  V30 6819 C 616.336 2.40086 4.73848 0
M  V30 6820 C 615.375 3.60107 4.94964 0
M  V30 6821 N 614.512 3.40892 6.13789 0
M  V30 6822 H 619.352 2.39411 1.77444 0
M  V30 6823 H 616.889 1.18876 0.866423 0
M  V30 6824 H 618.847 1.25669 3.97823 0
M  V30 6825 H 617.477 0.42157 3.20035 0
M  V30 6826 H 616.529 2.7682 2.60912 0
M  V30 6827 H 617.841 3.4758 3.57756 0
M  V30 6828 H 616.995 2.29522 5.61609 0
M  V30 6829 H 615.734 1.483 4.64606 0
M  V30 6830 H 614.739 3.71118 4.05649 0
M  V30 6831 H 615.964 4.52857 5.06061 0
M  V30 6832 H 613.91 2.51812 6.05745 0
M  V30 6833 H 613.827 4.23727 6.26092 0
M  V30 6834 H 615.095 3.34114 7.04264 0
M  V30 6835 N 619.324 -0.923095 1.27737 0
M  V30 6836 C 620.571 -1.67127 1.14345 0
M  V30 6837 C 620.899 -1.92017 -0.30982 0
M  V30 6838 O 620.154 -1.51185 -1.24264 0
M  V30 6839 C 620.453 -3.04125 1.8773 0
M  V30 6840 C 620.119 -2.98929 3.37568 0
M  V30 6841 C 618.781 -2.9722 3.78436 0
M  V30 6842 C 621.133 -2.89875 4.33154 0
M  V30 6843 C 618.461 -2.84244 5.13247 0
M  V30 6844 C 620.813 -2.7844 5.68026 0
M  V30 6845 C 619.477 -2.75083 6.08182 0
M  V30 6846 H 618.747 -0.611562 0.418417 0
M  V30 6847 H 621.394 -1.07618 1.584 0
M  V30 6848 H 619.699 -3.67366 1.36196 0
M  V30 6849 H 621.396 -3.609 1.74792 0
M  V30 6850 H 617.986 -3.0105 3.05069 0
M  V30 6851 H 622.17 -2.9029 4.02548 0
M  V30 6852 H 617.426 -2.80034 5.43499 0
M  V30 6853 H 621.6 -2.70401 6.4176 0
M  V30 6854 H 619.227 -2.64786 7.12596 0
M  V30 6855 N 620.802 -1.09834 -1.13024 0
M  V30 6856 C 621.732 -0.763451 -2.20666 0
M  V30 6857 C 622.713 0.260778 -1.68089 0
M  V30 6858 O 623.898 0.127915 -1.93778 0
M  V30 6859 C 621.028 -0.187744 -3.46792 0
M  V30 6860 C 619.982 -1.14196 -4.12484 0
M  V30 6861 C 619.308 -0.427755 -5.32986 0
M  V30 6862 C 620.608 -2.48607 -4.59338 0
M  V30 6863 H 622.302 -1.66347 -2.48936 0
M  V30 6864 H 619.848 -0.801261 -1.19649 0
M  V30 6865 H 621.801 0.0586375 -4.21359 0
M  V30 6866 H 620.525 0.747485 -3.17931 0
M  V30 6867 H 619.184 -1.37369 -3.3989 0
M  V30 6868 H 618.832 0.511747 -5.0039 0
M  V30 6869 H 618.532 -1.06403 -5.77886 0
M  V30 6870 H 620.056 -0.189772 -6.10305 0
M  V30 6871 H 621.47 -2.29618 -5.25308 0
M  V30 6872 H 619.867 -3.08062 -5.14993 0
M  V30 6873 H 620.937 -3.09062 -3.73642 0
M  V30 6874 N 622.28 1.30327 -0.886154 0
M  V30 6875 C 623.528 1.9571 -0.504195 0
M  V30 6876 C 623.849 1.70294 0.950003 0
M  V30 6877 O 623.119 1.02718 1.66811 0
M  V30 6878 H 621.699 0.72412 -0.183465 0
M  V30 6879 H 624.361 1.58835 -1.12949 0
M  V30 6880 H 623.457 3.04704 -0.675431 0
M  V30 6881 N 623.758 0.647228 1.43697 0
M  V30 6882 C 624.688 -0.0345631 2.33474 0
M  V30 6883 C 625.669 -0.818193 1.4913 0
M  V30 6884 O 626.854 -0.780867 1.77809 0
M  V30 6885 C 623.984 -1.00576 3.32418 0
M  V30 6886 C 622.938 -0.33266 4.26705 0
M  V30 6887 C 622.264 -1.41489 5.1564 0
M  V30 6888 C 623.564 0.771204 5.16575 0
M  V30 6889 H 625.258 0.715163 2.90733 0
M  V30 6890 H 622.804 0.345364 1.39797 0
M  V30 6891 H 624.757 -1.49159 3.94119 0
M  V30 6892 H 623.481 -1.78657 2.73403 0
M  V30 6893 H 622.14 0.13267 3.6636 0
M  V30 6894 H 621.788 -2.18698 4.52968 0
M  V30 6895 H 621.488 -0.969799 5.79542 0
M  V30 6896 H 623.012 -1.9022 5.80214 0
M  V30 6897 H 624.426 0.36779 5.72119 0
M  V30 6898 H 622.823 1.1404 5.89165 0
M  V30 6899 H 623.893 1.63169 4.56622 0
M  V30 6900 N 625.236 -1.5273 0.388769 0
M  V30 6901 C 626.482 -2.01871 -0.193877 0
M  V30 6902 C 626.815 -1.27475 -1.46505 0
M  V30 6903 O 626.09 -0.375063 -1.90849 0
M  V30 6904 C 626.373 -3.5712 -0.462336 0
M  V30 6905 C 626.226 -4.42186 0.824091 0
M  V30 6906 C 627.545 -4.21881 -1.25319 0
M  V30 6907 H 624.664 -0.733764 -0.0689899 0
M  V30 6908 H 627.306 -1.82796 0.518231 0
M  V30 6909 H 625.456 -3.73504 -1.06896 0
M  V30 6910 H 627.128 -4.37554 1.46096 0
M  V30 6911 H 625.371 -4.09219 1.43952 0
M  V30 6912 H 626.042 -5.48828 0.590905 0
M  V30 6913 H 628.518 -4.0947 -0.73981 0
M  V30 6914 H 627.394 -5.30487 -1.40977 0
M  V30 6915 H 627.655 -3.79478 -2.26824 0
M  V30 6916 N 626.714 -0.118576 -1.57153 0
M  V30 6917 C 627.942 0.54726 -1.99531 0
M  V30 6918 C 628.357 1.60251 -0.998246 0
M  V30 6919 O 627.714 1.82498 0.00893106 0
M  V30 6920 C 627.765 1.17378 -3.41913 0
M  V30 6921 O 627.486 0.160703 -4.37805 0
M  V30 6922 C 628.987 1.92297 -3.9942 0
M  V30 6923 H 626.207 0.144919 -0.655164 0
M  V30 6924 H 628.751 -0.20479 -2.03472 0
M  V30 6925 H 626.906 1.87661 -3.38913 0
M  V30 6926 H 627.32 0.61586 -5.20872 0
M  V30 6927 H 628.794 2.31462 -5.01128 0
M  V30 6928 H 629.271 2.79801 -3.38538 0
M  V30 6929 H 629.877 1.26777 -4.05965 0
M  V30 6930 N 628.193 1.56834 0.155195 0
M  V30 6931 C 629.123 2.00678 1.19376 0
M  V30 6932 C 630.104 0.884973 1.45266 0
M  V30 6933 O 631.289 1.1522 1.56326 0
M  V30 6934 C 628.419 2.38042 2.5289 0
M  V30 6935 C 627.373 3.53332 2.41538 0
M  V30 6936 C 626.699 3.76485 3.79688 0
M  V30 6937 C 627.999 4.86265 1.9064 0
M  V30 6938 H 629.693 2.87688 0.829232 0
M  V30 6939 H 627.239 1.38407 0.397445 0
M  V30 6940 H 629.192 2.67314 3.25763 0
M  V30 6941 H 627.916 1.4796 2.91162 0
M  V30 6942 H 626.575 3.24213 1.71117 0
M  V30 6943 H 626.223 2.83667 4.15382 0
M  V30 6944 H 625.923 4.54068 3.72956 0
M  V30 6945 H 627.447 4.08174 4.54122 0
M  V30 6946 H 628.861 5.14308 2.53299 0
M  V30 6947 H 627.258 5.67597 1.94818 0
M  V30 6948 H 628.328 4.77184 0.861596 0
M  V30 6949 N 629.671 -0.424282 1.51781 0
M  V30 6950 C 630.603 -1.53457 1.70246 0
M  V30 6951 C 631.616 -1.52004 0.582967 0
M  V30 6952 O 632.805 -1.56544 0.857683 0
M  V30 6953 C 629.905 -2.92368 1.71389 0
M  V30 6954 C 629.078 -3.1818 3.00133 0
M  V30 6955 C 628.137 -4.36884 2.9329 0
M  V30 6956 O 627.163 -4.34901 3.67219 0
M  V30 6957 N 628.365 -5.4117 2.10036 0
M  V30 6958 H 631.13 -1.38017 2.66029 0
M  V30 6959 H 628.691 -0.613394 1.4983 0
M  V30 6960 H 630.683 -3.6982 1.64362 0
M  V30 6961 H 629.253 -3.0134 0.831449 0
M  V30 6962 H 628.473 -2.28908 3.20928 0
M  V30 6963 H 629.761 -3.32261 3.85331 0
M  V30 6964 H 629.159 -5.45623 1.49373 0
M  V30 6965 H 627.716 -6.17425 2.08878 0
M  V30 6966 N 631.149 -1.42148 -0.680565 0
M  V30 6967 C 632.059 -1.47565 -1.82378 0
M  V30 6968 C 633.075 -0.36489 -1.70131 0
M  V30 6969 O 634.251 -0.614916 -1.91783 0
M  V30 6970 C 631.316 -1.37013 -3.18478 0
M  V30 6971 C 630.377 -2.58532 -3.42724 0
M  V30 6972 C 629.61 -2.48473 -4.72331 0
M  V30 6973 O 629.833 -1.51745 -5.49845 0
M  V30 6974 O 628.767 -3.38503 -4.97694 0
M  V30 6975 H 632.593 -2.44045 -1.80764 0
M  V30 6976 H 630.178 -1.23849 -0.835569 0
M  V30 6977 H 632.06 -1.33468 -3.99705 0
M  V30 6978 H 630.735 -0.436552 -3.20743 0
M  V30 6979 H 629.642 -2.67652 -2.61368 0
M  V30 6980 H 630.975 -3.50769 -3.45286 0
M  V30 6981 N 632.627 0.916307 -1.28225 0
M  V30 6982 C 633.59 1.99996 -1.11957 0
M  V30 6983 C 634.59 1.60688 -0.0600152 0
M  V30 6984 O 635.78 1.71499 -0.30558 0
M  V30 6985 C 632.912 3.33458 -0.708411 0
M  V30 6986 H 634.105 2.15858 -2.08196 0
M  V30 6987 H 631.658 1.09863 -1.11175 0
M  V30 6988 H 632.393 3.23297 0.254859 0
M  V30 6989 H 632.178 3.63349 -1.47377 0
M  V30 6990 H 633.668 4.13014 -0.617164 0
M  V30 6991 N 634.105 1.10431 1.1244 0
M  V30 6992 C 635.035 0.775143 2.20258 0
M  V30 6993 C 636.016 -0.25186 1.68225 0
M  V30 6994 O 637.201 -0.117637 1.93843 0
M  V30 6995 C 634.331 0.206133 3.46688 0
M  V30 6996 C 633.285 1.16382 4.11873 0
M  V30 6997 C 632.611 0.456014 5.32752 0
M  V30 6998 C 633.911 2.5104 4.58013 0
M  V30 6999 H 635.605 1.67665 2.4805 0
M  V30 7000 H 633.151 0.807595 1.19222 0
M  V30 7001 H 635.104 -0.036291 4.21384 0
M  V30 7002 H 633.828 -0.730614 3.18323 0
M  V30 7003 H 632.487 1.39169 3.39157 0
M  V30 7004 H 632.135 -0.485203 5.00654 0
M  V30 7005 H 631.835 1.09466 5.77314 0
M  V30 7006 H 633.359 0.222135 6.10196 0
M  V30 7007 H 634.773 2.32401 5.24083 0
M  V30 7008 H 633.17 3.10789 5.13352 0
M  V30 7009 H 634.24 3.11039 3.71998 0
M  V30 7010 N 635.583 -1.29855 0.893053 0
M  V30 7011 C 636.808 -2.00512 0.530066 0
M  V30 7012 C 637.233 -1.66446 -0.876199 0
M  V30 7013 O 636.591 -0.885446 -1.58207 0
M  V30 7014 C 636.639 -3.53308 0.721505 0
M  V30 7015 O 635.743 -4.11764 -0.228994 0
M  V30 7016 H 635.084 -0.630617 0.207891 0
M  V30 7017 H 637.614 -1.6551 1.20282 0
M  V30 7018 H 637.624 -4.03206 0.623599 0
M  V30 7019 H 636.299 -3.77439 1.74678 0
M  V30 7020 H 634.876 -3.72805 -0.0841034 0
M  V30 7021 N 637.061 -0.65484 -1.43351 0
M  V30 7022 C 638.011 0.0581325 -2.27926 0
M  V30 7023 C 638.995 0.793188 -1.3999 0
M  V30 7024 O 640.187 0.675387 -1.63608 0
M  V30 7025 C 637.316 1.02272 -3.27712 0
M  V30 7026 C 636.402 0.286048 -4.23134 0
M  V30 7027 N 636.793 -0.698298 -5.00957 0
M  V30 7028 C 635.091 0.527272 -4.42872 0
M  V30 7029 C 635.792 -1.1357 -5.70506 0
M  V30 7030 N 634.768 -0.469631 -5.41568 0
M  V30 7031 H 638.57 -0.697182 -2.85511 0
M  V30 7032 H 636.084 -0.482252 -1.55074 0
M  V30 7033 H 638.081 1.5483 -3.87083 0
M  V30 7034 H 636.741 1.77807 -2.71688 0
M  V30 7035 H 637.752 -1.07708 -5.06576 0
M  V30 7036 H 634.429 1.26367 -3.97916 0
M  V30 7037 H 635.819 -1.95027 -6.42973 0
M  V30 7038 N 638.539 1.52521 -0.396863 0
M  V30 7039 C 639.764 2.06571 0.185258 0
M  V30 7040 C 640.189 1.26605 1.39115 0
M  V30 7041 O 639.547 0.293055 1.78916 0
M  V30 7042 C 639.595 3.5674 0.526189 0
M  V30 7043 O 638.699 3.7929 1.61903 0
M  V30 7044 H 638.04 0.663712 0.0195474 0
M  V30 7045 H 640.57 1.966 -0.566519 0
M  V30 7046 H 640.58 4.00311 0.788338 0
M  V30 7047 H 639.255 4.14379 -0.355397 0
M  V30 7048 H 637.832 3.47605 1.35 0
M  V30 7049 N 640.017 0.126909 1.57088 0
M  V30 7050 C 640.947 -0.816847 2.18746 0
M  V30 7051 C 641.928 -1.27161 1.12979 0
M  V30 7052 O 643.113 -1.33279 1.41246 0
M  V30 7053 C 640.243 -2.06398 2.79315 0
M  V30 7054 C 639.197 -1.74673 3.90735 0
M  V30 7055 C 638.523 -3.06482 4.38147 0
M  V30 7056 C 639.823 -1.0089 5.12463 0
M  V30 7057 H 641.517 -0.303032 2.97863 0
M  V30 7058 H 639.063 -0.144314 1.43275 0
M  V30 7059 H 641.016 -2.72885 3.2111 0
M  V30 7060 H 639.74 -2.60118 1.975 0
M  V30 7061 H 638.399 -1.10572 3.49527 0
M  V30 7062 H 638.047 -3.58152 3.5318 0
M  V30 7063 H 637.747 -2.86025 5.13287 0
M  V30 7064 H 639.271 -3.74073 4.82599 0
M  V30 7065 H 640.685 -1.57546 5.51228 0
M  V30 7066 H 639.082 -0.905006 5.93237 0
M  V30 7067 H 640.152 0.00297335 4.849 0
M  V30 7068 N 641.495 -1.56914 -0.146875 0
M  V30 7069 C 642.443 -1.99224 -1.20053 0
M  V30 7070 C 643.437 -0.884661 -1.44465 0
M  V30 7071 O 644.643 -1.06984 -1.44756 0
M  V30 7072 H 641.018 -0.634191 -0.404112 0
M  V30 7073 H 642.989 -2.86998 -0.816987 0
M  V30 7074 C 641.738 -2.38899 -2.52632 0
M  V30 7075 H 641.061 -3.23677 -2.34677 0
M  V30 7076 H 642.501 -2.72326 -3.24984 0
M  V30 7077 C 640.96 -1.2417 -3.13183 0
M  V30 7078 O 641.49 -0.542503 -3.9802 0
M  V30 7079 N 639.696 -1.00592 -2.72635 0
M  V30 7080 H 639.243 -1.57627 -2.03744 0
M  V30 7081 H 639.201 -0.240174 -3.13481 0
M  V30 7082 N 642.974 0.416227 -1.52004 0
M  V30 7083 C 643.904 1.51365 -1.77795 0
M  V30 7084 C 644.885 1.58059 -0.628601 0
M  V30 7085 O 646.07 1.73447 -0.873478 0
M  V30 7086 C 643.2 2.89256 -1.92219 0
M  V30 7087 C 642.154 2.97415 -3.0778 0
M  V30 7088 C 641.48 4.37492 -3.07417 0
M  V30 7089 C 642.78 2.69551 -4.47369 0
M  V30 7090 H 644.474 1.30033 -2.69688 0
M  V30 7091 H 642.02 0.624112 -1.29772 0
M  V30 7092 H 643.973 3.66008 -2.08845 0
M  V30 7093 H 642.697 3.11866 -0.969917 0
M  V30 7094 H 641.356 2.23107 -2.90893 0
M  V30 7095 H 641.004 4.571 -2.09925 0
M  V30 7096 H 640.704 4.43877 -3.85029 0
M  V30 7097 H 642.228 5.16188 -3.26162 0
M  V30 7098 H 643.642 3.36028 -4.64497 0
M  V30 7099 H 642.039 2.87321 -5.26846 0
M  V30 7100 H 643.109 1.65029 -4.55953 0
M  V30 7101 N 644.452 1.42507 0.673017 0
M  V30 7102 C 645.415 1.4582 1.76831 0
M  V30 7103 C 646.415 0.345542 1.57043 0
M  V30 7104 O 647.605 0.606447 1.63303 0
M  V30 7105 C 644.737 1.29158 3.15485 0
M  V30 7106 H 645.93 2.43345 1.7528 0
M  V30 7107 H 643.483 1.28981 0.882817 0
M  V30 7108 H 644.218 0.325626 3.22661 0
M  V30 7109 H 644.003 2.09797 3.31252 0
M  V30 7110 H 645.493 1.34363 3.95394 0
M  V30 7111 N 645.93 -0.909495 1.28709 0
M  V30 7112 C 647.158 -1.69272 1.18973 0
M  V30 7113 C 647.573 -1.87123 -0.251048 0
M  V30 7114 O 646.93 -1.40127 -1.16922 0
M  V30 7115 C 646.981 -3.08257 1.88839 0
M  V30 7116 O 646.702 -2.91228 3.27289 0
M  V30 7117 C 648.203 -4.02642 1.85457 0
M  V30 7118 H 645.423 -0.528999 0.412797 0
M  V30 7119 H 647.967 -1.13803 1.69909 0
M  V30 7120 H 646.122 -3.6053 1.41762 0
M  V30 7121 H 646.536 -3.79223 3.6234 0
M  V30 7122 H 648.01 -4.97613 2.38925 0
M  V30 7123 H 648.487 -4.31327 0.827893 0
M  V30 7124 H 649.093 -3.56298 2.32233 0
M  V30 7125 N 647.408 -1.11026 -1.11852 0
M  V30 7126 C 648.657 -0.851249 -1.82857 0
M  V30 7127 C 648.97 0.62514 -1.85341 0
M  V30 7128 O 650.176 1.00026 -2.52403 0
M  V30 7129 C 648.632 -1.47309 -3.28372 0
M  V30 7130 C 648.24 -2.9832 -3.34229 0
M  V30 7131 C 649.984 -1.29373 -4.04306 0
M  V30 7132 C 647.891 -3.53509 -4.74115 0
M  V30 7133 H 646.821 -0.314794 -0.685143 0
M  V30 7134 H 649.472 -1.33499 -1.25898 0
M  V30 7135 H 647.854 -0.917017 -3.85236 0
M  V30 7136 H 649.028 -3.60295 -2.87271 0
M  V30 7137 H 647.343 -3.15482 -2.71772 0
M  V30 7138 H 649.94 -1.68042 -5.07608 0
M  V30 7139 H 650.283 -0.235879 -4.15631 0
M  V30 7140 H 650.816 -1.8182 -3.53817 0
M  V30 7141 H 647.555 -4.58987 -4.67986 0
M  V30 7142 H 647.075 -2.96305 -5.21501 0
M  V30 7143 H 648.754 -3.51693 -5.43066 0
M  V30 7144 N 648.886 1.2938 -0.899927 0
M  V30 7145 C 649.834 2.29675 -0.367698 0
M  V30 7146 C 650.828 1.60787 0.533282 0
M  V30 7147 O 652.034 1.75126 0.416058 0
M  V30 7148 H 648.409 0.745284 -0.100279 0
M  V30 7149 H 650.38 2.72008 -1.22696 0
M  V30 7150 C 649.129 3.45512 0.389483 0
M  V30 7151 H 648.452 3.98713 -0.294575 0
M  V30 7152 H 649.892 4.17725 0.726744 0
M  V30 7153 C 648.351 2.969 1.59223 0
M  V30 7154 O 648.881 2.98195 2.69152 0
M  V30 7155 N 647.087 2.52728 1.43447 0
M  V30 7156 H 646.634 2.51873 0.540148 0
M  V30 7157 H 646.592 2.20561 2.24054 0
M  V30 7158 N 650.364 0.662433 1.43002 0
M  V30 7159 C 651.294 -0.00979809 2.33498 0
M  V30 7160 C 652.275 -0.802329 1.49989 0
M  V30 7161 O 653.46 -0.761964 1.78627 0
M  V30 7162 C 650.59 -0.970446 3.33466 0
M  V30 7163 C 649.544 -0.287383 4.27034 0
M  V30 7164 C 648.87 -1.36012 5.17112 0
M  V30 7165 C 650.17 0.82595 5.15728 0
M  V30 7166 H 651.864 0.745959 2.89958 0
M  V30 7167 H 649.41 0.360172 1.39423 0
M  V30 7168 H 651.363 -1.44971 3.95679 0
M  V30 7169 H 650.087 -1.75748 2.75282 0
M  V30 7170 H 648.746 0.17152 3.66199 0
M  V30 7171 H 648.394 -2.13882 4.55262 0
M  V30 7172 H 648.094 -0.908276 5.80538 0
M  V30 7173 H 649.618 -1.84056 5.82199 0
M  V30 7174 H 651.032 0.42845 5.71697 0
M  V30 7175 H 649.429 1.20282 5.87922 0
M  V30 7176 H 650.499 1.68003 4.54866 0
M  V30 7177 N 651.842 -1.52309 0.404946 0
M  V30 7178 C 653.067 -2.06666 -0.1743 0
M  V30 7179 C 653.492 -1.27341 -1.38441 0
M  V30 7180 O 652.85 -0.302539 -1.78758 0
M  V30 7181 C 652.898 -3.57014 -0.507262 0
M  V30 7182 O 652.002 -3.80144 -1.59889 0
M  V30 7183 H 651.343 -0.663807 -0.0160273 0
M  V30 7184 H 653.873 -1.96297 0.576937 0
M  V30 7185 H 653.883 -4.00724 -0.767098 0
M  V30 7186 H 652.558 -4.14184 0.377368 0
M  V30 7187 H 651.135 -3.48316 -1.33155 0
M  V30 7188 N 653.32 -0.135238 -1.57019 0
M  V30 7189 C 654.597 0.563227 -1.87316 0
M  V30 7190 C 654.977 1.83749 -1.03921 0
M  V30 7191 O 654.325 2.2817 -0.122675 0
M  V30 7192 C 654.535 0.840031 -3.3874 0
M  V30 7193 C 655.883 1.18598 -4.077 0
M  V30 7194 O 656.907 0.92977 -3.43851 0
M  V30 7195 O 655.766 1.66758 -5.20436 0
M  V30 7196 H 652.86 0.285971 -0.775983 0
M  V30 7197 H 655.406 -0.170965 -1.68837 0
M  V30 7198 H 654.178 -0.0622785 -3.9125 0
M  V30 7199 H 653.801 1.62882 -3.62706 0
M  V30 7200 N 654.798 1.5699 0.138552 0
M  V30 7201 C 655.73 1.95515 1.1961 0
M  V30 7202 C 656.743 0.852002 1.38726 0
M  V30 7203 O 657.932 1.13038 1.38147 0
M  V30 7204 C 655.032 2.2213 2.55952 0
M  V30 7205 C 654.205 3.53424 2.57702 0
M  V30 7206 C 653.264 3.6848 3.75645 0
M  V30 7207 O 652.29 4.4079 3.60129 0
M  V30 7208 N 653.492 3.05777 4.93438 0
M  V30 7209 H 656.257 2.86838 0.868557 0
M  V30 7210 H 653.818 1.58542 0.328033 0
M  V30 7211 H 655.81 2.29435 3.33379 0
M  V30 7212 H 654.38 1.3703 2.80965 0
M  V30 7213 H 653.6 3.57484 1.6613 0
M  V30 7214 H 654.888 4.39759 2.55909 0
M  V30 7215 H 654.286 2.46961 5.08947 0
M  V30 7216 H 652.843 3.18631 5.6861 0
M  V30 7217 N 656.276 -0.40816 1.52223 0
M  V30 7218 C 657.206 -1.5042 1.78595 0
M  V30 7219 C 658.187 -1.57723 0.636974 0
M  V30 7220 O 659.372 -1.72982 0.882664 0
M  V30 7221 C 656.502 -2.88232 1.93751 0
M  V30 7222 C 655.456 -2.95779 3.09352 0
M  V30 7223 C 654.782 -4.35855 3.09732 0
M  V30 7224 C 656.082 -2.67175 4.48793 0
M  V30 7225 H 657.776 -1.28601 2.70374 0
M  V30 7226 H 655.322 -0.617221 1.30101 0
M  V30 7227 H 657.275 -3.64895 2.10783 0
M  V30 7228 H 655.999 -3.11347 0.986443 0
M  V30 7229 H 654.658 -2.21561 2.92072 0
M  V30 7230 H 654.306 -4.55981 2.12346 0
M  V30 7231 H 654.006 -4.41829 3.87377 0
M  V30 7232 H 655.53 -5.14451 3.28895 0
M  V30 7233 H 656.944 -3.3356 4.66273 0
M  V30 7234 H 655.341 -2.84523 5.28362 0
M  V30 7235 H 656.411 -1.62609 4.56822 0
M  V30 7236 N 657.755 -1.42862 -0.66545 0
M  V30 7237 C 659.003 -1.43546 -1.42264 0
M  V30 7238 C 659.324 -0.0563116 -1.94919 0
M  V30 7239 O 658.594 0.906568 -1.73661 0
M  V30 7240 H 657.174 -0.528464 -0.527953 0
M  V30 7241 H 659.836 -1.78363 -0.785665 0
M  V30 7242 H 658.932 -2.14079 -2.27105 0
M  V30 7243 N 659.233 0.902656 -1.29189 0
M  V30 7244 C 660.48 1.65287 -1.16989 0
M  V30 7245 C 660.808 1.92485 0.279232 0
M  V30 7246 O 660.063 1.53143 1.21843 0
M  V30 7247 C 660.362 3.011 -1.92545 0
M  V30 7248 C 660.028 2.93521 -3.42281 0
M  V30 7249 C 658.69 2.91161 -3.83117 0
M  V30 7250 C 661.042 2.82947 -4.3771 0
M  V30 7251 C 658.37 2.76043 -5.17704 0
M  V30 7252 C 660.722 2.69368 -5.72384 0
M  V30 7253 C 659.386 2.65373 -6.12482 0
M  V30 7254 H 658.656 0.604828 -0.428094 0
M  V30 7255 H 661.303 1.05084 -1.60092 0
M  V30 7256 H 659.608 3.65153 -1.42024 0
M  V30 7257 H 661.305 3.58073 -1.80512 0
M  V30 7258 H 657.895 2.96158 -3.09819 0
M  V30 7259 H 662.079 2.83849 -4.07116 0
M  V30 7260 H 657.335 2.71352 -5.47885 0
M  V30 7261 H 661.509 2.60156 -6.45981 0
M  V30 7262 H 659.136 2.53415 -7.16718 0
M  V30 7263 N 660.711 1.11618 1.11262 0
M  V30 7264 C 661.621 0.78898 2.20935 0
M  V30 7265 C 662.637 -0.21867 1.7262 0
M  V30 7266 O 663.813 -0.0543826 2.01327 0
M  V30 7267 C 660.878 0.239014 3.45875 0
M  V30 7268 C 659.939 1.3055 4.08968 0
M  V30 7269 C 659.172 0.781687 5.27944 0
M  V30 7270 O 659.395 -0.387605 5.69082 0
M  V30 7271 O 658.329 1.54734 5.81671 0
M  V30 7272 H 662.155 1.70477 2.51339 0
M  V30 7273 H 659.74 0.892203 1.19834 0
M  V30 7274 H 661.622 -0.0632312 4.21353 0
M  V30 7275 H 660.297 -0.649454 3.17118 0
M  V30 7276 H 659.204 1.66079 3.35214 0
M  V30 7277 H 660.537 2.16743 4.41909 0
M  V30 7278 N 662.189 -1.289 0.906776 0
M  V30 7279 C 663.136 -2.2751 0.388313 0
M  V30 7280 C 664.106 -1.57301 -0.533439 0
M  V30 7281 O 665.291 -1.85243 -0.457148 0
M  V30 7282 C 662.431 -3.43091 -0.37181 0
M  V30 7283 C 661.544 -4.28066 0.581647 0
M  V30 7284 C 660.679 -5.30837 -0.19623 0
M  V30 7285 C 659.718 -6.07472 0.751294 0
M  V30 7286 N 658.855 -7.021 0.00737727 0
M  V30 7287 H 663.695 -2.71237 1.23428 0
M  V30 7288 H 661.232 -1.33397 0.619962 0
M  V30 7289 H 663.19 -4.08888 -0.828641 0
M  V30 7290 H 661.82 -3.00374 -1.18218 0
M  V30 7291 H 660.872 -3.62378 1.157 0
M  V30 7292 H 662.184 -4.81382 1.30665 0
M  V30 7293 H 661.338 -6.02485 -0.71394 0
M  V30 7294 H 660.077 -4.78272 -0.954324 0
M  V30 7295 H 659.082 -5.34682 1.28044 0
M  V30 7296 H 660.307 -6.62126 1.50883 0
M  V30 7297 H 658.253 -6.51894 -0.732854 0
M  V30 7298 H 658.17 -7.53004 0.672334 0
M  V30 7299 H 659.438 -7.77956 -0.490365 0
M  V30 7300 N 663.667 -0.670007 -1.42649 0
M  V30 7301 C 664.916 -0.187526 -2.00826 0
M  V30 7302 C 665.229 1.21142 -1.53571 0
M  V30 7303 O 666.435 1.79001 -2.04134 0
M  V30 7304 C 664.891 -0.284409 -3.58774 0
M  V30 7305 C 664.499 -1.6871 -4.15019 0
M  V30 7306 C 666.243 0.139605 -4.2427 0
M  V30 7307 C 664.15 -1.73701 -5.65316 0
M  V30 7308 H 663.08 -0.0663468 -0.751075 0
M  V30 7309 H 665.731 -0.834492 -1.63427 0
M  V30 7310 H 664.113 0.430364 -3.93655 0
M  V30 7311 H 665.287 -2.42857 -3.91608 0
M  V30 7312 H 663.602 -2.05855 -3.61957 0
M  V30 7313 H 666.199 0.122398 -5.3456 0
M  V30 7314 H 666.542 1.17403 -3.99402 0
M  V30 7315 H 667.075 -0.523995 -3.94334 0
M  V30 7316 H 663.814 -2.75109 -5.94975 0
M  V30 7317 H 663.334 -1.03903 -5.90732 0
M  V30 7318 H 665.013 -1.48829 -6.2965 0
M  V30 7319 N 665.145 1.52092 -0.413018 0
M  V30 7320 C 666.375 2.05974 0.160648 0
M  V30 7321 C 666.783 1.28267 1.39084 0
M  V30 7322 O 666.126 0.328805 1.80733 0
M  V30 7323 C 666.188 3.54918 0.572169 0
M  V30 7324 C 665.852 4.53705 -0.547826 0
M  V30 7325 C 666.849 5.00342 -1.41259 0
M  V30 7326 C 664.534 4.97089 -0.721627 0
M  V30 7327 C 666.528 5.89011 -2.43607 0
M  V30 7328 C 664.215 5.85554 -1.74841 0
M  V30 7329 C 665.213 6.3141 -2.60403 0
M  V30 7330 O 664.901 7.18123 -3.61323 0
M  V30 7331 H 664.633 0.675636 0.0221936 0
M  V30 7332 H 667.187 1.96931 -0.58373 0
M  V30 7333 H 665.417 3.61661 1.36889 0
M  V30 7334 H 667.106 3.91428 1.0742 0
M  V30 7335 H 667.872 4.67537 -1.28974 0
M  V30 7336 H 663.751 4.60954 -0.0652911 0
M  V30 7337 H 667.295 6.24725 -3.10425 0
M  V30 7338 H 663.192 6.17773 -1.87156 0
M  V30 7339 H 663.96 7.36244 -3.57613 0
M  V30 7340 N 666.623 0.143563 1.56945 0
M  V30 7341 C 667.555 -0.828353 2.13708 0
M  V30 7342 C 668.568 -1.21313 1.08568 0
M  V30 7343 O 669.757 -1.1578 1.35857 0
M  V30 7344 C 666.857 -2.12248 2.64204 0
M  V30 7345 C 666.03 -1.90561 3.93707 0
M  V30 7346 C 665.089 -3.03931 4.29549 0
M  V30 7347 O 664.115 -2.75772 4.97934 0
M  V30 7348 N 665.317 -4.31016 3.88852 0
M  V30 7349 H 668.082 -0.343242 2.97728 0
M  V30 7350 H 665.643 -0.0401152 1.6185 0
M  V30 7351 H 667.635 -2.87132 2.85197 0
M  V30 7352 H 666.205 -2.52033 1.84928 0
M  V30 7353 H 665.425 -0.997327 3.81375 0
M  V30 7354 H 666.713 -1.73405 4.78339 0
M  V30 7355 H 666.111 -4.56762 3.33743 0
M  V30 7356 H 664.668 -5.02691 4.14903 0
M  V30 7357 N 668.101 -1.57061 -0.130224 0
M  V30 7358 C 669.326 -1.88802 -0.858409 0
M  V30 7359 C 669.751 -0.734353 -1.73173 0
M  V30 7360 O 669.109 0.315529 -1.78533 0
M  V30 7361 C 669.157 -3.19228 -1.67708 0
M  V30 7362 O 668.261 -3.04343 -2.78297 0
M  V30 7363 H 667.602 -0.619849 -0.238083 0
M  V30 7364 H 670.132 -2.04271 -0.115995 0
M  V30 7365 H 670.142 -3.51669 -2.06864 0
M  V30 7366 H 668.817 -4.02793 -1.0359 0
M  V30 7367 H 667.394 -2.83346 -2.42425 0
M  V30 7368 N 669.579 0.400081 -1.52437 0
M  V30 7369 C 670.509 1.4947 -1.7939 0
M  V30 7370 C 671.49 1.57383 -0.645329 0
M  V30 7371 O 672.675 1.72511 -0.891826 0
M  V30 7372 C 669.805 2.87201 -1.95276 0
M  V30 7373 C 668.759 2.94134 -3.10917 0
M  V30 7374 C 668.085 4.34207 -3.1204 0
M  V30 7375 C 669.385 2.64791 -4.50203 0
M  V30 7376 H 671.079 1.27165 -2.71052 0
M  V30 7377 H 668.625 0.610312 -1.30427 0
M  V30 7378 H 670.578 3.63772 -2.12715 0
M  V30 7379 H 669.302 3.10819 -1.00294 0
M  V30 7380 H 667.961 2.20009 -2.93243 0
M  V30 7381 H 667.609 4.54848 -2.14761 0
M  V30 7382 H 667.309 4.39768 -3.89715 0
M  V30 7383 H 668.833 5.127 -3.31619 0
M  V30 7384 H 670.247 3.31083 -4.68035 0
M  V30 7385 H 668.644 2.81717 -5.29864 0
M  V30 7386 H 669.714 1.60184 -4.57678 0
M  V30 7387 N 671.057 1.43213 0.657864 0
M  V30 7388 C 672.282 1.48227 1.45064 0
M  V30 7389 C 672.707 0.0999939 1.87834 0
M  V30 7390 O 672.065 -0.905269 1.57081 0
M  V30 7391 C 672.113 2.42931 2.6649 0
M  V30 7392 O 671.217 1.91237 3.6538 0
M  V30 7393 H 670.558 0.501551 0.435135 0
M  V30 7394 H 673.088 1.8808 0.805431 0
M  V30 7395 H 673.098 2.6008 3.1436 0
M  V30 7396 H 671.773 3.43348 2.34701 0
M  V30 7397 H 670.35 1.83726 3.24498 0
M  V30 7398 N 672.536 -0.895792 1.29666 0
M  V30 7399 C 673.813 -1.62723 1.08538 0
M  V30 7400 C 674.193 -2.07848 -0.369119 0
M  V30 7401 O 673.541 -1.8372 -1.35864 0
M  V30 7402 C 673.751 -2.80505 2.07648 0
M  V30 7403 C 675.099 -3.51098 2.3878 0
M  V30 7404 O 676.123 -2.90679 2.05874 0
M  V30 7405 O 674.982 -4.60028 2.9502 0
M  V30 7406 H 672.076 -0.714692 0.416106 0
M  V30 7407 H 674.622 -0.943517 1.41053 0
M  V30 7408 H 673.394 -2.44386 3.05599 0
M  V30 7409 H 673.017 -3.5658 1.75887 0
M  V30 7410 N 674.014 -1.12206 -1.10668 0
M  V30 7411 C 674.947 -0.731468 -2.16159 0
M  V30 7412 C 675.925 0.276216 -1.60237 0
M  V30 7413 O 677.109 0.17074 -1.87725 0
M  V30 7414 C 674.236 -0.0822882 -3.386 0
M  V30 7415 C 673.282 -1.05641 -4.1321 0
M  V30 7416 S 674.115 -2.58281 -4.69096 0
M  V30 7417 C 675.271 -1.94686 -5.94851 0
M  V30 7418 H 675.504 -1.62504 -2.48957 0
M  V30 7419 H 673.037 -0.940906 -1.22419 0
M  V30 7420 H 674.995 0.285896 -4.09503 0
M  V30 7421 H 673.656 0.788358 -3.04046 0
M  V30 7422 H 672.849 -0.549764 -5.00993 0
M  V30 7423 H 672.451 -1.36741 -3.48106 0
M  V30 7424 H 674.743 -1.28815 -6.65141 0
M  V30 7425 H 675.686 -2.80499 -6.50174 0
M  V30 7426 H 676.094 -1.40369 -5.46769 0
M  V30 7427 N 675.492 1.28418 -0.913599 0
M  V30 7428 C 676.74 1.94596 -0.545594 0
M  V30 7429 C 677.061 1.7227 0.913668 0
M  V30 7430 O 676.331 1.06233 1.64595 0
M  V30 7431 H 674.911 0.720065 -0.198783 0
M  V30 7432 H 677.573 1.56404 -1.16292 0
M  V30 7433 H 676.669 3.03202 -0.739911 0
M  V30 7434 N 676.97 0.677563 1.42291 0
M  V30 7435 C 678.217 0.200975 2.015 0
M  V30 7436 C 678.545 -1.19342 1.53583 0
M  V30 7437 O 677.8 -1.81579 0.7299 0
M  V30 7438 C 678.099 0.187229 3.56909 0
M  V30 7439 C 677.765 1.52667 4.24268 0
M  V30 7440 C 676.427 1.89341 4.42384 0
M  V30 7441 C 678.779 2.40869 4.62203 0
M  V30 7442 C 676.107 3.13836 4.95705 0
M  V30 7443 C 678.459 3.64679 5.16906 0
M  V30 7444 C 677.123 4.01519 5.33234 0
M  V30 7445 H 676.393 0.0735418 0.737342 0
M  V30 7446 H 679.04 0.873095 1.70439 0
M  V30 7447 H 677.345 -0.568407 3.87655 0
M  V30 7448 H 679.042 -0.198773 4.00507 0
M  V30 7449 H 675.632 1.23138 4.1053 0
M  V30 7450 H 679.816 2.1382 4.47878 0
M  V30 7451 H 675.072 3.42396 5.06532 0
M  V30 7452 H 679.246 4.33224 5.45243 0
M  V30 7453 H 676.873 4.98062 5.74316 0
M  V30 7454 N 678.448 -1.51871 0.421078 0
M  V30 7455 C 679.395 -2.27334 -0.398508 0
M  V30 7456 C 680.365 -1.30241 -1.03085 0
M  V30 7457 O 681.55 -1.59121 -1.05285 0
M  V30 7458 C 678.69 -3.10664 -1.50272 0
M  V30 7459 C 677.803 -4.2273 -0.890122 0
M  V30 7460 C 676.938 -4.93399 -1.96803 0
M  V30 7461 C 675.977 -5.97409 -1.333 0
M  V30 7462 N 675.114 -6.61548 -2.35156 0
M  V30 7463 H 679.954 -2.96938 0.251411 0
M  V30 7464 H 677.491 -1.46472 0.135825 0
M  V30 7465 H 679.449 -3.57292 -2.15403 0
M  V30 7466 H 678.079 -2.43207 -2.1225 0
M  V30 7467 H 677.131 -3.80186 -0.127537 0
M  V30 7468 H 678.443 -4.97302 -0.386349 0
M  V30 7469 H 677.597 -5.43491 -2.69633 0
M  V30 7470 H 676.336 -4.18421 -2.50549 0
M  V30 7471 H 675.341 -5.46624 -0.59008 0
M  V30 7472 H 676.566 -6.74335 -0.803076 0
M  V30 7473 H 674.512 -5.89394 -2.88012 0
M  V30 7474 H 674.429 -7.31832 -1.89624 0
M  V30 7475 H 675.697 -7.16276 -3.0752 0
M  V30 7476 N 679.926 -0.151884 -1.56866 0
M  V30 7477 C 680.874 0.80299 -2.183 0
M  V30 7478 C 681.868 1.25174 -1.14139 0
M  V30 7479 O 683.074 1.21966 -1.3238 0
M  V30 7480 H 679.449 0.277169 -0.699057 0
M  V30 7481 H 681.42 0.260699 -2.97259 0
M  V30 7482 C 680.169 2.03009 -2.82281 0
M  V30 7483 H 679.492 1.69377 -3.62148 0
M  V30 7484 H 680.932 2.67753 -3.28762 0
M  V30 7485 C 679.391 2.84123 -1.81041 0
M  V30 7486 O 679.921 3.8063 -1.28388 0
M  V30 7487 N 678.127 2.48753 -1.50234 0
M  V30 7488 H 677.674 1.70337 -1.93244 0
M  V30 7489 H 677.632 3.03316 -0.827445 0
M  V30 7490 N 681.404 1.57128 0.121893 0
M  V30 7491 C 682.334 2.03165 1.15092 0
M  V30 7492 C 683.315 0.915587 1.43356 0
M  V30 7493 O 684.5 1.1851 1.53847 0
M  V30 7494 C 681.63 2.43352 2.47784 0
M  V30 7495 C 680.584 3.58376 2.33989 0
M  V30 7496 C 679.91 3.84454 3.71617 0
M  V30 7497 C 681.21 4.90199 1.80283 0
M  V30 7498 H 682.904 2.89382 0.768023 0
M  V30 7499 H 680.45 1.39218 0.367998 0
M  V30 7500 H 682.403 2.74163 3.20019 0
M  V30 7501 H 681.127 1.54103 2.87958 0
M  V30 7502 H 679.786 3.2777 1.64202 0
M  V30 7503 H 679.434 2.92414 4.09271 0
M  V30 7504 H 679.134 4.61877 3.6324 0
M  V30 7505 H 680.658 4.17714 4.45362 0
M  V30 7506 H 682.072 5.19565 2.42333 0
M  V30 7507 H 680.469 5.71601 1.82735 0
M  V30 7508 H 681.539 4.78904 0.760184 0
M  V30 7509 N 682.882 -0.391992 1.52647 0
M  V30 7510 C 684.293 -0.970064 1.5952 0
M  V30 7511 C 684.644 -1.91059 0.446207 0
M  V30 7512 O 683.769 -2.12062 -0.431125 0
M  V30 7513 C 684.364 -1.76614 2.89125 0
M  V30 7514 C 682.923 -2.29396 2.9842 0
M  V30 7515 C 682.07 -1.09864 2.54608 0
M  V30 7516 H 685.021 -0.171638 1.57769 0
M  V30 7517 H 685.042 -2.62511 2.75442 0
M  V30 7518 H 684.554 -1.08135 3.72731 0
M  V30 7519 H 682.655 -3.01196 2.19344 0
M  V30 7520 H 682.768 -2.59088 4.03002 0
M  V30 7521 H 681.132 -1.45777 2.08857 0
M  V30 7522 H 681.915 -0.429249 3.40606 0
M  V30 7523 N 684.36 -1.4356 -0.65026 0
M  V30 7524 C 685.307 -1.48948 -1.76304 0
M  V30 7525 C 686.277 -0.338919 -1.62605 0
M  V30 7526 O 687.462 -0.54649 -1.82806 0
M  V30 7527 C 684.602 -1.42131 -3.14472 0
M  V30 7528 C 683.715 -2.67415 -3.39284 0
M  V30 7529 C 682.85 -2.52565 -4.67316 0
M  V30 7530 C 681.889 -3.73103 -4.85243 0
M  V30 7531 N 681.026 -3.57046 -6.04535 0
M  V30 7532 H 685.866 -2.44032 -1.71034 0
M  V30 7533 H 683.403 -1.21131 -0.834601 0
M  V30 7534 H 685.361 -1.36172 -3.94351 0
M  V30 7535 H 683.991 -0.506273 -3.18805 0
M  V30 7536 H 683.043 -2.8364 -2.53481 0
M  V30 7537 H 684.355 -3.56943 -3.48415 0
M  V30 7538 H 683.509 -2.44331 -5.55326 0
M  V30 7539 H 682.248 -1.60566 -4.60511 0
M  V30 7540 H 681.253 -3.81743 -3.95667 0
M  V30 7541 H 682.478 -4.66115 -4.93876 0
M  V30 7542 H 680.424 -2.67783 -5.98856 0
M  V30 7543 H 680.341 -4.40178 -6.14638 0
M  V30 7544 H 681.609 -3.52669 -6.95158 0
M  V30 7545 N 685.838 0.888903 -1.30139 0
M  V30 7546 C 687.115 1.62145 -1.094 0
M  V30 7547 C 687.495 2.08041 0.358091 0
M  V30 7548 O 686.843 1.84438 1.34888 0
M  V30 7549 C 687.053 2.794 -2.09133 0
M  V30 7550 C 688.401 3.49826 -2.40638 0
M  V30 7551 O 689.425 2.89583 -2.07412 0
M  V30 7552 O 688.284 4.58457 -2.97455 0
M  V30 7553 H 685.378 0.712475 -0.41989 0
M  V30 7554 H 687.924 0.936023 -1.41551 0
M  V30 7555 H 686.696 2.42762 -3.06891 0
M  V30 7556 H 686.319 3.55643 -1.77776 0
M  V30 7557 N 687.317 1.12792 1.10072 0
M  V30 7558 C 688.247 0.821688 2.18565 0
M  V30 7559 C 689.228 -0.21612 1.68721 0
M  V30 7560 O 690.413 -0.0764932 1.94049 0
M  V30 7561 C 687.543 0.279624 3.46172 0
M  V30 7562 C 686.497 1.25092 4.09312 0
M  V30 7563 C 685.823 0.568916 5.31665 0
M  V30 7564 C 687.123 2.60699 4.52585 0
M  V30 7565 H 688.817 1.72888 2.44438 0
M  V30 7566 H 686.363 0.832702 1.17482 0
M  V30 7567 H 688.316 0.053099 4.21367 0
M  V30 7568 H 687.04 -0.662929 3.19801 0
M  V30 7569 H 685.699 1.46332 3.36129 0
M  V30 7570 H 685.347 -0.378898 5.01571 0
M  V30 7571 H 685.047 1.21687 5.74862 0
M  V30 7572 H 686.571 0.351517 6.09587 0
M  V30 7573 H 687.985 2.43465 5.19035 0
M  V30 7574 H 686.382 3.21608 5.06644 0
M  V30 7575 H 687.452 3.1886 3.65317 0
M  V30 7576 N 688.795 -1.27931 0.920396 0
M  V30 7577 C 690.02 -1.99343 0.572478 0
M  V30 7578 C 690.445 -1.68267 -0.840696 0
M  V30 7579 O 689.803 -0.918805 -1.56294 0
M  V30 7580 C 689.851 -3.51698 0.796284 0
M  V30 7581 O 688.955 -4.12157 -0.141602 0
M  V30 7582 H 688.296 -0.626065 0.221221 0
M  V30 7583 H 690.826 -1.62921 1.23765 0
M  V30 7584 H 690.836 -4.01793 0.708984 0
M  V30 7585 H 689.511 -3.73649 1.82644 0
M  V30 7586 H 688.088 -3.729 -0.005007 0
M  V30 7587 N 690.273 -0.685099 -1.4193 0
M  V30 7588 C 691.522 -0.208816 -2.00616 0
M  V30 7589 C 691.835 1.19506 -1.54847 0
M  V30 7590 O 693.041 1.76826 -2.06021 0
M  V30 7591 C 691.497 -0.322446 -3.58453 0
M  V30 7592 C 691.105 -1.73102 -4.13206 0
M  V30 7593 C 692.849 0.0945979 -4.24395 0
M  V30 7594 C 690.756 -1.79687 -5.63442 0
M  V30 7595 H 689.686 -0.0743092 -0.750329 0
M  V30 7596 H 692.337 -0.851778 -1.62533 0
M  V30 7597 H 690.719 0.388588 -3.94089 0
M  V30 7598 H 691.893 -2.46997 -3.8901 0
M  V30 7599 H 690.208 -2.09682 -3.59753 0
M  V30 7600 H 692.805 0.0656937 -5.3466 0
M  V30 7601 H 693.148 1.1316 -4.00625 0
M  V30 7602 H 693.681 -0.56579 -3.93756 0
M  V30 7603 H 690.42 -2.81404 -5.92024 0
M  V30 7604 H 689.94 -1.10162 -5.89597 0
M  V30 7605 H 691.619 -1.55498 -6.28036 0
M  V30 7606 N 691.751 1.51645 -0.429126 0
M  V30 7607 C 692.997 2.02314 0.140286 0
M  V30 7608 C 693.33 1.31314 1.43074 0
M  V30 7609 O 692.605 0.425531 1.89788 0
M  V30 7610 C 692.888 3.5822 0.36749 0
M  V30 7611 C 692.741 4.39846 -0.941039 0
M  V30 7612 C 694.06 4.25055 1.14089 0
M  V30 7613 H 691.179 0.735335 0.0495112 0
M  V30 7614 H 693.821 1.81358 -0.566514 0
M  V30 7615 H 691.971 3.76207 0.969556 0
M  V30 7616 H 693.643 4.33527 -1.57646 0
M  V30 7617 H 691.886 4.05259 -1.54751 0
M  V30 7618 H 692.557 5.47069 -0.73621 0
M  V30 7619 H 695.033 4.11288 0.630986 0
M  V30 7620 H 693.909 5.34038 1.26863 0
M  V30 7621 H 694.17 3.85358 2.16683 0
M  V30 7622 N 693.229 0.160201 1.56784 0
M  V30 7623 C 694.159 -0.770264 2.2043 0
M  V30 7624 C 695.14 -1.24736 1.15651 0
M  V30 7625 O 696.325 -1.30253 1.44041 0
M  V30 7626 C 693.455 -2.00427 2.83631 0
M  V30 7627 C 692.409 -1.66345 3.94352 0
M  V30 7628 C 691.735 -2.97119 4.4455 0
M  V30 7629 C 693.035 -0.899972 5.14488 0
M  V30 7630 H 694.729 -0.239783 2.98438 0
M  V30 7631 H 692.275 -0.113891 1.43549 0
M  V30 7632 H 694.228 -2.66012 3.26827 0
M  V30 7633 H 692.952 -2.5587 2.02973 0
M  V30 7634 H 691.611 -1.03133 3.51794 0
M  V30 7635 H 691.259 -3.5058 3.60698 0
M  V30 7636 H 690.959 -2.75073 5.19238 0
M  V30 7637 H 692.483 -3.63753 4.90425 0
M  V30 7638 H 693.897 -1.45818 5.54446 0
M  V30 7639 H 692.294 -0.778968 5.95023 0
M  V30 7640 H 693.364 0.105827 4.84785 0
M  V30 7641 N 694.707 -1.5719 -0.113559 0
M  V30 7642 C 695.955 -1.84772 -0.818761 0
M  V30 7643 C 696.276 -0.746196 -1.80158 0
M  V30 7644 O 695.546 0.229305 -1.94553 0
M  V30 7645 H 694.126 -0.681737 -0.305359 0
M  V30 7646 H 696.788 -1.94645 -0.0995845 0
M  V30 7647 H 695.884 -2.80878 -1.36067 0
M  V30 7648 N 696.185 0.383891 -1.52853 0
M  V30 7649 C 697.41 1.154 -1.7233 0
M  V30 7650 C 697.835 1.82809 -0.44298 0
M  V30 7651 O 697.193 1.71026 0.601645 0
M  V30 7652 C 697.241 2.17386 -2.87708 0
M  V30 7653 O 696.345 3.24082 -2.55038 0
M  V30 7654 H 695.686 0.335709 -0.572883 0
M  V30 7655 H 698.216 0.44662 -1.99666 0
M  V30 7656 H 698.226 2.61296 -3.1335 0
M  V30 7657 H 696.901 1.6771 -3.80587 0
M  V30 7658 H 695.478 2.85273 -2.40153 0
M  V30 7659 N 697.663 1.43903 0.642637 0
M  V30 7660 C 698.91 1.46079 1.40239 0
M  V30 7661 C 699.238 0.0890335 1.94296 0
M  V30 7662 O 698.493 -0.907533 1.73385 0
M  V30 7663 C 698.792 2.45907 2.59354 0
M  V30 7664 C 698.458 3.91522 2.23654 0
M  V30 7665 C 697.12 4.31179 2.1363 0
M  V30 7666 C 699.472 4.83242 1.95261 0
M  V30 7667 C 696.8 5.60495 1.73384 0
M  V30 7668 C 699.152 6.12933 1.56511 0
M  V30 7669 C 697.816 6.51556 1.4502 0
M  V30 7670 H 697.086 0.534542 0.513172 0
M  V30 7671 H 699.733 1.77047 0.72984 0
M  V30 7672 H 698.038 2.08381 3.3179 0
M  V30 7673 H 699.735 2.44842 3.17574 0
M  V30 7674 H 696.325 3.60142 2.32369 0
M  V30 7675 H 700.509 4.53367 2.0192 0
M  V30 7676 H 695.765 5.89249 1.63082 0
M  V30 7677 H 699.939 6.83469 1.33576 0
M  V30 7678 H 697.566 7.51663 1.13606 0
M  V30 7679 N 699.141 -0.881989 1.30609 0
M  V30 7680 C 700.104 -1.96957 1.1722 0
M  V30 7681 C 701.104 -1.60472 0.102598 0
M  V30 7682 O 702.294 -1.70628 0.350943 0
M  V30 7683 C 699.426 -3.31463 0.796572 0
M  V30 7684 H 700.619 -2.10262 2.13846 0
M  V30 7685 H 698.172 -1.06877 1.14048 0
M  V30 7686 H 698.907 -3.23859 -0.169053 0
M  V30 7687 H 698.692 -3.59314 1.56959 0
M  V30 7688 H 700.182 -4.11233 0.72645 0
M  V30 7689 N 700.619 -1.13374 -1.09472 0
M  V30 7690 C 701.868 -0.889844 -1.8101 0
M  V30 7691 C 702.181 0.585686 -1.86625 0
M  V30 7692 O 703.387 0.946497 -2.54467 0
M  V30 7693 C 701.843 -1.54241 -3.25174 0
M  V30 7694 C 701.451 -3.05343 -3.27826 0
M  V30 7695 C 703.195 -1.37919 -4.0147 0
M  V30 7696 C 701.102 -3.63486 -4.6651 0
M  V30 7697 H 700.032 -0.329256 -0.678311 0
M  V30 7698 H 702.683 -1.36139 -1.23038 0
M  V30 7699 H 701.065 -0.998525 -3.83204 0
M  V30 7700 H 702.239 -3.66307 -2.79563 0
M  V30 7701 H 700.554 -3.21175 -2.65019 0
M  V30 7702 H 703.151 -1.78771 -5.03929 0
M  V30 7703 H 703.494 -0.323987 -4.15037 0
M  V30 7704 H 704.027 -1.89284 -3.49881 0
M  V30 7705 H 700.766 -4.68811 -4.58145 0
M  V30 7706 H 700.286 -3.073 -5.15099 0
M  V30 7707 H 701.965 -3.63134 -5.35484 0
M  V30 7708 N 702.098 1.27442 -0.927168 0
M  V30 7709 C 703.323 1.99036 -0.583042 0
M  V30 7710 C 703.748 1.68711 0.83176 0
M  V30 7711 O 703.106 0.927081 1.55804 0
M  V30 7712 C 703.154 3.51271 -0.814925 0
M  V30 7713 O 702.258 4.12226 0.119742 0
M  V30 7714 H 701.599 0.624883 -0.224538 0
M  V30 7715 H 704.129 1.62263 -1.24628 0
M  V30 7716 H 704.139 4.01411 -0.730282 0
M  V30 7717 H 702.814 3.72676 -1.84623 0
M  V30 7718 H 701.391 3.72897 -0.0147688 0
M  V30 7719 N 703.576 0.692616 1.41565 0
M  V30 7720 C 704.987 0.297478 1.84315 0
M  V30 7721 C 705.338 -1.16379 1.57957 0
M  V30 7722 O 704.463 -1.89303 1.0485 0
M  V30 7723 C 705.058 0.533136 3.34579 0
M  V30 7724 C 703.617 0.191944 3.7591 0
M  V30 7725 C 702.764 0.816873 2.64995 0
M  V30 7726 H 705.715 0.893488 1.31158 0
M  V30 7727 H 705.736 -0.209105 3.79925 0
M  V30 7728 H 705.248 1.59674 3.53731 0
M  V30 7729 H 703.349 -0.867512 3.6236 0
M  V30 7730 H 703.462 0.644902 4.7474 0
M  V30 7731 H 701.826 0.246715 2.53502 0
M  V30 7732 H 702.609 1.88429 2.86966 0
M  V30 7733 N 705.054 -1.51416 0.437162 0
M  V30 7734 C 706.303 -2.01275 -0.130865 0
M  V30 7735 C 706.616 -1.32593 -1.438 0
M  V30 7736 O 707.822 -1.7342 -2.08897 0
M  V30 7737 C 706.278 -3.5878 -0.283763 0
M  V30 7738 C 705.886 -4.36399 1.01293 0
M  V30 7739 C 707.63 -4.16786 -0.805569 0
M  V30 7740 C 705.537 -5.85608 0.825687 0
M  V30 7741 H 704.467 -0.752157 -0.0526818 0
M  V30 7742 H 707.118 -1.74524 0.566896 0
M  V30 7743 H 705.5 -3.81976 -1.04452 0
M  V30 7744 H 706.674 -4.24948 1.78201 0
M  V30 7745 H 704.989 -3.89843 1.46326 0
M  V30 7746 H 707.586 -5.25972 -0.962146 0
M  V30 7747 H 707.929 -3.75949 -1.78796 0
M  V30 7748 H 708.462 -3.97666 -0.103125 0
M  V30 7749 H 705.201 -6.30857 1.78045 0
M  V30 7750 H 704.721 -5.99723 0.0964029 0
M  V30 7751 H 706.4 -6.45226 0.478815 0
M  V30 7752 N 706.532 -0.168513 -1.56696 0
M  V30 7753 C 707.442 0.775435 -2.21414 0
M  V30 7754 C 708.458 1.25529 -1.20492 0
M  V30 7755 O 709.634 1.30801 -1.53144 0
M  V30 7756 C 706.699 1.9886 -2.83999 0
M  V30 7757 C 705.76 1.5559 -4.00113 0
M  V30 7758 C 704.993 2.71124 -4.59704 0
M  V30 7759 O 705.216 3.87917 -4.18182 0
M  V30 7760 O 704.15 2.4536 -5.4962 0
M  V30 7761 H 707.976 0.254416 -3.02632 0
M  V30 7762 H 705.561 0.0595507 -1.49281 0
M  V30 7763 H 707.443 2.69816 -3.23693 0
M  V30 7764 H 706.118 2.49874 -2.05779 0
M  V30 7765 H 705.025 0.815924 -3.65094 0
M  V30 7766 H 706.358 1.09271 -4.79917 0
M  V30 7767 N 708.01 1.57248 0.105221 0
M  V30 7768 C 708.973 2.00388 1.11252 0
M  V30 7769 C 709.973 0.89594 1.33527 0
M  V30 7770 O 711.163 1.16166 1.29811 0
M  V30 7771 C 708.295 2.35589 2.46395 0
M  V30 7772 H 709.488 2.90591 0.741424 0
M  V30 7773 H 707.041 1.52332 0.349956 0
M  V30 7774 H 707.776 1.4831 2.884 0
M  V30 7775 H 707.561 3.16408 2.31578 0
M  V30 7776 H 709.051 2.69658 3.18864 0
M  V30 7777 N 709.488 -0.375779 1.53054 0
M  V30 7778 C 710.451 -1.44254 1.7811 0
M  V30 7779 C 711.451 -1.47018 0.651328 0
M  V30 7780 O 712.641 -1.47957 0.919472 0
M  V30 7781 C 709.773 -2.8345 1.89391 0
M  V30 7782 H 710.966 -1.23316 2.73374 0
M  V30 7783 H 708.519 -0.608312 1.43977 0
M  V30 7784 H 709.254 -3.09716 0.961589 0
M  V30 7785 H 709.039 -2.82844 2.71555 0
M  V30 7786 H 710.529 -3.60722 2.10404 0
M  V30 7787 N 710.966 -1.44241 -0.634997 0
M  V30 7788 C 711.876 -1.53293 -1.77591 0
M  V30 7789 C 712.892 -0.418831 -1.68884 0
M  V30 7790 O 714.068 -0.675619 -1.8973 0
M  V30 7791 C 711.133 -1.47075 -3.13958 0
M  V30 7792 C 710.194 -2.69304 -3.34326 0
M  V30 7793 C 709.427 -2.63374 -4.64187 0
M  V30 7794 O 709.65 -1.69161 -5.44739 0
M  V30 7795 O 708.584 -3.54166 -4.86673 0
M  V30 7796 H 712.41 -2.49673 -1.72908 0
M  V30 7797 H 709.995 -1.26445 -0.795745 0
M  V30 7798 H 711.877 -1.46117 -3.95257 0
M  V30 7799 H 710.552 -0.538373 -3.19192 0
M  V30 7800 H 709.459 -2.75831 -2.52721 0
M  V30 7801 H 710.792 -3.61576 -3.33951 0
M  V30 7802 N 712.444 0.87505 -1.31075 0
M  V30 7803 C 713.391 1.98178 -1.18296 0
M  V30 7804 C 714.361 1.65952 -0.0699923 0
M  V30 7805 O 715.546 1.8926 -0.241951 0
M  V30 7806 C 712.686 3.33399 -0.891024 0
M  V30 7807 C 711.799 3.78253 -2.08684 0
M  V30 7808 C 710.934 5.02166 -1.73212 0
M  V30 7809 C 709.973 5.39455 -2.89231 0
M  V30 7810 N 709.11 6.54549 -2.53989 0
M  V30 7811 H 713.95 2.0844 -2.12971 0
M  V30 7812 H 711.487 1.02047 -1.05948 0
M  V30 7813 H 713.445 4.11246 -0.702338 0
M  V30 7814 H 712.075 3.22794 0.0188799 0
M  V30 7815 H 711.127 2.9623 -2.38646 0
M  V30 7816 H 712.439 4.01821 -2.95536 0
M  V30 7817 H 711.593 5.87666 -1.50777 0
M  V30 7818 H 710.332 4.80491 -0.83544 0
M  V30 7819 H 709.337 4.52477 -3.12321 0
M  V30 7820 H 710.562 5.63098 -3.79601 0
M  V30 7821 H 708.508 6.3443 -1.66838 0
M  V30 7822 H 708.425 6.78035 -3.34372 0
M  V30 7823 H 709.693 7.43254 -2.34934 0
M  V30 7824 N 713.922 1.13953 1.08869 0
M  V30 7825 C 715.152 0.926825 1.84644 0
M  V30 7826 C 715.56 -0.527941 1.81685 0
M  V30 7827 O 714.903 -1.37742 1.21543 0
M  V30 7828 C 714.965 1.34416 3.33426 0
M  V30 7829 C 714.629 2.81351 3.60126 0
M  V30 7830 C 715.626 3.79486 3.55368 0
M  V30 7831 C 713.311 3.1865 3.88288 0
M  V30 7832 C 715.305 5.1293 3.78393 0
M  V30 7833 C 712.992 4.5227 4.10968 0
M  V30 7834 C 713.99 5.4922 4.06013 0
M  V30 7835 O 713.678 6.80429 4.28102 0
M  V30 7836 H 713.41 0.33013 0.589907 0
M  V30 7837 H 715.964 1.51738 1.38436 0
M  V30 7838 H 714.194 0.696901 3.80368 0
M  V30 7839 H 715.883 1.10302 3.90626 0
M  V30 7840 H 716.649 3.52017 3.3363 0
M  V30 7841 H 712.528 2.43785 3.91267 0
M  V30 7842 H 716.072 5.88591 3.74442 0
M  V30 7843 H 711.969 4.79462 4.32188 0
M  V30 7844 H 712.737 6.86617 4.45533 0
M  V30 7845 N 715.4 -1.26948 0.933913 0
M  V30 7846 C 716.625 -1.98724 0.593589 0
M  V30 7847 C 717.05 -1.6915 -0.822801 0
M  V30 7848 O 716.408 -0.93533 -1.5531 0
M  V30 7849 C 716.456 -3.50834 0.833542 0
M  V30 7850 O 715.56 -4.12284 -0.0978788 0
M  V30 7851 H 714.901 -0.623683 0.227849 0
M  V30 7852 H 717.431 -1.61599 1.25486 0
M  V30 7853 H 717.441 -4.01018 0.75156 0
M  V30 7854 H 716.116 -3.71691 1.86597 0
M  V30 7855 H 714.693 -3.72884 0.0345443 0
M  V30 7856 N 716.879 -0.700114 -1.41195 0
M  V30 7857 C 717.809 -0.0521132 -2.33442 0
M  V30 7858 C 718.79 0.76228 -1.52063 0
M  V30 7859 O 719.975 0.714336 -1.80585 0
M  V30 7860 C 717.105 0.881693 -3.35922 0
M  V30 7861 C 716.059 0.174062 -4.27646 0
M  V30 7862 C 715.385 1.22254 -5.20536 0
M  V30 7863 C 716.685 -0.962396 -5.13357 0
M  V30 7864 H 718.379 -0.822574 -2.87879 0
M  V30 7865 H 715.925 -0.397011 -1.38419 0
M  V30 7866 H 717.878 1.34429 -3.99383 0
M  V30 7867 H 716.602 1.68387 -2.79845 0
M  V30 7868 H 715.261 -0.268551 -3.65615 0
M  V30 7869 H 714.909 2.01736 -4.60773 0
M  V30 7870 H 714.609 0.754038 -5.82742 0
M  V30 7871 H 716.133 1.68555 -5.86874 0
M  V30 7872 H 717.547 -0.579875 -5.7036 0
M  V30 7873 H 715.944 -1.35828 -5.84526 0
M  V30 7874 H 717.014 -1.80003 -4.50252 0
M  V30 7875 N 718.357 1.51182 -0.445186 0
M  V30 7876 C 719.604 2.02152 0.118645 0
M  V30 7877 C 719.932 1.32888 1.42025 0
M  V30 7878 O 719.187 0.435041 1.90803 0
M  V30 7879 C 719.486 3.55408 0.376797 0
M  V30 7880 C 719.152 4.43008 -0.839945 0
M  V30 7881 C 717.814 4.66669 -1.17361 0
M  V30 7882 C 720.166 4.9435 -1.65127 0
M  V30 7883 C 717.494 5.38919 -2.31913 0
M  V30 7884 C 719.846 5.67857 -2.78786 0
M  V30 7885 C 718.51 5.89779 -3.12597 0
M  V30 7886 H 717.78 0.739727 0.0434152 0
M  V30 7887 H 720.427 1.82055 -0.593984 0
M  V30 7888 H 718.732 3.73879 1.1714 0
M  V30 7889 H 720.429 3.92388 0.826602 0
M  V30 7890 H 717.019 4.24793 -0.569958 0
M  V30 7891 H 721.203 4.75947 -1.4067 0
M  V30 7892 H 716.459 5.54105 -2.58413 0
M  V30 7893 H 720.633 6.06628 -3.42017 0
M  V30 7894 H 718.26 6.45542 -4.01471 0
M  V30 7895 N 719.835 0.176821 1.56605 0
M  V30 7896 C 721.06 -0.47599 2.01864 0
M  V30 7897 C 721.485 -1.55645 1.05623 0
M  V30 7898 O 720.843 -1.81263 0.0366729 0
M  V30 7899 C 720.891 -1.02619 3.4569 0
M  V30 7900 O 719.995 -2.13996 3.52533 0
M  V30 7901 H 719.336 -0.113363 0.654251 0
M  V30 7902 H 721.866 0.28233 2.02643 0
M  V30 7903 H 721.876 -1.34742 3.85109 0
M  V30 7904 H 720.551 -0.235138 4.15235 0
M  V30 7905 H 719.128 -1.82876 3.24978 0
M  V30 7906 N 721.313 -1.57302 -0.09688 0
M  V30 7907 C 722.261 -2.02942 -1.13654 0
M  V30 7908 C 723.255 -0.930173 -1.41577 0
M  V30 7909 O 724.461 -1.11535 -1.41279 0
M  V30 7910 H 720.836 -0.646726 -0.383731 0
M  V30 7911 H 722.807 -2.89452 -0.725267 0
M  V30 7912 C 721.556 -2.46815 -2.44903 0
M  V30 7913 H 720.879 -3.30979 -2.24261 0
M  V30 7914 H 722.319 -2.82527 -3.16156 0
M  V30 7915 C 720.778 -1.34071 -3.09074 0
M  V30 7916 O 721.308 -0.668856 -3.96092 0
M  V30 7917 N 719.514 -1.09214 -2.69296 0
M  V30 7918 H 719.061 -1.64029 -1.98626 0
M  V30 7919 H 719.019 -0.339785 -3.12559 0
M  V30 7920 N 722.791 0.367657 -1.53252 0
M  V30 7921 C 724.021 1.12955 -1.72988 0
M  V30 7922 C 724.429 1.8358 -0.457708 0
M  V30 7923 O 723.772 1.74336 0.579006 0
M  V30 7924 C 723.834 2.20545 -2.83902 0
M  V30 7925 C 723.498 1.69704 -4.24323 0
M  V30 7926 C 724.495 1.16223 -5.06743 0
M  V30 7927 C 722.18 1.7528 -4.70725 0
M  V30 7928 C 724.174 0.689935 -6.33655 0
M  V30 7929 C 721.861 1.27662 -5.97617 0
M  V30 7930 C 722.859 0.746083 -6.78913 0
M  V30 7931 O 722.547 0.276925 -8.03423 0
M  V30 7932 H 722.279 0.343753 -0.582074 0
M  V30 7933 H 724.833 0.433106 -2.00782 0
M  V30 7934 H 723.063 2.93676 -2.51577 0
M  V30 7935 H 724.752 2.82111 -2.91836 0
M  V30 7936 H 725.518 1.11256 -4.72067 0
M  V30 7937 H 721.397 2.15515 -4.07522 0
M  V30 7938 H 724.941 0.275164 -6.97057 0
M  V30 7939 H 720.838 1.32322 -6.31792 0
M  V30 7940 H 721.606 0.396445 -8.17539 0
M  V30 7941 N 724.269 1.44576 0.627338 0
M  V30 7942 C 725.517 1.47267 1.38408 0
M  V30 7943 C 725.838 0.107971 1.94701 0
M  V30 7944 O 725.108 -0.860206 1.76004 0
M  V30 7945 H 723.688 0.542276 0.513756 0
M  V30 7946 H 726.35 1.80383 0.738099 0
M  V30 7947 H 725.446 2.20025 2.21349 0
M  V30 7948 N 725.747 -0.868086 1.31537 0
M  V30 7949 C 726.975 -1.65402 1.24298 0
M  V30 7950 C 727.39 -1.87827 -0.191389 0
M  V30 7951 O 726.747 -1.43776 -1.12404 0
M  V30 7952 C 726.798 -3.02093 1.9855 0
M  V30 7953 O 726.519 -2.80668 3.36388 0
M  V30 7954 C 728.02 -3.96538 1.98173 0
M  V30 7955 H 725.24 -0.515598 0.429417 0
M  V30 7956 H 727.784 -1.0834 1.73444 0
M  V30 7957 H 725.939 -3.55838 1.53161 0
M  V30 7958 H 726.353 -3.67504 3.74221 0
M  V30 7959 H 727.827 -4.8976 2.54635 0
M  V30 7960 H 728.304 -4.28474 0.964697 0
M  V30 7961 H 728.91 -3.48729 2.4345 0
M  V30 7962 N 727.225 -1.14528 -1.08264 0
M  V30 7963 C 728.158 -0.777154 -2.14559 0
M  V30 7964 C 729.136 0.242165 -1.60787 0
M  V30 7965 O 730.32 0.130882 -1.88045 0
M  V30 7966 C 727.447 -0.154092 -3.38349 0
M  V30 7967 C 726.493 -1.14382 -4.10876 0
M  V30 7968 S 727.326 -2.68173 -4.63512 0
M  V30 7969 C 728.482 -2.0726 -5.90588 0
M  V30 7970 H 728.715 -1.67748 -2.45454 0
M  V30 7971 H 726.248 -0.966661 -1.20395 0
M  V30 7972 H 728.206 0.19897 -4.10018 0
M  V30 7973 H 726.867 0.723688 -3.05649 0
M  V30 7974 H 726.06 -0.655908 -4.99714 0
M  V30 7975 H 725.662 -1.44095 -3.45127 0
M  V30 7976 H 727.954 -1.42895 -6.62259 0
M  V30 7977 H 728.897 -2.94227 -6.44078 0
M  V30 7978 H 729.305 -1.51935 -5.43669 0
M  V30 7979 N 728.703 1.26451 -0.940633 0
M  V30 7980 C 729.633 2.28773 -0.467479 0
M  V30 7981 C 730.614 1.63218 0.478955 0
M  V30 7982 O 731.799 1.90427 0.380929 0
M  V30 7983 C 728.929 3.46259 0.268656 0
M  V30 7984 C 727.883 4.23898 -0.591171 0
M  V30 7985 C 727.209 5.33993 0.274891 0
M  V30 7986 C 728.509 4.87974 -1.86223 0
M  V30 7987 H 730.203 2.68601 -1.32265 0
M  V30 7988 H 727.749 1.29123 -0.637436 0
M  V30 7989 H 729.702 4.16951 0.610696 0
M  V30 7990 H 728.426 3.05383 1.15796 0
M  V30 7991 H 727.085 3.54969 -0.916098 0
M  V30 7992 H 726.733 4.89358 1.16353 0
M  V30 7993 H 726.433 5.86849 -0.297006 0
M  V30 7994 H 727.957 6.07523 0.612213 0
M  V30 7995 H 729.371 5.50883 -1.58747 0
M  V30 7996 H 727.768 5.50945 -2.37866 0
M  V30 7997 H 728.838 4.10945 -2.57394 0
M  V30 7998 N 730.181 0.707592 1.40822 0
M  V30 7999 C 731.128 0.0499029 2.30746 0
M  V30 8000 C 732.098 -0.758718 1.47759 0
M  V30 8001 O 733.283 -0.724299 1.76518 0
M  V30 8002 C 730.423 -0.871756 3.33908 0
M  V30 8003 C 729.536 -0.0534655 4.31967 0
M  V30 8004 C 728.671 -0.973869 5.22197 0
M  V30 8005 C 727.71 -0.149194 6.11918 0
M  V30 8006 N 726.847 -1.02404 6.94592 0
M  V30 8007 H 731.687 0.822461 2.86426 0
M  V30 8008 H 729.224 0.417285 1.41057 0
M  V30 8009 H 731.182 -1.42028 3.9228 0
M  V30 8010 H 729.812 -1.61058 2.7975 0
M  V30 8011 H 728.864 0.612142 3.75442 0
M  V30 8012 H 730.176 0.585354 4.95353 0
M  V30 8013 H 729.33 -1.59121 5.85462 0
M  V30 8014 H 728.069 -1.64652 4.59065 0
M  V30 8015 H 727.074 0.481137 5.47691 0
M  V30 8016 H 728.299 0.519841 6.77107 0
M  V30 8017 H 726.245 -1.6825 6.34057 0
M  V30 8018 H 726.162 -0.441076 7.54712 0
M  V30 8019 H 727.43 -1.62782 7.62314 0
M  V30 8020 N 731.66 -1.50943 0.453197 0
M  V30 8021 C 733.071 -1.86699 -0.00619892 0
M  V30 8022 C 733.422 -1.3693 -1.40515 0
M  V30 8023 O 732.547 -0.726715 -2.03833 0
M  V30 8024 C 733.142 -3.38795 -0.018025 0
M  V30 8025 C 731.701 -3.74028 -0.421885 0
M  V30 8026 C 730.848 -2.74752 0.375087 0
M  V30 8027 H 733.799 -1.43942 0.668317 0
M  V30 8028 H 733.82 -3.71468 -0.824125 0
M  V30 8029 H 733.332 -3.74988 1.00028 0
M  V30 8030 H 731.433 -3.43431 -1.44521 0
M  V30 8031 H 731.546 -4.78908 -0.135664 0
M  V30 8032 H 729.91 -2.5414 -0.168794 0
M  V30 8033 H 730.693 -3.13787 1.39256 0
M  V30 8034 N 733.138 -0.185124 -1.56509 0
M  V30 8035 C 734.071 0.77877 -2.145 0
M  V30 8036 C 735.049 1.21649 -1.07891 0
M  V30 8037 O 736.233 1.30579 -1.35946 0
M  V30 8038 C 733.36 2.05048 -2.69579 0
M  V30 8039 C 732.406 1.75569 -3.88687 0
M  V30 8040 S 733.239 0.912642 -5.27666 0
M  V30 8041 C 734.395 2.19471 -5.8616 0
M  V30 8042 H 734.628 0.285751 -2.95924 0
M  V30 8043 H 732.161 0.0297417 -1.54371 0
M  V30 8044 H 734.119 2.78085 -3.01958 0
M  V30 8045 H 732.78 2.51462 -1.88216 0
M  V30 8046 H 731.973 2.69962 -4.25601 0
M  V30 8047 H 731.575 1.10619 -3.57267 0
M  V30 8048 H 733.867 3.14815 -5.99915 0
M  V30 8049 H 734.81 1.87005 -6.8296 0
M  V30 8050 H 735.218 2.31862 -5.14685 0
M  V30 8051 N 734.616 1.57351 0.0885366 0
M  V30 8052 C 735.546 2.05561 1.10757 0
M  V30 8053 C 736.527 0.945789 1.41382 0
M  V30 8054 O 737.712 1.21747 1.51299 0
M  V30 8055 C 734.842 2.48554 2.42566 0
M  V30 8056 C 733.796 3.63259 2.26334 0
M  V30 8057 C 733.122 3.9225 3.63378 0
M  V30 8058 C 734.422 4.93913 1.69844 0
M  V30 8059 H 736.116 2.90946 0.706468 0
M  V30 8060 H 733.662 1.39968 0.338385 0
M  V30 8061 H 735.615 2.8089 3.14132 0
M  V30 8062 H 734.339 1.60176 2.84625 0
M  V30 8063 H 732.998 3.31179 1.57213 0
M  V30 8064 H 732.646 3.0103 4.02976 0
M  V30 8065 H 732.346 4.69478 3.53362 0
M  V30 8066 H 733.87 4.27067 4.36401 0
M  V30 8067 H 735.284 5.24588 2.31258 0
M  V30 8068 H 733.681 5.75349 1.70569 0
M  V30 8069 H 734.751 4.80409 0.65843 0
M  V30 8070 N 736.094 -0.359525 1.53444 0
M  V30 8071 C 737.343 -1.09886 1.69139 0
M  V30 8072 C 737.656 -1.90285 0.452863 0
M  V30 8073 O 738.862 -2.67033 0.490459 0
M  V30 8074 C 737.318 -2.0028 2.99025 0
M  V30 8075 C 736.926 -1.25164 4.30161 0
M  V30 8076 C 738.67 -2.74168 3.24086 0
M  V30 8077 C 736.577 -2.14494 5.51132 0
M  V30 8078 H 735.507 -0.413936 0.630217 0
M  V30 8079 H 738.158 -0.359434 1.79945 0
M  V30 8080 H 736.54 -2.77978 2.82036 0
M  V30 8081 H 737.714 -0.524867 4.57801 0
M  V30 8082 H 736.029 -0.631116 4.11589 0
M  V30 8083 H 738.626 -3.41243 4.11652 0
M  V30 8084 H 738.969 -3.39868 2.40407 0
M  V30 8085 H 739.502 -2.0355 3.41778 0
M  V30 8086 H 736.241 -1.53362 6.37307 0
M  V30 8087 H 735.761 -2.85004 5.27762 0
M  V30 8088 H 737.44 -2.73914 5.86157 0
M  V30 8089 N 737.572 -1.44907 -0.619662 0
M  V30 8090 C 738.482 -1.55168 -1.75955 0
M  V30 8091 C 739.498 -0.43672 -1.6843 0
M  V30 8092 O 740.674 -0.695704 -1.89002 0
M  V30 8093 C 737.739 -1.50397 -3.12381 0
M  V30 8094 C 736.8 -2.72835 -3.31451 0
M  V30 8095 C 736.033 -2.68283 -4.61368 0
M  V30 8096 O 736.256 -1.74929 -5.42914 0
M  V30 8097 O 735.19 -3.59308 -4.82889 0
M  V30 8098 H 739.016 -2.51493 -1.7025 0
M  V30 8099 H 736.601 -1.27282 -0.782289 0
M  V30 8100 H 738.483 -1.50301 -3.93685 0
M  V30 8101 H 737.158 -0.572197 -3.18603 0
M  V30 8102 H 736.065 -2.78496 -2.49781 0
M  V30 8103 H 737.398 -3.65098 -3.30098 0
M  V30 8104 N 739.05 0.861098 -1.31996 0
M  V30 8105 C 740.275 1.65264 -1.2531 0
M  V30 8106 C 740.7 1.87265 0.177007 0
M  V30 8107 O 740.058 1.4208 1.12619 0
M  V30 8108 C 740.106 2.99284 -2.0115 0
M  V30 8109 O 739.21 3.89508 -1.3549 0
M  V30 8110 H 738.551 0.50409 -0.432192 0
M  V30 8111 H 741.081 1.07297 -1.74208 0
M  V30 8112 H 741.091 3.49154 -2.11081 0
M  V30 8113 H 739.766 2.82591 -3.05148 0
M  V30 8114 H 738.343 3.47966 -1.34066 0
M  V30 8115 N 740.528 1.15101 1.07655 0
M  V30 8116 C 741.777 0.918528 1.79572 0
M  V30 8117 C 742.09 -0.555922 1.87534 0
M  V30 8118 O 743.296 -0.905893 2.55941 0
M  V30 8119 C 741.752 1.59394 3.22679 0
M  V30 8120 C 741.36 3.1052 3.22927 0
M  V30 8121 C 743.104 1.44289 3.99225 0
M  V30 8122 C 741.011 3.70862 4.60668 0
M  V30 8123 H 739.941 0.340006 0.672987 0
M  V30 8124 H 742.592 1.38079 1.20857 0
M  V30 8125 H 740.974 1.05936 3.81567 0
M  V30 8126 H 742.148 3.70708 2.737 0
M  V30 8127 H 740.463 3.25351 2.59876 0
M  V30 8128 H 743.06 1.86766 5.01022 0
M  V30 8129 H 743.403 0.389975 4.14469 0
M  V30 8130 H 743.936 1.94826 3.46825 0
M  V30 8131 H 740.675 4.7604 4.50628 0
M  V30 8132 H 740.195 3.15456 5.10145 0
M  V30 8133 H 741.874 3.71607 5.29639 0
M  V30 8134 N 742.006 -1.2595 0.947325 0
M  V30 8135 C 743.234 -1.97544 0.615127 0
M  V30 8136 C 743.649 -1.70484 -0.811221 0
M  V30 8137 O 743.006 -0.97662 -1.5417 0
M  V30 8138 C 743.057 -3.51236 0.855328 0
M  V30 8139 O 742.778 -3.77359 2.22558 0
M  V30 8140 C 744.279 -4.40066 0.534515 0
M  V30 8141 H 741.499 -0.629888 0.231263 0
M  V30 8142 H 744.043 -1.60308 1.26971 0
M  V30 8143 H 742.198 -3.8661 0.247266 0
M  V30 8144 H 742.612 -4.71857 2.29022 0
M  V30 8145 H 744.086 -5.46838 0.753168 0
M  V30 8146 H 744.563 -4.35982 -0.530701 0
M  V30 8147 H 745.169 -4.10245 1.12158 0
M  V30 8148 N 743.484 -0.715051 -1.40445 0
M  V30 8149 C 744.761 -0.181503 -1.94756 0
M  V30 8150 C 745.141 1.31268 -1.65324 0
M  V30 8151 O 744.489 2.0686 -0.970631 0
M  V30 8152 C 744.699 -0.493663 -3.45491 0
M  V30 8153 C 746.047 -0.432032 -4.22396 0
M  V30 8154 O 747.071 -0.429692 -3.53599 0
M  V30 8155 O 745.93 -0.409091 -5.44967 0
M  V30 8156 H 743.024 -0.0263989 -0.826579 0
M  V30 8157 H 745.57 -0.792546 -1.50056 0
M  V30 8158 H 744.342 -1.52713 -3.6027 0
M  V30 8159 H 743.965 0.14737 -3.97327 0
M  V30 8160 N 744.962 1.50701 -0.461195 0
M  V30 8161 C 745.894 2.26124 0.374244 0
M  V30 8162 C 746.907 1.31064 0.965715 0
M  V30 8163 O 748.096 1.56647 0.855801 0
M  V30 8164 C 745.196 3.01996 1.5379 0
M  V30 8165 C 744.369 4.24336 1.06101 0
M  V30 8166 C 743.428 4.82585 2.09756 0
M  V30 8167 O 742.454 5.43775 1.68219 0
M  V30 8168 N 743.656 4.68712 3.42475 0
M  V30 8169 H 746.421 2.9846 -0.2723 0
M  V30 8170 H 743.982 1.59256 -0.291415 0
M  V30 8171 H 745.974 3.37846 2.22806 0
M  V30 8172 H 744.544 2.32521 2.08933 0
M  V30 8173 H 743.764 3.93707 0.197085 0
M  V30 8174 H 745.052 5.03678 0.720156 0
M  V30 8175 H 744.45 4.20026 3.78938 0
M  V30 8176 H 743.007 5.08858 4.07317 0
M  V30 8177 N 746.441 0.193421 1.56409 0
M  V30 8178 C 747.373 -0.759944 2.16235 0
M  V30 8179 C 748.386 -1.17797 1.12373 0
M  V30 8180 O 749.575 -1.11399 1.39472 0
M  V30 8181 C 746.675 -2.03735 2.70823 0
M  V30 8182 C 745.848 -1.77939 3.9957 0
M  V30 8183 C 744.907 -2.90111 4.39001 0
M  V30 8184 O 743.933 -2.59791 5.06456 0
M  V30 8185 N 745.135 -4.18426 4.02368 0
M  V30 8186 H 747.9 -0.248348 2.98669 0
M  V30 8187 H 745.461 0.0113966 1.61896 0
M  V30 8188 H 747.453 -2.77914 2.94187 0
M  V30 8189 H 746.023 -2.46022 1.92852 0
M  V30 8190 H 745.243 -0.875491 3.84355 0
M  V30 8191 H 746.531 -1.58099 4.83614 0
M  V30 8192 H 745.929 -4.45913 3.48106 0
M  V30 8193 H 744.486 -4.89237 4.30686 0
M  V30 8194 N 747.919 -1.57396 -0.0801906 0
M  V30 8195 C 748.867 -2.04136 -1.11495 0
M  V30 8196 C 749.861 -0.945137 -1.40583 0
M  V30 8197 O 751.067 -1.13028 -1.40088 0
M  V30 8198 H 747.442 -0.65076 -0.37685 0
M  V30 8199 H 749.413 -2.90205 -0.694526 0
M  V30 8200 C 748.162 -2.49399 -2.42272 0
M  V30 8201 H 747.485 -3.33339 -2.20737 0
M  V30 8202 H 748.925 -2.85864 -3.13142 0
M  V30 8203 C 747.384 -1.37341 -3.07635 0
M  V30 8204 O 747.914 -0.710829 -3.95361 0
M  V30 8205 N 746.12 -1.12064 -2.68123 0
M  V30 8206 H 745.667 -1.66126 -1.96875 0
M  V30 8207 H 745.625 -0.372916 -3.12181 0
M  V30 8208 N 749.397 0.351382 -1.53633 0
M  V30 8209 C 750.674 1.10903 -1.6112 0
M  V30 8210 C 751.054 2.06725 -0.427556 0
M  V30 8211 O 750.402 2.20992 0.580916 0
M  V30 8212 C 750.612 1.83561 -2.96827 0
M  V30 8213 C 751.96 2.37587 -3.51906 0
M  V30 8214 O 752.984 1.93669 -2.9895 0
M  V30 8215 O 751.843 3.17913 -4.44515 0
M  V30 8216 H 748.937 0.509558 -0.651368 0
M  V30 8217 H 751.483 0.353504 -1.65977 0
M  V30 8218 H 750.255 1.1371 -3.74414 0
M  V30 8219 H 749.878 2.6599 -2.95525 0
M  V30 8220 N 750.875 1.45233 0.611969 0
M  V30 8221 C 752.121 1.49242 1.37312 0
M  V30 8222 C 752.454 0.131963 1.93751 0
M  V30 8223 O 751.729 -0.852999 1.74798 0
M  V30 8224 C 752.012 2.56811 2.52428 0
M  V30 8225 C 751.865 4.02284 2.01215 0
M  V30 8226 C 753.184 2.60705 3.54572 0
M  V30 8227 H 750.303 0.54336 0.497925 0
M  V30 8228 H 752.945 1.77019 0.690242 0
M  V30 8229 H 751.095 2.33256 3.10683 0
M  V30 8230 H 752.767 4.37035 1.47643 0
M  V30 8231 H 751.01 4.1315 1.32248 0
M  V30 8232 H 751.681 4.7323 2.84178 0
M  V30 8233 H 754.157 2.81799 3.06151 0
M  V30 8234 H 753.033 3.37841 4.32614 0
M  V30 8235 H 753.294 1.65627 4.09903 0
M  V30 8236 N 752.353 -0.854086 1.3245 0
M  V30 8237 C 753.3 -1.96271 1.21434 0
M  V30 8238 C 754.27 -1.6582 0.0963851 0
M  V30 8239 O 755.455 -1.88851 0.27203 0
M  V30 8240 C 752.595 -3.31939 0.943952 0
M  V30 8241 C 751.708 -3.74885 2.14675 0
M  V30 8242 C 750.843 -4.99347 1.81179 0
M  V30 8243 C 749.882 -5.34785 2.97777 0
M  V30 8244 N 749.019 -6.50425 2.6437 0
M  V30 8245 H 753.859 -2.05025 2.16261 0
M  V30 8246 H 751.396 -1.00348 1.07558 0
M  V30 8247 H 753.354 -4.10076 0.767675 0
M  V30 8248 H 751.984 -3.22784 0.0324763 0
M  V30 8249 H 751.036 -2.92396 2.43328 0
M  V30 8250 H 752.348 -3.97068 3.01891 0
M  V30 8251 H 751.502 -5.85193 1.60107 0
M  V30 8252 H 750.241 -4.79101 0.911777 0
M  V30 8253 H 749.246 -4.47451 3.1948 0
M  V30 8254 H 750.471 -5.56988 3.88511 0
M  V30 8255 H 748.417 -6.31695 1.7691 0
M  V30 8256 H 748.334 -6.7263 3.45116 0
M  V30 8257 H 749.602 -7.39422 2.46729 0
M  V30 8258 N 753.831 -1.1567 -1.07043 0
M  V30 8259 C 755.059 -0.957471 -1.83412 0
M  V30 8260 C 755.474 0.494271 -1.82215 0
M  V30 8261 O 754.831 1.34288 -1.23584 0
M  V30 8262 C 754.882 -1.46784 -3.30359 0
M  V30 8263 O 754.603 -2.86271 -3.31633 0
M  V30 8264 C 756.104 -1.31054 -4.23485 0
M  V30 8265 H 753.324 -0.33986 -0.578564 0
M  V30 8266 H 755.868 -1.53518 -1.35102 0
M  V30 8267 H 754.023 -0.932586 -3.76007 0
M  V30 8268 H 754.437 -3.0948 -4.23465 0
M  V30 8269 H 755.911 -1.71605 -5.24648 0
M  V30 8270 H 756.388 -0.255107 -4.38458 0
M  V30 8271 H 756.994 -1.83503 -3.83676 0
M  V30 8272 N 755.309 1.25446 -0.953992 0
M  V30 8273 C 756.556 1.93143 -0.608429 0
M  V30 8274 C 756.884 1.74727 0.854451 0
M  V30 8275 O 756.139 1.0855 1.62836 0
M  V30 8276 C 756.438 3.45555 -0.912496 0
M  V30 8277 C 756.104 3.84126 -2.36131 0
M  V30 8278 C 754.766 3.94367 -2.75732 0
M  V30 8279 C 757.118 4.0324 -3.30223 0
M  V30 8280 C 754.446 4.21127 -4.08496 0
M  V30 8281 C 756.798 4.31493 -4.62598 0
M  V30 8282 C 755.462 4.3995 -5.01996 0
M  V30 8283 H 754.732 0.706762 -0.22264 0
M  V30 8284 H 757.379 1.49005 -1.20291 0
M  V30 8285 H 755.684 3.91091 -0.235618 0
M  V30 8286 H 757.381 3.9612 -0.623714 0
M  V30 8287 H 753.971 3.76711 -2.04418 0
M  V30 8288 H 758.155 3.94744 -3.00817 0
M  V30 8289 H 753.411 4.2589 -4.38665 0
M  V30 8290 H 757.585 4.45227 -5.35486 0
M  V30 8291 H 755.212 4.60439 -6.04896 0
M  V30 8292 N 756.787 0.722489 1.40064 0
M  V30 8293 C 758.015 0.274838 2.05066 0
M  V30 8294 C 758.43 -1.08586 1.54449 0
M  V30 8295 O 757.787 -1.68375 0.704003 0
M  V30 8296 C 757.838 0.253673 3.60609 0
M  V30 8297 O 757.559 1.56064 4.0936 0
M  V30 8298 C 759.06 -0.211684 4.42794 0
M  V30 8299 H 756.28 0.12226 0.659768 0
M  V30 8300 H 758.824 0.982632 1.79345 0
M  V30 8301 H 756.979 -0.405137 3.85276 0
M  V30 8302 H 757.393 1.46576 5.03603 0
M  V30 8303 H 758.867 -0.175341 5.51721 0
M  V30 8304 H 759.344 -1.25493 4.2089 0
M  V30 8305 H 759.95 0.4171 4.2325 0
M  V30 8306 N 758.265 -1.50454 0.469181 0
M  V30 8307 C 759.676 -1.86695 0.0136034 0
M  V30 8308 C 760.027 -1.38413 -1.39055 0
M  V30 8309 O 759.152 -0.748294 -2.03051 0
M  V30 8310 C 759.747 -3.38795 0.0179098 0
M  V30 8311 C 758.306 -3.74455 -0.382191 0
M  V30 8312 C 757.453 -2.74338 0.404207 0
M  V30 8313 H 760.404 -1.43225 0.683547 0
M  V30 8314 H 760.425 -3.72321 -0.78468 0
M  V30 8315 H 759.937 -3.73906 1.04 0
M  V30 8316 H 758.038 -3.44944 -1.4087 0
M  V30 8317 H 758.151 -4.79025 -0.084862 0
M  V30 8318 H 756.515 -2.54305 -0.141829 0
M  V30 8319 H 757.298 -3.12293 1.42577 0
M  V30 8320 N 759.743 -0.201713 -1.56304 0
M  V30 8321 C 760.676 0.755976 -2.15314 0
M  V30 8322 C 761.654 1.20497 -1.09175 0
M  V30 8323 O 762.838 1.2913 -1.37323 0
M  V30 8324 C 759.965 2.02177 -2.71739 0
M  V30 8325 C 759.011 1.71436 -3.90528 0
M  V30 8326 S 759.844 0.856624 -5.28604 0
M  V30 8327 C 761 2.13242 -5.88455 0
M  V30 8328 H 761.233 0.254348 -2.9621 0
M  V30 8329 H 758.766 0.0133669 -1.54394 0
M  V30 8330 H 760.724 2.74867 -3.04891 0
M  V30 8331 H 759.385 2.49452 -1.90873 0
M  V30 8332 H 758.578 2.65433 -4.28441 0
M  V30 8333 H 758.18 1.06823 -3.5842 0
M  V30 8334 H 760.472 3.08435 -6.0322 0
M  V30 8335 H 761.415 1.7975 -6.84905 0
M  V30 8336 H 761.823 2.2639 -5.17115 0
M  V30 8337 N 761.222 1.57436 0.0718424 0
M  V30 8338 C 762.132 2.07039 1.10326 0
M  V30 8339 C 763.148 0.999918 1.424 0
M  V30 8340 O 764.324 1.31462 1.52577 0
M  V30 8341 C 761.389 2.50439 2.39752 0
M  V30 8342 C 760.45 3.71784 2.14651 0
M  V30 8343 C 759.683 4.13104 3.37906 0
M  V30 8344 O 759.906 3.54298 4.47023 0
M  V30 8345 O 758.84 5.05894 3.26121 0
M  V30 8346 H 762.666 2.95239 0.711872 0
M  V30 8347 H 760.251 1.46638 0.28597 0
M  V30 8348 H 762.133 2.78876 3.15921 0
M  V30 8349 H 760.808 1.65368 2.78271 0
M  V30 8350 H 759.715 3.48431 1.36187 0
M  V30 8351 H 761.048 4.57707 1.81012 0
M  V30 8352 N 762.7 -0.34323 1.53817 0
M  V30 8353 C 763.928 -1.10348 1.75017 0
M  V30 8354 C 764.343 -1.82345 0.489475 0
M  V30 8355 O 763.7 -1.74362 -0.538886 0
M  V30 8356 C 763.751 -2.11672 2.93048 0
M  V30 8357 O 763.472 -1.42603 4.14241 0
M  V30 8358 C 764.973 -3.0007 3.26301 0
M  V30 8359 H 762.193 -0.329056 0.584776 0
M  V30 8360 H 764.737 -0.395339 2.00642 0
M  V30 8361 H 762.892 -2.78051 2.69753 0
M  V30 8362 H 763.306 -2.10294 4.80496 0
M  V30 8363 H 764.78 -3.67101 4.12239 0
M  V30 8364 H 765.257 -3.66105 2.42618 0
M  V30 8365 H 765.863 -2.3928 3.51604 0
M  V30 8366 N 764.178 -1.45556 -0.604258 0
M  V30 8367 C 765.125 -1.54482 -1.71476 0
M  V30 8368 C 766.095 -0.390479 -1.61445 0
M  V30 8369 O 767.28 -0.604371 -1.80975 0
M  V30 8370 C 764.42 -1.52064 -3.09791 0
M  V30 8371 C 763.533 -2.78073 -3.30604 0
M  V30 8372 C 762.668 -2.67304 -4.59044 0
M  V30 8373 C 761.707 -3.88352 -4.73127 0
M  V30 8374 N 760.844 -3.76098 -5.9287 0
M  V30 8375 H 765.684 -2.49349 -1.63184 0
M  V30 8376 H 763.221 -1.23725 -0.795641 0
M  V30 8377 H 765.179 -1.48649 -3.89819 0
M  V30 8378 H 763.809 -0.607442 -3.17033 0
M  V30 8379 H 762.861 -2.91561 -2.44329 0
M  V30 8380 H 764.173 -3.67847 -3.36883 0
M  V30 8381 H 763.327 -2.61875 -5.47272 0
M  V30 8382 H 762.066 -1.75135 -4.55169 0
M  V30 8383 H 761.071 -3.94137 -3.83322 0
M  V30 8384 H 762.296 -4.81591 -4.78797 0
M  V30 8385 H 760.242 -2.867 -5.90033 0
M  V30 8386 H 760.159 -4.59509 -6.00323 0
M  V30 8387 H 761.427 -3.74607 -6.83586 0
M  V30 8388 N 765.656 0.84705 -1.32902 0
M  V30 8389 C 766.603 1.95624 -1.22473 0
M  V30 8390 C 767.573 1.65767 -0.105178 0
M  V30 8391 O 768.758 1.88704 -0.282042 0
M  V30 8392 C 765.898 3.31434 -0.961542 0
M  V30 8393 C 765.011 3.73741 -2.1666 0
M  V30 8394 C 764.146 4.98379 -1.83825 0
M  V30 8395 C 763.185 5.33199 -3.00609 0
M  V30 8396 N 762.322 6.49014 -2.67816 0
M  V30 8397 H 767.162 2.03875 -2.17345 0
M  V30 8398 H 764.699 0.997764 -1.08088 0
M  V30 8399 H 766.657 4.09663 -0.789411 0
M  V30 8400 H 765.287 3.22762 -0.0495938 0
M  V30 8401 H 764.339 2.91102 -2.44875 0
M  V30 8402 H 765.651 3.95462 -3.03993 0
M  V30 8403 H 764.805 5.84336 -1.63208 0
M  V30 8404 H 763.544 4.78611 -0.937172 0
M  V30 8405 H 762.549 4.4575 -3.21849 0
M  V30 8406 H 763.774 5.5492 -3.9146 0
M  V30 8407 H 761.72 6.30748 -1.80258 0
M  V30 8408 H 761.637 6.7079 -3.48679 0
M  V30 8409 H 762.905 7.38103 -2.50647 0
M  V30 8410 N 767.134 1.16236 1.06428 0
M  V30 8411 C 768.383 0.937523 1.78587 0
M  V30 8412 C 768.696 -0.536 1.88113 0
M  V30 8413 O 769.902 -0.878697 2.56887 0
M  V30 8414 C 768.358 1.62808 3.2097 0
M  V30 8415 C 767.966 3.13927 3.19615 0
M  V30 8416 C 769.71 1.48515 3.97673 0
M  V30 8417 C 767.617 3.75727 4.56709 0
M  V30 8418 H 766.547 0.347125 0.669343 0
M  V30 8419 H 769.198 1.39353 1.19385 0
M  V30 8420 H 767.58 1.09977 3.80422 0
M  V30 8421 H 768.754 3.7359 2.69753 0
M  V30 8422 H 767.069 3.28089 2.56411 0
M  V30 8423 H 769.666 1.92069 4.99013 0
M  V30 8424 H 770.009 0.433913 4.14032 0
M  V30 8425 H 770.542 1.98494 3.44739 0
M  V30 8426 H 767.281 4.80793 4.45554 0
M  V30 8427 H 766.801 3.20849 5.0677 0
M  V30 8428 H 768.48 3.77203 5.25668 0
M  V30 8429 N 768.612 -1.24939 0.960631 0
M  V30 8430 C 769.84 -1.96881 0.636045 0
M  V30 8431 C 770.255 -1.71334 -0.793093 0
M  V30 8432 O 769.612 -0.992917 -1.53125 0
M  V30 8433 C 769.663 -3.50309 0.892533 0
M  V30 8434 O 769.384 -3.74977 2.26548 0
M  V30 8435 C 770.885 -4.39474 0.581159 0
M  V30 8436 H 768.105 -0.627399 0.237931 0
M  V30 8437 H 770.649 -1.58952 1.28664 0
M  V30 8438 H 768.804 -3.86326 0.288257 0
M  V30 8439 H 769.218 -4.69401 2.34014 0
M  V30 8440 H 770.692 -5.46008 0.811125 0
M  V30 8441 H 771.169 -4.3652 -0.48443 0
M  V30 8442 H 771.775 -4.09032 1.16502 0
M  V30 8443 N 770.09 -0.729906 -1.39679 0
M  V30 8444 C 771.315 -0.284345 -2.05442 0
M  V30 8445 C 771.74 1.07056 -1.54663 0
M  V30 8446 O 771.098 1.67732 -0.688157 0
M  V30 8447 C 771.146 -0.290089 -3.59431 0
M  V30 8448 O 770.25 0.723978 -4.05995 0
M  V30 8449 H 769.591 -0.130311 -0.651088 0
M  V30 8450 H 772.121 -0.994403 -1.78809 0
M  V30 8451 H 772.131 -0.132712 -4.07784 0
M  V30 8452 H 770.806 -1.27877 -3.95753 0
M  V30 8453 H 769.383 0.533154 -3.69069 0
M  V30 8454 N 771.568 1.50203 -0.477153 0
M  V30 8455 C 772.515 2.28656 0.31386 0
M  V30 8456 C 773.485 1.33977 0.981802 0
M  V30 8457 O 774.67 1.62919 0.993072 0
M  V30 8458 C 771.81 3.16027 1.38639 0
M  V30 8459 C 770.923 4.25743 0.732615 0
M  V30 8460 C 770.058 5.00363 1.78355 0
M  V30 8461 C 769.097 6.01945 1.11035 0
M  V30 8462 N 768.234 6.6982 2.10441 0
M  V30 8463 H 773.074 2.958 -0.361445 0
M  V30 8464 H 770.611 1.45867 -0.190093 0
M  V30 8465 H 772.569 3.6504 2.01994 0
M  V30 8466 H 771.199 2.50917 2.03077 0
M  V30 8467 H 770.251 3.80398 -0.0136546 0
M  V30 8468 H 771.563 4.98393 0.201513 0
M  V30 8469 H 770.717 5.53124 2.49276 0
M  V30 8470 H 769.456 4.27432 2.34847 0
M  V30 8471 H 768.461 5.48438 0.386797 0
M  V30 8472 H 769.686 6.76851 0.552248 0
M  V30 8473 H 767.632 5.99677 2.65939 0
M  V30 8474 H 767.549 7.38366 1.62332 0
M  V30 8475 H 768.817 7.27196 2.80724 0
M  V30 8476 N 773.046 0.209999 1.56195 0
M  V30 8477 C 773.956 -0.716459 2.23392 0
M  V30 8478 C 774.972 -1.22291 1.23778 0
M  V30 8479 O 776.148 -1.26694 1.56558 0
M  V30 8480 C 773.213 -1.91261 2.89172 0
M  V30 8481 C 772.274 -1.44927 4.04097 0
M  V30 8482 C 771.507 -2.5884 4.66731 0
M  V30 8483 O 771.73 -3.76693 4.2832 0
M  V30 8484 O 770.664 -2.30701 5.55932 0
M  V30 8485 H 774.49 -0.174089 3.03201 0
M  V30 8486 H 772.075 -0.0199505 1.49387 0
M  V30 8487 H 773.957 -2.6114 3.30733 0
M  V30 8488 H 772.632 -2.4433 2.12331 0
M  V30 8489 H 771.539 -0.718839 3.67129 0
M  V30 8490 H 772.872 -0.965084 4.82646 0
M  V30 8491 N 774.524 -1.57472 -0.0634922 0
M  V30 8492 C 775.456 -2.00999 -1.10145 0
M  V30 8493 C 776.469 -0.917219 -1.34503 0
M  V30 8494 O 777.658 -1.19501 -1.32596 0
M  V30 8495 C 774.758 -2.34089 -2.45063 0
M  V30 8496 C 773.931 -3.65317 -2.40546 0
M  V30 8497 C 772.99 -3.85982 -3.57637 0
M  V30 8498 O 772.016 -4.5747 -3.38689 0
M  V30 8499 N 773.218 -3.28971 -4.78287 0
M  V30 8500 H 775.983 -2.90656 -0.730714 0
M  V30 8501 H 773.544 -1.59926 -0.252017 0
M  V30 8502 H 775.536 -2.4508 -3.22053 0
M  V30 8503 H 774.106 -1.50279 -2.74107 0
M  V30 8504 H 773.326 -3.65003 -1.48885 0
M  V30 8505 H 774.614 -4.51468 -2.34636 0
M  V30 8506 H 774.012 -2.70962 -4.96584 0
M  V30 8507 H 772.569 -3.45398 -5.5276 0
M  V30 8508 N 776.003 0.335068 -1.53997 0
M  V30 8509 C 776.966 1.39481 -1.81872 0
M  V30 8510 C 777.966 1.4524 -0.690078 0
M  V30 8511 O 779.156 1.45467 -0.958377 0
M  V30 8512 C 776.288 2.78329 -1.9684 0
M  V30 8513 H 777.481 1.16024 -2.76547 0
M  V30 8514 H 775.034 0.569926 -1.45539 0
M  V30 8515 H 775.769 3.07058 -1.04337 0
M  V30 8516 H 775.554 2.75544 -2.78958 0
M  V30 8517 H 777.044 3.55016 -2.19894 0
M  V30 8518 N 777.481 1.45874 0.596531 0
M  V30 8519 C 778.728 1.50467 1.35521 0
M  V30 8520 C 779.056 0.150802 1.93915 0
M  V30 8521 O 778.311 -0.851913 1.76184 0
M  V30 8522 C 778.61 2.54034 2.51399 0
M  V30 8523 C 778.276 3.9844 2.11085 0
M  V30 8524 C 776.938 4.37758 1.99804 0
M  V30 8525 C 779.29 4.89209 1.79788 0
M  V30 8526 C 776.618 5.65727 1.55465 0
M  V30 8527 C 778.97 6.17602 1.36931 0
M  V30 8528 C 777.634 6.5584 1.24218 0
M  V30 8529 H 776.904 0.550597 0.495907 0
M  V30 8530 H 779.551 1.79279 0.673145 0
M  V30 8531 H 777.856 2.18832 3.24992 0
M  V30 8532 H 779.553 2.54822 3.09624 0
M  V30 8533 H 776.143 3.67353 2.20794 0
M  V30 8534 H 780.327 4.59562 1.87395 0
M  V30 8535 H 775.583 5.94139 1.44253 0
M  V30 8536 H 779.757 6.87373 1.11764 0
M  V30 8537 H 777.384 7.54897 0.896353 0
M  V30 8538 N 778.959 -0.83999 1.33349 0
M  V30 8539 C 779.889 -1.965 1.26135 0
M  V30 8540 C 780.87 -1.69505 0.142152 0
M  V30 8541 O 782.055 -1.91346 0.331743 0
M  V30 8542 C 779.185 -3.32632 0.99866 0
M  V30 8543 C 778.139 -3.74021 2.08068 0
M  V30 8544 C 777.465 -5.07947 1.67014 0
M  V30 8545 C 778.765 -3.87925 3.49731 0
M  V30 8546 H 780.459 -2.02793 2.20262 0
M  V30 8547 H 778.005 -0.974297 1.06035 0
M  V30 8548 H 779.958 -4.10903 0.934696 0
M  V30 8549 H 778.682 -3.26593 0.0217759 0
M  V30 8550 H 777.341 -2.98012 2.13505 0
M  V30 8551 H 776.989 -4.98378 0.680316 0
M  V30 8552 H 776.689 -5.36611 2.39422 0
M  V30 8553 H 778.213 -5.88695 1.62082 0
M  V30 8554 H 779.627 -4.5651 3.46802 0
M  V30 8555 H 778.024 -4.28023 4.20614 0
M  V30 8556 H 779.094 -2.90407 3.88319 0
M  V30 8557 N 780.437 -1.16799 -1.0581 0
M  V30 8558 C 781.665 -0.97687 -1.82387 0
M  V30 8559 C 782.08 0.474917 -1.82729 0
M  V30 8560 O 781.437 1.3297 -1.25001 0
M  V30 8561 C 781.488 -1.50279 -3.28783 0
M  V30 8562 O 781.209 -2.89772 -3.28578 0
M  V30 8563 C 782.71 -1.35538 -4.22071 0
M  V30 8564 H 779.93 -0.345977 -0.574927 0
M  V30 8565 H 782.474 -1.54942 -1.33466 0
M  V30 8566 H 780.629 -0.972414 -3.74997 0
M  V30 8567 H 781.043 -3.13954 -4.20159 0
M  V30 8568 H 782.517 -1.7716 -5.22799 0
M  V30 8569 H 782.994 -0.301598 -4.38163 0
M  V30 8570 H 783.6 -1.87562 -3.81708 0
M  V30 8571 N 781.915 1.24427 -0.967243 0
M  V30 8572 C 782.845 2.2773 -0.515899 0
M  V30 8573 C 783.826 1.64197 0.444227 0
M  V30 8574 O 785.011 1.91193 0.340451 0
M  V30 8575 C 782.141 3.46751 0.195149 0
M  V30 8576 C 781.095 4.22548 -0.680953 0
M  V30 8577 C 780.421 5.34456 0.161561 0
M  V30 8578 C 781.721 4.83914 -1.96532 0
M  V30 8579 H 783.415 2.65735 -1.37933 0
M  V30 8580 H 780.961 1.27742 -0.664681 0
M  V30 8581 H 782.914 4.18153 0.522117 0
M  V30 8582 H 781.638 3.07771 1.09292 0
M  V30 8583 H 780.297 3.52946 -0.991186 0
M  V30 8584 H 779.945 4.91716 1.05947 0
M  V30 8585 H 779.645 5.86087 -0.421418 0
M  V30 8586 H 781.169 6.08685 0.483211 0
M  V30 8587 H 782.583 5.47392 -1.70396 0
M  V30 8588 H 780.98 5.45775 -2.49499 0
M  V30 8589 H 782.05 4.05393 -2.66053 0
M  V30 8590 N 783.393 0.737304 1.3929 0
M  V30 8591 C 784.618 0.295237 2.05288 0
M  V30 8592 C 785.043 -1.06235 1.55228 0
M  V30 8593 O 784.401 -1.67365 0.697043 0
M  V30 8594 C 784.449 0.309146 3.59272 0
M  V30 8595 O 783.553 -0.702437 4.06374 0
M  V30 8596 H 782.894 0.133762 0.650387 0
M  V30 8597 H 785.424 1.00387 1.78279 0
M  V30 8598 H 785.434 0.154336 4.07708 0
M  V30 8599 H 784.109 1.29974 3.95069 0
M  V30 8600 H 782.686 -0.513574 3.69346 0
M  V30 8601 N 784.871 -1.49948 0.485112 0
M  V30 8602 C 786.117 -2.02695 -0.0651022 0
M  V30 8603 C 786.45 -1.36534 -1.38102 0
M  V30 8604 O 785.725 -0.495677 -1.88078 0
M  V30 8605 C 786.008 -3.59337 -0.234285 0
M  V30 8606 C 785.861 -4.3605 1.10364 0
M  V30 8607 C 787.18 -4.28996 -0.982351 0
M  V30 8608 H 784.299 -0.736666 -0.0221856 0
M  V30 8609 H 786.941 -1.7913 0.633433 0
M  V30 8610 H 785.091 -3.79546 -0.829262 0
M  V30 8611 H 786.763 -4.27377 1.73627 0
M  V30 8612 H 785.006 -3.99236 1.69686 0
M  V30 8613 H 785.677 -5.43959 0.938743 0
M  V30 8614 H 788.153 -4.13346 -0.477904 0
M  V30 8615 H 787.029 -5.38379 -1.06955 0
M  V30 8616 H 787.29 -3.93135 -2.02231 0
M  V30 8617 N 786.349 -0.21828 -1.56081 0
M  V30 8618 C 787.279 0.687922 -2.23136 0
M  V30 8619 C 788.26 1.20357 -1.202 0
M  V30 8620 O 789.445 1.24817 -1.48776 0
M  V30 8621 C 786.575 1.89762 -2.90874 0
M  V30 8622 C 785.529 1.51595 -4.00254 0
M  V30 8623 C 784.855 2.80415 -4.55271 0
M  V30 8624 C 786.155 0.708404 -5.17474 0
M  V30 8625 H 787.849 0.128854 -2.99123 0
M  V30 8626 H 785.395 0.0605354 -1.43873 0
M  V30 8627 H 787.348 2.53699 -3.36474 0
M  V30 8628 H 786.072 2.4816 -2.1233 0
M  V30 8629 H 784.731 0.900058 -3.55379 0
M  V30 8630 H 784.379 3.36951 -3.73461 0
M  V30 8631 H 784.079 2.55613 -5.2909 0
M  V30 8632 H 785.603 3.453 -5.03587 0
M  V30 8633 H 787.017 1.2514 -5.59476 0
M  V30 8634 H 785.414 0.557593 -5.97504 0
M  V30 8635 H 786.484 -0.285679 -4.84058 0
M  V30 8636 N 787.827 1.57504 0.0551401 0
M  V30 8637 C 788.76 2.00155 1.09604 0
M  V30 8638 C 789.738 0.881274 1.36647 0
M  V30 8639 O 790.922 1.14498 1.49742 0
M  V30 8640 C 788.049 2.35246 2.43674 0
M  V30 8641 C 787.095 3.57452 2.32659 0
M  V30 8642 S 787.928 5.07639 1.7048 0
M  V30 8643 C 789.084 5.45947 3.06093 0
M  V30 8644 H 789.317 2.88131 0.732635 0
M  V30 8645 H 786.85 1.52122 0.264252 0
M  V30 8646 H 788.808 2.56136 3.20787 0
M  V30 8647 H 787.469 1.47769 2.7717 0
M  V30 8648 H 786.662 3.79576 3.31569 0
M  V30 8649 H 786.264 3.36279 1.63685 0
M  V30 8650 H 788.556 5.45036 4.0242 0
M  V30 8651 H 789.499 6.4656 2.88732 0
M  V30 8652 H 789.907 4.73419 3.07466 0
M  V30 8653 N 789.305 -0.326896 1.54172 0
M  V30 8654 C 790.253 -1.42232 1.84046 0
M  V30 8655 C 791.247 -1.53705 0.712115 0
M  V30 8656 O 792.453 -1.56131 0.895724 0
M  V30 8657 H 788.828 -0.474568 0.583343 0
M  V30 8658 H 790.799 -1.14259 2.75658 0
M  V30 8659 C 789.548 -2.78502 2.08163 0
M  V30 8660 H 788.871 -2.70447 2.94446 0
M  V30 8661 H 790.311 -3.54228 2.33021 0
M  V30 8662 C 788.77 -3.25415 0.872152 0
M  V30 8663 O 789.3 -4.01621 0.0797648 0
M  V30 8664 N 787.506 -2.82418 0.684716 0
M  V30 8665 H 787.053 -2.20566 1.33072 0
M  V30 8666 H 787.011 -3.14159 -0.123031 0
M  V30 8667 N 790.784 -1.46188 -0.588786 0
M  V30 8668 C 791.747 -1.55882 -1.68029 0
M  V30 8669 C 792.747 -0.436515 -1.54762 0
M  V30 8670 O 793.937 -0.700626 -1.59489 0
M  V30 8671 C 791.069 -1.47332 -3.07418 0
M  V30 8672 H 792.262 -2.5315 -1.60795 0
M  V30 8673 H 789.815 -1.33908 -0.806116 0
M  V30 8674 H 790.55 -0.513193 -3.20214 0
M  V30 8675 H 790.335 -2.28753 -3.18456 0
M  V30 8676 H 791.825 -1.57187 -3.86887 0
M  V30 8677 N 792.262 0.832906 -1.33792 0
M  V30 8678 C 793.508 1.59089 -1.25772 0
M  V30 8679 C 793.841 1.93414 0.174601 0
M  V30 8680 O 793.116 1.59195 1.11746 0
M  V30 8681 C 793.399 2.89699 -2.13885 0
M  V30 8682 C 793.252 2.62017 -3.65605 0
M  V30 8683 C 794.571 3.91182 -2.01654 0
M  V30 8684 H 791.69 0.577232 -0.458227 0
M  V30 8685 H 794.332 0.960227 -1.6395 0
M  V30 8686 H 792.482 3.4352 -1.81456 0
M  V30 8687 H 794.154 2.14582 -4.08353 0
M  V30 8688 H 792.397 1.95621 -3.87189 0
M  V30 8689 H 793.068 3.55112 -4.2261 0
M  V30 8690 H 795.544 3.46684 -2.30107 0
M  V30 8691 H 794.42 4.80391 -2.65548 0
M  V30 8692 H 794.681 4.30861 -0.990536 0
M  V30 8693 N 793.74 1.17359 1.05189 0
M  V30 8694 C 794.65 0.904984 2.16442 0
M  V30 8695 C 795.666 -0.12686 1.73537 0
M  V30 8696 O 796.842 0.0524127 2.01332 0
M  V30 8697 C 793.907 0.422019 3.44122 0
M  V30 8698 C 792.968 1.52045 4.01473 0
M  V30 8699 C 792.201 1.06044 5.23059 0
M  V30 8700 O 792.424 -0.0854023 5.70336 0
M  V30 8701 O 791.358 1.85349 5.72651 0
M  V30 8702 H 795.184 1.8356 2.41949 0
M  V30 8703 H 792.769 0.95447 1.14936 0
M  V30 8704 H 794.651 0.160208 4.21095 0
M  V30 8705 H 793.326 -0.480444 3.20115 0
M  V30 8706 H 792.233 1.83615 3.25939 0
M  V30 8707 H 793.566 2.39863 4.29798 0
M  V30 8708 N 795.218 -1.23913 0.973828 0
M  V30 8709 C 796.166 -2.27141 0.50098 0
M  V30 8710 C 797.16 -1.63623 -0.438631 0
M  V30 8711 O 798.366 -1.77253 -0.313247 0
M  V30 8712 H 794.741 -0.73817 0.14356 0
M  V30 8713 H 796.712 -2.64392 1.38346 0
M  V30 8714 C 795.461 -3.47195 -0.187377 0
M  V30 8715 H 794.784 -3.96318 0.526535 0
M  V30 8716 H 796.224 -4.21252 -0.481962 0
M  V30 8717 C 794.683 -3.05678 -1.41642 0
M  V30 8718 O 795.213 -3.1338 -2.51309 0
M  V30 8719 N 793.419 -2.60661 -1.28469 0
M  V30 8720 H 792.966 -2.54594 -0.39238 0
M  V30 8721 H 792.924 -2.33249 -2.10813 0
M  V30 8722 N 796.696 -0.74468 -1.38897 0
M  V30 8723 C 797.944 -0.296298 -1.99916 0
M  V30 8724 C 798.265 1.12325 -1.59399 0
M  V30 8725 O 797.535 1.76658 -0.846689 0
M  V30 8726 H 796.115 -0.106561 -0.73936 0
M  V30 8727 H 798.777 -0.956793 -1.69798 0
M  V30 8728 H 797.873 -0.352356 -3.10105 0
M  V30 8729 N 798.174 1.49689 -0.493057 0
M  V30 8730 C 799.402 2.06836 0.0513141 0
M  V30 8731 C 799.817 1.35436 1.31539 0
M  V30 8732 O 799.174 0.430248 1.77356 0
M  V30 8733 C 799.225 3.60107 0.317003 0
M  V30 8734 O 798.946 4.2882 -0.896957 0
M  V30 8735 C 800.447 4.33945 0.905902 0
M  V30 8736 H 797.667 0.670787 -0.0169048 0
M  V30 8737 H 800.211 1.92574 -0.688139 0
M  V30 8738 H 798.366 3.74099 1.00642 0
M  V30 8739 H 798.78 5.20395 -0.654939 0
M  V30 8740 H 800.254 5.42087 1.04144 0
M  V30 8741 H 800.731 3.95895 1.90168 0
M  V30 8742 H 801.337 4.2454 0.254195 0
M  V30 8743 N 799.652 0.226554 1.55963 0
M  V30 8744 C 800.9 -0.402991 1.98041 0
M  V30 8745 C 801.221 -1.59938 1.11557 0
M  V30 8746 O 800.491 -1.9494 0.193719 0
M  V30 8747 H 799.071 -0.15188 0.731397 0
M  V30 8748 H 801.733 0.320613 1.92245 0
M  V30 8749 H 800.829 -0.725937 3.0354 0
M  V30 8750 N 801.13 -1.57531 -0.0467866 0
M  V30 8751 C 802.355 -1.93087 -0.757123 0
M  V30 8752 C 802.78 -0.825116 -1.69037 0
M  V30 8753 O 802.138 0.220449 -1.79955 0
M  V30 8754 C 802.186 -3.27669 -1.5055 0
M  V30 8755 O 801.29 -3.18667 -2.61773 0
M  V30 8756 H 800.631 -0.631597 -0.204892 0
M  V30 8757 H 803.161 -2.04599 -0.00755232 0
M  V30 8758 H 803.171 -3.6214 -1.87932 0
M  V30 8759 H 801.846 -4.07717 -0.820931 0
M  V30 8760 H 800.423 -2.95798 -2.27064 0
M  V30 8761 N 802.608 0.318715 -1.54344 0
M  V30 8762 C 803.538 1.39751 -1.87061 0
M  V30 8763 C 804.519 1.53741 -0.727848 0
M  V30 8764 O 805.704 1.67541 -0.982016 0
M  V30 8765 C 802.834 2.76446 -2.10226 0
M  V30 8766 C 801.788 2.77239 -3.26071 0
M  V30 8767 C 801.114 4.17056 -3.34617 0
M  V30 8768 C 802.414 2.40555 -4.63606 0
M  V30 8769 H 804.108 1.12619 -2.77412 0
M  V30 8770 H 801.654 0.540318 -1.33479 0
M  V30 8771 H 803.607 3.51985 -2.31699 0
M  V30 8772 H 802.331 3.05066 -1.16629 0
M  V30 8773 H 800.99 2.04155 -3.04493 0
M  V30 8774 H 800.638 4.42824 -2.3857 0
M  V30 8775 H 800.338 4.18492 -4.12478 0
M  V30 8776 H 801.862 4.94401 -3.5833 0
M  V30 8777 H 803.276 3.05808 -4.84927 0
M  V30 8778 H 801.673 2.53234 -5.44052 0
M  V30 8779 H 802.743 1.35698 -4.65526 0
M  V30 8780 N 804.086 1.46499 0.581025 0
M  V30 8781 C 805.049 1.5677 1.672 0
M  V30 8782 C 806.049 0.444716 1.54528 0
M  V30 8783 O 807.239 0.709074 1.59116 0
M  V30 8784 C 804.371 1.4896 3.06633 0
M  V30 8785 H 805.564 2.54 1.5945 0
M  V30 8786 H 803.117 1.34334 0.799003 0
M  V30 8787 H 803.852 0.530168 3.19937 0
M  V30 8788 H 803.637 2.30439 3.17239 0
M  V30 8789 H 805.127 1.59237 3.86048 0
M  V30 8790 N 805.565 -0.825799 1.34232 0
M  V30 8791 C 806.981 -1.11848 1.13851 0
M  V30 8792 C 807.181 -2.01405 -0.0619031 0
M  V30 8793 O 806.237 -2.41465 -0.738287 0
M  V30 8794 C 807.55 -1.76797 2.43235 0
M  V30 8795 C 809.098 -1.89304 2.49265 0
M  V30 8796 C 809.573 -2.57669 3.78643 0
M  V30 8797 N 811.064 -2.65171 3.79788 0
M  V30 8798 C 811.799 -3.1879 4.76614 0
M  V30 8799 N 811.295 -3.72995 5.83821 0
M  V30 8800 N 813.088 -3.17164 4.64073 0
M  V30 8801 H 805.239 -0.230049 2.11151 0
M  V30 8802 H 807.502 -0.164609 0.9336 0
M  V30 8803 H 807.208 -1.18455 3.31152 0
M  V30 8804 H 807.082 -2.76693 2.56361 0
M  V30 8805 H 809.469 -2.46796 1.6179 0
M  V30 8806 H 809.55 -0.883191 2.4007 0
M  V30 8807 H 809.194 -2.00833 4.66507 0
M  V30 8808 H 809.124 -3.59152 3.8512 0
M  V30 8809 H 811.615 -2.26746 3.02315 0
M  V30 8810 H 811.928 -4.12151 6.53721 0
M  V30 8811 H 810.273 -3.71246 5.87538 0
M  V30 8812 H 813.464 -2.74082 3.79469 0
M  V30 8813 H 813.637 -3.58647 5.397 0
M  V30 8814 N 807.043 -1.17915 -1.04565 0
M  V30 8815 C 808.292 -0.965816 -1.77073 0
M  V30 8816 C 808.605 0.506005 -1.88942 0
M  V30 8817 O 809.811 0.837717 -2.58253 0
M  V30 8818 C 808.267 -1.67894 -3.18339 0
M  V30 8819 C 807.875 -3.18972 -3.1458 0
M  V30 8820 C 809.619 -1.54823 -3.9526 0
M  V30 8821 C 807.526 -3.82946 -4.50674 0
M  V30 8822 H 806.456 -0.357729 -0.663736 0
M  V30 8823 H 809.107 -1.41235 -1.17153 0
M  V30 8824 H 807.489 -1.16016 -3.78624 0
M  V30 8825 H 808.663 -3.77835 -2.63776 0
M  V30 8826 H 806.978 -3.32127 -2.51159 0
M  V30 8827 H 809.575 -1.99984 -4.95894 0
M  V30 8828 H 809.918 -0.499727 -4.1329 0
M  V30 8829 H 810.451 -2.03953 -3.41538 0
M  V30 8830 H 807.19 -4.8782 -4.37849 0
M  V30 8831 H 806.71 -3.2887 -5.01602 0
M  V30 8832 H 808.389 -3.85518 -5.196 0
M  V30 8833 N 808.521 1.23394 -0.980386 0
M  V30 8834 C 809.468 2.24859 -0.520298 0
M  V30 8835 C 810.438 1.60144 0.440821 0
M  V30 8836 O 811.623 1.87593 0.348369 0
M  V30 8837 C 808.763 3.44675 0.171145 0
M  V30 8838 C 807.876 4.23947 -0.830233 0
M  V30 8839 C 807.011 5.31079 -0.113597 0
M  V30 8840 C 806.05 6.02058 -1.10419 0
M  V30 8841 N 805.187 7.00862 -0.416709 0
M  V30 8842 H 810.027 2.63579 -1.39032 0
M  V30 8843 H 807.564 1.29556 -0.696682 0
M  V30 8844 H 809.522 4.13024 0.588838 0
M  V30 8845 H 808.152 3.06755 1.00504 0
M  V30 8846 H 807.204 3.55016 -1.36631 0
M  V30 8847 H 808.516 4.72945 -1.58508 0
M  V30 8848 H 807.67 6.05622 0.36146 0
M  V30 8849 H 806.409 4.83022 0.673854 0
M  V30 8850 H 805.414 5.26307 -1.59 0
M  V30 8851 H 806.639 6.52203 -1.8923 0
M  V30 8852 H 804.585 6.55057 0.351535 0
M  V30 8853 H 804.502 7.47804 -1.11021 0
M  V30 8854 H 805.77 7.79492 0.0359606 0
M  V30 8855 N 809.999 0.752036 1.385 0
M  V30 8856 C 811.247 0.306895 1.99756 0
M  V30 8857 C 811.568 -1.11478 1.59992 0
M  V30 8858 O 810.838 -1.76206 0.856045 0
M  V30 8859 H 809.418 0.11048 0.738785 0
M  V30 8860 H 812.08 0.965785 1.69289 0
M  V30 8861 H 811.176 0.368797 3.09913 0
M  V30 8862 N 811.477 -1.49425 0.500989 0
M  V30 8863 C 812.407 -2.31971 -0.266775 0
M  V30 8864 C 813.388 -1.40245 -0.962563 0
M  V30 8865 O 814.573 -1.69154 -0.953968 0
M  V30 8866 C 811.703 -3.20757 -1.33163 0
M  V30 8867 C 810.657 -4.21275 -0.75572 0
M  V30 8868 C 809.983 -4.98997 -1.92109 0
M  V30 8869 C 811.283 -5.21686 0.253213 0
M  V30 8870 H 812.977 -2.96408 0.422237 0
M  V30 8871 H 810.523 -1.4254 0.204505 0
M  V30 8872 H 812.476 -3.77315 -1.87646 0
M  V30 8873 H 811.2 -2.54263 -2.04983 0
M  V30 8874 H 809.859 -3.65861 -0.232637 0
M  V30 8875 H 809.507 -4.28951 -2.62698 0
M  V30 8876 H 809.207 -5.67011 -1.54182 0
M  V30 8877 H 810.731 -5.584 -2.47026 0
M  V30 8878 H 812.145 -5.72939 -0.203483 0
M  V30 8879 H 810.542 -5.9759 0.548322 0
M  V30 8880 H 811.612 -4.70596 1.16909 0
M  V30 8881 N 812.955 -0.234822 -1.55841 0
M  V30 8882 C 813.865 0.680828 -2.24504 0
M  V30 8883 C 814.881 1.20306 -1.25708 0
M  V30 8884 O 816.057 1.24188 -1.58554 0
M  V30 8885 C 813.122 1.86636 -2.92178 0
M  V30 8886 C 812.183 1.3848 -4.06352 0
M  V30 8887 C 811.416 2.51382 -4.70789 0
M  V30 8888 O 811.639 3.69831 -4.34259 0
M  V30 8889 O 810.573 2.21828 -5.59532 0
M  V30 8890 H 814.399 0.12583 -3.03439 0
M  V30 8891 H 811.984 -0.00381817 -1.494 0
M  V30 8892 H 813.866 2.55845 -3.34845 0
M  V30 8893 H 812.541 2.40921 -2.16192 0
M  V30 8894 H 811.448 0.660341 -3.68226 0
M  V30 8895 H 812.781 0.888177 -4.8412 0
M  V30 8896 N 814.433 1.57553 0.0384317 0
M  V30 8897 C 815.682 1.88022 0.730108 0
M  V30 8898 C 815.995 0.83209 1.77019 0
M  V30 8899 O 817.201 1.0257 2.51379 0
M  V30 8900 C 815.657 3.33637 1.3496 0
M  V30 8901 C 815.265 4.46659 0.346352 0
M  V30 8902 C 817.009 3.73266 2.02169 0
M  V30 8903 C 814.916 5.8333 0.973652 0
M  V30 8904 H 813.846 0.701496 0.276442 0
M  V30 8905 H 816.497 1.83493 -0.0158028 0
M  V30 8906 H 814.879 3.32882 2.1449 0
M  V30 8907 H 816.053 4.58868 -0.421558 0
M  V30 8908 H 814.368 4.15802 -0.223133 0
M  V30 8909 H 816.965 4.72689 2.49938 0
M  V30 8910 H 817.308 3.04776 2.8358 0
M  V30 8911 H 817.841 3.76156 1.29427 0
M  V30 8912 H 814.58 6.55197 0.199163 0
M  V30 8913 H 814.1 5.7486 1.71162 0
M  V30 8914 H 815.779 6.29757 1.48376 0
M  V30 8915 N 815.911 -0.310526 1.54511 0
M  V30 8916 C 816.874 -1.3657 1.84068 0
M  V30 8917 C 817.874 -1.44123 0.713097 0
M  V30 8918 O 819.064 -1.43924 0.981399 0
M  V30 8919 C 816.196 -2.75162 2.01243 0
M  V30 8920 H 817.389 -1.1161 2.78358 0
M  V30 8921 H 814.942 -0.546699 1.46427 0
M  V30 8922 H 815.677 -3.05359 1.09208 0
M  V30 8923 H 815.462 -2.71071 2.83307 0
M  V30 8924 H 816.952 -3.51473 2.25514 0
M  V30 8925 N 817.389 -1.46805 -0.573248 0
M  V30 8926 C 818.637 -1.52302 -1.32847 0
M  V30 8927 C 818.958 -0.180159 -1.94166 0
M  V30 8928 O 818.228 0.794291 -1.79075 0
M  V30 8929 H 816.808 -0.56097 -0.493276 0
M  V30 8930 H 819.47 -1.82998 -0.670642 0
M  V30 8931 H 818.566 -2.28089 -2.13031 0
M  V30 8932 N 818.867 0.818669 -1.34668 0
M  V30 8933 C 819.814 1.92983 -1.26595 0
M  V30 8934 C 820.784 1.65506 -0.140315 0
M  V30 8935 O 821.969 1.88063 -0.322005 0
M  V30 8936 C 819.109 3.2932 -1.03163 0
M  V30 8937 C 818.222 3.69061 -2.24539 0
M  V30 8938 C 817.357 4.94368 -1.94355 0
M  V30 8939 C 816.396 5.26702 -3.11851 0
M  V30 8940 N 815.533 6.43187 -2.81522 0
M  V30 8941 H 820.373 1.99219 -2.2162 0
M  V30 8942 H 817.91 0.974612 -1.1018 0
M  V30 8943 H 819.868 4.07897 -0.87613 0
M  V30 8944 H 818.498 3.22584 -0.118045 0
M  V30 8945 H 817.55 2.85842 -2.50995 0
M  V30 8946 H 818.862 3.88924 -3.12313 0
M  V30 8947 H 818.016 5.80742 -1.75566 0
M  V30 8948 H 816.755 4.76515 -1.03848 0
M  V30 8949 H 815.76 4.38823 -3.31231 0
M  V30 8950 H 816.985 5.46492 -4.03142 0
M  V30 8951 H 814.931 6.26783 -1.93596 0
M  V30 8952 H 814.848 6.63243 -3.62829 0
M  V30 8953 H 816.116 7.32621 -2.66247 0
M  V30 8954 N 820.346 1.18468 1.03938 0
M  V30 8955 C 821.574 1.00576 1.80809 0
M  V30 8956 C 821.989 -0.445786 1.83462 0
M  V30 8957 O 821.346 -1.30964 1.27101 0
M  V30 8958 C 821.397 1.55491 3.26351 0
M  V30 8959 O 821.118 2.94963 3.23926 0
M  V30 8960 C 822.619 1.42236 4.19862 0
M  V30 8961 H 819.839 0.35508 0.56935 0
M  V30 8962 H 822.383 1.57046 1.30984 0
M  V30 8963 H 820.538 1.03195 3.73403 0
M  V30 8964 H 820.952 3.20598 4.15111 0
M  V30 8965 H 822.426 1.85455 5.19914 0
M  V30 8966 H 822.903 0.371267 4.37628 0
M  V30 8967 H 823.509 1.9361 3.78675 0
M  V30 8968 N 821.824 -1.22873 0.986916 0
M  V30 8969 C 823.072 -1.91084 0.658121 0
M  V30 8970 C 823.393 -1.77304 -0.811675 0
M  V30 8971 O 822.663 -1.15649 -1.58121 0
M  V30 8972 H 821.243 -0.707251 0.240427 0
M  V30 8973 H 823.905 -1.49357 1.25213 0
M  V30 8974 H 823.001 -2.98373 0.915428 0
M  V30 8975 N 823.302 -0.75937 -1.38099 0
M  V30 8976 C 824.527 -0.327859 -2.04792 0
M  V30 8977 C 824.952 1.03752 -1.56899 0
M  V30 8978 O 824.31 1.66235 -0.723581 0
M  V30 8979 C 824.358 -0.366264 -3.58735 0
M  V30 8980 O 823.462 0.637697 -4.0744 0
M  V30 8981 H 822.803 -0.144092 -0.648177 0
M  V30 8982 H 825.333 -1.03211 -1.7666 0
M  V30 8983 H 825.343 -0.219179 -4.07411 0
M  V30 8984 H 824.018 -1.36243 -3.92951 0
M  V30 8985 H 822.595 0.454749 -3.70117 0
M  V30 8986 N 824.78 1.49157 -0.508906 0
M  V30 8987 C 826.005 2.07376 0.0315182 0
M  V30 8988 C 826.43 1.36575 1.2934 0
M  V30 8989 O 825.788 0.424963 1.76249 0
M  V30 8990 C 825.836 3.59661 0.260118 0
M  V30 8991 O 824.94 3.90255 1.33322 0
M  V30 8992 H 824.281 0.663334 -0.029739 0
M  V30 8993 H 826.811 1.91857 -0.710791 0
M  V30 8994 H 826.821 4.05056 0.489225 0
M  V30 8995 H 825.496 4.10601 -0.661794 0
M  V30 8996 H 824.073 3.56661 1.08844 0
M  V30 8997 N 826.258 0.243083 1.55714 0
M  V30 8998 C 827.206 -0.674349 2.2261 0
M  V30 8999 C 828.2 -1.18307 1.21243 0
M  V30 9000 O 829.406 -1.1404 1.39265 0
M  V30 9001 H 825.781 -0.235941 0.714028 0
M  V30 9002 H 827.752 -0.0869446 2.98273 0
M  V30 9003 C 826.501 -1.86206 2.93637 0
M  V30 9004 H 825.824 -1.47975 3.71407 0
M  V30 9005 H 827.264 -2.4813 3.43813 0
M  V30 9006 C 825.723 -2.73084 1.97298 0
M  V30 9007 O 826.253 -3.72497 1.50361 0
M  V30 9008 N 824.459 -2.39571 1.64482 0
M  V30 9009 H 824.006 -1.5878 2.02846 0
M  V30 9010 H 823.964 -2.97976 1.00288 0
M  V30 9011 N 827.736 -1.57571 -0.0300757 0
M  V30 9012 C 828.684 -2.0758 -1.04944 0
M  V30 9013 C 829.678 -0.989384 -1.37505 0
M  V30 9014 O 830.884 -1.17427 -1.36422 0
M  V30 9015 H 827.259 -0.662419 -0.355956 0
M  V30 9016 H 829.23 -2.92268 -0.601848 0
M  V30 9017 C 827.979 -2.5698 -2.34215 0
M  V30 9018 H 827.302 -3.40193 -2.10021 0
M  V30 9019 H 828.742 -2.95682 -3.03888 0
M  V30 9020 C 827.201 -1.47059 -3.03109 0
M  V30 9021 O 827.731 -0.83625 -3.92899 0
M  V30 9022 N 825.937 -1.20538 -2.64422 0
M  V30 9023 H 825.484 -1.72305 -1.9149 0
M  V30 9024 H 825.442 -0.472045 -3.10836 0
M  V30 9025 N 829.214 0.302327 -1.54673 0
M  V30 9026 C 830.162 1.39286 -1.86285 0
M  V30 9027 C 831.156 1.52553 -0.736478 0
M  V30 9028 O 832.362 1.54686 -0.92045 0
M  V30 9029 H 828.737 0.465228 -0.590819 0
M  V30 9030 H 830.708 1.09859 -2.77441 0
M  V30 9031 C 829.457 2.75155 -2.12567 0
M  V30 9032 H 828.78 2.65728 -2.98712 0
M  V30 9033 H 830.22 3.50476 -2.38627 0
M  V30 9034 C 828.679 3.23987 -0.923813 0
M  V30 9035 O 829.209 4.01443 -0.143649 0
M  V30 9036 N 827.415 2.81293 -0.72956 0
M  V30 9037 H 826.962 2.18421 -1.36565 0
M  V30 9038 H 826.92 3.14315 0.0730351 0
M  V30 9039 N 830.692 1.47107 0.565454 0
M  V30 9040 C 831.941 1.5257 1.31929 0
M  V30 9041 C 832.254 0.189092 1.94684 0
M  V30 9042 O 833.46 0.121657 2.71227 0
M  V30 9043 C 831.916 2.68914 2.39193 0
M  V30 9044 C 831.524 4.09069 1.82665 0
M  V30 9045 C 833.268 2.83663 3.1581 0
M  V30 9046 C 831.175 5.16726 2.87661 0
M  V30 9047 H 830.105 0.567869 0.496025 0
M  V30 9048 H 832.756 1.73361 0.60151 0
M  V30 9049 H 831.138 2.41486 3.13848 0
M  V30 9050 H 832.312 4.46364 1.14438 0
M  V30 9051 H 830.627 3.99135 1.1866 0
M  V30 9052 H 833.224 3.61261 3.94201 0
M  V30 9053 H 833.567 1.91804 3.69482 0
M  V30 9054 H 834.1 3.10821 2.48265 0
M  V30 9055 H 830.839 6.10433 2.38854 0
M  V30 9056 H 830.359 4.83957 3.54324 0
M  V30 9057 H 832.038 5.43319 3.51303 0
M  V30 9058 N 832.17 -0.811516 1.35101 0
M  V30 9059 C 833.447 -1.55491 1.18667 0
M  V30 9060 C 833.827 -2.09775 -0.236189 0
M  V30 9061 O 833.175 -1.91989 -1.23905 0
M  V30 9062 C 833.385 -2.66732 2.25067 0
M  V30 9063 C 834.733 -3.35201 2.60625 0
M  V30 9064 O 835.757 -2.76998 2.23943 0
M  V30 9065 O 834.616 -4.40334 3.23679 0
M  V30 9066 H 831.71 -0.686783 0.460716 0
M  V30 9067 H 834.256 -0.851903 1.46768 0
M  V30 9068 H 833.028 -2.24457 3.20523 0
M  V30 9069 H 832.651 -3.44673 1.98208 0
M  V30 9070 N 833.648 -1.19017 -1.03309 0
M  V30 9071 C 834.611 -0.926076 -2.09658 0
M  V30 9072 C 835.611 0.0917077 -1.60538 0
M  V30 9073 O 836.801 -0.142574 -1.73616 0
M  V30 9074 C 833.933 -0.390958 -3.38651 0
M  V30 9075 H 835.126 -1.86923 -2.3452 0
M  V30 9076 H 832.679 -1.00325 -1.19853 0
M  V30 9077 H 833.414 0.558446 -3.19456 0
M  V30 9078 H 833.199 -1.12474 -3.75622 0
M  V30 9079 H 834.689 -0.225131 -4.16993 0
M  V30 9080 N 835.127 1.22348 -0.993418 0
M  V30 9081 C 836.373 1.91689 -0.680217 0
M  V30 9082 C 836.728 1.75912 0.779269 0
M  V30 9083 O 836.021 1.11761 1.55628 0
M  V30 9084 C 836.215 3.42477 -1.02197 0
M  V30 9085 C 836.044 3.72923 -2.51313 0
M  V30 9086 C 834.814 3.9291 -3.17726 0
M  V30 9087 C 837.012 3.7736 -3.49434 0
M  V30 9088 N 834.994 4.10672 -4.56313 0
M  V30 9089 C 836.365 4.00269 -4.73481 0
M  V30 9090 C 838.42 3.60211 -3.43733 0
M  V30 9091 C 837.123 4.0781 -5.92523 0
M  V30 9092 C 839.149 3.69011 -4.62152 0
M  V30 9093 C 838.511 3.92371 -5.85 0
M  V30 9094 H 834.61 0.722086 -0.300193 0
M  V30 9095 H 837.194 1.47273 -1.27353 0
M  V30 9096 H 835.365 3.85699 -0.457223 0
M  V30 9097 H 837.097 3.99204 -0.664702 0
M  V30 9098 H 833.852 3.90345 -2.68193 0
M  V30 9099 H 834.276 4.2348 -5.28199 0
M  V30 9100 H 838.918 3.41137 -2.49771 0
M  V30 9101 H 836.636 4.25688 -6.86888 0
M  V30 9102 H 840.222 3.5708 -4.59331 0
M  V30 9103 H 839.102 3.9901 -6.75101 0
M  V30 9104 N 836.605 0.766683 1.37694 0
M  V30 9105 C 837.852 0.328714 1.99814 0
M  V30 9106 C 838.18 -1.09333 1.60862 0
M  V30 9107 O 837.435 -1.7657 0.8439 0
M  V30 9108 C 837.734 0.413831 3.54996 0
M  V30 9109 C 837.4 1.7934 4.137 0
M  V30 9110 C 836.062 2.17092 4.29447 0
M  V30 9111 C 838.414 2.69776 4.45949 0
M  V30 9112 C 835.742 3.44726 4.74743 0
M  V30 9113 C 838.094 3.96814 4.92667 0
M  V30 9114 C 836.758 4.34618 5.0662 0
M  V30 9115 H 836.028 0.120285 0.731172 0
M  V30 9116 H 838.675 0.97972 1.64541 0
M  V30 9117 H 836.98 -0.320723 3.90485 0
M  V30 9118 H 838.677 0.0563369 4.0096 0
M  V30 9119 H 835.267 1.48997 4.01868 0
M  V30 9120 H 839.451 2.41871 4.33373 0
M  V30 9121 H 834.707 3.73917 4.83731 0
M  V30 9122 H 838.881 4.67022 5.16588 0
M  V30 9123 H 836.508 5.33578 5.41478 0
M  V30 9124 N 838.083 -1.48885 0.516809 0
M  V30 9125 C 839.332 -2.01686 -0.0239899 0
M  V30 9126 C 839.645 -1.40029 -1.3657 0
M  V30 9127 O 840.851 -1.84249 -1.9941 0
M  V30 9128 C 839.307 -3.59779 -0.0931825 0
M  V30 9129 C 838.915 -4.30416 1.24283 0
M  V30 9130 C 840.659 -4.20471 -0.583507 0
M  V30 9131 C 838.566 -5.80408 1.13494 0
M  V30 9132 H 837.496 -0.753892 -0.0127376 0
M  V30 9133 H 840.147 -1.71273 0.65861 0
M  V30 9134 H 838.529 -3.86976 -0.840577 0
M  V30 9135 H 839.703 -4.14905 2.00476 0
M  V30 9136 H 838.018 -3.81539 1.66785 0
M  V30 9137 H 840.615 -5.30333 -0.681987 0
M  V30 9138 H 840.958 -3.84898 -1.58617 0
M  V30 9139 H 841.491 -3.97654 0.107814 0
M  V30 9140 H 838.23 -6.20532 2.11235 0
M  V30 9141 H 837.75 -5.98368 0.414167 0
M  V30 9142 H 839.429 -6.41781 0.820162 0
M  V30 9143 N 839.561 -0.251338 -1.55583 0
M  V30 9144 C 840.809 0.371434 -1.98657 0
M  V30 9145 C 841.13 1.58143 -1.14087 0
M  V30 9146 O 840.4 1.94607 -0.224708 0
M  V30 9147 H 838.98 0.140225 -0.733721 0
M  V30 9148 H 841.642 -0.351157 -1.9171 0
M  V30 9149 H 840.738 0.677554 -3.04657 0
M  V30 9150 N 841.039 1.57585 0.0217189 0
M  V30 9151 C 842.286 1.89606 0.711045 0
M  V30 9152 C 842.614 0.849535 1.74966 0
M  V30 9153 O 841.869 -0.14856 1.95135 0
M  V30 9154 C 842.168 3.28377 1.41079 0
M  V30 9155 C 841.834 4.48035 0.507454 0
M  V30 9156 C 840.496 4.80504 0.258672 0
M  V30 9157 C 842.848 5.21071 -0.115793 0
M  V30 9158 C 840.176 5.83393 -0.622013 0
M  V30 9159 C 842.528 6.24897 -0.984224 0
M  V30 9160 C 841.192 6.55836 -1.2424 0
M  V30 9161 H 840.462 0.693817 0.26019 0
M  V30 9162 H 843.109 1.91478 -0.0291424 0
M  V30 9163 H 841.414 3.22528 2.22448 0
M  V30 9164 H 843.111 3.50404 1.94982 0
M  V30 9165 H 839.701 4.22653 0.711516 0
M  V30 9166 H 843.885 4.96259 0.0634327 0
M  V30 9167 H 839.141 6.05736 -0.830267 0
M  V30 9168 H 843.315 6.8063 -1.47363 0
M  V30 9169 H 840.942 7.35383 -1.92653 0
M  V30 9170 N 842.517 -0.29412 1.54831 0
M  V30 9171 C 843.745 -1.04724 1.78439 0
M  V30 9172 C 844.16 -1.80695 0.547239 0
M  V30 9173 O 843.517 -1.75989 -0.483141 0
M  V30 9174 C 843.568 -2.02242 2.99634 0
M  V30 9175 O 843.289 -1.29352 4.18568 0
M  V30 9176 C 844.79 -2.89537 3.35683 0
M  V30 9177 H 842.01 -0.310285 0.594949 0
M  V30 9178 H 844.554 -0.331306 2.01798 0
M  V30 9179 H 842.709 -2.69328 2.78462 0
M  V30 9180 H 843.123 -1.94901 4.86943 0
M  V30 9181 H 844.597 -3.538 4.23709 0
M  V30 9182 H 845.074 -3.58201 2.54143 0
M  V30 9183 H 845.68 -2.27973 3.59038 0
M  V30 9184 N 843.995 -1.47404 -0.557645 0
M  V30 9185 C 845.406 -1.47872 -1.13977 0
M  V30 9186 C 845.757 -0.233176 -1.94809 0
M  V30 9187 O 844.882 0.661945 -2.06027 0
M  V30 9188 C 845.477 -2.67926 -2.07368 0
M  V30 9189 C 844.036 -2.71354 -2.60852 0
M  V30 9190 C 843.183 -2.40967 -1.37223 0
M  V30 9191 H 846.134 -1.54921 -0.344268 0
M  V30 9192 H 846.155 -2.44871 -2.91236 0
M  V30 9193 H 845.667 -3.58562 -1.48509 0
M  V30 9194 H 843.768 -1.84855 -3.23511 0
M  V30 9195 H 843.881 -3.72032 -3.01876 0
M  V30 9196 H 842.245 -1.91541 -1.67882 0
M  V30 9197 H 843.028 -3.33811 -0.801583 0
M  V30 9198 N 845.473 0.80434 -1.35529 0
M  V30 9199 C 846.701 1.59283 -1.32048 0
M  V30 9200 C 847.116 1.88527 0.101556 0
M  V30 9201 O 846.473 1.48975 1.05417 0
M  V30 9202 C 846.524 2.92276 -2.12737 0
M  V30 9203 O 846.245 2.64299 -3.49396 0
M  V30 9204 C 847.746 3.86631 -2.16867 0
M  V30 9205 H 844.966 0.494523 -0.453528 0
M  V30 9206 H 847.51 0.999415 -1.78415 0
M  V30 9207 H 845.665 3.48125 -1.69964 0
M  V30 9208 H 846.079 3.4923 -3.91329 0
M  V30 9209 H 847.553 4.77053 -2.77712 0
M  V30 9210 H 848.03 4.23384 -1.16803 0
M  V30 9211 H 848.636 3.36717 -2.59811 0
M  V30 9212 N 846.951 1.19563 1.02676 0
M  V30 9213 C 847.881 0.959024 2.12897 0
M  V30 9214 C 848.862 -0.108382 1.69754 0
M  V30 9215 O 850.047 0.0470698 1.94143 0
M  V30 9216 C 847.177 0.499211 3.43693 0
M  V30 9217 C 846.131 1.5087 4.00528 0
M  V30 9218 C 845.457 0.905884 5.2697 0
M  V30 9219 C 846.757 2.88954 4.3509 0
M  V30 9220 H 848.451 1.88084 2.32948 0
M  V30 9221 H 845.997 0.905731 1.11949 0
M  V30 9222 H 847.95 0.320965 4.20176 0
M  V30 9223 H 846.674 -0.458205 3.2337 0
M  V30 9224 H 845.333 1.67413 3.26142 0
M  V30 9225 H 844.981 -0.0591506 5.02965 0
M  V30 9226 H 844.681 1.58 5.65959 0
M  V30 9227 H 846.205 0.73848 6.06118 0
M  V30 9228 H 847.619 2.75981 5.02501 0
M  V30 9229 H 846.016 3.53177 4.85166 0
M  V30 9230 H 847.086 3.41447 3.44299 0
M  V30 9231 N 848.429 -1.21819 0.999893 0
M  V30 9232 C 849.361 -2.23356 0.514256 0
M  V30 9233 C 850.374 -1.5795 -0.394413 0
M  V30 9234 O 851.563 -1.77427 -0.195428 0
M  V30 9235 C 848.663 -3.37797 -0.273207 0
M  V30 9236 C 847.836 -4.32791 0.633293 0
M  V30 9237 C 846.895 -5.26098 -0.103673 0
M  V30 9238 O 845.921 -5.66881 0.513269 0
M  V30 9239 N 847.123 -5.63764 -1.38383 0
M  V30 9240 H 849.888 -2.65653 1.3874 0
M  V30 9241 H 847.449 -1.3619 0.875431 0
M  V30 9242 H 849.441 -3.97209 -0.775053 0
M  V30 9243 H 848.011 -2.94527 -1.0475 0
M  V30 9244 H 847.231 -3.71595 1.31571 0
M  V30 9245 H 848.519 -4.93196 1.25039 0
M  V30 9246 H 847.917 -5.32614 -1.90627 0
M  V30 9247 H 846.474 -6.25562 -1.83073 0
M  V30 9248 N 849.908 -0.773975 -1.37286 0
M  V30 9249 C 851.133 -0.349561 -2.04433 0
M  V30 9250 C 851.558 1.02082 -1.5799 0
M  V30 9251 O 850.916 1.65458 -0.741172 0
M  V30 9252 C 850.964 -0.404292 -3.58326 0
M  V30 9253 O 850.068 0.594447 -4.08093 0
M  V30 9254 H 849.409 -0.150959 -0.646612 0
M  V30 9255 H 851.939 -1.05079 -1.75555 0
M  V30 9256 H 851.949 -0.262378 -4.07155 0
M  V30 9257 H 850.624 -1.40403 -3.91484 0
M  V30 9258 H 849.201 0.415468 -3.70578 0
M  V30 9259 N 851.386 1.48609 -0.524698 0
M  V30 9260 C 852.632 2.02797 0.0113382 0
M  V30 9261 C 852.965 1.40147 1.34433 0
M  V30 9262 O 852.24 0.545368 1.86698 0
M  V30 9263 C 852.523 3.59832 0.138931 0
M  V30 9264 C 852.376 4.32971 -1.21886 0
M  V30 9265 C 853.695 4.3145 0.868265 0
M  V30 9266 H 850.814 0.736995 0.00264645 0
M  V30 9267 H 853.456 1.77388 -0.680704 0
M  V30 9268 H 851.606 3.81612 0.72834 0
M  V30 9269 H 853.278 4.22624 -1.84897 0
M  V30 9270 H 851.521 3.94597 -1.80211 0
M  V30 9271 H 852.192 5.41279 -1.08263 0
M  V30 9272 H 854.668 4.14468 0.368145 0
M  V30 9273 H 853.544 5.41025 0.926428 0
M  V30 9274 H 853.805 3.98358 1.91737 0
M  V30 9275 N 852.864 0.259585 1.55447 0
M  V30 9276 C 854.113 -0.362163 1.98422 0
M  V30 9277 C 854.426 -1.58135 1.1512 0
M  V30 9278 O 855.632 -2.27506 1.48166 0
M  V30 9279 C 854.088 -0.695722 3.53111 0
M  V30 9280 C 853.696 0.502784 4.4517 0
M  V30 9281 C 855.44 -1.28096 4.04712 0
M  V30 9282 C 853.347 0.144674 5.91223 0
M  V30 9283 H 852.277 -0.139092 0.74106 0
M  V30 9284 H 854.928 0.361798 1.79898 0
M  V30 9285 H 853.31 -1.47816 3.67378 0
M  V30 9286 H 854.484 1.27994 4.42667 0
M  V30 9287 H 852.799 1.0038 4.0412 0
M  V30 9288 H 855.396 -1.56243 5.11363 0
M  V30 9289 H 855.739 -2.20969 3.52815 0
M  V30 9290 H 856.272 -0.561146 3.93822 0
M  V30 9291 H 853.011 1.04087 6.47183 0
M  V30 9292 H 852.531 -0.596023 5.96831 0
M  V30 9293 H 854.21 -0.268651 6.46442 0
M  V30 9294 N 854.342 -1.57594 -0.0133615 0
M  V30 9295 C 855.588 -1.91105 -0.696457 0
M  V30 9296 C 855.943 -0.859872 -1.72116 0
M  V30 9297 O 855.236 0.129579 -1.91161 0
M  V30 9298 C 855.43 -3.29121 -1.39336 0
M  V30 9299 C 855.259 -4.47565 -0.437666 0
M  V30 9300 C 854.029 -5.05272 -0.0529454 0
M  V30 9301 C 856.227 -5.13479 0.290537 0
M  V30 9302 N 854.209 -6.07232 0.902355 0
M  V30 9303 C 855.58 -6.10147 1.10097 0
M  V30 9304 C 857.635 -4.96627 0.355804 0
M  V30 9305 C 856.338 -6.91778 1.97069 0
M  V30 9306 C 858.364 -5.78833 1.21271 0
M  V30 9307 C 857.726 -6.75083 2.01102 0
M  V30 9308 H 853.825 -0.747882 -0.228464 0
M  V30 9309 H 856.409 -1.94651 0.0438462 0
M  V30 9310 H 854.58 -3.26474 -2.10403 0
M  V30 9311 H 856.312 -3.501 -2.03008 0
M  V30 9312 H 853.067 -4.71747 -0.418486 0
M  V30 9313 H 853.491 -6.6289 1.37498 0
M  V30 9314 H 858.133 -4.22077 -0.247105 0
M  V30 9315 H 855.851 -7.65662 2.58433 0
M  V30 9316 H 859.437 -5.67838 1.26694 0
M  V30 9317 H 858.317 -7.37587 2.66337 0
M  V30 9318 N 855.82 0.285905 -1.54985 0
M  V30 9319 C 857.067 1.0192 -1.74982 0
M  V30 9320 C 857.395 1.86743 -0.543816 0
M  V30 9321 O 856.65 1.89874 0.473972 0
M  V30 9322 C 856.949 1.94193 -3.0004 0
M  V30 9323 C 856.615 1.25225 -4.33162 0
M  V30 9324 C 855.277 1.06149 -4.69346 0
M  V30 9325 C 857.629 0.760427 -5.15623 0
M  V30 9326 C 854.957 0.365991 -5.85557 0
M  V30 9327 C 857.309 0.0785787 -6.32551 0
M  V30 9328 C 855.973 -0.124002 -6.67385 0
M  V30 9329 H 855.243 0.372951 -0.640304 0
M  V30 9330 H 857.89 0.292652 -1.89251 0
M  V30 9331 H 856.195 2.73426 -2.80616 0
M  V30 9332 H 857.892 2.51029 -3.12707 0
M  V30 9333 H 854.482 1.41081 -4.04715 0
M  V30 9334 H 858.666 0.895466 -4.88155 0
M  V30 9335 H 853.922 0.198193 -6.11079 0
M  V30 9336 H 858.096 -0.310339 -6.95708 0
M  V30 9337 H 855.723 -0.664918 -7.57287 0
M  V30 9338 N 857.298 1.47698 0.54982 0
M  V30 9339 C 858.546 1.54397 1.30407 0
M  V30 9340 C 858.867 0.211026 1.93855 0
M  V30 9341 O 858.137 -0.765701 1.80316 0
M  V30 9342 H 856.717 0.568747 0.484289 0
M  V30 9343 H 859.379 1.84042 0.641444 0
M  V30 9344 H 858.475 2.31449 2.09375 0
M  V30 9345 N 858.776 -0.797141 1.35954 0
M  V30 9346 C 860.192 -1.09408 1.16198 0
M  V30 9347 C 860.392 -2.01491 -0.0191682 0
M  V30 9348 O 859.448 -2.42977 -0.686902 0
M  V30 9349 C 860.761 -1.71597 2.46931 0
M  V30 9350 C 862.309 -1.83974 2.53224 0
M  V30 9351 C 862.784 -2.49579 3.84024 0
M  V30 9352 N 864.275 -2.57055 3.85327 0
M  V30 9353 C 865.01 -3.08608 4.83268 0
M  V30 9354 N 864.506 -3.60527 5.91601 0
M  V30 9355 N 866.299 -3.07249 4.70696 0
M  V30 9356 H 858.45 -0.185209 2.11591 0
M  V30 9357 H 860.713 -0.144768 0.936881 0
M  V30 9358 H 860.419 -1.11404 3.3359 0
M  V30 9359 H 860.293 -2.71193 2.62172 0
M  V30 9360 H 862.68 -2.43308 1.66988 0
M  V30 9361 H 862.761 -0.83207 2.41889 0
M  V30 9362 H 862.405 -1.90892 4.70662 0
M  V30 9363 H 862.335 -3.50902 3.92651 0
M  V30 9364 H 864.826 -2.20283 3.07057 0
M  V30 9365 H 865.139 -3.98192 6.62317 0
M  V30 9366 H 863.484 -3.587 5.95281 0
M  V30 9367 H 866.675 -2.65972 3.85197 0
M  V30 9368 H 866.848 -3.47119 5.47186 0
M  V30 9369 N 860.254 -1.20106 -1.0204 0
M  V30 9370 C 861.531 -0.918029 -1.72718 0
M  V30 9371 C 861.911 0.574163 -2.03142 0
M  V30 9372 O 861.259 1.53476 -1.69285 0
M  V30 9373 C 861.469 -1.78698 -2.9978 0
M  V30 9374 C 862.817 -2.02648 -3.7312 0
M  V30 9375 O 863.841 -1.75919 -3.09727 0
M  V30 9376 O 862.7 -2.47767 -4.87107 0
M  V30 9377 H 859.794 -0.342904 -0.752559 0
M  V30 9378 H 862.34 -1.30961 -1.07923 0
M  V30 9379 H 861.112 -2.79757 -2.7359 0
M  V30 9380 H 860.735 -1.39522 -3.72316 0
M  V30 9381 N 861.732 1.21287 -1.00634 0
M  V30 9382 C 863.009 1.86 -0.605257 0
M  V30 9383 C 863.389 1.90139 0.917072 0
M  V30 9384 O 862.737 1.40169 1.80458 0
M  V30 9385 C 862.947 3.26183 -1.24119 0
M  V30 9386 C 864.295 4.02562 -1.35015 0
M  V30 9387 O 865.319 3.35499 -1.19661 0
M  V30 9388 O 864.178 5.22638 -1.59726 0
M  V30 9389 H 861.272 0.800549 -0.207486 0
M  V30 9390 H 863.818 1.28959 -1.10307 0
M  V30 9391 H 862.59 3.17878 -2.28186 0
M  V30 9392 H 862.213 3.90845 -0.729807 0
M  V30 9393 N 863.21 0.781244 1.36873 0
M  V30 9394 C 864.158 0.161889 2.32036 0
M  V30 9395 C 865.152 -0.674225 1.55405 0
M  V30 9396 O 866.358 -0.570223 1.70729 0
M  V30 9397 H 862.733 0.0335702 0.75125 0
M  V30 9398 H 864.704 0.980078 2.81846 0
M  V30 9399 C 863.453 -0.695352 3.40676 0
M  V30 9400 H 862.776 -0.0613425 3.99753 0
M  V30 9401 H 864.216 -1.09553 4.09602 0
M  V30 9402 C 862.675 -1.85008 2.81556 0
M  V30 9403 O 863.205 -2.94616 2.73065 0
M  V30 9404 N 861.411 -1.65364 2.38962 0
M  V30 9405 H 860.958 -0.762106 2.46068 0
M  V30 9406 H 860.916 -2.42789 1.99752 0
M  V30 9407 N 864.689 -1.48329 0.532571 0
M  V30 9408 C 865.917 -2.069 0.00354299 0
M  V30 9409 C 866.332 -1.38876 -1.27902 0
M  V30 9410 O 865.689 -0.477119 -1.76153 0
M  V30 9411 C 865.74 -3.60821 -0.221416 0
M  V30 9412 O 865.461 -4.26291 1.01034 0
M  V30 9413 C 866.962 -4.36194 -0.790531 0
M  V30 9414 H 864.182 -0.670103 0.0346836 0
M  V30 9415 H 866.726 -1.90682 0.738955 0
M  V30 9416 H 864.881 -3.76636 -0.906884 0
M  V30 9417 H 865.295 -5.18475 0.792683 0
M  V30 9418 H 866.769 -5.44657 -0.897347 0
M  V30 9419 H 867.246 -4.00798 -1.79605 0
M  V30 9420 H 867.852 -4.25064 -0.141546 0
M  V30 9421 N 866.167 -0.267825 -1.55308 0
M  V30 9422 C 867.578 0.231344 -1.85261 0
M  V30 9423 C 867.929 1.56006 -1.18982 0
M  V30 9424 O 867.054 2.1111 -0.475554 0
M  V30 9425 C 867.649 0.426537 -3.36104 0
M  V30 9426 C 866.208 0.869945 -3.66209 0
M  V30 9427 C 865.355 -0.0409522 -2.7727 0
M  V30 9428 H 868.306 -0.489821 -1.50952 0
M  V30 9429 H 868.327 1.26616 -3.58816 0
M  V30 9430 H 867.839 -0.540678 -3.84315 0
M  V30 9431 H 865.94 1.84889 -3.23492 0
M  V30 9432 H 866.053 0.712316 -4.73775 0
M  V30 9433 H 864.417 0.474097 -2.50249 0
M  V30 9434 H 865.2 -1.00392 -3.28293 0
M  V30 9435 N 867.645 1.57599 0.00500368 0
M  V30 9436 C 868.894 1.89528 0.690061 0
M  V30 9437 C 869.207 0.869451 1.75214 0
M  V30 9438 O 870.413 1.07879 2.49147 0
M  V30 9439 C 868.869 3.36425 1.27852 0
M  V30 9440 C 868.477 4.47293 0.251531 0
M  V30 9441 C 870.221 3.77471 1.94206 0
M  V30 9442 C 868.128 5.85264 0.8497 0
M  V30 9443 H 867.058 0.707201 0.2615 0
M  V30 9444 H 869.709 1.83418 -0.0547209 0
M  V30 9445 H 868.091 3.37356 2.07381 0
M  V30 9446 H 869.265 4.5787 -0.518796 0
M  V30 9447 H 867.58 4.15235 -0.311281 0
M  V30 9448 H 870.177 4.77884 2.39855 0
M  V30 9449 H 870.52 3.10722 2.77051 0
M  V30 9450 H 871.053 3.78817 1.21419 0
M  V30 9451 H 867.792 6.55472 0.0601408 0
M  V30 9452 H 867.312 5.78361 1.5893 0
M  V30 9453 H 868.991 6.32762 1.34984 0
M  V30 9454 N 869.123 -0.277682 1.55134 0
M  V30 9455 C 870.371 -1.00791 1.75173 0
M  V30 9456 C 870.692 -1.86987 0.553266 0
M  V30 9457 O 869.962 -1.91079 -0.43195 0
M  V30 9458 H 868.542 -0.375129 0.645978 0
M  V30 9459 H 871.204 -0.303041 1.9253 0
M  V30 9460 H 870.3 -1.64756 2.6507 0
M  V30 9461 N 870.601 -1.47988 -0.541979 0
M  V30 9462 C 871.548 -1.61615 -1.6477 0
M  V30 9463 C 872.518 -0.458602 -1.59644 0
M  V30 9464 O 873.703 -0.680585 -1.78249 0
M  V30 9465 C 870.843 -1.65066 -3.03063 0
M  V30 9466 C 869.956 -2.91845 -3.18513 0
M  V30 9467 C 869.091 -2.86534 -4.47294 0
M  V30 9468 C 868.13 -4.0807 -4.5623 0
M  V30 9469 N 867.267 -4.00905 -5.76385 0
M  V30 9470 H 872.107 -2.56046 -1.52461 0
M  V30 9471 H 869.644 -1.26989 -0.742449 0
M  V30 9472 H 871.602 -1.65049 -3.83164 0
M  V30 9473 H 870.232 -0.74136 -3.14171 0
M  V30 9474 H 869.284 -3.01661 -2.31743 0
M  V30 9475 H 870.596 -3.81804 -3.20978 0
M  V30 9476 H 869.75 -2.84851 -5.35672 0
M  V30 9477 H 868.489 -1.94283 -4.47332 0
M  V30 9478 H 867.494 -4.10041 -3.66261 0
M  V30 9479 H 868.719 -5.01465 -4.5794 0
M  V30 9480 H 866.665 -3.11467 -5.77342 0
M  V30 9481 H 866.582 -4.84557 -5.80293 0
M  V30 9482 H 867.85 -4.03263 -6.67083 0
M  V30 9483 N 872.079 0.78992 -1.36375 0
M  V30 9484 C 873.327 1.54472 -1.30319 0
M  V30 9485 C 873.648 1.94647 0.117338 0
M  V30 9486 O 872.918 1.64906 1.05748 0
M  V30 9487 H 871.498 0.572879 -0.479394 0
M  V30 9488 H 874.16 0.941245 -1.70665 0
M  V30 9489 H 873.256 2.45252 -1.93024 0
M  V30 9490 N 873.557 1.20646 1.01402 0
M  V30 9491 C 874.52 0.959314 2.08158 0
M  V30 9492 C 875.52 -0.0661558 1.60664 0
M  V30 9493 O 876.71 0.170177 1.73367 0
M  V30 9494 C 873.842 0.444785 3.37986 0
M  V30 9495 H 875.035 1.90631 2.31517 0
M  V30 9496 H 872.588 1.02219 1.18241 0
M  V30 9497 H 873.323 -0.507553 3.20304 0
M  V30 9498 H 873.108 1.18435 3.73785 0
M  V30 9499 H 874.598 0.291443 4.16582 0
M  V30 9500 N 875.035 -1.20752 1.01276 0
M  V30 9501 C 876.263 -1.94006 0.718976 0
M  V30 9502 C 876.678 -1.74544 -0.719711 0
M  V30 9503 O 876.035 -1.05697 -1.48776 0
M  V30 9504 C 876.086 -3.46208 1.04031 0
M  V30 9505 O 875.807 -3.65031 2.42248 0
M  V30 9506 C 877.308 -4.36614 0.767032 0
M  V30 9507 H 874.528 -0.616743 0.264327 0
M  V30 9508 H 877.072 -1.53352 1.3529 0
M  V30 9509 H 875.227 -3.84756 0.451852 0
M  V30 9510 H 875.641 -4.59054 2.53712 0
M  V30 9511 H 877.115 -5.42076 1.04198 0
M  V30 9512 H 877.592 -4.38182 -0.298851 0
M  V30 9513 H 878.198 -4.03723 1.33746 0
M  V30 9514 N 876.513 -0.788492 -1.36457 0
M  V30 9515 C 877.761 -0.359749 -1.98872 0
M  V30 9516 C 878.082 1.07197 -1.62892 0
M  V30 9517 O 877.352 1.73875 -0.902463 0
M  V30 9518 H 875.932 -0.130029 -0.735596 0
M  V30 9519 H 878.594 -1.01033 -1.66668 0
M  V30 9520 H 877.69 -0.450835 -3.08827 0
M  V30 9521 N 877.991 1.48044 -0.54043 0
M  V30 9522 C 879.239 2.02097 -0.0101367 0
M  V30 9523 C 879.56 1.41881 1.33771 0
M  V30 9524 O 878.83 0.587923 1.8687 0
M  V30 9525 H 877.41 0.747 -0.000758716 0
M  V30 9526 H 880.072 1.81639 -0.706634 0
M  V30 9527 H 879.168 3.11969 0.0904474 0
M  V30 9528 N 879.47 0.276058 1.55163 0
M  V30 9529 C 880.716 -0.340959 1.99913 0
M  V30 9530 C 881.049 -1.55434 1.16422 0
M  V30 9531 O 880.324 -1.93081 0.234517 0
M  V30 9532 C 880.607 -0.722211 3.52783 0
M  V30 9533 C 880.46 0.498575 4.47028 0
M  V30 9534 C 881.779 -1.5583 4.11589 0
M  V30 9535 H 878.898 -0.122455 0.726756 0
M  V30 9536 H 881.54 0.38319 1.86096 0
M  V30 9537 H 879.69 -1.33919 3.64689 0
M  V30 9538 H 881.362 1.13713 4.47065 0
M  V30 9539 H 879.605 1.13646 4.18649 0
M  V30 9540 H 880.276 0.188041 5.5168 0
M  V30 9541 H 882.752 -1.03722 4.02965 0
M  V30 9542 H 881.628 -1.79387 5.1876 0
M  V30 9543 H 881.889 -2.53963 3.61877 0
M  V30 9544 N 880.948 -1.576 0.00335426 0
M  V30 9545 C 882.194 -1.90996 -0.681799 0
M  V30 9546 C 882.527 -0.877643 -1.73237 0
M  V30 9547 O 881.802 0.103183 -1.94226 0
M  V30 9548 C 882.085 -3.34961 -1.32187 0
M  V30 9549 C 881.938 -4.48911 -0.28261 0
M  V30 9550 C 883.257 -3.78408 -2.24711 0
M  V30 9551 H 880.376 -0.694596 -0.246386 0
M  V30 9552 H 883.018 -1.89919 0.055336 0
M  V30 9553 H 881.168 -3.36008 -1.95014 0
M  V30 9554 H 882.84 -4.59999 0.346241 0
M  V30 9555 H 881.083 -4.32 0.394768 0
M  V30 9556 H 881.754 -5.46609 -0.769576 0
M  V30 9557 H 884.23 -3.78934 -1.71897 0
M  V30 9558 H 883.106 -4.79885 -2.66461 0
M  V30 9559 H 883.367 -3.12464 -3.1276 0
M  V30 9560 N 882.426 0.269451 -1.5528 0
M  V30 9561 C 883.651 1.02299 -1.80415 0
M  V30 9562 C 884.076 1.7902 -0.577363 0
M  V30 9563 O 883.434 1.75018 0.473125 0
M  V30 9564 C 883.482 1.95445 -3.0304 0
M  V30 9565 O 882.586 3.04271 -2.78375 0
M  V30 9566 H 881.927 0.292289 -0.596207 0
M  V30 9567 H 884.457 0.297282 -2.02429 0
M  V30 9568 H 884.467 2.37333 -3.31869 0
M  V30 9569 H 883.142 1.39017 -3.91978 0
M  V30 9570 H 881.719 2.66673 -2.60653 0
M  V30 9571 N 883.904 1.48273 0.534124 0
M  V30 9572 C 884.867 1.6201 1.62127 0
M  V30 9573 C 885.867 0.493653 1.53035 0
M  V30 9574 O 887.057 0.759337 1.56779 0
M  V30 9575 C 884.189 1.5864 3.01739 0
M  V30 9576 H 885.382 2.58944 1.51288 0
M  V30 9577 H 882.935 1.36808 0.755861 0
M  V30 9578 H 883.67 0.631685 3.18088 0
M  V30 9579 H 883.455 2.40415 3.09747 0
M  V30 9580 H 884.945 1.71438 3.80787 0
M  V30 9581 N 885.382 -0.782676 1.36792 0
M  V30 9582 C 886.793 -1.35828 1.28092 0
M  V30 9583 C 887.144 -1.96052 -0.076315 0
M  V30 9584 O 886.269 -1.93042 -0.977935 0
M  V30 9585 C 886.864 -2.46949 2.31952 0
M  V30 9586 C 885.423 -3.00307 2.2692 0
M  V30 9587 C 884.57 -1.73436 2.16368 0
M  V30 9588 H 887.521 -0.583788 1.47572 0
M  V30 9589 H 887.542 -3.26144 1.95986 0
M  V30 9590 H 887.054 -2.03087 3.30722 0
M  V30 9591 H 885.155 -3.48571 1.31639 0
M  V30 9592 H 885.268 -3.56663 3.19887 0
M  V30 9593 H 883.632 -1.95934 1.62733 0
M  V30 9594 H 884.415 -1.31693 3.17036 0
M  V30 9595 N 886.86 -1.21182 -1.00761 0
M  V30 9596 C 888.106 -1.02898 -1.74756 0
M  V30 9597 C 888.439 0.436774 -1.89225 0
M  V30 9598 O 887.714 1.32415 -1.42466 0
M  V30 9599 C 887.997 -1.72372 -3.16164 0
M  V30 9600 C 887.85 -3.2645 -3.09435 0
M  V30 9601 C 889.169 -1.46415 -4.15031 0
M  V30 9602 H 886.288 -0.375214 -0.634337 0
M  V30 9603 H 888.93 -1.49321 -1.17487 0
M  V30 9604 H 887.08 -1.32906 -3.65059 0
M  V30 9605 H 888.752 -3.75269 -2.68274 0
M  V30 9606 H 886.995 -3.56889 -2.46603 0
M  V30 9607 H 887.666 -3.70226 -4.09435 0
M  V30 9608 H 890.142 -1.80671 -3.7483 0
M  V30 9609 H 889.018 -1.97544 -5.12121 0
M  V30 9610 H 889.279 -0.39361 -4.40344 0
M  V30 9611 N 888.338 1.20213 -1.01915 0
M  V30 9612 C 889.568 1.93341 -0.728197 0
M  V30 9613 C 889.976 1.75151 0.715454 0
M  V30 9614 O 889.319 1.06437 1.49722 0
M  V30 9615 C 889.381 3.45677 -0.9873 0
M  V30 9616 C 889.045 3.8763 -2.42057 0
M  V30 9617 C 890.042 3.93184 -3.40151 0
M  V30 9618 C 887.727 4.19547 -2.76199 0
M  V30 9619 C 889.721 4.30069 -4.70446 0
M  V30 9620 C 887.408 4.56106 -4.06707 0
M  V30 9621 C 888.406 4.6134 -5.03641 0
M  V30 9622 O 888.094 4.97059 -6.31813 0
M  V30 9623 H 887.826 0.621258 -0.266485 0
M  V30 9624 H 890.38 1.53577 -1.36393 0
M  V30 9625 H 888.61 3.85578 -0.294405 0
M  V30 9626 H 890.299 4.00035 -0.687536 0
M  V30 9627 H 891.065 3.68687 -3.15111 0
M  V30 9628 H 886.944 4.14663 -2.01434 0
M  V30 9629 H 890.488 4.34069 -5.46105 0
M  V30 9630 H 886.385 4.80059 -4.31525 0
M  V30 9631 H 887.153 5.15043 -6.36139 0
M  V30 9632 N 889.816 0.795718 1.36037 0
M  V30 9633 C 891.041 0.38204 2.03851 0
M  V30 9634 C 891.466 -0.995553 1.59594 0
M  V30 9635 O 890.824 -1.64258 0.767401 0
M  V30 9636 C 890.872 0.461248 3.57638 0
M  V30 9637 O 889.976 -0.529448 4.08987 0
M  V30 9638 H 889.317 0.161227 0.644129 0
M  V30 9639 H 891.847 1.07858 1.73861 0
M  V30 9640 H 891.857 0.32712 4.06687 0
M  V30 9641 H 890.532 1.46613 3.89201 0
M  V30 9642 H 889.109 -0.35646 3.71192 0
M  V30 9643 N 891.294 -1.47756 0.548274 0
M  V30 9644 C 892.524 -2.06584 0.0254503 0
M  V30 9645 C 892.932 -1.40268 -1.26971 0
M  V30 9646 O 892.275 -0.49019 -1.77039 0
M  V30 9647 C 892.337 -3.58628 -0.250301 0
M  V30 9648 C 892.001 -4.4693 0.954087 0
M  V30 9649 C 892.998 -4.85592 1.85733 0
M  V30 9650 C 890.683 -4.88573 1.16624 0
M  V30 9651 C 892.677 -5.64686 2.95648 0
M  V30 9652 C 890.364 -5.67435 2.2685 0
M  V30 9653 C 891.362 -6.05401 3.16194 0
M  V30 9654 O 891.05 -6.82676 4.24511 0
M  V30 9655 H 890.782 -0.67489 0.0387264 0
M  V30 9656 H 893.336 -1.90876 0.758663 0
M  V30 9657 H 891.566 -3.72516 -1.03771 0
M  V30 9658 H 893.255 -3.9951 -0.717419 0
M  V30 9659 H 894.021 -4.54026 1.70544 0
M  V30 9660 H 889.9 -4.58494 0.480039 0
M  V30 9661 H 893.444 -5.9424 3.65411 0
M  V30 9662 H 889.341 -5.98413 2.42016 0
M  V30 9663 H 890.109 -7.01057 4.22447 0
M  V30 9664 N 892.772 -0.284283 -1.55015 0
M  V30 9665 C 894.019 0.329864 -1.99795 0
M  V30 9666 C 894.347 1.55171 -1.1727 0
M  V30 9667 O 893.602 1.94312 -0.232667 0
M  V30 9668 C 893.901 0.747219 -3.49502 0
M  V30 9669 C 893.567 -0.37101 -4.49371 0
M  V30 9670 C 892.229 -0.678034 -4.76399 0
M  V30 9671 C 894.581 -1.12406 -5.08935 0
M  V30 9672 C 891.909 -1.74152 -5.60257 0
M  V30 9673 C 894.261 -2.17734 -5.93948 0
M  V30 9674 C 892.925 -2.49061 -6.19294 0
M  V30 9675 H 892.195 0.120706 -0.731103 0
M  V30 9676 H 894.842 -0.399904 -1.87278 0
M  V30 9677 H 893.147 1.55681 -3.59542 0
M  V30 9678 H 894.844 1.2333 -3.81563 0
M  V30 9679 H 891.434 -0.1216 -4.28427 0
M  V30 9680 H 895.618 -0.900119 -4.88069 0
M  V30 9681 H 890.874 -1.98915 -5.78137 0
M  V30 9682 H 895.048 -2.76553 -6.39133 0
M  V30 9683 H 892.675 -3.31602 -6.84064 0
M  V30 9684 N 894.251 1.57596 -0.0117121 0
M  V30 9685 C 895.184 2.04624 1.01016 0
M  V30 9686 C 896.162 0.938437 1.32786 0
M  V30 9687 O 897.346 1.20746 1.44751 0
M  V30 9688 C 894.473 2.45369 2.33477 0
M  V30 9689 C 893.519 3.66998 2.17289 0
M  V30 9690 S 894.352 5.14412 1.48795 0
M  V30 9691 C 895.508 5.58438 2.82662 0
M  V30 9692 H 895.741 2.9098 0.60977 0
M  V30 9693 H 893.274 1.53106 0.199494 0
M  V30 9694 H 895.232 2.69511 3.09635 0
M  V30 9695 H 893.893 1.59391 2.70653 0
M  V30 9696 H 893.086 3.93297 3.15172 0
M  V30 9697 H 892.688 3.42918 1.49275 0
M  V30 9698 H 894.98 5.61614 3.78941 0
M  V30 9699 H 895.923 6.58224 2.61049 0
M  V30 9700 H 896.331 4.86033 2.8711 0
M  V30 9701 N 895.729 -0.261212 1.5542 0
M  V30 9702 C 897.145 -0.609012 1.47524 0
M  V30 9703 C 897.345 -1.88986 0.699042 0
M  V30 9704 O 896.401 -2.51517 0.222628 0
M  V30 9705 C 897.714 -0.725025 2.91828 0
M  V30 9706 C 899.262 -0.818302 3.02114 0
M  V30 9707 C 899.737 -0.965996 4.47697 0
M  V30 9708 N 901.228 -1.03123 4.51575 0
M  V30 9709 C 901.963 -1.16451 5.6145 0
M  V30 9710 N 901.459 -1.26425 6.81167 0
M  V30 9711 N 903.252 -1.19655 5.49217 0
M  V30 9712 H 895.403 0.579807 2.04333 0
M  V30 9713 H 897.666 0.198072 0.927077 0
M  V30 9714 H 897.372 0.145871 3.51397 0
M  V30 9715 H 897.246 -1.60156 3.41511 0
M  V30 9716 H 899.633 -1.67966 2.42634 0
M  V30 9717 H 899.714 0.0830895 2.55665 0
M  V30 9718 H 899.358 -0.109251 5.07782 0
M  V30 9719 H 899.288 -1.88221 4.91813 0
M  V30 9720 H 901.779 -0.966072 3.65343 0
M  V30 9721 H 902.092 -1.36462 7.60656 0
M  V30 9722 H 900.437 -1.23408 6.83956 0
M  V30 9723 H 903.628 -1.11501 4.54626 0
M  V30 9724 H 903.801 -1.29698 6.34888 0
M  V30 9725 N 897.207 -1.48554 -0.526253 0
M  V30 9726 C 898.155 -1.63804 -1.65139 0
M  V30 9727 C 899.149 -0.504398 -1.61716 0
M  V30 9728 O 900.355 -0.683241 -1.66529 0
M  V30 9729 H 896.73 -0.516071 -0.546969 0
M  V30 9730 H 898.701 -2.58294 -1.49421 0
M  V30 9731 C 897.45 -1.69843 -3.03395 0
M  V30 9732 H 896.773 -2.56438 -3.06724 0
M  V30 9733 H 898.213 -1.84555 -3.81727 0
M  V30 9734 C 896.672 -0.437875 -3.34042 0
M  V30 9735 O 897.202 0.447604 -3.99198 0
M  V30 9736 N 895.408 -0.308444 -2.88958 0
M  V30 9737 H 894.955 -1.02998 -2.36112 0
M  V30 9738 H 894.913 0.533952 -3.09833 0
M  V30 9739 N 898.685 0.775411 -1.37205 0
M  V30 9740 C 899.934 1.52909 -1.31536 0
M  V30 9741 C 900.247 1.9535 0.0989374 0
M  V30 9742 O 901.453 2.70072 0.278079 0
M  V30 9743 C 899.909 2.761 -2.30861 0
M  V30 9744 C 899.517 2.40773 -3.77799 0
M  V30 9745 C 901.261 3.54052 -2.34195 0
M  V30 9746 C 899.168 3.60444 -4.68865 0
M  V30 9747 H 898.098 0.574061 -0.488845 0
M  V30 9748 H 900.749 0.849642 -1.62645 0
M  V30 9749 H 899.131 3.45916 -1.92764 0
M  V30 9750 H 900.305 1.78764 -4.24712 0
M  V30 9751 H 898.62 1.76004 -3.77375 0
M  V30 9752 H 901.217 4.42992 -2.99437 0
M  V30 9753 H 901.56 3.93649 -1.35449 0
M  V30 9754 H 902.093 2.91229 -2.7098 0
M  V30 9755 H 898.832 3.25932 -5.68725 0
M  V30 9756 H 898.352 4.21571 -4.26659 0
M  V30 9757 H 900.031 4.27302 -4.85821 0
M  V30 9758 N 900.163 1.21714 1.00117 0
M  V30 9759 C 901.093 1.00397 2.10815 0
M  V30 9760 C 902.074 -0.0723502 1.69946 0
M  V30 9761 O 903.259 0.0882398 1.93999 0
M  V30 9762 C 900.389 0.572001 3.42557 0
M  V30 9763 C 899.343 1.59331 3.97237 0
M  V30 9764 C 898.669 1.01746 5.2493 0
M  V30 9765 C 899.969 2.98117 4.28863 0
M  V30 9766 H 901.663 1.92983 2.28906 0
M  V30 9767 H 899.209 0.929273 1.10002 0
M  V30 9768 H 901.162 0.410018 4.19401 0
M  V30 9769 H 899.886 -0.38951 3.24269 0
M  V30 9770 H 898.545 1.74293 3.22518 0
M  V30 9771 H 898.193 0.0475491 5.02978 0
M  V30 9772 H 897.893 1.69969 5.62481 0
M  V30 9773 H 899.417 0.866881 6.04415 0
M  V30 9774 H 900.831 2.86578 4.96534 0
M  V30 9775 H 899.228 3.63389 4.77565 0
M  V30 9776 H 900.298 3.48674 3.36979 0
M  V30 9777 N 901.641 -1.19671 1.02551 0
M  V30 9778 C 902.604 -2.20987 0.608055 0
M  V30 9779 C 903.604 -1.5745 -0.326534 0
M  V30 9780 O 904.794 -1.73827 -0.114003 0
M  V30 9781 C 901.926 -3.4072 -0.11074 0
M  V30 9782 H 903.119 -2.59434 1.50446 0
M  V30 9783 H 900.672 -1.3329 0.816307 0
M  V30 9784 H 901.407 -3.07787 -1.02165 0
M  V30 9785 H 901.192 -3.88069 0.560772 0
M  V30 9786 H 902.682 -4.15776 -0.389848 0
M  V30 9787 N 903.119 -0.802921 -1.35613 0
M  V30 9788 C 904.368 -0.378087 -1.98125 0
M  V30 9789 C 904.681 1.05953 -1.64418 0
M  V30 9790 O 905.887 1.58729 -2.20266 0
M  V30 9791 C 904.343 -0.625077 -3.5443 0
M  V30 9792 C 903.951 -2.07499 -3.97049 0
M  V30 9793 C 905.695 -0.265419 -4.23669 0
M  V30 9794 C 903.602 -2.26793 -5.46186 0
M  V30 9795 H 902.532 -0.137633 -0.741332 0
M  V30 9796 H 905.183 -0.986461 -1.54729 0
M  V30 9797 H 903.565 0.0531975 -3.95964 0
M  V30 9798 H 904.739 -2.79077 -3.66678 0
M  V30 9799 H 903.054 -2.39417 -3.40688 0
M  V30 9800 H 905.651 -0.387669 -5.33293 0
M  V30 9801 H 905.994 0.787994 -4.08774 0
M  V30 9802 H 906.527 -0.897464 -3.87544 0
M  V30 9803 H 903.266 -3.30566 -5.66045 0
M  V30 9804 H 902.786 -1.59735 -5.78139 0
M  V30 9805 H 904.465 -2.08165 -6.12598 0
M  V30 9806 N 904.597 1.47463 -0.556102 0
M  V30 9807 C 905.507 2.33785 0.195378 0
M  V30 9808 C 906.523 1.48123 0.913 0
M  V30 9809 O 907.699 1.81053 0.882141 0
M  V30 9810 C 904.764 3.24795 1.21282 0
M  V30 9811 C 903.825 4.26346 0.502747 0
M  V30 9812 C 903.058 5.13007 1.47172 0
M  V30 9813 O 903.281 5.02103 2.70646 0
M  V30 9814 O 902.215 5.93588 0.996814 0
M  V30 9815 H 906.041 2.99341 -0.512676 0
M  V30 9816 H 903.626 1.46004 -0.31673 0
M  V30 9817 H 905.508 3.81015 1.80016 0
M  V30 9818 H 904.183 2.61868 1.90282 0
M  V30 9819 H 903.09 3.73889 -0.125757 0
M  V30 9820 H 904.423 4.91984 -0.145779 0
M  V30 9821 N 906.075 0.2925 1.54862 0
M  V30 9822 C 907.486 -0.201841 1.85606 0
M  V30 9823 C 907.837 -1.54093 1.21449 0
M  V30 9824 O 906.962 -2.10327 0.509079 0
M  V30 9825 C 907.557 -0.373011 3.3674 0
M  V30 9826 C 906.116 -0.811574 3.67547 0
M  V30 9827 C 905.263 0.0850583 2.7717 0
M  V30 9828 H 908.214 0.513774 1.50153 0
M  V30 9829 H 908.235 -1.20892 3.60785 0
M  V30 9830 H 907.747 0.601751 3.83407 0
M  V30 9831 H 905.848 -1.79719 3.26392 0
M  V30 9832 H 905.961 -0.636853 4.74848 0
M  V30 9833 H 904.325 -0.434224 2.50971 0
M  V30 9834 H 905.108 1.05602 3.26654 0
M  V30 9835 N 907.553 -1.57587 0.0200696 0
M  V30 9836 C 908.778 -1.96124 -0.674547 0
M  V30 9837 C 909.203 -0.896068 -1.65385 0
M  V30 9838 O 908.561 0.143925 -1.80728 0
M  V30 9839 C 908.609 -3.3376 -1.36517 0
M  V30 9840 O 907.713 -3.29483 -2.48022 0
M  V30 9841 H 907.054 -0.639719 -0.177919 0
M  V30 9842 H 909.584 -2.04447 0.0792317 0
M  V30 9843 H 909.594 -3.69785 -1.72403 0
M  V30 9844 H 908.269 -4.10832 -0.647265 0
M  V30 9845 H 906.846 -3.05162 -2.14314 0
M  V30 9846 N 909.032 0.252966 -1.55557 0
M  V30 9847 C 909.962 1.31691 -1.9282 0
M  V30 9848 C 910.943 1.50516 -0.7924 0
M  V30 9849 O 912.128 1.63225 -1.05219 0
M  V30 9850 C 909.258 2.67281 -2.21762 0
M  V30 9851 C 908.212 2.6316 -3.37536 0
M  V30 9852 C 907.538 4.02488 -3.52005 0
M  V30 9853 C 908.838 2.20675 -4.73392 0
M  V30 9854 H 910.532 1.00751 -2.81939 0
M  V30 9855 H 908.078 0.483219 -1.3565 0
M  V30 9856 H 910.031 3.41842 -2.46419 0
M  V30 9857 H 908.755 2.99845 -1.29463 0
M  V30 9858 H 907.414 1.91057 -3.12878 0
M  V30 9859 H 907.062 4.32307 -2.57137 0
M  V30 9860 H 906.762 4.00621 -4.29857 0
M  V30 9861 H 908.286 4.78758 -3.78977 0
M  V30 9862 H 909.7 2.84965 -4.97461 0
M  V30 9863 H 908.097 2.29931 -5.54303 0
M  V30 9864 H 909.167 1.15831 -4.70862 0
M  V30 9865 N 910.51 1.48831 0.518367 0
M  V30 9866 C 911.457 1.64216 1.62178 0
M  V30 9867 C 912.427 0.483942 1.58894 0
M  V30 9868 O 913.612 0.708857 1.77144 0
M  V30 9869 C 910.752 1.69867 3.00399 0
M  V30 9870 C 909.865 2.96875 3.1383 0
M  V30 9871 C 909 2.93613 4.42679 0
M  V30 9872 C 908.039 4.15276 4.4968 0
M  V30 9873 N 907.176 4.10024 5.69934 0
M  V30 9874 H 912.016 2.58439 1.48368 0
M  V30 9875 H 909.553 1.28154 0.722152 0
M  V30 9876 H 911.511 1.71124 3.8049 0
M  V30 9877 H 910.141 0.791249 3.12952 0
M  V30 9878 H 909.193 3.0531 2.26914 0
M  V30 9879 H 910.505 3.86863 3.14863 0
M  V30 9880 H 909.659 2.93337 5.31073 0
M  V30 9881 H 908.398 2.01375 4.44184 0
M  V30 9882 H 907.403 4.15816 3.59691 0
M  V30 9883 H 908.628 5.08687 4.49904 0
M  V30 9884 H 906.574 3.20613 5.72314 0
M  V30 9885 H 906.491 4.93728 5.72511 0
M  V30 9886 H 907.759 4.13824 6.60583 0
M  V30 9887 N 911.988 -0.768124 1.37614 0
M  V30 9888 C 913.404 -1.06919 1.18493 0
M  V30 9889 C 913.604 -2.01486 0.0235753 0
M  V30 9890 O 912.66 -2.4438 -0.635209 0
M  V30 9891 C 913.973 -1.66321 2.50515 0
M  V30 9892 C 915.521 -1.78562 2.57069 0
M  V30 9893 C 915.996 -2.41377 3.89231 0
M  V30 9894 N 917.487 -2.48824 3.90693 0
M  V30 9895 C 918.222 -2.98288 4.89706 0
M  V30 9896 N 917.718 -3.47897 5.99115 0
M  V30 9897 N 919.511 -2.97196 4.77107 0
M  V30 9898 H 911.662 -0.140286 2.11936 0
M  V30 9899 H 913.925 -0.124863 0.939741 0
M  V30 9900 H 913.631 -1.04303 3.35878 0
M  V30 9901 H 913.505 -2.65571 2.67866 0
M  V30 9902 H 915.892 -2.39712 1.72111 0
M  V30 9903 H 915.973 -0.780574 2.43599 0
M  V30 9904 H 915.617 -1.80866 4.74605 0
M  V30 9905 H 915.547 -3.42495 4.00006 0
M  V30 9906 H 918.038 -2.1372 3.1166 0
M  V30 9907 H 918.351 -3.84053 6.70614 0
M  V30 9908 H 916.696 -3.45993 6.02755 0
M  V30 9909 H 919.887 -2.57741 3.90752 0
M  V30 9910 H 920.06 -3.35434 5.54426 0
M  V30 9911 N 913.466 -1.22244 -0.994698 0
M  V30 9912 C 914.413 -0.990906 -2.08446 0
M  V30 9913 C 915.383 0.086737 -1.65873 0
M  V30 9914 O 916.568 -0.0624882 -1.90698 0
M  V30 9915 C 913.708 -0.572813 -3.40313 0
M  V30 9916 C 912.821 -1.72103 -3.96238 0
M  V30 9917 C 911.956 -1.2511 -5.16257 0
M  V30 9918 C 910.995 -2.37098 -5.64315 0
M  V30 9919 N 910.132 -1.91164 -6.75574 0
M  V30 9920 H 914.972 -1.92377 -2.27585 0
M  V30 9921 H 912.509 -0.958576 -1.11578 0
M  V30 9922 H 914.467 -0.311594 -4.16035 0
M  V30 9923 H 913.097 0.323044 -3.21179 0
M  V30 9924 H 912.149 -2.09662 -3.17405 0
M  V30 9925 H 913.461 -2.56347 -4.27888 0
M  V30 9926 H 912.615 -0.947152 -5.99261 0
M  V30 9927 H 911.354 -0.378836 -4.86226 0
M  V30 9928 H 910.359 -2.68283 -4.799 0
M  V30 9929 H 911.584 -3.24837 -5.96371 0
M  V30 9930 H 909.53 -1.06298 -6.47331 0
M  V30 9931 H 909.447 -2.68975 -7.06533 0
M  V30 9932 H 910.715 -1.63833 -7.62088 0
M  V30 9933 N 914.944 1.19125 -1.03184 0
M  V30 9934 C 916.191 1.88883 -0.730029 0
M  V30 9935 C 916.519 1.79807 0.741602 0
M  V30 9936 O 915.774 1.18686 1.55603 0
M  V30 9937 C 916.073 3.39052 -1.13041 0
M  V30 9938 C 915.739 3.68332 -2.60082 0
M  V30 9939 C 914.401 3.76033 -3.00254 0
M  V30 9940 C 916.753 3.81423 -3.55199 0
M  V30 9941 C 914.081 3.94296 -4.34451 0
M  V30 9942 C 916.433 4.012 -4.89103 0
M  V30 9943 C 915.097 4.07134 -5.28959 0
M  V30 9944 H 914.367 0.691172 -0.267137 0
M  V30 9945 H 917.014 1.41053 -1.29523 0
M  V30 9946 H 915.319 3.88801 -0.48386 0
M  V30 9947 H 917.016 3.91351 -0.874368 0
M  V30 9948 H 913.606 3.62948 -2.27961 0
M  V30 9949 H 917.79 3.74814 -3.25313 0
M  V30 9950 H 913.046 3.97131 -4.64863 0
M  V30 9951 H 917.22 4.10271 -5.62717 0
M  V30 9952 H 914.847 4.21038 -6.32954 0
M  V30 9953 N 916.422 0.810101 1.35185 0
M  V30 9954 C 917.699 0.315235 1.93043 0
M  V30 9955 C 918.079 -1.19567 1.73974 0
M  V30 9956 O 917.427 -1.99682 1.11083 0
M  V30 9957 C 917.637 0.730492 3.41269 0
M  V30 9958 C 918.985 0.721985 4.18417 0
M  V30 9959 O 920.009 0.672258 3.49799 0
M  V30 9960 O 918.868 0.783535 5.40854 0
M  V30 9961 H 915.962 0.0832774 0.822796 0
M  V30 9962 H 918.508 0.894034 1.4424 0
M  V30 9963 H 917.28 1.77169 3.48894 0
M  V30 9964 H 916.903 0.12669 3.97398 0
M  V30 9965 N 917.9 -1.47166 0.563914 0
M  V30 9966 C 919.146 -2.02756 0.0424338 0
M  V30 9967 C 919.479 -1.43662 -1.3067 0
M  V30 9968 O 918.754 -0.594676 -1.85186 0
M  V30 9969 C 919.037 -3.60074 -0.0434793 0
M  V30 9970 C 918.89 -4.29587 1.33323 0
M  V30 9971 C 920.209 -4.336 -0.753568 0
M  V30 9972 H 917.328 -0.736806 0.0168946 0
M  V30 9973 H 919.97 -1.75521 0.727496 0
M  V30 9974 H 918.12 -3.83409 -0.626906 0
M  V30 9975 H 919.792 -4.17573 1.96037 0
M  V30 9976 H 918.035 -3.8968 1.9061 0
M  V30 9977 H 918.706 -5.38218 1.22576 0
M  V30 9978 H 921.182 -4.15299 -0.258126 0
M  V30 9979 H 920.058 -5.43291 -0.782659 0
M  V30 9980 H 920.319 -4.03302 -1.81108 0
M  V30 9981 N 919.378 -0.300708 -1.54705 0
M  V30 9982 C 920.789 0.191995 -1.8571 0
M  V30 9983 C 921.14 1.53447 -1.22264 0
M  V30 9984 O 920.265 2.10054 -0.520226 0
M  V30 9985 C 920.86 0.355148 -3.36933 0
M  V30 9986 C 919.419 0.792071 -3.67972 0
M  V30 9987 C 918.566 -0.099756 -2.77121 0
M  V30 9988 H 921.517 -0.521729 -1.49879 0
M  V30 9989 H 921.538 1.18977 -3.61421 0
M  V30 9990 H 921.05 -0.622075 -3.83082 0
M  V30 9991 H 919.151 1.77986 -3.27341 0
M  V30 9992 H 919.264 0.611661 -4.75179 0
M  V30 9993 H 917.628 0.420909 -2.51198 0
M  V30 9994 H 918.411 -1.07333 -3.2609 0
M  V30 9995 N 920.856 1.57574 -0.0284266 0
M  V30 9996 C 921.803 2.10176 0.953658 0
M  V30 9997 C 922.773 1.00367 1.32347 0
M  V30 9998 O 923.958 1.27783 1.4169 0
M  V30 9999 C 921.098 2.63287 2.231 0
M  V30 10000 C 920.211 3.87102 1.91771 0
M  V30 10001 C 919.346 4.28609 3.13795 0
M  V30 10002 C 918.385 5.45184 2.78282 0
M  V30 10003 N 917.522 5.81851 3.92929 0
M  V30 10004 H 922.362 2.93806 0.498176 0
M  V30 10005 H 919.899 1.45222 0.234302 0
M  V30 10006 H 921.857 2.9217 2.97813 0
M  V30 10007 H 920.487 1.82489 2.66266 0
M  V30 10008 H 919.539 3.64952 1.07303 0
M  V30 10009 H 920.851 4.71892 1.61615 0
M  V30 10010 H 920.005 4.58925 3.96829 0
M  V30 10011 H 918.744 3.42585 3.47112 0
M  V30 10012 H 917.749 5.14563 1.93661 0
M  V30 10013 H 918.974 6.32907 2.46182 0
M  V30 10014 H 916.92 4.98782 4.2609 0
M  V30 10015 H 916.837 6.6128 3.66395 0
M  V30 10016 H 918.105 6.16772 4.76669 0
M  V30 10017 N 922.334 -0.244713 1.55689 0
M  V30 10018 C 923.582 -0.970525 1.77272 0
M  V30 10019 C 923.903 -1.85771 0.592804 0
M  V30 10020 O 923.173 -1.91952 -0.391323 0
M  V30 10021 H 921.753 -0.361342 0.653789 0
M  V30 10022 H 924.415 -0.262134 1.93129 0
M  V30 10023 H 923.511 -1.59096 2.68505 0
M  V30 10024 N 923.813 -1.49104 -0.510467 0
M  V30 10025 C 924.743 -1.67981 -1.62187 0
M  V30 10026 C 925.724 -0.528529 -1.6168 0
M  V30 10027 O 926.909 -0.763305 -1.7857 0
M  V30 10028 C 924.039 -1.73755 -3.0071 0
M  V30 10029 C 922.993 -2.88579 -3.1608 0
M  V30 10030 C 922.319 -2.79457 -4.5586 0
M  V30 10031 C 923.619 -4.29638 -2.97 0
M  V30 10032 H 925.313 -2.61029 -1.46643 0
M  V30 10033 H 922.859 -1.25615 -0.704042 0
M  V30 10034 H 924.812 -1.85548 -3.78352 0
M  V30 10035 H 923.536 -0.772996 -3.17321 0
M  V30 10036 H 922.195 -2.76372 -2.40861 0
M  V30 10037 H 921.843 -1.80929 -4.69333 0
M  V30 10038 H 921.543 -3.56518 -4.67086 0
M  V30 10039 H 923.067 -2.93245 -5.35574 0
M  V30 10040 H 924.481 -4.42575 -3.64418 0
M  V30 10041 H 922.878 -5.07847 -3.19704 0
M  V30 10042 H 923.948 -4.44741 -1.93219 0
M  V30 10043 N 925.291 0.760815 -1.38019 0
M  V30 10044 C 926.707 1.06289 -1.19058 0
M  V30 10045 C 926.907 2.01471 -0.0342603 0
M  V30 10046 O 925.963 2.44713 0.62224 0
M  V30 10047 C 927.276 1.6499 -2.51394 0
M  V30 10048 C 928.824 1.77196 -2.58013 0
M  V30 10049 C 929.299 2.3931 -3.90506 0
M  V30 10050 N 930.79 2.46749 -3.92007 0
M  V30 10051 C 931.525 2.95687 -4.91281 0
M  V30 10052 N 931.021 3.44715 -6.00952 0
M  V30 10053 N 932.814 2.94661 -4.78677 0
M  V30 10054 H 924.965 0.129045 -2.12008 0
M  V30 10055 H 927.228 0.119878 -0.94039 0
M  V30 10056 H 926.934 1.0252 -3.36426 0
M  V30 10057 H 926.808 2.64146 -2.6927 0
M  V30 10058 H 929.195 2.38796 -1.7338 0
M  V30 10059 H 929.276 0.767645 -2.4401 0
M  V30 10060 H 928.92 1.78346 -4.75558 0
M  V30 10061 H 928.85 3.40369 -4.01817 0
M  V30 10062 H 931.341 2.12064 -3.12789 0
M  V30 10063 H 931.654 3.80492 -6.72641 0
M  V30 10064 H 929.999 3.42791 -6.04582 0
M  V30 10065 H 933.19 2.55665 -3.92113 0
M  V30 10066 H 933.363 3.32489 -5.56197 0
M  V30 10067 N 926.769 1.22769 0.988202 0
M  V30 10068 C 927.716 1.00195 2.07917 0
M  V30 10069 C 928.686 -0.0779391 1.65917 0
M  V30 10070 O 929.871 0.0726005 1.90662 0
M  V30 10071 C 927.011 0.590853 3.40004 0
M  V30 10072 C 926.124 1.74202 3.9532 0
M  V30 10073 C 925.259 1.27846 5.15586 0
M  V30 10074 C 924.298 2.40087 5.63049 0
M  V30 10075 N 923.435 1.94744 6.74551 0
M  V30 10076 H 928.275 1.93581 2.26562 0
M  V30 10077 H 925.812 0.96448 1.11068 0
M  V30 10078 H 927.77 0.333653 4.15864 0
M  V30 10079 H 926.4 -0.306007 3.21346 0
M  V30 10080 H 925.452 2.11342 3.16289 0
M  V30 10081 H 926.764 2.58612 4.26522 0
M  V30 10082 H 925.918 0.978919 5.9875 0
M  V30 10083 H 924.657 0.404617 4.86019 0
M  V30 10084 H 923.662 2.70824 4.78471 0
M  V30 10085 H 924.887 3.27995 5.9464 0
M  V30 10086 H 922.833 1.09729 6.46758 0
M  V30 10087 H 922.75 2.72718 7.05096 0
M  V30 10088 H 924.018 1.67873 7.61209 0
M  V30 10089 N 928.247 -1.18576 1.03814 0
M  V30 10090 C 929.157 -2.25778 0.637311 0
M  V30 10091 C 930.173 -1.7074 -0.335248 0
M  V30 10092 O 931.349 -2.00494 -0.19081 0
M  V30 10093 C 928.414 -3.467 0.00386953 0
M  V30 10094 C 927.475 -4.16881 1.02511 0
M  V30 10095 C 926.708 -5.32031 0.421802 0
M  V30 10096 O 926.931 -5.65142 -0.772699 0
M  V30 10097 O 925.865 -5.90826 1.14925 0
M  V30 10098 H 929.691 -2.62323 1.53037 0
M  V30 10099 H 927.276 -1.25609 0.80887 0
M  V30 10100 H 929.158 -4.19953 -0.348873 0
M  V30 10101 H 927.833 -3.11983 -0.863047 0
M  V30 10102 H 926.74 -3.45707 1.4296 0
M  V30 10103 H 928.073 -4.55592 1.86271 0
M  V30 10104 N 929.725 -0.817259 -1.34754 0
M  V30 10105 C 930.974 -0.39908 -1.97713 0
M  V30 10106 C 931.287 1.04203 -1.65533 0
M  V30 10107 O 932.493 1.56384 -2.21937 0
M  V30 10108 C 930.949 -0.662634 -3.53747 0
M  V30 10109 C 930.557 -2.11699 -3.94826 0
M  V30 10110 C 932.301 -0.31034 -4.23364 0
M  V30 10111 C 930.208 -2.32573 -5.4375 0
M  V30 10112 H 929.138 -0.145488 -0.739831 0
M  V30 10113 H 931.789 -1.00282 -1.53674 0
M  V30 10114 H 930.171 0.0111972 -3.95998 0
M  V30 10115 H 931.345 -2.82951 -3.63697 0
M  V30 10116 H 929.66 -2.43017 -3.3813 0
M  V30 10117 H 932.257 -0.44421 -5.32852 0
M  V30 10118 H 932.6 0.744594 -4.09587 0
M  V30 10119 H 933.133 -0.938518 -3.8657 0
M  V30 10120 H 929.872 -3.36551 -5.62507 0
M  V30 10121 H 929.392 -1.65858 -5.76412 0
M  V30 10122 H 931.071 -2.14651 -6.10356 0
M  V30 10123 N 931.203 1.46865 -0.571711 0
M  V30 10124 C 932.449 2.0273 -0.0531858 0
M  V30 10125 C 932.782 1.44353 1.29907 0
M  V30 10126 O 932.057 0.604488 1.84868 0
M  V30 10127 C 932.34 3.60092 0.0243831 0
M  V30 10128 C 932.193 4.28874 -1.35599 0
M  V30 10129 C 933.512 4.33994 0.730563 0
M  V30 10130 H 930.631 0.736706 -0.0208018 0
M  V30 10131 H 933.273 1.75132 -0.736794 0
M  V30 10132 H 931.423 3.83736 0.606565 0
M  V30 10133 H 933.095 4.16527 -1.98249 0
M  V30 10134 H 931.338 3.88664 -1.92674 0
M  V30 10135 H 932.009 5.37561 -1.25429 0
M  V30 10136 H 934.485 4.1543 0.236098 0
M  V30 10137 H 933.361 5.43699 0.753836 0
M  V30 10138 H 933.622 4.04257 1.78967 0
M  V30 10139 N 932.681 0.308908 1.54543 0
M  V30 10140 C 933.958 -0.351558 1.92415 0
M  V30 10141 C 934.338 -1.71061 1.23699 0
M  V30 10142 O 933.686 -2.25394 0.3755 0
M  V30 10143 C 933.896 -0.458357 3.45977 0
M  V30 10144 C 935.244 -0.725524 4.18355 0
M  V30 10145 O 936.268 -0.541859 3.52054 0
M  V30 10146 O 935.127 -1.07884 5.35745 0
M  V30 10147 H 932.221 -0.197957 0.802958 0
M  V30 10148 H 934.767 0.357548 1.65891 0
M  V30 10149 H 933.539 0.496723 3.88134 0
M  V30 10150 H 933.162 -1.21562 3.78561 0
M  V30 10151 N 934.159 -1.57557 0.0367827 0
M  V30 10152 C 935.106 -2.10679 -0.942499 0
M  V30 10153 C 936.076 -1.01068 -1.31812 0
M  V30 10154 O 937.261 -1.28533 -1.41011 0
M  V30 10155 C 934.401 -2.64467 -2.21701 0
M  V30 10156 C 933.514 -3.88114 -1.89715 0
M  V30 10157 C 932.649 -4.30268 -3.11518 0
M  V30 10158 C 931.688 -5.46652 -2.75387 0
M  V30 10159 N 930.825 -5.83927 -3.89838 0
M  V30 10160 H 935.665 -2.94066 -0.482588 0
M  V30 10161 H 933.202 -1.45344 -0.226597 0
M  V30 10162 H 935.16 -2.93745 -2.96259 0
M  V30 10163 H 933.79 -1.83898 -2.65295 0
M  V30 10164 H 932.842 -3.65516 -1.05366 0
M  V30 10165 H 934.154 -4.72743 -1.5911 0
M  V30 10166 H 933.308 -4.61023 -3.94389 0
M  V30 10167 H 932.047 -3.44421 -3.4529 0
M  V30 10168 H 931.052 -5.15583 -1.90929 0
M  V30 10169 H 932.277 -6.34204 -2.42822 0
M  V30 10170 H 930.223 -5.01035 -4.23438 0
M  V30 10171 H 930.14 -6.63214 -3.62883 0
M  V30 10172 H 931.408 -6.19291 -4.73391 0
M  V30 10173 N 935.637 0.236453 -1.55816 0
M  V30 10174 C 936.886 0.960981 -1.77336 0
M  V30 10175 C 937.199 1.86085 -0.602641 0
M  V30 10176 O 938.405 2.62291 -0.701106 0
M  V30 10177 C 936.861 1.75884 -3.13995 0
M  V30 10178 C 936.469 0.905849 -4.38746 0
M  V30 10179 C 938.213 2.47548 -3.44848 0
M  V30 10180 C 936.12 1.7002 -5.66434 0
M  V30 10181 H 935.05 0.362547 -0.661117 0
M  V30 10182 H 937.701 0.215303 -1.82233 0
M  V30 10183 H 936.083 2.54687 -3.03234 0
M  V30 10184 H 937.257 0.159415 -4.60524 0
M  V30 10185 H 935.572 0.30205 -4.15303 0
M  V30 10186 H 938.169 3.07452 -4.37467 0
M  V30 10187 H 938.512 3.19689 -2.66655 0
M  V30 10188 H 939.045 1.75747 -3.56872 0
M  V30 10189 H 935.784 1.02234 -6.47479 0
M  V30 10190 H 935.304 2.42164 -5.48741 0
M  V30 10191 H 936.983 2.26469 -6.0607 0
M  V30 10192 N 937.115 1.49373 0.502552 0
M  V30 10193 C 938.526 1.52 1.0841 0
M  V30 10194 C 938.877 0.305317 1.9381 0
M  V30 10195 O 938.002 -0.585023 2.08342 0
M  V30 10196 C 938.597 2.75437 1.97281 0
M  V30 10197 C 937.156 2.80848 2.50602 0
M  V30 10198 C 936.303 2.45894 1.28186 0
M  V30 10199 H 939.254 1.56092 0.286533 0
M  V30 10200 H 939.275 2.55511 2.81947 0
M  V30 10201 H 938.787 3.63827 1.35098 0
M  V30 10202 H 936.888 1.96735 3.16427 0
M  V30 10203 H 937.001 3.82979 2.8786 0
M  V30 10204 H 935.365 1.97639 1.60657 0
M  V30 10205 H 936.148 3.36556 0.677139 0
M  V30 10206 N 938.594 -0.753485 1.38421 0
M  V30 10207 C 939.824 -1.54049 1.37669 0
M  V30 10208 C 940.232 -1.89167 -0.0353656 0
M  V30 10209 O 939.575 -1.53285 -1.01239 0
M  V30 10210 C 939.637 -2.86777 2.16793 0
M  V30 10211 C 939.301 -2.74196 3.65603 0
M  V30 10212 C 940.298 -2.43985 4.59094 0
M  V30 10213 C 937.983 -2.91645 4.0896 0
M  V30 10214 C 939.977 -2.31379 5.93921 0
M  V30 10215 C 937.664 -2.78658 5.43868 0
M  V30 10216 C 938.662 -2.48568 6.36163 0
M  V30 10217 O 938.35 -2.3564 7.68589 0
M  V30 10218 H 938.082 -0.483276 0.472673 0
M  V30 10219 H 940.636 -0.940267 1.82615 0
M  V30 10220 H 938.866 -3.48988 1.66565 0
M  V30 10221 H 940.555 -3.48289 2.08446 0
M  V30 10222 H 941.321 -2.30172 4.26902 0
M  V30 10223 H 937.2 -3.14063 3.37469 0
M  V30 10224 H 940.744 -2.07813 6.65927 0
M  V30 10225 H 936.641 -2.92044 5.75656 0
M  V30 10226 H 937.409 -2.50851 7.79112 0
M  V30 10227 N 940.072 -1.23292 -0.981677 0
M  V30 10228 C 941.302 -1.0893 -1.7555 0
M  V30 10229 C 941.71 0.362219 -1.857 0
M  V30 10230 O 941.053 1.2624 -1.33451 0
M  V30 10231 C 941.115 -1.6389 -3.19969 0
M  V30 10232 C 940.779 -3.12632 -3.33332 0
M  V30 10233 C 941.776 -4.0994 -3.19758 0
M  V30 10234 C 939.461 -3.52314 -3.58022 0
M  V30 10235 C 941.455 -5.44915 -3.30676 0
M  V30 10236 C 939.142 -4.87434 -3.6858 0
M  V30 10237 C 940.14 -5.83544 -3.54916 0
M  V30 10238 O 939.828 -7.16209 -3.65102 0
M  V30 10239 H 939.56 -0.381901 -0.557788 0
M  V30 10240 H 942.114 -1.63586 -1.24213 0
M  V30 10241 H 940.344 -1.03653 -3.72549 0
M  V30 10242 H 942.033 -1.45023 -3.79108 0
M  V30 10243 H 942.799 -3.80625 -3.00582 0
M  V30 10244 H 938.678 -2.78022 -3.67729 0
M  V30 10245 H 942.222 -6.19913 -3.19928 0
M  V30 10246 H 938.119 -5.16426 -3.87265 0
M  V30 10247 H 938.887 -7.23941 -3.81905 0
M  V30 10248 N 941.55 1.18024 -1.04442 0
M  V30 10249 C 942.775 1.92573 -0.770097 0
M  V30 10250 C 943.2 1.75871 0.667169 0
M  V30 10251 O 942.558 1.07136 1.46258 0
M  V30 10252 C 942.606 3.41904 -1.14602 0
M  V30 10253 O 941.71 4.11491 -0.273712 0
M  V30 10254 H 941.051 0.600636 -0.283076 0
M  V30 10255 H 943.581 1.49645 -1.39526 0
M  V30 10256 H 943.591 3.92623 -1.10956 0
M  V30 10257 H 942.266 3.53382 -2.19304 0
M  V30 10258 H 940.843 3.71059 -0.370124 0
M  V30 10259 N 943.028 0.824394 1.34319 0
M  V30 10260 C 944.256 0.426194 2.02463 0
M  V30 10261 C 944.671 -0.968298 1.62078 0
M  V30 10262 O 944.028 -1.62689 0.82696 0
M  V30 10263 C 944.079 0.520465 3.57734 0
M  V30 10264 O 943.8 1.86 3.96656 0
M  V30 10265 C 945.301 0.117353 4.43145 0
M  V30 10266 H 942.521 0.170864 0.648881 0
M  V30 10267 H 945.065 1.11296 1.71562 0
M  V30 10268 H 943.22 -0.118233 3.8722 0
M  V30 10269 H 943.634 1.83528 4.91343 0
M  V30 10270 H 945.108 0.234395 5.51502 0
M  V30 10271 H 945.585 -0.939271 4.29039 0
M  V30 10272 H 946.191 0.729908 4.1899 0
M  V30 10273 N 944.506 -1.46559 0.579492 0
M  V30 10274 C 945.917 -1.8608 0.152052 0
M  V30 10275 C 946.268 -1.48346 -1.28405 0
M  V30 10276 O 945.393 -0.89685 -1.9694 0
M  V30 10277 C 945.988 -3.37729 0.269171 0
M  V30 10278 C 944.547 -3.76258 -0.103376 0
M  V30 10279 C 943.694 -2.70584 0.60659 0
M  V30 10280 H 946.645 -1.3776 0.787904 0
M  V30 10281 H 946.666 -3.77116 -0.506339 0
M  V30 10282 H 946.178 -3.65162 1.31448 0
M  V30 10283 H 944.279 -3.54443 -1.14895 0
M  V30 10284 H 944.392 -4.78335 0.270701 0
M  V30 10285 H 942.756 -2.54656 0.0471984 0
M  V30 10286 H 943.539 -3.00856 1.65349 0
M  V30 10287 N 945.984 -0.3171 -1.54377 0
M  V30 10288 C 946.932 0.567371 -2.25574 0
M  V30 10289 C 947.926 1.12387 -1.2675 0
M  V30 10290 O 949.132 1.07266 -1.44548 0
M  V30 10291 H 945.507 0.201605 -0.724472 0
M  V30 10292 H 947.478 -0.0554644 -2.98348 0
M  V30 10293 C 946.227 1.71984 -3.02187 0
M  V30 10294 H 945.55 1.30086 -3.78044 0
M  V30 10295 H 946.99 2.31443 -3.5526 0
M  V30 10296 C 945.449 2.6336 -2.10103 0
M  V30 10297 O 945.979 3.64899 -1.67962 0
M  V30 10298 N 944.185 2.3145 -1.75725 0
M  V30 10299 H 943.732 1.48921 -2.10191 0
M  V30 10300 H 943.69 2.92852 -1.14391 0
M  V30 10301 N 947.462 1.57535 -0.0451378 0
M  V30 10302 C 948.687 1.97172 0.64326 0
M  V30 10303 C 949.112 0.922266 1.63939 0
M  V30 10304 O 948.47 -0.115155 1.80934 0
M  V30 10305 C 948.518 3.35889 1.3119 0
M  V30 10306 O 947.622 3.33387 2.42748 0
M  V30 10307 H 946.963 0.642469 0.167719 0
M  V30 10308 H 949.493 2.04295 -0.111747 0
M  V30 10309 H 949.503 3.72481 1.66499 0
M  V30 10310 H 948.178 4.1181 0.581823 0
M  V30 10311 H 946.755 3.08533 2.09432 0
M  V30 10312 N 948.94 -0.228186 1.55939 0
M  V30 10313 C 950.189 -0.951563 1.77843 0
M  V30 10314 C 950.502 -1.85763 0.612501 0
M  V30 10315 O 951.708 -2.61916 0.715006 0
M  V30 10316 C 950.164 -1.74216 3.14923 0
M  V30 10317 C 949.772 -0.882569 4.39221 0
M  V30 10318 C 951.516 -2.45715 3.46156 0
M  V30 10319 C 949.423 -1.67014 5.67327 0
M  V30 10320 H 948.353 -0.359035 0.663031 0
M  V30 10321 H 951.004 -0.205636 1.82344 0
M  V30 10322 H 949.386 -2.53075 3.0458 0
M  V30 10323 H 950.56 -0.13499 4.60602 0
M  V30 10324 H 948.875 -0.280022 4.15457 0
M  V30 10325 H 951.472 -3.05127 4.39092 0
M  V30 10326 H 951.815 -3.1827 2.68346 0
M  V30 10327 H 952.348 -1.73852 3.57799 0
M  V30 10328 H 949.087 -0.987985 6.48012 0
M  V30 10329 H 948.607 -2.3925 5.50018 0
M  V30 10330 H 950.286 -2.23252 6.07262 0
M  V30 10331 N 950.418 -1.49637 -0.494624 0
M  V30 10332 C 951.646 -1.63164 -1.2722 0
M  V30 10333 C 952.061 -0.305552 -1.86311 0
M  V30 10334 O 951.418 0.709758 -1.68133 0
M  V30 10335 C 951.469 -2.70524 -2.39789 0
M  V30 10336 O 951.19 -3.97991 -1.83126 0
M  V30 10337 C 952.691 -2.94814 -3.31058 0
M  V30 10338 H 949.911 -0.54912 -0.385627 0
M  V30 10339 H 952.455 -1.95711 -0.593081 0
M  V30 10340 H 950.61 -2.40738 -3.03519 0
M  V30 10341 H 951.024 -4.57179 -2.57075 0
M  V30 10342 H 952.498 -3.73653 -4.06309 0
M  V30 10343 H 952.975 -2.04974 -3.88436 0
M  V30 10344 H 953.581 -3.26042 -2.73088 0
M  V30 10345 N 951.896 0.746133 -1.38819 0
M  V30 10346 C 953.307 1.32384 -1.31648 0
M  V30 10347 C 953.658 1.96185 0.0243086 0
M  V30 10348 O 952.783 1.95567 0.92641 0
M  V30 10349 C 953.378 2.40712 -2.38418 0
M  V30 10350 C 951.937 2.94185 -2.34803 0
M  V30 10351 C 951.084 1.67639 -2.20891 0
M  V30 10352 H 954.035 0.544457 -1.49068 0
M  V30 10353 H 954.056 3.20833 -2.04564 0
M  V30 10354 H 953.568 1.94247 -3.3599 0
M  V30 10355 H 951.669 3.44959 -1.40834 0
M  V30 10356 H 951.782 3.48057 -3.29231 0
M  V30 10357 H 950.146 1.9155 -1.67871 0
M  V30 10358 H 950.929 1.23242 -3.20416 0
M  V30 10359 N 953.375 1.23811 0.975125 0
M  V30 10360 C 954.603 1.10019 1.75224 0
M  V30 10361 C 955.018 -0.34791 1.85567 0
M  V30 10362 O 954.375 -1.24043 1.33864 0
M  V30 10363 C 954.426 1.72572 3.1765 0
M  V30 10364 O 954.147 3.11719 3.07836 0
M  V30 10365 C 955.648 1.64292 4.11732 0
M  V30 10366 H 952.868 0.38476 0.549728 0
M  V30 10367 H 955.412 1.63768 1.22476 0
M  V30 10368 H 953.567 1.22843 3.67408 0
M  V30 10369 H 953.981 3.42152 3.97533 0
M  V30 10370 H 955.455 2.12754 5.09352 0
M  V30 10371 H 955.932 0.602722 4.35045 0
M  V30 10372 H 956.538 2.13411 3.6788 0
M  V30 10373 N 954.853 -1.17469 1.05066 0
M  V30 10374 C 956.264 -1.69334 0.786304 0
M  V30 10375 C 956.615 -1.83604 -0.691671 0
M  V30 10376 O 955.74 -1.52269 -1.53763 0
M  V30 10377 C 956.335 -3.07572 1.42074 0
M  V30 10378 C 954.894 -3.56609 1.20446 0
M  V30 10379 C 954.041 -2.329 1.50508 0
M  V30 10380 H 956.992 -1.02003 1.21577 0
M  V30 10381 H 957.013 -3.71352 0.829334 0
M  V30 10382 H 956.525 -2.97154 2.49642 0
M  V30 10383 H 954.626 -3.72306 0.147968 0
M  V30 10384 H 954.739 -4.39446 1.90852 0
M  V30 10385 H 953.103 -2.37305 0.925124 0
M  V30 10386 H 953.886 -2.25093 2.59207 0
M  V30 10387 N 956.331 -0.831506 -1.3388 0
M  V30 10388 C 957.263 -0.216908 -2.28171 0
M  V30 10389 C 958.276 0.598141 -1.51414 0
M  V30 10390 O 959.465 0.426416 -1.73332 0
M  V30 10391 C 956.565 0.713831 -3.31297 0
M  V30 10392 C 955.738 -0.0602673 -4.37358 0
M  V30 10393 C 954.797 0.792696 -5.20195 0
M  V30 10394 O 953.823 0.234564 -5.68716 0
M  V30 10395 N 955.025 2.11119 -5.40748 0
M  V30 10396 H 957.79 -1.02704 -2.81553 0
M  V30 10397 H 955.351 -0.689272 -1.46495 0
M  V30 10398 H 957.343 1.28925 -3.83615 0
M  V30 10399 H 955.913 1.42469 -2.78247 0
M  V30 10400 H 955.133 -0.817041 -3.8564 0
M  V30 10401 H 956.421 -0.592822 -5.05335 0
M  V30 10402 H 955.819 2.58828 -5.03016 0
M  V30 10403 H 954.376 2.63527 -5.96151 0
M  V30 10404 N 957.809 1.4625 -0.587256 0
M  V30 10405 C 958.756 2.30354 0.143384 0
M  V30 10406 C 959.726 1.40891 0.879716 0
M  V30 10407 O 960.911 1.69837 0.869486 0
M  V30 10408 C 958.051 3.25441 1.14815 0
M  V30 10409 C 957.164 4.30004 0.414792 0
M  V30 10410 C 956.299 5.12214 1.40748 0
M  V30 10411 C 955.338 6.08523 0.660786 0
M  V30 10412 N 954.475 6.83585 1.60176 0
M  V30 10413 H 959.315 2.92304 -0.579866 0
M  V30 10414 H 956.852 1.44055 -0.29777 0
M  V30 10415 H 958.81 3.79018 1.7436 0
M  V30 10416 H 957.44 2.6529 1.83906 0
M  V30 10417 H 956.492 3.79248 -0.295787 0
M  V30 10418 H 957.804 4.98515 -0.168738 0
M  V30 10419 H 956.958 5.70091 2.0756 0
M  V30 10420 H 955.697 4.43675 2.02494 0
M  V30 10421 H 954.702 5.49796 -0.0210864 0
M  V30 10422 H 955.927 6.79083 0.0486551 0
M  V30 10423 H 953.873 6.17752 2.20724 0
M  V30 10424 H 953.79 7.48373 1.07115 0
M  V30 10425 H 955.058 7.46016 2.26009 0
M  V30 10426 N 959.287 0.325282 1.54207 0
M  V30 10427 C 960.515 -0.27869 2.05014 0
M  V30 10428 C 960.93 -1.45649 1.20133 0
M  V30 10429 O 960.287 -1.81014 0.232398 0
M  V30 10430 C 960.338 -0.711486 3.54429 0
M  V30 10431 O 960.059 0.419458 4.36087 0
M  V30 10432 C 961.56 -1.37809 4.21336 0
M  V30 10433 H 958.78 -0.0570388 0.668571 0
M  V30 10434 H 961.324 0.47197 1.98979 0
M  V30 10435 H 959.479 -1.41212 3.60746 0
M  V30 10436 H 959.893 0.0781037 5.24442 0
M  V30 10437 H 961.367 -1.63184 5.27328 0
M  V30 10438 H 961.844 -2.32593 3.72555 0
M  V30 10439 H 962.45 -0.719987 4.19161 0
M  V30 10440 N 960.765 -1.57509 0.0534917 0
M  V30 10441 C 962.042 -1.84137 -0.659767 0
M  V30 10442 C 962.422 -0.942362 -1.88899 0
M  V30 10443 O 961.77 -0.00398566 -2.285 0
M  V30 10444 C 961.98 -3.33919 -1.01486 0
M  V30 10445 C 963.328 -4.00989 -1.39616 0
M  V30 10446 O 964.352 -3.38557 -1.10713 0
M  V30 10447 O 963.211 -5.11071 -1.93567 0
M  V30 10448 H 960.305 -0.760081 -0.325893 0
M  V30 10449 H 962.851 -1.69497 0.0830315 0
M  V30 10450 H 961.623 -3.91046 -0.141041 0
M  V30 10451 H 961.246 -3.53755 -1.81503 0
M  V30 10452 N 962.243 0.219913 -1.56058 0
M  V30 10453 C 963.52 0.968493 -1.6994 0
M  V30 10454 C 963.9 2.02358 -0.601219 0
M  V30 10455 O 963.248 2.25121 0.391534 0
M  V30 10456 C 963.458 1.57745 -3.11316 0
M  V30 10457 C 964.806 2.06908 -3.70775 0
M  V30 10458 O 965.83 1.67636 -3.14288 0
M  V30 10459 O 964.689 2.79096 -4.69859 0
M  V30 10460 H 961.783 0.452521 -0.692209 0
M  V30 10461 H 964.329 0.211566 -1.68376 0
M  V30 10462 H 963.101 0.815687 -3.82704 0
M  V30 10463 H 962.724 2.39987 -3.17005 0
M  V30 10464 N 963.721 1.49897 0.486681 0
M  V30 10465 C 964.969 1.59789 1.23742 0
M  V30 10466 C 965.29 0.293056 1.92785 0
M  V30 10467 O 964.56 -0.688534 1.83401 0
M  V30 10468 H 963.14 0.588775 0.459731 0
M  V30 10469 H 965.802 1.86597 0.562808 0
M  V30 10470 H 964.898 2.40121 1.9937 0
M  V30 10471 N 965.199 -0.738761 1.39212 0
M  V30 10472 C 966.109 -1.88324 1.39897 0
M  V30 10473 C 967.125 -1.71494 0.294229 0
M  V30 10474 O 968.301 -1.94162 0.535087 0
M  V30 10475 C 965.366 -3.23871 1.23726 0
M  V30 10476 C 964.427 -3.53121 2.44139 0
M  V30 10477 C 963.66 -4.82202 2.2873 0
M  V30 10478 O 963.883 -5.55649 1.28879 0
M  V30 10479 O 962.817 -5.11265 3.17634 0
M  V30 10480 H 966.643 -1.90701 2.36362 0
M  V30 10481 H 964.228 -0.886067 1.20288 0
M  V30 10482 H 966.11 -4.04882 1.16826 0
M  V30 10483 H 964.785 -3.22274 0.303551 0
M  V30 10484 H 963.692 -2.72212 2.56615 0
M  V30 10485 H 965.025 -3.59495 3.36191 0
M  V30 10486 N 966.677 -1.24326 -0.968545 0
M  V30 10487 C 967.587 -1.05194 -2.09694 0
M  V30 10488 C 968.603 0.00701291 -1.73999 0
M  V30 10489 O 969.779 -0.190981 -2.00492 0
M  V30 10490 C 966.844 -0.658075 -3.40397 0
M  V30 10491 C 965.905 -1.79341 -3.90045 0
M  V30 10492 C 965.138 -1.41824 -5.14511 0
M  V30 10493 O 965.361 -0.307693 -5.69569 0
M  V30 10494 O 964.295 -2.24358 -5.58522 0
M  V30 10495 H 968.121 -1.99791 -2.2873 0
M  V30 10496 H 965.706 -1.03138 -1.08088 0
M  V30 10497 H 967.588 -0.449911 -4.18991 0
M  V30 10498 H 966.263 0.258782 -3.22664 0
M  V30 10499 H 965.17 -2.05632 -3.12516 0
M  V30 10500 H 966.503 -2.68901 -4.12254 0
M  V30 10501 N 968.156 1.1691 -1.05688 0
M  V30 10502 C 969.567 1.68915 -0.795273 0
M  V30 10503 C 969.918 1.83968 0.681925 0
M  V30 10504 O 969.043 1.53083 1.52953 0
M  V30 10505 C 969.638 3.06814 -1.43703 0
M  V30 10506 C 968.197 3.55965 -1.22335 0
M  V30 10507 C 967.344 2.32099 -1.51741 0
M  V30 10508 H 970.295 1.01357 -1.22116 0
M  V30 10509 H 970.316 3.70907 -0.849016 0
M  V30 10510 H 969.828 2.95826 -2.51214 0
M  V30 10511 H 967.929 3.72222 -0.16771 0
M  V30 10512 H 968.042 4.38427 -1.9318 0
M  V30 10513 H 966.406 2.36811 -0.937696 0
M  V30 10514 H 967.189 2.23715 -2.60397 0
M  V30 10515 N 969.634 0.838594 1.33437 0
M  V30 10516 C 970.564 0.286672 2.31734 0
M  V30 10517 C 971.545 -0.605451 1.5896 0
M  V30 10518 O 972.73 -0.529059 1.86854 0
M  V30 10519 C 969.86 -0.539311 3.43087 0
M  V30 10520 C 968.814 0.256997 4.27228 0
M  V30 10521 C 968.14 -0.692718 5.30194 0
M  V30 10522 C 969.44 1.47391 5.01072 0
M  V30 10523 H 971.134 1.10798 2.78144 0
M  V30 10524 H 968.68 0.534235 1.33723 0
M  V30 10525 H 970.633 -0.935724 4.1088 0
M  V30 10526 H 969.357 -1.39383 2.95364 0
M  V30 10527 H 968.016 0.634967 3.61059 0
M  V30 10528 H 967.664 -1.54363 4.78729 0
M  V30 10529 H 967.364 -0.164023 5.87371 0
M  V30 10530 H 968.888 -1.08665 6.00853 0
M  V30 10531 H 970.302 1.15067 5.61634 0
M  V30 10532 H 968.699 1.93937 5.67898 0
M  V30 10533 H 969.769 2.24382 4.29861 0
M  V30 10534 N 971.112 -1.45937 0.595003 0
M  V30 10535 C 972.042 -2.33198 -0.11871 0
M  V30 10536 C 973.023 -1.46083 -0.871423 0
M  V30 10537 O 974.208 -1.74879 -0.844461 0
M  V30 10538 C 971.338 -3.28576 -1.12495 0
M  V30 10539 C 970.292 -4.25229 -0.486275 0
M  V30 10540 C 969.618 -5.10204 -1.59986 0
M  V30 10541 C 970.918 -5.19019 0.584473 0
M  V30 10542 H 972.612 -2.93122 0.609886 0
M  V30 10543 H 970.158 -1.40951 0.294742 0
M  V30 10544 H 972.111 -3.88485 -1.6327 0
M  V30 10545 H 970.835 -2.66784 -1.88398 0
M  V30 10546 H 969.494 -3.666 0.000507962 0
M  V30 10547 H 969.142 -4.44789 -2.34886 0
M  V30 10548 H 968.842 -5.75669 -1.1781 0
M  V30 10549 H 970.366 -5.7298 -2.11014 0
M  V30 10550 H 971.78 -5.73073 0.161297 0
M  V30 10551 H 970.177 -5.92893 0.927256 0
M  V30 10552 H 971.247 -4.62208 1.46601 0
M  V30 10553 N 972.59 -0.333456 -1.54032 0
M  V30 10554 C 973.837 0.266133 -2.00744 0
M  V30 10555 C 974.165 1.51361 -1.22148 0
M  V30 10556 O 973.42 1.93473 -0.294368 0
M  V30 10557 C 973.719 0.63565 -3.51702 0
M  V30 10558 C 973.385 -0.513786 -4.47963 0
M  V30 10559 C 972.047 -0.829253 -4.74001 0
M  V30 10560 C 974.399 -1.2854 -5.05101 0
M  V30 10561 C 971.727 -1.91888 -5.54433 0
M  V30 10562 C 974.079 -2.3652 -5.86721 0
M  V30 10563 C 972.743 -2.68637 -6.11057 0
M  V30 10564 H 972.013 0.097385 -0.734573 0
M  V30 10565 H 974.66 -0.459282 -1.85911 0
M  V30 10566 H 972.965 1.44163 -3.64313 0
M  V30 10567 H 974.662 1.11129 -3.85294 0
M  V30 10568 H 971.252 -0.25784 -4.27824 0
M  V30 10569 H 975.436 -1.05494 -4.84958 0
M  V30 10570 H 970.692 -2.17208 -5.71516 0
M  V30 10571 H 974.866 -2.96747 -6.30011 0
M  V30 10572 H 972.493 -3.53197 -6.73169 0
M  V30 10573 O 974.107 1.6024 -0.201336 0
M  V30 10574 H 974.798 1.89877 0.382941 0
M  V30 END ATOM
M  V30 BEGIN BOND
M  V30 END BOND
M  V30 END CTAB
M  END
$$$$
