drugbank_target|Q8N0U8 Vitamin K epoxide reductase complex subunit 1-like protein 1 (DB00170)
 OpenBabel12092120093D

  0  0  0     0  0            999 V3000
M  V30 BEGIN CTAB
M  V30 COUNTS 2861 2893 0 0 0
M  V30 BEGIN ATOM
M  V30 1 H -0.908 1.98254 -0.117106 0
M  V30 2 N 0 1.576 0 0
M  V30 3 C 0.933 2.03868 1.02534 0
M  V30 4 C 1.911 0.928543 1.3348 0
M  V30 5 O 3.095 1.19667 1.45644 0
M  V30 6 C 0.222 2.43627 2.35294 0
M  V30 7 C -0.732 3.65373 2.2001 0
M  V30 8 S 0.101 5.13292 1.52614 0
M  V30 9 C 1.257 5.56322 2.86805 0
M  V30 10 H 1.49 2.90518 0.631377 0
M  V30 11 H -0.977 1.52953 0.210867 0
M  V30 12 H 0.981 2.67203 3.11629 0
M  V30 13 H -0.358 1.57376 2.7183 0
M  V30 14 H -1.165 3.90944 3.18086 0
M  V30 15 H -1.563 3.418 1.51819 0
M  V30 16 H 0.729 5.58782 3.83104 0
M  V30 17 H 1.672 6.56266 2.65933 0
M  V30 18 H 2.08 4.83886 2.90714 0
M  V30 19 N 1.4781 -0.272755 1.55222 0
M  V30 20 C 2.4411 -1.32041 1.87344 0
M  V30 21 C 3.4411 -1.42342 0.74803 0
M  V30 22 O 4.6311 -1.41488 1.0162 0
M  V30 23 C 1.7631 -2.70173 2.07893 0
M  V30 24 H 2.9561 -1.04789 2.80997 0
M  V30 25 H 0.5091 -0.51083 1.47717 0
M  V30 26 H 1.2441 -3.02605 1.16622 0
M  V30 27 H 1.0291 -2.64082 2.89833 0
M  V30 28 H 2.5191 -3.45869 2.34017 0
M  V30 29 N 2.9562 -1.48159 -0.537278 0
M  V30 30 C 3.9192 -1.61665 -1.62472 0
M  V30 31 C 4.9192 -0.490395 -1.5314 0
M  V30 32 O 6.1092 -0.755998 -1.5694 0
M  V30 33 C 3.2412 -1.57997 -3.02076 0
M  V30 34 H 4.4342 -2.58621 -1.51839 0
M  V30 35 H 1.9872 -1.36647 -0.758771 0
M  V30 36 H 2.7222 -0.624913 -3.18222 0
M  V30 37 H 2.5072 -2.39755 -3.10258 0
M  V30 38 H 3.9972 -1.70627 -3.81151 0
M  V30 39 N 4.4343 0.785586 -1.36625 0
M  V30 40 C 5.8453 1.36101 -1.27803 0
M  V30 41 C 6.1963 1.96035 0.0804875 0
M  V30 42 O 5.3213 1.92834 0.982042 0
M  V30 43 C 5.9163 2.47442 -2.31426 0
M  V30 44 C 4.4753 3.00789 -2.26281 0
M  V30 45 C 3.6223 1.73896 -2.15999 0
M  V30 46 H 6.5733 0.586928 -1.47448 0
M  V30 47 H 6.5943 3.2656 -1.95291 0
M  V30 48 H 6.1063 2.03791 -3.30289 0
M  V30 49 H 4.2073 3.48851 -1.30896 0
M  V30 50 H 4.3203 3.57343 -3.19128 0
M  V30 51 H 2.6843 1.9628 -1.62316 0
M  V30 52 H 3.4673 1.32368 -3.16755 0
M  V30 53 N 5.9124 1.20967 1.01018 0
M  V30 54 C 7.1584 1.02526 1.74975 0
M  V30 55 C 7.4914 -0.4408 1.89131 0
M  V30 56 O 6.7664 -1.32718 1.42184 0
M  V30 57 C 7.0494 1.71699 3.1653 0
M  V30 58 C 6.9024 3.25791 3.10129 0
M  V30 59 C 8.2214 1.45531 4.15342 0
M  V30 60 H 5.3404 0.373863 0.635134 0
M  V30 61 H 7.9824 1.49071 1.17805 0
M  V30 62 H 6.1324 1.32128 3.65341 0
M  V30 63 H 7.8044 3.74697 2.69072 0
M  V30 64 H 6.0474 3.56363 2.47362 0
M  V30 65 H 6.7184 3.69353 4.10222 0
M  V30 66 H 9.1944 1.79872 3.75213 0
M  V30 67 H 8.0704 1.96453 5.1254 0
M  V30 68 H 8.3314 0.384237 4.40427 0
M  V30 69 N 7.3905 -1.2043 1.01659 0
M  V30 70 C 8.3205 -2.25466 0.607226 0
M  V30 71 C 9.3015 -1.65853 -0.377716 0
M  V30 72 O 10.4865 -1.92409 -0.263149 0
M  V30 73 C 7.6165 -3.47256 -0.0552949 0
M  V30 74 C 6.5705 -4.19462 0.850632 0
M  V30 75 C 5.8965 -5.34673 0.0538859 0
M  V30 76 C 7.1965 -4.75603 2.15868 0
M  V30 77 H 8.8905 -2.59962 1.48526 0
M  V30 78 H 6.4365 -1.2496 0.715605 0
M  V30 79 H 8.3895 -4.19917 -0.353233 0
M  V30 80 H 7.1135 -3.11924 -0.968045 0
M  V30 81 H 5.7725 -3.48667 1.13257 0
M  V30 82 H 5.4205 -4.95585 -0.860514 0
M  V30 83 H 5.1205 -5.83913 0.657192 0
M  V30 84 H 6.6445 -6.10138 -0.237598 0
M  V30 85 H 8.0585 -5.40083 1.92311 0
M  V30 86 H 6.4555 -5.3528 2.71284 0
M  V30 87 H 7.5255 -3.94346 2.82169 0
M  V30 88 N 8.8686 -0.792821 -1.36206 0
M  V30 89 C 9.7986 -0.207853 -2.32573 0
M  V30 90 C 10.7796 0.659055 -1.56813 0
M  V30 91 O 11.9646 0.592176 -1.84951 0
M  V30 92 C 9.0946 0.655449 -3.41059 0
M  V30 93 C 8.0486 -0.111842 -4.27854 0
M  V30 94 C 7.3746 0.872274 -5.27537 0
M  V30 95 C 8.6746 -1.30299 -5.05786 0
M  V30 96 H 10.3686 -1.01294 -2.81744 0
M  V30 97 H 7.9146 -0.48854 -1.3546 0
M  V30 98 H 9.8676 1.07464 -4.07467 0
M  V30 99 H 8.5916 1.49328 -2.90463 0
M  V30 100 H 7.2506 -0.512053 -3.63006 0
M  V30 101 H 6.8986 1.70523 -4.73214 0
M  V30 102 H 6.5986 0.363291 -5.86476 0
M  V30 103 H 8.1226 1.28996 -5.96818 0
M  V30 104 H 9.5366 -0.959379 -5.65216 0
M  V30 105 H 7.9336 -1.7455 -5.74154 0
M  V30 106 H 9.0036 -2.09663 -4.37229 0
M  V30 107 N 10.3467 1.47872 -0.545128 0
M  V30 108 C 11.7627 1.5829 -0.204032 0
M  V30 109 C 11.9627 1.54529 1.29317 0
M  V30 110 O 11.0187 1.44232 2.07252 0
M  V30 111 C 12.3317 2.89304 -0.819987 0
M  V30 112 C 13.8797 3.02864 -0.790105 0
M  V30 113 C 14.3547 4.3656 -1.38491 0
M  V30 114 N 15.8457 4.43165 -1.34755 0
M  V30 115 C 16.5807 5.45153 -1.77753 0
M  V30 116 N 16.0767 6.54016 -2.2855 0
M  V30 117 N 17.8697 5.36125 -1.68897 0
M  V30 118 H 10.0207 1.4856 -1.51802 0
M  V30 119 H 12.2837 0.706305 -0.632327 0
M  V30 120 H 11.9897 2.97757 -1.87173 0
M  V30 121 H 11.8637 3.75957 -0.305915 0
M  V30 122 H 14.2507 2.94014 0.252913 0
M  V30 123 H 14.3317 2.17782 -1.34181 0
M  V30 124 H 13.9757 4.46164 -2.42693 0
M  V30 125 H 13.9057 5.20353 -0.808754 0
M  V30 126 H 16.3967 3.65083 -0.975855 0
M  V30 127 H 16.7097 7.27994 -2.59314 0
M  V30 128 H 15.0547 6.54938 -2.32553 0
M  V30 129 H 18.2457 4.49975 -1.28998 0
M  V30 130 H 18.4187 6.15472 -2.02726 0
M  V30 131 N 11.8248 0.280983 1.55075 0
M  V30 132 C 13.0708 -0.33461 2.00021 0
M  V30 133 C 13.4038 -1.55063 1.16915 0
M  V30 134 O 12.6788 -1.93006 0.240646 0
M  V30 135 C 12.9618 -0.711007 3.53011 0
M  V30 136 C 12.8148 0.512766 4.46868 0
M  V30 137 C 14.1338 -1.54522 4.12081 0
M  V30 138 H 11.2528 -0.120147 0.727141 0
M  V30 139 H 13.8948 0.389097 1.85973 0
M  V30 140 H 12.0448 -1.32761 3.65112 0
M  V30 141 H 13.7168 1.15131 4.46702 0
M  V30 142 H 11.9598 1.14975 4.18286 0
M  V30 143 H 12.6308 0.205556 5.51617 0
M  V30 144 H 15.1068 -1.02442 4.03293 0
M  V30 145 H 13.9828 -1.77739 5.19327 0
M  V30 146 H 14.2438 -2.52813 3.62682 0
M  V30 147 N 13.3029 -1.57598 0.00835791 0
M  V30 148 C 14.5279 -1.95617 -0.689103 0
M  V30 149 C 14.9529 -0.883753 -1.66046 0
M  V30 150 O 14.3109 0.157352 -1.80616 0
M  V30 151 C 14.3589 -3.32736 -1.38994 0
M  V30 152 O 13.4629 -3.27631 -2.50463 0
M  V30 153 H 12.8039 -0.638379 -0.182668 0
M  V30 154 H 15.3339 -2.045 0.064036 0
M  V30 155 H 15.3439 -3.68494 -1.75147 0
M  V30 156 H 14.0189 -4.1034 -0.677778 0
M  V30 157 H 12.5959 -3.03561 -2.16576 0
M  V30 158 N 14.781 0.264519 -1.55364 0
M  V30 159 C 16.027 0.99646 -1.76631 0
M  V30 160 C 16.36 1.85632 -0.570478 0
M  V30 161 O 15.635 1.89647 0.43175 0
M  V30 162 C 15.918 1.87187 -3.07625 0
M  V30 163 C 15.771 1.04138 -4.37579 0
M  V30 164 C 17.09 2.85749 -3.34717 0
M  V30 165 H 14.209 0.360841 -0.642622 0
M  V30 166 H 16.851 0.268218 -1.88097 0
M  V30 167 H 15.001 2.49279 -2.9798 0
M  V30 168 H 16.673 0.440517 -4.59192 0
M  V30 169 H 14.916 0.345115 -4.32425 0
M  V30 170 H 15.587 1.68729 -5.2558 0
M  V30 171 H 18.063 2.33793 -3.4421 0
M  V30 172 H 16.939 3.44136 -4.27623 0
M  V30 173 H 17.2 3.61311 -2.54768 0
M  V30 174 N 16.2591 1.48442 0.529413 0
M  V30 175 C 17.6701 1.5002 1.11134 0
M  V30 176 C 18.0211 0.27031 1.94329 0
M  V30 177 O 17.1461 -0.622507 2.07253 0
M  V30 178 C 17.7411 2.71834 2.02217 0
M  V30 179 C 16.3001 2.76283 2.55627 0
M  V30 180 C 15.4471 2.43542 1.326 0
M  V30 181 H 18.3981 1.5555 0.314641 0
M  V30 182 H 18.4191 2.50384 2.8651 0
M  V30 183 H 17.9311 3.61331 1.41639 0
M  V30 184 H 16.0321 1.90995 3.19924 0
M  V30 185 H 16.1451 3.77725 2.94721 0
M  V30 186 H 14.5091 1.94709 1.64196 0
M  V30 187 H 15.2921 3.3528 0.737734 0
M  V30 188 N 17.7372 -0.778329 1.37039 0
M  V30 189 C 19.1532 -1.07796 1.17695 0
M  V30 190 C 19.3532 -2.01498 0.00860115 0
M  V30 191 O 18.4092 -2.43901 -0.653352 0
M  V30 192 C 19.7222 -1.68178 2.49272 0
M  V30 193 C 21.2702 -1.80467 2.55735 0
M  V30 194 C 21.7452 -2.44263 3.87427 0
M  V30 195 N 23.2362 -2.51721 3.88833 0
M  V30 196 C 23.9712 -3.01919 4.87476 0
M  V30 197 N 23.4672 -3.5234 5.96513 0
M  V30 198 N 25.2602 -3.00733 4.74885 0
M  V30 199 H 17.4112 -0.156032 2.11826 0
M  V30 200 H 19.6742 -0.131844 0.938787 0
M  V30 201 H 19.3802 -1.06796 3.35093 0
M  V30 202 H 19.2542 -2.67554 2.65885 0
M  V30 203 H 21.6412 -2.40984 1.70325 0
M  V30 204 H 21.7222 -0.798656 2.43013 0
M  V30 205 H 21.3662 -1.84388 4.73248 0
M  V30 206 H 21.2962 -3.45458 3.9745 0
M  V30 207 H 23.7872 -2.1603 3.10063 0
M  V30 208 H 24.1002 -3.89027 6.67741 0
M  V30 209 H 22.4452 -3.50462 6.00168 0
M  V30 210 H 25.6362 -2.60638 3.88826 0
M  V30 211 H 25.8092 -3.39545 5.51918 0
M  V30 212 N 19.2153 -1.21501 -1.00376 0
M  V30 213 C 20.4613 -1.04457 -1.74529 0
M  V30 214 C 20.8163 0.417386 -1.87818 0
M  V30 215 O 20.1093 1.30556 -1.40234 0
M  V30 216 C 20.3033 -1.67673 -3.15627 0
M  V30 217 C 20.1323 -3.19865 -3.16096 0
M  V30 218 C 18.9023 -3.88915 -3.22604 0
M  V30 219 C 21.1003 -4.16936 -3.01112 0
M  V30 220 N 19.0823 -5.28284 -3.12712 0
M  V30 221 C 20.4533 -5.43066 -2.99131 0
M  V30 222 C 22.5083 -4.07968 -2.85423 0
M  V30 223 C 21.2113 -6.6126 -2.83068 0
M  V30 224 C 23.2373 -5.258 -2.70718 0
M  V30 225 C 22.5993 -6.50842 -2.69414 0
M  V30 226 H 18.6983 -0.436584 -0.648782 0
M  V30 227 H 21.2823 -1.53875 -1.19293 0
M  V30 228 H 19.4533 -1.20822 -3.6913 0
M  V30 229 H 21.1853 -1.43824 -3.78281 0
M  V30 230 H 17.9403 -3.39847 -3.2985 0
M  V30 231 H 18.3643 -6.01284 -3.11105 0
M  V30 232 H 23.0063 -3.1209 -2.85236 0
M  V30 233 H 20.7243 -7.57298 -2.82002 0
M  V30 234 H 24.3103 -5.20683 -2.59577 0
M  V30 235 H 23.1903 -7.40485 -2.5817 0
M  V30 236 N 20.6934 1.19889 -1.02296 0
M  V30 237 C 21.6034 2.26571 -0.608508 0
M  V30 238 C 22.6194 1.70299 0.356964 0
M  V30 239 O 23.7954 2.00235 0.216326 0
M  V30 240 C 20.8604 3.46677 0.0402814 0
M  V30 241 C 19.9214 4.18153 -0.97194 0
M  V30 242 C 19.1544 5.32525 -0.354016 0
M  V30 243 O 19.3774 5.64112 0.844604 0
M  V30 244 O 18.3114 5.92242 -1.07391 0
M  V30 245 H 22.1374 2.64251 -1.49684 0
M  V30 246 H 19.7224 1.26629 -0.792809 0
M  V30 247 H 21.6044 4.19475 0.402324 0
M  V30 248 H 20.2794 3.10858 0.902707 0
M  V30 249 H 19.1864 3.47499 -1.38546 0
M  V30 250 H 20.5194 4.57927 -1.80454 0
M  V30 251 N 22.1715 0.800033 1.35784 0
M  V30 252 C 23.5875 0.482977 1.52117 0
M  V30 253 C 23.7875 -0.996948 1.75109 0
M  V30 254 O 22.8435 -1.78216 1.78872 0
M  V30 255 C 24.1565 1.32264 2.70049 0
M  V30 256 C 25.7045 1.31742 2.83924 0
M  V30 257 C 26.1795 2.14106 4.04874 0
M  V30 258 N 27.6705 2.11607 4.12039 0
M  V30 259 C 28.4055 2.72099 5.04727 0
M  V30 260 N 27.9015 3.41492 6.02789 0
M  V30 261 N 29.6945 2.61776 4.97423 0
M  V30 262 H 21.8455 1.75856 1.19115 0
M  V30 263 H 24.1085 0.748122 0.582252 0
M  V30 264 H 23.8145 2.37261 2.59616 0
M  V30 265 H 23.6885 0.971303 3.6448 0
M  V30 266 H 26.0755 0.275333 2.93813 0
M  V30 267 H 26.1565 1.70859 1.9037 0
M  V30 268 H 25.8005 3.18351 3.95746 0
M  V30 269 H 25.7305 1.72353 4.97596 0
M  V30 270 H 28.2215 1.61112 3.41835 0
M  V30 271 H 28.5345 3.84953 6.70098 0
M  V30 272 H 26.8795 3.45596 6.02983 0
M  V30 273 H 30.0705 2.07157 4.19766 0
M  V30 274 H 30.2435 3.0921 5.69468 0
M  V30 275 N 23.6496 -1.47581 0.552962 0
M  V30 276 C 24.8956 -2.02782 0.0273648 0
M  V30 277 C 25.2286 -1.42687 -1.31734 0
M  V30 278 O 24.5036 -0.580897 -1.85623 0
M  V30 279 C 24.7866 -3.60031 -0.0702371 0
M  V30 280 C 24.6396 -4.30566 1.30126 0
M  V30 281 C 25.9586 -4.33028 -0.785771 0
M  V30 282 H 23.0776 -0.736912 0.0114185 0
M  V30 283 H 25.7196 -1.76056 0.714432 0
M  V30 284 H 23.8696 -3.82932 -0.655382 0
M  V30 285 H 25.5416 -4.19018 1.92929 0
M  V30 286 H 23.7846 -3.91086 1.87709 0
M  V30 287 H 24.4556 -5.39114 1.18573 0
M  V30 288 H 26.9316 -4.15095 -0.288982 0
M  V30 289 H 25.8076 -5.42695 -0.823013 0
M  V30 290 H 26.0686 -4.01945 -1.841 0
M  V30 291 N 25.1277 -0.289203 -1.54924 0
M  V30 292 C 26.0907 0.579144 -2.21762 0
M  V30 293 C 27.0907 1.07047 -1.1999 0
M  V30 294 O 28.2807 0.968384 -1.44803 0
M  V30 295 C 25.4127 1.80055 -2.8947 0
M  V30 296 H 26.6057 -0.00464908 -2.999 0
M  V30 297 H 24.1587 -0.0399306 -1.56249 0
M  V30 298 H 24.8937 2.42449 -2.15381 0
M  V30 299 H 24.6787 1.45602 -3.64064 0
M  V30 300 H 26.1687 2.41773 -3.40493 0
M  V30 301 N 26.6058 1.57591 -0.0167156 0
M  V30 302 C 28.0218 1.55946 0.339557 0
M  V30 303 C 28.2218 1.02109 1.73713 0
M  V30 304 O 27.2778 0.662303 2.43659 0
M  V30 305 C 28.5908 3.00037 0.199499 0
M  V30 306 C 30.1388 3.11805 0.273193 0
M  V30 307 C 30.6138 4.57713 0.162068 0
M  V30 308 N 32.1048 4.6268 0.219444 0
M  V30 309 C 32.8398 5.73185 0.157054 0
M  V30 310 N 32.3358 6.92786 0.0442936 0
M  V30 311 N 34.1288 5.61707 0.21014 0
M  V30 312 H 26.2798 1.90921 -0.930758 0
M  V30 313 H 28.5428 0.877674 -0.358319 0
M  V30 314 H 28.2488 3.4333 -0.76273 0
M  V30 315 H 28.1228 3.64387 0.974786 0
M  V30 316 H 30.5098 2.68433 1.22587 0
M  V30 317 H 30.5908 2.50201 -0.532256 0
M  V30 318 H 30.2348 5.01763 -0.78714 0
M  V30 319 H 30.1648 5.17283 0.986222 0
M  V30 320 H 32.6558 3.76649 0.307246 0
M  V30 321 H 32.9688 7.728 0.00304069 0
M  V30 322 H 31.3138 6.94999 0.00968457 0
M  V30 323 H 34.5048 4.6716 0.296546 0
M  V30 324 H 34.6778 6.47807 0.158054 0
M  V30 325 N 28.0839 -0.256276 1.55502 0
M  V30 326 C 29.3139 -1.00196 1.80677 0
M  V30 327 C 29.7219 -1.79805 0.588797 0
M  V30 328 O 29.0649 -1.78055 -0.451883 0
M  V30 329 C 29.1269 -1.99515 2.99055 0
M  V30 330 C 28.7909 -1.38688 4.35448 0
M  V30 331 C 29.7879 -0.794079 5.138 0
M  V30 332 C 27.4729 -1.40906 4.82132 0
M  V30 333 C 29.4669 -0.231562 6.36979 0
M  V30 334 C 27.1539 -0.842684 6.05262 0
M  V30 335 C 28.1519 -0.254953 6.82524 0
M  V30 336 O 27.8399 0.3027 8.0333 0
M  V30 337 H 27.5719 -0.300919 0.60533 0
M  V30 338 H 30.1259 -0.287307 2.03381 0
M  V30 339 H 28.3559 -2.74785 2.72084 0
M  V30 340 H 30.0449 -2.60349 3.11405 0
M  V30 341 H 30.8109 -0.769519 4.78856 0
M  V30 342 H 26.6899 -1.85591 4.21992 0
M  V30 343 H 30.2339 0.227816 6.97228 0
M  V30 344 H 26.1309 -0.86454 6.39684 0
M  V30 345 H 26.8989 0.193662 8.18271 0
M  V30 346 N 29.562 -1.4872 -0.521534 0
M  V30 347 C 30.525 -1.63379 -1.60748 0
M  V30 348 C 31.525 -0.50661 -1.52611 0
M  V30 349 O 32.715 -0.772601 -1.5613 0
M  V30 350 C 29.847 -1.61192 -3.00383 0
M  V30 351 H 31.04 -2.60217 -1.49087 0
M  V30 352 H 28.593 -1.37444 -0.744235 0
M  V30 353 H 29.328 -0.65863 -3.17541 0
M  V30 354 H 29.113 -2.43032 -3.07698 0
M  V30 355 H 30.603 -1.7466 -3.7932 0
M  V30 356 N 31.0401 0.771051 -1.3745 0
M  V30 357 C 32.2861 1.5319 -1.32894 0
M  V30 358 C 32.6191 1.94008 0.0862511 0
M  V30 359 O 31.8941 1.64124 1.04373 0
M  V30 360 C 32.1771 2.79648 -2.26868 0
M  V30 361 C 32.0301 2.45079 -3.77169 0
M  V30 362 C 33.3491 3.81583 -2.19277 0
M  V30 363 H 30.4681 0.555744 -0.484064 0
M  V30 364 H 33.1101 0.884492 -1.68157 0
M  V30 365 H 31.2601 3.34891 -1.96926 0
M  V30 366 H 32.9321 1.95745 -4.1771 0
M  V30 367 H 31.1751 1.77767 -3.95704 0
M  V30 368 H 31.8461 3.35478 -4.38359 0
M  V30 369 H 34.3221 3.35835 -2.45671 0
M  V30 370 H 33.1981 4.67787 -2.87171 0
M  V30 371 H 33.4591 4.25897 -1.18592 0
M  V30 372 N 32.5182 1.22032 0.997298 0
M  V30 373 C 33.7582 1.05375 1.75144 0
M  V30 374 C 34.1222 -0.404696 1.87686 0
M  V30 375 O 35.3232 -0.691998 2.5974 0
M  V30 376 C 33.5942 1.74046 3.12158 0
M  V30 377 S 35.1532 1.72745 4.03366 0
M  V30 378 H 31.9712 0.377449 0.602539 0
M  V30 379 H 34.5732 1.54902 1.19272 0
M  V30 380 H 33.2772 2.79332 3.00669 0
M  V30 381 H 32.8082 1.24731 3.73103 0
M  V30 382 H 34.8232 0.774015 4.90126 0
M  V30 383 N 33.9963 -1.19345 1.0293 0
M  V30 384 C 34.9593 -2.20793 0.615069 0
M  V30 385 C 35.9593 -1.57553 -0.321533 0
M  V30 386 O 37.1493 -1.73862 -0.108483 0
M  V30 387 C 34.2813 -3.40754 -0.0999222 0
M  V30 388 H 35.4743 -2.58955 1.51269 0
M  V30 389 H 33.0273 -1.3303 0.820534 0
M  V30 390 H 33.7623 -3.0811 -1.01187 0
M  V30 391 H 33.5473 -3.87889 0.57309 0
M  V30 392 H 35.0373 -4.15898 -0.376645 0
M  V30 393 N 35.4744 -0.807222 -1.35358 0
M  V30 394 C 36.4374 -0.223665 -2.28106 0
M  V30 395 C 37.4374 0.589354 -1.4961 0
M  V30 396 O 38.6274 0.407745 -1.69361 0
M  V30 397 C 35.7594 0.688149 -3.33882 0
M  V30 398 H 36.9524 -1.04169 -2.81227 0
M  V30 399 H 34.5054 -0.577921 -1.45223 0
M  V30 400 H 35.2404 1.52984 -2.85948 0
M  V30 401 H 35.0254 0.10687 -3.91954 0
M  V30 402 H 36.5154 1.09075 -4.03104 0
M  V30 403 N 36.9525 1.47285 -0.560781 0
M  V30 404 C 38.2005 2.02064 -0.0379868 0
M  V30 405 C 38.5215 1.43711 1.31803 0
M  V30 406 O 37.7915 0.61362 1.86042 0
M  V30 407 H 36.3715 0.746918 -0.0110531 0
M  V30 408 H 39.0335 1.80648 -0.731598 0
M  V30 409 H 38.1295 3.12064 0.0474463 0
M  V30 410 N 38.4306 0.297415 1.54768 0
M  V30 411 C 39.6796 -0.313669 1.99246 0
M  V30 412 C 39.9926 -1.55281 1.18942 0
M  V30 413 O 41.1986 -2.23825 1.5367 0
M  V30 414 C 39.6546 -0.609407 3.54703 0
M  V30 415 C 39.2626 0.611192 4.43811 0
M  V30 416 C 41.0066 -1.18188 4.07715 0
M  V30 417 C 38.9136 0.288805 5.90694 0
M  V30 418 H 37.8436 -0.120979 0.744231 0
M  V30 419 H 40.4946 0.40556 1.78962 0
M  V30 420 H 38.8766 -1.38813 3.70873 0
M  V30 421 H 40.0506 1.3875 4.39414 0
M  V30 422 H 38.3656 1.10205 4.01552 0
M  V30 423 H 40.9626 -1.43727 5.15021 0
M  V30 424 H 41.3056 -2.12299 3.58099 0
M  V30 425 H 41.8386 -0.464944 3.95074 0
M  V30 426 H 38.5776 1.19838 6.44453 0
M  V30 427 H 38.0976 -0.450305 5.98107 0
M  V30 428 H 39.7766 -0.110933 6.46905 0
M  V30 429 N 39.9087 -1.5758 0.0250728 0
M  V30 430 C 40.8387 -2.13007 -0.956575 0
M  V30 431 C 41.8197 -1.0452 -1.342 0
M  V30 432 O 43.0047 -1.32332 -1.42133 0
M  V30 433 C 40.1347 -2.65386 -2.24026 0
M  V30 434 C 39.0887 -3.78623 -1.99571 0
M  V30 435 C 38.4147 -4.17414 -3.3417 0
M  V30 436 C 39.7147 -5.04867 -1.33814 0
M  V30 437 H 41.4087 -2.9528 -0.494991 0
M  V30 438 H 38.9547 -1.42042 -0.236651 0
M  V30 439 H 40.9077 -3.02794 -2.93076 0
M  V30 440 H 39.6317 -1.80268 -2.72343 0
M  V30 441 H 38.2907 -3.41646 -1.32941 0
M  V30 442 H 37.9387 -3.29284 -3.80238 0
M  V30 443 H 37.6387 -4.93719 -3.18615 0
M  V30 444 H 39.1627 -4.57402 -4.04495 0
M  V30 445 H 40.5767 -5.39888 -1.92857 0
M  V30 446 H 38.9737 -5.86144 -1.28669 0
M  V30 447 H 40.0437 -4.83904 -0.310561 0
M  V30 448 N 41.3868 0.248026 -1.55636 0
M  V30 449 C 42.3168 1.31079 -1.93237 0
M  V30 450 C 43.2978 1.50264 -0.797174 0
M  V30 451 O 44.4828 1.62891 -1.05737 0
M  V30 452 C 41.6128 2.66575 -2.22609 0
M  V30 453 C 40.5668 2.62087 -3.3837 0
M  V30 454 C 39.8928 4.01369 -3.53281 0
M  V30 455 C 41.1928 2.19171 -4.7409 0
M  V30 456 H 42.8868 0.998556 -2.82257 0
M  V30 457 H 40.4328 0.47891 -1.35803 0
M  V30 458 H 42.3858 3.41057 -2.47503 0
M  V30 459 H 41.1098 2.99432 -1.30414 0
M  V30 460 H 39.7688 1.90063 -3.13483 0
M  V30 461 H 39.4168 4.31489 -2.58508 0
M  V30 462 H 39.1168 3.99254 -4.31127 0
M  V30 463 H 40.6408 4.77552 -3.80495 0
M  V30 464 H 42.0548 2.83384 -4.98363 0
M  V30 465 H 40.4518 2.2817 -5.5503 0
M  V30 466 H 41.5218 1.14336 -4.71227 0
M  V30 467 N 42.8649 1.48995 0.513639 0
M  V30 468 C 44.0899 1.61792 1.29762 0
M  V30 469 C 44.5149 0.284475 1.85936 0
M  V30 470 O 43.8729 -0.746185 1.65232 0
M  V30 471 C 43.9209 2.67993 2.41272 0
M  V30 472 O 43.0249 2.26287 3.44772 0
M  V30 473 H 42.3659 0.541963 0.38363 0
M  V30 474 H 44.8959 1.95097 0.616307 0
M  V30 475 H 44.9059 2.89772 2.87221 0
M  V30 476 H 43.5809 3.64791 1.9975 0
M  V30 477 H 42.1579 2.14788 3.04829 0
M  V30 478 N 44.343 -0.763751 1.37857 0
M  V30 479 C 45.592 -1.51789 1.32827 0
M  V30 480 C 45.905 -1.95426 -0.0823719 0
M  V30 481 O 47.111 -2.70298 -0.255172 0
M  V30 482 C 45.567 -2.74133 2.33193 0
M  V30 483 C 45.175 -2.37562 3.79827 0
M  V30 484 C 46.919 -3.52054 2.37188 0
M  V30 485 C 44.826 -3.56456 4.71904 0
M  V30 486 H 43.756 -0.569896 0.493695 0
M  V30 487 H 46.407 -0.835822 1.63359 0
M  V30 488 H 44.789 -3.4427 1.9569 0
M  V30 489 H 45.963 -1.75157 4.26212 0
M  V30 490 H 44.278 -1.72798 3.78853 0
M  V30 491 H 46.875 -4.40437 3.03182 0
M  V30 492 H 47.218 -3.92486 1.38782 0
M  V30 493 H 47.751 -2.88921 2.7344 0
M  V30 494 H 44.49 -3.21099 5.71468 0
M  V30 495 H 44.01 -4.17938 4.30218 0
M  V30 496 H 45.689 -4.23168 4.89426 0
M  V30 497 N 45.8211 -1.22559 -0.990812 0
M  V30 498 C 47.0511 -1.07623 -1.76355 0
M  V30 499 C 47.4591 0.37601 -1.85426 0
M  V30 500 O 46.8021 1.27228 -1.32509 0
M  V30 501 C 46.8641 -1.61507 -3.21179 0
M  V30 502 C 46.5281 -3.10146 -3.35646 0
M  V30 503 C 47.5251 -4.07553 -3.22796 0
M  V30 504 C 45.2101 -3.49644 -3.60631 0
M  V30 505 C 47.2041 -5.42442 -3.34716 0
M  V30 506 C 44.8911 -4.84682 -3.72192 0
M  V30 507 C 45.8891 -5.8089 -3.59243 0
M  V30 508 O 45.5771 -7.13476 -3.70415 0
M  V30 509 H 45.3091 -0.377745 -0.560611 0
M  V30 510 H 47.8631 -1.62658 -1.25425 0
M  V30 511 H 46.0931 -1.00881 -3.73309 0
M  V30 512 H 47.7821 -1.42202 -3.80175 0
M  V30 513 H 48.5481 -3.78381 -3.03403 0
M  V30 514 H 44.4271 -2.75282 -3.69785 0
M  V30 515 H 47.9711 -6.17518 -3.24526 0
M  V30 516 H 43.8681 -5.13534 -3.91092 0
M  V30 517 H 44.6361 -7.21083 -3.87275 0
M  V30 518 N 47.2992 1.18797 -1.03562 0
M  V30 519 C 48.2622 2.20464 -0.626769 0
M  V30 520 C 49.2622 1.57721 0.313173 0
M  V30 521 O 50.4522 1.73917 0.0992615 0
M  V30 522 C 47.5842 3.40802 0.0818498 0
M  V30 523 H 48.7772 2.58149 -1.5264 0
M  V30 524 H 46.3302 1.32593 -0.827578 0
M  V30 525 H 47.0652 3.08642 0.995518 0
M  V30 526 H 46.8502 3.8758 -0.593652 0
M  V30 527 H 48.3402 4.16092 0.354584 0
M  V30 528 N 48.7773 0.814389 1.34928 0
M  V30 529 C 50.0073 0.41054 2.0248 0
M  V30 530 C 50.4153 -0.985625 1.61499 0
M  V30 531 O 49.7583 -1.64781 0.811976 0
M  V30 532 C 49.8203 0.423384 3.56998 0
M  V30 533 C 49.4843 1.77141 4.21272 0
M  V30 534 C 50.4813 2.73093 4.42398 0
M  V30 535 C 48.1663 2.05755 4.58225 0
M  V30 536 C 50.1603 3.95838 4.9959 0
M  V30 537 C 47.8473 3.28762 5.1513 0
M  V30 538 C 48.8453 4.23621 5.35755 0
M  V30 539 O 48.5333 5.44456 5.91458 0
M  V30 540 H 48.2653 0.163997 0.655806 0
M  V30 541 H 50.8193 1.10155 1.73364 0
M  V30 542 H 49.0493 -0.324276 3.85338 0
M  V30 543 H 50.7383 0.0407683 4.0588 0
M  V30 544 H 51.5043 2.5228 4.14222 0
M  V30 545 H 47.3833 1.32727 4.4148 0
M  V30 546 H 50.9273 4.69891 5.15605 0
M  V30 547 H 46.8243 3.49443 5.42734 0
M  V30 548 H 47.5923 5.4586 6.09901 0
M  V30 549 N 50.2554 -1.46986 0.568584 0
M  V30 550 C 51.2054 -2.27179 -0.193339 0
M  V30 551 C 52.1894 -1.35035 -0.874895 0
M  V30 552 O 53.3814 -1.5931 -0.771322 0
M  V30 553 C 50.5104 -3.21063 -1.21546 0
M  V30 554 C 49.5964 -4.2069 -0.536738 0
M  V30 555 N 49.9874 -5.04218 0.399673 0
M  V30 556 C 48.2854 -4.38961 -0.789254 0
M  V30 557 C 48.9864 -5.76242 0.795017 0
M  V30 558 N 47.9624 -5.434 0.1473 0
M  V30 559 H 51.7644 -2.89146 0.526458 0
M  V30 560 H 49.2784 -1.57664 0.389342 0
M  V30 561 H 51.2754 -3.77209 -1.77536 0
M  V30 562 H 49.9354 -2.60654 -1.93623 0
M  V30 563 H 50.9464 -5.12077 0.774454 0
M  V30 564 H 47.6234 -3.89713 -1.49767 0
M  V30 565 H 49.0134 -6.53417 1.56513 0
M  V30 566 N 51.7335 -0.305618 -1.54608 0
M  V30 567 C 52.9795 0.302746 -2.00528 0
M  V30 568 C 53.3125 1.53184 -1.19367 0
M  V30 569 O 52.5875 1.92598 -0.271321 0
M  V30 570 C 52.8705 0.654756 -3.54097 0
M  V30 571 C 52.7235 -0.583793 -4.45995 0
M  V30 572 C 54.0425 1.47947 -4.14487 0
M  V30 573 H 51.1615 0.108564 -0.72896 0
M  V30 574 H 53.8035 -0.418634 -1.85331 0
M  V30 575 H 51.9535 1.26935 -3.67178 0
M  V30 576 H 53.6255 -1.22224 -4.44814 0
M  V30 577 H 51.8685 -1.21615 -4.16404 0
M  V30 578 H 52.5395 -0.293287 -5.5122 0
M  V30 579 H 55.0155 0.96013 -4.04871 0
M  V30 580 H 53.8915 1.69454 -5.22088 0
M  V30 581 H 54.1525 2.47011 -3.66658 0
M  V30 582 N 53.2116 1.57565 -0.0334293 0
M  V30 583 C 54.1216 2.13943 0.962572 0
M  V30 584 C 55.1376 1.09276 1.35406 0
M  V30 585 O 56.3136 1.41355 1.4346 0
M  V30 586 C 53.3786 2.65887 2.22497 0
M  V30 587 C 52.4396 3.85286 1.8935 0
M  V30 588 C 51.6726 4.34743 3.09571 0
M  V30 589 O 51.8956 3.83352 4.22371 0
M  V30 590 O 50.8296 5.26538 2.91618 0
M  V30 591 H 54.6556 2.99333 0.513169 0
M  V30 592 H 52.2406 1.4822 0.18743 0
M  V30 593 H 54.1226 2.99346 2.96598 0
M  V30 594 H 52.7976 1.83578 2.6661 0
M  V30 595 H 51.7046 3.56746 1.1262 0
M  V30 596 H 53.0376 4.68771 1.5005 0
M  V30 597 N 54.6897 -0.239769 1.55765 0
M  V30 598 C 56.1057 -0.588624 1.48349 0
M  V30 599 C 56.3057 -1.88005 0.72502 0
M  V30 600 O 55.3617 -2.51186 0.257269 0
M  V30 601 C 56.6747 -0.68474 2.928 0
M  V30 602 C 58.2227 -0.77659 3.03213 0
M  V30 603 C 58.6977 -0.904207 4.48986 0
M  V30 604 N 60.1887 -0.968896 4.52953 0
M  V30 605 C 60.9237 -1.08703 5.63002 0
M  V30 606 N 60.4197 -1.17026 6.82845 0
M  V30 607 N 62.2127 -1.12074 5.50814 0
M  V30 608 H 54.3637 0.607911 2.03515 0
M  V30 609 H 56.6267 0.21083 0.924259 0
M  V30 610 H 56.3327 0.194284 3.51163 0
M  V30 611 H 56.2067 -1.55435 3.43686 0
M  V30 612 H 58.5937 -1.64606 2.44926 0
M  V30 613 H 58.6747 0.118315 2.55526 0
M  V30 614 H 58.3187 -0.0392633 5.07885 0
M  V30 615 H 58.2487 -1.81426 4.9436 0
M  V30 616 H 60.7397 -0.915633 3.6664 0
M  V30 617 H 61.0527 -1.25966 7.62465 0
M  V30 618 H 59.3977 -1.13971 6.85591 0
M  V30 619 H 62.5887 -1.05226 4.5612 0
M  V30 620 H 62.7617 -1.20936 6.36615 0
M  V30 621 N 56.1678 -1.49265 -0.50573 0
M  V30 622 C 57.0778 -1.68312 -1.63427 0
M  V30 623 C 58.0938 -0.565682 -1.64548 0
M  V30 624 O 59.2698 -0.839801 -1.83055 0
M  V30 625 C 56.3348 -1.74107 -2.99813 0
M  V30 626 C 55.3958 -2.97653 -3.09356 0
M  V30 627 C 54.6288 -3.03163 -4.39236 0
M  V30 628 O 54.8518 -2.16396 -5.27758 0
M  V30 629 O 53.7858 -3.9558 -4.53652 0
M  V30 630 H 57.6118 -2.63907 -1.50289 0
M  V30 631 H 55.1968 -1.32951 -0.681502 0
M  V30 632 H 57.0788 -1.803 -3.80881 0
M  V30 633 H 55.7538 -0.816901 -3.13223 0
M  V30 634 H 54.6608 -2.96981 -2.27493 0
M  V30 635 H 55.9938 -3.89535 -3.00871 0
M  V30 636 N 57.6459 0.756429 -1.3826 0
M  V30 637 C 58.5929 1.87011 -1.35261 0
M  V30 638 C 59.5629 1.64695 -0.215616 0
M  V30 639 O 60.7479 1.864 -0.407399 0
M  V30 640 C 57.8879 3.24275 -1.18068 0
M  V30 641 C 57.0009 3.58442 -2.41129 0
M  V30 642 C 56.1359 4.84994 -2.16689 0
M  V30 643 C 55.1749 5.11939 -3.35537 0
M  V30 644 N 54.3119 6.29685 -3.10549 0
M  V30 645 H 59.1519 1.8891 -2.30472 0
M  V30 646 H 56.6889 0.923373 -1.14509 0
M  V30 647 H 58.6469 4.03479 -1.06116 0
M  V30 648 H 57.2769 3.21711 -0.264973 0
M  V30 649 H 56.3289 2.74103 -2.63764 0
M  V30 650 H 57.6409 3.74283 -3.29717 0
M  V30 651 H 56.7949 5.72135 -2.01857 0
M  V30 652 H 55.5339 4.71286 -1.25462 0
M  V30 653 H 54.5389 4.23268 -3.50891 0
M  V30 654 H 55.7639 5.27546 -4.27635 0
M  V30 655 H 53.7099 6.17306 -2.21967 0
M  V30 656 H 53.6269 6.46014 -3.92686 0
M  V30 657 H 54.8949 7.19722 -2.99367 0
M  V30 658 N 59.124 1.23083 0.984299 0
M  V30 659 C 60.034 1.02515 2.11016 0
M  V30 660 C 61.05 -0.0291702 1.73976 0
M  V30 661 O 62.226 0.165434 2.00719 0
M  V30 662 C 59.291 0.614673 3.41208 0
M  V30 663 C 58.352 1.74359 3.92297 0
M  V30 664 C 57.585 1.35261 5.16275 0
M  V30 665 O 57.808 0.235136 5.69915 0
M  V30 666 O 56.742 2.17227 5.61334 0
M  V30 667 H 60.568 1.96862 2.31255 0
M  V30 668 H 58.153 1.01753 1.09392 0
M  V30 669 H 60.035 0.396518 4.1953 0
M  V30 670 H 58.71 -0.299851 3.22308 0
M  V30 671 H 57.617 2.01635 3.1511 0
M  V30 672 H 58.95 2.63629 4.15645 0
M  V30 673 N 60.6021 -1.18246 1.0419 0
M  V30 674 C 62.0181 -1.40269 0.761366 0
M  V30 675 C 62.2181 -1.90777 -0.648578 0
M  V30 676 O 61.2741 -2.0929 -1.41258 0
M  V30 677 C 62.5871 -2.40237 1.8085 0
M  V30 678 C 64.1351 -2.53961 1.82955 0
M  V30 679 C 64.6101 -3.57194 2.86664 0
M  V30 680 N 66.1011 -3.64702 2.85563 0
M  V30 681 C 66.8361 -4.44309 3.6246 0
M  V30 682 N 66.3321 -5.27514 4.49111 0
M  V30 683 N 68.1251 -4.39084 3.50944 0
M  V30 684 H 60.2761 -0.837882 1.95175 0
M  V30 685 H 62.5391 -0.430608 0.84456 0
M  V30 686 H 62.2451 -2.10176 2.81991 0
M  V30 687 H 62.1191 -3.39601 1.64168 0
M  V30 688 H 64.5061 -2.83338 0.824855 0
M  V30 689 H 64.5871 -1.54706 2.03715 0
M  V30 690 H 64.2311 -3.28558 3.87314 0
M  V30 691 H 64.1611 -4.5613 2.6316 0
M  V30 692 H 66.6521 -3.05289 2.22727 0
M  V30 693 H 66.9651 -5.85411 5.04493 0
M  V30 694 H 65.3101 -5.2693 4.53178 0
M  V30 695 H 68.5011 -3.7313 2.82651 0
M  V30 696 H 68.6741 -5.00883 4.11121 0
M  V30 697 N 62.0802 -0.821533 -1.34494 0
M  V30 698 C 63.3572 -0.33159 -1.92769 0
M  V30 699 C 63.7372 1.18088 -1.74981 0
M  V30 700 O 63.0852 1.98733 -1.12772 0
M  V30 701 C 63.2952 -0.759398 -3.40638 0
M  V30 702 C 64.6432 -0.757433 -4.1779 0
M  V30 703 O 65.6672 -0.70189 -3.49216 0
M  V30 704 O 64.5262 -0.829361 -5.4017 0
M  V30 705 H 61.6202 -0.0902502 -0.822061 0
M  V30 706 H 64.1662 -0.906231 -1.43477 0
M  V30 707 H 62.9382 -1.8012 -3.47379 0
M  V30 708 H 62.5612 -0.160378 -3.97276 0
M  V30 709 N 63.5583 1.46682 -0.576371 0
M  V30 710 C 64.9693 1.86112 -0.148091 0
M  V30 711 C 65.3203 1.48073 1.2872 0
M  V30 712 O 64.4453 0.892656 1.97131 0
M  V30 713 C 65.0403 3.37786 -0.261982 0
M  V30 714 C 63.5993 3.76235 0.111384 0
M  V30 715 C 62.7463 2.70713 -0.60083 0
M  V30 716 H 65.6973 1.37927 -0.78497 0
M  V30 717 H 65.7183 3.77007 0.514364 0
M  V30 718 H 65.2303 3.6544 -1.30671 0
M  V30 719 H 63.3313 3.54198 1.15649 0
M  V30 720 H 63.4443 4.78391 -0.26052 0
M  V30 721 H 61.8083 2.54666 -0.0417783 0
M  V30 722 H 62.5913 3.01208 -1.64708 0
M  V30 723 N 65.0364 0.313813 1.54444 0
M  V30 724 C 65.9464 -0.565714 2.27677 0
M  V30 725 C 66.9624 -1.13754 1.31666 0
M  V30 726 O 68.1384 -1.15959 1.64668 0
M  V30 727 C 65.2034 -1.71528 3.01296 0
M  V30 728 C 64.2644 -1.17624 4.12872 0
M  V30 729 C 63.4974 -2.27102 4.8297 0
M  V30 730 O 63.7204 -3.47256 4.52514 0
M  V30 731 O 62.6544 -1.9307 5.70094 0
M  V30 732 H 66.4804 0.0287296 3.03686 0
M  V30 733 H 64.0654 0.0798312 1.49187 0
M  V30 734 H 65.9474 -2.38476 3.4743 0
M  V30 735 H 64.6224 -2.29608 2.2817 0
M  V30 736 H 63.5294 -0.472124 3.71109 0
M  V30 737 H 64.8624 -0.640695 4.88012 0
M  V30 738 N 66.5145 -1.57545 0.0417849 0
M  V30 739 C 67.4645 -2.07483 -0.945247 0
M  V30 740 C 68.4485 -0.977983 -1.27767 0
M  V30 741 O 69.6405 -1.24142 -1.26166 0
M  V30 742 C 66.7695 -2.61576 -2.22335 0
M  V30 743 C 65.8555 -3.78213 -1.91874 0
M  V30 744 N 66.2465 -4.88344 -1.31733 0
M  V30 745 C 64.5445 -3.8694 -2.21796 0
M  V30 746 C 65.2455 -5.69462 -1.1869 0
M  V30 747 N 64.2215 -5.16771 -1.68666 0
M  V30 748 H 68.0235 -2.90029 -0.475441 0
M  V30 749 H 65.5375 -1.61581 -0.162911 0
M  V30 750 H 67.5345 -2.95651 -2.93932 0
M  V30 751 H 66.1945 -1.80465 -2.69931 0
M  V30 752 H 67.2055 -5.08335 -0.990729 0
M  V30 753 H 63.8825 -3.16757 -2.71977 0
M  V30 754 H 65.2725 -6.68023 -0.720793 0
M  V30 755 N 67.9926 0.231505 -1.5589 0
M  V30 756 C 69.4086 0.580748 -1.48659 0
M  V30 757 C 69.6086 1.87617 -0.73498 0
M  V30 758 O 68.6646 2.51046 -0.270586 0
M  V30 759 C 69.9776 0.669202 -2.93159 0
M  V30 760 C 71.5256 0.760499 -3.03621 0
M  V30 761 C 72.0006 0.880383 -4.49459 0
M  V30 762 N 73.4916 0.944861 -4.53461 0
M  V30 763 C 74.2266 1.05716 -5.63571 0
M  V30 764 N 73.7226 1.13403 -6.83456 0
M  V30 765 N 75.5156 1.09152 -5.514 0
M  V30 766 H 67.6666 -0.618695 -2.03189 0
M  V30 767 H 69.9296 -0.215728 -0.923128 0
M  V30 768 H 69.6356 -0.212904 -3.51055 0
M  V30 769 H 69.5096 1.5361 -3.44505 0
M  V30 770 H 71.8966 1.63305 -2.45796 0
M  V30 771 H 71.9776 -0.131864 -2.5546 0
M  V30 772 H 71.6216 0.0123284 -5.07899 0
M  V30 773 H 71.5516 1.78802 -4.95316 0
M  V30 774 H 74.0426 0.896176 -3.6712 0
M  V30 775 H 74.3556 1.21921 -7.63122 0
M  V30 776 H 72.7006 1.10333 -6.86186 0
M  V30 777 H 75.8916 1.02805 -4.56671 0
M  V30 778 H 76.0646 1.17558 -6.37247 0
M  V30 779 N 69.4707 1.49531 0.497807 0
M  V30 780 C 70.4337 1.65916 1.58128 0
M  V30 781 C 71.4337 0.530825 1.51786 0
M  V30 782 O 72.6237 0.797342 1.54881 0
M  V30 783 C 69.7557 1.65951 2.9778 0
M  V30 784 H 70.9487 2.62556 1.44929 0
M  V30 785 H 68.5017 1.38611 0.722275 0
M  V30 786 H 69.2367 0.709065 3.16453 0
M  V30 787 H 69.0217 2.47897 3.03792 0
M  V30 788 H 70.5117 1.80673 3.76493 0
M  V30 789 N 70.9488 -0.749086 1.3866 0
M  V30 790 C 71.8788 -1.8764 1.38973 0
M  V30 791 C 72.8598 -1.68178 0.255004 0
M  V30 792 O 74.0448 -1.88704 0.458754 0
M  V30 793 C 71.1748 -3.25222 1.21851 0
M  V30 794 C 70.1288 -3.59295 2.32575 0
M  V30 795 C 69.4548 -4.95663 2.00555 0
M  V30 796 C 70.7548 -3.63709 3.7485 0
M  V30 797 H 72.4488 -1.87635 2.3331 0
M  V30 798 H 69.9948 -0.901329 1.12303 0
M  V30 799 H 71.9478 -4.03746 1.20695 0
M  V30 800 H 70.6718 -3.25719 0.239775 0
M  V30 801 H 69.3308 -2.83093 2.32925 0
M  V30 802 H 68.9788 -4.92724 1.01154 0
M  V30 803 H 68.6788 -5.19429 2.74714 0
M  V30 804 H 70.2028 -5.7656 2.01024 0
M  V30 805 H 71.6168 -4.32338 3.76506 0
M  V30 806 H 70.0138 -3.98986 4.48252 0
M  V30 807 H 71.0838 -2.63834 4.06841 0
M  V30 808 N 72.4269 -1.23603 -0.977757 0
M  V30 809 C 73.6669 -1.08148 -1.73446 0
M  V30 810 C 74.0309 0.374785 -1.88307 0
M  V30 811 O 75.2319 0.650588 -2.60808 0
M  V30 812 C 73.5029 -1.78991 -3.0935 0
M  V30 813 S 75.0619 -1.79141 -4.00567 0
M  V30 814 H 71.8799 -0.386987 -0.596458 0
M  V30 815 H 74.4819 -1.5678 -1.16792 0
M  V30 816 H 73.1859 -2.8408 -2.96187 0
M  V30 817 H 72.7169 -1.30651 -3.71071 0
M  V30 818 H 74.7319 -0.851892 -4.88833 0
M  V30 819 N 73.905 1.17692 -1.04816 0
M  V30 820 C 75.182 1.83768 -0.669963 0
M  V30 821 C 75.562 1.93232 0.849986 0
M  V30 822 O 74.91 1.46397 1.75443 0
M  V30 823 C 75.12 3.21641 -1.35455 0
M  V30 824 C 76.468 3.97592 -1.49017 0
M  V30 825 O 77.492 3.31107 -1.31326 0
M  V30 826 O 76.351 5.16729 -1.77914 0
M  V30 827 H 73.445 0.792799 -0.235368 0
M  V30 828 H 75.991 1.25021 -1.14751 0
M  V30 829 H 74.763 3.097 -2.39168 0
M  V30 830 H 74.386 3.88052 -0.866107 0
M  V30 831 N 75.3831 0.828654 1.34056 0
M  V30 832 C 76.3131 0.269443 2.3194 0
M  V30 833 C 77.2941 -0.617247 1.58506 0
M  V30 834 O 78.4791 -0.542931 1.86456 0
M  V30 835 C 75.6091 -0.564793 3.42677 0
M  V30 836 C 74.5631 0.225241 4.27407 0
M  V30 837 C 73.8891 -0.7321 5.29664 0
M  V30 838 C 75.1891 1.43663 5.02154 0
M  V30 839 H 76.8831 1.08728 2.7896 0
M  V30 840 H 74.4291 0.524283 1.34117 0
M  V30 841 H 76.3821 -0.966233 4.10173 0
M  V30 842 H 75.1061 -1.41574 2.9432 0
M  V30 843 H 73.7651 0.608117 3.61521 0
M  V30 844 H 73.4131 -1.57916 4.77568 0
M  V30 845 H 73.1131 -0.20767 5.87233 0
M  V30 846 H 74.6371 -1.13128 6.00029 0
M  V30 847 H 76.0511 1.1089 5.62473 0
M  V30 848 H 74.4481 1.89711 5.69324 0
M  V30 849 H 75.5181 2.21181 4.31517 0
M  V30 850 N 76.8612 -1.46375 0.584142 0
M  V30 851 C 78.1092 -2.01978 0.0701287 0
M  V30 852 C 78.4302 -1.4579 -1.295 0
M  V30 853 O 77.7002 -0.64314 -1.85042 0
M  V30 854 H 76.2802 -0.746648 0.0229345 0
M  V30 855 H 78.9422 -1.79461 0.760245 0
M  V30 856 H 78.0382 -3.121 0.0022064 0
M  V30 857 N 78.3393 -0.321999 -1.54275 0
M  V30 858 C 79.7503 0.166384 -1.85957 0
M  V30 859 C 80.1013 1.51747 -1.24367 0
M  V30 860 O 79.2263 2.09317 -0.549124 0
M  V30 861 C 79.8213 0.308681 -3.37391 0
M  V30 862 C 78.3803 0.741286 -3.69028 0
M  V30 863 C 77.5273 -0.137937 -2.76957 0
M  V30 864 H 80.4783 -0.542335 -1.49146 0
M  V30 865 H 80.4993 1.13984 -3.63026 0
M  V30 866 H 80.0113 -0.674809 -3.82188 0
M  V30 867 H 78.1123 1.73458 -3.29762 0
M  V30 868 H 78.2253 0.546118 -4.75977 0
M  V30 869 H 76.5893 0.386251 -2.51754 0
M  V30 870 H 77.3723 -1.11816 -3.2458 0
M  V30 871 N 79.8174 1.5752 -0.0501392 0
M  V30 872 C 81.0634 1.93755 0.618901 0
M  V30 873 C 81.4184 0.928514 1.68512 0
M  V30 874 O 80.7114 -0.0524613 1.91528 0
M  V30 875 C 80.9054 3.34467 1.25963 0
M  V30 876 C 80.7344 4.48965 0.257 0
M  V30 877 C 79.5044 5.05075 -0.150656 0
M  V30 878 C 81.7024 5.11891 -0.497166 0
M  V30 879 N 79.6844 6.03104 -1.14626 0
M  V30 880 C 81.0554 6.05216 -1.34588 0
M  V30 881 C 83.1104 4.9479 -0.55559 0
M  V30 882 C 81.8134 6.83277 -2.24778 0
M  V30 883 C 83.8394 5.73477 -1.44492 0
M  V30 884 C 83.2014 6.66433 -2.28136 0
M  V30 885 H 79.3004 0.756479 0.198149 0
M  V30 886 H 81.8844 1.94316 -0.122229 0
M  V30 887 H 80.0554 3.34685 1.97079 0
M  V30 888 H 81.7874 3.57994 1.88739 0
M  V30 889 H 78.5424 4.7305 0.228094 0
M  V30 890 H 78.9664 6.56813 -1.64092 0
M  V30 891 H 83.6084 4.2273 0.0768625 0
M  V30 892 H 81.3264 7.54629 -2.89069 0
M  V30 893 H 84.9124 5.62273 -1.49468 0
M  V30 894 H 83.7924 7.26258 -2.95835 0
M  V30 895 N 81.2955 -0.223234 1.56011 0
M  V30 896 C 82.5415 -0.949279 1.79211 0
M  V30 897 C 82.8745 -1.84054 0.619494 0
M  V30 898 O 82.1495 -1.90726 -0.381317 0
M  V30 899 C 82.4325 -1.78965 3.12479 0
M  V30 900 C 82.2855 -0.924997 4.40186 0
M  V30 901 C 83.6045 -2.76774 3.42175 0
M  V30 902 H 80.7235 -0.343676 0.651963 0
M  V30 903 H 83.3655 -0.218253 1.88742 0
M  V30 904 H 81.5155 -2.41291 3.04485 0
M  V30 905 H 83.1875 -0.318615 4.60198 0
M  V30 906 H 81.4305 -0.230344 4.33188 0
M  V30 907 H 82.1015 -1.54735 5.29869 0
M  V30 908 H 84.5775 -2.24584 3.50287 0
M  V30 909 H 83.4535 -3.32678 4.36597 0
M  V30 910 H 83.7145 -3.54429 2.64258 0
M  V30 911 N 82.7736 -1.49793 -0.48987 0
M  V30 912 C 83.7206 -1.67281 -1.59014 0
M  V30 913 C 84.6906 -0.514177 -1.57941 0
M  V30 914 O 85.8756 -0.742533 -1.75759 0
M  V30 915 C 83.0156 -1.75569 -2.97102 0
M  V30 916 C 82.1286 -3.0281 -3.08107 0
M  V30 917 C 81.2636 -3.02008 -4.36995 0
M  V30 918 C 80.3026 -4.23782 -4.41673 0
M  V30 919 N 79.4396 -4.20826 -5.62005 0
M  V30 920 H 84.2796 -2.61224 -1.43409 0
M  V30 921 H 81.8166 -1.29508 -0.697565 0
M  V30 922 H 83.7746 -1.78354 -3.77155 0
M  V30 923 H 82.4046 -0.850827 -3.11385 0
M  V30 924 H 81.4566 -3.09584 -2.21047 0
M  V30 925 H 82.7686 -3.92801 -3.07423 0
M  V30 926 H 81.9226 -3.03418 -5.25378 0
M  V30 927 H 80.6616 -2.09815 -4.4026 0
M  V30 928 H 79.6666 -4.22604 -3.5169 0
M  V30 929 H 80.8916 -5.17181 -4.40115 0
M  V30 930 H 78.8376 -3.31476 -5.66091 0
M  V30 931 H 78.7546 -5.04564 -5.62984 0
M  V30 932 H 80.0226 -4.26355 -6.52565 0
M  V30 933 N 84.2517 0.741722 -1.39055 0
M  V30 934 C 85.4917 1.51385 -1.37338 0
M  V30 935 C 85.8557 1.91972 0.0330513 0
M  V30 936 O 87.0567 2.68229 0.175174 0
M  V30 937 C 85.3277 2.72481 -2.31276 0
M  V30 938 S 86.8867 3.62211 -2.47687 0
M  V30 939 H 83.7047 0.517906 -0.487129 0
M  V30 940 H 86.3067 0.86969 -1.7509 0
M  V30 941 H 85.0107 2.40793 -3.32336 0
M  V30 942 H 84.5417 3.41832 -1.94716 0
M  V30 943 H 86.5567 4.65812 -1.70978 0
M  V30 944 N 85.7298 1.2412 0.971189 0
M  V30 945 C 86.9548 1.10667 1.75407 0
M  V30 946 C 87.3798 -0.337048 1.85056 0
M  V30 947 O 86.7378 -1.24396 1.31892 0
M  V30 948 C 86.7858 1.74726 3.15441 0
M  V30 949 O 85.8898 1.01566 3.99697 0
M  V30 950 H 85.2308 0.387341 0.539317 0
M  V30 951 H 87.7608 1.64358 1.2185 0
M  V30 952 H 87.7708 1.80341 3.6598 0
M  V30 953 H 86.4458 2.79773 3.07734 0
M  V30 954 H 85.0228 1.03713 3.58187 0
M  V30 955 N 87.2079 -1.17134 1.05439 0
M  V30 956 C 88.1709 -2.19439 0.661764 0
M  V30 957 C 89.1709 -1.58199 -0.288042 0
M  V30 958 O 90.3609 -1.74053 -0.0715803 0
M  V30 959 C 87.4929 -3.40889 -0.0276209 0
M  V30 960 H 88.6859 -2.55688 1.56728 0
M  V30 961 H 86.2389 -1.31259 0.848567 0
M  V30 962 H 86.9739 -3.10187 -0.94629 0
M  V30 963 H 86.7589 -3.86586 0.655238 0
M  V30 964 H 88.2489 -4.16603 -0.288342 0
M  V30 965 N 88.686 -0.835752 -1.33615 0
M  V30 966 C 89.649 -0.272 -2.2758 0
M  V30 967 C 90.649 0.557487 -1.50827 0
M  V30 968 O 91.839 0.37173 -1.70188 0
M  V30 969 C 88.971 0.617173 -3.35267 0
M  V30 970 H 90.164 -1.10111 -2.78954 0
M  V30 971 H 87.717 -0.608594 -1.43965 0
M  V30 972 H 88.452 1.46884 -2.89129 0
M  V30 973 H 88.237 0.0237066 -3.92093 0
M  V30 974 H 89.727 1.005 -4.05326 0
M  V30 975 N 90.1641 1.46063 -0.591896 0
M  V30 976 C 91.0941 2.33172 0.123673 0
M  V30 977 C 92.0751 1.45897 0.87453 0
M  V30 978 O 93.2601 1.74698 0.848181 0
M  V30 979 C 90.3901 3.28336 1.13194 0
M  V30 980 C 89.3441 4.25124 0.495324 0
M  V30 981 C 88.6701 5.09863 1.61071 0
M  V30 982 C 89.9701 5.19143 -0.573425 0
M  V30 983 H 91.6641 2.93252 -0.603646 0
M  V30 984 H 89.2101 1.41014 -0.291741 0
M  V30 985 H 91.1631 3.88137 1.64097 0
M  V30 986 H 89.8871 2.66383 1.88965 0
M  V30 987 H 88.5461 3.66599 0.00729452 0
M  V30 988 H 88.1941 4.44288 2.35832 0
M  V30 989 H 87.8941 5.75417 1.19035 0
M  V30 990 H 89.4181 5.72529 2.12233 0
M  V30 991 H 90.8321 5.73106 -0.1491 0
M  V30 992 H 89.2291 5.93089 -0.914636 0
M  V30 993 H 90.2991 4.62519 -1.45617 0
M  V30 994 N 91.6422 0.330177 1.54103 0
M  V30 995 C 92.6052 -0.520144 2.2322 0
M  V30 996 C 93.6052 -1.03828 1.22786 0
M  V30 997 O 94.7952 -0.929652 1.4732 0
M  V30 998 C 91.9272 -1.72317 2.94142 0
M  V30 999 H 93.1202 0.0841605 2.99782 0
M  V30 1000 H 90.6732 0.0813433 1.56088 0
M  V30 1001 H 91.4082 -2.36653 2.21734 0
M  V30 1002 H 91.1932 -1.35898 3.67796 0
M  V30 1003 H 92.6832 -2.3266 3.46784 0
M  V30 1004 N 93.1203 -1.57491 0.0584922 0
M  V30 1005 C 94.3453 -1.97711 -0.62652 0
M  V30 1006 C 94.7703 -0.936132 -1.63151 0
M  V30 1007 O 94.1283 0.099811 -1.81025 0
M  V30 1008 C 94.1763 -3.36989 -1.28338 0
M  V30 1009 O 93.2803 -3.35433 -2.39913 0
M  V30 1010 H 92.6213 -0.643868 -0.162266 0
M  V30 1011 H 95.1513 -2.04193 0.129064 0
M  V30 1012 H 95.1613 -3.73879 -1.63335 0
M  V30 1013 H 93.8363 -4.12289 -0.546889 0
M  V30 1014 H 92.4133 -3.10298 -2.06809 0
M  V30 1015 N 94.5984 0.214957 -1.56127 0
M  V30 1016 C 96.0144 0.564948 -1.49267 0
M  V30 1017 C 96.2144 1.86827 -0.754838 0
M  V30 1018 O 95.2704 2.50745 -0.297198 0
M  V30 1019 C 96.5834 0.638071 -2.93852 0
M  V30 1020 C 98.1314 0.728253 -3.0441 0
M  V30 1021 C 98.6064 0.832663 -4.50367 0
M  V30 1022 N 100.097 0.896712 -4.54437 0
M  V30 1023 C 100.832 0.997324 -5.6466 0
M  V30 1024 N 100.328 1.06147 -6.8462 0
M  V30 1025 N 102.121 1.03297 -5.52527 0
M  V30 1026 H 94.2724 -0.640211 -2.02522 0
M  V30 1027 H 96.5354 -0.225507 -0.920788 0
M  V30 1028 H 96.2414 -0.250126 -3.50809 0
M  V30 1029 H 96.1154 1.49947 -3.46115 0
M  V30 1030 H 98.5024 1.60689 -2.47514 0
M  V30 1031 H 98.5834 -0.158952 -2.55306 0
M  V30 1032 H 98.2274 -0.0415417 -5.07883 0
M  V30 1033 H 98.1574 1.73538 -4.97184 0
M  V30 1034 H 100.648 0.857188 -3.6805 0
M  V30 1035 H 100.961 1.1382 -7.64372 0
M  V30 1036 H 99.3064 1.03049 -6.87318 0
M  V30 1037 H 102.497 0.979558 -4.57736 0
M  V30 1038 H 102.67 1.10793 -6.38458 0
M  V30 1039 N 96.0765 1.50051 0.48192 0
M  V30 1040 C 97.3225 1.61706 1.2338 0
M  V30 1041 C 97.6775 0.308488 1.89911 0
M  V30 1042 O 96.9705 -0.692798 1.78636 0
M  V30 1043 C 97.1645 2.72717 2.30998 0
M  V30 1044 C 96.9935 4.14242 1.75024 0
M  V30 1045 C 95.7635 4.80786 1.55476 0
M  V30 1046 C 97.9615 4.98846 1.25128 0
M  V30 1047 N 95.9435 6.06563 0.946311 0
M  V30 1048 C 97.3145 6.15258 0.765382 0
M  V30 1049 C 99.3695 4.84702 1.13881 0
M  V30 1050 C 98.0725 7.19079 0.178113 0
M  V30 1051 C 100.098 5.8869 0.565486 0
M  V30 1052 C 99.4605 7.04343 0.0899105 0
M  V30 1053 H 95.5595 0.645958 0.440753 0
M  V30 1054 H 98.1435 1.8713 0.537624 0
M  V30 1055 H 96.3145 2.49033 2.98055 0
M  V30 1056 H 98.0465 2.73789 2.9803 0
M  V30 1057 H 94.8015 4.37899 1.80392 0
M  V30 1058 H 95.2255 6.73767 0.660812 0
M  V30 1059 H 99.8675 3.95583 1.49244 0
M  V30 1060 H 97.5855 8.07882 -0.187749 0
M  V30 1061 H 101.171 5.79808 0.480974 0
M  V30 1062 H 100.051 7.83433 -0.346782 0
M  V30 1063 N 97.5546 -0.734337 1.39446 0
M  V30 1064 C 98.8026 -1.49096 1.36436 0
M  V30 1065 C 99.1236 -1.94961 -0.0388255 0
M  V30 1066 O 98.3936 -1.69033 -0.990191 0
M  V30 1067 H 96.9736 -0.5531 0.502085 0
M  V30 1068 H 99.6356 -0.871725 1.74319 0
M  V30 1069 H 98.7316 -2.37276 2.02747 0
M  V30 1070 N 99.0327 -1.24633 -0.964593 0
M  V30 1071 C 100.449 -1.01239 -1.2338 0
M  V30 1072 C 100.649 0.2769 -1.99588 0
M  V30 1073 O 99.7047 0.992241 -2.32187 0
M  V30 1074 C 101.018 -2.22937 -2.01791 0
M  V30 1075 C 102.566 -2.27594 -2.14872 0
M  V30 1076 C 103.041 -3.48921 -2.96678 0
M  V30 1077 N 104.532 -3.49257 -3.04259 0
M  V30 1078 C 105.267 -4.39795 -3.67924 0
M  V30 1079 N 104.763 -5.40591 -4.33281 0
M  V30 1080 N 106.556 -4.275 -3.64966 0
M  V30 1081 H 98.7067 -2.0748 -0.454502 0
M  V30 1082 H 100.97 -0.910647 -0.26349 0
M  V30 1083 H 100.676 -3.16587 -1.53184 0
M  V30 1084 H 100.55 -2.25306 -3.02518 0
M  V30 1085 H 102.937 -1.34473 -2.6268 0
M  V30 1086 H 103.018 -2.2925 -1.13482 0
M  V30 1087 H 102.662 -4.42359 -2.49562 0
M  V30 1088 H 102.592 -3.4451 -3.98272 0
M  V30 1089 H 105.083 -2.76337 -2.57771 0
M  V30 1090 H 105.396 -6.05904 -4.79687 0
M  V30 1091 H 103.741 -5.44475 -4.3194 0
M  V30 1092 H 106.932 -3.47987 -3.13086 0
M  V30 1093 H 107.105 -4.98258 -4.14298 0
M  V30 1094 N 100.511 1.16574 -1.06058 0
M  V30 1095 C 101.759 1.86677 -0.77434 0
M  V30 1096 C 102.08 1.81959 0.701147 0
M  V30 1097 O 101.35 1.2515 1.50713 0
M  V30 1098 H 99.9298 0.691134 -0.283449 0
M  V30 1099 H 102.592 1.41378 -1.34158 0
M  V30 1100 H 101.688 2.92181 -1.09711 0
M  V30 1101 N 101.989 0.842826 1.3317 0
M  V30 1102 C 103.236 0.440447 1.97652 0
M  V30 1103 C 103.564 -1.00123 1.6675 0
M  V30 1104 O 102.819 -1.7155 0.941761 0
M  V30 1105 C 103.118 0.612607 3.52111 0
M  V30 1106 C 102.784 2.02297 4.02972 0
M  V30 1107 C 101.446 2.40874 4.16573 0
M  V30 1108 C 103.798 2.94402 4.30089 0
M  V30 1109 C 101.126 3.70852 4.54627 0
M  V30 1110 C 103.478 4.23865 4.69597 0
M  V30 1111 C 102.142 4.62392 4.81404 0
M  V30 1112 H 101.412 0.161171 0.72326 0
M  V30 1113 H 104.059 1.07061 1.58777 0
M  V30 1114 H 102.364 -0.100849 3.9167 0
M  V30 1115 H 104.061 0.2815 4.00011 0
M  V30 1116 H 100.651 1.71338 3.92863 0
M  V30 1117 H 104.835 2.65835 4.19101 0
M  V30 1118 H 100.091 4.00501 4.61962 0
M  V30 1119 H 104.265 4.95306 4.89536 0
M  V30 1120 H 101.892 5.63154 5.10648 0
M  V30 1121 N 103.467 -1.45747 0.599634 0
M  V30 1122 C 104.715 -2.01893 0.0915472 0
M  V30 1123 C 105.036 -1.47155 -1.27946 0
M  V30 1124 O 104.306 -0.66273 -1.84349 0
M  V30 1125 H 102.886 -0.746363 0.0308524 0
M  V30 1126 H 105.548 -1.78645 0.779237 0
M  V30 1127 H 104.644 -3.1208 0.0353086 0
M  V30 1128 N 104.945 -0.338344 -1.53925 0
M  V30 1129 C 105.875 0.51328 -2.27789 0
M  V30 1130 C 106.856 1.107 -1.29149 0
M  V30 1131 O 108.041 1.12937 -1.57984 0
M  V30 1132 C 105.171 1.66697 -3.04679 0
M  V30 1133 C 104.125 1.20183 -4.1078 0
M  V30 1134 C 103.451 2.44363 -4.75595 0
M  V30 1135 C 104.751 0.30605 -5.21403 0
M  V30 1136 H 106.445 -0.102883 -2.99223 0
M  V30 1137 H 103.991 -0.0509219 -1.4391 0
M  V30 1138 H 105.944 2.26915 -3.55088 0
M  V30 1139 H 104.668 2.30995 -2.30887 0
M  V30 1140 H 103.327 0.622499 -3.61276 0
M  V30 1141 H 102.975 3.07057 -3.98403 0
M  V30 1142 H 102.675 2.13925 -5.47275 0
M  V30 1143 H 104.199 3.05317 -5.28786 0
M  V30 1144 H 105.613 0.814929 -5.67478 0
M  V30 1145 H 104.01 0.0937929 -6.00027 0
M  V30 1146 H 105.08 -0.65921 -4.80398 0
M  V30 1147 N 106.423 1.57458 -0.0668435 0
M  V30 1148 C 107.353 2.15468 0.899764 0
M  V30 1149 C 108.334 1.08042 1.31381 0
M  V30 1150 O 109.519 1.36054 1.38574 0
M  V30 1151 C 106.649 2.71232 2.16911 0
M  V30 1152 C 105.603 3.83781 1.89463 0
M  V30 1153 C 104.929 4.26127 3.22986 0
M  V30 1154 C 106.229 5.08238 1.20381 0
M  V30 1155 H 107.923 2.96488 0.416529 0
M  V30 1156 H 105.469 1.4262 0.198908 0
M  V30 1157 H 107.422 3.10458 2.84945 0
M  V30 1158 H 106.146 1.87426 2.67468 0
M  V30 1159 H 104.805 3.45051 1.23836 0
M  V30 1160 H 104.453 3.39249 3.71374 0
M  V30 1161 H 104.153 5.01993 3.05413 0
M  V30 1162 H 105.677 4.67966 3.92225 0
M  V30 1163 H 107.091 5.44811 1.78475 0
M  V30 1164 H 105.488 5.89349 1.13083 0
M  V30 1165 H 106.558 4.84558 0.182153 0
M  V30 1166 N 107.901 -0.206675 1.56239 0
M  V30 1167 C 109.149 -0.927007 1.79586 0
M  V30 1168 C 109.47 -1.8427 0.637929 0
M  V30 1169 O 108.74 -1.92849 -0.344398 0
M  V30 1170 H 107.32 -0.345292 0.662407 0
M  V30 1171 H 109.982 -0.21496 1.93711 0
M  V30 1172 H 109.078 -1.52501 2.72305 0
M  V30 1173 N 109.379 -1.50304 -0.473955 0
M  V30 1174 C 110.604 -1.65175 -1.25427 0
M  V30 1175 C 111.029 -0.333673 -1.85117 0
M  V30 1176 O 110.387 0.702114 -1.67153 0
M  V30 1177 C 110.435 -2.74295 -2.34082 0
M  V30 1178 O 109.539 -2.35349 -3.38651 0
M  V30 1179 H 108.88 -0.551944 -0.369126 0
M  V30 1180 H 111.41 -1.96662 -0.564364 0
M  V30 1181 H 111.42 -2.97285 -2.79438 0
M  V30 1182 H 110.095 -3.69959 -1.90008 0
M  V30 1183 H 108.672 -2.22794 -2.99027 0
M  V30 1184 N 110.857 0.726932 -1.39834 0
M  V30 1185 C 112.106 1.48214 -1.36805 0
M  V30 1186 C 112.419 1.95576 0.0305291 0
M  V30 1187 O 113.625 2.7088 0.183417 0
M  V30 1188 C 112.081 2.67854 -2.40379 0
M  V30 1189 C 111.689 2.27408 -3.85992 0
M  V30 1190 C 113.433 3.45641 -2.46439 0
M  V30 1191 C 111.34 3.43819 -4.81189 0
M  V30 1192 H 110.27 0.556606 -0.508631 0
M  V30 1193 H 112.921 0.792216 -1.65518 0
M  V30 1194 H 111.303 3.3896 -2.04749 0
M  V30 1195 H 112.477 1.63795 -4.30706 0
M  V30 1196 H 110.792 1.62692 -3.83302 0
M  V30 1197 H 113.389 4.32244 -3.14753 0
M  V30 1198 H 113.732 3.88669 -1.49139 0
M  V30 1199 H 114.265 2.8157 -2.81004 0
M  V30 1200 H 111.004 3.05834 -5.79781 0
M  V30 1201 H 110.524 4.06385 -4.41148 0
M  V30 1202 H 112.203 4.10043 -5.00474 0
M  V30 1203 N 112.336 1.25143 0.95797 0
M  V30 1204 C 113.583 1.09692 1.70217 0
M  V30 1205 C 113.911 -0.362654 1.91089 0
M  V30 1206 O 113.166 -1.28386 1.47701 0
M  V30 1207 C 113.465 1.79272 3.09187 0
M  V30 1208 C 113.131 3.29196 3.08125 0
M  V30 1209 C 111.793 3.70096 3.07543 0
M  V30 1210 C 114.145 4.24995 3.0171 0
M  V30 1211 C 111.473 5.05213 2.9829 0
M  V30 1212 C 113.825 5.60132 2.93999 0
M  V30 1213 C 112.489 6.00365 2.9175 0
M  V30 1214 H 111.759 0.401393 0.622868 0
M  V30 1215 H 114.406 1.55372 1.11945 0
M  V30 1216 H 112.711 1.26014 3.70982 0
M  V30 1217 H 114.408 1.64773 3.65583 0
M  V30 1218 H 110.998 2.96651 3.09348 0
M  V30 1219 H 115.182 3.9439 3.01281 0
M  V30 1220 H 110.438 5.35569 2.94916 0
M  V30 1221 H 114.612 6.3406 2.87996 0
M  V30 1222 H 112.239 7.05023 2.84336 0
M  V30 1223 N 113.814 -1.1601 1.06675 0
M  V30 1224 C 115.062 -1.86264 0.784229 0
M  V30 1225 C 115.383 -1.82328 -0.691488 0
M  V30 1226 O 114.653 -1.25947 -1.50047 0
M  V30 1227 H 113.233 -0.689621 0.28711 0
M  V30 1228 H 115.895 -1.40664 1.34906 0
M  V30 1229 H 114.991 -2.91595 1.11259 0
M  V30 1230 N 115.292 -0.849877 -1.32721 0
M  V30 1231 C 116.239 -0.289033 -2.28983 0
M  V30 1232 C 117.209 0.601324 -1.54833 0
M  V30 1233 O 118.394 0.537253 -1.8308 0
M  V30 1234 C 115.534 0.520623 -3.4115 0
M  V30 1235 C 114.647 -0.394989 -4.3019 0
M  V30 1236 C 113.782 0.426834 -5.29482 0
M  V30 1237 C 112.821 -0.486476 -6.10164 0
M  V30 1238 N 111.958 0.297879 -7.01468 0
M  V30 1239 H 116.798 -1.11519 -2.76347 0
M  V30 1240 H 114.335 -0.56138 -1.35967 0
M  V30 1241 H 116.293 1.00563 -4.04899 0
M  V30 1242 H 114.923 1.31165 -2.9495 0
M  V30 1243 H 113.975 -0.99836 -3.67065 0
M  V30 1244 H 115.287 -1.09612 -4.86607 0
M  V30 1245 H 114.441 0.975205 -5.98811 0
M  V30 1246 H 113.18 1.16136 -4.73671 0
M  V30 1247 H 112.185 -1.04677 -5.39743 0
M  V30 1248 H 113.41 -1.21953 -6.6806 0
M  V30 1249 H 111.356 1.01558 -6.48091 0
M  V30 1250 H 111.273 -0.344318 -7.55216 0
M  V30 1251 H 112.541 0.828131 -7.75089 0
M  V30 1252 N 116.77 1.45427 -0.607355 0
M  V30 1253 C 118.047 1.9557 -0.0344566 0
M  V30 1254 C 118.427 1.54979 1.43334 0
M  V30 1255 O 117.775 0.812241 2.13576 0
M  V30 1256 C 117.985 3.48226 -0.232321 0
M  V30 1257 C 119.333 4.2445 -0.113001 0
M  V30 1258 O 120.357 3.55829 -0.162431 0
M  V30 1259 O 119.216 5.465 0.00209442 0
M  V30 1260 H 116.31 0.826222 0.0358667 0
M  V30 1261 H 118.856 1.55594 -0.6774 0
M  V30 1262 H 117.628 3.70739 -1.25174 0
M  V30 1263 H 117.251 3.95092 0.445896 0
M  V30 1264 N 118.248 0.346503 1.53744 0
M  V30 1265 C 119.496 -0.248612 2.00565 0
M  V30 1266 C 119.817 -1.5083 1.23593 0
M  V30 1267 O 119.087 -1.92858 0.343912 0
M  V30 1268 H 117.667 -0.0948564 0.740953 0
M  V30 1269 H 120.329 0.468341 1.89189 0
M  V30 1270 H 119.425 -0.488994 3.08245 0
M  V30 1271 N 119.726 -1.57421 0.075193 0
M  V30 1272 C 120.972 -1.93905 -0.594025 0
M  V30 1273 C 121.305 -0.955701 -1.69056 0
M  V30 1274 O 120.58 0.0145373 -1.94495 0
M  V30 1275 C 120.863 -3.40638 -1.1678 0
M  V30 1276 C 120.716 -4.49733 -0.0776792 0
M  V30 1277 C 122.035 -3.88259 -2.07228 0
M  V30 1278 H 119.154 -0.705105 -0.214466 0
M  V30 1279 H 121.796 -1.8947 0.141854 0
M  V30 1280 H 119.946 -3.44549 -1.79494 0
M  V30 1281 H 121.618 -4.57942 0.555573 0
M  V30 1282 H 119.861 -4.29751 0.591286 0
M  V30 1283 H 120.532 -5.49549 -0.519603 0
M  V30 1284 H 123.008 -3.86376 -1.54445 0
M  V30 1285 H 121.884 -4.91533 -2.44308 0
M  V30 1286 H 122.145 -3.26396 -2.98191 0
M  V30 1287 N 121.204 0.198386 -1.56346 0
M  V30 1288 C 122.134 1.24865 -1.9731 0
M  V30 1289 C 123.115 1.47651 -0.844576 0
M  V30 1290 O 124.3 1.59444 -1.10866 0
M  V30 1291 C 121.43 2.59358 -2.30977 0
M  V30 1292 C 120.384 2.5119 -3.46537 0
M  V30 1293 C 119.71 3.89926 -3.65871 0
M  V30 1294 C 121.01 2.03977 -4.80823 0
M  V30 1295 H 122.704 0.908252 -2.85291 0
M  V30 1296 H 120.25 0.435462 -1.37258 0
M  V30 1297 H 122.203 3.33011 -2.58228 0
M  V30 1298 H 120.927 2.95132 -1.39874 0
M  V30 1299 H 119.586 1.79993 -3.19371 0
M  V30 1300 H 119.234 4.23046 -2.72105 0
M  V30 1301 H 118.934 3.85336 -4.4361 0
M  V30 1302 H 120.458 4.65205 -3.95495 0
M  V30 1303 H 121.872 2.67386 -5.07127 0
M  V30 1304 H 120.269 2.10397 -5.62008 0
M  V30 1305 H 121.339 0.992861 -4.74626 0
M  V30 1306 N 122.682 1.50554 0.465978 0
M  V30 1307 C 123.63 1.70324 1.58406 0
M  V30 1308 C 124.624 0.569139 1.59553 0
M  V30 1309 O 125.83 0.749776 1.63641 0
M  V30 1310 H 122.205 0.537688 0.525734 0
M  V30 1311 H 124.176 2.64104 1.38894 0
M  V30 1312 C 122.925 1.81928 2.96307 0
M  V30 1313 H 122.248 2.68586 2.96144 0
M  V30 1314 H 123.688 1.99784 3.73982 0
M  V30 1315 C 122.147 0.572095 3.32007 0
M  V30 1316 O 122.677 -0.286416 4.00678 0
M  V30 1317 N 120.883 0.424606 2.87481 0
M  V30 1318 H 120.43 1.12427 2.31771 0
M  V30 1319 H 120.388 -0.408697 3.11732 0
M  V30 1320 N 124.16 -0.719506 1.40217 0
M  V30 1321 C 125.092 -1.84428 1.36084 0
M  V30 1322 C 126.105 -1.60597 0.266913 0
M  V30 1323 O 127.294 -1.70544 0.526983 0
M  V30 1324 C 124.394 -3.20757 1.094 0
M  V30 1325 C 123.567 -3.71817 2.30372 0
M  V30 1326 C 122.626 -4.86748 1.99907 0
M  V30 1327 O 121.652 -4.99603 2.72737 0
M  V30 1328 N 122.854 -5.7226 0.974635 0
M  V30 1329 H 125.619 -1.88473 2.33019 0
M  V30 1330 H 123.18 -0.900885 1.3452 0
M  V30 1331 H 125.172 -3.95235 0.870116 0
M  V30 1332 H 123.742 -3.11884 0.211452 0
M  V30 1333 H 122.962 -2.88514 2.68614 0
M  V30 1334 H 124.25 -4.02666 3.11026 0
M  V30 1335 H 123.648 -5.6448 0.371368 0
M  V30 1336 H 122.205 -6.46739 0.810656 0
M  V30 1337 N 125.638 -1.25649 -0.95132 0
M  V30 1338 C 127.049 -1.09654 -1.51106 0
M  V30 1339 C 127.4 0.326615 -1.93462 0
M  V30 1340 O 126.525 1.21697 -1.78938 0
M  V30 1341 C 127.12 -1.98437 -2.74605 0
M  V30 1342 C 125.679 -1.86618 -3.2688 0
M  V30 1343 C 124.826 -1.9239 -1.99703 0
M  V30 1344 H 127.777 -1.38887 -0.767865 0
M  V30 1345 H 127.798 -1.5263 -3.48546 0
M  V30 1346 H 127.31 -3.02009 -2.43746 0
M  V30 1347 H 125.411 -0.859421 -3.62553 0
M  V30 1348 H 125.524 -2.71607 -3.94673 0
M  V30 1349 H 123.888 -1.36317 -2.15151 0
M  V30 1350 H 124.671 -2.97573 -1.71188 0
M  V30 1351 N 127.117 1.15442 -1.07289 0
M  V30 1352 C 128.065 2.22225 -0.686952 0
M  V30 1353 C 129.059 1.66688 0.30193 0
M  V30 1354 O 130.265 1.79236 0.165712 0
M  V30 1355 H 126.64 0.723783 -0.204064 0
M  V30 1356 H 128.611 2.52056 -1.5972 0
M  V30 1357 C 127.36 3.47556 -0.100149 0
M  V30 1358 H 126.683 3.90612 -0.852211 0
M  V30 1359 H 128.123 4.23794 0.132235 0
M  V30 1360 C 126.582 3.16337 1.159 0
M  V30 1361 O 127.112 3.33074 2.24555 0
M  V30 1362 N 125.318 2.70385 1.06491 0
M  V30 1363 H 124.865 2.56966 0.180668 0
M  V30 1364 H 124.823 2.49871 1.90819 0
M  V30 1365 N 128.595 0.856903 1.32268 0
M  V30 1366 C 129.82 0.474569 2.01897 0
M  V30 1367 C 130.245 -0.921766 1.63967 0
M  V30 1368 O 129.603 -1.60589 0.84148 0
M  V30 1369 C 129.651 0.623799 3.55164 0
M  V30 1370 O 128.755 -0.342459 4.10976 0
M  V30 1371 H 128.096 0.190422 0.63611 0
M  V30 1372 H 130.626 1.15672 1.68764 0
M  V30 1373 H 130.636 0.512169 4.04773 0
M  V30 1374 H 129.311 1.64202 3.82113 0
M  V30 1375 H 127.888 -0.18688 3.72431 0
M  V30 1376 N 130.073 -1.45103 0.615059 0
M  V30 1377 C 131.319 -2.02483 0.113347 0
M  V30 1378 C 131.652 -1.48146 -1.25564 0
M  V30 1379 O 130.927 -0.659104 -1.82992 0
M  V30 1380 C 131.21 -3.60005 0.0825278 0
M  V30 1381 C 131.063 -4.2466 1.48271 0
M  V30 1382 C 132.382 -4.35972 -0.601401 0
M  V30 1383 H 129.501 -0.735764 0.0426632 0
M  V30 1384 H 132.143 -1.72868 0.788461 0
M  V30 1385 H 130.293 -3.85367 -0.492378 0
M  V30 1386 H 131.965 -4.10458 2.10527 0
M  V30 1387 H 130.208 -3.82772 2.04127 0
M  V30 1388 H 130.879 -5.336 1.41332 0
M  V30 1389 H 133.355 -4.15947 -0.112666 0
M  V30 1390 H 132.231 -5.45697 -0.592097 0
M  V30 1391 H 132.492 -4.09391 -1.66887 0
M  V30 1392 N 131.551 -0.354651 -1.53558 0
M  V30 1393 C 132.798 0.238443 -2.01091 0
M  V30 1394 C 133.126 1.49663 -1.24222 0
M  V30 1395 O 132.381 1.93049 -0.321003 0
M  V30 1396 C 132.68 0.587121 -3.52545 0
M  V30 1397 C 132.346 -0.575472 -4.47213 0
M  V30 1398 C 131.008 -0.894497 -4.72813 0
M  V30 1399 C 133.36 -1.35489 -5.03281 0
M  V30 1400 C 130.688 -1.99511 -5.51736 0
M  V30 1401 C 133.04 -2.44583 -5.83405 0
M  V30 1402 C 131.704 -2.77033 -6.07296 0
M  V30 1403 H 130.974 0.0872526 -0.735845 0
M  V30 1404 H 133.621 -0.484859 -1.8526 0
M  V30 1405 H 131.926 1.39129 -3.66265 0
M  V30 1406 H 133.623 1.05809 -3.86789 0
M  V30 1407 H 130.213 -0.316774 -4.27428 0
M  V30 1408 H 134.397 -1.12167 -4.83459 0
M  V30 1409 H 129.653 -2.25063 -5.68469 0
M  V30 1410 H 133.827 -3.05401 -6.25862 0
M  V30 1411 H 131.454 -3.6244 -6.68237 0
M  V30 1412 N 133.029 1.57378 -0.0835403 0
M  V30 1413 C 134.277 1.93547 0.581718 0
M  V30 1414 C 134.598 0.96524 1.69435 0
M  V30 1415 O 133.868 0.0153369 1.95894 0
M  V30 1416 H 132.448 0.714521 0.217874 0
M  V30 1417 H 135.11 1.94366 -0.144158 0
M  V30 1418 H 134.206 2.95665 0.999423 0
M  V30 1419 N 134.507 -0.190092 1.56449 0
M  V30 1420 C 135.437 -1.23816 1.97969 0
M  V30 1421 C 136.418 -1.47201 0.852395 0
M  V30 1422 O 137.603 -1.58854 1.1171 0
M  V30 1423 C 134.733 -2.5813 2.3235 0
M  V30 1424 C 133.687 -2.49348 3.47864 0
M  V30 1425 C 133.013 -3.8798 3.67934 0
M  V30 1426 C 134.313 -2.01424 4.81898 0
M  V30 1427 H 136.007 -0.89311 2.85769 0
M  V30 1428 H 133.553 -0.428177 1.37487 0
M  V30 1429 H 135.506 -3.31637 2.59991 0
M  V30 1430 H 134.23 -2.94386 1.41438 0
M  V30 1431 H 132.889 -1.78297 3.20321 0
M  V30 1432 H 132.537 -4.21597 2.74344 0
M  V30 1433 H 132.237 -3.82978 4.45648 0
M  V30 1434 H 133.761 -4.63101 3.97957 0
M  V30 1435 H 135.175 -2.64693 5.08538 0
M  V30 1436 H 133.572 -2.07413 5.63116 0
M  V30 1437 H 134.642 -0.967677 4.75146 0
M  V30 1438 N 135.985 -1.50799 -0.457987 0
M  V30 1439 C 137.234 -1.6168 -1.20593 0
M  V30 1440 C 137.547 -0.32888 -1.92815 0
M  V30 1441 O 138.753 -0.316773 -2.69646 0
M  V30 1442 C 137.209 -2.8545 -2.19195 0
M  V30 1443 C 136.817 -4.21168 -1.52715 0
M  V30 1444 C 138.561 -3.05681 -2.94549 0
M  V30 1445 C 136.468 -5.3611 -2.4968 0
M  V30 1446 H 135.398 -0.602134 -0.453818 0
M  V30 1447 H 138.049 -1.77245 -0.475031 0
M  V30 1448 H 136.431 -2.63472 -2.95632 0
M  V30 1449 H 137.605 -4.53449 -0.819775 0
M  V30 1450 H 135.92 -4.06648 -0.895922 0
M  V30 1451 H 138.517 -3.88727 -3.67145 0
M  V30 1452 H 138.86 -2.17929 -3.54701 0
M  V30 1453 H 139.393 -3.27901 -2.25223 0
M  V30 1454 H 136.132 -6.26057 -1.94249 0
M  V30 1455 H 135.652 -5.0823 -3.18532 0
M  V30 1456 H 137.331 -5.6722 -3.11241 0
M  V30 1457 N 137.463 0.71206 -1.40597 0
M  V30 1458 C 138.71 1.47197 -1.39065 0
M  V30 1459 C 139.038 1.94499 0.00583891 0
M  V30 1460 O 138.293 1.68752 0.99102 0
M  V30 1461 C 138.592 2.71039 -2.32965 0
M  V30 1462 C 138.258 2.42484 -3.80148 0
M  V30 1463 C 136.92 2.34406 -4.20247 0
M  V30 1464 C 139.272 2.18598 -4.73143 0
M  V30 1465 C 136.6 2.00516 -5.51371 0
M  V30 1466 C 138.952 1.8622 -6.0457 0
M  V30 1467 C 137.616 1.76626 -6.43708 0
M  V30 1468 H 136.886 0.538634 -0.508876 0
M  V30 1469 H 139.533 0.815325 -1.73276 0
M  V30 1470 H 137.838 3.41558 -1.91951 0
M  V30 1471 H 139.535 3.29138 -2.29061 0
M  V30 1472 H 136.125 2.49659 -3.4838 0
M  V30 1473 H 140.309 2.23793 -4.42979 0
M  V30 1474 H 135.565 1.91628 -5.80593 0
M  V30 1475 H 139.739 1.66752 -6.76141 0
M  V30 1476 H 137.366 1.50133 -7.45228 0
M  V30 1477 N 138.941 1.26152 0.944643 0
M  V30 1478 C 140.171 1.14094 1.72239 0
M  V30 1479 C 140.579 -0.306931 1.86694 0
M  V30 1480 O 139.922 -1.22222 1.3714 0
M  V30 1481 C 139.984 1.73316 3.14963 0
M  V30 1482 C 139.648 3.2239 3.23904 0
M  V30 1483 C 140.645 4.19252 3.07447 0
M  V30 1484 C 138.33 3.62788 3.47405 0
M  V30 1485 C 140.324 5.54491 3.14353 0
M  V30 1486 C 138.011 4.98162 3.53947 0
M  V30 1487 C 139.009 5.93823 3.37436 0
M  V30 1488 O 138.697 7.26732 3.43679 0
M  V30 1489 H 138.429 0.398292 0.546205 0
M  V30 1490 H 140.983 1.67201 1.19301 0
M  V30 1491 H 139.213 1.14667 3.69308 0
M  V30 1492 H 140.902 1.56214 3.74636 0
M  V30 1493 H 141.668 3.8938 2.8915 0
M  V30 1494 H 137.547 2.88816 3.59313 0
M  V30 1495 H 141.091 6.29137 3.01384 0
M  V30 1496 H 136.988 5.27695 3.71763 0
M  V30 1497 H 137.756 7.3496 3.60245 0
M  V30 1498 N 140.419 -1.14872 1.07899 0
M  V30 1499 C 141.668 -1.85135 0.800499 0
M  V30 1500 C 141.981 -1.83547 -0.676014 0
M  V30 1501 O 143.187 -2.49548 -1.06948 0
M  V30 1502 C 141.643 -3.3231 1.38197 0
M  V30 1503 C 141.251 -3.42329 2.8899 0
M  V30 1504 C 142.995 -4.0772 1.18174 0
M  V30 1505 C 140.902 -4.83684 3.403 0
M  V30 1506 H 139.832 -0.693563 0.29578 0
M  V30 1507 H 142.483 -1.29532 1.29976 0
M  V30 1508 H 140.865 -3.87618 0.810431 0
M  V30 1509 H 142.039 -2.97097 3.52236 0
M  V30 1510 H 140.354 -2.80369 3.07867 0
M  V30 1511 H 142.951 -5.12049 1.5398 0
M  V30 1512 H 143.294 -4.16124 0.12117 0
M  V30 1513 H 143.827 -3.58696 1.71994 0
M  V30 1514 H 140.566 -4.80465 4.45907 0
M  V30 1515 H 140.086 -5.29474 2.81811 0
M  V30 1516 H 141.765 -5.52558 3.36584 0
M  V30 1517 N 141.898 -0.863906 -1.31812 0
M  V30 1518 C 142.828 -0.330843 -2.31144 0
M  V30 1519 C 143.809 0.575005 -1.60087 0
M  V30 1520 O 144.994 0.493304 -1.8783 0
M  V30 1521 C 142.124 0.47374 -3.44054 0
M  V30 1522 C 141.078 -0.338481 -4.26659 0
M  V30 1523 C 140.404 0.591412 -5.31419 0
M  V30 1524 C 141.704 -1.56926 -4.98168 0
M  V30 1525 H 143.398 -1.16086 -2.75979 0
M  V30 1526 H 140.944 -0.559657 -1.32679 0
M  V30 1527 H 142.897 0.857143 -4.12591 0
M  V30 1528 H 141.621 1.33721 -2.9797 0
M  V30 1529 H 140.28 -0.703754 -3.59782 0
M  V30 1530 H 139.928 1.45199 -4.81587 0
M  V30 1531 H 139.628 0.0519022 -5.87577 0
M  V30 1532 H 141.152 0.97179 -6.02817 0
M  V30 1533 H 142.566 -1.25764 -5.59336 0
M  V30 1534 H 140.963 -2.04739 -5.64094 0
M  V30 1535 H 142.033 -2.32544 -4.25501 0
M  V30 1536 N 143.376 1.44774 -0.622745 0
M  V30 1537 C 144.308 2.28856 0.125485 0
M  V30 1538 C 145.321 1.40811 0.817069 0
M  V30 1539 O 146.51 1.65044 0.679918 0
M  V30 1540 C 143.61 3.16963 1.19949 0
M  V30 1541 C 142.783 4.33374 0.592064 0
M  V30 1542 C 141.842 5.02577 1.55893 0
M  V30 1543 O 140.868 5.58873 1.07933 0
M  V30 1544 N 142.07 5.03256 2.89334 0
M  V30 1545 H 144.835 2.93713 -0.596068 0
M  V30 1546 H 142.396 1.55129 -0.463303 0
M  V30 1547 H 144.388 3.60123 1.84644 0
M  V30 1548 H 142.958 2.53913 1.82337 0
M  V30 1549 H 142.178 3.93509 -0.233322 0
M  V30 1550 H 143.466 5.08527 0.166738 0
M  V30 1551 H 142.864 4.58836 3.30887 0
M  V30 1552 H 141.421 5.50232 3.49412 0
M  V30 1553 N 144.854 0.36279 1.53368 0
M  V30 1554 C 145.784 -0.476976 2.28576 0
M  V30 1555 C 146.765 -1.08631 1.30894 0
M  V30 1556 O 147.95 -1.10409 1.59761 0
M  V30 1557 C 145.08 -1.61828 3.07293 0
M  V30 1558 C 144.034 -1.13633 4.1264 0
M  V30 1559 C 143.36 -2.36766 4.79423 0
M  V30 1560 C 144.66 -0.223061 5.21823 0
M  V30 1561 H 146.354 0.150474 2.99022 0
M  V30 1562 H 143.9 0.0738103 1.43811 0
M  V30 1563 H 145.853 -2.21237 3.58653 0
M  V30 1564 H 144.577 -2.27292 2.34533 0
M  V30 1565 H 143.236 -0.564945 3.62221 0
M  V30 1566 H 142.884 -3.0068 4.03238 0
M  V30 1567 H 142.584 -2.05192 5.50609 0
M  V30 1568 H 144.108 -2.96865 5.33576 0
M  V30 1569 H 145.522 -0.724545 5.68703 0
M  V30 1570 H 143.919 0.001678 6.001 0
M  V30 1571 H 144.989 0.735553 4.79289 0
M  V30 1572 N 146.332 -1.57332 0.0918853 0
M  V30 1573 C 147.262 -2.16872 -0.865371 0
M  V30 1574 C 148.243 -1.10118 -1.29646 0
M  V30 1575 O 149.428 -1.38242 -1.36392 0
M  V30 1576 C 146.558 -2.74649 -2.12569 0
M  V30 1577 C 145.512 -3.86747 -1.83333 0
M  V30 1578 C 144.838 -4.31212 -3.16166 0
M  V30 1579 C 146.138 -5.10089 -1.1228 0
M  V30 1580 H 147.832 -2.97114 -0.369307 0
M  V30 1581 H 145.378 -1.42918 -0.176194 0
M  V30 1582 H 147.331 -3.14952 -2.7997 0
M  V30 1583 H 146.055 -1.91657 -2.64452 0
M  V30 1584 H 144.714 -3.46978 -1.18331 0
M  V30 1585 H 144.362 -3.45115 -3.6593 0
M  V30 1586 H 144.062 -5.06788 -2.97388 0
M  V30 1587 H 145.586 -4.74146 -3.84731 0
M  V30 1588 H 147 -5.47582 -1.69785 0
M  V30 1589 H 145.397 -5.91073 -1.03693 0
M  V30 1590 H 146.467 -4.84786 -0.105041 0
M  V30 1591 N 147.81 0.181792 -1.56548 0
M  V30 1592 C 148.74 1.22765 -1.98623 0
M  V30 1593 C 149.721 1.46747 -0.860189 0
M  V30 1594 O 150.906 1.58259 -1.12551 0
M  V30 1595 C 148.036 2.56894 -2.33715 0
M  V30 1596 C 146.99 2.475 -3.49182 0
M  V30 1597 C 146.316 3.86023 -3.69986 0
M  V30 1598 C 147.616 1.98866 -4.82959 0
M  V30 1599 H 149.31 0.877942 -2.86239 0
M  V30 1600 H 146.856 0.42088 -1.37712 0
M  V30 1601 H 148.809 3.30253 -2.61746 0
M  V30 1602 H 147.533 2.93632 -1.42997 0
M  V30 1603 H 146.192 1.76596 -3.21262 0
M  V30 1604 H 145.84 4.20136 -2.76576 0
M  V30 1605 H 145.54 3.80609 -4.47672 0
M  V30 1606 H 147.064 4.60984 -4.00407 0
M  V30 1607 H 148.478 2.61992 -5.09934 0
M  V30 1608 H 146.875 2.04424 -5.64208 0
M  V30 1609 H 147.945 0.942465 -4.75653 0
M  V30 1610 N 149.288 1.51039 0.449983 0
M  V30 1611 C 150.536 1.62759 1.19808 0
M  V30 1612 C 150.857 0.339981 1.92013 0
M  V30 1613 O 150.127 -0.643606 1.85026 0
M  V30 1614 H 148.707 0.599811 0.445237 0
M  V30 1615 H 151.369 1.87914 0.517138 0
M  V30 1616 H 150.465 2.44911 1.93455 0
M  V30 1617 N 150.766 -0.704594 1.40972 0
M  V30 1618 C 151.699 -1.82861 1.36518 0
M  V30 1619 C 152.677 -1.6091 0.23382 0
M  V30 1620 O 153.861 -1.83778 0.419271 0
M  V30 1621 C 150.988 -3.1939 1.12729 0
M  V30 1622 C 150.034 -3.60148 2.28463 0
M  V30 1623 S 150.867 -3.65994 3.90907 0
M  V30 1624 C 152.023 -5.05264 3.69403 0
M  V30 1625 H 152.256 -1.86361 2.3164 0
M  V30 1626 H 149.789 -0.872439 1.27389 0
M  V30 1627 H 151.747 -3.98211 0.996893 0
M  V30 1628 H 150.408 -3.1351 0.192427 0
M  V30 1629 H 149.601 -4.59309 2.07489 0
M  V30 1630 H 149.203 -2.88612 2.37863 0
M  V30 1631 H 151.495 -5.92504 3.28551 0
M  V30 1632 H 152.438 -5.31278 4.68134 0
M  V30 1633 H 152.846 -4.76377 3.02862 0
M  V30 1634 N 152.244 -1.26651 -0.937939 0
M  V30 1635 C 153.472 -1.15173 -1.7188 0
M  V30 1636 C 153.887 0.292668 -1.86518 0
M  V30 1637 O 153.244 1.20014 -1.37488 0
M  V30 1638 C 153.295 -1.81925 -3.12387 0
M  V30 1639 O 153.016 -3.2072 -2.98446 0
M  V30 1640 C 154.517 -1.76442 -4.06673 0
M  V30 1641 H 151.737 -0.400911 -0.538063 0
M  V30 1642 H 154.281 -1.67332 -1.1756 0
M  V30 1643 H 152.436 -1.33696 -3.63599 0
M  V30 1644 H 152.85 -3.53802 -3.872 0
M  V30 1645 H 154.324 -2.27781 -5.02812 0
M  V30 1646 H 154.801 -0.731608 -4.33064 0
M  V30 1647 H 155.407 -2.24238 -3.61382 0
M  V30 1648 N 153.722 1.14298 -1.08507 0
M  V30 1649 C 154.685 2.17607 -0.719711 0
M  V30 1650 C 155.685 1.58907 0.245997 0
M  V30 1651 O 156.875 1.74181 0.0254081 0
M  V30 1652 C 154.007 3.40842 -0.0627695 0
M  V30 1653 H 155.2 2.51443 -1.63452 0
M  V30 1654 H 152.753 1.28963 -0.88307 0
M  V30 1655 H 153.488 3.12587 0.863716 0
M  V30 1656 H 153.273 3.84713 -0.757504 0
M  V30 1657 H 154.763 4.17221 0.177786 0
M  V30 1658 N 155.201 0.870884 1.31352 0
M  V30 1659 C 156.426 0.495957 2.01383 0
M  V30 1660 C 156.851 -0.904324 1.64935 0
M  V30 1661 O 156.209 -1.59687 0.858466 0
M  V30 1662 C 156.257 0.661433 3.54482 0
M  V30 1663 O 155.361 -0.298851 4.11316 0
M  V30 1664 H 154.702 0.197158 0.634054 0
M  V30 1665 H 157.232 1.17455 1.67527 0
M  V30 1666 H 157.242 0.555072 4.04207 0
M  V30 1667 H 155.917 1.68246 3.8035 0
M  V30 1668 H 154.494 -0.147368 3.72609 0
M  V30 1669 N 156.679 -1.44442 0.630414 0
M  V30 1670 C 157.642 -2.29107 -0.0652523 0
M  V30 1671 C 158.642 -1.41002 -0.772995 0
M  V30 1672 O 159.832 -1.62881 -0.617692 0
M  V30 1673 C 156.964 -3.22564 -1.10296 0
M  V30 1674 H 158.157 -2.92103 0.679401 0
M  V30 1675 H 155.71 -1.51343 0.390517 0
M  V30 1676 H 156.445 -2.64416 -1.87762 0
M  V30 1677 H 156.23 -3.87491 -0.59941 0
M  V30 1678 H 157.72 -3.86167 -1.5895 0
M  V30 1679 N 158.157 -0.370918 -1.53173 0
M  V30 1680 C 159.403 0.217423 -2.01631 0
M  V30 1681 C 159.736 1.47983 -1.25756 0
M  V30 1682 O 159.011 1.91274 -0.352764 0
M  V30 1683 C 159.294 0.503982 -3.56556 0
M  V30 1684 C 159.147 -0.77243 -4.43118 0
M  V30 1685 C 160.466 1.30234 -4.20389 0
M  V30 1686 H 157.585 0.0775486 -0.732909 0
M  V30 1687 H 160.227 -0.496863 -1.83388 0
M  V30 1688 H 158.377 1.11248 -3.72231 0
M  V30 1689 H 160.049 -1.4098 -4.39229 0
M  V30 1690 H 158.292 -1.39167 -4.10871 0
M  V30 1691 H 158.963 -0.526815 -5.4948 0
M  V30 1692 H 161.439 0.787546 -4.08579 0
M  V30 1693 H 160.315 1.47158 -5.28806 0
M  V30 1694 H 160.576 2.31237 -3.76805 0
M  V30 1695 N 159.635 1.57281 -0.100228 0
M  V30 1696 C 160.598 2.13158 0.842398 0
M  V30 1697 C 161.598 1.06202 1.20738 0
M  V30 1698 O 162.788 1.32066 1.13597 0
M  V30 1699 C 159.92 2.65639 2.13655 0
M  V30 1700 H 161.113 2.97766 0.357114 0
M  V30 1701 H 158.666 1.5559 0.148823 0
M  V30 1702 H 159.401 1.84566 2.66657 0
M  V30 1703 H 159.186 3.43844 1.88451 0
M  V30 1704 H 160.676 3.08846 2.81077 0
M  V30 1705 N 161.113 -0.173488 1.56642 0
M  V30 1706 C 162.076 -1.19859 1.95362 0
M  V30 1707 C 163.076 -1.37296 0.83704 0
M  V30 1708 O 164.266 -1.34739 1.10413 0
M  V30 1709 C 161.398 -2.56405 2.24654 0
M  V30 1710 H 162.591 -0.867062 2.87092 0
M  V30 1711 H 160.144 -0.415853 1.50666 0
M  V30 1712 H 160.879 -2.94576 1.35631 0
M  V30 1713 H 160.664 -2.45115 3.06041 0
M  V30 1714 H 162.154 -3.30287 2.5554 0
M  V30 1715 N 162.591 -1.51276 -0.441967 0
M  V30 1716 C 163.521 -1.752 -1.54361 0
M  V30 1717 C 164.502 -0.601682 -1.59103 0
M  V30 1718 O 165.687 -0.843913 -1.74905 0
M  V30 1719 C 162.817 -1.87282 -2.92477 0
M  V30 1720 C 161.771 -3.02687 -3.02596 0
M  V30 1721 C 161.097 -2.99947 -4.42647 0
M  V30 1722 C 162.397 -4.4273 -2.77106 0
M  V30 1723 H 164.091 -2.67442 -1.34592 0
M  V30 1724 H 161.637 -1.28694 -0.646048 0
M  V30 1725 H 163.59 -2.02602 -3.695 0
M  V30 1726 H 162.314 -0.916844 -3.13467 0
M  V30 1727 H 160.973 -2.87065 -2.28012 0
M  V30 1728 H 160.621 -2.02136 -4.60597 0
M  V30 1729 H 160.321 -3.77439 -4.50348 0
M  V30 1730 H 161.845 -3.17354 -5.2165 0
M  V30 1731 H 163.259 -4.58727 -3.43864 0
M  V30 1732 H 161.656 -5.21893 -2.96222 0
M  V30 1733 H 162.726 -4.53087 -1.72744 0
M  V30 1734 N 164.069 0.697108 -1.41344 0
M  V30 1735 C 165.318 1.45279 -1.39918 0
M  V30 1736 C 165.631 1.95597 -0.0109624 0
M  V30 1737 O 166.837 2.71208 0.125919 0
M  V30 1738 C 165.293 2.62695 -2.46007 0
M  V30 1739 C 164.901 2.19169 -3.90729 0
M  V30 1740 C 166.645 3.40336 -2.53715 0
M  V30 1741 C 164.552 3.33535 -4.88373 0
M  V30 1742 H 163.482 0.545692 -0.520323 0
M  V30 1743 H 166.133 0.756929 -1.67161 0
M  V30 1744 H 164.515 3.34541 -2.11892 0
M  V30 1745 H 165.689 1.54623 -4.34083 0
M  V30 1746 H 164.004 1.54525 -3.86666 0
M  V30 1747 H 166.601 4.2547 -3.2385 0
M  V30 1748 H 166.944 3.85418 -1.5735 0
M  V30 1749 H 167.477 2.75546 -2.86913 0
M  V30 1750 H 164.216 2.93468 -5.86137 0
M  V30 1751 H 163.736 3.96936 -4.49668 0
M  V30 1752 H 165.415 3.99335 -5.09059 0
M  V30 1753 N 165.547 1.27147 0.931209 0
M  V30 1754 C 166.477 1.12081 2.04842 0
M  V30 1755 C 167.458 0.0232364 1.70084 0
M  V30 1756 O 168.643 0.197085 1.93197 0
M  V30 1757 C 165.773 0.76354 3.38803 0
M  V30 1758 C 164.727 1.81396 3.87659 0
M  V30 1759 C 164.053 1.31075 5.18385 0
M  V30 1760 C 165.353 3.21739 4.11438 0
M  V30 1761 H 167.047 2.05537 2.17703 0
M  V30 1762 H 164.593 0.989603 1.04608 0
M  V30 1763 H 166.546 0.644982 4.16435 0
M  V30 1764 H 165.27 -0.206727 3.25945 0
M  V30 1765 H 163.929 1.92136 3.12217 0
M  V30 1766 H 163.577 0.330037 5.01916 0
M  V30 1767 H 163.277 2.013 5.52044 0
M  V30 1768 H 164.801 1.20506 5.98591 0
M  V30 1769 H 166.215 3.14019 4.79651 0
M  V30 1770 H 164.612 3.89644 4.56397 0
M  V30 1771 H 165.682 3.67054 3.16859 0
M  V30 1772 N 167.025 -1.13721 1.09112 0
M  V30 1773 C 167.958 -2.18094 0.67158 0
M  V30 1774 C 168.936 -1.59414 -0.320299 0
M  V30 1775 O 170.12 -1.87183 -0.222444 0
M  V30 1776 C 167.247 -3.38698 -0.0111189 0
M  V30 1777 C 166.293 -4.15966 0.942055 0
M  V30 1778 S 167.126 -4.7604 2.45246 0
M  V30 1779 C 168.282 -5.99994 1.78208 0
M  V30 1780 H 168.515 -2.53344 1.55577 0
M  V30 1781 H 166.048 -1.24967 0.906789 0
M  V30 1782 H 168.006 -4.08559 -0.398716 0
M  V30 1783 H 166.667 -3.01756 -0.871905 0
M  V30 1784 H 165.86 -5.02318 0.411396 0
M  V30 1785 H 165.462 -3.51745 1.2709 0
M  V30 1786 H 167.754 -6.68441 1.10424 0
M  V30 1787 H 168.697 -6.57662 2.62463 0
M  V30 1788 H 169.105 -5.50432 1.25238 0
M  V30 1789 N 168.503 -0.877838 -1.30888 0
M  V30 1790 C 169.731 -0.507414 -2.00581 0
M  V30 1791 C 170.146 0.902216 -1.65848 0
M  V30 1792 O 169.503 1.59225 -0.891831 0
M  V30 1793 C 169.554 -0.664162 -3.55347 0
M  V30 1794 O 169.275 -2.01829 -3.8884 0
M  V30 1795 C 170.776 -0.295787 -4.42312 0
M  V30 1796 H 167.996 -0.196866 -0.641471 0
M  V30 1797 H 170.54 -1.18117 -1.66939 0
M  V30 1798 H 168.695 -0.0378619 -3.87381 0
M  V30 1799 H 169.109 -2.03174 -4.8355 0
M  V30 1800 H 170.583 -0.456388 -5.5011 0
M  V30 1801 H 171.06 0.765663 -4.32475 0
M  V30 1802 H 171.666 -0.898113 -4.15709 0
M  V30 1803 N 169.982 1.44106 -0.638065 0
M  V30 1804 C 171.207 2.0685 -0.150916 0
M  V30 1805 C 171.632 1.47417 1.16833 0
M  V30 1806 O 170.99 0.578264 1.71831 0
M  V30 1807 C 171.038 3.60555 -0.05708 0
M  V30 1808 O 170.142 4.00465 0.984972 0
M  V30 1809 H 169.483 0.658151 -0.0879399 0
M  V30 1810 H 172.013 1.84865 -0.876707 0
M  V30 1811 H 172.023 4.07789 0.131232 0
M  V30 1812 H 170.698 4.03193 -1.02021 0
M  V30 1813 H 169.275 3.64849 0.770672 0
M  V30 1814 N 171.46 0.379036 1.52974 0
M  V30 1815 C 172.685 -0.209353 2.06341 0
M  V30 1816 C 173.11 -1.40583 1.24972 0
M  V30 1817 O 172.468 -1.79246 0.272155 0
M  V30 1818 C 172.516 -0.567786 3.56102 0
M  V30 1819 O 171.62 -1.66318 3.77375 0
M  V30 1820 H 170.961 -0.0272919 0.663439 0
M  V30 1821 H 173.491 0.543536 1.97248 0
M  V30 1822 H 173.501 -0.835003 3.99364 0
M  V30 1823 H 172.176 0.307013 4.14765 0
M  V30 1824 H 170.753 -1.39048 3.46006 0
M  V30 1825 N 172.938 -1.57226 0.108567 0
M  V30 1826 C 174.187 -1.94008 -0.551703 0
M  V30 1827 C 174.5 -0.993442 -1.68494 0
M  V30 1828 O 175.706 -1.25551 -2.40726 0
M  V30 1829 C 174.162 -3.44763 -1.03279 0
M  V30 1830 C 173.77 -4.47943 0.0714193 0
M  V30 1831 C 175.514 -3.90483 -1.66503 0
M  V30 1832 C 173.421 -5.89865 -0.425779 0
M  V30 1833 H 172.351 -0.724206 -0.209863 0
M  V30 1834 H 175.002 -1.82547 0.186741 0
M  V30 1835 H 173.384 -3.51422 -1.82533 0
M  V30 1836 H 174.558 -4.52942 0.847365 0
M  V30 1837 H 172.873 -4.11913 0.609669 0
M  V30 1838 H 175.47 -4.93925 -2.04798 0
M  V30 1839 H 175.813 -3.29877 -2.53942 0
M  V30 1840 H 176.346 -3.86581 -0.938074 0
M  V30 1841 H 173.085 -6.54202 0.412316 0
M  V30 1842 H 172.605 -5.88309 -1.16843 0
M  V30 1843 H 174.284 -6.40844 -0.890397 0
M  V30 1844 N 174.416 0.165178 -1.56732 0
M  V30 1845 C 175.349 1.23336 -1.91998 0
M  V30 1846 C 176.327 1.42476 -0.783531 0
M  V30 1847 O 177.511 1.57384 -1.03743 0
M  V30 1848 C 174.638 2.59533 -2.17625 0
M  V30 1849 C 173.684 2.57093 -3.40302 0
M  V30 1850 S 174.517 2.05571 -4.9447 0
M  V30 1851 C 175.673 3.43532 -5.23198 0
M  V30 1852 H 175.906 0.932387 -2.82301 0
M  V30 1853 H 173.439 0.370013 -1.49901 0
M  V30 1854 H 175.397 3.37918 -2.3307 0
M  V30 1855 H 174.058 2.86827 -1.28019 0
M  V30 1856 H 173.251 3.57308 -3.55453 0
M  V30 1857 H 172.853 1.86806 -3.24005 0
M  V30 1858 H 175.145 4.39559 -5.15552 0
M  V30 1859 H 176.088 3.33251 -6.2478 0
M  V30 1860 H 176.496 3.39828 -4.50752 0
M  V30 1861 N 175.894 1.51508 0.433938 0
M  V30 1862 C 177.119 1.68443 1.21003 0
M  V30 1863 C 177.544 0.382636 1.84167 0
M  V30 1864 O 176.902 -0.65755 1.68956 0
M  V30 1865 C 176.95 2.80405 2.26727 0
M  V30 1866 O 176.054 2.44245 3.32292 0
M  V30 1867 H 175.395 0.561536 0.354363 0
M  V30 1868 H 177.925 1.9809 0.512024 0
M  V30 1869 H 177.935 3.0459 2.71457 0
M  V30 1870 H 176.61 3.74867 1.80132 0
M  V30 1871 H 175.187 2.30644 2.93015 0
M  V30 1872 N 177.372 -0.689602 1.41712 0
M  V30 1873 C 178.618 -1.45181 1.41599 0
M  V30 1874 C 178.951 -1.94181 0.0270081 0
M  V30 1875 O 178.226 -1.6993 -0.946265 0
M  V30 1876 C 178.509 -2.65945 2.42787 0
M  V30 1877 C 178.362 -2.22672 3.90816 0
M  V30 1878 C 179.681 -3.68149 2.41151 0
M  V30 1879 H 176.8 -0.526576 0.515642 0
M  V30 1880 H 179.442 -0.784947 1.73028 0
M  V30 1881 H 177.592 -3.2284 2.16116 0
M  V30 1882 H 179.264 -1.71058 4.28412 0
M  V30 1883 H 177.507 -1.54394 4.05395 0
M  V30 1884 H 178.178 -3.0935 4.57172 0
M  V30 1885 H 180.654 -3.2094 2.64834 0
M  V30 1886 H 179.53 -4.50248 3.13955 0
M  V30 1887 H 179.791 -4.18259 1.43221 0
M  V30 1888 N 178.85 -1.27639 -0.924453 0
M  V30 1889 C 180.096 -1.14336 -1.67497 0
M  V30 1890 C 180.429 0.309465 -1.91718 0
M  V30 1891 O 179.704 1.22608 -1.50989 0
M  V30 1892 C 179.987 -1.93096 -3.0395 0
M  V30 1893 C 179.84 -3.46381 -2.8695 0
M  V30 1894 C 181.159 -1.73798 -4.0433 0
M  V30 1895 H 178.278 -0.416728 -0.607871 0
M  V30 1896 H 180.92 -1.56832 -1.07256 0
M  V30 1897 H 179.07 -1.56982 -3.55372 0
M  V30 1898 H 180.742 -3.92343 -2.42621 0
M  V30 1899 H 178.985 -3.72557 -2.22225 0
M  V30 1900 H 179.656 -3.96735 -3.83804 0
M  V30 1901 H 182.132 -2.05293 -3.61931 0
M  V30 1902 H 181.008 -2.31294 -4.97789 0
M  V30 1903 H 181.269 -0.686725 -4.36734 0
M  V30 1904 N 180.328 1.1314 -1.09713 0
M  V30 1905 C 181.576 1.84119 -0.833338 0
M  V30 1906 C 181.897 1.84097 0.642904 0
M  V30 1907 O 181.167 1.29881 1.46655 0
M  V30 1908 H 179.747 0.681766 -0.305293 0
M  V30 1909 H 182.409 1.37038 -1.38588 0
M  V30 1910 H 181.505 2.88543 -1.18951 0
M  V30 1911 N 181.806 0.884767 1.30421 0
M  V30 1912 C 183.031 0.517288 2.00845 0
M  V30 1913 C 183.456 -0.886779 1.65885 0
M  V30 1914 O 182.814 -1.58768 0.875354 0
M  V30 1915 C 182.862 0.698994 3.5376 0
M  V30 1916 O 181.966 -0.255208 4.1161 0
M  V30 1917 H 181.307 0.203872 0.631927 0
M  V30 1918 H 183.837 1.19225 1.66272 0
M  V30 1919 H 183.847 0.597912 4.03595 0
M  V30 1920 H 182.522 1.72271 3.78544 0
M  V30 1921 H 181.099 -0.10784 3.72744 0
M  V30 1922 N 183.284 -1.43765 0.645699 0
M  V30 1923 C 184.214 -2.33471 -0.0370477 0
M  V30 1924 C 185.195 -1.49042 -0.819779 0
M  V30 1925 O 186.38 -1.77726 -0.782758 0
M  V30 1926 C 183.51 -3.32311 -1.0093 0
M  V30 1927 C 182.464 -4.2667 -0.337201 0
M  V30 1928 C 181.79 -5.1549 -1.42037 0
M  V30 1929 C 183.09 -5.16657 0.765706 0
M  V30 1930 H 184.784 -2.90809 0.712069 0
M  V30 1931 H 182.33 -1.39834 0.343876 0
M  V30 1932 H 184.283 -3.9396 -1.49578 0
M  V30 1933 H 183.007 -2.73213 -1.78948 0
M  V30 1934 H 181.666 -3.66374 0.128771 0
M  V30 1935 H 181.314 -4.52735 -2.1918 0
M  V30 1936 H 181.014 -5.79438 -0.975966 0
M  V30 1937 H 182.538 -5.80012 -1.90838 0
M  V30 1938 H 183.952 -5.72158 0.361702 0
M  V30 1939 H 182.349 -5.89286 1.13413 0
M  V30 1940 H 183.419 -4.56796 1.62683 0
M  V30 1941 N 184.763 -0.387143 -1.52771 0
M  V30 1942 C 185.993 0.195585 -2.05672 0
M  V30 1943 C 186.401 1.41241 -1.25887 0
M  V30 1944 O 185.744 1.81265 -0.298081 0
M  V30 1945 C 185.806 0.632327 -3.53895 0
M  V30 1946 C 185.47 -0.470739 -4.54569 0
M  V30 1947 C 186.467 -1.32746 -5.02667 0
M  V30 1948 C 184.152 -0.637151 -4.98243 0
M  V30 1949 C 186.146 -2.33574 -5.93061 0
M  V30 1950 C 183.833 -1.64877 -5.88438 0
M  V30 1951 C 184.831 -2.49649 -6.35739 0
M  V30 1952 O 184.519 -3.49082 -7.24153 0
M  V30 1953 H 184.251 0.033658 -0.675162 0
M  V30 1954 H 186.805 -0.550221 -1.97893 0
M  V30 1955 H 185.035 1.43008 -3.59285 0
M  V30 1956 H 186.724 1.14048 -3.89548 0
M  V30 1957 H 187.49 -1.21019 -4.69659 0
M  V30 1958 H 183.369 0.0129567 -4.60998 0
M  V30 1959 H 186.913 -2.99777 -6.29904 0
M  V30 1960 H 182.81 -1.76643 -6.2086 0
M  V30 1961 H 183.578 -3.45065 -7.42208 0
M  V30 1962 N 186.241 1.57166 -0.116904 0
M  V30 1963 C 187.171 2.18222 0.830759 0
M  V30 1964 C 188.152 1.12167 1.27877 0
M  V30 1965 O 189.337 1.40394 1.34176 0
M  V30 1966 C 186.467 2.77996 2.08172 0
M  V30 1967 C 185.421 3.89614 1.77157 0
M  V30 1968 C 184.747 4.36187 3.09265 0
M  V30 1969 C 186.047 5.1181 1.04151 0
M  V30 1970 H 187.741 2.97664 0.321992 0
M  V30 1971 H 185.287 1.4318 0.153434 0
M  V30 1972 H 187.24 3.19366 2.74924 0
M  V30 1973 H 185.964 1.9584 2.6137 0
M  V30 1974 H 184.623 3.48816 1.12796 0
M  V30 1975 H 184.271 3.50893 3.60393 0
M  V30 1976 H 183.971 5.11455 2.89288 0
M  V30 1977 H 185.495 4.80207 3.77139 0
M  V30 1978 H 186.909 5.50214 1.61052 0
M  V30 1979 H 185.306 5.92648 0.942762 0
M  V30 1980 H 186.376 4.84892 0.0279022 0
M  V30 1981 N 187.719 -0.156864 1.56817 0
M  V30 1982 C 188.682 -1.17781 1.96622 0
M  V30 1983 C 189.682 -1.36401 0.851555 0
M  V30 1984 O 190.872 -1.33561 1.11836 0
M  V30 1985 C 188.004 -2.54008 2.27361 0
M  V30 1986 H 189.197 -0.836564 2.87996 0
M  V30 1987 H 186.75 -0.39985 1.51099 0
M  V30 1988 H 187.485 -2.9312 1.38748 0
M  V30 1989 H 187.27 -2.41856 3.08623 0
M  V30 1990 H 188.76 -3.27558 2.59029 0
M  V30 1991 N 189.197 -1.51736 -0.425897 0
M  V30 1992 C 190.427 -1.68549 -1.19476 0
M  V30 1993 C 190.835 -0.387288 -1.85194 0
M  V30 1994 O 190.178 0.645142 -1.71999 0
M  V30 1995 C 190.24 -2.75275 -2.31223 0
M  V30 1996 C 189.904 -4.17534 -1.8578 0
M  V30 1997 C 190.901 -5.01936 -1.35485 0
M  V30 1998 C 188.586 -4.6369 -1.93123 0
M  V30 1999 C 190.58 -6.30559 -0.931347 0
M  V30 2000 C 188.267 -5.92307 -1.50384 0
M  V30 2001 C 189.265 -6.75569 -1.00473 0
M  V30 2002 O 188.953 -8.0178 -0.583452 0
M  V30 2003 H 188.685 -0.568525 -0.365725 0
M  V30 2004 H 191.239 -1.98982 -0.509444 0
M  V30 2005 H 189.469 -2.40182 -3.03067 0
M  V30 2006 H 191.158 -2.80853 -2.93047 0
M  V30 2007 H 191.924 -4.67475 -1.29197 0
M  V30 2008 H 187.803 -3.98997 -2.30916 0
M  V30 2009 H 191.347 -6.95498 -0.541084 0
M  V30 2010 H 187.244 -6.2628 -1.56346 0
M  V30 2011 H 188.012 -8.1543 -0.708275 0
M  V30 2012 N 190.675 0.682077 -1.42076 0
M  V30 2013 C 191.924 1.43786 -1.41451 0
M  V30 2014 C 192.237 1.95574 -0.0317074 0
M  V30 2015 O 193.443 2.71326 0.0971462 0
M  V30 2016 C 191.899 2.60071 -2.48779 0
M  V30 2017 C 191.507 2.15013 -3.93031 0
M  V30 2018 C 193.251 3.37626 -2.57311 0
M  V30 2019 C 191.158 3.28336 -4.91883 0
M  V30 2020 H 190.088 0.540143 -0.526082 0
M  V30 2021 H 192.739 0.739157 -1.67955 0
M  V30 2022 H 191.121 3.32275 -2.15429 0
M  V30 2023 H 192.295 1.5001 -4.35699 0
M  V30 2024 H 190.61 1.50416 -3.88284 0
M  V30 2025 H 193.207 4.22012 -3.28345 0
M  V30 2026 H 193.55 3.83727 -1.61429 0
M  V30 2027 H 194.083 2.72488 -2.89819 0
M  V30 2028 H 190.822 2.87234 -5.89217 0
M  V30 2029 H 190.342 3.92145 -4.53853 0
M  V30 2030 H 192.021 3.93913 -5.13265 0
M  V30 2031 N 192.153 1.28127 0.917671 0
M  V30 2032 C 193.083 1.14248 2.03641 0
M  V30 2033 C 194.064 0.0412748 1.7005 0
M  V30 2034 O 195.249 0.217566 1.92977 0
M  V30 2035 C 192.379 0.799431 3.37974 0
M  V30 2036 C 191.333 1.85497 3.85713 0
M  V30 2037 C 190.659 1.36565 5.16966 0
M  V30 2038 C 191.959 3.26085 4.08002 0
M  V30 2039 H 193.653 2.07835 2.15511 0
M  V30 2040 H 191.199 1.00064 1.03553 0
M  V30 2041 H 193.152 0.689114 4.15727 0
M  V30 2042 H 191.876 -0.172145 3.26146 0
M  V30 2043 H 190.535 1.95437 3.10161 0
M  V30 2044 H 190.183 0.383253 5.01538 0
M  V30 2045 H 189.883 2.07143 5.49878 0
M  V30 2046 H 191.407 1.26848 5.97279 0
M  V30 2047 H 192.821 3.19089 4.76293 0
M  V30 2048 H 191.218 3.94462 4.52238 0
M  V30 2049 H 192.288 3.70394 3.12948 0
M  V30 2050 N 193.631 -1.12557 1.10312 0
M  V30 2051 C 194.861 -1.87592 0.865617 0
M  V30 2052 C 195.269 -1.79851 -0.587389 0
M  V30 2053 O 194.612 -1.16949 -1.41664 0
M  V30 2054 C 194.674 -3.37665 1.23381 0
M  V30 2055 C 194.338 -3.69181 2.69359 0
M  V30 2056 C 195.335 -3.67652 3.67597 0
M  V30 2057 C 193.02 -3.98555 3.05711 0
M  V30 2058 C 195.014 -3.95053 5.00212 0
M  V30 2059 C 192.701 -4.25616 4.38514 0
M  V30 2060 C 193.699 -4.23851 5.35574 0
M  V30 2061 O 193.387 -4.50242 6.65986 0
M  V30 2062 H 193.119 -0.600442 0.310557 0
M  V30 2063 H 195.673 -1.4335 1.47105 0
M  V30 2064 H 193.903 -3.82454 0.571467 0
M  V30 2065 H 195.592 -3.94041 0.973994 0
M  V30 2066 H 196.358 -3.45024 3.40857 0
M  V30 2067 H 192.237 -3.99071 2.30789 0
M  V30 2068 H 195.781 -3.93591 5.75962 0
M  V30 2069 H 191.678 -4.47718 4.64994 0
M  V30 2070 H 192.446 -4.67867 6.71597 0
M  V30 2071 N 195.109 -0.891671 -1.2995 0
M  V30 2072 C 196.356 -0.513501 -1.95881 0
M  V30 2073 C 196.684 0.938655 -1.70351 0
M  V30 2074 O 195.939 1.67936 -1.00478 0
M  V30 2075 C 196.238 -0.742868 -3.49594 0
M  V30 2076 C 195.904 -2.17114 -3.95186 0
M  V30 2077 C 194.566 -2.56169 -4.07346 0
M  V30 2078 C 196.918 -3.10162 -4.18866 0
M  V30 2079 C 194.246 -3.87469 -4.4055 0
M  V30 2080 C 196.598 -4.41001 -4.53542 0
M  V30 2081 C 195.262 -4.79941 -4.63911 0
M  V30 2082 H 194.532 -0.187903 -0.71678 0
M  V30 2083 H 197.179 -1.1288 -1.54694 0
M  V30 2084 H 195.484 -0.044586 -3.91775 0
M  V30 2085 H 197.181 -0.429767 -3.9869 0
M  V30 2086 H 193.771 -1.85801 -3.86233 0
M  V30 2087 H 197.955 -2.81206 -4.08946 0
M  V30 2088 H 193.211 -4.17371 -4.46779 0
M  V30 2089 H 197.385 -5.13133 -4.70815 0
M  V30 2090 H 195.012 -5.81719 -4.89395 0
M  V30 2091 N 196.587 1.43421 -0.653314 0
M  V30 2092 C 197.833 2.02111 -0.166992 0
M  V30 2093 C 198.166 1.51423 1.21592 0
M  V30 2094 O 197.441 0.707389 1.8118 0
M  V30 2095 C 197.724 3.5966 -0.177948 0
M  V30 2096 C 197.577 4.20579 -1.59478 0
M  V30 2097 C 198.896 4.37413 0.4856 0
M  V30 2098 H 196.015 0.734374 -0.0621557 0
M  V30 2099 H 198.657 1.70717 -0.834016 0
M  V30 2100 H 196.807 3.86537 0.390032 0
M  V30 2101 H 198.479 4.04732 -2.21336 0
M  V30 2102 H 196.722 3.77226 -2.14204 0
M  V30 2103 H 197.393 5.29665 -1.5543 0
M  V30 2104 H 199.869 4.161 0.00234528 0
M  V30 2105 H 198.745 5.47075 0.447207 0
M  V30 2106 H 199.006 4.13672 1.55974 0
M  V30 2107 N 198.065 0.39524 1.52563 0
M  V30 2108 C 198.995 -0.428384 2.29537 0
M  V30 2109 C 199.976 -1.05831 1.33169 0
M  V30 2110 O 201.161 -1.06995 1.62067 0
M  V30 2111 C 198.291 -1.55274 3.10656 0
M  V30 2112 C 197.245 -1.04855 4.14957 0
M  V30 2113 C 196.571 -2.26543 4.84337 0
M  V30 2114 C 197.871 -0.112324 5.22179 0
M  V30 2115 H 199.565 0.213867 2.98635 0
M  V30 2116 H 197.111 0.104298 1.43622 0
M  V30 2117 H 199.064 -2.1358 3.63265 0
M  V30 2118 H 197.788 -2.22266 2.39302 0
M  V30 2119 H 196.447 -0.487985 3.63338 0
M  V30 2120 H 196.095 -2.92059 4.09525 0
M  V30 2121 H 195.795 -1.93466 5.54837 0
M  V30 2122 H 197.319 -2.85481 5.39753 0
M  V30 2123 H 198.733 -0.603752 5.70112 0
M  V30 2124 H 197.13 0.128968 5.99961 0
M  V30 2125 H 198.2 0.837052 4.77621 0
M  V30 2126 N 199.544 -1.57102 0.125237 0
M  V30 2127 C 200.491 -2.15641 -0.822655 0
M  V30 2128 C 201.461 -1.08313 -1.25927 0
M  V30 2129 O 202.646 -1.36251 -1.33567 0
M  V30 2130 C 199.786 -2.76504 -2.06494 0
M  V30 2131 C 198.899 -3.98158 -1.67612 0
M  V30 2132 C 198.034 -4.47088 -2.86854 0
M  V30 2133 C 197.073 -5.6126 -2.44242 0
M  V30 2134 N 196.21 -6.04905 -3.56419 0
M  V30 2135 H 201.05 -2.96313 -0.316625 0
M  V30 2136 H 198.587 -1.46388 -0.144588 0
M  V30 2137 H 200.545 -3.09925 -2.79289 0
M  V30 2138 H 199.175 -1.98512 -2.54545 0
M  V30 2139 H 198.227 -3.70858 -0.846661 0
M  V30 2140 H 199.539 -4.80934 -1.32301 0
M  V30 2141 H 198.693 -4.82451 -3.67867 0
M  V30 2142 H 197.432 -3.63275 -3.25396 0
M  V30 2143 H 196.437 -5.25495 -1.61663 0
M  V30 2144 H 197.662 -6.46843 -2.0681 0
M  V30 2145 H 195.608 -5.24032 -3.94623 0
M  V30 2146 H 195.525 -6.82552 -3.25051 0
M  V30 2147 H 196.793 -6.44907 -4.37853 0
M  V30 2148 N 201.022 0.148545 -1.56898 0
M  V30 2149 C 201.932 1.20293 -2.01412 0
M  V30 2150 C 202.948 1.47107 -0.929273 0
M  V30 2151 O 204.124 1.58807 -1.23863 0
M  V30 2152 C 201.189 2.51682 -2.38447 0
M  V30 2153 C 200.25 2.32529 -3.60872 0
M  V30 2154 C 199.483 3.57653 -3.96132 0
M  V30 2155 O 199.706 4.63771 -3.32073 0
M  V30 2156 O 198.64 3.50408 -4.89385 0
M  V30 2157 H 202.466 0.855025 -2.91416 0
M  V30 2158 H 200.051 0.357151 -1.45068 0
M  V30 2159 H 201.933 3.29147 -2.63135 0
M  V30 2160 H 200.608 2.86006 -1.51599 0
M  V30 2161 H 199.515 1.53019 -3.41373 0
M  V30 2162 H 200.848 2.03121 -4.48333 0
M  V30 2163 N 202.5 1.5196 0.417844 0
M  V30 2164 C 203.747 1.65591 1.16559 0
M  V30 2165 C 204.075 0.381565 1.90721 0
M  V30 2166 O 203.33 -0.635156 1.85106 0
M  V30 2167 C 203.629 2.82269 2.19223 0
M  V30 2168 C 203.295 4.20819 1.61933 0
M  V30 2169 C 201.957 4.58506 1.46033 0
M  V30 2170 C 204.309 5.07196 1.20008 0
M  V30 2171 C 201.637 5.80257 0.867113 0
M  V30 2172 C 203.989 6.29544 0.621086 0
M  V30 2173 C 202.653 6.65987 0.449144 0
M  V30 2174 H 201.923 0.605939 0.42652 0
M  V30 2175 H 204.57 1.86041 0.45397 0
M  V30 2176 H 202.875 2.56118 2.96498 0
M  V30 2177 H 204.572 2.90012 2.76936 0
M  V30 2178 H 201.162 3.91116 1.7529 0
M  V30 2179 H 205.346 4.7867 1.31105 0
M  V30 2180 H 200.602 6.07124 0.721833 0
M  V30 2181 H 204.776 6.95805 0.287798 0
M  V30 2182 H 202.403 7.60199 -0.012632 0
M  V30 2183 N 203.978 -0.674533 1.42435 0
M  V30 2184 C 205.218 -1.4466 1.44405 0
M  V30 2185 C 205.582 -1.91911 0.0585784 0
M  V30 2186 O 206.783 -2.68759 -0.0469991 0
M  V30 2187 C 205.054 -2.61136 2.44013 0
M  V30 2188 S 206.613 -3.49981 2.64687 0
M  V30 2189 H 203.431 -0.494074 0.511284 0
M  V30 2190 H 206.033 -0.785162 1.7904 0
M  V30 2191 H 204.737 -2.24662 3.43446 0
M  V30 2192 H 204.268 -3.32153 2.10803 0
M  V30 2193 H 206.283 -4.57124 1.93007 0
M  V30 2194 N 205.456 -1.28612 -0.910864 0
M  V30 2195 C 206.705 -1.15311 -1.65488 0
M  V30 2196 C 207.018 0.296999 -1.93332 0
M  V30 2197 O 208.224 0.551168 -2.65847 0
M  V30 2198 C 206.68 -2.01599 -2.98137 0
M  V30 2199 C 206.288 -3.51367 -2.7793 0
M  V30 2200 C 208.032 -1.96993 -3.76024 0
M  V30 2201 C 205.939 -4.29797 -4.06237 0
M  V30 2202 H 204.869 -0.42796 -0.620779 0
M  V30 2203 H 207.52 -1.53166 -1.01057 0
M  V30 2204 H 205.902 -1.56603 -3.63719 0
M  V30 2205 H 207.076 -4.0434 -2.21011 0
M  V30 2206 H 205.391 -3.57529 -2.13452 0
M  V30 2207 H 207.988 -2.52856 -4.71135 0
M  V30 2208 H 208.331 -0.94733 -4.05378 0
M  V30 2209 H 208.864 -2.39973 -3.17266 0
M  V30 2210 H 205.603 -5.32648 -3.82055 0
M  V30 2211 H 205.123 -3.81596 -4.62757 0
M  V30 2212 H 206.802 -4.39869 -4.74473 0
M  V30 2213 N 206.934 1.1197 -1.10907 0
M  V30 2214 C 208.183 1.82947 -0.849302 0
M  V30 2215 C 208.496 1.85275 0.627112 0
M  V30 2216 O 209.702 2.52296 1.00295 0
M  V30 2217 C 208.158 3.28529 -1.46959 0
M  V30 2218 C 207.766 3.34546 -2.97965 0
M  V30 2219 C 209.51 4.04443 -1.28942 0
M  V30 2220 C 207.417 4.74491 -3.53004 0
M  V30 2221 H 206.347 0.685477 -0.314065 0
M  V30 2222 H 208.998 1.2604 -1.33365 0
M  V30 2223 H 207.38 3.85333 -0.912917 0
M  V30 2224 H 208.554 2.87654 -3.59989 0
M  V30 2225 H 206.869 2.72108 -3.15192 0
M  V30 2226 H 209.466 5.07787 -1.67502 0
M  V30 2227 H 209.809 4.15656 -0.231456 0
M  V30 2228 H 210.342 3.5401 -1.81443 0
M  V30 2229 H 207.081 4.68474 -4.58489 0
M  V30 2230 H 206.601 5.21816 -2.9575 0
M  V30 2231 H 208.28 5.4344 -3.51115 0
M  V30 2232 N 208.412 0.89855 1.29475 0
M  V30 2233 C 209.652 0.530771 1.97388 0
M  V30 2234 C 210.016 -0.905832 1.69289 0
M  V30 2235 O 211.217 -1.38042 2.30646 0
M  V30 2236 C 209.488 0.81369 3.48014 0
M  V30 2237 S 211.047 0.550048 4.35339 0
M  V30 2238 H 207.865 0.196956 0.683176 0
M  V30 2239 H 210.467 1.16074 1.57312 0
M  V30 2240 H 209.171 1.85749 3.65958 0
M  V30 2241 H 208.702 0.171795 3.93025 0
M  V30 2242 H 210.717 -0.605423 4.92493 0
M  V30 2243 N 209.89 -1.43072 0.660911 0
M  V30 2244 C 211.139 -2.00942 0.174735 0
M  V30 2245 C 211.452 -1.52797 -1.22117 0
M  V30 2246 O 212.658 -2.02991 -1.80297 0
M  V30 2247 C 211.114 -3.58948 0.261559 0
M  V30 2248 C 210.722 -4.16085 1.66064 0
M  V30 2249 C 212.466 -4.24173 -0.166617 0
M  V30 2250 C 210.373 -5.6641 1.70098 0
M  V30 2251 H 209.303 -0.751483 0.0615631 0
M  V30 2252 H 211.954 -1.63955 0.824069 0
M  V30 2253 H 210.336 -3.93372 -0.455421 0
M  V30 2254 H 211.51 -3.93147 2.40359 0
M  V30 2255 H 209.825 -3.6326 2.03546 0
M  V30 2256 H 212.422 -5.34471 -0.156433 0
M  V30 2257 H 212.765 -3.98647 -1.19943 0
M  V30 2258 H 213.298 -3.94659 0.498875 0
M  V30 2259 H 210.037 -5.96715 2.71315 0
M  V30 2260 H 209.557 -5.91382 1.00139 0
M  V30 2261 H 211.236 -6.30585 1.44816 0
M  V30 2262 N 211.368 -0.403325 -1.52352 0
M  V30 2263 C 212.614 0.174605 -2.02047 0
M  V30 2264 C 212.947 1.45282 -1.28867 0
M  V30 2265 O 212.222 1.90483 -0.393257 0
M  V30 2266 C 212.505 0.428238 -3.57545 0
M  V30 2267 C 212.358 -0.866248 -4.4138 0
M  V30 2268 C 213.677 1.21287 -4.23057 0
M  V30 2269 H 210.796 0.0619851 -0.734389 0
M  V30 2270 H 213.438 -0.53565 -1.82293 0
M  V30 2271 H 211.588 1.03327 -3.74507 0
M  V30 2272 H 213.26 -1.50265 -4.3614 0
M  V30 2273 H 211.503 -1.47851 -4.07827 0
M  V30 2274 H 212.174 -0.643249 -5.48239 0
M  V30 2275 H 214.65 0.700703 -4.10158 0
M  V30 2276 H 213.526 1.35909 -5.31808 0
M  V30 2277 H 213.787 2.23193 -3.81625 0
M  V30 2278 N 212.846 1.57033 -0.133567 0
M  V30 2279 C 214.074 2.00044 0.528195 0
M  V30 2280 C 214.489 1.01349 1.59291 0
M  V30 2281 O 213.846 0.00848369 1.82498 0
M  V30 2282 C 213.897 3.43018 1.1411 0
M  V30 2283 O 213.618 4.37939 0.11892 0
M  V30 2284 C 215.119 4.01237 1.88477 0
M  V30 2285 H 212.339 0.656517 0.138661 0
M  V30 2286 H 214.883 2.03267 -0.224196 0
M  V30 2287 H 213.038 3.40688 1.84418 0
M  V30 2288 H 213.452 5.21436 0.56613 0
M  V30 2289 H 214.926 5.03314 2.26669 0
M  V30 2290 H 215.403 3.41193 2.76558 0
M  V30 2291 H 216.009 4.07156 1.22898 0
M  V30 2292 N 214.325 -0.140222 1.56975 0
M  V30 2293 C 215.555 -0.865181 1.87612 0
M  V30 2294 C 215.963 -1.74942 0.72055 0
M  V30 2295 O 215.306 -1.80917 -0.318561 0
M  V30 2296 C 215.368 -1.76782 3.13031 0
M  V30 2297 C 215.032 -1.06005 4.44536 0
M  V30 2298 C 216.029 -0.410768 5.18275 0
M  V30 2299 C 213.714 -1.04754 4.91255 0
M  V30 2300 C 215.708 0.241572 6.36942 0
M  V30 2301 C 213.395 -0.391394 6.09845 0
M  V30 2302 C 214.393 0.252029 6.82535 0
M  V30 2303 O 214.081 0.897757 7.98871 0
M  V30 2304 H 213.813 -0.255188 0.625983 0
M  V30 2305 H 216.367 -0.135653 2.04952 0
M  V30 2306 H 214.597 -2.53846 2.91718 0
M  V30 2307 H 216.286 -2.36533 3.29859 0
M  V30 2308 H 217.052 -0.412195 4.83245 0
M  V30 2309 H 212.931 -1.53777 4.34596 0
M  V30 2310 H 216.475 0.744375 6.93617 0
M  V30 2311 H 212.372 -0.387656 6.44335 0
M  V30 2312 H 213.14 0.800102 8.1458 0
M  V30 2313 N 215.803 -1.52179 -0.40978 0
M  V30 2314 C 217.049 -1.66453 -1.15851 0
M  V30 2315 C 217.382 -0.392972 -1.90182 0
M  V30 2316 O 216.657 0.608579 -1.84734 0
M  V30 2317 C 216.94 -2.88612 -2.15349 0
M  V30 2318 C 216.793 -4.25815 -1.44918 0
M  V30 2319 C 218.112 -3.06294 -3.16026 0
M  V30 2320 H 215.231 -0.60575 -0.419805 0
M  V30 2321 H 217.873 -1.84732 -0.444314 0
M  V30 2322 H 216.023 -2.73158 -2.76255 0
M  V30 2323 H 217.695 -4.52995 -0.871365 0
M  V30 2324 H 215.938 -4.27247 -0.751159 0
M  V30 2325 H 216.609 -5.07337 -2.17516 0
M  V30 2326 H 219.085 -3.20641 -2.65195 0
M  V30 2327 H 217.961 -3.93283 -3.8291 0
M  V30 2328 H 218.222 -2.19579 -3.83715 0
M  V30 2329 N 217.281 0.66697 -1.42791 0
M  V30 2330 C 218.211 1.79218 -1.49677 0
M  V30 2331 C 219.192 1.66405 -0.352623 0
M  V30 2332 O 220.377 1.85708 -0.567993 0
M  V30 2333 C 217.507 3.17565 -1.40605 0
M  V30 2334 C 216.461 3.45124 -2.53127 0
M  V30 2335 C 215.787 4.83127 -2.29112 0
M  V30 2336 C 217.087 3.41236 -3.95418 0
M  V30 2337 H 218.781 1.73713 -2.43853 0
M  V30 2338 H 216.327 0.83432 -1.17367 0
M  V30 2339 H 218.28 3.96022 -1.44029 0
M  V30 2340 H 217.004 3.23767 -0.429271 0
M  V30 2341 H 215.663 2.69031 -2.49034 0
M  V30 2342 H 215.311 4.85988 -1.29709 0
M  V30 2343 H 215.011 5.02528 -3.04531 0
M  V30 2344 H 216.535 5.63859 -2.34297 0
M  V30 2345 H 217.949 4.09651 -4.01073 0
M  V30 2346 H 216.346 3.72173 -4.70752 0
M  V30 2347 H 217.416 2.39665 -4.21532 0
M  V30 2348 N 218.759 1.29093 0.90403 0
M  V30 2349 C 219.707 1.13727 2.02901 0
M  V30 2350 C 220.701 0.0539853 1.69314 0
M  V30 2351 O 221.907 0.213469 1.7873 0
M  V30 2352 H 218.282 0.35117 0.664969 0
M  V30 2353 H 220.253 2.08982 2.13001 0
M  V30 2354 C 219.002 0.826066 3.37745 0
M  V30 2355 H 218.325 1.65164 3.64089 0
M  V30 2356 H 219.765 0.758559 4.17159 0
M  V30 2357 C 218.224 -0.470541 3.33598 0
M  V30 2358 O 218.754 -1.49792 3.72727 0
M  V30 2359 N 216.96 -0.474812 2.86695 0
M  V30 2360 H 216.507 0.361692 2.55048 0
M  V30 2361 H 216.465 -1.34236 2.84303 0
M  V30 2362 N 220.237 -1.11381 1.11499 0
M  V30 2363 C 221.484 -1.83132 0.864231 0
M  V30 2364 C 221.812 -1.84683 -0.610114 0
M  V30 2365 O 221.067 -1.29589 -1.46646 0
M  V30 2366 C 221.366 -3.30026 1.37177 0
M  V30 2367 C 221.032 -3.48634 2.85946 0
M  V30 2368 C 219.694 -3.53421 3.26569 0
M  V30 2369 C 222.046 -3.54837 3.81759 0
M  V30 2370 C 219.374 -3.61967 4.61733 0
M  V30 2371 C 221.726 -3.64915 5.1674 0
M  V30 2372 C 220.39 -3.67962 5.5692 0
M  V30 2373 H 219.66 -0.670127 0.316245 0
M  V30 2374 H 222.307 -1.31354 1.3935 0
M  V30 2375 H 220.612 -3.84304 0.762753 0
M  V30 2376 H 222.309 -3.84034 1.15408 0
M  V30 2377 H 218.899 -3.45579 2.53521 0
M  V30 2378 H 223.083 -3.50399 3.51474 0
M  V30 2379 H 218.339 -3.62603 4.92269 0
M  V30 2380 H 222.513 -3.68658 5.90816 0
M  V30 2381 H 220.14 -3.74336 6.61647 0
M  V30 2382 N 221.715 -0.905404 -1.28997 0
M  V30 2383 C 222.645 -0.404212 -2.29975 0
M  V30 2384 C 223.626 0.523784 -1.61835 0
M  V30 2385 O 224.811 0.433298 -1.89304 0
M  V30 2386 C 221.941 0.364042 -3.45387 0
M  V30 2387 C 220.895 -0.474048 -4.25367 0
M  V30 2388 C 220.221 0.422045 -5.33032 0
M  V30 2389 C 221.521 -1.72696 -4.92923 0
M  V30 2390 H 223.215 -1.24807 -2.72146 0
M  V30 2391 H 220.761 -0.601585 -1.30832 0
M  V30 2392 H 222.714 0.725447 -4.15109 0
M  V30 2393 H 221.438 1.24174 -3.02074 0
M  V30 2394 H 220.097 -0.81786 -3.57361 0
M  V30 2395 H 219.745 1.29804 -4.85963 0
M  V30 2396 H 219.445 -0.135057 -5.87445 0
M  V30 2397 H 220.969 0.779517 -6.05604 0
M  V30 2398 H 222.383 -1.43495 -5.55051 0
M  V30 2399 H 220.78 -2.22582 -5.57295 0
M  V30 2400 H 221.85 -2.45964 -4.17887 0
M  V30 2401 N 223.193 1.4272 -0.668489 0
M  V30 2402 C 224.123 2.335 -0.000100175 0
M  V30 2403 C 225.104 1.50328 0.795964 0
M  V30 2404 O 226.289 1.78949 0.754385 0
M  V30 2405 C 223.419 3.33874 0.956302 0
M  V30 2406 C 222.373 4.27152 0.269278 0
M  V30 2407 C 221.699 5.17684 1.33818 0
M  V30 2408 C 222.999 5.15373 -0.847805 0
M  V30 2409 H 224.693 2.89639 -0.758244 0
M  V30 2410 H 222.239 1.39269 -0.366079 0
M  V30 2411 H 224.192 3.9629 1.43292 0
M  V30 2412 H 222.916 2.76025 1.74579 0
M  V30 2413 H 221.575 3.66123 -0.187042 0
M  V30 2414 H 221.223 4.56165 2.1195 0
M  V30 2415 H 220.923 5.80918 0.883659 0
M  V30 2416 H 222.447 5.82974 1.81586 0
M  V30 2417 H 223.861 5.7151 -0.452681 0
M  V30 2418 H 222.258 5.87407 -1.22773 0
M  V30 2419 H 223.328 4.5415 -1.69929 0
M  V30 2420 N 224.671 0.411399 1.52136 0
M  V30 2421 C 225.601 -0.404015 2.29978 0
M  V30 2422 C 226.582 -1.04412 1.34284 0
M  V30 2423 O 227.767 -1.0527 1.63192 0
M  V30 2424 C 224.897 -1.5197 3.12286 0
M  V30 2425 C 223.851 -1.00448 4.16046 0
M  V30 2426 C 223.177 -2.21393 4.86712 0
M  V30 2427 C 224.477 -0.0569336 5.22269 0
M  V30 2428 H 226.171 0.245529 2.98392 0
M  V30 2429 H 223.717 0.119525 1.43503 0
M  V30 2430 H 225.67 -2.09715 3.6551 0
M  V30 2431 H 224.394 -2.19716 2.41646 0
M  V30 2432 H 223.053 -0.449421 3.63835 0
M  V30 2433 H 222.701 -2.87699 4.12599 0
M  V30 2434 H 222.401 -1.87571 5.56858 0
M  V30 2435 H 223.925 -2.7974 5.4275 0
M  V30 2436 H 225.339 -0.54325 5.7072 0
M  V30 2437 H 223.736 0.192594 5.99791 0
M  V30 2438 H 224.806 0.887663 4.76706 0
M  V30 2439 N 226.149 -1.5696 0.141893 0
M  V30 2440 C 227.398 -1.95135 -0.510427 0
M  V30 2441 C 227.711 -1.02896 -1.66348 0
M  V30 2442 O 228.917 -1.30629 -2.38009 0
M  V30 2443 C 227.373 -3.46876 -0.959427 0
M  V30 2444 C 226.981 -4.47691 0.166419 0
M  V30 2445 C 228.725 -3.93927 -1.58183 0
M  V30 2446 C 226.632 -5.90636 -0.300565 0
M  V30 2447 H 225.562 -0.728494 -0.194454 0
M  V30 2448 H 228.213 -1.8211 0.22542 0
M  V30 2449 H 226.595 -3.55215 -1.75038 0
M  V30 2450 H 227.769 -4.51043 0.94325 0
M  V30 2451 H 226.084 -4.10527 0.696905 0
M  V30 2452 H 228.681 -4.98158 -1.94275 0
M  V30 2453 H 229.024 -3.3519 -2.46888 0
M  V30 2454 H 229.557 -3.88484 -0.855863 0
M  V30 2455 H 226.296 -6.5318 0.550989 0
M  V30 2456 H 225.816 -5.90655 -1.04338 0
M  V30 2457 H 227.495 -6.42588 -0.754265 0
M  V30 2458 N 227.627 0.131896 -1.57047 0
M  V30 2459 C 228.876 0.84044 -1.83356 0
M  V30 2460 C 229.189 1.81646 -0.725535 0
M  V30 2461 O 230.395 2.57025 -0.874659 0
M  V30 2462 C 228.851 1.54528 -3.25037 0
M  V30 2463 C 228.459 0.610902 -4.43815 0
M  V30 2464 C 230.203 2.23972 -3.60606 0
M  V30 2465 C 228.11 1.31823 -5.76521 0
M  V30 2466 H 227.04 0.317599 -0.683847 0
M  V30 2467 H 229.691 0.0931561 -1.83263 0
M  V30 2468 H 228.073 2.33873 -3.19561 0
M  V30 2469 H 229.247 -0.148407 -4.60561 0
M  V30 2470 H 227.562 0.0241016 -4.16393 0
M  V30 2471 H 230.159 2.77558 -4.57018 0
M  V30 2472 H 230.502 3.01173 -2.87403 0
M  V30 2473 H 231.035 1.51529 -3.6781 0
M  V30 2474 H 227.774 0.587771 -6.52859 0
M  V30 2475 H 227.294 2.04987 -5.63685 0
M  V30 2476 H 228.973 1.855 -6.19838 0
M  V30 2477 N 229.106 1.52395 0.401703 0
M  V30 2478 C 230.054 1.7689 1.51039 0
M  V30 2479 C 231.048 0.636298 1.56996 0
M  V30 2480 O 232.254 0.818507 1.60314 0
M  V30 2481 H 228.629 0.559502 0.502456 0
M  V30 2482 H 230.6 2.69757 1.27568 0
M  V30 2483 C 229.349 1.94331 2.88324 0
M  V30 2484 H 228.672 2.80905 2.84486 0
M  V30 2485 H 230.112 2.15466 3.65172 0
M  V30 2486 C 228.571 0.712396 3.29282 0
M  V30 2487 O 229.101 -0.116218 4.01532 0
M  V30 2488 N 227.307 0.546154 2.85422 0
M  V30 2489 H 226.854 1.22156 2.26794 0
M  V30 2490 H 226.812 -0.276113 3.13185 0
M  V30 2491 N 230.584 -0.659388 1.43143 0
M  V30 2492 C 231.814 -1.44513 1.47646 0
M  V30 2493 C 232.222 -1.88981 0.0910095 0
M  V30 2494 O 231.565 -1.59702 -0.907789 0
M  V30 2495 C 231.627 -2.71663 2.35456 0
M  V30 2496 C 231.291 -2.49175 3.83094 0
M  V30 2497 C 232.288 -2.1279 4.74359 0
M  V30 2498 C 229.973 -2.63691 4.27519 0
M  V30 2499 C 231.967 -1.9121 6.08044 0
M  V30 2500 C 229.654 -2.41726 5.61259 0
M  V30 2501 C 230.652 -2.0554 6.51339 0
M  V30 2502 O 230.34 -1.838 7.82606 0
M  V30 2503 H 230.072 -0.45064 0.503884 0
M  V30 2504 H 232.626 -0.816248 1.88485 0
M  V30 2505 H 230.856 -3.37089 1.89493 0
M  V30 2506 H 232.545 -3.33595 2.31235 0
M  V30 2507 H 233.311 -2.01157 4.41317 0
M  V30 2508 H 229.19 -2.90832 3.57684 0
M  V30 2509 H 232.734 -1.62889 6.78316 0
M  V30 2510 H 228.631 -2.52959 5.9387 0
M  V30 2511 H 229.399 -1.98275 7.94122 0
M  V30 2512 N 232.062 -1.29571 -0.897171 0
M  V30 2513 C 233.009 -1.14916 -2.00158 0
M  V30 2514 C 233.979 -0.0418149 -1.66047 0
M  V30 2515 O 235.164 -0.209793 -1.89643 0
M  V30 2516 C 232.304 -0.834307 -3.34863 0
M  V30 2517 C 231.417 -2.02234 -3.8174 0
M  V30 2518 C 230.552 -1.64664 -5.05034 0
M  V30 2519 C 229.591 -2.80033 -5.44286 0
M  V30 2520 N 228.728 -2.42843 -6.58765 0
M  V30 2521 H 233.568 -2.09403 -2.12025 0
M  V30 2522 H 231.105 -1.042 -1.0383 0
M  V30 2523 H 233.063 -0.632436 -4.12379 0
M  V30 2524 H 231.693 0.0736656 -3.22716 0
M  V30 2525 H 230.745 -2.33583 -3.00238 0
M  V30 2526 H 232.057 -2.88673 -4.06779 0
M  V30 2527 H 231.211 -1.4078 -5.9014 0
M  V30 2528 H 229.95 -0.753766 -4.8184 0
M  V30 2529 H 228.955 -3.04596 -4.57713 0
M  V30 2530 H 230.18 -3.69989 -5.6946 0
M  V30 2531 H 228.126 -1.56046 -6.3717 0
M  V30 2532 H 228.043 -3.22815 -6.83613 0
M  V30 2533 H 229.311 -2.22285 -7.47134 0
M  V30 2534 N 233.54 1.10788 -1.12088 0
M  V30 2535 C 234.956 1.34691 -0.856186 0
M  V30 2536 C 235.156 1.94791 0.515615 0
M  V30 2537 O 234.212 2.18524 1.26505 0
M  V30 2538 C 235.525 2.27208 -1.9697 0
M  V30 2539 C 237.073 2.40755 -2.00016 0
M  V30 2540 C 237.548 3.36598 -3.1059 0
M  V30 2541 N 239.039 3.44164 -3.10008 0
M  V30 2542 C 239.774 4.18284 -3.92206 0
M  V30 2543 N 239.27 4.95322 -4.84384 0
M  V30 2544 N 241.063 4.13865 -3.80357 0
M  V30 2545 H 233.214 0.70144 -2.00483 0
M  V30 2546 H 235.477 0.371405 -0.872217 0
M  V30 2547 H 235.183 1.90251 -2.958 0
M  V30 2548 H 235.057 3.27485 -1.87172 0
M  V30 2549 H 237.444 2.76982 -1.01808 0
M  V30 2550 H 237.525 1.40305 -2.13888 0
M  V30 2551 H 237.169 3.01096 -4.09028 0
M  V30 2552 H 237.099 4.36918 -2.93956 0
M  V30 2553 H 239.59 2.8922 -2.43228 0
M  V30 2554 H 239.903 5.49267 -5.43623 0
M  V30 2555 H 238.248 4.94459 -4.884 0
M  V30 2556 H 241.439 3.52773 -3.07683 0
M  V30 2557 H 241.612 4.71372 -4.44649 0
M  V30 2558 N 235.018 0.912232 1.28515 0
M  V30 2559 C 235.948 0.416403 2.29757 0
M  V30 2560 C 236.929 -0.515194 1.6211 0
M  V30 2561 O 238.114 -0.423253 1.89532 0
M  V30 2562 C 235.244 -0.34572 3.45575 0
M  V30 2563 C 234.198 0.496599 4.25109 0
M  V30 2564 C 233.524 -0.393771 5.33248 0
M  V30 2565 C 234.824 1.75307 4.92001 0
M  V30 2566 H 236.518 1.26249 2.7148 0
M  V30 2567 H 234.064 0.608515 1.30511 0
M  V30 2568 H 236.017 -0.703422 4.15488 0
M  V30 2569 H 234.741 -1.2257 3.02728 0
M  V30 2570 H 233.4 0.8368 3.56922 0
M  V30 2571 H 233.048 -1.27225 4.86644 0
M  V30 2572 H 232.748 0.166209 5.87365 0
M  V30 2573 H 234.272 -0.747389 6.06009 0
M  V30 2574 H 235.686 1.46437 5.54283 0
M  V30 2575 H 234.083 2.25534 5.56106 0
M  V30 2576 H 235.153 2.48176 4.16577 0
M  V30 2577 N 236.496 -1.42363 0.676048 0
M  V30 2578 C 237.742 -2.0182 0.199125 0
M  V30 2579 C 238.075 -1.53339 -1.19168 0
M  V30 2580 O 237.35 -0.736124 -1.80032 0
M  V30 2581 C 237.633 -3.59331 0.235144 0
M  V30 2582 C 237.486 -4.17989 1.66149 0
M  V30 2583 C 238.805 -4.3813 -0.41595 0
M  V30 2584 H 235.924 -0.733293 0.0738311 0
M  V30 2585 H 238.566 -1.69368 0.86107 0
M  V30 2586 H 236.716 -3.87109 -0.328487 0
M  V30 2587 H 238.388 -4.0116 2.27747 0
M  V30 2588 H 236.631 -3.7377 2.20178 0
M  V30 2589 H 237.302 -5.27126 1.63837 0
M  V30 2590 H 239.778 -4.16051 0.0638529 0
M  V30 2591 H 238.654 -5.47717 -0.360115 0
M  V30 2592 H 238.915 -4.16101 -1.49373 0
M  V30 2593 N 237.974 -0.419461 -1.51915 0
M  V30 2594 C 239.204 0.151915 -2.06041 0
M  V30 2595 C 239.612 1.38539 -1.28855 0
M  V30 2596 O 238.955 1.80592 -0.336463 0
M  V30 2597 C 239.017 0.557119 -3.55157 0
M  V30 2598 C 238.681 -0.567054 -4.53468 0
M  V30 2599 C 239.678 -1.43379 -4.99738 0
M  V30 2600 C 237.363 -0.742693 -4.96779 0
M  V30 2601 C 239.357 -2.46102 -5.87973 0
M  V30 2602 C 237.044 -1.77322 -5.84808 0
M  V30 2603 C 238.042 -2.63078 -6.30301 0
M  V30 2604 O 237.73 -3.64364 -7.16585 0
M  V30 2605 H 237.462 0.0193293 -0.675724 0
M  V30 2606 H 240.016 -0.592073 -1.96682 0
M  V30 2607 H 238.246 1.35355 -3.62238 0
M  V30 2608 H 239.935 1.05759 -3.9188 0
M  V30 2609 H 240.701 -1.30954 -4.66986 0
M  V30 2610 H 236.58 -0.0848307 -4.60922 0
M  V30 2611 H 240.124 -3.13071 -6.23404 0
M  V30 2612 H 236.021 -1.89773 -6.16974 0
M  V30 2613 H 236.789 -3.60731 -7.34721 0
M  V30 2614 N 239.452 1.56882 -0.150215 0
M  V30 2615 C 240.382 2.19935 0.784284 0
M  V30 2616 C 241.363 1.14854 1.25469 0
M  V30 2617 O 242.548 1.43209 1.31168 0
M  V30 2618 C 239.678 2.82349 2.02229 0
M  V30 2619 C 238.632 3.93285 1.68853 0
M  V30 2620 C 237.958 4.42649 2.99944 0
M  V30 2621 C 239.258 5.13904 0.932714 0
M  V30 2622 H 240.952 2.9828 0.258781 0
M  V30 2623 H 238.498 1.43473 0.123029 0
M  V30 2624 H 240.451 3.25126 2.68088 0
M  V30 2625 H 239.175 2.0134 2.57157 0
M  V30 2626 H 237.834 3.5113 1.05371 0
M  V30 2627 H 237.482 3.58458 3.52869 0
M  V30 2628 H 237.182 5.17476 2.78374 0
M  V30 2629 H 238.706 4.88099 3.66868 0
M  V30 2630 H 240.12 5.53506 1.49345 0
M  V30 2631 H 238.517 5.94515 0.81684 0
M  V30 2632 H 239.587 4.84842 -0.0749568 0
M  V30 2633 N 240.93 -0.123565 1.57115 0
M  V30 2634 C 241.878 -1.17082 2.00984 0
M  V30 2635 C 242.872 -1.43136 0.906009 0
M  V30 2636 O 244.078 -1.43152 1.09121 0
M  V30 2637 H 240.453 -0.394653 0.64012 0
M  V30 2638 H 242.424 -0.774292 2.88179 0
M  V30 2639 C 241.173 -2.49057 2.42623 0
M  V30 2640 H 240.496 -2.29846 3.27125 0
M  V30 2641 H 241.936 -3.20906 2.7712 0
M  V30 2642 C 240.395 -3.11305 1.28805 0
M  V30 2643 O 240.925 -3.97171 0.60153 0
M  V30 2644 N 239.131 -2.71111 1.04628 0
M  V30 2645 H 238.678 -2.01382 1.60634 0
M  V30 2646 H 238.636 -3.1309 0.286685 0
M  V30 2647 N 242.408 -1.52605 -0.393616 0
M  V30 2648 C 243.318 -1.79971 -1.50492 0
M  V30 2649 C 244.334 -0.686181 -1.59899 0
M  V30 2650 O 245.51 -0.973274 -1.76322 0
M  V30 2651 C 242.575 -1.95867 -2.86072 0
M  V30 2652 C 241.636 -3.19781 -2.86424 0
M  V30 2653 C 240.869 -3.34909 -4.15538 0
M  V30 2654 O 241.092 -2.54948 -5.10253 0
M  V30 2655 O 240.026 -4.28141 -4.23059 0
M  V30 2656 H 243.852 -2.74328 -1.30299 0
M  V30 2657 H 241.437 -1.3764 -0.581005 0
M  V30 2658 H 243.319 -2.08056 -3.66457 0
M  V30 2659 H 241.994 -1.04699 -3.063 0
M  V30 2660 H 240.901 -3.13038 -2.04837 0
M  V30 2661 H 242.234 -4.1078 -2.71147 0
M  V30 2662 N 243.887 0.651787 -1.4349 0
M  V30 2663 C 244.85 1.74647 -1.48429 0
M  V30 2664 C 245.85 1.56513 -0.368817 0
M  V30 2665 O 247.04 1.62385 -0.630623 0
M  V30 2666 C 244.172 3.13533 -1.33827 0
M  V30 2667 H 245.365 1.71649 -2.4592 0
M  V30 2668 H 242.918 0.863573 -1.30277 0
M  V30 2669 H 243.653 3.22142 -0.37349 0
M  V30 2670 H 243.438 3.28101 -2.14691 0
M  V30 2671 H 244.928 3.93356 -1.40218 0
M  V30 2672 N 245.365 1.30045 0.890287 0
M  V30 2673 C 246.611 1.19747 1.64415 0
M  V30 2674 C 246.966 -0.246591 1.90813 0
M  V30 2675 O 246.259 -1.174 1.51419 0
M  V30 2676 C 246.453 1.95409 2.99249 0
M  V30 2677 C 246.282 3.47025 2.86013 0
M  V30 2678 C 245.052 4.1638 2.86279 0
M  V30 2679 C 247.25 4.42353 2.62351 0
M  V30 2680 N 245.232 5.54293 2.63879 0
M  V30 2681 C 246.603 5.67792 2.49022 0
M  V30 2682 C 248.658 4.32009 2.47533 0
M  V30 2683 C 247.361 6.8406 2.22383 0
M  V30 2684 C 249.387 5.48038 2.22279 0
M  V30 2685 C 248.749 6.72455 2.09722 0
M  V30 2686 H 244.848 0.493223 0.60684 0
M  V30 2687 H 247.432 1.6399 1.04954 0
M  V30 2688 H 245.603 1.53565 3.56752 0
M  V30 2689 H 247.335 1.77298 3.63796 0
M  V30 2690 H 244.09 3.68164 2.97913 0
M  V30 2691 H 244.514 6.26852 2.55706 0
M  V30 2692 H 249.156 3.36503 2.55979 0
M  V30 2693 H 246.874 7.79612 2.12675 0
M  V30 2694 H 250.46 5.41939 2.11643 0
M  V30 2695 H 249.34 7.60722 1.90453 0
M  V30 2696 N 246.843 -1.10192 1.12674 0
M  V30 2697 C 247.79 -2.16606 0.796906 0
M  V30 2698 C 248.76 -1.64394 -0.237476 0
M  V30 2699 O 249.945 -1.90474 -0.111484 0
M  V30 2700 C 247.085 -3.44116 0.26043 0
M  V30 2701 C 246.198 -4.10268 1.35293 0
M  V30 2702 C 245.333 -5.25507 0.775621 0
M  V30 2703 C 244.372 -5.83567 1.84706 0
M  V30 2704 N 243.509 -6.90179 1.28829 0
M  V30 2705 H 248.349 -2.44163 1.70846 0
M  V30 2706 H 245.886 -1.19846 0.85295 0
M  V30 2707 H 247.844 -4.17143 -0.0686814 0
M  V30 2708 H 246.474 -3.16901 -0.614274 0
M  V30 2709 H 245.526 -3.35184 1.79877 0
M  V30 2710 H 246.838 -4.4946 2.16303 0
M  V30 2711 H 245.992 -6.05398 0.397327 0
M  V30 2712 H 244.731 -4.87656 -0.0656581 0
M  V30 2713 H 243.736 -5.02344 2.23452 0
M  V30 2714 H 244.961 -6.23482 2.69161 0
M  V30 2715 H 242.907 -6.54322 0.468881 0
M  V30 2716 H 242.824 -7.28097 2.03497 0
M  V30 2717 H 244.092 -7.73844 0.937311 0
M  V30 2718 N 248.321 -0.919034 -1.28029 0
M  V30 2719 C 249.737 -0.617972 -1.4715 0
M  V30 2720 C 249.937 0.835242 -1.83374 0
M  V30 2721 O 248.993 1.61388 -1.94191 0
M  V30 2722 C 250.306 -1.56041 -2.57044 0
M  V30 2723 C 251.854 -1.56769 -2.7091 0
M  V30 2724 C 252.329 -2.49688 -3.83953 0
M  V30 2725 N 253.82 -2.47845 -3.91314 0
M  V30 2726 C 254.555 -3.16437 -4.78179 0
M  V30 2727 N 254.051 -3.94376 -5.69596 0
M  V30 2728 N 255.844 -3.05498 -4.71834 0
M  V30 2729 H 247.995 -1.85866 -1.02798 0
M  V30 2730 H 250.258 -0.797506 -0.512531 0
M  V30 2731 H 249.964 -2.59671 -2.372 0
M  V30 2732 H 249.838 -1.29551 -3.54255 0
M  V30 2733 H 252.225 -0.538745 -2.90141 0
M  V30 2734 H 252.306 -1.87305 -1.74214 0
M  V30 2735 H 251.95 -3.52688 -3.65477 0
M  V30 2736 H 251.88 -2.16453 -4.80058 0
M  V30 2737 H 254.371 -1.91234 -3.25941 0
M  V30 2738 H 254.684 -4.43721 -6.32718 0
M  V30 2739 H 253.029 -3.98481 -5.69419 0
M  V30 2740 H 256.22 -2.44108 -3.99411 0
M  V30 2741 H 256.393 -3.59225 -5.39316 0
M  V30 2742 N 249.799 1.42003 -0.683588 0
M  V30 2743 C 250.731 2.29183 0.0283068 0
M  V30 2744 C 251.744 1.4415 0.756611 0
M  V30 2745 O 252.933 1.67779 0.609306 0
M  V30 2746 C 250.033 3.21765 1.06398 0
M  V30 2747 C 249.206 4.35496 0.407723 0
M  V30 2748 C 248.265 5.08737 1.34437 0
M  V30 2749 O 247.291 5.62948 0.841318 0
M  V30 2750 N 248.493 5.15075 2.67728 0
M  V30 2751 H 251.258 2.9092 -0.720105 0
M  V30 2752 H 248.819 1.53025 -0.528682 0
M  V30 2753 H 250.811 3.6763 1.69204 0
M  V30 2754 H 249.381 2.61418 1.71404 0
M  V30 2755 H 248.601 3.92165 -0.400012 0
M  V30 2756 H 249.889 5.08776 -0.0490956 0
M  V30 2757 H 249.287 4.72457 3.11129 0
M  V30 2758 H 247.844 5.64556 3.2576 0
M  V30 2759 N 251.277 0.427512 1.51691 0
M  V30 2760 C 252.207 -0.3796 2.30394 0
M  V30 2761 C 253.188 -1.02982 1.35384 0
M  V30 2762 O 254.373 -1.03534 1.643 0
M  V30 2763 C 251.503 -1.48649 3.1388 0
M  V30 2764 C 250.457 -0.960294 4.17088 0
M  V30 2765 C 249.783 -2.16219 4.89033 0
M  V30 2766 C 251.083 -0.00153679 5.223 0
M  V30 2767 H 252.777 0.277164 2.98114 0
M  V30 2768 H 250.323 0.134739 1.43368 0
M  V30 2769 H 252.276 -2.05826 3.67714 0
M  V30 2770 H 251 -2.1714 2.43962 0
M  V30 2771 H 249.659 -0.410806 3.64291 0
M  V30 2772 H 249.307 -2.83307 4.15628 0
M  V30 2773 H 249.007 -1.81654 5.58816 0
M  V30 2774 H 250.531 -2.73968 5.45687 0
M  V30 2775 H 251.945 -0.482687 5.71264 0
M  V30 2776 H 250.342 0.256199 5.99553 0
M  V30 2777 H 251.412 0.938174 4.75738 0
M  V30 2778 N 252.755 -1.56801 0.158532 0
M  V30 2779 C 253.687 -2.14488 -0.807923 0
M  V30 2780 C 254.7 -1.09721 -1.20271 0
M  V30 2781 O 255.889 -1.36956 -1.14478 0
M  V30 2782 C 252.989 -2.66217 -2.09718 0
M  V30 2783 C 252.162 -3.95507 -1.86796 0
M  V30 2784 C 251.221 -4.3243 -2.99818 0
M  V30 2785 O 250.247 -5.00543 -2.71008 0
M  V30 2786 N 251.449 -3.92947 -4.27285 0
M  V30 2787 H 254.214 -2.98042 -0.314816 0
M  V30 2788 H 251.775 -1.61881 -0.0246692 0
M  V30 2789 H 253.767 -2.87924 -2.84398 0
M  V30 2790 H 252.337 -1.87324 -2.50257 0
M  V30 2791 H 251.557 -3.82309 -0.96089 0
M  V30 2792 H 252.845 -4.79972 -1.68833 0
M  V30 2793 H 252.243 -3.38087 -4.53557 0
M  V30 2794 H 250.8 -4.19681 -4.9871 0
M  V30 2795 N 254.233 0.115231 -1.57178 0
M  V30 2796 C 255.644 0.67197 -1.74188 0
M  V30 2797 C 255.995 1.80125 -0.777777 0
M  V30 2798 O 255.12 2.16346 0.0484376 0
M  V30 2799 C 255.715 1.22573 -3.1585 0
M  V30 2800 C 254.274 1.72872 -3.34353 0
M  V30 2801 C 253.421 0.629972 -2.70049 0
M  V30 2802 H 256.372 -0.110712 -1.58313 0
M  V30 2803 H 256.393 2.09535 -3.17609 0
M  V30 2804 H 255.905 0.403598 -3.85996 0
M  V30 2805 H 254.006 2.5755 -2.69256 0
M  V30 2806 H 254.119 1.83557 -4.42542 0
M  V30 2807 H 252.483 1.0645 -2.31388 0
M  V30 2808 H 253.266 -0.181241 -3.42821 0
M  V30 2809 N 255.711 1.52812 0.385517 0
M  V30 2810 C 256.658 1.77838 1.47113 0
M  V30 2811 C 257.628 0.621757 1.54024 0
M  V30 2812 O 258.813 0.861846 1.70226 0
M  V30 2813 C 255.953 1.95618 2.84302 0
M  V30 2814 C 255.066 3.23316 2.86515 0
M  V30 2815 C 254.201 3.31394 4.15152 0
M  V30 2816 C 253.24 4.53201 4.1143 0
M  V30 2817 N 252.377 4.58542 5.3168 0
M  V30 2818 H 257.217 2.70482 1.25073 0
M  V30 2819 H 254.754 1.34006 0.606692 0
M  V30 2820 H 256.712 2.03912 3.63972 0
M  V30 2821 H 255.342 1.06331 3.04784 0
M  V30 2822 H 254.394 3.24076 1.99195 0
M  V30 2823 H 255.706 4.13045 2.79634 0
M  V30 2824 H 254.86 3.3889 5.03228 0
M  V30 2825 H 253.599 2.39645 4.24761 0
M  V30 2826 H 252.604 4.45827 3.21742 0
M  V30 2827 H 253.829 5.46271 4.03442 0
M  V30 2828 H 251.775 3.69686 5.41912 0
M  V30 2829 H 251.692 5.42148 5.26889 0
M  V30 2830 H 252.96 4.70296 6.21644 0
M  V30 2831 N 257.189 -0.644168 1.43834 0
M  V30 2832 C 258.121 -1.76955 1.45669 0
M  V30 2833 C 259.134 -1.58956 0.351666 0
M  V30 2834 O 260.323 -1.6751 0.616644 0
M  V30 2835 C 257.423 -3.14507 1.26248 0
M  V30 2836 C 256.596 -3.59083 2.49757 0
M  V30 2837 C 255.655 -4.75467 2.25427 0
M  V30 2838 O 254.681 -4.84444 2.98836 0
M  V30 2839 N 255.883 -5.66289 1.27661 0
M  V30 2840 H 258.648 -1.75856 2.42682 0
M  V30 2841 H 256.209 -0.828312 1.39106 0
M  V30 2842 H 258.201 -3.90067 1.0784 0
M  V30 2843 H 256.771 -3.10325 0.376478 0
M  V30 2844 H 255.991 -2.7387 2.8353 0
M  V30 2845 H 257.279 -3.85613 3.31934 0
M  V30 2846 H 256.677 -5.61718 0.670064 0
M  V30 2847 H 255.234 -6.41533 1.15234 0
M  V30 2848 N 258.668 -1.30515 -0.883378 0
M  V30 2849 C 259.945 -1.10086 -1.6168 0
M  V30 2850 C 260.325 0.349269 -2.08191 0
M  V30 2851 O 259.673 1.34105 -1.85008 0
M  V30 2852 C 259.883 -2.10315 -2.78511 0
M  V30 2853 C 261.231 -2.42119 -3.48803 0
M  V30 2854 O 262.255 -2.08638 -2.88702 0
M  V30 2855 O 261.114 -2.99396 -4.57192 0
M  V30 2856 H 258.208 -0.422907 -0.710689 0
M  V30 2857 H 260.754 -1.41947 -0.930015 0
M  V30 2858 H 259.526 -3.07917 -2.41459 0
M  V30 2859 H 259.149 -1.79282 -3.54886 0
M  V30 2860 O 260.185 1.01953 -1.25251 0
M  V30 2861 H 260.876 1.63744 -1.03478 0
M  V30 END ATOM
M  V30 BEGIN BOND
M  V30 END BOND
M  V30 END CTAB
M  END
$$$$
