drugbank_target|Q8N119 Matrix metalloproteinase-21 (DB00786)
 OpenBabel12092120373D

  0  0  0     0  0            999 V3000
M  V30 BEGIN CTAB
M  V30 COUNTS 9055 9216 0 0 0
M  V30 BEGIN ATOM
M  V30 1 H -0.908 1.98254 -0.117106 0
M  V30 2 N 0 1.576 0 0
M  V30 3 C 0.933 2.03868 1.02534 0
M  V30 4 C 1.911 0.928543 1.3348 0
M  V30 5 O 3.095 1.19667 1.45644 0
M  V30 6 C 0.222 2.43627 2.35294 0
M  V30 7 C -0.732 3.65373 2.2001 0
M  V30 8 S 0.101 5.13292 1.52614 0
M  V30 9 C 1.257 5.56322 2.86805 0
M  V30 10 H 1.49 2.90518 0.631377 0
M  V30 11 H -0.977 1.52953 0.210867 0
M  V30 12 H 0.981 2.67203 3.11629 0
M  V30 13 H -0.358 1.57376 2.7183 0
M  V30 14 H -1.165 3.90944 3.18086 0
M  V30 15 H -1.563 3.418 1.51819 0
M  V30 16 H 0.729 5.58782 3.83104 0
M  V30 17 H 1.672 6.56266 2.65933 0
M  V30 18 H 2.08 4.83886 2.90714 0
M  V30 19 N 1.4781 -0.272755 1.55222 0
M  V30 20 C 2.4081 -1.34136 1.91127 0
M  V30 21 C 3.3891 -1.51513 0.773168 0
M  V30 22 O 4.5741 -1.64552 1.03132 0
M  V30 23 C 1.7041 -2.70083 2.1834 0
M  V30 24 C 0.6581 -2.67437 3.34158 0
M  V30 25 C -0.0159 -4.06938 3.46851 0
M  V30 26 C 1.2841 -2.26686 4.70543 0
M  V30 27 H 2.9781 -1.04333 2.80633 0
M  V30 28 H 0.5241 -0.500454 1.35024 0
M  V30 29 H 2.4771 -3.44952 2.42046 0
M  V30 30 H 1.2011 -3.01469 1.25634 0
M  V30 31 H -0.1399 -1.95026 3.1042 0
M  V30 32 H -0.4919 -4.35547 2.51611 0
M  V30 33 H -0.7919 -4.06062 4.2472 0
M  V30 34 H 0.7321 -4.83545 3.72849 0
M  V30 35 H 2.1461 -2.91277 4.93792 0
M  V30 36 H 0.5431 -2.36971 5.5133 0
M  V30 37 H 1.6131 -1.21818 4.69349 0
M  V30 38 N 2.9562 -1.48159 -0.537278 0
M  V30 39 C 3.9192 -1.61665 -1.62472 0
M  V30 40 C 4.9192 -0.490395 -1.5314 0
M  V30 41 O 6.1092 -0.755998 -1.5694 0
M  V30 42 C 3.2412 -1.57997 -3.02076 0
M  V30 43 H 4.4342 -2.58621 -1.51839 0
M  V30 44 H 1.9872 -1.36647 -0.758771 0
M  V30 45 H 2.7222 -0.624913 -3.18222 0
M  V30 46 H 2.5072 -2.39755 -3.10258 0
M  V30 47 H 3.9972 -1.70627 -3.81151 0
M  V30 48 N 4.4343 0.785586 -1.36625 0
M  V30 49 C 5.3973 1.87999 -1.31107 0
M  V30 50 C 6.3973 1.59316 -0.217959 0
M  V30 51 O 7.5873 1.67656 -0.472977 0
M  V30 52 C 4.7193 3.24861 -1.03334 0
M  V30 53 H 5.9123 1.94307 -2.2844 0
M  V30 54 H 3.4653 0.983813 -1.21453 0
M  V30 55 H 4.2003 3.24235 -0.0647432 0
M  V30 56 H 3.9853 3.4707 -1.82441 0
M  V30 57 H 5.4753 4.04929 -1.02088 0
M  V30 58 N 5.9124 1.20967 1.01018 0
M  V30 59 C 7.1374 1.0503 1.78839 0
M  V30 60 C 7.5624 -0.395752 1.8389 0
M  V30 61 O 6.9204 -1.28529 1.27867 0
M  V30 62 C 6.9684 1.64602 3.2084 0
M  V30 63 O 6.0724 0.887988 4.02726 0
M  V30 64 H 5.4134 0.369987 0.551367 0
M  V30 65 H 7.9434 1.60399 1.27018 0
M  V30 66 H 7.9534 1.68607 3.71532 0
M  V30 67 H 6.6284 2.69841 3.16479 0
M  V30 68 H 5.2054 0.922648 3.61305 0
M  V30 69 N 7.3905 -1.2043 1.01659 0
M  V30 70 C 8.6395 -1.89118 0.701237 0
M  V30 71 C 8.9525 -1.79705 -0.772358 0
M  V30 72 O 10.1585 -2.43528 -1.20026 0
M  V30 73 C 8.6145 -3.39168 1.20388 0
M  V30 74 C 8.2225 -3.57166 2.70438 0
M  V30 75 C 9.9665 -4.1341 0.963953 0
M  V30 76 C 7.8735 -5.01042 3.14183 0
M  V30 77 H 6.8035 -0.708267 0.2586 0
M  V30 78 H 9.4545 -1.36239 1.22927 0
M  V30 79 H 7.8365 -3.91369 0.603824 0
M  V30 80 H 9.0105 -3.15351 3.35992 0
M  V30 81 H 7.3255 -2.96294 2.92572 0
M  V30 82 H 9.9225 -5.19491 1.26621 0
M  V30 83 H 10.2655 -4.16181 -0.099578 0
M  V30 84 H 10.7985 -3.67309 1.52738 0
M  V30 85 H 7.5375 -5.03426 4.19812 0
M  V30 86 H 7.0575 -5.43668 2.53348 0
M  V30 87 H 8.7365 -5.69623 3.0682 0
M  V30 88 N 8.8686 -0.792821 -1.36206 0
M  V30 89 C 10.1156 -0.366786 -1.99151 0
M  V30 90 C 10.4436 1.06243 -1.62919 0
M  V30 91 O 9.6986 1.74927 -0.877442 0
M  V30 92 C 9.9976 -0.481501 -3.54142 0
M  V30 93 C 9.6636 -1.87202 -4.10203 0
M  V30 94 C 8.3256 -2.25248 -4.25226 0
M  V30 95 C 10.6776 -2.78237 -4.40719 0
M  V30 96 C 8.0056 -3.53723 -4.68078 0
M  V30 97 C 10.3576 -4.06144 -4.85005 0
M  V30 98 C 9.0216 -4.44207 -4.98234 0
M  V30 99 H 8.2916 -0.134217 -0.728743 0
M  V30 100 H 10.9386 -1.01094 -1.62641 0
M  V30 101 H 9.2436 0.246146 -3.91026 0
M  V30 102 H 10.9406 -0.132844 -4.0078 0
M  V30 103 H 7.5306 -1.56639 -3.98951 0
M  V30 104 H 11.7146 -2.50097 -4.28679 0
M  V30 105 H 6.9706 -3.8308 -4.76508 0
M  V30 106 H 11.1446 -4.76796 -5.07581 0
M  V30 107 H 8.7716 -5.43814 -5.31197 0
M  V30 108 N 10.3467 1.47872 -0.545128 0
M  V30 109 C 11.7627 1.5829 -0.204032 0
M  V30 110 C 11.9627 1.54529 1.29317 0
M  V30 111 O 11.0187 1.44232 2.07252 0
M  V30 112 C 12.3317 2.89304 -0.819987 0
M  V30 113 C 13.8797 3.02864 -0.790105 0
M  V30 114 C 14.3547 4.3656 -1.38491 0
M  V30 115 N 15.8457 4.43165 -1.34755 0
M  V30 116 C 16.5807 5.45153 -1.77753 0
M  V30 117 N 16.0767 6.54016 -2.2855 0
M  V30 118 N 17.8697 5.36125 -1.68897 0
M  V30 119 H 10.0207 1.4856 -1.51802 0
M  V30 120 H 12.2837 0.706305 -0.632327 0
M  V30 121 H 11.9897 2.97757 -1.87173 0
M  V30 122 H 11.8637 3.75957 -0.305915 0
M  V30 123 H 14.2507 2.94014 0.252913 0
M  V30 124 H 14.3317 2.17782 -1.34181 0
M  V30 125 H 13.9757 4.46164 -2.42693 0
M  V30 126 H 13.9057 5.20353 -0.808754 0
M  V30 127 H 16.3967 3.65083 -0.975855 0
M  V30 128 H 16.7097 7.27994 -2.59314 0
M  V30 129 H 15.0547 6.54938 -2.32553 0
M  V30 130 H 18.2457 4.49975 -1.28998 0
M  V30 131 H 18.4187 6.15472 -2.02726 0
M  V30 132 N 11.8248 0.280983 1.55075 0
M  V30 133 C 13.2358 -0.215629 1.85451 0
M  V30 134 C 13.5868 -1.54991 1.203 0
M  V30 135 O 12.7118 -2.10699 0.493435 0
M  V30 136 C 13.3068 -0.398026 3.36454 0
M  V30 137 C 11.8658 -0.838866 3.66933 0
M  V30 138 C 11.0128 0.064458 2.77225 0
M  V30 139 H 13.9638 0.502601 1.50531 0
M  V30 140 H 13.9848 -1.23569 3.59876 0
M  V30 141 H 13.4968 0.573241 3.83843 0
M  V30 142 H 11.5978 -1.8214 3.25048 0
M  V30 143 H 11.7108 -0.672123 4.74362 0
M  V30 144 H 10.0748 -0.452863 2.50642 0
M  V30 145 H 10.8578 1.03172 3.2743 0
M  V30 146 N 13.3029 -1.57598 0.00835791 0
M  V30 147 C 14.5309 -1.95214 -0.68549 0
M  V30 148 C 14.9459 -0.883706 -1.66841 0
M  V30 149 O 14.3029 0.136565 -1.81988 0
M  V30 150 C 14.3539 -3.32865 -1.41007 0
M  V30 151 O 14.0749 -4.35609 -0.466552 0
M  V30 152 C 15.5759 -3.84991 -2.19765 0
M  V30 153 H 12.7959 -0.643422 -0.190392 0
M  V30 154 H 15.3399 -2.04406 0.0619607 0
M  V30 155 H 13.4949 -3.24956 -2.10908 0
M  V30 156 H 13.9089 -5.15288 -0.978699 0
M  V30 157 H 15.3829 -4.8371 -2.65948 0
M  V30 158 H 15.8599 -3.18137 -3.02796 0
M  V30 159 H 16.4659 -3.96103 -1.54864 0
M  V30 160 N 14.781 0.264519 -1.55364 0
M  V30 161 C 15.711 1.33121 -1.91836 0
M  V30 162 C 16.692 1.51101 -0.781192 0
M  V30 163 O 17.877 1.64003 -1.04003 0
M  V30 164 C 15.007 2.68921 -2.19769 0
M  V30 165 C 13.961 2.65661 -3.35571 0
M  V30 166 C 13.287 4.05093 -3.49004 0
M  V30 167 C 14.587 2.24187 -4.71739 0
M  V30 168 H 16.281 1.02844 -2.81182 0
M  V30 169 H 13.827 0.493286 -1.35287 0
M  V30 170 H 15.78 3.43663 -2.43872 0
M  V30 171 H 14.504 3.00799 -1.27231 0
M  V30 172 H 13.163 1.93377 -3.1145 0
M  V30 173 H 12.811 4.34206 -2.53917 0
M  V30 174 H 12.511 4.03804 -4.26868 0
M  V30 175 H 14.035 4.81561 -3.75408 0
M  V30 176 H 15.449 2.88654 -4.9533 0
M  V30 177 H 13.846 2.34044 -5.52579 0
M  V30 178 H 14.916 1.19327 -4.69988 0
M  V30 179 N 16.2591 1.48442 0.529413 0
M  V30 180 C 17.1891 1.65902 1.64313 0
M  V30 181 C 18.1701 0.507897 1.6234 0
M  V30 182 O 19.3551 0.740503 1.79528 0
M  V30 183 C 16.4851 1.69911 3.02898 0
M  V30 184 C 15.4391 2.8453 3.19729 0
M  V30 185 C 14.7651 2.73629 4.59381 0
M  V30 186 C 16.0651 4.25821 3.02447 0
M  V30 187 H 17.7591 2.5914 1.49955 0
M  V30 188 H 15.3051 1.24709 0.719982 0
M  V30 189 H 17.2581 1.80715 3.80684 0
M  V30 190 H 15.9821 0.732524 3.18279 0
M  V30 191 H 14.6411 2.73283 2.44361 0
M  V30 192 H 14.2891 1.74938 4.71599 0
M  V30 193 H 13.9891 3.50541 4.71588 0
M  V30 194 H 15.5131 2.86401 5.39265 0
M  V30 195 H 16.9271 4.37898 3.70024 0
M  V30 196 H 15.3241 5.03735 3.26146 0
M  V30 197 H 16.3941 4.42244 1.98867 0
M  V30 198 N 17.7372 -0.778329 1.37039 0
M  V30 199 C 18.6672 -1.90546 1.34962 0
M  V30 200 C 19.6482 -1.68681 0.219274 0
M  V30 201 O 20.8332 -1.89634 0.418624 0
M  V30 202 C 17.9632 -3.27734 1.14925 0
M  V30 203 C 16.9172 -3.64147 2.24902 0
M  V30 204 C 16.2432 -4.99806 1.89996 0
M  V30 205 C 17.5432 -3.71579 3.67051 0
M  V30 206 H 19.2372 -1.92541 2.29277 0
M  V30 207 H 16.7832 -0.924948 1.10366 0
M  V30 208 H 18.7362 -4.06215 1.12104 0
M  V30 209 H 17.4602 -3.26154 0.170631 0
M  V30 210 H 16.1192 -2.8797 2.26868 0
M  V30 211 H 15.7672 -4.94759 0.906796 0
M  V30 212 H 15.4672 -5.25139 2.63634 0
M  V30 213 H 16.9912 -5.80694 1.88749 0
M  V30 214 H 18.4052 -4.40227 3.67251 0
M  V30 215 H 16.8022 -4.08405 4.39688 0
M  V30 216 H 17.8722 -2.72404 4.01154 0
M  V30 217 N 19.2153 -1.21501 -1.00376 0
M  V30 218 C 20.4553 -1.04444 -1.75701 0
M  V30 219 C 20.8193 0.414644 -1.87469 0
M  V30 220 O 22.0203 0.705763 -2.59369 0
M  V30 221 C 20.2913 -1.72389 -3.13077 0
M  V30 222 S 21.8503 -1.70604 -4.04277 0
M  V30 223 H 18.6683 -0.374249 -0.604532 0
M  V30 224 H 21.2703 -1.54267 -1.20091 0
M  V30 225 H 19.9743 -2.77734 -3.02146 0
M  V30 226 H 19.5053 -1.22751 -3.73759 0
M  V30 227 H 21.5203 -0.748012 -4.9053 0
M  V30 228 N 20.6934 1.19889 -1.02296 0
M  V30 229 C 21.9394 1.89973 -0.726759 0
M  V30 230 C 22.2944 1.7776 0.73614 0
M  V30 231 O 21.5874 1.15523 1.52856 0
M  V30 232 C 21.7814 3.39883 -1.10518 0
M  V30 233 C 21.6104 3.66684 -2.60332 0
M  V30 234 C 20.3804 3.85045 -3.27213 0
M  V30 235 C 22.5784 3.68727 -3.58532 0
M  V30 236 N 20.5604 3.99422 -4.66192 0
M  V30 237 C 21.9314 3.88604 -4.83101 0
M  V30 238 C 23.9864 3.51722 -3.52414 0
M  V30 239 C 22.6894 3.9324 -6.02292 0
M  V30 240 C 24.7154 3.57632 -4.71013 0
M  V30 241 C 24.0774 3.77988 -5.94394 0
M  V30 242 H 20.1764 0.714551 -0.317712 0
M  V30 243 H 22.7604 1.44123 -1.30907 0
M  V30 244 H 20.9314 3.8447 -0.551142 0
M  V30 245 H 22.6634 3.97464 -0.761853 0
M  V30 246 H 19.4184 3.83689 -2.77632 0
M  V30 247 H 19.8424 4.10473 -5.38368 0
M  V30 248 H 24.4844 3.34945 -2.58015 0
M  V30 249 H 22.2024 4.08811 -6.97065 0
M  V30 250 H 25.7884 3.45773 -4.67902 0
M  V30 251 H 24.6684 3.82428 -6.8463 0
M  V30 252 N 22.1715 0.800033 1.35784 0
M  V30 253 C 23.1015 0.220184 2.3246 0
M  V30 254 C 24.0825 -0.65073 1.57161 0
M  V30 255 O 25.2675 -0.582359 1.85263 0
M  V30 256 C 22.3975 -0.637353 3.41402 0
M  V30 257 C 21.3515 0.134531 4.27789 0
M  V30 258 C 20.6775 -0.844285 5.27992 0
M  V30 259 C 21.9775 1.32979 5.05088 0
M  V30 260 H 23.6715 1.02787 2.81203 0
M  V30 261 H 21.2175 0.495717 1.35199 0
M  V30 262 H 23.1705 -1.05302 4.08031 0
M  V30 263 H 21.8945 -1.47785 2.91251 0
M  V30 264 H 20.5535 0.531296 3.6273 0
M  V30 265 H 20.2015 -1.68011 4.74111 0
M  V30 266 H 19.9015 -0.332184 5.8666 0
M  V30 267 H 21.4255 -1.2583 5.97494 0
M  V30 268 H 22.8395 0.98934 5.64699 0
M  V30 269 H 21.2365 1.77593 5.7322 0
M  V30 270 H 22.3065 2.11978 4.36111 0
M  V30 271 N 23.6496 -1.47581 0.552962 0
M  V30 272 C 24.6126 -2.28439 -0.186605 0
M  V30 273 C 25.6126 -1.36706 -0.84665 0
M  V30 274 O 26.8026 -1.59378 -0.703164 0
M  V30 275 C 23.9346 -3.16264 -1.2724 0
M  V30 276 H 25.1276 -2.95294 0.523609 0
M  V30 277 H 22.6806 -1.532 0.309745 0
M  V30 278 H 23.4156 -2.54091 -2.01514 0
M  V30 279 H 23.2006 -3.83769 -0.803968 0
M  V30 280 H 24.6906 -3.77198 -1.79196 0
M  V30 281 N 25.1277 -0.289203 -1.54924 0
M  V30 282 C 26.0907 0.579144 -2.21762 0
M  V30 283 C 27.0907 1.07047 -1.1999 0
M  V30 284 O 28.2807 0.968384 -1.44803 0
M  V30 285 C 25.4127 1.80055 -2.8947 0
M  V30 286 H 26.6057 -0.00464908 -2.999 0
M  V30 287 H 24.1587 -0.0399306 -1.56249 0
M  V30 288 H 24.8937 2.42449 -2.15381 0
M  V30 289 H 24.6787 1.45602 -3.64064 0
M  V30 290 H 26.1687 2.41773 -3.40493 0
M  V30 291 N 26.6058 1.57591 -0.0167156 0
M  V30 292 C 28.0168 1.79201 0.523834 0
M  V30 293 C 28.3678 0.925796 1.72984 0
M  V30 294 O 27.4928 0.132792 2.15992 0
M  V30 295 C 28.0878 3.25 0.957091 0
M  V30 296 C 26.6468 3.47648 1.44283 0
M  V30 297 C 25.7938 2.74374 0.401757 0
M  V30 298 H 28.7448 1.56831 -0.242816 0
M  V30 299 H 28.7658 3.34031 1.82219 0
M  V30 300 H 28.2778 3.88019 0.0791415 0
M  V30 301 H 26.3788 2.89866 2.34113 0
M  V30 302 H 26.4918 4.56352 1.45877 0
M  V30 303 H 24.8558 2.39485 0.867121 0
M  V30 304 H 25.6388 3.40102 -0.467513 0
M  V30 305 N 28.0839 -0.256276 1.55502 0
M  V30 306 C 29.3299 -0.982884 1.78076 0
M  V30 307 C 29.6849 -1.83319 0.584109 0
M  V30 308 O 28.9779 -1.86875 -0.422877 0
M  V30 309 C 29.1719 -1.88432 3.03691 0
M  V30 310 C 29.0009 -1.12276 4.35459 0
M  V30 311 C 27.7709 -0.831647 4.98409 0
M  V30 312 C 29.9689 -0.504933 5.11815 0
M  V30 313 N 27.9509 -0.0450423 6.13883 0
M  V30 314 C 29.3219 0.146696 6.19826 0
M  V30 315 C 31.3769 -0.414455 4.96172 0
M  V30 316 C 30.0799 0.880103 7.13895 0
M  V30 317 C 32.1059 0.305398 5.90611 0
M  V30 318 C 31.4679 0.945701 6.98023 0
M  V30 319 H 27.5669 -0.341084 0.703694 0
M  V30 320 H 30.1509 -0.256909 1.92998 0
M  V30 321 H 28.3219 -2.58241 2.90114 0
M  V30 322 H 30.0539 -2.54579 3.14598 0
M  V30 323 H 26.8089 -1.14111 4.59647 0
M  V30 324 H 27.2329 0.336079 6.76165 0
M  V30 325 H 31.8749 -0.895163 4.13215 0
M  V30 326 H 29.5929 1.37244 7.9636 0
M  V30 327 H 33.1789 0.375946 5.80584 0
M  V30 328 H 32.0589 1.49383 7.6984 0
M  V30 329 N 29.562 -1.4872 -0.521534 0
M  V30 330 C 30.973 -1.50607 -1.10337 0
M  V30 331 C 31.324 -0.280612 -1.94183 0
M  V30 332 O 30.449 0.611507 -2.0758 0
M  V30 333 C 31.044 -2.72903 -2.00772 0
M  V30 334 C 29.603 -2.77634 -2.54158 0
M  V30 335 C 28.75 -2.44241 -1.31307 0
M  V30 336 H 31.701 -1.55714 -0.306388 0
M  V30 337 H 31.722 -2.519 -2.85178 0
M  V30 338 H 31.234 -3.62077 -1.39721 0
M  V30 339 H 29.335 -1.92689 -3.18907 0
M  V30 340 H 29.448 -3.79283 -2.92714 0
M  V30 341 H 27.812 -1.95577 -1.63161 0
M  V30 342 H 28.595 -3.35666 -0.719943 0
M  V30 343 N 31.0401 0.771051 -1.3745 0
M  V30 344 C 32.2681 1.56015 -1.35893 0
M  V30 345 C 32.6831 1.88718 0.0555523 0
M  V30 346 O 32.0401 1.51502 1.01752 0
M  V30 347 C 32.0911 2.87001 -2.19801 0
M  V30 348 O 31.8121 2.557 -3.55738 0
M  V30 349 C 33.3131 3.81228 -2.26231 0
M  V30 350 H 30.5331 0.483317 -0.465453 0
M  V30 351 H 33.0771 0.955611 -1.80799 0
M  V30 352 H 31.2321 3.43877 -1.78402 0
M  V30 353 H 31.6461 3.39584 -3.99729 0
M  V30 354 H 33.1201 4.70139 -2.89263 0
M  V30 355 H 33.5971 4.20409 -1.27093 0
M  V30 356 H 34.2031 3.30281 -2.67945 0
M  V30 357 N 32.5182 1.22032 0.997298 0
M  V30 358 C 33.4502 0.944263 2.08845 0
M  V30 359 C 34.4632 -0.0754663 1.62625 0
M  V30 360 O 35.6522 0.157994 1.77799 0
M  V30 361 C 32.7522 0.397723 3.36558 0
M  V30 362 C 31.9252 1.47362 4.11829 0
M  V30 363 C 30.9842 0.934951 5.17827 0
M  V30 364 O 30.0102 1.62016 5.45655 0
M  V30 365 N 31.2122 -0.245895 5.79979 0
M  V30 366 H 33.9772 1.88363 2.33109 0
M  V30 367 H 31.5382 1.12661 1.16272 0
M  V30 368 H 33.5302 0.0227771 4.04694 0
M  V30 369 H 32.1002 -0.446646 3.09393 0
M  V30 370 H 31.3202 2.02208 3.38386 0
M  V30 371 H 32.6082 2.19764 4.58891 0
M  V30 372 H 32.0062 -0.819475 5.59733 0
M  V30 373 H 30.5632 -0.562272 6.4937 0
M  V30 374 N 33.9963 -1.19345 1.0293 0
M  V30 375 C 35.4073 -1.70725 0.755633 0
M  V30 376 C 35.7583 -1.82326 -0.724676 0
M  V30 377 O 34.8833 -1.49471 -1.56484 0
M  V30 378 C 35.4783 -3.10084 1.36503 0
M  V30 379 C 34.0373 -3.58723 1.13994 0
M  V30 380 C 33.1843 -2.35577 1.46283 0
M  V30 381 H 36.1353 -1.0418 1.19718 0
M  V30 382 H 36.1563 -3.72787 0.762217 0
M  V30 383 H 35.6683 -3.01609 2.44241 0
M  V30 384 H 33.7693 -3.72512 0.0807901 0
M  V30 385 H 33.8823 -4.42816 1.82894 0
M  V30 386 H 32.2463 -2.38935 0.88217 0
M  V30 387 H 33.0293 -2.29731 2.55105 0
M  V30 388 N 35.4744 -0.807222 -1.35358 0
M  V30 389 C 36.3844 -0.219594 -2.3357 0
M  V30 390 C 37.4004 0.637734 -1.61892 0
M  V30 391 O 38.5764 0.549336 -1.93763 0
M  V30 392 C 35.6414 0.62158 -3.41083 0
M  V30 393 C 34.7024 -0.256315 -4.28534 0
M  V30 394 C 33.9354 0.544807 -5.30912 0
M  V30 395 O 34.1584 1.77944 -5.41934 0
M  V30 396 O 33.0924 -0.0646478 -6.01865 0
M  V30 397 H 36.9184 -1.03208 -2.85625 0
M  V30 398 H 34.5034 -0.569025 -1.38139 0
M  V30 399 H 36.3854 1.10067 -4.06772 0
M  V30 400 H 35.0604 1.41165 -2.91297 0
M  V30 401 H 33.9674 -0.782559 -3.65823 0
M  V30 402 H 35.3004 -1.01034 -4.81719 0
M  V30 403 N 36.9525 1.47285 -0.560781 0
M  V30 404 C 38.1775 2.07359 -0.0410566 0
M  V30 405 C 38.6025 1.41017 1.24483 0
M  V30 406 O 37.9605 0.486368 1.74654 0
M  V30 407 C 38.0085 3.6035 0.134123 0
M  V30 408 O 37.1125 3.94681 1.19587 0
M  V30 409 H 36.4535 0.661887 -0.0529291 0
M  V30 410 H 38.9835 1.89252 -0.777482 0
M  V30 411 H 38.9935 4.0652 0.347207 0
M  V30 412 H 37.6685 4.08034 -0.805047 0
M  V30 413 H 36.2455 3.60251 0.962987 0
M  V30 414 N 38.4306 0.297415 1.54768 0
M  V30 415 C 39.3606 -0.573494 2.26348 0
M  V30 416 C 40.3416 -1.14085 1.26169 0
M  V30 417 O 41.5266 -1.17086 1.54934 0
M  V30 418 C 38.6566 -1.74716 3.00153 0
M  V30 419 C 37.6106 -1.31032 4.07449 0
M  V30 420 C 36.9366 -2.56887 4.68949 0
M  V30 421 C 38.2366 -0.444183 5.20408 0
M  V30 422 H 39.9306 0.0235131 2.99391 0
M  V30 423 H 37.4766 0.0127488 1.43994 0
M  V30 424 H 39.4296 -2.3625 3.48947 0
M  V30 425 H 38.1536 -2.37035 2.24682 0
M  V30 426 H 36.8126 -0.718066 3.59499 0
M  V30 427 H 36.4606 -3.17512 3.90122 0
M  V30 428 H 36.1606 -2.2836 5.41411 0
M  V30 429 H 37.6846 -3.19229 5.20505 0
M  V30 430 H 39.0986 -0.9651 5.65118 0
M  V30 431 H 37.4956 -0.252846 5.99567 0
M  V30 432 H 38.5656 0.531609 4.81977 0
M  V30 433 N 39.9087 -1.5758 0.0250728 0
M  V30 434 C 41.1557 -1.91633 -0.654444 0
M  V30 435 C 41.4837 -0.901103 -1.72367 0
M  V30 436 O 40.7387 0.0905647 -1.9549 0
M  V30 437 C 41.0377 -3.32421 -1.31268 0
M  V30 438 C 40.7037 -4.49344 -0.374223 0
M  V30 439 C 39.3657 -4.8106 -0.115911 0
M  V30 440 C 41.7177 -5.20498 0.270432 0
M  V30 441 C 39.0457 -5.8129 0.79493 0
M  V30 442 C 41.3977 -6.21699 1.1693 0
M  V30 443 C 40.0617 -6.51859 1.43655 0
M  V30 444 H 39.3317 -0.701236 -0.239478 0
M  V30 445 H 41.9787 -1.91307 0.0859734 0
M  V30 446 H 40.2837 -3.28989 -2.12775 0
M  V30 447 H 41.9807 -3.56038 -1.84494 0
M  V30 448 H 38.5707 -4.24579 -0.58573 0
M  V30 449 H 42.7547 -4.96229 0.0839194 0
M  V30 450 H 38.0107 -6.03005 1.00973 0
M  V30 451 H 42.1847 -6.75955 1.67504 0
M  V30 452 H 39.8117 -7.2934 2.144 0
M  V30 453 N 41.3868 0.248026 -1.55636 0
M  V30 454 C 42.3368 1.30994 -1.86614 0
M  V30 455 C 43.3208 1.43543 -0.726918 0
M  V30 456 O 44.5128 1.46804 -0.988818 0
M  V30 457 C 41.6418 2.6656 -2.16335 0
M  V30 458 C 40.7278 2.58019 -3.36581 0
M  V30 459 N 41.1188 2.1911 -4.55878 0
M  V30 460 C 39.4168 2.89035 -3.39669 0
M  V30 461 C 40.1178 2.21174 -5.38012 0
M  V30 462 N 39.0938 2.60632 -4.77045 0
M  V30 463 H 42.8958 0.999583 -2.76379 0
M  V30 464 H 40.4098 0.456652 -1.55848 0
M  V30 465 H 42.4068 3.43194 -2.36692 0
M  V30 466 H 41.0668 2.98463 -1.27867 0
M  V30 467 H 42.0778 1.90672 -4.81523 0
M  V30 468 H 38.7548 3.25485 -2.61469 0
M  V30 469 H 40.1448 1.9344 -6.43452 0
M  V30 470 N 42.8649 1.48995 0.513639 0
M  V30 471 C 44.0899 1.61792 1.29762 0
M  V30 472 C 44.5149 0.284475 1.85936 0
M  V30 473 O 43.8729 -0.746185 1.65232 0
M  V30 474 C 43.9209 2.67993 2.41272 0
M  V30 475 O 43.0249 2.26287 3.44772 0
M  V30 476 H 42.3659 0.541963 0.38363 0
M  V30 477 H 44.8959 1.95097 0.616307 0
M  V30 478 H 44.9059 2.89772 2.87221 0
M  V30 479 H 43.5809 3.64791 1.9975 0
M  V30 480 H 42.1579 2.14788 3.04829 0
M  V30 481 N 44.343 -0.763751 1.37857 0
M  V30 482 C 45.759 -1.06542 1.18832 0
M  V30 483 C 45.959 -2.01478 0.0299722 0
M  V30 484 O 45.015 -2.4458 -0.627447 0
M  V30 485 C 46.328 -1.65525 2.51042 0
M  V30 486 C 47.876 -1.77745 2.57635 0
M  V30 487 C 48.351 -2.4014 3.89996 0
M  V30 488 N 49.842 -2.47582 3.91481 0
M  V30 489 C 50.577 -2.96732 4.9065 0
M  V30 490 N 50.073 -3.45993 6.00217 0
M  V30 491 N 51.866 -2.95679 4.78048 0
M  V30 492 H 44.017 -0.133556 2.1198 0
M  V30 493 H 46.28 -0.121879 0.940133 0
M  V30 494 H 45.986 -1.03236 3.36207 0
M  V30 495 H 45.86 -2.64719 2.68707 0
M  V30 496 H 48.247 -2.39164 1.72872 0
M  V30 497 H 48.328 -0.772836 2.43846 0
M  V30 498 H 47.972 -1.79358 4.75177 0
M  V30 499 H 47.902 -3.41223 4.01092 0
M  V30 500 H 50.393 -2.1273 3.12337 0
M  V30 501 H 50.706 -3.81922 6.7183 0
M  V30 502 H 49.051 -3.44077 6.03851 0
M  V30 503 H 52.242 -2.56499 3.91568 0
M  V30 504 H 52.415 -3.33672 5.55488 0
M  V30 505 N 45.8211 -1.22559 -0.990812 0
M  V30 506 C 47.0981 -0.959875 -1.70428 0
M  V30 507 C 47.4781 0.524455 -2.04481 0
M  V30 508 O 46.8261 1.49302 -1.72977 0
M  V30 509 C 47.0361 -1.85955 -2.95333 0
M  V30 510 C 48.3841 -2.11687 -3.68068 0
M  V30 511 O 49.4081 -1.8342 -3.05345 0
M  V30 512 O 48.2671 -2.59572 -4.80921 0
M  V30 513 H 45.3611 -0.361154 -0.743974 0
M  V30 514 H 47.9071 -1.33554 -1.04697 0
M  V30 515 H 46.6791 -2.86346 -2.66687 0
M  V30 516 H 46.3021 -1.4856 -3.68803 0
M  V30 517 N 47.2992 1.18797 -1.03562 0
M  V30 518 C 48.7152 1.40671 -0.753917 0
M  V30 519 C 48.9152 1.9043 0.658686 0
M  V30 520 O 47.9712 2.08538 1.42366 0
M  V30 521 C 49.2842 2.41192 -1.79574 0
M  V30 522 C 50.8322 2.54928 -1.81606 0
M  V30 523 C 51.3072 3.58709 -2.84766 0
M  V30 524 N 52.7982 3.66212 -2.83625 0
M  V30 525 C 53.5332 4.46225 -3.60098 0
M  V30 526 N 53.0292 5.29888 -4.46308 0
M  V30 527 N 54.8222 4.40939 -3.4861 0
M  V30 528 H 46.9732 0.848221 -1.94728 0
M  V30 529 H 49.2362 0.435081 -0.842264 0
M  V30 530 H 48.9422 2.11669 -2.80872 0
M  V30 531 H 48.8162 3.40467 -1.62365 0
M  V30 532 H 51.2032 2.83771 -0.809817 0
M  V30 533 H 51.2842 1.55784 -2.02891 0
M  V30 534 H 50.9282 3.30607 -3.85566 0
M  V30 535 H 50.8582 4.57519 -2.60737 0
M  V30 536 H 53.3492 3.06466 -2.21105 0
M  V30 537 H 53.6622 5.88078 -5.01382 0
M  V30 538 H 52.0072 5.29326 -4.50377 0
M  V30 539 H 55.1982 3.74624 -2.80668 0
M  V30 540 H 55.3712 5.03056 -4.08459 0
M  V30 541 N 48.7773 0.814389 1.34928 0
M  V30 542 C 50.0023 0.410097 2.03305 0
M  V30 543 C 50.4273 -0.973464 1.60951 0
M  V30 544 O 49.7853 -1.63185 0.789964 0
M  V30 545 C 49.8333 0.51049 3.56968 0
M  V30 546 O 48.9373 -0.473035 4.09678 0
M  V30 547 H 48.2783 0.170088 0.641846 0
M  V30 548 H 50.8083 1.10244 1.72358 0
M  V30 549 H 50.8183 0.383135 4.06197 0
M  V30 550 H 49.4933 1.51963 3.87144 0
M  V30 551 H 48.0703 -0.305272 3.71648 0
M  V30 552 N 50.2554 -1.46986 0.568584 0
M  V30 553 C 51.5324 -1.95592 -0.0174074 0
M  V30 554 C 51.9124 -1.51124 -1.47393 0
M  V30 555 O 51.2604 -0.755329 -2.15655 0
M  V30 556 C 51.4704 -3.48719 0.139913 0
M  V30 557 C 52.8184 -4.246 0.000426376 0
M  V30 558 O 53.8424 -3.56135 0.0680316 0
M  V30 559 O 52.7014 -5.46302 -0.146988 0
M  V30 560 H 49.7954 -0.82498 -0.0577599 0
M  V30 561 H 52.3414 -1.57335 0.635909 0
M  V30 562 H 51.1134 -3.73927 1.15301 0
M  V30 563 H 50.7364 -3.93771 -0.550491 0
M  V30 564 N 51.7335 -0.305618 -1.54608 0
M  V30 565 C 52.6635 0.561482 -2.26649 0
M  V30 566 C 53.6445 1.13415 -1.26772 0
M  V30 567 O 54.8295 1.16262 -1.55553 0
M  V30 568 C 51.9595 1.73122 -3.01075 0
M  V30 569 C 50.9135 1.2887 -4.08138 0
M  V30 570 C 50.2395 2.54396 -4.70305 0
M  V30 571 C 51.5395 0.416578 -5.20636 0
M  V30 572 H 53.2335 -0.0393902 -2.99374 0
M  V30 573 H 50.7795 -0.020385 -1.43986 0
M  V30 574 H 52.7325 2.34396 -3.50195 0
M  V30 575 H 51.4565 2.3584 -2.25936 0
M  V30 576 H 50.1155 0.698991 -3.59875 0
M  V30 577 H 49.7635 3.15439 -3.918 0
M  V30 578 H 49.4635 2.25486 -5.42614 0
M  V30 579 H 50.9875 3.16464 -5.2219 0
M  V30 580 H 52.4015 0.935116 -5.65622 0
M  V30 581 H 50.7985 0.221046 -5.99693 0
M  V30 582 H 51.8685 -0.557162 -4.81688 0
M  V30 583 N 53.2116 1.57565 -0.0334293 0
M  V30 584 C 54.1216 2.13943 0.962572 0
M  V30 585 C 55.1376 1.09276 1.35406 0
M  V30 586 O 56.3136 1.41355 1.4346 0
M  V30 587 C 53.3786 2.65887 2.22497 0
M  V30 588 C 52.4396 3.85286 1.8935 0
M  V30 589 C 51.6726 4.34743 3.09571 0
M  V30 590 O 51.8956 3.83352 4.22371 0
M  V30 591 O 50.8296 5.26538 2.91618 0
M  V30 592 H 54.6556 2.99333 0.513169 0
M  V30 593 H 52.2406 1.4822 0.18743 0
M  V30 594 H 54.1226 2.99346 2.96598 0
M  V30 595 H 52.7976 1.83578 2.6661 0
M  V30 596 H 51.7046 3.56746 1.1262 0
M  V30 597 H 53.0376 4.68771 1.5005 0
M  V30 598 N 54.6897 -0.239769 1.55765 0
M  V30 599 C 56.1007 -0.808263 1.68297 0
M  V30 600 C 56.4517 -1.85736 0.632181 0
M  V30 601 O 55.5767 -2.15277 -0.220204 0
M  V30 602 C 56.1717 -1.47284 3.05111 0
M  V30 603 C 54.7307 -1.98895 3.19559 0
M  V30 604 C 53.8777 -0.842575 2.64189 0
M  V30 605 H 56.8287 -0.0154422 1.58692 0
M  V30 606 H 56.8497 -2.34111 2.99954 0
M  V30 607 H 56.3617 -0.709053 3.81568 0
M  V30 608 H 54.4627 -2.78132 2.47938 0
M  V30 609 H 54.5757 -2.18143 4.26556 0
M  V30 610 H 52.9397 -1.24501 2.22197 0
M  V30 611 H 53.7227 -0.0917552 3.43177 0
M  V30 612 N 56.1678 -1.49265 -0.50573 0
M  V30 613 C 57.3928 -1.62478 -1.28902 0
M  V30 614 C 57.8178 -0.294332 -1.85783 0
M  V30 615 O 57.1758 0.737412 -1.65626 0
M  V30 616 C 57.2238 -2.69268 -2.39848 0
M  V30 617 O 56.3278 -2.28113 -3.43567 0
M  V30 618 H 55.6688 -0.54399 -0.380751 0
M  V30 619 H 58.1988 -1.95421 -0.605952 0
M  V30 620 H 58.2088 -2.91291 -2.85681 0
M  V30 621 H 56.8838 -3.65846 -1.97812 0
M  V30 622 H 55.4608 -2.16401 -3.03685 0
M  V30 623 N 57.6459 0.756429 -1.3826 0
M  V30 624 C 59.0569 1.33359 -1.30661 0
M  V30 625 C 59.4079 1.96161 0.0388875 0
M  V30 626 O 58.5329 1.94874 0.940918 0
M  V30 627 C 59.1279 2.42477 -2.36622 0
M  V30 628 C 57.6869 2.95922 -2.3261 0
M  V30 629 C 56.8339 1.69275 -2.19639 0
M  V30 630 H 59.7849 0.55552 -1.4866 0
M  V30 631 H 59.8059 3.22345 -2.02174 0
M  V30 632 H 59.3179 1.96739 -3.34538 0
M  V30 633 H 57.4189 3.45996 -1.38267 0
M  V30 634 H 57.5319 3.50494 -3.26636 0
M  V30 635 H 55.8959 1.92793 -1.66442 0
M  V30 636 H 56.6789 1.25619 -3.19491 0
M  V30 637 N 59.124 1.23083 0.984299 0
M  V30 638 C 60.054 1.03292 2.09411 0
M  V30 639 C 61.035 -0.048923 1.7003 0
M  V30 640 O 62.22 0.114967 1.93859 0
M  V30 641 C 59.35 0.619155 3.41736 0
M  V30 642 C 58.304 1.64791 3.95004 0
M  V30 643 C 57.63 1.0897 5.23478 0
M  V30 644 C 58.93 3.03999 4.24714 0
M  V30 645 H 60.624 1.96119 2.26225 0
M  V30 646 H 58.17 0.944344 1.08711 0
M  V30 647 H 60.123 0.467777 4.18796 0
M  V30 648 H 58.847 -0.344786 3.24775 0
M  V30 649 H 57.506 1.78721 3.20085 0
M  V30 650 H 57.154 0.11686 5.02864 0
M  V30 651 H 56.854 1.77704 5.60085 0
M  V30 652 H 58.378 0.950093 6.03163 0
M  V30 653 H 59.792 2.93393 4.92538 0
M  V30 654 H 58.189 3.69936 4.72512 0
M  V30 655 H 59.259 3.53285 3.32142 0
M  V30 656 N 60.6021 -1.18246 1.0419 0
M  V30 657 C 62.0181 -1.40269 0.761366 0
M  V30 658 C 62.2181 -1.90777 -0.648578 0
M  V30 659 O 61.2741 -2.0929 -1.41258 0
M  V30 660 C 62.5871 -2.40237 1.8085 0
M  V30 661 C 64.1351 -2.53961 1.82955 0
M  V30 662 C 64.6101 -3.57194 2.86664 0
M  V30 663 N 66.1011 -3.64702 2.85563 0
M  V30 664 C 66.8361 -4.44309 3.6246 0
M  V30 665 N 66.3321 -5.27514 4.49111 0
M  V30 666 N 68.1251 -4.39084 3.50944 0
M  V30 667 H 60.2761 -0.837882 1.95175 0
M  V30 668 H 62.5391 -0.430608 0.84456 0
M  V30 669 H 62.2451 -2.10176 2.81991 0
M  V30 670 H 62.1191 -3.39601 1.64168 0
M  V30 671 H 64.5061 -2.83338 0.824855 0
M  V30 672 H 64.5871 -1.54706 2.03715 0
M  V30 673 H 64.2311 -3.28558 3.87314 0
M  V30 674 H 64.1611 -4.5613 2.6316 0
M  V30 675 H 66.6521 -3.05289 2.22727 0
M  V30 676 H 66.9651 -5.85411 5.04493 0
M  V30 677 H 65.3101 -5.2693 4.53178 0
M  V30 678 H 68.5011 -3.7313 2.82651 0
M  V30 679 H 68.6741 -5.00883 4.11121 0
M  V30 680 N 62.0802 -0.821533 -1.34494 0
M  V30 681 C 63.0122 -0.199946 -2.28326 0
M  V30 682 C 64.0252 0.609377 -1.50965 0
M  V30 683 O 65.2142 0.439285 -1.7301 0
M  V30 684 C 62.3142 0.738431 -3.30757 0
M  V30 685 C 61.4872 -0.0277632 -4.37391 0
M  V30 686 C 60.5462 0.831332 -5.19591 0
M  V30 687 O 59.5722 0.276822 -5.68526 0
M  V30 688 N 60.7742 2.15132 -5.39165 0
M  V30 689 H 63.5392 -1.00609 -2.82308 0
M  V30 690 H 61.1002 -0.678366 -1.47003 0
M  V30 691 H 63.0922 1.31773 -3.82646 0
M  V30 692 H 61.6622 1.44533 -2.7718 0
M  V30 693 H 60.8822 -0.788359 -3.86236 0
M  V30 694 H 62.1702 -0.555251 -5.05761 0
M  V30 695 H 61.5682 2.62559 -5.01078 0
M  V30 696 H 60.1252 2.6795 -5.94177 0
M  V30 697 N 63.5583 1.46682 -0.576371 0
M  V30 698 C 64.5213 2.28707 0.150239 0
M  V30 699 C 65.5213 1.38035 0.824794 0
M  V30 700 O 66.7113 1.60476 0.677719 0
M  V30 701 C 63.8433 3.18248 1.22192 0
M  V30 702 H 65.0363 2.94423 -0.570521 0
M  V30 703 H 62.5893 1.52688 -0.334078 0
M  V30 704 H 63.3243 2.57265 1.97447 0
M  V30 705 H 63.1093 3.85 0.742812 0
M  V30 706 H 64.5993 3.80001 1.73172 0
M  V30 707 N 65.0364 0.313813 1.54444 0
M  V30 708 C 65.9834 -0.55655 2.23989 0
M  V30 709 C 66.9534 -1.11943 1.22711 0
M  V30 710 O 68.1384 -1.16158 1.51367 0
M  V30 711 C 65.2784 -1.71635 2.99392 0
M  V30 712 C 64.3914 -1.18364 4.15468 0
M  V30 713 C 63.5264 -2.30834 4.78424 0
M  V30 714 C 62.5654 -1.74762 5.86622 0
M  V30 715 N 61.7024 -2.80855 6.43479 0
M  V30 716 H 66.5424 0.0430893 2.97969 0
M  V30 717 H 64.0794 0.0330359 1.47063 0
M  V30 718 H 66.0374 -2.39868 3.41349 0
M  V30 719 H 64.6674 -2.28742 2.27765 0
M  V30 720 H 63.7194 -0.393163 3.78363 0
M  V30 721 H 65.0314 -0.733262 4.93381 0
M  V30 722 H 64.1854 -3.0699 5.23299 0
M  V30 723 H 62.9244 -2.79204 3.99871 0
M  V30 724 H 61.9294 -0.970995 5.41158 0
M  V30 725 H 63.1544 -1.2728 6.67066 0
M  V30 726 H 61.1004 -3.28535 5.67804 0
M  V30 727 H 61.0174 -2.40351 7.16776 0
M  V30 728 H 62.2854 -3.5687 6.93011 0
M  V30 729 N 66.5145 -1.57545 0.0417849 0
M  V30 730 C 67.9255 -1.80011 -0.495259 0
M  V30 731 C 68.2765 -0.953199 -1.71489 0
M  V30 732 O 67.4015 -0.167138 -2.15754 0
M  V30 733 C 67.9965 -3.26482 -0.905265 0
M  V30 734 C 66.5555 -3.499 -1.38734 0
M  V30 735 C 65.7025 -2.74979 -0.358056 0
M  V30 736 H 68.6535 -1.56425 0.267736 0
M  V30 737 H 68.6745 -3.36887 -1.76882 0
M  V30 738 H 68.1865 -3.88096 -0.017401 0
M  V30 739 H 66.2875 -2.93553 -2.29471 0
M  V30 740 H 66.4005 -4.58615 -1.38598 0
M  V30 741 H 64.7645 -2.40834 -0.828912 0
M  V30 742 H 65.5475 -3.39315 0.521561 0
M  V30 743 N 67.9926 0.231505 -1.5589 0
M  V30 744 C 69.2416 0.955346 -1.7764 0
M  V30 745 C 69.5546 1.85893 -0.608546 0
M  V30 746 O 70.7606 2.62067 -0.70943 0
M  V30 747 C 69.2166 1.74886 -3.14552 0
M  V30 748 C 68.8246 0.891915 -4.39032 0
M  V30 749 C 70.5686 2.46452 -3.45633 0
M  V30 750 C 68.4756 1.68221 -5.66971 0
M  V30 751 H 67.4056 0.360446 -0.662265 0
M  V30 752 H 70.0566 0.209516 -1.823 0
M  V30 753 H 68.4386 2.53723 -3.04041 0
M  V30 754 H 69.6126 0.144793 -4.60572 0
M  V30 755 H 67.9276 0.288863 -4.15397 0
M  V30 756 H 70.5246 3.06061 -4.38441 0
M  V30 757 H 70.8676 3.18841 -2.67668 0
M  V30 758 H 71.4006 1.74613 -3.57428 0
M  V30 759 H 68.1396 1.00178 -6.478 0
M  V30 760 H 67.6596 2.4042 -5.49507 0
M  V30 761 H 69.3386 2.24544 -6.06786 0
M  V30 762 N 69.4707 1.49531 0.497807 0
M  V30 763 C 70.4337 1.65916 1.58128 0
M  V30 764 C 71.4337 0.530825 1.51786 0
M  V30 765 O 72.6237 0.797342 1.54881 0
M  V30 766 C 69.7557 1.65951 2.9778 0
M  V30 767 H 70.9487 2.62556 1.44929 0
M  V30 768 H 68.5017 1.38611 0.722275 0
M  V30 769 H 69.2367 0.709065 3.16453 0
M  V30 770 H 69.0217 2.47897 3.03792 0
M  V30 771 H 70.5117 1.80673 3.76493 0
M  V30 772 N 70.9488 -0.749086 1.3866 0
M  V30 773 C 72.2258 -1.4992 1.25632 0
M  V30 774 C 72.6058 -2.10633 -0.140317 0
M  V30 775 O 71.9538 -1.97437 -1.15025 0
M  V30 776 C 72.1638 -2.56195 2.36992 0
M  V30 777 C 73.5118 -3.22972 2.75634 0
M  V30 778 O 74.5358 -2.66502 2.36337 0
M  V30 779 O 73.3948 -4.25122 3.43415 0
M  V30 780 H 70.4888 -0.665067 0.491544 0
M  V30 781 H 73.0348 -0.784113 1.50498 0
M  V30 782 H 71.8068 -2.09612 3.30422 0
M  V30 783 H 71.4298 -3.35279 2.13714 0
M  V30 784 N 72.4269 -1.23603 -0.977757 0
M  V30 785 C 73.3569 -1.04401 -2.0886 0
M  V30 786 C 74.3379 0.0399052 -1.70053 0
M  V30 787 O 75.5229 -0.125246 -1.93796 0
M  V30 788 C 72.6529 -0.637269 -3.41403 0
M  V30 789 C 71.6069 -1.66883 -3.94124 0
M  V30 790 C 70.9329 -1.11745 -5.22893 0
M  V30 791 C 72.2329 -3.06247 -4.23096 0
M  V30 792 H 73.9269 -1.97316 -2.25182 0
M  V30 793 H 71.4729 -0.950096 -1.08209 0
M  V30 794 H 73.4259 -0.48998 -4.18542 0
M  V30 795 H 72.1499 0.327557 -3.24953 0
M  V30 796 H 70.8089 -1.80416 -3.19133 0
M  V30 797 H 70.4569 -0.143527 -5.02795 0
M  V30 798 H 70.1569 -1.80672 -5.59134 0
M  V30 799 H 71.6809 -0.982067 -6.02651 0
M  V30 800 H 73.0949 -2.96001 -4.90975 0
M  V30 801 H 71.4919 -3.72436 -4.70544 0
M  V30 802 H 72.5619 -3.55041 -3.30263 0
M  V30 803 N 73.905 1.17692 -1.04816 0
M  V30 804 C 74.855 2.1952 -0.616042 0
M  V30 805 C 75.839 1.57147 0.345485 0
M  V30 806 O 77.031 1.76245 0.163325 0
M  V30 807 C 74.16 3.43298 0.0116917 0
M  V30 808 C 73.246 4.12777 -0.973435 0
M  V30 809 N 73.637 4.5814 -2.14339 0
M  V30 810 C 71.935 4.38747 -0.80108 0
M  V30 811 C 72.636 5.11713 -2.7663 0
M  V30 812 N 71.612 5.03686 -2.04453 0
M  V30 813 H 75.414 2.52293 -1.5075 0
M  V30 814 H 72.928 1.3398 -0.917776 0
M  V30 815 H 74.925 4.15519 0.339006 0
M  V30 816 H 73.585 3.12018 0.898593 0
M  V30 817 H 74.596 4.52349 -2.52191 0
M  V30 818 H 71.273 4.17485 0.0350934 0
M  V30 819 H 72.663 5.56962 -3.75823 0
M  V30 820 N 75.3831 0.828654 1.34056 0
M  V30 821 C 76.3461 0.259927 2.27721 0
M  V30 822 C 77.3461 -0.565478 1.50529 0
M  V30 823 O 78.5361 -0.38075 1.69988 0
M  V30 824 C 75.6681 -0.634944 3.34935 0
M  V30 825 H 76.8611 1.0863 2.79534 0
M  V30 826 H 74.4141 0.600951 1.44285 0
M  V30 827 H 75.1491 -1.48416 2.88346 0
M  V30 828 H 74.9341 -0.0444999 3.92075 0
M  V30 829 H 76.4241 -1.02648 4.04788 0
M  V30 830 N 76.8612 -1.46375 0.584142 0
M  V30 831 C 77.8242 -2.28784 -0.138108 0
M  V30 832 C 78.8242 -1.38471 -0.817462 0
M  V30 833 O 80.0142 -1.60833 -0.669199 0
M  V30 834 C 77.1462 -3.18892 -1.20503 0
M  V30 835 H 78.3392 -2.94117 0.586127 0
M  V30 836 H 75.8922 -1.52509 0.342171 0
M  V30 837 H 76.6272 -2.58309 -1.96079 0
M  V30 838 H 76.4122 -3.85388 -0.722384 0
M  V30 839 H 77.9022 -3.80914 -1.71155 0
M  V30 840 N 78.3393 -0.321999 -1.54275 0
M  V30 841 C 79.2713 0.578671 -2.21775 0
M  V30 842 C 80.2843 1.08109 -1.21722 0
M  V30 843 O 81.4733 0.994938 -1.482 0
M  V30 844 C 78.5733 1.80661 -2.86731 0
M  V30 845 C 77.7463 1.44314 -4.12907 0
M  V30 846 C 76.8053 2.52845 -4.61472 0
M  V30 847 O 75.8313 2.17054 -5.2619 0
M  V30 848 N 77.0333 3.83748 -4.35566 0
M  V30 849 H 79.7983 0.000709447 -2.997 0
M  V30 850 H 77.3593 -0.145132 -1.61248 0
M  V30 851 H 79.3513 2.52655 -3.16145 0
M  V30 852 H 77.9213 2.29245 -2.12521 0
M  V30 853 H 77.1413 0.554906 -3.90275 0
M  V30 854 H 78.4293 1.17598 -4.95023 0
M  V30 855 H 77.8273 4.15625 -3.83761 0
M  V30 856 H 76.3843 4.51977 -4.69638 0
M  V30 857 N 79.8174 1.5752 -0.0501392 0
M  V30 858 C 81.2334 1.56631 0.306402 0
M  V30 859 C 81.4334 1.0577 1.71508 0
M  V30 860 O 80.4894 0.713837 2.422 0
M  V30 861 C 81.8024 3.00393 0.135811 0
M  V30 862 C 83.3504 3.12315 0.206993 0
M  V30 863 C 83.8254 4.57954 0.064944 0
M  V30 864 N 85.3164 4.63041 0.121254 0
M  V30 865 C 86.0514 5.73389 0.0354381 0
M  V30 866 N 85.5474 6.92724 -0.102666 0
M  V30 867 N 87.3404 5.62026 0.090946 0
M  V30 868 H 79.4914 1.88903 -0.971046 0
M  V30 869 H 81.7544 0.869876 -0.376855 0
M  V30 870 H 81.4604 3.41635 -0.835384 0
M  V30 871 H 81.3344 3.66373 0.897275 0
M  V30 872 H 83.7214 2.70973 1.16866 0
M  V30 873 H 83.8024 2.49016 -0.585208 0
M  V30 874 H 83.4464 4.99981 -0.893394 0
M  V30 875 H 83.3764 5.19258 0.876277 0
M  V30 876 H 85.8674 3.77216 0.227284 0
M  V30 877 H 86.1804 7.72633 -0.160882 0
M  V30 878 H 84.5254 6.94864 -0.137737 0
M  V30 879 H 87.7164 4.67684 0.197388 0
M  V30 880 H 87.8894 6.47997 0.0206089 0
M  V30 881 N 81.2955 -0.223234 1.56011 0
M  V30 882 C 82.5425 -0.947875 1.78946 0
M  V30 883 C 82.8705 -1.844 0.618608 0
M  V30 884 O 82.1255 -1.91629 -0.397093 0
M  V30 885 C 82.4245 -1.81948 3.0762 0
M  V30 886 C 82.0905 -1.07672 4.37856 0
M  V30 887 C 80.7525 -0.871544 4.73242 0
M  V30 888 C 83.1045 -0.552081 5.18268 0
M  V30 889 C 80.4325 -0.129791 5.86556 0
M  V30 890 C 82.7845 0.17632 6.32354 0
M  V30 891 C 81.4485 0.39277 6.66343 0
M  V30 892 H 80.7185 -0.346852 0.654809 0
M  V30 893 H 83.3655 -0.216171 1.90276 0
M  V30 894 H 81.6705 -2.61899 2.91404 0
M  V30 895 H 83.3675 -2.38227 3.22566 0
M  V30 896 H 79.9575 -1.24662 4.1007 0
M  V30 897 H 84.1415 -0.698076 4.91366 0
M  V30 898 H 79.3975 0.048153 6.11381 0
M  V30 899 H 83.5715 0.590367 6.93893 0
M  V30 900 H 81.1985 0.969466 7.53993 0
M  V30 901 N 82.7736 -1.49793 -0.48987 0
M  V30 902 C 83.7036 -1.70201 -1.59856 0
M  V30 903 C 84.6846 -0.55076 -1.60937 0
M  V30 904 O 85.8696 -0.787841 -1.77501 0
M  V30 905 C 82.9996 -1.77882 -2.98287 0
M  V30 906 C 81.9536 -2.92907 -3.12073 0
M  V30 907 C 81.2796 -2.85712 -4.51965 0
M  V30 908 C 82.5796 -4.3369 -2.91051 0
M  V30 909 H 84.2736 -2.63025 -1.43032 0
M  V30 910 H 81.8196 -1.26574 -0.686664 0
M  V30 911 H 83.7726 -1.90744 -3.75759 0
M  V30 912 H 82.4966 -0.816653 -3.16225 0
M  V30 913 H 81.1556 -2.79665 -2.37029 0
M  V30 914 H 80.8036 -1.8738 -4.66795 0
M  V30 915 H 80.5036 -3.62921 -4.62128 0
M  V30 916 H 82.0276 -3.00598 -5.31482 0
M  V30 917 H 83.4416 -4.47555 -3.58284 0
M  V30 918 H 81.8386 -5.12205 -3.12675 0
M  V30 919 H 82.9086 -4.47362 -1.87071 0
M  V30 920 N 84.2517 0.741722 -1.39055 0
M  V30 921 C 85.4767 1.53607 -1.39354 0
M  V30 922 C 85.9017 1.88096 0.0116905 0
M  V30 923 O 85.2597 1.5143 0.996924 0
M  V30 924 C 85.3077 2.80441 -2.26682 0
M  V30 925 O 84.4117 3.76088 -1.69208 0
M  V30 926 H 83.7527 0.464142 -0.474835 0
M  V30 927 H 86.2827 0.915665 -1.82967 0
M  V30 928 H 86.2927 3.29246 -2.40959 0
M  V30 929 H 84.9677 2.5467 -3.2881 0
M  V30 930 H 83.5447 3.34833 -1.64138 0
M  V30 931 N 85.7298 1.2412 0.971189 0
M  V30 932 C 87.1458 1.00584 1.23916 0
M  V30 933 C 87.3458 -0.287481 1.99439 0
M  V30 934 O 86.4018 -1.00454 2.31658 0
M  V30 935 C 87.7148 2.21864 2.0297 0
M  V30 936 C 89.2628 2.26452 2.16076 0
M  V30 937 C 89.7378 3.47343 2.98524 0
M  V30 938 N 91.2288 3.47639 3.06107 0
M  V30 939 C 91.9638 4.37837 3.70251 0
M  V30 940 N 91.4598 5.38286 4.36142 0
M  V30 941 N 93.2528 4.25558 3.67228 0
M  V30 942 H 85.4038 2.07236 0.465499 0
M  V30 943 H 87.6668 0.909236 0.268315 0
M  V30 944 H 87.3728 3.15771 1.54861 0
M  V30 945 H 87.2468 2.23698 3.03709 0
M  V30 946 H 89.6338 1.33078 2.6339 0
M  V30 947 H 89.7148 2.28645 1.14696 0
M  V30 948 H 89.3588 4.41029 2.51905 0
M  V30 949 H 89.2888 3.42393 4.00093 0
M  V30 950 H 91.7798 2.74966 2.59233 0
M  V30 951 H 92.0928 6.03352 4.82894 0
M  V30 952 H 90.4378 5.42176 4.34822 0
M  V30 953 H 93.6288 3.46322 3.14927 0
M  V30 954 H 93.8018 4.96054 4.16935 0
M  V30 955 N 87.2079 -1.17134 1.05439 0
M  V30 956 C 88.4379 -1.91094 0.785274 0
M  V30 957 C 88.8459 -1.77198 -0.663142 0
M  V30 958 O 88.1889 -1.10835 -1.46497 0
M  V30 959 C 88.2509 -3.42594 1.08949 0
M  V30 960 C 87.9149 -3.80274 2.53458 0
M  V30 961 C 88.9119 -3.82912 3.51673 0
M  V30 962 C 86.5969 -4.11162 2.88532 0
M  V30 963 C 88.5909 -4.15913 4.83006 0
M  V30 964 C 86.2779 -4.43831 4.20068 0
M  V30 965 C 87.2759 -4.46185 5.17115 0
M  V30 966 O 86.9639 -4.78083 6.46291 0
M  V30 967 H 86.6959 -0.613073 0.284811 0
M  V30 968 H 89.2499 -1.49461 1.40893 0
M  V30 969 H 87.4799 -3.84534 0.408741 0
M  V30 970 H 89.1689 -3.97817 0.805991 0
M  V30 971 H 89.9349 -3.5917 3.25917 0
M  V30 972 H 85.8139 -4.085 2.13656 0
M  V30 973 H 89.3579 -4.17665 5.5875 0
M  V30 974 H 85.2549 -4.67037 4.45586 0
M  V30 975 H 86.0229 -4.9593 6.51149 0
M  V30 976 N 88.686 -0.835752 -1.33615 0
M  V30 977 C 89.934 -0.429109 -1.97492 0
M  V30 978 C 90.255 1.01433 -1.66543 0
M  V30 979 O 89.525 1.70611 -0.962744 0
M  V30 980 H 88.105 -0.155686 -0.730596 0
M  V30 981 H 90.767 -1.06802 -1.63031 0
M  V30 982 H 89.863 -0.55861 -3.0706 0
M  V30 983 N 90.1641 1.46063 -0.591896 0
M  V30 984 C 91.4101 2.03203 -0.0894879 0
M  V30 985 C 91.7651 1.45407 1.25994 0
M  V30 986 O 91.0581 0.61326 1.8152 0
M  V30 987 C 91.2521 3.57391 0.0249813 0
M  V30 988 C 91.0811 4.30142 -1.3118 0
M  V30 989 C 89.8511 4.68688 -1.88838 0
M  V30 990 C 92.0491 4.63098 -2.23708 0
M  V30 991 N 90.0311 5.26228 -3.1616 0
M  V30 992 C 91.4021 5.21305 -3.3562 0
M  V30 993 C 93.4571 4.45031 -2.23274 0
M  V30 994 C 92.1601 5.63351 -4.47245 0
M  V30 995 C 94.1861 4.881 -3.33935 0
M  V30 996 C 93.5481 5.46386 -4.44569 0
M  V30 997 H 89.6471 0.778323 -0.0757431 0
M  V30 998 H 92.2311 1.78094 -0.78681 0
M  V30 999 H 90.4021 3.82195 0.69149 0
M  V30 1000 H 92.1341 4.0118 0.532613 0
M  V30 1001 H 88.8891 4.5174 -1.42223 0
M  V30 1002 H 89.3131 5.59512 -3.8115 0
M  V30 1003 H 93.9551 3.99295 -1.39008 0
M  V30 1004 H 91.6731 6.08061 -5.32247 0
M  V30 1005 H 95.2591 4.75866 -3.34728 0
M  V30 1006 H 94.1391 5.79102 -5.28782 0
M  V30 1007 N 91.6422 0.330177 1.54103 0
M  V30 1008 C 92.8672 -0.274893 2.0557 0
M  V30 1009 C 93.2922 -1.44487 1.20437 0
M  V30 1010 O 92.6502 -1.80021 0.214991 0
M  V30 1011 C 92.6982 -0.68079 3.54115 0
M  V30 1012 O 91.8022 -1.7824 3.71893 0
M  V30 1013 H 91.1432 -0.0483849 0.662235 0
M  V30 1014 H 93.6732 0.480508 1.98878 0
M  V30 1015 H 93.6832 -0.961635 3.96505 0
M  V30 1016 H 92.3582 0.174903 4.15532 0
M  V30 1017 H 90.9352 -1.49985 3.41407 0
M  V30 1018 N 93.1203 -1.57491 0.0584922 0
M  V30 1019 C 94.3683 -1.92597 -0.612436 0
M  V30 1020 C 94.6893 -0.938162 -1.70949 0
M  V30 1021 O 93.9593 0.0158301 -1.95894 0
M  V30 1022 H 92.5393 -0.710964 -0.229214 0
M  V30 1023 H 95.2013 -1.94571 0.113218 0
M  V30 1024 H 94.2973 -2.94038 -1.04633 0
M  V30 1025 N 94.5984 0.214957 -1.56127 0
M  V30 1026 C 95.8444 0.939762 -1.79712 0
M  V30 1027 C 96.1774 1.83723 -0.629247 0
M  V30 1028 O 95.4524 1.90925 0.371197 0
M  V30 1029 C 95.7354 1.77306 -3.13424 0
M  V30 1030 C 95.5884 0.90164 -4.40671 0
M  V30 1031 C 96.9074 2.74956 -3.43638 0
M  V30 1032 H 94.0264 0.340214 -0.653776 0
M  V30 1033 H 96.6684 0.20824 -1.88855 0
M  V30 1034 H 94.8184 2.39673 -3.0576 0
M  V30 1035 H 96.4904 0.294206 -4.60361 0
M  V30 1036 H 94.7334 0.207368 -4.33304 0
M  V30 1037 H 95.4044 1.51923 -5.30682 0
M  V30 1038 H 97.8804 2.22724 -3.51473 0
M  V30 1039 H 96.7564 3.30358 -4.38355 0
M  V30 1040 H 97.0174 3.53023 -2.66134 0
M  V30 1041 N 96.0765 1.50051 0.48192 0
M  V30 1042 C 97.3225 1.61706 1.2338 0
M  V30 1043 C 97.6775 0.308488 1.89911 0
M  V30 1044 O 96.9705 -0.692798 1.78636 0
M  V30 1045 C 97.1645 2.72717 2.30998 0
M  V30 1046 C 96.9935 4.14242 1.75024 0
M  V30 1047 C 95.7635 4.80786 1.55476 0
M  V30 1048 C 97.9615 4.98846 1.25128 0
M  V30 1049 N 95.9435 6.06563 0.946311 0
M  V30 1050 C 97.3145 6.15258 0.765382 0
M  V30 1051 C 99.3695 4.84702 1.13881 0
M  V30 1052 C 98.0725 7.19079 0.178113 0
M  V30 1053 C 100.098 5.8869 0.565486 0
M  V30 1054 C 99.4605 7.04343 0.0899105 0
M  V30 1055 H 95.5595 0.645958 0.440753 0
M  V30 1056 H 98.1435 1.8713 0.537624 0
M  V30 1057 H 96.3145 2.49033 2.98055 0
M  V30 1058 H 98.0465 2.73789 2.9803 0
M  V30 1059 H 94.8015 4.37899 1.80392 0
M  V30 1060 H 95.2255 6.73767 0.660812 0
M  V30 1061 H 99.8675 3.95583 1.49244 0
M  V30 1062 H 97.5855 8.07882 -0.187749 0
M  V30 1063 H 101.171 5.79808 0.480974 0
M  V30 1064 H 100.051 7.83433 -0.346782 0
M  V30 1065 N 97.5546 -0.734337 1.39446 0
M  V30 1066 C 98.5176 -1.83004 1.37994 0
M  V30 1067 C 99.5176 -1.58397 0.276938 0
M  V30 1068 O 100.708 -1.65785 0.534875 0
M  V30 1069 C 97.8396 -3.20802 1.1532 0
M  V30 1070 H 99.0326 -1.85694 2.35494 0
M  V30 1071 H 96.5856 -0.938059 1.25021 0
M  V30 1072 H 97.3206 -3.23772 0.185036 0
M  V30 1073 H 97.1056 -3.4006 1.95197 0
M  V30 1074 H 98.5956 -4.00862 1.17046 0
M  V30 1075 N 99.0327 -1.24633 -0.964593 0
M  V30 1076 C 99.9957 -1.0424 -2.04124 0
M  V30 1077 C 100.996 0.00137563 -1.608 0
M  V30 1078 O 102.186 -0.239883 -1.7254 0
M  V30 1079 C 99.3177 -0.580588 -3.3592 0
M  V30 1080 H 100.511 -1.99803 -2.23649 0
M  V30 1081 H 98.0637 -1.06899 -1.14027 0
M  V30 1082 H 98.7987 0.3781 -3.22088 0
M  V30 1083 H 98.5837 -1.33398 -3.6871 0
M  V30 1084 H 100.074 -0.459034 -4.15069 0
M  V30 1085 N 100.511 1.16574 -1.06058 0
M  V30 1086 C 101.757 1.87565 -0.78683 0
M  V30 1087 C 102.112 1.80012 0.679214 0
M  V30 1088 O 101.405 1.20327 1.49104 0
M  V30 1089 C 101.599 3.36195 -1.21275 0
M  V30 1090 C 101.428 3.58216 -2.71866 0
M  V30 1091 C 100.198 3.7444 -3.39298 0
M  V30 1092 C 102.396 3.57134 -3.70081 0
M  V30 1093 N 100.378 3.84389 -4.78663 0
M  V30 1094 C 101.749 3.73038 -4.9522 0
M  V30 1095 C 103.804 3.40332 -3.63426 0
M  V30 1096 C 102.507 3.73879 -6.14497 0
M  V30 1097 C 104.533 3.42466 -4.82153 0
M  V30 1098 C 103.895 3.58887 -6.06118 0
M  V30 1099 H 99.9938 0.704081 -0.340284 0
M  V30 1100 H 102.578 1.39885 -1.35426 0
M  V30 1101 H 100.749 3.82522 -0.673179 0
M  V30 1102 H 102.481 3.94839 -0.887917 0
M  V30 1103 H 99.2358 3.74662 -2.89699 0
M  V30 1104 H 99.6598 3.93138 -5.51155 0
M  V30 1105 H 104.302 3.26566 -2.68541 0
M  V30 1106 H 102.02 3.86427 -7.09718 0
M  V30 1107 H 105.606 3.30712 -4.78666 0
M  V30 1108 H 104.486 3.60454 -6.9645 0
M  V30 1109 N 101.989 0.842826 1.3317 0
M  V30 1110 C 103.237 0.439577 1.97262 0
M  V30 1111 C 103.558 -1.00548 1.67078 0
M  V30 1112 O 102.828 -1.70098 0.971779 0
M  V30 1113 H 101.408 0.159558 0.72976 0
M  V30 1114 H 104.07 1.07665 1.62463 0
M  V30 1115 H 103.166 0.574886 3.0676 0
M  V30 1116 N 103.467 -1.45747 0.599634 0
M  V30 1117 C 104.878 -1.85853 0.177681 0
M  V30 1118 C 105.229 -1.50102 -1.26348 0
M  V30 1119 O 104.354 -0.923905 -1.95686 0
M  V30 1120 C 104.949 -3.37326 0.315688 0
M  V30 1121 C 103.508 -3.76365 -0.0515144 0
M  V30 1122 C 102.655 -2.69722 0.643822 0
M  V30 1123 H 105.606 -1.36661 0.806814 0
M  V30 1124 H 105.627 -3.77778 -0.454321 0
M  V30 1125 H 105.139 -3.63315 1.36468 0
M  V30 1126 H 103.24 -3.55993 -1.09999 0
M  V30 1127 H 103.353 -4.77916 0.336594 0
M  V30 1128 H 101.717 -2.54567 0.0822881 0
M  V30 1129 H 102.5 -2.98549 1.6948 0
M  V30 1130 N 104.945 -0.338344 -1.53925 0
M  V30 1131 C 106.17 0.263987 -2.05713 0
M  V30 1132 C 106.595 1.43847 -1.21201 0
M  V30 1133 O 105.953 1.79904 -0.224535 0
M  V30 1134 C 106.001 0.662 -3.54471 0
M  V30 1135 O 105.105 1.76265 -3.72833 0
M  V30 1136 H 104.446 0.0448722 -0.662482 0
M  V30 1137 H 106.976 -0.491048 -1.9862 0
M  V30 1138 H 106.986 0.940594 -3.9701 0
M  V30 1139 H 105.661 -0.196937 -4.15433 0
M  V30 1140 H 104.238 1.48173 -3.42198 0
M  V30 1141 N 106.423 1.57458 -0.0668435 0
M  V30 1142 C 107.834 1.80776 0.466558 0
M  V30 1143 C 108.185 0.980361 1.69951 0
M  V30 1144 O 107.31 0.201441 2.1546 0
M  V30 1145 C 107.905 3.27881 0.85321 0
M  V30 1146 C 106.464 3.52062 1.3315 0
M  V30 1147 C 105.611 2.75513 0.314264 0
M  V30 1148 H 108.562 1.5598 -0.292588 0
M  V30 1149 H 108.583 3.39659 1.715 0
M  V30 1150 H 108.095 3.88075 -0.0443439 0
M  V30 1151 H 106.196 2.97167 2.24772 0
M  V30 1152 H 106.309 4.60762 1.31285 0
M  V30 1153 H 104.673 2.42123 0.790492 0
M  V30 1154 H 105.456 3.38442 -0.575477 0
M  V30 1155 N 107.901 -0.206675 1.56239 0
M  V30 1156 C 108.811 -1.27686 1.96808 0
M  V30 1157 C 109.827 -1.50455 0.874035 0
M  V30 1158 O 111.003 -1.63295 1.17884 0
M  V30 1159 C 108.068 -2.60358 2.28942 0
M  V30 1160 C 107.129 -2.45762 3.51994 0
M  V30 1161 C 106.362 -3.72108 3.82585 0
M  V30 1162 O 106.585 -4.75776 3.14631 0
M  V30 1163 O 105.519 -3.6833 4.76043 0
M  V30 1164 H 109.345 -0.962593 2.88041 0
M  V30 1165 H 106.93 -0.410746 1.43643 0
M  V30 1166 H 108.812 -3.38687 2.50737 0
M  V30 1167 H 107.487 -2.91435 1.4088 0
M  V30 1168 H 106.394 -1.65584 3.35459 0
M  V30 1169 H 107.727 -2.19621 4.40486 0
M  V30 1170 N 109.379 -1.50304 -0.473955 0
M  V30 1171 C 110.627 -1.60832 -1.22382 0
M  V30 1172 C 110.948 -0.30939 -1.9253 0
M  V30 1173 O 110.218 0.67296 -1.83978 0
M  V30 1174 H 108.798 -0.592652 -0.454723 0
M  V30 1175 H 111.46 -1.87068 -0.546968 0
M  V30 1176 H 110.556 -2.41803 -1.97327 0
M  V30 1177 N 110.857 0.726932 -1.39834 0
M  V30 1178 C 112.268 1.30558 -1.3346 0
M  V30 1179 C 112.619 1.962 -0.00273003 0
M  V30 1180 O 111.744 1.96826 0.899371 0
M  V30 1181 C 112.339 2.37404 -2.41713 0
M  V30 1182 C 110.898 2.90921 -2.38835 0
M  V30 1183 C 110.045 1.64578 -2.2318 0
M  V30 1184 H 112.996 0.523862 -1.49804 0
M  V30 1185 H 113.017 3.17984 -2.08966 0
M  V30 1186 H 112.529 1.89599 -3.38635 0
M  V30 1187 H 110.63 3.42985 -1.45575 0
M  V30 1188 H 110.743 3.43487 -3.33997 0
M  V30 1189 H 109.107 1.89219 -1.70494 0
M  V30 1190 H 109.89 1.18814 -3.22084 0
M  V30 1191 N 112.336 1.25143 0.95797 0
M  V30 1192 C 113.747 1.08851 1.51685 0
M  V30 1193 C 114.098 -0.33687 1.93286 0
M  V30 1194 O 113.223 -1.22644 1.7829 0
M  V30 1195 C 113.818 1.96978 2.75654 0
M  V30 1196 C 112.377 1.84881 3.27866 0
M  V30 1197 C 111.524 1.91329 2.0072 0
M  V30 1198 H 114.475 1.38478 0.77522 0
M  V30 1199 H 114.496 1.5078 3.4935 0
M  V30 1200 H 114.008 3.00712 2.45345 0
M  V30 1201 H 112.109 0.840182 3.63004 0
M  V30 1202 H 112.222 2.6951 3.96107 0
M  V30 1203 H 110.586 1.35174 2.15871 0
M  V30 1204 H 111.369 2.96661 1.72764 0
M  V30 1205 N 113.814 -1.1601 1.06675 0
M  V30 1206 C 114.724 -2.24156 0.692179 0
M  V30 1207 C 115.74 -1.71507 -0.293513 0
M  V30 1208 O 116.916 -2.009 -0.141861 0
M  V30 1209 C 113.981 -3.46587 0.0884131 0
M  V30 1210 C 113.042 -4.14257 1.12646 0
M  V30 1211 C 112.275 -5.30844 0.551416 0
M  V30 1212 O 112.498 -5.66858 -0.634656 0
M  V30 1213 O 111.432 -5.87848 1.29298 0
M  V30 1214 H 115.258 -2.58513 1.59388 0
M  V30 1215 H 112.843 -1.23599 0.83926 0
M  V30 1216 H 114.725 -4.20679 -0.246361 0
M  V30 1217 H 113.4 -3.13994 -0.786712 0
M  V30 1218 H 112.307 -3.42118 1.51348 0
M  V30 1219 H 113.64 -4.50914 1.97325 0
M  V30 1220 N 115.292 -0.849877 -1.32721 0
M  V30 1221 C 116.52 -0.464754 -2.01613 0
M  V30 1222 C 116.935 0.937191 -1.63897 0
M  V30 1223 O 116.292 1.61081 -0.857856 0
M  V30 1224 C 116.343 -0.588638 -3.56675 0
M  V30 1225 O 116.064 -1.93535 -3.93034 0
M  V30 1226 C 117.565 -0.2019 -4.4284 0
M  V30 1227 H 114.785 -0.183215 -0.645502 0
M  V30 1228 H 117.329 -1.1455 -1.69407 0
M  V30 1229 H 115.484 0.0443159 -3.87375 0
M  V30 1230 H 115.898 -1.92871 -4.87751 0
M  V30 1231 H 117.372 -0.339599 -5.50954 0
M  V30 1232 H 117.849 0.857224 -4.30753 0
M  V30 1233 H 118.455 -0.809733 -4.17521 0
M  V30 1234 N 116.77 1.45427 -0.607355 0
M  V30 1235 C 118.181 1.85756 -0.187535 0
M  V30 1236 C 118.532 1.5077 1.25551 0
M  V30 1237 O 117.657 0.93427 1.95193 0
M  V30 1238 C 118.252 3.37154 -0.333572 0
M  V30 1239 C 116.811 3.76387 0.0315542 0
M  V30 1240 C 115.958 2.69377 -0.658117 0
M  V30 1241 H 118.909 1.36231 -0.81405 0
M  V30 1242 H 118.93 3.78014 0.43428 0
M  V30 1243 H 118.442 3.62586 -1.38393 0
M  V30 1244 H 116.543 3.56571 1.0811 0
M  V30 1245 H 116.656 4.77731 -0.361935 0
M  V30 1246 H 115.02 2.5452 -0.0957873 0
M  V30 1247 H 115.803 2.97646 -1.7106 0
M  V30 1248 N 118.248 0.346503 1.53744 0
M  V30 1249 C 119.195 -0.508914 2.25119 0
M  V30 1250 C 120.165 -1.09315 1.25058 0
M  V30 1251 O 121.35 -1.12921 1.53797 0
M  V30 1252 C 118.49 -1.65246 3.02965 0
M  V30 1253 C 117.603 -1.09525 4.17886 0
M  V30 1254 C 116.738 -2.20634 4.83212 0
M  V30 1255 C 115.777 -1.62279 5.90196 0
M  V30 1256 N 114.914 -2.67143 6.49291 0
M  V30 1257 H 119.754 0.106283 2.9781 0
M  V30 1258 H 117.291 0.0642227 1.4696 0
M  V30 1259 H 119.249 -2.32574 3.4636 0
M  V30 1260 H 117.879 -2.2386 2.32565 0
M  V30 1261 H 116.931 -0.312818 3.79112 0
M  V30 1262 H 118.243 -0.628444 4.94825 0
M  V30 1263 H 117.397 -2.95821 5.29693 0
M  V30 1264 H 116.136 -2.70659 4.05703 0
M  V30 1265 H 115.141 -0.855989 5.43096 0
M  V30 1266 H 116.366 -1.13102 6.69615 0
M  V30 1267 H 114.312 -3.16417 5.74645 0
M  V30 1268 H 114.229 -2.25093 7.21713 0
M  V30 1269 H 115.497 -3.4209 7.00425 0
M  V30 1270 N 119.726 -1.57421 0.075193 0
M  V30 1271 C 120.974 -1.93236 -0.591974 0
M  V30 1272 C 121.295 -0.956241 -1.69944 0
M  V30 1273 O 120.565 -0.00494792 -1.95899 0
M  V30 1274 H 119.145 -0.713355 -0.22166 0
M  V30 1275 H 121.807 -1.9444 0.133848 0
M  V30 1276 H 120.903 -2.95131 -1.01509 0
M  V30 1277 N 121.204 0.198386 -1.56346 0
M  V30 1278 C 122.167 1.22952 -1.93431 0
M  V30 1279 C 123.167 1.38611 -0.815092 0
M  V30 1280 O 124.357 1.36479 -1.08255 0
M  V30 1281 C 121.489 2.59946 -2.20546 0
M  V30 1282 H 122.682 0.912626 -2.85677 0
M  V30 1283 H 120.235 0.43977 -1.49986 0
M  V30 1284 H 120.97 2.96696 -1.30927 0
M  V30 1285 H 120.755 2.49953 -3.02102 0
M  V30 1286 H 122.245 3.3431 -2.50253 0
M  V30 1287 N 122.682 1.50554 0.465978 0
M  V30 1288 C 123.645 1.69233 1.54574 0
M  V30 1289 C 124.645 0.562901 1.50626 0
M  V30 1290 O 125.835 0.830016 1.53155 0
M  V30 1291 C 122.967 1.7223 2.94193 0
M  V30 1292 H 124.16 2.65571 1.39327 0
M  V30 1293 H 121.713 1.40111 0.692711 0
M  V30 1294 H 122.448 0.77603 3.14878 0
M  V30 1295 H 122.233 2.54285 2.98466 0
M  V30 1296 H 123.723 1.88618 3.72576 0
M  V30 1297 N 124.16 -0.719506 1.40217 0
M  V30 1298 C 125.09 -1.8465 1.42922 0
M  V30 1299 C 126.071 -1.67599 0.29062 0
M  V30 1300 O 127.256 -1.87688 0.498677 0
M  V30 1301 C 124.386 -3.22565 1.28722 0
M  V30 1302 C 123.34 -3.54281 2.40144 0
M  V30 1303 C 122.666 -4.91298 2.11023 0
M  V30 1304 C 123.966 -3.55676 3.82481 0
M  V30 1305 H 125.66 -1.82644 2.37237 0
M  V30 1306 H 123.206 -0.877305 1.1419 0
M  V30 1307 H 125.159 -4.01095 1.29232 0
M  V30 1308 H 123.883 -3.25137 0.308811 0
M  V30 1309 H 122.542 -2.78088 2.38877 0
M  V30 1310 H 122.19 -4.90468 1.11582 0
M  V30 1311 H 121.89 -5.13485 2.8567 0
M  V30 1312 H 123.414 -5.72166 2.13209 0
M  V30 1313 H 124.828 -4.24254 3.85592 0
M  V30 1314 H 123.225 -3.89388 4.56614 0
M  V30 1315 H 124.295 -2.55144 4.12346 0
M  V30 1316 N 125.638 -1.25649 -0.95132 0
M  V30 1317 C 126.601 -1.06399 -2.03007 0
M  V30 1318 C 127.601 -0.0156794 -1.60792 0
M  V30 1319 O 128.791 -0.25817 -1.72276 0
M  V30 1320 C 125.923 -0.616184 -3.35285 0
M  V30 1321 H 127.116 -2.02164 -2.21517 0
M  V30 1322 H 124.669 -1.08103 -1.12887 0
M  V30 1323 H 125.404 0.343917 -3.22471 0
M  V30 1324 H 125.189 -1.37301 -3.67275 0
M  V30 1325 H 126.679 -0.503032 -4.14559 0
M  V30 1326 N 127.117 1.15442 -1.07289 0
M  V30 1327 C 128.027 2.23786 -0.704057 0
M  V30 1328 C 129.043 1.7166 0.284413 0
M  V30 1329 O 130.219 2.00972 0.131205 0
M  V30 1330 C 127.284 3.46535 -0.106792 0
M  V30 1331 C 126.345 4.13654 -1.14842 0
M  V30 1332 C 125.578 5.30544 -0.57956 0
M  V30 1333 O 125.801 5.67187 0.604585 0
M  V30 1334 O 124.735 5.87154 -1.32414 0
M  V30 1335 H 128.561 2.57664 -1.60757 0
M  V30 1336 H 126.146 1.23152 -0.845803 0
M  V30 1337 H 128.028 4.20804 0.224048 0
M  V30 1338 H 126.703 3.14407 0.770049 0
M  V30 1339 H 125.61 3.4131 -1.5316 0
M  V30 1340 H 126.943 4.49861 -1.99714 0
M  V30 1341 N 128.595 0.856903 1.32268 0
M  V30 1342 C 129.558 0.308171 2.27119 0
M  V30 1343 C 130.558 -0.533421 1.51695 0
M  V30 1344 O 131.748 -0.344607 1.70757 0
M  V30 1345 C 128.88 -0.563757 3.36206 0
M  V30 1346 H 130.073 1.14535 2.77167 0
M  V30 1347 H 127.626 0.631421 1.42978 0
M  V30 1348 H 128.361 -1.42266 2.91429 0
M  V30 1349 H 128.146 0.0386749 3.92081 0
M  V30 1350 H 129.636 -0.940386 4.06874 0
M  V30 1351 N 130.073 -1.45103 0.615059 0
M  V30 1352 C 131.319 -2.02483 0.113347 0
M  V30 1353 C 131.652 -1.48146 -1.25564 0
M  V30 1354 O 130.927 -0.659104 -1.82992 0
M  V30 1355 C 131.21 -3.60005 0.0825278 0
M  V30 1356 C 131.063 -4.2466 1.48271 0
M  V30 1357 C 132.382 -4.35972 -0.601401 0
M  V30 1358 H 129.501 -0.735764 0.0426632 0
M  V30 1359 H 132.143 -1.72868 0.788461 0
M  V30 1360 H 130.293 -3.85367 -0.492378 0
M  V30 1361 H 131.965 -4.10458 2.10527 0
M  V30 1362 H 130.208 -3.82772 2.04127 0
M  V30 1363 H 130.879 -5.336 1.41332 0
M  V30 1364 H 133.355 -4.15947 -0.112666 0
M  V30 1365 H 132.231 -5.45697 -0.592097 0
M  V30 1366 H 132.492 -4.09391 -1.66887 0
M  V30 1367 N 131.551 -0.354651 -1.53558 0
M  V30 1368 C 132.967 -0.00315426 -1.596 0
M  V30 1369 C 133.167 1.47741 -1.37021 0
M  V30 1370 O 132.223 2.23759 -1.16996 0
M  V30 1371 C 133.536 -0.44929 -2.97325 0
M  V30 1372 C 135.084 -0.402578 -3.104 0
M  V30 1373 C 135.559 -0.824355 -4.5052 0
M  V30 1374 N 137.05 -0.778979 -4.56603 0
M  V30 1375 C 137.785 -1.07715 -5.63192 0
M  V30 1376 N 137.281 -1.44405 -6.77583 0
M  V30 1377 N 139.074 -1.00066 -5.53121 0
M  V30 1378 H 131.225 -1.31893 -1.66487 0
M  V30 1379 H 133.488 -0.538388 -0.780284 0
M  V30 1380 H 133.194 -1.48202 -3.1895 0
M  V30 1381 H 133.068 0.169772 -3.76818 0
M  V30 1382 H 135.455 0.621004 -2.88492 0
M  V30 1383 H 135.536 -1.05699 -2.32941 0
M  V30 1384 H 135.18 -1.846 -4.73165 0
M  V30 1385 H 135.11 -0.147304 -5.26394 0
M  V30 1386 H 137.601 -0.508528 -3.74463 0
M  V30 1387 H 137.914 -1.65612 -7.54846 0
M  V30 1388 H 136.259 -1.4826 -6.79002 0
M  V30 1389 H 139.45 -0.713293 -4.62633 0
M  V30 1390 H 139.623 -1.23638 -6.36096 0
M  V30 1391 N 133.029 1.57378 -0.0835403 0
M  V30 1392 C 134.445 1.57246 0.273109 0
M  V30 1393 C 134.645 1.09385 1.69225 0
M  V30 1394 O 133.701 0.765051 2.40631 0
M  V30 1395 C 135.014 3.00614 0.0720628 0
M  V30 1396 C 136.562 3.12684 0.1407 0
M  V30 1397 C 137.037 4.57989 -0.0322094 0
M  V30 1398 N 138.528 4.63194 0.0230085 0
M  V30 1399 C 139.263 5.73335 -0.0861941 0
M  V30 1400 N 138.759 6.9235 -0.24958 0
M  V30 1401 N 140.552 5.62093 -0.0282886 0
M  V30 1402 H 132.703 1.86801 -1.0109 0
M  V30 1403 H 134.966 0.861687 -0.395222 0
M  V30 1404 H 134.672 3.39786 -0.907662 0
M  V30 1405 H 134.546 3.68193 0.81936 0
M  V30 1406 H 136.933 2.73391 1.11092 0
M  V30 1407 H 137.014 2.47719 -0.637896 0
M  V30 1408 H 136.658 4.97973 -0.999247 0
M  V30 1409 H 136.588 5.21 0.765937 0
M  V30 1410 H 139.079 3.77613 0.14722 0
M  V30 1411 H 139.392 7.72117 -0.324733 0
M  V30 1412 H 137.737 6.94415 -0.285097 0
M  V30 1413 H 140.928 4.67997 0.0981408 0
M  V30 1414 H 141.101 6.47895 -0.116845 0
M  V30 1415 N 134.507 -0.190092 1.56449 0
M  V30 1416 C 135.754 -0.909705 1.80916 0
M  V30 1417 C 136.082 -1.83047 0.657583 0
M  V30 1418 O 135.337 -1.92428 -0.356356 0
M  V30 1419 C 135.636 -1.75382 3.1141 0
M  V30 1420 C 135.302 -0.983606 4.40041 0
M  V30 1421 C 133.964 -0.770967 4.74984 0
M  V30 1422 C 136.316 -0.442024 5.19322 0
M  V30 1423 C 133.644 -0.0053448 5.867 0
M  V30 1424 C 135.996 0.310412 6.31838 0
M  V30 1425 C 134.66 0.534023 6.6536 0
M  V30 1426 H 133.93 -0.332885 0.662019 0
M  V30 1427 H 136.577 -0.175762 1.90692 0
M  V30 1428 H 134.882 -2.55659 2.96893 0
M  V30 1429 H 136.579 -2.31331 3.27547 0
M  V30 1430 H 133.169 -1.15936 4.12622 0
M  V30 1431 H 137.353 -0.593693 4.92736 0
M  V30 1432 H 132.609 0.177825 6.11141 0
M  V30 1433 H 136.783 0.737419 6.92485 0
M  V30 1434 H 134.41 1.12918 7.51767 0
M  V30 1435 N 135.985 -1.50799 -0.457987 0
M  V30 1436 C 136.917 -1.66786 -1.57211 0
M  V30 1437 C 137.93 -0.548962 -1.53265 0
M  V30 1438 O 139.119 -0.8226 -1.58416 0
M  V30 1439 C 136.219 -1.64834 -2.96113 0
M  V30 1440 C 135.392 -2.92971 -3.24787 0
M  V30 1441 C 134.451 -2.83485 -4.43309 0
M  V30 1442 O 133.477 -3.5744 -4.42973 0
M  V30 1443 N 134.679 -1.97929 -5.45714 0
M  V30 1444 H 137.444 -2.62889 -1.43909 0
M  V30 1445 H 135.005 -1.48427 -0.646617 0
M  V30 1446 H 136.997 -1.56084 -3.7339 0
M  V30 1447 H 135.567 -0.764118 -3.03117 0
M  V30 1448 H 134.787 -3.15749 -2.36 0
M  V30 1449 H 136.075 -3.77834 -3.40762 0
M  V30 1450 H 135.473 -1.37182 -5.48815 0
M  V30 1451 H 134.03 -1.95073 -6.21924 0
M  V30 1452 N 137.463 0.71206 -1.40597 0
M  V30 1453 C 138.879 1.02058 -1.22704 0
M  V30 1454 C 139.079 2.01228 -0.104729 0
M  V30 1455 O 138.135 2.4674 0.53624 0
M  V30 1456 C 139.448 1.56094 -2.57012 0
M  V30 1457 C 140.996 1.6806 -2.64054 0
M  V30 1458 C 141.471 2.25501 -3.9864 0
M  V30 1459 N 142.962 2.32882 -4.004 0
M  V30 1460 C 143.697 2.78317 -5.01325 0
M  V30 1461 N 143.193 3.23478 -6.12645 0
M  V30 1462 N 144.986 2.77733 -4.88693 0
M  V30 1463 H 137.137 0.0547896 -2.12329 0
M  V30 1464 H 139.4 0.0869027 -0.944008 0
M  V30 1465 H 139.106 0.906865 -3.39807 0
M  V30 1466 H 138.98 2.54564 -2.78347 0
M  V30 1467 H 141.367 2.32583 -1.81629 0
M  V30 1468 H 141.448 0.681802 -2.46546 0
M  V30 1469 H 141.092 1.61598 -4.81506 0
M  V30 1470 H 141.022 3.26102 -4.13479 0
M  V30 1471 H 143.513 2.00991 -3.20017 0
M  V30 1472 H 143.826 3.56725 -6.85542 0
M  V30 1473 H 142.171 3.21429 -6.16205 0
M  V30 1474 H 145.362 2.4179 -4.00818 0
M  V30 1475 H 145.535 3.12826 -5.67489 0
M  V30 1476 N 138.941 1.26152 0.944643 0
M  V30 1477 C 139.904 1.07474 2.0244 0
M  V30 1478 C 140.904 0.0242064 1.60782 0
M  V30 1479 O 142.094 0.267302 1.72137 0
M  V30 1480 C 139.226 0.633956 3.34953 0
M  V30 1481 H 140.419 2.03336 2.20442 0
M  V30 1482 H 137.972 1.087 1.12312 0
M  V30 1483 H 138.707 -0.326811 3.22649 0
M  V30 1484 H 138.492 1.39247 3.66542 0
M  V30 1485 H 139.982 0.52501 4.14287 0
M  V30 1486 N 140.419 -1.14872 1.07899 0
M  V30 1487 C 141.367 -2.21857 0.698727 0
M  V30 1488 C 142.361 -1.66845 -0.293086 0
M  V30 1489 O 143.567 -1.79321 -0.156204 0
M  V30 1490 H 139.942 -0.722691 0.207899 0
M  V30 1491 H 141.913 -2.51205 1.61054 0
M  V30 1492 C 140.662 -3.47498 0.11858 0
M  V30 1493 H 139.985 -3.90154 0.872914 0
M  V30 1494 H 141.425 -4.23858 -0.109759 0
M  V30 1495 C 139.884 -3.16947 -1.1422 0
M  V30 1496 O 140.414 -3.3426 -2.22785 0
M  V30 1497 N 138.62 -2.70946 -1.05055 0
M  V30 1498 H 138.167 -2.57058 -0.167038 0
M  V30 1499 H 138.125 -2.50879 -1.89491 0
M  V30 1500 N 141.898 -0.863906 -1.31812 0
M  V30 1501 C 142.861 -0.320212 -2.26952 0
M  V30 1502 C 143.861 0.525369 -1.51975 0
M  V30 1503 O 145.051 0.335547 -1.70938 0
M  V30 1504 C 142.183 0.545919 -3.365 0
M  V30 1505 H 143.376 -1.16004 -2.76556 0
M  V30 1506 H 140.929 -0.638995 -1.42641 0
M  V30 1507 H 141.664 1.40718 -2.92179 0
M  V30 1508 H 141.449 -0.0594674 -3.92055 0
M  V30 1509 H 142.939 0.918796 -4.07367 0
M  V30 1510 N 143.376 1.44774 -0.622745 0
M  V30 1511 C 144.306 2.33382 0.0741861 0
M  V30 1512 C 145.287 1.47719 0.843387 0
M  V30 1513 O 146.472 1.76458 0.810934 0
M  V30 1514 C 143.602 3.30663 1.06204 0
M  V30 1515 C 142.556 4.26079 0.405037 0
M  V30 1516 C 141.882 5.13165 1.5022 0
M  V30 1517 C 143.182 5.1781 -0.683414 0
M  V30 1518 H 144.876 2.91905 -0.665713 0
M  V30 1519 H 142.422 1.40363 -0.321587 0
M  V30 1520 H 144.375 3.9153 1.55827 0
M  V30 1521 H 143.099 2.70331 1.83272 0
M  V30 1522 H 141.758 3.66532 -0.0704683 0
M  V30 1523 H 141.406 4.49191 2.26355 0
M  V30 1524 H 141.106 5.77812 1.06803 0
M  V30 1525 H 142.63 5.76902 2.00041 0
M  V30 1526 H 144.044 5.72661 -0.270631 0
M  V30 1527 H 142.441 5.91015 -1.04023 0
M  V30 1528 H 143.511 4.59326 -1.55395 0
M  V30 1529 N 144.854 0.36279 1.53368 0
M  V30 1530 C 146.265 -0.117022 1.86333 0
M  V30 1531 C 146.616 -1.48397 1.28347 0
M  V30 1532 O 145.741 -2.07787 0.604428 0
M  V30 1533 C 146.336 -0.21912 3.38091 0
M  V30 1534 C 144.895 -0.643184 3.70864 0
M  V30 1535 C 144.042 0.211318 2.76494 0
M  V30 1536 H 146.993 0.581687 1.47655 0
M  V30 1537 H 147.014 -1.04319 3.6592 0
M  V30 1538 H 146.526 0.775902 3.80265 0
M  V30 1539 H 144.627 -1.64654 3.34245 0
M  V30 1540 H 144.74 -0.41973 4.77258 0
M  V30 1541 H 143.104 -0.319367 2.5269 0
M  V30 1542 H 143.887 1.20383 3.21501 0
M  V30 1543 N 146.332 -1.57332 0.0918853 0
M  V30 1544 C 147.295 -2.12708 -0.85369 0
M  V30 1545 C 148.295 -1.05561 -1.213 0
M  V30 1546 O 149.485 -1.31461 -1.14296 0
M  V30 1547 C 146.617 -2.64503 -2.15061 0
M  V30 1548 H 147.81 -2.97573 -0.3729 0
M  V30 1549 H 145.363 -1.55509 -0.157072 0
M  V30 1550 H 146.098 -1.83149 -2.67632 0
M  V30 1551 H 145.883 -3.4284 -1.90272 0
M  V30 1552 H 147.373 -3.07351 -2.82711 0
M  V30 1553 N 147.81 0.181792 -1.56548 0
M  V30 1554 C 149.035 0.920019 -1.85877 0
M  V30 1555 C 149.46 1.75494 -0.677021 0
M  V30 1556 O 148.818 1.77399 0.374056 0
M  V30 1557 C 148.866 1.78112 -3.13542 0
M  V30 1558 O 147.97 2.88152 -2.95029 0
M  V30 1559 H 147.311 0.258334 -0.611686 0
M  V30 1560 H 149.841 0.183092 -2.03779 0
M  V30 1561 H 149.851 2.18314 -3.44678 0
M  V30 1562 H 148.526 1.16777 -3.99169 0
M  V30 1563 H 147.103 2.51609 -2.75222 0
M  V30 1564 N 149.288 1.51039 0.449983 0
M  V30 1565 C 150.536 1.62759 1.19808 0
M  V30 1566 C 150.857 0.339981 1.92013 0
M  V30 1567 O 150.127 -0.643606 1.85026 0
M  V30 1568 H 148.707 0.599811 0.445237 0
M  V30 1569 H 151.369 1.87914 0.517138 0
M  V30 1570 H 150.465 2.44911 1.93455 0
M  V30 1571 N 150.766 -0.704594 1.40972 0
M  V30 1572 C 151.676 -1.84856 1.44448 0
M  V30 1573 C 152.692 -1.70726 0.335961 0
M  V30 1574 O 153.868 -1.92799 0.582276 0
M  V30 1575 C 150.933 -3.20758 1.31587 0
M  V30 1576 C 149.994 -3.47063 2.52677 0
M  V30 1577 C 149.227 -4.76481 2.4042 0
M  V30 1578 O 149.45 -5.52341 1.42391 0
M  V30 1579 O 148.384 -5.03367 3.30007 0
M  V30 1580 H 152.21 -1.8488 2.40942 0
M  V30 1581 H 149.795 -0.85647 1.22413 0
M  V30 1582 H 151.677 -4.01913 1.26665 0
M  V30 1583 H 150.352 -3.21438 0.382049 0
M  V30 1584 H 149.259 -2.65873 2.63177 0
M  V30 1585 H 150.592 -3.5119 3.44858 0
M  V30 1586 N 152.244 -1.26651 -0.937939 0
M  V30 1587 C 153.174 -1.10993 -2.05433 0
M  V30 1588 C 154.155 -0.0142161 -1.70094 0
M  V30 1589 O 155.34 -0.186837 -1.93299 0
M  V30 1590 C 152.47 -0.745561 -3.39203 0
M  V30 1591 C 151.424 -1.79337 -3.88616 0
M  V30 1592 C 150.75 -1.28324 -5.19073 0
M  V30 1593 C 152.05 -3.19553 -4.13138 0
M  V30 1594 H 153.744 -2.0438 -2.1879 0
M  V30 1595 H 151.29 -0.984041 -1.05131 0
M  V30 1596 H 153.243 -0.622888 -4.16771 0
M  V30 1597 H 151.967 0.22401 -3.25831 0
M  V30 1598 H 150.626 -1.90477 -3.13231 0
M  V30 1599 H 150.274 -0.303414 -5.02084 0
M  V30 1600 H 149.974 -1.98369 -5.53103 0
M  V30 1601 H 151.498 -1.1733 -5.99221 0
M  V30 1602 H 152.912 -3.11471 -4.81309 0
M  V30 1603 H 151.309 -3.87218 -4.58457 0
M  V30 1604 H 152.379 -3.65368 -3.18801 0
M  V30 1605 N 153.722 1.14298 -1.08507 0
M  V30 1606 C 154.999 1.81544 -0.728088 0
M  V30 1607 C 155.379 1.95838 0.78808 0
M  V30 1608 O 154.727 1.51904 1.70697 0
M  V30 1609 C 154.937 3.17169 -1.45619 0
M  V30 1610 C 156.285 3.9265 -1.61591 0
M  V30 1611 O 157.309 3.26762 -1.41793 0
M  V30 1612 O 156.168 5.10807 -1.94263 0
M  V30 1613 H 153.262 0.78491 -0.260471 0
M  V30 1614 H 155.808 1.21307 -1.18671 0
M  V30 1615 H 154.58 3.01934 -2.489 0
M  V30 1616 H 154.203 3.851 -0.989124 0
M  V30 1617 N 155.201 0.870884 1.31352 0
M  V30 1618 C 156.164 0.332243 2.26779 0
M  V30 1619 C 157.164 -0.517302 1.52252 0
M  V30 1620 O 158.354 -0.326477 1.71113 0
M  V30 1621 C 155.486 -0.528066 3.36785 0
M  V30 1622 H 156.679 1.17469 2.75937 0
M  V30 1623 H 154.232 0.64655 1.423 0
M  V30 1624 H 154.967 -1.39167 2.92922 0
M  V30 1625 H 154.752 0.0802582 3.92018 0
M  V30 1626 H 156.242 -0.897179 4.07849 0
M  V30 1627 N 156.679 -1.44442 0.630414 0
M  V30 1628 C 157.642 -2.29107 -0.0652523 0
M  V30 1629 C 158.642 -1.41002 -0.772995 0
M  V30 1630 O 159.832 -1.62881 -0.617692 0
M  V30 1631 C 156.964 -3.22564 -1.10296 0
M  V30 1632 H 158.157 -2.92103 0.679401 0
M  V30 1633 H 155.71 -1.51343 0.390517 0
M  V30 1634 H 156.445 -2.64416 -1.87762 0
M  V30 1635 H 156.23 -3.87491 -0.59941 0
M  V30 1636 H 157.72 -3.86167 -1.5895 0
M  V30 1637 N 158.157 -0.370918 -1.53173 0
M  V30 1638 C 159.385 0.217704 -2.05751 0
M  V30 1639 C 159.8 1.42018 -1.24404 0
M  V30 1640 O 159.157 1.80245 -0.286033 0
M  V30 1641 C 159.208 0.605954 -3.56385 0
M  V30 1642 O 158.929 -0.548734 -4.3465 0
M  V30 1643 C 160.43 1.2524 -4.25241 0
M  V30 1644 H 157.65 0.0371659 -0.66997 0
M  V30 1645 H 160.194 -0.530832 -1.9749 0
M  V30 1646 H 158.349 1.3044 -3.6478 0
M  V30 1647 H 158.763 -0.23376 -5.23979 0
M  V30 1648 H 160.237 1.47458 -5.3194 0
M  V30 1649 H 160.714 2.2143 -3.79296 0
M  V30 1650 H 161.32 0.595233 -4.21114 0
M  V30 1651 N 159.635 1.57281 -0.100228 0
M  V30 1652 C 160.565 2.17328 0.853857 0
M  V30 1653 C 161.546 1.10804 1.2906 0
M  V30 1654 O 162.731 1.38963 1.35657 0
M  V30 1655 C 159.861 2.75772 2.11109 0
M  V30 1656 C 158.815 3.87713 1.81279 0
M  V30 1657 C 158.141 4.32882 3.13874 0
M  V30 1658 C 159.441 5.10677 1.09574 0
M  V30 1659 H 161.135 2.97305 0.353545 0
M  V30 1660 H 158.681 1.43009 0.168612 0
M  V30 1661 H 160.634 3.16433 2.78296 0
M  V30 1662 H 159.358 1.93057 2.63432 0
M  V30 1663 H 158.017 3.476 1.16489 0
M  V30 1664 H 157.665 3.47051 3.64095 0
M  V30 1665 H 157.365 5.08358 2.94696 0
M  V30 1666 H 158.889 4.7618 3.82211 0
M  V30 1667 H 160.303 5.48474 1.66879 0
M  V30 1668 H 158.7 5.91615 1.00557 0
M  V30 1669 H 159.77 4.84835 0.0793299 0
M  V30 1670 N 161.113 -0.173488 1.56642 0
M  V30 1671 C 162.076 -1.19859 1.95362 0
M  V30 1672 C 163.076 -1.37296 0.83704 0
M  V30 1673 O 164.266 -1.34739 1.10413 0
M  V30 1674 C 161.398 -2.56405 2.24654 0
M  V30 1675 H 162.591 -0.867062 2.87092 0
M  V30 1676 H 160.144 -0.415853 1.50666 0
M  V30 1677 H 160.879 -2.94576 1.35631 0
M  V30 1678 H 160.664 -2.45115 3.06041 0
M  V30 1679 H 162.154 -3.30287 2.5554 0
M  V30 1680 N 162.591 -1.51276 -0.441967 0
M  V30 1681 C 163.554 -1.7167 -1.51862 0
M  V30 1682 C 164.554 -0.586793 -1.49711 0
M  V30 1683 O 165.744 -0.854276 -1.51815 0
M  V30 1684 C 162.876 -1.76889 -2.91416 0
M  V30 1685 H 164.069 -2.67754 -1.35084 0
M  V30 1686 H 161.622 -1.41196 -0.670333 0
M  V30 1687 H 162.357 -0.826026 -3.13604 0
M  V30 1688 H 162.142 -2.59001 -2.94382 0
M  V30 1689 H 163.632 -1.94522 -3.69528 0
M  V30 1690 N 164.069 0.697108 -1.41344 0
M  V30 1691 C 165.002 1.82134 -1.37486 0
M  V30 1692 C 165.98 1.60784 -0.242351 0
M  V30 1693 O 167.164 1.83553 -0.429012 0
M  V30 1694 C 164.291 3.18788 -1.14421 0
M  V30 1695 C 163.337 3.58932 -2.3037 0
M  V30 1696 S 164.17 3.63916 -3.92843 0
M  V30 1697 C 165.326 5.03298 -3.72078 0
M  V30 1698 H 165.559 1.85129 -2.32625 0
M  V30 1699 H 163.092 0.865671 -1.2785 0
M  V30 1700 H 165.05 3.97677 -1.018 0
M  V30 1701 H 163.711 3.13404 -0.20905 0
M  V30 1702 H 162.904 4.58202 -2.09922 0
M  V30 1703 H 162.506 2.87347 -2.39391 0
M  V30 1704 H 164.798 5.90753 -3.31688 0
M  V30 1705 H 165.741 5.28788 -4.70945 0
M  V30 1706 H 166.149 4.74764 -3.05384 0
M  V30 1707 N 165.547 1.27147 0.931209 0
M  V30 1708 C 166.495 1.09398 2.05268 0
M  V30 1709 C 167.489 0.0180591 1.6939 0
M  V30 1710 O 168.695 0.17551 1.79142 0
M  V30 1711 H 165.07 0.336986 0.672268 0
M  V30 1712 H 167.041 2.04416 2.17386 0
M  V30 1713 C 165.79 0.75424 3.39421 0
M  V30 1714 H 165.113 1.57404 3.67511 0
M  V30 1715 H 166.553 0.669903 4.18674 0
M  V30 1716 C 165.012 -0.541197 3.32525 0
M  V30 1717 O 165.542 -1.57664 3.69466 0
M  V30 1718 N 163.748 -0.535517 2.85623 0
M  V30 1719 H 163.295 0.307511 2.55758 0
M  V30 1720 H 163.253 -1.40236 2.81392 0
M  V30 1721 N 167.025 -1.13721 1.09112 0
M  V30 1722 C 168.441 -1.36914 0.820174 0
M  V30 1723 C 168.641 -1.93356 -0.567079 0
M  V30 1724 O 167.697 -2.15093 -1.32255 0
M  V30 1725 C 169.01 -2.3235 1.90877 0
M  V30 1726 C 170.558 -2.45973 1.93562 0
M  V30 1727 C 171.033 -3.44714 3.01556 0
M  V30 1728 N 172.524 -3.52263 3.00775 0
M  V30 1729 C 173.259 -4.28536 3.80978 0
M  V30 1730 N 172.755 -5.07991 4.71081 0
M  V30 1731 N 174.548 -4.23804 3.69251 0
M  V30 1732 H 166.699 -0.754348 1.98553 0
M  V30 1733 H 168.962 -0.3944 0.862063 0
M  V30 1734 H 168.668 -1.98027 2.90651 0
M  V30 1735 H 168.542 -3.32332 1.78424 0
M  V30 1736 H 170.929 -2.79584 0.944286 0
M  V30 1737 H 171.01 -1.45926 2.10093 0
M  V30 1738 H 170.654 -3.11835 4.00901 0
M  V30 1739 H 170.584 -4.44558 2.82269 0
M  V30 1740 H 173.075 -2.95567 2.35475 0
M  V30 1741 H 173.388 -5.63487 5.28869 0
M  V30 1742 H 171.733 -5.07235 4.75119 0
M  V30 1743 H 174.924 -3.60806 2.98222 0
M  V30 1744 H 175.097 -4.82995 4.31995 0
M  V30 1745 N 168.503 -0.877838 -1.30888 0
M  V30 1746 C 169.914 -0.544193 -1.78593 0
M  V30 1747 C 170.265 0.939301 -1.72254 0
M  V30 1748 O 169.39 1.7337 -1.29505 0
M  V30 1749 C 169.985 -0.98105 -3.24285 0
M  V30 1750 C 168.544 -0.698935 -3.69854 0
M  V30 1751 C 167.691 -1.168 -2.51502 0
M  V30 1752 H 170.642 -1.06278 -1.17859 0
M  V30 1753 H 170.663 -0.307009 -3.79259 0
M  V30 1754 H 170.175 -2.06079 -3.28866 0
M  V30 1755 H 168.276 0.369112 -3.70767 0
M  V30 1756 H 168.389 -1.28148 -4.61644 0
M  V30 1757 H 166.753 -0.587535 -2.47831 0
M  V30 1758 H 167.536 -2.25533 -2.58824 0
M  V30 1759 N 169.982 1.44106 -0.638065 0
M  V30 1760 C 171.398 1.56672 -0.304286 0
M  V30 1761 C 171.598 1.6244 1.19228 0
M  V30 1762 O 170.654 1.57121 1.9766 0
M  V30 1763 C 171.967 2.83503 -1.00231 0
M  V30 1764 C 173.515 2.97226 -0.981116 0
M  V30 1765 C 173.99 4.26868 -1.65974 0
M  V30 1766 N 175.481 4.33698 -1.62666 0
M  V30 1767 C 176.216 5.32745 -2.12063 0
M  V30 1768 N 175.712 6.38157 -2.6968 0
M  V30 1769 N 177.505 5.24299 -2.02651 0
M  V30 1770 H 169.656 1.38605 -1.60942 0
M  V30 1771 H 171.919 0.664661 -0.675965 0
M  V30 1772 H 171.625 2.85251 -2.0573 0
M  V30 1773 H 171.499 3.73251 -0.54439 0
M  V30 1774 H 173.886 2.95027 0.0654188 0
M  V30 1775 H 173.967 2.08808 -1.47759 0
M  V30 1776 H 173.611 4.29826 -2.70576 0
M  V30 1777 H 173.541 5.14156 -1.13804 0
M  V30 1778 H 176.032 3.58138 -1.20606 0
M  V30 1779 H 176.345 7.10029 -3.05087 0
M  V30 1780 H 174.69 6.38823 -2.73734 0
M  V30 1781 H 177.881 4.4086 -1.57353 0
M  V30 1782 H 178.054 6.01334 -2.41457 0
M  V30 1783 N 171.46 0.379036 1.52974 0
M  V30 1784 C 172.7 -0.206325 2.03356 0
M  V30 1785 C 173.064 -1.44892 1.25977 0
M  V30 1786 O 174.265 -2.11078 1.66432 0
M  V30 1787 C 172.536 -0.477887 3.54191 0
M  V30 1788 S 174.095 -1.035 4.26419 0
M  V30 1789 H 170.913 -0.0590259 0.708546 0
M  V30 1790 H 173.515 0.525013 1.88319 0
M  V30 1791 H 172.219 0.433745 4.08101 0
M  V30 1792 H 171.75 -1.23793 3.73415 0
M  V30 1793 H 173.765 -2.31821 4.38718 0
M  V30 1794 N 172.938 -1.57226 0.108567 0
M  V30 1795 C 174.186 -1.94448 -0.550853 0
M  V30 1796 C 174.507 -0.992074 -1.67878 0
M  V30 1797 O 173.777 -0.0465 -1.95845 0
M  V30 1798 H 172.357 -0.717897 -0.206479 0
M  V30 1799 H 175.019 -1.94112 0.175062 0
M  V30 1800 H 174.115 -2.97218 -0.952259 0
M  V30 1801 N 174.416 0.165178 -1.56732 0
M  V30 1802 C 175.662 0.882112 -1.82611 0
M  V30 1803 C 175.995 1.81628 -0.687378 0
M  V30 1804 O 175.27 1.92009 0.310267 0
M  V30 1805 C 175.553 1.67245 -3.18906 0
M  V30 1806 C 175.406 0.760987 -4.43316 0
M  V30 1807 C 176.725 2.63884 -3.52212 0
M  V30 1808 H 173.844 0.319242 -0.664269 0
M  V30 1809 H 176.486 0.148052 -1.89422 0
M  V30 1810 H 174.636 2.29824 -3.1323 0
M  V30 1811 H 176.308 0.147596 -4.61064 0
M  V30 1812 H 174.551 0.0694102 -4.33744 0
M  V30 1813 H 175.222 1.34962 -5.35247 0
M  V30 1814 H 177.698 2.11429 -3.58381 0
M  V30 1815 H 176.574 3.16245 -4.48643 0
M  V30 1816 H 176.835 3.44377 -2.77231 0
M  V30 1817 N 175.894 1.51508 0.433938 0
M  V30 1818 C 177.305 1.56784 1.01369 0
M  V30 1819 C 177.656 0.393349 1.92217 0
M  V30 1820 O 176.781 -0.489441 2.10792 0
M  V30 1821 C 177.376 2.84144 1.8452 0
M  V30 1822 C 175.935 2.9198 2.37539 0
M  V30 1823 C 175.082 2.51482 1.16843 0
M  V30 1824 H 178.033 1.57236 0.215081 0
M  V30 1825 H 178.054 2.68098 2.70007 0
M  V30 1826 H 177.566 3.69607 1.18373 0
M  V30 1827 H 175.667 2.10955 3.0713 0
M  V30 1828 H 175.78 3.95704 2.70103 0
M  V30 1829 H 174.144 2.04758 1.51481 0
M  V30 1830 H 174.927 3.39293 0.523015 0
M  V30 1831 N 177.372 -0.689602 1.41712 0
M  V30 1832 C 178.649 -1.44457 1.31877 0
M  V30 1833 C 179.029 -2.11039 -0.0508537 0
M  V30 1834 O 178.377 -2.02138 -1.06547 0
M  V30 1835 C 178.587 -2.45913 2.47645 0
M  V30 1836 C 179.935 -3.10991 2.89084 0
M  V30 1837 O 180.959 -2.56238 2.47428 0
M  V30 1838 O 179.818 -4.10174 3.61137 0
M  V30 1839 H 176.912 -0.64362 0.519309 0
M  V30 1840 H 179.458 -0.719576 1.53689 0
M  V30 1841 H 178.23 -1.95409 3.39015 0
M  V30 1842 H 177.853 -3.25913 2.27742 0
M  V30 1843 N 178.85 -1.27639 -0.924453 0
M  V30 1844 C 179.783 -1.04966 -2.02626 0
M  V30 1845 C 180.761 0.0309505 -1.62571 0
M  V30 1846 O 181.945 -0.114846 -1.8815 0
M  V30 1847 C 179.072 -0.59292 -3.3347 0
M  V30 1848 C 178.118 -1.66858 -3.92506 0
M  V30 1849 S 178.951 -3.2619 -4.24689 0
M  V30 1850 C 180.107 -2.82325 -5.58609 0
M  V30 1851 H 180.34 -1.98252 -2.21547 0
M  V30 1852 H 177.873 -1.11506 -1.06798 0
M  V30 1853 H 179.831 -0.336086 -4.09122 0
M  V30 1854 H 178.492 0.319939 -3.12466 0
M  V30 1855 H 177.685 -1.30038 -4.86935 0
M  V30 1856 H 177.287 -1.87766 -3.2345 0
M  V30 1857 H 179.579 -2.2783 -6.38044 0
M  V30 1858 H 180.522 -3.75511 -6.00331 0
M  V30 1859 H 180.93 -2.21367 -5.19285 0
M  V30 1860 N 180.328 1.1314 -1.09713 0
M  V30 1861 C 181.744 1.36477 -0.827423 0
M  V30 1862 C 181.944 1.93654 0.556817 0
M  V30 1863 O 181 2.15791 1.31112 0
M  V30 1864 C 182.313 2.31334 -1.92106 0
M  V30 1865 C 183.861 2.44943 -1.94864 0
M  V30 1866 C 184.336 3.4311 -3.0338 0
M  V30 1867 N 185.827 3.50662 -3.02639 0
M  V30 1868 C 186.562 4.2651 -3.83246 0
M  V30 1869 N 186.058 5.05485 -4.73768 0
M  V30 1870 N 187.851 4.2184 -3.71493 0
M  V30 1871 H 180.002 0.743807 -1.9895 0
M  V30 1872 H 182.265 0.389823 -0.864143 0
M  V30 1873 H 181.971 1.96483 -2.91698 0
M  V30 1874 H 181.845 3.31381 -1.80184 0
M  V30 1875 H 184.232 2.79079 -0.959099 0
M  V30 1876 H 184.313 1.4481 -2.10864 0
M  V30 1877 H 183.957 3.09704 -4.02549 0
M  V30 1878 H 183.887 4.43055 -2.84622 0
M  V30 1879 H 186.378 2.94315 -2.37039 0
M  V30 1880 H 186.691 5.60675 -5.3185 0
M  V30 1881 H 185.036 5.04708 -4.77802 0
M  V30 1882 H 188.227 3.5922 -3.00131 0
M  V30 1883 H 188.4 4.80697 -4.3455 0
M  V30 1884 N 181.806 0.884767 1.30421 0
M  V30 1885 C 183.217 0.553656 1.78302 0
M  V30 1886 C 183.568 -0.930153 1.7275 0
M  V30 1887 O 182.693 -1.72681 1.30423 0
M  V30 1888 C 183.288 0.998234 3.2376 0
M  V30 1889 C 181.847 0.71854 3.69478 0
M  V30 1890 C 180.994 1.18132 2.50879 0
M  V30 1891 H 183.945 1.06901 1.17294 0
M  V30 1892 H 183.966 0.327118 3.79091 0
M  V30 1893 H 183.478 2.0782 3.27769 0
M  V30 1894 H 181.579 -0.349444 3.70958 0
M  V30 1895 H 181.692 1.30595 4.60958 0
M  V30 1896 H 180.056 0.600669 2.47516 0
M  V30 1897 H 180.839 2.26902 2.57624 0
M  V30 1898 N 183.284 -1.43765 0.645699 0
M  V30 1899 C 184.695 -1.85193 0.236719 0
M  V30 1900 C 185.046 -1.54045 -1.21509 0
M  V30 1901 O 184.171 -0.985694 -1.92647 0
M  V30 1902 C 184.766 -3.36151 0.422845 0
M  V30 1903 C 183.325 -3.76338 0.0682492 0
M  V30 1904 C 182.472 -2.67538 0.729306 0
M  V30 1905 H 185.423 -1.34025 0.849883 0
M  V30 1906 H 185.444 -3.79032 -0.333904 0
M  V30 1907 H 184.956 -3.5879 1.47958 0
M  V30 1908 H 183.057 -3.59312 -0.986179 0
M  V30 1909 H 183.17 -4.76603 0.488469 0
M  V30 1910 H 181.534 -2.54176 0.163235 0
M  V30 1911 H 182.317 -2.93006 1.78892 0
M  V30 1912 N 184.763 -0.387143 -1.52771 0
M  V30 1913 C 186.174 0.0873634 -1.86495 0
M  V30 1914 C 186.525 1.46336 -1.30691 0
M  V30 1915 O 185.65 2.068 -0.637409 0
M  V30 1916 C 186.245 0.165305 -3.38396 0
M  V30 1917 C 184.804 0.584101 -3.7184 0
M  V30 1918 C 183.951 -0.255279 -2.76122 0
M  V30 1919 H 186.902 -0.605104 -1.46711 0
M  V30 1920 H 186.923 0.984848 -3.67534 0
M  V30 1921 H 186.435 -0.836301 -3.78982 0
M  V30 1922 H 184.536 1.59315 -3.36823 0
M  V30 1923 H 184.649 0.343749 -4.77865 0
M  V30 1924 H 183.013 0.279126 -2.53166 0
M  V30 1925 H 183.796 -1.25482 -3.19545 0
M  V30 1926 N 186.241 1.57166 -0.116904 0
M  V30 1927 C 187.652 1.82169 0.408809 0
M  V30 1928 C 188.003 1.03393 1.66746 0
M  V30 1929 O 187.128 0.269886 2.1471 0
M  V30 1930 C 187.723 3.30429 0.748466 0
M  V30 1931 C 186.282 3.5612 1.21882 0
M  V30 1932 C 185.429 2.76374 0.226452 0
M  V30 1933 H 188.38 1.5497 -0.342063 0
M  V30 1934 H 188.401 3.44943 1.60607 0
M  V30 1935 H 187.913 3.87737 -0.167784 0
M  V30 1936 H 186.014 3.04168 2.15204 0
M  V30 1937 H 186.127 4.64705 1.16559 0
M  V30 1938 H 184.491 2.44515 0.713063 0
M  V30 1939 H 185.274 3.3644 -0.682859 0
M  V30 1940 N 187.719 -0.156864 1.56817 0
M  V30 1941 C 188.944 -0.890331 1.87318 0
M  V30 1942 C 189.369 -1.74394 0.704855 0
M  V30 1943 O 188.727 -1.77972 -0.345786 0
M  V30 1944 C 188.775 -1.73102 3.16336 0
M  V30 1945 O 187.879 -2.83422 2.99576 0
M  V30 1946 H 187.22 -0.24857 0.615718 0
M  V30 1947 H 189.75 -0.150649 2.04045 0
M  V30 1948 H 189.76 -2.12803 3.48107 0
M  V30 1949 H 188.435 -1.10412 4.00976 0
M  V30 1950 H 187.012 -2.47199 2.7919 0
M  V30 1951 N 189.197 -1.51736 -0.425897 0
M  V30 1952 C 190.16 -1.73271 -1.50032 0
M  V30 1953 C 191.16 -0.602639 -1.4908 0
M  V30 1954 O 192.35 -0.87033 -1.509 0
M  V30 1955 C 189.482 -1.79969 -2.89523 0
M  V30 1956 H 190.675 -2.69172 -1.32237 0
M  V30 1957 H 188.228 -1.41899 -0.65532 0
M  V30 1958 H 188.963 -0.859241 -3.1271 0
M  V30 1959 H 188.748 -2.62109 -2.91619 0
M  V30 1960 H 190.238 -1.9843 -3.67444 0
M  V30 1961 N 190.675 0.682077 -1.42076 0
M  V30 1962 C 192.086 1.26246 -1.37546 0
M  V30 1963 C 192.437 1.96092 -0.0651481 0
M  V30 1964 O 191.562 1.99587 0.836297 0
M  V30 1965 C 192.157 2.29594 -2.49143 0
M  V30 1966 C 190.716 2.83175 -2.47969 0
M  V30 1967 C 189.863 1.57395 -2.28303 0
M  V30 1968 H 192.814 0.475937 -1.51395 0
M  V30 1969 H 192.835 3.11175 -2.18976 0
M  V30 1970 H 192.347 1.78729 -3.44496 0
M  V30 1971 H 190.448 3.3818 -1.56413 0
M  V30 1972 H 190.561 3.32687 -3.44755 0
M  V30 1973 H 188.925 1.83699 -1.76428 0
M  V30 1974 H 189.708 1.08507 -3.25701 0
M  V30 1975 N 192.153 1.28127 0.917671 0
M  V30 1976 C 193.564 1.13622 1.48145 0
M  V30 1977 C 193.915 -0.275207 1.9426 0
M  V30 1978 O 193.04 -1.1691 1.82102 0
M  V30 1979 C 193.635 2.05648 2.69248 0
M  V30 1980 C 192.194 1.95219 3.21818 0
M  V30 1981 C 191.341 1.97618 1.94532 0
M  V30 1982 H 194.292 1.40874 0.730772 0
M  V30 1983 H 194.313 1.61818 3.44377 0
M  V30 1984 H 193.825 3.08365 2.35653 0
M  V30 1985 H 191.926 0.955244 3.60147 0
M  V30 1986 H 192.039 2.81976 3.87333 0
M  V30 1987 H 190.403 1.41973 2.11461 0
M  V30 1988 H 191.186 3.02007 1.63238 0
M  V30 1989 N 193.631 -1.12557 1.10312 0
M  V30 1990 C 194.856 -1.88405 0.867085 0
M  V30 1991 C 195.281 -1.79038 -0.576817 0
M  V30 1992 O 194.639 -1.14439 -1.40618 0
M  V30 1993 C 194.687 -3.3563 1.31851 0
M  V30 1994 O 193.791 -4.09565 0.482734 0
M  V30 1995 H 193.132 -0.585455 0.313271 0
M  V30 1996 H 195.662 -1.42352 1.4696 0
M  V30 1997 H 195.672 -3.86469 1.3079 0
M  V30 1998 H 194.347 -3.41765 2.37001 0
M  V30 1999 H 192.924 -3.68695 0.558448 0
M  V30 2000 N 195.109 -0.891671 -1.2995 0
M  V30 2001 C 196.52 -0.563104 -1.78006 0
M  V30 2002 C 196.871 0.920978 -1.73241 0
M  V30 2003 O 195.996 1.71987 -1.31337 0
M  V30 2004 C 196.591 -1.01539 -3.23226 0
M  V30 2005 C 195.15 -0.738124 -3.69092 0
M  V30 2006 C 194.297 -1.19461 -2.50249 0
M  V30 2007 H 197.248 -1.07522 -1.16725 0
M  V30 2008 H 197.269 -0.347217 -3.78912 0
M  V30 2009 H 196.781 -2.09555 -3.26662 0
M  V30 2010 H 194.882 0.329766 -3.71138 0
M  V30 2011 H 194.995 -1.33037 -4.60259 0
M  V30 2012 H 193.359 -0.613787 -2.47194 0
M  V30 2013 H 194.142 -2.28265 -2.56417 0
M  V30 2014 N 196.587 1.43421 -0.653314 0
M  V30 2015 C 197.998 1.85065 -0.246537 0
M  V30 2016 C 198.349 1.54688 1.2069 0
M  V30 2017 O 197.474 0.995896 1.92122 0
M  V30 2018 C 198.069 3.35922 -0.440666 0
M  V30 2019 C 196.628 3.76297 -0.0882064 0
M  V30 2020 C 195.775 2.67147 -0.743484 0
M  V30 2021 H 198.726 1.33572 -0.856979 0
M  V30 2022 H 198.747 3.79204 0.313798 0
M  V30 2023 H 198.259 3.58 -1.49858 0
M  V30 2024 H 196.36 3.5983 0.96711 0
M  V30 2025 H 196.473 4.76338 -0.513738 0
M  V30 2026 H 194.837 2.54086 -0.176712 0
M  V30 2027 H 195.62 2.92053 -1.80443 0
M  V30 2028 N 198.065 0.39524 1.52563 0
M  V30 2029 C 199.313 -0.184678 2.01254 0
M  V30 2030 C 199.634 -1.46822 1.28329 0
M  V30 2031 O 198.904 -1.91666 0.405094 0
M  V30 2032 H 197.484 -0.0712355 0.743596 0
M  V30 2033 H 200.146 0.528293 1.87603 0
M  V30 2034 H 199.242 -0.390681 3.09645 0
M  V30 2035 N 199.544 -1.57102 0.125237 0
M  V30 2036 C 200.955 -1.82384 -0.399142 0
M  V30 2037 C 201.306 -1.04276 -1.66195 0
M  V30 2038 O 200.431 -0.281269 -2.14564 0
M  V30 2039 C 201.026 -3.30821 -0.730932 0
M  V30 2040 C 199.585 -3.56762 -1.19992 0
M  V30 2041 C 198.732 -2.7649 -0.211792 0
M  V30 2042 H 201.683 -1.54786 0.350277 0
M  V30 2043 H 201.704 -3.4579 -1.58775 0
M  V30 2044 H 201.216 -3.87643 0.188345 0
M  V30 2045 H 199.317 -3.05305 -2.13588 0
M  V30 2046 H 199.43 -4.65317 -1.14093 0
M  V30 2047 H 197.794 -2.4489 -0.700085 0
M  V30 2048 H 198.577 -3.36073 0.700691 0
M  V30 2049 N 201.022 0.148545 -1.56898 0
M  V30 2050 C 202.433 0.708766 -1.72723 0
M  V30 2051 C 202.784 1.81734 -0.739395 0
M  V30 2052 O 201.909 2.16194 0.0943169 0
M  V30 2053 C 202.504 1.29245 -3.13179 0
M  V30 2054 C 201.063 1.79925 -3.30611 0
M  V30 2055 C 200.21 0.687111 -2.68652 0
M  V30 2056 H 203.161 -0.0771063 -1.58513 0
M  V30 2057 H 203.182 2.16224 -3.13093 0
M  V30 2058 H 202.694 0.485382 -3.85053 0
M  V30 2059 H 200.795 2.63203 -2.63732 0
M  V30 2060 H 200.908 1.92903 -4.38549 0
M  V30 2061 H 199.272 1.11335 -2.29078 0
M  V30 2062 H 200.055 -0.108483 -3.43129 0
M  V30 2063 N 202.5 1.5196 0.417844 0
M  V30 2064 C 203.911 1.57851 0.997 0
M  V30 2065 C 204.262 0.413714 1.91789 0
M  V30 2066 O 203.387 -0.467057 2.113 0
M  V30 2067 C 203.982 2.86085 1.81496 0
M  V30 2068 C 202.541 2.94483 2.34428 0
M  V30 2069 C 201.688 2.52707 1.14169 0
M  V30 2070 H 204.639 1.57455 0.198392 0
M  V30 2071 H 204.66 2.70947 2.67148 0
M  V30 2072 H 204.172 3.70842 1.14446 0
M  V30 2073 H 202.273 2.142 3.04875 0
M  V30 2074 H 202.386 3.98546 2.65891 0
M  V30 2075 H 200.75 2.06353 1.49301 0
M  V30 2076 H 201.533 3.39828 0.486999 0
M  V30 2077 N 203.978 -0.674533 1.42435 0
M  V30 2078 C 205.394 -0.98769 1.25367 0
M  V30 2079 C 205.594 -2.00879 0.158044 0
M  V30 2080 O 204.65 -2.48075 -0.470633 0
M  V30 2081 C 205.963 -1.49224 2.6106 0
M  V30 2082 C 207.511 -1.61 2.68417 0
M  V30 2083 C 207.986 -2.14852 4.04478 0
M  V30 2084 N 209.477 -2.22185 4.06434 0
M  V30 2085 C 210.212 -2.64928 5.08528 0
M  V30 2086 N 209.708 -3.07121 6.21006 0
M  V30 2087 N 211.501 -2.64679 4.95885 0
M  V30 2088 H 203.652 0.00152503 2.124 0
M  V30 2089 H 205.915 -0.0618434 0.945981 0
M  V30 2090 H 205.621 -0.816453 3.42092 0
M  V30 2091 H 205.495 -2.47094 2.84999 0
M  V30 2092 H 207.882 -2.27686 1.87732 0
M  V30 2093 H 207.963 -0.616195 2.48267 0
M  V30 2094 H 207.607 -1.48775 4.85622 0
M  V30 2095 H 207.537 -3.15024 4.2198 0
M  V30 2096 H 210.028 -1.92435 3.25234 0
M  V30 2097 H 210.341 -3.38423 6.94759 0
M  V30 2098 H 208.686 -3.04978 6.24511 0
M  V30 2099 H 211.877 -2.31078 4.07088 0
M  V30 2100 H 212.05 -2.9767 5.75584 0
M  V30 2101 N 205.456 -1.28612 -0.910864 0
M  V30 2102 C 206.419 -1.12803 -1.9952 0
M  V30 2103 C 207.419 -0.0668264 -1.60661 0
M  V30 2104 O 208.609 -0.312847 -1.71368 0
M  V30 2105 C 205.741 -0.72254 -3.33155 0
M  V30 2106 H 206.934 -2.09109 -2.14973 0
M  V30 2107 H 204.487 -1.11639 -1.09391 0
M  V30 2108 H 205.222 0.241152 -3.23402 0
M  V30 2109 H 205.007 -1.48916 -3.62721 0
M  V30 2110 H 206.497 -0.634666 -4.12749 0
M  V30 2111 N 206.934 1.1197 -1.10907 0
M  V30 2112 C 208.35 1.35591 -0.841852 0
M  V30 2113 C 208.55 1.94233 0.536246 0
M  V30 2114 O 207.606 2.1717 1.28816 0
M  V30 2115 C 208.919 2.29284 -1.94549 0
M  V30 2116 C 210.467 2.42862 -1.97451 0
M  V30 2117 C 210.942 3.39873 -3.07002 0
M  V30 2118 N 212.433 3.47433 -3.06341 0
M  V30 2119 C 213.168 4.22421 -3.87748 0
M  V30 2120 N 212.664 5.00432 -4.79103 0
M  V30 2121 N 214.457 4.17876 -3.75946 0
M  V30 2122 H 206.608 0.722664 -1.99728 0
M  V30 2123 H 208.871 0.380635 -0.868229 0
M  V30 2124 H 208.577 1.93378 -2.93765 0
M  V30 2125 H 208.451 3.29452 -1.83688 0
M  V30 2126 H 210.838 2.78046 -0.988645 0
M  V30 2127 H 210.919 1.42566 -2.12388 0
M  V30 2128 H 210.563 3.05417 -4.05811 0
M  V30 2129 H 210.493 4.40011 -2.89306 0
M  V30 2130 H 212.984 2.91784 -2.40147 0
M  V30 2131 H 213.297 5.55002 -5.37766 0
M  V30 2132 H 211.642 4.99612 -4.83128 0
M  V30 2133 H 214.833 3.56016 -3.03924 0
M  V30 2134 H 215.006 4.76061 -4.39624 0
M  V30 2135 N 208.412 0.89855 1.29475 0
M  V30 2136 C 209.637 0.538561 2.00285 0
M  V30 2137 C 210.062 -0.869135 1.66816 0
M  V30 2138 O 209.42 -1.57831 0.892145 0
M  V30 2139 C 209.468 0.736475 3.52999 0
M  V30 2140 O 208.572 -0.211537 4.11857 0
M  V30 2141 H 207.913 0.210563 0.62973 0
M  V30 2142 H 210.443 1.20982 1.64998 0
M  V30 2143 H 210.453 0.640685 4.02938 0
M  V30 2144 H 209.128 1.76276 3.76696 0
M  V30 2145 H 207.705 -0.0682991 3.72837 0
M  V30 2146 N 209.89 -1.43072 0.660911 0
M  V30 2147 C 211.306 -1.56169 0.329173 0
M  V30 2148 C 211.506 -1.64317 -1.16629 0
M  V30 2149 O 210.562 -1.60245 -1.95135 0
M  V30 2150 C 211.875 -2.81873 1.04729 0
M  V30 2151 C 213.423 -2.95627 1.02828 0
M  V30 2152 C 213.898 -4.24174 1.72744 0
M  V30 2153 N 215.389 -4.31055 1.69545 0
M  V30 2154 C 216.124 -5.29304 2.20511 0
M  V30 2155 N 215.62 -6.33786 2.79799 0
M  V30 2156 N 217.413 -5.21008 2.10966 0
M  V30 2157 H 209.564 -1.36027 1.63127 0
M  V30 2158 H 211.827 -0.653823 0.686454 0
M  V30 2159 H 211.533 -2.81942 2.10242 0
M  V30 2160 H 211.407 -3.72338 0.603702 0
M  V30 2161 H 213.794 -2.95094 -0.0184742 0
M  V30 2162 H 213.875 -2.06431 1.51063 0
M  V30 2163 H 213.519 -4.25467 2.7738 0
M  V30 2164 H 213.449 -5.1228 1.2197 0
M  V30 2165 H 215.94 -3.56174 1.26288 0
M  V30 2166 H 216.253 -7.05086 3.16344 0
M  V30 2167 H 214.598 -6.34387 2.83863 0
M  V30 2168 H 217.789 -4.38301 1.64347 0
M  V30 2169 H 217.962 -5.97416 2.50993 0
M  V30 2170 N 211.368 -0.403325 -1.52352 0
M  V30 2171 C 212.784 -0.0539281 -1.59509 0
M  V30 2172 C 212.984 1.43307 -1.41652 0
M  V30 2173 O 212.04 2.19924 -1.24056 0
M  V30 2174 C 213.353 -0.543654 -2.95745 0
M  V30 2175 C 214.901 -0.501125 -3.08962 0
M  V30 2176 C 215.376 -0.967267 -4.47669 0
M  V30 2177 N 216.867 -0.923849 -4.53893 0
M  V30 2178 C 217.602 -1.25578 -5.5948 0
M  V30 2179 N 217.098 -1.65889 -6.72646 0
M  V30 2180 N 218.891 -1.17613 -5.49658 0
M  V30 2181 H 211.042 -1.37123 -1.62206 0
M  V30 2182 H 213.305 -0.56294 -0.76276 0
M  V30 2183 H 213.011 -1.58275 -3.14073 0
M  V30 2184 H 212.885 0.0498042 -3.77167 0
M  V30 2185 H 215.272 0.528909 -2.90321 0
M  V30 2186 H 215.353 -1.13056 -2.2946 0
M  V30 2187 H 214.997 -1.9956 -4.67053 0
M  V30 2188 H 214.927 -0.314698 -5.25659 0
M  V30 2189 H 217.418 -0.627403 -3.72655 0
M  V30 2190 H 217.731 -1.89543 -7.49195 0
M  V30 2191 H 216.076 -1.69787 -6.73942 0
M  V30 2192 H 219.267 -0.860115 -4.6013 0
M  V30 2193 H 219.44 -1.43812 -6.3184 0
M  V30 2194 N 212.846 1.57033 -0.133567 0
M  V30 2195 C 214.071 2.00475 0.531477 0
M  V30 2196 C 214.496 1.01291 1.58499 0
M  V30 2197 O 213.854 -0.0133279 1.81295 0
M  V30 2198 C 213.902 3.42729 1.12113 0
M  V30 2199 O 213.006 3.46498 2.23636 0
M  V30 2200 H 212.347 0.650876 0.131362 0
M  V30 2201 H 214.877 2.03344 -0.22634 0
M  V30 2202 H 214.887 3.81246 1.4531 0
M  V30 2203 H 213.562 4.14428 0.349557 0
M  V30 2204 H 212.139 3.19811 1.91769 0
M  V30 2205 N 214.325 -0.140222 1.56975 0
M  V30 2206 C 215.736 -0.699596 1.73097 0
M  V30 2207 C 216.087 -1.8134 0.749022 0
M  V30 2208 O 215.212 -2.16241 -0.0828503 0
M  V30 2209 C 215.807 -1.27582 3.1386 0
M  V30 2210 C 214.366 -1.78169 3.31561 0
M  V30 2211 C 213.513 -0.672855 2.69013 0
M  V30 2212 H 216.464 0.0855115 1.58469 0
M  V30 2213 H 216.485 -2.14561 3.14235 0
M  V30 2214 H 215.997 -0.464955 3.85305 0
M  V30 2215 H 214.098 -2.61801 2.65124 0
M  V30 2216 H 214.211 -1.90574 4.39566 0
M  V30 2217 H 212.575 -1.10118 2.29665 0
M  V30 2218 H 213.358 0.126679 3.43066 0
M  V30 2219 N 215.803 -1.52179 -0.40978 0
M  V30 2220 C 217.219 -1.40968 -0.74835 0
M  V30 2221 C 217.419 -0.513657 -1.94843 0
M  V30 2222 O 216.475 0.0208026 -2.52491 0
M  V30 2223 C 217.788 -2.83483 -1.0029 0
M  V30 2224 C 219.336 -2.92821 -1.10565 0
M  V30 2225 C 219.811 -4.36303 -1.39296 0
M  V30 2226 N 221.302 -4.39535 -1.46162 0
M  V30 2227 C 222.037 -5.47614 -1.70018 0
M  V30 2228 N 221.533 -6.65812 -1.91483 0
M  V30 2229 N 223.326 -5.35129 -1.72027 0
M  V30 2230 H 215.477 -2.0897 0.380186 0
M  V30 2231 H 217.74 -0.94185 0.107805 0
M  V30 2232 H 217.446 -3.51168 -0.193461 0
M  V30 2233 H 217.32 -3.24487 -1.92323 0
M  V30 2234 H 219.707 -2.25318 -1.90568 0
M  V30 2235 H 219.788 -2.55276 -0.16369 0
M  V30 2236 H 219.432 -5.04366 -0.598109 0
M  V30 2237 H 219.362 -4.71385 -2.34743 0
M  V30 2238 H 221.853 -3.54332 -1.31367 0
M  V30 2239 H 222.166 -7.43964 -2.09134 0
M  V30 2240 H 220.511 -6.68879 -1.88749 0
M  V30 2241 H 223.702 -4.41764 -1.54796 0
M  V30 2242 H 223.875 -6.19433 -1.9028 0
M  V30 2243 N 217.281 0.66697 -1.42791 0
M  V30 2244 C 218.244 1.76211 -1.46568 0
M  V30 2245 C 219.244 1.56896 -0.352196 0
M  V30 2246 O 220.434 1.63044 -0.613364 0
M  V30 2247 C 217.566 3.14935 -1.30494 0
M  V30 2248 H 218.759 1.74247 -2.44086 0
M  V30 2249 H 216.312 0.877342 -1.29354 0
M  V30 2250 H 217.047 3.2252 -0.339301 0
M  V30 2251 H 216.832 3.30359 -2.11199 0
M  V30 2252 H 218.322 3.94821 -1.36038 0
M  V30 2253 N 218.759 1.29093 0.90403 0
M  V30 2254 C 220.17 1.15186 1.46932 0
M  V30 2255 C 220.521 -0.254587 1.94541 0
M  V30 2256 O 219.646 -1.14972 1.83332 0
M  V30 2257 C 220.241 2.08492 2.67051 0
M  V30 2258 C 218.8 1.98621 3.19729 0
M  V30 2259 C 217.947 1.9967 1.92425 0
M  V30 2260 H 220.898 1.41641 0.715789 0
M  V30 2261 H 220.919 1.65461 3.42641 0
M  V30 2262 H 220.431 3.10847 2.3237 0
M  V30 2263 H 218.532 0.993389 3.59114 0
M  V30 2264 H 218.645 2.86068 3.8432 0
M  V30 2265 H 217.009 1.44208 2.09943 0
M  V30 2266 H 217.792 3.03721 1.60026 0
M  V30 2267 N 220.237 -1.11381 1.11499 0
M  V30 2268 C 221.167 -2.19509 0.796125 0
M  V30 2269 C 222.148 -1.68458 -0.235796 0
M  V30 2270 O 223.333 -1.93947 -0.0991344 0
M  V30 2271 C 220.463 -3.46475 0.239205 0
M  V30 2272 C 219.417 -4.10744 1.20307 0
M  V30 2273 C 218.743 -5.32293 0.50683 0
M  V30 2274 C 220.043 -4.55597 2.55399 0
M  V30 2275 H 221.737 -2.46439 1.70024 0
M  V30 2276 H 219.283 -1.18446 0.818935 0
M  V30 2277 H 221.236 -4.214 0.00392006 0
M  V30 2278 H 219.96 -3.19006 -0.700206 0
M  V30 2279 H 218.619 -3.37813 1.42399 0
M  V30 2280 H 218.267 -5.01095 -0.437408 0
M  V30 2281 H 217.967 -5.76243 1.1497 0
M  V30 2282 H 219.491 -6.09956 0.280351 0
M  V30 2283 H 220.905 -5.21841 2.37391 0
M  V30 2284 H 219.302 -5.10363 3.15673 0
M  V30 2285 H 220.372 -3.69013 3.14575 0
M  V30 2286 N 221.715 -0.905404 -1.28997 0
M  V30 2287 C 222.94 -0.549175 -1.99997 0
M  V30 2288 C 223.365 0.860276 -1.67275 0
M  V30 2289 O 222.723 1.57355 -0.900502 0
M  V30 2290 C 222.771 -0.755185 -3.52604 0
M  V30 2291 O 221.875 0.189692 -4.11964 0
M  V30 2292 H 221.216 -0.213899 -0.628604 0
M  V30 2293 H 223.746 -1.21856 -1.64354 0
M  V30 2294 H 223.756 -0.662045 -4.02593 0
M  V30 2295 H 222.431 -1.78271 -3.75755 0
M  V30 2296 H 221.008 0.0485257 -3.72868 0
M  V30 2297 N 223.193 1.4272 -0.668489 0
M  V30 2298 C 224.123 2.335 -0.000100175 0
M  V30 2299 C 225.104 1.50328 0.795964 0
M  V30 2300 O 226.289 1.78949 0.754385 0
M  V30 2301 C 223.419 3.33874 0.956302 0
M  V30 2302 C 222.373 4.27152 0.269278 0
M  V30 2303 C 221.699 5.17684 1.33818 0
M  V30 2304 C 222.999 5.15373 -0.847805 0
M  V30 2305 H 224.693 2.89639 -0.758244 0
M  V30 2306 H 222.239 1.39269 -0.366079 0
M  V30 2307 H 224.192 3.9629 1.43292 0
M  V30 2308 H 222.916 2.76025 1.74579 0
M  V30 2309 H 221.575 3.66123 -0.187042 0
M  V30 2310 H 221.223 4.56165 2.1195 0
M  V30 2311 H 220.923 5.80918 0.883659 0
M  V30 2312 H 222.447 5.82974 1.81586 0
M  V30 2313 H 223.861 5.7151 -0.452681 0
M  V30 2314 H 222.258 5.87407 -1.22773 0
M  V30 2315 H 223.328 4.5415 -1.69929 0
M  V30 2316 N 224.671 0.411399 1.52136 0
M  V30 2317 C 225.896 -0.165538 2.06738 0
M  V30 2318 C 226.321 -1.379 1.27926 0
M  V30 2319 O 225.679 -1.78628 0.310114 0
M  V30 2320 C 225.727 -0.492124 3.57226 0
M  V30 2321 O 224.831 -1.58276 3.80818 0
M  V30 2322 H 224.172 -0.0132132 0.663869 0
M  V30 2323 H 226.702 0.585253 1.96051 0
M  V30 2324 H 226.712 -0.750104 4.01045 0
M  V30 2325 H 225.387 0.394922 4.14021 0
M  V30 2326 H 223.964 -1.31677 3.48877 0
M  V30 2327 N 226.149 -1.5696 0.141893 0
M  V30 2328 C 227.565 -1.58151 -0.21456 0
M  V30 2329 C 227.765 -1.1559 -1.65049 0
M  V30 2330 O 226.821 -0.853832 -2.37626 0
M  V30 2331 C 228.134 -3.00674 0.0395576 0
M  V30 2332 C 229.682 -3.1299 -0.0245529 0
M  V30 2333 C 230.157 -4.57554 0.202167 0
M  V30 2334 N 231.648 -4.62961 0.148919 0
M  V30 2335 C 232.383 -5.7262 0.298924 0
M  V30 2336 N 231.879 -6.90947 0.50637 0
M  V30 2337 N 233.672 -5.61601 0.236886 0
M  V30 2338 H 225.823 -1.8292 1.07953 0
M  V30 2339 H 228.086 -0.846425 0.42693 0
M  V30 2340 H 227.792 -3.36183 1.03315 0
M  V30 2341 H 227.666 -3.70981 -0.682143 0
M  V30 2342 H 230.053 -2.77326 -1.00869 0
M  V30 2343 H 230.134 -2.4518 0.729396 0
M  V30 2344 H 229.778 -4.93922 1.18338 0
M  V30 2345 H 229.708 -5.23484 -0.572044 0
M  V30 2346 H 232.199 -3.77899 -0.00697015 0
M  V30 2347 H 232.512 -7.7038 0.611076 0
M  V30 2348 H 230.857 -6.92878 0.542628 0
M  V30 2349 H 234.048 -4.68039 0.0756209 0
M  V30 2350 H 234.221 -6.47015 0.357227 0
M  V30 2351 N 227.627 0.131896 -1.57047 0
M  V30 2352 C 229.043 0.485031 -1.52051 0
M  V30 2353 C 229.243 1.82563 -0.85281 0
M  V30 2354 O 228.299 2.48817 -0.429694 0
M  V30 2355 C 229.612 0.481409 -2.96821 0
M  V30 2356 C 231.16 0.565868 -3.07842 0
M  V30 2357 C 231.635 0.592762 -4.54148 0
M  V30 2358 N 233.126 0.654564 -4.58552 0
M  V30 2359 C 233.861 0.696608 -5.69153 0
M  V30 2360 N 233.357 0.697078 -6.89284 0
M  V30 2361 N 235.15 0.738639 -5.57226 0
M  V30 2362 H 227.301 -0.746664 -1.98843 0
M  V30 2363 H 229.564 -0.273999 -0.90754 0
M  V30 2364 H 229.27 -0.435731 -3.4899 0
M  V30 2365 H 229.144 1.3139 -3.53577 0
M  V30 2366 H 231.531 1.47343 -2.55684 0
M  V30 2367 H 231.612 -0.29406 -2.54104 0
M  V30 2368 H 231.256 -0.310701 -5.06949 0
M  V30 2369 H 231.186 1.46939 -5.05684 0
M  V30 2370 H 233.677 0.660887 -3.72076 0
M  V30 2371 H 233.99 0.731426 -7.69331 0
M  V30 2372 H 232.335 0.66471 -6.91814 0
M  V30 2373 H 235.526 0.735545 -4.62285 0
M  V30 2374 H 235.699 0.767938 -6.43434 0
M  V30 2375 N 229.106 1.52395 0.401703 0
M  V30 2376 C 230.354 1.66488 1.14569 0
M  V30 2377 C 230.675 0.400897 1.90835 0
M  V30 2378 O 229.945 -0.584415 1.8698 0
M  V30 2379 H 228.525 0.613672 0.425929 0
M  V30 2380 H 231.187 1.89464 0.457093 0
M  V30 2381 H 230.283 2.50942 1.85566 0
M  V30 2382 N 230.584 -0.659388 1.43143 0
M  V30 2383 C 231.83 -1.41984 1.45644 0
M  V30 2384 C 232.185 -1.92245 0.0771718 0
M  V30 2385 O 231.478 -1.68976 -0.903205 0
M  V30 2386 C 231.672 -2.62206 2.42864 0
M  V30 2387 C 231.501 -2.23711 3.90107 0
M  V30 2388 C 230.271 -2.12332 4.58523 0
M  V30 2389 C 232.469 -1.84384 4.80112 0
M  V30 2390 N 230.451 -1.67102 5.9072 0
M  V30 2391 C 231.822 -1.5019 6.01534 0
M  V30 2392 C 233.877 -1.71512 4.67427 0
M  V30 2393 C 232.58 -1.04414 7.11681 0
M  V30 2394 C 234.606 -1.27142 5.77572 0
M  V30 2395 C 233.968 -0.938808 6.98116 0
M  V30 2396 H 230.067 -0.515448 0.588079 0
M  V30 2397 H 232.651 -0.759409 1.79279 0
M  V30 2398 H 230.822 -3.25917 2.11265 0
M  V30 2399 H 232.554 -3.28877 2.35843 0
M  V30 2400 H 229.309 -2.31893 4.12944 0
M  V30 2401 H 229.733 -1.46866 6.60878 0
M  V30 2402 H 234.375 -1.95868 3.74694 0
M  V30 2403 H 232.093 -0.788061 8.04248 0
M  V30 2404 H 235.679 -1.17681 5.69774 0
M  V30 2405 H 234.559 -0.6007 7.81896 0
M  V30 2406 N 232.062 -1.29571 -0.897171 0
M  V30 2407 C 232.994 -1.10724 -2.00681 0
M  V30 2408 C 234.007 -0.0540026 -1.6271 0
M  V30 2409 O 235.196 -0.298783 -1.75982 0
M  V30 2410 C 232.296 -0.663912 -3.32333 0
M  V30 2411 C 231.469 -1.79622 -3.98816 0
M  V30 2412 C 230.528 -1.34349 -5.0876 0
M  V30 2413 O 229.554 -2.04864 -5.31055 0
M  V30 2414 N 230.756 -0.215764 -5.80099 0
M  V30 2415 H 233.521 -2.06291 -2.17403 0
M  V30 2416 H 231.082 -1.21544 -1.06951 0
M  V30 2417 H 233.074 -0.344295 -4.03233 0
M  V30 2418 H 231.644 0.199375 -3.11964 0
M  V30 2419 H 230.864 -2.28459 -3.21248 0
M  V30 2420 H 232.152 -2.55535 -4.39976 0
M  V30 2421 H 231.55 0.372091 -5.64475 0
M  V30 2422 H 230.107 0.0444707 -6.51785 0
M  V30 2423 N 233.54 1.10788 -1.12088 0
M  V30 2424 C 234.951 1.64181 -0.88891 0
M  V30 2425 C 235.302 1.87508 0.577498 0
M  V30 2426 O 234.427 1.61434 1.44112 0
M  V30 2427 C 235.022 2.98257 -1.60712 0
M  V30 2428 C 233.581 3.4853 -1.42139 0
M  V30 2429 C 232.728 2.23208 -1.6454 0
M  V30 2430 H 235.679 0.943368 -1.27618 0
M  V30 2431 H 235.7 3.65552 -1.05604 0
M  V30 2432 H 235.212 2.81246 -2.67436 0
M  V30 2433 H 233.313 3.70692 -0.376552 0
M  V30 2434 H 233.426 4.26882 -2.17505 0
M  V30 2435 H 231.79 2.31169 -1.06925 0
M  V30 2436 H 232.573 2.08733 -2.72554 0
M  V30 2437 N 235.018 0.912232 1.28515 0
M  V30 2438 C 236.434 0.610159 1.47476 0
M  V30 2439 C 236.634 -0.844955 1.82928 0
M  V30 2440 O 235.69 -1.62416 1.93332 0
M  V30 2441 C 237.003 1.54675 2.57868 0
M  V30 2442 C 238.551 1.55331 2.71738 0
M  V30 2443 C 239.026 2.47649 3.85272 0
M  V30 2444 N 240.517 2.45767 3.92623 0
M  V30 2445 C 241.252 3.13896 4.79851 0
M  V30 2446 N 240.748 3.9135 5.71679 0
M  V30 2447 N 242.541 3.02991 4.73448 0
M  V30 2448 H 234.692 1.85318 1.03783 0
M  V30 2449 H 236.955 0.794777 0.516753 0
M  V30 2450 H 236.661 2.5841 2.38574 0
M  V30 2451 H 236.535 1.27671 3.54937 0
M  V30 2452 H 238.922 0.52335 2.90422 0
M  V30 2453 H 239.003 1.86378 1.75205 0
M  V30 2454 H 238.647 3.50745 3.67342 0
M  V30 2455 H 238.577 2.13904 4.81199 0
M  V30 2456 H 241.068 1.89503 3.26951 0
M  V30 2457 H 241.381 4.40359 6.35062 0
M  V30 2458 H 239.726 3.95455 5.71524 0
M  V30 2459 H 242.917 2.41987 4.007 0
M  V30 2460 H 243.09 3.5636 5.41213 0
M  V30 2461 N 236.496 -1.42363 0.676048 0
M  V30 2462 C 237.744 -2.01123 0.198437 0
M  V30 2463 C 238.065 -1.53731 -1.19966 0
M  V30 2464 O 237.335 -0.759518 -1.80577 0
M  V30 2465 H 235.915 -0.743678 0.0703721 0
M  V30 2466 H 238.577 -1.74263 0.872837 0
M  V30 2467 H 237.673 -3.11454 0.200686 0
M  V30 2468 N 237.974 -0.419461 -1.51915 0
M  V30 2469 C 239.204 0.151915 -2.06041 0
M  V30 2470 C 239.612 1.38539 -1.28855 0
M  V30 2471 O 238.955 1.80592 -0.336463 0
M  V30 2472 C 239.017 0.557119 -3.55157 0
M  V30 2473 C 238.681 -0.567054 -4.53468 0
M  V30 2474 C 239.678 -1.43379 -4.99738 0
M  V30 2475 C 237.363 -0.742693 -4.96779 0
M  V30 2476 C 239.357 -2.46102 -5.87973 0
M  V30 2477 C 237.044 -1.77322 -5.84808 0
M  V30 2478 C 238.042 -2.63078 -6.30301 0
M  V30 2479 O 237.73 -3.64364 -7.16585 0
M  V30 2480 H 237.462 0.0193293 -0.675724 0
M  V30 2481 H 240.016 -0.592073 -1.96682 0
M  V30 2482 H 238.246 1.35355 -3.62238 0
M  V30 2483 H 239.935 1.05759 -3.9188 0
M  V30 2484 H 240.701 -1.30954 -4.66986 0
M  V30 2485 H 236.58 -0.0848307 -4.60922 0
M  V30 2486 H 240.124 -3.13071 -6.23404 0
M  V30 2487 H 236.021 -1.89773 -6.16974 0
M  V30 2488 H 236.789 -3.60731 -7.34721 0
M  V30 2489 N 239.452 1.56882 -0.150215 0
M  V30 2490 C 240.863 1.82995 0.370076 0
M  V30 2491 C 241.214 1.06907 1.64515 0
M  V30 2492 O 240.339 0.315369 2.1409 0
M  V30 2493 C 240.934 3.31942 0.678208 0
M  V30 2494 C 239.493 3.58625 1.14301 0
M  V30 2495 C 238.64 2.76792 0.167778 0
M  V30 2496 H 241.591 1.54209 -0.374858 0
M  V30 2497 H 241.612 3.48272 1.53254 0
M  V30 2498 H 241.124 3.87294 -0.249991 0
M  V30 2499 H 239.225 3.08664 2.08704 0
M  V30 2500 H 239.338 4.67073 1.06676 0
M  V30 2501 H 237.702 2.45972 0.661037 0
M  V30 2502 H 238.485 3.34916 -0.754069 0
M  V30 2503 N 240.93 -0.123565 1.57115 0
M  V30 2504 C 242.207 -0.862196 1.75572 0
M  V30 2505 C 242.587 -1.98279 0.724475 0
M  V30 2506 O 241.935 -2.27102 -0.252407 0
M  V30 2507 C 242.145 -1.38309 3.20424 0
M  V30 2508 C 243.493 -1.83724 3.82793 0
M  V30 2509 O 244.517 -1.47999 3.23998 0
M  V30 2510 O 243.376 -2.49685 4.86127 0
M  V30 2511 H 240.47 -0.409113 0.718718 0
M  V30 2512 H 243.016 -0.107661 1.69358 0
M  V30 2513 H 241.788 -0.578889 3.86994 0
M  V30 2514 H 241.411 -2.20046 3.31158 0
M  V30 2515 N 242.408 -1.52605 -0.393616 0
M  V30 2516 C 243.656 -1.67093 -1.13685 0
M  V30 2517 C 243.977 -0.411011 -1.90619 0
M  V30 2518 O 243.247 0.574491 -1.87287 0
M  V30 2519 H 241.827 -0.615923 -0.422668 0
M  V30 2520 H 244.489 -1.89704 -0.447039 0
M  V30 2521 H 243.585 -2.51922 -1.84232 0
M  V30 2522 N 243.887 0.651787 -1.4349 0
M  V30 2523 C 245.135 1.40888 -1.44897 0
M  V30 2524 C 245.456 1.94856 -0.0749086 0
M  V30 2525 O 244.726 1.74518 0.889956 0
M  V30 2526 H 243.306 0.522887 -0.533478 0
M  V30 2527 H 245.968 0.768609 -1.79104 0
M  V30 2528 H 245.064 2.25052 -2.16236 0
M  V30 2529 N 245.365 1.30045 0.890287 0
M  V30 2530 C 246.328 1.15963 1.977 0
M  V30 2531 C 247.328 0.0923777 1.60534 0
M  V30 2532 O 248.518 0.340071 1.70848 0
M  V30 2533 C 245.65 0.775451 3.31963 0
M  V30 2534 H 246.843 2.12502 2.11619 0
M  V30 2535 H 244.396 1.13366 1.07601 0
M  V30 2536 H 245.131 -0.189671 3.23745 0
M  V30 2537 H 244.916 1.54668 3.60306 0
M  V30 2538 H 246.406 0.700251 4.11687 0
M  V30 2539 N 246.843 -1.10192 1.12674 0
M  V30 2540 C 247.806 -2.14786 0.799979 0
M  V30 2541 C 248.806 -1.59711 -0.18685 0
M  V30 2542 O 249.996 -1.74156 0.0392558 0
M  V30 2543 C 247.128 -3.40374 0.189228 0
M  V30 2544 H 248.321 -2.45203 1.72671 0
M  V30 2545 H 245.874 -1.25597 0.930326 0
M  V30 2546 H 246.609 -3.15577 -0.747107 0
M  V30 2547 H 246.394 -3.81637 0.899766 0
M  V30 2548 H 247.884 -4.17594 -0.0228143 0
M  V30 2549 N 248.321 -0.919034 -1.28029 0
M  V30 2550 C 249.253 -0.368762 -2.26214 0
M  V30 2551 C 250.266 0.495716 -1.55069 0
M  V30 2552 O 251.455 0.30974 -1.75792 0
M  V30 2553 C 248.555 0.491049 -3.35324 0
M  V30 2554 C 247.728 -0.352133 -4.3598 0
M  V30 2555 C 246.787 0.443622 -5.24327 0
M  V30 2556 O 245.813 -0.14566 -5.69014 0
M  V30 2557 N 247.015 1.74545 -5.53637 0
M  V30 2558 H 249.78 -1.21273 -2.74068 0
M  V30 2559 H 247.341 -0.785541 -1.41566 0
M  V30 2560 H 249.333 1.03026 -3.91366 0
M  V30 2561 H 247.903 1.23574 -2.87138 0
M  V30 2562 H 247.123 -1.07269 -3.79324 0
M  V30 2563 H 248.411 -0.928883 -5.00249 0
M  V30 2564 H 247.809 2.24666 -5.19174 0
M  V30 2565 H 246.366 2.23138 -6.12416 0
M  V30 2566 N 249.799 1.42003 -0.683588 0
M  V30 2567 C 250.762 2.29191 -0.0198243 0
M  V30 2568 C 251.762 1.43773 0.72013 0
M  V30 2569 O 252.952 1.65061 0.556815 0
M  V30 2570 C 250.084 3.26435 0.982487 0
M  V30 2571 H 251.277 2.8938 -0.787345 0
M  V30 2572 H 248.83 1.49789 -0.446418 0
M  V30 2573 H 249.565 2.71203 1.77819 0
M  V30 2574 H 249.35 3.89449 0.455182 0
M  V30 2575 H 250.84 3.918 1.44508 0
M  V30 2576 N 251.277 0.427512 1.51691 0
M  V30 2577 C 252.524 -0.142229 2.02 0
M  V30 2578 C 252.852 -1.43566 1.31221 0
M  V30 2579 O 252.107 -1.91298 0.412744 0
M  V30 2580 C 252.406 -0.418249 3.54944 0
M  V30 2581 C 252.072 0.788187 4.43958 0
M  V30 2582 C 250.734 1.11906 4.68007 0
M  V30 2583 C 253.086 1.59347 4.96244 0
M  V30 2584 C 250.414 2.25608 5.41588 0
M  V30 2585 C 252.766 2.7214 5.71072 0
M  V30 2586 C 251.43 3.05692 5.93387 0
M  V30 2587 H 250.7 -0.0520451 0.73917 0
M  V30 2588 H 253.347 0.572697 1.82736 0
M  V30 2589 H 251.652 -1.21496 3.72486 0
M  V30 2590 H 253.349 -0.872339 3.91397 0
M  V30 2591 H 249.939 0.520344 4.2543 0
M  V30 2592 H 254.123 1.35106 4.77556 0
M  V30 2593 H 249.379 2.51929 5.57083 0
M  V30 2594 H 253.553 3.34914 6.10578 0
M  V30 2595 H 251.18 3.9391 6.50184 0
M  V30 2596 N 252.755 -1.56801 0.158532 0
M  V30 2597 C 253.98 -2.01295 -0.499516 0
M  V30 2598 C 254.405 -1.03799 -1.56867 0
M  V30 2599 O 253.763 -0.0155162 -1.81293 0
M  V30 2600 C 253.811 -3.44469 -1.06647 0
M  V30 2601 O 252.915 -3.50012 -2.18095 0
M  V30 2602 H 252.256 -0.652884 -0.12099 0
M  V30 2603 H 254.786 -2.02958 0.258661 0
M  V30 2604 H 254.796 -3.8351 -1.39227 0
M  V30 2605 H 253.471 -4.14932 -0.283581 0
M  V30 2606 H 252.048 -3.22822 -1.86656 0
M  V30 2607 N 254.233 0.115231 -1.57178 0
M  V30 2608 C 255.18 1.14115 -2.00615 0
M  V30 2609 C 256.15 1.40939 -0.878941 0
M  V30 2610 O 257.335 1.52741 -1.14345 0
M  V30 2611 C 254.475 2.46156 -2.4187 0
M  V30 2612 C 253.588 2.26236 -3.68024 0
M  V30 2613 C 252.723 3.51534 -3.98243 0
M  V30 2614 C 251.762 3.26787 -5.17568 0
M  V30 2615 N 250.899 4.44298 -5.43639 0
M  V30 2616 H 255.739 0.763743 -2.88047 0
M  V30 2617 H 253.276 0.365615 -1.42484 0
M  V30 2618 H 255.234 3.23189 -2.63827 0
M  V30 2619 H 253.864 2.81783 -1.57475 0
M  V30 2620 H 252.916 1.40102 -3.5366 0
M  V30 2621 H 254.228 2.03929 -4.55208 0
M  V30 2622 H 253.382 4.36984 -4.20868 0
M  V30 2623 H 252.121 3.76876 -3.09541 0
M  V30 2624 H 251.126 2.39729 -4.94783 0
M  V30 2625 H 252.351 3.02812 -6.0785 0
M  V30 2626 H 250.297 4.69754 -4.57895 0
M  V30 2627 H 250.214 4.25109 -6.25154 0
M  V30 2628 H 251.482 5.3087 -5.70786 0
M  V30 2629 N 255.711 1.52812 0.385517 0
M  V30 2630 C 257.127 1.4214 0.725829 0
M  V30 2631 C 257.327 0.544589 1.94001 0
M  V30 2632 O 256.383 0.0193693 2.52493 0
M  V30 2633 C 257.696 2.85042 0.957668 0
M  V30 2634 C 259.244 2.94543 1.05892 0
M  V30 2635 C 259.719 4.38464 1.32337 0
M  V30 2636 N 261.21 4.41804 1.39151 0
M  V30 2637 C 261.945 5.5025 1.61285 0
M  V30 2638 N 261.441 6.68775 1.80866 0
M  V30 2639 N 263.234 5.37798 1.63492 0
M  V30 2640 H 255.385 2.08338 -0.413383 0
M  V30 2641 H 257.648 0.940016 -0.122775 0
M  V30 2642 H 257.354 3.51431 0.137568 0
M  V30 2643 H 257.228 3.27505 1.87137 0
M  V30 2644 H 259.615 2.28321 1.86959 0
M  V30 2645 H 259.696 2.55504 0.123057 0
M  V30 2646 H 259.34 5.05254 0.517793 0
M  V30 2647 H 259.27 4.75059 2.27214 0
M  V30 2648 H 261.761 3.56377 1.25713 0
M  V30 2649 H 262.074 7.47197 1.97271 0
M  V30 2650 H 260.419 6.71797 1.78083 0
M  V30 2651 H 263.61 4.44171 1.47749 0
M  V30 2652 H 263.783 6.22382 1.80402 0
M  V30 2653 N 257.189 -0.644168 1.43834 0
M  V30 2654 C 258.417 -1.43147 1.49387 0
M  V30 2655 C 258.832 -1.88452 0.114583 0
M  V30 2656 O 258.189 -1.60047 -0.876989 0
M  V30 2657 C 258.24 -2.66046 2.44748 0
M  V30 2658 O 257.961 -2.22633 3.77314 0
M  V30 2659 C 259.462 -3.59311 2.59635 0
M  V30 2660 H 256.682 -0.439447 0.507077 0
M  V30 2661 H 259.226 -0.78895 1.88669 0
M  V30 2662 H 257.381 -3.26418 2.08638 0
M  V30 2663 H 257.795 -3.02216 4.28679 0
M  V30 2664 H 259.269 -4.42187 3.30416 0
M  V30 2665 H 259.746 -4.07259 1.64427 0
M  V30 2666 H 260.352 -3.04816 2.96593 0
M  V30 2667 N 258.668 -1.30515 -0.883378 0
M  V30 2668 C 259.598 -1.19607 -2.00541 0
M  V30 2669 C 260.579 -0.086346 -1.69881 0
M  V30 2670 O 261.764 -0.268654 -1.92333 0
M  V30 2671 C 258.894 -0.888758 -3.35736 0
M  V30 2672 C 257.848 -1.95659 -3.8066 0
M  V30 2673 C 257.174 -1.50224 -5.13164 0
M  V30 2674 C 258.474 -3.36788 -3.99213 0
M  V30 2675 H 260.168 -2.13476 -2.09925 0
M  V30 2676 H 257.714 -1.02775 -1.00863 0
M  V30 2677 H 259.667 -0.799094 -4.13754 0
M  V30 2678 H 258.391 0.0856125 -3.26488 0
M  V30 2679 H 257.05 -2.03591 -3.04871 0
M  V30 2680 H 256.698 -0.516092 -5.00345 0
M  V30 2681 H 256.398 -2.2165 -5.44192 0
M  V30 2682 H 257.922 -1.42639 -5.93706 0
M  V30 2683 H 259.336 -3.31605 -4.67665 0
M  V30 2684 H 257.733 -4.06314 -4.41621 0
M  V30 2685 H 258.803 -3.78561 -3.03017 0
M  V30 2686 N 260.146 1.09593 -1.13257 0
M  V30 2687 C 261.371 1.8604 -0.916732 0
M  V30 2688 C 261.796 1.80504 0.529146 0
M  V30 2689 O 261.154 1.18127 1.37534 0
M  V30 2690 C 261.202 3.32017 -1.40703 0
M  V30 2691 O 260.306 4.08141 -0.591153 0
M  V30 2692 H 259.647 0.576943 -0.328683 0
M  V30 2693 H 262.177 1.38405 -1.50682 0
M  V30 2694 H 262.187 3.82865 -1.4099 0
M  V30 2695 H 260.862 3.35361 -2.45979 0
M  V30 2696 H 259.439 3.67084 -0.656005 0
M  V30 2697 N 261.624 0.925811 1.2754 0
M  V30 2698 C 262.87 0.575575 1.95086 0
M  V30 2699 C 263.225 -0.873246 1.71441 0
M  V30 2700 O 262.518 -1.61443 1.03183 0
M  V30 2701 C 262.712 0.835296 3.47502 0
M  V30 2702 C 262.541 2.30781 3.85967 0
M  V30 2703 C 261.311 2.96017 4.09514 0
M  V30 2704 C 263.509 3.28519 3.95702 0
M  V30 2705 N 261.491 4.3344 4.34744 0
M  V30 2706 C 262.862 4.51146 4.25285 0
M  V30 2707 C 264.917 3.23753 3.7827 0
M  V30 2708 C 263.62 5.69606 4.39251 0
M  V30 2709 C 265.646 4.41523 3.9346 0
M  V30 2710 C 265.008 5.62928 4.23428 0
M  V30 2711 H 261.107 0.260711 0.737261 0
M  V30 2712 H 263.691 1.19204 1.53943 0
M  V30 2713 H 261.862 0.248005 3.87607 0
M  V30 2714 H 263.594 0.447878 4.02214 0
M  V30 2715 H 260.349 2.46695 4.04275 0
M  V30 2716 H 260.773 5.04528 4.5142 0
M  V30 2717 H 265.415 2.3096 3.54143 0
M  V30 2718 H 263.133 6.62866 4.62205 0
M  V30 2719 H 266.719 4.39351 3.81394 0
M  V30 2720 H 265.599 6.52538 4.34929 0
M  V30 2721 N 263.102 -1.41638 0.69111 0
M  V30 2722 C 264.518 -1.55435 0.362224 0
M  V30 2723 C 264.718 -1.66754 -1.13117 0
M  V30 2724 O 263.774 -1.64348 -1.91692 0
M  V30 2725 C 265.087 -2.79588 1.10684 0
M  V30 2726 C 266.635 -2.9338 1.09075 0
M  V30 2727 C 267.11 -4.20414 1.81703 0
M  V30 2728 N 268.601 -4.27362 1.7865 0
M  V30 2729 C 269.336 -5.24507 2.31689 0
M  V30 2730 N 268.832 -6.27708 2.93179 0
M  V30 2731 N 270.625 -5.16416 2.2197 0
M  V30 2732 H 262.776 -1.32536 1.65976 0
M  V30 2733 H 265.039 -0.639115 0.700168 0
M  V30 2734 H 264.745 -2.77419 2.16175 0
M  V30 2735 H 264.619 -3.70973 0.682545 0
M  V30 2736 H 267.006 -2.95067 0.0441238 0
M  V30 2737 H 267.087 -2.0318 1.55407 0
M  V30 2738 H 266.731 -4.19488 2.86343 0
M  V30 2739 H 266.661 -5.09578 1.32808 0
M  V30 2740 H 269.152 -3.53415 1.33815 0
M  V30 2741 H 269.465 -6.98217 3.31229 0
M  V30 2742 H 267.81 -6.28223 2.97255 0
M  V30 2743 H 271.001 -4.34716 1.73607 0
M  V30 2744 H 271.174 -5.91958 2.63609 0
M  V30 2745 N 264.58 -0.43555 -1.51462 0
M  V30 2746 C 265.51 0.367376 -2.30592 0
M  V30 2747 C 266.491 1.02263 -1.35928 0
M  V30 2748 O 267.676 1.02661 -1.64847 0
M  V30 2749 C 264.806 1.46983 -3.14664 0
M  V30 2750 C 263.76 0.938161 -4.17591 0
M  V30 2751 C 263.086 2.13622 -4.90173 0
M  V30 2752 C 264.386 -0.0261621 -5.22293 0
M  V30 2753 H 266.08 -0.292969 -2.97963 0
M  V30 2754 H 263.626 -0.14234 -1.43295 0
M  V30 2755 H 265.579 2.03873 -3.688 0
M  V30 2756 H 264.303 2.15843 -2.4511 0
M  V30 2757 H 262.962 0.391481 -3.64504 0
M  V30 2758 H 262.61 2.81098 -4.17124 0
M  V30 2759 H 262.31 1.78688 -5.59772 0
M  V30 2760 H 263.834 2.7107 -5.47132 0
M  V30 2761 H 265.248 0.452384 -5.71512 0
M  V30 2762 H 263.645 -0.287992 -5.99409 0
M  V30 2763 H 264.715 -0.963391 -4.75233 0
M  V30 2764 N 266.058 1.56714 -0.166846 0
M  V30 2765 C 266.988 2.20754 0.760913 0
M  V30 2766 C 267.969 1.16178 1.24244 0
M  V30 2767 O 269.154 1.44592 1.29641 0
M  V30 2768 C 266.284 2.84478 1.99223 0
M  V30 2769 C 265.238 3.95053 1.64672 0
M  V30 2770 C 264.564 4.45805 2.95232 0
M  V30 2771 C 265.864 5.14865 0.878155 0
M  V30 2772 H 267.558 2.98537 0.22713 0
M  V30 2773 H 265.104 1.43596 0.107805 0
M  V30 2774 H 267.057 3.27951 2.64624 0
M  V30 2775 H 265.781 2.04056 2.55007 0
M  V30 2776 H 264.44 3.52228 1.01641 0
M  V30 2777 H 264.088 3.62181 3.49047 0
M  V30 2778 H 263.788 5.204 2.7287 0
M  V30 2779 H 265.312 4.91962 3.6167 0
M  V30 2780 H 266.726 5.55059 1.43466 0
M  V30 2781 H 265.123 5.95348 0.753738 0
M  V30 2782 H 266.193 4.84735 -0.126377 0
M  V30 2783 N 267.536 -0.106894 1.57237 0
M  V30 2784 C 268.784 -0.810921 1.85117 0
M  V30 2785 C 269.105 -1.7984 0.753827 0
M  V30 2786 O 268.375 -1.94649 -0.221056 0
M  V30 2787 H 266.955 -0.302466 0.683025 0
M  V30 2788 H 269.617 -0.0913324 1.94686 0
M  V30 2789 H 268.713 -1.34875 2.81452 0
M  V30 2790 N 269.014 -1.53014 -0.377408 0
M  V30 2791 C 269.924 -1.81557 -1.48574 0
M  V30 2792 C 270.94 -0.703102 -1.59162 0
M  V30 2793 O 272.116 -0.99192 -1.75279 0
M  V30 2794 C 269.181 -1.9889 -2.83978 0
M  V30 2795 C 268.242 -3.22801 -2.83016 0
M  V30 2796 C 267.475 -3.39298 -4.11962 0
M  V30 2797 O 267.698 -2.60345 -5.0752 0
M  V30 2798 O 266.632 -4.32604 -4.18494 0
M  V30 2799 H 270.458 -2.75695 -1.27382 0
M  V30 2800 H 268.043 -1.38248 -0.566373 0
M  V30 2801 H 269.925 -2.11931 -3.6423 0
M  V30 2802 H 268.6 -1.07942 -3.05172 0
M  V30 2803 H 267.507 -3.15193 -2.01505 0
M  V30 2804 H 268.84 -4.13632 -2.66775 0
M  V30 2805 N 270.492 0.636531 -1.44174 0
M  V30 2806 C 271.455 1.73063 -1.50273 0
M  V30 2807 C 272.455 1.56113 -0.385397 0
M  V30 2808 O 273.645 1.61707 -0.64781 0
M  V30 2809 C 270.777 3.12096 -1.37145 0
M  V30 2810 H 271.97 1.69031 -2.47727 0
M  V30 2811 H 269.523 0.849706 -1.31186 0
M  V30 2812 H 270.258 3.21728 -0.407636 0
M  V30 2813 H 270.043 3.25805 -2.18159 0
M  V30 2814 H 271.533 3.91846 -1.44382 0
M  V30 2815 N 271.97 1.30982 0.876444 0
M  V30 2816 C 272.9 1.20668 1.99903 0
M  V30 2817 C 273.881 0.095354 1.69833 0
M  V30 2818 O 275.066 0.27885 1.92188 0
M  V30 2819 C 272.196 0.90655 3.3526 0
M  V30 2820 C 271.15 1.97675 3.79617 0
M  V30 2821 C 270.476 1.52943 5.1236 0
M  V30 2822 C 271.776 3.389 3.97422 0
M  V30 2823 H 273.47 2.14586 2.0879 0
M  V30 2824 H 271.016 1.03308 1.00317 0
M  V30 2825 H 272.969 0.821025 4.13324 0
M  V30 2826 H 271.693 -0.0682969 3.26529 0
M  V30 2827 H 270.352 2.05205 3.03787 0
M  V30 2828 H 270 0.54262 5.00065 0
M  V30 2829 H 269.7 2.24532 5.43009 0
M  V30 2830 H 271.224 1.45786 5.92941 0
M  V30 2831 H 272.638 3.34081 4.659 0
M  V30 2832 H 271.035 4.0865 4.3946 0
M  V30 2833 H 272.105 3.80163 3.01006 0
M  V30 2834 N 273.449 -1.08991 1.13837 0
M  V30 2835 C 274.674 -1.85551 0.926585 0
M  V30 2836 C 275.099 -1.80782 -0.519566 0
M  V30 2837 O 274.457 -1.18855 -1.36906 0
M  V30 2838 C 274.505 -3.31266 1.42462 0
M  V30 2839 O 273.609 -4.07822 0.612789 0
M  V30 2840 H 272.95 -0.575192 0.331738 0
M  V30 2841 H 275.48 -1.37604 1.51414 0
M  V30 2842 H 275.49 -3.82112 1.43019 0
M  V30 2843 H 274.165 -3.34052 2.47754 0
M  V30 2844 H 272.742 -3.66731 0.675463 0
M  V30 2845 N 274.927 -0.932562 -1.27047 0
M  V30 2846 C 276.152 -0.591474 -1.98787 0
M  V30 2847 C 276.577 0.824601 -1.69062 0
M  V30 2848 O 275.935 1.5541 -0.933677 0
M  V30 2849 C 275.983 -0.829808 -3.50922 0
M  V30 2850 O 275.087 0.102266 -4.12273 0
M  V30 2851 H 274.428 -0.227185 -0.623926 0
M  V30 2852 H 276.958 -1.25314 -1.61733 0
M  V30 2853 H 276.968 -0.747292 -4.01098 0
M  V30 2854 H 275.643 -1.86201 -3.7189 0
M  V30 2855 H 274.22 -0.0305761 -3.72887 0
M  V30 2856 N 276.405 1.4127 -0.698611 0
M  V30 2857 C 277.337 2.292 0.00399731 0
M  V30 2858 C 278.35 1.44944 0.741279 0
M  V30 2859 O 279.539 1.68416 0.591477 0
M  V30 2860 C 276.639 3.22875 1.02979 0
M  V30 2861 C 275.812 4.35904 0.36151 0
M  V30 2862 C 274.871 5.10134 1.29033 0
M  V30 2863 O 273.897 5.63809 0.781562 0
M  V30 2864 N 275.099 5.17885 2.6225 0
M  V30 2865 H 277.864 2.9014 -0.750921 0
M  V30 2866 H 275.425 1.52455 -0.544882 0
M  V30 2867 H 277.417 3.69404 1.65296 0
M  V30 2868 H 275.987 2.63221 1.68622 0
M  V30 2869 H 275.207 3.91719 -0.441584 0
M  V30 2870 H 276.495 5.08696 -0.103055 0
M  V30 2871 H 275.893 4.7573 3.061 0
M  V30 2872 H 274.45 5.6798 3.19754 0
M  V30 2873 N 277.883 0.443576 1.51229 0
M  V30 2874 C 278.813 -0.355142 2.30783 0
M  V30 2875 C 279.794 -1.0154 1.36468 0
M  V30 2876 O 280.979 -1.01785 1.65389 0
M  V30 2877 C 278.109 -1.45312 3.15439 0
M  V30 2878 C 277.063 -0.916002 4.18083 0
M  V30 2879 C 276.389 -2.1102 4.91299 0
M  V30 2880 C 277.689 0.0538602 5.22272 0
M  V30 2881 H 279.383 0.308767 2.97804 0
M  V30 2882 H 276.929 0.149937 1.43217 0
M  V30 2883 H 278.882 -2.01914 3.69876 0
M  V30 2884 H 277.606 -2.14541 2.46252 0
M  V30 2885 H 276.265 -0.372145 3.64706 0
M  V30 2886 H 275.913 -2.78882 4.18609 0
M  V30 2887 H 275.613 -1.75717 5.60712 0
M  V30 2888 H 277.137 -2.68164 5.48562 0
M  V30 2889 H 278.551 -0.422069 5.71744 0
M  V30 2890 H 276.948 0.319776 5.99247 0
M  V30 2891 H 278.018 0.98858 4.74716 0
M  V30 2892 N 279.361 -1.56624 0.175154 0
M  V30 2893 C 280.586 -2.01813 -0.478137 0
M  V30 2894 C 281.011 -1.05457 -1.55757 0
M  V30 2895 O 280.369 -0.0347439 -1.81267 0
M  V30 2896 C 280.417 -3.45581 -1.02987 0
M  V30 2897 O 279.521 -3.52305 -2.14371 0
M  V30 2898 H 278.862 -0.65413 -0.114059 0
M  V30 2899 H 281.392 -2.02673 0.280173 0
M  V30 2900 H 281.402 -3.84965 -1.35151 0
M  V30 2901 H 280.077 -4.1521 -0.239556 0
M  V30 2902 H 278.654 -3.24783 -1.83222 0
M  V30 2903 N 280.839 0.0985539 -1.57292 0
M  V30 2904 C 282.085 0.803867 -1.86188 0
M  V30 2905 C 282.418 1.78549 -0.763794 0
M  V30 2906 O 281.693 1.93153 0.22855 0
M  V30 2907 C 281.976 1.53568 -3.25713 0
M  V30 2908 C 281.829 0.572277 -4.46145 0
M  V30 2909 C 283.148 2.48708 -3.63087 0
M  V30 2910 H 280.267 0.290781 -0.677211 0
M  V30 2911 H 282.909 0.0675783 -1.8988 0
M  V30 2912 H 281.059 2.16332 -3.22696 0
M  V30 2913 H 282.731 -0.0480894 -4.61275 0
M  V30 2914 H 280.974 -0.114618 -4.33649 0
M  V30 2915 H 281.645 1.12139 -5.40489 0
M  V30 2916 H 284.121 1.96039 -3.67026 0
M  V30 2917 H 282.997 2.96932 -4.61652 0
M  V30 2918 H 283.258 3.32309 -2.91588 0
M  V30 2919 N 282.317 1.53212 0.369288 0
M  V30 2920 C 283.28 1.7872 1.43498 0
M  V30 2921 C 284.28 0.657554 1.46741 0
M  V30 2922 O 285.47 0.925736 1.47566 0
M  V30 2923 C 282.602 1.90591 2.82645 0
M  V30 2924 H 283.795 2.73894 1.22156 0
M  V30 2925 H 281.348 1.44233 0.602203 0
M  V30 2926 H 282.083 0.974709 3.09306 0
M  V30 2927 H 281.868 2.72751 2.8169 0
M  V30 2928 H 283.358 2.11931 3.59826 0
M  V30 2929 N 283.795 -0.628877 1.44509 0
M  V30 2930 C 285.072 -1.38733 1.37886 0
M  V30 2931 C 285.452 -2.11065 0.0387008 0
M  V30 2932 O 284.8 -2.06476 -0.97878 0
M  V30 2933 C 285.01 -2.35188 2.57852 0
M  V30 2934 C 286.358 -2.9845 3.02014 0
M  V30 2935 O 287.382 -2.45513 2.58073 0
M  V30 2936 O 286.241 -3.94487 3.78209 0
M  V30 2937 H 283.335 -0.621015 0.54614 0
M  V30 2938 H 285.881 -0.653744 1.56602 0
M  V30 2939 H 284.653 -1.80855 3.46998 0
M  V30 2940 H 284.276 -3.1596 2.4136 0
M  V30 2941 N 285.273 -1.31445 -0.869486 0
M  V30 2942 C 286.205 -1.14955 -1.98287 0
M  V30 2943 C 287.218 -0.0885037 -1.62559 0
M  V30 2944 O 288.407 -0.336044 -1.75308 0
M  V30 2945 C 285.507 -0.734255 -3.3085 0
M  V30 2946 C 284.68 -1.88042 -3.94917 0
M  V30 2947 C 283.739 -1.4511 -5.05796 0
M  V30 2948 O 282.765 -2.16082 -5.2659 0
M  V30 2949 N 283.967 -0.338763 -5.79511 0
M  V30 2950 H 286.732 -2.10856 -2.12979 0
M  V30 2951 H 284.293 -1.23786 -1.04349 0
M  V30 2952 H 286.285 -0.42975 -4.02412 0
M  V30 2953 H 284.855 0.133158 -3.12316 0
M  V30 2954 H 284.075 -2.35222 -3.1633 0
M  V30 2955 H 285.363 -2.6481 -4.34457 0
M  V30 2956 H 284.761 0.252274 -5.65137 0
M  V30 2957 H 283.318 -0.0937925 -6.51733 0
M  V30 2958 N 286.751 1.08385 -1.14413 0
M  V30 2959 C 288.167 1.32844 -0.884563 0
M  V30 2960 C 288.367 1.95841 0.474181 0
M  V30 2961 O 287.423 2.21158 1.21842 0
M  V30 2962 C 288.736 2.22978 -2.01745 0
M  V30 2963 C 290.284 2.36458 -2.05077 0
M  V30 2964 C 290.759 3.29934 -3.1766 0
M  V30 2965 N 292.25 3.37511 -3.17239 0
M  V30 2966 C 292.985 4.09871 -4.0099 0
M  V30 2967 N 292.481 4.84936 -4.94781 0
M  V30 2968 N 294.274 4.05704 -3.89051 0
M  V30 2969 H 286.425 0.658756 -2.01926 0
M  V30 2970 H 288.688 0.352821 -0.879899 0
M  V30 2971 H 288.394 1.83934 -2.99769 0
M  V30 2972 H 288.268 3.23441 -1.94077 0
M  V30 2973 H 290.655 2.7476 -1.0766 0
M  V30 2974 H 290.736 1.35736 -2.16816 0
M  V30 2975 H 290.38 2.92352 -4.15322 0
M  V30 2976 H 290.31 4.30584 -3.03158 0
M  V30 2977 H 292.801 2.83996 -2.49308 0
M  V30 2978 H 293.114 5.37612 -5.55151 0
M  V30 2979 H 291.459 4.83988 -4.98779 0
M  V30 2980 H 294.65 3.46167 -3.15097 0
M  V30 2981 H 294.823 4.61834 -4.54547 0
M  V30 2982 N 288.23 0.939286 1.26551 0
M  V30 2983 C 289.646 0.641304 1.46149 0
M  V30 2984 C 289.846 -0.805964 1.84679 0
M  V30 2985 O 288.902 -1.58278 1.96734 0
M  V30 2986 C 290.215 1.6011 2.54529 0
M  V30 2987 C 291.763 1.6106 2.68382 0
M  V30 2988 C 292.238 2.55765 3.79932 0
M  V30 2989 N 293.729 2.5404 3.87322 0
M  V30 2990 C 294.464 3.24004 4.73085 0
M  V30 2991 N 293.96 4.03388 5.63249 0
M  V30 2992 N 295.753 3.12965 4.66914 0
M  V30 2993 H 287.904 1.87478 0.998285 0
M  V30 2994 H 290.167 0.805559 0.499779 0
M  V30 2995 H 289.873 2.63412 2.33039 0
M  V30 2996 H 289.747 1.35171 3.52149 0
M  V30 2997 H 292.134 0.584835 2.89247 0
M  V30 2998 H 292.215 1.90053 1.71212 0
M  V30 2999 H 291.859 3.58458 3.5982 0
M  V30 3000 H 291.789 2.24063 4.76554 0
M  V30 3001 H 294.28 1.96396 3.22858 0
M  V30 3002 H 294.593 4.5373 6.25579 0
M  V30 3003 H 292.938 4.07489 5.63008 0
M  V30 3004 H 296.129 2.50432 3.95476 0
M  V30 3005 H 296.302 3.67759 5.33533 0
M  V30 3006 N 289.708 -1.40897 0.706093 0
M  V30 3007 C 290.957 -2.00284 0.238574 0
M  V30 3008 C 291.27 -1.56604 -1.17194 0
M  V30 3009 O 292.476 -2.08624 -1.73748 0
M  V30 3010 C 290.932 -3.57934 0.375623 0
M  V30 3011 C 290.54 -4.10591 1.79217 0
M  V30 3012 C 292.284 -4.24488 -0.0315857 0
M  V30 3013 C 290.191 -5.60712 1.88032 0
M  V30 3014 H 289.121 -0.749144 0.0854398 0
M  V30 3015 H 291.772 -1.61251 0.875813 0
M  V30 3016 H 290.154 -3.94622 -0.330042 0
M  V30 3017 H 291.328 -3.85301 2.52745 0
M  V30 3018 H 289.643 -3.56601 2.15 0
M  V30 3019 H 292.24 -5.34698 0.0136842 0
M  V30 3020 H 292.583 -4.02261 -1.072 0
M  V30 3021 H 293.116 -3.92873 0.624181 0
M  V30 3022 H 289.855 -5.87781 2.90161 0
M  V30 3023 H 289.375 -5.87896 1.18903 0
M  V30 3024 H 291.054 -6.25658 1.64805 0
M  V30 3025 N 291.186 -0.45159 -1.50991 0
M  V30 3026 C 292.432 0.110237 -2.025 0
M  V30 3027 C 292.765 1.41109 -1.33424 0
M  V30 3028 O 292.04 1.89135 -0.453659 0
M  V30 3029 C 292.323 0.314271 -3.58726 0
M  V30 3030 C 292.176 -1.00623 -4.38401 0
M  V30 3031 C 293.495 1.07767 -4.26702 0
M  V30 3032 H 290.614 0.0385897 -0.735989 0
M  V30 3033 H 293.256 -0.593374 -1.80497 0
M  V30 3034 H 291.406 0.913601 -3.77605 0
M  V30 3035 H 293.078 -1.64064 -4.31139 0
M  V30 3036 H 291.321 -1.6075 -4.02917 0
M  V30 3037 H 291.992 -0.817341 -5.45915 0
M  V30 3038 H 294.468 0.56986 -4.12179 0
M  V30 3039 H 293.344 1.18921 -5.35863 0
M  V30 3040 H 293.605 2.10939 -3.88532 0
M  V30 3041 N 292.664 1.56529 -0.183458 0
M  V30 3042 C 293.627 2.17324 0.728223 0
M  V30 3043 C 294.627 1.12453 1.14939 0
M  V30 3044 O 295.817 1.37902 1.06437 0
M  V30 3045 C 292.949 2.76591 1.99274 0
M  V30 3046 H 294.142 2.99241 0.198772 0
M  V30 3047 H 291.695 1.5616 0.0661391 0
M  V30 3048 H 292.43 1.98441 2.56499 0
M  V30 3049 H 292.215 3.5335 1.69959 0
M  V30 3050 H 293.705 3.23311 2.6431 0
M  V30 3051 N 294.142 -0.090211 1.57342 0
M  V30 3052 C 295.072 -1.10976 2.05443 0
M  V30 3053 C 296.053 -1.41482 0.944284 0
M  V30 3054 O 297.238 -1.51428 1.21586 0
M  V30 3055 C 294.368 -2.42831 2.48295 0
M  V30 3056 C 293.322 -2.26721 3.63018 0
M  V30 3057 C 292.648 -3.63796 3.91863 0
M  V30 3058 C 293.948 -1.7037 4.93732 0
M  V30 3059 H 295.642 -0.709564 2.9087 0
M  V30 3060 H 293.188 -0.339874 1.39932 0
M  V30 3061 H 295.141 -3.14431 2.80555 0
M  V30 3062 H 293.865 -2.84795 1.59873 0
M  V30 3063 H 292.524 -1.57565 3.31012 0
M  V30 3064 H 292.172 -4.03297 3.00601 0
M  V30 3065 H 291.872 -3.53861 4.69101 0
M  V30 3066 H 293.396 -4.36855 4.26603 0
M  V30 3067 H 294.81 -2.31816 5.24342 0
M  V30 3068 H 293.207 -1.71181 5.75167 0
M  V30 3069 H 294.277 -0.663542 4.80339 0
M  V30 3070 N 295.62 -1.53406 -0.361157 0
M  V30 3071 C 296.583 -1.79479 -1.42548 0
M  V30 3072 C 297.583 -0.665327 -1.4639 0
M  V30 3073 O 298.773 -0.933549 -1.47073 0
M  V30 3074 C 295.905 -1.92087 -2.8163 0
M  V30 3075 H 297.098 -2.74538 -1.20701 0
M  V30 3076 H 294.651 -1.4455 -0.594546 0
M  V30 3077 H 295.386 -0.991099 -3.08784 0
M  V30 3078 H 295.171 -2.74241 -2.80239 0
M  V30 3079 H 296.661 -2.13836 -3.58697 0
M  V30 3080 N 297.098 0.621204 -1.44841 0
M  V30 3081 C 298.345 1.38055 -1.48145 0
M  V30 3082 C 298.673 1.94143 -0.117867 0
M  V30 3083 O 297.928 1.74713 0.881694 0
M  V30 3084 C 298.227 2.55675 -2.4973 0
M  V30 3085 C 297.893 2.17817 -3.94799 0
M  V30 3086 C 296.555 2.07205 -4.34303 0
M  V30 3087 C 298.907 1.88065 -4.86087 0
M  V30 3088 C 296.235 1.65045 -5.63007 0
M  V30 3089 C 298.587 1.47394 -6.15189 0
M  V30 3090 C 297.251 1.35331 -6.53637 0
M  V30 3091 H 296.521 0.505181 -0.542101 0
M  V30 3092 H 299.168 0.703477 -1.78111 0
M  V30 3093 H 297.473 3.2866 -2.13284 0
M  V30 3094 H 299.17 3.13904 -2.4953 0
M  V30 3095 H 295.76 2.26998 -3.63552 0
M  V30 3096 H 299.944 1.95168 -4.56315 0
M  V30 3097 H 295.2 1.54317 -5.91605 0
M  V30 3098 H 299.374 1.23415 -6.85377 0
M  V30 3099 H 297.001 1.02435 -7.53267 0
M  V30 3100 N 298.576 1.31904 0.862503 0
M  V30 3101 C 299.992 1.10724 1.14945 0
M  V30 3102 C 300.192 -0.117421 2.01158 0
M  V30 3103 O 299.248 -0.804595 2.39338 0
M  V30 3104 C 300.561 2.38267 1.83437 0
M  V30 3105 C 302.109 2.43949 1.96106 0
M  V30 3106 C 302.584 3.71394 2.68013 0
M  V30 3107 N 304.075 3.72331 2.75543 0
M  V30 3108 C 304.81 4.67641 3.31812 0
M  V30 3109 N 304.306 5.73313 3.88953 0
M  V30 3110 N 306.099 4.5515 3.29841 0
M  V30 3111 H 298.25 2.10436 0.288191 0
M  V30 3112 H 300.513 0.928705 0.190292 0
M  V30 3113 H 300.219 3.27759 1.27542 0
M  V30 3114 H 300.093 2.48633 2.83657 0
M  V30 3115 H 302.48 1.54922 2.51164 0
M  V30 3116 H 302.561 2.37543 0.949059 0
M  V30 3117 H 302.205 4.60791 2.13621 0
M  V30 3118 H 302.135 3.75069 3.69636 0
M  V30 3119 H 304.626 2.95947 2.34997 0
M  V30 3120 H 304.939 6.42107 4.30022 0
M  V30 3121 H 303.284 5.77077 3.87308 0
M  V30 3122 H 306.475 3.71766 2.84443 0
M  V30 3123 H 306.648 5.29604 3.73394 0
M  V30 3124 N 300.054 -1.07777 1.14986 0
M  V30 3125 C 300.987 -2.14228 0.786243 0
M  V30 3126 C 301.965 -1.60888 -0.235347 0
M  V30 3127 O 303.149 -1.88099 -0.122909 0
M  V30 3128 C 300.276 -3.38281 0.168433 0
M  V30 3129 C 299.322 -4.10387 1.16123 0
M  V30 3130 S 300.155 -4.62371 2.70135 0
M  V30 3131 C 301.311 -5.89704 2.09762 0
M  V30 3132 H 301.544 -2.44741 1.68787 0
M  V30 3133 H 299.077 -1.19984 0.971756 0
M  V30 3134 H 301.035 -4.10098 -0.181588 0
M  V30 3135 H 299.696 -3.05953 -0.710725 0
M  V30 3136 H 298.889 -4.99431 0.677086 0
M  V30 3137 H 298.491 -3.44513 1.45556 0
M  V30 3138 H 300.783 -6.61648 1.45701 0
M  V30 3139 H 301.726 -6.42824 2.96955 0
M  V30 3140 H 302.134 -5.4302 1.54239 0
M  V30 3141 N 301.532 -0.945985 -1.26051 0
M  V30 3142 C 302.778 -0.606539 -1.94146 0
M  V30 3143 C 303.133 0.84586 -1.72809 0
M  V30 3144 O 302.426 1.59781 -1.05738 0
M  V30 3145 C 302.62 -0.890475 -3.46129 0
M  V30 3146 C 302.449 -2.36892 -3.82246 0
M  V30 3147 C 301.219 -3.02494 -4.04753 0
M  V30 3148 C 303.417 -3.34772 -3.90425 0
M  V30 3149 N 301.399 -4.40302 -4.27794 0
M  V30 3150 C 302.77 -4.57855 -4.18054 0
M  V30 3151 C 304.825 -3.2973 -3.73072 0
M  V30 3152 C 303.528 -5.76522 -4.30134 0
M  V30 3153 C 305.554 -4.47727 -3.86386 0
M  V30 3154 C 304.916 -5.69593 -4.14419 0
M  V30 3155 H 301.015 -0.272407 -0.73302 0
M  V30 3156 H 303.599 -1.21638 -1.52027 0
M  V30 3157 H 301.77 -0.309638 -3.87164 0
M  V30 3158 H 303.502 -0.51181 -4.01451 0
M  V30 3159 H 300.257 -2.53095 -4.003 0
M  V30 3160 H 300.681 -5.11646 -4.43337 0
M  V30 3161 H 305.323 -2.36565 -3.50424 0
M  V30 3162 H 303.041 -6.70136 -4.51601 0
M  V30 3163 H 306.627 -4.45363 -3.74356 0
M  V30 3164 H 305.507 -6.59375 -4.24493 0
M  V30 3165 N 303.011 1.40521 -0.713556 0
M  V30 3166 C 304.236 2.05759 -0.26035 0
M  V30 3167 C 304.661 1.53403 1.08854 0
M  V30 3168 O 304.019 0.668535 1.68524 0
M  V30 3169 C 304.067 3.59745 -0.248122 0
M  V30 3170 O 303.171 4.05123 0.77131 0
M  V30 3171 H 302.512 0.652564 -0.122703 0
M  V30 3172 H 305.042 1.79958 -0.973467 0
M  V30 3173 H 305.052 4.07911 -0.0851129 0
M  V30 3174 H 303.727 3.97218 -1.2325 0
M  V30 3175 H 302.304 3.68422 0.57619 0
M  V30 3176 N 304.489 0.459591 1.5075 0
M  V30 3177 C 305.399 -0.34613 2.32033 0
M  V30 3178 C 306.415 -1.00686 1.41909 0
M  V30 3179 O 307.591 -0.997361 1.7497 0
M  V30 3180 C 304.656 -1.42029 3.16273 0
M  V30 3181 C 303.717 -0.777362 4.22203 0
M  V30 3182 C 302.95 -1.80034 5.02418 0
M  V30 3183 O 303.173 -3.02544 4.83553 0
M  V30 3184 O 302.107 -1.37853 5.85901 0
M  V30 3185 H 305.933 0.318054 3.0203 0
M  V30 3186 H 303.518 0.221663 1.47746 0
M  V30 3187 H 305.4 -2.04275 3.68578 0
M  V30 3188 H 304.075 -2.06815 2.49016 0
M  V30 3189 H 302.982 -0.116256 3.73919 0
M  V30 3190 H 304.315 -0.172634 4.91897 0
M  V30 3191 N 305.967 -1.56429 0.191757 0
M  V30 3192 C 307.213 -1.97777 -0.448554 0
M  V30 3193 C 307.546 -1.07847 -1.61501 0
M  V30 3194 O 306.821 -0.129774 -1.94067 0
M  V30 3195 C 307.104 -3.48362 -0.911906 0
M  V30 3196 C 306.957 -4.4907 0.256136 0
M  V30 3197 C 308.276 -4.02561 -1.77857 0
M  V30 3198 H 305.395 -0.719071 -0.161572 0
M  V30 3199 H 308.037 -1.87896 0.282007 0
M  V30 3200 H 306.187 -3.56914 -1.53442 0
M  V30 3201 H 307.859 -4.5256 0.893733 0
M  V30 3202 H 306.102 -4.24181 0.908436 0
M  V30 3203 H 306.773 -5.51889 -0.11053 0
M  V30 3204 H 309.249 -3.96767 -1.25359 0
M  V30 3205 H 308.125 -5.08301 -2.07174 0
M  V30 3206 H 308.386 -3.47616 -2.73158 0
M  V30 3207 N 307.445 0.0818655 -1.57387 0
M  V30 3208 C 308.673 0.796108 -1.9097 0
M  V30 3209 C 309.088 1.71626 -0.786757 0
M  V30 3210 O 308.445 1.80908 0.240513 0
M  V30 3211 C 308.496 1.59829 -3.24248 0
M  V30 3212 O 308.217 0.715131 -4.32224 0
M  V30 3213 C 309.718 2.41442 -3.7178 0
M  V30 3214 H 306.938 0.22691 -0.631469 0
M  V30 3215 H 309.482 0.0551439 -2.04426 0
M  V30 3216 H 307.637 2.29163 -3.12351 0
M  V30 3217 H 308.051 1.27205 -5.08841 0
M  V30 3218 H 309.525 2.932 -4.67694 0
M  V30 3219 H 310.002 3.2051 -3.00283 0
M  V30 3220 H 310.608 1.77283 -3.86589 0
M  V30 3221 N 308.923 1.53595 0.353017 0
M  V30 3222 C 310.334 1.61937 0.929153 0
M  V30 3223 C 310.685 0.494686 1.89861 0
M  V30 3224 O 309.81 -0.377017 2.1309 0
M  V30 3225 C 310.405 2.93526 1.69199 0
M  V30 3226 C 308.964 3.04161 2.21727 0
M  V30 3227 C 308.111 2.57322 1.03348 0
M  V30 3228 H 311.062 1.58155 0.131431 0
M  V30 3229 H 311.083 2.82034 2.55416 0
M  V30 3230 H 310.595 3.75362 0.986144 0
M  V30 3231 H 308.696 2.26938 2.95516 0
M  V30 3232 H 308.809 4.09465 2.48748 0
M  V30 3233 H 307.173 2.12499 1.40414 0
M  V30 3234 H 307.956 3.41588 0.342428 0
M  V30 3235 N 310.401 -0.613514 1.45168 0
M  V30 3236 C 311.331 -1.7354 1.56225 0
M  V30 3237 C 312.312 -1.64981 0.41414 0
M  V30 3238 O 313.497 -1.83472 0.636526 0
M  V30 3239 C 310.627 -3.12128 1.52295 0
M  V30 3240 C 309.581 -3.35491 2.65762 0
M  V30 3241 C 308.907 -4.74291 2.46885 0
M  V30 3242 C 310.207 -3.26325 4.0781 0
M  V30 3243 H 311.901 -1.64543 2.50132 0
M  V30 3244 H 309.447 -0.790185 1.20383 0
M  V30 3245 H 311.4 -3.90404 1.58628 0
M  V30 3246 H 310.124 -3.2195 0.549139 0
M  V30 3247 H 308.783 -2.59603 2.58847 0
M  V30 3248 H 308.431 -4.80839 1.47657 0
M  V30 3249 H 308.131 -4.9088 3.22972 0
M  V30 3250 H 309.655 -5.54775 2.55063 0
M  V30 3251 H 311.069 -3.94483 4.16 0
M  V30 3252 H 309.466 -3.54445 4.8424 0
M  V30 3253 H 310.536 -2.23855 4.30136 0
M  V30 3254 N 311.879 -1.3236 -0.855495 0
M  V30 3255 C 313.156 -1.13491 -1.59309 0
M  V30 3256 C 313.536 0.30503 -2.08885 0
M  V30 3257 O 312.884 1.30151 -1.87811 0
M  V30 3258 C 313.094 -2.16176 -2.73987 0
M  V30 3259 C 314.442 -2.49463 -3.43589 0
M  V30 3260 O 315.466 -2.14715 -2.84211 0
M  V30 3261 O 314.325 -3.09027 -4.50738 0
M  V30 3262 H 311.419 -0.437887 -0.701559 0
M  V30 3263 H 313.965 -1.43887 -0.899696 0
M  V30 3264 H 312.737 -3.1297 -2.34873 0
M  V30 3265 H 312.36 -1.86769 -3.51003 0
M  V30 3266 N 313.357 1.07166 -1.15556 0
M  V30 3267 C 314.604 1.79798 -0.931604 0
M  V30 3268 C 314.932 1.8682 0.54115 0
M  V30 3269 O 314.187 1.34942 1.41736 0
M  V30 3270 C 314.486 3.24707 -1.49332 0
M  V30 3271 C 314.152 3.37781 -2.98688 0
M  V30 3272 C 312.814 3.41057 -3.39461 0
M  V30 3273 C 315.166 3.40424 -3.94665 0
M  V30 3274 C 312.494 3.4458 -4.74849 0
M  V30 3275 C 314.846 3.45485 -5.29927 0
M  V30 3276 C 313.51 3.47039 -5.70193 0
M  V30 3277 H 312.78 0.657928 -0.340898 0
M  V30 3278 H 315.427 1.26091 -1.44129 0
M  V30 3279 H 313.732 3.81208 -0.904859 0
M  V30 3280 H 315.429 3.79486 -1.29582 0
M  V30 3281 H 312.019 3.35932 -2.66172 0
M  V30 3282 H 316.203 3.37113 -3.64237 0
M  V30 3283 H 311.459 3.44083 -5.05388 0
M  V30 3284 H 315.633 3.46476 -6.04092 0
M  V30 3285 H 313.26 3.49522 -6.75084 0
M  V30 3286 N 314.835 0.952656 1.25548 0
M  V30 3287 C 316.251 0.656769 1.4546 0
M  V30 3288 C 316.451 -0.78633 1.85524 0
M  V30 3289 O 315.507 -1.56183 1.98402 0
M  V30 3290 C 316.82 1.62801 2.52817 0
M  V30 3291 C 318.368 1.63897 2.66659 0
M  V30 3292 C 318.843 2.5978 3.77198 0
M  V30 3293 N 320.334 2.58133 3.84606 0
M  V30 3294 C 321.069 3.29003 4.69621 0
M  V30 3295 N 320.565 4.09339 5.58939 0
M  V30 3296 N 322.358 3.179 4.63569 0
M  V30 3297 H 314.509 1.88526 0.978344 0
M  V30 3298 H 316.772 0.810815 0.491206 0
M  V30 3299 H 316.478 2.65869 2.30232 0
M  V30 3300 H 316.352 1.38898 3.50695 0
M  V30 3301 H 318.739 0.615481 2.8861 0
M  V30 3302 H 318.82 1.91858 1.69187 0
M  V30 3303 H 318.464 3.62254 3.55997 0
M  V30 3304 H 318.394 2.29105 4.7415 0
M  V30 3305 H 320.885 1.99809 3.20757 0
M  V30 3306 H 321.198 4.6034 6.20731 0
M  V30 3307 H 319.543 4.13438 5.58654 0
M  V30 3308 H 322.734 2.54612 3.92798 0
M  V30 3309 H 322.907 3.73398 5.29602 0
M  V30 3310 N 316.313 -1.40141 0.720998 0
M  V30 3311 C 317.223 -2.34486 0.0731031 0
M  V30 3312 C 318.239 -1.57587 -0.737723 0
M  V30 3313 O 319.415 -1.89949 -0.669429 0
M  V30 3314 C 316.48 -3.36528 -0.833656 0
M  V30 3315 C 315.541 -4.29298 -0.0121673 0
M  V30 3316 C 314.774 -5.26466 -0.875742 0
M  V30 3317 O 314.997 -5.29745 -2.11485 0
M  V30 3318 O 313.931 -6.01092 -0.31185 0
M  V30 3319 H 317.757 -2.9152 0.851444 0
M  V30 3320 H 315.342 -1.41427 0.481527 0
M  V30 3321 H 317.224 -3.99093 -1.35289 0
M  V30 3322 H 315.899 -2.81899 -1.59105 0
M  V30 3323 H 314.806 -3.70001 0.552262 0
M  V30 3324 H 316.139 -4.87094 0.707129 0
M  V30 3325 N 317.792 -0.46758 -1.50504 0
M  V30 3326 C 319.069 0.15003 -1.95024 0
M  V30 3327 C 319.449 1.57304 -1.40779 0
M  V30 3328 O 318.797 2.20281 -0.607319 0
M  V30 3329 C 319.007 0.0969324 -3.48865 0
M  V30 3330 C 320.355 0.287565 -4.23625 0
M  V30 3331 O 321.379 0.173678 -3.55776 0
M  V30 3332 O 320.238 0.517186 -5.44047 0
M  V30 3333 H 317.332 0.113582 -0.819163 0
M  V30 3334 H 319.878 -0.52773 -1.61286 0
M  V30 3335 H 318.65 -0.896732 -3.80886 0
M  V30 3336 H 318.273 0.816303 -3.8913 0
M  V30 3337 N 319.27 1.56325 -0.20005 0
M  V30 3338 C 320.2 2.22318 0.713916 0
M  V30 3339 C 321.181 1.18788 1.21752 0
M  V30 3340 O 322.366 1.47309 1.26545 0
M  V30 3341 C 319.496 2.88639 1.93144 0
M  V30 3342 C 318.45 3.98457 1.56255 0
M  V30 3343 C 317.776 4.51967 2.85709 0
M  V30 3344 C 319.076 5.16612 0.768747 0
M  V30 3345 H 320.77 2.98952 0.163755 0
M  V30 3346 H 318.316 1.43792 0.0773219 0
M  V30 3347 H 320.269 3.33491 2.57608 0
M  V30 3348 H 318.993 2.09419 2.50621 0
M  V30 3349 H 317.652 3.54305 0.941471 0
M  V30 3350 H 317.3 3.69503 3.41287 0
M  V30 3351 H 317 5.26071 2.6177 0
M  V30 3352 H 318.524 4.99523 3.51154 0
M  V30 3353 H 319.938 5.57977 1.3166 0
M  V30 3354 H 318.335 5.96812 0.627286 0
M  V30 3355 H 319.405 4.84358 -0.229168 0
M  V30 3356 N 320.748 -0.0735177 1.57428 0
M  V30 3357 C 321.711 -1.07192 2.02589 0
M  V30 3358 C 322.711 -1.31695 0.922661 0
M  V30 3359 O 323.901 -1.27445 1.18758 0
M  V30 3360 C 321.033 -2.41599 2.40506 0
M  V30 3361 H 322.226 -0.682727 2.92025 0
M  V30 3362 H 319.779 -0.319193 1.53006 0
M  V30 3363 H 320.514 -2.85354 1.5409 0
M  V30 3364 H 320.299 -2.25156 3.21009 0
M  V30 3365 H 321.789 -3.13367 2.76027 0
M  V30 3366 N 322.226 -1.5378 -0.344866 0
M  V30 3367 C 323.189 -1.80981 -1.40637 0
M  V30 3368 C 324.189 -0.680816 -1.45676 0
M  V30 3369 O 325.379 -0.949095 -1.46075 0
M  V30 3370 C 322.511 -1.95063 -2.79577 0
M  V30 3371 H 323.704 -2.75803 -1.17783 0
M  V30 3372 H 321.257 -1.45173 -0.579181 0
M  V30 3373 H 321.992 -1.02379 -3.07716 0
M  V30 3374 H 321.777 -2.77198 -2.77315 0
M  V30 3375 H 323.267 -2.17629 -3.56409 0
M  V30 3376 N 323.704 0.605807 -1.45491 0
M  V30 3377 C 325.115 1.18777 -1.44045 0
M  V30 3378 C 325.466 1.95471 -0.169001 0
M  V30 3379 O 324.591 2.0374 0.729324 0
M  V30 3380 C 325.186 2.16064 -2.60963 0
M  V30 3381 C 323.745 2.69633 -2.62631 0
M  V30 3382 C 322.892 1.45072 -2.36325 0
M  V30 3383 H 325.843 0.395017 -1.53705 0
M  V30 3384 H 325.864 2.9913 -2.35163 0
M  V30 3385 H 325.376 1.60217 -3.53486 0
M  V30 3386 H 323.477 3.29414 -1.74119 0
M  V30 3387 H 323.59 3.13944 -3.61906 0
M  V30 3388 H 321.954 1.74089 -1.85917 0
M  V30 3389 H 322.737 0.910899 -3.30995 0
M  V30 3390 N 325.182 1.32811 0.848464 0
M  V30 3391 C 326.43 1.23479 1.59991 0
M  V30 3392 C 326.751 -0.201853 1.93952 0
M  V30 3393 O 326.021 -1.12818 1.60153 0
M  V30 3394 H 324.601 0.454034 0.593179 0
M  V30 3395 H 327.263 1.66412 1.01455 0
M  V30 3396 H 326.359 1.82178 2.53412 0
M  V30 3397 N 326.66 -1.06551 1.16123 0
M  V30 3398 C 327.623 -2.12132 0.867906 0
M  V30 3399 C 328.623 -1.60224 -0.135944 0
M  V30 3400 O 329.813 -1.73943 0.0946422 0
M  V30 3401 C 326.945 -3.396 0.297419 0
M  V30 3402 H 328.138 -2.39586 1.80385 0
M  V30 3403 H 325.691 -1.22574 0.969812 0
M  V30 3404 H 326.426 -3.17794 -0.64633 0
M  V30 3405 H 326.211 -3.78581 1.02073 0
M  V30 3406 H 327.701 -4.17455 0.110052 0
M  V30 3407 N 328.138 -0.959301 -1.25041 0
M  V30 3408 C 329.101 -0.487677 -2.23952 0
M  V30 3409 C 330.101 0.41119 -1.55454 0
M  V30 3410 O 331.291 0.207825 -1.72956 0
M  V30 3411 C 328.423 0.294807 -3.39623 0
M  V30 3412 H 329.616 -1.36198 -2.67189 0
M  V30 3413 H 327.169 -0.743042 -1.37508 0
M  V30 3414 H 327.904 1.18658 -3.01813 0
M  V30 3415 H 327.689 -0.35012 -3.90534 0
M  V30 3416 H 329.179 0.614089 -4.1306 0
M  V30 3417 N 329.616 1.39756 -0.72842 0
M  V30 3418 C 330.862 2.00942 -0.273892 0
M  V30 3419 C 331.195 1.57656 1.13394 0
M  V30 3420 O 330.47 0.802434 1.77176 0
M  V30 3421 C 330.753 3.58211 -0.368346 0
M  V30 3422 C 330.606 4.11534 -1.81548 0
M  V30 3423 C 331.925 4.39372 0.253054 0
M  V30 3424 H 329.044 0.730047 -0.100996 0
M  V30 3425 H 331.686 1.66056 -0.923337 0
M  V30 3426 H 329.836 3.88061 0.184588 0
M  V30 3427 H 331.508 3.92431 -2.42478 0
M  V30 3428 H 329.751 3.65341 -2.33898 0
M  V30 3429 H 330.422 5.20682 -1.83288 0
M  V30 3430 H 332.898 4.15527 -0.218224 0
M  V30 3431 H 331.774 5.48677 0.156585 0
M  V30 3432 H 332.035 4.21358 1.33826 0
M  V30 3433 N 331.094 0.475555 1.50254 0
M  V30 3434 C 332.371 -0.139685 1.95101 0
M  V30 3435 C 332.751 -1.56555 1.41611 0
M  V30 3436 O 332.099 -2.19956 0.618993 0
M  V30 3437 C 332.309 -0.0784298 3.48912 0
M  V30 3438 C 333.657 -0.265095 4.23772 0
M  V30 3439 O 334.681 -0.154808 3.55863 0
M  V30 3440 O 333.54 -0.488327 5.44314 0
M  V30 3441 H 330.634 -0.109236 0.819754 0
M  V30 3442 H 333.18 0.536276 1.61004 0
M  V30 3443 H 331.952 0.916918 3.80405 0
M  V30 3444 H 331.575 -0.795655 3.89558 0
M  V30 3445 N 332.573 -1.56217 0.208337 0
M  V30 3446 C 333.822 -1.97124 -0.427204 0
M  V30 3447 C 334.135 -1.09859 -1.61835 0
M  V30 3448 O 335.341 -1.40606 -2.32255 0
M  V30 3449 C 333.797 -3.50633 -0.811442 0
M  V30 3450 C 333.405 -4.46582 0.35615 0
M  V30 3451 C 335.149 -4.00282 -1.41332 0
M  V30 3452 C 333.056 -5.91379 -0.0497852 0
M  V30 3453 H 331.986 -0.736086 -0.163381 0
M  V30 3454 H 334.637 -1.8099 0.302456 0
M  V30 3455 H 333.019 -3.62319 -1.59815 0
M  V30 3456 H 334.193 -4.46636 1.1337 0
M  V30 3457 H 332.508 -4.07202 0.870396 0
M  V30 3458 H 335.105 -5.0595 -1.72972 0
M  V30 3459 H 335.448 -3.45359 -2.32449 0
M  V30 3460 H 335.981 -3.91764 -0.690323 0
M  V30 3461 H 332.72 -6.50255 0.827529 0
M  V30 3462 H 332.24 -5.94549 -0.791926 0
M  V30 3463 H 333.919 -6.45209 -0.481042 0
M  V30 3464 N 334.051 0.0651679 -1.57465 0
M  V30 3465 C 334.998 1.07675 -2.04144 0
M  V30 3466 C 335.968 1.38071 -0.923335 0
M  V30 3467 O 337.153 1.49026 -1.19146 0
M  V30 3468 C 334.293 2.38337 -2.49579 0
M  V30 3469 C 333.406 2.14413 -3.75035 0
M  V30 3470 C 332.541 3.38686 -4.09225 0
M  V30 3471 C 331.58 3.10156 -5.27702 0
M  V30 3472 N 330.717 4.26778 -5.57499 0
M  V30 3473 H 335.557 0.671716 -2.90331 0
M  V30 3474 H 333.094 0.3201 -1.43575 0
M  V30 3475 H 335.052 3.14632 -2.73975 0
M  V30 3476 H 333.682 2.7663 -1.6636 0
M  V30 3477 H 332.734 1.2878 -3.57939 0
M  V30 3478 H 334.046 1.89344 -4.61466 0
M  V30 3479 H 333.2 4.23373 -4.34558 0
M  V30 3480 H 331.939 3.66837 -3.21374 0
M  V30 3481 H 330.944 2.23866 -5.02159 0
M  V30 3482 H 332.169 2.8332 -6.17176 0
M  V30 3483 H 330.115 4.54948 -4.72608 0
M  V30 3484 H 330.032 4.05005 -6.38362 0
M  V30 3485 H 331.3 5.12443 -5.87386 0
M  V30 3486 N 335.529 1.53961 0.336706 0
M  V30 3487 C 336.459 1.85417 1.41925 0
M  V30 3488 C 337.44 0.709856 1.5458 0
M  V30 3489 O 338.625 0.962396 1.68676 0
M  V30 3490 C 335.755 2.06985 2.78881 0
M  V30 3491 C 334.709 3.22813 2.81026 0
M  V30 3492 C 334.035 3.29727 4.20932 0
M  V30 3493 C 335.335 4.60767 2.45949 0
M  V30 3494 H 337.029 2.76079 1.15848 0
M  V30 3495 H 334.575 1.32839 0.555859 0
M  V30 3496 H 336.528 2.27575 3.54665 0
M  V30 3497 H 335.252 1.13061 3.06406 0
M  V30 3498 H 333.911 3.0209 2.07695 0
M  V30 3499 H 333.559 2.33385 4.45579 0
M  V30 3500 H 333.259 4.07566 4.23277 0
M  V30 3501 H 334.783 3.52536 4.98549 0
M  V30 3502 H 336.197 4.81325 3.11446 0
M  V30 3503 H 334.594 5.4106 2.59566 0
M  V30 3504 H 335.664 4.6391 1.41122 0
M  V30 3505 N 337.007 -0.598083 1.45811 0
M  V30 3506 C 338.255 -1.35413 1.50026 0
M  V30 3507 C 338.576 -1.94444 0.147177 0
M  V30 3508 O 337.846 -1.77701 -0.824571 0
M  V30 3509 H 336.426 -0.502727 0.552517 0
M  V30 3510 H 339.088 -0.701606 1.81834 0
M  V30 3511 H 338.184 -2.16871 2.2444 0
M  V30 3512 N 338.485 -1.33259 -0.841409 0
M  V30 3513 C 339.732 -1.24572 -1.5965 0
M  V30 3514 C 340.06 0.189137 -1.93578 0
M  V30 3515 O 339.315 1.14566 -1.5866 0
M  V30 3516 C 339.614 -2.06381 -2.9179 0
M  V30 3517 C 339.28 -3.556 -2.77235 0
M  V30 3518 C 337.942 -3.96282 -2.72973 0
M  V30 3519 C 340.294 -4.50433 -2.62221 0
M  V30 3520 C 337.622 -5.30017 -2.51592 0
M  V30 3521 C 339.974 -5.84327 -2.42374 0
M  V30 3522 C 338.638 -6.24194 -2.36512 0
M  V30 3523 H 337.908 -0.455842 -0.5842 0
M  V30 3524 H 340.555 -1.6482 -0.975016 0
M  V30 3525 H 338.86 -1.58903 -3.5813 0
M  V30 3526 H 340.557 -1.97019 -3.49263 0
M  V30 3527 H 337.147 -3.23298 -2.81384 0
M  V30 3528 H 341.331 -4.19914 -2.64549 0
M  V30 3529 H 336.587 -5.59947 -2.45499 0
M  V30 3530 H 340.761 -6.57414 -2.29739 0
M  V30 3531 H 338.388 -7.27759 -2.19706 0
M  V30 3532 N 339.963 1.05934 -1.16686 0
M  V30 3533 C 341.211 1.78447 -0.948744 0
M  V30 3534 C 341.532 1.87813 0.524523 0
M  V30 3535 O 340.802 1.38945 1.38098 0
M  V30 3536 H 339.382 0.660971 -0.348033 0
M  V30 3537 H 342.044 1.27947 -1.47022 0
M  V30 3538 H 341.14 2.80394 -1.37061 0
M  V30 3539 N 341.441 0.965919 1.2453 0
M  V30 3540 C 342.857 0.67216 1.44756 0
M  V30 3541 C 343.057 -0.766609 1.86347 0
M  V30 3542 O 342.113 -1.5407 2.00047 0
M  V30 3543 C 343.426 1.65473 2.51076 0
M  V30 3544 C 344.974 1.66716 2.64905 0
M  V30 3545 C 345.449 2.63766 3.74421 0
M  V30 3546 N 346.94 2.62198 3.81846 0
M  V30 3547 C 347.675 3.33966 4.66106 0
M  V30 3548 N 347.171 4.15245 5.54566 0
M  V30 3549 N 348.964 3.22799 4.60171 0
M  V30 3550 H 341.115 1.89553 0.958293 0
M  V30 3551 H 343.378 0.815979 0.482579 0
M  V30 3552 H 343.084 2.68296 2.27399 0
M  V30 3553 H 342.958 1.4261 3.49202 0
M  V30 3554 H 345.345 0.646057 2.87941 0
M  V30 3555 H 345.426 1.93642 1.67142 0
M  V30 3556 H 345.07 3.6601 3.52135 0
M  V30 3557 H 345 2.34121 4.71694 0
M  V30 3558 H 347.491 2.032 3.18619 0
M  V30 3559 H 347.804 4.66898 6.15814 0
M  V30 3560 H 346.149 4.1934 5.54237 0
M  V30 3561 H 349.34 2.58764 3.90075 0
M  V30 3562 H 349.513 3.78994 5.25612 0
M  V30 3563 N 342.919 -1.39368 0.735821 0
M  V30 3564 C 344.167 -2.00101 0.283562 0
M  V30 3565 C 344.488 -1.5868 -1.13338 0
M  V30 3566 O 343.758 -0.835423 -1.77193 0
M  V30 3567 H 342.338 -0.740024 0.101851 0
M  V30 3568 H 345 -1.70404 0.945962 0
M  V30 3569 H 344.096 -3.10323 0.332604 0
M  V30 3570 N 344.397 -0.483516 -1.5 0
M  V30 3571 C 345.813 -0.138404 -1.58999 0
M  V30 3572 C 346.013 1.35597 -1.4905 0
M  V30 3573 O 345.069 2.13039 -1.35539 0
M  V30 3574 C 346.382 -0.699658 -2.92447 0
M  V30 3575 C 347.93 -0.664195 -3.05872 0
M  V30 3576 C 348.405 -1.20321 -4.41913 0
M  V30 3577 N 349.896 -1.16315 -4.48358 0
M  V30 3578 C 350.631 -1.55058 -5.52037 0
M  V30 3579 N 350.127 -2.01311 -6.62907 0
M  V30 3580 N 351.92 -1.46584 -5.42651 0
M  V30 3581 H 344.071 -1.45529 -1.5471 0
M  V30 3582 H 346.334 -0.60258 -0.731848 0
M  V30 3583 H 346.04 -1.747 -3.05242 0
M  V30 3584 H 345.914 -0.150194 -3.76901 0
M  V30 3585 H 348.301 0.374272 -2.92717 0
M  V30 3586 H 348.382 -1.25061 -2.23144 0
M  V30 3587 H 348.026 -2.24037 -4.55818 0
M  V30 3588 H 347.956 -0.592896 -5.23252 0
M  V30 3589 H 350.447 -0.824058 -3.68806 0
M  V30 3590 H 350.76 -2.2899 -7.38095 0
M  V30 3591 H 349.105 -2.05273 -6.63994 0
M  V30 3592 H 352.296 -1.10281 -4.54924 0
M  V30 3593 H 352.469 -1.77103 -6.23329 0
M  V30 3594 N 345.875 1.56104 -0.216619 0
M  V30 3595 C 346.825 2.16703 0.708798 0
M  V30 3596 C 347.809 1.11392 1.16106 0
M  V30 3597 O 349.001 1.37395 1.11587 0
M  V30 3598 C 346.13 2.84666 1.91886 0
M  V30 3599 C 345.216 3.97195 1.48651 0
M  V30 3600 N 345.607 4.99959 0.766434 0
M  V30 3601 C 343.905 4.09193 1.77418 0
M  V30 3602 C 344.606 5.79126 0.546659 0
M  V30 3603 N 343.582 5.32315 1.10188 0
M  V30 3604 H 347.384 2.93516 0.150162 0
M  V30 3605 H 344.898 1.6239 -0.0176768 0
M  V30 3606 H 346.895 3.26486 2.59253 0
M  V30 3607 H 345.555 2.09347 2.48202 0
M  V30 3608 H 346.566 5.16197 0.419634 0
M  V30 3609 H 343.243 3.45021 2.35088 0
M  V30 3610 H 344.633 6.71895 -0.026103 0
M  V30 3611 N 347.353 -0.0568162 1.57498 0
M  V30 3612 C 348.283 -1.06593 2.0775 0
M  V30 3613 C 349.264 -1.39448 0.974082 0
M  V30 3614 O 350.449 -1.48815 1.24771 0
M  V30 3615 C 347.579 -2.37509 2.5339 0
M  V30 3616 C 346.533 -2.1897 3.67745 0
M  V30 3617 C 345.859 -3.55402 3.99492 0
M  V30 3618 C 347.159 -1.59859 4.97235 0
M  V30 3619 H 348.853 -0.647706 2.9231 0
M  V30 3620 H 346.399 -0.310116 1.40621 0
M  V30 3621 H 348.352 -3.08409 2.87162 0
M  V30 3622 H 347.076 -2.8134 1.65878 0
M  V30 3623 H 345.735 -1.50508 3.3428 0
M  V30 3624 H 345.383 -3.9683 3.09088 0
M  V30 3625 H 345.083 -3.43831 4.76502 0
M  V30 3626 H 346.607 -4.27708 4.35773 0
M  V30 3627 H 348.021 -2.20642 5.29141 0
M  V30 3628 H 346.418 -1.58942 5.78669 0
M  V30 3629 H 347.488 -0.561506 4.81638 0
M  V30 3630 N 348.832 -1.54138 -0.328536 0
M  V30 3631 C 350.08 -1.71765 -1.06496 0
M  V30 3632 C 350.401 -0.49149 -1.88704 0
M  V30 3633 O 349.671 0.494539 -1.89555 0
M  V30 3634 H 348.251 -0.633295 -0.396164 0
M  V30 3635 H 350.913 -1.91429 -0.366176 0
M  V30 3636 H 350.009 -2.5951 -1.73381 0
M  V30 3637 N 350.31 0.590341 -1.46126 0
M  V30 3638 C 351.55 1.35995 -1.52593 0
M  V30 3639 C 351.914 1.91243 -0.170368 0
M  V30 3640 O 353.115 2.68576 -0.109775 0
M  V30 3641 C 351.386 2.46465 -2.58823 0
M  V30 3642 S 352.945 3.33953 -2.84641 0
M  V30 3643 H 349.763 0.463425 -0.53922 0
M  V30 3644 H 352.365 0.67944 -1.83314 0
M  V30 3645 H 351.069 2.04256 -3.5596 0
M  V30 3646 H 350.6 3.19297 -2.2981 0
M  V30 3647 H 352.615 4.45094 -2.19331 0
M  V30 3648 N 351.788 1.33704 0.83433 0
M  V30 3649 C 353.199 1.22813 1.4062 0
M  V30 3650 C 353.55 -0.151107 1.95617 0
M  V30 3651 O 352.675 -1.05092 1.89168 0
M  V30 3652 C 353.27 2.22355 2.55624 0
M  V30 3653 C 351.829 2.1529 3.08751 0
M  V30 3654 C 350.976 2.09589 1.8157 0
M  V30 3655 H 353.927 1.45236 0.639702 0
M  V30 3656 H 353.948 1.83391 3.33389 0
M  V30 3657 H 353.46 3.22728 2.15566 0
M  V30 3658 H 351.561 1.18235 3.53343 0
M  V30 3659 H 351.674 3.06038 3.68616 0
M  V30 3660 H 350.038 1.55134 2.02004 0
M  V30 3661 H 350.821 3.11777 1.43701 0
M  V30 3662 N 353.266 -1.05314 1.17247 0
M  V30 3663 C 354.682 -1.30452 0.919473 0
M  V30 3664 C 354.882 -1.9703 -0.42209 0
M  V30 3665 O 353.938 -2.24311 -1.15935 0
M  V30 3666 C 355.251 -2.17551 2.07586 0
M  V30 3667 C 356.799 -2.30937 2.11275 0
M  V30 3668 C 357.274 -3.21396 3.26296 0
M  V30 3669 N 358.765 -3.28981 3.26076 0
M  V30 3670 C 359.5 -3.99095 4.11716 0
M  V30 3671 N 358.996 -4.71648 5.07465 0
M  V30 3672 N 360.789 -3.95247 3.9967 0
M  V30 3673 H 352.94 -0.604988 2.03602 0
M  V30 3674 H 355.203 -0.329368 0.888944 0
M  V30 3675 H 354.909 -1.75921 3.0454 0
M  V30 3676 H 354.783 -3.18182 2.02584 0
M  V30 3677 H 357.17 -2.71809 1.14907 0
M  V30 3678 H 357.251 -1.2994 2.20339 0
M  V30 3679 H 356.895 -2.81238 4.22927 0
M  V30 3680 H 356.825 -4.22395 3.14467 0
M  V30 3681 H 359.316 -2.77286 2.5675 0
M  V30 3682 H 359.629 -5.22705 5.6921 0
M  V30 3683 H 357.974 -4.70594 5.11435 0
M  V30 3684 H 361.165 -3.37691 3.24164 0
M  V30 3685 H 361.338 -4.4962 4.66632 0
M  V30 3686 N 354.744 -0.972509 -1.24016 0
M  V30 3687 C 355.707 -0.511403 -2.23422 0
M  V30 3688 C 356.707 0.394679 -1.55881 0
M  V30 3689 O 357.897 0.189469 -1.73167 0
M  V30 3690 C 355.029 0.258769 -3.39916 0
M  V30 3691 H 356.222 -1.39024 -2.6573 0
M  V30 3692 H 353.775 -0.757585 -1.36713 0
M  V30 3693 H 354.51 1.1545 -3.03054 0
M  V30 3694 H 354.295 -0.391522 -3.9014 0
M  V30 3695 H 355.785 0.570244 -4.13688 0
M  V30 3696 N 356.222 1.38976 -0.743202 0
M  V30 3697 C 357.469 2.00343 -0.294752 0
M  V30 3698 C 357.797 1.58983 1.12047 0
M  V30 3699 O 357.052 0.813809 1.77977 0
M  V30 3700 C 357.351 3.55647 -0.353517 0
M  V30 3701 C 357.017 4.16685 -1.72292 0
M  V30 3702 C 355.679 4.3307 -2.09771 0
M  V30 3703 C 358.031 4.50464 -2.62168 0
M  V30 3704 C 355.359 4.80526 -3.36618 0
M  V30 3705 C 357.711 4.99332 -3.88395 0
M  V30 3706 C 356.375 5.13924 -4.25956 0
M  V30 3707 H 355.645 0.733108 -0.107857 0
M  V30 3708 H 358.292 1.6618 -0.951651 0
M  V30 3709 H 356.597 3.89884 0.386954 0
M  V30 3710 H 358.294 4.00998 0.0117269 0
M  V30 3711 H 354.884 4.04339 -1.42155 0
M  V30 3712 H 359.068 4.37416 -2.3448 0
M  V30 3713 H 354.324 4.90008 -3.65653 0
M  V30 3714 H 358.498 5.2444 -4.58187 0
M  V30 3715 H 356.125 5.50457 -5.2431 0
M  V30 3716 N 357.7 0.491464 1.49741 0
M  V30 3717 C 358.977 -0.118984 1.95238 0
M  V30 3718 C 359.357 -1.55044 1.43264 0
M  V30 3719 O 358.705 -2.19287 0.642287 0
M  V30 3720 C 358.915 -0.0414187 3.48975 0
M  V30 3721 C 360.263 -0.220133 4.24029 0
M  V30 3722 O 361.287 -0.117055 3.56008 0
M  V30 3723 O 360.146 -0.430567 5.44801 0
M  V30 3724 H 357.24 -0.100536 0.820866 0
M  V30 3725 H 359.786 0.553322 1.60426 0
M  V30 3726 H 358.558 0.957214 3.79412 0
M  V30 3727 H 358.181 -0.754292 3.9038 0
M  V30 3728 N 359.178 -1.55987 0.224894 0
M  V30 3729 C 360.426 -1.97998 -0.405099 0
M  V30 3730 C 360.747 -1.11387 -1.60056 0
M  V30 3731 O 360.017 -0.191645 -1.9496 0
M  V30 3732 H 358.597 -0.731235 -0.152658 0
M  V30 3733 H 361.259 -1.92279 0.318567 0
M  V30 3734 H 360.355 -3.03463 -0.729167 0
M  V30 3735 N 360.656 0.0484629 -1.57525 0
M  V30 3736 C 361.881 0.759177 -1.93006 0
M  V30 3737 C 362.306 1.69125 -0.823317 0
M  V30 3738 O 361.664 1.79931 0.222364 0
M  V30 3739 C 361.712 1.50899 -3.27509 0
M  V30 3740 O 360.816 2.62112 -3.18388 0
M  V30 3741 H 360.157 0.205564 -0.631379 0
M  V30 3742 H 362.687 0.00972959 -2.04598 0
M  V30 3743 H 362.697 1.88317 -3.6194 0
M  V30 3744 H 361.372 0.825269 -4.0763 0
M  V30 3745 H 359.949 2.27379 -2.95556 0
M  V30 3746 N 362.134 1.5431 0.320358 0
M  V30 3747 C 363.382 1.72327 1.05583 0
M  V30 3748 C 363.703 0.50149 1.88441 0
M  V30 3749 O 362.973 -0.48448 1.89815 0
M  V30 3750 H 361.553 0.635387 0.3928 0
M  V30 3751 H 364.215 1.91621 0.356019 0
M  V30 3752 H 363.311 2.60426 1.72003 0
M  V30 3753 N 363.613 -0.582584 1.46437 0
M  V30 3754 C 364.545 -1.70618 1.53043 0
M  V30 3755 C 365.558 -1.57322 0.418769 0
M  V30 3756 O 366.747 -1.64744 0.687136 0
M  V30 3757 C 363.847 -3.08869 1.39474 0
M  V30 3758 C 363.02 -3.48166 2.64762 0
M  V30 3759 C 362.079 -4.65478 2.4539 0
M  V30 3760 O 361.105 -4.71333 3.19114 0
M  V30 3761 N 362.307 -5.60365 1.51564 0
M  V30 3762 H 365.072 -1.65405 2.49923 0
M  V30 3763 H 362.633 -0.768567 1.42494 0
M  V30 3764 H 364.625 -3.85143 1.24287 0
M  V30 3765 H 363.195 -3.08449 0.507758 0
M  V30 3766 H 362.415 -2.61598 2.9489 0
M  V30 3767 H 363.703 -3.71188 3.4799 0
M  V30 3768 H 363.101 -5.5837 0.907705 0
M  V30 3769 H 361.658 -6.36068 1.4234 0
M  V30 3770 N 365.091 -1.34144 -0.827227 0
M  V30 3771 C 366.001 -1.27428 -1.96975 0
M  V30 3772 C 367.017 -0.182728 -1.73038 0
M  V30 3773 O 368.193 -0.408426 -1.97215 0
M  V30 3774 C 365.258 -1.02526 -3.31194 0
M  V30 3775 C 364.319 -2.20796 -3.68168 0
M  V30 3776 C 363.552 -1.97073 -4.95982 0
M  V30 3777 O 363.775 -0.926822 -5.6282 0
M  V30 3778 O 362.709 -2.83912 -5.30733 0
M  V30 3779 H 366.535 -2.23537 -2.05584 0
M  V30 3780 H 364.12 -1.14307 -0.961989 0
M  V30 3781 H 366.002 -0.904026 -4.11589 0
M  V30 3782 H 364.677 -0.0945389 -3.23562 0
M  V30 3783 H 363.584 -2.38477 -2.88235 0
M  V30 3784 H 364.917 -3.12243 -3.8048 0
M  V30 3785 N 366.569 1.04691 -1.17803 0
M  V30 3786 C 367.816 1.77782 -0.969532 0
M  V30 3787 C 368.144 1.87926 0.501401 0
M  V30 3788 O 367.399 1.37918 1.38842 0
M  V30 3789 C 367.698 3.21467 -1.56186 0
M  V30 3790 C 367.364 3.3137 -3.05786 0
M  V30 3791 C 366.026 3.3378 -3.46619 0
M  V30 3792 C 368.378 3.31976 -4.01797 0
M  V30 3793 C 365.706 3.34431 -4.82051 0
M  V30 3794 C 368.058 3.34167 -5.37136 0
M  V30 3795 C 366.722 3.34866 -5.77426 0
M  V30 3796 H 365.992 0.650549 -0.354777 0
M  V30 3797 H 368.639 1.23006 -1.46772 0
M  V30 3798 H 366.944 3.79203 -0.985515 0
M  V30 3799 H 368.641 3.76652 -1.37602 0
M  V30 3800 H 365.231 3.3021 -2.73238 0
M  V30 3801 H 369.415 3.29311 -3.71306 0
M  V30 3802 H 364.671 3.33285 -5.12573 0
M  V30 3803 H 368.845 3.33585 -6.11305 0
M  V30 3804 H 366.472 3.35124 -6.82346 0
M  V30 3805 N 368.047 0.979072 1.23499 0
M  V30 3806 C 369.01 0.523244 2.23147 0
M  V30 3807 C 370.01 -0.386406 1.56088 0
M  V30 3808 O 371.2 -0.180283 1.73265 0
M  V30 3809 C 368.332 -0.240739 3.40049 0
M  V30 3810 H 369.525 1.40432 2.64989 0
M  V30 3811 H 367.078 0.764824 1.36309 0
M  V30 3812 H 367.813 -1.13841 3.03662 0
M  V30 3813 H 367.598 0.412207 3.89927 0
M  V30 3814 H 369.088 -0.548297 4.13985 0
M  V30 3815 N 369.525 -1.3858 0.750561 0
M  V30 3816 C 370.475 -2.27795 0.0965949 0
M  V30 3817 C 371.459 -1.45048 -0.696411 0
M  V30 3818 O 372.651 -1.67812 -0.562863 0
M  V30 3819 C 369.78 -3.33894 -0.798085 0
M  V30 3820 C 368.866 -4.241 0.0016067 0
M  V30 3821 N 369.257 -4.95067 1.03647 0
M  V30 3822 C 367.555 -4.45429 -0.225674 0
M  V30 3823 C 368.256 -5.61489 1.52004 0
M  V30 3824 N 367.232 -5.37135 0.835874 0
M  V30 3825 H 371.034 -2.80125 0.889228 0
M  V30 3826 H 368.548 -1.51446 0.586323 0
M  V30 3827 H 370.545 -3.96693 -1.28219 0
M  V30 3828 H 369.205 -2.83123 -1.5897 0
M  V30 3829 H 370.216 -4.98104 1.41819 0
M  V30 3830 H 366.893 -4.05571 -0.990872 0
M  V30 3831 H 368.283 -6.28264 2.38188 0
M  V30 3832 N 371.003 -0.499398 -1.49478 0
M  V30 3833 C 371.966 0.268838 -2.27618 0
M  V30 3834 C 372.966 0.895383 -1.33565 0
M  V30 3835 O 374.156 0.760164 -1.56739 0
M  V30 3836 C 371.288 1.38559 -3.11471 0
M  V30 3837 H 372.481 -0.416812 -2.96989 0
M  V30 3838 H 370.034 -0.254313 -1.54217 0
M  V30 3839 H 370.769 2.10544 -2.46661 0
M  V30 3840 H 370.554 0.941797 -3.80621 0
M  V30 3841 H 372.044 1.92678 -3.70493 0
M  V30 3842 N 372.481 1.55866 -0.233164 0
M  V30 3843 C 373.727 1.99643 0.389148 0
M  V30 3844 C 374.082 1.11836 1.56558 0
M  V30 3845 O 373.375 0.170848 1.90837 0
M  V30 3846 C 373.569 3.46856 0.861724 0
M  V30 3847 C 373.398 4.48904 -0.267376 0
M  V30 3848 C 372.168 4.99888 -0.737577 0
M  V30 3849 C 374.366 5.02624 -1.08966 0
M  V30 3850 N 372.348 5.8566 -1.84052 0
M  V30 3851 C 373.719 5.85434 -2.04125 0
M  V30 3852 C 375.774 4.84959 -1.12779 0
M  V30 3853 C 374.477 6.52466 -3.02789 0
M  V30 3854 C 376.503 5.52759 -2.10266 0
M  V30 3855 C 375.865 6.35346 -3.04162 0
M  V30 3856 H 371.964 0.774402 0.108742 0
M  V30 3857 H 374.548 1.91572 -0.347596 0
M  V30 3858 H 372.719 3.55352 1.5678 0
M  V30 3859 H 374.451 3.77531 1.45783 0
M  V30 3860 H 371.206 4.7249 -0.324122 0
M  V30 3861 H 371.63 6.33246 -2.39434 0
M  V30 3862 H 376.272 4.20751 -0.415749 0
M  V30 3863 H 373.99 7.15849 -3.74948 0
M  V30 3864 H 377.576 5.41051 -2.13905 0
M  V30 3865 H 376.456 6.86883 -3.78366 0
M  V30 3866 N 373.959 -0.0401083 1.57549 0
M  V30 3867 C 375.375 -0.395556 1.54621 0
M  V30 3868 C 375.575 -1.77281 0.957799 0
M  V30 3869 O 374.631 -2.45888 0.574031 0
M  V30 3870 C 375.944 -0.307535 2.99123 0
M  V30 3871 C 377.492 -0.385425 3.10618 0
M  V30 3872 C 377.967 -0.326973 4.56831 0
M  V30 3873 N 379.458 -0.386102 4.61588 0
M  V30 3874 C 380.193 -0.363591 5.72246 0
M  V30 3875 N 379.689 -0.29402 6.92176 0
M  V30 3876 N 381.482 -0.412503 5.60584 0
M  V30 3877 H 373.633 0.861325 1.94152 0
M  V30 3878 H 375.896 0.326445 0.890021 0
M  V30 3879 H 375.602 0.638461 3.45856 0
M  V30 3880 H 375.476 -1.10552 3.60636 0
M  V30 3881 H 377.863 -1.32185 2.63839 0
M  V30 3882 H 377.944 0.44171 2.51957 0
M  V30 3883 H 377.588 0.605738 5.04275 0
M  V30 3884 H 377.518 -1.17207 5.13391 0
M  V30 3885 H 380.009 -0.442832 3.75296 0
M  V30 3886 H 380.322 -0.28164 7.72287 0
M  V30 3887 H 378.667 -0.260232 6.94513 0
M  V30 3888 H 381.858 -0.464769 4.65787 0
M  V30 3889 H 382.031 -0.391492 6.46816 0
M  V30 3890 N 375.437 -1.54477 -0.31217 0
M  V30 3891 C 376.367 -1.87652 -1.38957 0
M  V30 3892 C 377.348 -0.734358 -1.53431 0
M  V30 3893 O 378.533 -0.98911 -1.67123 0
M  V30 3894 C 375.663 -2.11396 -2.75552 0
M  V30 3895 C 374.617 -3.27243 -2.75855 0
M  V30 3896 C 373.943 -3.36382 -4.15633 0
M  V30 3897 C 375.243 -4.64622 -2.38587 0
M  V30 3898 H 376.937 -2.77887 -1.11442 0
M  V30 3899 H 374.483 -1.33707 -0.534655 0
M  V30 3900 H 376.436 -2.33189 -3.51 0
M  V30 3901 H 375.16 -1.17921 -3.04569 0
M  V30 3902 H 373.819 -3.05356 -2.02863 0
M  V30 3903 H 373.467 -2.40445 -4.41809 0
M  V30 3904 H 373.167 -4.14249 -4.1674 0
M  V30 3905 H 374.691 -3.60422 -4.92877 0
M  V30 3906 H 376.105 -4.86219 -3.03749 0
M  V30 3907 H 374.502 -5.45121 -2.50925 0
M  V30 3908 H 375.572 -4.66097 -1.33723 0
M  V30 3909 N 376.915 0.57481 -1.46744 0
M  V30 3910 C 378.163 1.33009 -1.52161 0
M  V30 3911 C 378.484 1.94185 -0.178092 0
M  V30 3912 O 377.754 1.7899 0.796196 0
M  V30 3913 H 376.334 0.493873 -0.560445 0
M  V30 3914 H 378.996 0.672589 -1.82927 0
M  V30 3915 H 378.092 2.13273 -2.27862 0
M  V30 3916 N 378.394 1.34581 0.820102 0
M  V30 3917 C 379.671 1.17675 1.56244 0
M  V30 3918 C 380.051 -0.249541 2.0962 0
M  V30 3919 O 379.399 -1.25125 1.91196 0
M  V30 3920 C 379.609 2.23364 2.6816 0
M  V30 3921 C 380.957 2.58485 3.36854 0
M  V30 3922 O 381.981 2.22175 2.78418 0
M  V30 3923 O 380.84 3.20868 4.42386 0
M  V30 3924 H 377.934 0.456333 0.689702 0
M  V30 3925 H 380.48 1.46222 0.861231 0
M  V30 3926 H 379.252 3.19087 2.26493 0
M  V30 3927 H 378.875 1.96009 3.45928 0
M  V30 3928 N 379.872 -1.04064 1.18357 0
M  V30 3929 C 381.121 -1.76662 0.973313 0
M  V30 3930 C 381.434 -1.89154 -0.497991 0
M  V30 3931 O 382.64 -2.58606 -0.826762 0
M  V30 3932 C 381.096 -3.17624 1.69242 0
M  V30 3933 C 380.704 -3.13225 3.20303 0
M  V30 3934 C 382.448 -3.946 1.56497 0
M  V30 3935 C 380.355 -4.49046 3.84853 0
M  V30 3936 H 379.285 -0.662214 0.36054 0
M  V30 3937 H 381.936 -1.16553 1.41731 0
M  V30 3938 H 380.318 -3.78129 1.1762 0
M  V30 3939 H 381.492 -2.62172 3.78949 0
M  V30 3940 H 379.807 -2.49749 3.33189 0
M  V30 3941 H 382.404 -4.95042 2.02084 0
M  V30 3942 H 382.747 -4.13074 0.517243 0
M  V30 3943 H 383.28 -3.4067 2.05399 0
M  V30 3944 H 380.019 -4.35777 4.89672 0
M  V30 3945 H 379.539 -5.00203 3.30994 0
M  V30 3946 H 381.218 -5.17961 3.87718 0
M  V30 3947 N 381.35 -0.985608 -1.22978 0
M  V30 3948 C 382.3 -0.50118 -2.22423 0
M  V30 3949 C 383.284 0.426649 -1.5514 0
M  V30 3950 O 384.476 0.254656 -1.75159 0
M  V30 3951 C 381.605 0.190003 -3.42774 0
M  V30 3952 C 380.691 -0.757703 -4.17276 0
M  V30 3953 N 381.082 -1.90251 -4.68656 0
M  V30 3954 C 379.38 -0.57209 -4.42316 0
M  V30 3955 C 380.081 -2.49676 -5.25392 0
M  V30 3956 N 379.057 -1.78013 -5.13627 0
M  V30 3957 H 382.859 -1.37441 -2.59783 0
M  V30 3958 H 380.373 -0.846941 -1.38567 0
M  V30 3959 H 382.37 0.55439 -4.13197 0
M  V30 3960 H 381.03 1.05946 -3.06929 0
M  V30 3961 H 382.041 -2.28354 -4.64839 0
M  V30 3962 H 378.718 0.251909 -4.16739 0
M  V30 3963 H 380.108 -3.46384 -5.75732 0
M  V30 3964 N 382.828 1.3818 -0.7579 0
M  V30 3965 C 384.075 2.00019 -0.315985 0
M  V30 3966 C 384.403 1.60163 1.10355 0
M  V30 3967 O 383.658 0.83264 1.77103 0
M  V30 3968 C 383.957 3.55252 -0.391218 0
M  V30 3969 C 383.623 4.14834 -1.76702 0
M  V30 3970 C 382.285 4.30821 -2.14353 0
M  V30 3971 C 384.637 4.47658 -2.66931 0
M  V30 3972 C 381.965 4.76928 -3.41696 0
M  V30 3973 C 384.317 4.95184 -3.93669 0
M  V30 3974 C 382.981 5.09377 -4.31383 0
M  V30 3975 H 382.251 0.731923 -0.115627 0
M  V30 3976 H 384.898 1.65161 -0.969223 0
M  V30 3977 H 383.203 3.90273 0.34558 0
M  V30 3978 H 384.9 4.00988 -0.030805 0
M  V30 3979 H 381.49 4.02808 -1.46435 0
M  V30 3980 H 385.674 4.34904 -2.39106 0
M  V30 3981 H 380.93 4.86103 -3.70829 0
M  V30 3982 H 385.104 5.19551 -4.63724 0
M  V30 3983 H 382.731 5.44865 -5.30119 0
M  V30 3984 N 384.306 0.507319 1.49211 0
M  V30 3985 C 385.583 -0.0982702 1.95353 0
M  V30 3986 C 385.963 -1.53516 1.449 0
M  V30 3987 O 385.311 -2.18594 0.66551 0
M  V30 3988 C 385.521 -0.00440283 3.49 0
M  V30 3989 C 386.869 -0.175147 4.24239 0
M  V30 3990 O 387.893 -0.0792891 3.56112 0
M  V30 3991 O 386.752 -0.37276 5.45227 0
M  V30 3992 H 383.846 -0.0918236 0.821887 0
M  V30 3993 H 386.392 0.570307 1.5983 0
M  V30 3994 H 385.164 0.997402 3.78375 0
M  V30 3995 H 384.787 -0.712845 3.91158 0
M  V30 3996 N 385.784 -1.5574 0.241426 0
M  V30 3997 C 387.061 -1.90704 -0.434881 0
M  V30 3998 C 387.441 -1.16145 -1.76277 0
M  V30 3999 O 386.789 -0.277152 -2.26813 0
M  V30 4000 C 386.999 -3.43657 -0.608343 0
M  V30 4001 C 388.347 -4.14806 -0.906725 0
M  V30 4002 O 389.371 -3.49366 -0.694408 0
M  V30 4003 O 388.23 -5.30548 -1.31075 0
M  V30 4004 H 385.324 -0.793592 -0.23268 0
M  V30 4005 H 387.87 -1.67288 0.285086 0
M  V30 4006 H 386.642 -3.89927 0.327505 0
M  V30 4007 H 386.265 -3.72918 -1.37906 0
M  V30 4008 N 387.262 0.0317525 -1.57568 0
M  V30 4009 C 388.539 0.758366 -1.803 0
M  V30 4010 C 388.919 1.93718 -0.838845 0
M  V30 4011 O 388.267 2.28187 0.119571 0
M  V30 4012 C 388.477 1.19392 -3.27943 0
M  V30 4013 C 389.825 1.61094 -3.92854 0
M  V30 4014 O 390.849 1.28857 -3.32076 0
M  V30 4015 O 389.708 2.20918 -4.99858 0
M  V30 4016 H 386.802 0.366514 -0.741348 0
M  V30 4017 H 389.348 0.00873765 -1.69698 0
M  V30 4018 H 388.12 0.352275 -3.89711 0
M  V30 4019 H 387.743 2.00365 -3.43424 0
M  V30 4020 N 388.74 1.54641 0.303973 0
M  V30 4021 C 389.65 1.88439 1.39743 0
M  V30 4022 C 390.666 0.778239 1.55626 0
M  V30 4023 O 391.842 1.07442 1.70347 0
M  V30 4024 C 388.907 2.12212 2.74166 0
M  V30 4025 C 387.968 3.35936 2.67293 0
M  V30 4026 C 387.201 3.58566 3.95305 0
M  V30 4027 O 387.424 2.84263 4.9452 0
M  V30 4028 O 386.358 4.52078 3.97378 0
M  V30 4029 H 390.184 2.81458 1.14083 0
M  V30 4030 H 387.769 1.40793 0.499768 0
M  V30 4031 H 389.651 2.29067 3.53704 0
M  V30 4032 H 388.326 1.22379 2.99675 0
M  V30 4033 H 387.233 3.24448 1.86237 0
M  V30 4034 H 388.566 4.2589 2.46736 0
M  V30 4035 N 390.218 -0.567019 1.47046 0
M  V30 4036 C 391.168 -1.67018 1.55207 0
M  V30 4037 C 392.152 -1.55543 0.411714 0
M  V30 4038 O 393.344 -1.64192 0.661064 0
M  V30 4039 C 390.473 -3.05801 1.56014 0
M  V30 4040 C 389.559 -3.22515 2.75399 0
M  V30 4041 N 389.95 -3.09329 4.00186 0
M  V30 4042 C 388.248 -3.53493 2.71954 0
M  V30 4043 C 388.949 -3.2847 4.80086 0
M  V30 4044 N 387.925 -3.54352 4.12233 0
M  V30 4045 H 391.727 -1.55377 2.4947 0
M  V30 4046 H 389.241 -0.771503 1.42904 0
M  V30 4047 H 391.238 -3.84996 1.59949 0
M  V30 4048 H 389.898 -3.18561 0.628396 0
M  V30 4049 H 390.909 -2.86863 4.31196 0
M  V30 4050 H 387.586 -3.7284 1.87873 0
M  V30 4051 H 388.976 -3.23326 5.88991 0
M  V30 4052 N 391.696 -1.35014 -0.812953 0
M  V30 4053 C 392.943 -1.27931 -1.56971 0
M  V30 4054 C 393.271 0.148034 -1.93936 0
M  V30 4055 O 392.526 1.11175 -1.61054 0
M  V30 4056 C 392.825 -2.12524 -2.87347 0
M  V30 4057 C 392.491 -3.61401 -2.6963 0
M  V30 4058 C 391.153 -4.01983 -2.64506 0
M  V30 4059 C 393.505 -4.55894 -2.52607 0
M  V30 4060 C 390.833 -5.35235 -2.40293 0
M  V30 4061 C 393.185 -5.89336 -2.29925 0
M  V30 4062 C 391.849 -6.2907 -2.23219 0
M  V30 4063 H 391.119 -0.468131 -0.574399 0
M  V30 4064 H 393.766 -1.66851 -0.939836 0
M  V30 4065 H 392.071 -1.66463 -3.54679 0
M  V30 4066 H 393.768 -2.04383 -3.45005 0
M  V30 4067 H 390.358 -3.29193 -2.74463 0
M  V30 4068 H 394.542 -4.25431 -2.55583 0
M  V30 4069 H 389.798 -5.65028 -2.33566 0
M  V30 4070 H 393.972 -6.62139 -2.15743 0
M  V30 4071 H 391.599 -7.32256 -2.04219 0
M  V30 4072 N 393.175 1.03435 -1.18907 0
M  V30 4073 C 394.403 1.80381 -1.01342 0
M  V30 4074 C 394.818 1.83649 0.438005 0
M  V30 4075 O 394.175 1.27655 1.30424 0
M  V30 4076 C 394.226 3.25689 -1.56873 0
M  V30 4077 O 393.947 3.22673 -2.96334 0
M  V30 4078 C 395.448 4.19255 -1.44014 0
M  V30 4079 H 392.668 0.56784 -0.35749 0
M  V30 4080 H 395.212 1.30317 -1.576 0
M  V30 4081 H 393.367 3.72962 -1.04777 0
M  V30 4082 H 393.781 4.13748 -3.22355 0
M  V30 4083 H 395.255 5.19123 -1.87657 0
M  V30 4084 H 395.732 4.37467 -0.389815 0
M  V30 4085 H 396.338 3.77851 -1.95214 0
M  V30 4086 N 394.653 0.992116 1.22453 0
M  V30 4087 C 396.064 0.702776 1.72968 0
M  V30 4088 C 396.415 -0.780399 1.80012 0
M  V30 4089 O 395.54 -1.61007 1.44589 0
M  V30 4090 C 396.135 1.26903 3.14135 0
M  V30 4091 C 394.694 1.02909 3.62059 0
M  V30 4092 C 393.841 1.38969 2.39964 0
M  V30 4093 H 396.792 1.16457 1.07812 0
M  V30 4094 H 396.813 0.647223 3.74955 0
M  V30 4095 H 396.325 2.34851 3.08977 0
M  V30 4096 H 394.426 -0.0337979 3.72585 0
M  V30 4097 H 394.539 1.69191 4.48231 0
M  V30 4098 H 392.903 0.808279 2.41535 0
M  V30 4099 H 393.686 2.4792 2.37467 0
M  V30 4100 N 396.131 -1.37776 0.765217 0
M  V30 4101 C 397.542 -1.82521 0.392819 0
M  V30 4102 C 397.893 -1.63789 -1.08017 0
M  V30 4103 O 397.018 -1.14542 -1.83601 0
M  V30 4104 C 397.613 -3.31358 0.706214 0
M  V30 4105 C 396.172 -3.74406 0.386952 0
M  V30 4106 C 395.319 -2.60394 0.953422 0
M  V30 4107 H 398.27 -1.2634 0.960412 0
M  V30 4108 H 398.291 -3.80498 -0.0114706 0
M  V30 4109 H 397.803 -3.44959 1.77833 0
M  V30 4110 H 395.904 -3.66377 -0.678112 0
M  V30 4111 H 396.017 -4.70749 0.890636 0
M  V30 4112 H 394.381 -2.51878 0.378064 0
M  V30 4113 H 395.164 -2.76791 2.03081 0
M  V30 4114 N 397.609 -0.515225 -1.4894 0
M  V30 4115 C 398.837 0.0206034 -2.0689 0
M  V30 4116 C 399.252 1.29514 -1.37374 0
M  V30 4117 O 398.609 1.76698 -0.456529 0
M  V30 4118 C 398.66 0.26351 -3.60538 0
M  V30 4119 O 398.381 -0.960517 -4.27441 0
M  V30 4120 C 399.882 0.841383 -4.35242 0
M  V30 4121 H 397.102 -0.0268608 -0.670462 0
M  V30 4122 H 399.646 -0.716651 -1.91532 0
M  V30 4123 H 397.801 0.950777 -3.75552 0
M  V30 4124 H 398.215 -0.73212 -5.19365 0
M  V30 4125 H 399.689 0.96085 -5.43573 0
M  V30 4126 H 400.166 1.8427 -3.98674 0
M  V30 4127 H 400.772 0.191143 -4.2487 0
M  V30 4128 N 399.087 1.5561 -0.249682 0
M  V30 4129 C 400.312 2.03865 0.381305 0
M  V30 4130 C 400.737 1.12769 1.50548 0
M  V30 4131 O 400.095 0.121189 1.80895 0
M  V30 4132 C 400.143 3.50101 0.863816 0
M  V30 4133 O 399.247 3.62132 1.97318 0
M  V30 4134 H 398.588 0.658827 0.0827194 0
M  V30 4135 H 401.118 2.01105 -0.376552 0
M  V30 4136 H 401.128 3.90975 1.1663 0
M  V30 4137 H 399.803 4.1588 0.0411816 0
M  V30 4138 H 398.38 3.33155 1.67517 0
M  V30 4139 N 400.565 -0.0233959 1.57583 0
M  V30 4140 C 401.842 -0.748794 1.807 0
M  V30 4141 C 402.222 -1.9327 0.849106 0
M  V30 4142 O 401.57 -2.28247 -0.107468 0
M  V30 4143 C 401.78 -1.17651 3.28571 0
M  V30 4144 C 403.128 -1.59008 3.93702 0
M  V30 4145 O 404.152 -1.27094 3.32755 0
M  V30 4146 O 403.011 -2.18264 5.01022 0
M  V30 4147 H 400.105 -0.362578 0.743281 0
M  V30 4148 H 402.651 0.000261958 1.697 0
M  V30 4149 H 401.423 -0.331603 3.89892 0
M  V30 4150 H 401.046 -1.98541 3.44481 0
M  V30 4151 N 402.043 -1.548 -0.295768 0
M  V30 4152 C 403.271 -1.78327 -1.04914 0
M  V30 4153 C 403.686 -0.545316 -1.80753 0
M  V30 4154 O 403.043 0.485013 -1.75937 0
M  V30 4155 C 403.094 -2.99418 -2.02561 0
M  V30 4156 O 402.815 -4.18431 -1.29798 0
M  V30 4157 C 404.316 -3.35375 -2.89895 0
M  V30 4158 H 401.536 -0.594618 -0.310918 0
M  V30 4159 H 404.08 -2.01763 -0.333454 0
M  V30 4160 H 402.235 -2.78175 -2.69624 0
M  V30 4161 H 402.649 -4.86736 -1.95419 0
M  V30 4162 H 404.123 -4.23332 -3.54251 0
M  V30 4163 H 404.6 -2.53761 -3.58472 0
M  V30 4164 H 405.206 -3.58796 -2.28355 0
M  V30 4165 N 403.521 0.559213 -1.47345 0
M  V30 4166 C 404.769 1.31388 -1.53563 0
M  V30 4167 C 405.09 1.93985 -0.198678 0
M  V30 4168 O 404.36 1.79825 0.777167 0
M  V30 4169 H 402.94 0.487901 -0.565652 0
M  V30 4170 H 405.602 0.65315 -1.8363 0
M  V30 4171 H 404.698 2.10844 -2.30111 0
M  V30 4172 N 404.999 1.35443 0.805782 0
M  V30 4173 C 406.248 1.28097 1.55801 0
M  V30 4174 C 406.561 -0.142428 1.95081 0
M  V30 4175 O 407.767 -0.33817 2.69386 0
M  V30 4176 C 406.223 2.24653 2.81174 0
M  V30 4177 C 405.831 3.72342 2.49129 0
M  V30 4178 C 407.575 2.2625 3.59181 0
M  V30 4179 C 405.482 4.60719 3.70799 0
M  V30 4180 H 404.412 0.475937 0.584808 0
M  V30 4181 H 407.063 1.60712 0.885661 0
M  V30 4182 H 405.445 1.85011 3.50124 0
M  V30 4183 H 406.619 4.20624 1.88181 0
M  V30 4184 H 404.934 3.73361 1.84366 0
M  V30 4185 H 407.531 2.89495 4.49552 0
M  V30 4186 H 407.874 1.26647 3.96568 0
M  V30 4187 H 408.407 2.64426 2.97193 0
M  V30 4188 H 405.146 5.61324 3.3852 0
M  V30 4189 H 404.666 4.17163 4.3097 0
M  V30 4190 H 406.345 4.76182 4.38018 0
M  V30 4191 N 406.477 -1.02803 1.19454 0
M  V30 4192 C 407.702 -1.80378 1.02364 0
M  V30 4193 C 408.127 -1.83282 -0.423007 0
M  V30 4194 O 407.485 -1.25945 -1.30413 0
M  V30 4195 C 407.533 -3.23248 1.59821 0
M  V30 4196 O 406.637 -4.04 0.828105 0
M  V30 4197 H 405.978 -0.556799 0.361761 0
M  V30 4198 H 408.508 -1.29385 1.58495 0
M  V30 4199 H 408.518 -3.73994 1.63073 0
M  V30 4200 H 407.193 -3.2045 2.65113 0
M  V30 4201 H 405.77 -3.62635 0.86891 0
M  V30 4202 N 407.956 -0.998596 -1.21925 0
M  V30 4203 C 408.886 -0.573688 -2.26343 0
M  V30 4204 C 409.867 0.402296 -1.65274 0
M  V30 4205 O 411.052 0.291683 -1.91997 0
M  V30 4206 C 408.182 0.106839 -3.47136 0
M  V30 4207 C 407.136 -0.788269 -4.20678 0
M  V30 4208 C 406.462 0.0254927 -5.34694 0
M  V30 4209 C 407.762 -2.08784 -4.78755 0
M  V30 4210 H 409.456 -1.44651 -2.62138 0
M  V30 4211 H 407.002 -0.696975 -1.26009 0
M  V30 4212 H 408.955 0.415531 -4.19346 0
M  V30 4213 H 407.679 1.01424 -3.10452 0
M  V30 4214 H 406.338 -1.08069 -3.50309 0
M  V30 4215 H 405.986 0.933989 -4.94253 0
M  V30 4216 H 405.686 -0.570437 -5.84825 0
M  V30 4217 H 407.21 0.328147 -6.09718 0
M  V30 4218 H 408.624 -1.84272 -5.42878 0
M  V30 4219 H 407.021 -2.63307 -5.39249 0
M  V30 4220 H 408.091 -2.76284 -3.98491 0
M  V30 4221 N 409.434 1.37368 -0.772513 0
M  V30 4222 C 410.364 2.32856 -0.173304 0
M  V30 4223 C 411.345 1.55818 0.682262 0
M  V30 4224 O 412.53 1.84052 0.619566 0
M  V30 4225 C 409.66 3.40048 0.706007 0
M  V30 4226 C 408.614 4.27973 -0.0483144 0
M  V30 4227 C 407.94 5.26184 0.950491 0
M  V30 4228 C 409.24 5.07665 -1.22776 0
M  V30 4229 H 410.934 2.83217 -0.971002 0
M  V30 4230 H 408.48 1.3617 -0.468377 0
M  V30 4231 H 410.433 4.05827 1.13501 0
M  V30 4232 H 409.157 2.88214 1.53623 0
M  V30 4233 H 407.816 3.63726 -0.458107 0
M  V30 4234 H 407.464 4.7063 1.77529 0
M  V30 4235 H 407.164 5.85872 0.450314 0
M  V30 4236 H 408.688 5.94838 1.37842 0
M  V30 4237 H 410.102 5.66578 -0.875366 0
M  V30 4238 H 408.499 5.76681 -1.66007 0
M  V30 4239 H 409.569 4.40294 -2.03149 0
M  V30 4240 N 410.912 0.523116 1.48665 0
M  V30 4241 C 411.859 -0.243398 2.29513 0
M  V30 4242 C 412.829 -0.940139 1.36933 0
M  V30 4243 O 414.014 -0.942503 1.65896 0
M  V30 4244 C 411.154 -1.28855 3.20141 0
M  V30 4245 C 410.267 -0.60135 4.27794 0
M  V30 4246 C 409.402 -1.62884 5.05611 0
M  V30 4247 C 408.441 -0.924726 6.05075 0
M  V30 4248 N 407.578 -1.89744 6.75975 0
M  V30 4249 H 412.418 0.452234 2.94549 0
M  V30 4250 H 409.955 0.234858 1.45213 0
M  V30 4251 H 411.913 -1.90674 3.71079 0
M  V30 4252 H 410.543 -1.95266 2.57043 0
M  V30 4253 H 409.595 0.130623 3.80176 0
M  V30 4254 H 410.907 -0.0481585 4.98777 0
M  V30 4255 H 410.061 -2.32149 5.60528 0
M  V30 4256 H 408.8 -2.21592 4.34452 0
M  V30 4257 H 407.805 -0.217966 5.49368 0
M  V30 4258 H 409.03 -0.343851 6.78229 0
M  V30 4259 H 406.976 -2.47373 6.07571 0
M  V30 4260 H 406.893 -1.3955 7.43009 0
M  V30 4261 H 408.161 -2.58229 7.35485 0
M  V30 4262 N 412.39 -1.55475 0.257931 0
M  V30 4263 C 413.636 -1.99502 -0.364266 0
M  V30 4264 C 413.969 -1.146 -1.56782 0
M  V30 4265 O 413.244 -0.211968 -1.93342 0
M  V30 4266 C 413.527 -3.51917 -0.763333 0
M  V30 4267 C 413.38 -4.4758 0.446371 0
M  V30 4268 C 414.699 -4.09742 -1.60623 0
M  V30 4269 H 411.818 -0.725277 -0.130929 0
M  V30 4270 H 414.46 -1.8653 0.361446 0
M  V30 4271 H 412.61 -3.63101 -1.38166 0
M  V30 4272 H 414.282 -4.48362 1.08487 0
M  V30 4273 H 412.525 -4.19947 1.08753 0
M  V30 4274 H 413.196 -5.51862 0.123645 0
M  V30 4275 H 415.672 -4.01727 -1.08418 0
M  V30 4276 H 414.548 -5.16631 -1.85429 0
M  V30 4277 H 414.809 -3.58889 -2.58169 0
M  V30 4278 N 413.868 0.0150385 -1.57593 0
M  V30 4279 C 414.831 0.995996 -2.06428 0
M  V30 4280 C 415.831 1.2818 -0.970903 0
M  V30 4281 O 417.021 1.22949 -1.23406 0
M  V30 4282 C 414.153 2.32506 -2.49307 0
M  V30 4283 H 415.346 0.573873 -2.94358 0
M  V30 4284 H 412.899 0.262186 -1.54085 0
M  V30 4285 H 413.634 2.79438 -1.64575 0
M  V30 4286 H 413.419 2.13087 -3.29145 0
M  V30 4287 H 414.909 3.02906 -2.87468 0
M  V30 4288 N 415.346 1.54954 0.287554 0
M  V30 4289 C 416.592 1.75132 1.02257 0
M  V30 4290 C 416.925 0.542858 1.86458 0
M  V30 4291 O 416.2 -0.459856 1.88986 0
M  V30 4292 C 416.483 3.04812 1.91733 0
M  V30 4293 C 416.336 4.35985 1.10622 0
M  V30 4294 C 417.655 3.30438 2.90687 0
M  V30 4295 H 414.774 0.637194 0.370341 0
M  V30 4296 H 417.416 1.87678 0.296111 0
M  V30 4297 H 415.566 2.94247 2.53675 0
M  V30 4298 H 417.238 4.58487 0.508636 0
M  V30 4299 H 415.481 4.31865 0.409271 0
M  V30 4300 H 416.152 5.23017 1.76513 0
M  V30 4301 H 418.628 3.40701 2.38877 0
M  V30 4302 H 417.504 4.22467 3.50447 0
M  V30 4303 H 417.765 2.49377 3.65053 0
M  V30 4304 N 416.824 -0.551391 1.4764 0
M  V30 4305 C 417.774 -1.65362 1.56969 0
M  V30 4306 C 418.758 -1.55098 0.428189 0
M  V30 4307 O 419.95 -1.63481 0.678441 0
M  V30 4308 C 417.079 -3.04129 1.59249 0
M  V30 4309 C 416.165 -3.19576 2.78804 0
M  V30 4310 N 416.556 -3.05067 4.03445 0
M  V30 4311 C 414.854 -3.50588 2.75688 0
M  V30 4312 C 415.555 -3.2336 4.83543 0
M  V30 4313 N 414.531 -3.4996 4.15968 0
M  V30 4314 H 418.333 -1.52722 2.51104 0
M  V30 4315 H 415.847 -0.756303 1.43714 0
M  V30 4316 H 417.844 -3.83278 1.64024 0
M  V30 4317 H 416.504 -3.17877 0.662148 0
M  V30 4318 H 417.515 -2.82273 4.34215 0
M  V30 4319 H 414.192 -3.70827 1.91817 0
M  V30 4320 H 415.582 -3.17061 5.92387 0
M  V30 4321 N 418.302 -1.35869 -0.798587 0
M  V30 4322 C 419.212 -1.31578 -1.94228 0
M  V30 4323 C 420.228 -0.21939 -1.72611 0
M  V30 4324 O 421.404 -0.450167 -1.96305 0
M  V30 4325 C 418.469 -1.09528 -3.28944 0
M  V30 4326 C 417.53 -2.28556 -3.63402 0
M  V30 4327 C 416.763 -2.07549 -4.9169 0
M  V30 4328 O 416.986 -1.046 -5.60727 0
M  V30 4329 O 415.92 -2.95106 -5.24591 0
M  V30 4330 H 419.746 -2.27847 -2.00796 0
M  V30 4331 H 417.331 -1.16322 -0.937526 0
M  V30 4332 H 419.213 -0.991127 -4.09579 0
M  V30 4333 H 417.888 -0.16315 -3.23289 0
M  V30 4334 H 416.795 -2.44538 -2.83112 0
M  V30 4335 H 418.128 -3.20244 -3.73771 0
M  V30 4336 N 419.78 1.02168 -1.19998 0
M  V30 4337 C 421.029 1.75091 -1.0013 0
M  V30 4338 C 421.342 1.89923 0.467835 0
M  V30 4339 O 422.548 2.59888 0.785515 0
M  V30 4340 C 421.004 3.14892 -1.74273 0
M  V30 4341 C 420.612 3.0809 -3.25245 0
M  V30 4342 C 422.356 3.9206 -1.62755 0
M  V30 4343 C 420.263 4.42867 -3.91948 0
M  V30 4344 H 419.193 0.656394 -0.37103 0
M  V30 4345 H 421.844 1.14284 -1.43567 0
M  V30 4346 H 420.226 3.7621 -1.2362 0
M  V30 4347 H 421.4 2.5611 -3.83072 0
M  V30 4348 H 419.715 2.44416 -3.3712 0
M  V30 4349 H 422.312 4.91764 -2.09934 0
M  V30 4350 H 422.655 4.12199 -0.582894 0
M  V30 4351 H 423.188 3.37359 -2.10793 0
M  V30 4352 H 419.927 4.27931 -4.96543 0
M  V30 4353 H 419.447 4.94874 -3.3891 0
M  V30 4354 H 421.126 5.11728 -3.95909 0
M  V30 4355 N 421.258 1.00505 1.21394 0
M  V30 4356 C 422.506 0.686415 1.90086 0
M  V30 4357 C 422.827 -0.785264 1.7849 0
M  V30 4358 O 422.097 -1.56387 1.17983 0
M  V30 4359 H 420.677 0.2509 0.703604 0
M  V30 4360 H 423.339 1.27417 1.47482 0
M  V30 4361 H 422.435 0.959621 2.96981 0
M  V30 4362 N 422.737 -1.36956 0.779787 0
M  V30 4363 C 423.687 -2.27539 0.144892 0
M  V30 4364 C 424.671 -1.46493 -0.665488 0
M  V30 4365 O 425.863 -1.68968 -0.527141 0
M  V30 4366 C 422.992 -3.35512 -0.727082 0
M  V30 4367 C 422.078 -4.24001 0.0915642 0
M  V30 4368 N 422.469 -4.92757 1.14125 0
M  V30 4369 C 420.767 -4.45807 -0.131141 0
M  V30 4370 C 421.468 -5.58138 1.6388 0
M  V30 4371 N 420.444 -5.35241 0.94962 0
M  V30 4372 H 424.246 -2.78176 0.948446 0
M  V30 4373 H 421.76 -1.50169 0.618315 0
M  V30 4374 H 423.757 -3.99324 -1.19776 0
M  V30 4375 H 422.417 -2.86431 -1.52929 0
M  V30 4376 H 423.428 -4.94984 1.52353 0
M  V30 4377 H 420.105 -4.07582 -0.904621 0
M  V30 4378 H 421.495 -6.23071 2.51461 0
M  V30 4379 N 424.215 -0.530993 -1.48385 0
M  V30 4380 C 425.461 0.00274135 -2.028 0
M  V30 4381 C 425.794 1.33838 -1.40716 0
M  V30 4382 O 425.069 1.86465 -0.553277 0
M  V30 4383 C 425.352 0.123676 -3.59888 0
M  V30 4384 C 425.205 -1.2372 -4.3245 0
M  V30 4385 C 426.524 0.849967 -4.31814 0
M  V30 4386 H 423.643 -0.000477758 -0.737 0
M  V30 4387 H 426.285 -0.688217 -1.77098 0
M  V30 4388 H 424.435 0.712157 -3.81917 0
M  V30 4389 H 426.107 -1.86687 -4.21836 0
M  V30 4390 H 424.35 -1.81882 -3.93829 0
M  V30 4391 H 425.021 -1.10557 -5.40815 0
M  V30 4392 H 427.497 0.350572 -4.14621 0
M  V30 4393 H 426.373 0.903486 -5.41413 0
M  V30 4394 H 426.634 1.90047 -3.99167 0
M  V30 4395 N 425.693 1.55336 -0.266172 0
M  V30 4396 C 426.623 2.25146 0.618981 0
M  V30 4397 C 427.604 1.23845 1.16604 0
M  V30 4398 O 428.789 1.52544 1.20183 0
M  V30 4399 C 425.919 2.96572 1.80728 0
M  V30 4400 C 424.873 4.04726 1.39215 0
M  V30 4401 C 424.199 4.63678 2.66283 0
M  V30 4402 C 425.499 5.19407 0.548942 0
M  V30 4403 H 427.193 2.99377 0.0368116 0
M  V30 4404 H 424.739 1.43991 0.0162651 0
M  V30 4405 H 426.692 3.44116 2.43232 0
M  V30 4406 H 425.416 2.19861 2.41514 0
M  V30 4407 H 424.075 3.57979 0.790351 0
M  V30 4408 H 423.723 3.83646 3.25308 0
M  V30 4409 H 423.423 5.367 2.39222 0
M  V30 4410 H 424.947 5.13967 3.29651 0
M  V30 4411 H 426.361 5.63059 1.07876 0
M  V30 4412 H 424.758 5.98936 0.373593 0
M  V30 4413 H 425.828 4.8295 -0.434394 0
M  V30 4414 N 427.171 -0.0066808 1.57599 0
M  V30 4415 C 428.419 -0.691552 1.899 0
M  V30 4416 C 428.74 -1.74682 0.866672 0
M  V30 4417 O 428.01 -1.95661 -0.0968189 0
M  V30 4418 H 426.59 -0.258416 0.700878 0
M  V30 4419 H 429.252 0.0326655 1.94873 0
M  V30 4420 H 428.348 -1.16702 2.8946 0
M  V30 4421 N 428.649 -1.55105 -0.279332 0
M  V30 4422 C 429.579 -1.90557 -1.34945 0
M  V30 4423 C 430.56 -0.766738 -1.51839 0
M  V30 4424 O 431.745 -1.02434 -1.64988 0
M  V30 4425 C 428.875 -2.17193 -2.71006 0
M  V30 4426 C 427.829 -3.33021 -2.68851 0
M  V30 4427 C 427.155 -3.45123 -4.08405 0
M  V30 4428 C 428.455 -4.69578 -2.28678 0
M  V30 4429 H 430.149 -2.80188 -1.05522 0
M  V30 4430 H 427.695 -1.34811 -0.506173 0
M  V30 4431 H 429.648 -2.40581 -3.45975 0
M  V30 4432 H 428.372 -1.24355 -3.01999 0
M  V30 4433 H 427.031 -3.0959 -1.9634 0
M  V30 4434 H 426.679 -2.49762 -4.3661 0
M  V30 4435 H 426.379 -4.22995 -4.07859 0
M  V30 4436 H 427.903 -3.70796 -4.85121 0
M  V30 4437 H 429.317 -4.92553 -2.93368 0
M  V30 4438 H 427.714 -5.5032 -2.39306 0
M  V30 4439 H 428.784 -4.68828 -1.23807 0
M  V30 4440 N 430.127 0.543554 -1.4793 0
M  V30 4441 C 431.538 1.12561 -1.48953 0
M  V30 4442 C 431.889 1.94578 -0.251754 0
M  V30 4443 O 431.014 2.0665 0.642255 0
M  V30 4444 C 431.609 2.04801 -2.69892 0
M  V30 4445 C 430.168 2.58251 -2.73831 0
M  V30 4446 C 429.315 1.34918 -2.42265 0
M  V30 4447 H 432.266 0.32947 -1.55242 0
M  V30 4448 H 432.287 2.88886 -2.47639 0
M  V30 4449 H 431.799 1.4508 -3.59963 0
M  V30 4450 H 429.9 3.21732 -1.87934 0
M  V30 4451 H 430.013 2.98312 -3.74895 0
M  V30 4452 H 428.377 1.66046 -1.93134 0
M  V30 4453 H 429.16 0.769693 -3.3456 0
M  V30 4454 N 431.605 1.3629 0.791371 0
M  V30 4455 C 432.555 1.26988 1.89362 0
M  V30 4456 C 433.539 0.161795 1.60084 0
M  V30 4457 O 434.731 0.394426 1.72549 0
M  V30 4458 C 431.86 1.05944 3.26544 0
M  V30 4459 C 430.946 2.21211 3.61838 0
M  V30 4460 N 431.337 3.46518 3.68455 0
M  V30 4461 C 429.635 2.12933 3.91887 0
M  V30 4462 C 430.336 4.2241 3.99931 0
M  V30 4463 N 429.312 3.51329 4.14812 0
M  V30 4464 H 433.114 2.21908 1.92702 0
M  V30 4465 H 430.628 1.28982 0.986787 0
M  V30 4466 H 432.625 0.973666 4.05371 0
M  V30 4467 H 431.285 0.119223 3.24481 0
M  V30 4468 H 432.296 3.80677 3.51148 0
M  V30 4469 H 428.973 1.26855 3.97761 0
M  V30 4470 H 430.363 5.30767 4.1199 0
M  V30 4471 N 433.083 -1.0153 1.20538 0
M  V30 4472 C 434.311 -1.78746 1.04199 0
M  V30 4473 C 434.726 -1.84323 -0.408733 0
M  V30 4474 O 434.083 -1.29714 -1.28377 0
M  V30 4475 C 434.134 -3.23152 1.62035 0
M  V30 4476 O 433.855 -3.17918 3.0143 0
M  V30 4477 C 435.356 -4.16911 1.50666 0
M  V30 4478 H 432.576 -0.56208 0.366479 0
M  V30 4479 H 435.12 -1.27794 1.59653 0
M  V30 4480 H 433.275 -3.71248 1.10697 0
M  V30 4481 H 433.689 -4.08567 3.28897 0
M  V30 4482 H 435.163 -5.16072 1.95892 0
M  V30 4483 H 435.64 -4.36791 0.459363 0
M  V30 4484 H 436.246 -3.74698 2.01201 0
M  V30 4485 N 434.561 -1.01147 -1.20859 0
M  V30 4486 C 435.791 -0.715872 -1.93801 0
M  V30 4487 C 436.199 0.726592 -1.74692 0
M  V30 4488 O 435.542 1.50397 -1.05482 0
M  V30 4489 C 435.604 -0.965269 -3.46299 0
M  V30 4490 C 435.268 -2.39584 -3.89164 0
M  V30 4491 C 436.265 -3.3764 -3.95342 0
M  V30 4492 C 433.95 -2.73522 -4.21297 0
M  V30 4493 C 435.944 -4.67698 -4.33056 0
M  V30 4494 C 433.631 -4.03794 -4.58687 0
M  V30 4495 C 434.629 -5.00693 -4.64538 0
M  V30 4496 O 434.317 -6.28635 -5.01072 0
M  V30 4497 H 434.049 -0.262524 -0.622942 0
M  V30 4498 H 436.603 -1.35413 -1.54443 0
M  V30 4499 H 434.833 -0.269847 -3.85757 0
M  V30 4500 H 436.522 -0.662051 -4.00464 0
M  V30 4501 H 437.288 -3.12757 -3.70686 0
M  V30 4502 H 433.167 -1.9879 -4.15937 0
M  V30 4503 H 436.711 -5.4333 -4.37537 0
M  V30 4504 H 432.608 -4.28459 -4.82797 0
M  V30 4505 H 433.376 -6.32847 -5.19083 0
M  V30 4506 N 436.039 1.36541 -0.78704 0
M  V30 4507 C 437.455 1.52571 -0.46844 0
M  V30 4508 C 437.655 1.7415 1.01361 0
M  V30 4509 O 436.711 1.77163 1.79915 0
M  V30 4510 C 438.024 2.71299 -1.29682 0
M  V30 4511 C 439.572 2.85169 -1.29027 0
M  V30 4512 C 440.047 4.06898 -2.10233 0
M  V30 4513 N 441.538 4.1404 -2.07666 0
M  V30 4514 C 442.273 5.07301 -2.67271 0
M  V30 4515 N 441.769 6.06021 -3.35724 0
M  V30 4516 N 443.562 4.99898 -2.57018 0
M  V30 4517 H 435.713 1.20788 -1.74711 0
M  V30 4518 H 437.976 0.589364 -0.742532 0
M  V30 4519 H 437.682 2.61868 -2.34773 0
M  V30 4520 H 437.556 3.6539 -0.936479 0
M  V30 4521 H 439.943 2.94062 -0.247284 0
M  V30 4522 H 440.024 1.91992 -1.69035 0
M  V30 4523 H 439.668 3.98766 -3.1456 0
M  V30 4524 H 439.598 4.99218 -1.67597 0
M  V30 4525 H 442.089 3.43357 -1.57843 0
M  V30 4526 H 442.402 6.73741 -3.78541 0
M  V30 4527 H 440.747 6.06253 -3.39826 0
M  V30 4528 H 443.938 4.21724 -2.03142 0
M  V30 4529 H 444.111 5.72392 -3.03761 0
M  V30 4530 N 437.518 0.538854 1.48102 0
M  V30 4531 C 438.746 0.0123136 2.06896 0
M  V30 4532 C 439.161 -1.27312 1.39417 0
M  V30 4533 O 438.518 -1.75949 0.484582 0
M  V30 4534 C 438.569 -0.206118 3.60912 0
M  V30 4535 O 438.29 1.0284 4.25859 0
M  V30 4536 C 439.791 -0.772033 4.36526 0
M  V30 4537 H 437.011 0.0375239 0.66995 0
M  V30 4538 H 439.555 0.747032 1.90367 0
M  V30 4539 H 437.71 -0.89091 3.77017 0
M  V30 4540 H 438.124 0.814654 5.18135 0
M  V30 4541 H 439.598 -0.874251 5.45033 0
M  V30 4542 H 440.075 -1.77904 4.01555 0
M  V30 4543 H 440.681 -0.123526 4.25121 0
M  V30 4544 N 438.996 -1.55193 0.274407 0
M  V30 4545 C 440.244 -1.99187 -0.341902 0
M  V30 4546 C 440.565 -1.16422 -1.56431 0
M  V30 4547 O 439.835 -0.253573 -1.94252 0
M  V30 4548 H 438.415 -0.735721 -0.129317 0
M  V30 4549 H 441.077 -1.91168 0.379578 0
M  V30 4550 H 440.173 -3.05629 -0.632253 0
M  V30 4551 N 440.474 -0.00167713 -1.576 0
M  V30 4552 C 441.699 0.69739 -1.95323 0
M  V30 4553 C 442.124 1.6642 -0.876706 0
M  V30 4554 O 441.482 1.80548 0.165007 0
M  V30 4555 C 441.53 1.40403 -3.32144 0
M  V30 4556 O 440.634 2.5185 -3.26566 0
M  V30 4557 H 439.975 0.185373 -0.637599 0
M  V30 4558 H 442.505 -0.0553665 -2.04525 0
M  V30 4559 H 442.515 1.76707 -3.67748 0
M  V30 4560 H 441.19 0.695167 -4.10049 0
M  V30 4561 H 439.767 2.17861 -3.0264 0
M  V30 4562 N 441.952 1.55251 0.271103 0
M  V30 4563 C 443.201 1.75151 1.00025 0
M  V30 4564 C 443.514 0.561041 1.87381 0
M  V30 4565 O 444.72 0.642506 2.63788 0
M  V30 4566 C 443.176 3.09999 1.82835 0
M  V30 4567 C 442.784 4.3662 1.00336 0
M  V30 4568 C 444.528 3.39249 2.55168 0
M  V30 4569 C 442.435 5.62506 1.82595 0
M  V30 4570 H 441.365 0.652877 0.377183 0
M  V30 4571 H 444.016 1.81708 0.255843 0
M  V30 4572 H 442.398 2.97485 2.61378 0
M  V30 4573 H 443.572 4.60055 0.261959 0
M  V30 4574 H 441.887 4.14527 0.394486 0
M  V30 4575 H 444.484 4.3051 3.1712 0
M  V30 4576 H 444.827 2.59467 3.2555 0
M  V30 4577 H 445.36 3.52869 1.83653 0
M  V30 4578 H 442.099 6.45041 1.16631 0
M  V30 4579 H 441.619 5.43211 2.54327 0
M  V30 4580 H 443.298 6.00875 2.39913 0
M  V30 4581 N 443.43 -0.535701 1.48216 0
M  V30 4582 C 444.363 -1.65726 1.56876 0
M  V30 4583 C 445.341 -1.57094 0.419542 0
M  V30 4584 O 446.525 -1.77648 0.630352 0
M  V30 4585 C 443.652 -3.04096 1.49142 0
M  V30 4586 C 442.698 -3.31105 2.68834 0
M  V30 4587 S 443.531 -3.18001 4.30854 0
M  V30 4588 C 444.687 -4.58828 4.25709 0
M  V30 4589 H 444.92 -1.58129 2.51759 0
M  V30 4590 H 442.453 -0.718218 1.36678 0
M  V30 4591 H 444.411 -3.839 1.45366 0
M  V30 4592 H 443.072 -3.09139 0.556067 0
M  V30 4593 H 442.265 -4.32033 2.59545 0
M  V30 4594 H 441.867 -2.58961 2.69843 0
M  V30 4595 H 444.159 -5.5023 3.95289 0
M  V30 4596 H 445.102 -4.73172 5.26796 0
M  V30 4597 H 445.51 -4.37883 3.56257 0
M  V30 4598 N 444.908 -1.36708 -0.784132 0
M  V30 4599 C 445.84 -1.27333 -1.90575 0
M  V30 4600 C 446.853 -0.191706 -1.61667 0
M  V30 4601 O 448.042 -0.446854 -1.72816 0
M  V30 4602 C 445.142 -0.943177 -3.25511 0
M  V30 4603 C 444.315 -2.12776 -3.82158 0
M  V30 4604 C 443.374 -1.76983 -4.95544 0
M  V30 4605 O 442.4 -2.49134 -5.11782 0
M  V30 4606 N 443.602 -0.706624 -5.76183 0
M  V30 4607 H 446.367 -2.23974 -1.99138 0
M  V30 4608 H 443.928 -1.30171 -0.962656 0
M  V30 4609 H 445.92 -0.684799 -3.98864 0
M  V30 4610 H 444.49 -0.0657333 -3.12531 0
M  V30 4611 H 443.71 -2.54863 -3.0073 0
M  V30 4612 H 444.998 -2.91904 -4.16737 0
M  V30 4613 H 444.396 -0.107643 -5.65598 0
M  V30 4614 H 442.953 -0.50808 -6.49817 0
M  V30 4615 N 446.386 1.0089 -1.21074 0
M  V30 4616 C 447.797 1.56056 -1.02486 0
M  V30 4617 C 448.148 1.91728 0.416506 0
M  V30 4618 O 447.273 1.73066 1.29912 0
M  V30 4619 C 447.868 2.83563 -1.85411 0
M  V30 4620 C 446.427 3.3523 -1.71166 0
M  V30 4621 C 445.574 2.0846 -1.82865 0
M  V30 4622 H 448.525 0.831818 -1.35154 0
M  V30 4623 H 448.546 3.55286 -1.36205 0
M  V30 4624 H 448.058 2.57569 -2.9031 0
M  V30 4625 H 446.159 3.66167 -0.689361 0
M  V30 4626 H 446.272 4.06913 -2.52901 0
M  V30 4627 H 444.636 2.21275 -1.26132 0
M  V30 4628 H 445.419 1.84883 -2.89263 0
M  V30 4629 N 447.864 1.01787 1.20321 0
M  V30 4630 C 448.812 0.58254 2.25187 0
M  V30 4631 C 449.806 -0.379359 1.65098 0
M  V30 4632 O 451.012 -0.249142 1.78267 0
M  V30 4633 H 447.387 0.170078 0.732514 0
M  V30 4634 H 449.358 1.47788 2.59232 0
M  V30 4635 C 448.107 -0.0620885 3.47645 0
M  V30 4636 H 447.43 0.669069 3.94162 0
M  V30 4637 H 448.87 -0.329784 4.22716 0
M  V30 4638 C 447.329 -1.3053 3.10586 0
M  V30 4639 O 447.859 -2.39848 3.22236 0
M  V30 4640 N 446.065 -1.18988 2.65123 0
M  V30 4641 H 445.612 -0.300341 2.55843 0
M  V30 4642 H 445.57 -2.02267 2.40698 0
M  V30 4643 N 449.342 -1.36122 0.79427 0
M  V30 4644 C 450.572 -2.03067 0.380437 0
M  V30 4645 C 450.98 -1.60018 -1.00949 0
M  V30 4646 O 450.323 -0.787425 -1.65968 0
M  V30 4647 C 450.385 -3.57587 0.37034 0
M  V30 4648 C 450.049 -4.23855 1.70867 0
M  V30 4649 C 451.046 -4.46404 2.66496 0
M  V30 4650 C 448.731 -4.61229 1.9893 0
M  V30 4651 C 450.725 -5.05412 3.88378 0
M  V30 4652 C 448.412 -5.19953 3.21079 0
M  V30 4653 C 449.41 -5.41985 4.15621 0
M  V30 4654 O 449.098 -5.99475 5.35616 0
M  V30 4655 H 448.83 -0.658168 0.154243 0
M  V30 4656 H 451.384 -1.7498 1.0757 0
M  V30 4657 H 449.614 -3.84814 -0.381444 0
M  V30 4658 H 451.303 -4.05895 -0.0194894 0
M  V30 4659 H 452.069 -4.17921 2.46103 0
M  V30 4660 H 447.948 -4.43402 1.26158 0
M  V30 4661 H 451.492 -5.22524 4.62185 0
M  V30 4662 H 447.389 -5.47862 3.41347 0
M  V30 4663 H 448.157 -6.17937 5.36745 0
M  V30 4664 N 450.82 -0.546701 -1.47814 0
M  V30 4665 C 452.069 -0.0166497 -2.01693 0
M  V30 4666 C 452.382 1.33721 -1.42752 0
M  V30 4667 O 453.588 1.95658 -1.8823 0
M  V30 4668 C 452.044 0.0206769 -3.59894 0
M  V30 4669 C 451.652 -1.3293 -4.27824 0
M  V30 4670 C 453.396 0.498674 -4.21561 0
M  V30 4671 C 451.303 -1.25165 -5.78003 0
M  V30 4672 H 450.233 -0.0024541 -0.753996 0
M  V30 4673 H 452.884 -0.692984 -1.69912 0
M  V30 4674 H 451.266 0.76244 -3.88591 0
M  V30 4675 H 452.44 -2.08795 -4.10781 0
M  V30 4676 H 450.755 -1.74438 -3.78101 0
M  V30 4677 H 453.352 0.575 -5.31599 0
M  V30 4678 H 453.695 1.5083 -3.88016 0
M  V30 4679 H 454.228 -0.18791 -3.97356 0
M  V30 4680 H 450.967 -2.23695 -6.1615 0
M  V30 4681 H 450.487 -0.53464 -5.97412 0
M  V30 4682 H 452.166 -0.949299 -6.39998 0
M  V30 4683 N 452.299 1.55045 -0.282633 0
M  V30 4684 C 453.71 1.85473 0.213655 0
M  V30 4685 C 454.061 1.20465 1.54863 0
M  V30 4686 O 453.186 0.495676 2.10647 0
M  V30 4687 C 453.781 3.36496 0.394445 0
M  V30 4688 C 452.34 3.67022 0.834961 0
M  V30 4689 C 451.487 2.77218 -0.0674081 0
M  V30 4690 H 454.438 1.50478 -0.504202 0
M  V30 4691 H 454.459 3.60007 1.23186 0
M  V30 4692 H 453.971 3.83782 -0.577326 0
M  V30 4693 H 452.072 3.25241 1.81794 0
M  V30 4694 H 452.185 4.74433 0.667075 0
M  V30 4695 H 450.549 2.5069 0.450196 0
M  V30 4696 H 451.332 3.2732 -1.0352 0
M  V30 4697 N 453.777 0.010035 1.57597 0
M  V30 4698 C 454.709 -1.00649 2.05918 0
M  V30 4699 C 455.722 -1.30077 0.978964 0
M  V30 4700 O 456.911 -1.26878 1.25556 0
M  V30 4701 C 454.011 -2.33876 2.45265 0
M  V30 4702 C 453.184 -2.23242 3.7614 0
M  V30 4703 C 452.243 -3.39242 4.02245 0
M  V30 4704 O 451.269 -3.1698 4.72771 0
M  V30 4705 N 452.471 -4.6242 3.50924 0
M  V30 4706 H 455.236 -0.594333 2.93748 0
M  V30 4707 H 452.797 -0.17714 1.60928 0
M  V30 4708 H 454.789 -3.1027 2.59836 0
M  V30 4709 H 453.359 -2.66799 1.62902 0
M  V30 4710 H 452.579 -1.31696 3.71551 0
M  V30 4711 H 453.867 -2.13321 4.61922 0
M  V30 4712 H 453.265 -4.83404 2.93832 0
M  V30 4713 H 451.822 -5.36046 3.70807 0
M  V30 4714 N 455.255 -1.55392 -0.262866 0
M  V30 4715 C 456.165 -1.92077 -1.34698 0
M  V30 4716 C 457.181 -0.819227 -1.53508 0
M  V30 4717 O 458.357 -1.11921 -1.67439 0
M  V30 4718 C 455.422 -2.19407 -2.68443 0
M  V30 4719 C 454.483 -3.42905 -2.58292 0
M  V30 4720 C 453.716 -3.68921 -3.85659 0
M  V30 4721 O 453.939 -2.97275 -4.8681 0
M  V30 4722 O 452.873 -4.62455 -3.85252 0
M  V30 4723 H 456.699 -2.84384 -1.06581 0
M  V30 4724 H 454.284 -1.42069 -0.462264 0
M  V30 4725 H 456.166 -2.38365 -3.47506 0
M  V30 4726 H 454.841 -1.30282 -2.96325 0
M  V30 4727 H 453.748 -3.29272 -1.7757 0
M  V30 4728 H 455.081 -4.32282 -2.35358 0
M  V30 4729 N 456.733 0.527833 -1.48498 0
M  V30 4730 C 458.144 1.10975 -1.50138 0
M  V30 4731 C 458.495 1.943 -0.272378 0
M  V30 4732 O 457.62 2.07319 0.620301 0
M  V30 4733 C 458.215 2.01927 -2.72049 0
M  V30 4734 C 456.774 2.55332 -2.76554 0
M  V30 4735 C 455.921 1.32341 -2.43683 0
M  V30 4736 H 458.872 0.312986 -1.55583 0
M  V30 4737 H 458.893 2.86244 -2.50689 0
M  V30 4738 H 458.405 1.41254 -3.61481 0
M  V30 4739 H 456.506 3.19721 -1.91336 0
M  V30 4740 H 456.619 2.94319 -3.78038 0
M  V30 4741 H 454.983 1.63989 -1.94884 0
M  V30 4742 H 455.766 0.734165 -3.35358 0
M  V30 4743 N 458.211 1.37122 0.776871 0
M  V30 4744 C 459.174 1.32301 1.8716 0
M  V30 4745 C 460.174 0.228099 1.59174 0
M  V30 4746 O 461.364 0.483642 1.67352 0
M  V30 4747 C 458.496 1.054 3.24197 0
M  V30 4748 H 459.689 2.29673 1.92848 0
M  V30 4749 H 457.242 1.22077 0.97606 0
M  V30 4750 H 457.977 0.0853872 3.24188 0
M  V30 4751 H 457.762 1.84648 3.45901 0
M  V30 4752 H 459.252 1.04664 4.04271 0
M  V30 4753 N 459.689 -1.00246 1.21608 0
M  V30 4754 C 460.936 -1.74061 1.03485 0
M  V30 4755 C 461.264 -1.89658 -0.431308 0
M  V30 4756 O 460.519 -1.42976 -1.33627 0
M  V30 4757 C 460.818 -3.15448 1.68009 0
M  V30 4758 C 460.484 -3.19792 3.17874 0
M  V30 4759 C 459.146 -3.20685 3.58768 0
M  V30 4760 C 461.498 -3.16835 4.13842 0
M  V30 4761 C 458.826 -3.16309 4.94131 0
M  V30 4762 C 461.178 -3.14001 5.49169 0
M  V30 4763 C 459.842 -3.13204 5.89457 0
M  V30 4764 H 459.112 -0.636934 0.378677 0
M  V30 4765 H 461.759 -1.17473 1.51236 0
M  V30 4766 H 460.064 -3.75284 1.12557 0
M  V30 4767 H 461.761 -3.71285 1.51487 0
M  V30 4768 H 458.351 -3.19842 2.85305 0
M  V30 4769 H 462.535 -3.15303 3.83272 0
M  V30 4770 H 457.791 -3.14032 5.24589 0
M  V30 4771 H 461.965 -3.10667 6.23265 0
M  V30 4772 H 459.592 -3.09568 6.94314 0
M  V30 4773 N 461.167 -1.02423 -1.1978 0
M  V30 4774 C 462.077 -0.610919 -2.26506 0
M  V30 4775 C 463.093 0.355152 -1.70337 0
M  V30 4776 O 464.269 0.214195 -2.00258 0
M  V30 4777 C 461.334 0.0365921 -3.46681 0
M  V30 4778 C 460.395 -0.976389 -4.18049 0
M  V30 4779 C 459.628 -0.359683 -5.32487 0
M  V30 4780 O 459.851 0.838601 -5.64202 0
M  V30 4781 O 458.785 -1.08022 -5.92127 0
M  V30 4782 H 462.611 -1.49965 -2.64091 0
M  V30 4783 H 460.196 -0.794156 -1.26545 0
M  V30 4784 H 462.078 0.39786 -4.19518 0
M  V30 4785 H 460.753 0.899398 -3.10954 0
M  V30 4786 H 459.66 -1.38916 -3.47352 0
M  V30 4787 H 460.993 -1.80941 -4.57735 0
M  V30 4788 N 462.645 1.35699 -0.801477 0
M  V30 4789 C 463.575 2.32436 -0.222658 0
M  V30 4790 C 464.556 1.5723 0.649057 0
M  V30 4791 O 465.741 1.85324 0.580387 0
M  V30 4792 C 462.871 3.41469 0.633719 0
M  V30 4793 C 461.825 4.27774 -0.139083 0
M  V30 4794 C 461.151 5.28082 0.838666 0
M  V30 4795 C 462.451 5.04946 -1.33517 0
M  V30 4796 H 464.145 2.81094 -1.03086 0
M  V30 4797 H 461.691 1.35146 -0.497155 0
M  V30 4798 H 463.644 4.08143 1.04868 0
M  V30 4799 H 462.368 2.91408 1.47475 0
M  V30 4800 H 461.027 3.62673 -0.535156 0
M  V30 4801 H 460.675 4.7429 1.67506 0
M  V30 4802 H 460.375 5.86695 0.32594 0
M  V30 4803 H 461.899 5.97628 1.25194 0
M  V30 4804 H 463.313 5.64593 -0.995349 0
M  V30 4805 H 461.71 5.7303 -1.78202 0
M  V30 4806 H 462.78 4.35886 -2.12442 0
M  V30 4807 N 464.123 0.554532 1.47522 0
M  V30 4808 C 465.4 -0.0360704 1.95567 0
M  V30 4809 C 465.78 -1.48828 1.49711 0
M  V30 4810 O 465.128 -2.16366 0.734717 0
M  V30 4811 C 465.338 0.106631 3.48837 0
M  V30 4812 C 466.686 -0.0400899 4.24581 0
M  V30 4813 O 467.71 0.0340453 3.56184 0
M  V30 4814 O 466.569 -0.199111 5.46137 0
M  V30 4815 H 463.663 -0.0656294 0.824392 0
M  V30 4816 H 466.209 0.620867 1.57935 0
M  V30 4817 H 464.981 1.11727 3.7501 0
M  V30 4818 H 464.604 -0.58804 3.93227 0
M  V30 4819 N 465.601 -1.54893 0.290851 0
M  V30 4820 C 466.847 -2.00949 -0.314784 0
M  V30 4821 C 467.202 -1.1757 -1.52299 0
M  V30 4822 O 466.495 -0.241558 -1.90071 0
M  V30 4823 C 466.689 -3.49815 -0.732397 0
M  V30 4824 C 466.518 -4.47603 0.433799 0
M  V30 4825 C 465.288 -4.96806 0.922599 0
M  V30 4826 C 467.486 -4.98233 1.27546 0
M  V30 4827 N 465.468 -5.78426 2.05662 0
M  V30 4828 C 466.839 -5.77455 2.25712 0
M  V30 4829 C 468.894 -4.80439 1.307 0
M  V30 4830 C 467.597 -6.40778 3.26796 0
M  V30 4831 C 469.623 -5.44574 2.30637 0
M  V30 4832 C 468.985 -6.23619 3.27533 0
M  V30 4833 H 465.084 -0.777905 -0.0799257 0
M  V30 4834 H 467.668 -1.9015 0.418458 0
M  V30 4835 H 465.839 -3.60925 -1.43483 0
M  V30 4836 H 467.571 -3.82681 -1.31671 0
M  V30 4837 H 464.326 -4.70961 0.49926 0
M  V30 4838 H 464.75 -6.23923 2.62772 0
M  V30 4839 H 469.392 -4.18918 0.571622 0
M  V30 4840 H 467.11 -7.01439 4.01258 0
M  V30 4841 H 470.696 -5.32739 2.33838 0
M  V30 4842 H 469.576 -6.72367 4.03599 0
M  V30 4843 N 467.08 -0.0183926 -1.57589 0
M  V30 4844 C 468.305 0.676634 -1.96052 0
M  V30 4845 C 468.73 1.6548 -0.894307 0
M  V30 4846 O 468.088 1.80712 0.145849 0
M  V30 4847 C 468.136 1.36872 -3.33614 0
M  V30 4848 O 467.24 2.48372 -3.29219 0
M  V30 4849 H 466.581 0.1786 -0.63953 0
M  V30 4850 H 469.111 -0.077056 -2.04455 0
M  V30 4851 H 469.121 1.72797 -3.69601 0
M  V30 4852 H 467.796 0.651636 -4.10763 0
M  V30 4853 H 466.373 2.14639 -3.04934 0
M  V30 4854 N 468.558 1.5553 0.254621 0
M  V30 4855 C 469.835 1.6774 1.00611 0
M  V30 4856 C 470.215 0.555993 2.03647 0
M  V30 4857 O 469.563 -0.441583 2.24193 0
M  V30 4858 C 469.773 3.07725 1.6464 0
M  V30 4859 C 471.121 3.66074 2.15116 0
M  V30 4860 O 472.145 3.10476 1.74595 0
M  V30 4861 O 471.004 4.63526 2.89493 0
M  V30 4862 H 468.098 0.681958 0.467828 0
M  V30 4863 H 470.644 1.67863 0.24902 0
M  V30 4864 H 469.416 3.80792 0.900734 0
M  V30 4865 H 469.039 3.1158 2.46989 0
M  V30 4866 N 470.036 -0.519951 1.48776 0
M  V30 4867 C 471.452 -0.849418 1.35119 0
M  V30 4868 C 471.652 -1.98077 0.36982 0
M  V30 4869 O 470.708 -2.51664 -0.205359 0
M  V30 4870 C 472.021 -1.20748 2.75391 0
M  V30 4871 C 473.569 -1.31679 2.83954 0
M  V30 4872 C 474.044 -1.70824 4.24951 0
M  V30 4873 N 475.535 -1.77908 4.27672 0
M  V30 4874 C 476.27 -2.09603 5.33717 0
M  V30 4875 N 475.766 -2.39652 6.5003 0
M  V30 4876 N 477.559 -2.10694 5.21119 0
M  V30 4877 H 469.71 0.226377 2.1119 0
M  V30 4878 H 471.973 0.0386519 0.947212 0
M  V30 4879 H 471.679 -0.449703 3.48813 0
M  V30 4880 H 471.553 -2.15534 3.09556 0
M  V30 4881 H 473.94 -2.06532 2.10781 0
M  V30 4882 H 474.021 -0.3499 2.53396 0
M  V30 4883 H 473.665 -0.965282 4.98643 0
M  V30 4884 H 473.595 -2.6858 4.52959 0
M  V30 4885 H 476.086 -1.56923 3.43779 0
M  V30 4886 H 476.399 -2.6297 7.26682 0
M  V30 4887 H 474.744 -2.37149 6.53288 0
M  V30 4888 H 477.935 -1.86682 4.29264 0
M  V30 4889 H 478.108 -2.35062 6.03863 0
M  V30 4890 N 471.514 -1.37532 -0.769588 0
M  V30 4891 C 472.461 -1.3347 -1.88293 0
M  V30 4892 C 473.431 -0.199891 -1.64893 0
M  V30 4893 O 474.616 -0.389594 -1.8678 0
M  V30 4894 C 471.756 -1.14968 -3.25387 0
M  V30 4895 C 470.869 -2.37698 -3.60727 0
M  V30 4896 C 470.004 -2.12051 -4.8704 0
M  V30 4897 C 469.043 -3.30636 -5.15117 0
M  V30 4898 N 468.18 -3.04527 -6.3262 0
M  V30 4899 H 473.02 -2.28658 -1.911 0
M  V30 4900 H 470.557 -1.13622 -0.934257 0
M  V30 4901 H 472.515 -1.02261 -4.04473 0
M  V30 4902 H 471.145 -0.234263 -3.21949 0
M  V30 4903 H 470.197 -2.61137 -2.76608 0
M  V30 4904 H 471.509 -3.26131 -3.77413 0
M  V30 4905 H 470.663 -1.96388 -5.74035 0
M  V30 4906 H 469.402 -1.20959 -4.72462 0
M  V30 4907 H 468.407 -3.46836 -4.26597 0
M  V30 4908 H 469.632 -4.22582 -5.31603 0
M  V30 4909 H 467.578 -2.16067 -6.19396 0
M  V30 4910 H 467.495 -3.86503 -6.49732 0
M  V30 4911 H 468.763 -2.92485 -7.22546 0
M  V30 4912 N 472.992 0.995999 -1.22138 0
M  V30 4913 C 473.955 2.06711 -0.990109 0
M  V30 4914 C 474.955 1.60744 0.0422978 0
M  V30 4915 O 476.145 1.73095 -0.195895 0
M  V30 4916 C 473.277 3.37288 -0.49491 0
M  V30 4917 H 474.47 2.28661 -1.94047 0
M  V30 4918 H 472.023 1.16711 -1.03963 0
M  V30 4919 H 472.758 3.21022 0.459948 0
M  V30 4920 H 472.543 3.71986 -1.23971 0
M  V30 4921 H 474.033 4.16103 -0.353253 0
M  V30 4922 N 474.47 1.03057 1.19235 0
M  V30 4923 C 475.719 0.72326 1.88287 0
M  V30 4924 C 476.032 -0.751333 1.80594 0
M  V30 4925 O 477.238 -1.17176 2.44912 0
M  V30 4926 C 475.694 1.24338 3.3774 0
M  V30 4927 C 475.302 2.74587 3.53986 0
M  V30 4928 C 477.046 1.01213 4.12257 0
M  V30 4929 C 474.953 3.20009 4.97341 0
M  V30 4930 H 473.883 0.266848 0.705201 0
M  V30 4931 H 476.534 1.24509 1.34795 0
M  V30 4932 H 474.916 0.649457 3.90638 0
M  V30 4933 H 476.09 3.39649 3.11408 0
M  V30 4934 H 474.405 2.9601 2.9286 0
M  V30 4935 H 477.002 1.32675 5.17978 0
M  V30 4936 H 477.345 -0.051001 4.16269 0
M  V30 4937 H 477.878 1.57014 3.65501 0
M  V30 4938 H 474.617 4.25659 4.98493 0
M  V30 4939 H 474.137 2.59676 5.40674 0
M  V30 4940 H 475.816 3.13447 5.66003 0
M  V30 4941 N 475.948 -1.35272 0.808662 0
M  V30 4942 C 476.88 -2.28507 0.178149 0
M  V30 4943 C 477.893 -1.50377 -0.623754 0
M  V30 4944 O 479.082 -1.72583 -0.455774 0
M  V30 4945 C 476.182 -3.30038 -0.769959 0
M  V30 4946 C 475.355 -4.37398 -0.0139749 0
M  V30 4947 C 474.414 -5.18775 -0.880875 0
M  V30 4948 O 473.44 -5.68236 -0.331059 0
M  V30 4949 N 474.642 -5.37087 -2.20267 0
M  V30 4950 H 477.407 -2.83255 0.979106 0
M  V30 4951 H 474.968 -1.47643 0.664308 0
M  V30 4952 H 476.96 -3.81371 -1.35418 0
M  V30 4953 H 475.53 -2.75789 -1.47171 0
M  V30 4954 H 474.75 -3.86971 0.751468 0
M  V30 4955 H 476.038 -5.06268 0.506965 0
M  V30 4956 H 475.436 -4.9855 -2.67328 0
M  V30 4957 H 473.993 -5.91593 -2.73608 0
M  V30 4958 N 477.426 -0.562348 -1.47226 0
M  V30 4959 C 478.373 0.182461 -2.30078 0
M  V30 4960 C 479.343 0.903503 -1.39377 0
M  V30 4961 O 480.528 0.898188 -1.68337 0
M  V30 4962 C 477.668 1.20322 -3.23445 0
M  V30 4963 C 476.781 0.487717 -4.29238 0
M  V30 4964 C 475.916 1.49422 -5.09752 0
M  V30 4965 C 474.955 0.763976 -6.07314 0
M  V30 4966 N 474.092 1.71755 -6.80768 0
M  V30 4967 H 478.932 -0.530169 -2.93246 0
M  V30 4968 H 476.469 -0.273276 -1.44539 0
M  V30 4969 H 478.427 1.80768 -3.76004 0
M  V30 4970 H 477.057 1.88382 -2.6213 0
M  V30 4971 H 476.109 -0.231374 -3.79696 0
M  V30 4972 H 477.421 -0.0841003 -4.98729 0
M  V30 4973 H 476.575 2.17206 -5.66486 0
M  V30 4974 H 475.314 2.09995 -4.40174 0
M  V30 4975 H 474.319 0.0722344 -5.49753 0
M  V30 4976 H 475.544 0.16391 -6.78902 0
M  V30 4977 H 473.49 2.31177 -6.13916 0
M  V30 4978 H 473.407 1.19802 -7.46447 0
M  V30 4979 H 474.675 2.38638 -7.42073 0
M  V30 4980 N 478.904 1.54736 -0.299062 0
M  V30 4981 C 479.834 2.26409 0.571085 0
M  V30 4982 C 480.815 1.2629 1.13951 0
M  V30 4983 O 482 1.55059 1.16921 0
M  V30 4984 C 479.13 3.00338 1.74396 0
M  V30 4985 C 478.084 4.07588 1.30599 0
M  V30 4986 C 477.41 4.69222 2.56387 0
M  V30 4987 C 478.71 5.20455 0.438645 0
M  V30 4988 H 480.404 2.99388 -0.0266991 0
M  V30 4989 H 477.95 1.43993 -0.0142812 0
M  V30 4990 H 479.903 3.49198 2.35878 0
M  V30 4991 H 478.627 2.24934 2.36796 0
M  V30 4992 H 477.286 3.59575 0.71424 0
M  V30 4993 H 476.934 3.9046 3.17097 0
M  V30 4994 H 476.634 5.41653 2.27784 0
M  V30 4995 H 478.158 5.20844 3.18675 0
M  V30 4996 H 479.572 5.65221 0.959085 0
M  V30 4997 H 477.969 5.99594 0.246466 0
M  V30 4998 H 479.039 4.8192 -0.536738 0
M  V30 4999 N 480.382 0.0267497 1.57577 0
M  V30 5000 C 481.612 -0.6617 1.95717 0
M  V30 5001 C 482.02 -1.66331 0.901706 0
M  V30 5002 O 481.363 -1.83273 -0.125241 0
M  V30 5003 C 481.425 -1.42649 3.29987 0
M  V30 5004 C 481.089 -0.583482 4.5326 0
M  V30 5005 C 482.086 0.140221 5.19711 0
M  V30 5006 C 479.771 -0.521581 4.99585 0
M  V30 5007 C 481.765 0.914523 6.30805 0
M  V30 5008 C 479.452 0.256428 6.10562 0
M  V30 5009 C 480.45 0.973189 6.76031 0
M  V30 5010 O 480.138 1.73845 7.84878 0
M  V30 5011 H 479.87 -0.187483 0.649481 0
M  V30 5012 H 482.424 0.0820847 2.05236 0
M  V30 5013 H 480.654 -2.21536 3.16952 0
M  V30 5014 H 482.343 -2.00282 3.53047 0
M  V30 5015 H 483.109 0.101716 4.84893 0
M  V30 5016 H 478.988 -1.06904 4.48433 0
M  V30 5017 H 482.532 1.4745 6.81839 0
M  V30 5018 H 478.429 0.296657 6.44818 0
M  V30 5019 H 479.197 1.65797 8.01532 0
M  V30 5020 N 481.861 -1.55662 -0.24637 0
M  V30 5021 C 483.109 -1.77168 -0.972411 0
M  V30 5022 C 483.43 -0.590827 -1.85834 0
M  V30 5023 O 482.7 0.393365 -1.9191 0
M  V30 5024 H 481.28 -0.653405 -0.362038 0
M  V30 5025 H 483.942 -1.93101 -0.264189 0
M  V30 5026 H 483.038 -2.68335 -1.59382 0
M  V30 5027 N 483.339 0.512053 -1.4905 0
M  V30 5028 C 484.564 1.2959 -1.6193 0
M  V30 5029 C 484.989 1.85906 -0.286454 0
M  V30 5030 O 484.347 1.65312 0.744426 0
M  V30 5031 C 484.395 2.40987 -2.68249 0
M  V30 5032 O 483.499 3.44531 -2.26654 0
M  V30 5033 H 482.84 0.383053 -0.542371 0
M  V30 5034 H 485.37 0.614231 -1.95162 0
M  V30 5035 H 485.38 2.86913 -2.90078 0
M  V30 5036 H 484.055 1.99361 -3.65004 0
M  V30 5037 H 482.632 3.046 -2.15112 0
M  V30 5038 N 484.817 1.37938 0.762283 0
M  V30 5039 C 486.057 1.35076 1.53407 0
M  V30 5040 C 486.421 -0.061546 1.91901 0
M  V30 5041 O 487.622 -0.214973 2.67939 0
M  V30 5042 C 485.893 2.27206 2.75884 0
M  V30 5043 S 487.452 2.42283 3.65848 0
M  V30 5044 H 484.27 0.479387 0.52508 0
M  V30 5045 H 486.872 1.7378 0.895586 0
M  V30 5046 H 485.576 3.28724 2.457 0
M  V30 5047 H 485.107 1.8962 3.44685 0
M  V30 5048 H 487.122 1.64044 4.68299 0
M  V30 5049 N 486.295 -0.989507 1.22664 0
M  V30 5050 C 487.205 -2.11449 1.01619 0
M  V30 5051 C 488.221 -1.73962 -0.036545 0
M  V30 5052 O 489.397 -2.00788 0.156924 0
M  V30 5053 C 486.462 -3.41465 0.600204 0
M  V30 5054 C 485.523 -3.93033 1.72695 0
M  V30 5055 C 484.756 -5.16844 1.33071 0
M  V30 5056 O 484.979 -5.7001 0.210975 0
M  V30 5057 O 483.913 -5.6225 2.14845 0
M  V30 5058 H 487.739 -2.32088 1.9588 0
M  V30 5059 H 485.324 -1.09823 1.01289 0
M  V30 5060 H 487.206 -4.19695 0.37873 0
M  V30 5061 H 485.881 -3.22178 -0.313511 0
M  V30 5062 H 484.788 -3.15961 2.00298 0
M  V30 5063 H 486.121 -4.16758 2.61865 0
M  V30 5064 N 487.773 -1.03688 -1.18687 0
M  V30 5065 C 489.021 -0.736572 -1.88199 0
M  V30 5066 C 489.342 0.737665 -1.80509 0
M  V30 5067 O 488.612 1.53204 -1.22088 0
M  V30 5068 H 487.192 -0.269466 -0.696704 0
M  V30 5069 H 489.854 -1.31282 -1.44052 0
M  V30 5070 H 488.95 -1.03802 -2.94332 0
M  V30 5071 N 489.251 1.34841 -0.815825 0
M  V30 5072 C 490.476 2.03261 -0.41226 0
M  V30 5073 C 490.901 1.61055 0.971751 0
M  V30 5074 O 490.259 0.7917 1.63101 0
M  V30 5075 C 490.307 3.56914 -0.514289 0
M  V30 5076 O 489.411 4.09728 0.468675 0
M  V30 5077 H 488.752 0.641664 -0.170771 0
M  V30 5078 H 491.282 1.72241 -1.10427 0
M  V30 5079 H 491.292 4.06156 -0.387457 0
M  V30 5080 H 489.967 3.86982 -1.52375 0
M  V30 5081 H 488.544 3.71681 0.301316 0
M  V30 5082 N 490.729 0.570148 1.46925 0
M  V30 5083 C 491.976 0.0509529 2.02436 0
M  V30 5084 C 492.304 -1.30405 1.44308 0
M  V30 5085 O 491.559 -1.86493 0.593198 0
M  V30 5086 C 491.858 -0.0780336 3.57315 0
M  V30 5087 C 491.524 1.20775 4.34424 0
M  V30 5088 C 490.186 1.56004 4.5521 0
M  V30 5089 C 492.538 2.0592 4.78797 0
M  V30 5090 C 489.866 2.76201 5.17619 0
M  V30 5091 C 492.218 3.25332 5.42533 0
M  V30 5092 C 490.882 3.60859 5.61549 0
M  V30 5093 H 490.152 0.018645 0.740765 0
M  V30 5094 H 492.799 0.744262 1.76445 0
M  V30 5095 H 491.104 -0.854394 3.82371 0
M  V30 5096 H 492.801 -0.495312 3.97929 0
M  V30 5097 H 489.391 0.923469 4.18533 0
M  V30 5098 H 493.575 1.80008 4.62505 0
M  V30 5099 H 488.831 3.0388 5.30535 0
M  V30 5100 H 493.005 3.91586 5.75876 0
M  V30 5101 H 490.632 4.54088 6.09678 0
M  V30 5102 N 492.207 -1.54576 0.307264 0
M  V30 5103 C 493.484 -1.92377 -0.353605 0
M  V30 5104 C 493.864 -1.23517 -1.71192 0
M  V30 5105 O 493.212 -0.373101 -2.25433 0
M  V30 5106 C 493.422 -3.45928 -0.462039 0
M  V30 5107 C 494.77 -4.18278 -0.729975 0
M  V30 5108 O 495.794 -3.51997 -0.545605 0
M  V30 5109 O 494.653 -5.3563 -1.08454 0
M  V30 5110 H 491.747 -0.802747 -0.198812 0
M  V30 5111 H 494.293 -1.65929 0.355783 0
M  V30 5112 H 493.065 -3.88187 0.492592 0
M  V30 5113 H 492.688 -3.78431 -1.21965 0
M  V30 5114 N 493.685 -0.035106 -1.57561 0
M  V30 5115 C 494.913 0.652258 -1.9635 0
M  V30 5116 C 495.328 1.65317 -0.911897 0
M  V30 5117 O 494.685 1.82194 0.105657 0
M  V30 5118 C 494.736 1.35337 -3.35211 0
M  V30 5119 O 494.457 0.392548 -4.36338 0
M  V30 5120 C 495.958 2.13199 -3.88666 0
M  V30 5121 H 493.178 0.179444 -0.646561 0
M  V30 5122 H 495.722 -0.0966459 -2.04271 0
M  V30 5123 H 493.877 2.05362 -3.28489 0
M  V30 5124 H 494.291 0.891097 -5.16875 0
M  V30 5125 H 495.765 2.577 -4.88154 0
M  V30 5126 H 496.242 2.97353 -3.23231 0
M  V30 5127 H 496.848 1.48118 -3.98674 0
M  V30 5128 N 495.163 1.55791 0.238111 0
M  V30 5129 C 496.126 1.90239 1.27835 0
M  V30 5130 C 497.126 0.779552 1.4064 0
M  V30 5131 O 498.316 1.04747 1.3919 0
M  V30 5132 C 495.448 2.13859 2.65475 0
M  V30 5133 H 496.641 2.83262 0.985034 0
M  V30 5134 H 494.194 1.48818 0.477799 0
M  V30 5135 H 494.929 1.23334 2.99932 0
M  V30 5136 H 494.714 2.95643 2.57561 0
M  V30 5137 H 496.204 2.41664 3.40571 0
M  V30 5138 N 496.642 -0.504142 1.49319 0
M  V30 5139 C 497.889 -1.25846 1.58647 0
M  V30 5140 C 498.217 -1.92592 0.27177 0
M  V30 5141 O 497.472 -1.81167 -0.74007 0
M  V30 5142 C 497.771 -2.35021 2.69258 0
M  V30 5143 C 497.437 -1.85755 4.1086 0
M  V30 5144 C 496.099 -1.72038 4.49395 0
M  V30 5145 C 498.451 -1.48844 4.99495 0
M  V30 5146 C 495.779 -1.19783 5.74342 0
M  V30 5147 C 498.131 -0.980422 6.24956 0
M  V30 5148 C 496.795 -0.829622 6.62324 0
M  V30 5149 H 496.065 -0.460505 0.580531 0
M  V30 5150 H 498.712 -0.559716 1.83138 0
M  V30 5151 H 497.017 -3.10672 2.38726 0
M  V30 5152 H 498.714 -2.93083 2.73685 0
M  V30 5153 H 495.304 -1.9739 3.80441 0
M  V30 5154 H 499.488 -1.5829 4.70381 0
M  V30 5155 H 494.744 -1.06817 6.01997 0
M  V30 5156 H 498.918 -0.685608 6.93017 0
M  V30 5157 H 496.545 -0.42253 7.59025 0
M  V30 5158 N 498.12 -1.38341 -0.754957 0
M  V30 5159 C 499.397 -1.24995 -1.50451 0
M  V30 5160 C 499.777 0.149244 -2.10572 0
M  V30 5161 O 499.125 1.15861 -1.96948 0
M  V30 5162 C 499.335 -2.35904 -2.57197 0
M  V30 5163 C 500.683 -2.74262 -3.24138 0
M  V30 5164 O 501.707 -2.35205 -2.67501 0
M  V30 5165 O 500.566 -3.4161 -4.26574 0
M  V30 5166 H 497.66 -0.48872 -0.667144 0
M  V30 5167 H 500.206 -1.50165 -0.790486 0
M  V30 5168 H 498.978 -3.2953 -2.11011 0
M  V30 5169 H 498.601 -2.12291 -3.36182 0
M  V30 5170 N 499.598 0.982988 -1.23187 0
M  V30 5171 C 500.844 1.7273 -1.07405 0
M  V30 5172 C 501.199 1.885 0.385447 0
M  V30 5173 O 500.492 1.4243 1.28157 0
M  V30 5174 C 500.686 3.12736 -1.73006 0
M  V30 5175 C 500.515 3.10621 -3.25184 0
M  V30 5176 C 499.285 3.15957 -3.94334 0
M  V30 5177 C 501.483 2.93992 -4.21987 0
M  V30 5178 N 499.465 3.03701 -5.33516 0
M  V30 5179 C 500.836 2.8987 -5.48065 0
M  V30 5180 C 502.891 2.78457 -4.12754 0
M  V30 5181 C 501.594 2.71804 -6.65969 0
M  V30 5182 C 503.62 2.61754 -5.30319 0
M  V30 5183 C 502.982 2.58328 -6.55321 0
M  V30 5184 H 499.081 0.641279 -0.447533 0
M  V30 5185 H 501.665 1.16664 -1.55877 0
M  V30 5186 H 499.836 3.67026 -1.2707 0
M  V30 5187 H 501.568 3.75786 -1.50224 0
M  V30 5188 H 498.323 3.24034 -3.45397 0
M  V30 5189 H 498.747 3.00855 -6.06478 0
M  V30 5190 H 503.389 2.79898 -3.16886 0
M  V30 5191 H 501.107 2.69108 -7.61975 0
M  V30 5192 H 504.693 2.50702 -5.25014 0
M  V30 5193 H 503.573 2.45564 -7.4476 0
M  V30 5194 N 501.076 1.04316 1.18135 0
M  V30 5195 C 502.325 0.74319 1.87509 0
M  V30 5196 C 502.638 -0.732136 1.81381 0
M  V30 5197 O 503.844 -1.14572 2.46141 0
M  V30 5198 C 502.3 1.27913 3.36402 0
M  V30 5199 C 501.908 2.78326 3.51053 0
M  V30 5200 C 503.652 1.0558 4.11161 0
M  V30 5201 C 501.559 3.25266 4.93919 0
M  V30 5202 H 500.489 0.274313 0.702331 0
M  V30 5203 H 503.14 1.25931 1.33467 0
M  V30 5204 H 501.522 0.690853 3.89927 0
M  V30 5205 H 502.696 3.42933 3.07788 0
M  V30 5206 H 501.011 2.991 2.89704 0
M  V30 5207 H 503.608 1.38161 5.16542 0
M  V30 5208 H 503.951 -0.00684729 4.16299 0
M  V30 5209 H 504.484 1.60882 3.63816 0
M  V30 5210 H 501.223 4.30922 4.9395 0
M  V30 5211 H 500.743 2.65396 5.3789 0
M  V30 5212 H 502.422 3.19433 5.62647 0
M  V30 5213 N 502.554 -1.34406 0.822964 0
M  V30 5214 C 503.97 -1.51275 0.508727 0
M  V30 5215 C 504.17 -1.76776 -0.967083 0
M  V30 5216 O 503.226 -1.81871 -1.75155 0
M  V30 5217 C 504.539 -2.67765 1.36829 0
M  V30 5218 C 506.087 -2.81647 1.36542 0
M  V30 5219 C 506.562 -4.01181 2.20947 0
M  V30 5220 N 508.053 -4.08388 2.18571 0
M  V30 5221 C 508.788 -5.00036 2.80627 0
M  V30 5222 N 508.284 -5.96906 3.51674 0
M  V30 5223 N 510.077 -4.92908 2.70181 0
M  V30 5224 H 502.228 -1.16113 1.77852 0
M  V30 5225 H 504.491 -0.56947 0.757897 0
M  V30 5226 H 504.197 -2.55551 2.41633 0
M  V30 5227 H 504.071 -3.62779 1.03303 0
M  V30 5228 H 506.458 -2.93303 0.325163 0
M  V30 5229 H 506.539 -1.87443 1.74066 0
M  V30 5230 H 506.183 -3.90286 3.25022 0
M  V30 5231 H 506.113 -4.94599 1.80774 0
M  V30 5232 H 508.604 -3.39051 1.66891 0
M  V30 5233 H 508.917 -6.63468 3.96271 0
M  V30 5234 H 507.262 -5.9703 3.5578 0
M  V30 5235 H 510.453 -4.1619 2.14251 0
M  V30 5236 H 510.626 -5.64137 3.18831 0
M  V30 5237 N 504.032 -0.577932 -1.46621 0
M  V30 5238 C 504.979 0.158048 -2.30258 0
M  V30 5239 C 505.949 0.888669 -1.40328 0
M  V30 5240 O 507.134 0.880283 -1.6928 0
M  V30 5241 C 504.274 1.16884 -3.24703 0
M  V30 5242 C 503.387 0.442163 -4.29731 0
M  V30 5243 C 502.522 1.44007 -5.11308 0
M  V30 5244 C 501.561 0.69952 -6.0809 0
M  V30 5245 N 500.698 1.64525 -6.82551 0
M  V30 5246 H 505.538 -0.561242 -2.92667 0
M  V30 5247 H 503.075 -0.288591 -1.44241 0
M  V30 5248 H 505.033 1.7677 -3.779 0
M  V30 5249 H 503.663 1.85591 -2.64113 0
M  V30 5250 H 502.715 -0.271632 -3.79429 0
M  V30 5251 H 504.027 -0.136992 -4.98612 0
M  V30 5252 H 503.181 2.11186 -5.68758 0
M  V30 5253 H 501.92 2.05315 -4.42377 0
M  V30 5254 H 500.925 0.0139217 -5.49798 0
M  V30 5255 H 502.15 0.091894 -6.79038 0
M  V30 5256 H 500.096 2.24653 -6.16334 0
M  V30 5257 H 500.013 1.11878 -7.47676 0
M  V30 5258 H 501.281 2.30754 -7.44562 0
M  V30 5259 N 505.51 1.54411 -0.315457 0
M  V30 5260 C 506.42 2.27737 0.56329 0
M  V30 5261 C 507.436 1.31787 1.13614 0
M  V30 5262 O 508.612 1.64791 1.15784 0
M  V30 5263 C 505.677 3.01478 1.71207 0
M  V30 5264 C 504.738 4.12997 1.17185 0
M  V30 5265 C 503.971 4.83212 2.26588 0
M  V30 5266 O 504.194 4.52884 3.46775 0
M  V30 5267 O 503.128 5.70299 1.92463 0
M  V30 5268 H 506.954 3.03683 -0.0319614 0
M  V30 5269 H 504.539 1.49178 -0.0814188 0
M  V30 5270 H 506.421 3.47683 2.38106 0
M  V30 5271 H 505.096 2.28414 2.29366 0
M  V30 5272 H 504.003 3.71159 0.468174 0
M  V30 5273 H 505.336 4.8808 0.635501 0
M  V30 5274 N 506.988 0.0434614 1.5754 0
M  V30 5275 C 508.404 -0.313039 1.565 0
M  V30 5276 C 508.604 -1.71954 1.05043 0
M  V30 5277 O 507.66 -2.425 0.703564 0
M  V30 5278 C 508.973 -0.148544 3.00333 0
M  V30 5279 C 510.521 -0.220231 3.12224 0
M  V30 5280 C 510.996 -0.0843565 4.57922 0
M  V30 5281 N 512.487 -0.140881 4.62986 0
M  V30 5282 C 513.222 -0.0597443 5.73369 0
M  V30 5283 N 512.718 0.0733004 6.92761 0
M  V30 5284 N 514.511 -0.11477 5.61983 0
M  V30 5285 H 506.662 0.96303 1.89313 0
M  V30 5286 H 508.925 0.373164 0.871466 0
M  V30 5287 H 508.631 0.820894 3.41986 0
M  V30 5288 H 508.505 -0.912798 3.65989 0
M  V30 5289 H 510.892 -1.18014 2.70475 0
M  V30 5290 H 510.973 0.574646 2.49262 0
M  V30 5291 H 510.617 0.872192 5.00355 0
M  V30 5292 H 510.547 -0.898281 5.18882 0
M  V30 5293 H 513.038 -0.243273 3.77116 0
M  V30 5294 H 513.351 0.128128 7.72694 0
M  V30 5295 H 511.696 0.10828 6.94916 0
M  V30 5296 H 514.887 -0.217212 4.67596 0
M  V30 5297 H 515.06 -0.0480779 6.47982 0
M  V30 5298 N 508.466 -1.55915 -0.229846 0
M  V30 5299 C 509.414 -1.9258 -1.30444 0
M  V30 5300 C 510.408 -0.806839 -1.48951 0
M  V30 5301 O 511.614 -0.991606 -1.50224 0
M  V30 5302 H 507.989 -0.611878 -0.437161 0
M  V30 5303 H 509.96 -2.82264 -0.96797 0
M  V30 5304 C 508.709 -2.25171 -2.6494 0
M  V30 5305 H 508.032 -3.10782 -2.51504 0
M  V30 5306 H 509.472 -2.54716 -3.38963 0
M  V30 5307 C 507.931 -1.07394 -3.19324 0
M  V30 5308 O 508.461 -0.330759 -4.00336 0
M  V30 5309 N 506.667 -0.859984 -2.77584 0
M  V30 5310 H 506.214 -1.46605 -2.11813 0
M  V30 5311 H 506.172 -0.0736671 -3.14314 0
M  V30 5312 N 509.944 0.496216 -1.49584 0
M  V30 5313 C 510.876 1.61404 -1.62731 0
M  V30 5314 C 511.889 1.54613 -0.50978 0
M  V30 5315 O 513.078 1.60458 -0.782017 0
M  V30 5316 C 510.178 3.00212 -1.57245 0
M  V30 5317 C 509.351 3.32138 -2.84611 0
M  V30 5318 C 508.41 4.5038 -2.72112 0
M  V30 5319 O 507.436 4.51926 -3.46051 0
M  V30 5320 N 508.638 5.50575 -1.83977 0
M  V30 5321 H 511.403 1.50552 -2.59141 0
M  V30 5322 H 508.964 0.684182 -1.46733 0
M  V30 5323 H 510.956 3.77241 -1.4653 0
M  V30 5324 H 509.526 3.04964 -0.686729 0
M  V30 5325 H 508.746 2.4396 -3.09641 0
M  V30 5326 H 510.034 3.50268 -3.69039 0
M  V30 5327 H 509.432 5.52128 -1.23171 0
M  V30 5328 H 507.989 6.26687 -1.79182 0
M  V30 5329 N 511.423 1.38739 0.74761 0
M  V30 5330 C 512.653 1.3832 1.53464 0
M  V30 5331 C 513.061 -0.0273464 1.8918 0
M  V30 5332 O 512.404 -1.00588 1.53713 0
M  V30 5333 C 512.466 2.18007 2.85855 0
M  V30 5334 C 512.13 3.66762 2.72644 0
M  V30 5335 C 513.127 4.60124 2.42037 0
M  V30 5336 C 510.812 4.10193 2.89909 0
M  V30 5337 C 512.806 5.94897 2.28859 0
M  V30 5338 C 510.493 5.45045 2.7635 0
M  V30 5339 C 511.491 6.37211 2.45869 0
M  V30 5340 O 511.179 7.69581 2.3238 0
M  V30 5341 H 510.911 0.474718 0.481268 0
M  V30 5342 H 513.465 1.83012 0.932518 0
M  V30 5343 H 511.695 1.68043 3.48279 0
M  V30 5344 H 513.384 2.09921 3.47402 0
M  V30 5345 H 514.15 4.27874 2.28361 0
M  V30 5346 H 510.029 3.38797 3.1263 0
M  V30 5347 H 513.573 6.66802 2.04989 0
M  V30 5348 H 509.47 5.76889 2.89601 0
M  V30 5349 H 510.238 7.80169 2.47546 0
M  V30 5350 N 512.901 -0.976442 1.23707 0
M  V30 5351 C 514.149 -1.71487 1.06942 0
M  V30 5352 C 514.47 -1.9098 -0.393897 0
M  V30 5353 O 513.74 -1.48128 -1.28198 0
M  V30 5354 H 512.32 -0.635425 0.392739 0
M  V30 5355 H 514.982 -1.17515 1.55487 0
M  V30 5356 H 514.078 -2.70286 1.56051 0
M  V30 5357 N 514.379 -1.04941 -1.1758 0
M  V30 5358 C 515.289 -0.658826 -2.25159 0
M  V30 5359 C 516.305 0.318941 -1.71052 0
M  V30 5360 O 517.481 0.171669 -2.00667 0
M  V30 5361 C 514.546 -0.0369522 -3.4668 0
M  V30 5362 C 513.607 -1.06484 -4.15884 0
M  V30 5363 C 512.84 -0.472551 -5.31604 0
M  V30 5364 O 513.063 0.718736 -5.65854 0
M  V30 5365 O 511.997 -1.20557 -5.89703 0
M  V30 5366 H 515.823 -1.55533 -2.60851 0
M  V30 5367 H 513.408 -0.820819 -1.24832 0
M  V30 5368 H 515.29 0.308784 -4.20267 0
M  V30 5369 H 513.965 0.833238 -3.12792 0
M  V30 5370 H 512.872 -1.46253 -3.44327 0
M  V30 5371 H 514.205 -1.9061 -4.53794 0
M  V30 5372 N 515.857 1.33968 -0.830081 0
M  V30 5373 C 517.103 1.98357 -0.422191 0
M  V30 5374 C 517.436 1.65633 1.01387 0
M  V30 5375 O 516.711 0.931648 1.70735 0
M  V30 5376 C 516.994 3.54492 -0.633043 0
M  V30 5377 C 516.847 3.96934 -2.11574 0
M  V30 5378 C 518.166 4.40039 -0.0735584 0
M  V30 5379 H 515.285 0.720544 -0.154871 0
M  V30 5380 H 517.927 1.58749 -1.04397 0
M  V30 5381 H 516.077 3.88361 -0.103775 0
M  V30 5382 H 517.749 3.73363 -2.7092 0
M  V30 5383 H 515.992 3.46984 -2.60354 0
M  V30 5384 H 516.663 5.05651 -2.21406 0
M  V30 5385 H 519.139 4.12764 -0.52585 0
M  V30 5386 H 518.015 5.48327 -0.250841 0
M  V30 5387 H 518.276 4.30124 1.02202 0
M  V30 5388 N 517.335 0.585699 1.46312 0
M  V30 5389 C 518.268 -0.194257 2.27372 0
M  V30 5390 C 519.246 -0.894116 1.3581 0
M  V30 5391 O 520.43 -0.907402 1.65222 0
M  V30 5392 C 517.557 -1.27901 3.13622 0
M  V30 5393 C 516.603 -0.684666 4.20969 0
M  V30 5394 S 517.436 0.490745 5.33247 0
M  V30 5395 C 518.592 -0.595137 6.23064 0
M  V30 5396 H 518.825 0.493515 2.93175 0
M  V30 5397 H 516.358 0.372666 1.49835 0
M  V30 5398 H 518.316 -1.90008 3.63878 0
M  V30 5399 H 516.977 -1.93875 2.47126 0
M  V30 5400 H 516.17 -1.50015 4.81156 0
M  V30 5401 H 515.772 -0.139204 3.73741 0
M  V30 5402 H 518.064 -1.48002 6.61137 0
M  V30 5403 H 519.007 -0.0299446 7.08094 0
M  V30 5404 H 519.415 -0.900627 5.57269 0
M  V30 5405 N 518.813 -1.54241 0.323641 0
M  V30 5406 C 520.059 -2.00867 -0.279323 0
M  V30 5407 C 520.392 -1.21146 -1.5178 0
M  V30 5408 O 519.667 -0.29378 -1.92269 0
M  V30 5409 C 519.95 -3.54837 -0.613387 0
M  V30 5410 C 519.803 -4.45284 0.635803 0
M  V30 5411 C 521.122 -4.16186 -1.43099 0
M  V30 5412 H 518.241 -0.730177 -0.100049 0
M  V30 5413 H 520.883 -1.84829 0.440235 0
M  V30 5414 H 519.033 -3.68634 -1.22641 0
M  V30 5415 H 520.705 -4.43357 1.27406 0
M  V30 5416 H 518.948 -4.14956 1.26466 0
M  V30 5417 H 519.619 -5.5084 0.357597 0
M  V30 5418 H 522.095 -4.05964 -0.912814 0
M  V30 5419 H 520.971 -5.24031 -1.6335 0
M  V30 5420 H 521.232 -3.69516 -2.42715 0
M  V30 5421 N 520.291 -0.0518155 -1.57515 0
M  V30 5422 C 521.707 0.304735 -1.56664 0
M  V30 5423 C 521.907 1.71395 -1.05953 0
M  V30 5424 O 520.963 2.42123 -0.716414 0
M  V30 5425 C 522.276 0.132614 -3.00407 0
M  V30 5426 C 523.824 0.20367 -3.12337 0
M  V30 5427 C 524.299 0.0600706 -4.57961 0
M  V30 5428 N 525.79 0.116326 -4.63054 0
M  V30 5429 C 526.525 0.0293363 -5.73392 0
M  V30 5430 N 526.021 -0.110038 -6.92713 0
M  V30 5431 N 527.814 0.0849651 -5.62036 0
M  V30 5432 H 519.965 -0.973056 -1.888 0
M  V30 5433 H 522.228 -0.377781 -0.869474 0
M  V30 5434 H 521.934 -0.839019 -3.41546 0
M  V30 5435 H 521.808 0.893376 -3.66468 0
M  V30 5436 H 524.195 1.16578 -2.71097 0
M  V30 5437 H 524.276 -0.587857 -2.48954 0
M  V30 5438 H 523.92 -0.898715 -4.99886 0
M  V30 5439 H 523.85 0.87075 -5.19351 0
M  V30 5440 H 526.341 0.22327 -3.7724 0
M  V30 5441 H 526.654 -0.169104 -7.72615 0
M  V30 5442 H 524.999 -0.145132 -6.94848 0
M  V30 5443 H 528.19 0.192411 -4.67704 0
M  V30 5444 H 528.363 0.0137131 -6.47999 0
M  V30 5445 N 521.769 1.56035 0.221574 0
M  V30 5446 C 523.016 1.79047 0.94597 0
M  V30 5447 C 523.344 0.62057 1.84334 0
M  V30 5448 O 522.599 -0.395053 1.91671 0
M  V30 5449 C 522.898 3.07813 1.8162 0
M  V30 5450 C 522.564 4.3797 1.07206 0
M  V30 5451 C 521.226 4.73334 0.866508 0
M  V30 5452 C 523.578 5.18326 0.546565 0
M  V30 5453 C 520.906 5.8657 0.123549 0
M  V30 5454 C 523.258 6.32335 -0.18305 0
M  V30 5455 C 521.922 6.66301 -0.399861 0
M  V30 5456 H 521.192 0.655178 0.346155 0
M  V30 5457 H 523.839 1.90299 0.214146 0
M  V30 5458 H 522.144 2.91682 2.61589 0
M  V30 5459 H 523.841 3.2282 2.37884 0
M  V30 5460 H 520.431 4.10202 1.24226 0
M  V30 5461 H 524.615 4.9144 0.692847 0
M  V30 5462 H 519.871 6.11376 -0.0546591 0
M  V30 5463 H 524.045 6.9383 -0.59775 0
M  V30 5464 H 521.672 7.53889 -0.977489 0
M  V30 5465 N 523.247 -0.488276 1.49845 0
M  V30 5466 C 524.472 -1.26997 1.63971 0
M  V30 5467 C 524.897 -1.85427 0.315994 0
M  V30 5468 O 524.255 -1.66475 -0.718032 0
M  V30 5469 C 524.303 -2.36689 2.72049 0
M  V30 5470 O 523.407 -3.40882 2.32107 0
M  V30 5471 H 522.748 -0.374376 0.548396 0
M  V30 5472 H 525.278 -0.583104 1.96115 0
M  V30 5473 H 525.288 -2.82262 2.94605 0
M  V30 5474 H 523.963 -1.93529 3.68129 0
M  V30 5475 H 522.54 -3.01139 2.19931 0
M  V30 5476 N 524.725 -1.39134 -0.740242 0
M  V30 5477 C 525.953 -1.39334 -1.5295 0
M  V30 5478 C 526.368 0.0135008 -1.88795 0
M  V30 5479 O 525.725 0.983524 -1.5373 0
M  V30 5480 C 525.776 -2.2614 -2.82034 0
M  V30 5481 O 525.497 -3.61345 -2.47712 0
M  V30 5482 C 526.998 -2.34666 -3.76094 0
M  V30 5483 H 524.218 -0.476103 -0.472828 0
M  V30 5484 H 526.762 -1.82883 -0.9151 0
M  V30 5485 H 524.917 -1.86018 -3.39818 0
M  V30 5486 H 525.331 -4.07194 -3.30595 0
M  V30 5487 H 526.805 -2.99663 -4.63579 0
M  V30 5488 H 527.282 -1.36426 -4.17474 0
M  V30 5489 H 527.888 -2.75236 -3.2423 0
M  V30 5490 N 526.204 0.969867 -1.24223 0
M  V30 5491 C 527.434 1.74502 -1.106 0
M  V30 5492 C 527.842 1.86038 0.344483 0
M  V30 5493 O 527.185 1.3465 1.24961 0
M  V30 5494 C 527.247 3.18391 -1.66935 0
M  V30 5495 C 526.911 3.30334 -3.15798 0
M  V30 5496 C 527.908 3.15832 -4.12973 0
M  V30 5497 C 525.593 3.54644 -3.55715 0
M  V30 5498 C 527.587 3.25461 -5.48045 0
M  V30 5499 C 525.274 3.63912 -4.90929 0
M  V30 5500 C 526.272 3.49332 -5.86904 0
M  V30 5501 O 525.96 3.58251 -7.1966 0
M  V30 5502 H 525.692 0.554119 -0.387206 0
M  V30 5503 H 528.246 1.22646 -1.64764 0
M  V30 5504 H 526.476 3.71543 -1.07203 0
M  V30 5505 H 528.165 3.77707 -1.48634 0
M  V30 5506 H 528.931 2.96937 -3.83476 0
M  V30 5507 H 524.81 3.65059 -2.81519 0
M  V30 5508 H 528.354 3.13998 -6.22937 0
M  V30 5509 H 524.251 3.82319 -5.20098 0
M  V30 5510 H 525.019 3.7498 -7.27552 0
M  V30 5511 N 527.682 1.05563 1.17022 0
M  V30 5512 C 528.929 0.767937 1.87374 0
M  V30 5513 C 529.257 -0.705224 1.81265 0
M  V30 5514 O 528.512 -1.5318 1.21796 0
M  V30 5515 C 528.811 1.19849 3.36706 0
M  V30 5516 C 528.477 2.6745 3.63017 0
M  V30 5517 C 527.139 3.0777 3.69907 0
M  V30 5518 C 529.491 3.62811 3.74189 0
M  V30 5519 C 526.819 4.42307 3.85463 0
M  V30 5520 C 529.171 4.97087 3.91264 0
M  V30 5521 C 527.835 5.37055 3.96394 0
M  V30 5522 H 527.105 0.281008 0.68565 0
M  V30 5523 H 529.752 1.32339 1.38415 0
M  V30 5524 H 528.057 0.562096 3.87747 0
M  V30 5525 H 529.754 0.953038 3.8951 0
M  V30 5526 H 526.344 2.35228 3.58282 0
M  V30 5527 H 530.528 3.32798 3.68183 0
M  V30 5528 H 525.784 4.72769 3.87684 0
M  V30 5529 H 529.958 5.70869 3.9885 0
M  V30 5530 H 527.585 6.41308 4.082 0
M  V30 5531 N 529.16 -1.33526 0.837174 0
M  V30 5532 C 530.407 -1.97837 0.432064 0
M  V30 5533 C 530.735 -1.66324 -1.00829 0
M  V30 5534 O 529.99 -0.93448 -1.71948 0
M  V30 5535 C 530.289 -3.52367 0.597675 0
M  V30 5536 C 529.955 -4.03826 2.00587 0
M  V30 5537 C 528.617 -4.1759 2.39106 0
M  V30 5538 C 530.969 -4.31333 2.92576 0
M  V30 5539 C 528.297 -4.56195 3.68921 0
M  V30 5540 C 530.649 -4.7139 4.2187 0
M  V30 5541 C 529.313 -4.8336 4.60347 0
M  V30 5542 H 528.583 -0.723937 0.158104 0
M  V30 5543 H 531.23 -1.5923 1.06387 0
M  V30 5544 H 529.535 -3.91624 -0.117452 0
M  V30 5545 H 531.232 -4.00126 0.26454 0
M  V30 5546 H 527.822 -3.93586 1.69671 0
M  V30 5547 H 532.006 -4.20224 2.64056 0
M  V30 5548 H 527.262 -4.63655 3.9854 0
M  V30 5549 H 531.436 -4.91631 4.93226 0
M  V30 5550 H 529.063 -5.1303 5.60985 0
M  V30 5551 N 530.638 -0.59345 -1.46 0
M  V30 5552 C 532.054 -0.255965 -1.57534 0
M  V30 5553 C 532.254 1.24167 -1.58697 0
M  V30 5554 O 531.31 2.02398 -1.50968 0
M  V30 5555 C 532.623 -0.91466 -2.86451 0
M  V30 5556 C 534.171 -0.889253 -3.00102 0
M  V30 5557 C 534.646 -1.52769 -4.3177 0
M  V30 5558 N 536.137 -1.49253 -4.38495 0
M  V30 5559 C 536.872 -1.9558 -5.39014 0
M  V30 5560 N 536.368 -2.49929 -6.46148 0
M  V30 5561 N 538.161 -1.86432 -5.30282 0
M  V30 5562 H 530.312 -1.56604 -1.43489 0
M  V30 5563 H 532.575 -0.655207 -0.685133 0
M  V30 5564 H 532.281 -1.96861 -2.91442 0
M  V30 5565 H 532.155 -0.429356 -3.74748 0
M  V30 5566 H 534.542 0.156111 -2.94687 0
M  V30 5567 H 534.623 -1.41268 -2.13253 0
M  V30 5568 H 534.267 -2.57231 -4.37944 0
M  V30 5569 H 534.197 -0.979398 -5.17412 0
M  V30 5570 H 536.688 -1.09536 -3.61677 0
M  V30 5571 H 537.001 -2.83109 -7.19075 0
M  V30 5572 H 535.346 -2.53961 -6.46938 0
M  V30 5573 H 538.537 -1.43722 -4.4549 0
M  V30 5574 H 538.71 -2.22852 -6.08474 0
M  V30 5575 N 532.116 1.54067 -0.331816 0
M  V30 5576 C 533.064 2.26105 0.54582 0
M  V30 5577 C 534.058 1.27816 1.11173 0
M  V30 5578 O 535.264 1.45565 1.05882 0
M  V30 5579 H 531.639 0.726363 0.194683 0
M  V30 5580 H 533.61 2.98282 -0.083931 0
M  V30 5581 C 532.359 3.03814 1.69092 0
M  V30 5582 H 531.682 3.79269 1.26473 0
M  V30 5583 H 533.122 3.57453 2.28043 0
M  V30 5584 C 531.581 2.12606 2.61343 0
M  V30 5585 O 532.111 1.71437 3.6328 0
M  V30 5586 N 530.317 1.77925 2.29763 0
M  V30 5587 H 529.864 2.11602 1.46909 0
M  V30 5588 H 529.822 1.1718 2.91747 0
M  V30 5589 N 533.594 0.0601682 1.57485 0
M  V30 5590 C 534.819 -0.624416 1.97777 0
M  V30 5591 C 535.244 -1.63051 0.937867 0
M  V30 5592 O 534.602 -1.81036 -0.0978845 0
M  V30 5593 C 534.65 -1.27979 3.37126 0
M  V30 5594 O 533.754 -2.39556 3.35688 0
M  V30 5595 H 533.095 -0.161581 0.64404 0
M  V30 5596 H 535.625 0.131237 2.04179 0
M  V30 5597 H 535.635 -1.62937 3.74053 0
M  V30 5598 H 534.31 -0.542501 4.12347 0
M  V30 5599 H 532.887 -2.06478 3.10517 0
M  V30 5600 N 535.072 -1.5615 -0.213296 0
M  V30 5601 C 536.318 -1.80718 -0.933402 0
M  V30 5602 C 536.673 -0.634441 -1.81639 0
M  V30 5603 O 535.966 0.371182 -1.8797 0
M  V30 5604 C 536.16 -3.08772 -1.79985 0
M  V30 5605 C 535.989 -4.38389 -1.00224 0
M  V30 5606 C 534.759 -5.00513 -0.693885 0
M  V30 5607 C 536.957 -5.13013 -0.363598 0
M  V30 5608 N 534.939 -6.13774 0.124266 0
M  V30 5609 C 536.31 -6.19186 0.31757 0
M  V30 5610 C 538.365 -4.97126 -0.277468 0
M  V30 5611 C 537.068 -7.11197 1.07664 0
M  V30 5612 C 539.094 -5.89544 0.468155 0
M  V30 5613 C 538.456 -6.95149 1.13784 0
M  V30 5614 H 534.555 -0.712833 -0.321549 0
M  V30 5615 H 537.139 -1.93633 -0.203588 0
M  V30 5616 H 535.31 -2.97126 -2.50142 0
M  V30 5617 H 537.042 -3.21499 -2.45806 0
M  V30 5618 H 533.797 -4.62619 -1.01391 0
M  V30 5619 H 534.221 -6.74981 0.522418 0
M  V30 5620 H 538.863 -4.15526 -0.78087 0
M  V30 5621 H 536.581 -7.92273 1.59153 0
M  V30 5622 H 540.167 -5.79327 0.535911 0
M  V30 5623 H 539.047 -7.65428 1.70557 0
M  V30 5624 N 536.55 0.480323 -1.50102 0
M  V30 5625 C 537.78 1.25475 -1.64133 0
M  V30 5626 C 538.188 1.8647 -0.320272 0
M  V30 5627 O 537.531 1.69561 0.70673 0
M  V30 5628 C 537.593 2.40996 -2.6676 0
M  V30 5629 C 537.257 2.00711 -4.10565 0
M  V30 5630 C 538.254 1.53492 -4.96725 0
M  V30 5631 C 535.939 2.09714 -4.56427 0
M  V30 5632 C 537.933 1.15806 -6.26792 0
M  V30 5633 C 535.62 1.7164 -5.86501 0
M  V30 5634 C 536.618 1.24763 -6.71508 0
M  V30 5635 O 536.306 0.872122 -7.99155 0
M  V30 5636 H 536.038 0.385983 -0.554971 0
M  V30 5637 H 538.592 0.580848 -1.97016 0
M  V30 5638 H 536.822 3.11528 -2.291 0
M  V30 5639 H 538.511 3.02981 -2.70106 0
M  V30 5640 H 539.277 1.45966 -4.62514 0
M  V30 5641 H 535.156 2.4515 -3.90413 0
M  V30 5642 H 538.7 0.791465 -6.93096 0
M  V30 5643 H 534.597 1.78822 -6.20236 0
M  V30 5644 H 535.365 1.00178 -8.12346 0
M  V30 5645 N 538.028 1.39524 0.732853 0
M  V30 5646 C 539.274 1.38072 1.49358 0
M  V30 5647 C 539.629 -0.0227943 1.92386 0
M  V30 5648 O 538.922 -0.98976 1.64056 0
M  V30 5649 C 539.116 2.28916 2.74468 0
M  V30 5650 C 538.945 3.7796 2.43673 0
M  V30 5651 C 537.715 4.46874 2.35863 0
M  V30 5652 C 539.913 4.69886 2.09074 0
M  V30 5653 N 537.895 5.81242 1.97561 0
M  V30 5654 C 539.266 5.9292 1.81234 0
M  V30 5655 C 541.321 4.57887 1.95561 0
M  V30 5656 C 540.024 7.05297 1.41242 0
M  V30 5657 C 542.05 5.70187 1.56972 0
M  V30 5658 C 541.412 6.92297 1.30018 0
M  V30 5659 H 537.511 0.56051 0.5453 0
M  V30 5660 H 540.095 1.75093 0.85151 0
M  V30 5661 H 538.266 1.9405 3.36451 0
M  V30 5662 H 539.998 2.18441 3.40684 0
M  V30 5663 H 536.753 4.00341 2.5303 0
M  V30 5664 H 537.177 6.52356 1.80997 0
M  V30 5665 H 541.819 3.64014 2.15067 0
M  V30 5666 H 539.537 7.99069 1.20476 0
M  V30 5667 H 543.123 5.62892 1.47119 0
M  V30 5668 H 542.003 7.7772 1.00605 0
M  V30 5669 N 539.506 -0.963266 1.24736 0
M  V30 5670 C 540.436 -2.07628 1.06832 0
M  V30 5671 C 541.417 -1.70088 -0.0200566 0
M  V30 5672 O 542.602 -1.93636 0.147854 0
M  V30 5673 C 539.732 -3.40636 0.677069 0
M  V30 5674 C 538.686 -3.9215 1.71471 0
M  V30 5675 C 538.012 -5.21553 1.1784 0
M  V30 5676 C 539.312 -4.19493 3.11164 0
M  V30 5677 H 541.006 -2.22864 1.9993 0
M  V30 5678 H 538.552 -1.07093 0.96266 0
M  V30 5679 H 540.505 -4.17941 0.538792 0
M  V30 5680 H 539.229 -3.25313 -0.289612 0
M  V30 5681 H 537.888 -3.17005 1.84128 0
M  V30 5682 H 537.536 -5.02593 0.202195 0
M  V30 5683 H 537.236 -5.56988 1.87185 0
M  V30 5684 H 538.76 -6.01463 1.05233 0
M  V30 5685 H 540.174 -4.87487 3.01711 0
M  V30 5686 H 538.571 -4.66165 3.77902 0
M  V30 5687 H 539.641 -3.26097 3.58871 0
M  V30 5688 N 540.985 -1.06182 -1.16461 0
M  V30 5689 C 542.215 -0.797425 -1.9059 0
M  V30 5690 C 542.623 0.651845 -1.77616 0
M  V30 5691 O 541.966 1.45788 -1.11766 0
M  V30 5692 C 542.028 -1.11128 -3.41893 0
M  V30 5693 C 541.692 -2.55874 -3.78652 0
M  V30 5694 C 542.689 -3.54104 -3.80665 0
M  V30 5695 C 540.374 -2.91144 -4.09317 0
M  V30 5696 C 542.368 -4.85645 -4.12829 0
M  V30 5697 C 540.055 -4.22885 -4.41148 0
M  V30 5698 C 541.053 -5.19945 -4.42883 0
M  V30 5699 O 540.741 -6.49322 -4.73959 0
M  V30 5700 H 540.473 -0.288709 -0.611247 0
M  V30 5701 H 543.027 -1.41841 -1.4856 0
M  V30 5702 H 541.257 -0.433217 -3.84266 0
M  V30 5703 H 542.946 -0.831306 -3.97296 0
M  V30 5704 H 543.712 -3.28197 -3.57088 0
M  V30 5705 H 539.591 -2.16252 -4.07131 0
M  V30 5706 H 543.135 -5.61398 -4.14099 0
M  V30 5707 H 539.032 -4.48551 -4.6419 0
M  V30 5708 H 539.8 -6.54294 -4.91774 0
M  V30 5709 N 542.463 1.3308 -0.844243 0
M  V30 5710 C 543.373 2.32876 -0.283922 0
M  V30 5711 C 544.389 1.63589 0.592846 0
M  V30 5712 O 545.565 1.95205 0.495693 0
M  V30 5713 C 542.63 3.42667 0.527283 0
M  V30 5714 C 541.691 4.27664 -0.374394 0
M  V30 5715 C 540.924 5.32212 0.39819 0
M  V30 5716 O 541.147 5.46635 1.62932 0
M  V30 5717 O 540.081 6.01458 -0.2306 0
M  V30 5718 H 543.907 2.82671 -1.11045 0
M  V30 5719 H 541.492 1.36518 -0.606903 0
M  V30 5720 H 543.374 4.09652 0.988078 0
M  V30 5721 H 542.049 2.95079 1.33078 0
M  V30 5722 H 540.956 3.63526 -0.883144 0
M  V30 5723 H 542.289 4.78749 -1.1428 0
M  V30 5724 N 543.941 0.601185 1.45683 0
M  V30 5725 C 544.889 -0.133955 2.32214 0
M  V30 5726 C 545.883 -0.866034 1.45589 0
M  V30 5727 O 547.089 -0.782326 1.6211 0
M  V30 5728 H 543.464 -0.0620613 0.749435 0
M  V30 5729 H 545.435 0.614389 2.92007 0
M  V30 5730 C 544.184 -1.12216 3.29094 0
M  V30 5731 H 543.507 -0.568273 3.95741 0
M  V30 5732 H 544.947 -1.60659 3.92383 0
M  V30 5733 C 543.406 -2.19251 2.55794 0
M  V30 5734 O 543.936 -3.26894 2.33459 0
M  V30 5735 N 542.142 -1.9436 2.16039 0
M  V30 5736 H 541.689 -1.06829 2.34404 0
M  V30 5737 H 541.647 -2.66181 1.67318 0
M  V30 5738 N 545.419 -1.53889 0.339982 0
M  V30 5739 C 546.835 -1.59595 -0.0120752 0
M  V30 5740 C 547.035 -1.35605 -1.49042 0
M  V30 5741 O 546.091 -1.14856 -2.24865 0
M  V30 5742 C 547.404 -2.9774 0.420898 0
M  V30 5743 C 548.952 -3.1077 0.37294 0
M  V30 5744 C 549.427 -4.51286 0.781327 0
M  V30 5745 N 550.918 -4.57325 0.735374 0
M  V30 5746 C 551.653 -5.64194 1.02336 0
M  V30 5747 N 551.149 -6.7893 1.37933 0
M  V30 5748 N 552.942 -5.54051 0.947838 0
M  V30 5749 H 545.093 -1.67738 1.30299 0
M  V30 5750 H 547.356 -0.785385 0.530918 0
M  V30 5751 H 547.062 -3.20349 1.45152 0
M  V30 5752 H 546.936 -3.76639 -0.205721 0
M  V30 5753 H 549.323 -2.87886 -0.648505 0
M  V30 5754 H 549.404 -2.33939 1.03472 0
M  V30 5755 H 549.048 -4.74905 1.80077 0
M  V30 5756 H 548.978 -5.26511 0.0970679 0
M  V30 5757 H 551.469 -3.74931 0.472773 0
M  V30 5758 H 551.782 -7.56392 1.58402 0
M  V30 5759 H 550.127 -6.80386 1.41774 0
M  V30 5760 H 553.318 -4.63293 0.669115 0
M  V30 5761 H 553.491 -6.37246 1.17563 0
M  V30 5762 N 546.897 -0.0685191 -1.57451 0
M  V30 5763 C 547.845 0.917577 -2.13736 0
M  V30 5764 C 548.839 1.31049 -1.07344 0
M  V30 5765 O 550.045 1.28811 -1.25728 0
M  V30 5766 H 546.42 0.313835 -0.683382 0
M  V30 5767 H 548.391 0.417903 -2.95459 0
M  V30 5768 C 547.14 2.17686 -2.71123 0
M  V30 5769 H 546.463 1.88336 -3.52661 0
M  V30 5770 H 547.903 2.84803 -3.14107 0
M  V30 5771 C 546.362 2.9332 -1.65726 0
M  V30 5772 O 546.892 3.86901 -1.08031 0
M  V30 5773 N 545.098 2.56367 -1.36837 0
M  V30 5774 H 544.645 1.80341 -1.83943 0
M  V30 5775 H 544.603 3.07276 -0.665501 0
M  V30 5776 N 548.375 1.56261 0.205012 0
M  V30 5777 C 549.323 1.94631 1.27364 0
M  V30 5778 C 550.317 0.830434 1.47649 0
M  V30 5779 O 551.523 1.01538 1.48627 0
M  V30 5780 H 547.898 0.618755 0.427371 0
M  V30 5781 H 549.869 2.83768 0.922941 0
M  V30 5782 C 548.618 2.29358 2.61324 0
M  V30 5783 H 547.941 3.14744 2.46528 0
M  V30 5784 H 549.381 2.60076 3.34868 0
M  V30 5785 C 547.84 1.12461 3.17575 0
M  V30 5786 O 548.37 0.394407 3.99759 0
M  V30 5787 N 546.576 0.904036 2.7618 0
M  V30 5788 H 546.123 1.49956 2.09454 0
M  V30 5789 H 546.081 0.123662 3.14157 0
M  V30 5790 N 549.853 -0.472356 1.50355 0
M  V30 5791 C 551.269 -0.806001 1.37753 0
M  V30 5792 C 551.469 -1.968 0.432649 0
M  V30 5793 O 550.525 -2.52189 -0.12519 0
M  V30 5794 C 551.838 -1.11926 2.79093 0
M  V30 5795 C 553.386 -1.22579 2.87999 0
M  V30 5796 C 553.861 -1.57218 4.3017 0
M  V30 5797 N 555.352 -1.64212 4.33115 0
M  V30 5798 C 556.087 -1.92517 5.40116 0
M  V30 5799 N 555.583 -2.1885 6.57325 0
M  V30 5800 N 557.376 -1.94008 5.27558 0
M  V30 5801 H 549.527 0.293451 2.10363 0
M  V30 5802 H 551.79 0.0687672 0.945503 0
M  V30 5803 H 551.496 -0.338504 3.50067 0
M  V30 5804 H 551.37 -2.05577 3.16256 0
M  V30 5805 H 553.757 -1.99722 2.17245 0
M  V30 5806 H 553.838 -0.269107 2.54381 0
M  V30 5807 H 553.482 -0.806154 5.01461 0
M  V30 5808 H 553.412 -2.54034 4.61275 0
M  V30 5809 H 555.903 -1.45906 3.48597 0
M  V30 5810 H 556.216 -2.39718 7.3468 0
M  V30 5811 H 554.561 -2.16245 6.60502 0
M  V30 5812 H 557.752 -1.72931 4.34986 0
M  V30 5813 H 557.925 -2.15731 6.11035 0
M  V30 5814 N 551.331 -1.39911 -0.725443 0
M  V30 5815 C 552.559 -1.40949 -1.51463 0
M  V30 5816 C 552.974 -0.0065242 -1.88799 0
M  V30 5817 O 552.331 0.967163 -1.54765 0
M  V30 5818 C 552.382 -2.29119 -2.79619 0
M  V30 5819 O 552.103 -3.63952 -2.43866 0
M  V30 5820 C 553.604 -2.38642 -3.73584 0
M  V30 5821 H 550.824 -0.481091 -0.467752 0
M  V30 5822 H 553.368 -1.83843 -0.895651 0
M  V30 5823 H 551.523 -1.89612 -3.37826 0
M  V30 5824 H 551.937 -4.10677 -3.26258 0
M  V30 5825 H 553.411 -3.04563 -4.60375 0
M  V30 5826 H 553.888 -1.40846 -4.16004 0
M  V30 5827 H 554.494 -2.78659 -3.21293 0
M  V30 5828 N 552.809 0.956637 -1.25245 0
M  V30 5829 C 554.225 1.22733 -1.02023 0
M  V30 5830 C 554.425 1.99761 0.264186 0
M  V30 5831 O 553.481 2.32814 0.977436 0
M  V30 5832 C 554.794 2.00367 -2.24217 0
M  V30 5833 C 556.342 2.13418 -2.28958 0
M  V30 5834 C 556.817 2.9445 -3.50803 0
M  V30 5835 N 558.308 3.02029 -3.51187 0
M  V30 5836 C 559.043 3.65116 -4.42129 0
M  V30 5837 N 558.539 4.2983 -5.43339 0
M  V30 5838 N 560.332 3.62237 -4.29815 0
M  V30 5839 H 552.483 0.441282 -2.07765 0
M  V30 5840 H 554.746 0.257686 -0.912306 0
M  V30 5841 H 554.452 1.51165 -3.17556 0
M  V30 5842 H 554.326 3.01077 -2.27228 0
M  V30 5843 H 556.713 2.61819 -1.36143 0
M  V30 5844 H 556.794 1.1202 -2.29968 0
M  V30 5845 H 556.438 2.46741 -4.43939 0
M  V30 5846 H 556.368 3.9607 -3.47039 0
M  V30 5847 H 558.859 2.56007 -2.77973 0
M  V30 5848 H 559.172 4.75819 -6.08947 0
M  V30 5849 H 557.517 4.28465 -5.47214 0
M  V30 5850 H 560.708 3.10863 -3.49974 0
M  V30 5851 H 560.881 4.11117 -5.00886 0
M  V30 5852 N 554.287 1.06798 1.15896 0
M  V30 5853 C 555.517 0.807522 1.90165 0
M  V30 5854 C 555.925 -0.642417 1.7796 0
M  V30 5855 O 555.268 -1.45193 1.12537 0
M  V30 5856 C 555.33 1.12939 3.41299 0
M  V30 5857 C 554.994 2.57879 3.7729 0
M  V30 5858 C 555.991 3.56118 3.78782 0
M  V30 5859 C 553.676 2.93311 4.07767 0
M  V30 5860 C 555.67 4.87827 4.10248 0
M  V30 5861 C 553.357 4.25219 4.38899 0
M  V30 5862 C 554.355 5.22287 4.4012 0
M  V30 5863 O 554.043 6.51826 4.70508 0
M  V30 5864 H 553.775 0.291946 0.609708 0
M  V30 5865 H 556.329 1.42627 1.47806 0
M  V30 5866 H 554.559 0.45359 3.84031 0
M  V30 5867 H 556.248 0.852363 3.9685 0
M  V30 5868 H 557.014 3.30086 3.55342 0
M  V30 5869 H 552.893 2.18409 4.05979 0
M  V30 5870 H 556.437 5.63586 4.11116 0
M  V30 5871 H 552.334 4.51006 4.61805 0
M  V30 5872 H 553.102 6.56893 4.88298 0
M  V30 5873 N 555.766 -1.3263 0.851289 0
M  V30 5874 C 557.014 -1.96978 0.452128 0
M  V30 5875 C 557.335 -1.67715 -0.99482 0
M  V30 5876 O 556.605 -0.98259 -1.69476 0
M  V30 5877 H 555.185 -0.72873 0.164202 0
M  V30 5878 H 557.847 -1.61774 1.08698 0
M  V30 5879 H 556.943 -3.06387 0.594407 0
M  V30 5880 N 557.244 -0.608902 -1.45362 0
M  V30 5881 C 558.521 -0.0365378 -1.95566 0
M  V30 5882 C 558.901 1.43169 -1.55131 0
M  V30 5883 O 558.249 2.1349 -0.814513 0
M  V30 5884 C 558.459 -0.236026 -3.48201 0
M  V30 5885 C 559.807 -0.117518 -4.24437 0
M  V30 5886 O 560.831 -0.166217 -3.55812 0
M  V30 5887 O 559.69 -0.00372127 -5.465 0
M  V30 5888 H 556.784 0.0349874 -0.82626 0
M  V30 5889 H 559.33 -0.679055 -1.55521 0
M  V30 5890 H 558.102 -1.25569 -3.70605 0
M  V30 5891 H 557.725 0.441691 -3.95139 0
M  V30 5892 N 558.722 1.53707 -0.348139 0
M  V30 5893 C 560.133 1.86213 0.134797 0
M  V30 5894 C 560.484 1.26925 1.49614 0
M  V30 5895 O 559.609 0.584573 2.08355 0
M  V30 5896 C 560.204 3.37866 0.251371 0
M  V30 5897 C 558.763 3.70233 0.678543 0
M  V30 5898 C 557.91 2.76683 -0.184925 0
M  V30 5899 H 560.861 1.48204 -0.567571 0
M  V30 5900 H 560.882 3.64908 1.07806 0
M  V30 5901 H 560.394 3.80988 -0.739581 0
M  V30 5902 H 558.495 3.32659 1.67835 0
M  V30 5903 H 558.608 4.76836 0.465251 0
M  V30 5904 H 556.972 2.52374 0.343465 0
M  V30 5905 H 557.755 3.22635 -1.1731 0
M  V30 5906 N 560.2 0.0768682 1.57412 0
M  V30 5907 C 561.449 -0.590679 1.92857 0
M  V30 5908 C 561.762 -1.70461 0.959293 0
M  V30 5909 O 562.968 -2.43207 1.20675 0
M  V30 5910 C 561.424 -1.10204 3.42612 0
M  V30 5911 C 561.032 -0.0188447 4.47996 0
M  V30 5912 C 562.776 -1.74336 3.87049 0
M  V30 5913 C 560.683 -0.544536 5.88888 0
M  V30 5914 H 559.613 -0.224411 0.71983 0
M  V30 5915 H 562.264 0.149924 1.82887 0
M  V30 5916 H 560.646 -1.89577 3.47673 0
M  V30 5917 H 561.82 0.755936 4.54557 0
M  V30 5918 H 560.135 0.526555 4.13057 0
M  V30 5919 H 562.732 -2.14708 4.89699 0
M  V30 5920 H 563.075 -2.60537 3.24694 0
M  V30 5921 H 563.608 -1.01577 3.84613 0
M  V30 5922 H 560.347 0.280426 6.549 0
M  V30 5923 H 559.867 -1.28673 5.85836 0
M  V30 5924 H 561.546 -1.01933 6.3892 0
M  V30 5925 N 561.678 -1.56367 -0.196722 0
M  V30 5926 C 562.61 -1.90941 -1.26784 0
M  V30 5927 C 563.623 -0.799928 -1.41792 0
M  V30 5928 O 564.812 -1.07833 -1.42247 0
M  V30 5929 C 561.912 -2.12477 -2.6402 0
M  V30 5930 C 561.085 -3.43616 -2.70641 0
M  V30 5931 C 560.144 -3.54284 -3.89062 0
M  V30 5932 O 559.17 -4.2712 -3.76241 0
M  V30 5933 N 560.372 -2.87252 -5.04447 0
M  V30 5934 H 563.137 -2.83417 -0.974417 0
M  V30 5935 H 560.698 -1.57215 -0.386649 0
M  V30 5936 H 562.69 -2.16904 -3.41665 0
M  V30 5937 H 561.26 -1.26508 -2.85857 0
M  V30 5938 H 560.48 -3.51072 -1.79283 0
M  V30 5939 H 561.768 -4.29958 -2.72054 0
M  V30 5940 H 561.166 -2.27901 -5.17762 0
M  V30 5941 H 559.723 -2.97308 -5.80044 0
M  V30 5942 N 563.156 0.464375 -1.50603 0
M  V30 5943 C 564.405 1.21277 -1.61167 0
M  V30 5944 C 564.718 1.92953 -0.320704 0
M  V30 5945 O 565.924 2.69778 -0.30534 0
M  V30 5946 C 564.38 2.20403 -2.84518 0
M  V30 5947 C 563.988 1.54499 -4.20516 0
M  V30 5948 C 565.732 2.95843 -3.0443 0
M  V30 5949 C 563.639 2.51951 -5.35047 0
M  V30 5950 H 562.569 0.456367 -0.600204 0
M  V30 5951 H 565.22 0.48254 -1.77042 0
M  V30 5952 H 563.602 2.96746 -2.62217 0
M  V30 5953 H 564.776 0.83899 -4.53098 0
M  V30 5954 H 563.091 0.913152 -4.06264 0
M  V30 5955 H 565.688 3.6879 -3.87167 0
M  V30 5956 H 566.031 3.55622 -2.16423 0
M  V30 5957 H 566.564 2.26611 -3.26944 0
M  V30 5958 H 563.303 1.96901 -6.25228 0
M  V30 5959 H 562.823 3.20683 -5.06875 0
M  V30 5960 H 564.502 3.13643 -5.65895 0
M  V30 5961 N 564.634 1.40294 0.718013 0
M  V30 5962 C 565.564 1.43118 1.84498 0
M  V30 5963 C 566.545 0.292403 1.67568 0
M  V30 5964 O 567.73 0.500675 1.87635 0
M  V30 5965 C 564.86 1.29065 3.22427 0
M  V30 5966 C 563.814 2.40521 3.54025 0
M  V30 5967 C 563.14 2.11546 4.91073 0
M  V30 5968 C 564.44 3.82859 3.55269 0
M  V30 5969 H 566.134 2.37432 1.82391 0
M  V30 5970 H 563.68 1.14283 0.87609 0
M  V30 5971 H 565.633 1.29658 4.00957 0
M  V30 5972 H 564.357 0.312271 3.25104 0
M  V30 5973 H 563.016 2.39173 2.77834 0
M  V30 5974 H 562.664 1.12104 4.90348 0
M  V30 5975 H 562.364 2.86216 5.1318 0
M  V30 5976 H 563.888 2.13817 5.71939 0
M  V30 5977 H 565.302 3.86044 4.23843 0
M  V30 5978 H 563.699 4.57029 3.88902 0
M  V30 5979 H 564.769 4.12617 2.54706 0
M  V30 5980 N 566.112 -0.949982 1.2575 0
M  V30 5981 C 567.34 -1.72972 1.13527 0
M  V30 5982 C 567.755 -1.8623 -0.310453 0
M  V30 5983 O 567.112 -1.36336 -1.2132 0
M  V30 5984 C 567.163 -3.14108 1.78936 0
M  V30 5985 O 566.884 -3.01493 3.17858 0
M  V30 5986 C 568.385 -4.08338 1.72554 0
M  V30 5987 H 565.605 -0.541864 0.395758 0
M  V30 5988 H 568.149 -1.19151 1.66202 0
M  V30 5989 H 566.304 -3.64858 1.30221 0
M  V30 5990 H 566.718 -3.90559 3.50092 0
M  V30 5991 H 568.192 -5.04963 2.22973 0
M  V30 5992 H 568.669 -4.33742 0.690251 0
M  V30 5993 H 569.275 -3.63506 2.2078 0
M  V30 5994 N 567.59 -1.07411 -1.15328 0
M  V30 5995 C 568.838 -0.796073 -1.85761 0
M  V30 5996 C 569.159 0.679864 -1.82764 0
M  V30 5997 O 568.429 1.49242 -1.269 0
M  V30 5998 H 567.009 -0.291495 -0.687779 0
M  V30 5999 H 569.671 -1.35799 -1.39802 0
M  V30 6000 H 568.767 -1.13114 -2.90881 0
M  V30 6001 N 569.068 1.32177 -0.85831 0
M  V30 6002 C 570.314 1.97813 -0.47346 0
M  V30 6003 C 570.669 1.66674 0.961122 0
M  V30 6004 O 569.962 0.94657 1.66585 0
M  V30 6005 C 570.156 3.51372 -0.653658 0
M  V30 6006 C 569.985 3.97433 -2.1042 0
M  V30 6007 C 568.755 4.24338 -2.74345 0
M  V30 6008 C 570.953 4.12233 -3.0752 0
M  V30 6009 N 568.935 4.56672 -4.10272 0
M  V30 6010 C 570.306 4.48146 -4.28445 0
M  V30 6011 C 572.361 3.94577 -3.03667 0
M  V30 6012 C 571.064 4.68246 -5.4602 0
M  V30 6013 C 573.09 4.15864 -4.20489 0
M  V30 6014 C 572.452 4.52098 -5.40173 0
M  V30 6015 H 568.551 0.749808 -0.222061 0
M  V30 6016 H 571.135 1.59927 -1.11047 0
M  V30 6017 H 569.306 3.88372 -0.0463267 0
M  V30 6018 H 571.038 4.03998 -0.238343 0
M  V30 6019 H 567.793 4.16544 -2.25362 0
M  V30 6020 H 568.217 4.77019 -4.80398 0
M  V30 6021 H 572.859 3.65662 -2.12252 0
M  V30 6022 H 570.577 4.96014 -6.37962 0
M  V30 6023 H 574.163 4.03702 -4.18947 0
M  V30 6024 H 573.043 4.68238 -6.29065 0
M  V30 6025 N 570.547 0.616602 1.45037 0
M  V30 6026 C 571.958 0.199359 1.85633 0
M  V30 6027 C 572.309 -1.24588 1.51566 0
M  V30 6028 O 571.434 -1.94594 0.94668 0
M  V30 6029 C 572.029 0.355033 3.36935 0
M  V30 6030 C 570.588 -0.00758748 3.76399 0
M  V30 6031 C 569.735 0.675256 2.68953 0
M  V30 6032 H 572.686 0.822708 1.3571 0
M  V30 6033 H 572.707 -0.410201 3.78282 0
M  V30 6034 H 572.219 1.40699 3.61698 0
M  V30 6035 H 570.32 -1.05837 3.57252 0
M  V30 6036 H 570.433 0.392346 4.77491 0
M  V30 6037 H 568.797 0.111992 2.54454 0
M  V30 6038 H 569.58 1.72952 2.96551 0
M  V30 6039 N 572.025 -1.5352 0.356285 0
M  V30 6040 C 573.273 -2.00719 -0.235837 0
M  V30 6041 C 573.594 -1.24551 -1.5004 0
M  V30 6042 O 572.864 -0.356185 -1.92635 0
M  V30 6043 H 571.444 -0.741542 -0.0901366 0
M  V30 6044 H 574.106 -1.88887 0.480378 0
M  V30 6045 H 573.202 -3.08551 -0.469357 0
M  V30 6046 N 573.503 -0.0852151 -1.57369 0
M  V30 6047 C 574.752 0.580443 -1.93168 0
M  V30 6048 C 575.065 1.6995 -0.968319 0
M  V30 6049 O 576.271 2.42564 -1.21963 0
M  V30 6050 C 574.727 1.08386 -3.43192 0
M  V30 6051 C 574.335 -0.00491388 -4.48 0
M  V30 6052 C 576.079 1.72281 -3.87968 0
M  V30 6053 C 573.986 0.513299 -5.89168 0
M  V30 6054 H 572.916 0.22059 -0.72101 0
M  V30 6055 H 575.567 -0.159621 -1.82804 0
M  V30 6056 H 573.949 1.8773 -3.48674 0
M  V30 6057 H 575.123 -0.780032 -4.5415 0
M  V30 6058 H 573.438 -0.548453 -4.12772 0
M  V30 6059 H 576.035 2.12108 -4.9083 0
M  V30 6060 H 576.378 2.58811 -3.26071 0
M  V30 6061 H 576.911 0.995359 -3.85146 0
M  V30 6062 H 573.65 -0.315153 -6.54742 0
M  V30 6063 H 573.17 1.25564 -5.8651 0
M  V30 6064 H 574.849 0.985433 -6.39451 0
M  V30 6065 N 574.981 1.5647 0.188427 0
M  V30 6066 C 576.392 1.70864 0.752494 0
M  V30 6067 C 576.743 0.692905 1.83557 0
M  V30 6068 O 575.868 -0.149307 2.15884 0
M  V30 6069 C 576.463 3.09789 1.37173 0
M  V30 6070 C 575.022 3.25925 1.88281 0
M  V30 6071 C 574.169 2.66817 0.755259 0
M  V30 6072 H 577.12 1.58657 -0.0367408 0
M  V30 6073 H 577.141 3.07489 2.24122 0
M  V30 6074 H 576.653 3.83693 0.583219 0
M  V30 6075 H 574.754 2.56948 2.6983 0
M  V30 6076 H 574.867 4.33498 2.04001 0
M  V30 6077 H 573.231 2.2617 1.17128 0
M  V30 6078 H 574.014 3.43294 -0.0211237 0
M  V30 6079 N 576.459 -0.456382 1.50847 0
M  V30 6080 C 577.687 -1.23026 1.66349 0
M  V30 6081 C 578.102 -1.85473 0.352868 0
M  V30 6082 O 577.459 -1.69885 -0.666739 0
M  V30 6083 C 577.51 -2.32827 2.76539 0
M  V30 6084 O 577.231 -1.72938 4.02522 0
M  V30 6085 C 578.732 -3.23448 3.03144 0
M  V30 6086 H 575.952 -0.371527 0.558756 0
M  V30 6087 H 578.496 -0.543082 1.97157 0
M  V30 6088 H 576.651 -2.97294 2.48384 0
M  V30 6089 H 577.065 -2.45357 4.63573 0
M  V30 6090 H 578.539 -3.96669 3.83872 0
M  V30 6091 H 579.016 -3.83094 2.14793 0
M  V30 6092 H 579.622 -2.64702 3.32886 0
M  V30 6093 N 577.937 -1.40673 -0.710563 0
M  V30 6094 C 578.887 -1.37812 -1.81636 0
M  V30 6095 C 579.871 -0.254853 -1.58869 0
M  V30 6096 O 581.063 -0.494356 -1.69956 0
M  V30 6097 C 578.192 -1.24802 -3.19811 0
M  V30 6098 C 577.278 -2.41931 -3.48325 0
M  V30 6099 N 577.669 -3.67411 -3.47625 0
M  V30 6100 C 575.967 -2.35419 -3.78806 0
M  V30 6101 C 576.668 -4.45008 -3.74623 0
M  V30 6102 N 575.644 -3.74916 -3.93623 0
M  V30 6103 H 579.446 -2.32766 -1.79436 0
M  V30 6104 H 576.96 -1.34516 -0.909909 0
M  V30 6105 H 578.957 -1.20835 -3.99004 0
M  V30 6106 H 577.617 -0.308202 -3.23234 0
M  V30 6107 H 578.628 -4.00503 -3.28356 0
M  V30 6108 H 575.305 -1.4983 -3.89689 0
M  V30 6109 H 576.695 -5.53884 -3.80344 0
M  V30 6110 N 579.415 0.9433 -1.26252 0
M  V30 6111 C 580.363 2.06302 -1.07434 0
M  V30 6112 C 581.357 1.694 -0.00189471 0
M  V30 6113 O 582.563 1.79302 -0.158408 0
M  V30 6114 H 578.938 0.675453 -0.330556 0
M  V30 6115 H 580.909 2.19326 -2.02333 0
M  V30 6116 C 579.658 3.40125 -0.721817 0
M  V30 6117 H 578.981 3.68996 -1.5389 0
M  V30 6118 H 580.421 4.19295 -0.629922 0
M  V30 6119 C 578.88 3.31993 0.572902 0
M  V30 6120 O 579.41 3.67945 1.61182 0
M  V30 6121 N 577.616 2.85099 0.562748 0
M  V30 6122 H 577.163 2.5604 -0.283092 0
M  V30 6123 H 577.121 2.80041 1.42915 0
M  V30 6124 N 580.893 1.08022 1.14757 0
M  V30 6125 C 582.142 0.802468 1.8505 0
M  V30 6126 C 582.455 -0.674061 1.83619 0
M  V30 6127 O 583.661 -1.06683 2.49662 0
M  V30 6128 C 582.117 1.38551 3.32162 0
M  V30 6129 C 581.725 2.89354 3.42021 0
M  V30 6130 C 583.469 1.18608 4.07594 0
M  V30 6131 C 581.376 3.40815 4.83321 0
M  V30 6132 H 580.306 0.296518 0.693248 0
M  V30 6133 H 582.957 1.30114 1.29393 0
M  V30 6134 H 581.339 0.814556 3.87532 0
M  V30 6135 H 582.513 3.52552 2.96722 0
M  V30 6136 H 580.828 3.08165 2.80041 0
M  V30 6137 H 583.425 1.54525 5.11885 0
M  V30 6138 H 583.768 0.125599 4.1611 0
M  V30 6139 H 584.301 1.72375 3.58513 0
M  V30 6140 H 581.04 4.46418 4.79991 0
M  V30 6141 H 580.56 2.82374 5.29174 0
M  V30 6142 H 582.239 3.37171 5.522 0
M  V30 6143 N 582.371 -1.3172 0.865308 0
M  V30 6144 C 583.648 -1.91574 0.394789 0
M  V30 6145 C 584.028 -1.78769 -1.12271 0
M  V30 6146 O 583.376 -1.19245 -1.94918 0
M  V30 6147 C 583.586 -3.37957 0.870982 0
M  V30 6148 C 584.934 -4.15073 0.894384 0
M  V30 6149 O 585.958 -3.4672 0.816325 0
M  V30 6150 O 584.817 -5.37151 1.00651 0
M  V30 6151 H 581.911 -0.818649 0.117229 0
M  V30 6152 H 584.457 -1.4042 0.952913 0
M  V30 6153 H 583.229 -3.41269 1.91444 0
M  V30 6154 H 582.852 -3.96534 0.290907 0
M  V30 6155 N 583.85 -0.624285 -1.44708 0
M  V30 6156 C 584.812 0.0749638 -2.29077 0
M  V30 6157 C 585.812 0.778965 -1.40673 0
M  V30 6158 O 587.003 0.624591 -1.62618 0
M  V30 6159 C 584.135 1.11663 -3.22094 0
M  V30 6160 H 585.327 -0.667013 -2.92388 0
M  V30 6161 H 582.88 -0.384098 -1.51507 0
M  V30 6162 H 583.615 1.88881 -2.63618 0
M  V30 6163 H 583.401 0.61583 -3.87234 0
M  V30 6164 H 584.891 1.60585 -3.8549 0
M  V30 6165 N 585.328 1.53329 -0.364422 0
M  V30 6166 C 586.575 2.01239 0.225634 0
M  V30 6167 C 586.903 1.25172 1.48869 0
M  V30 6168 O 586.158 0.333289 1.92841 0
M  V30 6169 C 586.457 3.52911 0.564661 0
M  V30 6170 C 586.123 4.46837 -0.603936 0
M  V30 6171 C 584.785 4.72234 -0.924585 0
M  V30 6172 C 587.137 5.02409 -1.38691 0
M  V30 6173 C 584.465 5.50454 -2.0302 0
M  V30 6174 C 586.817 5.81836 -2.48293 0
M  V30 6175 C 585.481 6.0552 -2.80894 0
M  V30 6176 H 584.751 0.736386 0.0825654 0
M  V30 6177 H 587.398 1.84948 -0.496645 0
M  V30 6178 H 585.703 3.67144 1.36794 0
M  V30 6179 H 587.4 3.87455 1.03344 0
M  V30 6180 H 583.99 4.27217 -0.343983 0
M  V30 6181 H 588.174 4.82735 -1.15243 0
M  V30 6182 H 583.43 5.67024 -2.28678 0
M  V30 6183 H 587.604 6.23905 -3.0938 0
M  V30 6184 H 585.231 6.65916 -3.66688 0
M  V30 6185 N 586.806 0.0935595 1.57322 0
M  V30 6186 C 588.052 -0.571355 1.94585 0
M  V30 6187 C 588.385 -1.67929 0.975366 0
M  V30 6188 O 587.66 -1.94498 0.00816206 0
M  V30 6189 C 587.943 -1.12797 3.41978 0
M  V30 6190 C 587.796 -0.0251881 4.49793 0
M  V30 6191 C 589.115 -2.02682 3.90651 0
M  V30 6192 H 586.234 -0.206223 0.70756 0
M  V30 6193 H 588.876 0.163956 1.89291 0
M  V30 6194 H 587.026 -1.75461 3.4662 0
M  V30 6195 H 588.698 0.608979 4.57263 0
M  V30 6196 H 586.941 0.641399 4.29032 0
M  V30 6197 H 587.612 -0.455433 5.50118 0
M  V30 6198 H 590.088 -1.49925 3.88152 0
M  V30 6199 H 588.964 -2.38555 4.94351 0
M  V30 6200 H 589.225 -2.94362 3.29854 0
M  V30 6201 N 588.284 -1.56567 -0.180126 0
M  V30 6202 C 589.234 -1.92132 -1.22756 0
M  V30 6203 C 590.218 -0.788639 -1.40247 0
M  V30 6204 O 591.41 -1.05171 -1.42366 0
M  V30 6205 C 588.539 -2.27719 -2.56902 0
M  V30 6206 C 587.625 -3.47481 -2.43142 0
M  V30 6207 N 588.016 -4.64973 -1.99082 0
M  V30 6208 C 586.314 -3.51914 -2.73994 0
M  V30 6209 C 587.015 -5.47119 -1.97574 0
M  V30 6210 N 585.991 -4.87925 -2.39645 0
M  V30 6211 H 589.793 -2.80464 -0.878478 0
M  V30 6212 H 587.307 -1.57686 -0.388463 0
M  V30 6213 H 589.304 -2.51389 -3.32579 0
M  V30 6214 H 587.964 -1.40722 -2.92621 0
M  V30 6215 H 588.975 -4.89358 -1.69557 0
M  V30 6216 H 585.652 -2.75372 -3.13809 0
M  V30 6217 H 587.042 -6.51254 -1.65282 0
M  V30 6218 N 589.762 0.448376 -1.51087 0
M  V30 6219 C 591.011 1.19561 -1.62444 0
M  V30 6220 C 591.324 1.92602 -0.341151 0
M  V30 6221 O 592.53 2.69439 -0.333936 0
M  V30 6222 C 590.986 2.17373 -2.8684 0
M  V30 6223 C 590.594 1.5003 -4.22131 0
M  V30 6224 C 592.338 2.92597 -3.0755 0
M  V30 6225 C 590.245 2.46262 -5.37689 0
M  V30 6226 H 589.175 0.449975 -0.605011 0
M  V30 6227 H 591.826 0.463735 -1.77544 0
M  V30 6228 H 590.208 2.93948 -2.65349 0
M  V30 6229 H 591.382 0.790886 -4.53962 0
M  V30 6230 H 589.697 0.870011 -4.0721 0
M  V30 6231 H 592.294 3.64663 -3.91056 0
M  V30 6232 H 592.637 3.53306 -2.20183 0
M  V30 6233 H 593.17 2.23131 -3.29329 0
M  V30 6234 H 589.909 1.90258 -6.27281 0
M  V30 6235 H 589.429 3.15289 -5.10248 0
M  V30 6236 H 591.108 3.07623 -5.6919 0
M  V30 6237 N 591.24 1.41047 0.703093 0
M  V30 6238 C 592.486 1.41209 1.46396 0
M  V30 6239 C 592.841 0.0180188 1.92392 0
M  V30 6240 O 592.134 -0.954739 1.66118 0
M  V30 6241 C 592.328 2.34686 2.6955 0
M  V30 6242 C 592.157 3.83044 2.35601 0
M  V30 6243 C 590.927 4.51777 2.26331 0
M  V30 6244 C 593.125 4.74215 1.9906 0
M  V30 6245 N 591.107 5.85302 1.85188 0
M  V30 6246 C 592.478 5.96631 1.68616 0
M  V30 6247 C 594.533 4.61932 1.85805 0
M  V30 6248 C 593.236 7.08134 1.26249 0
M  V30 6249 C 595.262 5.73389 1.44842 0
M  V30 6250 C 594.624 6.94899 1.15304 0
M  V30 6251 H 590.723 0.571951 0.533288 0
M  V30 6252 H 593.307 1.76859 0.814179 0
M  V30 6253 H 591.478 2.01143 3.32259 0
M  V30 6254 H 593.21 2.25618 3.35974 0
M  V30 6255 H 589.965 4.05618 2.44482 0
M  V30 6256 H 590.389 6.56049 1.67119 0
M  V30 6257 H 595.031 3.68494 2.07298 0
M  V30 6258 H 592.749 8.01445 1.035 0
M  V30 6259 H 596.335 5.65886 1.35146 0
M  V30 6260 H 595.215 7.79679 0.840854 0
M  V30 6261 N 592.718 -0.936591 1.26751 0
M  V30 6262 C 593.946 -1.71758 1.15355 0
M  V30 6263 C 594.361 -1.86549 -0.290683 0
M  V30 6264 O 593.718 -1.37616 -1.19868 0
M  V30 6265 C 593.769 -3.12193 1.82258 0
M  V30 6266 O 593.49 -2.98105 3.21038 0
M  V30 6267 C 594.991 -4.06485 1.76875 0
M  V30 6268 H 592.211 -0.537636 0.401483 0
M  V30 6269 H 594.755 -1.17382 1.67457 0
M  V30 6270 H 592.91 -3.63456 1.34083 0
M  V30 6271 H 593.324 -3.86824 3.54214 0
M  V30 6272 H 594.798 -5.02569 2.28316 0
M  V30 6273 H 595.275 -4.32986 0.736216 0
M  V30 6274 H 595.881 -3.61144 2.24623 0
M  V30 6275 N 594.196 -1.08629 -1.14182 0
M  V30 6276 C 595.442 -0.828415 -1.85766 0
M  V30 6277 C 595.797 0.638947 -1.81481 0
M  V30 6278 O 595.09 1.46386 -1.23619 0
M  V30 6279 C 595.284 -1.28734 -3.3341 0
M  V30 6280 C 595.113 -2.79778 -3.52071 0
M  V30 6281 C 593.883 -3.47554 -3.66789 0
M  V30 6282 C 596.081 -3.77945 -3.48801 0
M  V30 6283 N 594.063 -4.87107 -3.73631 0
M  V30 6284 C 595.434 -5.03406 -3.61914 0
M  V30 6285 C 597.489 -3.70917 -3.32152 0
M  V30 6286 C 596.192 -6.22673 -3.60098 0
M  V30 6287 C 598.218 -4.89662 -3.31641 0
M  V30 6288 C 597.58 -6.13962 -3.45296 0
M  V30 6289 H 593.679 -0.355884 -0.696327 0
M  V30 6290 H 596.263 -1.38508 -1.36834 0
M  V30 6291 H 594.434 -0.75822 -3.80927 0
M  V30 6292 H 596.166 -0.975649 -3.92764 0
M  V30 6293 H 592.921 -2.97972 -3.68116 0
M  V30 6294 H 593.345 -5.59775 -3.80763 0
M  V30 6295 H 597.987 -2.75749 -3.20504 0
M  V30 6296 H 595.705 -7.1815 -3.70522 0
M  V30 6297 H 599.291 -4.85914 -3.19968 0
M  V30 6298 H 598.171 -7.04307 -3.44851 0
M  V30 6299 N 595.674 1.31259 -0.872281 0
M  V30 6300 C 596.621 2.28459 -0.327857 0
M  V30 6301 C 597.591 1.55831 0.574957 0
M  V30 6302 O 598.776 1.83965 0.506101 0
M  V30 6303 C 595.916 3.41985 0.462644 0
M  V30 6304 C 595.029 4.29458 -0.467949 0
M  V30 6305 C 594.164 5.30131 0.336903 0
M  V30 6306 C 593.203 6.0925 -0.58997 0
M  V30 6307 N 592.34 7.01872 0.178775 0
M  V30 6308 H 597.18 2.74414 -1.16193 0
M  V30 6309 H 594.717 1.34994 -0.584376 0
M  V30 6310 H 596.675 4.06547 0.936759 0
M  V30 6311 H 595.305 2.97134 1.2614 0
M  V30 6312 H 594.357 3.65318 -1.06052 0
M  V30 6313 H 595.669 4.84677 -1.17856 0
M  V30 6314 H 594.823 6.0038 0.873427 0
M  V30 6315 H 593.562 4.75573 1.08079 0
M  V30 6316 H 592.567 5.37889 -1.13823 0
M  V30 6317 H 593.792 6.65894 -1.33275 0
M  V30 6318 H 591.738 6.49721 0.905435 0
M  V30 6319 H 591.655 7.54522 -0.472452 0
M  V30 6320 H 592.923 7.76382 0.696454 0
M  V30 6321 N 597.152 0.631951 1.44375 0
M  V30 6322 C 598.568 0.297642 1.568 0
M  V30 6323 C 598.768 -1.19916 1.61934 0
M  V30 6324 O 597.824 -1.98324 1.56281 0
M  V30 6325 C 599.137 0.990286 2.83926 0
M  V30 6326 C 600.685 0.968507 2.97639 0
M  V30 6327 C 601.16 1.64163 4.27568 0
M  V30 6328 N 602.651 1.60826 4.34384 0
M  V30 6329 C 603.386 2.09802 5.33639 0
M  V30 6330 N 602.882 2.66973 6.39294 0
M  V30 6331 N 604.675 2.00426 5.25153 0
M  V30 6332 H 596.826 1.60353 1.39286 0
M  V30 6333 H 599.089 0.673142 0.667521 0
M  V30 6334 H 598.795 2.04519 2.8612 0
M  V30 6335 H 598.669 0.528563 3.73478 0
M  V30 6336 H 601.056 -0.0779247 2.94997 0
M  V30 6337 H 601.137 1.46873 2.09433 0
M  V30 6338 H 600.781 2.68752 4.3097 0
M  V30 6339 H 600.711 1.11624 5.14634 0
M  V30 6340 H 603.202 1.19087 3.58646 0
M  V30 6341 H 603.515 3.02074 7.11316 0
M  V30 6342 H 601.86 2.71024 6.39977 0
M  V30 6343 H 605.051 1.55483 4.41523 0
M  V30 6344 H 605.224 2.38906 6.02352 0
M  V30 6345 N 598.631 -1.53133 0.372548 0
M  V30 6346 C 599.908 -1.93704 -0.271693 0
M  V30 6347 C 600.288 -1.30667 -1.65799 0
M  V30 6348 O 599.636 -0.46838 -2.23648 0
M  V30 6349 C 599.846 -3.47576 -0.314903 0
M  V30 6350 C 601.194 -4.20998 -0.551912 0
M  V30 6351 O 602.218 -3.53994 -0.39582 0
M  V30 6352 O 601.077 -5.39748 -0.85639 0
M  V30 6353 H 598.171 -0.810457 -0.164586 0
M  V30 6354 H 600.717 -1.6427 0.425838 0
M  V30 6355 H 599.489 -3.85749 0.656792 0
M  V30 6356 H 599.112 -3.83264 -1.05804 0
M  V30 6357 N 600.109 -0.101901 -1.5727 0
M  V30 6358 C 601.019 0.868647 -2.17926 0
M  V30 6359 C 602.035 1.30527 -1.1506 0
M  V30 6360 O 603.211 1.37178 -1.47459 0
M  V30 6361 C 600.276 2.10727 -2.75309 0
M  V30 6362 C 599.337 1.7242 -3.93154 0
M  V30 6363 C 598.57 2.90377 -4.47791 0
M  V30 6364 O 598.793 4.05305 -4.01353 0
M  V30 6365 O 597.727 2.6845 -5.38719 0
M  V30 6366 H 601.553 0.382544 -3.01281 0
M  V30 6367 H 599.138 0.122812 -1.48894 0
M  V30 6368 H 601.02 2.83303 -3.11958 0
M  V30 6369 H 599.695 2.58376 -1.94996 0
M  V30 6370 H 598.602 0.970039 -3.61305 0
M  V30 6371 H 599.935 1.29528 -4.74851 0
M  V30 6372 N 601.587 1.56661 0.17182 0
M  V30 6373 C 603.003 1.50768 0.52357 0
M  V30 6374 C 603.203 0.806072 1.84675 0
M  V30 6375 O 602.259 0.366233 2.4983 0
M  V30 6376 C 603.572 2.955 0.556793 0
M  V30 6377 C 605.12 3.06303 0.644029 0
M  V30 6378 C 605.595 4.52492 0.708148 0
M  V30 6379 N 607.086 4.56737 0.771051 0
M  V30 6380 C 607.821 5.67196 0.841229 0
M  V30 6381 N 607.317 6.87287 0.872272 0
M  V30 6382 N 609.11 5.55165 0.88021 0
M  V30 6383 H 601.261 2.00679 -0.695817 0
M  V30 6384 H 603.524 0.914219 -0.250814 0
M  V30 6385 H 603.23 3.49986 -0.346774 0
M  V30 6386 H 603.104 3.50119 1.40346 0
M  V30 6387 H 605.491 2.51851 1.53802 0
M  V30 6388 H 605.572 2.5477 -0.229297 0
M  V30 6389 H 605.216 5.07575 -0.181585 0
M  V30 6390 H 605.146 5.01781 1.59761 0
M  V30 6391 H 607.637 3.70274 0.755364 0
M  V30 6392 H 607.95 7.6722 0.92698 0
M  V30 6393 H 606.295 6.89898 0.840557 0
M  V30 6394 H 609.486 4.60263 0.852956 0
M  V30 6395 H 609.659 6.41271 0.931439 0
M  V30 6396 N 603.065 -0.440357 1.51323 0
M  V30 6397 C 604.295 -1.21079 1.67402 0
M  V30 6398 C 604.703 -1.85555 0.369599 0
M  V30 6399 O 604.046 -1.71375 -0.661525 0
M  V30 6400 C 604.108 -2.33839 2.73056 0
M  V30 6401 C 603.772 -1.89755 4.15743 0
M  V30 6402 C 604.769 -1.40268 5.0062 0
M  V30 6403 C 602.454 -1.97539 4.61826 0
M  V30 6404 C 604.448 -0.991474 6.29642 0
M  V30 6405 C 602.135 -1.56029 5.90845 0
M  V30 6406 C 603.133 -1.06915 6.7458 0
M  V30 6407 O 602.821 -0.659933 8.01187 0
M  V30 6408 H 602.553 -0.371133 0.56501 0
M  V30 6409 H 605.107 -0.528409 1.98487 0
M  V30 6410 H 603.337 -3.05345 2.37279 0
M  V30 6411 H 605.026 -2.95713 2.78044 0
M  V30 6412 H 605.792 -1.33652 4.66221 0
M  V30 6413 H 601.671 -2.34713 3.96776 0
M  V30 6414 H 605.215 -0.607425 6.9495 0
M  V30 6415 H 601.112 -1.62315 6.24759 0
M  V30 6416 H 601.88 -0.786052 8.14717 0
M  V30 6417 N 604.543 -1.41418 -0.695603 0
M  V30 6418 C 605.79 -1.40774 -1.45564 0
M  V30 6419 C 606.118 -0.0168604 -1.94493 0
M  V30 6420 O 605.373 0.971259 -1.69897 0
M  V30 6421 C 605.672 -2.36112 -2.68302 0
M  V30 6422 C 605.338 -3.82952 -2.38031 0
M  V30 6423 C 604 -4.22954 -2.29486 0
M  V30 6424 C 606.352 -4.75662 -2.13061 0
M  V30 6425 C 603.68 -5.53674 -1.94067 0
M  V30 6426 C 606.032 -6.06702 -1.79151 0
M  V30 6427 C 604.696 -6.45725 -1.69102 0
M  V30 6428 H 603.966 -0.515128 -0.532658 0
M  V30 6429 H 606.613 -1.74216 -0.795047 0
M  V30 6430 H 604.918 -1.95924 -3.39295 0
M  V30 6431 H 606.615 -2.32887 -3.26442 0
M  V30 6432 H 603.205 -3.5127 -2.45576 0
M  V30 6433 H 607.389 -4.45561 -2.18608 0
M  V30 6434 H 602.645 -5.8279 -1.8484 0
M  V30 6435 H 606.819 -6.78041 -1.5885 0
M  V30 6436 H 604.446 -7.46929 -1.41426 0
M  V30 6437 N 606.021 0.929856 -1.27246 0
M  V30 6438 C 607.268 1.67731 -1.13457 0
M  V30 6439 C 607.596 1.9185 0.319998 0
M  V30 6440 O 606.851 1.50524 1.25064 0
M  V30 6441 C 607.15 3.05116 -1.86115 0
M  V30 6442 C 606.816 3.00715 -3.35978 0
M  V30 6443 C 605.478 2.99222 -3.76855 0
M  V30 6444 C 607.83 2.92168 -4.3161 0
M  V30 6445 C 605.158 2.86962 -5.11732 0
M  V30 6446 C 607.51 2.81449 -5.66542 0
M  V30 6447 C 606.174 2.78305 -6.06715 0
M  V30 6448 H 605.444 0.613772 -0.415168 0
M  V30 6449 H 608.091 1.08456 -1.57827 0
M  V30 6450 H 606.396 3.68083 -1.34246 0
M  V30 6451 H 608.093 3.61822 -1.72876 0
M  V30 6452 H 604.683 3.02664 -3.03468 0
M  V30 6453 H 608.867 2.92421 -4.01003 0
M  V30 6454 H 604.123 2.82913 -5.42006 0
M  V30 6455 H 608.297 2.738 -6.40317 0
M  V30 6456 H 605.924 2.68561 -7.11181 0
M  V30 6457 N 607.499 1.09233 1.13605 0
M  V30 6458 C 608.431 0.687794 2.18637 0
M  V30 6459 C 609.444 -0.26936 1.60556 0
M  V30 6460 O 610.633 -0.0557162 1.78413 0
M  V30 6461 C 607.733 -0.00751901 3.38899 0
M  V30 6462 C 606.906 0.97067 4.26494 0
M  V30 6463 C 605.965 0.309129 5.25291 0
M  V30 6464 O 604.991 0.956149 5.61112 0
M  V30 6465 N 606.193 -0.937555 5.72879 0
M  V30 6466 H 608.958 1.59141 2.53957 0
M  V30 6467 H 606.519 0.979515 1.28907 0
M  V30 6468 H 608.511 -0.461238 4.02063 0
M  V30 6469 H 607.081 -0.813353 3.01833 0
M  V30 6470 H 606.301 1.603 3.60135 0
M  V30 6471 H 607.589 1.63323 4.81875 0
M  V30 6472 H 606.987 -1.48281 5.4592 0
M  V30 6473 H 605.544 -1.33463 6.3799 0
M  V30 6474 N 608.977 -1.30795 0.87923 0
M  V30 6475 C 610.225 -1.95974 0.493809 0
M  V30 6476 C 610.546 -1.69787 -0.959021 0
M  V30 6477 O 609.816 -1.01832 -1.67353 0
M  V30 6478 H 608.396 -0.725083 0.179622 0
M  V30 6479 H 611.058 -1.59432 1.12105 0
M  V30 6480 H 610.154 -3.05058 0.659263 0
M  V30 6481 N 610.455 -0.639598 -1.44038 0
M  V30 6482 C 611.403 0.0723409 -2.32487 0
M  V30 6483 C 612.397 0.827129 -1.47834 0
M  V30 6484 O 613.603 0.73907 -1.64127 0
M  V30 6485 H 609.978 0.0421696 -0.750817 0
M  V30 6486 H 611.949 -0.691593 -2.90275 0
M  V30 6487 C 610.698 1.03452 -3.31953 0
M  V30 6488 H 610.021 0.46315 -3.97108 0
M  V30 6489 H 611.461 1.502 -3.96505 0
M  V30 6490 C 609.92 2.12392 -2.61518 0
M  V30 6491 O 610.45 3.2059 -2.42044 0
M  V30 6492 N 608.656 1.88563 -2.21116 0
M  V30 6493 H 608.203 1.00577 -2.37154 0
M  V30 6494 H 608.161 2.61651 -1.74316 0
M  V30 6495 N 611.933 1.52934 -0.380664 0
M  V30 6496 C 612.865 2.23822 0.493581 0
M  V30 6497 C 613.878 1.25761 1.03383 0
M  V30 6498 O 615.067 1.5189 0.937633 0
M  V30 6499 C 612.167 2.9342 1.69582 0
M  V30 6500 C 611.34 4.18115 1.28445 0
M  V30 6501 C 610.399 4.70788 2.35042 0
M  V30 6502 O 609.425 5.34093 1.96807 0
M  V30 6503 N 610.627 4.49899 3.66839 0
M  V30 6504 H 613.392 2.99484 -0.11371 0
M  V30 6505 H 610.953 1.60577 -0.206587 0
M  V30 6506 H 612.945 3.2556 2.40401 0
M  V30 6507 H 611.515 2.21119 2.20965 0
M  V30 6508 H 610.735 3.92109 0.405503 0
M  V30 6509 H 612.023 4.99152 0.986132 0
M  V30 6510 H 611.421 3.99349 4.0067 0
M  V30 6511 H 609.978 4.86551 4.33718 0
M  V30 6512 N 613.412 0.11024 1.57214 0
M  V30 6513 C 614.642 -0.557025 1.98949 0
M  V30 6514 C 615.05 -1.61317 0.988606 0
M  V30 6515 O 614.393 -1.83679 -0.0279159 0
M  V30 6516 C 614.455 -1.24956 3.37085 0
M  V30 6517 C 614.119 -0.342398 4.55716 0
M  V30 6518 C 615.116 0.415511 5.18237 0
M  V30 6519 C 612.801 -0.256029 5.01647 0
M  V30 6520 C 614.795 1.24761 6.25071 0
M  V30 6521 C 612.482 0.579713 6.08344 0
M  V30 6522 C 613.48 1.33017 6.69922 0
M  V30 6523 O 613.168 2.15205 7.74559 0
M  V30 6524 H 612.9 -0.152792 0.658506 0
M  V30 6525 H 615.454 0.19076 2.04512 0
M  V30 6526 H 613.684 -2.04424 3.2825 0
M  V30 6527 H 615.373 -1.81286 3.63167 0
M  V30 6528 H 616.139 0.358605 4.83672 0
M  V30 6529 H 612.018 -0.829831 4.5347 0
M  V30 6530 H 615.562 1.83386 6.73064 0
M  V30 6531 H 611.459 0.638044 6.42339 0
M  V30 6532 H 612.227 2.08052 7.91617 0
M  V30 6533 N 614.89 -1.56749 -0.16351 0
M  V30 6534 C 616.136 -1.83597 -0.875436 0
M  V30 6535 C 616.491 -0.691907 -1.79528 0
M  V30 6536 O 615.784 0.311193 -1.89056 0
M  V30 6537 C 615.978 -3.14342 -1.70071 0
M  V30 6538 C 615.807 -4.41356 -0.862265 0
M  V30 6539 C 614.577 -5.02467 -0.534299 0
M  V30 6540 C 616.775 -5.1391 -0.200203 0
M  V30 6541 N 614.757 -6.13068 0.31947 0
M  V30 6542 C 616.128 -6.17862 0.514398 0
M  V30 6543 C 618.183 -4.97757 -0.119171 0
M  V30 6544 C 616.886 -7.07412 1.30236 0
M  V30 6545 C 618.912 -5.87756 0.655477 0
M  V30 6546 C 618.274 -6.91178 1.35842 0
M  V30 6547 H 614.373 -0.722702 -0.298708 0
M  V30 6548 H 616.957 -1.94182 -0.141883 0
M  V30 6549 H 615.128 -3.04933 -2.40562 0
M  V30 6550 H 616.86 -3.29156 -2.35453 0
M  V30 6551 H 613.615 -4.65611 -0.866222 0
M  V30 6552 H 614.039 -6.72978 0.736893 0
M  V30 6553 H 618.681 -4.178 -0.648278 0
M  V30 6554 H 616.399 -7.86808 1.84278 0
M  V30 6555 H 619.985 -5.77328 0.719948 0
M  V30 6556 H 618.865 -7.59614 1.94822 0
M  V30 6557 N 616.368 0.432326 -1.51554 0
M  V30 6558 C 617.784 0.769195 -1.39841 0
M  V30 6559 C 617.984 1.95584 -0.484675 0
M  V30 6560 O 617.04 2.52433 0.0582829 0
M  V30 6561 C 618.353 1.04487 -2.81963 0
M  V30 6562 C 619.901 1.149 -2.91148 0
M  V30 6563 C 620.376 1.45758 -4.34187 0
M  V30 6564 N 621.867 1.52671 -4.37317 0
M  V30 6565 C 622.602 1.78129 -5.4503 0
M  V30 6566 N 622.098 2.01345 -6.62897 0
M  V30 6567 N 623.891 1.79953 -5.32516 0
M  V30 6568 H 616.042 -0.349122 -2.09511 0
M  V30 6569 H 618.305 -0.0938113 -0.943347 0
M  V30 6570 H 618.011 0.24557 -3.50842 0
M  V30 6571 H 617.885 1.97119 -3.21596 0
M  V30 6572 H 620.272 1.93891 -2.22464 0
M  V30 6573 H 620.353 0.201568 -2.55005 0
M  V30 6574 H 619.997 0.672917 -5.03423 0
M  V30 6575 H 619.927 2.41715 -4.67848 0
M  V30 6576 H 622.418 1.36612 -3.52343 0
M  V30 6577 H 622.731 2.20155 -7.40778 0
M  V30 6578 H 621.076 1.98657 -6.66003 0
M  V30 6579 H 624.267 1.61337 -4.39418 0
M  V30 6580 H 624.44 1.99455 -6.1654 0
M  V30 6581 N 617.846 1.41785 0.688094 0
M  V30 6582 C 619.076 1.44705 1.47459 0
M  V30 6583 C 619.484 0.052916 1.89126 0
M  V30 6584 O 618.827 -0.939781 1.57841 0
M  V30 6585 C 618.889 2.29935 2.76352 0
M  V30 6586 C 618.553 3.77996 2.56843 0
M  V30 6587 C 619.55 4.69976 2.22304 0
M  V30 6588 C 617.235 4.2212 2.7225 0
M  V30 6589 C 619.229 6.04068 2.03421 0
M  V30 6590 C 616.916 5.56275 2.52985 0
M  V30 6591 C 617.914 6.47065 2.18621 0
M  V30 6592 O 617.602 7.78744 1.9953 0
M  V30 6593 H 617.334 0.494703 0.460701 0
M  V30 6594 H 619.888 1.86802 0.854057 0
M  V30 6595 H 618.118 1.82664 3.40839 0
M  V30 6596 H 619.807 2.24467 3.38186 0
M  V30 6597 H 620.573 4.37175 2.10008 0
M  V30 6598 H 616.452 3.51752 2.97979 0
M  V30 6599 H 619.996 6.74897 1.76523 0
M  V30 6600 H 615.893 5.88653 2.64873 0
M  V30 6601 H 616.661 7.89966 2.14234 0
M  V30 6602 N 619.324 -0.923095 1.27737 0
M  V30 6603 C 620.601 -1.64989 1.05062 0
M  V30 6604 C 620.981 -2.07018 -0.413124 0
M  V30 6605 O 620.329 -1.80797 -1.39731 0
M  V30 6606 C 620.539 -2.84847 2.01652 0
M  V30 6607 C 621.887 -3.56083 2.31279 0
M  V30 6608 O 622.911 -2.94981 1.99662 0
M  V30 6609 O 621.77 -4.66182 2.85196 0
M  V30 6610 H 618.864 -0.723357 0.400853 0
M  V30 6611 H 621.41 -0.973224 1.3902 0
M  V30 6612 H 620.182 -2.50814 3.00347 0
M  V30 6613 H 619.805 -3.60231 1.68284 0
M  V30 6614 N 620.802 -1.09834 -1.13024 0
M  V30 6615 C 622.027 -0.85909 -1.88771 0
M  V30 6616 C 622.452 0.584402 -1.78791 0
M  V30 6617 O 621.81 1.41101 -1.13842 0
M  V30 6618 C 621.858 -1.30427 -3.36186 0
M  V30 6619 O 620.962 -0.465368 -4.09766 0
M  V30 6620 H 620.303 -0.310786 -0.586778 0
M  V30 6621 H 622.833 -1.46355 -1.42973 0
M  V30 6622 H 622.843 -1.2915 -3.8702 0
M  V30 6623 H 621.518 -2.3555 -3.42767 0
M  V30 6624 H 620.095 -0.542814 -3.68928 0
M  V30 6625 N 622.28 1.30327 -0.886154 0
M  V30 6626 C 623.557 1.90922 -0.425217 0
M  V30 6627 C 623.937 1.80533 1.09413 0
M  V30 6628 O 623.285 1.2233 1.92996 0
M  V30 6629 C 623.495 3.36529 -0.924638 0
M  V30 6630 C 624.843 4.13598 -0.960305 0
M  V30 6631 O 625.867 3.45377 -0.871382 0
M  V30 6632 O 624.726 5.35482 -1.09184 0
M  V30 6633 H 621.82 0.81668 -0.130238 0
M  V30 6634 H 624.366 1.38886 -0.975132 0
M  V30 6635 H 623.138 3.38181 -1.96849 0
M  V30 6636 H 622.761 3.96021 -0.353955 0
M  V30 6637 N 623.758 0.647228 1.43697 0
M  V30 6638 C 624.705 -0.0480092 2.3075 0
M  V30 6639 C 625.675 -0.820705 1.44408 0
M  V30 6640 O 626.86 -0.798515 1.73287 0
M  V30 6641 C 624 -1.01259 3.2991 0
M  V30 6642 C 623.113 -0.236629 4.31351 0
M  V30 6643 C 622.248 -1.19447 5.17596 0
M  V30 6644 C 621.287 -0.408595 6.10735 0
M  V30 6645 N 620.424 -1.31772 6.89623 0
M  V30 6646 H 625.264 0.700238 2.89656 0
M  V30 6647 H 622.801 0.357082 1.427 0
M  V30 6648 H 624.759 -1.58538 3.85903 0
M  V30 6649 H 623.389 -1.72778 2.72667 0
M  V30 6650 H 622.441 0.452353 3.77701 0
M  V30 6651 H 623.753 0.374731 4.9739 0
M  V30 6652 H 622.907 -1.83809 5.78186 0
M  V30 6653 H 621.646 -1.83975 4.51669 0
M  V30 6654 H 620.651 0.24841 5.49239 0
M  V30 6655 H 621.876 0.232188 6.78703 0
M  V30 6656 H 619.822 -1.94991 6.2635 0
M  V30 6657 H 619.739 -0.760779 7.52162 0
M  V30 6658 H 621.007 -1.94967 7.54724 0
M  V30 6659 N 625.236 -1.5273 0.388769 0
M  V30 6660 C 626.513 -1.93981 -0.251133 0
M  V30 6661 C 626.893 -1.32418 -1.64404 0
M  V30 6662 O 626.241 -0.492074 -2.23139 0
M  V30 6663 C 626.451 -3.47891 -0.27802 0
M  V30 6664 C 627.799 -4.21559 -0.507229 0
M  V30 6665 O 628.823 -3.54394 -0.358252 0
M  V30 6666 O 627.682 -5.40626 -0.799094 0
M  V30 6667 H 624.776 -0.812157 -0.15598 0
M  V30 6668 H 627.322 -1.63809 0.443237 0
M  V30 6669 H 626.094 -3.8503 0.697669 0
M  V30 6670 H 625.717 -3.84364 -1.01733 0
M  V30 6671 N 626.714 -0.118576 -1.57153 0
M  V30 6672 C 627.646 0.862247 -2.12363 0
M  V30 6673 C 628.659 1.23025 -1.06625 0
M  V30 6674 O 629.848 1.17927 -1.33998 0
M  V30 6675 C 626.948 2.16425 -2.60794 0
M  V30 6676 C 626.121 1.96801 -3.90626 0
M  V30 6677 C 625.18 3.10726 -4.2466 0
M  V30 6678 O 624.206 2.83659 -4.93484 0
M  V30 6679 N 625.408 4.37147 -3.81946 0
M  V30 6680 H 628.173 0.390564 -2.97144 0
M  V30 6681 H 625.734 0.0658591 -1.61766 0
M  V30 6682 H 627.726 2.91633 -2.80593 0
M  V30 6683 H 626.296 2.54943 -1.80895 0
M  V30 6684 H 625.516 1.05787 -3.7974 0
M  V30 6685 H 626.804 1.80993 -4.7552 0
M  V30 6686 H 626.202 4.62014 -3.26435 0
M  V30 6687 H 624.759 5.09229 -4.06853 0
M  V30 6688 N 628.193 1.56834 0.155195 0
M  V30 6689 C 629.156 1.96748 1.17571 0
M  V30 6690 C 630.156 0.853006 1.3631 0
M  V30 6691 O 631.346 1.11978 1.33441 0
M  V30 6692 C 628.478 2.27631 2.53765 0
M  V30 6693 H 629.671 2.88085 0.833498 0
M  V30 6694 H 627.224 1.51141 0.398242 0
M  V30 6695 H 627.959 1.39059 2.92973 0
M  V30 6696 H 627.744 3.0888 2.41527 0
M  V30 6697 H 629.234 2.59377 3.27282 0
M  V30 6698 N 629.671 -0.424282 1.51781 0
M  V30 6699 C 630.601 -1.52305 1.7699 0
M  V30 6700 C 631.582 -1.5839 0.620209 0
M  V30 6701 O 632.767 -1.73908 0.864268 0
M  V30 6702 C 629.897 -2.90271 1.90683 0
M  V30 6703 C 628.851 -2.99043 3.06198 0
M  V30 6704 C 628.177 -4.39116 3.05092 0
M  V30 6705 C 629.477 -2.7192 4.45934 0
M  V30 6706 H 631.171 -1.31461 2.68995 0
M  V30 6707 H 628.717 -0.630985 1.29439 0
M  V30 6708 H 630.67 -3.6711 2.06901 0
M  V30 6709 H 629.394 -3.12376 0.953365 0
M  V30 6710 H 628.053 -2.24646 2.89706 0
M  V30 6711 H 627.701 -4.58207 2.07498 0
M  V30 6712 H 627.401 -4.45912 3.82669 0
M  V30 6713 H 628.925 -5.17911 3.2342 0
M  V30 6714 H 630.339 -3.38487 4.62709 0
M  V30 6715 H 628.736 -2.90111 5.25315 0
M  V30 6716 H 629.806 -1.67445 4.55072 0
M  V30 6717 N 631.149 -1.42148 -0.680565 0
M  V30 6718 C 632.377 -1.45696 -1.46902 0
M  V30 6719 C 632.792 -0.0665858 -1.88683 0
M  V30 6720 O 632.149 0.917436 -1.57764 0
M  V30 6721 C 632.2 -2.37898 -2.72188 0
M  V30 6722 O 631.921 -3.71526 -2.32163 0
M  V30 6723 C 633.422 -2.50407 -3.65802 0
M  V30 6724 H 630.642 -0.495729 -0.45221 0
M  V30 6725 H 633.186 -1.866 -0.836709 0
M  V30 6726 H 631.341 -2.00263 -3.31622 0
M  V30 6727 H 631.755 -4.20849 -3.13027 0
M  V30 6728 H 633.229 -3.19056 -4.50452 0
M  V30 6729 H 633.706 -1.5401 -4.11312 0
M  V30 6730 H 634.312 -2.8874 -3.12265 0
M  V30 6731 N 632.627 0.916307 -1.28225 0
M  V30 6732 C 633.537 2.05165 -1.13775 0
M  V30 6733 C 634.553 1.73879 -0.0649418 0
M  V30 6734 O 635.729 1.99531 -0.273722 0
M  V30 6735 C 632.794 3.37385 -0.798267 0
M  V30 6736 C 631.855 3.82296 -1.95316 0
M  V30 6737 C 631.088 5.08206 -1.62978 0
M  V30 6738 O 631.311 5.6781 -0.542948 0
M  V30 6739 O 630.245 5.48768 -2.47261 0
M  V30 6740 H 634.071 2.20273 -2.09078 0
M  V30 6741 H 631.656 1.0373 -1.07519 0
M  V30 6742 H 633.538 4.16773 -0.62278 0
M  V30 6743 H 632.213 3.23458 0.125139 0
M  V30 6744 H 631.12 3.03746 -2.18378 0
M  V30 6745 H 632.453 4.00782 -2.85718 0
M  V30 6746 N 634.105 1.10431 1.1244 0
M  V30 6747 C 635.382 0.758797 1.80282 0
M  V30 6748 C 635.762 -0.754727 1.97147 0
M  V30 6749 O 635.11 -1.68094 1.54779 0
M  V30 6750 C 635.32 1.50982 3.14651 0
M  V30 6751 C 636.668 1.68232 3.8985 0
M  V30 6752 O 637.692 1.47319 3.24308 0
M  V30 6753 O 636.551 2.02905 5.07437 0
M  V30 6754 H 633.645 0.273756 0.780376 0
M  V30 6755 H 636.191 1.20713 1.19275 0
M  V30 6756 H 634.963 2.53989 2.97666 0
M  V30 6757 H 634.586 1.05435 3.83366 0
M  V30 6758 N 635.583 -1.29855 0.893053 0
M  V30 6759 C 636.493 -2.31661 0.370157 0
M  V30 6760 C 637.509 -1.65677 -0.531723 0
M  V30 6761 O 638.685 -1.9691 -0.422902 0
M  V30 6762 C 635.75 -3.44388 -0.399741 0
M  V30 6763 C 634.811 -4.2598 0.532861 0
M  V30 6764 C 634.044 -5.33324 -0.200388 0
M  V30 6765 O 634.267 -5.52305 -1.42531 0
M  V30 6766 O 633.201 -6.00188 0.453668 0
M  V30 6767 H 637.027 -2.78354 1.2146 0
M  V30 6768 H 634.612 -1.34171 0.657153 0
M  V30 6769 H 636.494 -4.13037 -0.835358 0
M  V30 6770 H 635.169 -2.99815 -1.22035 0
M  V30 6771 H 634.076 -3.59998 1.01746 0
M  V30 6772 H 635.409 -4.74178 1.3197 0
M  V30 6773 N 637.061 -0.65484 -1.43351 0
M  V30 6774 C 637.993 0.0744757 -2.29079 0
M  V30 6775 C 639.006 0.7855 -1.42596 0
M  V30 6776 O 640.195 0.642986 -1.66517 0
M  V30 6777 C 637.295 1.12859 -3.19556 0
M  V30 6778 C 636.468 0.495381 -4.34586 0
M  V30 6779 C 635.527 1.44659 -5.05925 0
M  V30 6780 O 634.553 0.954567 -5.61139 0
M  V30 6781 N 635.755 2.78051 -5.09576 0
M  V30 6782 H 638.52 -0.661346 -2.92312 0
M  V30 6783 H 636.081 -0.497744 -1.54059 0
M  V30 6784 H 638.073 1.76577 -3.64147 0
M  V30 6785 H 636.643 1.76636 -2.57912 0
M  V30 6786 H 635.863 -0.32092 -3.92892 0
M  V30 6787 H 637.151 0.0534203 -5.08772 0
M  V30 6788 H 636.549 3.20584 -4.66093 0
M  V30 6789 H 635.106 3.37068 -5.57878 0
M  V30 6790 N 638.539 1.52521 -0.396863 0
M  V30 6791 C 639.787 2.01274 0.182536 0
M  V30 6792 C 640.108 1.28485 1.46685 0
M  V30 6793 O 639.378 0.407134 1.91623 0
M  V30 6794 H 637.958 0.743671 0.0704442 0
M  V30 6795 H 640.62 1.87547 -0.530289 0
M  V30 6796 H 639.716 3.09687 0.387385 0
M  V30 6797 N 640.017 0.126909 1.57088 0
M  V30 6798 C 640.964 -0.82036 2.15728 0
M  V30 6799 C 641.934 -1.25811 1.08447 0
M  V30 6800 O 643.119 -1.33422 1.36393 0
M  V30 6801 C 640.259 -2.06199 2.76724 0
M  V30 6802 C 639.372 -1.67188 3.98337 0
M  V30 6803 C 638.507 -2.86378 4.47393 0
M  V30 6804 C 637.546 -2.43644 5.61519 0
M  V30 6805 N 636.683 -3.55775 6.05284 0
M  V30 6806 H 641.523 -0.313472 2.96347 0
M  V30 6807 H 639.06 -0.14303 1.46403 0
M  V30 6808 H 641.018 -2.78959 3.10222 0
M  V30 6809 H 639.648 -2.54333 1.98782 0
M  V30 6810 H 638.7 -0.842714 3.70948 0
M  V30 6811 H 640.012 -1.31789 4.81075 0
M  V30 6812 H 639.166 -3.67353 4.82842 0
M  V30 6813 H 637.905 -3.25009 3.63621 0
M  V30 6814 H 636.91 -1.61104 5.25667 0
M  V30 6815 H 638.135 -2.06122 6.47063 0
M  V30 6816 H 636.081 -3.94065 5.24451 0
M  V30 6817 H 635.998 -3.24325 6.82898 0
M  V30 6818 H 637.266 -4.37166 6.45373 0
M  V30 6819 N 641.495 -1.56914 -0.146875 0
M  V30 6820 C 642.72 -1.87881 -0.878386 0
M  V30 6821 C 643.145 -0.715945 -1.73942 0
M  V30 6822 O 642.503 0.334447 -1.78189 0
M  V30 6823 C 642.551 -3.17431 -1.71084 0
M  V30 6824 O 641.655 -3.01374 -2.81509 0
M  V30 6825 H 640.996 -0.617289 -0.244644 0
M  V30 6826 H 643.526 -2.04136 -0.137654 0
M  V30 6827 H 643.536 -3.49455 -2.10582 0
M  V30 6828 H 642.211 -4.01671 -1.07856 0
M  V30 6829 H 640.788 -2.80758 -2.45416 0
M  V30 6830 N 642.974 0.416227 -1.52004 0
M  V30 6831 C 644.204 1.18401 -1.69307 0
M  V30 6832 C 644.612 1.84943 -0.399072 0
M  V30 6833 O 643.955 1.72406 0.634177 0
M  V30 6834 C 644.017 2.29465 -2.76742 0
M  V30 6835 C 643.681 1.83117 -4.18709 0
M  V30 6836 C 644.678 1.32286 -5.02789 0
M  V30 6837 C 642.363 1.90167 -4.64911 0
M  V30 6838 C 644.357 0.891178 -6.31139 0
M  V30 6839 C 642.044 1.4661 -5.93253 0
M  V30 6840 C 643.042 0.961696 -6.76196 0
M  V30 6841 O 642.73 0.532388 -8.02135 0
M  V30 6842 H 642.462 0.362098 -0.570843 0
M  V30 6843 H 645.016 0.496764 -1.99302 0
M  V30 6844 H 643.246 3.01531 -2.42107 0
M  V30 6845 H 644.935 2.91252 -2.82713 0
M  V30 6846 H 645.701 1.26218 -4.68288 0
M  V30 6847 H 641.58 2.28371 -4.00459 0
M  V30 6848 H 645.124 0.496788 -6.95829 0
M  V30 6849 H 641.021 1.52355 -6.27263 0
M  V30 6850 H 641.789 0.656339 -8.15864 0
M  V30 6851 N 644.452 1.42507 0.673017 0
M  V30 6852 C 645.863 1.38347 1.25367 0
M  V30 6853 C 646.214 0.0776327 1.96046 0
M  V30 6854 O 645.339 -0.823571 2.00116 0
M  V30 6855 C 645.934 2.506 2.28002 0
M  V30 6856 C 644.493 2.49767 2.81591 0
M  V30 6857 C 643.64 2.293 1.55938 0
M  V30 6858 H 646.591 1.51695 0.466288 0
M  V30 6859 H 646.612 2.20953 3.09774 0
M  V30 6860 H 646.124 3.45627 1.76532 0
M  V30 6861 H 644.225 1.58563 3.37177 0
M  V30 6862 H 644.338 3.46867 3.30485 0
M  V30 6863 H 642.702 1.77594 1.82572 0
M  V30 6864 H 643.485 3.26385 1.06431 0
M  V30 6865 N 645.93 -0.909495 1.28709 0
M  V30 6866 C 646.877 -2.01245 1.13 0
M  V30 6867 C 647.847 -1.6608 0.0259684 0
M  V30 6868 O 649.032 -1.89835 0.191687 0
M  V30 6869 C 646.172 -3.35644 0.802315 0
M  V30 6870 C 645.285 -3.83653 1.98582 0
M  V30 6871 C 644.42 -5.06582 1.59837 0
M  V30 6872 C 643.459 -5.46934 2.74827 0
M  V30 6873 N 642.596 -6.61053 2.36546 0
M  V30 6874 H 647.436 -2.14013 2.0737 0
M  V30 6875 H 644.973 -1.0482 1.03205 0
M  V30 6876 H 646.931 -4.12963 0.593057 0
M  V30 6877 H 645.561 -3.22631 -0.104457 0
M  V30 6878 H 644.613 -3.02454 2.30708 0
M  V30 6879 H 645.925 -4.09515 2.84779 0
M  V30 6880 H 645.079 -5.91457 1.35143 0
M  V30 6881 H 643.818 -4.82537 0.707753 0
M  V30 6882 H 642.823 -4.60599 3.00215 0
M  V30 6883 H 644.048 -5.72965 3.64538 0
M  V30 6884 H 641.994 -6.3863 1.49959 0
M  V30 6885 H 641.911 -6.86662 3.16277 0
M  V30 6886 H 643.179 -7.49221 2.15146 0
M  V30 6887 N 647.408 -1.11026 -1.11852 0
M  V30 6888 C 648.338 -0.786812 -2.19844 0
M  V30 6889 C 649.319 0.242935 -1.68356 0
M  V30 6890 O 650.504 0.107355 -1.93903 0
M  V30 6891 C 647.634 -0.224516 -3.46574 0
M  V30 6892 C 646.588 -1.18564 -4.1125 0
M  V30 6893 C 645.914 -0.484261 -5.32503 0
M  V30 6894 C 647.214 -2.53465 -4.56676 0
M  V30 6895 H 648.908 -1.68978 -2.47158 0
M  V30 6896 H 646.454 -0.813906 -1.18792 0
M  V30 6897 H 648.407 0.0139435 -4.21398 0
M  V30 6898 H 647.131 0.713722 -3.18706 0
M  V30 6899 H 645.79 -1.40966 -3.38414 0
M  V30 6900 H 645.438 0.458646 -5.00905 0
M  V30 6901 H 645.138 -1.12526 -5.76725 0
M  V30 6902 H 646.662 -0.254492 -6.10069 0
M  V30 6903 H 648.076 -2.35177 -5.22843 0
M  V30 6904 H 646.473 -3.13507 -5.11697 0
M  V30 6905 H 647.543 -3.13008 -3.70343 0
M  V30 6906 N 648.886 1.2938 -0.899927 0
M  V30 6907 C 650.135 1.9483 -0.521937 0
M  V30 6908 C 650.448 1.71725 0.936473 0
M  V30 6909 O 651.654 2.31282 1.42199 0
M  V30 6910 C 650.11 3.48911 -0.88255 0
M  V30 6911 C 649.718 3.80815 -2.35974 0
M  V30 6912 C 651.462 4.20595 -0.57448 0
M  V30 6913 C 649.369 5.28142 -2.66121 0
M  V30 6914 H 648.299 0.729285 -0.191468 0
M  V30 6915 H 650.95 1.47103 -1.09695 0
M  V30 6916 H 649.332 3.95293 -0.236459 0
M  V30 6917 H 650.506 3.45291 -3.05141 0
M  V30 6918 H 648.821 3.22271 -2.63686 0
M  V30 6919 H 651.418 5.29031 -0.776556 0
M  V30 6920 H 651.761 4.13442 0.487005 0
M  V30 6921 H 652.294 3.79945 -1.17842 0
M  V30 6922 H 649.033 5.4036 -3.71068 0
M  V30 6923 H 648.553 5.64913 -2.01578 0
M  V30 6924 H 650.232 5.95738 -2.52399 0
M  V30 6925 N 650.364 0.662433 1.43002 0
M  V30 6926 C 651.589 0.186003 2.06564 0
M  V30 6927 C 652.014 -1.14314 1.49379 0
M  V30 6928 O 651.372 -1.70824 0.607346 0
M  V30 6929 C 651.42 0.118269 3.60406 0
M  V30 6930 O 650.524 -0.916859 4.02079 0
M  V30 6931 H 649.865 0.0990981 0.656563 0
M  V30 6932 H 652.395 0.907958 1.8335 0
M  V30 6933 H 652.405 -0.0619981 4.07953 0
M  V30 6934 H 651.08 1.08849 4.01403 0
M  V30 6935 H 649.657 -0.708635 3.66105 0
M  V30 6936 N 651.842 -1.52309 0.404946 0
M  V30 6937 C 652.752 -2.30634 -0.429555 0
M  V30 6938 C 653.768 -1.38187 -1.05737 0
M  V30 6939 O 654.944 -1.71261 -1.05979 0
M  V30 6940 C 652.009 -3.10947 -1.53339 0
M  V30 6941 C 651.07 -4.19126 -0.929065 0
M  V30 6942 C 650.303 -4.95601 -1.9803 0
M  V30 6943 O 650.526 -4.72331 -3.1978 0
M  V30 6944 O 649.46 -5.80551 -1.58886 0
M  V30 6945 H 653.286 -3.0298 0.208963 0
M  V30 6946 H 650.871 -1.4845 0.168255 0
M  V30 6947 H 652.753 -3.60974 -2.1743 0
M  V30 6948 H 651.428 -2.41399 -2.15658 0
M  V30 6949 H 650.335 -3.73257 -0.250982 0
M  V30 6950 H 651.668 -4.90955 -0.349855 0
M  V30 6951 N 653.32 -0.135238 -1.57019 0
M  V30 6952 C 654.568 0.51777 -1.95355 0
M  V30 6953 C 654.889 1.6617 -1.02042 0
M  V30 6954 O 654.159 1.95738 -0.0797343 0
M  V30 6955 H 652.739 0.194264 -0.721298 0
M  V30 6956 H 655.401 -0.207983 -1.93787 0
M  V30 6957 H 654.497 0.901675 -2.98791 0
M  V30 6958 N 654.798 1.5699 0.138552 0
M  V30 6959 C 656.045 1.83809 0.849732 0
M  V30 6960 C 656.373 0.717409 1.80786 0
M  V30 6961 O 655.628 -0.292897 1.93496 0
M  V30 6962 C 655.927 3.17007 1.65049 0
M  V30 6963 C 655.593 4.43037 0.838398 0
M  V30 6964 C 654.255 4.77262 0.614385 0
M  V30 6965 C 656.607 5.20495 0.271044 0
M  V30 6966 C 653.935 5.864 -0.187552 0
M  V30 6967 C 656.287 6.30476 -0.517979 0
M  V30 6968 C 654.951 6.63245 -0.75249 0
M  V30 6969 H 654.221 0.672605 0.310939 0
M  V30 6970 H 656.868 1.91166 0.112971 0
M  V30 6971 H 655.173 3.05138 2.4576 0
M  V30 6972 H 656.87 3.34975 2.20437 0
M  V30 6973 H 653.46 4.16211 1.02307 0
M  V30 6974 H 657.644 4.94422 0.431371 0
M  V30 6975 H 652.9 6.10226 -0.378659 0
M  V30 6976 H 657.074 6.89686 -0.964694 0
M  V30 6977 H 654.701 7.47648 -1.37573 0
M  V30 6978 N 656.276 -0.40816 1.52223 0
M  V30 6979 C 657.687 -0.986929 1.58482 0
M  V30 6980 C 658.038 -1.91521 0.425917 0
M  V30 6981 O 657.163 -2.11593 -0.453593 0
M  V30 6982 C 657.758 -1.7967 2.87235 0
M  V30 6983 C 656.317 -2.32549 2.9597 0
M  V30 6984 C 655.464 -1.12558 2.53428 0
M  V30 6985 H 658.415 -0.188362 1.57578 0
M  V30 6986 H 658.436 -2.65417 2.72642 0
M  V30 6987 H 657.948 -1.12082 3.71563 0
M  V30 6988 H 656.049 -3.03505 2.16137 0
M  V30 6989 H 656.162 -2.63348 4.00231 0
M  V30 6990 H 654.526 -1.47984 2.07299 0
M  V30 6991 H 655.309 -0.465351 3.40131 0
M  V30 6992 N 657.755 -1.42862 -0.66545 0
M  V30 6993 C 659.003 -1.43546 -1.42264 0
M  V30 6994 C 659.324 -0.0563116 -1.94919 0
M  V30 6995 O 658.594 0.906568 -1.73661 0
M  V30 6996 H 657.174 -0.528464 -0.527953 0
M  V30 6997 H 659.836 -1.78363 -0.785665 0
M  V30 6998 H 658.932 -2.14079 -2.27105 0
M  V30 6999 N 659.233 0.902656 -1.29189 0
M  V30 7000 C 660.482 1.6475 -1.16362 0
M  V30 7001 C 660.795 1.93517 0.284682 0
M  V30 7002 O 662.001 2.66192 0.534229 0
M  V30 7003 C 660.457 2.96848 -2.03493 0
M  V30 7004 C 660.065 2.75687 -3.5313 0
M  V30 7005 C 661.809 3.74762 -1.99383 0
M  V30 7006 C 659.716 4.03492 -4.32375 0
M  V30 7007 H 658.646 0.618041 -0.431904 0
M  V30 7008 H 661.297 1.0008 -1.53806 0
M  V30 7009 H 659.679 3.62715 -1.58916 0
M  V30 7010 H 660.853 2.18431 -4.05739 0
M  V30 7011 H 659.168 2.11171 -3.58881 0
M  V30 7012 H 661.765 4.69515 -2.5585 0
M  V30 7013 H 662.108 4.04767 -0.973123 0
M  V30 7014 H 662.641 3.15732 -2.41988 0
M  V30 7015 H 659.38 3.78656 -5.3507 0
M  V30 7016 H 658.9 4.60318 -3.84535 0
M  V30 7017 H 660.579 4.71662 -4.42881 0
M  V30 7018 N 660.711 1.11618 1.11262 0
M  V30 7019 C 662.122 0.881942 1.64556 0
M  V30 7020 C 662.473 -0.585442 1.87262 0
M  V30 7021 O 661.598 -1.44795 1.60821 0
M  V30 7022 C 662.193 1.59446 2.98935 0
M  V30 7023 C 660.752 1.40661 3.4913 0
M  V30 7024 C 659.899 1.63593 2.23903 0
M  V30 7025 H 662.85 1.27217 0.94877 0
M  V30 7026 H 662.871 1.04054 3.65996 0
M  V30 7027 H 662.383 2.66241 2.82378 0
M  V30 7028 H 660.484 0.360835 3.70849 0
M  V30 7029 H 660.597 2.15693 4.27801 0
M  V30 7030 H 658.961 1.05944 2.3162 0
M  V30 7031 H 659.744 2.71666 2.09886 0
M  V30 7032 N 662.189 -1.289 0.906776 0
M  V30 7033 C 663.414 -1.99939 0.551303 0
M  V30 7034 C 663.839 -1.67366 -0.858496 0
M  V30 7035 O 663.197 -0.902176 -1.57259 0
M  V30 7036 C 663.245 -3.52523 0.758937 0
M  V30 7037 O 662.349 -4.11983 -0.185308 0
M  V30 7038 H 661.69 -0.628376 0.214568 0
M  V30 7039 H 664.22 -1.64225 1.2203 0
M  V30 7040 H 664.23 -4.02522 0.666329 0
M  V30 7041 H 662.905 -3.75566 1.78671 0
M  V30 7042 H 661.482 -3.72873 -0.0445577 0
M  V30 7043 N 663.667 -0.670007 -1.42649 0
M  V30 7044 C 665.078 -0.268118 -1.84765 0
M  V30 7045 C 665.429 1.18877 -1.56086 0
M  V30 7046 O 664.554 1.90947 -1.01825 0
M  V30 7047 C 665.149 -0.47984 -3.35385 0
M  V30 7048 C 663.708 -0.132116 -3.76168 0
M  V30 7049 C 662.855 -0.774611 -2.66261 0
M  V30 7050 H 665.806 -0.872509 -1.32563 0
M  V30 7051 H 665.827 0.269522 -3.79544 0
M  V30 7052 H 665.339 -1.54026 -3.56227 0
M  V30 7053 H 663.44 0.92505 -3.60934 0
M  V30 7054 H 663.553 -0.569294 -4.75706 0
M  V30 7055 H 661.917 -0.206353 -2.53863 0
M  V30 7056 H 662.7 -1.83839 -2.89928 0
M  V30 7057 N 665.145 1.52092 -0.413018 0
M  V30 7058 C 666.075 2.30021 0.401567 0
M  V30 7059 C 667.056 1.34395 1.04269 0
M  V30 7060 O 668.241 1.63304 1.05097 0
M  V30 7061 C 665.371 3.12447 1.51638 0
M  V30 7062 C 664.325 4.16153 1.00005 0
M  V30 7063 C 663.651 4.86948 2.20875 0
M  V30 7064 C 664.951 5.22275 0.0513757 0
M  V30 7065 H 666.645 2.98365 -0.248704 0
M  V30 7066 H 664.191 1.4349 -0.121052 0
M  V30 7067 H 666.144 3.65733 2.09326 0
M  V30 7068 H 664.868 2.41879 2.19458 0
M  V30 7069 H 663.527 3.63882 0.445549 0
M  V30 7070 H 663.175 4.12905 2.8726 0
M  V30 7071 H 662.875 5.57057 1.86978 0
M  V30 7072 H 664.399 5.43048 2.79162 0
M  V30 7073 H 665.813 5.70778 0.537176 0
M  V30 7074 H 664.21 5.9977 -0.198977 0
M  V30 7075 H 665.28 4.76611 -0.892736 0
M  V30 7076 N 666.623 0.143563 1.56945 0
M  V30 7077 C 667.9 -0.553285 1.87612 0
M  V30 7078 C 668.28 -1.83195 1.04894 0
M  V30 7079 O 667.628 -2.28102 0.134773 0
M  V30 7080 C 667.838 -0.822055 3.3918 0
M  V30 7081 C 669.186 -1.16435 4.08324 0
M  V30 7082 O 670.21 -0.911522 3.4434 0
M  V30 7083 O 669.069 -1.63996 5.21313 0
M  V30 7084 H 666.163 -0.281851 0.777489 0
M  V30 7085 H 668.709 0.179916 1.68744 0
M  V30 7086 H 667.481 0.0830265 3.91212 0
M  V30 7087 H 667.104 -1.60956 3.63564 0
M  V30 7088 N 668.101 -1.57061 -0.130224 0
M  V30 7089 C 669.329 -1.88432 -0.854456 0
M  V30 7090 C 669.744 -0.733608 -1.73964 0
M  V30 7091 O 669.101 0.296029 -1.80083 0
M  V30 7092 C 669.152 -3.1918 -1.69724 0
M  V30 7093 O 668.873 -4.2982 -0.847705 0
M  V30 7094 C 670.374 -3.6418 -2.5276 0
M  V30 7095 H 667.594 -0.624193 -0.246221 0
M  V30 7096 H 670.138 -2.04159 -0.11798 0
M  V30 7097 H 668.293 -3.05156 -2.3866 0
M  V30 7098 H 668.707 -5.04689 -1.42792 0
M  V30 7099 H 670.181 -4.58457 -3.07443 0
M  V30 7100 H 670.658 -2.90285 -3.29592 0
M  V30 7101 H 671.264 -3.80954 -1.89087 0
M  V30 7102 N 669.579 0.400081 -1.52437 0
M  V30 7103 C 670.542 1.4707 -1.75793 0
M  V30 7104 C 671.542 1.48036 -0.627856 0
M  V30 7105 O 672.732 1.49401 -0.895817 0
M  V30 7106 C 669.864 2.86427 -1.84858 0
M  V30 7107 H 671.057 1.27649 -2.71377 0
M  V30 7108 H 668.61 0.631141 -1.42991 0
M  V30 7109 H 669.345 3.11207 -0.912194 0
M  V30 7110 H 669.13 2.87128 -2.6702 0
M  V30 7111 H 670.62 3.64023 -2.04638 0
M  V30 7112 N 671.057 1.43213 0.657864 0
M  V30 7113 C 672.304 1.44584 1.41781 0
M  V30 7114 C 672.632 0.0684208 1.9438 0
M  V30 7115 O 671.887 -0.925872 1.72413 0
M  V30 7116 C 672.186 2.43143 2.61947 0
M  V30 7117 C 671.852 3.89128 2.27794 0
M  V30 7118 C 670.514 4.28889 2.18191 0
M  V30 7119 C 672.866 4.81144 2.00375 0
M  V30 7120 C 670.194 5.58625 1.79319 0
M  V30 7121 C 672.546 6.11239 1.63003 0
M  V30 7122 C 671.21 6.49981 1.51922 0
M  V30 7123 H 670.48 0.529069 0.518813 0
M  V30 7124 H 673.127 1.76263 0.748577 0
M  V30 7125 H 671.432 2.04851 3.33981 0
M  V30 7126 H 673.129 2.4146 3.20153 0
M  V30 7127 H 669.719 3.57657 2.36176 0
M  V30 7128 H 673.903 4.512 2.06718 0
M  V30 7129 H 669.159 5.87486 1.69323 0
M  V30 7130 H 673.333 6.82014 1.40817 0
M  V30 7131 H 670.96 7.50416 1.21572 0
M  V30 7132 N 672.536 -0.895792 1.29666 0
M  V30 7133 C 673.766 -1.67757 1.20586 0
M  V30 7134 C 674.174 -1.87729 -0.235432 0
M  V30 7135 O 673.517 -1.41706 -1.16898 0
M  V30 7136 C 673.579 -3.08117 1.85215 0
M  V30 7137 C 673.243 -3.1136 3.3452 0
M  V30 7138 C 674.24 -2.91217 4.30684 0
M  V30 7139 C 671.925 -3.33302 3.75786 0
M  V30 7140 C 673.919 -2.92955 5.66089 0
M  V30 7141 C 671.606 -3.3467 5.11311 0
M  V30 7142 C 672.604 -3.14519 6.06273 0
M  V30 7143 O 672.292 -3.15684 7.39323 0
M  V30 7144 H 672.024 -0.530601 0.418854 0
M  V30 7145 H 674.578 -1.12831 1.71634 0
M  V30 7146 H 672.808 -3.64661 1.28683 0
M  V30 7147 H 674.497 -3.68399 1.70403 0
M  V30 7148 H 675.263 -2.74074 4.00136 0
M  V30 7149 H 671.142 -3.48025 3.02324 0
M  V30 7150 H 674.686 -2.77145 6.40185 0
M  V30 7151 H 670.583 -3.51346 5.41504 0
M  V30 7152 H 671.351 -3.31924 7.48177 0
M  V30 7153 N 674.014 -1.12206 -1.10668 0
M  V30 7154 C 675.291 -0.787382 -1.79052 0
M  V30 7155 C 675.671 0.723267 -1.98323 0
M  V30 7156 O 675.019 1.6561 -1.57434 0
M  V30 7157 C 675.229 -1.55968 -3.1221 0
M  V30 7158 C 676.577 -1.74413 -3.87125 0
M  V30 7159 O 677.601 -1.5246 -3.21923 0
M  V30 7160 O 676.46 -2.10952 -5.04144 0
M  V30 7161 H 673.554 -0.286137 -0.775922 0
M  V30 7162 H 676.1 -1.22595 -1.1734 0
M  V30 7163 H 674.872 -2.58692 -2.93588 0
M  V30 7164 H 674.495 -1.1152 -3.8164 0
M  V30 7165 N 675.492 1.28418 -0.913599 0
M  V30 7166 C 676.908 1.47411 -0.611728 0
M  V30 7167 C 677.108 1.83018 0.843008 0
M  V30 7168 O 676.164 1.93505 1.6221 0
M  V30 7169 C 677.477 2.57703 -1.5495 0
M  V30 7170 C 679.025 2.71572 -1.5562 0
M  V30 7171 C 679.5 3.85008 -2.48058 0
M  V30 7172 N 680.991 3.92361 -2.46184 0
M  V30 7173 C 681.726 4.79516 -3.14407 0
M  V30 7174 N 681.222 5.71262 -3.91958 0
M  V30 7175 N 683.015 4.73125 -3.03495 0
M  V30 7176 H 675.166 1.03585 -1.85429 0
M  V30 7177 H 677.429 0.515907 -0.795326 0
M  V30 7178 H 677.135 2.38298 -2.58663 0
M  V30 7179 H 677.009 3.54801 -1.28048 0
M  V30 7180 H 679.396 2.90366 -0.526441 0
M  V30 7181 H 679.477 1.75006 -1.86565 0
M  V30 7182 H 679.121 3.66969 -3.51136 0
M  V30 7183 H 679.051 4.80971 -2.14416 0
M  V30 7184 H 681.542 3.26749 -1.89851 0
M  V30 7185 H 681.855 6.34593 -4.41034 0
M  V30 7186 H 680.2 5.71103 -3.96063 0
M  V30 7187 H 683.391 4.00442 -2.42413 0
M  V30 7188 H 683.564 5.40834 -3.56935 0
M  V30 7189 N 676.97 0.677563 1.42291 0
M  V30 7190 C 678.386 0.347376 1.55774 0
M  V30 7191 C 678.586 -1.14703 1.65667 0
M  V30 7192 O 677.642 -1.93252 1.62512 0
M  V30 7193 C 678.955 1.08011 2.80631 0
M  V30 7194 C 680.503 1.06271 2.94407 0
M  V30 7195 C 680.978 1.77683 4.22129 0
M  V30 7196 N 682.469 1.74564 4.29047 0
M  V30 7197 C 683.204 2.26673 5.26694 0
M  V30 7198 N 682.7 2.87176 6.30477 0
M  V30 7199 N 684.493 2.17032 5.18511 0
M  V30 7200 H 676.644 1.64703 1.34114 0
M  V30 7201 H 678.907 0.694038 0.645768 0
M  V30 7202 H 678.613 2.13518 2.79469 0
M  V30 7203 H 678.487 0.647115 3.71608 0
M  V30 7204 H 680.874 0.0159658 2.95096 0
M  V30 7205 H 680.955 1.53461 2.04654 0
M  V30 7206 H 680.599 2.82327 4.22201 0
M  V30 7207 H 680.529 1.2794 5.10822 0
M  V30 7208 H 683.02 1.30436 3.54676 0
M  V30 7209 H 683.333 3.24551 7.01346 0
M  V30 7210 H 681.678 2.91247 6.31031 0
M  V30 7211 H 684.869 1.69451 4.36353 0
M  V30 7212 H 685.042 2.57948 5.94446 0
M  V30 7213 N 678.448 -1.51871 0.421078 0
M  V30 7214 C 679.38 -2.25052 -0.434065 0
M  V30 7215 C 680.393 -1.28458 -1.00013 0
M  V30 7216 O 681.582 -1.54323 -0.897033 0
M  V30 7217 C 678.682 -2.97813 -1.61743 0
M  V30 7218 C 677.855 -4.21374 -1.17315 0
M  V30 7219 C 676.914 -4.76854 -2.22478 0
M  V30 7220 O 675.94 -5.39123 -1.82577 0
M  V30 7221 N 677.142 -4.59467 -3.54782 0
M  V30 7222 H 679.907 -2.99077 0.193073 0
M  V30 7223 H 677.468 -1.59972 0.249088 0
M  V30 7224 H 679.46 -3.3182 -2.31685 0
M  V30 7225 H 678.03 -2.26899 -2.15024 0
M  V30 7226 H 677.25 -3.93046 -0.3014 0
M  V30 7227 H 678.538 -5.01591 -0.853444 0
M  V30 7228 H 677.936 -4.09832 -3.89941 0
M  V30 7229 H 676.493 -4.9788 -4.20665 0
M  V30 7230 N 679.926 -0.151884 -1.56866 0
M  V30 7231 C 680.873 0.785936 -2.17006 0
M  V30 7232 C 681.843 1.2407 -1.10435 0
M  V30 7233 O 683.028 1.31235 -1.38499 0
M  V30 7234 C 680.168 2.01771 -2.79969 0
M  V30 7235 C 679.281 1.6083 -4.00946 0
M  V30 7236 C 678.416 2.79224 -4.51893 0
M  V30 7237 C 677.455 2.3468 -5.65324 0
M  V30 7238 N 676.592 3.461 -6.10867 0
M  V30 7239 H 681.432 0.266286 -2.96808 0
M  V30 7240 H 678.969 0.11972 -1.46612 0
M  V30 7241 H 680.927 2.73989 -3.14621 0
M  V30 7242 H 679.557 2.51139 -2.02803 0
M  V30 7243 H 678.609 0.783592 -3.72242 0
M  V30 7244 H 679.921 1.24119 -4.83111 0
M  V30 7245 H 679.075 3.59625 -4.88625 0
M  V30 7246 H 677.814 3.19183 -3.68746 0
M  V30 7247 H 676.819 1.52721 -5.28163 0
M  V30 7248 H 678.044 1.95801 -6.5026 0
M  V30 7249 H 675.99 3.85671 -5.30654 0
M  V30 7250 H 675.907 3.1342 -6.87971 0
M  V30 7251 H 677.175 4.26844 -6.52246 0
M  V30 7252 N 681.404 1.57128 0.121893 0
M  V30 7253 C 682.334 2.03165 1.15092 0
M  V30 7254 C 683.315 0.915587 1.43356 0
M  V30 7255 O 684.5 1.1851 1.53847 0
M  V30 7256 C 681.63 2.43352 2.47784 0
M  V30 7257 C 680.584 3.58376 2.33989 0
M  V30 7258 C 679.91 3.84454 3.71617 0
M  V30 7259 C 681.21 4.90199 1.80283 0
M  V30 7260 H 682.904 2.89382 0.768023 0
M  V30 7261 H 680.45 1.39218 0.367998 0
M  V30 7262 H 682.403 2.74163 3.20019 0
M  V30 7263 H 681.127 1.54103 2.87958 0
M  V30 7264 H 679.786 3.2777 1.64202 0
M  V30 7265 H 679.434 2.92414 4.09271 0
M  V30 7266 H 679.134 4.61877 3.6324 0
M  V30 7267 H 680.658 4.17714 4.45362 0
M  V30 7268 H 682.072 5.19565 2.42333 0
M  V30 7269 H 680.469 5.71601 1.82735 0
M  V30 7270 H 681.539 4.78904 0.760184 0
M  V30 7271 N 682.882 -0.391992 1.52647 0
M  V30 7272 C 684.131 -1.13449 1.6677 0
M  V30 7273 C 684.444 -1.91203 0.412399 0
M  V30 7274 O 685.65 -2.68013 0.433707 0
M  V30 7275 C 684.106 -2.06577 2.9471 0
M  V30 7276 C 683.714 -1.3426 4.27409 0
M  V30 7277 C 685.458 -2.80981 3.18198 0
M  V30 7278 C 683.365 -2.26136 5.46458 0
M  V30 7279 H 682.295 -0.427211 0.621295 0
M  V30 7280 H 684.946 -0.397522 1.79142 0
M  V30 7281 H 683.328 -2.83898 2.76076 0
M  V30 7282 H 684.502 -0.621856 4.56585 0
M  V30 7283 H 682.817 -0.718279 4.10158 0
M  V30 7284 H 685.414 -3.49898 4.04321 0
M  V30 7285 H 685.757 -3.44891 2.33144 0
M  V30 7286 H 686.29 -2.10754 3.37383 0
M  V30 7287 H 683.029 -1.66846 6.33911 0
M  V30 7288 H 682.549 -2.96134 5.21598 0
M  V30 7289 H 684.228 -2.86286 5.80215 0
M  V30 7290 N 684.36 -1.4356 -0.65026 0
M  V30 7291 C 685.59 -1.48563 -1.4357 0
M  V30 7292 C 685.998 -0.103041 -1.88919 0
M  V30 7293 O 685.341 0.897602 -1.60277 0
M  V30 7294 C 685.403 -2.37181 -2.70158 0
M  V30 7295 C 685.067 -3.84673 -2.4673 0
M  V30 7296 C 686.064 -4.75704 -2.09765 0
M  V30 7297 C 683.749 -4.29189 -2.60963 0
M  V30 7298 C 685.743 -6.09249 -1.87334 0
M  V30 7299 C 683.43 -5.62787 -2.38147 0
M  V30 7300 C 684.428 -6.52634 -2.01389 0
M  V30 7301 O 684.116 -7.83761 -1.78813 0
M  V30 7302 H 683.848 -0.506743 -0.447423 0
M  V30 7303 H 686.402 -1.89001 -0.80423 0
M  V30 7304 H 684.632 -1.91636 -3.35876 0
M  V30 7305 H 686.321 -2.33354 -3.32116 0
M  V30 7306 H 687.087 -4.42589 -1.98343 0
M  V30 7307 H 682.966 -3.59529 -2.88548 0
M  V30 7308 H 686.51 -6.7934 -1.58567 0
M  V30 7309 H 682.407 -5.95469 -2.49173 0
M  V30 7310 H 683.175 -7.95368 -1.93214 0
M  V30 7311 N 685.838 0.888903 -1.30139 0
M  V30 7312 C 687.085 1.64037 -1.18736 0
M  V30 7313 C 687.413 1.92771 0.258801 0
M  V30 7314 O 686.668 1.54427 1.20212 0
M  V30 7315 C 686.967 2.99041 -1.95728 0
M  V30 7316 C 686.633 2.89874 -3.45375 0
M  V30 7317 C 685.295 2.87082 -3.86183 0
M  V30 7318 C 687.647 2.78289 -4.40687 0
M  V30 7319 C 684.975 2.70536 -5.20603 0
M  V30 7320 C 687.327 2.63282 -5.75209 0
M  V30 7321 C 685.991 2.58861 -6.15262 0
M  V30 7322 H 685.261 0.600253 -0.434485 0
M  V30 7323 H 687.908 1.0338 -1.61198 0
M  V30 7324 H 686.213 3.63626 -1.45888 0
M  V30 7325 H 687.91 3.56139 -1.843 0
M  V30 7326 H 684.5 2.92856 -3.12943 0
M  V30 7327 H 688.684 2.79516 -4.10103 0
M  V30 7328 H 683.94 2.65526 -5.50732 0
M  V30 7329 H 688.114 2.5329 -6.48704 0
M  V30 7330 H 685.741 2.45799 -7.19366 0
M  V30 7331 N 687.317 1.12792 1.10072 0
M  V30 7332 C 688.564 0.885545 1.82111 0
M  V30 7333 C 688.892 -0.588519 1.85383 0
M  V30 7334 O 688.147 -1.45124 1.31292 0
M  V30 7335 C 688.446 1.4102 3.28403 0
M  V30 7336 C 688.112 2.89995 3.45273 0
M  V30 7337 C 686.774 3.30671 3.49585 0
M  V30 7338 C 689.126 3.85874 3.50358 0
M  V30 7339 C 686.454 4.65925 3.56553 0
M  V30 7340 C 688.806 5.20963 3.58859 0
M  V30 7341 C 687.47 5.61177 3.61437 0
M  V30 7342 H 686.74 0.324044 0.666391 0
M  V30 7343 H 689.387 1.40874 1.29718 0
M  V30 7344 H 687.692 0.807551 3.83387 0
M  V30 7345 H 689.389 1.19882 3.82661 0
M  V30 7346 H 685.979 2.57537 3.42597 0
M  V30 7347 H 690.163 3.5554 3.46273 0
M  V30 7348 H 685.419 4.96468 3.56833 0
M  V30 7349 H 689.593 5.95079 3.61738 0
M  V30 7350 H 687.22 6.6597 3.66589 0
M  V30 7351 N 688.795 -1.27931 0.920396 0
M  V30 7352 C 689.742 -2.27085 0.412422 0
M  V30 7353 C 690.712 -1.57858 -0.516725 0
M  V30 7354 O 691.897 -1.85717 -0.437475 0
M  V30 7355 C 689.037 -3.43466 -0.335399 0
M  V30 7356 C 688.15 -4.27425 0.627017 0
M  V30 7357 C 687.285 -5.31016 -0.139916 0
M  V30 7358 C 686.324 -6.06641 0.815683 0
M  V30 7359 N 685.461 -7.02052 0.0818439 0
M  V30 7360 H 690.301 -2.69913 1.26298 0
M  V30 7361 H 687.838 -1.32732 0.634076 0
M  V30 7362 H 689.796 -4.09744 -0.785226 0
M  V30 7363 H 688.426 -3.01611 -1.15025 0
M  V30 7364 H 687.478 -3.6113 1.19537 0
M  V30 7365 H 688.79 -4.79969 1.35763 0
M  V30 7366 H 687.944 -6.03208 -0.649998 0
M  V30 7367 H 686.683 -4.79257 -0.903543 0
M  V30 7368 H 685.688 -5.33294 1.33708 0
M  V30 7369 H 686.913 -6.60489 1.57897 0
M  V30 7370 H 684.859 -6.52634 -0.663671 0
M  V30 7371 H 684.776 -7.52249 0.752163 0
M  V30 7372 H 686.044 -7.78432 -0.407825 0
M  V30 7373 N 690.273 -0.685099 -1.4193 0
M  V30 7374 C 691.183 -0.013404 -2.34596 0
M  V30 7375 C 692.199 0.777589 -1.55658 0
M  V30 7376 O 693.375 0.717553 -1.88184 0
M  V30 7377 C 690.44 0.919031 -3.34297 0
M  V30 7378 C 689.501 0.121417 -4.29128 0
M  V30 7379 C 688.734 1.00944 -5.24067 0
M  V30 7380 O 688.957 2.24898 -5.24192 0
M  V30 7381 O 687.891 0.464724 -6.00103 0
M  V30 7382 H 691.717 -0.776978 -2.93593 0
M  V30 7383 H 689.302 -0.445379 -1.42607 0
M  V30 7384 H 691.184 1.45402 -3.9552 0
M  V30 7385 H 689.859 1.66228 -2.77759 0
M  V30 7386 H 688.766 -0.45792 -3.71287 0
M  V30 7387 H 690.099 -0.582937 -4.88736 0
M  V30 7388 N 691.751 1.51645 -0.429126 0
M  V30 7389 C 692.976 2.06917 0.141399 0
M  V30 7390 C 693.401 1.29527 1.36398 0
M  V30 7391 O 692.759 0.33094 1.78254 0
M  V30 7392 C 692.807 3.57776 0.4504 0
M  V30 7393 O 691.911 3.82639 1.53821 0
M  V30 7394 H 691.252 0.663978 0.0054647 0
M  V30 7395 H 693.782 1.95355 -0.608093 0
M  V30 7396 H 693.792 4.01894 0.703249 0
M  V30 7397 H 692.467 4.13532 -0.443213 0
M  V30 7398 H 691.044 3.5039 1.27597 0
M  V30 7399 N 693.229 0.160201 1.56784 0
M  V30 7400 C 694.159 -0.770264 2.2043 0
M  V30 7401 C 695.14 -1.24736 1.15651 0
M  V30 7402 O 696.325 -1.30253 1.44041 0
M  V30 7403 C 693.455 -2.00427 2.83631 0
M  V30 7404 C 692.409 -1.66345 3.94352 0
M  V30 7405 C 691.735 -2.97119 4.4455 0
M  V30 7406 C 693.035 -0.899972 5.14488 0
M  V30 7407 H 694.729 -0.239783 2.98438 0
M  V30 7408 H 692.275 -0.113891 1.43549 0
M  V30 7409 H 694.228 -2.66012 3.26827 0
M  V30 7410 H 692.952 -2.5587 2.02973 0
M  V30 7411 H 691.611 -1.03133 3.51794 0
M  V30 7412 H 691.259 -3.5058 3.60698 0
M  V30 7413 H 690.959 -2.75073 5.19238 0
M  V30 7414 H 692.483 -3.63753 4.90425 0
M  V30 7415 H 693.897 -1.45818 5.54446 0
M  V30 7416 H 692.294 -0.778968 5.95023 0
M  V30 7417 H 693.364 0.105827 4.84785 0
M  V30 7418 N 694.707 -1.5719 -0.113559 0
M  V30 7419 C 695.953 -1.85412 -0.821597 0
M  V30 7420 C 696.286 -0.746722 -1.7927 0
M  V30 7421 O 695.561 0.246971 -1.92926 0
M  V30 7422 C 695.844 -3.24233 -1.56669 0
M  V30 7423 C 695.697 -4.45578 -0.614823 0
M  V30 7424 C 697.016 -3.60697 -2.52161 0
M  V30 7425 H 694.135 -0.674406 -0.29723 0
M  V30 7426 H 696.777 -1.89807 -0.085694 0
M  V30 7427 H 694.927 -3.20617 -2.19401 0
M  V30 7428 H 696.599 -4.613 0.00407137 0
M  V30 7429 H 694.842 -4.33738 0.0732332 0
M  V30 7430 H 695.513 -5.39395 -1.17292 0
M  V30 7431 H 697.989 -3.65139 -1.99532 0
M  V30 7432 H 696.865 -4.58798 -3.01323 0
M  V30 7433 H 697.126 -2.88403 -3.35076 0
M  V30 7434 N 696.185 0.383891 -1.52853 0
M  V30 7435 C 697.432 1.12842 -1.68146 0
M  V30 7436 C 697.76 1.89823 -0.423954 0
M  V30 7437 O 697.015 1.86475 0.593765 0
M  V30 7438 C 697.314 2.12881 -2.87082 0
M  V30 7439 C 696.98 1.52519 -4.24322 0
M  V30 7440 C 695.642 1.35783 -4.61645 0
M  V30 7441 C 697.994 1.0868 -5.09743 0
M  V30 7442 C 695.322 0.737643 -5.82044 0
M  V30 7443 C 697.674 0.480699 -6.30771 0
M  V30 7444 C 696.338 0.300681 -6.66822 0
M  V30 7445 H 695.608 0.412917 -0.615289 0
M  V30 7446 H 698.255 0.412416 -1.87006 0
M  V30 7447 H 696.56 2.90719 -2.62659 0
M  V30 7448 H 698.257 2.70408 -2.96109 0
M  V30 7449 H 694.847 1.66534 -3.94923 0
M  V30 7450 H 699.031 1.2041 -4.81472 0
M  V30 7451 H 694.287 0.586415 -6.08581 0
M  V30 7452 H 698.461 0.132733 -6.96273 0
M  V30 7453 H 696.088 -0.181966 -7.59982 0
M  V30 7454 N 697.663 1.43903 0.642637 0
M  V30 7455 C 698.626 1.49538 1.73698 0
M  V30 7456 C 699.626 0.378776 1.56275 0
M  V30 7457 O 700.816 0.64095 1.6198 0
M  V30 7458 C 697.948 1.35821 3.12675 0
M  V30 7459 H 699.141 2.47008 1.70079 0
M  V30 7460 H 696.694 1.30824 0.85526 0
M  V30 7461 H 697.429 0.393994 3.21898 0
M  V30 7462 H 697.214 2.16776 3.26727 0
M  V30 7463 H 698.704 1.4272 3.92455 0
M  V30 7464 N 699.141 -0.881989 1.30609 0
M  V30 7465 C 700.388 -1.63405 1.19604 0
M  V30 7466 C 700.716 -1.92905 -0.248574 0
M  V30 7467 O 699.971 -1.55062 -1.19391 0
M  V30 7468 C 700.27 -2.97999 1.97311 0
M  V30 7469 C 699.936 -2.88039 3.46907 0
M  V30 7470 C 698.598 -2.85029 3.877 0
M  V30 7471 C 700.95 -2.75948 4.42156 0
M  V30 7472 C 698.278 -2.67772 5.2203 0
M  V30 7473 C 700.63 -2.60228 5.76597 0
M  V30 7474 C 699.294 -2.55595 6.16626 0
M  V30 7475 H 698.564 -0.597941 0.437662 0
M  V30 7476 H 701.211 -1.02524 1.61744 0
M  V30 7477 H 699.516 -3.62847 1.47815 0
M  V30 7478 H 701.213 -3.55156 1.86186 0
M  V30 7479 H 697.803 -2.91192 3.14492 0
M  V30 7480 H 701.987 -2.77337 4.1158 0
M  V30 7481 H 697.243 -2.62601 5.52133 0
M  V30 7482 H 701.417 -2.49847 6.50038 0
M  V30 7483 H 699.044 -2.41981 7.20659 0
M  V30 7484 N 700.619 -1.13374 -1.09472 0
M  V30 7485 C 701.896 -0.806329 -1.78207 0
M  V30 7486 C 702.276 0.702191 -1.99079 0
M  V30 7487 O 701.624 1.63931 -1.59182 0
M  V30 7488 C 701.834 -1.59271 -3.10538 0
M  V30 7489 C 703.182 -1.78509 -3.85253 0
M  V30 7490 O 704.206 -1.55866 -3.20288 0
M  V30 7491 O 703.065 -2.16287 -5.01879 0
M  V30 7492 H 700.159 -0.29435 -0.772843 0
M  V30 7493 H 702.705 -1.23833 -1.16033 0
M  V30 7494 H 701.477 -2.61792 -2.90828 0
M  V30 7495 H 701.1 -1.15562 -3.80436 0
M  V30 7496 N 702.098 1.27442 -0.927168 0
M  V30 7497 C 703.344 1.94679 -0.568164 0
M  V30 7498 C 703.677 1.72697 0.888219 0
M  V30 7499 O 702.952 1.05573 1.63354 0
M  V30 7500 C 703.235 3.4882 -0.894253 0
M  V30 7501 C 703.088 3.80146 -2.40435 0
M  V30 7502 C 704.407 4.38281 -0.399766 0
M  V30 7503 H 701.526 0.707071 -0.207892 0
M  V30 7504 H 704.168 1.50568 -1.15885 0
M  V30 7505 H 702.318 3.86522 -0.391566 0
M  V30 7506 H 703.99 3.52238 -2.97869 0
M  V30 7507 H 702.233 3.26716 -2.85375 0
M  V30 7508 H 702.904 4.87835 -2.58304 0
M  V30 7509 H 705.38 4.07726 -0.83058 0
M  V30 7510 H 704.256 5.44955 -0.656885 0
M  V30 7511 H 704.517 4.36521 0.700153 0
M  V30 7512 N 703.576 0.692616 1.41565 0
M  V30 7513 C 704.524 0.0139952 2.32596 0
M  V30 7514 C 705.518 -0.771691 1.50802 0
M  V30 7515 O 706.724 -0.677646 1.66757 0
M  V30 7516 H 703.099 -0.0142745 0.751865 0
M  V30 7517 H 705.07 0.798851 2.87508 0
M  V30 7518 C 703.819 -0.910602 3.35564 0
M  V30 7519 H 703.142 -0.315446 3.98554 0
M  V30 7520 H 704.582 -1.3538 4.01806 0
M  V30 7521 C 703.041 -2.02539 2.6922 0
M  V30 7522 O 703.571 -3.11386 2.53775 0
M  V30 7523 N 701.777 -1.80227 2.27962 0
M  V30 7524 H 701.324 -0.917054 2.40724 0
M  V30 7525 H 701.282 -2.55001 1.83907 0
M  V30 7526 N 705.054 -1.51416 0.437162 0
M  V30 7527 C 706.47 -1.59349 0.0894459 0
M  V30 7528 C 706.67 -1.44809 -1.40116 0
M  V30 7529 O 705.726 -1.28924 -2.17106 0
M  V30 7530 C 707.039 -2.9446 0.609398 0
M  V30 7531 C 708.587 -3.07769 0.569824 0
M  V30 7532 C 709.062 -4.45404 1.06675 0
M  V30 7533 N 710.553 -4.51723 1.02473 0
M  V30 7534 C 711.288 -5.56544 1.3801 0
M  V30 7535 N 710.784 -6.68784 1.80831 0
M  V30 7536 N 712.577 -5.46901 1.29828 0
M  V30 7537 H 704.728 -1.59112 1.40703 0
M  V30 7538 H 706.991 -0.750031 0.579791 0
M  V30 7539 H 706.697 -3.1047 1.65231 0
M  V30 7540 H 706.571 -3.77184 0.0342236 0
M  V30 7541 H 708.958 -2.91428 -0.464107 0
M  V30 7542 H 709.039 -2.26885 1.1814 0
M  V30 7543 H 708.683 -4.62492 2.09914 0
M  V30 7544 H 708.613 -5.24827 0.431712 0
M  V30 7545 H 711.104 -3.71165 0.710258 0
M  V30 7546 H 711.417 -7.44787 2.06185 0
M  V30 7547 H 709.762 -6.69992 1.84757 0
M  V30 7548 H 712.953 -4.581 0.962397 0
M  V30 7549 H 713.126 -6.2848 1.57851 0
M  V30 7550 N 706.532 -0.168513 -1.56696 0
M  V30 7551 C 707.48 0.779791 -2.19139 0
M  V30 7552 C 708.474 1.23957 -1.1546 0
M  V30 7553 O 709.68 1.20555 -1.33666 0
M  V30 7554 H 706.055 0.269739 -0.701958 0
M  V30 7555 H 708.026 0.229156 -2.97519 0
M  V30 7556 C 706.775 2.00003 -2.84419 0
M  V30 7557 H 706.098 1.65527 -3.63924 0
M  V30 7558 H 707.538 2.64251 -3.31583 0
M  V30 7559 C 705.997 2.82187 -1.84044 0
M  V30 7560 O 706.527 3.79247 -1.32418 0
M  V30 7561 N 704.733 2.47145 -1.52864 0
M  V30 7562 H 704.28 1.68277 -1.9504 0
M  V30 7563 H 704.238 3.02422 -0.859569 0
M  V30 7564 N 708.01 1.57248 0.105221 0
M  V30 7565 C 709.426 1.52853 0.459153 0
M  V30 7566 C 709.626 0.883674 1.8109 0
M  V30 7567 O 708.682 0.471864 2.48052 0
M  V30 7568 C 709.995 2.97596 0.43096 0
M  V30 7569 C 711.543 3.08758 0.513536 0
M  V30 7570 C 712.018 4.55089 0.515593 0
M  V30 7571 N 713.509 4.59597 0.576639 0
M  V30 7572 C 714.244 5.70253 0.599904 0
M  V30 7573 N 713.74 6.90368 0.579985 0
M  V30 7574 N 715.533 5.58399 0.643953 0
M  V30 7575 H 707.684 1.97547 -0.780306 0
M  V30 7576 H 709.947 0.902758 -0.289363 0
M  V30 7577 H 709.653 3.48201 -0.494903 0
M  V30 7578 H 709.527 3.55756 1.2537 0
M  V30 7579 H 711.914 2.58148 1.42982 0
M  V30 7580 H 711.995 2.53568 -0.337148 0
M  V30 7581 H 711.639 5.06348 -0.396701 0
M  V30 7582 H 711.569 5.08105 1.38335 0
M  V30 7583 H 714.06 3.73144 0.597639 0
M  V30 7584 H 714.373 7.70462 0.600741 0
M  V30 7585 H 712.718 6.92843 0.547191 0
M  V30 7586 H 715.909 4.63467 0.656975 0
M  V30 7587 H 716.082 6.44644 0.658616 0
M  V30 7588 N 709.488 -0.375779 1.53054 0
M  V30 7589 C 710.734 -1.12114 1.68992 0
M  V30 7590 C 711.067 -1.8926 0.435238 0
M  V30 7591 O 710.342 -1.86044 -0.567278 0
M  V30 7592 C 710.625 -2.08867 2.93337 0
M  V30 7593 C 710.478 -1.35397 4.28938 0
M  V30 7594 C 711.797 -3.09124 3.13257 0
M  V30 7595 H 708.916 -0.406207 0.614951 0
M  V30 7596 H 711.558 -0.403054 1.85676 0
M  V30 7597 H 709.708 -2.70102 2.79244 0
M  V30 7598 H 711.38 -0.770242 4.54824 0
M  V30 7599 H 709.623 -0.655801 4.28814 0
M  V30 7600 H 710.294 -2.06161 5.12056 0
M  V30 7601 H 712.77 -2.57987 3.26469 0
M  V30 7602 H 711.646 -3.74054 4.01715 0
M  V30 7603 H 711.907 -3.78729 2.28072 0
M  V30 7604 N 710.966 -1.44241 -0.634997 0
M  V30 7605 C 711.896 -1.53632 -1.7584 0
M  V30 7606 C 712.877 -0.389603 -1.65578 0
M  V30 7607 O 714.062 -0.609219 -1.84397 0
M  V30 7608 C 711.192 -1.47644 -3.14354 0
M  V30 7609 C 710.146 -2.60752 -3.394 0
M  V30 7610 C 709.472 -2.39817 -4.77904 0
M  V30 7611 C 710.772 -4.02921 -3.32343 0
M  V30 7612 H 712.466 -2.47662 -1.68238 0
M  V30 7613 H 710.012 -1.19197 -0.807969 0
M  V30 7614 H 711.965 -1.52815 -3.92716 0
M  V30 7615 H 710.689 -0.501284 -3.2273 0
M  V30 7616 H 709.348 -2.54965 -2.63417 0
M  V30 7617 H 708.996 -1.40502 -4.82978 0
M  V30 7618 H 708.696 -3.15649 -4.9562 0
M  V30 7619 H 710.22 -2.46799 -5.585 0
M  V30 7620 H 711.634 -4.10098 -4.00615 0
M  V30 7621 H 710.031 -4.78925 -3.61595 0
M  V30 7622 H 711.101 -4.26766 -2.30215 0
M  V30 7623 N 712.444 0.87505 -1.31075 0
M  V30 7624 C 713.392 2.00317 -1.18219 0
M  V30 7625 C 714.386 1.69152 -0.0916872 0
M  V30 7626 O 715.592 1.7821 -0.253229 0
M  V30 7627 H 711.967 0.656981 -0.365895 0
M  V30 7628 H 713.938 2.08293 -2.13674 0
M  V30 7629 C 712.687 3.35821 -0.901095 0
M  V30 7630 H 712.01 3.6032 -1.73233 0
M  V30 7631 H 713.45 4.15366 -0.851295 0
M  V30 7632 C 711.909 3.34563 0.396114 0
M  V30 7633 O 712.439 3.75971 1.41452 0
M  V30 7634 N 710.645 2.87681 0.410832 0
M  V30 7635 H 710.192 2.54179 -0.418415 0
M  V30 7636 H 710.15 2.87223 1.27869 0
M  V30 7637 N 713.922 1.13953 1.08869 0
M  V30 7638 C 715.147 0.928559 1.85452 0
M  V30 7639 C 715.572 -0.517642 1.80837 0
M  V30 7640 O 714.93 -1.36779 1.19001 0
M  V30 7641 C 714.978 1.42814 3.31114 0
M  V30 7642 O 714.082 0.617129 4.07756 0
M  V30 7643 H 713.423 0.33235 0.574839 0
M  V30 7644 H 715.953 1.5156 1.37443 0
M  V30 7645 H 715.963 1.43425 3.8196 0
M  V30 7646 H 714.638 2.48109 3.33788 0
M  V30 7647 H 713.215 0.679365 3.66659 0
M  V30 7648 N 715.4 -1.26948 0.933913 0
M  V30 7649 C 716.63 -1.97898 0.593279 0
M  V30 7650 C 717.038 -1.69806 -0.834412 0
M  V30 7651 O 716.381 -0.958704 -1.56699 0
M  V30 7652 C 716.443 -3.51657 0.746825 0
M  V30 7653 C 716.107 -4.03384 2.14779 0
M  V30 7654 C 717.104 -4.15682 3.12257 0
M  V30 7655 C 714.789 -4.37577 2.46641 0
M  V30 7656 C 716.783 -4.61455 4.39702 0
M  V30 7657 C 714.47 -4.8304 3.7432 0
M  V30 7658 C 715.468 -4.94939 4.70664 0
M  V30 7659 O 715.156 -5.39403 5.96071 0
M  V30 7660 H 714.888 -0.63814 0.223055 0
M  V30 7661 H 717.442 -1.62608 1.2549 0
M  V30 7662 H 715.672 -3.8669 0.0280889 0
M  V30 7663 H 717.361 -4.03821 0.410328 0
M  V30 7664 H 718.127 -3.89519 2.88964 0
M  V30 7665 H 714.006 -4.27554 1.72391 0
M  V30 7666 H 717.55 -4.70658 5.14905 0
M  V30 7667 H 713.447 -5.08646 3.97429 0
M  V30 7668 H 714.215 -5.57641 5.99148 0
M  V30 7669 N 716.879 -0.700114 -1.41195 0
M  V30 7670 C 718.29 -0.307249 -1.84154 0
M  V30 7671 C 718.641 1.15539 -1.58572 0
M  V30 7672 O 717.766 1.88744 -1.05852 0
M  V30 7673 C 718.361 -0.550872 -3.34292 0
M  V30 7674 C 716.92 -0.211877 -3.75803 0
M  V30 7675 C 716.067 -0.830915 -2.64558 0
M  V30 7676 H 719.018 -0.900431 -1.30683 0
M  V30 7677 H 719.039 0.188954 -3.80031 0
M  V30 7678 H 718.551 -1.61548 -3.5288 0
M  V30 7679 H 716.652 0.848283 -3.62815 0
M  V30 7680 H 716.765 -0.67007 -4.74391 0
M  V30 7681 H 715.129 -0.260155 -2.53368 0
M  V30 7682 H 715.912 -1.89948 -2.85963 0
M  V30 7683 N 718.357 1.51182 -0.445186 0
M  V30 7684 C 719.304 2.27939 0.362291 0
M  V30 7685 C 720.274 1.31864 1.01 0
M  V30 7686 O 721.459 1.60776 1.02741 0
M  V30 7687 C 718.599 3.13016 1.45311 0
M  V30 7688 C 717.712 4.24093 0.822757 0
M  V30 7689 C 716.847 4.96467 1.88928 0
M  V30 7690 C 715.886 5.99454 1.23778 0
M  V30 7691 N 715.023 6.65206 2.24602 0
M  V30 7692 H 719.863 2.965 -0.29862 0
M  V30 7693 H 717.4 1.46237 -0.15911 0
M  V30 7694 H 719.358 3.60673 2.09692 0
M  V30 7695 H 717.988 2.46553 2.08354 0
M  V30 7696 H 717.04 3.80341 0.0670364 0
M  V30 7697 H 718.352 4.97853 0.307184 0
M  V30 7698 H 717.506 5.47712 2.60953 0
M  V30 7699 H 716.245 4.22355 2.4386 0
M  V30 7700 H 715.25 5.47494 0.503042 0
M  V30 7701 H 716.475 6.75527 0.695694 0
M  V30 7702 H 714.421 5.93901 2.78599 0
M  V30 7703 H 714.338 7.34756 1.77958 0
M  V30 7704 H 715.606 7.21078 2.96085 0
M  V30 7705 N 719.835 0.176821 1.56605 0
M  V30 7706 C 721.251 -0.179278 1.5859 0
M  V30 7707 C 721.451 -1.62433 1.19238 0
M  V30 7708 O 720.507 -2.35665 0.906552 0
M  V30 7709 C 721.82 0.106524 3.00511 0
M  V30 7710 C 723.368 0.0451731 3.12967 0
M  V30 7711 C 723.843 0.304038 4.5699 0
M  V30 7712 N 725.334 0.252008 4.62514 0
M  V30 7713 C 726.069 0.426404 5.71812 0
M  V30 7714 N 725.565 0.660155 6.89648 0
M  V30 7715 N 727.358 0.361926 5.60934 0
M  V30 7716 H 719.509 1.12001 1.8047 0
M  V30 7717 H 721.772 0.445679 0.836704 0
M  V30 7718 H 721.478 1.10778 3.33798 0
M  V30 7719 H 721.352 -0.599337 3.72408 0
M  V30 7720 H 723.739 -0.946662 2.79504 0
M  V30 7721 H 723.82 0.78383 2.43495 0
M  V30 7722 H 723.464 1.29311 4.91163 0
M  V30 7723 H 723.394 -0.455294 5.24628 0
M  V30 7724 H 725.885 0.0772102 3.77821 0
M  V30 7725 H 726.198 0.782529 7.68828 0
M  V30 7726 H 724.543 0.696835 6.91498 0
M  V30 7727 H 727.734 0.17986 4.67754 0
M  V30 7728 H 727.907 0.501263 6.46058 0
M  V30 7729 N 721.313 -1.57302 -0.09688 0
M  V30 7730 C 722.562 -1.85183 -0.799388 0
M  V30 7731 C 722.875 -0.765818 -1.79985 0
M  V30 7732 O 724.081 -0.931696 -2.55013 0
M  V30 7733 C 722.537 -3.28399 -1.47249 0
M  V30 7734 C 722.145 -4.45066 -0.511888 0
M  V30 7735 C 723.889 -3.65506 -2.15883 0
M  V30 7736 C 721.796 -5.79315 -1.18948 0
M  V30 7737 H 720.726 -0.690752 -0.302287 0
M  V30 7738 H 723.377 -1.83425 -0.0523104 0
M  V30 7739 H 721.759 -3.24692 -2.26697 0
M  V30 7740 H 722.933 -4.60116 0.250962 0
M  V30 7741 H 721.248 -4.16343 0.0686576 0
M  V30 7742 H 723.845 -4.63087 -2.67309 0
M  V30 7743 H 724.188 -2.94041 -2.94696 0
M  V30 7744 H 724.721 -3.71094 -1.43298 0
M  V30 7745 H 721.46 -6.54007 -0.442198 0
M  V30 7746 H 720.98 -5.68111 -1.9238 0
M  V30 7747 H 722.659 -6.23816 -1.71646 0
M  V30 7748 N 722.791 0.367657 -1.53252 0
M  V30 7749 C 724.019 1.13119 -1.73239 0
M  V30 7750 C 724.434 1.831 -0.460404 0
M  V30 7751 O 723.791 1.73483 0.566557 0
M  V30 7752 C 723.842 2.16308 -2.89643 0
M  V30 7753 O 723.563 1.49175 -4.1192 0
M  V30 7754 C 725.064 3.05224 -3.21486 0
M  V30 7755 H 722.284 0.338318 -0.579467 0
M  V30 7756 H 724.828 0.42721 -1.99988 0
M  V30 7757 H 722.983 2.82307 -2.65295 0
M  V30 7758 H 723.397 2.17912 -4.7709 0
M  V30 7759 H 724.871 3.73613 -4.06346 0
M  V30 7760 H 725.348 3.69919 -2.36763 0
M  V30 7761 H 725.954 2.44843 -3.47753 0
M  V30 7762 N 724.269 1.44576 0.627338 0
M  V30 7763 C 725.179 1.54232 1.76776 0
M  V30 7764 C 726.195 0.427782 1.6866 0
M  V30 7765 O 727.371 0.685671 1.89369 0
M  V30 7766 C 724.436 1.48738 3.13174 0
M  V30 7767 C 723.497 2.71074 3.32893 0
M  V30 7768 C 722.73 2.65832 4.62784 0
M  V30 7769 O 722.953 1.72048 5.43834 0
M  V30 7770 O 721.887 3.56742 4.84787 0
M  V30 7771 H 725.713 2.50586 1.71582 0
M  V30 7772 H 723.298 1.26865 0.789028 0
M  V30 7773 H 725.18 1.48211 3.94476 0
M  V30 7774 H 723.855 0.555292 3.18902 0
M  V30 7775 H 722.762 2.77168 2.51254 0
M  V30 7776 H 724.095 3.63342 3.32029 0
M  V30 7777 N 725.747 -0.868086 1.31537 0
M  V30 7778 C 726.993 -1.62367 1.2151 0
M  V30 7779 C 727.326 -1.92883 -0.225819 0
M  V30 7780 O 726.601 -1.56176 -1.15927 0
M  V30 7781 C 726.884 -2.95268 2.06129 0
M  V30 7782 C 726.737 -2.71619 3.58529 0
M  V30 7783 C 728.056 -3.96391 1.91212 0
M  V30 7784 H 725.175 -0.589178 0.442762 0
M  V30 7785 H 727.817 -1.00336 1.61347 0
M  V30 7786 H 725.967 -3.4821 1.72284 0
M  V30 7787 H 727.639 -2.25334 4.0252 0
M  V30 7788 H 725.882 -2.05817 3.81866 0
M  V30 7789 H 726.553 -3.66192 4.13047 0
M  V30 7790 H 729.029 -3.52663 2.20834 0
M  V30 7791 H 727.905 -4.87263 2.52718 0
M  V30 7792 H 728.166 -4.33335 0.875953 0
M  V30 7793 N 727.225 -1.14528 -1.08264 0
M  V30 7794 C 728.472 -0.914405 -1.80679 0
M  V30 7795 C 728.8 0.558952 -1.86295 0
M  V30 7796 O 728.055 1.43017 -1.33584 0
M  V30 7797 C 728.354 -1.46226 -3.26117 0
M  V30 7798 C 728.02 -2.95451 -3.40616 0
M  V30 7799 C 726.682 -3.36191 -3.4428 0
M  V30 7800 C 729.034 -3.91399 -3.44175 0
M  V30 7801 C 726.362 -4.71539 -3.49096 0
M  V30 7802 C 728.714 -5.26606 -3.50526 0
M  V30 7803 C 727.378 -5.66856 -3.52464 0
M  V30 7804 H 726.648 -0.334604 -0.661151 0
M  V30 7805 H 729.295 -1.4292 -1.27461 0
M  V30 7806 H 727.6 -0.868442 -3.82054 0
M  V30 7807 H 729.297 -1.25955 -3.80705 0
M  V30 7808 H 725.887 -2.62955 -3.38456 0
M  V30 7809 H 730.071 -3.61004 -3.40573 0
M  V30 7810 H 725.327 -5.02082 -3.4889 0
M  V30 7811 H 729.501 -6.00758 -3.52225 0
M  V30 7812 H 727.128 -6.71718 -3.55948 0
M  V30 7813 N 728.703 1.26451 -0.940633 0
M  V30 7814 C 730.114 1.75726 -0.630653 0
M  V30 7815 C 730.465 1.76631 0.854167 0
M  V30 7816 O 729.59 1.37807 1.66848 0
M  V30 7817 C 730.185 3.19114 -1.13805 0
M  V30 7818 C 728.744 3.66005 -0.878497 0
M  V30 7819 C 727.891 2.45505 -1.28928 0
M  V30 7820 H 730.842 1.12535 -1.119 0
M  V30 7821 H 730.863 3.77311 -0.491625 0
M  V30 7822 H 730.375 3.18424 -2.21874 0
M  V30 7823 H 728.476 3.72126 0.187833 0
M  V30 7824 H 728.589 4.54844 -1.50512 0
M  V30 7825 H 726.953 2.4467 -0.707713 0
M  V30 7826 H 727.736 2.47516 -2.37888 0
M  V30 7827 N 730.181 0.707592 1.40822 0
M  V30 7828 C 731.144 0.0587224 2.29125 0
M  V30 7829 C 732.144 -0.695624 1.44975 0
M  V30 7830 O 733.334 -0.528718 1.65983 0
M  V30 7831 C 730.466 -0.926939 3.28056 0
M  V30 7832 H 731.659 0.836349 2.88002 0
M  V30 7833 H 729.212 0.471778 1.4901 0
M  V30 7834 H 729.947 -1.7319 2.74182 0
M  V30 7835 H 729.732 -0.389015 3.90165 0
M  V30 7836 H 731.222 -1.37837 3.94196 0
M  V30 7837 N 731.66 -1.50943 0.453197 0
M  V30 7838 C 732.906 -2.02512 -0.108082 0
M  V30 7839 C 733.239 -1.33574 -1.40967 0
M  V30 7840 O 732.514 -0.455671 -1.89087 0
M  V30 7841 C 732.797 -3.58759 -0.310453 0
M  V30 7842 C 732.65 -4.38293 1.0109 0
M  V30 7843 C 733.969 -4.26816 -1.07313 0
M  V30 7844 H 731.088 -0.73603 -0.0378064 0
M  V30 7845 H 733.73 -1.80433 0.595295 0
M  V30 7846 H 731.88 -3.77702 -0.909582 0
M  V30 7847 H 733.552 -4.30964 1.64523 0
M  V30 7848 H 731.795 -4.02745 1.61179 0
M  V30 7849 H 732.466 -5.45828 0.82315 0
M  V30 7850 H 734.942 -4.1224 -0.565473 0
M  V30 7851 H 733.818 -5.35989 -1.1835 0
M  V30 7852 H 734.079 -3.88757 -2.10525 0
M  V30 7853 N 733.138 -0.185124 -1.56509 0
M  V30 7854 C 734.387 0.456421 -1.96468 0
M  V30 7855 C 734.7 1.63448 -1.07444 0
M  V30 7856 O 735.906 2.34316 -1.37143 0
M  V30 7857 C 734.362 0.863404 -3.4939 0
M  V30 7858 C 733.97 -0.289815 -4.47062 0
M  V30 7859 C 735.714 1.47259 -3.98139 0
M  V30 7860 C 733.621 0.137571 -5.9124 0
M  V30 7861 H 732.551 0.17429 -0.733579 0
M  V30 7862 H 735.202 -0.275554 -1.81419 0
M  V30 7863 H 733.584 1.65176 -3.59907 0
M  V30 7864 H 734.758 -1.06728 -4.4827 0
M  V30 7865 H 733.073 -0.809851 -4.08449 0
M  V30 7866 H 735.67 1.80463 -5.03326 0
M  V30 7867 H 736.013 2.3755 -3.41871 0
M  V30 7868 H 736.546 0.748405 -3.90696 0
M  V30 7869 H 733.285 -0.730907 -6.51412 0
M  V30 7870 H 732.805 0.8801 -5.93308 0
M  V30 7871 H 734.484 0.576771 -6.44424 0
M  V30 7872 N 734.616 1.57351 0.0885366 0
M  V30 7873 C 736.027 1.75303 0.642308 0
M  V30 7874 C 736.378 0.808238 1.78779 0
M  V30 7875 O 735.503 -0.01171 2.16397 0
M  V30 7876 C 736.098 3.17885 1.17194 0
M  V30 7877 C 734.657 3.37239 1.67172 0
M  V30 7878 C 733.804 2.7108 0.584045 0
M  V30 7879 H 736.755 1.58103 -0.137567 0
M  V30 7880 H 736.776 3.2112 2.04114 0
M  V30 7881 H 736.288 3.86625 0.338024 0
M  V30 7882 H 734.389 2.73588 2.52943 0
M  V30 7883 H 734.502 4.45594 1.76019 0
M  V30 7884 H 732.866 2.33161 1.02508 0
M  V30 7885 H 733.649 3.42464 -0.239403 0
M  V30 7886 N 736.094 -0.359525 1.53444 0
M  V30 7887 C 737.026 -1.46098 1.76602 0
M  V30 7888 C 738.039 -1.49395 0.646912 0
M  V30 7889 O 739.228 -1.52765 0.923307 0
M  V30 7890 C 736.328 -2.84836 1.83635 0
M  V30 7891 C 735.501 -3.05164 3.13358 0
M  V30 7892 C 734.56 -4.24051 3.11556 0
M  V30 7893 O 733.586 -4.18935 3.85334 0
M  V30 7894 N 734.788 -5.31775 2.328 0
M  V30 7895 H 737.553 -1.2661 2.71643 0
M  V30 7896 H 735.114 -0.549294 1.52297 0
M  V30 7897 H 737.106 -3.62516 1.799 0
M  V30 7898 H 735.676 -2.97542 0.958509 0
M  V30 7899 H 734.896 -2.15091 3.30348 0
M  V30 7900 H 736.184 -3.15619 3.99076 0
M  V30 7901 H 735.582 -5.38796 1.7238 0
M  V30 7902 H 734.139 -6.0801 2.34877 0
M  V30 7903 N 737.572 -1.44907 -0.619662 0
M  V30 7904 C 738.52 -1.52971 -1.75222 0
M  V30 7905 C 739.514 -0.400531 -1.64597 0
M  V30 7906 O 740.72 -0.575952 -1.70537 0
M  V30 7907 H 737.095 -0.480241 -0.578682 0
M  V30 7908 H 739.066 -2.48269 -1.65545 0
M  V30 7909 C 737.815 -1.50204 -3.13583 0
M  V30 7910 H 737.138 -2.36412 -3.22412 0
M  V30 7911 H 738.578 -1.59905 -3.92691 0
M  V30 7912 C 737.037 -0.22455 -3.36151 0
M  V30 7913 O 737.567 0.700574 -3.95544 0
M  V30 7914 N 735.773 -0.124052 -2.90335 0
M  V30 7915 H 735.32 -0.87774 -2.42185 0
M  V30 7916 H 735.278 0.729914 -3.0581 0
M  V30 7917 N 739.05 0.861098 -1.31996 0
M  V30 7918 C 740 1.95703 -1.1698 0
M  V30 7919 C 740.984 1.60709 -0.0784201 0
M  V30 7920 O 742.176 1.74365 -0.304262 0
M  V30 7921 C 739.305 3.31606 -0.888388 0
M  V30 7922 C 738.391 3.7284 -2.02117 0
M  V30 7923 N 738.782 3.85957 -3.26911 0
M  V30 7924 C 737.08 4.02419 -1.92289 0
M  V30 7925 C 737.781 4.21333 -4.01065 0
M  V30 7926 N 736.757 4.32502 -3.29307 0
M  V30 7927 H 740.559 2.03968 -2.11599 0
M  V30 7928 H 738.073 1.05245 -1.23682 0
M  V30 7929 H 740.07 4.09881 -0.761782 0
M  V30 7930 H 738.73 3.24662 0.0494898 0
M  V30 7931 H 739.741 3.70449 -3.61923 0
M  V30 7932 H 736.418 4.03814 -1.06022 0
M  V30 7933 H 737.808 4.39005 -5.08649 0
M  V30 7934 N 740.528 1.15101 1.07655 0
M  V30 7935 C 741.939 0.933848 1.61667 0
M  V30 7936 C 742.29 -0.525569 1.8903 0
M  V30 7937 O 741.415 -1.39605 1.65346 0
M  V30 7938 C 742.01 1.68876 2.93711 0
M  V30 7939 C 740.569 1.51697 3.44478 0
M  V30 7940 C 739.716 1.70633 2.18586 0
M  V30 7941 H 742.667 1.30171 0.907816 0
M  V30 7942 H 742.688 1.15645 3.625 0
M  V30 7943 H 742.2 2.7509 2.73764 0
M  V30 7944 H 740.301 0.478635 3.69513 0
M  V30 7945 H 740.414 2.29194 4.20722 0
M  V30 7946 H 738.778 1.13259 2.28132 0
M  V30 7947 H 739.561 2.78206 2.01137 0
M  V30 7948 N 742.006 -1.2595 0.947325 0
M  V30 7949 C 743.253 -1.93463 0.598178 0
M  V30 7950 C 743.581 -1.74271 -0.863705 0
M  V30 7951 O 742.836 -1.07684 -1.63409 0
M  V30 7952 C 743.135 -3.46034 0.894158 0
M  V30 7953 C 742.801 -3.85373 2.3409 0
M  V30 7954 C 741.463 -3.95823 2.73637 0
M  V30 7955 C 743.815 -4.04986 3.2808 0
M  V30 7956 C 741.143 -4.23288 4.06257 0
M  V30 7957 C 743.495 -4.3394 4.60303 0
M  V30 7958 C 742.159 -4.42606 4.99656 0
M  V30 7959 H 741.429 -0.707933 0.218889 0
M  V30 7960 H 744.076 -1.4964 1.19499 0
M  V30 7961 H 742.381 -3.9121 0.214874 0
M  V30 7962 H 744.078 -3.96445 0.602698 0
M  V30 7963 H 740.668 -3.7779 2.02417 0
M  V30 7964 H 744.852 -3.96333 2.9872 0
M  V30 7965 H 740.108 -4.28211 4.36401 0
M  V30 7966 H 744.282 -4.48061 5.33118 0
M  V30 7967 H 741.909 -4.63641 6.02446 0
M  V30 7968 N 743.484 -0.715051 -1.40445 0
M  V30 7969 C 744.9 -0.388555 -1.54798 0
M  V30 7970 C 745.1 1.10271 -1.68649 0
M  V30 7971 O 744.156 1.88875 -1.67578 0
M  V30 7972 C 745.469 -1.15414 -2.77669 0
M  V30 7973 C 747.017 -1.14039 -2.91486 0
M  V30 7974 C 747.492 -1.88812 -4.1727 0
M  V30 7975 N 748.983 -1.85878 -4.24268 0
M  V30 7976 C 749.718 -2.40558 -5.20499 0
M  V30 7977 N 749.214 -3.03791 -6.22642 0
M  V30 7978 N 751.007 -2.30703 -5.12574 0
M  V30 7979 H 743.158 -1.68201 -1.297 0
M  V30 7980 H 745.421 -0.710915 -0.627139 0
M  V30 7981 H 745.127 -2.20853 -2.7371 0
M  V30 7982 H 745.001 -0.745412 -3.69761 0
M  V30 7983 H 747.388 -0.0941996 -2.9495 0
M  V30 7984 H 747.469 -1.58834 -2.00513 0
M  V30 7985 H 747.113 -2.93422 -4.14568 0
M  V30 7986 H 747.043 -1.41438 -5.0725 0
M  V30 7987 H 749.534 -1.39794 -3.51093 0
M  V30 7988 H 749.847 -3.43032 -6.92495 0
M  V30 7989 H 748.192 -3.07875 -6.23087 0
M  V30 7990 H 751.383 -1.80961 -4.31707 0
M  V30 7991 H 751.556 -2.73618 -5.87398 0
M  V30 7992 N 744.962 1.50701 -0.461195 0
M  V30 7993 C 745.91 2.29918 0.352231 0
M  V30 7994 C 746.904 1.36778 0.999403 0
M  V30 7995 O 748.11 1.54015 0.931639 0
M  V30 7996 H 744.485 0.740249 0.132423 0
M  V30 7997 H 746.456 2.96497 -0.336424 0
M  V30 7998 C 745.205 3.17052 1.42736 0
M  V30 7999 H 744.528 3.88623 0.938747 0
M  V30 8000 H 745.968 3.75493 1.96928 0
M  V30 8001 C 744.427 2.3399 2.42384 0
M  V30 8002 O 744.957 2.01608 3.47444 0
M  V30 8003 N 743.163 1.96758 2.13857 0
M  V30 8004 H 742.71 2.23292 1.28447 0
M  V30 8005 H 742.668 1.41484 2.80766 0
M  V30 8006 N 746.441 0.193421 1.56409 0
M  V30 8007 C 747.69 -0.445995 1.96707 0
M  V30 8008 C 748.003 -1.62876 1.08309 0
M  V30 8009 O 749.209 -2.33586 1.38383 0
M  V30 8010 C 747.665 -0.844863 3.49843 0
M  V30 8011 C 747.273 0.31352 4.46902 0
M  V30 8012 C 749.017 -1.45146 3.98915 0
M  V30 8013 C 746.924 -0.106214 5.91305 0
M  V30 8014 H 745.854 -0.170398 0.734493 0
M  V30 8015 H 748.505 0.285172 1.81271 0
M  V30 8016 H 746.887 -1.63265 3.60778 0
M  V30 8017 H 748.061 1.09103 4.47698 0
M  V30 8018 H 746.376 0.8315 4.08014 0
M  V30 8019 H 748.973 -1.77792 5.04276 0
M  V30 8020 H 749.316 -2.35734 3.43126 0
M  V30 8021 H 749.849 -0.727675 3.91088 0
M  V30 8022 H 746.588 0.765442 6.51016 0
M  V30 8023 H 746.108 -0.848623 5.93766 0
M  V30 8024 H 747.787 -0.542588 6.44721 0
M  V30 8025 N 747.919 -1.57396 -0.0801906 0
M  V30 8026 C 749.196 -1.77883 -0.813451 0
M  V30 8027 C 749.576 -0.778879 -1.96206 0
M  V30 8028 O 748.924 0.189683 -2.27711 0
M  V30 8029 C 749.134 -3.24116 -1.2942 0
M  V30 8030 C 750.482 -3.87714 -1.73098 0
M  V30 8031 O 751.506 -3.27956 -1.39007 0
M  V30 8032 O 750.365 -4.92828 -2.36184 0
M  V30 8033 H 747.459 -0.729727 -0.389138 0
M  V30 8034 H 750.005 -1.69591 -0.0609166 0
M  V30 8035 H 748.777 -3.88443 -0.471947 0
M  V30 8036 H 748.4 -3.371 -2.1083 0
M  V30 8037 N 749.397 0.351382 -1.53633 0
M  V30 8038 C 750.622 1.11718 -1.74739 0
M  V30 8039 C 751.047 1.81829 -0.481657 0
M  V30 8040 O 750.405 1.72264 0.565233 0
M  V30 8041 C 750.453 2.11234 -2.92254 0
M  V30 8042 O 749.557 3.186 -2.61855 0
M  V30 8043 H 748.898 0.323482 -0.579875 0
M  V30 8044 H 751.428 0.404167 -2.00568 0
M  V30 8045 H 751.438 2.54591 -3.18822 0
M  V30 8046 H 750.113 1.59599 -3.84058 0
M  V30 8047 H 748.69 2.80115 -2.4615 0
M  V30 8048 N 750.875 1.45233 0.611969 0
M  V30 8049 C 751.838 1.53189 1.70487 0
M  V30 8050 C 752.838 0.411839 1.55437 0
M  V30 8051 O 754.028 0.675164 1.60584 0
M  V30 8052 C 751.16 1.42422 3.09723 0
M  V30 8053 H 752.353 2.5056 1.64802 0
M  V30 8054 H 749.906 1.32609 0.827318 0
M  V30 8055 H 750.641 0.462185 3.2099 0
M  V30 8056 H 750.426 2.23658 3.22055 0
M  V30 8057 H 751.916 1.51012 3.89339 0
M  V30 8058 N 752.353 -0.854086 1.3245 0
M  V30 8059 C 753.583 -1.63836 1.25862 0
M  V30 8060 C 753.991 -1.88383 -0.175588 0
M  V30 8061 O 753.334 -1.45353 -1.1233 0
M  V30 8062 C 753.396 -3.02068 1.94923 0
M  V30 8063 C 753.06 -3.0056 3.44257 0
M  V30 8064 C 754.057 -2.77368 4.39731 0
M  V30 8065 C 751.742 -3.21177 3.862 0
M  V30 8066 C 753.736 -2.74797 5.75122 0
M  V30 8067 C 751.423 -3.18234 5.217 0
M  V30 8068 C 752.421 -2.95072 6.15972 0
M  V30 8069 O 752.109 -2.92003 7.48992 0
M  V30 8070 H 751.841 -0.517007 0.435523 0
M  V30 8071 H 754.395 -1.07314 1.75137 0
M  V30 8072 H 752.625 -3.60382 1.40219 0
M  V30 8073 H 754.314 -3.62791 1.82037 0
M  V30 8074 H 755.08 -2.61205 4.08653 0
M  V30 8075 H 750.959 -3.38231 3.13243 0
M  V30 8076 H 754.503 -2.56638 6.48678 0
M  V30 8077 H 750.4 -3.33941 5.52407 0
M  V30 8078 H 751.168 -3.07953 7.58358 0
M  V30 8079 N 753.831 -1.1567 -1.07043 0
M  V30 8080 C 755.061 -0.956083 -1.83146 0
M  V30 8081 C 755.469 0.498969 -1.82502 0
M  V30 8082 O 754.812 1.35791 -1.23719 0
M  V30 8083 C 754.874 -1.39704 -3.31245 0
M  V30 8084 C 754.538 -2.87045 -3.55604 0
M  V30 8085 C 755.535 -3.85092 -3.49285 0
M  V30 8086 C 753.22 -3.24787 -3.8317 0
M  V30 8087 C 755.214 -5.18885 -3.70185 0
M  V30 8088 C 752.901 -4.58751 -4.03721 0
M  V30 8089 C 753.899 -5.55609 -3.97224 0
M  V30 8090 O 753.587 -6.87154 -4.17223 0
M  V30 8091 H 753.319 -0.339473 -0.58458 0
M  V30 8092 H 755.873 -1.53922 -1.36005 0
M  V30 8093 H 754.103 -0.757326 -3.79212 0
M  V30 8094 H 755.792 -1.16503 -3.88821 0
M  V30 8095 H 756.558 -3.5728 -3.27988 0
M  V30 8096 H 752.437 -2.49979 -3.87339 0
M  V30 8097 H 755.981 -5.94473 -3.6503 0
M  V30 8098 H 751.878 -4.86277 -4.24505 0
M  V30 8099 H 752.646 -6.93618 -4.34553 0
M  V30 8100 N 755.309 1.25446 -0.953992 0
M  V30 8101 C 756.534 1.97755 -0.625129 0
M  V30 8102 C 756.959 1.70437 0.795787 0
M  V30 8103 O 756.317 0.95992 1.53803 0
M  V30 8104 C 756.365 3.49463 -0.889251 0
M  V30 8105 O 755.469 4.12387 0.0322757 0
M  V30 8106 H 754.81 0.61998 -0.237742 0
M  V30 8107 H 757.34 1.59582 -1.28041 0
M  V30 8108 H 757.35 3.99772 -0.815263 0
M  V30 8109 H 756.025 3.68676 -1.92487 0
M  V30 8110 H 754.602 3.72782 -0.0938625 0
M  V30 8111 N 756.787 0.722489 1.40064 0
M  V30 8112 C 758.017 0.274439 2.04769 0
M  V30 8113 C 758.425 -1.09125 1.54559 0
M  V30 8114 O 757.768 -1.69834 0.700149 0
M  V30 8115 C 757.83 0.184091 3.59028 0
M  V30 8116 C 757.494 1.48619 4.32159 0
M  V30 8117 C 758.491 2.42947 4.59644 0
M  V30 8118 C 756.176 1.74703 4.7094 0
M  V30 8119 C 758.17 3.616 5.24904 0
M  V30 8120 C 755.857 2.93636 5.3593 0
M  V30 8121 C 756.855 3.86907 5.62843 0
M  V30 8122 O 756.543 5.03753 6.26489 0
M  V30 8123 H 756.275 0.119847 0.665292 0
M  V30 8124 H 758.829 0.983352 1.80331 0
M  V30 8125 H 757.059 -0.580821 3.82313 0
M  V30 8126 H 758.748 -0.230306 4.05246 0
M  V30 8127 H 759.514 2.24062 4.30141 0
M  V30 8128 H 755.393 1.02955 4.49356 0
M  V30 8129 H 758.937 4.34418 5.45827 0
M  V30 8130 H 754.834 3.12428 5.64853 0
M  V30 8131 H 755.602 5.03922 6.44984 0
M  V30 8132 N 758.265 -1.50454 0.469181 0
M  V30 8133 C 759.228 -2.2703 -0.314643 0
M  V30 8134 C 760.228 -1.31734 -0.922111 0
M  V30 8135 O 761.418 -1.55176 -0.791588 0
M  V30 8136 C 758.55 -3.08616 -1.44806 0
M  V30 8137 H 759.743 -2.97769 0.356892 0
M  V30 8138 H 757.296 -1.54698 0.223191 0
M  V30 8139 H 758.031 -2.42369 -2.1547 0
M  V30 8140 H 757.816 -3.78647 -1.01829 0
M  V30 8141 H 759.306 -3.66536 -2.00103 0
M  V30 8142 N 759.743 -0.201713 -1.56304 0
M  V30 8143 C 760.973 0.440084 -2.01858 0
M  V30 8144 C 761.381 1.55279 -1.08098 0
M  V30 8145 O 760.724 1.83529 -0.0792216 0
M  V30 8146 C 760.786 1.05091 -3.43797 0
M  V30 8147 C 760.45 0.0761208 -4.56937 0
M  V30 8148 C 761.447 -0.716951 -5.14933 0
M  V30 8149 C 759.132 -0.0368815 -5.02286 0
M  V30 8150 C 761.126 -1.60993 -6.16733 0
M  V30 8151 C 758.813 -0.933409 -6.03929 0
M  V30 8152 C 759.811 -1.71849 -6.61027 0
M  V30 8153 O 759.499 -2.59998 -7.60695 0
M  V30 8154 H 759.231 0.114139 -0.666294 0
M  V30 8155 H 761.785 -0.309672 -2.03052 0
M  V30 8156 H 760.015 1.84938 -3.3961 0
M  V30 8157 H 761.704 1.59804 -3.73118 0
M  V30 8158 H 762.47 -0.63999 -4.80759 0
M  V30 8159 H 758.349 0.564034 -4.57537 0
M  V30 8160 H 761.893 -2.22315 -6.61227 0
M  V30 8161 H 757.79 -1.01146 -6.37526 0
M  V30 8162 H 758.558 -2.53851 -7.7814 0
M  V30 8163 N 761.222 1.57436 0.0718424 0
M  V30 8164 C 762.17 2.04725 1.10411 0
M  V30 8165 C 763.164 0.952579 1.4008 0
M  V30 8166 O 764.37 1.13769 1.39487 0
M  V30 8167 H 760.745 0.652749 0.373393 0
M  V30 8168 H 762.716 2.90569 0.679126 0
M  V30 8169 C 761.465 2.5068 2.40946 0
M  V30 8170 H 760.788 3.34505 2.18967 0
M  V30 8171 H 762.228 2.87521 3.11621 0
M  V30 8172 C 760.687 1.38971 3.06902 0
M  V30 8173 O 761.217 0.731786 3.94978 0
M  V30 8174 N 759.423 1.13485 2.67525 0
M  V30 8175 H 758.97 1.67168 1.95991 0
M  V30 8176 H 758.928 0.389467 3.11978 0
M  V30 8177 N 762.7 -0.34323 1.53817 0
M  V30 8178 C 763.925 -1.1079 1.75329 0
M  V30 8179 C 764.35 -1.81571 0.491293 0
M  V30 8180 O 763.708 -1.72561 -0.556089 0
M  V30 8181 C 763.756 -2.09681 2.9337 0
M  V30 8182 O 762.86 -3.17207 2.63541 0
M  V30 8183 H 762.201 -0.320402 0.581583 0
M  V30 8184 H 764.731 -0.393525 2.0078 0
M  V30 8185 H 764.741 -2.52897 3.20168 0
M  V30 8186 H 763.416 -1.5756 3.84899 0
M  V30 8187 H 761.993 -2.78806 2.47632 0
M  V30 8188 N 764.178 -1.45556 -0.604258 0
M  V30 8189 C 765.427 -1.49019 -1.35928 0
M  V30 8190 C 765.74 -0.137409 -1.95117 0
M  V30 8191 O 766.946 -0.0497032 -2.71455 0
M  V30 8192 C 765.402 -2.62477 -2.46239 0
M  V30 8193 C 765.01 -4.04082 -1.93447 0
M  V30 8194 C 766.754 -2.7519 -3.23219 0
M  V30 8195 C 764.661 -5.08917 -3.0126 0
M  V30 8196 H 763.591 -0.554518 -0.510907 0
M  V30 8197 H 766.242 -1.71705 -0.647262 0
M  V30 8198 H 764.624 -2.3308 -3.2014 0
M  V30 8199 H 765.798 -4.43173 -1.26232 0
M  V30 8200 H 764.113 -3.95849 -1.29201 0
M  V30 8201 H 766.71 -3.50683 -4.0364 0
M  V30 8202 H 767.053 -1.81941 -3.74437 0
M  V30 8203 H 767.586 -3.04129 -2.56418 0
M  V30 8204 H 764.325 -6.03886 -2.54955 0
M  V30 8205 H 763.845 -4.74393 -3.67031 0
M  V30 8206 H 765.524 -5.33814 -3.65584 0
M  V30 8207 N 765.656 0.84705 -1.32902 0
M  V30 8208 C 766.903 1.60176 -1.23894 0
M  V30 8209 C 767.231 1.93496 0.197341 0
M  V30 8210 O 766.486 1.58173 1.15238 0
M  V30 8211 C 766.785 2.92663 -2.05142 0
M  V30 8212 C 766.451 2.7874 -3.54422 0
M  V30 8213 C 765.113 2.7465 -3.95121 0
M  V30 8214 C 767.465 2.64128 -4.49317 0
M  V30 8215 C 764.793 2.53837 -5.28946 0
M  V30 8216 C 767.145 2.44849 -5.83294 0
M  V30 8217 C 765.809 2.39156 -6.23186 0
M  V30 8218 H 765.079 0.586127 -0.453361 0
M  V30 8219 H 767.726 0.981994 -1.64405 0
M  V30 8220 H 766.031 3.588 -1.57383 0
M  V30 8221 H 767.728 3.50095 -1.95537 0
M  V30 8222 H 764.318 2.82751 -3.22102 0
M  V30 8223 H 768.502 2.66327 -4.18788 0
M  V30 8224 H 763.758 2.4787 -5.58901 0
M  V30 8225 H 767.932 2.32524 -6.56434 0
M  V30 8226 H 765.559 2.22789 -7.26821 0
M  V30 8227 N 767.134 1.16236 1.06428 0
M  V30 8228 C 768.381 0.943034 1.79201 0
M  V30 8229 C 768.709 -0.529243 1.87161 0
M  V30 8230 O 767.964 -1.40874 1.35842 0
M  V30 8231 C 768.263 1.51396 3.2375 0
M  V30 8232 C 767.929 3.00833 3.35873 0
M  V30 8233 C 766.591 3.41626 3.38888 0
M  V30 8234 C 768.943 3.96825 3.37904 0
M  V30 8235 C 766.271 4.77033 3.4155 0
M  V30 8236 C 768.623 5.32116 3.42104 0
M  V30 8237 C 767.287 5.72392 3.43401 0
M  V30 8238 H 766.557 0.34508 0.655744 0
M  V30 8239 H 769.204 1.44929 1.25171 0
M  V30 8240 H 767.509 0.929114 3.80624 0
M  V30 8241 H 769.206 1.31996 3.78653 0
M  V30 8242 H 765.796 2.68306 3.3423 0
M  V30 8243 H 769.98 3.66376 3.34787 0
M  V30 8244 H 765.236 5.07569 3.40858 0
M  V30 8245 H 769.41 6.06286 3.42623 0
M  V30 8246 H 767.037 6.77296 3.45216 0
M  V30 8247 N 768.612 -1.24939 0.960631 0
M  V30 8248 C 769.859 -1.92818 0.618663 0
M  V30 8249 C 770.187 -1.75177 -0.845173 0
M  V30 8250 O 769.442 -1.09412 -1.62258 0
M  V30 8251 C 769.741 -3.45066 0.930809 0
M  V30 8252 C 769.407 -3.82869 2.38164 0
M  V30 8253 C 768.069 -3.92899 2.7782 0
M  V30 8254 C 770.421 -4.01483 3.32356 0
M  V30 8255 C 767.749 -4.18955 4.10723 0
M  V30 8256 C 770.101 -4.29033 4.6488 0
M  V30 8257 C 768.765 -4.37282 5.04322 0
M  V30 8258 H 768.035 -0.705571 0.226385 0
M  V30 8259 H 770.682 -1.48365 1.21079 0
M  V30 8260 H 768.987 -3.9096 0.256355 0
M  V30 8261 H 770.684 -3.95783 0.644712 0
M  V30 8262 H 767.274 -3.75622 2.06413 0
M  V30 8263 H 771.458 -3.93143 3.02907 0
M  V30 8264 H 766.714 -4.23558 4.40918 0
M  V30 8265 H 770.888 -4.42381 5.3784 0
M  V30 8266 H 768.515 -4.57225 6.0733 0
M  V30 8267 N 770.09 -0.729906 -1.39679 0
M  V30 8268 C 771.037 -0.0866063 -2.30637 0
M  V30 8269 C 772.007 0.735115 -1.48947 0
M  V30 8270 O 773.192 0.696125 -1.77648 0
M  V30 8271 C 770.332 0.818524 -3.35252 0
M  V30 8272 C 769.445 -0.0152635 -4.31997 0
M  V30 8273 C 768.58 0.890669 -5.2368 0
M  V30 8274 C 767.619 0.0518246 -6.12078 0
M  V30 8275 N 766.756 0.913411 -6.96133 0
M  V30 8276 H 771.596 -0.867925 -2.85081 0
M  V30 8277 H 769.133 -0.439673 -1.40376 0
M  V30 8278 H 771.091 1.3577 -3.9449 0
M  V30 8279 H 769.721 1.56587 -2.82277 0
M  V30 8280 H 768.773 -0.671794 -3.74421 0
M  V30 8281 H 770.085 -0.664086 -4.9436 0
M  V30 8282 H 769.239 1.49787 -5.87919 0
M  V30 8283 H 767.978 1.57328 -4.61627 0
M  V30 8284 H 766.983 -0.568209 -5.46856 0
M  V30 8285 H 768.208 -0.627497 -6.76195 0
M  V30 8286 H 766.154 1.58141 -6.36653 0
M  V30 8287 H 766.071 0.320952 -7.55318 0
M  V30 8288 H 767.339 1.50633 -7.64807 0
M  V30 8289 N 771.568 1.50203 -0.477153 0
M  V30 8290 C 772.816 2.01959 0.0755889 0
M  V30 8291 C 773.137 1.3608 1.39668 0
M  V30 8292 O 772.407 0.508136 1.89195 0
M  V30 8293 H 770.987 0.74636 0.0309248 0
M  V30 8294 H 773.649 1.84473 -0.628959 0
M  V30 8295 H 772.745 3.11305 0.222683 0
M  V30 8296 N 773.046 0.209999 1.56195 0
M  V30 8297 C 773.994 -0.721416 2.2113 0
M  V30 8298 C 774.988 -1.20852 1.18706 0
M  V30 8299 O 776.194 -1.16968 1.36815 0
M  V30 8300 H 772.569 -0.251033 0.708863 0
M  V30 8301 H 774.54 -0.150193 2.98022 0
M  V30 8302 C 773.289 -1.92392 2.89621 0
M  V30 8303 H 772.612 -1.5582 3.68185 0
M  V30 8304 H 774.052 -2.55367 3.38473 0
M  V30 8305 C 772.511 -2.77208 1.91461 0
M  V30 8306 O 773.041 -3.75603 1.42426 0
M  V30 8307 N 771.247 -2.43006 1.59363 0
M  V30 8308 H 770.794 -1.63047 1.99433 0
M  V30 8309 H 770.752 -3.00036 0.939449 0
M  V30 8310 N 774.524 -1.57472 -0.0634922 0
M  V30 8311 C 775.487 -2.03268 -1.059 0
M  V30 8312 C 776.487 -0.931028 -1.31105 0
M  V30 8313 O 777.677 -1.19567 -1.26686 0
M  V30 8314 C 774.809 -2.42039 -2.40062 0
M  V30 8315 H 776.002 -2.92454 -0.664119 0
M  V30 8316 H 773.555 -1.53206 -0.309444 0
M  V30 8317 H 774.29 -1.55904 -2.84367 0
M  V30 8318 H 774.075 -3.22437 -2.23108 0
M  V30 8319 H 775.565 -2.78017 -3.11603 0
M  V30 8320 N 776.003 0.335068 -1.53997 0
M  V30 8321 C 777.233 1.0926 -1.75345 0
M  V30 8322 C 777.641 1.82568 -0.496545 0
M  V30 8323 O 776.984 1.75525 0.541897 0
M  V30 8324 C 777.046 2.14473 -2.88516 0
M  V30 8325 C 776.71 1.60665 -4.27827 0
M  V30 8326 C 777.707 1.05448 -5.09094 0
M  V30 8327 C 775.392 1.65255 -4.74337 0
M  V30 8328 C 777.386 0.555372 -6.34976 0
M  V30 8329 C 775.073 1.14956 -6.0019 0
M  V30 8330 C 776.071 0.601907 -6.80343 0
M  V30 8331 O 775.759 0.106445 -8.0383 0
M  V30 8332 H 775.491 0.331329 -0.589234 0
M  V30 8333 H 778.045 0.39042 -2.01655 0
M  V30 8334 H 776.275 2.88274 -2.5775 0
M  V30 8335 H 777.964 2.75857 -2.97755 0
M  V30 8336 H 778.73 1.01218 -4.74321 0
M  V30 8337 H 774.609 2.06822 -4.12002 0
M  V30 8338 H 778.153 0.127245 -6.97484 0
M  V30 8339 H 774.05 1.18891 -6.34457 0
M  V30 8340 H 774.818 0.222944 -8.18196 0
M  V30 8341 N 777.481 1.45874 0.596531 0
M  V30 8342 C 778.727 1.51679 1.35518 0
M  V30 8343 C 779.082 0.160681 1.91728 0
M  V30 8344 O 778.375 -0.828886 1.72743 0
M  V30 8345 C 778.569 2.54034 2.51399 0
M  V30 8346 C 778.398 3.99465 2.06538 0
M  V30 8347 C 777.168 4.67321 1.92196 0
M  V30 8348 C 779.366 4.87674 1.63336 0
M  V30 8349 N 777.348 5.97427 1.41261 0
M  V30 8350 C 778.719 6.07495 1.23895 0
M  V30 8351 C 780.774 4.74442 1.51028 0
M  V30 8352 C 779.477 7.15548 0.733739 0
M  V30 8353 C 781.503 5.82553 1.0191 0
M  V30 8354 C 780.865 7.01537 0.634403 0
M  V30 8355 H 776.964 0.609933 0.489393 0
M  V30 8356 H 779.548 1.82411 0.680746 0
M  V30 8357 H 777.719 2.25235 3.16424 0
M  V30 8358 H 779.451 2.49918 3.18313 0
M  V30 8359 H 776.206 4.22635 2.1372 0
M  V30 8360 H 776.63 6.66638 1.17995 0
M  V30 8361 H 781.272 3.82855 1.79393 0
M  V30 8362 H 778.99 8.06914 0.437656 0
M  V30 8363 H 782.576 5.74352 0.927977 0
M  V30 8364 H 781.456 7.83768 0.26019 0
M  V30 8365 N 778.959 -0.83999 1.33349 0
M  V30 8366 C 779.906 -1.94972 1.23509 0
M  V30 8367 C 780.876 -1.65709 0.113967 0
M  V30 8368 O 782.061 -1.88552 0.292045 0
M  V30 8369 C 779.201 -3.30919 0.979105 0
M  V30 8370 C 778.314 -3.72587 2.18639 0
M  V30 8371 C 777.449 -4.97397 1.86465 0
M  V30 8372 C 776.488 -5.31597 3.03432 0
M  V30 8373 N 775.625 -6.47584 2.71254 0
M  V30 8374 H 780.465 -2.0272 2.18423 0
M  V30 8375 H 778.002 -0.992017 1.08616 0
M  V30 8376 H 779.96 -4.09239 0.811126 0
M  V30 8377 H 778.59 -3.22731 0.0667099 0
M  V30 8378 H 777.642 -2.89799 2.46416 0
M  V30 8379 H 778.954 -3.93844 3.06086 0
M  V30 8380 H 778.108 -5.83462 1.66305 0
M  V30 8381 H 776.847 -4.78107 0.96254 0
M  V30 8382 H 775.852 -4.44037 3.24208 0
M  V30 8383 H 777.077 -5.52836 3.94397 0
M  V30 8384 H 775.023 -6.29783 1.836 0
M  V30 8385 H 774.94 -6.68931 3.52231 0
M  V30 8386 H 776.208 -7.36764 2.54558 0
M  V30 8387 N 780.437 -1.16799 -1.0581 0
M  V30 8388 C 781.683 -0.953935 -1.78963 0
M  V30 8389 C 782.016 0.516638 -1.87202 0
M  V30 8390 O 781.291 1.38338 -1.36721 0
M  V30 8391 C 781.574 -1.58808 -3.23191 0
M  V30 8392 C 781.427 -3.13032 -3.23003 0
M  V30 8393 C 782.746 -1.2868 -4.20867 0
M  V30 8394 H 779.865 -0.347972 -0.64968 0
M  V30 8395 H 782.507 -1.44204 -1.23715 0
M  V30 8396 H 780.657 -1.17303 -3.70368 0
M  V30 8397 H 782.329 -3.63553 -2.83949 0
M  V30 8398 H 780.572 -3.46108 -2.61518 0
M  V30 8399 H 781.243 -3.52527 -4.24769 0
M  V30 8400 H 783.719 -1.6461 -3.82155 0
M  V30 8401 H 782.595 -1.75645 -5.20038 0
M  V30 8402 H 782.856 -0.206491 -4.41618 0
M  V30 8403 N 781.915 1.24427 -0.967243 0
M  V30 8404 C 783.161 1.92772 -0.629812 0
M  V30 8405 C 783.494 1.75436 0.832827 0
M  V30 8406 O 782.769 1.10716 1.59913 0
M  V30 8407 C 783.052 3.45798 -1.00477 0
M  V30 8408 C 782.905 3.72304 -2.52407 0
M  V30 8409 C 784.224 4.36787 -0.538999 0
M  V30 8410 H 781.343 0.700099 -0.230282 0
M  V30 8411 H 783.985 1.46805 -1.20616 0
M  V30 8412 H 782.135 3.8508 -0.514336 0
M  V30 8413 H 783.807 3.42584 -3.08924 0
M  V30 8414 H 782.05 3.17472 -2.95625 0
M  V30 8415 H 782.721 4.7937 -2.73693 0
M  V30 8416 H 785.197 4.04877 -0.959874 0
M  V30 8417 H 784.073 5.4259 -0.829926 0
M  V30 8418 H 784.334 4.38527 0.560923 0
M  V30 8419 N 783.393 0.737304 1.3929 0
M  V30 8420 C 784.341 0.0879867 2.32434 0
M  V30 8421 C 785.335 -0.723324 1.53181 0
M  V30 8422 O 786.541 -0.624251 1.68829 0
M  V30 8423 H 782.916 0.00965277 0.751938 0
M  V30 8424 H 784.887 0.889915 2.84821 0
M  V30 8425 C 783.636 -0.803384 3.38291 0
M  V30 8426 H 782.959 -0.18849 3.99355 0
M  V30 8427 H 784.399 -1.22528 4.0591 0
M  V30 8428 C 782.858 -1.93872 2.75527 0
M  V30 8429 O 783.388 -3.03154 2.63553 0
M  V30 8430 N 781.594 -1.72883 2.3358 0
M  V30 8431 H 781.141 -0.840005 2.43519 0
M  V30 8432 H 781.099 -2.49021 1.91927 0
M  V30 8433 N 784.871 -1.49948 0.485112 0
M  V30 8434 C 786.148 -1.95186 -0.12726 0
M  V30 8435 C 786.528 -1.42605 -1.5565 0
M  V30 8436 O 785.876 -0.632986 -2.19558 0
M  V30 8437 C 786.086 -3.48955 -0.0562117 0
M  V30 8438 C 787.434 -4.23932 -0.238106 0
M  V30 8439 O 788.458 -3.55955 -0.132145 0
M  V30 8440 O 787.317 -5.44614 -0.453658 0
M  V30 8441 H 784.411 -0.820433 -0.104014 0
M  V30 8442 H 786.957 -1.60659 0.546517 0
M  V30 8443 H 785.729 -3.79814 0.941122 0
M  V30 8444 H 785.352 -3.90056 -0.770834 0
M  V30 8445 N 786.349 -0.21828 -1.56081 0
M  V30 8446 C 787.296 0.693189 -2.20144 0
M  V30 8447 C 788.266 1.19274 -1.15598 0
M  V30 8448 O 789.451 1.25243 -1.4394 0
M  V30 8449 C 786.591 1.89715 -2.88275 0
M  V30 8450 C 785.704 1.4368 -4.07407 0
M  V30 8451 C 784.839 2.59807 -4.63329 0
M  V30 8452 C 783.878 2.10492 -5.74769 0
M  V30 8453 N 783.015 3.1988 -6.24997 0
M  V30 8454 H 787.855 0.14016 -2.9767 0
M  V30 8455 H 785.392 0.0574292 -1.46988 0
M  V30 8456 H 787.35 2.60398 -3.25958 0
M  V30 8457 H 785.98 2.42311 -2.13273 0
M  V30 8458 H 785.032 0.625007 -3.7523 0
M  V30 8459 H 786.344 1.03517 -4.8794 0
M  V30 8460 H 785.498 3.38577 -5.03438 0
M  V30 8461 H 784.237 3.03256 -3.81951 0
M  V30 8462 H 783.242 1.30182 -5.34165 0
M  V30 8463 H 784.467 1.68045 -6.5798 0
M  V30 8464 H 782.413 3.62817 -5.46534 0
M  V30 8465 H 782.33 2.83958 -7.00645 0
M  V30 8466 H 783.598 3.98796 -6.69763 0
M  V30 8467 N 787.827 1.57504 0.0551401 0
M  V30 8468 C 789.104 1.79155 0.785048 0
M  V30 8469 C 789.484 0.809995 1.94942 0
M  V30 8470 O 788.832 -0.153432 2.27984 0
M  V30 8471 C 789.042 3.26134 1.24247 0
M  V30 8472 C 790.39 3.90419 1.66908 0
M  V30 8473 O 791.414 3.30126 1.33772 0
M  V30 8474 O 790.273 4.96523 2.28314 0
M  V30 8475 H 787.367 0.735825 0.377479 0
M  V30 8476 H 789.913 1.69666 0.0339285 0
M  V30 8477 H 788.685 3.89145 0.410089 0
M  V30 8478 H 788.308 3.40411 2.05441 0
M  V30 8479 N 789.305 -0.326896 1.54172 0
M  V30 8480 C 790.252 -1.40216 1.83325 0
M  V30 8481 C 791.222 -1.51538 0.680107 0
M  V30 8482 O 792.407 -1.66811 0.926206 0
M  V30 8483 C 789.547 -2.76626 2.0633 0
M  V30 8484 C 788.66 -2.73963 3.34019 0
M  V30 8485 C 787.795 -4.02198 3.47002 0
M  V30 8486 C 786.834 -3.93828 4.68578 0
M  V30 8487 N 785.971 -5.13787 4.78506 0
M  V30 8488 H 790.811 -1.14656 2.7506 0
M  V30 8489 H 788.348 -0.555089 1.36225 0
M  V30 8490 H 790.306 -3.55922 2.17659 0
M  V30 8491 H 788.936 -3.00503 1.1789 0
M  V30 8492 H 787.988 -1.86677 3.31445 0
M  V30 8493 H 789.3 -2.6366 4.2342 0
M  V30 8494 H 788.454 -4.89923 3.57855 0
M  V30 8495 H 787.193 -4.15302 2.55687 0
M  V30 8496 H 786.198 -3.04487 4.57786 0
M  V30 8497 H 787.423 -3.82292 5.61275 0
M  V30 8498 H 785.369 -5.27403 3.90105 0
M  V30 8499 H 785.286 -5.05807 5.61868 0
M  V30 8500 H 786.554 -6.03236 4.93686 0
M  V30 8501 N 790.784 -1.46188 -0.588786 0
M  V30 8502 C 791.716 -1.52319 -1.71265 0
M  V30 8503 C 792.729 -0.412096 -1.57498 0
M  V30 8504 O 793.918 -0.680146 -1.65034 0
M  V30 8505 C 791.018 -1.38164 -3.09458 0
M  V30 8506 C 790.191 -2.63284 -3.49286 0
M  V30 8507 C 789.25 -2.43415 -4.66514 0
M  V30 8508 O 788.276 -3.17113 -4.72682 0
M  V30 8509 N 789.478 -1.49187 -5.61002 0
M  V30 8510 H 792.243 -2.49219 -1.66463 0
M  V30 8511 H 789.804 -1.42167 -0.774601 0
M  V30 8512 H 791.796 -1.22653 -3.85666 0
M  V30 8513 H 790.366 -0.494678 -3.08661 0
M  V30 8514 H 789.586 -2.93779 -2.62845 0
M  V30 8515 H 790.874 -3.46413 -3.7266 0
M  V30 8516 H 790.272 -0.884027 -5.5875 0
M  V30 8517 H 788.829 -1.39642 -6.36666 0
M  V30 8518 N 792.262 0.832906 -1.33792 0
M  V30 8519 C 793.194 1.95042 -1.2038 0
M  V30 8520 C 794.207 1.62253 -0.133299 0
M  V30 8521 O 795.396 1.74315 -0.384261 0
M  V30 8522 C 792.496 3.287 -0.825215 0
M  V30 8523 C 791.669 3.89581 -1.98861 0
M  V30 8524 C 790.728 5.01602 -1.59003 0
M  V30 8525 O 789.754 5.20431 -2.30522 0
M  V30 8526 N 790.956 5.78356 -0.498446 0
M  V30 8527 H 793.721 2.07083 -2.16649 0
M  V30 8528 H 791.282 1.00896 -1.26616 0
M  V30 8529 H 793.274 4.01074 -0.540559 0
M  V30 8530 H 791.844 3.12565 0.0469796 0
M  V30 8531 H 791.064 3.09723 -2.43856 0
M  V30 8532 H 792.352 4.26989 -2.76691 0
M  V30 8533 H 791.75 5.65618 0.0963297 0
M  V30 8534 H 790.307 6.51226 -0.273485 0
M  V30 8535 N 793.74 1.17359 1.05189 0
M  V30 8536 C 794.688 0.886527 2.15043 0
M  V30 8537 C 795.682 -0.148834 1.68745 0
M  V30 8538 O 796.888 -0.00175123 1.8 0
M  V30 8539 H 793.263 0.269147 0.702185 0
M  V30 8540 H 795.234 1.82016 2.36459 0
M  V30 8541 C 793.983 0.416333 3.45198 0
M  V30 8542 H 793.306 1.20449 3.81225 0
M  V30 8543 H 794.746 0.254362 4.23236 0
M  V30 8544 C 793.205 -0.866016 3.25579 0
M  V30 8545 O 793.735 -1.9328 3.52144 0
M  V30 8546 N 791.941 -0.814179 2.78961 0
M  V30 8547 H 791.488 0.0541618 2.57543 0
M  V30 8548 H 791.446 -1.67264 2.66214 0
M  V30 8549 N 795.218 -1.23913 0.973828 0
M  V30 8550 C 796.443 -1.96735 0.656511 0
M  V30 8551 C 796.868 -1.71682 -0.768571 0
M  V30 8552 O 796.226 -0.984267 -1.52256 0
M  V30 8553 C 796.274 -3.48004 0.944735 0
M  V30 8554 O 795.378 -4.12387 0.0333357 0
M  V30 8555 H 794.719 -0.616119 0.247575 0
M  V30 8556 H 797.249 -1.57525 1.30564 0
M  V30 8557 H 797.259 -3.98424 0.87876 0
M  V30 8558 H 795.934 -3.65567 1.98328 0
M  V30 8559 H 794.511 -3.72585 0.153157 0
M  V30 8560 N 796.696 -0.74468 -1.38897 0
M  V30 8561 C 797.942 -0.306249 -2.01081 0
M  V30 8562 C 798.297 1.09724 -1.58046 0
M  V30 8563 O 797.59 1.73923 -0.803834 0
M  V30 8564 C 797.784 -0.357302 -3.55609 0
M  V30 8565 C 797.613 -1.76421 -4.13649 0
M  V30 8566 C 796.383 -2.3787 -4.4581 0
M  V30 8567 C 798.581 -2.71942 -4.36523 0
M  V30 8568 N 796.563 -3.70614 -4.89406 0
M  V30 8569 C 797.934 -3.89437 -4.8243 0
M  V30 8570 C 799.989 -2.69579 -4.18607 0
M  V30 8571 C 798.692 -5.04917 -5.123 0
M  V30 8572 C 800.718 -3.8421 -4.49596 0
M  V30 8573 C 800.08 -5.00442 -4.95719 0
M  V30 8574 H 796.179 -0.158531 -0.765762 0
M  V30 8575 H 798.763 -0.972726 -1.6866 0
M  V30 8576 H 796.934 0.278865 -3.87398 0
M  V30 8577 H 798.666 0.100599 -4.04575 0
M  V30 8578 H 795.421 -1.8971 -4.33943 0
M  V30 8579 H 795.845 -4.38791 -5.1555 0
M  V30 8580 H 800.487 -1.80905 -3.82143 0
M  V30 8581 H 798.205 -5.94213 -5.47665 0
M  V30 8582 H 801.791 -3.83691 -4.37347 0
M  V30 8583 H 800.671 -5.87671 -5.19242 0
M  V30 8584 N 798.174 1.49689 -0.493057 0
M  V30 8585 C 799.104 2.31826 0.279073 0
M  V30 8586 C 800.085 1.39733 0.969987 0
M  V30 8587 O 801.27 1.68646 0.962925 0
M  V30 8588 C 798.4 3.20046 1.34862 0
M  V30 8589 C 797.354 4.20869 0.77805 0
M  V30 8590 C 796.68 4.97971 1.94753 0
M  V30 8591 C 797.98 5.21813 -0.225543 0
M  V30 8592 H 799.674 2.96627 -0.406512 0
M  V30 8593 H 797.22 1.42647 -0.196943 0
M  V30 8594 H 799.173 3.76315 1.89645 0
M  V30 8595 H 797.897 2.53172 2.06328 0
M  V30 8596 H 796.556 3.65733 0.252036 0
M  V30 8597 H 796.204 4.27552 2.64969 0
M  V30 8598 H 795.904 5.66186 1.57187 0
M  V30 8599 H 797.428 5.57082 2.49984 0
M  V30 8600 H 798.842 5.72823 0.233864 0
M  V30 8601 H 797.239 5.97872 -0.516622 0
M  V30 8602 H 798.309 4.71209 -1.14412 0
M  V30 8603 N 799.652 0.226554 1.55963 0
M  V30 8604 C 801.063 -0.280381 1.84583 0
M  V30 8605 C 801.414 -1.59105 1.14804 0
M  V30 8606 O 800.539 -2.12297 0.419414 0
M  V30 8607 C 801.134 -0.515499 3.34855 0
M  V30 8608 C 799.693 -0.966733 3.63774 0
M  V30 8609 C 798.84 -0.0325753 2.77281 0
M  V30 8610 H 801.791 0.449626 1.52197 0
M  V30 8611 H 801.812 -1.36085 3.55332 0
M  V30 8612 H 801.324 0.438594 3.85614 0
M  V30 8613 H 799.425 -1.93401 3.18476 0
M  V30 8614 H 799.538 -0.837679 4.7172 0
M  V30 8615 H 797.902 -0.540279 2.48904 0
M  V30 8616 H 798.685 0.916524 3.30839 0
M  V30 8617 N 801.13 -1.57531 -0.0467866 0
M  V30 8618 C 802.093 -2.04379 -1.03738 0
M  V30 8619 C 803.093 -0.944881 -1.3011 0
M  V30 8620 O 804.283 -1.20904 -1.25411 0
M  V30 8621 C 801.415 -2.44572 -2.37482 0
M  V30 8622 H 802.608 -2.93142 -0.633063 0
M  V30 8623 H 800.161 -1.53526 -0.293177 0
M  V30 8624 H 800.896 -1.58911 -2.82697 0
M  V30 8625 H 800.681 -3.24785 -2.19675 0
M  V30 8626 H 802.171 -2.81307 -3.08636 0
M  V30 8627 N 802.608 0.318715 -1.54344 0
M  V30 8628 C 803.556 1.41254 -1.84798 0
M  V30 8629 C 804.55 1.53325 -0.720256 0
M  V30 8630 O 805.756 1.55653 -0.903992 0
M  V30 8631 H 802.131 0.471468 -0.585851 0
M  V30 8632 H 804.102 1.12795 -2.7626 0
M  V30 8633 C 802.851 2.77395 -2.09637 0
M  V30 8634 H 802.174 2.68881 -2.95876 0
M  V30 8635 H 803.614 3.52987 -2.34896 0
M  V30 8636 C 802.073 3.24948 -0.889398 0
M  V30 8637 O 802.603 4.01573 -0.101063 0
M  V30 8638 N 800.809 2.82051 -0.699684 0
M  V30 8639 H 800.356 2.19858 -1.3424 0
M  V30 8640 H 800.314 3.1422 0.106368 0
M  V30 8641 N 804.086 1.46499 0.581025 0
M  V30 8642 C 805.334 1.51596 1.33653 0
M  V30 8643 C 805.655 0.169859 1.94259 0
M  V30 8644 O 804.925 -0.803776 1.78651 0
M  V30 8645 H 803.505 0.558346 0.496244 0
M  V30 8646 H 806.167 1.8264 0.680338 0
M  V30 8647 H 805.263 2.26956 2.14237 0
M  V30 8648 N 805.565 -0.825799 1.34232 0
M  V30 8649 C 806.495 -1.95151 1.28212 0
M  V30 8650 C 807.476 -1.69345 0.160123 0
M  V30 8651 O 808.661 -1.90983 0.352019 0
M  V30 8652 C 805.791 -3.31554 1.03388 0
M  V30 8653 C 804.745 -3.71793 2.12023 0
M  V30 8654 C 804.071 -5.06147 1.72392 0
M  V30 8655 C 805.371 -3.84193 3.53826 0
M  V30 8656 H 807.065 -2.00445 2.22401 0
M  V30 8657 H 804.611 -0.962996 1.07063 0
M  V30 8658 H 806.564 -4.09889 0.978225 0
M  V30 8659 H 805.288 -3.26551 0.0564142 0
M  V30 8660 H 803.947 -2.95731 2.16654 0
M  V30 8661 H 803.595 -4.97628 0.733137 0
M  V30 8662 H 803.295 -5.34041 2.451 0
M  V30 8663 H 804.819 -5.86943 1.68317 0
M  V30 8664 H 806.233 -4.52806 3.51624 0
M  V30 8665 H 804.63 -4.23538 4.2513 0
M  V30 8666 H 805.7 -2.86272 3.91377 0
M  V30 8667 N 807.043 -1.17915 -1.04565 0
M  V30 8668 C 808.29 -0.971424 -1.77678 0
M  V30 8669 C 808.618 0.499401 -1.87979 0
M  V30 8670 O 807.873 1.38695 -1.38066 0
M  V30 8671 C 808.172 -1.56528 -3.213 0
M  V30 8672 C 807.838 -3.06138 -3.31044 0
M  V30 8673 C 806.5 -3.46974 -3.33411 0
M  V30 8674 C 808.852 -4.02151 -3.31548 0
M  V30 8675 C 806.18 -4.82406 -3.33918 0
M  V30 8676 C 808.532 -5.37492 -3.33595 0
M  V30 8677 C 807.196 -5.77782 -3.34251 0
M  V30 8678 H 806.466 -0.355469 -0.650171 0
M  V30 8679 H 809.113 -1.46902 -1.22849 0
M  V30 8680 H 807.418 -0.98955 -3.79098 0
M  V30 8681 H 809.115 -1.38003 -3.76505 0
M  V30 8682 H 805.705 -2.73589 -3.29919 0
M  V30 8683 H 809.889 -3.71656 -3.28916 0
M  V30 8684 H 805.145 -5.12927 -3.3274 0
M  V30 8685 H 809.319 -6.1166 -3.32934 0
M  V30 8686 H 806.946 -6.82702 -3.34397 0
M  V30 8687 N 808.521 1.23394 -0.980386 0
M  V30 8688 C 809.932 1.73631 -0.686239 0
M  V30 8689 C 810.283 1.79259 0.797541 0
M  V30 8690 O 809.408 1.43046 1.62379 0
M  V30 8691 C 810.003 3.15332 -1.239 0
M  V30 8692 C 808.562 3.63024 -0.994494 0
M  V30 8693 C 807.709 2.41279 -1.36673 0
M  V30 8694 H 810.66 1.08918 -1.15423 0
M  V30 8695 H 810.681 3.75556 -0.611414 0
M  V30 8696 H 810.193 3.11204 -2.31892 0
M  V30 8697 H 808.294 3.72535 0.0693492 0
M  V30 8698 H 808.407 4.49825 -1.64906 0
M  V30 8699 H 806.771 2.42295 -0.785195 0
M  V30 8700 H 807.554 2.39822 -2.45642 0
M  V30 8701 N 809.999 0.752036 1.385 0
M  V30 8702 C 810.946 0.123288 2.3047 0
M  V30 8703 C 811.916 -0.711326 1.50098 0
M  V30 8704 O 813.101 -0.667775 1.78733 0
M  V30 8705 C 810.241 -0.765085 3.36512 0
M  V30 8706 C 809.354 0.0839885 4.31918 0
M  V30 8707 C 808.489 -0.807243 5.25031 0
M  V30 8708 C 807.528 0.0455583 6.12083 0
M  V30 8709 N 806.665 -0.802547 6.97498 0
M  V30 8710 H 811.505 0.913169 2.83664 0
M  V30 8711 H 809.042 0.46195 1.39658 0
M  V30 8712 H 811 -1.29476 3.966 0
M  V30 8713 H 809.63 -1.52077 2.84732 0
M  V30 8714 H 808.682 0.731276 3.73305 0
M  V30 8715 H 809.994 0.74265 4.9324 0
M  V30 8716 H 809.148 -1.40414 5.90228 0
M  V30 8717 H 807.887 -1.49964 4.64071 0
M  V30 8718 H 806.892 0.655137 5.45883 0
M  V30 8719 H 808.117 0.734994 6.75111 0
M  V30 8720 H 806.063 -1.47992 6.39089 0
M  V30 8721 H 805.98 -0.200747 7.55733 0
M  V30 8722 H 807.248 -1.38447 7.67107 0
M  V30 8723 N 811.477 -1.49425 0.500989 0
M  V30 8724 C 812.424 -2.29126 -0.277443 0
M  V30 8725 C 813.394 -1.35522 -0.960363 0
M  V30 8726 O 814.579 -1.64479 -0.967027 0
M  V30 8727 C 811.719 -3.18193 -1.33593 0
M  V30 8728 C 810.832 -4.26854 -0.664791 0
M  V30 8729 C 809.967 -5.03137 -1.70372 0
M  V30 8730 C 809.006 -6.03635 -1.01445 0
M  V30 8731 N 808.143 -6.73083 -1.99758 0
M  V30 8732 H 812.983 -2.95187 0.408458 0
M  V30 8733 H 810.52 -1.45546 0.213275 0
M  V30 8734 H 812.478 -3.68207 -1.96161 0
M  V30 8735 H 811.108 -2.54116 -1.9906 0
M  V30 8736 H 810.16 -3.80328 0.0741708 0
M  V30 8737 H 811.472 -4.9865 -0.122197 0
M  V30 8738 H 810.626 -5.5702 -2.40445 0
M  V30 8739 H 809.365 -4.31114 -2.28017 0
M  V30 8740 H 808.37 -5.48984 -0.299496 0
M  V30 8741 H 809.595 -6.77644 -0.444497 0
M  V30 8742 H 807.541 -6.03832 -2.56365 0
M  V30 8743 H 807.458 -7.40855 -1.50565 0
M  V30 8744 H 808.726 -7.3157 -2.69119 0
M  V30 8745 N 812.955 -0.234822 -1.55841 0
M  V30 8746 C 814.202 0.39326 -1.98645 0
M  V30 8747 C 814.53 1.58823 -1.12274 0
M  V30 8748 O 813.785 1.94954 -0.170731 0
M  V30 8749 C 814.084 0.858032 -3.46947 0
M  V30 8750 C 813.75 -0.227858 -4.50324 0
M  V30 8751 C 812.412 -0.526128 -4.78315 0
M  V30 8752 C 814.764 -0.961576 -5.12253 0
M  V30 8753 C 812.092 -1.5624 -5.65514 0
M  V30 8754 C 814.444 -1.98728 -6.00575 0
M  V30 8755 C 813.108 -2.29233 -6.26904 0
M  V30 8756 H 812.378 0.143904 -0.726892 0
M  V30 8757 H 815.025 -0.34012 -1.88455 0
M  V30 8758 H 813.33 1.67041 -3.54408 0
M  V30 8759 H 815.027 1.35407 -3.77447 0
M  V30 8760 H 811.617 0.0147624 -4.28597 0
M  V30 8761 H 815.801 -0.744388 -4.90686 0
M  V30 8762 H 811.057 -1.80422 -5.84173 0
M  V30 8763 H 815.231 -2.5608 -6.47608 0
M  V30 8764 H 812.858 -3.09671 -6.94268 0
M  V30 8765 N 814.433 1.57553 0.0384317 0
M  V30 8766 C 815.682 1.88022 0.730108 0
M  V30 8767 C 815.995 0.83209 1.77019 0
M  V30 8768 O 817.201 1.0257 2.51379 0
M  V30 8769 C 815.657 3.33637 1.3496 0
M  V30 8770 C 815.265 4.46659 0.346352 0
M  V30 8771 C 817.009 3.73266 2.02169 0
M  V30 8772 C 814.916 5.8333 0.973652 0
M  V30 8773 H 813.846 0.701496 0.276442 0
M  V30 8774 H 816.497 1.83493 -0.0158028 0
M  V30 8775 H 814.879 3.32882 2.1449 0
M  V30 8776 H 816.053 4.58868 -0.421558 0
M  V30 8777 H 814.368 4.15802 -0.223133 0
M  V30 8778 H 816.965 4.72689 2.49938 0
M  V30 8779 H 817.308 3.04776 2.8358 0
M  V30 8780 H 817.841 3.76156 1.29427 0
M  V30 8781 H 814.58 6.55197 0.199163 0
M  V30 8782 H 814.1 5.7486 1.71162 0
M  V30 8783 H 815.779 6.29757 1.48376 0
M  V30 8784 N 815.911 -0.310526 1.54511 0
M  V30 8785 C 817.136 -1.07046 1.7764 0
M  V30 8786 C 817.561 -1.80488 0.529696 0
M  V30 8787 O 816.919 -1.73702 -0.519361 0
M  V30 8788 C 816.967 -2.03411 2.97752 0
M  V30 8789 O 816.071 -3.11545 2.7021 0
M  V30 8790 H 815.412 -0.307994 0.588248 0
M  V30 8791 H 817.942 -0.350848 2.01569 0
M  V30 8792 H 817.952 -2.46048 3.2546 0
M  V30 8793 H 816.627 -1.49361 3.88155 0
M  V30 8794 H 815.204 -2.7349 2.53491 0
M  V30 8795 N 817.389 -1.46805 -0.573248 0
M  V30 8796 C 818.299 -1.60687 -1.70929 0
M  V30 8797 C 819.315 -0.490084 -1.66956 0
M  V30 8798 O 820.491 -0.755482 -1.86693 0
M  V30 8799 C 817.556 -1.60259 -3.07438 0
M  V30 8800 C 816.617 -2.83242 -3.22603 0
M  V30 8801 C 815.85 -2.82825 -4.52599 0
M  V30 8802 O 816.073 -1.92113 -5.37074 0
M  V30 8803 O 815.007 -3.74489 -4.71213 0
M  V30 8804 H 818.833 -2.56782 -1.62163 0
M  V30 8805 H 816.418 -1.29706 -0.741399 0
M  V30 8806 H 818.3 -1.6275 -3.88704 0
M  V30 8807 H 816.975 -0.673268 -3.16621 0
M  V30 8808 H 815.882 -2.86302 -2.40794 0
M  V30 8809 H 817.215 -3.75415 -3.18315 0
M  V30 8810 N 818.867 0.818669 -1.34668 0
M  V30 8811 C 819.814 1.92983 -1.26595 0
M  V30 8812 C 820.784 1.65506 -0.140315 0
M  V30 8813 O 821.969 1.88063 -0.322005 0
M  V30 8814 C 819.109 3.2932 -1.03163 0
M  V30 8815 C 818.222 3.69061 -2.24539 0
M  V30 8816 C 817.357 4.94368 -1.94355 0
M  V30 8817 C 816.396 5.26702 -3.11851 0
M  V30 8818 N 815.533 6.43187 -2.81522 0
M  V30 8819 H 820.373 1.99219 -2.2162 0
M  V30 8820 H 817.91 0.974612 -1.1018 0
M  V30 8821 H 819.868 4.07897 -0.87613 0
M  V30 8822 H 818.498 3.22584 -0.118045 0
M  V30 8823 H 817.55 2.85842 -2.50995 0
M  V30 8824 H 818.862 3.88924 -3.12313 0
M  V30 8825 H 818.016 5.80742 -1.75566 0
M  V30 8826 H 816.755 4.76515 -1.03848 0
M  V30 8827 H 815.76 4.38823 -3.31231 0
M  V30 8828 H 816.985 5.46492 -4.03142 0
M  V30 8829 H 814.931 6.26783 -1.93596 0
M  V30 8830 H 814.848 6.63243 -3.62829 0
M  V30 8831 H 816.116 7.32621 -2.66247 0
M  V30 8832 N 820.346 1.18468 1.03938 0
M  V30 8833 C 821.592 0.992302 1.77553 0
M  V30 8834 C 821.947 -0.472959 1.86496 0
M  V30 8835 O 821.24 -1.34662 1.36296 0
M  V30 8836 C 821.434 1.58229 3.20466 0
M  V30 8837 C 821.263 3.1034 3.25452 0
M  V30 8838 C 820.033 3.79166 3.34008 0
M  V30 8839 C 822.231 4.07814 3.13357 0
M  V30 8840 N 820.213 5.18768 3.28258 0
M  V30 8841 C 821.584 5.33946 3.15121 0
M  V30 8842 C 823.639 3.99315 2.97409 0
M  V30 8843 C 822.342 6.52565 3.02574 0
M  V30 8844 C 824.368 5.17532 2.86208 0
M  V30 8845 C 823.73 6.42557 2.88617 0
M  V30 8846 H 819.829 0.417131 0.661457 0
M  V30 8847 H 822.413 1.50265 1.23808 0
M  V30 8848 H 820.584 1.0981 3.72554 0
M  V30 8849 H 822.316 1.32531 3.82384 0
M  V30 8850 H 819.071 3.29905 3.39794 0
M  V30 8851 H 819.495 5.91783 3.28818 0
M  V30 8852 H 824.137 3.03485 2.94375 0
M  V30 8853 H 821.855 7.48592 3.0436 0
M  V30 8854 H 825.441 5.12748 2.7492 0
M  V30 8855 H 824.321 7.32494 2.80039 0
M  V30 8856 N 821.824 -1.22873 0.986916 0
M  V30 8857 C 823.071 -1.91462 0.659424 0
M  V30 8858 C 823.399 -1.76931 -0.807825 0
M  V30 8859 O 822.654 -1.12829 -1.59901 0
M  V30 8860 C 822.953 -3.43014 1.00379 0
M  V30 8861 C 822.619 -3.77731 2.46232 0
M  V30 8862 C 821.281 -3.86918 2.86091 0
M  V30 8863 C 823.633 -3.94343 3.40798 0
M  V30 8864 C 820.961 -4.10149 4.19518 0
M  V30 8865 C 823.313 -4.19076 4.73875 0
M  V30 8866 C 821.977 -4.26486 5.13484 0
M  V30 8867 H 821.247 -0.700611 0.2413 0
M  V30 8868 H 823.894 -1.45763 1.24199 0
M  V30 8869 H 822.199 -3.90329 0.339226 0
M  V30 8870 H 823.896 -3.94327 0.728518 0
M  V30 8871 H 820.486 -3.71159 2.14334 0
M  V30 8872 H 824.67 -3.86629 3.11178 0
M  V30 8873 H 819.926 -4.1411 4.49803 0
M  V30 8874 H 824.1 -4.30873 5.47102 0
M  V30 8875 H 821.727 -4.4424 6.16891 0
M  V30 8876 N 823.302 -0.75937 -1.38099 0
M  V30 8877 C 824.579 -0.243371 -1.9408 0
M  V30 8878 C 824.959 1.25942 -1.69416 0
M  V30 8879 O 824.307 2.03667 -1.03595 0
M  V30 8880 C 824.517 -0.603328 -3.43745 0
M  V30 8881 C 825.865 -0.566195 -4.20808 0
M  V30 8882 O 826.889 -0.541969 -3.52053 0
M  V30 8883 O 825.748 -0.582261 -5.43389 0
M  V30 8884 H 822.842 -0.0526825 -0.82532 0
M  V30 8885 H 825.388 -0.839884 -1.47459 0
M  V30 8886 H 824.16 -1.64098 -3.55229 0
M  V30 8887 H 823.783 0.0208887 -3.97595 0
M  V30 8888 N 824.78 1.49157 -0.508906 0
M  V30 8889 C 826.026 2.02773 0.0328469 0
M  V30 8890 C 826.359 1.38714 1.35912 0
M  V30 8891 O 825.634 0.525536 1.87266 0
M  V30 8892 C 825.917 3.59664 0.177088 0
M  V30 8893 C 825.77 4.34239 -1.17287 0
M  V30 8894 C 827.089 4.30505 0.913977 0
M  V30 8895 H 824.208 0.736926 0.0104631 0
M  V30 8896 H 826.85 1.781 -0.661851 0
M  V30 8897 H 825 3.80818 0.768774 0
M  V30 8898 H 826.672 4.24561 -1.80404 0
M  V30 8899 H 824.915 3.96486 -1.76016 0
M  V30 8900 H 825.586 5.42397 -1.02516 0
M  V30 8901 H 828.062 4.14054 0.412084 0
M  V30 8902 H 826.938 5.40012 0.983759 0
M  V30 8903 H 827.199 3.96302 1.95951 0
M  V30 8904 N 826.258 0.243083 1.55714 0
M  V30 8905 C 827.498 -0.384303 2.00755 0
M  V30 8906 C 827.862 -1.55406 1.12752 0
M  V30 8907 O 829.063 -2.24892 1.47231 0
M  V30 8908 C 827.334 -0.787419 3.48618 0
M  V30 8909 S 828.893 -1.40587 4.15669 0
M  V30 8910 H 825.711 -0.121088 0.700613 0
M  V30 8911 H 828.313 0.357423 1.92205 0
M  V30 8912 H 827.017 0.0732892 4.10335 0
M  V30 8913 H 826.548 -1.56142 3.61086 0
M  V30 8914 H 828.563 -2.69493 4.16639 0
M  V30 8915 N 827.736 -1.57571 -0.0300757 0
M  V30 8916 C 829.013 -1.80381 -0.756447 0
M  V30 8917 C 829.393 -0.840906 -1.93628 0
M  V30 8918 O 828.741 0.117143 -2.282 0
M  V30 8919 C 828.951 -3.2807 -1.19043 0
M  V30 8920 C 830.299 -3.93025 -1.60676 0
M  V30 8921 O 831.323 -3.32213 -1.28503 0
M  V30 8922 O 830.182 -5.00092 -2.20386 0
M  V30 8923 H 827.276 -0.741737 -0.365725 0
M  V30 8924 H 829.822 -1.69699 -0.00693177 0
M  V30 8925 H 828.594 -3.89748 -0.348128 0
M  V30 8926 H 828.217 -3.43637 -1.99999 0
M  V30 8927 N 829.214 0.302327 -1.54673 0
M  V30 8928 C 830.46 1.03924 -1.74149 0
M  V30 8929 C 830.793 1.86968 -0.525041 0
M  V30 8930 O 830.068 1.88538 0.477868 0
M  V30 8931 C 830.351 1.94633 -3.02969 0
M  V30 8932 C 830.204 1.14778 -4.34909 0
M  V30 8933 C 831.523 2.93826 -3.27649 0
M  V30 8934 H 828.642 0.376405 -0.633631 0
M  V30 8935 H 831.284 0.314007 -1.87387 0
M  V30 8936 H 829.434 2.56471 -2.91813 0
M  V30 8937 H 831.106 0.552363 -4.57981 0
M  V30 8938 H 829.349 0.450462 -4.31455 0
M  V30 8939 H 830.02 1.81495 -5.21309 0
M  V30 8940 H 832.496 2.42117 -3.38406 0
M  V30 8941 H 831.372 3.54462 -4.19104 0
M  V30 8942 H 831.633 3.67416 -2.45882 0
M  V30 8943 N 830.692 1.47107 0.565454 0
M  V30 8944 C 831.642 1.55384 1.66852 0
M  V30 8945 C 832.626 0.413369 1.55499 0
M  V30 8946 O 833.818 0.66281 1.64121 0
M  V30 8947 C 830.947 1.5634 3.05635 0
M  V30 8948 C 830.033 2.75742 3.22222 0
M  V30 8949 N 830.424 4.00515 3.08903 0
M  V30 8950 C 828.722 2.7233 3.53203 0
M  V30 8951 C 829.423 4.80435 3.27959 0
M  V30 8952 N 828.399 4.1261 3.53913 0
M  V30 8953 H 832.201 2.49635 1.55111 0
M  V30 8954 H 829.715 1.42986 0.769982 0
M  V30 8955 H 831.712 1.60359 3.84825 0
M  V30 8956 H 830.372 0.631785 3.18494 0
M  V30 8957 H 831.383 4.31501 2.86404 0
M  V30 8958 H 828.06 1.8827 3.7264 0
M  V30 8959 H 829.45 5.89334 3.22699 0
M  V30 8960 N 832.17 -0.811516 1.35101 0
M  V30 8961 C 833.419 -1.56343 1.27435 0
M  V30 8962 C 833.732 -1.95019 -0.150696 0
M  V30 8963 O 834.938 -2.6924 -0.349586 0
M  V30 8964 C 833.394 -2.82124 2.23459 0
M  V30 8965 C 833.002 -2.50706 3.71283 0
M  V30 8966 C 834.746 -3.60137 2.24726 0
M  V30 8967 C 832.653 -3.72748 4.59143 0
M  V30 8968 H 831.583 -0.58682 0.473453 0
M  V30 8969 H 834.234 -0.892465 1.60335 0
M  V30 8970 H 832.616 -3.50905 1.83525 0
M  V30 8971 H 833.79 -1.89962 4.19823 0
M  V30 8972 H 832.105 -1.85947 3.72576 0
M  V30 8973 H 834.702 -4.50775 2.87587 0
M  V30 8974 H 835.045 -3.97101 1.24965 0
M  V30 8975 H 835.578 -2.98311 2.63164 0
M  V30 8976 H 832.317 -3.40896 5.59884 0
M  V30 8977 H 831.837 -4.32735 4.15332 0
M  V30 8978 H 833.516 -4.40033 4.74321 0
M  V30 8979 N 833.648 -1.19017 -1.03309 0
M  V30 8980 C 834.873 -1.01598 -1.80811 0
M  V30 8981 C 835.298 0.430773 -1.83101 0
M  V30 8982 O 834.656 1.30946 -1.25391 0
M  V30 8983 C 834.704 -1.5845 -3.23923 0
M  V30 8984 O 833.808 -0.810972 -4.04348 0
M  V30 8985 H 833.149 -0.359398 -0.558327 0
M  V30 8986 H 835.679 -1.57945 -1.30055 0
M  V30 8987 H 835.689 -1.61486 -3.74682 0
M  V30 8988 H 834.364 -2.63752 -3.21571 0
M  V30 8989 H 832.941 -0.85353 -3.63 0
M  V30 8990 N 835.127 1.22348 -0.993418 0
M  V30 8991 C 836.355 1.95125 -0.688021 0
M  V30 8992 C 836.77 1.73377 0.747388 0
M  V30 8993 O 836.127 1.03317 1.50439 0
M  V30 8994 C 836.178 3.47819 -0.985097 0
M  V30 8995 O 835.899 3.68838 -2.3641 0
M  V30 8996 C 837.4 4.37779 -0.697474 0
M  V30 8997 H 834.62 0.62087 -0.254481 0
M  V30 8998 H 837.164 1.55485 -1.32833 0
M  V30 8999 H 835.319 3.85426 -0.390583 0
M  V30 9000 H 835.733 4.63032 -2.46377 0
M  V30 9001 H 837.207 5.43666 -0.955604 0
M  V30 9002 H 837.684 4.37651 0.368524 0
M  V30 9003 H 838.29 4.05799 -1.27306 0
M  V30 9004 N 836.605 0.766683 1.37694 0
M  V30 9005 C 837.535 0.163432 2.32927 0
M  V30 9006 C 838.516 -0.688861 1.55527 0
M  V30 9007 O 839.701 -0.627363 1.83787 0
M  V30 9008 C 836.831 -0.720416 3.39746 0
M  V30 9009 C 835.785 0.0301718 4.27989 0
M  V30 9010 C 835.111 -0.972788 5.25776 0
M  V30 9011 C 836.411 1.20623 5.0818 0
M  V30 9012 H 838.105 0.958988 2.83626 0
M  V30 9013 H 835.651 0.462601 1.36367 0
M  V30 9014 H 837.604 -1.15221 4.05342 0
M  V30 9015 H 836.328 -1.54844 2.8756 0
M  V30 9016 H 834.987 0.442685 3.63917 0
M  V30 9017 H 834.635 -1.79522 4.69873 0
M  V30 9018 H 834.335 -0.475145 5.85676 0
M  V30 9019 H 835.859 -1.40362 5.94248 0
M  V30 9020 H 837.273 0.851341 5.66944 0
M  V30 9021 H 835.67 1.63561 5.7738 0
M  V30 9022 H 836.74 2.01281 4.41151 0
M  V30 9023 N 838.083 -1.48885 0.516809 0
M  V30 9024 C 839.031 -2.31066 -0.266656 0
M  V30 9025 C 840.025 -1.40393 -0.94795 0
M  V30 9026 O 841.231 -1.57366 -0.873836 0
M  V30 9027 H 837.606 -0.744654 -0.104858 0
M  V30 9028 H 839.577 -2.95045 0.446236 0
M  V30 9029 C 838.326 -3.22131 -1.3087 0
M  V30 9030 H 837.649 -3.91839 -0.793865 0
M  V30 9031 H 839.089 -3.82544 -1.82856 0
M  V30 9032 C 837.548 -2.42825 -2.33533 0
M  V30 9033 O 838.078 -2.14364 -3.39722 0
M  V30 9034 N 836.284 -2.04559 -2.06407 0
M  V30 9035 H 835.831 -2.27905 -1.20071 0
M  V30 9036 H 835.789 -1.51807 -2.75322 0
M  V30 9037 N 839.561 -0.251338 -1.55583 0
M  V30 9038 C 840.494 0.687092 -2.1761 0
M  V30 9039 C 841.472 1.16963 -1.12953 0
M  V30 9040 O 842.656 1.24696 -1.41362 0
M  V30 9041 C 839.783 1.93429 -2.78034 0
M  V30 9042 C 838.829 1.58925 -3.95784 0
M  V30 9043 S 839.662 0.688019 -5.31062 0
M  V30 9044 C 840.818 1.94413 -5.94941 0
M  V30 9045 H 841.051 0.159982 -2.96869 0
M  V30 9046 H 838.584 -0.0357593 -1.54359 0
M  V30 9047 H 840.542 2.65028 -3.13481 0
M  V30 9048 H 839.203 2.43253 -1.98713 0
M  V30 9049 H 838.396 2.51668 -4.36668 0
M  V30 9050 H 837.998 0.953664 -3.61637 0
M  V30 9051 H 840.29 2.89087 -6.12727 0
M  V30 9052 H 841.233 1.5787 -6.90277 0
M  V30 9053 H 841.641 2.09824 -5.24056 0
M  V30 9054 O 841.078 1.61082 -0.116113 0
M  V30 9055 H 841.769 1.8758 0.483052 0
M  V30 END ATOM
M  V30 BEGIN BOND
M  V30 END BOND
M  V30 END CTAB
M  END
$$$$
