drugbank_target|Q8N543 Prolyl 3-hydroxylase OGFOD1 (DB00126)
 OpenBabel12092120073D

  0  0  0     0  0            999 V3000
M  V30 BEGIN CTAB
M  V30 COUNTS 8747 8870 0 0 0
M  V30 BEGIN ATOM
M  V30 1 H -0.908 1.98254 -0.117106 0
M  V30 2 N 0 1.576 0 0
M  V30 3 C 0.933 2.03868 1.02534 0
M  V30 4 C 1.911 0.928543 1.3348 0
M  V30 5 O 3.095 1.19667 1.45644 0
M  V30 6 C 0.222 2.43627 2.35294 0
M  V30 7 C -0.732 3.65373 2.2001 0
M  V30 8 S 0.101 5.13292 1.52614 0
M  V30 9 C 1.257 5.56322 2.86805 0
M  V30 10 H 1.49 2.90518 0.631377 0
M  V30 11 H -0.977 1.52953 0.210867 0
M  V30 12 H 0.981 2.67203 3.11629 0
M  V30 13 H -0.358 1.57376 2.7183 0
M  V30 14 H -1.165 3.90944 3.18086 0
M  V30 15 H -1.563 3.418 1.51819 0
M  V30 16 H 0.729 5.58782 3.83104 0
M  V30 17 H 1.672 6.56266 2.65933 0
M  V30 18 H 2.08 4.83886 2.90714 0
M  V30 19 N 1.4781 -0.272755 1.55222 0
M  V30 20 C 2.4261 -1.35705 1.88909 0
M  V30 21 C 3.4201 -1.5112 0.765456 0
M  V30 22 O 4.6261 -1.52901 0.949802 0
M  V30 23 H 1.0011 -0.453868 0.59959 0
M  V30 24 H 2.9721 -1.04544 2.79487 0
M  V30 25 C 1.7211 -2.71049 2.17779 0
M  V30 26 H 1.0441 -2.59979 3.03728 0
M  V30 27 H 2.4841 -3.45858 2.45272 0
M  V30 28 C 0.9431 -3.22165 0.985473 0
M  V30 29 O 1.4731 -4.01096 0.220233 0
M  V30 30 N -0.3209 -2.7985 0.783108 0
M  V30 31 H -0.7739 -2.15775 1.40708 0
M  V30 32 H -0.8159 -3.14397 -0.0130392 0
M  V30 33 N 2.9562 -1.48159 -0.537278 0
M  V30 34 C 4.2042 -1.55497 -1.29094 0
M  V30 35 C 4.5252 -0.227454 -1.93669 0
M  V30 36 O 3.7952 0.750386 -1.80959 0
M  V30 37 H 2.3752 -0.572832 -0.47945 0
M  V30 38 H 5.0372 -1.84579 -0.625818 0
M  V30 39 H 4.1332 -2.33216 -2.07405 0
M  V30 40 N 4.4343 0.785586 -1.36625 0
M  V30 41 C 5.3813 1.89838 -1.31264 0
M  V30 42 C 6.3513 1.65115 -0.180633 0
M  V30 43 O 7.5363 1.87222 -0.36777 0
M  V30 44 C 4.6763 3.26706 -1.11163 0
M  V30 45 C 3.7893 3.63476 -2.33472 0
M  V30 46 C 2.9243 4.89481 -2.06353 0
M  V30 47 C 1.9633 5.18941 -3.24602 0
M  V30 48 N 1.1003 6.36131 -2.97123 0
M  V30 49 H 5.9403 1.93756 -2.26413 0
M  V30 50 H 3.4773 0.947454 -1.12524 0
M  V30 51 H 5.4353 4.05639 -0.975337 0
M  V30 52 H 4.0653 3.222 -0.196674 0
M  V30 53 H 3.1173 2.79636 -2.57891 0
M  V30 54 H 4.4293 3.81193 -3.21704 0
M  V30 55 H 3.5833 5.76288 -1.89675 0
M  V30 56 H 2.3223 4.73841 -1.15437 0
M  V30 57 H 1.3273 4.30615 -3.41834 0
M  V30 58 H 2.5523 5.36498 -4.16349 0
M  V30 59 H 0.4983 6.21875 -2.08823 0
M  V30 60 H 0.4153 6.54198 -3.78894 0
M  V30 61 H 1.6833 7.2591 -2.84033 0
M  V30 62 N 5.9124 1.20967 1.01018 0
M  V30 63 C 7.3284 0.965905 1.27053 0
M  V30 64 C 7.5284 -0.350785 1.98423 0
M  V30 65 O 6.5844 -1.07773 2.28344 0
M  V30 66 C 7.8974 2.15294 2.09926 0
M  V30 67 C 9.4454 2.19463 2.23171 0
M  V30 68 C 9.9204 3.3767 3.09424 0
M  V30 69 N 11.4114 3.37724 3.17012 0
M  V30 70 C 12.1464 4.25837 3.83993 0
M  V30 71 N 11.6424 5.24138 4.53047 0
M  V30 72 N 13.4354 4.1366 3.80581 0
M  V30 73 H 5.5864 2.0565 0.531194 0
M  V30 74 H 7.8494 0.90024 0.297106 0
M  V30 75 H 7.5554 3.10684 1.64828 0
M  V30 76 H 7.4294 2.13923 3.10672 0
M  V30 77 H 9.8164 1.24632 2.6749 0
M  V30 78 H 9.8974 2.2488 1.21912 0
M  V30 79 H 9.5414 4.32791 2.65808 0
M  V30 80 H 9.4714 3.29491 4.10784 0
M  V30 81 H 11.9624 2.6658 2.6785 0
M  V30 82 H 12.2754 5.87684 5.01844 0
M  V30 83 H 10.6204 5.28068 4.5185 0
M  V30 84 H 13.8114 3.36127 3.25785 0
M  V30 85 H 13.9844 4.82538 4.32505 0
M  V30 86 N 7.3905 -1.2043 1.01659 0
M  V30 87 C 8.8015 -1.71517 0.737482 0
M  V30 88 C 9.1525 -1.81547 -0.743973 0
M  V30 89 O 8.2775 -1.47803 -1.58061 0
M  V30 90 C 8.8725 -3.11515 1.33206 0
M  V30 91 C 7.4315 -3.59912 1.10183 0
M  V30 92 C 6.5785 -2.37116 1.43776 0
M  V30 93 H 9.5295 -1.05444 1.18606 0
M  V30 94 H 9.5505 -3.73575 0.722636 0
M  V30 95 H 9.0625 -3.04182 2.41028 0
M  V30 96 H 7.1635 -3.72577 0.0412756 0
M  V30 97 H 7.2765 -4.44731 1.78188 0
M  V30 98 H 5.6405 -2.39857 0.856778 0
M  V30 99 H 6.4235 -2.32424 2.52654 0
M  V30 100 N 8.8686 -0.792821 -1.36206 0
M  V30 101 C 9.8316 -0.199459 -2.2833 0
M  V30 102 C 10.8316 0.605189 -1.48977 0
M  V30 103 O 12.0216 0.425685 -1.68919 0
M  V30 104 C 9.1536 0.723523 -3.33134 0
M  V30 105 H 10.3466 -1.01181 -2.82316 0
M  V30 106 H 7.8996 -0.562485 -1.45828 0
M  V30 107 H 8.6346 1.56008 -2.84309 0
M  V30 108 H 8.4196 0.148436 -3.91819 0
M  V30 109 H 9.9096 1.13344 -4.01924 0
M  V30 110 N 10.3467 1.47872 -0.545128 0
M  V30 111 C 11.2567 2.33633 0.212746 0
M  V30 112 C 12.2727 1.4744 0.923983 0
M  V30 113 O 13.4487 1.80393 0.895572 0
M  V30 114 C 10.5137 3.23884 1.23693 0
M  V30 115 C 9.5747 4.25961 0.534417 0
M  V30 116 C 8.8077 5.11899 1.5098 0
M  V30 117 O 9.0307 5.00077 2.7437 0
M  V30 118 O 7.9647 5.92831 1.0409 0
M  V30 119 H 11.7907 2.99714 -0.490416 0
M  V30 120 H 9.3757 1.46235 -0.305871 0
M  V30 121 H 11.2577 3.79666 1.82843 0
M  V30 122 H 9.9327 2.60446 1.92222 0
M  V30 123 H 8.8397 3.73972 -0.0979679 0
M  V30 124 H 10.1727 4.92079 -0.109213 0
M  V30 125 N 11.8248 0.280983 1.55075 0
M  V30 126 C 13.2358 -0.215629 1.85451 0
M  V30 127 C 13.5868 -1.54991 1.203 0
M  V30 128 O 12.7118 -2.10699 0.493435 0
M  V30 129 C 13.3068 -0.398026 3.36454 0
M  V30 130 C 11.8658 -0.838866 3.66933 0
M  V30 131 C 11.0128 0.064458 2.77225 0
M  V30 132 H 13.9638 0.502601 1.50531 0
M  V30 133 H 13.9848 -1.23569 3.59876 0
M  V30 134 H 13.4968 0.573241 3.83843 0
M  V30 135 H 11.5978 -1.8214 3.25048 0
M  V30 136 H 11.7108 -0.672123 4.74362 0
M  V30 137 H 10.0748 -0.452863 2.50642 0
M  V30 138 H 10.8578 1.03172 3.2743 0
M  V30 139 N 13.3029 -1.57598 0.00835791 0
M  V30 140 C 14.5509 -1.90551 -0.6734 0
M  V30 141 C 14.8719 -0.883301 -1.73847 0
M  V30 142 O 14.1419 0.0781442 -1.95744 0
M  V30 143 H 12.7219 -0.703312 -0.251717 0
M  V30 144 H 15.3839 -1.94833 0.0512592 0
M  V30 145 H 14.4799 -2.9056 -1.13935 0
M  V30 146 N 14.781 0.264519 -1.55364 0
M  V30 147 C 16.192 0.834936 -1.6699 0
M  V30 148 C 16.543 1.86718 -0.602552 0
M  V30 149 O 15.668 2.14899 0.254425 0
M  V30 150 C 16.263 1.5212 -3.02729 0
M  V30 151 C 14.822 2.03954 -3.16354 0
M  V30 152 C 13.969 0.884498 -2.62815 0
M  V30 153 H 16.92 0.0406869 -1.58648 0
M  V30 154 H 16.941 2.38853 -2.96191 0
M  V30 155 H 16.453 0.769668 -3.80392 0
M  V30 156 H 14.554 2.82041 -2.43482 0
M  V30 157 H 14.667 2.24902 -4.23032 0
M  V30 158 H 13.031 1.2802 -2.20188 0
M  V30 159 H 13.814 0.14634 -3.42988 0
M  V30 160 N 16.2591 1.48442 0.529413 0
M  V30 161 C 17.2221 1.62524 1.61612 0
M  V30 162 C 18.2221 0.498509 1.52877 0
M  V30 163 O 19.4121 0.76431 1.56537 0
M  V30 164 C 16.5441 1.59597 3.01233 0
M  V30 165 H 17.7371 2.59423 1.50465 0
M  V30 166 H 15.2901 1.37047 0.751514 0
M  V30 167 H 16.0251 0.641781 3.17886 0
M  V30 168 H 15.8101 2.41397 3.08982 0
M  V30 169 H 17.3001 1.72646 3.80241 0
M  V30 170 N 17.7372 -0.778329 1.37039 0
M  V30 171 C 19.1532 -1.07796 1.17695 0
M  V30 172 C 19.3532 -2.01498 0.00860115 0
M  V30 173 O 18.4092 -2.43901 -0.653352 0
M  V30 174 C 19.7222 -1.68178 2.49272 0
M  V30 175 C 21.2702 -1.80467 2.55735 0
M  V30 176 C 21.7452 -2.44263 3.87427 0
M  V30 177 N 23.2362 -2.51721 3.88833 0
M  V30 178 C 23.9712 -3.01919 4.87476 0
M  V30 179 N 23.4672 -3.5234 5.96513 0
M  V30 180 N 25.2602 -3.00733 4.74885 0
M  V30 181 H 17.4112 -0.156032 2.11826 0
M  V30 182 H 19.6742 -0.131844 0.938787 0
M  V30 183 H 19.3802 -1.06796 3.35093 0
M  V30 184 H 19.2542 -2.67554 2.65885 0
M  V30 185 H 21.6412 -2.40984 1.70325 0
M  V30 186 H 21.7222 -0.798656 2.43013 0
M  V30 187 H 21.3662 -1.84388 4.73248 0
M  V30 188 H 21.2962 -3.45458 3.9745 0
M  V30 189 H 23.7872 -2.1603 3.10063 0
M  V30 190 H 24.1002 -3.89027 6.67741 0
M  V30 191 H 22.4452 -3.50462 6.00168 0
M  V30 192 H 25.6362 -2.60638 3.88826 0
M  V30 193 H 25.8092 -3.39545 5.51918 0
M  V30 194 N 19.2153 -1.21501 -1.00376 0
M  V30 195 C 20.4613 -1.03452 -1.74429 0
M  V30 196 C 20.7943 0.430764 -1.89362 0
M  V30 197 O 20.0693 1.31962 -1.42886 0
M  V30 198 C 20.3523 -1.73375 -3.15615 0
M  V30 199 C 20.2053 -3.27431 -3.08397 0
M  V30 200 C 21.5243 -1.47732 -4.14564 0
M  V30 201 H 18.6433 -0.377226 -0.633143 0
M  V30 202 H 21.2853 -1.49693 -1.17013 0
M  V30 203 H 19.4353 -1.34064 -3.64636 0
M  V30 204 H 21.1073 -3.76119 -2.67081 0
M  V30 205 H 19.3503 -3.5767 -2.45468 0
M  V30 206 H 20.0213 -3.71524 -4.08258 0
M  V30 207 H 22.4973 -1.8186 -3.74254 0
M  V30 208 H 21.3733 -1.99169 -5.11491 0
M  V30 209 H 21.6343 -0.407589 -4.40217 0
M  V30 210 N 20.6934 1.19889 -1.02296 0
M  V30 211 C 21.9414 1.89046 -0.714558 0
M  V30 212 C 22.2624 1.79636 0.758681 0
M  V30 213 O 21.5324 1.20292 1.54618 0
M  V30 214 H 20.1124 0.699802 -0.261317 0
M  V30 215 H 22.7744 1.45574 -1.29592 0
M  V30 216 H 21.8704 2.95524 -1.0036 0
M  V30 217 N 22.1715 0.800033 1.35784 0
M  V30 218 C 23.1185 0.203848 2.29898 0
M  V30 219 C 24.0885 -0.658375 1.52495 0
M  V30 220 O 25.2735 -0.604832 1.8096 0
M  V30 221 C 22.4135 -0.64688 3.38983 0
M  V30 222 C 21.5265 0.235054 4.3136 0
M  V30 223 C 20.6615 -0.623054 5.27533 0
M  V30 224 C 19.7005 0.259682 6.11549 0
M  V30 225 N 18.8375 -0.558019 6.99879 0
M  V30 226 H 23.6775 1.01186 2.80295 0
M  V30 227 H 21.2145 0.51053 1.37957 0
M  V30 228 H 23.1725 -1.15521 4.00887 0
M  V30 229 H 21.8025 -1.42021 2.89879 0
M  V30 230 H 20.8545 0.861438 3.70518 0
M  V30 231 H 22.1665 0.914768 4.9034 0
M  V30 232 H 21.3205 -1.19678 5.94779 0
M  V30 233 H 20.0595 -1.33636 4.69034 0
M  V30 234 H 19.0645 0.845726 5.43256 0
M  V30 235 H 20.2895 0.970748 6.72126 0
M  V30 236 H 18.2355 -1.25542 6.43875 0
M  V30 237 H 18.1525 0.0637872 7.55973 0
M  V30 238 H 19.4205 -1.11523 7.71481 0
M  V30 239 N 23.6496 -1.47581 0.552962 0
M  V30 240 C 24.5966 -2.29957 -0.197108 0
M  V30 241 C 25.5666 -1.38799 -0.912359 0
M  V30 242 O 26.7516 -1.67761 -0.908888 0
M  V30 243 C 23.8916 -3.22672 -1.22379 0
M  V30 244 C 23.0046 -4.28919 -0.515038 0
M  V30 245 C 22.1396 -5.0879 -1.52664 0
M  V30 246 C 21.1786 -6.06815 -0.802631 0
M  V30 247 N 20.3156 -6.7966 -1.76086 0
M  V30 248 H 25.1556 -2.93578 0.511486 0
M  V30 249 H 22.6926 -1.4471 0.264067 0
M  V30 250 H 24.6506 -3.74845 -1.83159 0
M  V30 251 H 23.2806 -2.60925 -1.90047 0
M  V30 252 H 22.3326 -3.79835 0.207192 0
M  V30 253 H 23.6446 -4.98773 0.0523425 0
M  V30 254 H 22.7986 -5.65091 -2.20809 0
M  V30 255 H 21.5376 -4.38828 -2.12794 0
M  V30 256 H 20.5426 -5.49695 -0.107238 0
M  V30 257 H 21.7676 -6.78784 -0.207135 0
M  V30 258 H 19.7136 -6.12432 -2.35081 0
M  V30 259 H 19.6306 -7.45669 -1.24552 0
M  V30 260 H 20.8986 -7.40538 -2.43359 0
M  V30 261 N 25.1277 -0.289203 -1.54924 0
M  V30 262 C 26.3757 0.322879 -1.99504 0
M  V30 263 C 26.6967 1.55313 -1.1791 0
M  V30 264 O 25.9667 1.94001 -0.272097 0
M  V30 265 H 24.5467 0.122291 -0.736922 0
M  V30 266 H 27.2087 -0.397802 -1.90797 0
M  V30 267 H 26.3047 0.603061 -3.06218 0
M  V30 268 N 26.6058 1.57591 -0.0167156 0
M  V30 269 C 27.5528 2.09462 0.969251 0
M  V30 270 C 28.5228 0.99381 1.33089 0
M  V30 271 O 29.7078 1.26726 1.42636 0
M  V30 272 C 26.8478 2.61622 2.25051 0
M  V30 273 C 25.9608 3.85666 1.94642 0
M  V30 274 C 25.0958 4.26266 3.16972 0
M  V30 275 C 24.1348 5.43101 2.82326 0
M  V30 276 N 23.2718 5.78915 3.97243 0
M  V30 277 H 28.1118 2.93428 0.519997 0
M  V30 278 H 25.6488 1.45044 0.245087 0
M  V30 279 H 27.6068 2.89949 2.99976 0
M  V30 280 H 26.2368 1.80505 2.67615 0
M  V30 281 H 25.2888 3.64145 1.10013 0
M  V30 282 H 26.6008 4.70678 1.65117 0
M  V30 283 H 25.7548 4.55963 4.00228 0
M  V30 284 H 24.4938 3.39996 3.49648 0
M  V30 285 H 23.4988 5.1311 1.97479 0
M  V30 286 H 24.7238 6.3106 2.50879 0
M  V30 287 H 22.6698 4.95602 4.29785 0
M  V30 288 H 22.5868 6.58539 3.71299 0
M  V30 289 H 23.8548 6.13212 4.81239 0
M  V30 290 N 28.0839 -0.256276 1.55502 0
M  V30 291 C 29.0309 -1.31714 1.89526 0
M  V30 292 C 30.0009 -1.4828 0.748479 0
M  V30 293 O 31.1859 -1.62416 1.00128 0
M  V30 294 C 28.3259 -2.66933 2.18725 0
M  V30 295 C 27.4389 -2.58452 3.4616 0
M  V30 296 C 26.5739 -3.85961 3.64976 0
M  V30 297 C 25.6129 -3.72059 4.86044 0
M  V30 298 N 24.7499 -4.9144 5.01429 0
M  V30 299 H 29.5899 -1.01998 2.80001 0
M  V30 300 H 27.1269 -0.492413 1.38613 0
M  V30 301 H 29.0849 -3.4563 2.33657 0
M  V30 302 H 27.7149 -2.94816 1.31466 0
M  V30 303 H 26.7669 -1.71374 3.3961 0
M  V30 304 H 28.0789 -2.44085 4.34999 0
M  V30 305 H 27.2329 -4.73101 3.79816 0
M  V30 306 H 25.9719 -4.03215 2.74353 0
M  V30 307 H 24.9769 -2.83302 4.7119 0
M  V30 308 H 26.2019 -3.56309 5.78118 0
M  V30 309 H 24.1479 -5.09072 4.13741 0
M  V30 310 H 24.0649 -4.79668 5.84341 0
M  V30 311 H 25.3329 -5.80104 5.20672 0
M  V30 312 N 29.562 -1.4872 -0.521534 0
M  V30 313 C 30.472 -1.66569 -1.65203 0
M  V30 314 C 31.488 -0.548197 -1.65139 0
M  V30 315 O 32.664 -0.820339 -1.83936 0
M  V30 316 C 29.729 -1.70917 -3.01642 0
M  V30 317 C 28.79 -2.94356 -3.12495 0
M  V30 318 C 28.023 -2.98487 -4.42426 0
M  V30 319 O 28.246 -2.10786 -5.30024 0
M  V30 320 O 27.18 -3.90746 -4.57822 0
M  V30 321 H 31.006 -2.62298 -1.5308 0
M  V30 322 H 28.591 -1.3222 -0.695565 0
M  V30 323 H 30.473 -1.7625 -3.82771 0
M  V30 324 H 29.148 -0.783633 -3.14071 0
M  V30 325 H 28.055 -2.94552 -2.3063 0
M  V30 326 H 29.388 -3.86322 -3.04986 0
M  V30 327 N 31.0401 0.771051 -1.3745 0
M  V30 328 C 32.2861 1.5319 -1.32894 0
M  V30 329 C 32.6191 1.94008 0.0862511 0
M  V30 330 O 31.8941 1.64124 1.04373 0
M  V30 331 C 32.1771 2.79648 -2.26868 0
M  V30 332 C 32.0301 2.45079 -3.77169 0
M  V30 333 C 33.3491 3.81583 -2.19277 0
M  V30 334 H 30.4681 0.555744 -0.484064 0
M  V30 335 H 33.1101 0.884492 -1.68157 0
M  V30 336 H 31.2601 3.34891 -1.96926 0
M  V30 337 H 32.9321 1.95745 -4.1771 0
M  V30 338 H 31.1751 1.77767 -3.95704 0
M  V30 339 H 31.8461 3.35478 -4.38359 0
M  V30 340 H 34.3221 3.35835 -2.45671 0
M  V30 341 H 33.1981 4.67787 -2.87171 0
M  V30 342 H 33.4591 4.25897 -1.18592 0
M  V30 343 N 32.5182 1.22032 0.997298 0
M  V30 344 C 33.4512 0.929735 2.08401 0
M  V30 345 C 34.4292 -0.125681 1.62114 0
M  V30 346 O 35.6132 0.00495409 1.88499 0
M  V30 347 C 32.7402 0.397488 3.3636 0
M  V30 348 C 31.7862 1.4369 4.01566 0
M  V30 349 S 32.6192 3.00874 4.42984 0
M  V30 350 C 33.7752 2.49276 5.74119 0
M  V30 351 H 34.0082 1.84998 2.32729 0
M  V30 352 H 31.5412 1.0509 1.13117 0
M  V30 353 H 33.4992 0.0969846 4.10385 0
M  V30 354 H 32.1602 -0.501571 3.10069 0
M  V30 355 H 31.3532 1.01427 4.93689 0
M  V30 356 H 30.9552 1.68588 3.33847 0
M  V30 357 H 33.2472 1.90242 6.50242 0
M  V30 358 H 34.1902 3.39872 6.21203 0
M  V30 359 H 34.5982 1.90714 5.31308 0
M  V30 360 N 33.9963 -1.19345 1.0293 0
M  V30 361 C 34.9593 -2.20793 0.615069 0
M  V30 362 C 35.9593 -1.57553 -0.321533 0
M  V30 363 O 37.1493 -1.73862 -0.108483 0
M  V30 364 C 34.2813 -3.40754 -0.0999222 0
M  V30 365 H 35.4743 -2.58955 1.51269 0
M  V30 366 H 33.0273 -1.3303 0.820534 0
M  V30 367 H 33.7623 -3.0811 -1.01187 0
M  V30 368 H 33.5473 -3.87889 0.57309 0
M  V30 369 H 35.0373 -4.15898 -0.376645 0
M  V30 370 N 35.4744 -0.807222 -1.35358 0
M  V30 371 C 36.3844 -0.219594 -2.3357 0
M  V30 372 C 37.4004 0.637734 -1.61892 0
M  V30 373 O 38.5764 0.549336 -1.93763 0
M  V30 374 C 35.6414 0.62158 -3.41083 0
M  V30 375 C 34.7024 -0.256315 -4.28534 0
M  V30 376 C 33.9354 0.544807 -5.30912 0
M  V30 377 O 34.1584 1.77944 -5.41934 0
M  V30 378 O 33.0924 -0.0646478 -6.01865 0
M  V30 379 H 36.9184 -1.03208 -2.85625 0
M  V30 380 H 34.5034 -0.569025 -1.38139 0
M  V30 381 H 36.3854 1.10067 -4.06772 0
M  V30 382 H 35.0604 1.41165 -2.91297 0
M  V30 383 H 33.9674 -0.782559 -3.65823 0
M  V30 384 H 35.3004 -1.01034 -4.81719 0
M  V30 385 N 36.9525 1.47285 -0.560781 0
M  V30 386 C 38.1995 2.02464 -0.038062 0
M  V30 387 C 38.5275 1.43474 1.31322 0
M  V30 388 O 37.7825 0.581311 1.86867 0
M  V30 389 C 38.0815 3.57258 0.100784 0
M  V30 390 C 37.7475 4.35184 -1.18007 0
M  V30 391 C 36.4095 4.56194 -1.53103 0
M  V30 392 C 38.7615 4.80098 -2.02867 0
M  V30 393 C 36.0895 5.19367 -2.729 0
M  V30 394 C 38.4415 5.44593 -3.21871 0
M  V30 395 C 37.1055 5.63835 -3.57276 0
M  V30 396 H 36.3755 0.740869 -0.0139279 0
M  V30 397 H 39.0225 1.76916 -0.733012 0
M  V30 398 H 37.3275 3.81819 0.878724 0
M  V30 399 H 39.0245 3.97606 0.520639 0
M  V30 400 H 35.6145 4.19113 -0.8968 0
M  V30 401 H 39.7985 4.63642 -1.7706 0
M  V30 402 H 35.0545 5.32459 -3.00496 0
M  V30 403 H 39.2285 5.78358 -3.87911 0
M  V30 404 H 36.8555 6.12557 -4.50197 0
M  V30 405 N 38.4306 0.297415 1.54768 0
M  V30 406 C 39.6556 -0.318435 2.04941 0
M  V30 407 C 40.0806 -1.4701 1.17345 0
M  V30 408 O 39.4386 -1.80436 0.176758 0
M  V30 409 C 39.4866 -0.755749 3.52592 0
M  V30 410 O 38.5906 -1.86088 3.68028 0
M  V30 411 H 37.9316 -0.062421 0.661059 0
M  V30 412 H 40.4616 0.438215 1.99852 0
M  V30 413 H 40.4716 -1.04552 3.94376 0
M  V30 414 H 39.1466 0.0867233 4.1581 0
M  V30 415 H 37.7236 -1.57193 3.38149 0
M  V30 416 N 39.9087 -1.5758 0.0250728 0
M  V30 417 C 41.1857 -1.82917 -0.692873 0
M  V30 418 C 41.5657 -0.908137 -1.90568 0
M  V30 419 O 40.9137 0.0372298 -2.2847 0
M  V30 420 C 41.1237 -3.32034 -1.07492 0
M  V30 421 C 42.4717 -3.98406 -1.46826 0
M  V30 422 O 43.4957 -3.36505 -1.16801 0
M  V30 423 O 42.3547 -5.07497 -2.02754 0
M  V30 424 H 39.4487 -0.754079 -0.33955 0
M  V30 425 H 41.9947 -1.69619 0.0524456 0
M  V30 426 H 40.7667 -3.90728 -0.211552 0
M  V30 427 H 40.3897 -3.50424 -1.87854 0
M  V30 428 N 41.3868 0.248026 -1.55636 0
M  V30 429 C 42.3498 1.29044 -1.89421 0
M  V30 430 C 43.3498 1.41134 -0.770581 0
M  V30 431 O 44.5398 1.39854 -1.03858 0
M  V30 432 C 41.6718 2.66831 -2.12165 0
M  V30 433 H 42.8648 1.00305 -2.82629 0
M  V30 434 H 40.4178 0.487265 -1.48511 0
M  V30 435 H 41.1528 3.00711 -1.21422 0
M  V30 436 H 40.9378 2.59438 -2.93997 0
M  V30 437 H 42.4278 3.42103 -2.3949 0
M  V30 438 N 42.8649 1.48995 0.513639 0
M  V30 439 C 44.1109 1.58076 1.27042 0
M  V30 440 C 44.4439 0.261026 1.92438 0
M  V30 441 O 43.7189 -0.734393 1.80103 0
M  V30 442 C 44.0019 2.73091 2.34719 0
M  V30 443 C 43.8549 4.14821 1.73907 0
M  V30 444 C 45.1739 2.83796 3.36375 0
M  V30 445 H 42.2929 0.575391 0.460536 0
M  V30 446 H 44.9349 1.81232 0.570516 0
M  V30 447 H 43.0849 2.53479 2.94416 0
M  V30 448 H 44.7569 4.45917 1.18135 0
M  V30 449 H 42.9999 4.21058 1.0437 0
M  V30 450 H 43.6709 4.91147 2.51949 0
M  V30 451 H 46.1469 3.01611 2.86653 0
M  V30 452 H 45.0229 3.65971 4.09093 0
M  V30 453 H 45.2839 1.92624 3.9793 0
M  V30 454 N 44.343 -0.763751 1.37857 0
M  V30 455 C 45.571 -1.55293 1.36718 0
M  V30 456 C 45.986 -1.88745 -0.0455434 0
M  V30 457 O 45.343 -1.52039 -1.00947 0
M  V30 458 C 45.394 -2.85831 2.2132 0
M  V30 459 O 45.115 -2.5381 3.57089 0
M  V30 460 C 46.616 -3.80023 2.28249 0
M  V30 461 H 43.836 -0.480841 0.468009 0
M  V30 462 H 46.38 -0.946009 1.81303 0
M  V30 463 H 44.535 -3.42926 1.80223 0
M  V30 464 H 44.949 -3.37459 4.01524 0
M  V30 465 H 46.423 -4.68599 2.91752 0
M  V30 466 H 46.9 -4.1973 1.2932 0
M  V30 467 H 47.506 -3.28855 2.69693 0
M  V30 468 N 45.8211 -1.22559 -0.990812 0
M  V30 469 C 46.7311 -1.01394 -2.11557 0
M  V30 470 C 47.7471 0.0383962 -1.73958 0
M  V30 471 O 48.9231 -0.154787 -2.00804 0
M  V30 472 C 45.9881 -0.596569 -3.41529 0
M  V30 473 C 45.0491 -1.72276 -3.93217 0
M  V30 474 C 44.2821 -1.32521 -5.16985 0
M  V30 475 O 44.5051 -0.204909 -5.70032 0
M  V30 476 O 43.4391 -2.14247 -5.62478 0
M  V30 477 H 47.2651 -1.95633 -2.32296 0
M  V30 478 H 44.8501 -1.01172 -1.0993 0
M  V30 479 H 46.7321 -0.374263 -4.19735 0
M  V30 480 H 45.4071 0.316939 -3.22145 0
M  V30 481 H 44.3141 -1.99961 -3.16174 0
M  V30 482 H 45.6471 -2.61421 -4.17037 0
M  V30 483 N 47.2992 1.18797 -1.03562 0
M  V30 484 C 48.2092 2.25913 -0.632505 0
M  V30 485 C 49.2252 1.70668 0.338882 0
M  V30 486 O 50.4012 2.00453 0.195076 0
M  V30 487 C 47.4662 3.467 0.00350942 0
M  V30 488 C 46.5272 4.17098 -1.01624 0
M  V30 489 C 45.7602 5.32119 -0.410478 0
M  V30 490 O 45.9832 5.64976 0.784725 0
M  V30 491 O 44.9172 5.9107 -1.13667 0
M  V30 492 H 48.7432 2.62648 -1.52478 0
M  V30 493 H 46.3282 1.25781 -0.806195 0
M  V30 494 H 48.2102 4.19878 0.35781 0
M  V30 495 H 46.8852 3.11798 0.869686 0
M  V30 496 H 45.7922 3.4601 -1.42224 0
M  V30 497 H 47.1252 4.55987 -1.85301 0
M  V30 498 N 48.7773 0.814389 1.34928 0
M  V30 499 C 50.0053 0.411136 2.02774 0
M  V30 500 C 50.4203 -0.980316 1.61354 0
M  V30 501 O 49.7773 -1.63299 0.814847 0
M  V30 502 C 49.8283 0.493865 3.58111 0
M  V30 503 O 49.5493 1.83047 3.98027 0
M  V30 504 C 51.0503 0.0844174 4.4322 0
M  V30 505 H 48.2703 0.166037 0.650133 0
M  V30 506 H 50.8143 1.10018 1.72384 0
M  V30 507 H 48.9693 -0.147006 3.87121 0
M  V30 508 H 49.3833 1.79872 4.92693 0
M  V30 509 H 50.8573 0.193404 5.51661 0
M  V30 510 H 51.3343 -0.97113 4.28329 0
M  V30 511 H 51.9403 0.69875 4.19521 0
M  V30 512 N 50.2554 -1.46986 0.568584 0
M  V30 513 C 51.1854 -2.32946 -0.160753 0
M  V30 514 C 52.1664 -1.44487 -0.897631 0
M  V30 515 O 53.3514 -1.73327 -0.875867 0
M  V30 516 C 50.4814 -3.26494 -1.18403 0
M  V30 517 C 49.4354 -4.24282 -0.562895 0
M  V30 518 C 48.7614 -5.07236 -1.69163 0
M  V30 519 C 50.0614 -5.19989 0.490761 0
M  V30 520 H 51.7554 -2.94175 0.556916 0
M  V30 521 H 49.3014 -1.4146 0.26927 0
M  V30 522 H 51.2544 -3.85477 -1.70251 0
M  V30 523 H 49.9784 -2.63343 -1.93179 0
M  V30 524 H 48.6374 -3.66541 -0.0656164 0
M  V30 525 H 48.2854 -4.4048 -2.42871 0
M  V30 526 H 47.9854 -5.7345 -1.28174 0
M  V30 527 H 49.5094 -5.6908 -2.21314 0
M  V30 528 H 50.9234 -5.73271 0.0579047 0
M  V30 529 H 49.3204 -5.94469 0.820165 0
M  V30 530 H 50.3904 -4.64777 1.3824 0
M  V30 531 N 51.7335 -0.305618 -1.54608 0
M  V30 532 C 52.6805 0.568421 -2.23691 0
M  V30 533 C 53.6505 1.12592 -1.22116 0
M  V30 534 O 54.8355 1.16959 -1.50749 0
M  V30 535 C 51.9755 1.7322 -2.98477 0
M  V30 536 C 51.0885 1.20566 -4.14835 0
M  V30 537 C 50.2235 2.33368 -4.77193 0
M  V30 538 C 49.2625 1.7787 -5.85686 0
M  V30 539 N 48.3995 2.84263 -6.4198 0
M  V30 540 H 53.2395 -0.0272867 -2.97988 0
M  V30 541 H 50.7765 -0.0252363 -1.47078 0
M  V30 542 H 52.7345 2.41675 -3.40072 0
M  V30 543 H 51.3645 2.29947 -2.26548 0
M  V30 544 H 50.4165 0.413223 -3.78149 0
M  V30 545 H 51.7285 0.759417 -4.92985 0
M  V30 546 H 50.8825 3.09761 -5.21664 0
M  V30 547 H 49.6215 2.8132 -3.98385 0
M  V30 548 H 48.6265 0.99968 -5.40635 0
M  V30 549 H 49.8515 1.30816 -6.66381 0
M  V30 550 H 47.7975 3.31541 -5.66053 0
M  V30 551 H 47.7145 2.44149 -7.15491 0
M  V30 552 H 48.9825 3.6054 -6.91109 0
M  V30 553 N 53.2116 1.57565 -0.0334293 0
M  V30 554 C 54.1586 2.10478 0.946981 0
M  V30 555 C 55.1286 1.00787 1.32027 0
M  V30 556 O 56.3136 1.28232 1.41284 0
M  V30 557 C 53.4536 2.63994 2.22263 0
M  V30 558 C 52.5666 3.87709 1.90541 0
M  V30 559 C 51.7016 4.29604 3.12433 0
M  V30 560 C 50.7406 5.46065 2.76549 0
M  V30 561 N 49.8776 5.83096 3.9108 0
M  V30 562 H 54.7176 2.93963 0.488846 0
M  V30 563 H 52.2546 1.45296 0.22969 0
M  V30 564 H 54.2126 2.93114 2.96884 0
M  V30 565 H 52.8426 1.83333 2.65685 0
M  V30 566 H 51.8946 3.65291 1.06144 0
M  V30 567 H 53.2066 4.72403 1.60116 0
M  V30 568 H 52.3606 4.60182 3.9537 0
M  V30 569 H 51.0996 3.43685 3.46023 0
M  V30 570 H 50.1046 5.15176 1.92026 0
M  V30 571 H 51.3296 6.33685 2.44171 0
M  V30 572 H 49.2756 5.00132 4.24504 0
M  V30 573 H 49.1926 6.6244 3.64293 0
M  V30 574 H 50.4606 6.18282 4.74708 0
M  V30 575 N 54.6897 -0.239769 1.55765 0
M  V30 576 C 55.6217 -1.32001 1.87372 0
M  V30 577 C 56.6347 -1.43944 0.760522 0
M  V30 578 O 57.8237 -1.45167 1.0387 0
M  V30 579 C 54.9237 -2.69779 2.05115 0
M  V30 580 C 54.0967 -2.80014 3.36022 0
M  V30 581 C 53.1557 -3.98684 3.4342 0
M  V30 582 O 52.1817 -3.87877 4.16582 0
M  V30 583 N 53.3837 -5.12176 2.73232 0
M  V30 584 H 56.1487 -1.0522 2.80622 0
M  V30 585 H 53.7097 -0.429857 1.56089 0
M  V30 586 H 55.7017 -3.47517 2.07399 0
M  V30 587 H 54.2717 -2.89237 1.18577 0
M  V30 588 H 53.4917 -1.88896 3.45994 0
M  V30 589 H 54.7797 -2.83808 4.22292 0
M  V30 590 H 54.1777 -5.2385 2.13536 0
M  V30 591 H 52.7347 -5.88022 2.81199 0
M  V30 592 N 56.1678 -1.49265 -0.50573 0
M  V30 593 C 57.4138 -1.58748 -1.26202 0
M  V30 594 C 57.7468 -0.271227 -1.92297 0
M  V30 595 O 57.0218 0.724831 -1.80489 0
M  V30 596 C 57.3048 -2.74332 -2.33268 0
M  V30 597 C 57.1578 -4.15737 -1.71705 0
M  V30 598 C 58.4768 -2.85576 -3.34865 0
M  V30 599 H 55.5958 -0.577826 -0.457478 0
M  V30 600 H 58.2378 -1.81532 -0.560897 0
M  V30 601 H 56.3878 -2.55036 -2.93068 0
M  V30 602 H 58.0598 -4.46537 -1.15769 0
M  V30 603 H 56.3028 -4.21605 -1.02135 0
M  V30 604 H 56.9738 -4.92477 -2.49341 0
M  V30 605 H 59.4498 -3.03127 -2.8505 0
M  V30 606 H 58.3258 -3.68135 -4.07146 0
M  V30 607 H 58.5868 -1.94732 -3.96903 0
M  V30 608 N 57.6459 0.756429 -1.3826 0
M  V30 609 C 58.6089 1.85176 -1.35065 0
M  V30 610 C 59.6089 1.58818 -0.251703 0
M  V30 611 O 60.7989 1.66615 -0.508433 0
M  V30 612 C 57.9309 3.22596 -1.10201 0
M  V30 613 H 59.1239 1.89417 -2.3251 0
M  V30 614 H 56.6769 0.95783 -1.23512 0
M  V30 615 H 57.4119 3.24025 -0.133504 0
M  V30 616 H 57.1969 3.43122 -1.89762 0
M  V30 617 H 58.6869 4.02673 -1.10654 0
M  V30 618 N 59.124 1.23083 0.984299 0
M  V30 619 C 60.034 1.02515 2.11016 0
M  V30 620 C 61.05 -0.0291702 1.73976 0
M  V30 621 O 62.226 0.165434 2.00719 0
M  V30 622 C 59.291 0.614673 3.41208 0
M  V30 623 C 58.352 1.74359 3.92297 0
M  V30 624 C 57.585 1.35261 5.16275 0
M  V30 625 O 57.808 0.235136 5.69915 0
M  V30 626 O 56.742 2.17227 5.61334 0
M  V30 627 H 60.568 1.96862 2.31255 0
M  V30 628 H 58.153 1.01753 1.09392 0
M  V30 629 H 60.035 0.396518 4.1953 0
M  V30 630 H 58.71 -0.299851 3.22308 0
M  V30 631 H 57.617 2.01635 3.1511 0
M  V30 632 H 58.95 2.63629 4.15645 0
M  V30 633 N 60.6021 -1.18246 1.0419 0
M  V30 634 C 61.5651 -2.20128 0.638452 0
M  V30 635 C 62.5651 -1.57885 -0.304805 0
M  V30 636 O 63.7551 -1.73967 -0.0900369 0
M  V30 637 C 60.8871 -3.4084 -0.0637751 0
M  V30 638 H 62.0801 -2.57336 1.54007 0
M  V30 639 H 59.6331 -1.32152 0.834598 0
M  V30 640 H 60.3681 -3.09166 -0.979136 0
M  V30 641 H 60.1531 -3.8726 0.614198 0
M  V30 642 H 61.6431 -4.16274 -0.332512 0
M  V30 643 N 62.0802 -0.821533 -1.34494 0
M  V30 644 C 63.3262 -0.418729 -1.99043 0
M  V30 645 C 63.6812 1.00672 -1.6396 0
M  V30 646 O 62.9742 1.69132 -0.900271 0
M  V30 647 C 63.1682 -0.556512 -3.53041 0
M  V30 648 C 62.9972 -1.9938 -4.03085 0
M  V30 649 C 61.7672 -2.62539 -4.31742 0
M  V30 650 C 63.9652 -2.96035 -4.20556 0
M  V30 651 N 61.9472 -3.97523 -4.67813 0
M  V30 652 C 63.3182 -4.15924 -4.59791 0
M  V30 653 C 65.3732 -2.9267 -4.02801 0
M  V30 654 C 64.0762 -5.32899 -4.83126 0
M  V30 655 C 66.1022 -4.08861 -4.27302 0
M  V30 656 C 65.4642 -5.275 -4.66822 0
M  V30 657 H 61.5632 -0.201299 -0.755647 0
M  V30 658 H 64.1472 -1.06594 -1.62929 0
M  V30 659 H 62.3182 0.0607924 -3.88352 0
M  V30 660 H 64.0502 -0.126842 -4.04501 0
M  V30 661 H 60.8052 -2.13789 -4.22601 0
M  V30 662 H 61.2292 -4.67061 -4.90085 0
M  V30 663 H 65.8712 -2.02088 -3.71376 0
M  V30 664 H 63.5892 -6.24041 -5.13418 0
M  V30 665 H 67.1752 -4.07654 -4.15101 0
M  V30 666 H 66.0552 -6.15913 -4.85408 0
M  V30 667 N 63.5583 1.46682 -0.576371 0
M  V30 668 C 64.7833 2.07304 -0.0630475 0
M  V30 669 C 65.2083 1.42329 1.2298 0
M  V30 670 O 64.5663 0.504865 1.74129 0
M  V30 671 C 64.6143 3.60472 0.095895 0
M  V30 672 O 63.7183 3.95927 1.15394 0
M  V30 673 H 63.0593 0.661288 -0.0599463 0
M  V30 674 H 65.5893 1.88417 -0.797511 0
M  V30 675 H 65.5993 4.06865 0.304071 0
M  V30 676 H 64.2743 4.07157 -0.84828 0
M  V30 677 H 62.8513 3.61252 0.924724 0
M  V30 678 N 65.0364 0.313813 1.54444 0
M  V30 679 C 66.4524 -0.0391619 1.59552 0
M  V30 680 C 66.6524 -1.51322 1.33056 0
M  V30 681 O 65.7084 -2.26782 1.11022 0
M  V30 682 C 67.0214 0.370302 2.98411 0
M  V30 683 C 68.5694 0.320139 3.11358 0
M  V30 684 C 69.0444 0.704617 4.52547 0
M  V30 685 N 70.5354 0.657645 4.58508 0
M  V30 686 C 71.2704 0.927453 5.6585 0
M  V30 687 N 70.7664 1.26389 6.81174 0
M  V30 688 N 72.5594 0.853662 5.5558 0
M  V30 689 H 64.7104 1.27433 1.69925 0
M  V30 690 H 66.9734 0.517511 0.794284 0
M  V30 691 H 66.6794 1.39694 3.22767 0
M  V30 692 H 66.5534 -0.269619 3.76235 0
M  V30 693 H 68.9404 -0.697275 2.86744 0
M  V30 694 H 69.0214 0.99486 2.35661 0
M  V30 695 H 68.6654 1.7199 4.77893 0
M  V30 696 H 68.5954 0.00768843 5.26599 0
M  V30 697 H 71.0864 0.409067 3.75679 0
M  V30 698 H 71.3994 1.4554 7.58972 0
M  V30 699 H 69.7444 1.30206 6.82694 0
M  V30 700 H 72.9354 0.590383 4.64362 0
M  V30 701 H 73.1084 1.0673 6.3915 0
M  V30 702 N 66.5145 -1.57545 0.0417849 0
M  V30 703 C 67.9305 -1.56467 -0.314704 0
M  V30 704 C 68.1305 -1.04859 -1.72066 0
M  V30 705 O 67.1865 -0.700983 -2.42575 0
M  V30 706 C 68.4995 -3.00317 -0.15174 0
M  V30 707 C 70.0475 -3.12201 -0.223553 0
M  V30 708 C 70.5225 -4.57913 -0.0892295 0
M  V30 709 N 72.0135 -4.6297 -0.145808 0
M  V30 710 C 72.7485 -5.73362 -0.0658459 0
M  V30 711 N 72.2445 -6.92769 0.0659282 0
M  V30 712 N 74.0375 -5.6197 -0.12075 0
M  V30 713 H 66.1885 -1.89416 0.961014 0
M  V30 714 H 68.4515 -0.871862 0.372237 0
M  V30 715 H 68.1575 -3.42073 0.817254 0
M  V30 716 H 68.0315 -3.65892 -0.916692 0
M  V30 717 H 70.4185 -2.70349 -1.18301 0
M  V30 718 H 70.4995 -2.49323 0.571994 0
M  V30 719 H 70.1435 -5.00448 0.866867 0
M  V30 720 H 70.0735 -5.18786 -0.903802 0
M  V30 721 H 72.5645 -3.7709 -0.247286 0
M  V30 722 H 72.8775 -7.72707 0.119905 0
M  V30 723 H 71.2225 -6.94927 0.100885 0
M  V30 724 H 74.4135 -4.67572 -0.222187 0
M  V30 725 H 74.5865 -6.47977 -0.0549735 0
M  V30 726 N 67.9926 0.231505 -1.5589 0
M  V30 727 C 69.2206 0.974505 -1.82513 0
M  V30 728 C 69.6356 1.78344 -0.619591 0
M  V30 729 O 68.9926 1.77792 0.411848 0
M  V30 730 C 69.0436 1.90007 -3.07538 0
M  V30 731 O 68.7646 1.12385 -4.2344 0
M  V30 732 C 70.2656 2.75779 -3.47075 0
M  V30 733 H 67.4856 0.286065 -0.606966 0
M  V30 734 H 70.0296 0.249739 -2.02969 0
M  V30 735 H 68.1846 2.57891 -2.89086 0
M  V30 736 H 68.5986 1.75125 -4.944 0
M  V30 737 H 70.0726 3.36443 -4.37619 0
M  V30 738 H 70.5496 3.47672 -2.68367 0
M  V30 739 H 71.1556 2.13323 -3.67931 0
M  V30 740 N 69.4707 1.49531 0.497807 0
M  V30 741 C 70.8817 1.52344 1.07927 0
M  V30 742 C 71.2327 0.311469 1.93712 0
M  V30 743 O 70.3577 -0.578405 2.08527 0
M  V30 744 C 70.9527 2.76062 1.96405 0
M  V30 745 C 69.5117 2.81643 2.49709 0
M  V30 746 C 68.6587 2.46299 1.27404 0
M  V30 747 H 71.6097 1.56182 0.281576 0
M  V30 748 H 71.6307 2.56405 2.81135 0
M  V30 749 H 71.1427 3.64254 1.33943 0
M  V30 750 H 69.2437 1.97739 3.15801 0
M  V30 751 H 69.3567 3.83891 2.86643 0
M  V30 752 H 67.7207 1.98148 1.60029 0
M  V30 753 H 68.5037 3.36769 0.66645 0
M  V30 754 N 70.9488 -0.749086 1.3866 0
M  V30 755 C 72.1958 -1.50833 1.35114 0
M  V30 756 C 72.5238 -1.94415 -0.0574049 0
M  V30 757 O 71.7788 -1.66065 -1.03541 0
M  V30 758 C 72.0778 -2.7712 2.25697 0
M  V30 759 C 71.7438 -2.52477 3.73585 0
M  V30 760 C 70.4058 -2.45466 4.13884 0
M  V30 761 C 72.7578 -2.31066 4.67181 0
M  V30 762 C 70.0858 -2.15064 5.45861 0
M  V30 763 C 72.4378 -2.02183 5.9942 0
M  V30 764 C 71.1018 -1.93631 6.38798 0
M  V30 765 H 70.3718 -0.551936 0.494416 0
M  V30 766 H 73.0188 -0.860979 1.71054 0
M  V30 767 H 71.3238 -3.46528 1.82827 0
M  V30 768 H 73.0208 -3.35096 2.20254 0
M  V30 769 H 69.6108 -2.58807 3.41638 0
M  V30 770 H 73.7948 -2.35459 4.3689 0
M  V30 771 H 69.0508 -2.06954 5.75308 0
M  V30 772 H 73.2248 -1.8462 6.71482 0
M  V30 773 H 70.8518 -1.69839 7.40985 0
M  V30 774 N 72.4269 -1.23603 -0.977757 0
M  V30 775 C 73.6519 -1.09735 -1.75991 0
M  V30 776 C 74.0769 0.346858 -1.84874 0
M  V30 777 O 73.4349 1.25093 -1.3123 0
M  V30 778 C 73.4829 -1.73051 -3.16363 0
M  V30 779 O 72.5869 -0.994452 -4.0023 0
M  V30 780 H 71.9279 -0.384476 -0.541364 0
M  V30 781 H 74.4579 -1.6371 -1.2272 0
M  V30 782 H 74.4679 -1.78398 -3.66931 0
M  V30 783 H 73.1429 -2.78137 -3.09213 0
M  V30 784 H 71.7199 -1.01812 -3.58732 0
M  V30 785 N 73.905 1.17692 -1.04816 0
M  V30 786 C 74.855 2.1952 -0.616042 0
M  V30 787 C 75.839 1.57147 0.345485 0
M  V30 788 O 77.031 1.76245 0.163325 0
M  V30 789 C 74.16 3.43298 0.0116917 0
M  V30 790 C 73.246 4.12777 -0.973435 0
M  V30 791 N 73.637 4.5814 -2.14339 0
M  V30 792 C 71.935 4.38747 -0.80108 0
M  V30 793 C 72.636 5.11713 -2.7663 0
M  V30 794 N 71.612 5.03686 -2.04453 0
M  V30 795 H 75.414 2.52293 -1.5075 0
M  V30 796 H 72.928 1.3398 -0.917776 0
M  V30 797 H 74.925 4.15519 0.339006 0
M  V30 798 H 73.585 3.12018 0.898593 0
M  V30 799 H 74.596 4.52349 -2.52191 0
M  V30 800 H 71.273 4.17485 0.0350934 0
M  V30 801 H 72.663 5.56962 -3.75823 0
M  V30 802 N 75.3831 0.828654 1.34056 0
M  V30 803 C 76.2931 0.256725 2.33191 0
M  V30 804 C 77.3091 -0.611898 1.62886 0
M  V30 805 O 78.4851 -0.51844 1.94613 0
M  V30 806 C 75.5501 -0.567238 3.42028 0
M  V30 807 C 74.6111 0.324458 4.28072 0
M  V30 808 C 73.8441 -0.460274 5.31712 0
M  V30 809 O 74.0671 -1.693 5.44696 0
M  V30 810 O 73.0011 0.160391 6.01686 0
M  V30 811 H 76.8271 1.07739 2.83947 0
M  V30 812 H 74.4121 0.59093 1.37217 0
M  V30 813 H 76.2941 -1.03582 4.08471 0
M  V30 814 H 74.9691 -1.36513 2.93506 0
M  V30 815 H 73.8761 0.840659 3.64532 0
M  V30 816 H 75.2091 1.08685 4.8005 0
M  V30 817 N 76.8612 -1.46375 0.584142 0
M  V30 818 C 78.1072 -2.02678 0.0703716 0
M  V30 819 C 78.4402 -1.4545 -1.28678 0
M  V30 820 O 77.7152 -0.62014 -1.84349 0
M  V30 821 C 77.9982 -3.60099 0.00614674 0
M  V30 822 C 77.8512 -4.27709 1.3923 0
M  V30 823 C 79.1702 -4.34598 -0.693742 0
M  V30 824 H 76.2892 -0.736504 0.027047 0
M  V30 825 H 78.9312 -1.74501 0.751615 0
M  V30 826 H 77.0812 -3.84236 -0.574009 0
M  V30 827 H 78.7532 -4.14832 2.01773 0
M  V30 828 H 76.9962 -3.87016 1.95962 0
M  V30 829 H 77.6672 -5.36478 1.29982 0
M  V30 830 H 80.1432 -4.15615 -0.200869 0
M  V30 831 H 79.0192 -5.44318 -0.707714 0
M  V30 832 H 79.2802 -4.05759 -1.75533 0
M  V30 833 N 78.3393 -0.321999 -1.54275 0
M  V30 834 C 79.5883 0.281931 -1.9972 0
M  V30 835 C 79.9013 1.53369 -1.21397 0
M  V30 836 O 81.1073 2.21352 -1.57211 0
M  V30 837 C 79.5633 0.5529 -3.55628 0
M  V30 838 C 79.1713 -0.681721 -4.42783 0
M  V30 839 C 80.9153 1.11687 -4.09544 0
M  V30 840 C 78.8223 -0.382742 -5.9016 0
M  V30 841 H 77.7523 0.109124 -0.746062 0
M  V30 842 H 80.4033 -0.43398 -1.78294 0
M  V30 843 H 78.7853 1.32896 -3.73035 0
M  V30 844 H 79.9593 -1.45723 -4.37151 0
M  V30 845 H 78.2743 -1.1658 -3.99748 0
M  V30 846 H 80.8713 1.35515 -5.17242 0
M  V30 847 H 81.2143 2.06575 -3.61431 0
M  V30 848 H 81.7473 0.402032 -3.95763 0
M  V30 849 H 78.4863 -1.30076 -6.42464 0
M  V30 850 H 78.0063 0.355094 -5.98748 0
M  V30 851 H 79.6853 0.00800157 -6.47 0
M  V30 852 N 79.8174 1.5752 -0.0501392 0
M  V30 853 C 81.0634 1.92936 0.624798 0
M  V30 854 C 81.3964 0.928685 1.70555 0
M  V30 855 O 80.6714 -0.0454779 1.94447 0
M  V30 856 C 80.9544 3.38737 1.22185 0
M  V30 857 C 80.8074 4.49552 0.149218 0
M  V30 858 C 82.1264 3.84913 2.13378 0
M  V30 859 H 79.2454 0.701604 0.225657 0
M  V30 860 H 81.8874 1.89671 -0.111693 0
M  V30 861 H 80.0374 3.4165 1.84953 0
M  V30 862 H 81.7094 4.58768 -0.482648 0
M  V30 863 H 79.9524 4.30638 -0.522841 0
M  V30 864 H 80.6234 5.48653 0.606966 0
M  V30 865 H 83.0994 3.8387 1.60572 0
M  V30 866 H 81.9754 4.87584 2.52097 0
M  V30 867 H 82.2364 3.21611 3.03346 0
M  V30 868 N 81.2955 -0.223234 1.56011 0
M  V30 869 C 82.2285 -1.30377 1.87289 0
M  V30 870 C 83.2065 -1.45286 0.730112 0
M  V30 871 O 84.3905 -1.61126 0.978302 0
M  V30 872 C 81.5175 -2.67431 2.07843 0
M  V30 873 C 80.5635 -2.69546 3.30526 0
M  V30 874 S 81.3965 -2.23781 4.865 0
M  V30 875 C 82.5525 -3.62714 5.10088 0
M  V30 876 H 82.7855 -1.03652 2.78646 0
M  V30 877 H 80.3185 -0.425393 1.48424 0
M  V30 878 H 82.2765 -3.46336 2.20368 0
M  V30 879 H 80.9375 -2.91381 1.17285 0
M  V30 880 H 80.1305 -3.70255 3.41947 0
M  V30 881 H 79.7325 -1.98703 3.16849 0
M  V30 882 H 82.0245 -4.58391 4.98883 0
M  V30 883 H 82.9675 -3.5621 6.11981 0
M  V30 884 H 83.3755 -3.56323 4.37829 0
M  V30 885 N 82.7736 -1.49793 -0.48987 0
M  V30 886 C 84.0506 -1.50348 -1.25119 0
M  V30 887 C 84.4306 -0.237466 -2.0976 0
M  V30 888 O 83.7786 0.77981 -2.14782 0
M  V30 889 C 83.9886 -2.78872 -2.09837 0
M  V30 890 C 85.3366 -3.288 -2.68655 0
M  V30 891 O 86.3606 -2.80065 -2.20096 0
M  V30 892 O 85.2196 -4.13707 -3.57083 0
M  V30 893 H 82.3136 -0.602242 -0.566775 0
M  V30 894 H 84.8596 -1.62067 -0.503229 0
M  V30 895 H 83.6316 -3.62499 -1.47343 0
M  V30 896 H 83.2546 -2.70066 -2.91805 0
M  V30 897 N 84.2517 0.741722 -1.39055 0
M  V30 898 C 85.1847 1.86416 -1.31622 0
M  V30 899 C 86.1627 1.61473 -0.191076 0
M  V30 900 O 87.3467 1.84825 -0.370399 0
M  V30 901 C 84.4737 3.22266 -1.04221 0
M  V30 902 C 83.5197 3.66079 -2.18834 0
M  V30 903 S 84.3527 3.7623 -3.81066 0
M  V30 904 C 85.5087 5.14881 -3.55877 0
M  V30 905 H 85.7417 1.92437 -2.26617 0
M  V30 906 H 83.2747 0.905907 -1.25031 0
M  V30 907 H 85.2327 4.00714 -0.890964 0
M  V30 908 H 83.8937 3.1391 -0.109237 0
M  V30 909 H 83.0867 4.64648 -1.95238 0
M  V30 910 H 82.6887 2.94817 -2.30128 0
M  V30 911 H 84.9807 6.01006 -3.12726 0
M  V30 912 H 85.9237 5.43503 -4.53884 0
M  V30 913 H 86.3317 4.84239 -2.90126 0
M  V30 914 N 85.7298 1.2412 0.971189 0
M  V30 915 C 87.0068 0.986867 1.6888 0
M  V30 916 C 87.3868 -0.491857 2.0529 0
M  V30 917 O 86.7348 -1.46531 1.75331 0
M  V30 918 C 86.9448 1.9063 2.92338 0
M  V30 919 C 88.2928 2.17515 3.64654 0
M  V30 920 O 89.3168 1.88254 3.02388 0
M  V30 921 O 88.1758 2.6719 4.7673 0
M  V30 922 H 85.2698 0.372944 0.738134 0
M  V30 923 H 87.8158 1.35203 1.02559 0
M  V30 924 H 86.5878 2.90552 2.62097 0
M  V30 925 H 86.2108 1.54408 3.66393 0
M  V30 926 N 87.2079 -1.17134 1.05439 0
M  V30 927 C 88.6189 -1.69084 0.791676 0
M  V30 928 C 88.9699 -1.83822 -0.685839 0
M  V30 929 O 88.0949 -1.52757 -1.53278 0
M  V30 930 C 88.6899 -3.07119 1.4305 0
M  V30 931 C 87.2489 -3.56225 1.21577 0
M  V30 932 C 86.3959 -2.32421 1.51247 0
M  V30 933 H 89.3469 -1.01617 1.219 0
M  V30 934 H 89.3679 -3.71087 0.84112 0
M  V30 935 H 88.8799 -2.9636 2.50584 0
M  V30 936 H 86.9809 -3.72257 0.159787 0
M  V30 937 H 87.0939 -4.38837 1.92246 0
M  V30 938 H 85.4579 -2.3701 0.932653 0
M  V30 939 H 86.2409 -2.24268 2.5992 0
M  V30 940 N 88.686 -0.835752 -1.33615 0
M  V30 941 C 89.933 -0.429959 -1.97883 0
M  V30 942 C 90.261 1.01006 -1.66217 0
M  V30 943 O 89.516 1.72047 -0.93265 0
M  V30 944 C 89.815 -0.593925 -3.52431 0
M  V30 945 C 89.481 -2.00158 -4.04039 0
M  V30 946 C 88.143 -2.38662 -4.17844 0
M  V30 947 C 90.495 -2.92117 -4.31644 0
M  V30 948 C 87.823 -3.68435 -4.56588 0
M  V30 949 C 90.175 -4.21368 -4.71838 0
M  V30 950 C 88.839 -4.59833 -4.83849 0
M  V30 951 H 88.109 -0.157333 -0.724104 0
M  V30 952 H 90.756 -1.06217 -1.59343 0
M  V30 953 H 89.061 0.121619 -3.91611 0
M  V30 954 H 90.758 -0.260282 -4.00154 0
M  V30 955 H 87.348 -1.69252 -3.93766 0
M  V30 956 H 91.532 -2.63608 -4.20505 0
M  V30 957 H 86.788 -3.98046 -4.64079 0
M  V30 958 H 90.962 -4.92703 -4.92155 0
M  V30 959 H 88.589 -5.60438 -5.13627 0
M  V30 960 N 90.1641 1.46063 -0.591896 0
M  V30 961 C 91.0941 2.33172 0.123673 0
M  V30 962 C 92.0751 1.45897 0.87453 0
M  V30 963 O 93.2601 1.74698 0.848181 0
M  V30 964 C 90.3901 3.28336 1.13194 0
M  V30 965 C 89.3441 4.25124 0.495324 0
M  V30 966 C 88.6701 5.09863 1.61071 0
M  V30 967 C 89.9701 5.19143 -0.573425 0
M  V30 968 H 91.6641 2.93252 -0.603646 0
M  V30 969 H 89.2101 1.41014 -0.291741 0
M  V30 970 H 91.1631 3.88137 1.64097 0
M  V30 971 H 89.8871 2.66383 1.88965 0
M  V30 972 H 88.5461 3.66599 0.00729452 0
M  V30 973 H 88.1941 4.44288 2.35832 0
M  V30 974 H 87.8941 5.75417 1.19035 0
M  V30 975 H 89.4181 5.72529 2.12233 0
M  V30 976 H 90.8321 5.73106 -0.1491 0
M  V30 977 H 89.2291 5.93089 -0.914636 0
M  V30 978 H 90.2991 4.62519 -1.45617 0
M  V30 979 N 91.6422 0.330177 1.54103 0
M  V30 980 C 92.5922 -0.548456 2.21305 0
M  V30 981 C 93.5762 -1.07651 1.19583 0
M  V30 982 O 94.7682 -1.01243 1.45186 0
M  V30 983 C 91.8972 -1.70559 2.97934 0
M  V30 984 C 90.9832 -1.19212 4.07 0
M  V30 985 N 91.3742 -0.398831 5.04225 0
M  V30 986 C 89.6722 -1.47024 4.2107 0
M  V30 987 C 90.3732 -0.121761 5.81573 0
M  V30 988 N 89.3492 -0.709722 5.38947 0
M  V30 989 H 93.1512 0.0648483 2.93828 0
M  V30 990 H 90.6652 0.136363 1.61826 0
M  V30 991 H 92.6622 -2.34688 3.44568 0
M  V30 992 H 91.3222 -2.32231 2.26934 0
M  V30 993 H 92.3332 -0.0410869 5.17884 0
M  V30 994 H 89.0102 -2.09232 3.61287 0
M  V30 995 H 90.4002 0.517298 6.69906 0
M  V30 996 N 93.1203 -1.57491 0.0584922 0
M  V30 997 C 94.3603 -1.94851 -0.617458 0
M  V30 998 C 94.7243 -0.937165 -1.67575 0
M  V30 999 O 95.9253 -1.19795 -2.40629 0
M  V30 1000 C 94.1963 -3.36955 -1.19147 0
M  V30 1001 S 95.7553 -3.96277 -1.8844 0
M  V30 1002 H 92.5733 -0.681539 -0.202547 0
M  V30 1003 H 95.1753 -1.95073 0.129176 0
M  V30 1004 H 93.8793 -4.08355 -0.409215 0
M  V30 1005 H 93.4103 -3.40245 -1.97476 0
M  V30 1006 H 95.4253 -3.82099 -3.16568 0
M  V30 1007 N 94.5984 0.214957 -1.56127 0
M  V30 1008 C 95.8444 0.939762 -1.79712 0
M  V30 1009 C 96.1774 1.83723 -0.629247 0
M  V30 1010 O 95.4524 1.90925 0.371197 0
M  V30 1011 C 95.7354 1.77306 -3.13424 0
M  V30 1012 C 95.5884 0.90164 -4.40671 0
M  V30 1013 C 96.9074 2.74956 -3.43638 0
M  V30 1014 H 94.0264 0.340214 -0.653776 0
M  V30 1015 H 96.6684 0.20824 -1.88855 0
M  V30 1016 H 94.8184 2.39673 -3.0576 0
M  V30 1017 H 96.4904 0.294206 -4.60361 0
M  V30 1018 H 94.7334 0.207368 -4.33304 0
M  V30 1019 H 95.4044 1.51923 -5.30682 0
M  V30 1020 H 97.8804 2.22724 -3.51473 0
M  V30 1021 H 96.7564 3.30358 -4.38355 0
M  V30 1022 H 97.0174 3.53023 -2.66134 0
M  V30 1023 N 96.0765 1.50051 0.48192 0
M  V30 1024 C 97.3255 1.59741 1.23149 0
M  V30 1025 C 97.6385 0.298163 1.93314 0
M  V30 1026 O 98.8445 0.273835 2.70116 0
M  V30 1027 C 97.3005 2.81926 2.23708 0
M  V30 1028 C 96.9085 4.18685 1.59396 0
M  V30 1029 C 98.6525 3.00956 2.99375 0
M  V30 1030 C 96.5595 5.3207 2.58178 0
M  V30 1031 H 95.4895 0.594838 0.46334 0
M  V30 1032 H 98.1405 1.76467 0.503169 0
M  V30 1033 H 96.5225 2.58736 2.99786 0
M  V30 1034 H 97.6965 4.52088 0.891811 0
M  V30 1035 H 96.0115 4.05171 0.960503 0
M  V30 1036 H 98.6085 3.82836 3.73283 0
M  V30 1037 H 98.9515 2.12258 3.58123 0
M  V30 1038 H 99.4845 3.24277 2.30411 0
M  V30 1039 H 96.2235 6.22888 2.04184 0
M  V30 1040 H 95.7435 5.03098 3.26577 0
M  V30 1041 H 97.4225 5.62196 3.20225 0
M  V30 1042 N 97.5546 -0.734337 1.39446 0
M  V30 1043 C 98.9656 -1.31264 1.32766 0
M  V30 1044 C 99.3166 -1.96198 -0.00767497 0
M  V30 1045 O 98.4416 -1.96346 -0.909796 0
M  V30 1046 C 99.0366 -2.38682 2.4045 0
M  V30 1047 C 97.5956 -2.92184 2.37288 0
M  V30 1048 C 96.7426 -1.6576 2.22304 0
M  V30 1049 H 99.6936 -0.531799 1.49525 0
M  V30 1050 H 99.7146 -3.19087 2.07276 0
M  V30 1051 H 99.2266 -1.91392 3.37625 0
M  V30 1052 H 97.3276 -3.43752 1.43754 0
M  V30 1053 H 97.4406 -3.45253 3.3217 0
M  V30 1054 H 95.8046 -1.9012 1.69489 0
M  V30 1055 H 96.5876 -1.20521 3.21449 0
M  V30 1056 N 99.0327 -1.24633 -0.964593 0
M  V30 1057 C 99.9807 -1.03917 -2.08096 0
M  V30 1058 C 100.975 0.0268581 -1.69379 0
M  V30 1059 O 102.181 -0.127952 -1.79545 0
M  V30 1060 H 98.5557 -0.319044 -0.680966 0
M  V30 1061 H 100.527 -1.98581 -2.22729 0
M  V30 1062 C 99.2757 -0.663983 -3.41301 0
M  V30 1063 H 98.5987 -1.47605 -3.71555 0
M  V30 1064 H 100.039 -0.558663 -4.20303 0
M  V30 1065 C 98.4977 0.629169 -3.30973 0
M  V30 1066 O 99.0277 1.67404 -3.65156 0
M  V30 1067 N 97.2337 0.611057 -2.84103 0
M  V30 1068 H 96.7807 -0.239593 -2.56483 0
M  V30 1069 H 96.7387 1.47647 -2.77575 0
M  V30 1070 N 100.511 1.16574 -1.06058 0
M  V30 1071 C 101.758 1.87047 -0.775873 0
M  V30 1072 C 102.086 1.81562 0.697534 0
M  V30 1073 O 101.341 1.22445 1.52662 0
M  V30 1074 C 101.64 3.36195 -1.21275 0
M  V30 1075 C 101.306 3.6188 -2.68986 0
M  V30 1076 C 99.9678 3.68599 -3.09335 0
M  V30 1077 C 102.32 3.72648 -3.64394 0
M  V30 1078 C 99.6478 3.83584 -4.43937 0
M  V30 1079 C 102 3.89154 -4.98741 0
M  V30 1080 C 100.664 3.94114 -5.3873 0
M  V30 1081 H 99.9338 0.684452 -0.283912 0
M  V30 1082 H 102.581 1.37853 -1.32925 0
M  V30 1083 H 100.886 3.87505 -0.578528 0
M  V30 1084 H 102.583 3.89103 -0.969542 0
M  V30 1085 H 99.1728 3.57281 -2.36744 0
M  V30 1086 H 103.357 3.66769 -3.34356 0
M  V30 1087 H 98.6128 3.85677 -4.74409 0
M  V30 1088 H 102.787 3.96427 -5.72554 0
M  V30 1089 H 100.414 4.05478 -6.43033 0
M  V30 1090 N 101.989 0.842826 1.3317 0
M  V30 1091 C 103.238 0.436738 1.96915 0
M  V30 1092 C 103.551 -1.01025 1.67491 0
M  V30 1093 O 104.757 -1.5212 2.24881 0
M  V30 1094 C 103.213 0.730021 3.52418 0
M  V30 1095 C 102.821 2.19195 3.90714 0
M  V30 1096 C 104.565 0.391076 4.22695 0
M  V30 1097 C 102.472 2.42907 5.39212 0
M  V30 1098 H 101.402 0.15958 0.736919 0
M  V30 1099 H 104.053 1.03196 1.51733 0
M  V30 1100 H 102.435 0.0643755 3.95948 0
M  V30 1101 H 103.609 2.8984 3.58231 0
M  V30 1102 H 101.924 2.49425 3.33431 0
M  V30 1103 H 104.521 0.545817 5.31907 0
M  V30 1104 H 104.864 -0.666294 4.10933 0
M  V30 1105 H 105.397 1.01212 3.84709 0
M  V30 1106 H 102.136 3.47224 5.55982 0
M  V30 1107 H 101.656 1.76827 5.73142 0
M  V30 1108 H 103.335 2.2626 6.06148 0
M  V30 1109 N 103.467 -1.45747 0.599634 0
M  V30 1110 C 104.399 -2.28628 -0.161879 0
M  V30 1111 C 105.412 -1.39494 -0.839367 0
M  V30 1112 O 106.601 -1.63941 -0.706089 0
M  V30 1113 C 103.701 -3.15014 -1.24976 0
M  V30 1114 C 102.874 -4.32378 -0.660935 0
M  V30 1115 C 101.933 -5.00033 -1.63869 0
M  V30 1116 O 100.959 -5.57085 -1.1681 0
M  V30 1117 N 102.161 -4.98589 -2.97303 0
M  V30 1118 H 104.926 -2.94624 0.549265 0
M  V30 1119 H 102.487 -1.55847 0.438565 0
M  V30 1120 H 104.479 -3.5714 -1.9035 0
M  V30 1121 H 103.049 -2.5098 -1.86354 0
M  V30 1122 H 102.269 -3.9383 0.170688 0
M  V30 1123 H 103.557 -5.08197 -0.247619 0
M  V30 1124 H 102.955 -4.53514 -3.38145 0
M  V30 1125 H 101.512 -5.44603 -3.58121 0
M  V30 1126 N 104.945 -0.338344 -1.53925 0
M  V30 1127 C 106.17 0.263987 -2.05713 0
M  V30 1128 C 106.595 1.43847 -1.21201 0
M  V30 1129 O 105.953 1.79904 -0.224535 0
M  V30 1130 C 106.001 0.662 -3.54471 0
M  V30 1131 O 105.105 1.76265 -3.72833 0
M  V30 1132 H 104.446 0.0448722 -0.662482 0
M  V30 1133 H 106.976 -0.491048 -1.9862 0
M  V30 1134 H 106.986 0.940594 -3.9701 0
M  V30 1135 H 105.661 -0.196937 -4.15433 0
M  V30 1136 H 104.238 1.48173 -3.42198 0
M  V30 1137 N 106.423 1.57458 -0.0668435 0
M  V30 1138 C 107.355 2.09413 0.931601 0
M  V30 1139 C 108.368 1.02522 1.26464 0
M  V30 1140 O 109.557 1.30049 1.22269 0
M  V30 1141 C 106.657 2.53537 2.24882 0
M  V30 1142 C 105.83 3.83944 2.09537 0
M  V30 1143 C 104.889 4.14214 3.2452 0
M  V30 1144 O 103.915 4.83891 2.9973 0
M  V30 1145 N 105.117 3.67367 4.49469 0
M  V30 1146 H 107.882 2.95699 0.488048 0
M  V30 1147 H 105.443 1.61462 0.119009 0
M  V30 1148 H 107.435 2.70853 3.00701 0
M  V30 1149 H 106.005 1.72415 2.60753 0
M  V30 1150 H 105.225 3.76057 1.18215 0
M  V30 1151 H 106.513 4.69312 1.96529 0
M  V30 1152 H 105.911 3.11068 4.72497 0
M  V30 1153 H 104.468 3.89891 5.2233 0
M  V30 1154 N 107.901 -0.206675 1.56239 0
M  V30 1155 C 109.178 -0.954051 1.70755 0
M  V30 1156 C 109.558 -2.01841 0.618353 0
M  V30 1157 O 108.906 -2.25444 -0.372434 0
M  V30 1158 C 109.116 -1.551 3.12642 0
M  V30 1159 C 110.464 -2.03757 3.72516 0
M  V30 1160 O 111.488 -1.64965 3.15698 0
M  V30 1161 O 110.347 -2.75103 4.72208 0
M  V30 1162 H 107.441 -0.446636 0.696021 0
M  V30 1163 H 109.987 -0.197283 1.68549 0
M  V30 1164 H 108.759 -0.783212 3.83382 0
M  V30 1165 H 108.382 -2.37291 3.19028 0
M  V30 1166 N 109.379 -1.50304 -0.473955 0
M  V30 1167 C 110.626 -1.6115 -1.22625 0
M  V30 1168 C 110.954 -0.310517 -1.92005 0
M  V30 1169 O 110.209 0.703419 -1.82621 0
M  V30 1170 C 110.508 -2.73938 -2.29549 0
M  V30 1171 C 110.174 -4.14519 -1.7744 0
M  V30 1172 C 108.836 -4.5277 -1.62949 0
M  V30 1173 C 111.188 -5.02392 -1.3875 0
M  V30 1174 C 108.516 -5.76639 -1.08187 0
M  V30 1175 C 110.868 -6.26805 -0.854309 0
M  V30 1176 C 109.532 -6.63861 -0.696011 0
M  V30 1177 H 108.802 -0.589691 -0.448715 0
M  V30 1178 H 111.449 -1.84228 -0.522705 0
M  V30 1179 H 109.754 -2.44937 -3.05799 0
M  V30 1180 H 111.451 -2.79534 -2.87509 0
M  V30 1181 H 108.041 -3.8434 -1.89685 0
M  V30 1182 H 112.225 -4.73474 -1.4878 0
M  V30 1183 H 107.481 -6.04027 -0.946666 0
M  V30 1184 H 111.655 -6.94258 -0.545843 0
M  V30 1185 H 109.282 -7.59722 -0.26952 0
M  V30 1186 N 110.857 0.726932 -1.39834 0
M  V30 1187 C 111.787 1.85405 -1.41941 0
M  V30 1188 C 112.768 1.67751 -0.281728 0
M  V30 1189 O 113.953 1.8795 -0.488717 0
M  V30 1190 C 111.083 3.23243 -1.2701 0
M  V30 1191 C 110.037 3.55549 -2.38262 0
M  V30 1192 C 109.363 4.9241 -2.08415 0
M  V30 1193 C 110.663 3.577 -3.80589 0
M  V30 1194 H 112.357 1.83899 -2.36266 0
M  V30 1195 H 109.903 0.883349 -1.13723 0
M  V30 1196 H 111.856 4.01775 -1.27103 0
M  V30 1197 H 110.58 3.25296 -0.291564 0
M  V30 1198 H 109.239 2.79351 -2.37399 0
M  V30 1199 H 108.887 4.91052 -1.0898 0
M  V30 1200 H 108.587 5.14992 -2.82943 0
M  V30 1201 H 110.111 5.73289 -2.10171 0
M  V30 1202 H 111.525 4.26293 -3.83337 0
M  V30 1203 H 109.922 3.91804 -4.54543 0
M  V30 1204 H 110.992 2.57328 -4.10987 0
M  V30 1205 N 112.336 1.25143 0.95797 0
M  V30 1206 C 113.246 1.06968 2.08794 0
M  V30 1207 C 114.262 0.00773911 1.73998 0
M  V30 1208 O 115.438 0.207972 2.00323 0
M  V30 1209 C 112.503 0.68691 3.39827 0
M  V30 1210 C 111.564 1.82641 3.88511 0
M  V30 1211 C 110.797 1.46181 5.1329 0
M  V30 1212 O 111.02 0.355971 5.69288 0
M  V30 1213 O 109.954 2.29085 5.566 0
M  V30 1214 H 113.78 2.01723 2.27027 0
M  V30 1215 H 111.365 1.04051 1.07209 0
M  V30 1216 H 113.247 0.485417 4.18595 0
M  V30 1217 H 111.922 -0.231417 3.22872 0
M  V30 1218 H 110.829 2.08274 3.10762 0
M  V30 1219 H 112.162 2.72386 4.09959 0
M  V30 1220 N 113.814 -1.1601 1.06675 0
M  V30 1221 C 115.062 -1.86264 0.784229 0
M  V30 1222 C 115.383 -1.82328 -0.691488 0
M  V30 1223 O 114.653 -1.25947 -1.50047 0
M  V30 1224 H 113.233 -0.689621 0.28711 0
M  V30 1225 H 115.895 -1.40664 1.34906 0
M  V30 1226 H 114.991 -2.91595 1.11259 0
M  V30 1227 N 115.292 -0.849877 -1.32721 0
M  V30 1228 C 116.222 -0.306308 -2.31482 0
M  V30 1229 C 117.203 0.591952 -1.59468 0
M  V30 1230 O 118.388 0.513199 -1.87296 0
M  V30 1231 C 115.518 0.510204 -3.43532 0
M  V30 1232 C 114.472 -0.293209 -4.26994 0
M  V30 1233 C 113.798 0.647743 -5.30762 0
M  V30 1234 C 115.098 -1.51634 -4.99804 0
M  V30 1235 H 116.792 -1.13153 -2.77195 0
M  V30 1236 H 114.338 -0.545553 -1.33266 0
M  V30 1237 H 116.291 0.900856 -4.11658 0
M  V30 1238 H 115.015 1.36874 -2.96535 0
M  V30 1239 H 113.674 -0.665555 -3.60508 0
M  V30 1240 H 113.322 1.50299 -4.8002 0
M  V30 1241 H 113.022 0.11422 -5.87489 0
M  V30 1242 H 114.546 1.03567 -6.01753 0
M  V30 1243 H 115.96 -1.19824 -5.60638 0
M  V30 1244 H 114.357 -1.98745 -5.66234 0
M  V30 1245 H 115.427 -2.28018 -4.27943 0
M  V30 1246 N 116.77 1.45427 -0.607355 0
M  V30 1247 C 117.702 2.2871 0.149752 0
M  V30 1248 C 118.715 1.39937 0.831958 0
M  V30 1249 O 119.904 1.64313 0.697385 0
M  V30 1250 C 117.004 3.15673 1.23304 0
M  V30 1251 C 116.177 4.32722 0.637996 0
M  V30 1252 C 115.236 5.00895 1.61215 0
M  V30 1253 O 114.262 5.57697 1.13854 0
M  V30 1254 N 115.464 5.00159 2.94655 0
M  V30 1255 H 118.229 2.94328 -0.564882 0
M  V30 1256 H 115.79 1.55612 -0.446823 0
M  V30 1257 H 117.782 3.58144 1.88454 0
M  V30 1258 H 116.352 2.51965 1.8502 0
M  V30 1259 H 115.572 3.93734 -0.191572 0
M  V30 1260 H 116.86 5.08321 0.220665 0
M  V30 1261 H 116.258 4.553 3.35735 0
M  V30 1262 H 114.815 5.46495 3.55228 0
M  V30 1263 N 118.248 0.346503 1.53744 0
M  V30 1264 C 119.195 -0.508914 2.25119 0
M  V30 1265 C 120.165 -1.09315 1.25058 0
M  V30 1266 O 121.35 -1.12921 1.53797 0
M  V30 1267 C 118.49 -1.65246 3.02965 0
M  V30 1268 C 117.603 -1.09525 4.17886 0
M  V30 1269 C 116.738 -2.20634 4.83212 0
M  V30 1270 C 115.777 -1.62279 5.90196 0
M  V30 1271 N 114.914 -2.67143 6.49291 0
M  V30 1272 H 119.754 0.106283 2.9781 0
M  V30 1273 H 117.291 0.0642227 1.4696 0
M  V30 1274 H 119.249 -2.32574 3.4636 0
M  V30 1275 H 117.879 -2.2386 2.32565 0
M  V30 1276 H 116.931 -0.312818 3.79112 0
M  V30 1277 H 118.243 -0.628444 4.94825 0
M  V30 1278 H 117.397 -2.95821 5.29693 0
M  V30 1279 H 116.136 -2.70659 4.05703 0
M  V30 1280 H 115.141 -0.855989 5.43096 0
M  V30 1281 H 116.366 -1.13102 6.69615 0
M  V30 1282 H 114.312 -3.16417 5.74645 0
M  V30 1283 H 114.229 -2.25093 7.21713 0
M  V30 1284 H 115.497 -3.4209 7.00425 0
M  V30 1285 N 119.726 -1.57421 0.075193 0
M  V30 1286 C 120.636 -2.1642 -0.905511 0
M  V30 1287 C 121.652 -1.12828 -1.32461 0
M  V30 1288 O 122.828 -1.45109 -1.39661 0
M  V30 1289 C 119.893 -2.71693 -2.15369 0
M  V30 1290 C 118.954 -3.90171 -1.79068 0
M  V30 1291 C 118.187 -4.42798 -2.97936 0
M  V30 1292 O 118.41 -3.94416 -4.12058 0
M  V30 1293 O 117.344 -5.34085 -2.77555 0
M  V30 1294 H 121.17 -3.00588 -0.433626 0
M  V30 1295 H 118.755 -1.48664 -0.148067 0
M  V30 1296 H 120.637 -3.07104 -2.88557 0
M  V30 1297 H 119.312 -1.90582 -2.61649 0
M  V30 1298 H 118.219 -3.59606 -1.03122 0
M  V30 1299 H 119.552 -4.72584 -1.37569 0
M  V30 1300 N 121.204 0.198386 -1.56346 0
M  V30 1301 C 122.134 1.24865 -1.9731 0
M  V30 1302 C 123.115 1.47651 -0.844576 0
M  V30 1303 O 124.3 1.59444 -1.10866 0
M  V30 1304 C 121.43 2.59358 -2.30977 0
M  V30 1305 C 120.384 2.5119 -3.46537 0
M  V30 1306 C 119.71 3.89926 -3.65871 0
M  V30 1307 C 121.01 2.03977 -4.80823 0
M  V30 1308 H 122.704 0.908252 -2.85291 0
M  V30 1309 H 120.25 0.435462 -1.37258 0
M  V30 1310 H 122.203 3.33011 -2.58228 0
M  V30 1311 H 120.927 2.95132 -1.39874 0
M  V30 1312 H 119.586 1.79993 -3.19371 0
M  V30 1313 H 119.234 4.23046 -2.72105 0
M  V30 1314 H 118.934 3.85336 -4.4361 0
M  V30 1315 H 120.458 4.65205 -3.95495 0
M  V30 1316 H 121.872 2.67386 -5.07127 0
M  V30 1317 H 120.269 2.10397 -5.62008 0
M  V30 1318 H 121.339 0.992861 -4.74626 0
M  V30 1319 N 122.682 1.50554 0.465978 0
M  V30 1320 C 123.615 1.64436 1.58227 0
M  V30 1321 C 124.593 0.492367 1.54966 0
M  V30 1322 O 125.777 0.712536 1.74514 0
M  V30 1323 C 122.904 1.63165 2.96808 0
M  V30 1324 C 121.95 2.83987 3.18204 0
M  V30 1325 S 122.783 4.45219 2.97557 0
M  V30 1326 C 123.939 4.46649 4.3847 0
M  V30 1327 H 124.172 2.58861 1.46213 0
M  V30 1328 H 121.705 1.3988 0.653678 0
M  V30 1329 H 123.663 1.63116 3.76701 0
M  V30 1330 H 122.324 0.69967 3.06208 0
M  V30 1331 H 121.517 2.79416 4.19455 0
M  V30 1332 H 121.119 2.81629 2.46092 0
M  V30 1333 H 123.411 4.20526 5.31191 0
M  V30 1334 H 124.354 5.48295 4.48082 0
M  V30 1335 H 124.762 3.76296 4.20787 0
M  V30 1336 N 124.16 -0.719506 1.40217 0
M  V30 1337 C 125.108 -1.85493 1.40339 0
M  V30 1338 C 126.102 -1.66995 0.284415 0
M  V30 1339 O 127.308 -1.74148 0.455252 0
M  V30 1340 H 123.683 -0.610857 0.438586 0
M  V30 1341 H 125.654 -1.82506 2.36081 0
M  V30 1342 C 124.403 -3.23321 1.27901 0
M  V30 1343 H 123.726 -3.38159 2.1328 0
M  V30 1344 H 125.166 -4.02914 1.32045 0
M  V30 1345 C 123.625 -3.36898 -0.0111355 0
M  V30 1346 O 124.155 -3.89674 -0.975538 0
M  V30 1347 N 122.361 -2.90492 -0.0793393 0
M  V30 1348 H 121.908 -2.47731 0.706183 0
M  V30 1349 H 121.866 -2.99955 -0.942038 0
M  V30 1350 N 125.638 -1.25649 -0.95132 0
M  V30 1351 C 126.568 -1.08808 -2.06599 0
M  V30 1352 C 127.549 0.00382547 -1.701 0
M  V30 1353 O 128.734 -0.166325 -1.93486 0
M  V30 1354 C 125.864 -0.709542 -3.39975 0
M  V30 1355 C 124.818 -1.75206 -3.90496 0
M  V30 1356 C 124.144 -1.22811 -5.20405 0
M  V30 1357 C 125.444 -3.15153 -4.16504 0
M  V30 1358 H 127.138 -2.02048 -2.20946 0
M  V30 1359 H 124.684 -0.972835 -1.06169 0
M  V30 1360 H 126.637 -0.578649 -4.17408 0
M  V30 1361 H 125.361 0.258556 -3.25575 0
M  V30 1362 H 124.02 -1.87145 -3.15234 0
M  V30 1363 H 123.668 -0.250145 -5.02378 0
M  V30 1364 H 123.368 -1.92492 -5.55176 0
M  V30 1365 H 124.892 -1.10968 -6.00432 0
M  V30 1366 H 126.306 -3.06349 -4.84586 0
M  V30 1367 H 124.703 -3.82333 -4.62538 0
M  V30 1368 H 125.773 -3.61966 -3.22658 0
M  V30 1369 N 127.117 1.15442 -1.07289 0
M  V30 1370 C 128.394 1.82306 -0.708792 0
M  V30 1371 C 128.774 1.94991 0.808807 0
M  V30 1372 O 128.122 1.50085 1.72298 0
M  V30 1373 C 128.332 3.18695 -1.42247 0
M  V30 1374 C 129.68 3.94341 -1.57417 0
M  V30 1375 O 130.704 3.28247 -1.38319 0
M  V30 1376 O 129.563 5.12839 -1.88834 0
M  V30 1377 H 126.657 0.787628 -0.252132 0
M  V30 1378 H 129.203 1.22559 -1.17377 0
M  V30 1379 H 127.975 3.04557 -2.45684 0
M  V30 1380 H 127.598 3.86128 -0.948223 0
M  V30 1381 N 128.595 0.856903 1.32268 0
M  V30 1382 C 129.842 0.461386 1.97174 0
M  V30 1383 C 130.17 -0.983491 1.67803 0
M  V30 1384 O 129.425 -1.70541 0.959903 0
M  V30 1385 C 129.724 0.649919 3.51441 0
M  V30 1386 C 129.39 2.0656 4.00804 0
M  V30 1387 C 128.052 2.45279 4.13995 0
M  V30 1388 C 130.404 2.98947 4.26943 0
M  V30 1389 C 127.732 3.75653 4.50668 0
M  V30 1390 C 130.084 4.28822 4.65075 0
M  V30 1391 C 128.748 4.67472 4.76472 0
M  V30 1392 H 128.018 0.168833 0.72151 0
M  V30 1393 H 130.665 1.08739 1.57633 0
M  V30 1394 H 128.97 -0.0593018 3.91755 0
M  V30 1395 H 130.667 0.32391 3.9969 0
M  V30 1396 H 127.257 1.75495 3.91024 0
M  V30 1397 H 131.441 2.70265 4.16258 0
M  V30 1398 H 126.697 4.05379 4.57688 0
M  V30 1399 H 130.871 5.0047 4.84255 0
M  V30 1400 H 128.498 5.68539 5.04646 0
M  V30 1401 N 130.073 -1.45103 0.615059 0
M  V30 1402 C 131.023 -2.27679 -0.120966 0
M  V30 1403 C 132.007 -1.3775 -0.831491 0
M  V30 1404 O 133.199 -1.61683 -0.720249 0
M  V30 1405 C 130.328 -3.24767 -1.1127 0
M  V30 1406 C 129.414 -4.22184 -0.402627 0
M  V30 1407 N 129.805 -5.02692 0.559884 0
M  V30 1408 C 128.103 -4.4125 -0.649202 0
M  V30 1409 C 128.804 -5.73421 0.977942 0
M  V30 1410 N 127.78 -5.42657 0.320104 0
M  V30 1411 H 131.582 -2.87325 0.618181 0
M  V30 1412 H 129.096 -1.56345 0.439304 0
M  V30 1413 H 131.093 -3.82666 -1.65446 0
M  V30 1414 H 129.753 -2.66682 -1.85232 0
M  V30 1415 H 130.764 -5.09354 0.936976 0
M  V30 1416 H 127.441 -3.9428 -1.37293 0
M  V30 1417 H 128.831 -6.48107 1.77222 0
M  V30 1418 N 131.551 -0.354651 -1.53558 0
M  V30 1419 C 132.461 0.50515 -2.29097 0
M  V30 1420 C 133.477 1.10223 -1.34636 0
M  V30 1421 O 134.653 1.11553 -1.67684 0
M  V30 1422 C 131.718 1.63479 -3.05738 0
M  V30 1423 C 130.779 1.06636 -4.15845 0
M  V30 1424 C 130.012 2.14217 -4.88822 0
M  V30 1425 O 130.235 3.35137 -4.61562 0
M  V30 1426 O 129.169 1.77887 -5.75013 0
M  V30 1427 H 132.995 -0.109237 -3.03503 0
M  V30 1428 H 130.58 -0.119357 -1.48922 0
M  V30 1429 H 132.462 2.2918 -3.5363 0
M  V30 1430 H 131.137 2.23478 -2.34178 0
M  V30 1431 H 130.044 0.373565 -3.7223 0
M  V30 1432 H 131.377 0.511081 -4.89539 0
M  V30 1433 N 133.029 1.57378 -0.0835403 0
M  V30 1434 C 133.976 2.13384 0.879539 0
M  V30 1435 C 134.946 1.04936 1.28754 0
M  V30 1436 O 136.131 1.32662 1.37133 0
M  V30 1437 C 133.271 2.70932 2.13752 0
M  V30 1438 C 132.384 3.93575 1.7811 0
M  V30 1439 C 131.519 4.39326 2.98607 0
M  V30 1440 C 130.558 5.54587 2.59037 0
M  V30 1441 N 129.695 5.95243 3.72331 0
M  V30 1442 H 134.535 2.9537 0.395076 0
M  V30 1443 H 132.072 1.45953 0.183349 0
M  V30 1444 H 134.03 3.02411 2.87408 0
M  V30 1445 H 132.66 1.91693 2.59718 0
M  V30 1446 H 131.712 3.68483 0.94469 0
M  V30 1447 H 133.024 4.77258 1.45005 0
M  V30 1448 H 132.178 4.72528 3.80529 0
M  V30 1449 H 130.917 3.5452 3.34913 0
M  V30 1450 H 129.922 5.21024 1.75539 0
M  V30 1451 H 131.147 6.41133 2.23887 0
M  V30 1452 H 129.093 5.13385 4.08378 0
M  V30 1453 H 129.01 6.73694 3.43034 0
M  V30 1454 H 130.278 6.33072 4.54797 0
M  V30 1455 N 134.507 -0.190092 1.56449 0
M  V30 1456 C 135.737 -0.92443 1.84764 0
M  V30 1457 C 136.145 -1.77146 0.664529 0
M  V30 1458 O 135.488 -1.79812 -0.375957 0
M  V30 1459 C 135.55 -1.86651 3.07248 0
M  V30 1460 C 135.214 -1.20094 4.40938 0
M  V30 1461 C 136.211 -0.575445 5.16706 0
M  V30 1462 C 133.896 -1.2033 4.87674 0
M  V30 1463 C 135.89 0.0388111 6.37388 0
M  V30 1464 C 133.577 -0.585214 6.08291 0
M  V30 1465 C 134.575 0.0347578 6.82991 0
M  V30 1466 O 134.263 0.643147 8.01323 0
M  V30 1467 H 133.995 -0.274974 0.617548 0
M  V30 1468 H 136.549 -0.200788 2.04416 0
M  V30 1469 H 134.779 -2.62998 2.83494 0
M  V30 1470 H 136.468 -2.46907 3.22167 0
M  V30 1471 H 137.234 -0.565728 4.81689 0
M  V30 1472 H 133.113 -1.67526 4.29484 0
M  V30 1473 H 136.657 0.523329 6.95634 0
M  V30 1474 H 132.554 -0.592451 6.42775 0
M  V30 1475 H 133.322 0.540545 8.16713 0
M  V30 1476 N 135.985 -1.50799 -0.457987 0
M  V30 1477 C 136.933 -1.71162 -1.575 0
M  V30 1478 C 137.927 -0.577592 -1.59249 0
M  V30 1479 O 139.133 -0.758443 -1.63241 0
M  V30 1480 H 135.508 -0.540468 -0.522875 0
M  V30 1481 H 137.479 -2.64837 -1.37492 0
M  V30 1482 C 136.228 -1.83496 -2.95338 0
M  V30 1483 H 135.551 -2.70153 -2.94716 0
M  V30 1484 H 136.991 -2.01765 -3.72917 0
M  V30 1485 C 135.45 -0.589694 -3.31699 0
M  V30 1486 O 135.98 0.265163 -4.00824 0
M  V30 1487 N 134.186 -0.439845 -2.87252 0
M  V30 1488 H 133.733 -1.13655 -2.31172 0
M  V30 1489 H 133.691 0.392159 -3.11945 0
M  V30 1490 N 137.463 0.71206 -1.40597 0
M  V30 1491 C 138.74 1.46536 -1.29563 0
M  V30 1492 C 139.12 2.10931 0.0844217 0
M  V30 1493 O 138.468 2.00418 1.0975 0
M  V30 1494 C 138.678 2.49821 -2.43701 0
M  V30 1495 C 140.026 3.15551 -2.841 0
M  V30 1496 O 141.05 2.60142 -2.4332 0
M  V30 1497 O 139.909 4.15867 -3.54566 0
M  V30 1498 H 137.003 0.651801 -0.509004 0
M  V30 1499 H 139.549 0.743935 -1.52524 0
M  V30 1500 H 138.321 2.00778 -3.35863 0
M  V30 1501 H 137.944 3.29495 -2.22528 0
M  V30 1502 N 138.941 1.26152 0.944643 0
M  V30 1503 C 139.871 1.09902 2.06019 0
M  V30 1504 C 140.852 0.00519538 1.70099 0
M  V30 1505 O 142.037 0.176583 1.93396 0
M  V30 1506 C 139.167 0.727562 3.39594 0
M  V30 1507 C 138.121 1.77274 3.89561 0
M  V30 1508 C 137.447 1.25569 5.19747 0
M  V30 1509 C 138.747 3.17357 4.14827 0
M  V30 1510 H 140.441 2.03217 2.19871 0
M  V30 1511 H 137.987 0.978452 1.05652 0
M  V30 1512 H 139.94 0.600777 4.17095 0
M  V30 1513 H 138.664 -0.241287 3.25707 0
M  V30 1514 H 137.323 1.88814 3.14237 0
M  V30 1515 H 136.971 0.276783 5.02238 0
M  V30 1516 H 136.671 1.95433 5.54148 0
M  V30 1517 H 138.195 1.1415 5.99835 0
M  V30 1518 H 139.609 3.08914 4.82954 0
M  V30 1519 H 138.006 3.84781 4.60504 0
M  V30 1520 H 139.076 3.63673 3.20734 0
M  V30 1521 N 140.419 -1.14872 1.07899 0
M  V30 1522 C 141.649 -1.89386 0.825631 0
M  V30 1523 C 142.057 -1.78565 -0.625406 0
M  V30 1524 O 141.4 -1.13918 -1.44113 0
M  V30 1525 C 141.462 -3.40206 1.16191 0
M  V30 1526 C 141.126 -3.74812 2.61467 0
M  V30 1527 C 142.123 -3.75367 3.59716 0
M  V30 1528 C 139.808 -4.0495 2.97189 0
M  V30 1529 C 141.802 -4.05574 4.9172 0
M  V30 1530 C 139.489 -4.34821 4.29388 0
M  V30 1531 C 140.487 -4.35116 5.26463 0
M  V30 1532 O 140.175 -4.64267 6.56286 0
M  V30 1533 H 139.907 -0.606894 0.297751 0
M  V30 1534 H 142.461 -1.46438 1.44031 0
M  V30 1535 H 140.691 -3.8358 0.490214 0
M  V30 1536 H 142.38 -3.96018 0.890193 0
M  V30 1537 H 143.146 -3.52176 3.33462 0
M  V30 1538 H 139.025 -4.03876 2.22273 0
M  V30 1539 H 142.569 -4.05719 5.67484 0
M  V30 1540 H 138.466 -4.5748 4.55392 0
M  V30 1541 H 139.234 -4.82007 6.61522 0
M  V30 1542 N 141.898 -0.863906 -1.31812 0
M  V30 1543 C 142.845 -0.313303 -2.28664 0
M  V30 1544 C 143.815 0.584868 -1.55462 0
M  V30 1545 O 145 0.517805 -1.83639 0
M  V30 1546 C 142.14 0.48441 -3.41683 0
M  V30 1547 C 141.253 -0.440594 -4.29747 0
M  V30 1548 C 140.388 0.370652 -5.29905 0
M  V30 1549 C 139.427 -0.551164 -6.09613 0
M  V30 1550 N 138.564 0.223462 -7.01744 0
M  V30 1551 H 143.404 -1.14444 -2.75148 0
M  V30 1552 H 140.941 -0.575769 -1.35364 0
M  V30 1553 H 142.899 0.962627 -4.05943 0
M  V30 1554 H 141.529 1.28029 -2.96325 0
M  V30 1555 H 140.581 -1.03724 -3.65986 0
M  V30 1556 H 141.893 -1.14767 -4.85417 0
M  V30 1557 H 141.047 0.911638 -5.99812 0
M  V30 1558 H 139.786 1.11105 -4.74876 0
M  V30 1559 H 138.791 -1.10396 -5.38603 0
M  V30 1560 H 140.016 -1.29032 -6.66729 0
M  V30 1561 H 137.962 0.946787 -6.49132 0
M  V30 1562 H 137.879 -0.424399 -7.54808 0
M  V30 1563 H 139.147 0.745876 -7.75923 0
M  V30 1564 N 143.376 1.44774 -0.622745 0
M  V30 1565 C 144.623 2.02121 -0.1239 0
M  V30 1566 C 144.951 1.48915 1.25118 0
M  V30 1567 O 144.206 0.660045 1.84233 0
M  V30 1568 C 144.505 3.57364 -0.0508323 0
M  V30 1569 C 144.171 4.29787 -1.36358 0
M  V30 1570 C 142.833 4.4929 -1.72314 0
M  V30 1571 C 145.185 4.71062 -2.23048 0
M  V30 1572 C 142.513 5.07325 -2.94682 0
M  V30 1573 C 144.865 5.30452 -3.44679 0
M  V30 1574 C 143.529 5.48175 -3.80868 0
M  V30 1575 H 142.799 0.739612 -0.0453381 0
M  V30 1576 H 145.446 1.73648 -0.807389 0
M  V30 1577 H 143.751 3.85202 0.715991 0
M  V30 1578 H 145.448 3.99456 0.351533 0
M  V30 1579 H 142.038 4.14932 -1.07375 0
M  V30 1580 H 146.222 4.55715 -1.96565 0
M  V30 1581 H 141.478 5.19235 -3.22809 0
M  V30 1582 H 145.652 5.61385 -4.12092 0
M  V30 1583 H 143.279 5.92912 -4.75773 0
M  V30 1584 N 144.854 0.36279 1.53368 0
M  V30 1585 C 145.786 -0.519668 2.23231 0
M  V30 1586 C 146.799 -1.04844 1.24546 0
M  V30 1587 O 147.988 -0.955296 1.50786 0
M  V30 1588 C 145.088 -1.72995 2.9142 0
M  V30 1589 C 144.261 -1.33316 4.16588 0
M  V30 1590 C 143.32 -2.40521 4.68013 0
M  V30 1591 O 142.346 -2.03027 5.3176 0
M  V30 1592 N 143.548 -3.72065 4.45587 0
M  V30 1593 H 146.313 0.078751 2.99597 0
M  V30 1594 H 143.874 0.187833 1.60807 0
M  V30 1595 H 145.866 -2.44184 3.22733 0
M  V30 1596 H 144.436 -2.2353 2.18525 0
M  V30 1597 H 143.656 -0.451236 3.91609 0
M  V30 1598 H 144.944 -1.04432 4.97967 0
M  V30 1599 H 144.342 -4.05304 3.94646 0
M  V30 1600 H 142.899 -4.39366 4.81457 0
M  V30 1601 N 146.332 -1.57332 0.0918853 0
M  V30 1602 C 147.264 -2.10869 -0.898168 0
M  V30 1603 C 148.277 -1.04521 -1.24817 0
M  V30 1604 O 149.466 -1.31977 -1.20184 0
M  V30 1605 C 146.566 -2.57083 -2.2082 0
M  V30 1606 C 145.739 -3.87229 -2.03402 0
M  V30 1607 C 144.798 -4.19324 -3.17889 0
M  V30 1608 O 143.824 -4.88598 -2.91994 0
M  V30 1609 N 145.026 -3.74471 -4.43567 0
M  V30 1610 H 147.791 -2.96439 -0.440943 0
M  V30 1611 H 145.352 -1.61631 -0.0933064 0
M  V30 1612 H 147.344 -2.75602 -2.96354 0
M  V30 1613 H 145.914 -1.76541 -2.57977 0
M  V30 1614 H 145.134 -3.7789 -1.12218 0
M  V30 1615 H 146.422 -4.72379 -1.89038 0
M  V30 1616 H 145.82 -3.18546 -4.67488 0
M  V30 1617 H 144.377 -3.98151 -5.16061 0
M  V30 1618 N 147.81 0.181792 -1.56548 0
M  V30 1619 C 149.035 0.920019 -1.85877 0
M  V30 1620 C 149.46 1.75494 -0.677021 0
M  V30 1621 O 148.818 1.77399 0.374056 0
M  V30 1622 C 148.866 1.78112 -3.13542 0
M  V30 1623 O 147.97 2.88152 -2.95029 0
M  V30 1624 H 147.311 0.258334 -0.611686 0
M  V30 1625 H 149.841 0.183092 -2.03779 0
M  V30 1626 H 149.851 2.18314 -3.44678 0
M  V30 1627 H 148.526 1.16777 -3.99169 0
M  V30 1628 H 147.103 2.51609 -2.75222 0
M  V30 1629 N 149.288 1.51039 0.449983 0
M  V30 1630 C 150.565 1.53612 1.21089 0
M  V30 1631 C 150.945 0.292997 2.09057 0
M  V30 1632 O 150.293 -0.72259 2.16774 0
M  V30 1633 C 150.503 2.84337 2.0237 0
M  V30 1634 C 151.851 3.35807 2.59843 0
M  V30 1635 O 152.875 2.85802 2.12593 0
M  V30 1636 O 151.734 4.23029 3.45989 0
M  V30 1637 H 148.828 0.617057 0.550608 0
M  V30 1638 H 151.374 1.63344 0.460082 0
M  V30 1639 H 150.146 3.66278 1.37681 0
M  V30 1640 H 149.769 2.77708 2.84542 0
M  V30 1641 N 150.766 -0.704594 1.40972 0
M  V30 1642 C 152.043 -1.45847 1.30338 0
M  V30 1643 C 152.423 -2.10973 -0.0732344 0
M  V30 1644 O 151.771 -2.00997 -1.08685 0
M  V30 1645 C 151.981 -2.48525 2.45023 0
M  V30 1646 C 153.329 -3.1404 2.8577 0
M  V30 1647 O 154.353 -2.58848 2.44696 0
M  V30 1648 O 153.212 -4.13981 3.56766 0
M  V30 1649 H 150.306 -0.649092 0.512454 0
M  V30 1650 H 152.852 -0.735836 1.52917 0
M  V30 1651 H 151.624 -1.98994 3.36923 0
M  V30 1652 H 151.247 -3.2831 2.24272 0
M  V30 1653 N 152.244 -1.26651 -0.937939 0
M  V30 1654 C 153.174 -1.10993 -2.05433 0
M  V30 1655 C 154.155 -0.0142161 -1.70094 0
M  V30 1656 O 155.34 -0.186837 -1.93299 0
M  V30 1657 C 152.47 -0.745561 -3.39203 0
M  V30 1658 C 151.424 -1.79337 -3.88616 0
M  V30 1659 C 150.75 -1.28324 -5.19073 0
M  V30 1660 C 152.05 -3.19553 -4.13138 0
M  V30 1661 H 153.744 -2.0438 -2.1879 0
M  V30 1662 H 151.29 -0.984041 -1.05131 0
M  V30 1663 H 153.243 -0.622888 -4.16771 0
M  V30 1664 H 151.967 0.22401 -3.25831 0
M  V30 1665 H 150.626 -1.90477 -3.13231 0
M  V30 1666 H 150.274 -0.303414 -5.02084 0
M  V30 1667 H 149.974 -1.98369 -5.53103 0
M  V30 1668 H 151.498 -1.1733 -5.99221 0
M  V30 1669 H 152.912 -3.11471 -4.81309 0
M  V30 1670 H 151.309 -3.87218 -4.58457 0
M  V30 1671 H 152.379 -3.65368 -3.18801 0
M  V30 1672 N 153.722 1.14298 -1.08507 0
M  V30 1673 C 154.669 2.19414 -0.715965 0
M  V30 1674 C 155.639 1.63399 0.298326 0
M  V30 1675 O 156.824 1.89929 0.182101 0
M  V30 1676 C 153.964 3.44845 -0.132534 0
M  V30 1677 C 153.077 4.15007 -1.19973 0
M  V30 1678 C 152.212 5.28024 -0.580048 0
M  V30 1679 C 151.251 5.9002 -1.62921 0
M  V30 1680 N 150.388 6.94485 -1.03125 0
M  V30 1681 H 155.228 2.50336 -1.61666 0
M  V30 1682 H 152.765 1.2293 -0.807882 0
M  V30 1683 H 154.723 4.16601 0.223454 0
M  V30 1684 H 153.353 3.14403 0.731467 0
M  V30 1685 H 152.405 3.41629 -1.67313 0
M  V30 1686 H 153.717 4.57178 -1.99473 0
M  V30 1687 H 152.871 6.06455 -0.172364 0
M  V30 1688 H 151.61 4.87076 0.246603 0
M  V30 1689 H 150.615 5.10291 -2.04654 0
M  V30 1690 H 151.84 6.33042 -2.45835 0
M  V30 1691 H 149.786 6.55612 -0.225711 0
M  V30 1692 H 149.703 7.35148 -1.76334 0
M  V30 1693 H 150.971 7.7679 -0.649458 0
M  V30 1694 N 155.201 0.870884 1.31352 0
M  V30 1695 C 156.148 0.325425 2.28494 0
M  V30 1696 C 157.118 -0.576615 1.5577 0
M  V30 1697 O 158.303 -0.508059 1.83911 0
M  V30 1698 C 155.443 -0.466283 3.41935 0
M  V30 1699 C 154.556 0.463378 4.29508 0
M  V30 1700 C 153.691 -0.342544 5.30094 0
M  V30 1701 C 152.73 0.583486 6.09313 0
M  V30 1702 N 151.867 -0.186244 7.01853 0
M  V30 1703 H 156.707 1.15901 2.74538 0
M  V30 1704 H 154.244 0.58294 1.35056 0
M  V30 1705 H 156.202 -0.941085 4.06447 0
M  V30 1706 H 154.832 -1.26456 2.97 0
M  V30 1707 H 153.884 1.05663 3.65431 0
M  V30 1708 H 155.196 1.1734 4.84802 0
M  V30 1709 H 154.35 -0.879816 6.00287 0
M  V30 1710 H 153.089 -1.08585 4.75458 0
M  V30 1711 H 152.094 1.13251 5.3801 0
M  V30 1712 H 153.319 1.32566 6.66035 0
M  V30 1713 H 151.265 -0.912348 6.49625 0
M  V30 1714 H 151.182 0.464422 7.54572 0
M  V30 1715 H 152.45 -0.704716 7.76308 0
M  V30 1716 N 156.679 -1.44442 0.630414 0
M  V30 1717 C 158.095 -1.56832 0.295973 0
M  V30 1718 C 158.295 -1.61806 -1.20088 0
M  V30 1719 O 157.351 -1.5607 -1.9849 0
M  V30 1720 C 158.664 -2.84031 0.987264 0
M  V30 1721 C 160.212 -2.97742 0.96534 0
M  V30 1722 C 160.687 -4.27743 1.63708 0
M  V30 1723 N 162.178 -4.34555 1.60364 0
M  V30 1724 C 162.913 -5.33862 2.09234 0
M  V30 1725 N 162.409 -6.39578 2.66292 0
M  V30 1726 N 164.202 -5.25366 1.99867 0
M  V30 1727 H 156.353 -1.39457 1.60205 0
M  V30 1728 H 158.616 -0.668237 0.672431 0
M  V30 1729 H 158.322 -2.86338 2.04215 0
M  V30 1730 H 158.196 -3.73534 0.524588 0
M  V30 1731 H 160.583 -2.94989 -0.0810639 0
M  V30 1732 H 160.664 -2.09589 1.4665 0
M  V30 1733 H 160.308 -4.31255 2.68293 0
M  V30 1734 H 160.238 -5.14752 1.11076 0
M  V30 1735 H 162.729 -3.58772 1.18705 0
M  V30 1736 H 163.042 -7.11637 3.01317 0
M  V30 1737 H 161.387 -6.40265 2.70343 0
M  V30 1738 H 164.578 -4.41688 1.55013 0
M  V30 1739 H 164.751 -6.02606 2.38265 0
M  V30 1740 N 158.157 -0.370918 -1.53173 0
M  V30 1741 C 159.573 -0.0200818 -1.59587 0
M  V30 1742 C 159.773 1.46279 -1.38581 0
M  V30 1743 O 158.829 2.22506 -1.19363 0
M  V30 1744 C 160.142 -0.4808 -2.96831 0
M  V30 1745 C 161.69 -0.435477 -3.09956 0
M  V30 1746 C 162.165 -0.872092 -4.4962 0
M  V30 1747 N 163.656 -0.827364 -4.55751 0
M  V30 1748 C 164.391 -1.13683 -5.62018 0
M  V30 1749 N 163.887 -1.51584 -6.76014 0
M  V30 1750 N 165.68 -1.05927 -5.52029 0
M  V30 1751 H 157.831 -1.33652 -1.65079 0
M  V30 1752 H 160.094 -0.546634 -0.774529 0
M  V30 1753 H 159.8 -1.51577 -3.1736 0
M  V30 1754 H 159.674 0.129796 -3.76977 0
M  V30 1755 H 162.061 0.590371 -2.89134 0
M  V30 1756 H 162.142 -1.08164 -2.31806 0
M  V30 1757 H 161.786 -1.89608 -4.71181 0
M  V30 1758 H 161.716 -0.203127 -5.26208 0
M  V30 1759 H 164.207 -0.548216 -3.73902 0
M  V30 1760 H 164.52 -1.73609 -7.53047 0
M  V30 1761 H 162.865 -1.55454 -6.77391 0
M  V30 1762 H 166.056 -0.762321 -4.61851 0
M  V30 1763 H 166.229 -1.30378 -6.34749 0
M  V30 1764 N 159.635 1.57281 -0.100228 0
M  V30 1765 C 160.545 2.17833 0.870965 0
M  V30 1766 C 161.561 1.14921 1.30649 0
M  V30 1767 O 162.737 1.47313 1.37335 0
M  V30 1768 C 159.802 2.75085 2.1102 0
M  V30 1769 C 158.863 3.9297 1.72838 0
M  V30 1770 C 158.096 4.47482 2.90854 0
M  V30 1771 O 158.319 4.00922 4.05731 0
M  V30 1772 O 157.253 5.38433 2.69023 0
M  V30 1773 H 161.079 3.0124 0.38575 0
M  V30 1774 H 158.664 1.48881 0.124397 0
M  V30 1775 H 160.546 3.11656 2.83634 0
M  V30 1776 H 159.221 1.94721 2.58584 0
M  V30 1777 H 158.128 3.61201 0.973883 0
M  V30 1778 H 159.461 4.74713 1.30033 0
M  V30 1779 N 161.113 -0.173488 1.56642 0
M  V30 1780 C 162.524 -0.736155 1.71574 0
M  V30 1781 C 162.875 -1.82888 0.710389 0
M  V30 1782 O 162 -2.16017 -0.1287 0
M  V30 1783 C 162.595 -1.34211 3.11083 0
M  V30 1784 C 161.154 -1.85162 3.27707 0
M  V30 1785 C 160.301 -0.729765 2.67525 0
M  V30 1786 H 163.252 0.0518786 1.58615 0
M  V30 1787 H 163.273 -2.21178 3.09613 0
M  V30 1788 H 162.785 -0.546579 3.84232 0
M  V30 1789 H 160.886 -2.67366 2.59512 0
M  V30 1790 H 160.999 -1.99855 4.35425 0
M  V30 1791 H 159.363 -1.14965 2.27278 0
M  V30 1792 H 160.146 0.0538806 3.43258 0
M  V30 1793 N 162.591 -1.51276 -0.441967 0
M  V30 1794 C 163.541 -1.6864 -1.53442 0
M  V30 1795 C 164.525 -0.540444 -1.51552 0
M  V30 1796 O 165.717 -0.796157 -1.58083 0
M  V30 1797 C 162.846 -1.8106 -2.91672 0
M  V30 1798 C 161.932 -3.01424 -2.98336 0
M  V30 1799 N 162.323 -4.2467 -2.74752 0
M  V30 1800 C 160.621 -3.00584 -3.29493 0
M  V30 1801 C 161.322 -5.05891 -2.87139 0
M  V30 1802 N 160.298 -4.40442 -3.18609 0
M  V30 1803 H 164.1 -2.61598 -1.33954 0
M  V30 1804 H 161.614 -1.4886 -0.6492 0
M  V30 1805 H 163.611 -1.91609 -3.70259 0
M  V30 1806 H 162.271 -0.892795 -3.12185 0
M  V30 1807 H 163.282 -4.53691 -2.49769 0
M  V30 1808 H 159.959 -2.18417 -3.55809 0
M  V30 1809 H 161.349 -6.13983 -2.72899 0
M  V30 1810 N 164.069 0.697108 -1.41344 0
M  V30 1811 C 165.318 1.45279 -1.39918 0
M  V30 1812 C 165.631 1.95597 -0.0109624 0
M  V30 1813 O 166.837 2.71208 0.125919 0
M  V30 1814 C 165.293 2.62695 -2.46007 0
M  V30 1815 C 164.901 2.19169 -3.90729 0
M  V30 1816 C 166.645 3.40336 -2.53715 0
M  V30 1817 C 164.552 3.33535 -4.88373 0
M  V30 1818 H 163.482 0.545692 -0.520323 0
M  V30 1819 H 166.133 0.756929 -1.67161 0
M  V30 1820 H 164.515 3.34541 -2.11892 0
M  V30 1821 H 165.689 1.54623 -4.34083 0
M  V30 1822 H 164.004 1.54525 -3.86666 0
M  V30 1823 H 166.601 4.2547 -3.2385 0
M  V30 1824 H 166.944 3.85418 -1.5735 0
M  V30 1825 H 167.477 2.75546 -2.86913 0
M  V30 1826 H 164.216 2.93468 -5.86137 0
M  V30 1827 H 163.736 3.96936 -4.49668 0
M  V30 1828 H 165.415 3.99335 -5.09059 0
M  V30 1829 N 165.547 1.27147 0.931209 0
M  V30 1830 C 166.772 1.16191 1.71797 0
M  V30 1831 C 167.197 -0.278004 1.86034 0
M  V30 1832 O 166.555 -1.20137 1.35782 0
M  V30 1833 C 166.603 1.84673 3.09723 0
M  V30 1834 O 165.707 1.14231 3.96264 0
M  V30 1835 H 165.048 0.404303 0.526721 0
M  V30 1836 H 167.578 1.68152 1.1656 0
M  V30 1837 H 167.588 1.91893 3.60057 0
M  V30 1838 H 166.263 2.89421 2.98677 0
M  V30 1839 H 164.84 1.15056 3.54706 0
M  V30 1840 N 167.025 -1.13721 1.09112 0
M  V30 1841 C 168.253 -1.88773 0.846899 0
M  V30 1842 C 168.668 -1.7896 -0.601572 0
M  V30 1843 O 168.025 -1.15394 -1.41388 0
M  V30 1844 C 168.076 -3.3849 1.26913 0
M  V30 1845 O 167.797 -3.48043 2.66079 0
M  V30 1846 C 169.298 -4.30518 1.05682 0
M  V30 1847 H 166.518 -0.59772 0.304914 0
M  V30 1848 H 169.062 -1.43977 1.45227 0
M  V30 1849 H 167.217 -3.80881 0.707723 0
M  V30 1850 H 167.631 -4.4109 2.83795 0
M  V30 1851 H 169.105 -5.3391 1.40156 0
M  V30 1852 H 169.582 -4.392 -0.00563416 0
M  V30 1853 H 170.188 -3.93893 1.60402 0
M  V30 1854 N 168.503 -0.877838 -1.30888 0
M  V30 1855 C 169.433 -0.35534 -2.3078 0
M  V30 1856 C 170.414 0.557994 -1.60687 0
M  V30 1857 O 171.599 0.473355 -1.88343 0
M  V30 1858 C 168.729 0.437221 -3.44537 0
M  V30 1859 C 167.683 -0.383715 -4.26276 0
M  V30 1860 C 167.009 0.535014 -5.32017 0
M  V30 1861 C 168.309 -1.62201 -4.96476 0
M  V30 1862 H 170.003 -1.19007 -2.74732 0
M  V30 1863 H 167.549 -0.573698 -1.32078 0
M  V30 1864 H 169.502 0.813334 -4.13477 0
M  V30 1865 H 168.226 1.30553 -2.99372 0
M  V30 1866 H 166.885 -0.741874 -3.59015 0
M  V30 1867 H 166.533 1.40083 -4.831 0
M  V30 1868 H 166.233 -0.0104211 -5.87599 0
M  V30 1869 H 167.757 0.907799 -6.03814 0
M  V30 1870 H 169.171 -1.31689 -5.5797 0
M  V30 1871 H 167.568 -2.10711 -5.61891 0
M  V30 1872 H 168.638 -2.37044 -4.23011 0
M  V30 1873 N 169.982 1.44106 -0.638065 0
M  V30 1874 C 171.398 1.56672 -0.304286 0
M  V30 1875 C 171.598 1.6244 1.19228 0
M  V30 1876 O 170.654 1.57121 1.9766 0
M  V30 1877 C 171.967 2.83503 -1.00231 0
M  V30 1878 C 173.515 2.97226 -0.981116 0
M  V30 1879 C 173.99 4.26868 -1.65974 0
M  V30 1880 N 175.481 4.33698 -1.62666 0
M  V30 1881 C 176.216 5.32745 -2.12063 0
M  V30 1882 N 175.712 6.38157 -2.6968 0
M  V30 1883 N 177.505 5.24299 -2.02651 0
M  V30 1884 H 169.656 1.38605 -1.60942 0
M  V30 1885 H 171.919 0.664661 -0.675965 0
M  V30 1886 H 171.625 2.85251 -2.0573 0
M  V30 1887 H 171.499 3.73251 -0.54439 0
M  V30 1888 H 173.886 2.95027 0.0654188 0
M  V30 1889 H 173.967 2.08808 -1.47759 0
M  V30 1890 H 173.611 4.29826 -2.70576 0
M  V30 1891 H 173.541 5.14156 -1.13804 0
M  V30 1892 H 176.032 3.58138 -1.20606 0
M  V30 1893 H 176.345 7.10029 -3.05087 0
M  V30 1894 H 174.69 6.38823 -2.73734 0
M  V30 1895 H 177.881 4.4086 -1.57353 0
M  V30 1896 H 178.054 6.01334 -2.41457 0
M  V30 1897 N 171.46 0.379036 1.52974 0
M  V30 1898 C 172.407 -0.461048 2.26148 0
M  V30 1899 C 173.377 -1.06637 1.27349 0
M  V30 1900 O 174.562 -1.09633 1.56157 0
M  V30 1901 C 171.702 -1.58782 3.06402 0
M  V30 1902 C 170.815 -1.00636 4.20115 0
M  V30 1903 C 169.95 -2.10334 4.87784 0
M  V30 1904 C 168.989 -1.49724 5.93506 0
M  V30 1905 N 168.126 -2.5331 6.54812 0
M  V30 1906 H 172.966 0.169429 2.97518 0
M  V30 1907 H 170.503 0.0953806 1.4679 0
M  V30 1908 H 172.461 -2.25174 3.51215 0
M  V30 1909 H 171.091 -2.18876 2.37261 0
M  V30 1910 H 170.143 -0.232332 3.7969 0
M  V30 1911 H 171.455 -0.523343 4.96047 0
M  V30 1912 H 170.609 -2.84519 5.35849 0
M  V30 1913 H 169.348 -2.61992 4.11353 0
M  V30 1914 H 168.353 -0.740598 5.44789 0
M  V30 1915 H 169.578 -0.988732 6.71864 0
M  V30 1916 H 167.524 -3.04156 5.81227 0
M  V30 1917 H 167.441 -2.09734 7.26325 0
M  V30 1918 H 168.709 -3.27155 7.07524 0
M  V30 1919 N 172.938 -1.57226 0.108567 0
M  V30 1920 C 174.187 -1.94008 -0.551703 0
M  V30 1921 C 174.5 -0.993442 -1.68494 0
M  V30 1922 O 175.706 -1.25551 -2.40726 0
M  V30 1923 C 174.162 -3.44763 -1.03279 0
M  V30 1924 C 173.77 -4.47943 0.0714193 0
M  V30 1925 C 175.514 -3.90483 -1.66503 0
M  V30 1926 C 173.421 -5.89865 -0.425779 0
M  V30 1927 H 172.351 -0.724206 -0.209863 0
M  V30 1928 H 175.002 -1.82547 0.186741 0
M  V30 1929 H 173.384 -3.51422 -1.82533 0
M  V30 1930 H 174.558 -4.52942 0.847365 0
M  V30 1931 H 172.873 -4.11913 0.609669 0
M  V30 1932 H 175.47 -4.93925 -2.04798 0
M  V30 1933 H 175.813 -3.29877 -2.53942 0
M  V30 1934 H 176.346 -3.86581 -0.938074 0
M  V30 1935 H 173.085 -6.54202 0.412316 0
M  V30 1936 H 172.605 -5.88309 -1.16843 0
M  V30 1937 H 174.284 -6.40844 -0.890397 0
M  V30 1938 N 174.416 0.165178 -1.56732 0
M  V30 1939 C 175.346 1.20651 -1.99914 0
M  V30 1940 C 176.327 1.45827 -0.875705 0
M  V30 1941 O 177.512 1.57057 -1.14223 0
M  V30 1942 C 174.642 2.54401 -2.36427 0
M  V30 1943 C 173.596 2.43782 -3.51787 0
M  V30 1944 C 172.922 3.82078 -3.7406 0
M  V30 1945 C 174.222 1.93732 -4.85041 0
M  V30 1946 H 175.916 0.847534 -2.87154 0
M  V30 1947 H 173.462 0.40625 -1.38151 0
M  V30 1948 H 175.415 3.27458 -2.65234 0
M  V30 1949 H 174.139 2.92098 -1.46103 0
M  V30 1950 H 172.798 1.73178 -3.23117 0
M  V30 1951 H 172.446 4.17179 -2.81017 0
M  V30 1952 H 172.146 3.7584 -4.51684 0
M  V30 1953 H 173.67 4.56712 -4.05274 0
M  V30 1954 H 175.084 2.56569 -5.12684 0
M  V30 1955 H 173.481 1.98428 -5.66345 0
M  V30 1956 H 174.551 0.891962 -4.76626 0
M  V30 1957 N 175.894 1.51508 0.433938 0
M  V30 1958 C 177.141 1.64345 1.18309 0
M  V30 1959 C 177.469 0.361315 1.91115 0
M  V30 1960 O 176.724 -0.654753 1.84422 0
M  V30 1961 C 177.023 2.79928 2.22205 0
M  V30 1962 C 176.689 4.19078 1.66387 0
M  V30 1963 C 175.351 4.56932 1.50887 0
M  V30 1964 C 177.703 5.05894 1.25381 0
M  V30 1965 C 175.031 5.79305 0.928608 0
M  V30 1966 C 177.383 6.2885 0.687823 0
M  V30 1967 C 176.047 6.65473 0.519755 0
M  V30 1968 H 175.317 0.601381 0.432923 0
M  V30 1969 H 177.964 1.85549 0.473676 0
M  V30 1970 H 176.269 2.52959 2.99197 0
M  V30 1971 H 177.966 2.87059 2.79997 0
M  V30 1972 H 174.556 3.89234 1.79428 0
M  V30 1973 H 178.74 4.77253 1.36175 0
M  V30 1974 H 173.996 6.06324 0.786186 0
M  V30 1975 H 178.17 6.95461 0.361581 0
M  V30 1976 H 175.797 7.6017 0.0679979 0
M  V30 1977 N 177.372 -0.689602 1.41712 0
M  V30 1978 C 178.282 -1.83314 1.46401 0
M  V30 1979 C 179.298 -1.7036 0.35405 0
M  V30 1980 O 180.474 -1.92171 0.602692 0
M  V30 1981 C 177.539 -3.19344 1.34982 0
M  V30 1982 C 176.6 -3.44363 2.56344 0
M  V30 1983 C 175.833 -4.73904 2.45461 0
M  V30 1984 O 176.056 -5.508 1.48241 0
M  V30 1985 O 174.99 -4.99839 3.35328 0
M  V30 1986 H 178.816 -1.82314 2.42889 0
M  V30 1987 H 176.401 -0.843438 1.23315 0
M  V30 1988 H 178.283 -4.00547 1.3092 0
M  V30 1989 H 176.958 -3.21014 0.41612 0
M  V30 1990 H 175.865 -2.63067 2.65982 0
M  V30 1991 H 177.198 -3.47512 3.48563 0
M  V30 1992 N 178.85 -1.27639 -0.924453 0
M  V30 1993 C 180.127 -1.04887 -1.651 0
M  V30 1994 C 180.507 0.415327 -2.06974 0
M  V30 1995 O 179.855 1.39923 -1.80648 0
M  V30 1996 C 180.065 -2.01348 -2.85061 0
M  V30 1997 C 181.413 -2.30899 -3.56329 0
M  V30 1998 O 182.437 -1.99348 -2.95193 0
M  V30 1999 O 181.296 -2.84699 -4.66485 0
M  V30 2000 H 178.39 -0.400083 -0.723784 0
M  V30 2001 H 180.936 -1.38916 -0.974703 0
M  V30 2002 H 179.708 -3.0008 -2.51133 0
M  V30 2003 H 179.331 -1.679 -3.6041 0
M  V30 2004 N 180.328 1.1314 -1.09713 0
M  V30 2005 C 181.575 1.84484 -0.834987 0
M  V30 2006 C 181.903 1.83689 0.639418 0
M  V30 2007 O 181.158 1.2724 1.4869 0
M  V30 2008 C 181.457 3.32167 -1.3191 0
M  V30 2009 C 181.123 3.53139 -2.80363 0
M  V30 2010 C 179.785 3.58571 -3.20905 0
M  V30 2011 C 182.137 3.60866 -3.76065 0
M  V30 2012 C 179.465 3.69267 -4.55916 0
M  V30 2013 C 181.817 3.73089 -5.10869 0
M  V30 2014 C 180.481 3.76775 -5.50996 0
M  V30 2015 H 179.751 0.675073 -0.305544 0
M  V30 2016 H 182.398 1.33554 -1.37243 0
M  V30 2017 H 180.703 3.85469 -0.701517 0
M  V30 2018 H 182.4 3.85821 -1.09284 0
M  V30 2019 H 178.99 3.49569 -2.47991 0
M  V30 2020 H 183.174 3.55946 -3.45855 0
M  V30 2021 H 178.43 3.70388 -4.86438 0
M  V30 2022 H 182.604 3.78011 -5.84877 0
M  V30 2023 H 180.231 3.84815 -6.55608 0
M  V30 2024 N 181.806 0.884767 1.30421 0
M  V30 2025 C 183.222 0.57874 1.48737 0
M  V30 2026 C 183.422 -0.883567 1.81095 0
M  V30 2027 O 182.478 -1.6648 1.89844 0
M  V30 2028 C 183.791 1.49171 2.61091 0
M  V30 2029 C 185.339 1.49532 2.74971 0
M  V30 2030 C 185.814 2.39421 3.90438 0
M  V30 2031 N 187.305 2.37383 3.97748 0
M  V30 2032 C 188.04 3.03647 4.86401 0
M  V30 2033 N 187.536 3.79136 5.79852 0
M  V30 2034 N 189.329 2.9288 4.79768 0
M  V30 2035 H 181.48 1.83075 1.0769 0
M  V30 2036 H 183.743 0.783637 0.533495 0
M  V30 2037 H 183.449 2.53291 2.44001 0
M  V30 2038 H 183.323 1.20113 3.57565 0
M  V30 2039 H 185.71 0.46163 2.91467 0
M  V30 2040 H 185.791 1.8262 1.79119 0
M  V30 2041 H 185.435 3.42874 3.74699 0
M  V30 2042 H 185.365 2.03649 4.85628 0
M  V30 2043 H 187.856 1.82525 3.30897 0
M  V30 2044 H 188.169 4.26789 6.4426 0
M  V30 2045 H 186.514 3.83243 5.79784 0
M  V30 2046 H 189.705 2.33433 4.05742 0
M  V30 2047 H 189.878 3.448 5.4865 0
M  V30 2048 N 183.284 -1.43765 0.645699 0
M  V30 2049 C 184.509 -2.06767 0.161883 0
M  V30 2050 C 184.934 -1.48034 -1.16049 0
M  V30 2051 O 184.292 -0.587369 -1.71522 0
M  V30 2052 C 184.34 -3.60519 0.0762003 0
M  V30 2053 O 183.444 -4.00982 -0.963721 0
M  V30 2054 H 182.785 -0.657675 0.091429 0
M  V30 2055 H 185.315 -1.84397 0.886499 0
M  V30 2056 H 185.325 -4.07853 -0.109604 0
M  V30 2057 H 184 -4.02646 1.04157 0
M  V30 2058 H 182.577 -3.65253 -0.751312 0
M  V30 2059 N 184.763 -0.387143 -1.52771 0
M  V30 2060 C 186.009 0.188506 -2.02525 0
M  V30 2061 C 186.364 1.44649 -1.26864 0
M  V30 2062 O 185.657 1.88189 -0.359945 0
M  V30 2063 C 185.851 0.512209 -3.53711 0
M  V30 2064 C 185.68 -0.712855 -4.44014 0
M  V30 2065 C 184.45 -1.23147 -4.90064 0
M  V30 2066 C 186.648 -1.58453 -4.89282 0
M  V30 2067 N 184.63 -2.41431 -5.64433 0
M  V30 2068 C 186.001 -2.61381 -5.6221 0
M  V30 2069 C 188.056 -1.60488 -4.71326 0
M  V30 2070 C 186.759 -3.66227 -6.19088 0
M  V30 2071 C 188.785 -2.6424 -5.29085 0
M  V30 2072 C 188.147 -3.6589 -6.01917 0
M  V30 2073 H 184.246 0.0311236 -0.78138 0
M  V30 2074 H 186.83 -0.536548 -1.87161 0
M  V30 2075 H 185.001 1.20632 -3.69192 0
M  V30 2076 H 186.733 1.07482 -3.90166 0
M  V30 2077 H 183.488 -0.792795 -4.66917 0
M  V30 2078 H 183.912 -3.01274 -6.0627 0
M  V30 2079 H 188.554 -0.83247 -4.14524 0
M  V30 2080 H 186.272 -4.44337 -6.74974 0
M  V30 2081 H 189.858 -2.66695 -5.17074 0
M  V30 2082 H 188.738 -4.44855 -6.45813 0
M  V30 2083 N 186.241 1.57166 -0.116904 0
M  V30 2084 C 187.171 2.18222 0.830759 0
M  V30 2085 C 188.152 1.12167 1.27877 0
M  V30 2086 O 189.337 1.40394 1.34176 0
M  V30 2087 C 186.467 2.77996 2.08172 0
M  V30 2088 C 185.421 3.89614 1.77157 0
M  V30 2089 C 184.747 4.36187 3.09265 0
M  V30 2090 C 186.047 5.1181 1.04151 0
M  V30 2091 H 187.741 2.97664 0.321992 0
M  V30 2092 H 185.287 1.4318 0.153434 0
M  V30 2093 H 187.24 3.19366 2.74924 0
M  V30 2094 H 185.964 1.9584 2.6137 0
M  V30 2095 H 184.623 3.48816 1.12796 0
M  V30 2096 H 184.271 3.50893 3.60393 0
M  V30 2097 H 183.971 5.11455 2.89288 0
M  V30 2098 H 185.495 4.80207 3.77139 0
M  V30 2099 H 186.909 5.50214 1.61052 0
M  V30 2100 H 185.306 5.92648 0.942762 0
M  V30 2101 H 186.376 4.84892 0.0279022 0
M  V30 2102 N 187.719 -0.156864 1.56817 0
M  V30 2103 C 188.944 -0.890331 1.87318 0
M  V30 2104 C 189.369 -1.74394 0.704855 0
M  V30 2105 O 188.727 -1.77972 -0.345786 0
M  V30 2106 C 188.775 -1.73102 3.16336 0
M  V30 2107 O 187.879 -2.83422 2.99576 0
M  V30 2108 H 187.22 -0.24857 0.615718 0
M  V30 2109 H 189.75 -0.150649 2.04045 0
M  V30 2110 H 189.76 -2.12803 3.48107 0
M  V30 2111 H 188.435 -1.10412 4.00976 0
M  V30 2112 H 187.012 -2.47199 2.7919 0
M  V30 2113 N 189.197 -1.51736 -0.425897 0
M  V30 2114 C 190.474 -1.55519 -1.1863 0
M  V30 2115 C 190.854 -0.326219 -2.08564 0
M  V30 2116 O 190.202 0.688012 -2.17896 0
M  V30 2117 C 190.412 -2.87521 -1.9782 0
M  V30 2118 C 191.76 -3.39899 -2.54468 0
M  V30 2119 O 192.784 -2.89148 -2.08019 0
M  V30 2120 O 191.643 -4.2848 -3.39215 0
M  V30 2121 H 188.737 -0.625739 -0.540721 0
M  V30 2122 H 191.283 -1.64055 -0.434038 0
M  V30 2123 H 190.055 -3.68422 -1.31836 0
M  V30 2124 H 189.678 -2.822 -2.80088 0
M  V30 2125 N 190.675 0.682077 -1.42076 0
M  V30 2126 C 191.924 1.43786 -1.41451 0
M  V30 2127 C 192.237 1.95574 -0.0317074 0
M  V30 2128 O 193.443 2.71326 0.0971462 0
M  V30 2129 C 191.899 2.60071 -2.48779 0
M  V30 2130 C 191.507 2.15013 -3.93031 0
M  V30 2131 C 193.251 3.37626 -2.57311 0
M  V30 2132 C 191.158 3.28336 -4.91883 0
M  V30 2133 H 190.088 0.540143 -0.526082 0
M  V30 2134 H 192.739 0.739157 -1.67955 0
M  V30 2135 H 191.121 3.32275 -2.15429 0
M  V30 2136 H 192.295 1.5001 -4.35699 0
M  V30 2137 H 190.61 1.50416 -3.88284 0
M  V30 2138 H 193.207 4.22012 -3.28345 0
M  V30 2139 H 193.55 3.83727 -1.61429 0
M  V30 2140 H 194.083 2.72488 -2.89819 0
M  V30 2141 H 190.822 2.87234 -5.89217 0
M  V30 2142 H 190.342 3.92145 -4.53853 0
M  V30 2143 H 192.021 3.93913 -5.13265 0
M  V30 2144 N 192.153 1.28127 0.917671 0
M  V30 2145 C 193.378 1.18007 1.70555 0
M  V30 2146 C 193.803 -0.258257 1.86319 0
M  V30 2147 O 193.161 -1.1869 1.37049 0
M  V30 2148 C 193.209 1.87948 3.07746 0
M  V30 2149 O 192.313 1.18427 3.9503 0
M  V30 2150 H 191.654 0.409867 0.522403 0
M  V30 2151 H 194.184 1.69379 1.1477 0
M  V30 2152 H 194.194 1.95701 3.58001 0
M  V30 2153 H 192.869 2.92573 2.95591 0
M  V30 2154 H 191.446 1.18811 3.53466 0
M  V30 2155 N 193.631 -1.12557 1.10312 0
M  V30 2156 C 194.578 -2.18247 0.750781 0
M  V30 2157 C 195.548 -1.63853 -0.272293 0
M  V30 2158 O 196.733 -1.90195 -0.151862 0
M  V30 2159 C 193.873 -3.44591 0.187379 0
M  V30 2160 C 192.986 -4.13046 1.2656 0
M  V30 2161 C 192.121 -5.27034 0.663978 0
M  V30 2162 C 191.16 -5.87353 1.72287 0
M  V30 2163 N 190.297 -6.92757 1.1416 0
M  V30 2164 H 195.137 -2.47732 1.65628 0
M  V30 2165 H 192.674 -1.21629 0.827337 0
M  V30 2166 H 194.632 -4.16904 -0.157148 0
M  V30 2167 H 193.262 -3.15527 -0.681355 0
M  V30 2168 H 192.314 -3.38924 1.72727 0
M  V30 2169 H 193.626 -4.53947 2.06721 0
M  V30 2170 H 192.78 -6.06104 0.268824 0
M  V30 2171 H 191.519 -4.87407 -0.169082 0
M  V30 2172 H 190.524 -5.06971 2.12746 0
M  V30 2173 H 191.749 -6.29051 2.55875 0
M  V30 2174 H 189.695 -6.5517 0.329984 0
M  V30 2175 H 189.612 -7.3225 1.88007 0
M  V30 2176 H 190.88 -7.75658 0.772956 0
M  V30 2177 N 195.109 -0.891671 -1.2995 0
M  V30 2178 C 196.358 -0.509521 -1.95158 0
M  V30 2179 C 196.671 0.947388 -1.71125 0
M  V30 2180 O 197.877 1.43669 -2.30372 0
M  V30 2181 C 196.333 -0.860315 -3.49466 0
M  V30 2182 C 195.941 -2.33545 -3.8231 0
M  V30 2183 C 197.685 -0.547687 -4.20952 0
M  V30 2184 C 195.592 -2.62752 -5.29826 0
M  V30 2185 H 194.522 -0.18682 -0.730489 0
M  V30 2186 H 197.173 -1.08756 -1.47798 0
M  V30 2187 H 195.555 -0.211285 -3.95436 0
M  V30 2188 H 196.729 -3.02936 -3.47227 0
M  V30 2189 H 195.044 -2.61629 -3.23944 0
M  V30 2190 H 197.641 -0.742854 -5.29515 0
M  V30 2191 H 197.984 0.51332 -4.13123 0
M  V30 2192 H 198.517 -1.1542 -3.80688 0
M  V30 2193 H 195.256 -3.6762 -5.42712 0
M  V30 2194 H 194.776 -1.97977 -5.66185 0
M  V30 2195 H 196.455 -2.48601 -5.97333 0
M  V30 2196 N 196.587 1.43421 -0.653314 0
M  V30 2197 C 197.864 1.95361 -0.0966581 0
M  V30 2198 C 198.244 1.59461 1.38331 0
M  V30 2199 O 197.592 0.879777 2.10884 0
M  V30 2200 C 197.802 3.47311 -0.342988 0
M  V30 2201 C 199.15 4.23875 -0.24798 0
M  V30 2202 O 200.174 3.55133 -0.275553 0
M  V30 2203 O 199.033 5.4623 -0.171771 0
M  V30 2204 H 196.127 0.826945 0.00956291 0
M  V30 2205 H 198.673 1.5336 -0.726558 0
M  V30 2206 H 197.445 3.66569 -1.36906 0
M  V30 2207 H 197.068 3.9631 0.319975 0
M  V30 2208 N 198.065 0.39524 1.52563 0
M  V30 2209 C 198.995 -0.428384 2.29537 0
M  V30 2210 C 199.976 -1.05831 1.33169 0
M  V30 2211 O 201.161 -1.06995 1.62067 0
M  V30 2212 C 198.291 -1.55274 3.10656 0
M  V30 2213 C 197.245 -1.04855 4.14957 0
M  V30 2214 C 196.571 -2.26543 4.84337 0
M  V30 2215 C 197.871 -0.112324 5.22179 0
M  V30 2216 H 199.565 0.213867 2.98635 0
M  V30 2217 H 197.111 0.104298 1.43622 0
M  V30 2218 H 199.064 -2.1358 3.63265 0
M  V30 2219 H 197.788 -2.22266 2.39302 0
M  V30 2220 H 196.447 -0.487985 3.63338 0
M  V30 2221 H 196.095 -2.92059 4.09525 0
M  V30 2222 H 195.795 -1.93466 5.54837 0
M  V30 2223 H 197.319 -2.85481 5.39753 0
M  V30 2224 H 198.733 -0.603752 5.70112 0
M  V30 2225 H 197.13 0.128968 5.99961 0
M  V30 2226 H 198.2 0.837052 4.77621 0
M  V30 2227 N 199.544 -1.57102 0.125237 0
M  V30 2228 C 200.454 -2.19191 -0.8362 0
M  V30 2229 C 201.47 -1.16985 -1.28805 0
M  V30 2230 O 202.646 -1.49479 -1.34974 0
M  V30 2231 C 199.711 -2.78407 -2.06617 0
M  V30 2232 C 198.772 -3.9567 -1.66565 0
M  V30 2233 C 198.005 -4.52052 -2.83698 0
M  V30 2234 O 198.228 -4.07326 -3.99302 0
M  V30 2235 O 197.162 -5.42645 -2.60423 0
M  V30 2236 H 200.988 -3.01816 -0.337776 0
M  V30 2237 H 198.573 -1.4906 -0.100695 0
M  V30 2238 H 200.455 -3.16129 -2.7864 0
M  V30 2239 H 199.13 -1.9881 -2.55453 0
M  V30 2240 H 198.037 -3.62705 -0.916296 0
M  V30 2241 H 199.37 -4.76722 -1.22464 0
M  V30 2242 N 201.022 0.148545 -1.56898 0
M  V30 2243 C 202.247 0.880385 -1.87787 0
M  V30 2244 C 202.672 1.74018 -0.714093 0
M  V30 2245 O 202.03 1.78153 0.336343 0
M  V30 2246 C 202.078 1.71422 -3.17249 0
M  V30 2247 O 201.182 2.8183 -3.01074 0
M  V30 2248 H 200.523 0.245301 -0.617028 0
M  V30 2249 H 203.053 0.139826 -2.04122 0
M  V30 2250 H 203.063 2.10954 -3.49231 0
M  V30 2251 H 201.738 1.08284 -4.01556 0
M  V30 2252 H 200.315 2.45715 -2.80497 0
M  V30 2253 N 202.5 1.5196 0.417844 0
M  V30 2254 C 203.728 1.69426 1.18753 0
M  V30 2255 C 204.143 0.399955 1.84515 0
M  V30 2256 O 203.5 -0.623288 1.71527 0
M  V30 2257 C 203.551 2.82375 2.25714 0
M  V30 2258 O 203.272 4.06793 1.62638 0
M  V30 2259 C 204.773 3.11277 3.15628 0
M  V30 2260 H 201.993 0.568031 0.357186 0
M  V30 2261 H 204.537 1.98475 0.49273 0
M  V30 2262 H 202.692 2.5587 2.90877 0
M  V30 2263 H 203.106 4.69667 2.3348 0
M  V30 2264 H 204.58 3.93843 3.86771 0
M  V30 2265 H 205.057 2.24473 3.77503 0
M  V30 2266 H 205.663 3.39515 2.56144 0
M  V30 2267 N 203.978 -0.674533 1.42435 0
M  V30 2268 C 205.227 -1.43034 1.42212 0
M  V30 2269 C 205.54 -1.95555 0.0420788 0
M  V30 2270 O 206.746 -2.71374 -0.0827558 0
M  V30 2271 C 205.202 -2.58748 2.50155 0
M  V30 2272 C 204.81 -2.12925 3.94166 0
M  V30 2273 C 206.554 -3.36257 2.59098 0
M  V30 2274 C 204.461 -3.25723 4.93618 0
M  V30 2275 H 203.391 -0.537345 0.528939 0
M  V30 2276 H 206.042 -0.73024 1.68344 0
M  V30 2277 H 204.424 -3.31128 2.17188 0
M  V30 2278 H 205.598 -1.47697 4.36488 0
M  V30 2279 H 203.913 -1.48354 3.89076 0
M  V30 2280 H 206.51 -4.20264 3.30578 0
M  V30 2281 H 206.853 -3.82866 1.63461 0
M  V30 2282 H 207.386 -2.70947 2.9126 0
M  V30 2283 H 204.125 -2.84105 5.90732 0
M  V30 2284 H 203.645 -3.89732 4.55926 0
M  V30 2285 H 205.324 -3.91186 5.15347 0
M  V30 2286 N 205.456 -1.28612 -0.910864 0
M  V30 2287 C 206.733 -1.06632 -1.63979 0
M  V30 2288 C 207.113 0.393351 -2.07403 0
M  V30 2289 O 206.461 1.37999 -1.82122 0
M  V30 2290 C 206.671 -2.0436 -2.8291 0
M  V30 2291 C 208.019 -2.34666 -3.5386 0
M  V30 2292 O 209.043 -2.02467 -2.93062 0
M  V30 2293 O 207.902 -2.89631 -4.63439 0
M  V30 2294 H 204.996 -0.407737 -0.7195 0
M  V30 2295 H 207.542 -1.39942 -0.959914 0
M  V30 2296 H 206.314 -3.02727 -2.47936 0
M  V30 2297 H 205.937 -1.71714 -3.58609 0
M  V30 2298 N 206.934 1.1197 -1.10907 0
M  V30 2299 C 207.867 2.16998 -0.706192 0
M  V30 2300 C 208.845 1.59903 0.294897 0
M  V30 2301 O 210.029 1.87513 0.192636 0
M  V30 2302 C 207.156 3.38673 -0.0427664 0
M  V30 2303 C 206.202 4.14414 -1.00811 0
M  V30 2304 S 207.035 4.72079 -2.52789 0
M  V30 2305 C 208.191 5.97083 -1.87731 0
M  V30 2306 H 208.424 2.50837 -1.59587 0
M  V30 2307 H 205.957 1.23508 -0.926555 0
M  V30 2308 H 207.915 4.09142 0.333668 0
M  V30 2309 H 206.576 3.03105 0.823788 0
M  V30 2310 H 205.769 5.016 -0.491259 0
M  V30 2311 H 205.371 3.49678 -1.3267 0
M  V30 2312 H 207.663 6.66599 -1.21044 0
M  V30 2313 H 208.606 6.53403 -2.72892 0
M  V30 2314 H 209.014 5.4837 -1.33979 0
M  V30 2315 N 208.412 0.89855 1.29475 0
M  V30 2316 C 209.637 0.538561 2.00285 0
M  V30 2317 C 210.062 -0.869135 1.66816 0
M  V30 2318 O 209.42 -1.57831 0.892145 0
M  V30 2319 C 209.468 0.736475 3.52999 0
M  V30 2320 O 208.572 -0.211537 4.11857 0
M  V30 2321 H 207.913 0.210563 0.62973 0
M  V30 2322 H 210.443 1.20982 1.64998 0
M  V30 2323 H 210.453 0.640685 4.02938 0
M  V30 2324 H 209.128 1.76276 3.76696 0
M  V30 2325 H 207.705 -0.0682991 3.72837 0
M  V30 2326 N 209.89 -1.43072 0.660911 0
M  V30 2327 C 211.13 -2.03596 0.181146 0
M  V30 2328 C 211.494 -1.51057 -1.18515 0
M  V30 2329 O 212.695 -2.03275 -1.75877 0
M  V30 2330 C 210.966 -3.56845 0.19911 0
M  V30 2331 S 212.525 -4.38289 -0.211684 0
M  V30 2332 H 209.343 -0.706954 0.0757479 0
M  V30 2333 H 211.945 -1.75027 0.870965 0
M  V30 2334 H 210.649 -3.92583 1.1961 0
M  V30 2335 H 210.18 -3.90067 -0.510996 0
M  V30 2336 H 212.195 -4.74583 -1.44863 0
M  V30 2337 N 211.368 -0.403325 -1.52352 0
M  V30 2338 C 212.331 0.413051 -2.25447 0
M  V30 2339 C 213.331 0.978513 -1.276 0
M  V30 2340 O 214.521 0.858305 -1.51587 0
M  V30 2341 C 211.653 1.58087 -3.02029 0
M  V30 2342 H 212.846 -0.227094 -2.99039 0
M  V30 2343 H 210.399 -0.155722 -1.55522 0
M  V30 2344 H 211.134 2.25804 -2.32772 0
M  V30 2345 H 210.919 1.18195 -3.73861 0
M  V30 2346 H 212.409 2.1585 -3.57489 0
M  V30 2347 N 212.846 1.57033 -0.133567 0
M  V30 2348 C 213.793 2.16074 0.811208 0
M  V30 2349 C 214.763 1.08979 1.2535 0
M  V30 2350 O 215.948 1.36958 1.32843 0
M  V30 2351 C 213.088 2.77595 2.05024 0
M  V30 2352 C 212.201 3.99042 1.65498 0
M  V30 2353 C 211.336 4.48603 2.84479 0
M  V30 2354 C 210.375 5.62547 2.41262 0
M  V30 2355 N 209.512 6.06787 3.53206 0
M  V30 2356 H 214.352 2.96477 0.300906 0
M  V30 2357 H 211.889 1.46462 0.136822 0
M  V30 2358 H 213.847 3.11402 2.77642 0
M  V30 2359 H 212.477 1.99859 2.53488 0
M  V30 2360 H 211.529 3.71302 0.826981 0
M  V30 2361 H 212.841 4.81629 1.29748 0
M  V30 2362 H 211.995 4.84395 3.65303 0
M  V30 2363 H 210.734 3.64995 3.23465 0
M  V30 2364 H 209.739 5.26345 1.58874 0
M  V30 2365 H 210.964 6.47931 2.03377 0
M  V30 2366 H 208.91 5.26117 3.91838 0
M  V30 2367 H 208.827 6.84266 3.21427 0
M  V30 2368 H 210.095 6.4722 4.34427 0
M  V30 2369 N 214.325 -0.140222 1.56975 0
M  V30 2370 C 215.555 -0.865181 1.87612 0
M  V30 2371 C 215.963 -1.74942 0.72055 0
M  V30 2372 O 215.306 -1.80917 -0.318561 0
M  V30 2373 C 215.368 -1.76782 3.13031 0
M  V30 2374 C 215.032 -1.06005 4.44536 0
M  V30 2375 C 216.029 -0.410768 5.18275 0
M  V30 2376 C 213.714 -1.04754 4.91255 0
M  V30 2377 C 215.708 0.241572 6.36942 0
M  V30 2378 C 213.395 -0.391394 6.09845 0
M  V30 2379 C 214.393 0.252029 6.82535 0
M  V30 2380 O 214.081 0.897757 7.98871 0
M  V30 2381 H 213.813 -0.255188 0.625983 0
M  V30 2382 H 216.367 -0.135653 2.04952 0
M  V30 2383 H 214.597 -2.53846 2.91718 0
M  V30 2384 H 216.286 -2.36533 3.29859 0
M  V30 2385 H 217.052 -0.412195 4.83245 0
M  V30 2386 H 212.931 -1.53777 4.34596 0
M  V30 2387 H 216.475 0.744375 6.93617 0
M  V30 2388 H 212.372 -0.387656 6.44335 0
M  V30 2389 H 213.14 0.800102 8.1458 0
M  V30 2390 N 215.803 -1.52179 -0.40978 0
M  V30 2391 C 216.713 -1.78364 -1.52392 0
M  V30 2392 C 217.729 -0.669183 -1.60617 0
M  V30 2393 O 218.905 -0.954518 -1.77344 0
M  V30 2394 C 215.97 -1.92822 -2.88133 0
M  V30 2395 C 215.031 -3.16725 -2.898 0
M  V30 2396 C 214.264 -3.30483 -4.19067 0
M  V30 2397 O 214.487 -2.49522 -5.12928 0
M  V30 2398 O 213.421 -4.2363 -4.27576 0
M  V30 2399 H 217.247 -2.72931 -1.33201 0
M  V30 2400 H 214.832 -1.37016 -0.59557 0
M  V30 2401 H 216.714 -2.04157 -3.68643 0
M  V30 2402 H 215.389 -1.01444 -3.07393 0
M  V30 2403 H 214.296 -3.10848 -2.08146 0
M  V30 2404 H 215.629 -4.07881 -2.75489 0
M  V30 2405 N 217.281 0.66697 -1.42791 0
M  V30 2406 C 218.528 1.42699 -1.43678 0
M  V30 2407 C 218.856 1.94419 -0.0560425 0
M  V30 2408 O 218.111 1.7182 0.936831 0
M  V30 2409 C 218.41 2.6349 -2.4147 0
M  V30 2410 C 218.076 2.30267 -3.8767 0
M  V30 2411 C 216.738 2.20918 -4.27491 0
M  V30 2412 C 219.09 2.03435 -4.79858 0
M  V30 2413 C 216.418 1.82873 -5.57471 0
M  V30 2414 C 218.77 1.66892 -6.10188 0
M  V30 2415 C 217.434 1.56058 -6.49001 0
M  V30 2416 H 216.704 0.522171 -0.525755 0
M  V30 2417 H 219.351 0.759785 -1.75783 0
M  V30 2418 H 217.656 3.35279 -2.0272 0
M  V30 2419 H 219.353 3.21684 -2.39417 0
M  V30 2420 H 215.943 2.38449 -3.56146 0
M  V30 2421 H 220.127 2.09586 -4.49875 0
M  V30 2422 H 215.383 1.7306 -5.86396 0
M  V30 2423 H 219.557 1.45157 -6.81104 0
M  V30 2424 H 217.184 1.26348 -7.49627 0
M  V30 2425 N 218.759 1.29093 0.90403 0
M  V30 2426 C 219.987 1.19689 1.68766 0
M  V30 2427 C 220.402 -0.243113 1.87228 0
M  V30 2428 O 219.759 -1.16326 1.40621 0
M  V30 2429 C 219.81 1.90144 3.07453 0
M  V30 2430 O 219.531 3.2852 2.89838 0
M  V30 2431 C 221.032 1.87162 4.01852 0
M  V30 2432 H 218.252 0.415035 0.527244 0
M  V30 2433 H 220.796 1.7039 1.13082 0
M  V30 2434 H 218.951 1.43289 3.59926 0
M  V30 2435 H 219.365 3.63944 3.77684 0
M  V30 2436 H 220.839 2.41032 4.96596 0
M  V30 2437 H 221.316 0.84617 4.30972 0
M  V30 2438 H 221.922 2.33741 3.5531 0
M  V30 2439 N 220.237 -1.11381 1.11499 0
M  V30 2440 C 221.514 -1.7955 0.775965 0
M  V30 2441 C 221.894 -1.97859 -0.73588 0
M  V30 2442 O 221.242 -1.56376 -1.66609 0
M  V30 2443 C 221.452 -3.13196 1.53977 0
M  V30 2444 C 222.8 -3.88227 1.71944 0
M  V30 2445 O 223.824 -3.22887 1.50407 0
M  V30 2446 O 222.683 -5.05477 2.07738 0
M  V30 2447 H 219.777 -0.777728 0.28119 0
M  V30 2448 H 222.323 -1.18118 1.21845 0
M  V30 2449 H 221.095 -2.95229 2.56818 0
M  V30 2450 H 220.718 -3.82342 1.09088 0
M  V30 2451 N 221.715 -0.905404 -1.28997 0
M  V30 2452 C 222.678 -0.392253 -2.25819 0
M  V30 2453 C 223.678 0.476753 -1.5357 0
M  V30 2454 O 224.868 0.280994 -1.71919 0
M  V30 2455 C 222 0.438588 -3.38067 0
M  V30 2456 H 223.193 -1.24743 -2.72725 0
M  V30 2457 H 220.746 -0.684051 -1.40536 0
M  V30 2458 H 221.481 1.31352 -2.96508 0
M  V30 2459 H 221.266 -0.184167 -3.91667 0
M  V30 2460 H 222.756 0.78873 -4.10084 0
M  V30 2461 N 223.193 1.4272 -0.668489 0
M  V30 2462 C 224.123 2.335 -0.000100175 0
M  V30 2463 C 225.104 1.50328 0.795964 0
M  V30 2464 O 226.289 1.78949 0.754385 0
M  V30 2465 C 223.419 3.33874 0.956302 0
M  V30 2466 C 222.373 4.27152 0.269278 0
M  V30 2467 C 221.699 5.17684 1.33818 0
M  V30 2468 C 222.999 5.15373 -0.847805 0
M  V30 2469 H 224.693 2.89639 -0.758244 0
M  V30 2470 H 222.239 1.39269 -0.366079 0
M  V30 2471 H 224.192 3.9629 1.43292 0
M  V30 2472 H 222.916 2.76025 1.74579 0
M  V30 2473 H 221.575 3.66123 -0.187042 0
M  V30 2474 H 221.223 4.56165 2.1195 0
M  V30 2475 H 220.923 5.80918 0.883659 0
M  V30 2476 H 222.447 5.82974 1.81586 0
M  V30 2477 H 223.861 5.7151 -0.452681 0
M  V30 2478 H 222.258 5.87407 -1.22773 0
M  V30 2479 H 223.328 4.5415 -1.69929 0
M  V30 2480 N 224.671 0.411399 1.52136 0
M  V30 2481 C 225.601 -0.404015 2.29978 0
M  V30 2482 C 226.582 -1.04412 1.34284 0
M  V30 2483 O 227.767 -1.0527 1.63192 0
M  V30 2484 C 224.897 -1.5197 3.12286 0
M  V30 2485 C 223.851 -1.00448 4.16046 0
M  V30 2486 C 223.177 -2.21393 4.86712 0
M  V30 2487 C 224.477 -0.0569336 5.22269 0
M  V30 2488 H 226.171 0.245529 2.98392 0
M  V30 2489 H 223.717 0.119525 1.43503 0
M  V30 2490 H 225.67 -2.09715 3.6551 0
M  V30 2491 H 224.394 -2.19716 2.41646 0
M  V30 2492 H 223.053 -0.449421 3.63835 0
M  V30 2493 H 222.701 -2.87699 4.12599 0
M  V30 2494 H 222.401 -1.87571 5.56858 0
M  V30 2495 H 223.925 -2.7974 5.4275 0
M  V30 2496 H 225.339 -0.54325 5.7072 0
M  V30 2497 H 223.736 0.192594 5.99791 0
M  V30 2498 H 224.806 0.887663 4.76706 0
M  V30 2499 N 226.149 -1.5696 0.141893 0
M  V30 2500 C 227.389 -1.9785 -0.513304 0
M  V30 2501 C 227.753 -1.02467 -1.62371 0
M  V30 2502 O 228.954 -1.32382 -2.33941 0
M  V30 2503 C 227.225 -3.42797 -1.01118 0
M  V30 2504 S 228.784 -4.05709 -1.67169 0
M  V30 2505 H 225.602 -0.691318 -0.166135 0
M  V30 2506 H 228.204 -1.94114 0.232398 0
M  V30 2507 H 226.908 -4.0995 -0.192179 0
M  V30 2508 H 226.439 -3.50235 -1.79162 0
M  V30 2509 H 228.454 -3.98342 -2.95868 0
M  V30 2510 N 227.627 0.131896 -1.57047 0
M  V30 2511 C 228.577 1.1679 -1.95816 0
M  V30 2512 C 229.561 1.37756 -0.831393 0
M  V30 2513 O 230.753 1.39065 -1.09499 0
M  V30 2514 C 227.882 2.49778 -2.35512 0
M  V30 2515 C 226.968 2.32342 -3.54793 0
M  V30 2516 N 227.359 1.8469 -4.70875 0
M  V30 2517 C 225.657 2.63043 -3.60173 0
M  V30 2518 C 226.358 1.80656 -5.52936 0
M  V30 2519 N 225.334 2.24528 -4.95064 0
M  V30 2520 H 229.136 0.791818 -2.83033 0
M  V30 2521 H 226.65 0.339791 -1.58805 0
M  V30 2522 H 228.647 3.24692 -2.61498 0
M  V30 2523 H 227.307 2.88156 -1.49654 0
M  V30 2524 H 228.318 1.54429 -4.9434 0
M  V30 2525 H 224.995 3.05193 -2.84892 0
M  V30 2526 H 226.385 1.45178 -6.56028 0
M  V30 2527 N 229.106 1.52395 0.401703 0
M  V30 2528 C 230.383 1.57387 1.16141 0
M  V30 2529 C 230.763 0.359359 2.08019 0
M  V30 2530 O 230.111 -0.65326 2.18963 0
M  V30 2531 C 230.321 2.90631 1.93221 0
M  V30 2532 C 231.669 3.43904 2.49028 0
M  V30 2533 O 232.693 2.92421 2.03393 0
M  V30 2534 O 231.552 4.33823 3.32356 0
M  V30 2535 H 228.646 0.634262 0.530698 0
M  V30 2536 H 231.192 1.64725 0.407883 0
M  V30 2537 H 229.964 3.70473 1.25958 0
M  V30 2538 H 229.587 2.8662 2.75563 0
M  V30 2539 N 230.584 -0.659388 1.43143 0
M  V30 2540 C 231.861 -1.41627 1.34912 0
M  V30 2541 C 232.241 -2.11099 -0.00607785 0
M  V30 2542 O 231.589 -2.04353 -1.02236 0
M  V30 2543 C 231.799 -2.40604 2.52805 0
M  V30 2544 C 233.147 -3.04789 2.95616 0
M  V30 2545 O 234.171 -2.50932 2.52807 0
M  V30 2546 O 233.03 -4.02421 3.69756 0
M  V30 2547 H 230.124 -0.63246 0.532844 0
M  V30 2548 H 232.67 -0.686814 1.5518 0
M  V30 2549 H 231.442 -1.88174 3.43083 0
M  V30 2550 H 231.065 -3.21009 2.34604 0
M  V30 2551 N 232.062 -1.29571 -0.897171 0
M  V30 2552 C 232.972 -1.16808 -2.03453 0
M  V30 2553 C 233.988 -0.0907471 -1.73763 0
M  V30 2554 O 235.164 -0.303312 -1.99103 0
M  V30 2555 C 232.229 -0.848264 -3.36163 0
M  V30 2556 C 231.29 -2.0097 -3.79354 0
M  V30 2557 C 230.523 -1.70505 -5.05731 0
M  V30 2558 O 230.746 -0.62718 -5.66941 0
M  V30 2559 O 229.68 -2.5538 -5.45036 0
M  V30 2560 H 233.506 -2.12325 -2.17144 0
M  V30 2561 H 231.091 -1.09047 -1.02123 0
M  V30 2562 H 232.973 -0.684581 -4.15802 0
M  V30 2563 H 231.648 0.0771071 -3.23608 0
M  V30 2564 H 230.555 -2.22863 -3.00471 0
M  V30 2565 H 231.888 -2.91636 -3.96496 0
M  V30 2566 N 233.54 1.10788 -1.12088 0
M  V30 2567 C 234.47 2.19083 -0.807755 0
M  V30 2568 C 235.451 1.6858 0.226859 0
M  V30 2569 O 236.636 1.93997 0.0888475 0
M  V30 2570 C 233.766 3.46344 -0.257576 0
M  V30 2571 C 232.72 4.101 -1.22483 0
M  V30 2572 C 232.046 5.32016 -0.535052 0
M  V30 2573 C 233.346 4.54236 -2.57811 0
M  V30 2574 H 235.04 2.45534 -1.71328 0
M  V30 2575 H 232.586 1.1801 -0.825205 0
M  V30 2576 H 234.539 4.21392 -0.0262679 0
M  V30 2577 H 233.263 3.19373 0.683278 0
M  V30 2578 H 231.922 3.37054 -1.44189 0
M  V30 2579 H 231.57 5.01319 0.410827 0
M  V30 2580 H 231.27 5.75625 -1.18024 0
M  V30 2581 H 232.794 6.09799 -0.312695 0
M  V30 2582 H 234.208 5.20575 -2.40155 0
M  V30 2583 H 232.605 5.08682 -3.18375 0
M  V30 2584 H 233.675 3.6734 -3.16528 0
M  V30 2585 N 235.018 0.912232 1.28515 0
M  V30 2586 C 235.928 0.404506 2.31086 0
M  V30 2587 C 236.944 -0.50707 1.66448 0
M  V30 2588 O 238.12 -0.393624 1.97516 0
M  V30 2589 C 235.185 -0.348572 3.44943 0
M  V30 2590 C 234.246 0.59604 4.25142 0
M  V30 2591 C 233.479 -0.121194 5.33562 0
M  V30 2592 O 233.702 -1.34317 5.5436 0
M  V30 2593 O 232.636 0.542716 5.99448 0
M  V30 2594 H 236.462 1.25579 2.76521 0
M  V30 2595 H 234.047 0.676998 1.33181 0
M  V30 2596 H 235.929 -0.77395 4.14232 0
M  V30 2597 H 234.604 -1.17571 3.01594 0
M  V30 2598 H 233.511 1.07079 3.58448 0
M  V30 2599 H 234.844 1.38995 4.72167 0
M  V30 2600 N 236.496 -1.42363 0.676048 0
M  V30 2601 C 237.744 -2.01123 0.198437 0
M  V30 2602 C 238.065 -1.53731 -1.19966 0
M  V30 2603 O 237.335 -0.759518 -1.80577 0
M  V30 2604 H 235.915 -0.743678 0.0703721 0
M  V30 2605 H 238.577 -1.74263 0.872837 0
M  V30 2606 H 237.673 -3.11454 0.200686 0
M  V30 2607 N 237.974 -0.419461 -1.51915 0
M  V30 2608 C 239.39 -0.0708431 -1.59443 0
M  V30 2609 C 239.59 1.41796 -1.43164 0
M  V30 2610 O 238.646 2.18596 -1.26381 0
M  V30 2611 C 239.959 -0.574991 -2.95151 0
M  V30 2612 C 241.507 -0.533867 -3.08413 0
M  V30 2613 C 241.982 -1.01469 -4.46618 0
M  V30 2614 N 243.473 -0.971939 -4.52888 0
M  V30 2615 C 244.208 -1.31505 -5.58116 0
M  V30 2616 N 243.704 -1.73014 -6.70849 0
M  V30 2617 N 245.497 -1.23436 -5.48379 0
M  V30 2618 H 237.648 -1.38836 -1.60743 0
M  V30 2619 H 239.911 -0.570998 -0.756747 0
M  V30 2620 H 239.617 -1.61597 -3.12377 0
M  V30 2621 H 239.491 0.00979777 -3.77199 0
M  V30 2622 H 241.878 0.498086 -2.90866 0
M  V30 2623 H 241.959 -1.15484 -2.28248 0
M  V30 2624 H 241.603 -2.04502 -4.6491 0
M  V30 2625 H 241.533 -0.370433 -5.25295 0
M  V30 2626 H 244.024 -0.666893 -3.71969 0
M  V30 2627 H 244.337 -1.97479 -7.47143 0
M  V30 2628 H 242.682 -1.76926 -6.72103 0
M  V30 2629 H 245.873 -0.908869 -4.59192 0
M  V30 2630 H 246.046 -1.50506 -6.30279 0
M  V30 2631 N 239.452 1.56882 -0.150215 0
M  V30 2632 C 240.868 1.58263 0.20617 0
M  V30 2633 C 241.068 1.16464 1.64434 0
M  V30 2634 O 240.124 0.866422 2.3717 0
M  V30 2635 C 241.437 3.00649 -0.0555025 0
M  V30 2636 C 242.985 3.12999 0.00795388 0
M  V30 2637 C 243.46 4.5744 -0.226429 0
M  V30 2638 N 244.951 4.62875 -0.173469 0
M  V30 2639 C 245.686 5.72454 -0.329288 0
M  V30 2640 N 245.182 6.90669 -0.543005 0
M  V30 2641 N 246.975 5.61467 -0.266666 0
M  V30 2642 H 239.126 1.82345 -1.08922 0
M  V30 2643 H 241.389 0.844149 -0.431413 0
M  V30 2644 H 241.095 3.3563 -1.05096 0
M  V30 2645 H 240.969 3.71337 0.66246 0
M  V30 2646 H 243.356 2.77857 0.993966 0
M  V30 2647 H 243.437 2.4479 -0.742388 0
M  V30 2648 H 243.081 4.93287 -1.20956 0
M  V30 2649 H 243.011 5.2378 0.544274 0
M  V30 2650 H 245.502 3.77898 -0.0130709 0
M  V30 2651 H 245.815 7.70045 -0.651922 0
M  V30 2652 H 244.16 6.92581 -0.579366 0
M  V30 2653 H 247.351 4.67992 -0.100441 0
M  V30 2654 H 247.524 6.46816 -0.391535 0
M  V30 2655 N 240.93 -0.123565 1.57115 0
M  V30 2656 C 242.179 -0.830704 1.83799 0
M  V30 2657 C 242.492 -1.81259 0.735158 0
M  V30 2658 O 243.698 -2.56558 0.888278 0
M  V30 2659 C 242.154 -1.52802 3.25852 0
M  V30 2660 C 241.762 -0.587356 4.44133 0
M  V30 2661 C 243.506 -2.22056 3.61789 0
M  V30 2662 C 241.413 -1.28764 5.77212 0
M  V30 2663 H 240.343 -0.313967 0.685522 0
M  V30 2664 H 242.994 -0.0834359 1.8331 0
M  V30 2665 H 241.376 -2.32175 3.20797 0
M  V30 2666 H 242.55 0.172829 4.60476 0
M  V30 2667 H 240.865 -0.00201892 4.164 0
M  V30 2668 H 243.462 -2.75131 4.58483 0
M  V30 2669 H 243.805 -2.99644 2.88997 0
M  V30 2670 H 244.338 -1.49576 3.68608 0
M  V30 2671 H 241.077 -0.55314 6.53162 0
M  V30 2672 H 240.597 -2.01995 5.64764 0
M  V30 2673 H 242.276 -1.8221 6.20813 0
M  V30 2674 N 242.408 -1.52605 -0.393616 0
M  V30 2675 C 243.371 -1.76415 -1.46323 0
M  V30 2676 C 244.371 -0.634126 -1.47768 0
M  V30 2677 O 245.561 -0.902142 -1.4902 0
M  V30 2678 C 242.693 -1.8607 -2.85641 0
M  V30 2679 H 243.886 -2.71916 -1.26498 0
M  V30 2680 H 241.439 -1.43257 -0.625073 0
M  V30 2681 H 242.174 -0.925378 -3.10817 0
M  V30 2682 H 241.959 -2.68235 -2.85993 0
M  V30 2683 H 243.449 -2.06179 -3.63153 0
M  V30 2684 N 243.887 0.651787 -1.4349 0
M  V30 2685 C 245.134 1.41167 -1.45183 0
M  V30 2686 C 245.462 1.94349 -0.0766601 0
M  V30 2687 O 244.717 1.72804 0.918555 0
M  V30 2688 C 245.016 2.60914 -2.44251 0
M  V30 2689 C 244.682 2.26142 -3.9009 0
M  V30 2690 C 243.344 2.16371 -4.2981 0
M  V30 2691 C 245.696 1.98334 -4.81989 0
M  V30 2692 C 243.024 1.7695 -5.5938 0
M  V30 2693 C 245.376 1.6041 -6.11924 0
M  V30 2694 C 244.04 1.49166 -6.5062 0
M  V30 2695 H 243.31 0.516566 -0.531263 0
M  V30 2696 H 245.957 0.741099 -1.76579 0
M  V30 2697 H 244.262 3.3311 -2.06265 0
M  V30 2698 H 245.959 3.19127 -2.42815 0
M  V30 2699 H 242.549 2.34658 -3.58655 0
M  V30 2700 H 246.733 2.04803 -4.52072 0
M  V30 2701 H 241.989 1.66831 -5.88198 0
M  V30 2702 H 246.163 1.37925 -6.82605 0
M  V30 2703 H 243.79 1.1839 -7.50925 0
M  V30 2704 N 245.365 1.30045 0.890287 0
M  V30 2705 C 246.614 1.17929 1.63633 0
M  V30 2706 C 246.927 -0.266204 1.9378 0
M  V30 2707 O 248.133 -0.508804 2.6669 0
M  V30 2708 C 246.589 2.06317 2.94892 0
M  V30 2709 C 246.197 3.55745 2.72305 0
M  V30 2710 C 247.941 2.0295 3.72843 0
M  V30 2711 C 245.848 4.36205 3.99348 0
M  V30 2712 H 244.778 0.437782 0.613892 0
M  V30 2713 H 247.429 1.54754 0.986075 0
M  V30 2714 H 245.811 1.6237 3.61182 0
M  V30 2715 H 246.985 4.07805 2.1455 0
M  V30 2716 H 245.3 3.6088 2.07737 0
M  V30 2717 H 247.897 2.60319 4.67053 0
M  V30 2718 H 248.24 1.0117 4.0382 0
M  V30 2719 H 248.773 2.4499 3.13408 0
M  V30 2720 H 245.512 5.38659 3.73533 0
M  V30 2721 H 245.032 3.8891 4.56628 0
M  V30 2722 H 246.711 4.47362 4.67415 0
M  V30 2723 N 246.843 -1.10192 1.12674 0
M  V30 2724 C 247.773 -2.18652 0.819362 0
M  V30 2725 C 248.754 -1.68698 -0.217915 0
M  V30 2726 O 249.939 -1.94041 -0.0785581 0
M  V30 2727 C 247.069 -3.46202 0.27594 0
M  V30 2728 C 246.023 -4.09444 1.24656 0
M  V30 2729 C 245.349 -5.31725 0.563258 0
M  V30 2730 C 246.649 -4.52863 2.60217 0
M  V30 2731 H 248.343 -2.44622 1.72628 0
M  V30 2732 H 245.889 -1.17571 0.831451 0
M  V30 2733 H 247.842 -4.21372 0.0486149 0
M  V30 2734 H 246.566 -3.1973 -0.666331 0
M  V30 2735 H 245.225 -3.36284 1.45974 0
M  V30 2736 H 244.873 -5.0153 -0.384235 0
M  V30 2737 H 244.573 -5.74991 1.21075 0
M  V30 2738 H 246.097 -6.09624 0.34503 0
M  V30 2739 H 247.511 -5.19294 2.42913 0
M  V30 2740 H 245.908 -5.06986 3.21068 0
M  V30 2741 H 246.978 -3.65656 3.18471 0
M  V30 2742 N 248.321 -0.919034 -1.28029 0
M  V30 2743 C 249.551 -0.570143 -1.98577 0
M  V30 2744 C 249.959 0.854172 -1.68821 0
M  V30 2745 O 249.302 1.57807 -0.940351 0
M  V30 2746 C 249.364 -0.705734 -3.52505 0
M  V30 2747 C 249.028 -2.10057 -4.05863 0
M  V30 2748 C 250.025 -3.07385 -4.19298 0
M  V30 2749 C 247.71 -2.41517 -4.40426 0
M  V30 2750 C 249.704 -4.34287 -4.66555 0
M  V30 2751 C 247.391 -3.68657 -4.87376 0
M  V30 2752 C 248.389 -4.64856 -5.00398 0
M  V30 2753 O 248.077 -5.89735 -5.46322 0
M  V30 2754 H 247.809 -0.215592 -0.6407 0
M  V30 2755 H 250.363 -1.23583 -1.64062 0
M  V30 2756 H 248.593 0.0170414 -3.86696 0
M  V30 2757 H 250.282 -0.363172 -4.04272 0
M  V30 2758 H 251.048 -2.84398 -3.92865 0
M  V30 2759 H 246.927 -1.67389 -4.29537 0
M  V30 2760 H 250.471 -5.09377 -4.76635 0
M  V30 2761 H 246.368 -3.91466 -5.13249 0
M  V30 2762 H 247.136 -5.92599 -5.64596 0
M  V30 2763 N 249.799 1.42003 -0.683588 0
M  V30 2764 C 250.729 2.33487 -0.024866 0
M  V30 2765 C 251.71 1.51163 0.779975 0
M  V30 2766 O 252.895 1.79739 0.735362 0
M  V30 2767 C 250.025 3.3487 0.920836 0
M  V30 2768 C 248.979 4.27414 0.223958 0
M  V30 2769 C 248.305 5.19074 1.2832 0
M  V30 2770 C 249.605 5.14445 -0.90242 0
M  V30 2771 H 251.299 2.88819 -0.788921 0
M  V30 2772 H 248.845 1.38873 -0.38083 0
M  V30 2773 H 250.798 3.97787 1.39081 0
M  V30 2774 H 249.522 2.77861 1.71642 0
M  V30 2775 H 248.181 3.65904 -0.225864 0
M  V30 2776 H 247.829 4.58387 2.071 0
M  V30 2777 H 247.529 5.81822 0.821995 0
M  V30 2778 H 249.053 5.84867 1.75392 0
M  V30 2779 H 250.467 5.70998 -0.513272 0
M  V30 2780 H 248.864 5.86072 -1.28997 0
M  V30 2781 H 249.934 4.52322 -1.74737 0
M  V30 2782 N 251.277 0.427512 1.51691 0
M  V30 2783 C 252.523 -0.142439 2.02299 0
M  V30 2784 C 252.856 -1.43214 1.31162 0
M  V30 2785 O 252.131 -1.89833 0.423511 0
M  V30 2786 C 252.414 -0.371301 3.58181 0
M  V30 2787 C 252.267 0.936358 4.39946 0
M  V30 2788 C 253.586 -1.14542 4.24933 0
M  V30 2789 H 250.705 -0.0502937 0.735282 0
M  V30 2790 H 253.347 0.564584 1.81418 0
M  V30 2791 H 251.497 -0.973559 3.76104 0
M  V30 2792 H 253.169 1.57184 4.33694 0
M  V30 2793 H 251.412 1.5432 4.05423 0
M  V30 2794 H 252.083 0.730388 5.47147 0
M  V30 2795 H 254.559 -0.635362 4.11221 0
M  V30 2796 H 253.435 -1.27431 5.33903 0
M  V30 2797 H 253.696 -2.17093 3.85127 0
M  V30 2798 N 252.755 -1.56801 0.158532 0
M  V30 2799 C 254.166 -1.83189 -0.360366 0
M  V30 2800 C 254.517 -1.07778 -1.63946 0
M  V30 2801 O 253.642 -0.326718 -2.13919 0
M  V30 2802 C 254.237 -3.32297 -0.660595 0
M  V30 2803 C 252.796 -3.59227 -1.12398 0
M  V30 2804 C 251.943 -2.76877 -0.153097 0
M  V30 2805 H 254.894 -1.54008 0.383031 0
M  V30 2806 H 254.915 -3.4908 -1.51405 0
M  V30 2807 H 254.427 -3.87156 0.270527 0
M  V30 2808 H 252.528 -3.09766 -2.07064 0
M  V30 2809 H 252.641 -4.67632 -1.04197 0
M  V30 2810 H 251.005 -2.46319 -0.647983 0
M  V30 2811 H 251.788 -3.34511 0.77182 0
M  V30 2812 N 254.233 0.115231 -1.57178 0
M  V30 2813 C 255.644 0.67197 -1.74188 0
M  V30 2814 C 255.995 1.80125 -0.777777 0
M  V30 2815 O 255.12 2.16346 0.0484376 0
M  V30 2816 C 255.715 1.22573 -3.1585 0
M  V30 2817 C 254.274 1.72872 -3.34353 0
M  V30 2818 C 253.421 0.629972 -2.70049 0
M  V30 2819 H 256.372 -0.110712 -1.58313 0
M  V30 2820 H 256.393 2.09535 -3.17609 0
M  V30 2821 H 255.905 0.403598 -3.85996 0
M  V30 2822 H 254.006 2.5755 -2.69256 0
M  V30 2823 H 254.119 1.83557 -4.42542 0
M  V30 2824 H 252.483 1.0645 -2.31388 0
M  V30 2825 H 253.266 -0.181241 -3.42821 0
M  V30 2826 N 255.711 1.52812 0.385517 0
M  V30 2827 C 256.957 1.69225 1.12847 0
M  V30 2828 C 257.312 0.42864 1.87564 0
M  V30 2829 O 256.605 -0.57779 1.8268 0
M  V30 2830 C 256.799 2.86856 2.13187 0
M  V30 2831 C 256.628 4.24535 1.48325 0
M  V30 2832 C 255.398 4.89701 1.24585 0
M  V30 2833 C 257.596 5.05794 0.931501 0
M  V30 2834 N 255.578 6.11353 0.558644 0
M  V30 2835 C 256.949 6.1888 0.372552 0
M  V30 2836 C 259.004 4.90963 0.828248 0
M  V30 2837 C 257.707 7.18757 -0.279556 0
M  V30 2838 C 259.733 5.91095 0.189956 0
M  V30 2839 C 259.095 7.03489 -0.358207 0
M  V30 2840 H 255.194 0.67268 0.39878 0
M  V30 2841 H 257.778 1.9017 0.417528 0
M  V30 2842 H 255.949 2.67484 2.81614 0
M  V30 2843 H 257.681 2.92188 2.80014 0
M  V30 2844 H 254.436 4.48485 1.52178 0
M  V30 2845 H 254.86 6.76606 0.230983 0
M  V30 2846 H 259.502 4.04274 1.23784 0
M  V30 2847 H 257.22 8.05052 -0.701152 0
M  V30 2848 H 260.806 5.81694 0.111264 0
M  V30 2849 H 259.686 7.79642 -0.844314 0
M  V30 2850 N 257.189 -0.644168 1.43834 0
M  V30 2851 C 258.466 -1.40188 1.36406 0
M  V30 2852 C 258.846 -2.11094 0.0163124 0
M  V30 2853 O 258.194 -2.05426 -1.00062 0
M  V30 2854 C 258.404 -2.3791 2.55343 0
M  V30 2855 C 259.752 -3.01637 2.98832 0
M  V30 2856 O 260.776 -2.48237 2.55455 0
M  V30 2857 O 259.635 -3.98477 3.74003 0
M  V30 2858 H 256.729 -0.626773 0.539523 0
M  V30 2859 H 259.275 -0.670317 1.559 0
M  V30 2860 H 258.047 -1.84525 3.4506 0
M  V30 2861 H 257.67 -3.18503 2.37995 0
M  V30 2862 N 258.668 -1.30515 -0.883378 0
M  V30 2863 C 260.084 -1.08881 -1.16692 0
M  V30 2864 C 260.284 0.149409 -2.00945 0
M  V30 2865 O 259.34 0.84257 -2.38027 0
M  V30 2866 C 260.653 -2.35319 -1.87204 0
M  V30 2867 C 262.201 -2.40799 -1.99962 0
M  V30 2868 C 262.676 -3.67083 -2.73887 0
M  V30 2869 N 264.167 -3.679 -2.81432 0
M  V30 2870 C 264.902 -4.62303 -3.3921 0
M  V30 2871 N 264.398 -5.67052 -3.98025 0
M  V30 2872 N 266.191 -4.49845 -3.3704 0
M  V30 2873 H 258.342 -2.09951 -0.321633 0
M  V30 2874 H 260.605 -0.92556 -0.205043 0
M  V30 2875 H 260.311 -3.25689 -1.3274 0
M  V30 2876 H 260.185 -2.44089 -2.87577 0
M  V30 2877 H 262.572 -1.50907 -2.53597 0
M  V30 2878 H 262.653 -2.36003 -0.98673 0
M  V30 2879 H 262.297 -4.57334 -2.20925 0
M  V30 2880 H 262.227 -3.69141 -3.75556 0
M  V30 2881 H 264.718 -2.92171 -2.39676 0
M  V30 2882 H 265.031 -6.35184 -4.40183 0
M  V30 2883 H 263.376 -5.70842 -3.96439 0
M  V30 2884 H 266.567 -3.67194 -2.90321 0
M  V30 2885 H 266.74 -5.23597 -3.81772 0
M  V30 2886 N 260.146 1.09593 -1.13257 0
M  V30 2887 C 261.371 1.8604 -0.916732 0
M  V30 2888 C 261.796 1.80504 0.529146 0
M  V30 2889 O 261.154 1.18127 1.37534 0
M  V30 2890 C 261.202 3.32017 -1.40703 0
M  V30 2891 O 260.306 4.08141 -0.591153 0
M  V30 2892 H 259.647 0.576943 -0.328683 0
M  V30 2893 H 262.177 1.38405 -1.50682 0
M  V30 2894 H 262.187 3.82865 -1.4099 0
M  V30 2895 H 260.862 3.35361 -2.45979 0
M  V30 2896 H 259.439 3.67084 -0.656005 0
M  V30 2897 N 261.624 0.925811 1.2754 0
M  V30 2898 C 262.557 0.367836 2.25216 0
M  V30 2899 C 263.535 -0.534738 1.53556 0
M  V30 2900 O 264.719 -0.475672 1.824 0
M  V30 2901 C 261.846 -0.47298 3.35381 0
M  V30 2902 C 260.892 0.365898 4.24928 0
M  V30 2903 S 261.725 1.78025 5.05042 0
M  V30 2904 C 262.881 0.947068 6.18693 0
M  V30 2905 H 263.114 1.19568 2.72196 0
M  V30 2906 H 260.647 0.727867 1.36167 0
M  V30 2907 H 262.605 -0.952242 3.99303 0
M  V30 2908 H 261.266 -1.27533 2.87044 0
M  V30 2909 H 260.459 -0.277582 5.03235 0
M  V30 2910 H 260.061 0.779261 3.65792 0
M  V30 2911 H 262.353 0.182201 6.77255 0
M  V30 2912 H 263.296 1.70309 6.87314 0
M  V30 2913 H 263.704 0.489913 5.6237 0
M  V30 2914 N 263.102 -1.41638 0.69111 0
M  V30 2915 C 264.35 -2.00902 0.219758 0
M  V30 2916 C 264.671 -1.54994 -1.18329 0
M  V30 2917 O 263.941 -0.778628 -1.79762 0
M  V30 2918 H 262.521 -0.74289 0.0782558 0
M  V30 2919 H 265.183 -1.73327 0.891271 0
M  V30 2920 H 264.279 -3.11224 0.233708 0
M  V30 2921 N 264.58 -0.43555 -1.51462 0
M  V30 2922 C 265.828 0.131254 -2.01673 0
M  V30 2923 C 266.149 1.43368 -1.32177 0
M  V30 2924 O 265.419 1.90524 -0.455769 0
M  V30 2925 H 263.999 0.0514954 -0.745223 0
M  V30 2926 H 266.661 -0.577847 -1.86137 0
M  V30 2927 H 265.757 0.308446 -3.10572 0
M  V30 2928 N 266.058 1.56714 -0.166846 0
M  V30 2929 C 267.286 2.0112 0.485644 0
M  V30 2930 C 267.701 1.04705 1.57106 0
M  V30 2931 O 267.058 0.0471923 1.82439 0
M  V30 2932 C 267.109 3.45361 1.06808 0
M  V30 2933 O 266.83 4.38092 0.0259995 0
M  V30 2934 C 268.331 4.05145 1.79924 0
M  V30 2935 H 265.551 0.65931 0.124704 0
M  V30 2936 H 268.095 2.02746 -0.267262 0
M  V30 2937 H 266.25 3.44524 1.7715 0
M  V30 2938 H 266.664 5.22519 0.455398 0
M  V30 2939 H 268.138 5.08009 2.15942 0
M  V30 2940 H 268.615 3.46982 2.69258 0
M  V30 2941 H 269.221 4.09672 1.14234 0
M  V30 2942 N 267.536 -0.106894 1.57237 0
M  V30 2943 C 268.466 -1.13148 2.04254 0
M  V30 2944 C 269.447 -1.42476 0.929224 0
M  V30 2945 O 270.632 -1.52709 1.19973 0
M  V30 2946 C 267.762 -2.4545 2.45706 0
M  V30 2947 C 266.716 -2.30558 3.60592 0
M  V30 2948 C 266.042 -3.67931 3.87983 0
M  V30 2949 C 267.342 -1.75597 4.91897 0
M  V30 2950 H 269.036 -0.740374 2.90101 0
M  V30 2951 H 266.582 -0.354696 1.39563 0
M  V30 2952 H 268.535 -3.17389 2.77205 0
M  V30 2953 H 267.259 -2.86475 1.56843 0
M  V30 2954 H 265.918 -1.61067 3.29322 0
M  V30 2955 H 265.566 -4.06462 2.96306 0
M  V30 2956 H 265.266 -3.58817 4.65322 0
M  V30 2957 H 266.79 -4.41356 4.21945 0
M  V30 2958 H 268.204 -2.37364 5.21854 0
M  V30 2959 H 266.601 -1.77272 5.73319 0
M  V30 2960 H 267.671 -0.714451 4.79608 0
M  V30 2961 N 269.014 -1.53014 -0.377408 0
M  V30 2962 C 270.291 -1.59215 -1.13622 0
M  V30 2963 C 270.671 -0.392407 -2.07421 0
M  V30 2964 O 270.019 0.618342 -2.19975 0
M  V30 2965 C 270.229 -2.93669 -1.88573 0
M  V30 2966 C 271.577 -3.47822 -2.43526 0
M  V30 2967 O 272.601 -2.9562 -1.98715 0
M  V30 2968 O 271.46 -4.39055 -3.25412 0
M  V30 2969 H 268.554 -0.642625 -0.52054 0
M  V30 2970 H 271.1 -1.65353 -0.381625 0
M  V30 2971 H 269.872 -3.7243 -1.20048 0
M  V30 2972 H 269.495 -2.90968 -2.70968 0
M  V30 2973 N 270.492 0.636531 -1.44174 0
M  V30 2974 C 271.422 1.76003 -1.53444 0
M  V30 2975 C 272.403 1.65619 -0.387841 0
M  V30 2976 O 273.588 1.84461 -0.607257 0
M  V30 2977 C 270.718 3.14511 -1.4731 0
M  V30 2978 C 269.672 3.39677 -2.60391 0
M  V30 2979 C 268.998 4.78159 -2.39308 0
M  V30 2980 C 270.298 3.32772 -4.02567 0
M  V30 2981 H 271.992 1.68501 -2.47483 0
M  V30 2982 H 269.538 0.809237 -1.19111 0
M  V30 2983 H 271.491 3.92878 -1.52397 0
M  V30 2984 H 270.215 3.22783 -0.49785 0
M  V30 2985 H 268.874 2.63688 -2.54684 0
M  V30 2986 H 268.522 4.83128 -1.39988 0
M  V30 2987 H 268.222 4.95956 -3.15122 0
M  V30 2988 H 269.746 5.58762 -2.46205 0
M  V30 2989 H 271.16 4.01051 -4.09672 0
M  V30 2990 H 269.557 3.62104 -4.7854 0
M  V30 2991 H 270.627 2.30669 -4.2652 0
M  V30 2992 N 271.97 1.30982 0.876444 0
M  V30 2993 C 273.2 1.23063 1.65949 0
M  V30 2994 C 273.608 -0.207537 1.88058 0
M  V30 2995 O 272.951 -1.14781 1.43426 0
M  V30 2996 C 273.013 1.89768 3.05333 0
M  V30 2997 C 272.677 3.39106 3.0636 0
M  V30 2998 C 273.674 4.3496 2.84791 0
M  V30 2999 C 271.359 3.80693 3.27686 0
M  V30 3000 C 273.353 5.70375 2.84519 0
M  V30 3001 C 271.04 5.16223 3.27043 0
M  V30 3002 C 272.038 6.10875 3.05485 0
M  V30 3003 O 271.726 7.43928 3.04674 0
M  V30 3004 H 271.458 0.426685 0.524324 0
M  V30 3005 H 274.012 1.7329 1.10271 0
M  V30 3006 H 272.242 1.34082 3.6271 0
M  V30 3007 H 273.931 1.75853 3.65829 0
M  V30 3008 H 274.697 4.0416 2.68103 0
M  V30 3009 H 270.576 3.07457 3.43499 0
M  V30 3010 H 274.12 6.44228 2.67611 0
M  V30 3011 H 270.017 5.4666 3.43269 0
M  V30 3012 H 270.785 7.53022 3.2078 0
M  V30 3013 N 273.449 -1.08991 1.13837 0
M  V30 3014 C 274.674 -1.85551 0.926585 0
M  V30 3015 C 275.099 -1.80782 -0.519566 0
M  V30 3016 O 274.457 -1.18855 -1.36906 0
M  V30 3017 C 274.505 -3.31266 1.42462 0
M  V30 3018 O 273.609 -4.07822 0.612789 0
M  V30 3019 H 272.95 -0.575192 0.331738 0
M  V30 3020 H 275.48 -1.37604 1.51414 0
M  V30 3021 H 275.49 -3.82112 1.43019 0
M  V30 3022 H 274.165 -3.34052 2.47754 0
M  V30 3023 H 272.742 -3.66731 0.675463 0
M  V30 3024 N 274.927 -0.932562 -1.27047 0
M  V30 3025 C 276.176 -0.571351 -1.93439 0
M  V30 3026 C 276.489 0.892467 -1.74053 0
M  V30 3027 O 277.695 1.36267 -2.34826 0
M  V30 3028 C 276.151 -0.97106 -3.46552 0
M  V30 3029 C 275.759 -2.4559 -3.74686 0
M  V30 3030 C 277.503 -0.681333 -4.18997 0
M  V30 3031 C 275.41 -2.79475 -5.21198 0
M  V30 3032 H 274.34 -0.209966 -0.724176 0
M  V30 3033 H 276.991 -1.13403 -1.44263 0
M  V30 3034 H 275.373 -0.336983 -3.94564 0
M  V30 3035 H 276.547 -3.13829 -3.37414 0
M  V30 3036 H 274.862 -2.71802 -3.15456 0
M  V30 3037 H 277.459 -0.910939 -5.26883 0
M  V30 3038 H 277.802 0.381628 -4.14547 0
M  V30 3039 H 278.335 -1.27473 -3.76823 0
M  V30 3040 H 275.074 -3.847 -5.30741 0
M  V30 3041 H 274.594 -2.1589 -5.596 0
M  V30 3042 H 276.273 -2.67478 -5.89122 0
M  V30 3043 N 276.405 1.4127 -0.698611 0
M  V30 3044 C 277.682 1.94955 -0.158762 0
M  V30 3045 C 278.062 1.63781 1.33188 0
M  V30 3046 O 277.41 0.946423 2.07979 0
M  V30 3047 C 277.62 3.46044 -0.453309 0
M  V30 3048 C 278.968 4.22872 -0.382707 0
M  V30 3049 O 279.992 3.54076 -0.388396 0
M  V30 3050 O 278.851 5.45407 -0.345463 0
M  V30 3051 H 275.945 0.82683 -0.0167505 0
M  V30 3052 H 278.491 1.50971 -0.77498 0
M  V30 3053 H 277.263 3.62028 -1.48498 0
M  V30 3054 H 276.886 3.97128 0.19373 0
M  V30 3055 N 277.883 0.443576 1.51229 0
M  V30 3056 C 278.793 -0.370721 2.31652 0
M  V30 3057 C 279.809 -1.02186 1.40833 0
M  V30 3058 O 280.985 -1.01586 1.73903 0
M  V30 3059 C 278.05 -1.45376 3.14749 0
M  V30 3060 C 277.111 -0.822099 4.21355 0
M  V30 3061 C 276.344 -1.85353 5.0048 0
M  V30 3062 O 276.567 -3.07656 4.80316 0
M  V30 3063 O 275.501 -1.4406 5.84406 0
M  V30 3064 H 279.327 0.286002 3.0235 0
M  V30 3065 H 276.912 0.20598 1.47973 0
M  V30 3066 H 278.794 -2.08173 3.66391 0
M  V30 3067 H 277.469 -2.09445 2.46809 0
M  V30 3068 H 276.376 -0.155909 3.73775 0
M  V30 3069 H 277.709 -0.224797 4.91686 0
M  V30 3070 N 279.361 -1.56624 0.175154 0
M  V30 3071 C 280.311 -2.14747 -0.766004 0
M  V30 3072 C 281.295 -1.08275 -1.19018 0
M  V30 3073 O 282.487 -1.34388 -1.15191 0
M  V30 3074 C 279.616 -2.79478 -1.99366 0
M  V30 3075 C 278.702 -3.93114 -1.5913 0
M  V30 3076 N 279.093 -4.97752 -0.89872 0
M  V30 3077 C 277.391 -4.04345 -1.88204 0
M  V30 3078 C 278.092 -5.77473 -0.700012 0
M  V30 3079 N 277.068 -5.29207 -1.24263 0
M  V30 3080 H 280.87 -2.93015 -0.22793 0
M  V30 3081 H 278.384 -1.6238 -0.0253843 0
M  V30 3082 H 280.381 -3.19498 -2.67818 0
M  V30 3083 H 279.041 -2.02692 -2.53665 0
M  V30 3084 H 280.052 -5.14903 -0.556347 0
M  V30 3085 H 276.729 -3.38667 -2.44153 0
M  V30 3086 H 278.119 -6.71728 -0.152047 0
M  V30 3087 N 280.839 0.0985539 -1.57292 0
M  V30 3088 C 282.086 0.802678 -1.85912 0
M  V30 3089 C 282.414 1.78901 -0.763186 0
M  V30 3090 O 281.669 1.94178 0.243559 0
M  V30 3091 C 281.968 1.56927 -3.21105 0
M  V30 3092 C 281.634 0.725376 -4.45027 0
M  V30 3093 C 280.296 0.492726 -4.78671 0
M  V30 3094 C 282.648 0.138493 -5.21016 0
M  V30 3095 C 279.976 -0.336727 -5.85733 0
M  V30 3096 C 282.328 -0.678264 -6.28953 0
M  V30 3097 C 280.992 -0.921039 -6.61115 0
M  V30 3098 H 280.262 0.293721 -0.680301 0
M  V30 3099 H 282.909 0.0642841 -1.91392 0
M  V30 3100 H 281.214 2.37914 -3.11294 0
M  V30 3101 H 282.911 2.11841 -3.40477 0
M  V30 3102 H 279.501 0.916815 -4.18679 0
M  V30 3103 H 283.685 0.305404 -4.95359 0
M  V30 3104 H 278.941 -0.533836 -6.09065 0
M  V30 3105 H 283.115 -1.1399 -6.87007 0
M  V30 3106 H 280.742 -1.56556 -7.43905 0
M  V30 3107 N 282.317 1.53212 0.369288 0
M  V30 3108 C 283.249 1.75668 1.47219 0
M  V30 3109 C 284.262 0.637387 1.49804 0
M  V30 3110 O 285.451 0.913561 1.5335 0
M  V30 3111 C 282.551 1.81818 2.85999 0
M  V30 3112 C 281.724 3.11409 3.07153 0
M  V30 3113 C 280.783 3.08849 4.26026 0
M  V30 3114 O 279.809 3.82659 4.2138 0
M  V30 3115 N 281.011 2.29409 5.33246 0
M  V30 3116 H 283.776 2.70832 1.28337 0
M  V30 3117 H 281.337 1.51944 0.55898 0
M  V30 3118 H 283.329 1.77588 3.63655 0
M  V30 3119 H 281.899 0.939544 2.98146 0
M  V30 3120 H 281.119 3.28971 2.1719 0
M  V30 3121 H 282.407 3.97059 3.18154 0
M  V30 3122 H 281.805 1.68946 5.39883 0
M  V30 3123 H 280.362 2.31001 6.09493 0
M  V30 3124 N 283.795 -0.628877 1.44509 0
M  V30 3125 C 285.206 -1.21054 1.42137 0
M  V30 3126 C 285.557 -1.95715 0.137881 0
M  V30 3127 O 284.682 -2.02554 -0.761645 0
M  V30 3128 C 285.277 -2.20189 2.57493 0
M  V30 3129 C 283.836 -2.73777 2.58308 0
M  V30 3130 C 282.983 -1.48813 2.33987 0
M  V30 3131 H 285.934 -0.41942 1.53057 0
M  V30 3132 H 285.955 -3.02833 2.30375 0
M  V30 3133 H 285.467 -1.6582 3.50892 0
M  V30 3134 H 283.568 -3.32142 1.68856 0
M  V30 3135 H 283.681 -3.19662 3.56865 0
M  V30 3136 H 282.045 -1.77024 1.83124 0
M  V30 3137 H 282.828 -0.963442 3.29504 0
M  V30 3138 N 285.273 -1.31445 -0.869486 0
M  V30 3139 C 286.22 -1.19135 -1.97675 0
M  V30 3140 C 287.19 -0.0770266 -1.65921 0
M  V30 3141 O 288.375 -0.249972 -1.89155 0
M  V30 3142 C 285.515 -0.905149 -3.33018 0
M  V30 3143 C 284.628 -2.10285 -3.77365 0
M  V30 3144 C 283.763 -1.75339 -5.01427 0
M  V30 3145 C 282.802 -2.91515 -5.38224 0
M  V30 3146 N 281.939 -2.56762 -6.53466 0
M  V30 3147 H 286.779 -2.13853 -2.07535 0
M  V30 3148 H 284.316 -1.06379 -1.01597 0
M  V30 3149 H 286.274 -0.719765 -4.10944 0
M  V30 3150 H 284.904 0.00519624 -3.228 0
M  V30 3151 H 283.956 -2.39899 -2.95216 0
M  V30 3152 H 285.268 -2.97237 -4.00564 0
M  V30 3153 H 284.422 -1.53266 -5.87022 0
M  V30 3154 H 283.161 -0.855801 -4.80133 0
M  V30 3155 H 282.166 -3.14237 -4.51149 0
M  V30 3156 H 283.391 -3.81985 -5.61484 0
M  V30 3157 H 281.337 -1.69526 -6.33717 0
M  V30 3158 H 281.254 -3.37243 -6.76612 0
M  V30 3159 H 282.522 -2.38083 -7.42251 0
M  V30 3160 N 286.751 1.08385 -1.14413 0
M  V30 3161 C 287.683 2.1519 -0.789036 0
M  V30 3162 C 288.696 1.61638 0.19417 0
M  V30 3163 O 289.885 1.78479 -0.0275711 0
M  V30 3164 C 286.985 3.38565 -0.15058 0
M  V30 3165 C 286.158 4.21501 -1.16857 0
M  V30 3166 C 285.217 5.23277 -0.553832 0
M  V30 3167 O 284.243 5.56041 -1.21686 0
M  V30 3168 N 285.445 5.76629 0.669296 0
M  V30 3169 H 288.21 2.46257 -1.70814 0
M  V30 3170 H 285.771 1.24198 -1.03858 0
M  V30 3171 H 287.763 4.03777 0.273181 0
M  V30 3172 H 286.333 3.05299 0.671667 0
M  V30 3173 H 285.553 3.52265 -1.76926 0
M  V30 3174 H 286.841 4.73731 -1.85624 0
M  V30 3175 H 286.239 5.52243 1.22654 0
M  V30 3176 H 284.796 6.43521 1.03556 0
M  V30 3177 N 288.23 0.939286 1.26551 0
M  V30 3178 C 289.479 0.581601 1.93133 0
M  V30 3179 C 289.792 -0.883224 1.74524 0
M  V30 3180 O 290.998 -1.3502 2.35546 0
M  V30 3181 C 289.454 0.989425 3.46032 0
M  V30 3182 C 289.062 2.47573 3.73379 0
M  V30 3183 C 290.806 0.703544 4.18629 0
M  V30 3184 C 288.713 2.82235 5.19709 0
M  V30 3185 H 287.643 0.213803 0.723052 0
M  V30 3186 H 290.294 1.14167 1.4366 0
M  V30 3187 H 288.676 0.357902 3.94379 0
M  V30 3188 H 289.85 3.15614 3.35744 0
M  V30 3189 H 288.165 2.73471 3.1401 0
M  V30 3190 H 290.762 0.938869 5.26393 0
M  V30 3191 H 291.105 -0.359639 4.14744 0
M  V30 3192 H 291.638 1.2947 3.76141 0
M  V30 3193 H 288.377 3.87509 5.28694 0
M  V30 3194 H 287.897 2.18854 5.58447 0
M  V30 3195 H 289.576 2.70599 5.87695 0
M  V30 3196 N 289.708 -1.40897 0.706093 0
M  V30 3197 C 290.954 -2.01352 0.241889 0
M  V30 3198 C 291.287 -1.55832 -1.15888 0
M  V30 3199 O 290.562 -0.774145 -1.7843 0
M  V30 3200 C 290.845 -3.58752 0.311311 0
M  V30 3201 C 290.698 -4.1437 1.74978 0
M  V30 3202 C 292.017 -4.38914 -0.322922 0
M  V30 3203 H 289.136 -0.731562 0.0893687 0
M  V30 3204 H 291.778 -1.67504 0.896802 0
M  V30 3205 H 289.928 -3.87718 -0.246302 0
M  V30 3206 H 291.6 -3.96239 2.36205 0
M  V30 3207 H 289.843 -3.69016 2.28057 0
M  V30 3208 H 290.514 -5.23532 1.74981 0
M  V30 3209 H 292.99 -4.15822 0.152089 0
M  V30 3210 H 291.866 -5.48358 -0.243855 0
M  V30 3211 H 292.127 -4.19176 -1.40513 0
M  V30 3212 N 291.186 -0.45159 -1.50991 0
M  V30 3213 C 292.133 0.352625 -2.2809 0
M  V30 3214 C 293.103 1.0044 -1.32291 0
M  V30 3215 O 294.288 1.02058 -1.6121 0
M  V30 3216 C 291.428 1.43983 -3.13629 0
M  V30 3217 C 290.541 0.804772 -4.24438 0
M  V30 3218 C 289.676 1.86822 -4.97263 0
M  V30 3219 C 288.715 1.21236 -5.99973 0
M  V30 3220 N 287.852 2.2178 -6.66152 0
M  V30 3221 H 292.692 -0.311186 -2.96371 0
M  V30 3222 H 290.229 -0.165308 -1.46168 0
M  V30 3223 H 292.187 2.08161 -3.61559 0
M  V30 3224 H 290.817 2.07307 -2.47434 0
M  V30 3225 H 289.869 0.0509129 -3.80366 0
M  V30 3226 H 291.181 0.286076 -4.97979 0
M  V30 3227 H 290.335 2.58628 -5.48813 0
M  V30 3228 H 289.074 2.42068 -4.23385 0
M  V30 3229 H 288.079 0.479828 -5.47702 0
M  V30 3230 H 289.304 0.667051 -6.75816 0
M  V30 3231 H 287.25 2.76079 -5.95077 0
M  V30 3232 H 287.167 1.74841 -7.35504 0
M  V30 3233 H 288.435 2.93026 -7.22327 0
M  V30 3234 N 292.664 1.56529 -0.183458 0
M  V30 3235 C 293.889 2.02064 0.467428 0
M  V30 3236 C 294.314 1.06282 1.55196 0
M  V30 3237 O 293.672 0.0443565 1.81246 0
M  V30 3238 C 293.72 3.46122 1.01153 0
M  V30 3239 O 292.824 3.53437 2.12499 0
M  V30 3240 H 292.165 0.654726 0.110588 0
M  V30 3241 H 294.695 2.02521 -0.290917 0
M  V30 3242 H 294.705 3.85676 1.33108 0
M  V30 3243 H 293.38 4.15331 0.217533 0
M  V30 3244 H 291.957 3.2575 1.81497 0
M  V30 3245 N 294.142 -0.090211 1.57342 0
M  V30 3246 C 295.072 -1.10976 2.05443 0
M  V30 3247 C 296.053 -1.41482 0.944284 0
M  V30 3248 O 297.238 -1.51428 1.21586 0
M  V30 3249 C 294.368 -2.42831 2.48295 0
M  V30 3250 C 293.322 -2.26721 3.63018 0
M  V30 3251 C 292.648 -3.63796 3.91863 0
M  V30 3252 C 293.948 -1.7037 4.93732 0
M  V30 3253 H 295.642 -0.709564 2.9087 0
M  V30 3254 H 293.188 -0.339874 1.39932 0
M  V30 3255 H 295.141 -3.14431 2.80555 0
M  V30 3256 H 293.865 -2.84795 1.59873 0
M  V30 3257 H 292.524 -1.57565 3.31012 0
M  V30 3258 H 292.172 -4.03297 3.00601 0
M  V30 3259 H 291.872 -3.53861 4.69101 0
M  V30 3260 H 293.396 -4.36855 4.26603 0
M  V30 3261 H 294.81 -2.31816 5.24342 0
M  V30 3262 H 293.207 -1.71181 5.75167 0
M  V30 3263 H 294.277 -0.663542 4.80339 0
M  V30 3264 N 295.62 -1.53406 -0.361157 0
M  V30 3265 C 296.869 -1.69022 -1.10066 0
M  V30 3266 C 297.182 -0.450838 -1.90333 0
M  V30 3267 O 298.388 -0.487617 -2.67085 0
M  V30 3268 C 296.844 -2.98812 -2.00598 0
M  V30 3269 C 296.452 -4.30027 -1.25621 0
M  V30 3270 C 298.196 -3.23795 -2.74513 0
M  V30 3271 C 296.103 -5.50903 -2.1508 0
M  V30 3272 H 295.033 -0.629776 -0.414606 0
M  V30 3273 H 297.684 -1.79907 -0.361348 0
M  V30 3274 H 296.066 -2.8174 -2.78278 0
M  V30 3275 H 297.24 -4.57745 -0.529739 0
M  V30 3276 H 295.555 -4.11522 -0.635496 0
M  V30 3277 H 298.152 -4.11289 -3.41681 0
M  V30 3278 H 298.495 -2.40045 -3.40123 0
M  V30 3279 H 299.028 -3.41561 -2.03914 0
M  V30 3280 H 295.767 -6.37143 -1.54041 0
M  V30 3281 H 295.287 -5.27459 -2.85565 0
M  V30 3282 H 296.966 -5.85865 -2.74538 0
M  V30 3283 N 297.098 0.621204 -1.44841 0
M  V30 3284 C 298.509 1.20298 -1.42777 0
M  V30 3285 C 298.86 1.95639 -0.148259 0
M  V30 3286 O 297.985 2.02955 0.750892 0
M  V30 3287 C 298.58 2.1882 -2.58657 0
M  V30 3288 C 297.139 2.72403 -2.59756 0
M  V30 3289 C 296.286 1.4757 -2.34773 0
M  V30 3290 H 299.237 0.411297 -1.53278 0
M  V30 3291 H 299.258 3.01607 -2.31977 0
M  V30 3292 H 298.77 1.63957 -3.51766 0
M  V30 3293 H 296.871 3.31242 -1.70615 0
M  V30 3294 H 296.984 3.17765 -3.58556 0
M  V30 3295 H 295.348 1.76051 -1.8406 0
M  V30 3296 H 296.131 0.945954 -3.3001 0
M  V30 3297 N 298.576 1.31904 0.862503 0
M  V30 3298 C 299.801 1.25135 1.65397 0
M  V30 3299 C 300.226 -0.179 1.87246 0
M  V30 3300 O 299.584 -1.1277 1.4196 0
M  V30 3301 C 299.632 2.00832 2.99498 0
M  V30 3302 O 298.736 1.35075 3.89652 0
M  V30 3303 H 298.077 0.431655 0.504549 0
M  V30 3304 H 300.607 1.74094 1.07483 0
M  V30 3305 H 300.617 2.10709 3.49379 0
M  V30 3306 H 299.292 3.04847 2.82916 0
M  V30 3307 H 297.869 1.33696 3.48109 0
M  V30 3308 N 300.054 -1.07777 1.14986 0
M  V30 3309 C 301.3 -1.80719 0.93339 0
M  V30 3310 C 301.655 -1.8484 -0.534019 0
M  V30 3311 O 300.948 -1.31795 -1.3907 0
M  V30 3312 C 301.142 -3.25495 1.47608 0
M  V30 3313 C 300.971 -3.3548 2.99472 0
M  V30 3314 C 299.741 -3.46293 3.6798 0
M  V30 3315 C 301.939 -3.26596 3.97291 0
M  V30 3316 N 299.921 -3.45136 5.07695 0
M  V30 3317 C 301.292 -3.32506 5.23297 0
M  V30 3318 C 303.347 -3.10376 3.89321 0
M  V30 3319 C 302.05 -3.23866 6.42264 0
M  V30 3320 C 304.076 -3.03069 5.07842 0
M  V30 3321 C 303.438 -3.09587 6.32721 0
M  V30 3322 H 299.537 -0.674814 0.395158 0
M  V30 3323 H 302.121 -1.28681 1.46114 0
M  V30 3324 H 300.292 -3.75963 0.975022 0
M  V30 3325 H 302.024 -3.86535 1.19887 0
M  V30 3326 H 298.779 -3.50456 3.18555 0
M  V30 3327 H 299.203 -3.48097 5.80653 0
M  V30 3328 H 303.845 -3.04194 2.93642 0
M  V30 3329 H 301.563 -3.28807 7.38181 0
M  V30 3330 H 305.149 -2.91629 5.03432 0
M  V30 3331 H 304.029 -3.0397 7.22891 0
M  V30 3332 N 301.532 -0.945985 -1.26051 0
M  V30 3333 C 302.48 -0.450259 -2.282 0
M  V30 3334 C 303.474 0.47497 -1.62605 0
M  V30 3335 O 304.68 0.352653 -1.76512 0
M  V30 3336 H 301.055 -0.127081 -0.741184 0
M  V30 3337 H 303.026 -1.32422 -2.67408 0
M  V30 3338 C 301.775 0.26467 -3.46691 0
M  V30 3339 H 301.098 -0.438123 -3.97392 0
M  V30 3340 H 302.538 0.575678 -4.20074 0
M  V30 3341 C 300.997 1.48416 -3.02447 0
M  V30 3342 O 301.527 2.58227 -3.07704 0
M  V30 3343 N 299.733 1.34243 -2.57735 0
M  V30 3344 H 299.28 0.448994 -2.53657 0
M  V30 3345 H 299.238 2.15957 -2.28495 0
M  V30 3346 N 303.011 1.40521 -0.713556 0
M  V30 3347 C 303.958 2.30723 -0.059684 0
M  V30 3348 C 304.928 1.48079 0.752448 0
M  V30 3349 O 306.113 1.76823 0.71681 0
M  V30 3350 C 303.253 3.34274 0.857594 0
M  V30 3351 C 302.366 4.31986 0.0351536 0
M  V30 3352 C 301.501 5.22605 0.951724 0
M  V30 3353 C 300.54 6.11976 0.123253 0
M  V30 3354 N 299.677 6.9502 0.99459 0
M  V30 3355 H 304.517 2.86074 -0.834596 0
M  V30 3356 H 302.054 1.40879 -0.42326 0
M  V30 3357 H 304.012 3.92879 1.40364 0
M  V30 3358 H 302.642 2.8043 1.59871 0
M  V30 3359 H 301.694 3.7518 -0.628052 0
M  V30 3360 H 303.006 4.95101 -0.606347 0
M  V30 3361 H 302.16 5.86131 1.56638 0
M  V30 3362 H 300.899 4.59759 1.62705 0
M  V30 3363 H 299.904 5.47482 -0.50435 0
M  V30 3364 H 301.129 6.76881 -0.548539 0
M  V30 3365 H 299.075 6.34764 1.6556 0
M  V30 3366 H 298.992 7.54892 0.40908 0
M  V30 3367 H 300.26 7.62997 1.59549 0
M  V30 3368 N 304.489 0.459591 1.5075 0
M  V30 3369 C 305.419 -0.330644 2.31147 0
M  V30 3370 C 306.4 -1.00087 1.37538 0
M  V30 3371 O 307.585 -1.00025 1.66459 0
M  V30 3372 C 304.715 -1.41958 3.16962 0
M  V30 3373 C 303.669 -0.871608 4.19031 0
M  V30 3374 C 302.995 -2.05797 4.9351 0
M  V30 3375 C 304.295 0.109251 5.22186 0
M  V30 3376 H 305.989 0.340336 2.97459 0
M  V30 3377 H 303.535 0.165119 1.4305 0
M  V30 3378 H 305.488 -1.9798 3.71997 0
M  V30 3379 H 304.212 -2.11917 2.48513 0
M  V30 3380 H 302.871 -0.333442 3.6508 0
M  V30 3381 H 302.519 -2.74427 4.21544 0
M  V30 3382 H 302.219 -1.6976 5.62544 0
M  V30 3383 H 303.743 -2.62331 5.51375 0
M  V30 3384 H 305.157 -0.361405 5.7216 0
M  V30 3385 H 303.554 0.383316 5.98875 0
M  V30 3386 H 304.624 1.03887 4.73641 0
M  V30 3387 N 305.967 -1.56429 0.191757 0
M  V30 3388 C 307.213 -1.97777 -0.448554 0
M  V30 3389 C 307.546 -1.07847 -1.61501 0
M  V30 3390 O 306.821 -0.129774 -1.94067 0
M  V30 3391 C 307.104 -3.48362 -0.911906 0
M  V30 3392 C 306.957 -4.4907 0.256136 0
M  V30 3393 C 308.276 -4.02561 -1.77857 0
M  V30 3394 H 305.395 -0.719071 -0.161572 0
M  V30 3395 H 308.037 -1.87896 0.282007 0
M  V30 3396 H 306.187 -3.56914 -1.53442 0
M  V30 3397 H 307.859 -4.5256 0.893733 0
M  V30 3398 H 306.102 -4.24181 0.908436 0
M  V30 3399 H 306.773 -5.51889 -0.11053 0
M  V30 3400 H 309.249 -3.96767 -1.25359 0
M  V30 3401 H 308.125 -5.08301 -2.07174 0
M  V30 3402 H 308.386 -3.47616 -2.73158 0
M  V30 3403 N 307.445 0.0818655 -1.57387 0
M  V30 3404 C 308.692 0.782914 -1.86753 0
M  V30 3405 C 309.02 1.78082 -0.782118 0
M  V30 3406 O 308.275 1.94426 0.22295 0
M  V30 3407 C 308.574 1.53513 -3.22752 0
M  V30 3408 C 308.24 0.678134 -4.45771 0
M  V30 3409 C 306.902 0.441929 -4.79166 0
M  V30 3410 C 309.254 0.0832243 -5.21134 0
M  V30 3411 C 306.582 -0.398833 -5.85343 0
M  V30 3412 C 308.934 -0.744935 -6.28199 0
M  V30 3413 C 307.598 -0.991107 -6.60101 0
M  V30 3414 H 306.868 0.286489 -0.683378 0
M  V30 3415 H 309.515 0.0439808 -1.91449 0
M  V30 3416 H 307.82 2.34599 -3.138 0
M  V30 3417 H 309.517 2.08218 -3.42705 0
M  V30 3418 H 306.107 0.872357 -4.19628 0
M  V30 3419 H 310.291 0.252847 -4.95655 0
M  V30 3420 H 305.547 -0.598405 -6.08465 0
M  V30 3421 H 309.721 -1.21271 -6.8576 0
M  V30 3422 H 307.348 -1.64437 -7.42202 0
M  V30 3423 N 308.923 1.53595 0.353017 0
M  V30 3424 C 310.17 1.70385 1.09431 0
M  V30 3425 C 310.498 0.462113 1.88931 0
M  V30 3426 O 309.753 -0.556074 1.87633 0
M  V30 3427 C 310.052 2.91313 2.07054 0
M  V30 3428 C 309.718 4.27308 1.43939 0
M  V30 3429 C 308.38 4.64287 1.26454 0
M  V30 3430 C 310.732 5.11829 0.983883 0
M  V30 3431 C 308.06 5.83412 0.620226 0
M  V30 3432 C 310.412 6.31611 0.353516 0
M  V30 3433 C 309.076 6.67293 0.166272 0
M  V30 3434 H 308.346 0.623484 0.400436 0
M  V30 3435 H 310.993 1.87799 0.374655 0
M  V30 3436 H 309.298 2.68463 2.85368 0
M  V30 3437 H 310.995 3.01497 2.64387 0
M  V30 3438 H 307.585 3.98198 1.58543 0
M  V30 3439 H 311.769 4.838 1.10685 0
M  V30 3440 H 307.025 6.09639 0.463681 0
M  V30 3441 H 311.199 6.964 -0.00757555 0
M  V30 3442 H 308.826 7.59461 -0.335047 0
M  V30 3443 N 310.401 -0.613514 1.45168 0
M  V30 3444 C 311.311 -1.75296 1.55912 0
M  V30 3445 C 312.327 -1.68244 0.443856 0
M  V30 3446 O 313.503 -1.88706 0.70371 0
M  V30 3447 C 310.568 -3.1174 1.5172 0
M  V30 3448 C 309.629 -3.30291 2.74238 0
M  V30 3449 C 308.862 -4.60226 2.70236 0
M  V30 3450 O 309.085 -5.42168 1.77229 0
M  V30 3451 O 308.019 -4.81361 3.61352 0
M  V30 3452 H 311.845 -1.69183 2.52212 0
M  V30 3453 H 309.43 -0.776886 1.27612 0
M  V30 3454 H 311.312 -3.93044 1.51968 0
M  V30 3455 H 309.987 -3.18357 0.585697 0
M  V30 3456 H 308.894 -2.48598 2.79553 0
M  V30 3457 H 310.227 -3.28547 3.66494 0
M  V30 3458 N 311.879 -1.3236 -0.855495 0
M  V30 3459 C 313.125 -1.23054 -1.612 0
M  V30 3460 C 313.458 0.207404 -1.93089 0
M  V30 3461 O 312.733 1.14432 -1.57275 0
M  V30 3462 C 313.016 -2.08937 -2.93287 0
M  V30 3463 C 312.869 -3.61105 -2.68185 0
M  V30 3464 C 314.188 -1.94986 -3.94549 0
M  V30 3465 H 311.307 -0.448364 -0.584926 0
M  V30 3466 H 313.949 -1.62297 -0.987917 0
M  V30 3467 H 312.099 -1.75599 -3.46551 0
M  V30 3468 H 313.771 -4.04652 -2.21483 0
M  V30 3469 H 312.014 -3.83813 -2.02164 0
M  V30 3470 H 312.685 -4.16522 -3.62234 0
M  V30 3471 H 315.161 -2.24189 -3.5054 0
M  V30 3472 H 314.037 -2.57356 -4.84829 0
M  V30 3473 H 314.298 -0.917263 -4.3248 0
M  V30 3474 N 313.357 1.07166 -1.15556 0
M  V30 3475 C 314.582 1.84053 -0.955988 0
M  V30 3476 C 315.007 1.81586 0.490739 0
M  V30 3477 O 314.365 1.21018 1.34997 0
M  V30 3478 C 314.413 3.28957 -1.47714 0
M  V30 3479 O 313.517 4.06795 -0.677593 0
M  V30 3480 H 312.858 0.569842 -0.340847 0
M  V30 3481 H 315.388 1.35178 -1.53584 0
M  V30 3482 H 315.398 3.79788 -1.4908 0
M  V30 3483 H 314.073 3.30068 -2.53037 0
M  V30 3484 H 312.65 3.6561 -0.733721 0
M  V30 3485 N 314.835 0.952656 1.25548 0
M  V30 3486 C 316.246 0.647392 1.75116 0
M  V30 3487 C 316.597 -0.837274 1.77438 0
M  V30 3488 O 315.722 -1.65525 1.39393 0
M  V30 3489 C 316.317 1.16845 3.18014 0
M  V30 3490 C 314.876 0.913382 3.6515 0
M  V30 3491 C 314.023 1.31265 2.44264 0
M  V30 3492 H 316.974 1.12968 1.11462 0
M  V30 3493 H 316.995 0.527606 3.76824 0
M  V30 3494 H 316.507 2.24902 3.16292 0
M  V30 3495 H 314.608 -0.152316 3.72289 0
M  V30 3496 H 314.721 1.54845 4.53387 0
M  V30 3497 H 313.085 0.731028 2.43984 0
M  V30 3498 H 313.868 2.40239 2.45234 0
M  V30 3499 N 316.313 -1.40141 0.720998 0
M  V30 3500 C 317.559 -2.01084 0.263231 0
M  V30 3501 C 317.892 -1.57052 -1.14229 0
M  V30 3502 O 317.167 -0.793027 -1.77599 0
M  V30 3503 C 317.45 -3.58401 0.349344 0
M  V30 3504 C 317.303 -4.12491 1.79363 0
M  V30 3505 C 318.622 -4.39231 -0.276351 0
M  V30 3506 H 315.741 -0.730572 0.0971228 0
M  V30 3507 H 318.383 -1.66543 0.914518 0
M  V30 3508 H 316.533 -3.87958 -0.205165 0
M  V30 3509 H 318.205 -3.93711 2.40394 0
M  V30 3510 H 316.448 -3.66576 2.31958 0
M  V30 3511 H 317.119 -5.21646 1.80524 0
M  V30 3512 H 319.595 -4.15637 0.196184 0
M  V30 3513 H 318.471 -5.48586 -0.185681 0
M  V30 3514 H 318.732 -4.20643 -1.36059 0
M  V30 3515 N 317.792 -0.46758 -1.50504 0
M  V30 3516 C 319.017 0.0886943 -2.0721 0
M  V30 3517 C 319.442 1.33057 -1.32956 0
M  V30 3518 O 318.8 1.77354 -0.376197 0
M  V30 3519 C 318.848 0.359202 -3.58806 0
M  V30 3520 O 317.952 1.44034 -3.8643 0
M  V30 3521 H 317.293 -0.0114349 -0.663902 0
M  V30 3522 H 319.823 -0.657613 -1.93744 0
M  V30 3523 H 319.833 0.600742 -4.03553 0
M  V30 3524 H 318.508 -0.548311 -4.1227 0
M  V30 3525 H 317.085 1.18638 -3.53524 0
M  V30 3526 N 319.27 1.56325 -0.20005 0
M  V30 3527 C 320.517 1.97719 0.437411 0
M  V30 3528 C 320.845 1.08709 1.61284 0
M  V30 3529 O 320.1 0.127261 1.95286 0
M  V30 3530 C 320.399 3.4495 0.935103 0
M  V30 3531 C 320.065 4.5072 -0.12749 0
M  V30 3532 C 318.727 4.79368 -0.419451 0
M  V30 3533 C 321.079 5.14268 -0.847231 0
M  V30 3534 C 318.407 5.68854 -1.43604 0
M  V30 3535 C 320.759 6.04852 -1.85301 0
M  V30 3536 C 319.423 6.31855 -2.15211 0
M  V30 3537 H 318.693 0.723507 0.16006 0
M  V30 3538 H 321.34 1.89166 -0.298056 0
M  V30 3539 H 319.645 3.50599 1.74894 0
M  V30 3540 H 321.342 3.74337 1.43781 0
M  V30 3541 H 317.932 4.28458 0.11023 0
M  V30 3542 H 322.116 4.92222 -0.634901 0
M  V30 3543 H 317.372 5.88047 -1.67364 0
M  V30 3544 H 321.546 6.53152 -2.41591 0
M  V30 3545 H 319.173 7.00994 -2.94129 0
M  V30 3546 N 320.748 -0.0735177 1.57428 0
M  V30 3547 C 321.698 -1.09442 2.00016 0
M  V30 3548 C 322.682 -1.34575 0.881947 0
M  V30 3549 O 323.874 -1.34905 1.14585 0
M  V30 3550 C 321.003 -2.40865 2.4462 0
M  V30 3551 C 320.089 -2.19014 3.63172 0
M  V30 3552 N 320.48 -1.67087 4.77405 0
M  V30 3553 C 318.778 -2.49494 3.69688 0
M  V30 3554 C 319.479 -1.6001 5.5926 0
M  V30 3555 N 318.455 -2.05999 5.03056 0
M  V30 3556 H 322.257 -0.686227 2.85776 0
M  V30 3557 H 319.771 -0.280617 1.59957 0
M  V30 3558 H 321.768 -3.14763 2.73368 0
M  V30 3559 H 320.428 -2.82403 1.60246 0
M  V30 3560 H 321.439 -1.35975 4.99731 0
M  V30 3561 H 318.116 -2.94409 2.96023 0
M  V30 3562 H 319.506 -1.2073 6.60964 0
M  V30 3563 N 322.226 -1.5378 -0.344866 0
M  V30 3564 C 323.158 -1.77988 -1.44406 0
M  V30 3565 C 324.171 -0.661138 -1.48771 0
M  V30 3566 O 325.36 -0.937842 -1.51877 0
M  V30 3567 C 322.46 -1.86345 -2.8307 0
M  V30 3568 C 321.633 -3.16256 -3.0216 0
M  V30 3569 C 320.692 -3.15588 -4.21059 0
M  V30 3570 O 319.718 -3.89314 -4.15239 0
M  V30 3571 N 320.92 -2.37864 -5.29529 0
M  V30 3572 H 323.685 -2.72839 -1.24012 0
M  V30 3573 H 321.246 -1.52814 -0.534737 0
M  V30 3574 H 323.238 -1.83351 -3.60783 0
M  V30 3575 H 321.808 -0.986858 -2.96614 0
M  V30 3576 H 321.028 -3.32385 -2.11929 0
M  V30 3577 H 322.316 -4.0207 -3.11797 0
M  V30 3578 H 321.714 -1.77514 -5.37127 0
M  V30 3579 H 320.271 -2.40668 -6.05741 0
M  V30 3580 N 323.704 0.605807 -1.45491 0
M  V30 3581 C 324.95 1.36679 -1.49823 0
M  V30 3582 C 325.283 1.93693 -0.140175 0
M  V30 3583 O 324.558 1.75158 0.845581 0
M  V30 3584 C 324.841 2.51337 -2.57879 0
M  V30 3585 C 324.694 1.99508 -4.03134 0
M  V30 3586 C 326.013 3.53463 -2.62205 0
M  V30 3587 H 323.132 0.495617 -0.545466 0
M  V30 3588 H 325.774 0.682732 -1.7731 0
M  V30 3589 H 323.924 3.09691 -2.34571 0
M  V30 3590 H 325.596 1.45789 -4.37656 0
M  V30 3591 H 323.839 1.30496 -4.13707 0
M  V30 3592 H 324.51 2.82169 -4.74431 0
M  V30 3593 H 326.986 3.04953 -2.83095 0
M  V30 3594 H 325.862 4.31178 -3.39672 0
M  V30 3595 H 326.123 4.09197 -1.67363 0
M  V30 3596 N 325.182 1.32811 0.848464 0
M  V30 3597 C 326.407 1.26882 1.6406 0
M  V30 3598 C 326.832 -0.15913 1.87426 0
M  V30 3599 O 326.19 -1.11258 1.43148 0
M  V30 3600 C 326.238 2.03997 2.97351 0
M  V30 3601 O 325.342 1.39201 3.88197 0
M  V30 3602 H 324.683 0.436982 0.499943 0
M  V30 3603 H 327.213 1.75224 1.0563 0
M  V30 3604 H 327.223 2.14403 3.47124 0
M  V30 3605 H 325.898 3.0783 2.79666 0
M  V30 3606 H 324.475 1.37381 3.46671 0
M  V30 3607 N 326.66 -1.06551 1.16123 0
M  V30 3608 C 327.57 -2.17484 0.879662 0
M  V30 3609 C 328.586 -1.73377 -0.147104 0
M  V30 3610 O 329.762 -2.01379 0.0289128 0
M  V30 3611 C 326.827 -3.44591 0.381829 0
M  V30 3612 C 325.888 -4.0322 1.4735 0
M  V30 3613 C 325.121 -5.24261 0.999324 0
M  V30 3614 O 325.344 -5.70198 -0.151957 0
M  V30 3615 O 324.278 -5.74775 1.78653 0
M  V30 3616 H 328.104 -2.44075 1.80724 0
M  V30 3617 H 325.689 -1.16042 0.940992 0
M  V30 3618 H 327.571 -4.21254 0.111053 0
M  V30 3619 H 326.246 -3.19532 -0.51777 0
M  V30 3620 H 325.153 -3.2806 1.79798 0
M  V30 3621 H 326.486 -4.32568 2.34831 0
M  V30 3622 N 328.138 -0.959301 -1.25041 0
M  V30 3623 C 329.384 -0.617525 -1.9317 0
M  V30 3624 C 329.717 0.843981 -1.74902 0
M  V30 3625 O 328.992 1.60615 -1.09696 0
M  V30 3626 C 329.275 -0.982736 -3.46431 0
M  V30 3627 C 329.128 -2.50032 -3.73904 0
M  V30 3628 C 330.447 -0.511176 -4.37121 0
M  V30 3629 H 327.566 -0.22582 -0.701552 0
M  V30 3630 H 330.208 -1.19679 -1.4757 0
M  V30 3631 H 328.358 -0.489806 -3.854 0
M  V30 3632 H 330.03 -3.06737 -3.44544 0
M  V30 3633 H 328.273 -2.93598 -3.19348 0
M  V30 3634 H 328.944 -2.70635 -4.81103 0
M  V30 3635 H 331.42 -0.934075 -4.0548 0
M  V30 3636 H 330.296 -0.795361 -5.43107 0
M  V30 3637 H 330.557 0.588834 -4.38161 0
M  V30 3638 N 329.616 1.39756 -0.72842 0
M  V30 3639 C 330.546 2.33289 -0.0991354 0
M  V30 3640 C 331.527 1.53568 0.731489 0
M  V30 3641 O 332.712 1.81987 0.677807 0
M  V30 3642 C 329.842 3.3763 0.813834 0
M  V30 3643 C 328.796 4.2791 0.0878663 0
M  V30 3644 C 328.122 5.22894 1.11741 0
M  V30 3645 C 329.422 5.11314 -1.06563 0
M  V30 3646 H 331.116 2.86163 -0.880408 0
M  V30 3647 H 328.662 1.37591 -0.424819 0
M  V30 3648 H 330.615 4.0201 1.26355 0
M  V30 3649 H 329.339 2.83181 1.62715 0
M  V30 3650 H 327.998 3.65 -0.342159 0
M  V30 3651 H 327.646 4.64744 1.92412 0
M  V30 3652 H 327.346 5.84143 0.636477 0
M  V30 3653 H 328.87 5.90151 1.56697 0
M  V30 3654 H 330.284 5.69076 -0.694671 0
M  V30 3655 H 328.681 5.81671 -1.47577 0
M  V30 3656 H 329.751 4.46534 -1.89038 0
M  V30 3657 N 331.094 0.475555 1.50254 0
M  V30 3658 C 332.319 -0.0777042 2.07254 0
M  V30 3659 C 332.744 -1.3235 1.3366 0
M  V30 3660 O 332.102 -1.77152 0.385597 0
M  V30 3661 C 332.15 -0.340169 3.58992 0
M  V30 3662 O 331.254 -1.41982 3.87188 0
M  V30 3663 H 330.595 0.0149556 0.663832 0
M  V30 3664 H 333.125 0.667878 1.93392 0
M  V30 3665 H 333.135 -0.579332 4.03866 0
M  V30 3666 H 331.81 0.570167 4.11973 0
M  V30 3667 H 330.387 -1.16762 3.54148 0
M  V30 3668 N 332.573 -1.56217 0.208337 0
M  V30 3669 C 333.483 -2.23316 -0.718836 0
M  V30 3670 C 334.499 -1.23648 -1.22422 0
M  V30 3671 O 335.675 -1.56423 -1.26861 0
M  V30 3672 C 332.74 -2.88968 -1.91568 0
M  V30 3673 C 331.801 -4.03943 -1.45357 0
M  V30 3674 C 331.034 -4.66455 -2.59337 0
M  V30 3675 O 331.257 -4.27919 -3.77149 0
M  V30 3676 O 330.191 -5.55686 -2.31293 0
M  V30 3677 H 334.017 -3.03182 -0.177315 0
M  V30 3678 H 331.602 -1.49384 -0.0215402 0
M  V30 3679 H 333.484 -3.30455 -2.61491 0
M  V30 3680 H 332.159 -2.12071 -2.44556 0
M  V30 3681 H 331.066 -3.67052 -0.722746 0
M  V30 3682 H 332.399 -4.82543 -0.970219 0
M  V30 3683 N 334.051 0.0651679 -1.57465 0
M  V30 3684 C 334.961 1.09448 -2.07505 0
M  V30 3685 C 335.977 1.41974 -1.00595 0
M  V30 3686 O 337.153 1.52018 -1.32107 0
M  V30 3687 C 334.218 2.38689 -2.51453 0
M  V30 3688 C 333.279 2.13073 -3.72691 0
M  V30 3689 C 332.512 3.36152 -4.14533 0
M  V30 3690 O 332.735 4.45517 -3.56189 0
M  V30 3691 O 331.669 3.23974 -5.07272 0
M  V30 3692 H 335.495 0.69935 -2.95538 0
M  V30 3693 H 333.08 0.279752 -1.46757 0
M  V30 3694 H 334.962 3.14736 -2.80212 0
M  V30 3695 H 333.637 2.77568 -1.66546 0
M  V30 3696 H 332.544 1.34709 -3.49005 0
M  V30 3697 H 333.877 1.79071 -4.5847 0
M  V30 3698 N 335.529 1.53961 0.336706 0
M  V30 3699 C 336.476 1.82428 1.41381 0
M  V30 3700 C 337.446 0.670444 1.51968 0
M  V30 3701 O 338.631 0.915565 1.67398 0
M  V30 3702 C 335.771 2.04564 2.77934 0
M  V30 3703 C 334.884 3.32267 2.76084 0
M  V30 3704 C 334.019 3.44434 4.04399 0
M  V30 3705 C 333.058 4.66061 3.96804 0
M  V30 3706 N 332.195 4.75224 5.16823 0
M  V30 3707 H 337.035 2.74324 1.16405 0
M  V30 3708 H 334.572 1.35869 0.563752 0
M  V30 3709 H 336.53 2.15388 3.57301 0
M  V30 3710 H 335.16 1.15974 3.01247 0
M  V30 3711 H 334.212 3.3025 1.88784 0
M  V30 3712 H 335.524 4.21733 2.66351 0
M  V30 3713 H 334.678 3.54728 4.92192 0
M  V30 3714 H 333.417 2.53037 4.16921 0
M  V30 3715 H 332.422 4.55838 3.07396 0
M  V30 3716 H 333.647 5.58829 3.85858 0
M  V30 3717 H 331.593 3.86739 5.29876 0
M  V30 3718 H 331.51 5.58636 5.09374 0
M  V30 3719 H 332.778 4.89835 6.06367 0
M  V30 3720 N 337.007 -0.598083 1.45811 0
M  V30 3721 C 338.232 -1.3881 1.54099 0
M  V30 3722 C 338.657 -1.8726 0.177578 0
M  V30 3723 O 338.015 -1.6069 -0.839541 0
M  V30 3724 C 338.063 -2.56217 2.53743 0
M  V30 3725 O 337.167 -3.5716 2.06182 0
M  V30 3726 H 336.508 -0.414024 0.519115 0
M  V30 3727 H 339.038 -0.726971 1.91249 0
M  V30 3728 H 339.048 -3.03337 2.72856 0
M  V30 3729 H 337.723 -2.20303 3.5276 0
M  V30 3730 H 336.3 -3.16624 1.96987 0
M  V30 3731 N 338.485 -1.33259 -0.841409 0
M  V30 3732 C 339.901 -1.12538 -1.13169 0
M  V30 3733 C 340.101 0.0854037 -2.01319 0
M  V30 3734 O 339.157 0.766417 -2.40587 0
M  V30 3735 C 340.47 -2.41156 -1.79623 0
M  V30 3736 C 342.018 -2.47038 -1.922 0
M  V30 3737 C 342.493 -3.7561 -2.6207 0
M  V30 3738 N 343.984 -3.76667 -2.69585 0
M  V30 3739 C 344.719 -4.72861 -3.2433 0
M  V30 3740 N 344.215 -5.79428 -3.79783 0
M  V30 3741 N 346.008 -4.6034 -3.22558 0
M  V30 3742 H 338.159 -2.10868 -0.254676 0
M  V30 3743 H 340.422 -0.931615 -0.175493 0
M  V30 3744 H 340.128 -3.29747 -1.22311 0
M  V30 3745 H 340.002 -2.53114 -2.79666 0
M  V30 3746 H 342.389 -1.58898 -2.48667 0
M  V30 3747 H 342.47 -2.39022 -0.911148 0
M  V30 3748 H 342.114 -4.64131 -2.06263 0
M  V30 3749 H 342.044 -3.80902 -3.63622 0
M  V30 3750 H 344.535 -2.99648 -2.30259 0
M  V30 3751 H 344.848 -6.48867 -4.19752 0
M  V30 3752 H 343.193 -5.83166 -3.78078 0
M  V30 3753 H 346.384 -3.76244 -2.78492 0
M  V30 3754 H 346.557 -5.35478 -3.64921 0
M  V30 3755 N 339.963 1.05934 -1.16686 0
M  V30 3756 C 340.893 2.1546 -0.899949 0
M  V30 3757 C 341.874 1.69391 0.155154 0
M  V30 3758 O 343.059 1.94199 0.00648693 0
M  V30 3759 C 340.189 3.44939 -0.404241 0
M  V30 3760 C 339.143 4.04536 -1.39767 0
M  V30 3761 C 338.469 5.29268 -0.760216 0
M  V30 3762 C 339.769 4.42893 -2.76845 0
M  V30 3763 H 341.463 2.38046 -1.81588 0
M  V30 3764 H 339.009 1.14404 -0.874514 0
M  V30 3765 H 340.962 4.20901 -0.204971 0
M  V30 3766 H 339.686 3.21983 0.547206 0
M  V30 3767 H 338.345 3.30635 -1.58355 0
M  V30 3768 H 337.993 5.02611 0.197831 0
M  V30 3769 H 337.693 5.70101 -1.42332 0
M  V30 3770 H 339.217 6.07924 -0.57105 0
M  V30 3771 H 340.631 5.09921 -2.62019 0
M  V30 3772 H 339.028 4.94721 -3.39663 0
M  V30 3773 H 340.098 3.53584 -3.31823 0
M  V30 3774 N 341.441 0.965919 1.2453 0
M  V30 3775 C 342.666 0.643971 1.97149 0
M  V30 3776 C 343.091 -0.779487 1.71189 0
M  V30 3777 O 342.449 -1.5288 0.974553 0
M  V30 3778 C 342.497 0.922557 3.48599 0
M  V30 3779 O 341.601 0.00707672 4.12399 0
M  V30 3780 H 340.942 0.243647 0.617683 0
M  V30 3781 H 343.472 1.29558 1.58353 0
M  V30 3782 H 343.482 0.853373 3.98976 0
M  V30 3783 H 342.157 1.95996 3.66822 0
M  V30 3784 H 340.734 0.12943 3.72675 0
M  V30 3785 N 342.919 -1.39368 0.735821 0
M  V30 3786 C 344.168 -1.99733 0.281004 0
M  V30 3787 C 344.481 -1.59055 -1.13846 0
M  V30 3788 O 345.687 -2.12262 -1.69284 0
M  V30 3789 C 344.143 -3.57057 0.451462 0
M  V30 3790 C 343.751 -4.06697 1.87886 0
M  V30 3791 C 345.495 -4.2446 0.0584616 0
M  V30 3792 C 343.402 -5.56598 1.99883 0
M  V30 3793 H 342.332 -0.747163 0.101311 0
M  V30 3794 H 344.983 -1.59357 0.909819 0
M  V30 3795 H 343.365 -3.95234 -0.246263 0
M  V30 3796 H 344.539 -3.79853 2.60861 0
M  V30 3797 H 342.854 -3.5196 2.22515 0
M  V30 3798 H 345.451 -5.34549 0.127099 0
M  V30 3799 H 345.794 -4.04444 -0.986433 0
M  V30 3800 H 346.327 -3.9146 0.707374 0
M  V30 3801 H 343.066 -5.81494 3.02564 0
M  V30 3802 H 342.586 -5.85242 1.31346 0
M  V30 3803 H 344.265 -6.22022 1.78039 0
M  V30 3804 N 344.397 -0.483516 -1.5 0
M  V30 3805 C 345.622 0.0667119 -2.07293 0
M  V30 3806 C 346.047 1.3164 -1.3436 0
M  V30 3807 O 345.405 1.76945 -0.394987 0
M  V30 3808 C 345.453 0.321126 -3.59167 0
M  V30 3809 O 344.557 1.39927 -3.87936 0
M  V30 3810 H 343.898 -0.0184758 -0.663743 0
M  V30 3811 H 346.428 -0.678125 -1.93035 0
M  V30 3812 H 346.438 0.557906 -4.04168 0
M  V30 3813 H 345.113 -0.592007 -4.11665 0
M  V30 3814 H 343.69 1.14882 -3.54763 0
M  V30 3815 N 345.875 1.56104 -0.216619 0
M  V30 3816 C 347.123 1.97781 0.415593 0
M  V30 3817 C 347.444 1.10536 1.60645 0
M  V30 3818 O 346.714 0.181303 1.95059 0
M  V30 3819 H 345.294 0.730415 0.156534 0
M  V30 3820 H 347.956 1.92445 -0.308366 0
M  V30 3821 H 347.052 3.03072 0.74525 0
M  V30 3822 N 347.353 -0.0568162 1.57498 0
M  V30 3823 C 348.599 -0.748893 1.89111 0
M  V30 3824 C 348.954 -1.74422 0.81208 0
M  V30 3825 O 348.247 -1.90731 -0.182247 0
M  V30 3826 C 348.441 -1.48359 3.25153 0
M  V30 3827 C 348.27 -0.560924 4.46188 0
M  V30 3828 C 347.04 -0.192264 5.04934 0
M  V30 3829 C 349.238 0.148824 5.14085 0
M  V30 3830 N 347.22 0.734555 6.0949 0
M  V30 3831 C 348.591 0.932286 6.12951 0
M  V30 3832 C 350.646 0.218713 4.97419 0
M  V30 3833 C 349.349 1.77917 6.96949 0
M  V30 3834 C 351.375 1.05262 5.81957 0
M  V30 3835 C 350.737 1.82409 6.80372 0
M  V30 3836 H 346.836 -0.249002 0.741298 0
M  V30 3837 H 349.42 -0.00984926 1.94698 0
M  V30 3838 H 347.591 -2.19326 3.20547 0
M  V30 3839 H 349.323 -2.12586 3.44368 0
M  V30 3840 H 346.078 -0.548421 4.70414 0
M  V30 3841 H 346.502 1.19165 6.6643 0
M  V30 3842 H 351.144 -0.363407 4.21235 0
M  V30 3843 H 348.862 2.3722 7.72497 0
M  V30 3844 H 352.448 1.10987 5.71116 0
M  V30 3845 H 351.328 2.45895 7.44651 0
M  V30 3846 N 348.832 -1.54138 -0.328536 0
M  V30 3847 C 350.079 -1.72105 -1.06706 0
M  V30 3848 C 350.407 -0.492111 -1.88171 0
M  V30 3849 O 349.662 0.526153 -1.88494 0
M  V30 3850 C 349.961 -2.9457 -2.02393 0
M  V30 3851 C 349.627 -4.29544 -1.37122 0
M  V30 3852 C 348.289 -4.6624 -1.19052 0
M  V30 3853 C 350.641 -5.1333 -0.902331 0
M  V30 3854 C 347.969 -5.84325 -0.527331 0
M  V30 3855 C 350.321 -6.32094 -0.252988 0
M  V30 3856 C 348.985 -6.67473 -0.0600901 0
M  V30 3857 H 348.255 -0.629775 -0.390466 0
M  V30 3858 H 350.902 -1.88372 -0.34473 0
M  V30 3859 H 349.207 -2.72969 -2.81061 0
M  V30 3860 H 350.904 -3.05665 -2.59557 0
M  V30 3861 H 347.494 -4.0067 -1.52188 0
M  V30 3862 H 351.678 -4.855 -1.02974 0
M  V30 3863 H 346.934 -6.103 -0.366634 0
M  V30 3864 H 351.108 -6.96299 0.118366 0
M  V30 3865 H 348.735 -7.58832 0.455828 0
M  V30 3866 N 350.31 0.590341 -1.46126 0
M  V30 3867 C 351.26 1.69466 -1.5253 0
M  V30 3868 C 352.244 1.56179 -0.386917 0
M  V30 3869 O 353.436 1.65223 -0.634858 0
M  V30 3870 C 350.565 3.08245 -1.5113 0
M  V30 3871 C 349.651 3.26856 -2.70233 0
M  V30 3872 N 350.042 3.15657 -3.95214 0
M  V30 3873 C 348.34 3.57775 -2.66296 0
M  V30 3874 C 349.041 3.36066 -4.74799 0
M  V30 3875 N 348.017 3.60865 -4.06543 0
M  V30 3876 H 351.819 1.59326 -2.46966 0
M  V30 3877 H 349.333 0.79414 -1.41659 0
M  V30 3878 H 351.33 3.87492 -1.53804 0
M  V30 3879 H 349.99 3.19521 -0.577636 0
M  V30 3880 H 351.001 2.93686 -4.26578 0
M  V30 3881 H 347.678 3.75782 -1.81918 0
M  V30 3882 H 349.068 3.32655 -5.83772 0
M  V30 3883 N 351.788 1.33704 0.83433 0
M  V30 3884 C 353.036 1.25169 1.58673 0
M  V30 3885 C 353.357 -0.18127 1.94156 0
M  V30 3886 O 352.627 -1.11113 1.6134 0
M  V30 3887 H 351.207 0.4603 0.58833 0
M  V30 3888 H 353.869 1.67478 0.996847 0
M  V30 3889 H 352.965 1.84856 2.51465 0
M  V30 3890 N 353.266 -1.05314 1.17247 0
M  V30 3891 C 354.677 -1.59753 0.96623 0
M  V30 3892 C 355.028 -1.9005 -0.487378 0
M  V30 3893 O 354.153 -1.68126 -1.36245 0
M  V30 3894 C 354.748 -2.90249 1.74759 0
M  V30 3895 C 353.307 -3.41352 1.58606 0
M  V30 3896 C 352.454 -2.15103 1.75002 0
M  V30 3897 H 355.405 -0.881406 1.31973 0
M  V30 3898 H 355.426 -3.60097 1.22925 0
M  V30 3899 H 354.938 -2.68166 2.8055 0
M  V30 3900 H 353.039 -3.68474 0.552985 0
M  V30 3901 H 353.152 -4.16019 2.37624 0
M  V30 3902 H 351.516 -2.25804 1.17833 0
M  V30 3903 H 352.299 -1.95491 2.82202 0
M  V30 3904 N 354.744 -0.972509 -1.24016 0
M  V30 3905 C 355.969 -0.654417 -1.96805 0
M  V30 3906 C 356.394 0.770398 -1.716 0
M  V30 3907 O 355.752 1.52361 -0.982647 0
M  V30 3908 C 355.8 -0.941031 -3.48105 0
M  V30 3909 O 354.904 -0.0289472 -4.1239 0
M  V30 3910 H 354.245 -0.24692 -0.616382 0
M  V30 3911 H 356.775 -1.30396 -1.57664 0
M  V30 3912 H 356.785 -0.87452 -3.98517 0
M  V30 3913 H 355.46 -1.97939 -3.65777 0
M  V30 3914 H 354.037 -0.149192 -3.72601 0
M  V30 3915 N 356.222 1.38976 -0.743202 0
M  V30 3916 C 357.152 2.33171 -0.123873 0
M  V30 3917 C 358.133 1.54336 0.71516 0
M  V30 3918 O 359.318 1.82696 0.658467 0
M  V30 3919 C 356.448 3.38474 0.777978 0
M  V30 3920 C 355.402 4.27979 0.0424758 0
M  V30 3921 C 354.728 5.2405 1.06189 0
M  V30 3922 C 356.028 5.10155 -1.1198 0
M  V30 3923 H 357.722 2.85213 -0.910709 0
M  V30 3924 H 355.268 1.37133 -0.439388 0
M  V30 3925 H 357.221 4.03328 1.22084 0
M  V30 3926 H 355.945 2.84891 1.59702 0
M  V30 3927 H 354.604 3.64616 -0.380853 0
M  V30 3928 H 354.252 4.66758 1.87472 0
M  V30 3929 H 353.952 5.84785 0.574485 0
M  V30 3930 H 355.476 5.9178 1.50428 0
M  V30 3931 H 356.89 5.68307 -0.75499 0
M  V30 3932 H 355.287 5.80073 -1.53738 0
M  V30 3933 H 356.357 4.44504 -1.93764 0
M  V30 3934 N 357.7 0.491464 1.49741 0
M  V30 3935 C 358.928 -0.0535151 2.06831 0
M  V30 3936 C 359.343 -1.31683 1.35296 0
M  V30 3937 O 358.7 -1.77402 0.42836 0
M  V30 3938 C 358.751 -0.320835 3.60073 0
M  V30 3939 O 358.472 0.892394 4.28915 0
M  V30 3940 C 359.973 -0.910519 4.33848 0
M  V30 3941 H 357.193 0.0161909 0.670805 0
M  V30 3942 H 359.737 0.68609 1.92647 0
M  V30 3943 H 357.892 -1.0104 3.73991 0
M  V30 3944 H 358.306 0.649401 5.20464 0
M  V30 3945 H 359.78 -1.04721 5.41976 0
M  V30 3946 H 360.257 -1.90589 3.95692 0
M  V30 3947 H 360.863 -0.258712 4.24512 0
M  V30 3948 N 359.178 -1.55987 0.224894 0
M  V30 3949 C 360.594 -1.59066 -0.130426 0
M  V30 3950 C 360.794 -1.24176 -1.5869 0
M  V30 3951 O 359.85 -0.978592 -2.32766 0
M  V30 3952 C 361.163 -3.00042 0.198883 0
M  V30 3953 C 362.711 -3.1268 0.141391 0
M  V30 3954 C 363.186 -4.55839 0.444422 0
M  V30 3955 N 364.677 -4.6152 0.394115 0
M  V30 3956 C 365.412 -5.70231 0.602038 0
M  V30 3957 N 364.908 -6.87291 0.871914 0
M  V30 3958 N 366.701 -5.59555 0.534245 0
M  V30 3959 H 358.852 -1.76941 1.17497 0
M  V30 3960 H 361.115 -0.822604 0.471197 0
M  V30 3961 H 360.821 -3.30234 1.2099 0
M  V30 3962 H 360.695 -3.74075 -0.484535 0
M  V30 3963 H 363.082 -2.82283 -0.860265 0
M  V30 3964 H 363.163 -2.40969 0.858335 0
M  V30 3965 H 362.807 -4.86954 1.44353 0
M  V30 3966 H 362.737 -5.2578 -0.293752 0
M  V30 3967 H 365.228 -3.77405 0.193356 0
M  V30 3968 H 365.541 -7.66058 1.01858 0
M  V30 3969 H 363.886 -6.89028 0.909145 0
M  V30 3970 H 367.077 -4.6698 0.323612 0
M  V30 3971 H 367.25 -6.44211 0.699693 0
M  V30 3972 N 360.656 0.0484629 -1.57525 0
M  V30 3973 C 362.067 0.597486 -1.76881 0
M  V30 3974 C 362.418 1.76664 -0.853475 0
M  V30 3975 O 361.543 2.16357 -0.0433656 0
M  V30 3976 C 362.138 1.09066 -3.20765 0
M  V30 3977 C 360.697 1.58535 -3.41385 0
M  V30 3978 C 359.844 0.514868 -2.72478 0
M  V30 3979 H 362.795 -0.177758 -1.57701 0
M  V30 3980 H 362.816 1.95875 -3.2621 0
M  V30 3981 H 362.328 0.239521 -3.8736 0
M  V30 3982 H 360.429 2.45898 -2.79937 0
M  V30 3983 H 360.542 1.64622 -4.49929 0
M  V30 3984 H 358.906 0.965407 -2.35695 0
M  V30 3985 H 359.689 -0.32648 -3.41744 0
M  V30 3986 N 362.134 1.5431 0.320358 0
M  V30 3987 C 363.545 1.63872 0.894594 0
M  V30 3988 C 363.896 0.534847 1.88769 0
M  V30 3989 O 363.021 -0.331732 2.13842 0
M  V30 3990 C 363.616 2.97049 1.62934 0
M  V30 3991 C 362.175 3.08796 2.15226 0
M  V30 3992 C 361.322 2.59456 0.978671 0
M  V30 3993 H 364.273 1.58398 0.0978544 0
M  V30 3994 H 364.294 2.87388 2.49376 0
M  V30 3995 H 363.806 3.7737 0.906302 0
M  V30 3996 H 361.907 2.33156 2.90636 0
M  V30 3997 H 362.02 4.14649 2.40006 0
M  V30 3998 H 360.384 2.1543 1.35875 0
M  V30 3999 H 361.167 3.42237 0.269895 0
M  V30 4000 N 363.613 -0.582584 1.46437 0
M  V30 4001 C 364.561 -1.71272 1.5738 0
M  V30 4002 C 365.555 -1.63524 0.44229 0
M  V30 4003 O 366.761 -1.69016 0.619166 0
M  V30 4004 H 363.136 -0.566273 0.494813 0
M  V30 4005 H 365.107 -1.59174 2.52401 0
M  V30 4006 C 363.856 -3.09658 1.58136 0
M  V30 4007 H 363.179 -3.16291 2.44541 0
M  V30 4008 H 364.619 -3.88494 1.69847 0
M  V30 4009 C 363.078 -3.3547 0.310026 0
M  V30 4010 O 363.608 -3.97199 -0.599683 0
M  V30 4011 N 361.814 -2.89925 0.197901 0
M  V30 4012 H 361.361 -2.39873 0.93909 0
M  V30 4013 H 361.319 -3.07568 -0.65185 0
M  V30 4014 N 365.091 -1.34144 -0.827227 0
M  V30 4015 C 366.321 -1.29138 -1.61267 0
M  V30 4016 C 366.729 0.137597 -1.88699 0
M  V30 4017 O 366.072 1.09379 -1.47587 0
M  V30 4018 C 366.134 -2.0097 -2.9808 0
M  V30 4019 C 365.798 -3.50242 -2.93563 0
M  V30 4020 C 366.795 -4.4523 -2.68452 0
M  V30 4021 C 364.48 -3.92592 -3.13331 0
M  V30 4022 C 366.474 -5.80542 -2.63154 0
M  V30 4023 C 364.161 -5.28005 -3.07658 0
M  V30 4024 C 365.159 -6.21792 -2.82602 0
M  V30 4025 O 364.847 -7.54723 -2.76853 0
M  V30 4026 H 364.579 -0.445851 -0.508127 0
M  V30 4027 H 367.133 -1.77263 -1.03763 0
M  V30 4028 H 365.363 -1.47451 -3.57484 0
M  V30 4029 H 367.052 -1.89309 -3.5905 0
M  V30 4030 H 367.818 -4.13832 -2.52919 0
M  V30 4031 H 363.697 -3.19994 -3.31851 0
M  V30 4032 H 367.241 -6.53717 -2.43516 0
M  V30 4033 H 363.138 -5.59023 -3.22743 0
M  V30 4034 H 363.906 -7.64409 -2.92611 0
M  V30 4035 N 366.569 1.04691 -1.17803 0
M  V30 4036 C 367.816 1.77782 -0.969532 0
M  V30 4037 C 368.144 1.87926 0.501401 0
M  V30 4038 O 367.399 1.37918 1.38842 0
M  V30 4039 C 367.698 3.21467 -1.56186 0
M  V30 4040 C 367.364 3.3137 -3.05786 0
M  V30 4041 C 366.026 3.3378 -3.46619 0
M  V30 4042 C 368.378 3.31976 -4.01797 0
M  V30 4043 C 365.706 3.34431 -4.82051 0
M  V30 4044 C 368.058 3.34167 -5.37136 0
M  V30 4045 C 366.722 3.34866 -5.77426 0
M  V30 4046 H 365.992 0.650549 -0.354777 0
M  V30 4047 H 368.639 1.23006 -1.46772 0
M  V30 4048 H 366.944 3.79203 -0.985515 0
M  V30 4049 H 368.641 3.76652 -1.37602 0
M  V30 4050 H 365.231 3.3021 -2.73238 0
M  V30 4051 H 369.415 3.29311 -3.71306 0
M  V30 4052 H 364.671 3.33285 -5.12573 0
M  V30 4053 H 368.845 3.33585 -6.11305 0
M  V30 4054 H 366.472 3.35124 -6.82346 0
M  V30 4055 N 368.047 0.979072 1.23499 0
M  V30 4056 C 368.957 0.526431 2.28617 0
M  V30 4057 C 369.973 -0.418126 1.68901 0
M  V30 4058 O 371.149 -0.288372 1.99325 0
M  V30 4059 C 368.214 -0.165235 3.46306 0
M  V30 4060 C 367.275 0.82056 4.21385 0
M  V30 4061 C 366.508 0.161807 5.33455 0
M  V30 4062 O 366.731 -1.04742 5.60701 0
M  V30 4063 O 365.665 0.859708 5.95729 0
M  V30 4064 H 369.491 1.4006 2.69475 0
M  V30 4065 H 367.076 0.746643 1.29405 0
M  V30 4066 H 368.958 -0.553287 4.17752 0
M  V30 4067 H 367.633 -1.01419 3.07402 0
M  V30 4068 H 366.54 1.25929 3.52268 0
M  V30 4069 H 367.873 1.63828 4.64135 0
M  V30 4070 N 369.525 -1.3858 0.750561 0
M  V30 4071 C 370.936 -1.82927 0.373438 0
M  V30 4072 C 371.287 -1.62634 -1.09748 0
M  V30 4073 O 370.412 -1.12588 -1.84805 0
M  V30 4074 C 371.007 -3.32088 0.671029 0
M  V30 4075 C 369.566 -3.74795 0.34722 0
M  V30 4076 C 368.713 -2.61391 0.92575 0
M  V30 4077 H 371.664 -1.27351 0.946958 0
M  V30 4078 H 371.685 -3.80465 -0.0518269 0
M  V30 4079 H 371.197 -3.46826 1.74164 0
M  V30 4080 H 369.298 -3.65638 -0.716933 0
M  V30 4081 H 369.411 -4.71667 0.840656 0
M  V30 4082 H 367.775 -2.52265 0.351327 0
M  V30 4083 H 368.558 -2.78929 2.00133 0
M  V30 4084 N 371.003 -0.499398 -1.49478 0
M  V30 4085 C 372.414 -0.051215 -1.8663 0
M  V30 4086 C 372.765 1.36238 -1.41186 0
M  V30 4087 O 371.89 2.01502 -0.789051 0
M  V30 4088 C 372.485 -0.0861651 -3.3869 0
M  V30 4089 C 371.044 0.30667 -3.75149 0
M  V30 4090 C 370.191 -0.459397 -2.73468 0
M  V30 4091 H 373.142 -0.712264 -1.41818 0
M  V30 4092 H 373.163 0.709507 -3.73826 0
M  V30 4093 H 372.675 -1.11512 -3.71735 0
M  V30 4094 H 370.776 1.33892 -3.47712 0
M  V30 4095 H 370.889 -0.0116669 -4.79099 0
M  V30 4096 H 369.253 0.0905645 -2.54539 0
M  V30 4097 H 370.036 -1.4884 -3.09357 0
M  V30 4098 N 372.481 1.55866 -0.233164 0
M  V30 4099 C 373.73 1.97779 0.39579 0
M  V30 4100 C 374.043 1.12419 1.60066 0
M  V30 4101 O 375.249 1.44283 2.29988 0
M  V30 4102 C 373.705 3.5188 0.755556 0
M  V30 4103 C 373.313 4.45959 -0.427152 0
M  V30 4104 C 375.057 4.02479 1.34946 0
M  V30 4105 C 372.964 5.91383 -0.0443043 0
M  V30 4106 H 371.894 0.738592 0.15165 0
M  V30 4107 H 374.545 1.80486 -0.331212 0
M  V30 4108 H 372.927 3.64816 1.5403 0
M  V30 4109 H 374.101 4.44776 -1.20462 0
M  V30 4110 H 372.416 4.05765 -0.935068 0
M  V30 4111 H 375.013 5.08637 1.649 0
M  V30 4112 H 375.356 3.49014 2.26925 0
M  V30 4113 H 375.889 3.92813 0.62791 0
M  V30 4114 H 372.628 6.48857 -0.930874 0
M  V30 4115 H 372.148 5.95734 0.697238 0
M  V30 4116 H 373.827 6.45893 0.378334 0
M  V30 4117 N 373.959 -0.0401083 1.57549 0
M  V30 4118 C 375.37 -0.588097 1.77196 0
M  V30 4119 C 375.721 -1.76209 0.862832 0
M  V30 4120 O 374.846 -2.16331 0.0548389 0
M  V30 4121 C 375.441 -1.07363 3.21339 0
M  V30 4122 C 374 -1.56723 3.42221 0
M  V30 4123 C 373.147 -0.50041 2.72747 0
M  V30 4124 H 376.098 0.186119 1.57605 0
M  V30 4125 H 376.119 -1.94143 3.27244 0
M  V30 4126 H 375.631 -0.218975 3.87482 0
M  V30 4127 H 373.732 -2.4441 2.81237 0
M  V30 4128 H 373.845 -1.62234 4.50796 0
M  V30 4129 H 372.209 -0.952894 2.36203 0
M  V30 4130 H 372.992 0.344599 3.41566 0
M  V30 4131 N 375.437 -1.54477 -0.31217 0
M  V30 4132 C 376.853 -1.45442 -0.657185 0
M  V30 4133 C 377.053 -0.63653 -1.91182 0
M  V30 4134 O 376.109 -0.139815 -2.52113 0
M  V30 4135 C 377.422 -2.89287 -0.82058 0
M  V30 4136 C 378.97 -2.9926 -0.917188 0
M  V30 4137 C 379.445 -4.44279 -1.11267 0
M  V30 4138 N 380.936 -4.4794 -1.17914 0
M  V30 4139 C 381.671 -5.57318 -1.34848 0
M  V30 4140 N 381.167 -6.76642 -1.48752 0
M  V30 4141 N 382.96 -5.44986 -1.37647 0
M  V30 4142 H 375.111 -2.06129 0.512313 0
M  V30 4143 H 377.374 -0.933088 0.167485 0
M  V30 4144 H 377.08 -3.51687 0.0302604 0
M  V30 4145 H 376.954 -3.36061 -1.71298 0
M  V30 4146 H 379.341 -2.36981 -1.75852 0
M  V30 4147 H 379.422 -2.558 -0.00101257 0
M  V30 4148 H 379.066 -5.07149 -0.27614 0
M  V30 4149 H 378.996 -4.85359 -2.04289 0
M  V30 4150 H 381.487 -3.61969 -1.08567 0
M  V30 4151 H 381.8 -7.55758 -1.61397 0
M  V30 4152 H 380.145 -6.79529 -1.45828 0
M  V30 4153 H 383.336 -4.50715 -1.26388 0
M  V30 4154 H 383.509 -6.3028 -1.50501 0
M  V30 4155 N 376.915 0.57481 -1.46744 0
M  V30 4156 C 378.14 1.36341 -1.56288 0
M  V30 4157 C 378.565 1.86954 -0.207347 0
M  V30 4158 O 377.923 1.62006 0.813871 0
M  V30 4159 C 377.971 2.52147 -2.57787 0
M  V30 4160 O 377.075 3.53834 -2.11838 0
M  V30 4161 H 376.416 0.405713 -0.525636 0
M  V30 4162 H 378.946 0.696453 -1.92382 0
M  V30 4163 H 378.956 2.98958 -2.77648 0
M  V30 4164 H 377.631 2.14663 -3.5622 0
M  V30 4165 H 376.208 3.1345 -2.01999 0
M  V30 4166 N 378.394 1.34581 0.820102 0
M  V30 4167 C 379.805 1.24298 1.39309 0
M  V30 4168 C 380.156 -0.130351 1.95767 0
M  V30 4169 O 379.281 -1.0308 1.90272 0
M  V30 4170 C 379.876 2.25054 2.53251 0
M  V30 4171 C 378.435 2.18552 3.0645 0
M  V30 4172 C 377.582 2.11503 1.79337 0
M  V30 4173 H 380.533 1.45906 0.624262 0
M  V30 4174 H 380.554 1.86917 3.31425 0
M  V30 4175 H 380.066 3.24996 2.1213 0
M  V30 4176 H 378.167 1.21976 3.52069 0
M  V30 4177 H 378.28 3.0993 3.65349 0
M  V30 4178 H 376.644 1.57268 2.00347 0
M  V30 4179 H 377.427 3.13284 1.40386 0
M  V30 4180 N 379.872 -1.04064 1.18357 0
M  V30 4181 C 380.822 -2.10393 0.878561 0
M  V30 4182 C 381.806 -1.60183 -0.151713 0
M  V30 4183 O 382.998 -1.76923 0.0523303 0
M  V30 4184 C 380.127 -3.4089 0.406096 0
M  V30 4185 C 379.213 -3.97866 1.46844 0
M  V30 4186 N 379.604 -4.28657 2.68489 0
M  V30 4187 C 377.902 -4.2574 1.32896 0
M  V30 4188 C 378.603 -4.74253 3.36836 0
M  V30 4189 N 377.579 -4.75068 2.64219 0
M  V30 4190 H 381.381 -2.32076 1.80327 0
M  V30 4191 H 378.895 -1.21818 1.07397 0
M  V30 4192 H 380.892 -4.16557 0.169088 0
M  V30 4193 H 379.552 -3.20633 -0.512275 0
M  V30 4194 H 380.563 -4.18304 3.05356 0
M  V30 4195 H 377.24 -4.1481 0.473134 0
M  V30 4196 H 378.63 -5.07096 4.40798 0
M  V30 4197 N 381.35 -0.985608 -1.22978 0
M  V30 4198 C 382.599 -0.652881 -1.90841 0
M  V30 4199 C 382.912 0.817842 -1.77681 0
M  V30 4200 O 384.118 1.26185 -2.40395 0
M  V30 4201 C 382.574 -1.11717 -3.42122 0
M  V30 4202 C 382.182 -2.6126 -3.63933 0
M  V30 4203 C 383.926 -0.85843 -4.1573 0
M  V30 4204 C 381.833 -3.0133 -5.08876 0
M  V30 4205 H 380.763 -0.240491 -0.714619 0
M  V30 4206 H 383.414 -1.1942 -1.39324 0
M  V30 4207 H 381.796 -0.504027 -3.92779 0
M  V30 4208 H 382.97 -3.27858 -3.23799 0
M  V30 4209 H 381.285 -2.84937 -3.03644 0
M  V30 4210 H 383.882 -1.13359 -5.22546 0
M  V30 4211 H 384.225 0.205461 -4.15793 0
M  V30 4212 H 384.758 -1.43341 -3.71077 0
M  V30 4213 H 381.497 -4.06864 -5.13947 0
M  V30 4214 H 381.017 -2.3943 -5.49939 0
M  V30 4215 H 382.696 -2.92224 -5.77247 0
M  V30 4216 N 382.828 1.3818 -0.7579 0
M  V30 4217 C 384.239 1.82726 -0.383134 0
M  V30 4218 C 384.59 1.63214 1.08884 0
M  V30 4219 O 383.715 1.13566 1.84205 0
M  V30 4220 C 384.31 3.31728 -0.688631 0
M  V30 4221 C 382.869 3.74606 -0.367091 0
M  V30 4222 C 382.016 2.60896 -0.939599 0
M  V30 4223 H 384.967 1.26847 -0.953699 0
M  V30 4224 H 384.988 3.80487 0.0316492 0
M  V30 4225 H 384.5 3.45898 -1.76001 0
M  V30 4226 H 382.601 3.66013 0.697532 0
M  V30 4227 H 382.714 4.71215 -0.865658 0
M  V30 4228 H 381.078 2.52075 -0.3647 0
M  V30 4229 H 381.861 2.77864 -2.0161 0
M  V30 4230 N 384.306 0.507319 1.49211 0
M  V30 4231 C 385.238 -0.304532 2.27168 0
M  V30 4232 C 386.251 -0.924956 1.33972 0
M  V30 4233 O 387.44 -0.807227 1.59205 0
M  V30 4234 C 384.54 -1.44431 3.06583 0
M  V30 4235 C 383.713 -0.930026 4.27398 0
M  V30 4236 C 382.772 -1.94817 4.88807 0
M  V30 4237 O 381.798 -1.51418 5.4869 0
M  V30 4238 N 383 -3.279 4.79022 0
M  V30 4239 H 385.765 0.36395 2.97482 0
M  V30 4240 H 383.326 0.340249 1.58284 0
M  V30 4241 H 385.318 -2.12311 3.44537 0
M  V30 4242 H 383.888 -2.01684 2.38835 0
M  V30 4243 H 383.108 -0.0759244 3.94127 0
M  V30 4244 H 384.396 -0.564932 5.05654 0
M  V30 4245 H 383.794 -3.65843 4.3148 0
M  V30 4246 H 382.351 -3.91476 5.21142 0
M  V30 4247 N 385.784 -1.5574 0.241426 0
M  V30 4248 C 387.061 -1.90704 -0.434881 0
M  V30 4249 C 387.441 -1.16145 -1.76277 0
M  V30 4250 O 386.789 -0.277152 -2.26813 0
M  V30 4251 C 386.999 -3.43657 -0.608343 0
M  V30 4252 C 388.347 -4.14806 -0.906725 0
M  V30 4253 O 389.371 -3.49366 -0.694408 0
M  V30 4254 O 388.23 -5.30548 -1.31075 0
M  V30 4255 H 385.324 -0.793592 -0.23268 0
M  V30 4256 H 387.87 -1.67288 0.285086 0
M  V30 4257 H 386.642 -3.89927 0.327505 0
M  V30 4258 H 386.265 -3.72918 -1.37906 0
M  V30 4259 N 387.262 0.0317525 -1.57568 0
M  V30 4260 C 388.212 1.04101 -2.02847 0
M  V30 4261 C 389.196 1.3219 -0.917317 0
M  V30 4262 O 390.388 1.31819 -1.18121 0
M  V30 4263 C 387.517 2.34295 -2.5092 0
M  V30 4264 C 386.603 2.09308 -3.68851 0
M  V30 4265 N 386.994 1.5437 -4.81667 0
M  V30 4266 C 385.292 2.39604 -3.76172 0
M  V30 4267 C 385.993 1.45126 -5.63306 0
M  V30 4268 N 384.969 1.92589 -5.08341 0
M  V30 4269 H 388.771 0.610217 -2.87495 0
M  V30 4270 H 386.285 0.238108 -1.60645 0
M  V30 4271 H 388.282 3.07404 -2.81617 0
M  V30 4272 H 386.942 2.78055 -1.67677 0
M  V30 4273 H 387.953 1.22678 -5.03161 0
M  V30 4274 H 384.63 2.86457 -3.03724 0
M  V30 4275 H 386.02 1.03163 -6.63933 0
M  V30 4276 N 388.74 1.54641 0.303973 0
M  V30 4277 C 389.65 1.88439 1.39743 0
M  V30 4278 C 390.666 0.778239 1.55626 0
M  V30 4279 O 391.842 1.07442 1.70347 0
M  V30 4280 C 388.907 2.12212 2.74166 0
M  V30 4281 C 387.968 3.35936 2.67293 0
M  V30 4282 C 387.201 3.58566 3.95305 0
M  V30 4283 O 387.424 2.84263 4.9452 0
M  V30 4284 O 386.358 4.52078 3.97378 0
M  V30 4285 H 390.184 2.81458 1.14083 0
M  V30 4286 H 387.769 1.40793 0.499768 0
M  V30 4287 H 389.651 2.29067 3.53704 0
M  V30 4288 H 388.326 1.22379 2.99675 0
M  V30 4289 H 387.233 3.24448 1.86237 0
M  V30 4290 H 388.566 4.2589 2.46736 0
M  V30 4291 N 390.218 -0.567019 1.47046 0
M  V30 4292 C 391.467 -1.32091 1.5243 0
M  V30 4293 C 391.78 -1.94704 0.187021 0
M  V30 4294 O 392.986 -2.7124 0.118771 0
M  V30 4295 C 391.442 -2.39479 2.68659 0
M  V30 4296 C 391.05 -1.831 4.08874 0
M  V30 4297 C 392.794 -3.16111 2.83327 0
M  V30 4298 C 390.701 -2.8821 5.16419 0
M  V30 4299 H 389.631 -0.496629 0.56734 0
M  V30 4300 H 392.282 -0.603354 1.73297 0
M  V30 4301 H 390.664 -3.14105 2.41152 0
M  V30 4302 H 391.838 -1.14913 4.46242 0
M  V30 4303 H 390.153 -1.19085 3.99008 0
M  V30 4304 H 392.75 -3.94585 3.60842 0
M  V30 4305 H 393.093 -3.69686 1.91411 0
M  V30 4306 H 393.626 -2.48595 3.10556 0
M  V30 4307 H 390.365 -2.39504 6.10179 0
M  V30 4308 H 389.885 -3.54839 4.8358 0
M  V30 4309 H 391.564 -3.51881 5.42945 0
M  V30 4310 N 391.696 -1.35014 -0.812953 0
M  V30 4311 C 392.626 -1.30069 -1.93919 0
M  V30 4312 C 393.607 -0.176275 -1.69184 0
M  V30 4313 O 394.792 -0.370227 -1.90638 0
M  V30 4314 C 391.922 -1.06547 -3.30552 0
M  V30 4315 C 390.876 -2.15561 -3.69753 0
M  V30 4316 C 390.202 -1.77214 -5.04479 0
M  V30 4317 C 391.502 -3.57476 -3.808 0
M  V30 4318 H 393.196 -2.24303 -1.98314 0
M  V30 4319 H 390.742 -1.07977 -0.952736 0
M  V30 4320 H 392.695 -1.01729 -4.08937 0
M  V30 4321 H 391.419 -0.0875719 -3.26483 0
M  V30 4322 H 390.078 -2.19466 -2.9365 0
M  V30 4323 H 389.726 -0.780589 -4.96906 0
M  V30 4324 H 389.426 -2.50184 -5.31678 0
M  V30 4325 H 390.95 -1.7391 -5.8531 0
M  V30 4326 H 392.364 -3.55929 -4.4943 0
M  V30 4327 H 390.761 -4.29152 -4.19462 0
M  V30 4328 H 391.831 -3.94091 -2.82525 0
M  V30 4329 N 393.175 1.03435 -1.18907 0
M  V30 4330 C 394.405 1.8012 -1.01195 0
M  V30 4331 C 394.813 1.8395 0.442613 0
M  V30 4332 O 394.156 1.27836 1.31923 0
M  V30 4333 C 394.218 3.26792 -1.49823 0
M  V30 4334 C 393.882 3.46609 -2.97844 0
M  V30 4335 C 394.879 3.37278 -3.95651 0
M  V30 4336 C 392.564 3.73001 -3.36416 0
M  V30 4337 C 394.558 3.54054 -5.30023 0
M  V30 4338 C 392.245 3.89423 -4.70949 0
M  V30 4339 C 393.243 3.79951 -5.67562 0
M  V30 4340 O 392.931 3.95895 -6.99659 0
M  V30 4341 H 392.663 0.573865 -0.357289 0
M  V30 4342 H 395.217 1.31207 -1.58031 0
M  V30 4343 H 393.447 3.76703 -0.873578 0
M  V30 4344 H 395.136 3.85055 -1.28404 0
M  V30 4345 H 395.902 3.16846 -3.67197 0
M  V30 4346 H 391.781 3.79469 -2.61772 0
M  V30 4347 H 395.325 3.46577 -6.05417 0
M  V30 4348 H 391.222 4.09351 -4.99101 0
M  V30 4349 H 391.99 4.13019 -7.06653 0
M  V30 4350 N 394.653 0.992116 1.22453 0
M  V30 4351 C 395.93 0.583508 1.86694 0
M  V30 4352 C 396.31 -0.9392 1.89056 0
M  V30 4353 O 395.658 -1.82081 1.38053 0
M  V30 4354 C 395.868 1.20304 3.2761 0
M  V30 4355 C 397.216 1.30308 4.0411 0
M  V30 4356 O 398.24 1.15737 3.36873 0
M  V30 4357 O 397.099 1.53615 5.24466 0
M  V30 4358 H 394.193 0.198129 0.802916 0
M  V30 4359 H 396.739 1.08794 1.30238 0
M  V30 4360 H 395.511 2.24461 3.2052 0
M  V30 4361 H 395.134 0.684144 3.9167 0
M  V30 4362 N 396.131 -1.37776 0.765217 0
M  V30 4363 C 397.377 -2.00604 0.336066 0
M  V30 4364 C 397.732 -1.59657 -1.07366 0
M  V30 4365 O 397.025 -0.829565 -1.7271 0
M  V30 4366 C 397.219 -3.5504 0.410053 0
M  V30 4367 C 397.048 -4.10985 1.82542 0
M  V30 4368 C 395.818 -4.42229 2.44461 0
M  V30 4369 C 398.016 -4.32438 2.78392 0
M  V30 4370 N 395.998 -4.8385 3.77839 0
M  V30 4371 C 397.369 -4.76596 3.96556 0
M  V30 4372 C 399.424 -4.14559 2.75764 0
M  V30 4373 C 398.127 -5.04748 5.12466 0
M  V30 4374 C 400.153 -4.43843 3.90842 0
M  V30 4375 C 399.515 -4.88235 5.07746 0
M  V30 4376 H 395.614 -0.763325 0.169881 0
M  V30 4377 H 398.198 -1.67197 0.997656 0
M  V30 4378 H 396.369 -3.87769 -0.221325 0
M  V30 4379 H 398.101 -4.0468 -0.0405285 0
M  V30 4380 H 394.856 -4.31079 1.96131 0
M  V30 4381 H 395.28 -5.08979 4.46396 0
M  V30 4382 H 399.922 -3.79415 1.86558 0
M  V30 4383 H 397.64 -5.38783 6.02277 0
M  V30 4384 H 401.226 -4.31603 3.90141 0
M  V30 4385 H 400.106 -5.10461 5.95315 0
M  V30 4386 N 397.609 -0.515225 -1.4894 0
M  V30 4387 C 398.858 0.0261361 -2.01683 0
M  V30 4388 C 399.171 1.36719 -1.39883 0
M  V30 4389 O 400.377 1.99606 -1.84037 0
M  V30 4390 C 398.833 0.0970111 -3.59769 0
M  V30 4391 C 398.441 -1.23825 -4.30548 0
M  V30 4392 C 400.185 0.587981 -4.20408 0
M  V30 4393 C 398.092 -1.12877 -5.80528 0
M  V30 4394 H 397.022 0.0135398 -0.753878 0
M  V30 4395 H 399.673 -0.656787 -1.71343 0
M  V30 4396 H 398.055 0.844694 -3.86886 0
M  V30 4397 H 399.229 -2.00034 -4.15118 0
M  V30 4398 H 397.544 -1.66379 -3.81716 0
M  V30 4399 H 400.141 0.68763 -5.3026 0
M  V30 4400 H 400.484 1.59026 -3.84729 0
M  V30 4401 H 401.017 -0.103582 -3.97665 0
M  V30 4402 H 397.756 -2.10575 -6.20756 0
M  V30 4403 H 397.276 -0.407799 -5.98412 0
M  V30 4404 H 398.955 -0.813332 -6.41868 0
M  V30 4405 N 399.087 1.5561 -0.249682 0
M  V30 4406 C 400.035 2.22894 0.664906 0
M  V30 4407 C 401.029 1.21743 1.17792 0
M  V30 4408 O 402.235 1.39748 1.13449 0
M  V30 4409 H 398.61 0.715022 0.232912 0
M  V30 4410 H 400.581 2.98307 0.0742998 0
M  V30 4411 C 399.33 2.94424 1.84959 0
M  V30 4412 H 398.653 3.72031 1.46399 0
M  V30 4413 H 400.093 3.44862 2.4667 0
M  V30 4414 C 398.552 1.98454 2.72245 0
M  V30 4415 O 399.082 1.51939 3.71857 0
M  V30 4416 N 397.288 1.65496 2.38871 0
M  V30 4417 H 396.835 2.03517 1.57919 0
M  V30 4418 H 396.793 1.0155 2.97548 0
M  V30 4419 N 400.565 -0.0233959 1.57583 0
M  V30 4420 C 401.976 -0.56927 1.77809 0
M  V30 4421 C 402.327 -1.75284 0.881472 0
M  V30 4422 O 401.452 -2.1626 0.0777805 0
M  V30 4423 C 402.047 -1.03949 3.22459 0
M  V30 4424 C 400.606 -1.53084 3.43864 0
M  V30 4425 C 399.753 -0.471454 2.73263 0
M  V30 4426 H 402.704 0.202825 1.57399 0
M  V30 4427 H 402.725 -1.90661 3.29285 0
M  V30 4428 H 402.237 -0.177865 3.87692 0
M  V30 4429 H 400.338 -2.41414 2.83814 0
M  V30 4430 H 400.451 -1.57443 4.52491 0
M  V30 4431 H 398.815 -0.927788 2.37201 0
M  V30 4432 H 399.598 0.380808 3.41181 0
M  V30 4433 N 402.043 -1.548 -0.295768 0
M  V30 4434 C 403.271 -1.78327 -1.04914 0
M  V30 4435 C 403.686 -0.545316 -1.80753 0
M  V30 4436 O 403.043 0.485013 -1.75937 0
M  V30 4437 C 403.094 -2.99418 -2.02561 0
M  V30 4438 O 402.815 -4.18431 -1.29798 0
M  V30 4439 C 404.316 -3.35375 -2.89895 0
M  V30 4440 H 401.536 -0.594618 -0.310918 0
M  V30 4441 H 404.08 -2.01763 -0.333454 0
M  V30 4442 H 402.235 -2.78175 -2.69624 0
M  V30 4443 H 402.649 -4.86736 -1.95419 0
M  V30 4444 H 404.123 -4.23332 -3.54251 0
M  V30 4445 H 404.6 -2.53761 -3.58472 0
M  V30 4446 H 405.206 -3.58796 -2.28355 0
M  V30 4447 N 403.521 0.559213 -1.47345 0
M  V30 4448 C 404.751 1.33999 -1.57251 0
M  V30 4449 C 405.159 1.87905 -0.220978 0
M  V30 4450 O 404.502 1.65577 0.795617 0
M  V30 4451 C 404.564 2.54798 -2.53611 0
M  V30 4452 C 404.228 2.22192 -3.99349 0
M  V30 4453 C 405.225 1.79607 -4.87891 0
M  V30 4454 C 402.91 2.33613 -4.44669 0
M  V30 4455 C 404.904 1.48868 -6.19772 0
M  V30 4456 C 402.591 2.02487 -5.76578 0
M  V30 4457 C 403.589 1.60183 -6.63951 0
M  V30 4458 O 403.277 1.29451 -7.93409 0
M  V30 4459 H 403.009 0.414858 -0.533731 0
M  V30 4460 H 405.563 0.684465 -1.9366 0
M  V30 4461 H 403.793 3.23235 -2.12265 0
M  V30 4462 H 405.482 3.16873 -2.53666 0
M  V30 4463 H 406.248 1.70278 -4.54126 0
M  V30 4464 H 402.127 2.65501 -3.76869 0
M  V30 4465 H 405.671 1.15775 -6.87926 0
M  V30 4466 H 401.568 2.11448 -6.09885 0
M  V30 4467 H 402.336 1.43098 -8.05894 0
M  V30 4468 N 404.999 1.35443 0.805782 0
M  V30 4469 C 405.929 1.31095 1.93226 0
M  V30 4470 C 406.91 0.185244 1.69088 0
M  V30 4471 O 408.095 0.380332 1.90439 0
M  V30 4472 C 405.225 1.08299 3.29983 0
M  V30 4473 C 404.179 2.17519 3.68605 0
M  V30 4474 C 403.505 1.79887 5.03532 0
M  V30 4475 C 404.805 3.5949 3.78898 0
M  V30 4476 H 406.499 2.25352 1.97122 0
M  V30 4477 H 404.045 1.0848 0.946996 0
M  V30 4478 H 405.998 1.03897 4.08391 0
M  V30 4479 H 404.722 0.104885 3.26432 0
M  V30 4480 H 403.381 2.2102 2.92482 0
M  V30 4481 H 403.029 0.80693 4.96485 0
M  V30 4482 H 402.729 2.53001 5.30344 0
M  V30 4483 H 404.253 1.77011 5.84379 0
M  V30 4484 H 405.667 3.58307 4.47536 0
M  V30 4485 H 404.064 4.31371 4.1718 0
M  V30 4486 H 405.134 3.95584 2.80431 0
M  V30 4487 N 406.477 -1.02803 1.19454 0
M  V30 4488 C 407.754 -1.73299 0.907013 0
M  V30 4489 C 408.134 -2.02772 -0.587086 0
M  V30 4490 O 407.482 -1.68304 -1.54551 0
M  V30 4491 C 407.692 -3.00912 1.76785 0
M  V30 4492 C 409.04 -3.74403 2.00268 0
M  V30 4493 O 410.064 -3.10841 1.73943 0
M  V30 4494 O 408.923 -4.88675 2.4466 0
M  V30 4495 H 406.017 -0.754727 0.338106 0
M  V30 4496 H 408.563 -1.08754 1.30271 0
M  V30 4497 H 407.335 -2.75366 2.7801 0
M  V30 4498 H 406.958 -3.73197 1.37149 0
M  V30 4499 N 407.956 -0.998596 -1.21925 0
M  V30 4500 C 408.889 -0.498517 -2.22688 0
M  V30 4501 C 409.867 0.444301 -1.56412 0
M  V30 4502 O 411.051 0.368518 -1.84863 0
M  V30 4503 C 408.178 0.276639 -3.37568 0
M  V30 4504 C 407.224 -0.61302 -4.22071 0
M  V30 4505 S 408.057 -2.07168 -4.93803 0
M  V30 4506 C 409.213 -1.30617 -6.12119 0
M  V30 4507 H 409.446 -1.35234 -2.64762 0
M  V30 4508 H 406.979 -0.806018 -1.31692 0
M  V30 4509 H 408.937 0.717817 -4.04175 0
M  V30 4510 H 407.598 1.10581 -2.93991 0
M  V30 4511 H 406.791 -0.0162909 -5.03997 0
M  V30 4512 H 406.393 -0.991202 -3.60626 0
M  V30 4513 H 408.685 -0.57675 -6.75041 0
M  V30 4514 H 409.628 -2.10091 -6.76215 0
M  V30 4515 H 410.036 -0.816957 -5.58557 0
M  V30 4516 N 409.434 1.37368 -0.772513 0
M  V30 4517 C 410.711 1.93839 -0.26188 0
M  V30 4518 C 411.091 1.7061 1.24319 0
M  V30 4519 O 410.439 1.05534 2.02669 0
M  V30 4520 C 410.649 3.43154 -0.636102 0
M  V30 4521 C 411.997 4.20249 -0.606324 0
M  V30 4522 O 413.021 3.5152 -0.575538 0
M  V30 4523 O 411.88 5.42809 -0.634086 0
M  V30 4524 H 408.974 0.82478 -0.0605555 0
M  V30 4525 H 411.52 1.4665 -0.853917 0
M  V30 4526 H 410.292 3.53647 -1.6748 0
M  V30 4527 H 409.915 3.97596 -0.0170516 0
M  V30 4528 N 410.912 0.523116 1.48665 0
M  V30 4529 C 412.142 -0.00961724 2.06598 0
M  V30 4530 C 412.55 -1.29333 1.38093 0
M  V30 4531 O 411.893 -1.77846 0.46007 0
M  V30 4532 C 411.955 -0.311135 3.58151 0
M  V30 4533 C 411.619 0.878092 4.48485 0
M  V30 4534 C 412.616 1.77464 4.88674 0
M  V30 4535 C 410.301 1.08315 4.90483 0
M  V30 4536 C 412.295 2.86021 5.69623 0
M  V30 4537 C 409.982 2.17187 5.71203 0
M  V30 4538 C 410.98 3.05873 6.10681 0
M  V30 4539 O 410.668 4.12862 6.89783 0
M  V30 4540 H 410.4 0.0272658 0.67545 0
M  V30 4541 H 412.954 0.726156 1.92136 0
M  V30 4542 H 411.184 -1.10079 3.70701 0
M  V30 4543 H 412.873 -0.785125 3.98234 0
M  V30 4544 H 413.639 1.62813 4.56855 0
M  V30 4545 H 409.518 0.402149 4.59243 0
M  V30 4546 H 413.062 3.55272 6.00356 0
M  V30 4547 H 408.959 2.31824 6.02435 0
M  V30 4548 H 409.727 4.10487 7.08126 0
M  V30 4549 N 412.39 -1.55475 0.257931 0
M  V30 4550 C 413.322 -2.19192 -0.669881 0
M  V30 4551 C 414.335 -1.17148 -1.1305 0
M  V30 4552 O 415.524 -1.43959 -1.05537 0
M  V30 4553 C 412.624 -2.79016 -1.92363 0
M  V30 4554 C 411.797 -4.06586 -1.61265 0
M  V30 4555 C 410.856 -4.50622 -2.7171 0
M  V30 4556 O 409.882 -5.16765 -2.38627 0
M  V30 4557 N 411.084 -4.19325 -4.01431 0
M  V30 4558 H 413.849 -2.99441 -0.124635 0
M  V30 4559 H 411.41 -1.6171 0.0783311 0
M  V30 4560 H 413.402 -3.05427 -2.65511 0
M  V30 4561 H 411.972 -2.0286 -2.37837 0
M  V30 4562 H 411.192 -3.87646 -0.715811 0
M  V30 4563 H 412.48 -4.89737 -1.37967 0
M  V30 4564 H 411.878 -3.66247 -4.31138 0
M  V30 4565 H 410.435 -4.50547 -4.7101 0
M  V30 4566 N 413.868 0.0150385 -1.57593 0
M  V30 4567 C 415.114 0.704043 -1.90187 0
M  V30 4568 C 415.447 1.74249 -0.857366 0
M  V30 4569 O 414.722 1.94092 0.125843 0
M  V30 4570 C 415.005 1.36087 -3.33395 0
M  V30 4571 C 414.858 0.334981 -4.48551 0
M  V30 4572 C 416.177 2.29112 -3.7576 0
M  V30 4573 H 413.296 0.254475 -0.691673 0
M  V30 4574 H 415.938 -0.0331678 -1.89971 0
M  V30 4575 H 414.088 1.98922 -3.3371 0
M  V30 4576 H 415.76 -0.292534 -4.60372 0
M  V30 4577 H 414.003 -0.344325 -4.32431 0
M  V30 4578 H 414.674 0.833316 -5.45674 0
M  V30 4579 H 417.15 1.76308 -3.76902 0
M  V30 4580 H 416.026 2.72043 -4.76743 0
M  V30 4581 H 416.287 3.16385 -3.08793 0
M  V30 4582 N 415.346 1.54954 0.287554 0
M  V30 4583 C 416.278 1.83224 1.37701 0
M  V30 4584 C 417.291 0.715898 1.46215 0
M  V30 4585 O 418.48 0.993565 1.48292 0
M  V30 4586 C 415.58 1.96723 2.75959 0
M  V30 4587 C 414.753 3.27253 2.90215 0
M  V30 4588 C 413.812 3.30998 4.09056 0
M  V30 4589 O 412.838 4.04457 4.00503 0
M  V30 4590 N 414.04 2.57353 5.20336 0
M  V30 4591 H 416.805 2.77254 1.138 0
M  V30 4592 H 414.366 1.54694 0.477652 0
M  V30 4593 H 416.358 1.96615 3.5373 0
M  V30 4594 H 414.928 1.09626 2.92747 0
M  V30 4595 H 414.148 3.40022 1.99447 0
M  V30 4596 H 415.436 4.13365 2.96659 0
M  V30 4597 H 414.834 1.97327 5.30169 0
M  V30 4598 H 413.391 2.62984 5.96391 0
M  V30 4599 N 416.824 -0.551391 1.4764 0
M  V30 4600 C 418.073 -1.30467 1.53822 0
M  V30 4601 C 418.386 -1.94495 0.207661 0
M  V30 4602 O 419.592 -2.71099 0.147533 0
M  V30 4603 C 418.048 -2.36616 2.71184 0
M  V30 4604 C 417.656 -1.78754 4.10793 0
M  V30 4605 C 419.4 -3.13088 2.86663 0
M  V30 4606 C 417.307 -2.82717 5.19447 0
M  V30 4607 H 416.237 -0.490584 0.572576 0
M  V30 4608 H 418.888 -0.58494 1.73927 0
M  V30 4609 H 417.27 -3.11529 2.4447 0
M  V30 4610 H 418.444 -1.10173 4.47435 0
M  V30 4611 H 416.759 -1.14846 4.00249 0
M  V30 4612 H 419.356 -3.90736 3.65007 0
M  V30 4613 H 419.699 -3.67635 1.95321 0
M  V30 4614 H 420.232 -2.45288 3.13175 0
M  V30 4615 H 416.971 -2.33018 6.12685 0
M  V30 4616 H 416.491 -3.4969 4.87316 0
M  V30 4617 H 418.17 -3.46102 5.46646 0
M  V30 4618 N 418.302 -1.35869 -0.798587 0
M  V30 4619 C 419.234 -1.25305 -1.91915 0
M  V30 4620 C 420.247 -0.174548 -1.61862 0
M  V30 4621 O 421.436 -0.428499 -1.73281 0
M  V30 4622 C 418.536 -0.9086 -3.26493 0
M  V30 4623 C 417.709 -2.08711 -3.84394 0
M  V30 4624 C 416.768 -1.71717 -4.97393 0
M  V30 4625 O 415.794 -2.43692 -5.14396 0
M  V30 4626 N 416.996 -0.645473 -5.769 0
M  V30 4627 H 419.761 -2.21849 -2.01502 0
M  V30 4628 H 417.322 -1.29143 -0.976408 0
M  V30 4629 H 419.314 -0.642455 -3.99568 0
M  V30 4630 H 417.884 -0.0325815 -3.12583 0
M  V30 4631 H 417.104 -2.51659 -3.03416 0
M  V30 4632 H 418.392 -2.87468 -4.19809 0
M  V30 4633 H 417.79 -0.047648 -5.6568 0
M  V30 4634 H 416.347 -0.43913 -6.50319 0
M  V30 4635 N 419.78 1.02168 -1.19998 0
M  V30 4636 C 420.69 2.14069 -0.959774 0
M  V30 4637 C 421.706 1.73804 0.082655 0
M  V30 4638 O 422.882 2.01133 -0.103633 0
M  V30 4639 C 419.947 3.42936 -0.509459 0
M  V30 4640 C 419.008 3.97474 -1.62213 0
M  V30 4641 C 418.241 5.2019 -1.19321 0
M  V30 4642 O 418.464 5.70369 -0.0597726 0
M  V30 4643 O 417.398 5.67749 -1.99863 0
M  V30 4644 H 421.224 2.37199 -1.89658 0
M  V30 4645 H 418.809 1.12469 -0.983411 0
M  V30 4646 H 420.691 4.20551 -0.267322 0
M  V30 4647 H 419.366 3.21234 0.398821 0
M  V30 4648 H 418.273 3.21161 -1.9185 0
M  V30 4649 H 419.606 4.23555 -2.50723 0
M  V30 4650 N 421.258 1.00505 1.21394 0
M  V30 4651 C 422.168 0.574806 2.27449 0
M  V30 4652 C 423.184 -0.382206 1.6975 0
M  V30 4653 O 424.36 -0.246027 1.99892 0
M  V30 4654 C 421.425 -0.0917414 3.46579 0
M  V30 4655 C 420.486 0.909758 4.1955 0
M  V30 4656 C 419.719 0.274924 5.32991 0
M  V30 4657 O 419.942 -0.928254 5.62796 0
M  V30 4658 O 418.876 0.985877 5.93771 0
M  V30 4659 H 422.702 1.45744 2.66444 0
M  V30 4660 H 420.287 0.773923 1.27792 0
M  V30 4661 H 422.169 -0.464551 4.18832 0
M  V30 4662 H 420.844 -0.948755 3.09484 0
M  V30 4663 H 419.751 1.33372 3.49518 0
M  V30 4664 H 421.084 1.73636 4.60555 0
M  V30 4665 N 422.737 -1.36956 0.779787 0
M  V30 4666 C 423.984 -1.99491 0.347766 0
M  V30 4667 C 424.312 -1.61898 -1.07793 0
M  V30 4668 O 423.567 -0.86071 -1.75756 0
M  V30 4669 C 423.866 -3.54585 0.447686 0
M  V30 4670 C 423.532 -4.1197 1.83279 0
M  V30 4671 C 422.194 -4.27356 2.2118 0
M  V30 4672 C 424.546 -4.43354 2.74019 0
M  V30 4673 C 421.874 -4.71432 3.4924 0
M  V30 4674 C 424.226 -4.88858 4.01497 0
M  V30 4675 C 422.89 -5.0245 4.39432 0
M  V30 4676 H 422.16 -0.729991 0.127257 0
M  V30 4677 H 424.807 -1.63599 0.995376 0
M  V30 4678 H 423.112 -3.90773 -0.283447 0
M  V30 4679 H 424.809 -4.00888 0.0945948 0
M  V30 4680 H 421.399 -4.00428 1.52825 0
M  V30 4681 H 425.583 -4.31045 2.45995 0
M  V30 4682 H 420.839 -4.80141 3.78516 0
M  V30 4683 H 425.013 -5.12108 4.71931 0
M  V30 4684 H 422.64 -5.36362 5.38721 0
M  V30 4685 N 424.215 -0.530993 -1.48385 0
M  V30 4686 C 425.125 0.23503 -2.3342 0
M  V30 4687 C 426.141 0.93801 -1.46552 0
M  V30 4688 O 427.317 0.912745 -1.7953 0
M  V30 4689 C 424.382 1.26778 -3.22689 0
M  V30 4690 C 423.443 0.575038 -4.25431 0
M  V30 4691 C 422.676 1.55858 -5.10435 0
M  V30 4692 O 422.899 2.79129 -4.97437 0
M  V30 4693 O 421.833 1.09742 -5.91811 0
M  V30 4694 H 425.659 -0.461794 -3.00169 0
M  V30 4695 H 423.244 -0.291903 -1.46521 0
M  V30 4696 H 425.126 1.86457 -3.77904 0
M  V30 4697 H 423.801 1.94699 -2.586 0
M  V30 4698 H 422.708 -0.0622782 -3.74048 0
M  V30 4699 H 424.041 -0.062253 -4.92161 0
M  V30 4700 N 425.693 1.55336 -0.266172 0
M  V30 4701 C 426.603 2.2583 0.635458 0
M  V30 4702 C 427.619 1.28106 1.17749 0
M  V30 4703 O 428.795 1.61024 1.20968 0
M  V30 4704 C 425.86 2.95879 1.80712 0
M  V30 4705 C 424.921 4.09059 1.30265 0
M  V30 4706 C 424.154 4.75759 2.41846 0
M  V30 4707 O 424.377 4.41622 3.61007 0
M  V30 4708 O 423.311 5.63888 2.1051 0
M  V30 4709 H 427.137 3.03631 0.0646693 0
M  V30 4710 H 424.722 1.49361 -0.0339177 0
M  V30 4711 H 426.604 3.39932 2.49047 0
M  V30 4712 H 425.279 2.21002 2.36516 0
M  V30 4713 H 424.186 3.69482 0.586019 0
M  V30 4714 H 425.519 4.85811 0.790458 0
M  V30 4715 N 427.171 -0.0066808 1.57599 0
M  V30 4716 C 428.396 -0.707738 1.94951 0
M  V30 4717 C 428.821 -1.66882 0.867868 0
M  V30 4718 O 428.179 -1.80457 -0.17458 0
M  V30 4719 C 428.227 -1.42162 3.31394 0
M  V30 4720 O 427.331 -2.53578 3.25226 0
M  V30 4721 H 426.672 -0.188752 0.636607 0
M  V30 4722 H 429.202 0.0445193 2.04552 0
M  V30 4723 H 429.212 -1.78655 3.66806 0
M  V30 4724 H 427.887 -0.716903 4.09675 0
M  V30 4725 H 426.464 -2.19463 3.01481 0
M  V30 4726 N 428.649 -1.55105 -0.279332 0
M  V30 4727 C 429.874 -1.7976 -1.03446 0
M  V30 4728 C 430.299 -0.565952 -1.79384 0
M  V30 4729 O 429.657 0.484259 -1.74713 0
M  V30 4730 C 429.705 -3.0179 -1.97371 0
M  V30 4731 O 428.809 -2.76432 -3.06038 0
M  V30 4732 H 428.15 -0.594334 -0.29608 0
M  V30 4733 H 430.68 -2.02235 -0.310165 0
M  V30 4734 H 430.69 -3.30351 -2.39441 0
M  V30 4735 H 429.365 -3.91085 -1.4151 0
M  V30 4736 H 427.942 -2.58949 -2.68328 0
M  V30 4737 N 430.127 0.543554 -1.4793 0
M  V30 4738 C 431.037 1.67657 -1.64098 0
M  V30 4739 C 432.053 1.65934 -0.523622 0
M  V30 4740 O 433.229 1.85133 -0.792943 0
M  V30 4741 C 430.294 3.04146 -1.66421 0
M  V30 4742 C 429.355 3.16831 -2.89684 0
M  V30 4743 C 428.588 4.46809 -2.91886 0
M  V30 4744 O 428.811 5.33095 -2.02895 0
M  V30 4745 O 427.745 4.63573 -3.83906 0
M  V30 4746 H 431.571 1.56957 -2.59997 0
M  V30 4747 H 429.156 0.715116 -1.31173 0
M  V30 4748 H 431.038 3.85346 -1.70548 0
M  V30 4749 H 429.713 3.152 -0.736923 0
M  V30 4750 H 428.62 2.34977 -2.91095 0
M  V30 4751 H 429.953 3.10687 -3.81752 0
M  V30 4752 N 431.605 1.3629 0.791371 0
M  V30 4753 C 432.854 1.29742 1.54434 0
M  V30 4754 C 433.167 -0.121729 1.95221 0
M  V30 4755 O 434.373 -0.309579 2.69729 0
M  V30 4756 C 432.829 2.27623 2.78776 0
M  V30 4757 C 432.437 3.74963 2.45166 0
M  V30 4758 C 434.181 2.30047 3.56761 0
M  V30 4759 C 432.088 4.64626 3.65891 0
M  V30 4760 H 431.018 0.482113 0.579727 0
M  V30 4761 H 433.669 1.61642 0.868565 0
M  V30 4762 H 432.051 1.88714 3.48142 0
M  V30 4763 H 433.225 4.22596 1.83709 0
M  V30 4764 H 431.54 3.75295 1.80396 0
M  V30 4765 H 434.137 2.94247 4.46456 0
M  V30 4766 H 434.48 1.30846 3.95203 0
M  V30 4767 H 435.013 2.67563 2.94372 0
M  V30 4768 H 431.752 5.64883 3.32547 0
M  V30 4769 H 431.272 4.2171 4.26521 0
M  V30 4770 H 432.951 4.80801 4.32943 0
M  V30 4771 N 433.083 -1.0153 1.20538 0
M  V30 4772 C 434.013 -2.11972 0.979295 0
M  V30 4773 C 434.994 -1.6985 -0.0921787 0
M  V30 4774 O 436.179 -1.94089 0.0655932 0
M  V30 4775 C 433.309 -3.43201 0.531984 0
M  V30 4776 C 432.263 -3.9907 1.54685 0
M  V30 4777 C 431.589 -5.26082 0.956127 0
M  V30 4778 C 432.889 -4.32313 2.93092 0
M  V30 4779 H 434.583 -2.31143 1.90298 0
M  V30 4780 H 432.129 -1.11079 0.916372 0
M  V30 4781 H 434.082 -4.1985 0.361044 0
M  V30 4782 H 432.806 -3.23792 -0.427327 0
M  V30 4783 H 431.465 -3.2453 1.70517 0
M  V30 4784 H 431.113 -5.02999 -0.0111538 0
M  V30 4785 H 430.813 -5.64426 1.63393 0
M  V30 4786 H 432.337 -6.05386 0.796284 0
M  V30 4787 H 433.751 -4.99845 2.80763 0
M  V30 4788 H 432.148 -4.81774 3.57791 0
M  V30 4789 H 433.218 -3.41025 3.44717 0
M  V30 4790 N 434.561 -1.01147 -1.20859 0
M  V30 4791 C 435.491 -0.597663 -2.25722 0
M  V30 4792 C 436.472 0.384744 -1.65692 0
M  V30 4793 O 437.657 0.271303 -1.92296 0
M  V30 4794 C 434.787 0.0700149 -3.47229 0
M  V30 4795 C 433.741 -0.832843 -4.19819 0
M  V30 4796 C 433.067 -0.0312202 -5.34691 0
M  V30 4797 C 434.367 -2.1385 -4.76514 0
M  V30 4798 H 436.061 -1.47423 -2.60589 0
M  V30 4799 H 433.607 -0.710301 -1.25263 0
M  V30 4800 H 435.56 0.37103 -4.19763 0
M  V30 4801 H 434.284 0.981259 -3.11511 0
M  V30 4802 H 432.943 -1.11778 -3.49144 0
M  V30 4803 H 432.591 0.881515 -4.95215 0
M  V30 4804 H 432.291 -0.632434 -5.84187 0
M  V30 4805 H 433.815 0.26346 -6.10031 0
M  V30 4806 H 435.229 -1.9002 -5.40893 0
M  V30 4807 H 433.626 -2.69012 -5.36426 0
M  V30 4808 H 434.696 -2.80495 -3.95538 0
M  V30 4809 N 436.039 1.36541 -0.78704 0
M  V30 4810 C 436.986 2.30082 -0.181901 0
M  V30 4811 C 437.956 1.5186 0.672896 0
M  V30 4812 O 439.141 1.80374 0.622072 0
M  V30 4813 C 436.281 3.3835 0.679197 0
M  V30 4814 C 435.394 4.31565 -0.193882 0
M  V30 4815 C 434.529 5.26915 0.673364 0
M  V30 4816 C 433.568 6.11769 -0.201315 0
M  V30 4817 N 432.705 6.99315 0.624777 0
M  V30 4818 H 437.545 2.81248 -0.985064 0
M  V30 4819 H 435.082 1.38437 -0.497342 0
M  V30 4820 H 437.04 3.99767 1.19341 0
M  V30 4821 H 435.67 2.8851 1.44781 0
M  V30 4822 H 434.722 3.71323 -0.826044 0
M  V30 4823 H 436.034 4.91191 -0.867937 0
M  V30 4824 H 435.188 5.9361 1.25348 0
M  V30 4825 H 433.927 4.67737 1.38105 0
M  V30 4826 H 432.932 5.44039 -0.793849 0
M  V30 4827 H 434.157 6.73022 -0.906568 0
M  V30 4828 H 432.103 6.42648 1.3168 0
M  V30 4829 H 432.02 7.56 0.00835237 0
M  V30 4830 H 433.288 7.70382 1.18879 0
M  V30 4831 N 437.518 0.538854 1.48102 0
M  V30 4832 C 438.428 -0.222648 2.33541 0
M  V30 4833 C 439.444 -0.930225 1.47047 0
M  V30 4834 O 440.62 -0.903211 1.80011 0
M  V30 4835 C 437.685 -1.25064 3.23357 0
M  V30 4836 C 436.746 -0.552469 4.2573 0
M  V30 4837 C 435.979 -1.53149 5.11254 0
M  V30 4838 O 436.202 -2.76487 4.9891 0
M  V30 4839 O 435.136 -1.06602 5.92385 0
M  V30 4840 H 438.962 0.477707 2.99919 0
M  V30 4841 H 436.547 0.299669 1.46364 0
M  V30 4842 H 438.429 -1.8445 3.78888 0
M  V30 4843 H 437.104 -1.93325 2.59629 0
M  V30 4844 H 436.011 0.082114 3.7401 0
M  V30 4845 H 437.344 0.0883526 4.92121 0
M  V30 4846 N 438.996 -1.55193 0.274407 0
M  V30 4847 C 440.243 -1.99581 -0.342579 0
M  V30 4848 C 440.571 -1.1628 -1.55914 0
M  V30 4849 O 439.826 -0.22029 -1.94456 0
M  V30 4850 C 440.125 -3.49019 -0.769458 0
M  V30 4851 C 439.791 -4.49598 0.342389 0
M  V30 4852 C 438.453 -4.76821 0.647686 0
M  V30 4853 C 440.805 -5.0964 1.09163 0
M  V30 4854 C 438.133 -5.61354 1.70581 0
M  V30 4855 C 440.485 -5.95323 2.13948 0
M  V30 4856 C 439.149 -6.20867 2.45113 0
M  V30 4857 H 438.419 -0.730319 -0.125358 0
M  V30 4858 H 441.066 -1.87529 0.387971 0
M  V30 4859 H 439.371 -3.58544 -1.57967 0
M  V30 4860 H 441.068 -3.8077 -1.25757 0
M  V30 4861 H 437.658 -4.28496 0.094318 0
M  V30 4862 H 441.842 -4.88632 0.869024 0
M  V30 4863 H 437.098 -5.79392 1.9523 0
M  V30 4864 H 441.272 -6.40881 2.72478 0
M  V30 4865 H 438.899 -6.86162 3.27239 0
M  V30 4866 N 440.474 -0.00167713 -1.576 0
M  V30 4867 C 441.404 0.988091 -2.11563 0
M  V30 4868 C 442.385 1.35736 -1.02517 0
M  V30 4869 O 443.57 1.44082 -1.30208 0
M  V30 4870 C 440.7 2.27941 -2.62031 0
M  V30 4871 C 439.654 2.0517 -3.75619 0
M  V30 4872 C 438.98 3.4033 -4.12407 0
M  V30 4873 C 440.28 1.41294 -5.02825 0
M  V30 4874 H 441.974 0.538771 -2.94513 0
M  V30 4875 H 439.52 0.257712 -1.41675 0
M  V30 4876 H 441.473 2.97539 -2.9841 0
M  V30 4877 H 440.197 2.74989 -1.76205 0
M  V30 4878 H 438.856 1.37998 -3.39635 0
M  V30 4879 H 438.504 3.85085 -3.23603 0
M  V30 4880 H 438.204 3.25909 -4.88935 0
M  V30 4881 H 439.728 4.1124 -4.51347 0
M  V30 4882 H 441.142 2.00851 -5.36965 0
M  V30 4883 H 439.539 1.37356 -5.84169 0
M  V30 4884 H 440.609 0.382362 -4.8339 0
M  V30 4885 N 441.952 1.55251 0.271103 0
M  V30 4886 C 442.899 1.88261 1.33516 0
M  V30 4887 C 443.869 0.734296 1.48988 0
M  V30 4888 O 445.054 0.985741 1.63364 0
M  V30 4889 C 442.194 2.16168 2.69008 0
M  V30 4890 C 441.307 3.43678 2.61743 0
M  V30 4891 C 440.442 3.61276 3.89427 0
M  V30 4892 C 439.481 4.82472 3.7668 0
M  V30 4893 N 438.618 4.96717 4.96202 0
M  V30 4894 H 443.458 2.79015 1.04665 0
M  V30 4895 H 440.995 1.38137 0.505618 0
M  V30 4896 H 442.953 2.30349 3.47844 0
M  V30 4897 H 441.583 1.28646 2.96057 0
M  V30 4898 H 440.635 3.37959 1.74607 0
M  V30 4899 H 441.947 4.3265 2.48224 0
M  V30 4900 H 441.101 3.75284 4.76704 0
M  V30 4901 H 439.84 2.70492 4.05814 0
M  V30 4902 H 438.845 4.68465 2.87786 0
M  V30 4903 H 440.07 5.74692 3.61809 0
M  V30 4904 H 438.016 4.08865 5.12997 0
M  V30 4905 H 437.933 5.79738 4.85222 0
M  V30 4906 H 439.201 5.15113 5.85046 0
M  V30 4907 N 443.43 -0.535701 1.48216 0
M  V30 4908 C 444.841 -1.11769 1.49548 0
M  V30 4909 C 445.192 -1.94442 0.26207 0
M  V30 4910 O 444.317 -2.06987 -0.631287 0
M  V30 4911 C 444.912 -2.03367 2.70975 0
M  V30 4912 C 443.471 -2.56795 2.75196 0
M  V30 4913 C 442.618 -1.33631 2.42977 0
M  V30 4914 H 445.569 -0.321232 1.55415 0
M  V30 4915 H 445.59 -2.87569 2.49167 0
M  V30 4916 H 445.102 -1.43169 3.60727 0
M  V30 4917 H 443.203 -3.20731 1.89638 0
M  V30 4918 H 443.316 -2.9632 3.76472 0
M  V30 4919 H 441.68 -1.6502 1.94012 0
M  V30 4920 H 442.463 -0.75194 3.34964 0
M  V30 4921 N 444.908 -1.36708 -0.784132 0
M  V30 4922 C 445.818 -1.3363 -1.92822 0
M  V30 4923 C 446.834 -0.237686 -1.72369 0
M  V30 4924 O 448.01 -0.470962 -1.95816 0
M  V30 4925 C 445.075 -1.13011 -3.27764 0
M  V30 4926 C 444.136 -2.32397 -3.60957 0
M  V30 4927 C 443.369 -2.12752 -4.89461 0
M  V30 4928 O 443.592 -1.10541 -5.59586 0
M  V30 4929 O 442.526 -3.00653 -5.21432 0
M  V30 4930 H 446.352 -2.29964 -1.98369 0
M  V30 4931 H 443.937 -1.1731 -0.925136 0
M  V30 4932 H 445.819 -1.03451 -4.08504 0
M  V30 4933 H 444.494 -0.19743 -3.23097 0
M  V30 4934 H 443.401 -2.47527 -2.80502 0
M  V30 4935 H 444.734 -3.2419 -3.70354 0
M  V30 4936 N 446.386 1.0089 -1.21074 0
M  V30 4937 C 447.333 2.09588 -0.966512 0
M  V30 4938 C 448.303 1.65761 0.106089 0
M  V30 4939 O 449.488 1.90758 -0.0402287 0
M  V30 4940 C 446.628 3.40958 -0.533058 0
M  V30 4941 C 445.741 3.9822 -1.67467 0
M  V30 4942 C 444.876 5.17682 -1.19076 0
M  V30 4943 C 443.915 5.67043 -2.30496 0
M  V30 4944 N 443.052 6.77759 -1.83267 0
M  V30 4945 H 447.892 2.29815 -1.89708 0
M  V30 4946 H 445.429 1.12689 -0.945489 0
M  V30 4947 H 447.387 4.1637 -0.263019 0
M  V30 4948 H 446.017 3.20781 0.360505 0
M  V30 4949 H 445.069 3.1983 -2.05944 0
M  V30 4950 H 446.381 4.3085 -2.51336 0
M  V30 4951 H 445.535 6.00326 -0.877151 0
M  V30 4952 H 444.274 4.86635 -0.322066 0
M  V30 4953 H 443.279 4.82999 -2.62664 0
M  V30 4954 H 444.504 6.00121 -3.17855 0
M  V30 4955 H 442.45 6.48527 -0.987356 0
M  V30 4956 H 442.367 7.09624 -2.60711 0
M  V30 4957 H 443.635 7.63949 -1.54928 0
M  V30 4958 N 447.864 1.01787 1.20321 0
M  V30 4959 C 449.111 0.707936 1.89722 0
M  V30 4960 C 449.439 -0.762535 1.78929 0
M  V30 4961 O 448.694 -1.56977 1.16861 0
M  V30 4962 C 448.993 1.09076 3.40349 0
M  V30 4963 C 448.659 2.55765 3.71342 0
M  V30 4964 C 447.321 2.95845 3.79511 0
M  V30 4965 C 449.673 3.50723 3.85542 0
M  V30 4966 C 447.001 4.2982 3.99339 0
M  V30 4967 C 449.353 4.84387 4.06881 0
M  V30 4968 C 448.017 5.24172 4.1328 0
M  V30 4969 H 447.287 0.259052 0.694243 0
M  V30 4970 H 449.934 1.27868 1.42555 0
M  V30 4971 H 448.239 0.438453 3.89339 0
M  V30 4972 H 449.936 0.828636 3.92345 0
M  V30 4973 H 446.526 2.2371 3.65584 0
M  V30 4974 H 450.71 3.20916 3.78585 0
M  V30 4975 H 445.966 4.60196 4.02529 0
M  V30 4976 H 450.14 5.57891 4.1681 0
M  V30 4977 H 447.767 6.27997 4.28396 0
M  V30 4978 N 449.342 -1.36122 0.79427 0
M  V30 4979 C 450.57 -2.03362 0.380989 0
M  V30 4980 C 450.985 -1.59881 -1.00416 0
M  V30 4981 O 450.342 -0.790515 -1.6449 0
M  V30 4982 C 450.393 -3.58804 0.440649 0
M  V30 4983 O 450.114 -4.007 1.77118 0
M  V30 4984 C 451.615 -4.43296 0.0186117 0
M  V30 4985 H 448.835 -0.652526 0.156367 0
M  V30 4986 H 451.379 -1.73998 1.07447 0
M  V30 4987 H 449.534 -3.8686 -0.204458 0
M  V30 4988 H 449.948 -4.95309 1.72538 0
M  V30 4989 H 451.422 -5.51887 0.111488 0
M  V30 4990 H 451.899 -4.2684 -1.03461 0
M  V30 4991 H 452.505 -4.20512 0.636395 0
M  V30 4992 N 450.82 -0.546701 -1.47814 0
M  V30 4993 C 451.767 0.206854 -2.29871 0
M  V30 4994 C 452.737 0.918235 -1.38411 0
M  V30 4995 O 453.922 0.915991 -1.67375 0
M  V30 4996 C 451.062 1.23746 -3.22151 0
M  V30 4997 C 450.175 0.533216 -4.28697 0
M  V30 4998 C 449.31 1.5482 -5.08138 0
M  V30 4999 C 448.349 0.828347 -6.06469 0
M  V30 5000 N 447.486 1.78966 -6.78908 0
M  V30 5001 H 452.326 -0.499037 -2.93792 0
M  V30 5002 H 449.863 -0.25793 -1.44821 0
M  V30 5003 H 451.821 1.84746 -3.74065 0
M  V30 5004 H 450.451 1.91151 -2.60117 0
M  V30 5005 H 449.503 -0.191089 -3.7992 0
M  V30 5006 H 450.815 -0.0311987 -4.9879 0
M  V30 5007 H 449.969 2.23202 -5.6415 0
M  V30 5008 H 448.708 2.14652 -4.37922 0
M  V30 5009 H 447.713 0.130539 -5.49645 0
M  V30 5010 H 448.938 0.235907 -6.7869 0
M  V30 5011 H 446.884 2.37675 -6.1143 0
M  V30 5012 H 446.801 1.27712 -7.45135 0
M  V30 5013 H 448.069 2.46496 -7.395 0
M  V30 5014 N 452.299 1.55045 -0.282633 0
M  V30 5015 C 453.545 2.00056 0.332481 0
M  V30 5016 C 453.878 1.1708 1.54939 0
M  V30 5017 O 453.153 0.2427 1.9298 0
M  V30 5018 C 453.436 3.53086 0.70725 0
M  V30 5019 C 453.289 4.46813 -0.517521 0
M  V30 5020 C 454.608 4.12245 1.54084 0
M  V30 5021 H 451.727 0.727268 0.119373 0
M  V30 5022 H 454.369 1.85932 -0.391076 0
M  V30 5023 H 452.519 3.65253 1.32372 0
M  V30 5024 H 454.191 4.46579 -1.15607 0
M  V30 5025 H 452.434 4.18163 -1.1542 0
M  V30 5026 H 453.105 5.51595 -0.211426 0
M  V30 5027 H 455.581 4.03401 1.02013 0
M  V30 5028 H 454.457 5.19515 1.77186 0
M  V30 5029 H 454.718 3.62951 2.52427 0
M  V30 5030 N 453.777 0.010035 1.57597 0
M  V30 5031 C 455.017 -0.677084 1.9286 0
M  V30 5032 C 455.381 -1.70377 0.885192 0
M  V30 5033 O 456.582 -2.44199 1.12339 0
M  V30 5034 C 454.853 -1.29452 3.33132 0
M  V30 5035 S 456.412 -2.00537 3.90295 0
M  V30 5036 H 453.23 -0.223409 0.674989 0
M  V30 5037 H 455.832 0.0691289 1.95378 0
M  V30 5038 H 454.536 -0.534593 4.06903 0
M  V30 5039 H 454.067 -2.07845 3.34012 0
M  V30 5040 H 456.082 -3.28168 3.72183 0
M  V30 5041 N 455.255 -1.55392 -0.262866 0
M  V30 5042 C 456.165 -1.92077 -1.34698 0
M  V30 5043 C 457.181 -0.819227 -1.53508 0
M  V30 5044 O 458.357 -1.11921 -1.67439 0
M  V30 5045 C 455.422 -2.19407 -2.68443 0
M  V30 5046 C 454.483 -3.42905 -2.58292 0
M  V30 5047 C 453.716 -3.68921 -3.85659 0
M  V30 5048 O 453.939 -2.97275 -4.8681 0
M  V30 5049 O 452.873 -4.62455 -3.85252 0
M  V30 5050 H 456.699 -2.84384 -1.06581 0
M  V30 5051 H 454.284 -1.42069 -0.462264 0
M  V30 5052 H 456.166 -2.38365 -3.47506 0
M  V30 5053 H 454.841 -1.30282 -2.96325 0
M  V30 5054 H 453.748 -3.29272 -1.7757 0
M  V30 5055 H 455.081 -4.32282 -2.35358 0
M  V30 5056 N 456.733 0.527833 -1.48498 0
M  V30 5057 C 457.696 1.61439 -1.62696 0
M  V30 5058 C 458.696 1.52824 -0.500136 0
M  V30 5059 O 459.886 1.56456 -0.765976 0
M  V30 5060 C 457.018 3.01063 -1.59918 0
M  V30 5061 H 458.211 1.50189 -2.59583 0
M  V30 5062 H 455.764 0.750055 -1.37127 0
M  V30 5063 H 456.499 3.17818 -0.645163 0
M  V30 5064 H 456.284 3.08725 -2.41726 0
M  V30 5065 H 457.774 3.80057 -1.73051 0
M  V30 5066 N 458.211 1.37122 0.776871 0
M  V30 5067 C 459.141 1.35164 1.90402 0
M  V30 5068 C 460.122 0.221069 1.68657 0
M  V30 5069 O 461.307 0.420642 1.8959 0
M  V30 5070 C 458.437 1.15274 3.27611 0
M  V30 5071 C 457.391 2.25289 3.63908 0
M  V30 5072 C 456.717 1.90527 4.99603 0
M  V30 5073 C 458.017 3.67446 3.71188 0
M  V30 5074 H 459.711 2.29482 1.92297 0
M  V30 5075 H 457.257 1.10465 0.923773 0
M  V30 5076 H 459.21 1.12536 4.06096 0
M  V30 5077 H 457.934 0.174102 3.26136 0
M  V30 5078 H 456.593 2.27174 2.87728 0
M  V30 5079 H 456.241 0.91206 4.94662 0
M  V30 5080 H 455.941 2.64193 5.24858 0
M  V30 5081 H 457.465 1.89367 5.80493 0
M  V30 5082 H 458.879 3.67719 4.39836 0
M  V30 5083 H 457.276 4.40123 4.07936 0
M  V30 5084 H 458.346 4.01443 2.71977 0
M  V30 5085 N 459.689 -1.00246 1.21608 0
M  V30 5086 C 460.599 -2.12515 0.993709 0
M  V30 5087 C 461.615 -1.73913 -0.0549939 0
M  V30 5088 O 462.791 -2.00943 0.135619 0
M  V30 5089 C 459.856 -3.42083 0.563953 0
M  V30 5090 C 458.917 -3.94843 1.68516 0
M  V30 5091 C 458.15 -5.18226 1.27582 0
M  V30 5092 O 458.373 -5.70201 0.150506 0
M  V30 5093 O 457.307 -5.64497 2.0887 0
M  V30 5094 H 461.133 -2.34152 1.93407 0
M  V30 5095 H 458.718 -1.10891 1.00118 0
M  V30 5096 H 460.6 -4.20073 0.334194 0
M  V30 5097 H 459.275 -3.21828 -0.347665 0
M  V30 5098 H 458.182 -3.18068 1.96935 0
M  V30 5099 H 459.515 -4.19512 2.5743 0
M  V30 5100 N 461.167 -1.02423 -1.1978 0
M  V30 5101 C 462.117 -0.571689 -2.20716 0
M  V30 5102 C 463.101 0.377077 -1.56419 0
M  V30 5103 O 464.293 0.198801 -1.7588 0
M  V30 5104 C 461.422 0.0808555 -3.43205 0
M  V30 5105 C 460.508 -0.890073 -4.14655 0
M  V30 5106 N 460.899 -2.05065 -4.62366 0
M  V30 5107 C 459.197 -0.71252 -4.40272 0
M  V30 5108 C 459.898 -2.66264 -5.17183 0
M  V30 5109 N 458.874 -1.94264 -5.07703 0
M  V30 5110 H 462.676 -1.45636 -2.55279 0
M  V30 5111 H 460.19 -0.890596 -1.35802 0
M  V30 5112 H 462.187 0.422654 -4.14752 0
M  V30 5113 H 460.847 0.961274 -3.10144 0
M  V30 5114 H 461.858 -2.43026 -4.57339 0
M  V30 5115 H 458.535 0.119199 -4.1733 0
M  V30 5116 H 459.925 -3.64526 -5.64421 0
M  V30 5117 N 462.645 1.35699 -0.801477 0
M  V30 5118 C 463.893 1.9852 -0.37871 0
M  V30 5119 C 464.214 1.63907 1.05638 0
M  V30 5120 O 463.484 0.919013 1.73006 0
M  V30 5121 H 462.064 0.734322 -0.137042 0
M  V30 5122 H 464.726 1.65697 -1.02619 0
M  V30 5123 H 463.822 3.08382 -0.480284 0
M  V30 5124 N 464.123 0.554532 1.47522 0
M  V30 5125 C 465.073 -0.215008 2.26984 0
M  V30 5126 C 466.057 -0.88774 1.34194 0
M  V30 5127 O 467.249 -0.786489 1.58567 0
M  V30 5128 C 464.378 -1.24604 3.19889 0
M  V30 5129 C 463.464 -0.576857 4.20159 0
M  V30 5130 N 463.855 0.351541 5.04577 0
M  V30 5131 C 462.153 -0.831104 4.38188 0
M  V30 5132 C 462.854 0.739995 5.76974 0
M  V30 5133 N 461.83 0.0954407 5.43516 0
M  V30 5134 H 465.632 0.498843 2.89636 0
M  V30 5135 H 463.146 0.374279 1.58028 0
M  V30 5136 H 465.143 -1.81128 3.75498 0
M  V30 5137 H 463.803 -1.96101 2.58794 0
M  V30 5138 H 464.814 0.725556 5.12792 0
M  V30 5139 H 461.491 -1.53479 3.88266 0
M  V30 5140 H 462.881 1.50271 6.5488 0
M  V30 5141 N 465.601 -1.54893 0.290851 0
M  V30 5142 C 466.847 -2.0023 -0.321867 0
M  V30 5143 C 467.18 -1.179 -1.54316 0
M  V30 5144 O 466.455 -0.25293 -1.92848 0
M  V30 5145 C 466.738 -3.53456 -0.688515 0
M  V30 5146 C 466.591 -4.46532 0.541209 0
M  V30 5147 C 467.91 -4.13057 -1.51895 0
M  V30 5148 H 465.029 -0.727891 -0.115515 0
M  V30 5149 H 467.671 -1.85722 0.400931 0
M  V30 5150 H 465.821 -3.6595 -1.30433 0
M  V30 5151 H 467.493 -4.4596 1.17973 0
M  V30 5152 H 465.736 -4.17545 1.17636 0
M  V30 5153 H 466.407 -5.51475 0.240675 0
M  V30 5154 H 468.883 -4.03937 -0.99872 0
M  V30 5155 H 467.759 -5.20448 -1.74429 0
M  V30 5156 H 468.02 -3.64284 -2.50498 0
M  V30 5157 N 467.08 -0.0183926 -1.57589 0
M  V30 5158 C 467.99 0.982943 -2.13015 0
M  V30 5159 C 469.006 1.36443 -1.07979 0
M  V30 5160 O 470.182 1.44802 -1.3998 0
M  V30 5161 C 467.247 2.25024 -2.63752 0
M  V30 5162 C 466.308 1.93018 -3.83461 0
M  V30 5163 C 465.541 3.13706 -4.31769 0
M  V30 5164 O 465.764 4.2601 -3.79305 0
M  V30 5165 O 464.698 2.96629 -5.23732 0
M  V30 5166 H 468.524 0.541709 -2.9883 0
M  V30 5167 H 466.109 0.201565 -1.48034 0
M  V30 5168 H 467.991 2.99441 -2.96502 0
M  V30 5169 H 466.666 2.68349 -1.81026 0
M  V30 5170 H 465.573 1.16019 -3.55655 0
M  V30 5171 H 466.906 1.54516 -4.67317 0
M  V30 5172 N 468.558 1.5553 0.254621 0
M  V30 5173 C 469.804 1.7818 0.980989 0
M  V30 5174 C 470.159 0.586059 1.83257 0
M  V30 5175 O 469.452 -0.420889 1.8692 0
M  V30 5176 C 469.646 3.03891 1.88109 0
M  V30 5177 C 469.475 4.35578 1.11812 0
M  V30 5178 C 468.245 4.98497 0.826343 0
M  V30 5179 C 470.443 5.11869 0.499486 0
M  V30 5180 N 468.425 6.13888 0.0385095 0
M  V30 5181 C 469.796 6.1981 -0.153292 0
M  V30 5182 C 471.851 4.96216 0.409175 0
M  V30 5183 C 470.554 7.13801 -0.8877 0
M  V30 5184 C 472.58 5.90578 -0.311683 0
M  V30 5185 C 471.942 6.97922 -0.953129 0
M  V30 5186 H 468.041 0.704057 0.340335 0
M  V30 5187 H 470.625 1.93025 0.254855 0
M  V30 5188 H 468.796 2.90389 2.57932 0
M  V30 5189 H 470.528 3.14869 2.54244 0
M  V30 5190 H 467.283 4.59769 1.13621 0
M  V30 5191 H 467.707 6.76129 -0.343275 0
M  V30 5192 H 472.349 4.1331 0.890765 0
M  V30 5193 H 470.067 7.96214 -1.38092 0
M  V30 5194 H 473.653 5.80544 -0.382125 0
M  V30 5195 H 472.533 7.69681 -1.50203 0
M  V30 5196 N 470.036 -0.519951 1.48776 0
M  V30 5197 C 471.261 -1.30447 1.6124 0
M  V30 5198 C 471.686 -1.86055 0.276591 0
M  V30 5199 O 471.044 -1.64915 -0.753183 0
M  V30 5200 C 471.092 -2.42406 2.66967 0
M  V30 5201 O 470.196 -3.45728 2.24824 0
M  V30 5202 H 469.537 -0.385924 0.540332 0
M  V30 5203 H 472.067 -0.624572 1.94834 0
M  V30 5204 H 472.077 -2.88447 2.88552 0
M  V30 5205 H 470.752 -2.01294 3.63941 0
M  V30 5206 H 469.329 -3.05737 2.13494 0
M  V30 5207 N 471.514 -1.37532 -0.769588 0
M  V30 5208 C 472.739 -1.36231 -1.56384 0
M  V30 5209 C 473.164 0.0495849 -1.88035 0
M  V30 5210 O 472.522 1.02723 -1.49391 0
M  V30 5211 C 472.57 -2.20986 -2.84952 0
M  V30 5212 O 471.674 -1.61597 -3.79421 0
M  V30 5213 H 471.015 -0.465387 -0.473615 0
M  V30 5214 H 473.545 -1.81085 -0.952342 0
M  V30 5215 H 473.555 -2.34277 -3.34034 0
M  V30 5216 H 472.23 -3.23612 -2.61243 0
M  V30 5217 H 470.807 -1.57359 -3.38072 0
M  V30 5218 N 472.992 0.995999 -1.22138 0
M  V30 5219 C 474.408 1.25917 -0.980667 0
M  V30 5220 C 474.608 1.98819 0.327604 0
M  V30 5221 O 473.664 2.29587 1.05101 0
M  V30 5222 C 474.977 2.07399 -2.17729 0
M  V30 5223 C 476.525 2.20594 -2.22052 0
M  V30 5224 C 477 3.05462 -3.41258 0
M  V30 5225 N 478.491 3.13049 -3.41401 0
M  V30 5226 C 479.226 3.78997 -4.30289 0
M  V30 5227 N 478.722 4.46899 -5.2939 0
M  V30 5228 N 480.515 3.75728 -4.18073 0
M  V30 5229 H 472.666 0.507158 -2.06256 0
M  V30 5230 H 474.929 0.28658 -0.903646 0
M  V30 5231 H 474.635 1.61191 -3.12586 0
M  V30 5232 H 474.509 3.08154 -2.17534 0
M  V30 5233 H 476.896 2.66017 -1.27745 0
M  V30 5234 H 476.977 1.1928 -2.26287 0
M  V30 5235 H 476.621 2.60739 -4.35864 0
M  V30 5236 H 476.551 4.06911 -3.34262 0
M  V30 5237 H 479.042 2.64721 -2.69688 0
M  V30 5238 H 479.355 4.94952 -5.935 0
M  V30 5239 H 477.7 4.45657 -5.33306 0
M  V30 5240 H 480.891 3.2184 -3.39907 0
M  V30 5241 H 481.064 4.26845 -4.87553 0
M  V30 5242 N 474.47 1.03057 1.19235 0
M  V30 5243 C 475.718 0.726581 1.88587 0
M  V30 5244 C 476.039 -0.747227 1.80115 0
M  V30 5245 O 475.309 -1.53849 1.21274 0
M  V30 5246 H 473.889 0.265768 0.698124 0
M  V30 5247 H 476.551 1.30516 1.44746 0
M  V30 5248 H 475.647 1.0224 2.94879 0
M  V30 5249 N 475.948 -1.35272 0.808662 0
M  V30 5250 C 477.359 -1.81179 0.450688 0
M  V30 5251 C 477.71 -1.67143 -1.02751 0
M  V30 5252 O 476.835 -1.20325 -1.79864 0
M  V30 5253 C 477.43 -3.28943 0.811275 0
M  V30 5254 C 475.989 -3.72985 0.505871 0
M  V30 5255 C 475.136 -2.57229 1.03578 0
M  V30 5256 H 478.087 -1.2322 1.00012 0
M  V30 5257 H 478.108 -3.80342 0.109588 0
M  V30 5258 H 477.62 -3.39127 1.88718 0
M  V30 5259 H 475.721 -3.68349 -0.561209 0
M  V30 5260 H 475.834 -4.67677 1.03995 0
M  V30 5261 H 474.198 -2.50548 0.458005 0
M  V30 5262 H 474.981 -2.7019 2.11784 0
M  V30 5263 N 477.426 -0.562348 -1.47226 0
M  V30 5264 C 478.837 -0.130325 -1.86245 0
M  V30 5265 C 479.188 1.30128 -1.46838 0
M  V30 5266 O 478.313 1.97974 -0.873805 0
M  V30 5267 C 478.908 -0.229738 -3.3802 0
M  V30 5268 C 477.467 0.14728 -3.76112 0
M  V30 5269 C 476.614 -0.574971 -2.71274 0
M  V30 5270 H 479.565 -0.771773 -1.3867 0
M  V30 5271 H 479.586 0.550316 -3.76499 0
M  V30 5272 H 479.098 -1.27178 -3.66671 0
M  V30 5273 H 477.199 1.19023 -3.53078 0
M  V30 5274 H 477.312 -0.214858 -4.78618 0
M  V30 5275 H 475.676 -0.0174756 -2.54694 0
M  V30 5276 H 476.459 -1.61827 -3.02766 0
M  V30 5277 N 478.904 1.54736 -0.299062 0
M  V30 5278 C 479.852 2.24897 0.593658 0
M  V30 5279 C 480.846 1.25429 1.13859 0
M  V30 5280 O 482.052 1.43286 1.08945 0
M  V30 5281 H 478.427 0.72207 0.210046 0
M  V30 5282 H 480.398 2.98393 -0.0206421 0
M  V30 5283 C 479.147 3.00159 1.75499 0
M  V30 5284 H 478.47 3.76501 1.34489 0
M  V30 5285 H 479.91 3.52535 2.35574 0
M  V30 5286 C 478.369 2.07015 2.65794 0
M  V30 5287 O 478.899 1.63692 3.66835 0
M  V30 5288 N 477.105 1.73012 2.33485 0
M  V30 5289 H 476.652 2.08439 1.51364 0
M  V30 5290 H 476.61 1.10965 2.94167 0
M  V30 5291 N 480.382 0.0267497 1.57577 0
M  V30 5292 C 481.329 -0.955894 2.10075 0
M  V30 5293 C 482.299 -1.32453 1.00226 0
M  V30 5294 O 483.484 -1.41826 1.27632 0
M  V30 5295 C 480.624 -2.2338 2.6305 0
M  V30 5296 C 479.737 -1.92183 3.86898 0
M  V30 5297 C 478.872 -3.14251 4.28275 0
M  V30 5298 C 477.911 -2.78862 5.44888 0
M  V30 5299 N 477.048 -3.93548 5.81433 0
M  V30 5300 H 481.888 -0.501303 2.93753 0
M  V30 5301 H 479.425 -0.235847 1.45197 0
M  V30 5302 H 481.383 -2.98124 2.91853 0
M  V30 5303 H 480.013 -2.6646 1.82205 0
M  V30 5304 H 479.065 -1.07692 3.64838 0
M  V30 5305 H 480.377 -1.62117 4.7172 0
M  V30 5306 H 479.531 -3.97317 4.58502 0
M  V30 5307 H 478.27 -3.47476 3.42215 0
M  V30 5308 H 477.275 -1.94208 5.14357 0
M  V30 5309 H 478.5 -2.46855 6.32645 0
M  V30 5310 H 476.446 -4.2662 4.98328 0
M  V30 5311 H 476.363 -3.67098 6.6089 0
M  V30 5312 H 477.631 -4.77325 6.16264 0
M  V30 5313 N 481.861 -1.55662 -0.24637 0
M  V30 5314 C 483.277 -1.48098 -0.594907 0
M  V30 5315 C 483.477 -0.717044 -1.8831 0
M  V30 5316 O 482.533 -0.246618 -2.51293 0
M  V30 5317 C 483.846 -2.92507 -0.697146 0
M  V30 5318 C 485.394 -3.02881 -0.789436 0
M  V30 5319 C 485.869 -4.48598 -0.923232 0
M  V30 5320 N 487.36 -4.52538 -0.988088 0
M  V30 5321 C 488.095 -5.62536 -1.11089 0
M  V30 5322 N 487.591 -6.82342 -1.19919 0
M  V30 5323 N 489.384 -5.50334 -1.14408 0
M  V30 5324 H 481.535 -2.0377 0.599278 0
M  V30 5325 H 483.798 -0.925145 0.20691 0
M  V30 5326 H 483.504 -3.51242 0.179396 0
M  V30 5327 H 483.378 -3.43024 -1.5689 0
M  V30 5328 H 485.765 -2.44226 -1.65643 0
M  V30 5329 H 485.846 -2.55574 0.107482 0
M  V30 5330 H 485.49 -5.07864 -0.0607927 0
M  V30 5331 H 485.42 -4.93587 -1.8352 0
M  V30 5332 H 487.911 -3.66248 -0.931167 0
M  V30 5333 H 488.224 -7.61924 -1.29197 0
M  V30 5334 H 486.569 -6.85102 -1.16876 0
M  V30 5335 H 489.76 -4.5567 -1.07158 0
M  V30 5336 H 489.933 -6.36096 -1.23634 0
M  V30 5337 N 483.339 0.512053 -1.4905 0
M  V30 5338 C 484.586 1.26686 -1.57978 0
M  V30 5339 C 484.914 1.92733 -0.261553 0
M  V30 5340 O 484.169 1.80772 0.749667 0
M  V30 5341 C 484.468 2.36446 -2.68008 0
M  V30 5342 C 484.134 1.87932 -4.09869 0
M  V30 5343 C 482.796 1.74419 -4.48477 0
M  V30 5344 C 485.148 1.5149 -4.98698 0
M  V30 5345 C 482.476 1.22827 -5.73699 0
M  V30 5346 C 484.828 1.01355 -6.24428 0
M  V30 5347 C 483.492 0.864735 -6.61875 0
M  V30 5348 H 482.762 0.463577 -0.578081 0
M  V30 5349 H 485.409 0.569421 -1.82838 0
M  V30 5350 H 483.714 3.11933 -2.37076 0
M  V30 5351 H 485.411 2.9453 -2.72127 0
M  V30 5352 H 482.001 1.99405 -3.79389 0
M  V30 5353 H 486.185 1.60782 -4.69535 0
M  V30 5354 H 481.441 1.10008 -6.01422 0
M  V30 5355 H 485.615 0.722351 -6.92644 0
M  V30 5356 H 483.242 0.462777 -7.5879 0
M  V30 5357 N 484.817 1.37938 0.762283 0
M  V30 5358 C 486.047 1.36685 1.54922 0
M  V30 5359 C 486.455 -0.0474099 1.89141 0
M  V30 5360 O 485.798 -1.02213 1.52638 0
M  V30 5361 C 485.86 2.14963 2.88152 0
M  V30 5362 C 485.524 3.6385 2.76518 0
M  V30 5363 C 486.521 4.57531 2.46904 0
M  V30 5364 C 484.206 4.07095 2.94243 0
M  V30 5365 C 486.2 5.92436 2.35156 0
M  V30 5366 C 483.887 5.42083 2.82116 0
M  V30 5367 C 484.885 6.34567 2.52614 0
M  V30 5368 O 484.573 7.67073 2.40529 0
M  V30 5369 H 484.305 0.469586 0.486276 0
M  V30 5370 H 486.859 1.82012 0.951876 0
M  V30 5371 H 485.089 1.6434 3.50042 0
M  V30 5372 H 486.778 2.06224 3.49609 0
M  V30 5373 H 487.544 4.25428 2.32886 0
M  V30 5374 H 483.423 3.35462 3.16206 0
M  V30 5375 H 486.967 6.64591 2.12049 0
M  V30 5376 H 482.864 5.73785 2.95704 0
M  V30 5377 H 483.632 7.77499 2.55807 0
M  V30 5378 N 486.295 -0.989507 1.22664 0
M  V30 5379 C 487.205 -2.11449 1.01619 0
M  V30 5380 C 488.221 -1.73962 -0.036545 0
M  V30 5381 O 489.397 -2.00788 0.156924 0
M  V30 5382 C 486.462 -3.41465 0.600204 0
M  V30 5383 C 485.523 -3.93033 1.72695 0
M  V30 5384 C 484.756 -5.16844 1.33071 0
M  V30 5385 O 484.979 -5.7001 0.210975 0
M  V30 5386 O 483.913 -5.6225 2.14845 0
M  V30 5387 H 487.739 -2.32088 1.9588 0
M  V30 5388 H 485.324 -1.09823 1.01289 0
M  V30 5389 H 487.206 -4.19695 0.37873 0
M  V30 5390 H 485.881 -3.22178 -0.313511 0
M  V30 5391 H 484.788 -3.15961 2.00298 0
M  V30 5392 H 486.121 -4.16758 2.61865 0
M  V30 5393 N 487.773 -1.03688 -1.18687 0
M  V30 5394 C 488.72 -0.624624 -2.22187 0
M  V30 5395 C 489.69 0.365636 -1.62026 0
M  V30 5396 O 490.875 0.260481 -1.89014 0
M  V30 5397 C 488.015 0.0101738 -3.45099 0
M  V30 5398 C 487.128 -1.02709 -4.19613 0
M  V30 5399 C 486.263 -0.361213 -5.2997 0
M  V30 5400 C 485.302 -1.38384 -5.96252 0
M  V30 5401 N 484.439 -0.743196 -6.98155 0
M  V30 5402 H 489.279 -1.51176 -2.56807 0
M  V30 5403 H 486.816 -0.75636 -1.26165 0
M  V30 5404 H 488.774 0.395528 -4.15321 0
M  V30 5405 H 487.404 0.860848 -3.1111 0
M  V30 5406 H 486.456 -1.53043 -3.48256 0
M  V30 5407 H 487.768 -1.80398 -4.65036 0
M  V30 5408 H 486.922 0.0785537 -6.06649 0
M  V30 5409 H 485.661 0.447799 -4.8564 0
M  V30 5410 H 484.666 -1.83378 -5.18317 0
M  V30 5411 H 485.891 -2.19448 -6.42666 0
M  V30 5412 H 483.837 0.0455789 -6.55984 0
M  V30 5413 H 483.754 -1.45784 -7.41811 0
M  V30 5414 H 485.022 -0.327698 -7.78811 0
M  V30 5415 N 489.251 1.34841 -0.815825 0
M  V30 5416 C 490.214 2.27959 -0.238185 0
M  V30 5417 C 491.214 1.49983 0.579816 0
M  V30 5418 O 492.404 1.69617 0.396953 0
M  V30 5419 C 489.536 3.34314 0.666876 0
M  V30 5420 H 490.729 2.80558 -1.05958 0
M  V30 5421 H 488.282 1.44852 -0.587156 0
M  V30 5422 H 489.017 2.86916 1.5116 0
M  V30 5423 H 488.802 3.92014 0.0819106 0
M  V30 5424 H 490.292 4.0379 1.06506 0
M  V30 5425 N 490.729 0.570148 1.46925 0
M  V30 5426 C 491.639 -0.173061 2.33961 0
M  V30 5427 C 492.655 -0.898825 1.48987 0
M  V30 5428 O 493.831 -0.864825 1.81887 0
M  V30 5429 C 490.896 -1.18177 3.25937 0
M  V30 5430 C 489.957 -0.462041 4.26806 0
M  V30 5431 C 489.19 -1.4227 5.14388 0
M  V30 5432 O 489.413 -2.65842 5.04662 0
M  V30 5433 O 488.347 -0.940127 5.94513 0
M  V30 5434 H 492.173 0.541216 2.98839 0
M  V30 5435 H 489.758 0.330647 1.45695 0
M  V30 5436 H 491.64 -1.76372 3.82715 0
M  V30 5437 H 490.315 -1.87774 2.63671 0
M  V30 5438 H 489.222 0.161429 3.73752 0
M  V30 5439 H 490.555 0.192719 4.91823 0
M  V30 5440 N 492.207 -1.54576 0.307264 0
M  V30 5441 C 493.117 -2.27435 -0.57536 0
M  V30 5442 C 494.133 -1.31183 -1.14311 0
M  V30 5443 O 495.309 -1.64175 -1.16656 0
M  V30 5444 C 492.374 -3.00566 -1.72803 0
M  V30 5445 C 491.435 -4.12369 -1.19373 0
M  V30 5446 C 490.668 -4.82003 -2.29147 0
M  V30 5447 O 490.891 -4.51038 -3.49171 0
M  V30 5448 O 489.825 -5.69271 -1.95485 0
M  V30 5449 H 493.651 -3.03696 0.0158558 0
M  V30 5450 H 491.236 -1.49219 0.0735064 0
M  V30 5451 H 493.118 -3.46416 -2.39946 0
M  V30 5452 H 491.793 -2.27195 -2.30574 0
M  V30 5453 H 490.7 -3.70905 -0.487851 0
M  V30 5454 H 492.033 -4.87736 -0.661376 0
M  V30 5455 N 493.685 -0.035106 -1.57561 0
M  V30 5456 C 494.91 0.655802 -1.96759 0
M  V30 5457 C 495.335 1.64523 -0.911809 0
M  V30 5458 O 494.693 1.80857 0.126673 0
M  V30 5459 C 494.741 1.33326 -3.35047 0
M  V30 5460 O 493.845 2.44866 -3.31835 0
M  V30 5461 H 493.186 0.171807 -0.641388 0
M  V30 5462 H 495.716 -0.0987369 -2.04362 0
M  V30 5463 H 495.726 1.68867 -3.71413 0
M  V30 5464 H 494.401 0.608033 -4.11431 0
M  V30 5465 H 492.978 2.11392 -3.07193 0
M  V30 5466 N 495.163 1.55791 0.238111 0
M  V30 5467 C 496.11 1.9105 1.29493 0
M  V30 5468 C 497.08 0.765733 1.47397 0
M  V30 5469 O 498.265 1.02017 1.61236 0
M  V30 5470 C 495.405 2.21826 2.64362 0
M  V30 5471 C 494.518 3.49153 2.54394 0
M  V30 5472 C 493.653 3.69455 3.81676 0
M  V30 5473 C 492.692 4.90353 3.66361 0
M  V30 5474 N 491.829 5.07131 4.85554 0
M  V30 5475 H 496.669 2.81172 0.987233 0
M  V30 5476 H 494.206 1.39179 0.476203 0
M  V30 5477 H 496.164 2.37675 3.4288 0
M  V30 5478 H 494.794 1.34897 2.93262 0
M  V30 5479 H 493.846 3.41587 1.67399 0
M  V30 5480 H 495.158 4.37818 2.38991 0
M  V30 5481 H 494.312 3.85311 4.68636 0
M  V30 5482 H 493.051 2.7904 3.99985 0
M  V30 5483 H 492.056 4.74464 2.77784 0
M  V30 5484 H 493.281 5.82237 3.49538 0
M  V30 5485 H 491.227 4.19654 5.04209 0
M  V30 5486 H 491.144 5.89899 4.72816 0
M  V30 5487 H 492.412 5.27407 5.73988 0
M  V30 5488 N 496.642 -0.504142 1.49319 0
M  V30 5489 C 497.572 -1.61473 1.68667 0
M  V30 5490 C 498.553 -1.61455 0.535378 0
M  V30 5491 O 499.738 -1.78245 0.770868 0
M  V30 5492 C 496.868 -2.99971 1.75028 0
M  V30 5493 C 495.822 -3.14854 2.89916 0
M  V30 5494 C 495.148 -4.54671 2.81387 0
M  V30 5495 C 496.448 -2.95176 4.30893 0
M  V30 5496 H 498.142 -1.45535 2.61648 0
M  V30 5497 H 495.688 -0.698711 1.25913 0
M  V30 5498 H 497.641 -3.77562 1.8715 0
M  V30 5499 H 496.365 -3.1699 0.786441 0
M  V30 5500 H 495.024 -2.39687 2.77391 0
M  V30 5501 H 494.672 -4.68562 1.82917 0
M  V30 5502 H 494.372 -4.6557 3.58494 0
M  V30 5503 H 495.896 -5.34327 2.95512 0
M  V30 5504 H 497.31 -3.62538 4.44116 0
M  V30 5505 H 495.707 -3.17549 5.09198 0
M  V30 5506 H 496.777 -1.91332 4.45556 0
M  V30 5507 N 498.12 -1.38341 -0.754957 0
M  V30 5508 C 499.531 -1.30803 -1.3322 0
M  V30 5509 C 499.882 0.0368 -1.96165 0
M  V30 5510 O 499.007 0.938844 -1.94974 0
M  V30 5511 C 499.602 -2.3688 -2.42225 0
M  V30 5512 C 498.161 -2.32925 -2.95674 0
M  V30 5513 C 497.308 -2.19819 -1.69042 0
M  V30 5514 H 500.259 -1.48719 -0.553937 0
M  V30 5515 H 500.28 -2.02517 -3.22129 0
M  V30 5516 H 499.792 -3.34747 -1.96383 0
M  V30 5517 H 497.893 -1.38635 -3.45848 0
M  V30 5518 H 498.006 -3.27008 -3.50146 0
M  V30 5519 H 496.37 -1.66648 -1.92615 0
M  V30 5520 H 497.153 -3.19625 -1.25279 0
M  V30 5521 N 499.598 0.982988 -1.23187 0
M  V30 5522 C 500.508 2.10907 -1.02739 0
M  V30 5523 C 501.524 1.73979 0.0273188 0
M  V30 5524 O 502.7 2.00702 -0.16757 0
M  V30 5525 C 499.765 3.41142 -0.618304 0
M  V30 5526 C 498.826 3.92112 -1.74777 0
M  V30 5527 C 498.059 5.16131 -1.3581 0
M  V30 5528 O 498.282 5.6989 -0.241201 0
M  V30 5529 O 497.216 5.61103 -2.17824 0
M  V30 5530 H 501.042 2.31046 -1.97108 0
M  V30 5531 H 498.627 1.09284 -1.01869 0
M  V30 5532 H 500.509 4.19488 -0.400982 0
M  V30 5533 H 499.184 3.2234 0.296421 0
M  V30 5534 H 498.091 3.14895 -2.0197 0
M  V30 5535 H 499.424 4.15364 -2.64071 0
M  V30 5536 N 501.076 1.04316 1.18135 0
M  V30 5537 C 502.325 0.74319 1.87509 0
M  V30 5538 C 502.638 -0.732136 1.81381 0
M  V30 5539 O 503.844 -1.14572 2.46141 0
M  V30 5540 C 502.3 1.27913 3.36402 0
M  V30 5541 C 501.908 2.78326 3.51053 0
M  V30 5542 C 503.652 1.0558 4.11161 0
M  V30 5543 C 501.559 3.25266 4.93919 0
M  V30 5544 H 500.489 0.274313 0.702331 0
M  V30 5545 H 503.14 1.25931 1.33467 0
M  V30 5546 H 501.522 0.690853 3.89927 0
M  V30 5547 H 502.696 3.42933 3.07788 0
M  V30 5548 H 501.011 2.991 2.89704 0
M  V30 5549 H 503.608 1.38161 5.16542 0
M  V30 5550 H 503.951 -0.00684729 4.16299 0
M  V30 5551 H 504.484 1.60882 3.63816 0
M  V30 5552 H 501.223 4.30922 4.9395 0
M  V30 5553 H 500.743 2.65396 5.3789 0
M  V30 5554 H 502.422 3.19433 5.62647 0
M  V30 5555 N 502.554 -1.34406 0.822964 0
M  V30 5556 C 503.484 -2.32052 0.259608 0
M  V30 5557 C 504.465 -1.58243 -0.623961 0
M  V30 5558 O 505.65 -1.86224 -0.55083 0
M  V30 5559 C 502.78 -3.42434 -0.579314 0
M  V30 5560 C 501.734 -4.27499 0.20712 0
M  V30 5561 C 501.06 -5.29349 -0.754547 0
M  V30 5562 C 502.36 -5.02758 1.41533 0
M  V30 5563 H 504.054 -2.79418 1.07545 0
M  V30 5564 H 501.6 -1.34338 0.518593 0
M  V30 5565 H 503.553 -4.0976 -0.983612 0
M  V30 5566 H 502.277 -2.93717 -1.4282 0
M  V30 5567 H 500.936 -3.61776 0.592787 0
M  V30 5568 H 500.584 -4.76895 -1.59939 0
M  V30 5569 H 500.284 -5.8714 -0.232561 0
M  V30 5570 H 501.808 -5.99544 -1.1567 0
M  V30 5571 H 503.222 -5.62938 1.08504 0
M  V30 5572 H 501.619 -5.70123 1.87296 0
M  V30 5573 H 502.689 -4.32451 2.1935 0
M  V30 5574 N 504.032 -0.577932 -1.46621 0
M  V30 5575 C 504.979 0.158048 -2.30258 0
M  V30 5576 C 505.949 0.888669 -1.40328 0
M  V30 5577 O 507.134 0.880283 -1.6928 0
M  V30 5578 C 504.274 1.16884 -3.24703 0
M  V30 5579 C 503.387 0.442163 -4.29731 0
M  V30 5580 C 502.522 1.44007 -5.11308 0
M  V30 5581 C 501.561 0.69952 -6.0809 0
M  V30 5582 N 500.698 1.64525 -6.82551 0
M  V30 5583 H 505.538 -0.561242 -2.92667 0
M  V30 5584 H 503.075 -0.288591 -1.44241 0
M  V30 5585 H 505.033 1.7677 -3.779 0
M  V30 5586 H 503.663 1.85591 -2.64113 0
M  V30 5587 H 502.715 -0.271632 -3.79429 0
M  V30 5588 H 504.027 -0.136992 -4.98612 0
M  V30 5589 H 503.181 2.11186 -5.68758 0
M  V30 5590 H 501.92 2.05315 -4.42377 0
M  V30 5591 H 500.925 0.0139217 -5.49798 0
M  V30 5592 H 502.15 0.091894 -6.79038 0
M  V30 5593 H 500.096 2.24653 -6.16334 0
M  V30 5594 H 500.013 1.11878 -7.47676 0
M  V30 5595 H 501.281 2.30754 -7.44562 0
M  V30 5596 N 505.51 1.54411 -0.315457 0
M  V30 5597 C 506.42 2.27737 0.56329 0
M  V30 5598 C 507.436 1.31787 1.13614 0
M  V30 5599 O 508.612 1.64791 1.15784 0
M  V30 5600 C 505.677 3.01478 1.71207 0
M  V30 5601 C 504.738 4.12997 1.17185 0
M  V30 5602 C 503.971 4.83212 2.26588 0
M  V30 5603 O 504.194 4.52884 3.46775 0
M  V30 5604 O 503.128 5.70299 1.92463 0
M  V30 5605 H 506.954 3.03683 -0.0319614 0
M  V30 5606 H 504.539 1.49178 -0.0814188 0
M  V30 5607 H 506.421 3.47683 2.38106 0
M  V30 5608 H 505.096 2.28414 2.29366 0
M  V30 5609 H 504.003 3.71159 0.468174 0
M  V30 5610 H 505.336 4.8808 0.635501 0
M  V30 5611 N 506.988 0.0434614 1.5754 0
M  V30 5612 C 508.228 -0.636023 1.94253 0
M  V30 5613 C 508.592 -1.68461 0.921132 0
M  V30 5614 O 509.793 -2.41762 1.17494 0
M  V30 5615 C 508.064 -1.22357 3.35803 0
M  V30 5616 S 509.623 -1.92213 3.94461 0
M  V30 5617 H 506.441 -0.209041 0.679575 0
M  V30 5618 H 509.043 0.110556 1.95187 0
M  V30 5619 H 507.747 -0.448162 4.07946 0
M  V30 5620 H 507.278 -2.00713 3.38346 0
M  V30 5621 H 509.293 -3.20199 3.79061 0
M  V30 5622 N 508.466 -1.55915 -0.229846 0
M  V30 5623 C 509.399 -1.86734 -1.3117 0
M  V30 5624 C 510.377 -0.723947 -1.45595 0
M  V30 5625 O 511.561 -0.971462 -1.61539 0
M  V30 5626 C 508.688 -2.06707 -2.68309 0
M  V30 5627 C 507.734 -3.2938 -2.70944 0
M  V30 5628 S 508.567 -4.85547 -2.25842 0
M  V30 5629 C 509.723 -5.08546 -3.64873 0
M  V30 5630 H 509.956 -2.78204 -1.04832 0
M  V30 5631 H 507.489 -1.48243 -0.431681 0
M  V30 5632 H 509.447 -2.18898 -3.47267 0
M  V30 5633 H 508.108 -1.16049 -2.91876 0
M  V30 5634 H 507.301 -3.40374 -3.71701 0
M  V30 5635 H 506.903 -3.16004 -2.00044 0
M  V30 5636 H 509.195 -4.96935 -4.60502 0
M  V30 5637 H 510.138 -6.10465 -3.58801 0
M  V30 5638 H 510.546 -4.36314 -3.58176 0
M  V30 5639 N 509.944 0.496216 -1.49584 0
M  V30 5640 C 510.891 1.59722 -1.66606 0
M  V30 5641 C 511.861 1.58158 -0.507477 0
M  V30 5642 O 513.046 1.76072 -0.735076 0
M  V30 5643 C 510.186 2.97844 -1.74308 0
M  V30 5644 C 509.299 3.09388 -3.01502 0
M  V30 5645 C 508.434 4.38271 -3.00153 0
M  V30 5646 C 507.473 4.43466 -4.21906 0
M  V30 5647 N 506.61 5.63784 -4.1844 0
M  V30 5648 H 511.45 1.44515 -2.60613 0
M  V30 5649 H 508.987 0.703048 -1.29212 0
M  V30 5650 H 510.945 3.77907 -1.76754 0
M  V30 5651 H 509.575 3.11743 -0.837619 0
M  V30 5652 H 508.627 2.22357 -3.08645 0
M  V30 5653 H 509.939 3.09085 -3.91494 0
M  V30 5654 H 509.093 5.2666 -3.01188 0
M  V30 5655 H 507.832 4.41146 -2.07947 0
M  V30 5656 H 506.837 3.53478 -4.21109 0
M  V30 5657 H 508.062 4.42303 -5.1531 0
M  V30 5658 H 506.008 5.67491 -3.29074 0
M  V30 5659 H 505.925 5.65118 -5.02173 0
M  V30 5660 H 507.193 6.54367 -4.23585 0
M  V30 5661 N 511.423 1.38739 0.74761 0
M  V30 5662 C 512.353 1.39173 1.87492 0
M  V30 5663 C 513.334 0.256794 1.6815 0
M  V30 5664 O 514.519 0.460762 1.88655 0
M  V30 5665 C 511.649 1.22197 3.25093 0
M  V30 5666 C 510.603 2.32957 3.59047 0
M  V30 5667 C 509.929 2.01082 4.95449 0
M  V30 5668 C 511.229 3.75237 3.6331 0
M  V30 5669 H 512.923 2.3351 1.87386 0
M  V30 5670 H 510.469 1.12399 0.900134 0
M  V30 5671 H 512.422 1.21124 4.03617 0
M  V30 5672 H 511.146 0.243241 3.25693 0
M  V30 5673 H 509.805 2.33226 2.82845 0
M  V30 5674 H 509.453 1.01678 4.92616 0
M  V30 5675 H 509.153 2.75267 5.19136 0
M  V30 5676 H 510.677 2.01638 5.76346 0
M  V30 5677 H 512.091 3.76966 4.31937 0
M  V30 5678 H 510.488 4.48677 3.98509 0
M  V30 5679 H 511.558 4.07122 2.634 0
M  V30 5680 N 512.901 -0.976442 1.23707 0
M  V30 5681 C 514.148 -1.71827 1.07153 0
M  V30 5682 C 514.476 -1.9053 -0.390982 0
M  V30 5683 O 513.731 -1.45779 -1.30564 0
M  V30 5684 C 514.03 -3.11814 1.74662 0
M  V30 5685 C 513.696 -3.12978 3.24585 0
M  V30 5686 C 512.358 -3.13003 3.6549 0
M  V30 5687 C 514.71 -3.07986 4.20469 0
M  V30 5688 C 512.038 -3.05757 5.00729 0
M  V30 5689 C 514.39 -3.02282 5.55705 0
M  V30 5690 C 513.054 -3.00631 5.95968 0
M  V30 5691 H 512.324 -0.628758 0.392102 0
M  V30 5692 H 514.971 -1.14239 1.53693 0
M  V30 5693 H 513.276 -3.72812 1.20492 0
M  V30 5694 H 514.973 -3.67989 1.59328 0
M  V30 5695 H 511.563 -3.13718 2.92026 0
M  V30 5696 H 515.747 -3.07103 3.89874 0
M  V30 5697 H 511.003 -3.02834 5.31132 0
M  V30 5698 H 515.177 -2.97376 6.29714 0
M  V30 5699 H 512.804 -2.94771 7.00724 0
M  V30 5700 N 514.379 -1.04941 -1.1758 0
M  V30 5701 C 515.795 -0.770282 -1.39781 0
M  V30 5702 C 515.995 0.636417 -1.91186 0
M  V30 5703 O 515.051 1.39923 -2.10185 0
M  V30 5704 C 516.364 -1.82376 -2.3908 0
M  V30 5705 C 517.912 -1.84569 -2.52791 0
M  V30 5706 C 518.387 -2.88933 -3.55361 0
M  V30 5707 N 519.878 -2.8788 -3.62877 0
M  V30 5708 C 520.613 -3.65282 -4.41992 0
M  V30 5709 N 520.109 -4.52461 -5.24643 0
M  V30 5710 N 521.902 -3.53732 -4.36841 0
M  V30 5711 H 514.053 -1.95705 -0.825438 0
M  V30 5712 H 516.316 -0.847284 -0.425222 0
M  V30 5713 H 516.022 -2.83323 -2.08376 0
M  V30 5714 H 515.896 -1.66327 -3.38549 0
M  V30 5715 H 518.283 -0.842879 -2.82807 0
M  V30 5716 H 518.364 -2.04696 -1.53406 0
M  V30 5717 H 518.008 -3.89398 -3.26085 0
M  V30 5718 H 517.938 -2.66059 -4.54445 0
M  V30 5719 H 520.429 -2.24666 -3.03864 0
M  V30 5720 H 520.742 -5.08211 -5.82187 0
M  V30 5721 H 519.087 -4.56524 -5.24033 0
M  V30 5722 H 522.278 -2.85021 -3.71323 0
M  V30 5723 H 522.451 -4.14302 -4.98255 0
M  V30 5724 N 515.857 1.33968 -0.830081 0
M  V30 5725 C 517.082 2.02813 -0.433796 0
M  V30 5726 C 517.507 1.62076 0.954614 0
M  V30 5727 O 516.865 0.808955 1.62252 0
M  V30 5728 C 516.913 3.56348 -0.552115 0
M  V30 5729 O 516.017 4.10202 0.425191 0
M  V30 5730 H 515.358 0.639817 -0.177567 0
M  V30 5731 H 517.888 1.7106 -1.12248 0
M  V30 5732 H 517.898 4.05722 -0.430513 0
M  V30 5733 H 516.573 3.85344 -1.56471 0
M  V30 5734 H 515.15 3.71979 0.261878 0
M  V30 5735 N 517.335 0.585699 1.46312 0
M  V30 5736 C 518.245 -0.148236 2.34131 0
M  V30 5737 C 519.261 -0.882972 1.49932 0
M  V30 5738 O 520.437 -0.845484 1.82794 0
M  V30 5739 C 517.502 -1.14714 3.27172 0
M  V30 5740 C 516.563 -0.416746 4.27272 0
M  V30 5741 C 515.796 -1.36806 5.15868 0
M  V30 5742 O 516.019 -2.60475 5.07454 0
M  V30 5743 O 514.953 -0.877018 5.95476 0
M  V30 5744 H 518.779 0.572882 2.98248 0
M  V30 5745 H 516.364 0.346082 1.45336 0
M  V30 5746 H 518.246 -1.72303 3.84564 0
M  V30 5747 H 516.921 -1.84967 2.65648 0
M  V30 5748 H 515.828 0.201061 3.73559 0
M  V30 5749 H 517.161 0.244872 4.9159 0
M  V30 5750 N 518.813 -1.54241 0.323641 0
M  V30 5751 C 519.776 -2.22997 -0.529602 0
M  V30 5752 C 520.776 -1.22345 -1.04347 0
M  V30 5753 O 521.966 -1.46924 -0.935889 0
M  V30 5754 C 519.098 -2.93409 -1.73562 0
M  V30 5755 H 520.291 -2.99815 0.0714518 0
M  V30 5756 H 517.844 -1.56121 0.0747258 0
M  V30 5757 H 518.579 -2.20729 -2.37591 0
M  V30 5758 H 518.364 -3.67217 -1.37456 0
M  V30 5759 H 519.854 -3.45794 -2.34128 0
M  V30 5760 N 520.291 -0.0518155 -1.57515 0
M  V30 5761 C 521.221 0.920283 -2.146 0
M  V30 5762 C 522.202 1.32406 -1.06783 0
M  V30 5763 O 523.387 1.39866 -1.34726 0
M  V30 5764 C 520.517 2.1949 -2.6915 0
M  V30 5765 C 519.471 1.93116 -3.81956 0
M  V30 5766 C 518.797 3.27037 -4.23026 0
M  V30 5767 C 520.097 1.25225 -5.07066 0
M  V30 5768 H 521.791 0.444801 -2.96077 0
M  V30 5769 H 519.337 0.212508 -1.42423 0
M  V30 5770 H 521.29 2.87894 -3.07725 0
M  V30 5771 H 520.014 2.69244 -1.84865 0
M  V30 5772 H 518.673 1.27123 -3.43854 0
M  V30 5773 H 518.321 3.74595 -3.3569 0
M  V30 5774 H 518.021 3.10189 -4.99056 0
M  V30 5775 H 519.545 3.96673 -4.64202 0
M  V30 5776 H 520.959 1.83666 -5.43083 0
M  V30 5777 H 519.356 1.18702 -5.88243 0
M  V30 5778 H 520.426 0.228382 -4.84362 0
M  V30 5779 N 521.769 1.56035 0.221574 0
M  V30 5780 C 523.016 1.79047 0.94597 0
M  V30 5781 C 523.344 0.62057 1.84334 0
M  V30 5782 O 522.599 -0.395053 1.91671 0
M  V30 5783 C 522.898 3.07813 1.8162 0
M  V30 5784 C 522.564 4.3797 1.07206 0
M  V30 5785 C 521.226 4.73334 0.866508 0
M  V30 5786 C 523.578 5.18326 0.546565 0
M  V30 5787 C 520.906 5.8657 0.123549 0
M  V30 5788 C 523.258 6.32335 -0.18305 0
M  V30 5789 C 521.922 6.66301 -0.399861 0
M  V30 5790 H 521.192 0.655178 0.346155 0
M  V30 5791 H 523.839 1.90299 0.214146 0
M  V30 5792 H 522.144 2.91682 2.61589 0
M  V30 5793 H 523.841 3.2282 2.37884 0
M  V30 5794 H 520.431 4.10202 1.24226 0
M  V30 5795 H 524.615 4.9144 0.692847 0
M  V30 5796 H 519.871 6.11376 -0.0546591 0
M  V30 5797 H 524.045 6.9383 -0.59775 0
M  V30 5798 H 521.672 7.53889 -0.977489 0
M  V30 5799 N 523.247 -0.488276 1.49845 0
M  V30 5800 C 524.177 -1.59675 1.70371 0
M  V30 5801 C 525.158 -1.60878 0.552473 0
M  V30 5802 O 526.343 -1.77417 0.78973 0
M  V30 5803 C 523.473 -2.98098 1.782 0
M  V30 5804 C 522.427 -3.11761 2.93239 0
M  V30 5805 C 521.753 -4.51661 2.86193 0
M  V30 5806 C 523.053 -2.90589 4.33999 0
M  V30 5807 H 524.747 -1.42752 2.63177 0
M  V30 5808 H 522.293 -0.685317 1.26647 0
M  V30 5809 H 524.246 -3.75555 1.91144 0
M  V30 5810 H 522.97 -3.16138 0.820018 0
M  V30 5811 H 521.629 -2.36732 2.79917 0
M  V30 5812 H 521.277 -4.66595 1.87877 0
M  V30 5813 H 520.977 -4.61742 3.63412 0
M  V30 5814 H 522.501 -5.31162 3.01163 0
M  V30 5815 H 523.915 -3.57807 4.47936 0
M  V30 5816 H 522.312 -3.1213 5.12538 0
M  V30 5817 H 523.382 -1.86595 4.4756 0
M  V30 5818 N 524.725 -1.39134 -0.740242 0
M  V30 5819 C 525.655 -1.40165 -1.86751 0
M  V30 5820 C 526.636 -0.265708 -1.68012 0
M  V30 5821 O 527.821 -0.47076 -1.88408 0
M  V30 5822 C 524.951 -1.2392 -3.2444 0
M  V30 5823 C 523.905 -2.34858 -3.57807 0
M  V30 5824 C 523.231 -2.03707 -4.94376 0
M  V30 5825 C 524.531 -3.77159 -3.61315 0
M  V30 5826 H 526.225 -2.345 -1.86145 0
M  V30 5827 H 523.771 -1.12875 -0.89416 0
M  V30 5828 H 525.724 -1.23263 -4.02969 0
M  V30 5829 H 524.448 -0.26051 -3.25559 0
M  V30 5830 H 523.107 -2.34723 -2.81604 0
M  V30 5831 H 522.755 -1.04289 -4.9207 0
M  V30 5832 H 522.455 -2.78016 -5.17669 0
M  V30 5833 H 523.979 -2.04691 -5.75268 0
M  V30 5834 H 525.393 -3.79252 -4.29931 0
M  V30 5835 H 523.79 -4.50784 -3.96124 0
M  V30 5836 H 524.86 -4.08513 -2.61238 0
M  V30 5837 N 526.204 0.969867 -1.24223 0
M  V30 5838 C 527.134 2.08191 -1.05729 0
M  V30 5839 C 528.115 1.70075 0.0290765 0
M  V30 5840 O 529.3 1.93712 -0.137583 0
M  V30 5841 C 526.43 3.40991 -0.658995 0
M  V30 5842 C 525.384 3.93054 -1.69389 0
M  V30 5843 C 524.71 5.22171 -1.15072 0
M  V30 5844 C 526.01 4.21137 -3.08935 0
M  V30 5845 H 527.704 2.23921 -1.98746 0
M  V30 5846 H 525.25 1.07602 -0.956967 0
M  V30 5847 H 527.203 4.18221 -0.51662 0
M  V30 5848 H 525.927 3.25155 0.30686 0
M  V30 5849 H 524.586 3.17977 -1.82444 0
M  V30 5850 H 524.234 5.02694 -0.175539 0
M  V30 5851 H 523.934 5.57973 -1.84229 0
M  V30 5852 H 525.458 6.02013 -1.02042 0
M  V30 5853 H 526.872 4.8908 -2.99121 0
M  V30 5854 H 525.269 4.68163 -3.75425 0
M  V30 5855 H 526.339 3.27996 -3.57137 0
M  V30 5856 N 527.682 1.05563 1.17022 0
M  V30 5857 C 528.907 0.788437 1.91829 0
M  V30 5858 C 529.332 -0.650356 1.76499 0
M  V30 5859 O 528.69 -1.45229 1.08527 0
M  V30 5860 C 528.738 1.1786 3.40795 0
M  V30 5861 O 527.842 0.312965 4.11211 0
M  V30 5862 H 527.183 0.288794 0.597908 0
M  V30 5863 H 529.713 1.40948 1.48307 0
M  V30 5864 H 529.723 1.14697 3.91546 0
M  V30 5865 H 528.398 2.22666 3.51273 0
M  V30 5866 H 526.975 0.405515 3.70689 0
M  V30 5867 N 529.16 -1.33526 0.837174 0
M  V30 5868 C 530.108 -2.31168 0.257698 0
M  V30 5869 C 531.102 -1.5806 -0.609388 0
M  V30 5870 O 532.308 -1.72941 -0.499139 0
M  V30 5871 H 528.683 -0.74922 0.0646058 0
M  V30 5872 H 530.654 -2.77552 1.09578 0
M  V30 5873 C 529.403 -3.4326 -0.553887 0
M  V30 5874 H 528.726 -3.99665 0.104008 0
M  V30 5875 H 530.166 -4.13782 -0.925219 0
M  V30 5876 C 528.625 -2.88965 -1.73207 0
M  V30 5877 O 529.155 -2.85013 -2.83073 0
M  V30 5878 N 527.361 -2.45596 -1.55342 0
M  V30 5879 H 526.908 -2.49009 -0.659705 0
M  V30 5880 H 526.866 -2.0962 -2.34322 0
M  V30 5881 N 530.638 -0.59345 -1.46 0
M  V30 5882 C 531.885 -0.0831523 -2.02329 0
M  V30 5883 C 532.213 1.28093 -1.46364 0
M  V30 5884 O 531.468 1.85526 -0.622793 0
M  V30 5885 C 531.767 0.021178 -3.57394 0
M  V30 5886 C 531.433 -1.27671 -4.32448 0
M  V30 5887 C 530.095 -1.63227 -4.5267 0
M  V30 5888 C 532.447 -2.13511 -4.7546 0
M  V30 5889 C 529.775 -2.84401 -5.1316 0
M  V30 5890 C 532.127 -3.33922 -5.37289 0
M  V30 5891 C 530.791 -3.69747 -5.55737 0
M  V30 5892 H 530.061 -0.0304276 -0.740375 0
M  V30 5893 H 532.708 -0.772239 -1.75239 0
M  V30 5894 H 531.013 0.793454 -3.83682 0
M  V30 5895 H 532.71 0.431942 -3.98667 0
M  V30 5896 H 529.3 -0.989937 -4.17011 0
M  V30 5897 H 533.484 -1.87344 -4.59582 0
M  V30 5898 H 528.74 -3.12282 -5.25633 0
M  V30 5899 H 532.914 -4.00698 -5.69574 0
M  V30 5900 H 530.541 -4.6373 -6.02377 0
M  V30 5901 N 532.116 1.54067 -0.331816 0
M  V30 5902 C 533.344 2.05131 0.269996 0
M  V30 5903 C 533.759 1.20749 1.45138 0
M  V30 5904 O 533.116 0.240069 1.80914 0
M  V30 5905 C 533.167 3.54728 0.696456 0
M  V30 5906 O 532.888 4.35906 -0.43794 0
M  V30 5907 C 534.389 4.21916 1.36021 0
M  V30 5908 H 531.609 0.668807 0.0542042 0
M  V30 5909 H 534.153 1.98777 -0.4804 0
M  V30 5910 H 532.308 3.61342 1.39681 0
M  V30 5911 H 532.722 5.24404 -0.100334 0
M  V30 5912 H 534.196 5.28015 1.60947 0
M  V30 5913 H 534.673 3.73538 2.31011 0
M  V30 5914 H 535.279 4.19463 0.702212 0
M  V30 5915 N 533.594 0.0601682 1.57485 0
M  V30 5916 C 534.842 -0.610386 1.92662 0
M  V30 5917 C 535.163 -1.70849 0.939981 0
M  V30 5918 O 534.433 -1.95895 -0.0137455 0
M  V30 5919 H 533.013 -0.228457 0.711208 0
M  V30 5920 H 535.675 0.115288 1.94559 0
M  V30 5921 H 534.771 -1.0432 2.94149 0
M  V30 5922 N 535.072 -1.5615 -0.213296 0
M  V30 5923 C 536.002 -1.96109 -1.26742 0
M  V30 5924 C 536.983 -0.830448 -1.48451 0
M  V30 5925 O 538.168 -1.09339 -1.60495 0
M  V30 5926 C 535.298 -2.28492 -2.61551 0
M  V30 5927 C 534.252 -3.44124 -2.54485 0
M  V30 5928 C 533.578 -3.62134 -3.93399 0
M  V30 5929 C 534.878 -4.78855 -2.08556 0
M  V30 5930 H 536.572 -2.84412 -0.935434 0
M  V30 5931 H 534.118 -1.36836 -0.44854 0
M  V30 5932 H 536.071 -2.55039 -3.3546 0
M  V30 5933 H 534.795 -1.37052 -2.96453 0
M  V30 5934 H 533.454 -3.17639 -1.83033 0
M  V30 5935 H 533.102 -2.68055 -4.25623 0
M  V30 5936 H 532.802 -4.39913 -3.89551 0
M  V30 5937 H 534.326 -3.91038 -4.68958 0
M  V30 5938 H 535.74 -5.04552 -2.72213 0
M  V30 5939 H 534.137 -5.59975 -2.1575 0
M  V30 5940 H 535.207 -4.73657 -1.03811 0
M  V30 5941 N 536.55 0.480323 -1.50102 0
M  V30 5942 C 537.497 1.57946 -1.6829 0
M  V30 5943 C 538.467 1.57611 -0.524223 0
M  V30 5944 O 539.652 1.75282 -0.753709 0
M  V30 5945 C 536.792 2.95978 -1.77457 0
M  V30 5946 C 535.905 3.06173 -3.04766 0
M  V30 5947 C 535.04 4.35063 -3.04784 0
M  V30 5948 C 534.079 4.38966 -4.26586 0
M  V30 5949 N 533.216 5.59314 -4.24396 0
M  V30 5950 H 538.056 1.41743 -2.62131 0
M  V30 5951 H 535.593 0.689304 -1.2995 0
M  V30 5952 H 537.551 3.76011 -1.80752 0
M  V30 5953 H 536.181 3.10837 -0.870637 0
M  V30 5954 H 535.233 2.19071 -3.10986 0
M  V30 5955 H 536.545 3.04916 -3.9475 0
M  V30 5956 H 535.699 5.23436 -3.06757 0
M  V30 5957 H 534.438 4.38915 -2.12614 0
M  V30 5958 H 533.443 3.48992 -4.24835 0
M  V30 5959 H 534.668 4.36813 -5.19972 0
M  V30 5960 H 532.614 5.63969 -3.35074 0
M  V30 5961 H 532.531 5.5976 -5.08138 0
M  V30 5962 H 533.799 6.49837 -4.30502 0
M  V30 5963 N 538.028 1.39524 0.732853 0
M  V30 5964 C 538.958 1.41153 1.86005 0
M  V30 5965 C 539.939 0.274614 1.67869 0
M  V30 5966 O 541.124 0.480745 1.88155 0
M  V30 5967 C 538.254 1.25638 3.23778 0
M  V30 5968 C 537.208 2.36752 3.56556 0
M  V30 5969 C 536.534 2.06326 4.93289 0
M  V30 5970 C 537.834 3.79069 3.5931 0
M  V30 5971 H 539.528 2.35484 1.84899 0
M  V30 5972 H 537.074 1.13348 0.888162 0
M  V30 5973 H 539.027 1.25398 4.0231 0
M  V30 5974 H 537.751 0.277772 3.25417 0
M  V30 5975 H 536.41 2.36213 2.80355 0
M  V30 5976 H 536.058 1.06897 4.9151 0
M  V30 5977 H 535.758 2.80757 5.16187 0
M  V30 5978 H 537.282 2.07739 5.74175 0
M  V30 5979 H 538.696 3.81526 4.27914 0
M  V30 5980 H 537.093 4.52878 3.93728 0
M  V30 5981 H 538.163 4.09893 2.59068 0
M  V30 5982 N 539.506 -0.963266 1.24736 0
M  V30 5983 C 540.456 -2.0438 1.01058 0
M  V30 5984 C 541.44 -1.60824 -0.0495354 0
M  V30 5985 O 542.632 -1.76232 0.164741 0
M  V30 5986 C 539.761 -3.37617 0.622067 0
M  V30 5987 C 538.847 -3.87722 1.7185 0
M  V30 5988 N 539.238 -4.10715 2.95207 0
M  V30 5989 C 537.536 -4.16426 1.59703 0
M  V30 5990 C 538.237 -4.51872 3.66315 0
M  V30 5991 N 537.213 -4.57302 2.93897 0
M  V30 5992 H 541.015 -2.20138 1.94721 0
M  V30 5993 H 538.529 -1.14741 1.14927 0
M  V30 5994 H 540.526 -4.14638 0.43366 0
M  V30 5995 H 539.186 -3.23242 -0.307327 0
M  V30 5996 H 540.197 -3.98037 3.31341 0
M  V30 5997 H 536.874 -4.10962 0.73598 0
M  V30 5998 H 538.264 -4.78037 4.72155 0
M  V30 5999 N 540.985 -1.06182 -1.16461 0
M  V30 6000 C 542.232 -0.777863 -1.86964 0
M  V30 6001 C 542.56 0.695602 -1.81636 0
M  V30 6002 O 541.815 1.52532 -1.22607 0
M  V30 6003 C 542.114 -1.21633 -3.36066 0
M  V30 6004 C 541.78 -2.69371 -3.61594 0
M  V30 6005 C 540.442 -3.09727 -3.6827 0
M  V30 6006 C 542.794 -3.64791 -3.7226 0
M  V30 6007 C 540.122 -4.44345 -3.83112 0
M  V30 6008 C 542.474 -4.99155 -3.88623 0
M  V30 6009 C 541.138 -5.39149 -3.93541 0
M  V30 6010 H 540.408 -0.28464 -0.68415 0
M  V30 6011 H 543.055 -1.33071 -1.37711 0
M  V30 6012 H 541.36 -0.582651 -3.87443 0
M  V30 6013 H 543.057 -0.973682 -3.88999 0
M  V30 6014 H 539.647 -2.37124 -3.57029 0
M  V30 6015 H 543.831 -3.34746 -3.66413 0
M  V30 6016 H 539.087 -4.74819 -3.85172 0
M  V30 6017 H 543.261 -5.72976 -3.95817 0
M  V30 6018 H 540.888 -6.43464 -4.04794 0
M  V30 6019 N 542.463 1.3308 -0.844243 0
M  V30 6020 C 543.393 2.3161 -0.296493 0
M  V30 6021 C 544.374 1.59215 0.598707 0
M  V30 6022 O 545.559 1.87077 0.521134 0
M  V30 6023 C 542.689 3.43313 0.524762 0
M  V30 6024 C 541.643 4.27115 -0.275106 0
M  V30 6025 C 540.969 5.30483 0.670236 0
M  V30 6026 C 542.269 5.00443 -1.49514 0
M  V30 6027 H 543.963 2.77672 -1.11976 0
M  V30 6028 H 541.509 1.33496 -0.539899 0
M  V30 6029 H 543.462 4.11273 0.918298 0
M  V30 6030 H 542.186 2.95952 1.3813 0
M  V30 6031 H 540.845 3.60787 -0.650267 0
M  V30 6032 H 540.493 4.79379 1.52332 0
M  V30 6033 H 540.193 5.87435 0.139123 0
M  V30 6034 H 541.717 6.01308 1.06117 0
M  V30 6035 H 543.131 5.61141 -1.17447 0
M  V30 6036 H 541.528 5.67071 -1.96343 0
M  V30 6037 H 542.598 4.28906 -2.26202 0
M  V30 6038 N 543.941 0.601185 1.45683 0
M  V30 6039 C 544.904 -0.111398 2.28929 0
M  V30 6040 C 545.904 -0.801246 1.39416 0
M  V30 6041 O 547.094 -0.650383 1.61603 0
M  V30 6042 C 544.226 -1.16773 3.20276 0
M  V30 6043 H 545.419 0.620412 2.93413 0
M  V30 6044 H 542.972 0.359946 1.52099 0
M  V30 6045 H 543.707 -1.93051 2.60579 0
M  V30 6046 H 543.492 -0.677358 3.86205 0
M  V30 6047 H 544.982 -1.66698 3.82886 0
M  V30 6048 N 545.419 -1.53889 0.339982 0
M  V30 6049 C 546.83 -1.86139 -0.144671 0
M  V30 6050 C 547.181 -1.2613 -1.50285 0
M  V30 6051 O 546.306 -0.573515 -2.08662 0
M  V30 6052 C 546.901 -3.37728 -0.269285 0
M  V30 6053 C 545.46 -3.69868 -0.698168 0
M  V30 6054 C 544.607 -2.76777 0.170249 0
M  V30 6055 H 547.558 -1.48503 0.559704 0
M  V30 6056 H 547.579 -3.64331 -1.0974 0
M  V30 6057 H 547.091 -3.81375 0.719366 0
M  V30 6058 H 545.192 -3.31764 -1.69597 0
M  V30 6059 H 545.305 -4.76582 -0.490533 0
M  V30 6060 H 543.669 -2.52188 -0.356844 0
M  V30 6061 H 544.452 -3.23253 1.15597 0
M  V30 6062 N 546.897 -0.0685191 -1.57451 0
M  V30 6063 C 548.122 0.613919 -1.98106 0
M  V30 6064 C 548.547 1.62551 -0.946501 0
M  V30 6065 O 547.905 1.81085 0.0882824 0
M  V30 6066 C 547.953 1.26189 -3.378 0
M  V30 6067 O 547.057 2.37773 -3.36954 0
M  V30 6068 H 546.398 0.158163 -0.644888 0
M  V30 6069 H 548.928 -0.142063 -2.04106 0
M  V30 6070 H 548.938 1.60951 -3.74912 0
M  V30 6071 H 547.613 0.520625 -4.12629 0
M  V30 6072 H 546.19 2.04829 -3.11608 0
M  V30 6073 N 548.375 1.56261 0.205012 0
M  V30 6074 C 549.285 1.96944 1.27476 0
M  V30 6075 C 550.301 0.875636 1.50362 0
M  V30 6076 O 551.477 1.18058 1.6317 0
M  V30 6077 C 548.542 2.29219 2.60115 0
M  V30 6078 C 547.603 3.52255 2.45387 0
M  V30 6079 C 546.836 3.8298 3.71701 0
M  V30 6080 O 547.059 3.15138 4.75441 0
M  V30 6081 O 545.993 4.76435 3.67823 0
M  V30 6082 H 549.819 2.88144 0.959527 0
M  V30 6083 H 547.404 1.43686 0.409217 0
M  V30 6084 H 549.286 2.51098 3.3842 0
M  V30 6085 H 547.961 1.4119 2.91285 0
M  V30 6086 H 546.868 3.35635 1.65227 0
M  V30 6087 H 548.201 4.40719 2.19152 0
M  V30 6088 N 549.853 -0.472356 1.50355 0
M  V30 6089 C 550.763 -1.59637 1.7191 0
M  V30 6090 C 551.779 -1.63247 0.602195 0
M  V30 6091 O 552.955 -1.81139 0.880369 0
M  V30 6092 C 550.02 -2.9586 1.80742 0
M  V30 6093 C 549.081 -3.02649 3.04471 0
M  V30 6094 C 548.314 -4.32374 3.12872 0
M  V30 6095 O 548.537 -5.22807 2.28099 0
M  V30 6096 O 547.471 -4.44728 4.05587 0
M  V30 6097 H 551.297 -1.44373 2.67189 0
M  V30 6098 H 548.882 -0.651717 1.34436 0
M  V30 6099 H 550.764 -3.7677 1.88739 0
M  V30 6100 H 549.439 -3.11325 0.88647 0
M  V30 6101 H 548.346 -2.20821 3.01975 0
M  V30 6102 H 549.679 -2.92119 3.9614 0
M  V30 6103 N 551.331 -1.39911 -0.725443 0
M  V30 6104 C 552.608 -1.28158 -1.47766 0
M  V30 6105 C 552.988 0.104545 -2.10841 0
M  V30 6106 O 552.336 1.11657 -1.99361 0
M  V30 6107 C 552.546 -2.41306 -2.52135 0
M  V30 6108 C 553.894 -2.81076 -3.18247 0
M  V30 6109 O 554.918 -2.40827 -2.62452 0
M  V30 6110 O 553.777 -3.50581 -4.19231 0
M  V30 6111 H 550.871 -0.502761 -0.656628 0
M  V30 6112 H 553.417 -1.51808 -0.758456 0
M  V30 6113 H 552.189 -3.33932 -2.03974 0
M  V30 6114 H 551.812 -2.19374 -3.31603 0
M  V30 6115 N 552.809 0.956637 -1.25245 0
M  V30 6116 C 553.719 2.0868 -1.0719 0
M  V30 6117 C 554.735 1.73997 -0.00959074 0
M  V30 6118 O 555.911 2.00301 -0.210104 0
M  V30 6119 C 552.976 3.39754 -0.690526 0
M  V30 6120 C 552.037 3.88316 -1.83055 0
M  V30 6121 C 551.27 5.13134 -1.46728 0
M  V30 6122 O 551.493 5.6925 -0.362029 0
M  V30 6123 O 550.427 5.56356 -2.29677 0
M  V30 6124 H 554.253 2.26813 -2.01965 0
M  V30 6125 H 551.838 1.07098 -1.04165 0
M  V30 6126 H 553.72 4.18543 -0.489871 0
M  V30 6127 H 552.395 3.22896 0.227981 0
M  V30 6128 H 551.302 3.1054 -2.08604 0
M  V30 6129 H 552.635 4.09669 -2.72822 0
M  V30 6130 N 554.287 1.06798 1.15896 0
M  V30 6131 C 555.22 0.627503 2.19403 0
M  V30 6132 C 556.198 -0.352352 1.58736 0
M  V30 6133 O 557.382 -0.260111 1.86697 0
M  V30 6134 C 554.509 -0.079356 3.38607 0
M  V30 6135 C 553.555 0.858057 4.17779 0
M  V30 6136 S 554.388 2.35605 4.80885 0
M  V30 6137 C 555.544 1.66083 6.03463 0
M  V30 6138 H 555.777 1.50441 2.56427 0
M  V30 6139 H 553.31 0.881427 1.26768 0
M  V30 6140 H 555.268 -0.48095 4.07673 0
M  V30 6141 H 553.929 -0.932524 2.99938 0
M  V30 6142 H 553.122 0.310108 5.03045 0
M  V30 6143 H 552.724 1.19977 3.54234 0
M  V30 6144 H 555.016 0.969337 6.7053 0
M  V30 6145 H 555.959 2.49159 6.62816 0
M  V30 6146 H 556.367 1.14122 5.52844 0
M  V30 6147 N 555.766 -1.3263 0.851289 0
M  V30 6148 C 556.714 -2.30882 0.282202 0
M  V30 6149 C 557.708 -1.58697 -0.592589 0
M  V30 6150 O 558.914 -1.73461 -0.480768 0
M  V30 6151 H 555.289 -0.748492 0.0725487 0
M  V30 6152 H 557.26 -2.76374 1.12516 0
M  V30 6153 C 556.009 -3.43828 -0.517449 0
M  V30 6154 H 555.332 -3.99532 0.146392 0
M  V30 6155 H 556.772 -4.1474 -0.88128 0
M  V30 6156 C 555.231 -2.90786 -1.70133 0
M  V30 6157 O 555.761 -2.88 -2.80034 0
M  V30 6158 N 553.967 -2.4723 -1.52728 0
M  V30 6159 H 553.514 -2.49695 -0.633257 0
M  V30 6160 H 553.472 -2.12094 -2.32085 0
M  V30 6161 N 557.244 -0.608902 -1.45362 0
M  V30 6162 C 558.521 -0.0365378 -1.95566 0
M  V30 6163 C 558.901 1.43169 -1.55131 0
M  V30 6164 O 558.249 2.1349 -0.814513 0
M  V30 6165 C 558.459 -0.236026 -3.48201 0
M  V30 6166 C 559.807 -0.117518 -4.24437 0
M  V30 6167 O 560.831 -0.166217 -3.55812 0
M  V30 6168 O 559.69 -0.00372127 -5.465 0
M  V30 6169 H 556.784 0.0349874 -0.82626 0
M  V30 6170 H 559.33 -0.679055 -1.55521 0
M  V30 6171 H 558.102 -1.25569 -3.70605 0
M  V30 6172 H 557.725 0.441691 -3.95139 0
M  V30 6173 N 558.722 1.53707 -0.348139 0
M  V30 6174 C 559.669 2.25173 0.506518 0
M  V30 6175 C 560.639 1.25174 1.09182 0
M  V30 6176 O 561.824 1.53917 1.12757 0
M  V30 6177 C 558.964 3.03141 1.64923 0
M  V30 6178 C 558.077 4.18002 1.0908 0
M  V30 6179 C 557.212 4.83447 2.20119 0
M  V30 6180 C 556.251 5.90369 1.61651 0
M  V30 6181 N 555.388 6.49575 2.66451 0
M  V30 6182 H 560.228 2.97799 -0.109452 0
M  V30 6183 H 557.765 1.46953 -0.0657866 0
M  V30 6184 H 559.723 3.46607 2.32205 0
M  V30 6185 H 558.353 2.32803 2.23612 0
M  V30 6186 H 557.405 3.79145 0.308783 0
M  V30 6187 H 558.717 4.94892 0.623178 0
M  V30 6188 H 557.871 5.30008 2.95257 0
M  V30 6189 H 556.61 4.05991 2.70227 0
M  V30 6190 H 555.615 5.43186 0.850209 0
M  V30 6191 H 556.84 6.69735 1.1239 0
M  V30 6192 H 554.786 5.74981 3.15805 0
M  V30 6193 H 554.703 7.21952 2.24325 0
M  V30 6194 H 555.971 7.00789 3.41344 0
M  V30 6195 N 560.2 0.0768682 1.57412 0
M  V30 6196 C 561.147 -0.888577 2.13009 0
M  V30 6197 C 562.117 -1.29198 1.0439 0
M  V30 6198 O 563.302 -1.37694 1.3208 0
M  V30 6199 C 560.442 -2.14899 2.70023 0
M  V30 6200 C 559.555 -1.79777 3.92816 0
M  V30 6201 C 558.69 -3.00467 4.38056 0
M  V30 6202 C 557.729 -2.61385 5.53484 0
M  V30 6203 N 556.866 -3.74851 5.93659 0
M  V30 6204 H 561.706 -0.407593 2.95199 0
M  V30 6205 H 559.243 -0.189534 1.45874 0
M  V30 6206 H 561.201 -2.88688 3.0119 0
M  V30 6207 H 559.831 -2.60529 1.9059 0
M  V30 6208 H 558.883 -0.960301 3.68079 0
M  V30 6209 H 560.195 -1.47027 4.76639 0
M  V30 6210 H 559.349 -3.82529 4.7091 0
M  V30 6211 H 558.088 -3.36413 3.53097 0
M  V30 6212 H 557.093 -1.77746 5.20275 0
M  V30 6213 H 558.318 -2.26603 6.40178 0
M  V30 6214 H 556.264 -4.1055 5.11649 0
M  V30 6215 H 556.181 -3.45887 6.72234 0
M  V30 6216 H 557.449 -4.57477 6.31138 0
M  V30 6217 N 561.678 -1.56367 -0.196722 0
M  V30 6218 C 562.588 -1.97617 -1.2643 0
M  V30 6219 C 563.604 -0.883598 -1.49895 0
M  V30 6220 O 564.78 -1.18921 -1.62541 0
M  V30 6221 C 561.845 -2.30595 -2.58895 0
M  V30 6222 C 560.906 -3.53551 -2.43516 0
M  V30 6223 C 560.139 -3.84946 -3.69665 0
M  V30 6224 O 560.362 -3.17655 -4.73763 0
M  V30 6225 O 559.296 -4.78379 -3.65291 0
M  V30 6226 H 563.122 -2.88648 -0.944233 0
M  V30 6227 H 560.707 -1.43901 -0.401592 0
M  V30 6228 H 562.589 -2.52889 -3.37083 0
M  V30 6229 H 561.264 -1.42732 -2.90533 0
M  V30 6230 H 560.171 -3.36507 -1.63445 0
M  V30 6231 H 561.504 -4.41875 -2.16812 0
M  V30 6232 N 563.156 0.464375 -1.50603 0
M  V30 6233 C 564.119 1.54393 -1.69397 0
M  V30 6234 C 565.119 1.50566 -0.564504 0
M  V30 6235 O 566.309 1.53066 -0.831645 0
M  V30 6236 C 563.441 2.9401 -1.72543 0
M  V30 6237 H 564.634 1.39044 -2.65719 0
M  V30 6238 H 562.187 0.69122 -1.40185 0
M  V30 6239 H 562.922 3.14795 -0.77938 0
M  V30 6240 H 562.707 2.98195 -2.54602 0
M  V30 6241 H 564.197 3.72375 -1.89015 0
M  V30 6242 N 564.634 1.40294 0.718013 0
M  V30 6243 C 565.544 1.42678 1.86226 0
M  V30 6244 C 566.56 0.319655 1.71039 0
M  V30 6245 O 567.736 0.563852 1.93346 0
M  V30 6246 C 564.801 1.2852 3.21999 0
M  V30 6247 C 563.862 2.49354 3.49458 0
M  V30 6248 C 563.095 2.35863 4.78753 0
M  V30 6249 O 563.318 1.37114 5.53675 0
M  V30 6250 O 562.252 3.25189 5.06494 0
M  V30 6251 H 566.078 2.39167 1.87171 0
M  V30 6252 H 563.663 1.2159 0.868112 0
M  V30 6253 H 565.545 1.22824 4.03103 0
M  V30 6254 H 564.22 0.351359 3.21787 0
M  V30 6255 H 563.127 2.60628 2.68373 0
M  V30 6256 H 564.46 3.41491 3.54464 0
M  V30 6257 N 566.112 -0.949982 1.2575 0
M  V30 6258 C 567.34 -1.72972 1.13527 0
M  V30 6259 C 567.755 -1.8623 -0.310453 0
M  V30 6260 O 567.112 -1.36336 -1.2132 0
M  V30 6261 C 567.163 -3.14108 1.78936 0
M  V30 6262 O 566.884 -3.01493 3.17858 0
M  V30 6263 C 568.385 -4.08338 1.72554 0
M  V30 6264 H 565.605 -0.541864 0.395758 0
M  V30 6265 H 568.149 -1.19151 1.66202 0
M  V30 6266 H 566.304 -3.64858 1.30221 0
M  V30 6267 H 566.718 -3.90559 3.50092 0
M  V30 6268 H 568.192 -5.04963 2.22973 0
M  V30 6269 H 568.669 -4.33742 0.690251 0
M  V30 6270 H 569.275 -3.63506 2.2078 0
M  V30 6271 N 567.59 -1.07411 -1.15328 0
M  V30 6272 C 568.818 -0.818782 -1.90009 0
M  V30 6273 C 569.233 0.628072 -1.78047 0
M  V30 6274 O 568.59 1.43085 -1.13282 0
M  V30 6275 C 568.641 -1.21874 -3.40337 0
M  V30 6276 O 568.362 -2.60883 -3.51954 0
M  V30 6277 C 569.863 -0.992796 -4.3204 0
M  V30 6278 H 567.083 -0.296007 -0.60218 0
M  V30 6279 H 569.627 -1.43073 -1.46117 0
M  V30 6280 H 567.782 -0.651103 -3.81889 0
M  V30 6281 H 568.196 -2.77216 -4.45255 0
M  V30 6282 H 569.67 -1.32215 -5.35932 0
M  V30 6283 H 570.147 0.0708331 -4.39143 0
M  V30 6284 H 570.753 -1.54537 -3.9623 0
M  V30 6285 N 569.068 1.32177 -0.85831 0
M  V30 6286 C 570.345 1.91781 -0.384624 0
M  V30 6287 C 570.725 1.78171 1.13217 0
M  V30 6288 O 570.073 1.18209 1.95548 0
M  V30 6289 C 570.283 3.38414 -0.853047 0
M  V30 6290 C 571.631 4.15542 -0.872359 0
M  V30 6291 O 572.655 3.47148 -0.797926 0
M  V30 6292 O 571.514 5.37678 -0.978009 0
M  V30 6293 H 568.608 0.819259 -0.112886 0
M  V30 6294 H 571.154 1.40923 -0.945453 0
M  V30 6295 H 569.926 3.4228 -1.89632 0
M  V30 6296 H 569.549 3.96683 -0.269874 0
M  V30 6297 N 570.547 0.616602 1.45037 0
M  V30 6298 C 571.796 0.112861 2.01384 0
M  V30 6299 C 572.109 -1.26758 1.48969 0
M  V30 6300 O 573.315 -1.86454 1.9735 0
M  V30 6301 C 571.771 0.151057 3.59583 0
M  V30 6302 C 571.379 1.53191 4.20995 0
M  V30 6303 C 573.123 -0.296974 4.2346 0
M  V30 6304 C 571.03 1.526 5.71373 0
M  V30 6305 H 569.96 0.0384254 0.75302 0
M  V30 6306 H 572.611 0.773262 1.66412 0
M  V30 6307 H 570.993 -0.57617 3.91786 0
M  V30 6308 H 572.167 2.28156 4.00352 0
M  V30 6309 H 570.482 1.92279 3.69348 0
M  V30 6310 H 573.079 -0.320712 5.33737 0
M  V30 6311 H 573.422 -1.32145 3.9477 0
M  V30 6312 H 573.955 0.377279 3.96007 0
M  V30 6313 H 570.694 2.52837 6.04776 0
M  V30 6314 H 570.214 0.819064 5.94181 0
M  V30 6315 H 571.893 1.25357 6.3474 0
M  V30 6316 N 572.025 -1.5352 0.356285 0
M  V30 6317 C 573.253 -2.05534 -0.237328 0
M  V30 6318 C 573.668 -1.23043 -1.43199 0
M  V30 6319 O 573.025 -0.268821 -1.80509 0
M  V30 6320 C 573.076 -3.55791 -0.639933 0
M  V30 6321 O 572.797 -4.35154 0.507233 0
M  V30 6322 C 574.298 -4.24027 -1.29292 0
M  V30 6323 H 571.518 -0.669585 -0.0435572 0
M  V30 6324 H 574.062 -1.97988 0.511963 0
M  V30 6325 H 572.217 -3.63518 -1.33915 0
M  V30 6326 H 572.631 -5.24178 0.18375 0
M  V30 6327 H 574.105 -5.30509 -1.52527 0
M  V30 6328 H 574.582 -3.77166 -2.25039 0
M  V30 6329 H 575.188 -4.20527 -0.63539 0
M  V30 6330 N 573.503 -0.0852151 -1.57369 0
M  V30 6331 C 574.413 0.891712 -2.16992 0
M  V30 6332 C 575.429 1.3174 -1.13669 0
M  V30 6333 O 576.605 1.38735 -1.45995 0
M  V30 6334 C 573.67 2.13635 -2.73059 0
M  V30 6335 C 572.731 1.7658 -3.91303 0
M  V30 6336 C 571.964 2.95111 -4.44686 0
M  V30 6337 O 572.187 4.09539 -3.97032 0
M  V30 6338 O 571.121 2.74149 -5.35841 0
M  V30 6339 H 574.947 0.414477 -3.00858 0
M  V30 6340 H 572.532 0.138598 -1.48756 0
M  V30 6341 H 574.414 2.86595 -3.08935 0
M  V30 6342 H 573.089 2.6043 -1.92244 0
M  V30 6343 H 571.996 1.00831 -3.60255 0
M  V30 6344 H 573.329 1.34557 -4.7345 0
M  V30 6345 N 574.981 1.5647 0.188427 0
M  V30 6346 C 575.891 1.98285 1.2538 0
M  V30 6347 C 576.907 0.891535 1.49424 0
M  V30 6348 O 578.083 1.19782 1.61908 0
M  V30 6349 C 575.148 2.31965 2.57669 0
M  V30 6350 C 574.209 3.54838 2.41638 0
M  V30 6351 C 573.442 3.86901 3.67618 0
M  V30 6352 O 573.665 3.20163 4.72072 0
M  V30 6353 O 572.599 4.80309 3.62749 0
M  V30 6354 H 576.425 2.89145 0.928912 0
M  V30 6355 H 574.01 1.44112 0.393955 0
M  V30 6356 H 575.892 2.54673 3.35737 0
M  V30 6357 H 574.567 1.44271 2.89771 0
M  V30 6358 H 573.474 3.37369 1.61658 0
M  V30 6359 H 574.807 4.43019 2.14465 0
M  V30 6360 N 576.459 -0.456382 1.50847 0
M  V30 6361 C 577.707 -1.20497 1.62249 0
M  V30 6362 C 578.028 -1.92156 0.331839 0
M  V30 6363 O 577.298 -1.84751 -0.651443 0
M  V30 6364 H 575.878 -0.447775 0.597918 0
M  V30 6365 H 578.54 -0.525099 1.87693 0
M  V30 6366 H 577.636 -1.94492 2.44089 0
M  V30 6367 N 577.937 -1.40673 -0.710563 0
M  V30 6368 C 579.165 -1.42547 -1.4996 0
M  V30 6369 C 579.58 -0.0265485 -1.88781 0
M  V30 6370 O 578.937 0.950694 -1.55782 0
M  V30 6371 C 578.988 -2.32071 -2.77173 0
M  V30 6372 O 578.709 -3.66518 -2.39992 0
M  V30 6373 C 580.21 -2.42591 -3.71032 0
M  V30 6374 H 577.43 -0.486025 -0.462623 0
M  V30 6375 H 579.974 -1.84783 -0.876102 0
M  V30 6376 H 578.129 -1.93184 -3.35795 0
M  V30 6377 H 578.543 -4.14115 -3.21884 0
M  V30 6378 H 580.017 -3.09429 -4.57119 0
M  V30 6379 H 580.494 -1.4525 -4.14486 0
M  V30 6380 H 581.1 -2.82051 -3.18319 0
M  V30 6381 N 579.415 0.9433 -1.26252 0
M  V30 6382 C 580.64 1.72898 -1.14547 0
M  V30 6383 C 581.065 1.85761 0.295743 0
M  V30 6384 O 580.423 1.3463 1.21427 0
M  V30 6385 C 580.471 3.11471 -1.8171 0
M  V30 6386 O 579.575 3.97336 -1.10445 0
M  V30 6387 H 578.916 0.530555 -0.399259 0
M  V30 6388 H 581.446 1.18159 -1.67032 0
M  V30 6389 H 581.456 3.61872 -1.88449 0
M  V30 6390 H 580.131 3.01425 -2.86558 0
M  V30 6391 H 578.708 3.55788 -1.11666 0
M  V30 6392 N 580.893 1.08022 1.14757 0
M  V30 6393 C 581.843 0.676345 2.17737 0
M  V30 6394 C 582.827 -0.302018 1.5804 0
M  V30 6395 O 584.019 -0.11466 1.76628 0
M  V30 6396 C 581.148 0.082984 3.432 0
M  V30 6397 C 580.234 1.0869 4.09936 0
M  V30 6398 N 580.625 2.26891 4.52055 0
M  V30 6399 C 578.923 0.921768 4.36371 0
M  V30 6400 C 579.624 2.90636 5.0389 0
M  V30 6401 N 578.6 2.18266 4.97856 0
M  V30 6402 H 582.402 1.5765 2.4804 0
M  V30 6403 H 579.916 0.954374 1.31398 0
M  V30 6404 H 581.913 -0.224289 4.16296 0
M  V30 6405 H 580.573 -0.812206 3.14378 0
M  V30 6406 H 581.584 2.6457 4.45223 0
M  V30 6407 H 578.261 0.0800499 4.17423 0
M  V30 6408 H 579.651 3.9104 5.46386 0
M  V30 6409 N 582.371 -1.3172 0.865308 0
M  V30 6410 C 583.596 -2.01591 0.487415 0
M  V30 6411 C 584.021 -1.6455 -0.911307 0
M  V30 6412 O 583.379 -0.851689 -1.6005 0
M  V30 6413 C 583.427 -3.54759 0.646401 0
M  V30 6414 O 582.531 -4.11185 -0.316284 0
M  V30 6415 H 581.872 -0.634884 0.194468 0
M  V30 6416 H 584.402 -1.68024 1.16744 0
M  V30 6417 H 584.412 -4.04438 0.537932 0
M  V30 6418 H 583.087 -3.8106 1.66632 0
M  V30 6419 H 581.664 -3.72543 -0.163162 0
M  V30 6420 N 583.85 -0.624285 -1.44708 0
M  V30 6421 C 585.26 -0.2092 -1.85524 0
M  V30 6422 C 585.611 1.23783 -1.52225 0
M  V30 6423 O 584.736 1.94089 -0.956986 0
M  V30 6424 C 585.332 -0.372897 -3.36742 0
M  V30 6425 C 583.891 -0.012374 -3.76398 0
M  V30 6426 C 583.038 -0.68951 -2.68591 0
M  V30 6427 H 585.989 -0.829894 -1.35272 0
M  V30 6428 H 586.01 0.390134 -3.78495 0
M  V30 6429 H 585.522 -1.42615 -3.60947 0
M  V30 6430 H 583.623 1.03941 -3.57809 0
M  V30 6431 H 583.736 -0.417663 -4.77276 0
M  V30 6432 H 582.1 -0.125484 -2.54391 0
M  V30 6433 H 582.883 -1.74522 -2.9563 0
M  V30 6434 N 585.328 1.53329 -0.364422 0
M  V30 6435 C 586.739 1.86345 0.115039 0
M  V30 6436 C 587.09 1.28505 1.4826 0
M  V30 6437 O 586.215 0.606639 2.07723 0
M  V30 6438 C 586.81 3.38114 0.215522 0
M  V30 6439 C 585.369 3.70932 0.639237 0
M  V30 6440 C 584.516 2.76471 -0.214261 0
M  V30 6441 H 587.467 1.47593 -0.583258 0
M  V30 6442 H 587.488 3.66031 1.0393 0
M  V30 6443 H 587 3.80182 -0.779948 0
M  V30 6444 H 585.101 3.3442 1.64298 0
M  V30 6445 H 585.214 4.77302 0.41465 0
M  V30 6446 H 583.578 2.52724 0.316678 0
M  V30 6447 H 584.361 3.21373 -1.20725 0
M  V30 6448 N 586.806 0.0935595 1.57322 0
M  V30 6449 C 587.716 -0.880192 2.17462 0
M  V30 6450 C 588.732 -1.31135 1.14366 0
M  V30 6451 O 589.908 -1.37958 1.46729 0
M  V30 6452 C 586.973 -2.12184 2.74188 0
M  V30 6453 C 586.034 -1.74503 3.92234 0
M  V30 6454 C 585.267 -2.92748 4.46245 0
M  V30 6455 O 585.49 -4.07427 3.99198 0
M  V30 6456 O 584.424 -2.71303 5.37288 0
M  V30 6457 H 588.25 -0.398516 3.01074 0
M  V30 6458 H 585.835 -0.130707 1.48827 0
M  V30 6459 H 587.717 -2.84953 3.10451 0
M  V30 6460 H 586.392 -2.59407 1.93623 0
M  V30 6461 H 585.299 -0.989186 3.60785 0
M  V30 6462 H 586.632 -1.32044 4.74157 0
M  V30 6463 N 588.284 -1.56567 -0.180126 0
M  V30 6464 C 589.695 -1.7126 -0.743422 0
M  V30 6465 C 590.046 -0.70263 -1.83187 0
M  V30 6466 O 589.171 0.137856 -2.1596 0
M  V30 6467 C 589.766 -3.10512 -1.35528 0
M  V30 6468 C 588.325 -3.26919 -1.8655 0
M  V30 6469 C 587.472 -2.67213 -0.741099 0
M  V30 6470 H 590.423 -1.58636 0.0451543 0
M  V30 6471 H 590.444 -3.08673 -2.22489 0
M  V30 6472 H 589.956 -3.83997 -0.562862 0
M  V30 6473 H 588.057 -2.58376 -2.68464 0
M  V30 6474 H 588.17 -4.34574 -2.01699 0
M  V30 6475 H 586.534 -2.26788 -1.15927 0
M  V30 6476 H 587.317 -3.43277 0.0393291 0
M  V30 6477 N 589.762 0.448376 -1.51087 0
M  V30 6478 C 590.672 1.56882 -1.74428 0
M  V30 6479 C 591.688 1.62268 -0.62809 0
M  V30 6480 O 592.864 1.79716 -0.909075 0
M  V30 6481 C 589.929 2.92947 -1.85426 0
M  V30 6482 C 588.99 2.97766 -3.09247 0
M  V30 6483 C 588.223 4.27341 -3.19711 0
M  V30 6484 O 588.446 5.19112 -2.36387 0
M  V30 6485 O 587.38 4.38219 -4.12611 0
M  V30 6486 H 591.206 1.40104 -2.69452 0
M  V30 6487 H 588.791 0.630247 -1.35456 0
M  V30 6488 H 590.673 3.73719 -1.94709 0
M  V30 6489 H 589.348 3.09876 -0.935887 0
M  V30 6490 H 588.255 2.15989 -3.0545 0
M  V30 6491 H 589.588 2.8578 -4.00738 0
M  V30 6492 N 591.24 1.41047 0.703093 0
M  V30 6493 C 592.188 1.42494 1.83843 0
M  V30 6494 C 593.182 0.303885 1.66652 0
M  V30 6495 O 594.388 0.475544 1.73605 0
M  V30 6496 H 590.763 0.445685 0.605697 0
M  V30 6497 H 592.734 2.38194 1.79739 0
M  V30 6498 C 591.483 1.31666 3.21807 0
M  V30 6499 H 590.806 2.17212 3.35647 0
M  V30 6500 H 592.246 1.36738 4.01346 0
M  V30 6501 C 590.705 0.0281828 3.36888 0
M  V30 6502 O 591.235 -0.929995 3.90786 0
M  V30 6503 N 589.441 -0.0454322 2.90564 0
M  V30 6504 H 588.988 0.735046 2.4689 0
M  V30 6505 H 588.946 -0.906968 3.01034 0
M  V30 6506 N 592.718 -0.936591 1.26751 0
M  V30 6507 C 593.666 -2.0573 1.08527 0
M  V30 6508 C 594.66 -1.69397 0.0108784 0
M  V30 6509 O 595.866 -1.79215 0.167915 0
M  V30 6510 H 592.241 -0.673691 0.334133 0
M  V30 6511 H 594.212 -2.1825 2.03493 0
M  V30 6512 C 592.961 -3.39738 0.739845 0
M  V30 6513 H 592.284 -3.68174 1.55845 0
M  V30 6514 H 593.724 -4.18955 0.652149 0
M  V30 6515 C 592.183 -3.32292 -0.555288 0
M  V30 6516 O 592.713 -3.68794 -1.59229 0
M  V30 6517 N 590.919 -2.85394 -0.54762 0
M  V30 6518 H 590.466 -2.55886 0.296667 0
M  V30 6519 H 590.424 -2.80795 -1.41427 0
M  V30 6520 N 594.196 -1.08629 -1.14182 0
M  V30 6521 C 595.128 -0.676189 -2.18998 0
M  V30 6522 C 596.141 0.277871 -1.60411 0
M  V30 6523 O 597.33 0.0651771 -1.78381 0
M  V30 6524 C 594.43 0.0254916 -3.3889 0
M  V30 6525 C 593.603 -0.948039 -4.27002 0
M  V30 6526 C 592.662 -0.281268 -5.25448 0
M  V30 6527 O 591.688 -0.926378 -5.61611 0
M  V30 6528 N 592.89 0.967923 -5.72374 0
M  V30 6529 H 595.655 -1.57792 -2.54798 0
M  V30 6530 H 593.216 -0.972665 -1.29425 0
M  V30 6531 H 595.208 0.482554 -4.01813 0
M  V30 6532 H 593.778 0.829348 -3.01398 0
M  V30 6533 H 592.998 -1.58388 -3.6098 0
M  V30 6534 H 594.286 -1.60765 -4.82734 0
M  V30 6535 H 593.684 1.51175 -5.45126 0
M  V30 6536 H 592.241 1.36844 -6.37273 0
M  V30 6537 N 595.674 1.31259 -0.872281 0
M  V30 6538 C 596.607 2.26544 -0.274394 0
M  V30 6539 C 597.585 1.51213 0.597776 0
M  V30 6540 O 598.769 1.80277 0.550687 0
M  V30 6541 C 595.896 3.33139 0.611256 0
M  V30 6542 C 594.942 4.26077 -0.189876 0
M  V30 6543 S 595.775 5.11971 -1.56989 0
M  V30 6544 C 596.931 6.2208 -0.690427 0
M  V30 6545 H 597.164 2.76908 -1.0821 0
M  V30 6546 H 594.697 1.3906 -0.670939 0
M  V30 6547 H 596.655 3.95024 1.11654 0
M  V30 6548 H 595.316 2.81525 1.39294 0
M  V30 6549 H 594.509 5.01657 0.485433 0
M  V30 6550 H 594.111 3.68701 -0.627339 0
M  V30 6551 H 596.403 6.77429 0.098001 0
M  V30 6552 H 597.346 6.93768 -1.41742 0
M  V30 6553 H 597.754 5.63915 -0.256953 0
M  V30 6554 N 597.152 0.631951 1.44375 0
M  V30 6555 C 598.115 -0.0628142 2.29114 0
M  V30 6556 C 599.115 -0.771494 1.41084 0
M  V30 6557 O 600.305 -0.615959 1.62947 0
M  V30 6558 C 597.437 -1.09953 3.22681 0
M  V30 6559 H 598.63 0.682509 2.92031 0
M  V30 6560 H 596.183 0.392128 1.51301 0
M  V30 6561 H 596.918 -1.87481 2.64616 0
M  V30 6562 H 596.703 -0.595286 3.87555 0
M  V30 6563 H 598.193 -1.58538 3.86336 0
M  V30 6564 N 598.631 -1.53133 0.372548 0
M  V30 6565 C 599.88 -2.00539 -0.216115 0
M  V30 6566 C 600.193 -1.26374 -1.49295 0
M  V30 6567 O 601.399 -1.64404 -2.16064 0
M  V30 6568 C 599.855 -3.57253 -0.435678 0
M  V30 6569 C 599.463 -4.40302 0.82693 0
M  V30 6570 C 601.207 -4.12995 -0.981618 0
M  V30 6571 C 599.114 -5.88583 0.576567 0
M  V30 6572 H 598.044 -0.749246 -0.084536 0
M  V30 6573 H 600.695 -1.76771 0.492364 0
M  V30 6574 H 599.077 -3.77202 -1.20559 0
M  V30 6575 H 600.251 -4.32124 1.60017 0
M  V30 6576 H 598.566 -3.95699 1.29659 0
M  V30 6577 H 601.163 -5.21418 -1.18436 0
M  V30 6578 H 601.506 -3.68027 -1.94581 0
M  V30 6579 H 602.039 -3.96871 -0.271696 0
M  V30 6580 H 598.778 -6.37841 1.51128 0
M  V30 6581 H 598.298 -5.99592 -0.158047 0
M  V30 6582 H 599.977 -6.46676 0.204722 0
M  V30 6583 N 600.109 -0.101901 -1.5727 0
M  V30 6584 C 601.334 0.571759 -1.99363 0
M  V30 6585 C 601.759 1.60507 -0.980768 0
M  V30 6586 O 601.117 1.81231 0.0498517 0
M  V30 6587 C 601.165 1.18996 -3.404 0
M  V30 6588 O 600.269 2.30572 -3.41922 0
M  V30 6589 H 599.61 0.144449 -0.648098 0
M  V30 6590 H 602.14 -0.185325 -2.03759 0
M  V30 6591 H 602.15 1.52962 -3.78241 0
M  V30 6592 H 600.825 0.432984 -4.1364 0
M  V30 6593 H 599.402 1.98173 -3.15883 0
M  V30 6594 N 601.587 1.56661 0.17182 0
M  V30 6595 C 602.535 1.97289 1.23207 0
M  V30 6596 C 603.529 0.861566 1.45854 0
M  V30 6597 O 604.735 1.04668 1.4644 0
M  V30 6598 H 601.11 0.627681 0.41415 0
M  V30 6599 H 603.081 2.85662 0.862542 0
M  V30 6600 C 601.83 2.34849 2.564 0
M  V30 6601 H 601.153 3.19903 2.39797 0
M  V30 6602 H 602.593 2.67121 3.29276 0
M  V30 6603 C 601.052 1.19172 3.15119 0
M  V30 6604 O 601.582 0.479113 3.98833 0
M  V30 6605 N 599.788 0.962415 2.74201 0
M  V30 6606 H 599.335 1.54365 2.06226 0
M  V30 6607 H 599.293 0.190272 3.13824 0
M  V30 6608 N 603.065 -0.440357 1.51323 0
M  V30 6609 C 604.013 -1.55492 1.72988 0
M  V30 6610 C 605.007 -1.58564 0.596138 0
M  V30 6611 O 606.213 -1.62345 0.777443 0
M  V30 6612 H 602.588 -0.516532 0.546533 0
M  V30 6613 H 604.559 -1.34392 2.66423 0
M  V30 6614 C 603.308 -2.93176 1.86931 0
M  V30 6615 H 602.631 -2.91543 2.73574 0
M  V30 6616 H 604.071 -3.70537 2.06103 0
M  V30 6617 C 602.53 -3.30988 0.628365 0
M  V30 6618 O 603.06 -4.01106 -0.218367 0
M  V30 6619 N 601.266 -2.86719 0.473339 0
M  V30 6620 H 600.813 -2.2983 1.16345 0
M  V30 6621 H 600.771 -3.12381 -0.355727 0
M  V30 6622 N 604.543 -1.41418 -0.695603 0
M  V30 6623 C 605.768 -1.44329 -1.48942 0
M  V30 6624 C 606.193 -0.0501579 -1.88033 0
M  V30 6625 O 605.551 0.946598 -1.54626 0
M  V30 6626 C 605.599 -2.3578 -2.72837 0
M  V30 6627 O 604.703 -1.81482 -3.70322 0
M  V30 6628 H 604.044 -0.489838 -0.44828 0
M  V30 6629 H 606.574 -1.85878 -0.855014 0
M  V30 6630 H 606.584 -2.51654 -3.21145 0
M  V30 6631 H 605.259 -3.37005 -2.43722 0
M  V30 6632 H 603.836 -1.75058 -3.29255 0
M  V30 6633 N 606.021 0.929856 -1.27246 0
M  V30 6634 C 606.953 2.03434 -1.0558 0
M  V30 6635 C 607.966 1.62795 -0.0125762 0
M  V30 6636 O 609.155 1.76685 -0.2539 0
M  V30 6637 C 606.255 3.33915 -0.57912 0
M  V30 6638 C 605.428 4.03259 -1.69415 0
M  V30 6639 C 604.487 5.12014 -1.21357 0
M  V30 6640 O 603.513 5.36097 -1.91282 0
M  V30 6641 N 604.715 5.8046 -0.0680622 0
M  V30 6642 H 607.48 2.22583 -2.00691 0
M  V30 6643 H 605.041 1.1001 -1.18783 0
M  V30 6644 H 607.033 4.03978 -0.241563 0
M  V30 6645 H 605.603 3.11355 0.278703 0
M  V30 6646 H 604.823 3.26958 -2.20209 0
M  V30 6647 H 606.111 4.46337 -2.44255 0
M  V30 6648 H 605.509 5.63345 0.515626 0
M  V30 6649 H 604.066 6.51461 0.210332 0
M  V30 6650 N 607.499 1.09233 1.13605 0
M  V30 6651 C 608.431 0.687794 2.18637 0
M  V30 6652 C 609.444 -0.26936 1.60556 0
M  V30 6653 O 610.633 -0.0557162 1.78413 0
M  V30 6654 C 607.733 -0.00751901 3.38899 0
M  V30 6655 C 606.906 0.97067 4.26494 0
M  V30 6656 C 605.965 0.309129 5.25291 0
M  V30 6657 O 604.991 0.956149 5.61112 0
M  V30 6658 N 606.193 -0.937555 5.72879 0
M  V30 6659 H 608.958 1.59141 2.53957 0
M  V30 6660 H 606.519 0.979515 1.28907 0
M  V30 6661 H 608.511 -0.461238 4.02063 0
M  V30 6662 H 607.081 -0.813353 3.01833 0
M  V30 6663 H 606.301 1.603 3.60135 0
M  V30 6664 H 607.589 1.63323 4.81875 0
M  V30 6665 H 606.987 -1.48281 5.4592 0
M  V30 6666 H 605.544 -1.33463 6.3799 0
M  V30 6667 N 608.977 -1.30795 0.87923 0
M  V30 6668 C 610.202 -2.01063 0.508769 0
M  V30 6669 C 610.627 -1.65508 -0.893803 0
M  V30 6670 O 609.985 -0.868616 -1.59138 0
M  V30 6671 C 610.033 -3.54054 0.683991 0
M  V30 6672 O 609.137 -4.11498 -0.272654 0
M  V30 6673 H 608.478 -0.632786 0.201191 0
M  V30 6674 H 611.008 -1.66776 1.18519 0
M  V30 6675 H 611.018 -4.03845 0.580798 0
M  V30 6676 H 609.693 -3.79271 1.70665 0
M  V30 6677 H 608.27 -3.72695 -0.12364 0
M  V30 6678 N 610.455 -0.639598 -1.44038 0
M  V30 6679 C 611.403 0.0723409 -2.32487 0
M  V30 6680 C 612.397 0.827129 -1.47834 0
M  V30 6681 O 613.603 0.73907 -1.64127 0
M  V30 6682 H 609.978 0.0421696 -0.750817 0
M  V30 6683 H 611.949 -0.691593 -2.90275 0
M  V30 6684 C 610.698 1.03452 -3.31953 0
M  V30 6685 H 610.021 0.46315 -3.97108 0
M  V30 6686 H 611.461 1.502 -3.96505 0
M  V30 6687 C 609.92 2.12392 -2.61518 0
M  V30 6688 O 610.45 3.2059 -2.42044 0
M  V30 6689 N 608.656 1.88563 -2.21116 0
M  V30 6690 H 608.203 1.00577 -2.37154 0
M  V30 6691 H 608.161 2.61651 -1.74316 0
M  V30 6692 N 611.933 1.52934 -0.380664 0
M  V30 6693 C 612.843 2.29921 0.466192 0
M  V30 6694 C 613.859 1.36488 1.07922 0
M  V30 6695 O 615.035 1.69553 1.0869 0
M  V30 6696 C 612.1 3.08468 1.58266 0
M  V30 6697 C 611.161 4.17595 0.995627 0
M  V30 6698 C 610.394 4.92387 2.05889 0
M  V30 6699 O 610.617 4.67184 3.27254 0
M  V30 6700 O 609.551 5.77949 1.68102 0
M  V30 6701 H 613.377 3.03274 -0.160735 0
M  V30 6702 H 610.962 1.48698 -0.144617 0
M  V30 6703 H 612.844 3.57469 2.23145 0
M  V30 6704 H 611.519 2.37937 2.19471 0
M  V30 6705 H 610.426 3.72811 0.310332 0
M  V30 6706 H 611.759 4.90336 0.427918 0
M  V30 6707 N 613.412 0.11024 1.57214 0
M  V30 6708 C 614.344 -0.873497 2.11902 0
M  V30 6709 C 615.357 -1.23588 1.05971 0
M  V30 6710 O 616.546 -1.18636 1.33371 0
M  V30 6711 C 613.646 -2.17805 2.59643 0
M  V30 6712 C 612.819 -1.98869 3.89576 0
M  V30 6713 C 611.878 -3.12974 4.23006 0
M  V30 6714 O 610.904 -2.86272 4.91973 0
M  V30 6715 N 612.106 -4.39167 3.79622 0
M  V30 6716 H 614.871 -0.406317 2.96933 0
M  V30 6717 H 612.432 -0.074437 1.61729 0
M  V30 6718 H 614.424 -2.93117 2.79042 0
M  V30 6719 H 612.994 -2.55899 1.7954 0
M  V30 6720 H 612.214 -1.078 3.79174 0
M  V30 6721 H 613.502 -1.83512 4.74553 0
M  V30 6722 H 612.9 -4.63739 3.2398 0
M  V30 6723 H 611.457 -5.11379 4.04147 0
M  V30 6724 N 614.89 -1.56749 -0.16351 0
M  V30 6725 C 616.118 -1.86577 -0.894233 0
M  V30 6726 C 616.533 -0.696543 -1.75481 0
M  V30 6727 O 615.89 0.334161 -1.79415 0
M  V30 6728 C 615.941 -3.15508 -1.76456 0
M  V30 6729 O 615.662 -4.27926 -0.938685 0
M  V30 6730 C 617.163 -3.58737 -2.60428 0
M  V30 6731 H 614.383 -0.618829 -0.259405 0
M  V30 6732 H 616.927 -2.03863 -0.161259 0
M  V30 6733 H 615.082 -3.00025 -2.45079 0
M  V30 6734 H 615.496 -5.01546 -1.53465 0
M  V30 6735 H 616.97 -4.51832 -3.17099 0
M  V30 6736 H 617.447 -2.83229 -3.35675 0
M  V30 6737 H 618.053 -3.76858 -1.97125 0
M  V30 6738 N 616.368 0.432326 -1.51554 0
M  V30 6739 C 617.645 1.19288 -1.55015 0
M  V30 6740 C 618.025 2.08701 -0.317375 0
M  V30 6741 O 617.373 2.17602 0.697243 0
M  V30 6742 C 617.583 1.99037 -2.86679 0
M  V30 6743 C 618.931 2.55907 -3.38817 0
M  V30 6744 O 619.955 2.09243 -2.88263 0
M  V30 6745 O 618.814 3.41029 -4.27038 0
M  V30 6746 H 615.908 0.543369 -0.623441 0
M  V30 6747 H 618.454 0.440988 -1.6387 0
M  V30 6748 H 617.226 1.33397 -3.6786 0
M  V30 6749 H 616.849 2.81281 -2.8101 0
M  V30 6750 N 617.846 1.41785 0.688094 0
M  V30 6751 C 619.257 1.3701 1.26828 0
M  V30 6752 C 619.608 0.056835 1.96118 0
M  V30 6753 O 618.733 -0.84475 1.99231 0
M  V30 6754 C 619.328 2.48168 2.30648 0
M  V30 6755 C 617.887 2.46766 2.84224 0
M  V30 6756 C 617.034 2.27633 1.58361 0
M  V30 6757 H 619.985 1.51192 0.482351 0
M  V30 6758 H 620.006 2.17655 3.121 0
M  V30 6759 H 619.518 3.43735 1.80188 0
M  V30 6760 H 617.619 1.54978 3.3884 0
M  V30 6761 H 617.732 3.43342 3.34145 0
M  V30 6762 H 616.096 1.75648 1.84445 0
M  V30 6763 H 616.879 3.25238 1.09887 0
M  V30 6764 N 619.324 -0.923095 1.27737 0
M  V30 6765 C 620.234 -2.05765 1.12685 0
M  V30 6766 C 621.25 -1.73911 0.0557197 0
M  V30 6767 O 622.426 -1.99674 0.263137 0
M  V30 6768 C 619.491 -3.37804 0.780363 0
M  V30 6769 C 618.552 -3.83326 1.93286 0
M  V30 6770 C 617.785 -5.09064 1.60281 0
M  V30 6771 O 618.008 -5.6809 0.512828 0
M  V30 6772 O 616.942 -5.50071 2.44347 0
M  V30 6773 H 620.768 -2.21378 2.07907 0
M  V30 6774 H 618.353 -1.04299 1.06968 0
M  V30 6775 H 620.235 -4.17097 0.600668 0
M  V30 6776 H 618.91 -3.23387 -0.142291 0
M  V30 6777 H 617.817 -3.049 2.16764 0
M  V30 6778 H 619.15 -4.02292 2.83588 0
M  V30 6779 N 620.802 -1.09834 -1.13024 0
M  V30 6780 C 622.213 -0.855651 -1.65938 0
M  V30 6781 C 622.564 0.615159 -1.86307 0
M  V30 6782 O 621.689 1.47335 -1.58497 0
M  V30 6783 C 622.284 -1.5467 -3.01434 0
M  V30 6784 C 620.843 -1.35088 -3.51323 0
M  V30 6785 C 619.99 -1.6001 -2.26478 0
M  V30 6786 H 622.941 -1.25691 -0.968889 0
M  V30 6787 H 622.962 -0.982179 -3.67605 0
M  V30 6788 H 622.474 -2.61715 -2.86578 0
M  V30 6789 H 620.575 -0.30179 -3.71376 0
M  V30 6790 H 620.688 -2.0886 -4.31178 0
M  V30 6791 H 619.052 -1.02246 -2.33276 0
M  V30 6792 H 619.835 -2.68293 -2.14182 0
M  V30 6793 N 622.28 1.30327 -0.886154 0
M  V30 6794 C 623.19 2.31854 -0.357866 0
M  V30 6795 C 624.206 1.65392 0.540502 0
M  V30 6796 O 625.382 1.96683 0.433339 0
M  V30 6797 C 622.447 3.44171 0.417999 0
M  V30 6798 C 621.508 4.26257 -0.510263 0
M  V30 6799 C 620.741 5.3321 0.228669 0
M  V30 6800 O 620.964 5.51542 1.45458 0
M  V30 6801 O 619.898 6.0042 -0.421832 0
M  V30 6802 H 623.724 2.78995 -1.19982 0
M  V30 6803 H 621.309 1.34518 -0.650028 0
M  V30 6804 H 623.191 4.12588 0.857251 0
M  V30 6805 H 621.866 2.99164 1.23623 0
M  V30 6806 H 620.773 3.60533 -0.99835 0
M  V30 6807 H 622.106 4.74871 -1.29454 0
M  V30 6808 N 623.758 0.647228 1.43697 0
M  V30 6809 C 624.668 -0.0487997 2.34549 0
M  V30 6810 C 625.684 -0.818586 1.53542 0
M  V30 6811 O 626.86 -0.767195 1.86215 0
M  V30 6812 C 623.925 -1.00734 3.31743 0
M  V30 6813 C 622.986 -0.23515 4.28655 0
M  V30 6814 C 622.219 -1.14803 5.21206 0
M  V30 6815 O 622.442 -2.38717 5.18045 0
M  V30 6816 O 621.376 -0.623667 5.9866 0
M  V30 6817 H 625.202 0.698863 2.9555 0
M  V30 6818 H 622.787 0.407412 1.43738 0
M  V30 6819 H 624.669 -1.55837 3.91526 0
M  V30 6820 H 623.344 -1.73534 2.73254 0
M  V30 6821 H 622.251 0.359319 3.7237 0
M  V30 6822 H 623.584 0.453152 4.9011 0
M  V30 6823 N 625.236 -1.5273 0.388769 0
M  V30 6824 C 626.184 -2.27975 -0.461527 0
M  V30 6825 C 627.178 -1.31854 -1.06352 0
M  V30 6826 O 628.384 -1.49394 -1.00406 0
M  V30 6827 H 624.759 -0.733088 -0.16759 0
M  V30 6828 H 626.73 -2.97765 0.194579 0
M  V30 6829 C 625.479 -3.09881 -1.577 0
M  V30 6830 H 624.802 -3.83701 -1.12309 0
M  V30 6831 H 626.242 -3.6567 -2.14619 0
M  V30 6832 C 624.701 -2.22159 -2.53272 0
M  V30 6833 O 625.231 -1.84802 -3.56667 0
M  V30 6834 N 623.437 -1.8633 -2.23001 0
M  V30 6835 H 622.984 -2.16909 -1.38954 0
M  V30 6836 H 622.942 -1.27927 -2.87197 0
M  V30 6837 N 626.714 -0.118576 -1.57153 0
M  V30 6838 C 627.624 0.845484 -2.18835 0
M  V30 6839 C 628.64 1.29299 -1.16438 0
M  V30 6840 O 629.816 1.35607 -1.48905 0
M  V30 6841 C 626.881 2.07795 -2.77529 0
M  V30 6842 C 625.942 1.6824 -3.9496 0
M  V30 6843 C 625.175 2.85612 -4.50845 0
M  V30 6844 O 625.398 4.01025 -4.05629 0
M  V30 6845 O 624.332 2.62721 -5.41536 0
M  V30 6846 H 628.158 0.350568 -3.0167 0
M  V30 6847 H 625.743 0.107013 -1.49016 0
M  V30 6848 H 627.625 2.79978 -3.14945 0
M  V30 6849 H 626.3 2.56294 -1.97725 0
M  V30 6850 H 625.207 0.931663 -3.62313 0
M  V30 6851 H 626.54 1.24484 -4.76198 0
M  V30 6852 N 628.193 1.56834 0.155195 0
M  V30 6853 C 629.421 1.87049 0.884326 0
M  V30 6854 C 629.836 0.705839 1.7511 0
M  V30 6855 O 629.193 -0.324641 1.79589 0
M  V30 6856 C 629.244 3.1644 1.74781 0
M  V30 6857 O 628.965 4.28417 0.915978 0
M  V30 6858 C 630.466 3.60113 2.58522 0
M  V30 6859 H 627.686 0.620196 0.25612 0
M  V30 6860 H 630.23 2.03946 0.150445 0
M  V30 6861 H 628.385 3.01321 2.43484 0
M  V30 6862 H 628.799 5.02353 1.50803 0
M  V30 6863 H 630.273 4.53508 3.14698 0
M  V30 6864 H 630.75 2.85005 3.34169 0
M  V30 6865 H 631.356 3.77898 1.95124 0
M  V30 6866 N 629.671 -0.424282 1.51781 0
M  V30 6867 C 630.618 -1.51591 1.74037 0
M  V30 6868 C 631.588 -1.55556 0.582358 0
M  V30 6869 O 632.773 -1.72364 0.818245 0
M  V30 6870 C 629.913 -2.89188 1.8832 0
M  V30 6871 C 629.026 -2.9465 3.1592 0
M  V30 6872 C 628.161 -4.23452 3.20721 0
M  V30 6873 C 627.2 -4.22831 4.42584 0
M  V30 6874 N 626.337 -5.43178 4.44862 0
M  V30 6875 H 631.177 -1.31917 2.67212 0
M  V30 6876 H 628.714 -0.640599 1.32419 0
M  V30 6877 H 630.672 -3.69044 1.94583 0
M  V30 6878 H 629.302 -3.07392 0.985402 0
M  V30 6879 H 628.354 -2.07378 3.18902 0
M  V30 6880 H 629.666 -2.90055 4.05795 0
M  V30 6881 H 628.82 -5.1169 3.25973 0
M  V30 6882 H 627.559 -4.30722 2.28757 0
M  V30 6883 H 626.564 -3.32984 4.37495 0
M  V30 6884 H 627.789 -4.17213 5.35826 0
M  V30 6885 H 625.735 -5.51145 3.55775 0
M  V30 6886 H 625.652 -5.40515 5.28563 0
M  V30 6887 H 626.92 -6.33412 4.54324 0
M  V30 6888 N 631.149 -1.42148 -0.680565 0
M  V30 6889 C 632.096 -1.45175 -1.79424 0
M  V30 6890 C 633.066 -0.304352 -1.63288 0
M  V30 6891 O 634.251 -0.507591 -1.83924 0
M  V30 6892 C 631.391 -1.35429 -3.17416 0
M  V30 6893 C 630.504 -2.60158 -3.4488 0
M  V30 6894 C 629.639 -2.42596 -4.72568 0
M  V30 6895 C 628.678 -3.62727 -4.93047 0
M  V30 6896 N 627.815 -3.44143 -6.11973 0
M  V30 6897 H 632.655 -2.40349 -1.76172 0
M  V30 6898 H 630.192 -1.19334 -0.860107 0
M  V30 6899 H 632.15 -1.27777 -3.97151 0
M  V30 6900 H 630.78 -0.438536 -3.19807 0
M  V30 6901 H 629.832 -2.78199 -2.5944 0
M  V30 6902 H 631.144 -3.49473 -3.55908 0
M  V30 6903 H 630.298 -2.32497 -5.60384 0
M  V30 6904 H 629.037 -1.50761 -4.63813 0
M  V30 6905 H 628.042 -3.73264 -4.03676 0
M  V30 6906 H 629.267 -4.55534 -5.03652 0
M  V30 6907 H 627.213 -2.5502 -6.04401 0
M  V30 6908 H 627.13 -4.27041 -6.23836 0
M  V30 6909 H 628.398 -3.37845 -7.02482 0
M  V30 6910 N 632.627 0.916307 -1.28225 0
M  V30 6911 C 633.537 2.05165 -1.13775 0
M  V30 6912 C 634.553 1.73879 -0.0649418 0
M  V30 6913 O 635.729 1.99531 -0.273722 0
M  V30 6914 C 632.794 3.37385 -0.798267 0
M  V30 6915 C 631.855 3.82296 -1.95316 0
M  V30 6916 C 631.088 5.08206 -1.62978 0
M  V30 6917 O 631.311 5.6781 -0.542948 0
M  V30 6918 O 630.245 5.48768 -2.47261 0
M  V30 6919 H 634.071 2.20273 -2.09078 0
M  V30 6920 H 631.656 1.0373 -1.07519 0
M  V30 6921 H 633.538 4.16773 -0.62278 0
M  V30 6922 H 632.213 3.23458 0.125139 0
M  V30 6923 H 631.12 3.03746 -2.18378 0
M  V30 6924 H 632.453 4.00782 -2.85718 0
M  V30 6925 N 634.105 1.10431 1.1244 0
M  V30 6926 C 635.33 0.869089 1.88313 0
M  V30 6927 C 635.755 -0.574912 1.79099 0
M  V30 6928 O 635.113 -1.40496 1.14589 0
M  V30 6929 C 635.161 1.32208 3.3549 0
M  V30 6930 O 634.265 0.487092 4.09513 0
M  V30 6931 H 633.606 0.313894 0.585121 0
M  V30 6932 H 636.136 1.47111 1.42195 0
M  V30 6933 H 636.146 1.31201 3.86329 0
M  V30 6934 H 634.821 2.37364 3.41513 0
M  V30 6935 H 633.398 0.562372 3.68635 0
M  V30 6936 N 635.583 -1.29855 0.893053 0
M  V30 6937 C 636.808 -2.00512 0.530066 0
M  V30 6938 C 637.233 -1.66446 -0.876199 0
M  V30 6939 O 636.591 -0.885446 -1.58207 0
M  V30 6940 C 636.639 -3.53308 0.721505 0
M  V30 6941 O 635.743 -4.11764 -0.228994 0
M  V30 6942 H 635.084 -0.630617 0.207891 0
M  V30 6943 H 637.614 -1.6551 1.20282 0
M  V30 6944 H 637.624 -4.03206 0.623599 0
M  V30 6945 H 636.299 -3.77439 1.74678 0
M  V30 6946 H 634.876 -3.72805 -0.0841034 0
M  V30 6947 N 637.061 -0.65484 -1.43351 0
M  V30 6948 C 638.307 -0.169142 -2.02093 0
M  V30 6949 C 638.64 1.21431 -1.51553 0
M  V30 6950 O 637.915 1.81105 -0.709317 0
M  V30 6951 C 638.198 -0.181775 -3.59641 0
M  V30 6952 C 638.051 -1.59926 -4.20409 0
M  V30 6953 C 639.37 0.480945 -4.37464 0
M  V30 6954 H 636.489 -0.0629371 -0.734308 0
M  V30 6955 H 639.131 -0.835833 -1.70628 0
M  V30 6956 H 637.281 0.385918 -3.86578 0
M  V30 6957 H 638.953 -2.21766 -4.04497 0
M  V30 6958 H 637.196 -2.14605 -3.76998 0
M  V30 6959 H 637.867 -1.55994 -5.295 0
M  V30 6960 H 640.343 -0.00208273 -4.161 0
M  V30 6961 H 639.219 0.441384 -5.47122 0
M  V30 6962 H 639.48 1.55533 -4.13838 0
M  V30 6963 N 638.539 1.52521 -0.396863 0
M  V30 6964 C 639.95 1.86547 0.0754868 0
M  V30 6965 C 640.301 1.31621 1.45501 0
M  V30 6966 O 639.426 0.650563 2.0639 0
M  V30 6967 C 640.021 3.38495 0.143754 0
M  V30 6968 C 638.58 3.72205 0.560413 0
M  V30 6969 C 637.727 2.75954 -0.272856 0
M  V30 6970 H 640.678 1.46323 -0.614434 0
M  V30 6971 H 640.699 3.68153 0.961425 0
M  V30 6972 H 640.211 3.78442 -0.860415 0
M  V30 6973 H 638.312 3.3783 1.57167 0
M  V30 6974 H 638.425 4.78074 0.313314 0
M  V30 6975 H 636.789 2.53339 0.263 0
M  V30 6976 H 637.572 3.1874 -1.27515 0
M  V30 6977 N 640.017 0.126909 1.57088 0
M  V30 6978 C 640.95 -0.857844 2.11462 0
M  V30 6979 C 641.928 -1.25569 1.03301 0
M  V30 6980 O 643.112 -1.35535 1.31006 0
M  V30 6981 C 640.239 -2.14912 2.61784 0
M  V30 6982 C 639.285 -1.89874 3.81903 0
M  V30 6983 S 640.118 -1.10785 5.23915 0
M  V30 6984 C 641.274 -2.41075 5.7761 0
M  V30 6985 H 641.507 -0.395384 2.94659 0
M  V30 6986 H 639.04 -0.0870151 1.54155 0
M  V30 6987 H 640.998 -2.89101 2.91429 0
M  V30 6988 H 639.659 -2.58275 1.78754 0
M  V30 6989 H 638.852 -2.85572 4.15289 0
M  V30 6990 H 638.454 -1.23802 3.52915 0
M  V30 6991 H 640.746 -3.36864 5.87817 0
M  V30 6992 H 641.689 -2.12223 6.75549 0
M  V30 6993 H 642.097 -2.50804 5.05725 0
M  V30 6994 N 641.495 -1.56914 -0.146875 0
M  V30 6995 C 642.735 -1.85163 -0.86568 0
M  V30 6996 C 643.099 -0.711215 -1.78342 0
M  V30 6997 O 644.3 -0.874754 -2.54168 0
M  V30 6998 C 642.571 -3.18593 -1.61967 0
M  V30 6999 S 644.13 -3.68397 -2.38388 0
M  V30 7000 H 640.948 -0.6494 -0.289483 0
M  V30 7001 H 643.55 -1.95096 -0.125679 0
M  V30 7002 H 642.254 -3.99562 -0.93694 0
M  V30 7003 H 641.785 -3.11666 -2.40058 0
M  V30 7004 H 643.8 -3.37672 -3.63582 0
M  V30 7005 N 642.974 0.416227 -1.52004 0
M  V30 7006 C 643.906 1.52552 -1.71058 0
M  V30 7007 C 644.919 1.51693 -0.59102 0
M  V30 7008 O 646.108 1.56087 -0.865973 0
M  V30 7009 C 643.208 2.91455 -1.72937 0
M  V30 7010 C 642.381 3.16584 -3.01816 0
M  V30 7011 C 641.44 4.35322 -2.95603 0
M  V30 7012 O 640.466 4.32947 -3.6952 0
M  V30 7013 N 641.668 5.40049 -2.12903 0
M  V30 7014 H 644.433 1.36604 -2.66757 0
M  V30 7015 H 641.994 0.60544 -1.50153 0
M  V30 7016 H 643.986 3.68944 -1.66321 0
M  V30 7017 H 642.556 3.00895 -0.847418 0
M  V30 7018 H 641.776 2.27203 -3.22137 0
M  V30 7019 H 643.064 3.30213 -3.87088 0
M  V30 7020 H 642.462 5.44823 -1.52265 0
M  V30 7021 H 641.019 6.16308 -2.1215 0
M  V30 7022 N 644.452 1.42507 0.673017 0
M  V30 7023 C 645.7 1.42789 1.43023 0
M  V30 7024 C 646.021 0.0459738 1.94946 0
M  V30 7025 O 645.291 -0.915765 1.73178 0
M  V30 7026 H 643.871 0.525657 0.530748 0
M  V30 7027 H 646.533 1.77944 0.795113 0
M  V30 7028 H 645.629 2.12872 2.28237 0
M  V30 7029 N 645.93 -0.909495 1.28709 0
M  V30 7030 C 646.84 -2.04558 1.14861 0
M  V30 7031 C 647.856 -1.73842 0.0741621 0
M  V30 7032 O 649.032 -1.99383 0.2843 0
M  V30 7033 C 646.097 -3.36957 0.816148 0
M  V30 7034 C 645.158 -3.81255 1.97341 0
M  V30 7035 C 644.391 -5.07335 1.65671 0
M  V30 7036 O 644.614 -5.67514 0.573053 0
M  V30 7037 O 643.548 -5.47449 2.50167 0
M  V30 7038 H 647.374 -2.19161 2.10243 0
M  V30 7039 H 644.959 -1.03159 1.08068 0
M  V30 7040 H 646.841 -4.16436 0.644873 0
M  V30 7041 H 645.516 -3.2352 -0.107983 0
M  V30 7042 H 644.423 -3.02584 2.19986 0
M  V30 7043 H 645.756 -3.99261 2.87839 0
M  V30 7044 N 647.408 -1.11026 -1.11852 0
M  V30 7045 C 648.338 -0.786812 -2.19844 0
M  V30 7046 C 649.319 0.242935 -1.68356 0
M  V30 7047 O 650.504 0.107355 -1.93903 0
M  V30 7048 C 647.634 -0.224516 -3.46574 0
M  V30 7049 C 646.588 -1.18564 -4.1125 0
M  V30 7050 C 645.914 -0.484261 -5.32503 0
M  V30 7051 C 647.214 -2.53465 -4.56676 0
M  V30 7052 H 648.908 -1.68978 -2.47158 0
M  V30 7053 H 646.454 -0.813906 -1.18792 0
M  V30 7054 H 648.407 0.0139435 -4.21398 0
M  V30 7055 H 647.131 0.713722 -3.18706 0
M  V30 7056 H 645.79 -1.40966 -3.38414 0
M  V30 7057 H 645.438 0.458646 -5.00905 0
M  V30 7058 H 645.138 -1.12526 -5.76725 0
M  V30 7059 H 646.662 -0.254492 -6.10069 0
M  V30 7060 H 648.076 -2.35177 -5.22843 0
M  V30 7061 H 646.473 -3.13507 -5.11697 0
M  V30 7062 H 647.543 -3.13008 -3.70343 0
M  V30 7063 N 648.886 1.2938 -0.899927 0
M  V30 7064 C 650.302 1.48052 -0.596059 0
M  V30 7065 C 650.502 1.82114 0.862372 0
M  V30 7066 O 649.558 1.91774 1.64253 0
M  V30 7067 C 650.871 2.59332 -1.52208 0
M  V30 7068 C 652.419 2.73208 -1.5273 0
M  V30 7069 C 652.894 3.87617 -2.43961 0
M  V30 7070 N 654.385 3.9495 -2.42009 0
M  V30 7071 C 655.12 4.82824 -3.09303 0
M  V30 7072 N 654.616 5.75387 -3.85877 0
M  V30 7073 N 656.409 4.76317 -2.98459 0
M  V30 7074 H 648.56 1.05546 -1.8432 0
M  V30 7075 H 650.823 0.524314 -0.78981 0
M  V30 7076 H 650.529 2.41029 -2.56121 0
M  V30 7077 H 650.403 3.56139 -1.24278 0
M  V30 7078 H 652.79 2.90908 -0.495614 0
M  V30 7079 H 652.871 1.76975 -1.84698 0
M  V30 7080 H 652.515 3.70672 -3.47224 0
M  V30 7081 H 652.445 4.83218 -2.09303 0
M  V30 7082 H 654.936 3.28744 -1.86375 0
M  V30 7083 H 655.249 6.39235 -4.34279 0
M  V30 7084 H 653.594 5.75272 -3.89984 0
M  V30 7085 H 656.785 4.0299 -2.38152 0
M  V30 7086 H 656.958 5.44589 -3.51179 0
M  V30 7087 N 650.364 0.662433 1.43002 0
M  V30 7088 C 651.314 -0.0460442 2.27954 0
M  V30 7089 C 652.298 -0.785753 1.40409 0
M  V30 7090 O 653.49 -0.666701 1.63964 0
M  V30 7091 C 650.619 -1.00532 3.2825 0
M  V30 7092 C 649.705 -0.263604 4.2328 0
M  V30 7093 N 650.096 0.724855 5.00579 0
M  V30 7094 C 648.394 -0.503778 4.43146 0
M  V30 7095 C 649.095 1.16594 5.69895 0
M  V30 7096 N 648.071 0.498345 5.41311 0
M  V30 7097 H 651.873 0.712314 2.85137 0
M  V30 7098 H 649.387 0.490469 1.54817 0
M  V30 7099 H 651.384 -1.52775 3.87899 0
M  V30 7100 H 650.044 -1.76364 2.72628 0
M  V30 7101 H 651.055 1.10393 5.05998 0
M  V30 7102 H 647.732 -1.24255 3.98581 0
M  V30 7103 H 649.122 1.98434 6.4193 0
M  V30 7104 N 651.842 -1.52309 0.404946 0
M  V30 7105 C 653.088 -2.02731 -0.164857 0
M  V30 7106 C 653.443 -1.28543 -1.43159 0
M  V30 7107 O 652.736 -0.381883 -1.87756 0
M  V30 7108 C 652.93 -3.54284 -0.470895 0
M  V30 7109 C 652.759 -4.43152 0.764625 0
M  V30 7110 C 651.529 -4.88594 1.28858 0
M  V30 7111 C 653.727 -4.874 1.64152 0
M  V30 7112 N 651.709 -5.61577 2.48001 0
M  V30 7113 C 653.08 -5.59121 2.67924 0
M  V30 7114 C 655.135 -4.69421 1.65978 0
M  V30 7115 C 653.838 -6.14772 3.73427 0
M  V30 7116 C 655.864 -5.25966 2.70396 0
M  V30 7117 C 655.226 -5.97606 3.7289 0
M  V30 7118 H 651.325 -0.78169 -0.0220025 0
M  V30 7119 H 653.909 -1.86522 0.558354 0
M  V30 7120 H 652.08 -3.70574 -1.16315 0
M  V30 7121 H 653.812 -3.91394 -1.02921 0
M  V30 7122 H 650.567 -4.6596 0.847232 0
M  V30 7123 H 650.991 -6.02712 3.08329 0
M  V30 7124 H 655.633 -4.13524 0.88079 0
M  V30 7125 H 653.351 -6.69743 4.52184 0
M  V30 7126 H 656.937 -5.13926 2.72711 0
M  V30 7127 H 655.817 -6.40577 4.52361 0
M  V30 7128 N 653.32 -0.135238 -1.57019 0
M  V30 7129 C 654.267 0.808908 -2.1616 0
M  V30 7130 C 655.237 1.25234 -1.09113 0
M  V30 7131 O 656.422 1.32697 -1.37099 0
M  V30 7132 C 653.562 2.04729 -2.77813 0
M  V30 7133 C 652.675 1.65074 -3.99218 0
M  V30 7134 C 651.81 2.84002 -4.48906 0
M  V30 7135 C 650.849 2.40663 -5.62803 0
M  V30 7136 N 649.986 3.5256 -6.07162 0
M  V30 7137 H 654.826 0.297751 -2.96509 0
M  V30 7138 H 652.363 0.135264 -1.46477 0
M  V30 7139 H 654.321 2.7731 -3.11697 0
M  V30 7140 H 652.951 2.53275 -2.00128 0
M  V30 7141 H 652.003 0.823029 -3.7139 0
M  V30 7142 H 653.315 1.29236 -4.81767 0
M  V30 7143 H 652.469 3.64788 -4.84783 0
M  V30 7144 H 651.208 3.23076 -3.65339 0
M  V30 7145 H 650.213 1.58314 -5.26514 0
M  V30 7146 H 651.438 2.02687 -6.48147 0
M  V30 7147 H 649.384 3.91278 -5.26534 0
M  V30 7148 H 649.301 3.20699 -6.84608 0
M  V30 7149 H 650.569 4.33738 -6.47682 0
M  V30 7150 N 654.798 1.5699 0.138552 0
M  V30 7151 C 656.026 1.87976 0.864437 0
M  V30 7152 C 656.441 0.724372 1.74351 0
M  V30 7153 O 655.798 -0.305575 1.79924 0
M  V30 7154 C 655.849 3.18276 1.71414 0
M  V30 7155 O 655.57 4.29365 0.870487 0
M  V30 7156 C 657.071 3.62834 2.54688 0
M  V30 7157 H 654.291 0.622878 0.249528 0
M  V30 7158 H 656.835 2.04094 0.128805 0
M  V30 7159 H 654.99 3.03886 2.40274 0
M  V30 7160 H 655.404 5.03924 1.45466 0
M  V30 7161 H 656.878 4.5682 3.0987 0
M  V30 7162 H 657.355 2.88533 3.31127 0
M  V30 7163 H 657.961 3.79946 1.91105 0
M  V30 7164 N 656.276 -0.40816 1.52223 0
M  V30 7165 C 657.524 -1.15274 1.66001 0
M  V30 7166 C 657.845 -1.91003 0.392803 0
M  V30 7167 O 657.115 -1.8673 -0.592336 0
M  V30 7168 H 655.695 -0.428526 0.611861 0
M  V30 7169 H 658.357 -0.46512 1.89269 0
M  V30 7170 H 657.453 -1.86628 2.50153 0
M  V30 7171 N 657.755 -1.42862 -0.66545 0
M  V30 7172 C 658.705 -1.43521 -1.7716 0
M  V30 7173 C 659.689 -0.305267 -1.57978 0
M  V30 7174 O 660.881 -0.548176 -1.68297 0
M  V30 7175 C 658.01 -1.34914 -3.15679 0
M  V30 7176 C 657.096 -2.5289 -3.40452 0
M  V30 7177 N 657.487 -3.78284 -3.3576 0
M  V30 7178 C 655.785 -2.47351 -3.71124 0
M  V30 7179 C 656.486 -4.56701 -3.60276 0
M  V30 7180 N 655.462 -3.87249 -3.81496 0
M  V30 7181 H 659.264 -2.38357 -1.7194 0
M  V30 7182 H 656.778 -1.37342 -0.866653 0
M  V30 7183 H 658.775 -1.33468 -3.94958 0
M  V30 7184 H 657.435 -0.410881 -3.2209 0
M  V30 7185 H 658.446 -4.10746 -3.15448 0
M  V30 7186 H 655.123 -1.62152 -3.84725 0
M  V30 7187 H 656.513 -5.65704 -3.6253 0
M  V30 7188 N 659.233 0.902656 -1.29189 0
M  V30 7189 C 660.463 1.68394 -1.19695 0
M  V30 7190 C 660.871 1.87602 0.245384 0
M  V30 7191 O 660.214 1.41084 1.17648 0
M  V30 7192 C 660.276 3.09094 -1.83578 0
M  V30 7193 C 659.94 3.1313 -3.32864 0
M  V30 7194 C 660.937 2.93497 -4.29134 0
M  V30 7195 C 658.622 3.3529 -3.74013 0
M  V30 7196 C 660.616 2.95953 -5.64527 0
M  V30 7197 C 658.303 3.37377 -5.09529 0
M  V30 7198 C 659.301 3.1773 -6.04596 0
M  V30 7199 O 658.989 3.196 -7.37639 0
M  V30 7200 H 658.721 0.532815 -0.416034 0
M  V30 7201 H 661.275 1.1374 -1.71033 0
M  V30 7202 H 659.505 3.65338 -1.26747 0
M  V30 7203 H 661.194 3.69297 -1.68447 0
M  V30 7204 H 661.96 2.76192 -3.98677 0
M  V30 7205 H 657.839 3.49623 -3.00474 0
M  V30 7206 H 661.383 2.80536 -6.38706 0
M  V30 7207 H 657.28 3.54213 -5.39633 0
M  V30 7208 H 658.048 3.35887 -7.46406 0
M  V30 7209 N 660.711 1.11618 1.11262 0
M  V30 7210 C 661.939 0.888739 1.8684 0
M  V30 7211 C 662.354 -0.561558 1.80255 0
M  V30 7212 O 661.711 -1.38782 1.18515 0
M  V30 7213 C 661.762 1.34422 3.35579 0
M  V30 7214 O 661.483 2.73766 3.42029 0
M  V30 7215 C 662.984 1.15246 4.28058 0
M  V30 7216 H 660.204 0.318152 0.590779 0
M  V30 7217 H 662.748 1.48398 1.40707 0
M  V30 7218 H 660.903 0.79239 3.7921 0
M  V30 7219 H 661.317 2.9355 4.34659 0
M  V30 7220 H 662.791 1.52015 5.30656 0
M  V30 7221 H 663.268 0.0922007 4.39103 0
M  V30 7222 H 663.874 1.69136 3.90222 0
M  V30 7223 N 662.189 -1.289 0.906776 0
M  V30 7224 C 663.119 -2.29932 0.406659 0
M  V30 7225 C 664.1 -1.6189 -0.522061 0
M  V30 7226 O 665.285 -1.8935 -0.431283 0
M  V30 7227 C 662.415 -3.45425 -0.360366 0
M  V30 7228 C 661.369 -4.25316 0.478574 0
M  V30 7229 C 660.695 -5.33076 -0.416373 0
M  V30 7230 C 661.995 -4.92739 1.7322 0
M  V30 7231 H 663.689 -2.72013 1.25097 0
M  V30 7232 H 661.235 -1.30768 0.602977 0
M  V30 7233 H 663.188 -4.15186 -0.721029 0
M  V30 7234 H 661.912 -3.02206 -1.23852 0
M  V30 7235 H 660.571 -3.57273 0.821662 0
M  V30 7236 H 660.219 -4.86101 -1.29287 0
M  V30 7237 H 659.919 -5.8743 0.141309 0
M  V30 7238 H 661.443 -6.05686 -0.773072 0
M  V30 7239 H 662.857 -5.54898 1.44086 0
M  V30 7240 H 661.254 -5.57057 2.23175 0
M  V30 7241 H 662.324 -4.17625 2.46408 0
M  V30 7242 N 663.667 -0.670007 -1.42649 0
M  V30 7243 C 664.916 -0.187526 -2.00826 0
M  V30 7244 C 665.229 1.21142 -1.53571 0
M  V30 7245 O 666.435 1.79001 -2.04134 0
M  V30 7246 C 664.891 -0.284409 -3.58774 0
M  V30 7247 C 664.499 -1.6871 -4.15019 0
M  V30 7248 C 666.243 0.139605 -4.2427 0
M  V30 7249 C 664.15 -1.73701 -5.65316 0
M  V30 7250 H 663.08 -0.0663468 -0.751075 0
M  V30 7251 H 665.731 -0.834492 -1.63427 0
M  V30 7252 H 664.113 0.430364 -3.93655 0
M  V30 7253 H 665.287 -2.42857 -3.91608 0
M  V30 7254 H 663.602 -2.05855 -3.61957 0
M  V30 7255 H 666.199 0.122398 -5.3456 0
M  V30 7256 H 666.542 1.17403 -3.99402 0
M  V30 7257 H 667.075 -0.523995 -3.94334 0
M  V30 7258 H 663.814 -2.75109 -5.94975 0
M  V30 7259 H 663.334 -1.03903 -5.90732 0
M  V30 7260 H 665.013 -1.48829 -6.2965 0
M  V30 7261 N 665.145 1.52092 -0.413018 0
M  V30 7262 C 666.095 2.23947 0.427993 0
M  V30 7263 C 667.079 1.25229 1.01027 0
M  V30 7264 O 668.271 1.50448 0.932444 0
M  V30 7265 C 665.4 3.0672 1.542 0
M  V30 7266 C 664.486 4.12851 0.970307 0
M  V30 7267 N 664.877 5.05644 0.125611 0
M  V30 7268 C 663.175 4.28404 1.24042 0
M  V30 7269 C 663.876 5.8138 -0.192876 0
M  V30 7270 N 662.852 5.41996 0.417273 0
M  V30 7271 H 666.654 2.93048 -0.223628 0
M  V30 7272 H 664.168 1.60852 -0.223664 0
M  V30 7273 H 666.165 3.56754 2.15714 0
M  V30 7274 H 664.825 2.39159 2.19621 0
M  V30 7275 H 665.836 5.17348 -0.238995 0
M  V30 7276 H 662.513 3.72071 1.89391 0
M  V30 7277 H 663.903 6.66129 -0.878762 0
M  V30 7278 N 666.623 0.143563 1.56945 0
M  V30 7279 C 667.9 -0.553285 1.87612 0
M  V30 7280 C 668.28 -1.83195 1.04894 0
M  V30 7281 O 667.628 -2.28102 0.134773 0
M  V30 7282 C 667.838 -0.822055 3.3918 0
M  V30 7283 C 669.186 -1.16435 4.08324 0
M  V30 7284 O 670.21 -0.911522 3.4434 0
M  V30 7285 O 669.069 -1.63996 5.21313 0
M  V30 7286 H 666.163 -0.281851 0.777489 0
M  V30 7287 H 668.709 0.179916 1.68744 0
M  V30 7288 H 667.481 0.0830265 3.91212 0
M  V30 7289 H 667.104 -1.60956 3.63564 0
M  V30 7290 N 668.101 -1.57061 -0.130224 0
M  V30 7291 C 669.051 -1.95941 -1.16582 0
M  V30 7292 C 670.035 -0.832858 -1.37667 0
M  V30 7293 O 671.227 -1.09647 -1.38948 0
M  V30 7294 C 668.356 -2.35777 -2.49528 0
M  V30 7295 C 667.442 -3.5504 -2.31964 0
M  V30 7296 N 667.833 -4.71071 -1.84189 0
M  V30 7297 C 666.131 -3.60453 -2.62659 0
M  V30 7298 C 666.832 -5.53128 -1.80068 0
M  V30 7299 N 665.808 -4.95303 -2.24001 0
M  V30 7300 H 669.61 -2.83117 -0.788806 0
M  V30 7301 H 667.124 -1.58842 -0.3381 0
M  V30 7302 H 669.121 -2.61843 -3.24413 0
M  V30 7303 H 667.781 -1.49961 -2.87996 0
M  V30 7304 H 668.792 -4.94504 -1.53903 0
M  V30 7305 H 665.469 -2.85217 -3.0489 0
M  V30 7306 H 666.859 -6.56182 -1.4448 0
M  V30 7307 N 669.579 0.400081 -1.52437 0
M  V30 7308 C 670.804 1.17221 -1.71096 0
M  V30 7309 C 671.229 1.83269 -0.423565 0
M  V30 7310 O 670.587 1.70378 0.619751 0
M  V30 7311 C 670.635 2.20425 -2.85386 0
M  V30 7312 O 669.739 3.26769 -2.51586 0
M  V30 7313 H 669.08 0.341766 -0.569291 0
M  V30 7314 H 671.61 0.467772 -1.99181 0
M  V30 7315 H 671.62 2.64605 -3.10561 0
M  V30 7316 H 670.295 1.71737 -3.78786 0
M  V30 7317 H 668.872 2.87804 -2.37114 0
M  V30 7318 N 671.057 1.43213 0.657864 0
M  V30 7319 C 672.004 1.48011 1.77092 0
M  V30 7320 C 672.974 0.330291 1.62783 0
M  V30 7321 O 674.159 0.536787 1.83094 0
M  V30 7322 C 671.299 1.40461 3.15222 0
M  V30 7323 C 670.412 2.65612 3.40697 0
M  V30 7324 C 669.547 2.50083 4.68649 0
M  V30 7325 C 668.586 3.70525 4.87214 0
M  V30 7326 N 667.723 3.53835 6.0642 0
M  V30 7327 H 672.563 2.43121 1.72326 0
M  V30 7328 H 670.1 1.20687 0.841013 0
M  V30 7329 H 672.058 1.34079 3.95068 0
M  V30 7330 H 670.688 0.489359 3.19069 0
M  V30 7331 H 669.74 2.82292 2.54982 0
M  V30 7332 H 671.052 3.5509 3.50303 0
M  V30 7333 H 670.206 2.41383 5.56614 0
M  V30 7334 H 668.945 1.58121 4.61356 0
M  V30 7335 H 667.95 3.79639 3.97686 0
M  V30 7336 H 669.175 4.63489 4.96341 0
M  V30 7337 H 667.121 2.64604 6.00267 0
M  V30 7338 H 667.038 4.36912 6.16963 0
M  V30 7339 H 668.306 3.48978 6.97019 0
M  V30 7340 N 672.536 -0.895792 1.29666 0
M  V30 7341 C 673.499 -1.98189 1.15124 0
M  V30 7342 C 674.499 -1.60572 0.0855717 0
M  V30 7343 O 675.689 -1.70991 0.332826 0
M  V30 7344 C 672.821 -3.32289 0.761372 0
M  V30 7345 H 674.014 -2.12518 2.11603 0
M  V30 7346 H 671.567 -1.0808 1.12908 0
M  V30 7347 H 672.302 -3.23662 -0.203393 0
M  V30 7348 H 672.087 -3.60958 1.53139 0
M  V30 7349 H 673.577 -4.1198 0.682792 0
M  V30 7350 N 674.014 -1.12206 -1.10668 0
M  V30 7351 C 674.924 -0.800686 -2.20513 0
M  V30 7352 C 675.94 0.209512 -1.72734 0
M  V30 7353 O 677.116 0.043705 -2.01353 0
M  V30 7354 C 674.181 -0.257353 -3.45744 0
M  V30 7355 C 673.242 -1.32718 -4.0827 0
M  V30 7356 C 672.475 -0.809674 -5.27522 0
M  V30 7357 O 672.698 0.35742 -5.69279 0
M  V30 7358 O 671.632 -1.57816 -5.80842 0
M  V30 7359 H 675.458 -1.71807 -2.50432 0
M  V30 7360 H 673.043 -0.898546 -1.19359 0
M  V30 7361 H 674.925 0.0408849 -4.2138 0
M  V30 7362 H 673.6 0.632627 -3.17458 0
M  V30 7363 H 672.507 -1.67855 -3.34329 0
M  V30 7364 H 673.84 -2.19083 -4.40753 0
M  V30 7365 N 675.492 1.28418 -0.913599 0
M  V30 7366 C 676.739 1.94981 -0.546674 0
M  V30 7367 C 677.067 1.7192 0.909606 0
M  V30 7368 O 676.322 1.03314 1.66207 0
M  V30 7369 C 676.621 3.48283 -0.802099 0
M  V30 7370 C 676.287 3.91444 -2.2379 0
M  V30 7371 C 674.949 4.02939 -2.63046 0
M  V30 7372 C 677.301 4.13542 -3.17227 0
M  V30 7373 C 674.629 4.3391 -3.94891 0
M  V30 7374 C 676.981 4.45992 -4.48636 0
M  V30 7375 C 675.645 4.55698 -4.87746 0
M  V30 7376 H 674.915 0.713487 -0.200042 0
M  V30 7377 H 677.562 1.52756 -1.15489 0
M  V30 7378 H 675.867 3.91643 -0.111076 0
M  V30 7379 H 677.564 3.97903 -0.497375 0
M  V30 7380 H 674.154 3.83024 -1.9233 0
M  V30 7381 H 678.338 4.04114 -2.88107 0
M  V30 7382 H 673.594 4.39631 -4.24894 0
M  V30 7383 H 677.768 4.62038 -5.21051 0
M  V30 7384 H 675.395 4.79451 -5.89942 0
M  V30 7385 N 676.97 0.677563 1.42291 0
M  V30 7386 C 677.933 0.0101085 2.29198 0
M  V30 7387 C 678.933 -0.726219 1.43467 0
M  V30 7388 O 680.123 -0.563807 1.64824 0
M  V30 7389 C 677.255 -0.996316 3.26016 0
M  V30 7390 H 678.448 0.775071 2.89711 0
M  V30 7391 H 676.001 0.440065 1.49977 0
M  V30 7392 H 676.736 -1.78967 2.70446 0
M  V30 7393 H 676.521 -0.471687 3.89253 0
M  V30 7394 H 678.011 -1.46167 3.91184 0
M  V30 7395 N 678.448 -1.51871 0.421078 0
M  V30 7396 C 679.378 -2.30231 -0.389363 0
M  V30 7397 C 680.359 -1.34946 -1.03555 0
M  V30 7398 O 681.544 -1.63859 -1.04229 0
M  V30 7399 C 678.674 -3.13247 -1.49979 0
M  V30 7400 C 677.628 -4.16677 -0.977966 0
M  V30 7401 C 676.954 -4.88112 -2.1829 0
M  V30 7402 C 678.254 -5.22295 -0.0236775 0
M  V30 7403 H 679.948 -2.98229 0.264524 0
M  V30 7404 H 677.494 -1.43424 0.12866 0
M  V30 7405 H 679.447 -3.66838 -2.07383 0
M  V30 7406 H 678.171 -2.4304 -2.18173 0
M  V30 7407 H 676.83 -3.64114 -0.426245 0
M  V30 7408 H 676.478 -4.14423 -2.85066 0
M  V30 7409 H 676.178 -5.58041 -1.84021 0
M  V30 7410 H 677.702 -5.44521 -2.76278 0
M  V30 7411 H 679.116 -5.71055 -0.506899 0
M  V30 7412 H 677.513 -5.99656 0.230782 0
M  V30 7413 H 678.583 -4.76131 0.917999 0
M  V30 7414 N 679.926 -0.151884 -1.56866 0
M  V30 7415 C 681.203 0.543328 -1.87902 0
M  V30 7416 C 681.583 1.82636 -1.05864 0
M  V30 7417 O 680.931 2.28028 -0.146868 0
M  V30 7418 C 681.141 0.804056 -3.39611 0
M  V30 7419 C 682.489 1.14267 -4.08935 0
M  V30 7420 O 683.513 0.893248 -3.44818 0
M  V30 7421 O 682.372 1.61229 -5.22176 0
M  V30 7422 H 679.466 0.277724 -0.778973 0
M  V30 7423 H 682.012 -0.188862 -1.68646 0
M  V30 7424 H 680.784 -0.103772 -3.91162 0
M  V30 7425 H 680.407 1.59025 -3.64413 0
M  V30 7426 N 681.404 1.57128 0.121893 0
M  V30 7427 C 682.334 2.03165 1.15092 0
M  V30 7428 C 683.315 0.915587 1.43356 0
M  V30 7429 O 684.5 1.1851 1.53847 0
M  V30 7430 C 681.63 2.43352 2.47784 0
M  V30 7431 C 680.584 3.58376 2.33989 0
M  V30 7432 C 679.91 3.84454 3.71617 0
M  V30 7433 C 681.21 4.90199 1.80283 0
M  V30 7434 H 682.904 2.89382 0.768023 0
M  V30 7435 H 680.45 1.39218 0.367998 0
M  V30 7436 H 682.403 2.74163 3.20019 0
M  V30 7437 H 681.127 1.54103 2.87958 0
M  V30 7438 H 679.786 3.2777 1.64202 0
M  V30 7439 H 679.434 2.92414 4.09271 0
M  V30 7440 H 679.134 4.61877 3.6324 0
M  V30 7441 H 680.658 4.17714 4.45362 0
M  V30 7442 H 682.072 5.19565 2.42333 0
M  V30 7443 H 680.469 5.71601 1.82735 0
M  V30 7444 H 681.539 4.78904 0.760184 0
M  V30 7445 N 682.882 -0.391992 1.52647 0
M  V30 7446 C 684.131 -1.13449 1.6677 0
M  V30 7447 C 684.444 -1.91203 0.412399 0
M  V30 7448 O 685.65 -2.68013 0.433707 0
M  V30 7449 C 684.106 -2.06577 2.9471 0
M  V30 7450 C 683.714 -1.3426 4.27409 0
M  V30 7451 C 685.458 -2.80981 3.18198 0
M  V30 7452 C 683.365 -2.26136 5.46458 0
M  V30 7453 H 682.295 -0.427211 0.621295 0
M  V30 7454 H 684.946 -0.397522 1.79142 0
M  V30 7455 H 683.328 -2.83898 2.76076 0
M  V30 7456 H 684.502 -0.621856 4.56585 0
M  V30 7457 H 682.817 -0.718279 4.10158 0
M  V30 7458 H 685.414 -3.49898 4.04321 0
M  V30 7459 H 685.757 -3.44891 2.33144 0
M  V30 7460 H 686.29 -2.10754 3.37383 0
M  V30 7461 H 683.029 -1.66846 6.33911 0
M  V30 7462 H 682.549 -2.96134 5.21598 0
M  V30 7463 H 684.228 -2.86286 5.80215 0
M  V30 7464 N 684.36 -1.4356 -0.65026 0
M  V30 7465 C 685.29 -1.51758 -1.77459 0
M  V30 7466 C 686.271 -0.372019 -1.65982 0
M  V30 7467 O 687.456 -0.589627 -1.85033 0
M  V30 7468 C 684.586 -1.44302 -3.15902 0
M  V30 7469 C 683.54 -2.57138 -3.42146 0
M  V30 7470 C 682.866 -2.34735 -4.8042 0
M  V30 7471 C 684.166 -3.99373 -3.36598 0
M  V30 7472 H 685.86 -2.45863 -1.70855 0
M  V30 7473 H 683.406 -1.18333 -0.820566 0
M  V30 7474 H 685.359 -1.48641 -3.94314 0
M  V30 7475 H 684.083 -0.467026 -3.23244 0
M  V30 7476 H 682.742 -2.52157 -2.66106 0
M  V30 7477 H 682.39 -1.35372 -4.84441 0
M  V30 7478 H 682.09 -3.10375 -4.9894 0
M  V30 7479 H 683.614 -2.40862 -5.61086 0
M  V30 7480 H 685.028 -4.05826 -4.04942 0
M  V30 7481 H 683.425 -4.75063 -3.66654 0
M  V30 7482 H 684.495 -4.243 -2.34729 0
M  V30 7483 N 685.838 0.888903 -1.30139 0
M  V30 7484 C 687.068 1.67115 -1.21474 0
M  V30 7485 C 687.476 1.87852 0.225472 0
M  V30 7486 O 686.819 1.42324 1.16145 0
M  V30 7487 C 686.881 3.0713 -1.86846 0
M  V30 7488 C 686.545 3.09582 -3.36167 0
M  V30 7489 C 687.542 2.88929 -4.32222 0
M  V30 7490 C 685.227 3.31304 -3.77549 0
M  V30 7491 C 687.221 2.89949 -5.67634 0
M  V30 7492 C 684.908 3.31954 -5.13079 0
M  V30 7493 C 685.906 3.113 -6.07932 0
M  V30 7494 O 685.594 3.11758 -7.40987 0
M  V30 7495 H 685.326 0.528372 -0.421662 0
M  V30 7496 H 687.88 1.11919 -1.7223 0
M  V30 7497 H 686.11 3.63973 -1.30615 0
M  V30 7498 H 687.799 3.6749 -1.72354 0
M  V30 7499 H 688.565 2.71948 -4.01584 0
M  V30 7500 H 684.444 3.46417 -3.04165 0
M  V30 7501 H 687.988 2.73746 -6.41645 0
M  V30 7502 H 683.885 3.48469 -5.43359 0
M  V30 7503 H 684.653 3.27951 -7.49927 0
M  V30 7504 N 687.317 1.12792 1.10072 0
M  V30 7505 C 688.557 0.895691 1.8373 0
M  V30 7506 C 688.921 -0.568131 1.83402 0
M  V30 7507 O 690.122 -0.917666 2.52651 0
M  V30 7508 C 688.393 1.4593 3.2625 0
M  V30 7509 S 689.952 1.36615 4.16991 0
M  V30 7510 H 686.77 0.323017 0.633389 0
M  V30 7511 H 689.372 1.43816 1.32428 0
M  V30 7512 H 688.076 2.51818 3.24062 0
M  V30 7513 H 687.607 0.914478 3.82624 0
M  V30 7514 H 689.622 0.340131 4.95033 0
M  V30 7515 N 688.795 -1.27931 0.920396 0
M  V30 7516 C 690.043 -1.94304 0.555906 0
M  V30 7517 C 690.364 -1.72753 -0.904519 0
M  V30 7518 O 689.634 -1.07104 -1.64029 0
M  V30 7519 H 688.214 -0.719001 0.202599 0
M  V30 7520 H 690.876 -1.55785 1.1712 0
M  V30 7521 H 689.972 -3.02806 0.755981 0
M  V30 7522 N 690.273 -0.685099 -1.4193 0
M  V30 7523 C 691.513 -0.215676 -2.03259 0
M  V30 7524 C 691.877 1.15934 -1.53047 0
M  V30 7525 O 693.078 1.72401 -2.06231 0
M  V30 7526 C 691.349 -0.259649 -3.56456 0
M  V30 7527 S 692.908 0.137262 -4.38585 0
M  V30 7528 H 689.726 -0.0877362 -0.705566 0
M  V30 7529 H 692.328 -0.900547 -1.73523 0
M  V30 7530 H 691.032 -1.26256 -3.90497 0
M  V30 7531 H 690.563 0.444716 -3.90878 0
M  V30 7532 H 692.578 1.36787 -4.76973 0
M  V30 7533 N 691.751 1.51645 -0.429126 0
M  V30 7534 C 692.661 2.31288 0.392809 0
M  V30 7535 C 693.677 1.39852 1.03525 0
M  V30 7536 O 694.853 1.72926 1.03241 0
M  V30 7537 C 691.918 3.13347 1.48372 0
M  V30 7538 C 690.979 4.20551 0.862268 0
M  V30 7539 C 690.212 4.98688 1.9012 0
M  V30 7540 O 690.435 4.77359 3.12225 0
M  V30 7541 O 689.369 5.83005 1.4963 0
M  V30 7542 H 693.195 3.02609 -0.257138 0
M  V30 7543 H 690.78 1.48163 -0.191851 0
M  V30 7544 H 692.662 3.64387 2.1166 0
M  V30 7545 H 691.337 2.44799 2.1179 0
M  V30 7546 H 690.244 3.73609 0.191568 0
M  V30 7547 H 691.577 4.91449 0.271704 0
M  V30 7548 N 693.229 0.160201 1.56784 0
M  V30 7549 C 694.477 -0.486625 1.96154 0
M  V30 7550 C 694.798 -1.64525 1.04673 0
M  V30 7551 O 694.068 -1.95586 0.110864 0
M  V30 7552 H 692.648 -0.182764 0.724297 0
M  V30 7553 H 695.31 0.238787 1.93432 0
M  V30 7554 H 694.406 -0.854025 3.00188 0
M  V30 7555 N 694.707 -1.5719 -0.113559 0
M  V30 7556 C 695.953 -1.86289 -0.816583 0
M  V30 7557 C 696.308 -0.748672 -1.77236 0
M  V30 7558 O 695.601 0.250889 -1.8995 0
M  V30 7559 C 695.795 -3.19593 -1.59984 0
M  V30 7560 C 695.624 -4.43876 -0.721414 0
M  V30 7561 C 694.394 -5.03913 -0.374172 0
M  V30 7562 C 696.592 -5.14287 -0.0366045 0
M  V30 7563 N 694.574 -6.11741 0.514352 0
M  V30 7564 C 695.945 -6.15913 0.710706 0
M  V30 7565 C 698 -4.97885 0.039247 0
M  V30 7566 C 696.703 -7.0291 1.52675 0
M  V30 7567 C 698.729 -5.85373 0.842135 0
M  V30 7568 C 698.091 -6.86506 1.57762 0
M  V30 7569 H 694.19 -0.731839 -0.275564 0
M  V30 7570 H 696.774 -1.94535 -0.080033 0
M  V30 7571 H 694.945 -3.12432 -2.30739 0
M  V30 7572 H 696.677 -3.3648 -2.24862 0
M  V30 7573 H 693.432 -4.68131 -0.717653 0
M  V30 7574 H 693.856 -6.70293 0.950623 0
M  V30 7575 H 698.498 -4.19651 -0.51503 0
M  V30 7576 H 696.216 -7.80547 2.09217 0
M  V30 7577 H 699.802 -5.74746 0.903256 0
M  V30 7578 H 698.682 -7.53032 2.1889 0
M  V30 7579 N 696.185 0.383891 -1.52853 0
M  V30 7580 C 697.095 1.49343 -1.80925 0
M  V30 7581 C 698.111 1.59458 -0.696348 0
M  V30 7582 O 699.287 1.75698 -0.984481 0
M  V30 7583 C 696.352 2.84819 -1.97684 0
M  V30 7584 C 695.413 2.84382 -3.21598 0
M  V30 7585 C 694.646 4.13397 -3.37548 0
M  V30 7586 O 694.869 5.08619 -2.58192 0
M  V30 7587 O 693.803 4.20325 -4.30826 0
M  V30 7588 H 697.629 1.2855 -2.75152 0
M  V30 7589 H 695.214 0.572229 -1.38007 0
M  V30 7590 H 697.096 3.65125 -2.10385 0
M  V30 7591 H 695.771 3.05627 -1.06647 0
M  V30 7592 H 694.678 2.0284 -3.14336 0
M  V30 7593 H 696.011 2.68526 -4.12498 0
M  V30 7594 N 697.663 1.43903 0.642637 0
M  V30 7595 C 699.074 1.40975 1.22404 0
M  V30 7596 C 699.425 0.1192 1.95838 0
M  V30 7597 O 698.55 -0.780939 2.01818 0
M  V30 7598 C 699.145 2.5538 2.22636 0
M  V30 7599 C 697.704 2.55684 2.76229 0
M  V30 7600 C 696.851 2.32556 1.51039 0
M  V30 7601 H 699.802 1.5265 0.434006 0
M  V30 7602 H 699.823 2.27474 3.05017 0
M  V30 7603 H 699.335 3.49294 1.69161 0
M  V30 7604 H 697.436 1.65679 3.33738 0
M  V30 7605 H 697.549 3.53799 3.23053 0
M  V30 7606 H 695.913 1.81427 1.78764 0
M  V30 7607 H 696.696 3.28569 0.99484 0
M  V30 7608 N 699.141 -0.881989 1.30609 0
M  V30 7609 C 700.051 -2.02076 1.19174 0
M  V30 7610 C 701.067 -1.73645 0.11102 0
M  V30 7611 O 702.243 -1.98735 0.326528 0
M  V30 7612 C 699.308 -3.3515 0.887438 0
M  V30 7613 C 698.369 -3.76983 2.05383 0
M  V30 7614 C 697.602 -5.03707 1.76395 0
M  V30 7615 O 697.825 -5.66171 0.693302 0
M  V30 7616 O 696.759 -5.42019 2.61723 0
M  V30 7617 H 700.585 -2.14652 2.14845 0
M  V30 7618 H 698.17 -1.00843 1.10232 0
M  V30 7619 H 700.052 -4.14975 0.73306 0
M  V30 7620 H 698.727 -3.23676 -0.0393354 0
M  V30 7621 H 697.634 -2.97849 2.26355 0
M  V30 7622 H 698.967 -3.93066 2.96243 0
M  V30 7623 N 700.619 -1.13374 -1.09472 0
M  V30 7624 C 701.849 -0.917019 -1.85133 0
M  V30 7625 C 702.257 0.537568 -1.81402 0
M  V30 7626 O 701.6 1.38385 -1.20811 0
M  V30 7627 C 701.662 -1.32646 -3.34134 0
M  V30 7628 C 701.326 -2.79437 -3.61613 0
M  V30 7629 C 702.323 -3.77596 -3.57375 0
M  V30 7630 C 700.008 -3.16586 -3.89973 0
M  V30 7631 C 702.002 -5.10916 -3.81108 0
M  V30 7632 C 699.689 -4.50085 -4.13361 0
M  V30 7633 C 700.687 -5.47059 -4.0892 0
M  V30 7634 O 700.375 -6.78149 -4.31705 0
M  V30 7635 H 700.107 -0.326997 -0.591649 0
M  V30 7636 H 702.661 -1.51002 -1.39239 0
M  V30 7637 H 700.891 -0.676719 -3.80733 0
M  V30 7638 H 702.58 -1.08229 -3.91205 0
M  V30 7639 H 703.346 -3.50242 -3.35493 0
M  V30 7640 H 699.225 -2.41707 -3.92554 0
M  V30 7641 H 702.769 -5.86597 -3.77558 0
M  V30 7642 H 698.666 -4.77163 -4.34724 0
M  V30 7643 H 699.434 -6.84244 -4.49168 0
M  V30 7644 N 702.098 1.27442 -0.927168 0
M  V30 7645 C 703.346 1.94007 -0.566203 0
M  V30 7646 C 703.667 1.7323 0.895345 0
M  V30 7647 O 702.937 1.07973 1.63459 0
M  V30 7648 H 701.517 0.717917 -0.206409 0
M  V30 7649 H 704.179 1.55161 -1.17945 0
M  V30 7650 H 703.275 3.02401 -0.772028 0
M  V30 7651 N 703.576 0.692616 1.41565 0
M  V30 7652 C 704.824 0.221896 2.00878 0
M  V30 7653 C 705.145 -1.18164 1.5512 0
M  V30 7654 O 704.415 -1.79679 0.78054 0
M  V30 7655 H 702.995 0.0790463 0.742806 0
M  V30 7656 H 705.657 0.893115 1.73232 0
M  V30 7657 H 704.753 0.23702 3.11199 0
M  V30 7658 N 705.054 -1.51416 0.437162 0
M  V30 7659 C 706.301 -2.02086 -0.129364 0
M  V30 7660 C 706.629 -1.32133 -1.42728 0
M  V30 7661 O 705.884 -0.424916 -1.91031 0
M  V30 7662 C 706.183 -3.55203 -0.39564 0
M  V30 7663 C 705.849 -4.43447 0.81644 0
M  V30 7664 C 704.511 -4.67285 1.14884 0
M  V30 7665 C 706.863 -4.95219 1.62503 0
M  V30 7666 C 704.191 -5.40141 2.29052 0
M  V30 7667 C 706.543 -5.69327 2.7577 0
M  V30 7668 C 705.207 -5.91429 3.09464 0
M  V30 7669 H 704.477 -0.739486 -0.0473375 0
M  V30 7670 H 707.124 -1.82368 0.584321 0
M  V30 7671 H 705.429 -3.73252 -1.19121 0
M  V30 7672 H 707.126 -3.91944 -0.847399 0
M  V30 7673 H 703.716 -4.2509 0.547422 0
M  V30 7674 H 707.9 -4.76686 1.38144 0
M  V30 7675 H 703.156 -5.55468 2.55471 0
M  V30 7676 H 707.33 -6.08433 3.38795 0
M  V30 7677 H 704.957 -6.47662 3.98042 0
M  V30 7678 N 706.532 -0.168513 -1.56696 0
M  V30 7679 C 707.76 0.483503 -2.01171 0
M  V30 7680 C 708.175 1.56994 -1.04872 0
M  V30 7681 O 707.532 1.82434 -0.0491337 0
M  V30 7682 C 707.583 1.0644 -3.45475 0
M  V30 7683 O 707.304 0.0213375 -4.38095 0
M  V30 7684 C 708.805 1.79493 -4.05336 0
M  V30 7685 H 706.025 0.124002 -0.659443 0
M  V30 7686 H 708.569 -0.269419 -2.02717 0
M  V30 7687 H 706.724 1.76784 -3.44712 0
M  V30 7688 H 707.138 0.449837 -5.22567 0
M  V30 7689 H 708.612 2.15401 -5.08238 0
M  V30 7690 H 709.089 2.68889 -3.47269 0
M  V30 7691 H 709.695 1.13798 -4.09793 0
M  V30 7692 N 708.01 1.57248 0.105221 0
M  V30 7693 C 709.235 1.90143 0.828264 0
M  V30 7694 C 709.66 0.761811 1.71983 0
M  V30 7695 O 709.018 -0.287086 1.79013 0
M  V30 7696 C 709.066 3.21856 1.62608 0
M  V30 7697 O 708.17 3.08732 2.7342 0
M  V30 7698 H 707.511 0.623558 0.228192 0
M  V30 7699 H 710.041 2.0443 0.0834826 0
M  V30 7700 H 710.051 3.54916 2.01243 0
M  V30 7701 H 708.726 4.0439 0.971687 0
M  V30 7702 H 707.303 2.87167 2.37886 0
M  V30 7703 N 709.488 -0.375779 1.53054 0
M  V30 7704 C 710.718 -1.1387 1.72386 0
M  V30 7705 C 711.126 -1.8382 0.447966 0
M  V30 7706 O 710.469 -1.74027 -0.588244 0
M  V30 7707 C 710.531 -2.22047 2.82728 0
M  V30 7708 C 710.195 -1.71951 4.23417 0
M  V30 7709 C 711.192 -1.18909 5.06119 0
M  V30 7710 C 708.877 -1.77773 4.69789 0
M  V30 7711 C 710.871 -0.723529 6.3328 0
M  V30 7712 C 708.558 -1.30829 5.96931 0
M  V30 7713 C 709.556 -0.782077 6.78508 0
M  V30 7714 O 709.244 -0.319529 8.03265 0
M  V30 7715 H 708.976 -0.346835 0.580242 0
M  V30 7716 H 711.53 -0.443748 2.00549 0
M  V30 7717 H 709.76 -2.95006 2.50017 0
M  V30 7718 H 711.449 -2.83654 2.90336 0
M  V30 7719 H 712.215 -1.13758 4.7147 0
M  V30 7720 H 708.094 -2.17673 4.06373 0
M  V30 7721 H 711.638 -0.312126 6.96901 0
M  V30 7722 H 707.535 -1.3567 6.31081 0
M  V30 7723 H 708.303 -0.439796 8.17318 0
M  V30 7724 N 710.966 -1.44241 -0.634997 0
M  V30 7725 C 712.215 -1.46102 -1.39058 0
M  V30 7726 C 712.528 -0.0959909 -1.95364 0
M  V30 7727 O 713.734 0.00788751 -2.71499 0
M  V30 7728 C 712.19 -2.57195 -2.51751 0
M  V30 7729 C 711.798 -3.99888 -2.01974 0
M  V30 7730 C 713.542 -2.68272 -3.28984 0
M  V30 7731 C 711.449 -5.02412 -3.11987 0
M  V30 7732 H 710.379 -0.543556 -0.522554 0
M  V30 7733 H 713.03 -1.70294 -0.683538 0
M  V30 7734 H 711.412 -2.26237 -3.25012 0
M  V30 7735 H 712.586 -4.40396 -1.35604 0
M  V30 7736 H 710.901 -3.93019 -1.37568 0
M  V30 7737 H 713.498 -3.42042 -4.10988 0
M  V30 7738 H 713.841 -1.73957 -3.78212 0
M  V30 7739 H 714.374 -2.98622 -2.62812 0
M  V30 7740 H 711.113 -5.98342 -2.67707 0
M  V30 7741 H 710.633 -4.66501 -3.77011 0
M  V30 7742 H 712.312 -5.25939 -3.76825 0
M  V30 7743 N 712.444 0.87505 -1.31075 0
M  V30 7744 C 713.407 1.96333 -1.18263 0
M  V30 7745 C 714.407 1.60416 -0.111106 0
M  V30 7746 O 715.597 1.7044 -0.359987 0
M  V30 7747 C 712.729 3.31036 -0.81414 0
M  V30 7748 H 713.922 2.09125 -2.14958 0
M  V30 7749 H 711.475 1.06271 -1.14614 0
M  V30 7750 H 712.21 3.23944 0.151875 0
M  V30 7751 H 711.995 3.58476 -1.58862 0
M  V30 7752 H 713.485 4.10842 -0.748249 0
M  V30 7753 N 713.922 1.13953 1.08869 0
M  V30 7754 C 714.869 0.82213 2.15661 0
M  V30 7755 C 715.839 -0.218274 1.6466 0
M  V30 7756 O 717.024 -0.0892475 1.90591 0
M  V30 7757 C 714.164 0.300572 3.43789 0
M  V30 7758 C 713.277 1.40071 4.08661 0
M  V30 7759 C 712.412 0.836897 5.24566 0
M  V30 7760 C 711.451 1.91504 5.81371 0
M  V30 7761 N 710.588 1.36875 6.88629 0
M  V30 7762 H 715.428 1.73683 2.42153 0
M  V30 7763 H 712.965 0.866879 1.18843 0
M  V30 7764 H 714.923 -0.0199943 4.17195 0
M  V30 7765 H 713.553 -0.577248 3.17597 0
M  V30 7766 H 712.605 1.83776 3.33062 0
M  V30 7767 H 713.917 2.21534 4.46905 0
M  V30 7768 H 713.071 0.467953 6.04893 0
M  V30 7769 H 711.81 -0.00874207 4.87699 0
M  V30 7770 H 710.815 2.29299 4.99702 0
M  V30 7771 H 712.04 2.76419 6.20298 0
M  V30 7772 H 709.986 0.545211 6.5373 0
M  V30 7773 H 709.903 2.1198 7.25672 0
M  V30 7774 H 711.171 1.02756 7.72698 0
M  V30 7775 N 715.4 -1.26948 0.933913 0
M  V30 7776 C 716.648 -1.93704 0.576484 0
M  V30 7777 C 716.969 -1.73702 -0.886145 0
M  V30 7778 O 716.239 -1.08838 -1.62884 0
M  V30 7779 H 714.819 -0.716812 0.210214 0
M  V30 7780 H 717.481 -1.54534 1.18766 0
M  V30 7781 H 716.577 -3.01987 0.788055 0
M  V30 7782 N 716.879 -0.700114 -1.41195 0
M  V30 7783 C 717.789 -0.0382854 -2.34569 0
M  V30 7784 C 718.805 0.761036 -1.56474 0
M  V30 7785 O 719.981 0.697553 -1.88934 0
M  V30 7786 C 717.046 0.883522 -3.35253 0
M  V30 7787 C 716.107 0.0758957 -4.29233 0
M  V30 7788 C 715.34 0.9538 -5.25108 0
M  V30 7789 O 715.563 2.19326 -5.26547 0
M  V30 7790 O 714.497 0.401049 -6.00562 0
M  V30 7791 H 718.323 -0.808073 -2.92752 0
M  V30 7792 H 715.908 -0.460479 -1.42127 0
M  V30 7793 H 717.79 1.41199 -3.9704 0
M  V30 7794 H 716.465 1.63272 -2.79506 0
M  V30 7795 H 715.372 -0.497274 -3.7078 0
M  V30 7796 H 716.705 -0.634741 -4.8809 0
M  V30 7797 N 718.357 1.51182 -0.445186 0
M  V30 7798 C 719.634 1.9478 0.178965 0
M  V30 7799 C 720.014 1.38428 1.59376 0
M  V30 7800 O 719.362 0.574552 2.21159 0
M  V30 7801 C 719.572 3.48683 0.148711 0
M  V30 7802 C 720.92 4.23152 0.35042 0
M  V30 7803 O 721.944 3.55479 0.226474 0
M  V30 7804 O 720.803 5.4322 0.597893 0
M  V30 7805 H 717.897 0.817387 0.12573 0
M  V30 7806 H 720.443 1.62051 -0.503729 0
M  V30 7807 H 719.215 3.82176 -0.84009 0
M  V30 7808 H 718.838 3.87875 0.873979 0
M  V30 7809 N 719.835 0.176821 1.56605 0
M  V30 7810 C 720.745 -0.763682 2.21822 0
M  V30 7811 C 721.761 -1.24889 1.21156 0
M  V30 7812 O 722.937 -1.29987 1.53836 0
M  V30 7813 C 720.002 -1.97352 2.8505 0
M  V30 7814 C 719.063 -1.53466 4.00932 0
M  V30 7815 C 718.296 -2.68682 4.61135 0
M  V30 7816 O 718.519 -3.85694 4.20234 0
M  V30 7817 O 717.453 -2.42442 5.50913 0
M  V30 7818 H 721.279 -0.238363 3.02763 0
M  V30 7819 H 718.864 -0.0516331 1.49311 0
M  V30 7820 H 720.746 -2.68096 3.25119 0
M  V30 7821 H 719.421 -2.48779 2.07101 0
M  V30 7822 H 718.328 -0.796551 3.65521 0
M  V30 7823 H 719.661 -1.06724 4.8049 0
M  V30 7824 N 721.313 -1.57302 -0.09688 0
M  V30 7825 C 722.223 -2.05258 -1.13606 0
M  V30 7826 C 723.239 -0.977137 -1.43972 0
M  V30 7827 O 724.415 -1.29018 -1.54649 0
M  V30 7828 C 721.48 -2.46593 -2.43706 0
M  V30 7829 C 720.541 -3.68322 -2.20538 0
M  V30 7830 C 719.774 -4.07676 -3.44435 0
M  V30 7831 O 719.997 -3.47141 -4.52603 0
M  V30 7832 O 718.931 -5.00641 -3.34129 0
M  V30 7833 H 722.757 -2.94069 -0.758752 0
M  V30 7834 H 720.342 -1.46164 -0.309263 0
M  V30 7835 H 722.224 -2.73814 -3.20318 0
M  V30 7836 H 720.899 -1.6092 -2.80867 0
M  V30 7837 H 719.806 -3.4622 -1.41713 0
M  V30 7838 H 721.139 -4.54769 -1.88271 0
M  V30 7839 N 722.791 0.367657 -1.53252 0
M  V30 7840 C 723.721 1.45632 -1.8252 0
M  V30 7841 C 724.702 1.55979 -0.678568 0
M  V30 7842 O 725.887 1.70581 -0.928217 0
M  V30 7843 C 723.017 2.82994 -2.01325 0
M  V30 7844 C 721.971 2.87473 -3.17086 0
M  V30 7845 C 721.297 4.2749 -3.21179 0
M  V30 7846 C 722.597 2.55182 -4.55719 0
M  V30 7847 H 724.291 1.21387 -2.73689 0
M  V30 7848 H 721.837 0.58251 -1.31692 0
M  V30 7849 H 723.79 3.59179 -2.20383 0
M  V30 7850 H 722.514 3.08622 -1.06864 0
M  V30 7851 H 721.173 2.13739 -2.97844 0
M  V30 7852 H 720.821 4.5019 -2.24361 0
M  V30 7853 H 720.521 4.31403 -3.98955 0
M  V30 7854 H 722.045 5.0555 -3.42419 0
M  V30 7855 H 723.459 3.21081 -4.74953 0
M  V30 7856 H 721.856 2.70414 -5.3572 0
M  V30 7857 H 722.926 1.5044 -4.60973 0
M  V30 7858 N 724.269 1.44576 0.627338 0
M  V30 7859 C 725.199 1.54562 1.75022 0
M  V30 7860 C 726.18 0.398378 1.65369 0
M  V30 7861 O 727.365 0.61899 1.84071 0
M  V30 7862 C 724.495 1.49309 3.13567 0
M  V30 7863 C 723.449 2.62549 3.38012 0
M  V30 7864 C 722.775 2.42348 4.76625 0
M  V30 7865 C 724.075 4.04678 3.30202 0
M  V30 7866 H 725.769 2.4855 1.66922 0
M  V30 7867 H 723.315 1.19624 0.801636 0
M  V30 7868 H 725.268 1.54895 3.919 0
M  V30 7869 H 723.992 0.518392 3.2246 0
M  V30 7870 H 722.651 2.56358 2.62061 0
M  V30 7871 H 722.299 1.43062 4.82226 0
M  V30 7872 H 721.999 3.18273 4.93939 0
M  V30 7873 H 723.523 2.49758 5.57183 0
M  V30 7874 H 724.937 4.12217 3.98435 0
M  V30 7875 H 723.334 4.80836 3.5905 0
M  V30 7876 H 724.404 4.2798 2.27949 0
M  V30 7877 N 725.747 -0.868086 1.31537 0
M  V30 7878 C 726.975 -1.65402 1.24298 0
M  V30 7879 C 727.39 -1.87827 -0.191389 0
M  V30 7880 O 726.747 -1.43776 -1.12404 0
M  V30 7881 C 726.798 -3.02093 1.9855 0
M  V30 7882 O 726.519 -2.80668 3.36388 0
M  V30 7883 C 728.02 -3.96538 1.98173 0
M  V30 7884 H 725.24 -0.515598 0.429417 0
M  V30 7885 H 727.784 -1.0834 1.73444 0
M  V30 7886 H 725.939 -3.55838 1.53161 0
M  V30 7887 H 726.353 -3.67504 3.74221 0
M  V30 7888 H 727.827 -4.8976 2.54635 0
M  V30 7889 H 728.304 -4.28474 0.964697 0
M  V30 7890 H 728.91 -3.48729 2.4345 0
M  V30 7891 N 727.225 -1.14528 -1.08264 0
M  V30 7892 C 728.471 -0.91576 -1.80947 0
M  V30 7893 C 728.804 0.55623 -1.86064 0
M  V30 7894 O 728.079 1.41207 -1.33756 0
M  V30 7895 C 728.362 -1.51917 -3.26486 0
M  V30 7896 C 728.215 -3.06111 -3.2957 0
M  V30 7897 C 729.534 -1.19724 -4.23502 0
M  V30 7898 H 726.653 -0.334113 -0.656915 0
M  V30 7899 H 729.295 -1.41547 -1.26746 0
M  V30 7900 H 727.445 -1.0942 -3.72773 0
M  V30 7901 H 729.117 -3.57448 -2.91597 0
M  V30 7902 H 727.36 -3.40483 -2.688 0
M  V30 7903 H 728.031 -3.43438 -4.32151 0
M  V30 7904 H 730.507 -1.56467 -3.85561 0
M  V30 7905 H 729.383 -1.64575 -5.23647 0
M  V30 7906 H 729.644 -0.112771 -4.41956 0
M  V30 7907 N 728.703 1.26451 -0.940633 0
M  V30 7908 C 729.651 2.28389 -0.440581 0
M  V30 7909 C 730.645 1.62402 0.481859 0
M  V30 7910 O 731.851 1.76361 0.360132 0
M  V30 7911 H 728.226 0.741716 -0.123938 0
M  V30 7912 H 730.197 2.67967 -1.31288 0
M  V30 7913 C 728.946 3.46576 0.279364 0
M  V30 7914 H 728.269 3.97574 -0.421274 0
M  V30 7915 H 729.709 4.19826 0.59348 0
M  V30 7916 C 728.168 3.01815 1.49697 0
M  V30 7917 O 728.698 3.06607 2.59529 0
M  V30 7918 N 726.904 2.57163 1.35334 0
M  V30 7919 H 726.451 2.53464 0.459743 0
M  V30 7920 H 726.409 2.27578 2.16923 0
M  V30 7921 N 730.181 0.707592 1.40822 0
M  V30 7922 C 731.592 0.317011 1.83989 0
M  V30 7923 C 731.943 -1.14697 1.59182 0
M  V30 7924 O 731.068 -1.8818 1.06852 0
M  V30 7925 C 731.663 0.568593 3.33995 0
M  V30 7926 C 730.222 0.231804 3.75686 0
M  V30 7927 C 729.369 0.844933 2.64114 0
M  V30 7928 H 732.32 0.907349 1.30203 0
M  V30 7929 H 732.341 -0.168798 3.80125 0
M  V30 7930 H 731.853 1.63417 3.52018 0
M  V30 7931 H 729.954 -0.82903 3.6326 0
M  V30 7932 H 730.067 0.695219 4.74029 0
M  V30 7933 H 728.431 0.273588 2.53226 0
M  V30 7934 H 729.214 1.91462 2.84951 0
M  V30 7935 N 731.66 -1.50943 0.453197 0
M  V30 7936 C 732.57 -2.31884 -0.355963 0
M  V30 7937 C 733.586 -1.41481 -1.01287 0
M  V30 7938 O 734.762 -1.74546 -1.00477 0
M  V30 7939 C 731.827 -3.15668 -1.43369 0
M  V30 7940 C 730.888 -4.2187 -0.795253 0
M  V30 7941 C 730.121 -5.0165 -1.82162 0
M  V30 7942 O 730.344 -4.82266 -3.04592 0
M  V30 7943 O 729.278 -5.85311 -1.40336 0
M  V30 7944 H 733.104 -3.02162 0.305248 0
M  V30 7945 H 730.689 -1.47839 0.215398 0
M  V30 7946 H 732.571 -3.67709 -2.05836 0
M  V30 7947 H 731.246 -2.48137 -2.07869 0
M  V30 7948 H 730.153 -3.73867 -0.132106 0
M  V30 7949 H 731.486 -4.9182 -0.193484 0
M  V30 7950 N 733.138 -0.185124 -1.56509 0
M  V30 7951 C 734.363 0.465278 -2.02114 0
M  V30 7952 C 734.788 1.55083 -1.06447 0
M  V30 7953 O 734.146 1.81241 -0.0462852 0
M  V30 7954 C 734.194 1.00784 -3.46229 0
M  V30 7955 O 733.298 2.12123 -3.53663 0
M  V30 7956 H 732.639 0.109891 -0.654843 0
M  V30 7957 H 735.169 -0.293072 -2.0249 0
M  V30 7958 H 735.179 1.32697 -3.85818 0
M  V30 7959 H 733.854 0.213113 -4.15354 0
M  V30 7960 H 732.431 1.8115 -3.25943 0
M  V30 7961 N 734.616 1.57351 0.0885366 0
M  V30 7962 C 735.564 2.03542 1.12576 0
M  V30 7963 C 736.558 0.937668 1.41082 0
M  V30 7964 O 737.764 1.12283 1.40686 0
M  V30 7965 H 734.139 0.648752 0.380296 0
M  V30 7966 H 736.11 2.89833 0.709906 0
M  V30 7967 C 734.859 2.4811 2.43591 0
M  V30 7968 H 734.182 3.32164 2.22502 0
M  V30 7969 H 735.622 2.842 3.14653 0
M  V30 7970 C 734.081 1.35708 3.08359 0
M  V30 7971 O 734.611 0.689852 3.95732 0
M  V30 7972 N 732.817 1.10641 2.68713 0
M  V30 7973 H 732.364 1.6508 1.97753 0
M  V30 7974 H 732.322 0.356355 3.12374 0
M  V30 7975 N 736.094 -0.359525 1.53444 0
M  V30 7976 C 737.319 -1.12644 1.74144 0
M  V30 7977 C 737.744 -1.82082 0.472007 0
M  V30 7978 O 737.102 -1.71962 -0.57436 0
M  V30 7979 C 737.15 -2.12781 2.9113 0
M  V30 7980 O 736.254 -3.19984 2.60162 0
M  V30 7981 H 735.595 -0.326553 0.578152 0
M  V30 7982 H 738.125 -0.414798 2.00351 0
M  V30 7983 H 738.135 -2.56278 3.17467 0
M  V30 7984 H 736.81 -1.61634 3.83207 0
M  V30 7985 H 735.387 -2.81417 2.44661 0
M  V30 7986 N 737.572 -1.44907 -0.619662 0
M  V30 7987 C 738.502 -1.55488 -1.742 0
M  V30 7988 C 739.483 -0.407143 -1.65156 0
M  V30 7989 O 740.668 -0.628743 -1.8374 0
M  V30 7990 C 737.798 -1.5097 -3.1277 0
M  V30 7991 C 736.752 -2.64337 -3.36615 0
M  V30 7992 C 736.078 -2.44872 -4.75333 0
M  V30 7993 C 737.378 -4.06423 -3.28051 0
M  V30 7994 H 739.072 -2.49432 -1.65602 0
M  V30 7995 H 736.618 -1.20047 -0.795281 0
M  V30 7996 H 738.571 -1.56971 -3.91073 0
M  V30 7997 H 737.295 -0.535486 -3.2218 0
M  V30 7998 H 735.954 -2.57744 -2.60698 0
M  V30 7999 H 735.602 -1.45617 -4.81461 0
M  V30 8000 H 735.302 -3.20888 -4.92244 0
M  V30 8001 H 736.826 -2.52709 -5.55851 0
M  V30 8002 H 738.24 -4.14324 -3.96243 0
M  V30 8003 H 736.637 -4.82733 -3.56495 0
M  V30 8004 H 737.707 -4.29183 -2.25676 0
M  V30 8005 N 739.05 0.861098 -1.31996 0
M  V30 8006 C 740.013 1.95068 -1.20338 0
M  V30 8007 C 741.013 1.60289 -0.128114 0
M  V30 8008 O 742.203 1.70048 -0.378044 0
M  V30 8009 C 739.335 3.30153 -0.849205 0
M  V30 8010 H 740.528 2.06833 -2.17164 0
M  V30 8011 H 738.081 1.05049 -1.15734 0
M  V30 8012 H 738.816 3.24087 0.117508 0
M  V30 8013 H 738.601 3.56771 -1.62655 0
M  V30 8014 H 740.091 4.10025 -0.791782 0
M  V30 8015 N 740.528 1.15101 1.07655 0
M  V30 8016 C 741.458 0.867864 2.16773 0
M  V30 8017 C 742.439 -0.180283 1.69142 0
M  V30 8018 O 743.624 -0.0353152 1.94168 0
M  V30 8019 C 740.754 0.35299 3.45501 0
M  V30 8020 C 739.708 1.33746 4.06566 0
M  V30 8021 C 739.034 0.681562 5.30338 0
M  V30 8022 C 740.334 2.7024 4.46954 0
M  V30 8023 H 742.028 1.78034 2.40716 0
M  V30 8024 H 739.574 0.857435 1.15689 0
M  V30 8025 H 741.527 0.142465 4.21159 0
M  V30 8026 H 740.251 -0.594945 3.21135 0
M  V30 8027 H 738.91 1.53429 3.32949 0
M  V30 8028 H 738.558 -0.272422 5.02262 0
M  V30 8029 H 738.258 1.33853 5.72151 0
M  V30 8030 H 739.782 0.48074 6.08705 0
M  V30 8031 H 741.196 2.5442 5.13754 0
M  V30 8032 H 739.593 3.32282 4.99709 0
M  V30 8033 H 740.663 3.26537 3.58471 0
M  V30 8034 N 742.006 -1.2595 0.947325 0
M  V30 8035 C 743.252 -1.9375 0.599064 0
M  V30 8036 C 743.585 -1.74088 -0.860632 0
M  V30 8037 O 742.86 -1.08158 -1.61654 0
M  V30 8038 C 743.143 -3.47353 0.949634 0
M  V30 8039 C 742.996 -3.76273 2.46452 0
M  V30 8040 C 744.315 -4.37589 0.469442 0
M  V30 8041 H 741.434 -0.703674 0.219115 0
M  V30 8042 H 744.076 -1.48705 1.18266 0
M  V30 8043 H 742.226 -3.8585 0.453008 0
M  V30 8044 H 743.898 -3.47455 3.03435 0
M  V30 8045 H 742.141 -3.22135 2.90537 0
M  V30 8046 H 742.812 -4.83664 2.66032 0
M  V30 8047 H 745.288 -4.06353 0.89534 0
M  V30 8048 H 744.164 -5.43841 0.7435 0
M  V30 8049 H 744.425 -4.37579 -0.630618 0
M  V30 8050 N 743.484 -0.715051 -1.40445 0
M  V30 8051 C 744.714 -0.263576 -2.04912 0
M  V30 8052 C 745.122 1.09943 -1.53978 0
M  V30 8053 O 744.465 1.70203 -0.691133 0
M  V30 8054 C 744.527 -0.165048 -3.59121 0
M  V30 8055 C 744.191 -1.46325 -4.32941 0
M  V30 8056 C 745.188 -2.40506 -4.60926 0
M  V30 8057 C 742.873 -1.72203 -4.7186 0
M  V30 8058 C 744.867 -3.58812 -5.26814 0
M  V30 8059 C 742.554 -2.9079 -5.3748 0
M  V30 8060 C 743.552 -3.83917 -5.64887 0
M  V30 8061 O 743.24 -5.00424 -6.29151 0
M  V30 8062 H 742.972 -0.116317 -0.665918 0
M  V30 8063 H 745.526 -0.973774 -1.8085 0
M  V30 8064 H 743.756 0.601088 -3.82 0
M  V30 8065 H 745.445 0.251794 -4.05118 0
M  V30 8066 H 746.211 -2.21778 -4.31323 0
M  V30 8067 H 742.09 -1.00571 -4.49896 0
M  V30 8068 H 745.634 -4.31517 -5.48123 0
M  V30 8069 H 741.531 -3.09428 -5.66502 0
M  V30 8070 H 742.299 -5.00494 -6.47648 0
M  V30 8071 N 744.962 1.50701 -0.461195 0
M  V30 8072 C 746.378 1.59187 -0.114786 0
M  V30 8073 C 746.578 1.4702 1.37794 0
M  V30 8074 O 745.634 1.32361 2.15027 0
M  V30 8075 C 746.947 2.93453 -0.656167 0
M  V30 8076 C 748.495 3.06824 -0.618715 0
M  V30 8077 C 748.97 4.4365 -1.13747 0
M  V30 8078 N 750.461 4.50035 -1.09646 0
M  V30 8079 C 751.196 5.54278 -1.46846 0
M  V30 8080 N 750.692 6.65822 -1.91448 0
M  V30 8081 N 752.485 5.44767 -1.38512 0
M  V30 8082 H 744.636 1.56853 -1.43216 0
M  V30 8083 H 746.899 0.740712 -0.59165 0
M  V30 8084 H 746.605 3.07802 -1.7015 0
M  V30 8085 H 746.479 3.77082 -0.0942261 0
M  V30 8086 H 748.866 2.92129 0.417685 0
M  V30 8087 H 748.947 2.24976 -1.21734 0
M  V30 8088 H 748.591 4.59093 -2.17245 0
M  V30 8089 H 748.521 5.24074 -0.515153 0
M  V30 8090 H 751.012 3.69988 -0.769217 0
M  V30 8091 H 751.325 7.41413 -2.18007 0
M  V30 8092 H 749.67 6.66968 -1.95393 0
M  V30 8093 H 752.861 4.56511 -1.03516 0
M  V30 8094 H 753.034 6.25889 -1.6783 0
M  V30 8095 N 746.441 0.193421 1.56409 0
M  V30 8096 C 747.718 -0.493318 1.89277 0
M  V30 8097 C 748.098 -1.79765 1.10669 0
M  V30 8098 O 747.446 -2.27558 0.207274 0
M  V30 8099 C 747.656 -0.713732 3.41624 0
M  V30 8100 C 749.004 -1.03385 4.11821 0
M  V30 8101 O 750.028 -0.801511 3.47065 0
M  V30 8102 O 748.887 -1.47327 5.26267 0
M  V30 8103 H 745.981 -0.256973 0.786062 0
M  V30 8104 H 748.527 0.23351 1.68086 0
M  V30 8105 H 747.299 0.207446 3.9075 0
M  V30 8106 H 746.922 -1.49308 3.68501 0
M  V30 8107 N 747.919 -1.57396 -0.0801906 0
M  V30 8108 C 749.335 -1.53564 -0.434778 0
M  V30 8109 C 749.535 -0.912372 -1.79661 0
M  V30 8110 O 748.591 -0.511268 -2.4727 0
M  V30 8111 C 749.904 -2.98244 -0.383561 0
M  V30 8112 C 751.452 -3.09536 -0.46435 0
M  V30 8113 C 751.927 -4.55851 -0.443128 0
M  V30 8114 N 753.418 -4.60456 -0.503448 0
M  V30 8115 C 754.153 -5.71135 -0.509106 0
M  V30 8116 N 753.649 -6.91203 -0.47008 0
M  V30 8117 N 755.442 -5.59353 -0.555035 0
M  V30 8118 H 747.593 -1.96281 0.811635 0
M  V30 8119 H 749.856 -0.898041 0.303689 0
M  V30 8120 H 749.562 -3.47369 0.550236 0
M  V30 8121 H 749.436 -3.57705 -1.19694 0
M  V30 8122 H 751.823 -2.6039 -1.38857 0
M  V30 8123 H 751.904 -2.53 0.377445 0
M  V30 8124 H 751.548 -5.05653 0.477207 0
M  V30 8125 H 751.478 -5.10242 -1.30234 0
M  V30 8126 H 753.969 -3.74048 -0.538199 0
M  V30 8127 H 754.282 -7.7132 -0.478091 0
M  V30 8128 H 752.627 -6.93625 -0.436897 0
M  V30 8129 H 755.818 -4.64453 -0.583158 0
M  V30 8130 H 755.991 -6.4561 -0.555976 0
M  V30 8131 N 749.397 0.351382 -1.53633 0
M  V30 8132 C 750.307 1.45471 -1.84052 0
M  V30 8133 C 751.323 1.57945 -0.730015 0
M  V30 8134 O 752.499 1.73571 -1.02153 0
M  V30 8135 C 749.564 2.80562 -2.03681 0
M  V30 8136 C 748.625 2.77497 -3.27558 0
M  V30 8137 C 747.858 4.06144 -3.46241 0
M  V30 8138 O 748.081 5.03028 -2.68922 0
M  V30 8139 O 747.015 4.11092 -4.39645 0
M  V30 8140 H 750.841 1.22684 -2.77817 0
M  V30 8141 H 748.426 0.542827 -1.3919 0
M  V30 8142 H 750.308 3.6058 -2.18082 0
M  V30 8143 H 748.983 3.03296 -1.13106 0
M  V30 8144 H 747.89 1.96126 -3.18568 0
M  V30 8145 H 749.223 2.59716 -4.18101 0
M  V30 8146 N 750.875 1.45233 0.611969 0
M  V30 8147 C 752.103 1.52539 1.39784 0
M  V30 8148 C 752.518 0.156533 1.8815 0
M  V30 8149 O 751.875 -0.84112 1.61961 0
M  V30 8150 C 751.926 2.50614 2.60528 0
M  V30 8151 O 751.647 3.8218 2.14173 0
M  V30 8152 C 753.148 2.67574 3.53439 0
M  V30 8153 H 750.368 0.51674 0.428043 0
M  V30 8154 H 752.912 1.90379 0.746727 0
M  V30 8155 H 751.067 2.15858 3.2169 0
M  V30 8156 H 751.481 4.35305 2.92592 0
M  V30 8157 H 752.955 3.40184 4.34717 0
M  V30 8158 H 753.432 1.73458 4.03496 0
M  V30 8159 H 754.038 3.0331 2.98133 0
M  V30 8160 N 752.353 -0.854086 1.3245 0
M  V30 8161 C 753.283 -1.97827 1.24044 0
M  V30 8162 C 754.264 -1.69646 0.124166 0
M  V30 8163 O 755.449 -1.91687 0.31143 0
M  V30 8164 C 752.579 -3.33673 0.963324 0
M  V30 8165 C 751.533 -3.76207 2.04089 0
M  V30 8166 C 750.859 -5.0969 1.61618 0
M  V30 8167 C 752.159 -3.91612 3.45597 0
M  V30 8168 H 753.853 -2.05118 2.18099 0
M  V30 8169 H 751.399 -0.985489 1.04996 0
M  V30 8170 H 753.352 -4.11871 0.891061 0
M  V30 8171 H 752.076 -3.26597 -0.0128649 0
M  V30 8172 H 750.735 -3.0026 2.10332 0
M  V30 8173 H 750.383 -4.99072 0.627418 0
M  V30 8174 H 750.083 -5.3912 2.33717 0
M  V30 8175 H 751.607 -5.90381 1.55829 0
M  V30 8176 H 753.021 -4.60163 3.4194 0
M  V30 8177 H 751.418 -4.3246 4.16051 0
M  V30 8178 H 752.488 -2.9451 3.85217 0
M  V30 8179 N 753.831 -1.1567 -1.07043 0
M  V30 8180 C 754.778 -0.856336 -2.14326 0
M  V30 8181 C 755.748 0.192051 -1.64986 0
M  V30 8182 O 756.933 0.0589148 -1.90709 0
M  V30 8183 C 754.073 -0.355227 -3.43267 0
M  V30 8184 C 753.186 -1.46555 -4.06381 0
M  V30 8185 C 752.321 -0.920245 -5.23168 0
M  V30 8186 C 751.36 -2.00729 -5.78251 0
M  V30 8187 N 750.497 -1.47813 -6.86364 0
M  V30 8188 H 755.337 -1.77514 -2.39359 0
M  V30 8189 H 752.874 -0.885676 -1.17449 0
M  V30 8190 H 754.832 -0.0463804 -4.17174 0
M  V30 8191 H 753.462 0.526649 -3.18475 0
M  V30 8192 H 752.514 -1.89052 -3.30096 0
M  V30 8193 H 753.826 -2.28616 -4.43324 0
M  V30 8194 H 752.98 -0.564127 -6.04072 0
M  V30 8195 H 751.719 -0.0688477 -4.87651 0
M  V30 8196 H 750.724 -2.3722 -4.95991 0
M  V30 8197 H 751.949 -2.86252 -6.15822 0
M  V30 8198 H 749.895 -0.649145 -6.5278 0
M  V30 8199 H 749.812 -2.23498 -7.22208 0
M  V30 8200 H 751.08 -1.15036 -7.70965 0
M  V30 8201 N 755.309 1.25446 -0.953992 0
M  V30 8202 C 756.556 1.93143 -0.608429 0
M  V30 8203 C 756.884 1.74727 0.854451 0
M  V30 8204 O 756.139 1.0855 1.62836 0
M  V30 8205 C 756.438 3.45555 -0.912496 0
M  V30 8206 C 756.104 3.84126 -2.36131 0
M  V30 8207 C 754.766 3.94367 -2.75732 0
M  V30 8208 C 757.118 4.0324 -3.30223 0
M  V30 8209 C 754.446 4.21127 -4.08496 0
M  V30 8210 C 756.798 4.31493 -4.62598 0
M  V30 8211 C 755.462 4.3995 -5.01996 0
M  V30 8212 H 754.732 0.706762 -0.22264 0
M  V30 8213 H 757.379 1.49005 -1.20291 0
M  V30 8214 H 755.684 3.91091 -0.235618 0
M  V30 8215 H 757.381 3.9612 -0.623714 0
M  V30 8216 H 753.971 3.76711 -2.04418 0
M  V30 8217 H 758.155 3.94744 -3.00817 0
M  V30 8218 H 753.411 4.2589 -4.38665 0
M  V30 8219 H 757.585 4.45227 -5.35486 0
M  V30 8220 H 755.212 4.60439 -6.04896 0
M  V30 8221 N 756.787 0.722489 1.40064 0
M  V30 8222 C 758.033 0.265371 2.01056 0
M  V30 8223 C 758.366 -1.14062 1.57174 0
M  V30 8224 O 757.641 -1.77514 0.794916 0
M  V30 8225 C 757.924 0.353157 3.58364 0
M  V30 8226 C 757.777 1.79802 4.123 0
M  V30 8227 C 759.096 -0.271677 4.39261 0
M  V30 8228 H 756.215 0.0979002 0.730469 0
M  V30 8229 H 758.857 0.916289 1.66446 0
M  V30 8230 H 757.007 -0.201037 3.87979 0
M  V30 8231 H 758.679 2.40813 3.93455 0
M  V30 8232 H 756.922 2.32348 3.66329 0
M  V30 8233 H 757.593 1.81079 5.21454 0
M  V30 8234 H 760.069 0.200607 4.15616 0
M  V30 8235 H 758.945 -0.179843 5.48605 0
M  V30 8236 H 759.206 -1.35611 4.20787 0
M  V30 8237 N 758.265 -1.50454 0.469181 0
M  V30 8238 C 759.212 -2.28486 -0.325982 0
M  V30 8239 C 760.182 -1.33455 -0.988893 0
M  V30 8240 O 761.367 -1.6239 -1.0017 0
M  V30 8241 C 758.507 -3.15288 -1.40313 0
M  V30 8242 C 757.62 -4.25348 -0.755183 0
M  V30 8243 C 756.755 -4.9941 -1.81006 0
M  V30 8244 C 755.794 -6.01348 -1.14226 0
M  V30 8245 N 754.931 -6.68695 -2.1399 0
M  V30 8246 H 759.771 -2.95987 0.345753 0
M  V30 8247 H 757.308 -1.45965 0.182355 0
M  V30 8248 H 759.266 -3.63964 -2.03927 0
M  V30 8249 H 757.896 -2.49837 -2.04405 0
M  V30 8250 H 756.948 -3.80399 -0.00651901 0
M  V30 8251 H 758.26 -4.98279 -0.227941 0
M  V30 8252 H 757.414 -5.51794 -2.52206 0
M  V30 8253 H 756.153 -4.26181 -2.3711 0
M  V30 8254 H 755.158 -5.48225 -0.415876 0
M  V30 8255 H 756.383 -6.76548 -0.588135 0
M  V30 8256 H 754.329 -5.98258 -2.69115 0
M  V30 8257 H 754.246 -7.37495 -1.66246 0
M  V30 8258 H 755.514 -7.25697 -2.84576 0
M  V30 8259 N 759.743 -0.201713 -1.56304 0
M  V30 8260 C 760.693 0.729444 -2.16016 0
M  V30 8261 C 761.677 1.17164 -1.10279 0
M  V30 8262 O 762.869 1.12893 -1.36324 0
M  V30 8263 C 759.998 1.94594 -2.82822 0
M  V30 8264 C 759.084 1.52434 -3.95758 0
M  V30 8265 N 759.475 0.814106 -4.99205 0
M  V30 8266 C 757.773 1.81314 -4.07481 0
M  V30 8267 C 758.474 0.601896 -5.78578 0
M  V30 8268 N 757.45 1.15263 -5.3124 0
M  V30 8269 H 761.252 0.178163 -2.93359 0
M  V30 8270 H 758.766 -0.00218038 -1.624 0
M  V30 8271 H 760.763 2.62357 -3.23998 0
M  V30 8272 H 759.423 2.50188 -2.06969 0
M  V30 8273 H 760.434 0.468872 -5.15773 0
M  V30 8274 H 757.111 2.3837 -3.42762 0
M  V30 8275 H 758.501 0.0380119 -6.71889 0
M  V30 8276 N 761.222 1.57436 0.0718424 0
M  V30 8277 C 762.471 1.86431 0.769826 0
M  V30 8278 C 762.784 0.794355 1.78744 0
M  V30 8279 O 763.99 0.972148 2.53499 0
M  V30 8280 C 762.446 3.307 1.42006 0
M  V30 8281 C 762.054 4.45824 0.441017 0
M  V30 8282 C 763.798 3.68894 2.10041 0
M  V30 8283 C 761.705 5.81134 1.09717 0
M  V30 8284 H 760.635 0.695474 0.291259 0
M  V30 8285 H 763.286 1.83485 0.0231224 0
M  V30 8286 H 761.668 3.28257 2.21502 0
M  V30 8287 H 762.842 4.59659 -0.32413 0
M  V30 8288 H 761.157 4.16181 -0.134886 0
M  V30 8289 H 763.754 4.67281 2.59908 0
M  V30 8290 H 764.097 2.98692 2.89981 0
M  V30 8291 H 764.63 3.73326 1.37376 0
M  V30 8292 H 761.369 6.54628 0.338095 0
M  V30 8293 H 760.889 5.711 1.83317 0
M  V30 8294 H 762.568 6.26468 1.617 0
M  V30 8295 N 762.7 -0.34323 1.53817 0
M  V30 8296 C 763.648 -1.44176 1.82527 0
M  V30 8297 C 764.642 -1.54452 0.695772 0
M  V30 8298 O 765.848 -1.57072 0.879114 0
M  V30 8299 H 762.223 -0.480729 0.578277 0
M  V30 8300 H 764.194 -1.17176 2.74431 0
M  V30 8301 C 762.943 -2.80695 2.05197 0
M  V30 8302 H 762.266 -2.73554 2.91561 0
M  V30 8303 H 763.706 -3.56679 2.29251 0
M  V30 8304 C 762.165 -3.26322 0.837589 0
M  V30 8305 O 762.695 -4.01683 0.0371631 0
M  V30 8306 N 760.901 -2.83128 0.654724 0
M  V30 8307 H 760.448 -2.21965 1.30725 0
M  V30 8308 H 760.406 -3.14011 -0.156345 0
M  V30 8309 N 764.178 -1.45556 -0.604258 0
M  V30 8310 C 765.128 -1.50906 -1.70913 0
M  V30 8311 C 766.112 -0.371996 -1.56541 0
M  V30 8312 O 767.304 -0.619064 -1.65821 0
M  V30 8313 C 764.433 -1.48181 -3.09673 0
M  V30 8314 C 763.519 -2.67102 -3.2942 0
M  V30 8315 N 763.91 -3.92184 -3.19414 0
M  V30 8316 C 762.208 -2.6287 -3.60299 0
M  V30 8317 C 762.909 -4.71571 -3.40581 0
M  V30 8318 N 761.885 -4.03081 -3.64728 0
M  V30 8319 H 765.687 -2.45435 -1.61675 0
M  V30 8320 H 763.201 -1.40894 -0.807622 0
M  V30 8321 H 765.198 -1.501 -3.88942 0
M  V30 8322 H 763.858 -0.54712 -3.20057 0
M  V30 8323 H 764.869 -4.23756 -2.97743 0
M  V30 8324 H 761.546 -1.78324 -3.77501 0
M  V30 8325 H 762.936 -5.80571 -3.38211 0
M  V30 8326 N 765.656 0.84705 -1.32902 0
M  V30 8327 C 767.072 1.13645 -1.12058 0
M  V30 8328 C 767.272 2.01281 0.093937 0
M  V30 8329 O 766.328 2.4026 0.776608 0
M  V30 8330 C 767.641 1.80644 -2.40392 0
M  V30 8331 C 769.189 1.93246 -2.46221 0
M  V30 8332 C 769.664 2.6366 -3.74496 0
M  V30 8333 N 771.155 2.71179 -3.75521 0
M  V30 8334 C 771.89 3.26332 -4.71482 0
M  V30 8335 N 771.386 3.82236 -5.77813 0
M  V30 8336 N 773.179 3.24507 -4.58968 0
M  V30 8337 H 765.33 0.263612 -2.10758 0
M  V30 8338 H 767.593 0.17944 -0.930863 0
M  V30 8339 H 767.299 1.23708 -3.29225 0
M  V30 8340 H 767.173 2.80736 -2.51926 0
M  V30 8341 H 769.56 2.49338 -1.57843 0
M  V30 8342 H 769.641 0.921272 -2.38634 0
M  V30 8343 H 769.285 2.08229 -4.63253 0
M  V30 8344 H 769.215 3.65234 -3.79357 0
M  V30 8345 H 771.706 2.31527 -2.9867 0
M  V30 8346 H 772.019 4.22499 -6.47082 0
M  V30 8347 H 770.364 3.80546 -5.81558 0
M  V30 8348 H 773.555 2.80085 -3.7506 0
M  V30 8349 H 773.728 3.67188 -5.33926 0
M  V30 8350 N 767.134 1.16236 1.06428 0
M  V30 8351 C 768.359 0.967688 1.83441 0
M  V30 8352 C 768.784 -0.479167 1.81894 0
M  V30 8353 O 768.142 -1.34224 1.21875 0
M  V30 8354 C 768.19 1.49806 3.2801 0
M  V30 8355 O 767.294 0.703481 4.06356 0
M  V30 8356 H 766.635 0.344468 0.56766 0
M  V30 8357 H 769.165 1.54442 1.34197 0
M  V30 8358 H 769.175 1.51495 3.78831 0
M  V30 8359 H 767.85 2.55133 3.2845 0
M  V30 8360 H 766.427 0.756986 3.65136 0
M  V30 8361 N 768.612 -1.24939 0.960631 0
M  V30 8362 C 769.542 -2.28 0.503815 0
M  V30 8363 C 770.523 -1.63959 -0.452928 0
M  V30 8364 O 771.708 -1.91009 -0.350585 0
M  V30 8365 C 768.838 -3.46643 -0.213535 0
M  V30 8366 C 767.792 -4.22903 0.658535 0
M  V30 8367 C 767.118 -5.34363 -0.189902 0
M  V30 8368 C 768.418 -4.84949 1.93963 0
M  V30 8369 H 770.112 -2.66462 1.36521 0
M  V30 8370 H 767.658 -1.28093 0.657897 0
M  V30 8371 H 769.611 -4.1787 -0.544286 0
M  V30 8372 H 768.335 -3.07187 -1.10923 0
M  V30 8373 H 766.994 -3.53467 0.972455 0
M  V30 8374 H 766.642 -4.91147 -1.08553 0
M  V30 8375 H 766.342 -5.86302 0.390331 0
M  V30 8376 H 767.866 -6.0842 -0.515484 0
M  V30 8377 H 769.28 -5.48288 1.67491 0
M  V30 8378 H 767.677 -5.47091 2.46601 0
M  V30 8379 H 768.747 -4.06799 2.639 0
M  V30 8380 N 770.09 -0.729906 -1.39679 0
M  V30 8381 C 771 -0.0880322 -2.34435 0
M  V30 8382 C 772.016 0.727674 -1.58053 0
M  V30 8383 O 773.192 0.657321 -1.90371 0
M  V30 8384 C 770.257 0.812211 -3.37052 0
M  V30 8385 C 769.318 -0.0151681 -4.29297 0
M  V30 8386 C 768.551 0.842202 -5.27013 0
M  V30 8387 O 768.774 2.08108 -5.31081 0
M  V30 8388 O 767.708 0.27357 -6.01278 0
M  V30 8389 H 771.534 -0.869989 -2.90972 0
M  V30 8390 H 769.119 -0.490522 -1.41118 0
M  V30 8391 H 771.001 1.32745 -3.99946 0
M  V30 8392 H 769.676 1.57307 -2.82907 0
M  V30 8393 H 768.583 -0.575811 -3.69642 0
M  V30 8394 H 769.916 -0.738129 -4.86634 0
M  V30 8395 N 771.568 1.50203 -0.477153 0
M  V30 8396 C 772.5 2.26508 0.350239 0
M  V30 8397 C 773.513 1.32081 0.95176 0
M  V30 8398 O 774.702 1.57546 0.839139 0
M  V30 8399 C 771.802 3.0361 1.50579 0
M  V30 8400 C 770.975 4.25438 1.01595 0
M  V30 8401 C 770.034 4.84783 2.04626 0
M  V30 8402 O 769.06 5.45528 1.62442 0
M  V30 8403 N 770.262 4.72318 3.37485 0
M  V30 8404 H 773.027 2.98155 -0.30394 0
M  V30 8405 H 770.588 1.58938 -0.308289 0
M  V30 8406 H 772.58 3.4019 2.1921 0
M  V30 8407 H 771.15 2.34724 2.06455 0
M  V30 8408 H 770.37 3.93894 0.155316 0
M  V30 8409 H 771.658 5.04413 0.666694 0
M  V30 8410 H 771.056 4.24022 3.74462 0
M  V30 8411 H 769.613 5.13149 4.01897 0
M  V30 8412 N 773.046 0.209999 1.56195 0
M  V30 8413 C 773.993 -0.704854 2.19774 0
M  V30 8414 C 774.963 -1.19886 1.14964 0
M  V30 8415 O 776.148 -1.26005 1.43274 0
M  V30 8416 C 773.288 -1.91241 2.87265 0
M  V30 8417 C 772.401 -1.45838 4.06639 0
M  V30 8418 C 771.536 -2.6226 4.61945 0
M  V30 8419 C 770.575 -2.13537 5.73645 0
M  V30 8420 N 769.712 -3.2319 6.23292 0
M  V30 8421 H 774.552 -0.155944 2.97592 0
M  V30 8422 H 772.089 -0.0652235 1.46955 0
M  V30 8423 H 774.047 -2.62123 3.24573 0
M  V30 8424 H 772.677 -2.43439 2.11985 0
M  V30 8425 H 771.729 -0.644897 3.74894 0
M  V30 8426 H 773.041 -1.06103 4.87384 0
M  V30 8427 H 772.195 -3.41243 5.01636 0
M  V30 8428 H 770.934 -3.05278 3.80338 0
M  V30 8429 H 769.939 -1.33013 5.33468 0
M  V30 8430 H 771.164 -1.71533 6.57079 0
M  V30 8431 H 769.11 -3.65711 5.44602 0
M  V30 8432 H 769.027 -2.8767 6.99129 0
M  V30 8433 H 770.295 -4.02342 6.67639 0
M  V30 8434 N 774.524 -1.57472 -0.0634922 0
M  V30 8435 C 775.471 -2.04258 -1.07457 0
M  V30 8436 C 776.441 -0.924804 -1.37973 0
M  V30 8437 O 777.626 -1.19305 -1.48899 0
M  V30 8438 C 774.766 -2.49832 -2.38071 0
M  V30 8439 C 773.879 -3.75263 -2.14014 0
M  V30 8440 C 773.014 -4.09585 -3.38251 0
M  V30 8441 C 772.053 -5.28032 -3.09594 0
M  V30 8442 N 771.19 -5.57953 -4.26185 0
M  V30 8443 H 776.03 -2.90402 -0.668626 0
M  V30 8444 H 773.567 -1.43609 -0.318572 0
M  V30 8445 H 775.525 -2.7431 -3.14341 0
M  V30 8446 H 774.155 -1.66654 -2.76453 0
M  V30 8447 H 773.207 -3.58075 -1.28399 0
M  V30 8448 H 774.519 -4.61667 -1.88852 0
M  V30 8449 H 773.673 -4.35008 -4.2291 0
M  V30 8450 H 772.412 -3.21765 -3.66495 0
M  V30 8451 H 771.417 -5.02397 -2.23332 0
M  V30 8452 H 772.642 -6.17477 -2.82663 0
M  V30 8453 H 770.588 -4.73092 -4.54445 0
M  V30 8454 H 770.505 -6.38793 -4.04326 0
M  V30 8455 H 771.773 -5.87931 -5.11817 0
M  V30 8456 N 776.003 0.335068 -1.53997 0
M  V30 8457 C 777.231 1.09418 -1.756 0
M  V30 8458 C 777.646 1.82083 -0.499138 0
M  V30 8459 O 777.003 1.74646 0.529631 0
M  V30 8460 C 777.054 2.10115 -2.94166 0
M  V30 8461 O 776.775 1.40404 -4.14992 0
M  V30 8462 C 778.276 2.98336 -3.27888 0
M  V30 8463 H 775.496 0.32595 -0.586513 0
M  V30 8464 H 778.04 0.384693 -2.00849 0
M  V30 8465 H 776.195 2.76616 -2.71224 0
M  V30 8466 H 776.609 2.07743 -4.81605 0
M  V30 8467 H 778.083 3.6491 -4.1418 0
M  V30 8468 H 778.56 3.64814 -2.44556 0
M  V30 8469 H 779.166 2.37412 -3.52868 0
M  V30 8470 N 777.481 1.45874 0.596531 0
M  V30 8471 C 778.728 1.50467 1.35521 0
M  V30 8472 C 779.056 0.150802 1.93915 0
M  V30 8473 O 778.311 -0.851913 1.76184 0
M  V30 8474 C 778.61 2.54034 2.51399 0
M  V30 8475 C 778.276 3.9844 2.11085 0
M  V30 8476 C 776.938 4.37758 1.99804 0
M  V30 8477 C 779.29 4.89209 1.79788 0
M  V30 8478 C 776.618 5.65727 1.55465 0
M  V30 8479 C 778.97 6.17602 1.36931 0
M  V30 8480 C 777.634 6.5584 1.24218 0
M  V30 8481 H 776.904 0.550597 0.495907 0
M  V30 8482 H 779.551 1.79279 0.673145 0
M  V30 8483 H 777.856 2.18832 3.24992 0
M  V30 8484 H 779.553 2.54822 3.09624 0
M  V30 8485 H 776.143 3.67353 2.20794 0
M  V30 8486 H 780.327 4.59562 1.87395 0
M  V30 8487 H 775.583 5.94139 1.44253 0
M  V30 8488 H 779.757 6.87373 1.11764 0
M  V30 8489 H 777.384 7.54897 0.896353 0
M  V30 8490 N 778.959 -0.83999 1.33349 0
M  V30 8491 C 780.37 -1.41139 1.22216 0
M  V30 8492 C 780.721 -1.95551 -0.159398 0
M  V30 8493 O 779.846 -1.88721 -1.05893 0
M  V30 8494 C 780.441 -2.56564 2.21269 0
M  V30 8495 C 779 -3.09661 2.13979 0
M  V30 8496 C 778.147 -1.82457 2.08818 0
M  V30 8497 H 781.098 -0.645853 1.44964 0
M  V30 8498 H 781.119 -3.34163 1.81976 0
M  V30 8499 H 780.631 -2.16932 3.21811 0
M  V30 8500 H 778.732 -3.53841 1.16736 0
M  V30 8501 H 778.845 -3.6991 3.04472 0
M  V30 8502 H 777.209 -2.0266 1.54276 0
M  V30 8503 H 777.992 -1.45022 3.11165 0
M  V30 8504 N 780.437 -1.16799 -1.0581 0
M  V30 8505 C 781.385 -0.875111 -2.1551 0
M  V30 8506 C 782.379 0.157781 -1.68664 0
M  V30 8507 O 783.585 0.011297 -1.79996 0
M  V30 8508 H 779.96 -0.26542 -0.703602 0
M  V30 8509 H 781.931 -1.8076 -2.37421 0
M  V30 8510 C 780.68 -0.39802 -3.45414 0
M  V30 8511 H 780.003 -1.18425 -3.81858 0
M  V30 8512 H 781.443 -0.231913 -4.23365 0
M  V30 8513 C 779.902 0.88327 -3.25115 0
M  V30 8514 O 780.432 1.95145 -3.51114 0
M  V30 8515 N 778.638 0.828961 -2.78526 0
M  V30 8516 H 778.185 -0.0405029 -2.57568 0
M  V30 8517 H 778.143 1.68673 -2.65324 0
M  V30 8518 N 781.915 1.24427 -0.967243 0
M  V30 8519 C 783.331 1.44684 -0.6737 0
M  V30 8520 C 783.531 1.86429 0.764625 0
M  V30 8521 O 782.587 2.00211 1.53857 0
M  V30 8522 C 783.9 2.509 -1.6574 0
M  V30 8523 C 785.448 2.64728 -1.66998 0
M  V30 8524 C 785.923 3.7414 -2.64165 0
M  V30 8525 N 787.414 3.81567 -2.62604 0
M  V30 8526 C 788.149 4.6575 -3.34462 0
M  V30 8527 N 787.645 5.54124 -4.15835 0
M  V30 8528 N 789.438 4.59827 -3.23288 0
M  V30 8529 H 781.589 0.956276 -1.89655 0
M  V30 8530 H 783.852 0.48171 -0.816492 0
M  V30 8531 H 783.558 2.27113 -2.68538 0
M  V30 8532 H 783.432 3.4905 -1.42981 0
M  V30 8533 H 785.819 2.87872 -0.649121 0
M  V30 8534 H 785.9 1.66936 -1.93819 0
M  V30 8535 H 785.544 3.51745 -3.66384 0
M  V30 8536 H 785.474 4.71444 -2.34623 0
M  V30 8537 H 787.965 3.18403 -2.03539 0
M  V30 8538 H 788.278 6.15316 -4.67553 0
M  V30 8539 H 786.623 5.53791 -4.19929 0
M  V30 8540 H 789.814 3.898 -2.59179 0
M  V30 8541 H 789.987 5.25208 -3.79553 0
M  V30 8542 N 783.393 0.737304 1.3929 0
M  V30 8543 C 784.621 0.296573 2.04763 0
M  V30 8544 C 785.036 -1.06941 1.55592 0
M  V30 8545 O 784.393 -1.67619 0.721822 0
M  V30 8546 C 784.444 0.291906 3.6032 0
M  V30 8547 O 784.165 1.60397 4.07682 0
M  V30 8548 C 785.666 -0.164708 4.42994 0
M  V30 8549 H 782.886 0.129251 0.658434 0
M  V30 8550 H 785.43 1.0016 1.78293 0
M  V30 8551 H 783.585 -0.364251 3.85684 0
M  V30 8552 H 783.999 1.51909 5.0202 0
M  V30 8553 H 785.473 -0.116814 5.51876 0
M  V30 8554 H 785.95 -1.21022 4.22197 0
M  V30 8555 H 786.556 0.461968 4.22784 0
M  V30 8556 N 784.871 -1.49948 0.485112 0
M  V30 8557 C 786.119 -2.01996 -0.0648775 0
M  V30 8558 C 786.44 -1.36819 -1.38945 0
M  V30 8559 O 785.71 -0.518163 -1.88923 0
M  V30 8560 H 784.29 -0.746513 -0.0269662 0
M  V30 8561 H 786.952 -1.84136 0.638733 0
M  V30 8562 H 786.048 -3.11418 -0.20617 0
M  V30 8563 N 786.349 -0.21828 -1.56081 0
M  V30 8564 C 787.596 0.414307 -1.98216 0
M  V30 8565 C 787.924 1.60005 -1.10584 0
M  V30 8566 O 787.179 1.95124 -0.150043 0
M  V30 8567 C 787.478 0.894782 -3.46018 0
M  V30 8568 C 787.144 -0.180083 -4.5054 0
M  V30 8569 C 785.806 -0.475367 -4.78846 0
M  V30 8570 C 788.158 -0.907191 -5.13244 0
M  V30 8571 C 785.486 -1.50233 -5.67139 0
M  V30 8572 C 787.838 -1.92347 -6.02649 0
M  V30 8573 C 786.502 -2.22571 -6.293 0
M  V30 8574 H 785.772 0.151606 -0.725325 0
M  V30 8575 H 788.419 -0.320113 -1.88806 0
M  V30 8576 H 786.724 1.7079 -3.52616 0
M  V30 8577 H 788.421 1.39403 -3.75989 0
M  V30 8578 H 785.011 0.06022 -4.28558 0
M  V30 8579 H 789.195 -0.692303 -4.91448 0
M  V30 8580 H 784.451 -1.74215 -5.86054 0
M  V30 8581 H 788.625 -2.49197 -6.50288 0
M  V30 8582 H 786.252 -3.0229 -6.97513 0
M  V30 8583 N 787.827 1.57504 0.0551401 0
M  V30 8584 C 789.073 1.89191 0.74688 0
M  V30 8585 C 789.428 0.813936 1.74335 0
M  V30 8586 O 788.721 -0.180217 1.90751 0
M  V30 8587 C 788.915 3.25311 1.48013 0
M  V30 8588 C 788.744 4.46247 0.556176 0
M  V30 8589 C 787.514 5.04954 0.186891 0
M  V30 8590 C 789.712 5.14068 -0.154295 0
M  V30 8591 N 787.694 6.09411 -0.741041 0
M  V30 8592 C 789.065 6.12851 -0.938809 0
M  V30 8593 C 791.12 4.97396 -0.224007 0
M  V30 8594 C 789.823 6.96759 -1.78658 0
M  V30 8595 C 791.849 5.81845 -1.05881 0
M  V30 8596 C 791.211 6.80178 -1.83133 0
M  V30 8597 H 787.31 0.741562 0.248213 0
M  V30 8598 H 789.894 1.94698 0.00777734 0
M  V30 8599 H 788.065 3.20781 2.18985 0
M  V30 8600 H 789.797 3.44594 2.12219 0
M  V30 8601 H 786.552 4.70472 0.543415 0
M  V30 8602 H 786.976 6.66303 -1.19874 0
M  V30 8603 H 791.618 4.21274 0.358924 0
M  V30 8604 H 789.336 7.72245 -2.38042 0
M  V30 8605 H 792.922 5.70997 -1.11595 0
M  V30 8606 H 791.802 7.44389 -2.46687 0
M  V30 8607 N 789.305 -0.326896 1.54172 0
M  V30 8608 C 790.582 -1.08326 1.62864 0
M  V30 8609 C 790.962 -2.06018 0.46039 0
M  V30 8610 O 790.31 -2.21889 -0.545685 0
M  V30 8611 C 790.52 -1.78816 2.9971 0
M  V30 8612 C 791.868 -2.31958 3.55641 0
M  V30 8613 O 792.892 -1.88888 3.01993 0
M  V30 8614 O 791.751 -3.10801 4.49517 0
M  V30 8615 H 788.845 -0.499131 0.659392 0
M  V30 8616 H 791.391 -0.327054 1.66519 0
M  V30 8617 H 790.163 -1.07739 3.76176 0
M  V30 8618 H 789.786 -2.61255 2.99719 0
M  V30 8619 N 790.784 -1.46188 -0.588786 0
M  V30 8620 C 792.031 -1.51184 -1.34721 0
M  V30 8621 C 792.359 -0.161084 -1.93832 0
M  V30 8622 O 791.614 0.842557 -1.76634 0
M  V30 8623 C 791.913 -2.55364 -2.50048 0
M  V30 8624 C 791.579 -3.99553 -2.08969 0
M  V30 8625 C 790.241 -4.38811 -1.9748 0
M  V30 8626 C 792.593 -4.90156 -1.77191 0
M  V30 8627 C 789.921 -5.66544 -1.52463 0
M  V30 8628 C 792.273 -6.1832 -1.33654 0
M  V30 8629 C 790.937 -6.5649 -1.20738 0
M  V30 8630 H 790.207 -0.55322 -0.49298 0
M  V30 8631 H 792.854 -1.79634 -0.663627 0
M  V30 8632 H 791.159 -2.20552 -3.23827 0
M  V30 8633 H 792.856 -2.5646 -3.08268 0
M  V30 8634 H 789.446 -3.68518 -2.18843 0
M  V30 8635 H 793.63 -4.60549 -1.84955 0
M  V30 8636 H 788.886 -5.94895 -1.411 0
M  V30 8637 H 793.06 -6.87956 -1.08117 0
M  V30 8638 H 790.687 -7.55362 -0.856307 0
M  V30 8639 N 792.262 0.832906 -1.33792 0
M  V30 8640 C 793.487 1.62568 -1.28788 0
M  V30 8641 C 793.912 1.87599 0.137246 0
M  V30 8642 O 793.27 1.44436 1.0958 0
M  V30 8643 C 793.318 2.9495 -2.07453 0
M  V30 8644 O 792.422 3.86546 -1.43722 0
M  V30 8645 H 791.763 0.494809 -0.442787 0
M  V30 8646 H 794.293 1.03578 -1.76445 0
M  V30 8647 H 794.303 3.44599 -2.1844 0
M  V30 8648 H 792.978 2.76055 -3.11073 0
M  V30 8649 H 791.555 3.45044 -1.41417 0
M  V30 8650 N 793.74 1.17359 1.05189 0
M  V30 8651 C 794.987 0.961987 1.78191 0
M  V30 8652 C 795.315 -0.509363 1.87712 0
M  V30 8653 O 794.57 -1.39425 1.37329 0
M  V30 8654 C 794.869 1.54821 3.22126 0
M  V30 8655 C 794.535 3.04378 3.32663 0
M  V30 8656 C 793.197 3.45201 3.35246 0
M  V30 8657 C 795.549 4.00387 3.33677 0
M  V30 8658 C 792.877 4.80629 3.36471 0
M  V30 8659 C 795.229 5.35715 3.36441 0
M  V30 8660 C 793.893 5.76002 3.37311 0
M  V30 8661 H 793.163 0.352016 0.652047 0
M  V30 8662 H 795.81 1.46249 1.23627 0
M  V30 8663 H 794.115 0.969432 3.79617 0
M  V30 8664 H 795.812 1.36004 3.77232 0
M  V30 8665 H 792.402 2.71836 3.31366 0
M  V30 8666 H 796.586 3.69906 3.30882 0
M  V30 8667 H 791.842 5.11155 3.35455 0
M  V30 8668 H 796.016 6.09886 3.36173 0
M  V30 8669 H 793.643 6.80919 3.38013 0
M  V30 8670 N 795.218 -1.23913 0.973828 0
M  V30 8671 C 796.467 -1.91455 0.63464 0
M  V30 8672 C 796.78 -1.76893 -0.834759 0
M  V30 8673 O 797.986 -2.3918 -1.28473 0
M  V30 8674 C 796.442 -3.43172 1.08447 0
M  V30 8675 C 796.05 -3.66409 2.57776 0
M  V30 8676 C 797.794 -4.1653 0.818721 0
M  V30 8677 C 795.701 -5.11728 2.9646 0
M  V30 8678 H 794.631 -0.716881 0.233661 0
M  V30 8679 H 797.282 -1.40457 1.18085 0
M  V30 8680 H 795.664 -3.93242 0.466524 0
M  V30 8681 H 796.838 -3.26913 3.24753 0
M  V30 8682 H 795.153 -3.06349 2.82027 0
M  V30 8683 H 797.75 -5.23603 1.08367 0
M  V30 8684 H 798.093 -4.15578 -0.245128 0
M  V30 8685 H 798.626 -3.72428 1.39793 0
M  V30 8686 H 795.365 -5.17806 4.01941 0
M  V30 8687 H 794.885 -5.52199 2.34172 0
M  V30 8688 H 796.564 -5.80009 2.86703 0
M  V30 8689 N 796.696 -0.74468 -1.38897 0
M  V30 8690 C 797.926 -0.306982 -2.04307 0
M  V30 8691 C 798.334 1.06652 -1.56275 0
M  V30 8692 O 797.677 1.68699 -0.72708 0
M  V30 8693 C 797.739 -0.241186 -3.5869 0
M  V30 8694 C 797.403 -1.55476 -4.2974 0
M  V30 8695 C 798.4 -2.50229 -4.55721 0
M  V30 8696 C 796.085 -1.82173 -4.68101 0
M  V30 8697 C 798.079 -3.69905 -5.19085 0
M  V30 8698 C 795.766 -3.02125 -5.31191 0
M  V30 8699 C 796.764 -3.95812 -5.56616 0
M  V30 8700 O 796.452 -5.13656 -6.18395 0
M  V30 8701 H 796.184 -0.130416 -0.663301 0
M  V30 8702 H 798.738 -1.01192 -1.78744 0
M  V30 8703 H 796.968 0.519925 -3.83189 0
M  V30 8704 H 798.657 0.165806 -4.05561 0
M  V30 8705 H 799.423 -2.30877 -4.26522 0
M  V30 8706 H 795.302 -1.10091 -4.47662 0
M  V30 8707 H 798.846 -4.43047 -5.38846 0
M  V30 8708 H 794.743 -3.21374 -5.59811 0
M  V30 8709 H 795.511 -5.14119 -6.36886 0
M  V30 8710 N 798.174 1.49689 -0.493057 0
M  V30 8711 C 799.404 2.06536 0.0512397 0
M  V30 8712 C 799.812 1.35459 1.32089 0
M  V30 8713 O 799.155 0.424145 1.78736 0
M  V30 8714 C 799.217 3.57452 0.383231 0
M  V30 8715 C 798.881 4.50163 -0.787555 0
M  V30 8716 C 799.878 4.92151 -1.67582 0
M  V30 8717 C 797.563 4.92565 -0.984109 0
M  V30 8718 C 799.557 5.7527 -2.74487 0
M  V30 8719 C 797.244 5.75463 -2.05634 0
M  V30 8720 C 798.242 6.16719 -2.93507 0
M  V30 8721 O 797.93 6.97961 -3.98881 0
M  V30 8722 H 797.662 0.675862 -0.0136516 0
M  V30 8723 H 800.216 1.9356 -0.687298 0
M  V30 8724 H 798.446 3.68408 1.17526 0
M  V30 8725 H 800.135 3.96572 0.8652 0
M  V30 8726 H 800.901 4.60043 -1.53575 0
M  V30 8727 H 796.78 4.5996 -0.309541 0
M  V30 8728 H 800.324 6.07392 -3.43104 0
M  V30 8729 H 796.221 6.06983 -2.19639 0
M  V30 8730 H 796.989 7.16253 -3.96137 0
M  V30 8731 N 799.652 0.226554 1.55963 0
M  V30 8732 C 800.562 -0.692725 2.24139 0
M  V30 8733 C 801.578 -1.20971 1.25068 0
M  V30 8734 O 802.754 -1.25027 1.57893 0
M  V30 8735 C 799.819 -1.88183 2.91184 0
M  V30 8736 C 798.88 -1.40633 4.05612 0
M  V30 8737 C 798.113 -2.53875 4.6945 0
M  V30 8738 O 798.336 -3.72129 4.32292 0
M  V30 8739 O 797.27 -2.24792 5.58348 0
M  V30 8740 H 801.096 -0.141921 3.03368 0
M  V30 8741 H 798.681 -0.0041049 1.49399 0
M  V30 8742 H 800.563 -2.57617 3.33484 0
M  V30 8743 H 799.238 -2.42064 2.14911 0
M  V30 8744 H 798.145 -0.67986 3.67871 0
M  V30 8745 H 799.478 -0.913838 4.83642 0
M  V30 8746 O 801.169 -1.61246 0.0904713 0
M  V30 8747 H 801.86 -1.86788 -0.512833 0
M  V30 END ATOM
M  V30 BEGIN BOND
M  V30 END BOND
M  V30 END CTAB
M  END
$$$$
